
#######################################################################
#
#                 Cambridge Crystallographic Data Centre
#                                CCDC 
#
#######################################################################
#
# If this CIF has been generated from an entry in the Cambridge 
# Structural Database, then it will include bibliographic, chemical, 
# crystal, experimental, refinement or atomic coordinate data resulting 
# from the CCDC's data processing and validation procedures.
#
#######################################################################

data_JEFBUS
_chemical_compound_source        'roots of Euphorbia ebracteolata'
_chemical_name_common            
2,2',4,4'-Tetrahydroxy-6,6'-dimethoxy-3,3'-dimethyl-7,5'-bis(acetophenone)
_chemical_formula_moiety         'C20 H22 O8'
_chemical_name_systematic        
1-(3-(3-Acetoxy-2,6-dihydroxy-4-methoxybenzyl)-4,6-dihydroxy-2-methoxy-5-methylphenyl)ethanone
_symmetry_cell_setting           orthorhombic
_symmetry_space_group_name_H-M   'P b c a'
_symmetry_Int_Tables_number      61
_space_group_name_Hall           '-P 2ac 2ab'
loop_
_symmetry_equiv_pos_site_id
_symmetry_equiv_pos_as_xyz
1 x,y,z
2 1/2-x,-y,1/2+z
3 -x,1/2+y,1/2-z
4 1/2+x,1/2-y,-z
5 -x,-y,-z
6 1/2+x,y,1/2-z
7 x,1/2-y,1/2+z
8 1/2-x,1/2+y,z
_cell_length_a                   14.877(4)
_cell_length_b                   10.258(3)
_cell_length_c                   24.629(6)
_cell_angle_alpha                90
_cell_angle_beta                 90
_cell_angle_gamma                90
_cell_volume                     3758.59
_exptl_crystal_colour            colorless
_exptl_crystal_description       plate
_chemical_melting_point          '228-230 deg.C'
_cell_formula_units_Z            8
loop_
_atom_site_label
_atom_site_type_symbol
_atom_site_fract_x
_atom_site_fract_y
_atom_site_fract_z
O1 O 0.79542(11) 0.04157(19) 0.57154(7)
O2 O 0.76025(9) 0.21700(17) 0.50613(6)
H1 H 0.7908 0.1684 0.5251
O3 O 0.45442(9) 0.32500(16) 0.47446(7)
H2 H 0.4756 0.3671 0.4492
O4 O 0.52443(10) -0.00455(15) 0.59978(6)
C1 C 0.64505(14) 0.0998(2) 0.55462(8)
C2 C 0.67165(13) 0.1966(2) 0.51674(8)
C3 C 0.61142(12) 0.2760(2) 0.48869(8)
C4 C 0.52011(13) 0.2538(2) 0.49812(8)
C5 C 0.49011(13) 0.1601(2) 0.53448(8)
H3 H 0.4288 0.1474 0.5396
C6 C 0.55077(14) 0.0860(2) 0.56298(8)
C7 C 0.64444(13) 0.3817(2) 0.45052(8)
H4 H 0.6080 0.4590 0.4559
H5 H 0.7058 0.4037 0.4602
C8 C 0.71476(16) 0.0217(2) 0.58187(9)
C9 C 0.69386(19) -0.0838(3) 0.62188(12)
H6 H 0.7488 -0.1225 0.6344
H7 H 0.6574 -0.1492 0.6048
H8 H 0.6619 -0.0474 0.6522
C10 C 0.43143(16) -0.0129(3) 0.61325(10)
H9 H 0.4226 -0.0807 0.6396
H10 H 0.3974 -0.0325 0.5812
H11 H 0.4116 0.0687 0.6281
O5 O 0.49392(14) 0.3543(2) 0.21783(7)
O6 O 0.64570(13) 0.25268(18) 0.22684(6)
H12 H 0.6003 0.2795 0.2116
O7 O 0.78063(9) 0.22278(16) 0.39692(7)
H13 H 0.7708 0.2346 0.4293
O8 O 0.50041(9) 0.44823(14) 0.38178(6)
C11 C 0.56639(14) 0.3497(2) 0.30210(8)
C12 C 0.64151(15) 0.2822(2) 0.28040(8)
C13 C 0.71194(13) 0.2373(2) 0.31268(8)
C14 C 0.71063(13) 0.2695(2) 0.36725(8)
C15 C 0.64186(13) 0.3454(2) 0.39091(8)
C16 C 0.57150(13) 0.38111(19) 0.35775(8)
C17 C 0.78488(16) 0.1502(3) 0.29018(10)
H14 H 0.8271 0.1298 0.3184
H15 H 0.8153 0.1944 0.2612
H16 H 0.7585 0.0712 0.2767
C18 C 0.48731(17) 0.3730(2) 0.26740(10)
C19 C 0.39682(17) 0.4095(3) 0.28839(12)
H17 H 0.3560 0.4201 0.2585
H18 H 0.4010 0.4899 0.3082
H19 H 0.3751 0.3421 0.3120
C20 C 0.50363(17) 0.5880(2) 0.37625(11)
H20 H 0.4522 0.6258 0.3938
H21 H 0.5032 0.6108 0.3384
H22 H 0.5575 0.6205 0.3928
loop_
_geom_bond_atom_site_label_1
_geom_bond_atom_site_label_2
_geom_bond_site_symmetry_1
_geom_bond_site_symmetry_2
O1 C8 1_555 1_555
O2 H1 1_555 1_555
O3 H2 1_555 1_555
O4 C6 1_555 1_555
C1 C2 1_555 1_555
C2 O2 1_555 1_555
C3 C2 1_555 1_555
C4 O3 1_555 1_555
C5 C4 1_555 1_555
H3 C5 1_555 1_555
C6 C1 1_555 1_555
C7 C3 1_555 1_555
H4 C7 1_555 1_555
H5 C7 1_555 1_555
C8 C1 1_555 1_555
C9 C8 1_555 1_555
H6 C9 1_555 1_555
H7 C9 1_555 1_555
H8 C9 1_555 1_555
C10 O4 1_555 1_555
H9 C10 1_555 1_555
H10 C10 1_555 1_555
H11 C10 1_555 1_555
O5 C18 1_555 1_555
O6 H12 1_555 1_555
O7 H13 1_555 1_555
O8 C16 1_555 1_555
C11 C12 1_555 1_555
C12 O6 1_555 1_555
C13 C12 1_555 1_555
C14 O7 1_555 1_555
C15 C7 1_555 1_555
C16 C11 1_555 1_555
C17 C13 1_555 1_555
H14 C17 1_555 1_555
H15 C17 1_555 1_555
H16 C17 1_555 1_555
C18 C11 1_555 1_555
C19 C18 1_555 1_555
H17 C19 1_555 1_555
H18 C19 1_555 1_555
H19 C19 1_555 1_555
C20 O8 1_555 1_555
H20 C20 1_555 1_555
H21 C20 1_555 1_555
H22 C20 1_555 1_555
C3 C4 1_555 1_555
C5 C6 1_555 1_555
C13 C14 1_555 1_555
C14 C15 1_555 1_555
C15 C16 1_555 1_555

#END
