
#######################################################################
#
#                 Cambridge Crystallographic Data Centre
#                                CCDC 
#
#######################################################################
#
# If this CIF has been generated from an entry in the Cambridge 
# Structural Database, then it will include bibliographic, chemical, 
# crystal, experimental, refinement or atomic coordinate data resulting 
# from the CCDC's data processing and validation procedures.
#
#######################################################################

data_JEFGAD
_chemical_formula_moiety         'C22 H23 N1 O5'
_chemical_name_systematic        
'erythro-hydroxy-(10-isopropylidene-3,5-dioxo-4-phenyl-4-azatricyclo(5.2.1.0^2,6^)dec-8-enyl)acetic acid ethyl ester'
_symmetry_cell_setting           monoclinic
_symmetry_space_group_name_H-M   'C c'
_symmetry_Int_Tables_number      9
_space_group_name_Hall           'C -2yc'
loop_
_symmetry_equiv_pos_site_id
_symmetry_equiv_pos_as_xyz
1 x,y,z
2 x,-y,1/2+z
3 1/2+x,1/2+y,z
4 1/2+x,1/2-y,1/2+z
_cell_length_a                   17.7827(16)
_cell_length_b                   11.8082(11)
_cell_length_c                   9.9967(9)
_cell_angle_alpha                90
_cell_angle_beta                 109.2450(10)
_cell_angle_gamma                90
_cell_volume                     1981.82
_exptl_crystal_colour            colorless
_exptl_crystal_description       rod
_chemical_melting_point          '132-136 deg.C'
_cell_formula_units_Z            4
loop_
_atom_site_label
_atom_site_type_symbol
_atom_site_fract_x
_atom_site_fract_y
_atom_site_fract_z
O1 O 0.90253(11) 0.07029(18) -0.14507(19)
O2 O 1.12420(10) 0.19372(19) 0.19834(18)
O3 O 0.74084(11) 0.31367(17) -0.0357(2)
H1 H 0.7007 0.3174 -0.1057
O4 O 0.66079(12) 0.1275(2) -0.0132(3)
O5 O 0.75688(15) 0.0135(2) -0.0234(4)
N1 N 1.02278(11) 0.13026(17) 0.00646(19)
C1 C 1.14800(19) 0.1493(3) -0.2824(3)
H2 H 1.1765 0.1548 -0.3451
C2 C 1.0802(2) 0.2121(3) -0.3042(3)
H3 H 1.0622 0.2594 -0.3828
C3 C 1.03831(18) 0.2054(3) -0.2099(3)
H4 H 0.9924 0.2482 -0.2248
C4 C 1.06472(13) 0.13525(19) -0.0938(2)
C5 C 1.13227(16) 0.0711(2) -0.0714(3)
H5 H 1.1503 0.0235 0.0067
C6 C 1.17337(18) 0.0790(3) -0.1685(4)
H6 H 1.2188 0.0354 -0.1551
C7 C 0.94223(13) 0.09921(18) -0.0289(2)
C8 C 0.91804(12) 0.11172(18) 0.1020(2)
H7 H 0.8986 0.0403 0.1282
C9 C 0.99394(13) 0.1535(2) 0.2180(2)
H8 H 1.0103 0.1025 0.2998
C10 C 1.05603(13) 0.1623(2) 0.1466(2)
C11 C 0.85695(13) 0.21238(18) 0.0892(2)
C12 C 0.84374(15) 0.2139(2) 0.2322(2)
H9 H 0.7971 0.1926 0.2484
C13 C 0.90930(16) 0.2503(3) 0.3293(3)
H10 H 0.9167 0.2601 0.4251
C14 C 0.96975(14) 0.2731(2) 0.2574(3)
H11 H 1.0135 0.3241 0.3068
C15 C 0.91686(13) 0.31039(19) 0.1115(2)
C16 C 0.92973(16) 0.3917(2) 0.0298(3)
C17 C 0.8793(2) 0.4151(3) -0.1216(4)
H12 H 0.8330 0.3673 -0.1471
H13 H 0.9097 0.3998 -0.1830
H14 H 0.8631 0.4930 -0.1308
C18 C 1.0002(2) 0.4706(3) 0.0873(5)
H15 H 0.9814 0.5459 0.0939
H16 H 1.0312 0.4705 0.0249
H17 H 1.0326 0.4454 0.1796
C19 C 0.77939(13) 0.2101(2) -0.0362(2)
H18 H 0.7914 0.2024 -0.1246
C20 C 0.72482(14) 0.1133(3) -0.0240(3)
C21 C 0.7134(3) -0.0873(4) 0.0035(11)
H19 H 0.6879 -0.0683 0.0727
H20 H 0.6722 -0.1094 -0.0836
C22 C 0.7659(4) -0.1768(5) 0.0533(5)
H21 H 0.7857 -0.2019 -0.0201
H22 H 0.7386 -0.2381 0.0809
H23 H 0.8096 -0.1522 0.1337
loop_
_geom_bond_atom_site_label_1
_geom_bond_atom_site_label_2
_geom_bond_site_symmetry_1
_geom_bond_site_symmetry_2
O1 C7 1_555 1_555
O2 C10 1_555 1_555
O3 H1 1_555 1_555
O4 C20 1_555 1_555
O5 C20 1_555 1_555
N1 C4 1_555 1_555
C1 H2 1_555 1_555
C2 C1 1_555 1_555
H3 C2 1_555 1_555
C3 C2 1_555 1_555
H4 C3 1_555 1_555
C4 C3 1_555 1_555
C5 C4 1_555 1_555
H5 C5 1_555 1_555
C6 C1 1_555 1_555
H6 C6 1_555 1_555
C7 N1 1_555 1_555
C8 C7 1_555 1_555
H7 C8 1_555 1_555
C9 C8 1_555 1_555
H8 C9 1_555 1_555
C10 N1 1_555 1_555
C11 C8 1_555 1_555
C12 C11 1_555 1_555
H9 C12 1_555 1_555
C13 C12 1_555 1_555
H10 C13 1_555 1_555
C14 C9 1_555 1_555
H11 C14 1_555 1_555
C15 C11 1_555 1_555
C16 C15 1_555 1_555
C17 C16 1_555 1_555
H12 C17 1_555 1_555
H13 C17 1_555 1_555
H14 C17 1_555 1_555
C18 C16 1_555 1_555
H15 C18 1_555 1_555
H16 C18 1_555 1_555
H17 C18 1_555 1_555
C19 O3 1_555 1_555
H18 C19 1_555 1_555
C20 C19 1_555 1_555
C21 O5 1_555 1_555
H19 C21 1_555 1_555
H20 C21 1_555 1_555
C22 C21 1_555 1_555
H21 C22 1_555 1_555
H22 C22 1_555 1_555
H23 C22 1_555 1_555
C5 C6 1_555 1_555
C9 C10 1_555 1_555
C11 C19 1_555 1_555
C13 C14 1_555 1_555
C14 C15 1_555 1_555

#END
