
#######################################################################
#
#                 Cambridge Crystallographic Data Centre
#                                CCDC 
#
#######################################################################
#
# If this CIF has been generated from an entry in the Cambridge 
# Structural Database, then it will include bibliographic, chemical, 
# crystal, experimental, refinement or atomic coordinate data resulting 
# from the CCDC's data processing and validation procedures.
#
#######################################################################

data_JEFHEH
_chemical_formula_moiety         'C15 H24 O3'
_chemical_name_systematic        3-Oxo-4E-pentadecen-15-olide
_symmetry_cell_setting           monoclinic
_symmetry_space_group_name_H-M   'P 21/a'
_symmetry_Int_Tables_number      14
_space_group_name_Hall           '-P 2yab'
loop_
_symmetry_equiv_pos_site_id
_symmetry_equiv_pos_as_xyz
1 x,y,z
2 1/2-x,1/2+y,-z
3 -x,-y,-z
4 1/2+x,1/2-y,z
_cell_length_a                   9.885(3)
_cell_length_b                   8.627(3)
_cell_length_c                   17.403(7)
_cell_angle_alpha                90
_cell_angle_beta                 98.55(3)
_cell_angle_gamma                90
_cell_volume                     1467.6
_exptl_crystal_colour            white
_cell_formula_units_Z            4
loop_
_atom_site_label
_atom_site_type_symbol
_atom_site_fract_x
_atom_site_fract_y
_atom_site_fract_z
O1 O -0.1029(1) 0.0674(2) 0.3987(1)
C1 C -0.1523(2) 0.1814(2) 0.4379(1)
O2 O -0.2334(2) 0.1592(2) 0.4819(1)
C2 C -0.0941(2) 0.3345(2) 0.4209(1)
C3 C -0.0975(2) 0.3657(2) 0.3347(1)
O3 O 0.0049(2) 0.4033(2) 0.3093(1)
C4 C -0.2309(2) 0.3519(2) 0.2855(1)
C5 C -0.2535(2) 0.3957(2) 0.2127(1)
C6 C -0.3857(2) 0.3920(3) 0.1593(1)
C7 C -0.3751(3) 0.3299(3) 0.0783(1)
C8 C -0.3215(2) 0.1651(3) 0.0774(1)
C9 C -0.4119(2) 0.0431(3) 0.1080(1)
C10 C -0.3656(2) -0.1241(3) 0.1006(1)
C11 C -0.2306(2) -0.1637(3) 0.1480(1)
C12 C -0.2294(2) -0.1616(3) 0.2360(1)
C13 C -0.0888(2) -0.1764(3) 0.2812(1)
C14 C -0.0819(2) -0.2027(3) 0.3680(1)
C15 C -0.1578(2) -0.0864(2) 0.4097(1)
H1 H -0.1457 0.4140 0.4420
H2 H -0.0007 0.3383 0.4456
H3 H -0.3056 0.3085 0.3078
H4 H -0.1760 0.4347 0.1914
H5 H -0.4481 0.3274 0.1821
H6 H -0.4211 0.4957 0.1540
H7 H -0.3145 0.3962 0.0551
H8 H -0.4645 0.3330 0.0481
H9 H -0.3130 0.1391 0.0248
H10 H -0.2331 0.1618 0.1088
H11 H -0.5026 0.0529 0.0798
H12 H -0.4138 0.0639 0.1621
H13 H -0.3587 -0.1431 0.0469
H14 H -0.4338 -0.1910 0.1166
H15 H -0.2052 -0.2659 0.1335
H16 H -0.1640 -0.0903 0.1357
H17 H -0.2842 -0.2462 0.2497
H18 H -0.2684 -0.0654 0.2498
H19 H -0.0445 -0.2624 0.2602
H20 H -0.0398 -0.0828 0.2740
H21 H 0.0126 -0.2005 0.3910
H22 H -0.1194 -0.3033 0.3754
H23 H -0.1461 -0.1107 0.4641
H24 H -0.2534 -0.0889 0.3890
loop_
_geom_bond_atom_site_label_1
_geom_bond_atom_site_label_2
_geom_bond_site_symmetry_1
_geom_bond_site_symmetry_2
O1 C1 1_555 1_555
C1 O2 1_555 1_555
C2 C1 1_555 1_555
C3 C2 1_555 1_555
O3 C3 1_555 1_555
C4 C3 1_555 1_555
C5 C4 1_555 1_555
C6 C5 1_555 1_555
C7 C6 1_555 1_555
C8 C7 1_555 1_555
C9 C8 1_555 1_555
C10 C9 1_555 1_555
C11 C10 1_555 1_555
C12 C11 1_555 1_555
C13 C12 1_555 1_555
C14 C13 1_555 1_555
C15 O1 1_555 1_555
H1 C2 1_555 1_555
H2 C2 1_555 1_555
H3 C4 1_555 1_555
H4 C5 1_555 1_555
H5 C6 1_555 1_555
H6 C6 1_555 1_555
H7 C7 1_555 1_555
H8 C7 1_555 1_555
H9 C8 1_555 1_555
H10 C8 1_555 1_555
H11 C9 1_555 1_555
H12 C9 1_555 1_555
H13 C10 1_555 1_555
H14 C10 1_555 1_555
H15 C11 1_555 1_555
H16 C11 1_555 1_555
H17 C12 1_555 1_555
H18 C12 1_555 1_555
H19 C13 1_555 1_555
H20 C13 1_555 1_555
H21 C14 1_555 1_555
H22 C14 1_555 1_555
H23 C15 1_555 1_555
H24 C15 1_555 1_555
C14 C15 1_555 1_555

#END
