
#######################################################################
#
#                 Cambridge Crystallographic Data Centre
#                                CCDC 
#
#######################################################################
#
# If this CIF has been generated from an entry in the Cambridge 
# Structural Database, then it will include bibliographic, chemical, 
# crystal, experimental, refinement or atomic coordinate data resulting 
# from the CCDC's data processing and validation procedures.
#
#######################################################################

data_JEFJAF
_chemical_formula_moiety         'C10 H16 O5'
_chemical_name_systematic        7,10-Dioxa-3-oxo-tridecan-13-olide
_symmetry_cell_setting           monoclinic
_symmetry_space_group_name_H-M   'P 21/n'
_symmetry_Int_Tables_number      14
_space_group_name_Hall           '-P 2yn'
loop_
_symmetry_equiv_pos_site_id
_symmetry_equiv_pos_as_xyz
1 x,y,z
2 1/2-x,1/2+y,1/2-z
3 -x,-y,-z
4 1/2+x,1/2-y,1/2+z
_cell_length_a                   15.154(9)
_cell_length_b                   5.041(2)
_cell_length_c                   15.759(7)
_cell_angle_alpha                90
_cell_angle_beta                 113.21(4)
_cell_angle_gamma                90
_cell_volume                     1106.42
_chemical_melting_point          38-40deg.C
_cell_formula_units_Z            4
loop_
_atom_site_label
_atom_site_type_symbol
_atom_site_fract_x
_atom_site_fract_y
_atom_site_fract_z
O1 O 0.2824(2) 0.1501(6) 0.4091(2)
C1 C 0.2641(3) -0.0535(10) 0.3518(3)
O2 O 0.3235(2) -0.1620(7) 0.3324(3)
C2 C 0.1602(3) -0.1231(10) 0.3113(3)
C3 C 0.1120(3) -0.1141(8) 0.3795(3)
O3 O 0.0529(2) 0.0481(7) 0.3737(2)
C4 C 0.1410(3) -0.3264(9) 0.4505(3)
C5 C 0.1120(4) -0.2896(11) 0.5326(4)
C6 C 0.1751(4) -0.1144(11) 0.6026(4)
O4 O 0.2667(3) -0.2358(8) 0.6415(3)
C7 C 0.3356(5) -0.0491(17) 0.6970(4)
C8 C 0.4210(4) -0.0526(15) 0.6790(4)
O5 O 0.4078(2) -0.0164(7) 0.5872(2)
C9 C 0.4053(3) 0.2482(10) 0.5558(4)
C10 C 0.3804(3) 0.2413(10) 0.4560(4)
H1 H 0.1278 0.0009 0.2627
H2 H 0.1533 -0.2989 0.2861
H3 H 0.1127 -0.4890 0.4203
H4 H 0.2097 -0.3411 0.4746
H5 H 0.1126 -0.4600 0.5600
H6 H 0.0482 -0.2175 0.5103
H7 H 0.1506 -0.0864 0.6495
H8 H 0.1797 0.0526 0.5754
H9 H 0.3524 -0.0889 0.7610
H10 H 0.3080 0.1251 0.6836
H11 H 0.4611 0.0897 0.7139
H12 H 0.4529 -0.2188 0.7006
H13 H 0.3577 0.3472 0.5685
H14 H 0.4670 0.3298 0.5867
H15 H 0.4229 0.1225 0.4429
H16 H 0.3865 0.4163 0.4349
loop_
_geom_bond_atom_site_label_1
_geom_bond_atom_site_label_2
_geom_bond_site_symmetry_1
_geom_bond_site_symmetry_2
O1 C1 1_555 1_555
C1 O2 1_555 1_555
C2 C1 1_555 1_555
C3 C2 1_555 1_555
O3 C3 1_555 1_555
C4 C3 1_555 1_555
C5 C4 1_555 1_555
C6 C5 1_555 1_555
O4 C6 1_555 1_555
C7 O4 1_555 1_555
C8 C7 1_555 1_555
O5 C8 1_555 1_555
C9 O5 1_555 1_555
C10 O1 1_555 1_555
H1 C2 1_555 1_555
H2 C2 1_555 1_555
H3 C4 1_555 1_555
H4 C4 1_555 1_555
H5 C5 1_555 1_555
H6 C5 1_555 1_555
H7 C6 1_555 1_555
H8 C6 1_555 1_555
H9 C7 1_555 1_555
H10 C7 1_555 1_555
H11 C8 1_555 1_555
H12 C8 1_555 1_555
H13 C9 1_555 1_555
H14 C9 1_555 1_555
H15 C10 1_555 1_555
H16 C10 1_555 1_555
C9 C10 1_555 1_555

#END
