
#######################################################################
#
#                 Cambridge Crystallographic Data Centre
#                                CCDC 
#
#######################################################################
#
# If this CIF has been generated from an entry in the Cambridge 
# Structural Database, then it will include bibliographic, chemical, 
# crystal, experimental, refinement or atomic coordinate data resulting 
# from the CCDC's data processing and validation procedures.
#
#######################################################################

data_JEGHIP
_chemical_compound_source        'fruiting body of Ganoderma hainanense'
_chemical_formula_moiety         'C30 H46 O8,3.5(H2 O1)'
_chemical_name_systematic        
'3\b,7\b,15\a,24-tetrahydroxy-11,23-dioxolanost-8-en-26-oic acid hydrate'
_chemical_properties_biological  
'tested for inhibitory activity against thioredoxin reductase'
_symmetry_cell_setting           monoclinic
_symmetry_space_group_name_H-M   'P 21'
_symmetry_Int_Tables_number      4
_space_group_name_Hall           'P 2yb'
loop_
_symmetry_equiv_pos_site_id
_symmetry_equiv_pos_as_xyz
1 x,y,z
2 -x,1/2+y,-z
_cell_length_a                   14.41386(16)
_cell_length_b                   10.03243(18)
_cell_length_c                   21.4806(3)
_cell_angle_alpha                90
_cell_angle_beta                 95.4819(12)
_cell_angle_gamma                90
_cell_volume                     3092.02
_cell_formula_units_Z            4
loop_
_atom_site_label
_atom_site_type_symbol
_atom_site_fract_x
_atom_site_fract_y
_atom_site_fract_z
O1 O 0.23185(19) 0.7063(3) -0.04038(13)
O2 O 0.56996(15) 0.6676(3) -0.55988(11)
O3 O 0.33452(18) 0.6068(4) -0.83638(12)
O4 O 0.18744(18) 0.8085(4) -0.52963(13)
C1 C 0.4030(2) 0.6728(4) -0.56872(15)
O5 O 0.38338(19) 0.6914(3) -0.00894(12)
C2 C 0.3274(2) 0.6761(4) -0.53535(15)
O6 O 0.40333(19) 0.5112(3) -0.13947(13)
O7 O 0.17893(19) 0.5912(4) -0.43045(14)
C3 C 0.3975(2) 0.6957(4) -0.64046(14)
C4 C 0.3355(2) 0.6291(4) -0.46752(15)
C5 C 0.4250(2) 0.6888(4) -0.43150(15)
C6 C 0.2949(2) 0.6723(4) -0.66755(15)
C7 C 0.4979(2) 0.6597(4) -0.53342(15)
C8 C 0.4565(2) 0.5938(4) -0.67274(15)
C9 C 0.5086(2) 0.6410(4) -0.46323(16)
C10 C 0.4250(3) 0.6476(4) -0.13331(16)
C11 C 0.3440(2) 0.5859(4) -0.76931(15)
O8 O 0.4954(4) 0.8174(4) -0.18800(16)
C12 C 0.4177(3) 0.6371(4) -0.36408(16)
C13 C 0.4764(3) 0.7041(4) -0.30924(17)
C14 C 0.3201(3) 0.7028(4) -0.05043(17)
C15 C 0.2746(2) 0.6773(4) -0.74042(16)
C16 C 0.4439(2) 0.6069(4) -0.74426(15)
C17 C 0.2312(2) 0.7110(4) -0.56577(16)
C18 C 0.2308(2) 0.7587(5) -0.63269(17)
C19 C 0.3124(3) 0.6492(4) -0.35720(17)
C20 C 0.4358(3) 0.8366(4) -0.64871(17)
C21 C 0.2615(2) 0.6683(4) -0.42312(16)
C22 C 0.3376(3) 0.7242(4) -0.11837(18)
C23 C 0.4232(3) 0.8423(4) -0.43355(16)
C24 C 0.4581(3) 0.6280(4) -0.24964(17)
C25 C 0.5818(3) 0.7090(5) -0.31538(18)
C26 C 0.2784(3) 0.8193(5) -0.76746(18)
C27 C 0.3375(3) 0.4749(4) -0.47184(18)
C28 C 0.2532(3) 0.6935(6) -0.1644(2)
C29 C 0.1761(3) 0.6220(6) -0.75634(19)
C30 C 0.4606(3) 0.7080(5) -0.19144(18)
H1 H 0.2273(2) 0.708(7) -0.00262(14)
H2 H 0.376(3) 0.567(6) -0.8520(4)
H3 H 0.214(3) 0.8805(17) -0.532(3)
H4 H 0.4457(19) 0.4670(4) -0.122(2)
H5 H 0.1382(14) 0.633(3) -0.451(3)
H6 H 0.2808(2) 0.5806(4) -0.65597(15)
H7 H 0.5217(2) 0.6064(4) -0.65825(15)
H8 H 0.4389(2) 0.5045(4) -0.66108(15)
H9 H 0.5635(2) 0.6891(4) -0.44588(16)
H10 H 0.5186(2) 0.5472(4) -0.45398(16)
H11 H 0.4731(3) 0.6587(4) -0.09824(16)
H12 H 0.3272(2) 0.4933(4) -0.76116(15)
H13 H 0.4335(3) 0.5421(4) -0.36338(16)
H14 H 0.4540(3) 0.7957(4) -0.30542(17)
H15 H 0.4638(2) 0.6949(4) -0.75614(15)
H16 H 0.4828(2) 0.5417(4) -0.76264(15)
H17 H 0.1933(2) 0.6299(4) -0.56630(16)
H18 H 0.2514(2) 0.8507(5) -0.63314(17)
H19 H 0.1679(2) 0.7544(5) -0.65323(17)
H20 H 0.2901(3) 0.5693(4) -0.33804(17)
H21 H 0.3007(3) 0.7248(4) -0.33090(17)
H22 H 0.3959(13) 0.9004(5) -0.6312(14)
H23 H 0.4974(9) 0.8430(11) -0.6276(13)
H24 H 0.438(2) 0.8548(13) -0.69242(18)
H25 H 0.2456(2) 0.7626(4) -0.42929(16)
H26 H 0.3513(3) 0.8192(4) -0.12297(18)
H27 H 0.412(2) 0.8715(4) -0.4762(2)
H28 H 0.3746(15) 0.8746(4) -0.4099(13)
H29 H 0.4821(8) 0.8765(4) -0.4159(14)
H30 H 0.3973(3) 0.5860(4) -0.25654(17)
H31 H 0.5040(3) 0.5574(4) -0.24318(17)
H32 H 0.6045(6) 0.6204(6) -0.3211(18)
H33 H 0.5933(4) 0.763(3) -0.3508(11)
H34 H 0.6132(4) 0.747(4) -0.2781(8)
H35 H 0.249(2) 0.8804(8) -0.7410(10)
H36 H 0.3422(3) 0.8449(16) -0.7696(17)
H37 H 0.246(2) 0.8211(10) -0.8087(8)
H38 H 0.2828(12) 0.4443(4) -0.4968(13)
H39 H 0.3920(13) 0.4473(4) -0.4908(15)
H40 H 0.339(2) 0.4375(4) -0.4306(2)
H41 H 0.2645(14) 0.724(4) -0.2053(5)
H42 H 0.2425(19) 0.5991(8) -0.1656(16)
H43 H 0.1994(8) 0.738(4) -0.1512(12)
H44 H 0.1677(12) 0.544(3) -0.7314(16)
H45 H 0.1312(3) 0.6885(18) -0.748(2)
H46 H 0.1678(12) 0.599(5) -0.7998(5)
O9 O 0.44548(17) 0.4991(3) 0.08087(13)
O10 O 0.39894(15) 0.2414(3) 0.03430(13)
O11 O 0.37055(17) 0.0670(3) -0.06921(14)
O12 O -0.02049(17) 0.1658(4) -0.10831(13)
O13 O 0.1537(2) 0.3516(4) -0.36841(13)
C31 C 0.1425(2) 0.1867(4) -0.11231(16)
O14 O 0.1031(2) 0.0227(3) 0.26234(16)
C32 C 0.1466(2) 0.1697(4) 0.02495(17)
C33 C 0.2259(2) 0.1841(4) -0.07640(17)
C34 C 0.2312(2) 0.2231(4) -0.00781(17)
C35 C 0.1701(2) 0.2175(4) 0.09304(17)
C36 C 0.1327(2) 0.1800(4) -0.18425(16)
C37 C 0.1192(2) 0.1518(4) 0.14494(18)
C38 C 0.0556(2) 0.1930(5) -0.08019(18)
C39 C 0.2287(2) 0.2145(4) -0.20659(16)
C40 C 0.1583(2) 0.3351(5) -0.30121(18)
C41 C 0.0586(2) 0.2247(5) -0.01075(18)
C42 C 0.2335(2) 0.2309(4) -0.27838(18)
C43 C 0.1250(2) 0.1404(5) 0.2642(2)
C44 C 0.3114(2) 0.1741(4) 0.03873(17)
C45 C 0.1524(3) 0.2157(5) 0.20774(18)
C46 C 0.2772(2) 0.2022(4) 0.10347(17)
C47 C 0.3171(2) 0.1648(4) -0.10544(17)
C48 C 0.0632(2) 0.3021(5) -0.28200(18)
C49 C 0.3026(2) 0.1240(4) -0.17392(17)
C50 C 0.3291(3) 0.2914(5) -0.2883(2)
C51 C 0.1422(3) 0.0162(4) 0.02275(19)
O15 O 0.1311(3) 0.1322(5) 0.37645(18)
O16 O -0.0030(4) 0.4774(6) 0.3878(2)
C52 C 0.0942(3) 0.0415(5) -0.2046(2)
C53 C 0.0420(4) 0.3076(5) 0.3235(2)
C54 C 0.1268(3) 0.2157(6) 0.3247(2)
C55 C 0.0126(2) 0.1654(6) 0.13433(19)
C56 C 0.2364(2) 0.3789(4) -0.00913(19)
O17 O 0.1360(3) 0.4095(6) 0.4124(2)
C57 C 0.0644(2) 0.2891(5) -0.21105(19)
C58 C 0.2230(3) 0.1023(5) -0.3173(2)
C59 C -0.0499(3) 0.2332(6) 0.3183(3)
C60 C 0.0630(4) 0.4041(7) 0.3802(3)
H47 H 0.3893(3) 0.3206(12) 0.027(3)
H48 H 0.4224(16) 0.061(5) -0.082(2)
H49 H 0.199(3) 0.394(6) -0.3774(3)
H50 H 0.1564(2) 0.3132(4) 0.09388(17)
H51 H 0.1351(2) 0.0568(4) 0.14680(18)
H52 H 0.2433(2) 0.3033(4) -0.18926(16)
H53 H 0.1772(2) 0.4208(5) -0.28211(18)
H54 H 0.0044(2) 0.1864(5) 0.00598(18)
H55 H 0.0564(2) 0.3206(5) -0.00509(18)
H56 H 0.3198(2) 0.0779(4) 0.03357(17)
H57 H 0.2198(3) 0.2231(5) 0.21084(18)
H58 H 0.1272(3) 0.3053(5) 0.20863(18)
H59 H 0.3054(2) 0.2832(4) 0.12119(17)
H60 H 0.2937(2) 0.1290(4) 0.13189(17)
H61 H 0.3515(2) 0.2492(4) -0.10254(17)
H62 H 0.0197(2) 0.3716(5) -0.29666(18)
H63 H 0.0418(2) 0.2190(5) -0.30153(18)
H64 H 0.2825(2) 0.0318(4) -0.17739(17)
H65 H 0.3605(2) 0.1327(4) -0.19317(17)
H66 H 0.3424(13) 0.363(3) -0.2594(13)
H67 H 0.3764(4) 0.2242(11) -0.2814(18)
H68 H 0.3281(9) 0.324(4) -0.3303(6)
H69 H 0.136(3) -0.0129(4) -0.02002(19)
H70 H 0.1985(11) -0.0201(4) 0.0436(15)
H71 H 0.0897(15) -0.0140(4) 0.0433(15)
H72 H 0.176(5) 0.082(8) 0.376(3)
H73 H 0.1410(10) -0.0249(7) -0.1942(16)
H74 H 0.0401(16) 0.0222(17) -0.1833(14)
H75 H 0.077(3) 0.0413(13) -0.2489(3)
H76 H 0.0422(4) 0.3621(5) 0.2856(2)
H77 H 0.1828(3) 0.2717(6) 0.3285(2)
H78 H -0.0035(3) 0.2566(9) 0.1253(19)
H79 H -0.0106(4) 0.110(3) 0.0998(13)
H80 H -0.0146(3) 0.138(4) 0.1713(7)
H81 H 0.1774(8) 0.4143(4) -0.0260(15)
H82 H 0.251(2) 0.4118(4) 0.0326(3)
H83 H 0.2840(16) 0.4062(4) -0.0348(13)
H84 H 0.0021(2) 0.2678(5) -0.20054(19)
H85 H 0.0823(2) 0.3738(5) -0.19176(19)
H86 H 0.257(2) 0.0315(11) -0.2952(9)
H87 H 0.1582(4) 0.079(2) -0.3241(16)
H88 H 0.247(3) 0.1162(13) -0.3568(8)
H89 H -0.0561(16) 0.183(4) 0.2802(12)
H90 H -0.0515(15) 0.174(4) 0.3533(13)
H91 H -0.1002(4) 0.2959(7) 0.318(2)
O18 O -0.19927(17) 0.1870(4) -0.07359(13)
H92 H -0.1444(16) 0.187(7) -0.085(3)
H93 H -0.234(3) 0.139(6) -0.099(2)
O19 O 0.4373(3) -0.1524(4) 0.10564(16)
H94 H 0.399(4) -0.191(7) 0.127(3)
H95 H 0.429(5) -0.180(8) 0.0682(12)
O20 O -0.0138(2) 0.1045(4) -0.49257(18)
H96 H 0.001(4) 0.131(9) -0.4553(14)
H97 H 0.035(3) 0.101(9) -0.512(3)
O21 O 0.2725(3) 0.0481(5) 0.4730(3)
H98 H 0.246(6) -0.001(12) 0.498(5)
H99 H 0.238(6) 0.114(6) 0.462(5)
O22 O 0.0286(3) -0.0750(6) 0.4214(2)
H100 H 0.057(6) -0.082(10) 0.389(3)
H101 H 0.049(7) -0.007(7) 0.442(4)
O23 O 0.1494(4) 0.2373(6) -0.4843(3)
loop_
_geom_bond_atom_site_label_1
_geom_bond_atom_site_label_2
_geom_bond_site_symmetry_1
_geom_bond_site_symmetry_2
O1 C14 1_555 1_555
O2 C7 1_555 1_555
O3 C11 1_555 1_555
O4 C17 1_555 1_555
C1 C2 1_555 1_555
O5 C14 1_555 1_555
C2 C4 1_555 1_555
O6 C10 1_555 1_555
O7 C21 1_555 1_555
C3 C1 1_555 1_555
C4 C5 1_555 1_555
C5 C9 1_555 1_555
C6 C3 1_555 1_555
C7 C1 1_555 1_555
C8 C3 1_555 1_555
C9 C7 1_555 1_555
C10 C22 1_555 1_555
C11 C15 1_555 1_555
O8 C30 1_555 1_555
C12 C5 1_555 1_555
C13 C12 1_555 1_555
C14 C22 1_555 1_555
C15 C6 1_555 1_555
C16 C8 1_555 1_555
C17 C2 1_555 1_555
C18 C6 1_555 1_555
C19 C12 1_555 1_555
C20 C3 1_555 1_555
C21 C4 1_555 1_555
C22 C28 1_555 1_555
C23 C5 1_555 1_555
C24 C13 1_555 1_555
C25 C13 1_555 1_555
C26 C15 1_555 1_555
C27 C4 1_555 1_555
C28 H41 1_555 1_555
C29 C15 1_555 1_555
C30 C10 1_555 1_555
H1 O1 1_555 1_555
H2 O3 1_555 1_555
H3 O4 1_555 1_555
H4 O6 1_555 1_555
H5 O7 1_555 1_555
H6 C6 1_555 1_555
H7 C8 1_555 1_555
H8 C8 1_555 1_555
H9 C9 1_555 1_555
H10 C9 1_555 1_555
H11 C10 1_555 1_555
H12 C11 1_555 1_555
H13 C12 1_555 1_555
H14 C13 1_555 1_555
H15 C16 1_555 1_555
H16 C16 1_555 1_555
H17 C17 1_555 1_555
H18 C18 1_555 1_555
H19 C18 1_555 1_555
H20 C19 1_555 1_555
H21 C19 1_555 1_555
H22 C20 1_555 1_555
H23 C20 1_555 1_555
H24 C20 1_555 1_555
H25 C21 1_555 1_555
H26 C22 1_555 1_555
H27 C23 1_555 1_555
H28 C23 1_555 1_555
H29 C23 1_555 1_555
H30 C24 1_555 1_555
H31 C24 1_555 1_555
H32 C25 1_555 1_555
H33 C25 1_555 1_555
H34 C25 1_555 1_555
H35 C26 1_555 1_555
H36 C26 1_555 1_555
H37 C26 1_555 1_555
H38 C27 1_555 1_555
H39 C27 1_555 1_555
H40 C27 1_555 1_555
H42 C28 1_555 1_555
H43 C28 1_555 1_555
H44 C29 1_555 1_555
H45 C29 1_555 1_555
H46 C29 1_555 1_555
O10 C44 1_555 1_555
O11 C47 1_555 1_555
O12 C38 1_555 1_555
O13 C40 1_555 1_555
C31 C33 1_555 1_555
O14 C43 1_555 1_555
C32 C34 1_555 1_555
C33 C34 1_555 1_555
C34 C44 1_555 1_555
C35 C32 1_555 1_555
C36 C31 1_555 1_555
C37 C35 1_555 1_555
C38 C31 1_555 1_555
C39 C36 1_555 1_555
C40 C42 1_555 1_555
C41 C32 1_555 1_555
C42 C39 1_555 1_555
C43 C45 1_555 1_555
C44 C46 1_555 1_555
C45 C37 1_555 1_555
C46 C35 1_555 1_555
C47 C33 1_555 1_555
C48 C40 1_555 1_555
C49 C39 1_555 1_555
C50 C42 1_555 1_555
C51 C32 1_555 1_555
O15 C54 1_555 1_555
O16 C60 1_555 1_555
C52 C36 1_555 1_555
C53 C54 1_555 1_555
C54 C43 1_555 1_555
C55 C37 1_555 1_555
C56 C34 1_555 1_555
O17 C60 1_555 1_555
C57 C36 1_555 1_555
C58 C42 1_555 1_555
C59 C53 1_555 1_555
C60 C53 1_555 1_555
H47 O10 1_555 1_555
H48 O11 1_555 1_555
H49 O13 1_555 1_555
H50 C35 1_555 1_555
H51 C37 1_555 1_555
H52 C39 1_555 1_555
H53 C40 1_555 1_555
H54 C41 1_555 1_555
H55 C41 1_555 1_555
H56 C44 1_555 1_555
H57 C45 1_555 1_555
H58 C45 1_555 1_555
H59 C46 1_555 1_555
H60 C46 1_555 1_555
H61 C47 1_555 1_555
H62 C48 1_555 1_555
H63 C48 1_555 1_555
H64 C49 1_555 1_555
H65 C49 1_555 1_555
H66 C50 1_555 1_555
H67 C50 1_555 1_555
H68 C50 1_555 1_555
H69 C51 1_555 1_555
H70 C51 1_555 1_555
H71 C51 1_555 1_555
H72 O15 1_555 1_555
H73 C52 1_555 1_555
H74 C52 1_555 1_555
H75 C52 1_555 1_555
H76 C53 1_555 1_555
H77 C54 1_555 1_555
H78 C55 1_555 1_555
H79 C55 1_555 1_555
H80 C55 1_555 1_555
H81 C56 1_555 1_555
H82 C56 1_555 1_555
H83 C56 1_555 1_555
H84 C57 1_555 1_555
H85 C57 1_555 1_555
H86 C58 1_555 1_555
H87 C58 1_555 1_555
H88 C58 1_555 1_555
H89 C59 1_555 1_555
H90 C59 1_555 1_555
H91 C59 1_555 1_555
O18 H92 1_555 1_555
H93 O18 1_555 1_555
O19 H94 1_555 1_555
H95 O19 1_555 1_555
O20 H96 1_555 1_555
H97 O20 1_555 1_555
O21 H98 1_555 1_555
H99 O21 1_555 1_555
O22 H100 1_555 1_555
H101 O22 1_555 1_555
C11 C16 1_555 1_555
C17 C18 1_555 1_555
C19 C21 1_555 1_555
C24 C30 1_555 1_555
C38 C41 1_555 1_555
C47 C49 1_555 1_555
C48 C57 1_555 1_555

#END
