
#######################################################################
#
#                 Cambridge Crystallographic Data Centre
#                                CCDC 
#
#######################################################################
#
# If this CIF has been generated from an entry in the Cambridge 
# Structural Database, then it will include bibliographic, chemical, 
# crystal, experimental, refinement or atomic coordinate data resulting 
# from the CCDC's data processing and validation procedures.
#
#######################################################################

data_JEGHUB
_chemical_compound_source        
'South China Sea soft coral Sarcophyton elegans'
_chemical_name_common            'sarelengan E'
_chemical_formula_moiety         'C20 H30 O5'
_chemical_name_systematic        
5,9-dihydroxy-12-isopropyl-5,9-dimethyl-13-oxabicyclo[10.2.2]hexadeca-1,10-diene-6,14-dione
_symmetry_cell_setting           triclinic
_symmetry_space_group_name_H-M   'P 1'
_symmetry_Int_Tables_number      1
_space_group_name_Hall           'P 1'
loop_
_symmetry_equiv_pos_site_id
_symmetry_equiv_pos_as_xyz
1 x,y,z
_cell_length_a                   9.6159(2)
_cell_length_b                   9.7162(2)
_cell_length_c                   21.2262(4)
_cell_angle_alpha                102.7736(18)
_cell_angle_beta                 99.6112(18)
_cell_angle_gamma                96.8219(18)
_cell_volume                     1881.77
_chemical_melting_point          '177-178 deg.C'
_cell_formula_units_Z            4
loop_
_atom_site_label
_atom_site_type_symbol
_atom_site_fract_x
_atom_site_fract_y
_atom_site_fract_z
O1 O -0.4149(2) -0.8504(2) -0.37070(9)
O2 O -0.6869(2) -0.40559(18) -0.24181(9)
O3 O -0.9287(2) -0.82792(19) -0.43410(9)
H1 H -1.0086(11) -0.808(3) -0.43230(17)
O4 O -0.5220(2) -0.46477(19) -0.17434(9)
C1 C -0.8196(3) -0.6672(3) -0.32705(12)
H2 H -0.8079(3) -0.6538(3) -0.28160(12)
C2 C -0.8062(3) -0.5517(3) -0.35030(13)
H3 H -0.8305(3) -0.5639(3) -0.39570(13)
C3 C -0.6386(3) -0.3232(3) -0.33598(13)
H4 H -0.6027(3) -0.2287(3) -0.30727(13)
H5 H -0.6803(3) -0.3121(3) -0.37907(13)
O5 O -0.4056(2) -0.8405(2) -0.20140(9)
H6 H -0.444(3) -0.9203(6) -0.2012(9)
C4 C -0.8789(3) -0.3168(3) -0.29671(13)
H7 H -0.8375(3) -0.2167(3) -0.27567(13)
C5 C -0.2808(3) -0.5761(3) -0.22002(15)
H8 H -0.2000(3) -0.5056(3) -0.19394(15)
H9 H -0.3476(3) -0.5898(3) -0.19154(15)
C6 C -0.4572(3) -0.8562(3) -0.32083(13)
C7 C -0.6082(3) -0.8691(3) -0.31495(11)
H10 H -0.6339(3) -0.9560(3) -0.30129(11)
H11 H -0.6193(3) -0.7891(3) -0.28065(11)
C8 C -0.9746(4) -0.3209(3) -0.36368(16)
H12 H -1.0152(17) -0.4182(4) -0.3859(5)
H13 H -1.0498(13) -0.2664(18) -0.35628(17)
H14 H -0.9179(6) -0.2807(19) -0.3904(4)
C9 C -0.3429(3) -0.8497(3) -0.25804(13)
C10 C -0.2813(3) -0.9897(3) -0.27175(14)
H15 H -0.3566(5) -1.0694(3) -0.2793(9)
H16 H -0.2392(18) -0.9968(10) -0.3101(6)
H17 H -0.2098(14) -0.9905(9) -0.2345(4)
C11 C -0.9396(3) -0.9140(3) -0.33586(14)
H18 H -0.9567(16) -1.0113(4) -0.3614(5)
H19 H -0.8874(8) -0.9083(14) -0.2924(3)
H20 H -1.0293(8) -0.8815(11) -0.3329(7)
C12 C -0.3514(3) -0.5191(3) -0.27404(14)
H21 H -0.3062(3) -0.5259(3) -0.30981(14)
C13 C -0.8528(3) -0.8200(2) -0.36913(12)
C14 C -0.4691(3) -0.4598(3) -0.27959(12)
C15 C -0.5588(3) -0.4442(3) -0.22860(13)
C16 C -0.2276(3) -0.7186(3) -0.24364(15)
H22 H -0.1906(3) -0.7167(3) -0.28330(15)
H23 H -0.1494(3) -0.7271(3) -0.21012(15)
C17 C -0.7127(3) -0.8724(3) -0.37929(13)
H24 H -0.6652(3) -0.8138(3) -0.40342(13)
H25 H -0.7345(3) -0.9698(3) -0.40636(13)
C18 C -0.5179(3) -0.4062(3) -0.34175(13)
H26 H -0.5475(3) -0.4876(3) -0.37954(13)
H27 H -0.4376(3) -0.3461(3) -0.34945(13)
C19 C -0.7539(3) -0.4004(2) -0.30794(13)
C20 C -0.9666(3) -0.3696(3) -0.25233(16)
H28 H -1.001(2) -0.4700(7) -0.2697(7)
H29 H -0.9087(9) -0.354(3) -0.2091(4)
H30 H -1.0460(17) -0.319(2) -0.2496(11)
O6 O -0.6997(2) -0.6806(3) -0.99359(11)
O7 O -0.1875(2) -0.70866(19) -0.93167(9)
H31 H -0.1156(16) -0.746(3) -0.93380(9)
O8 O -0.42759(19) -1.13005(18) -1.12394(8)
O9 O -0.5942(2) -1.07130(19) -1.19147(9)
O10 O -0.7095(2) -0.6961(2) -1.16452(9)
H32 H -0.647(2) -0.6273(17) -1.1599(6)
C21 C -0.2631(3) -0.7172(3) -0.99689(12)
C22 C -0.8863(3) -0.8134(3) -1.12222(14)
H33 H -0.9229(3) -0.8151(3) -1.08244(14)
H34 H -0.9648(3) -0.8039(3) -1.15537(14)
C23 C -0.4042(3) -0.6633(3) -0.98670(13)
H35 H -0.4530(3) -0.7220(3) -0.96299(13)
H36 H -0.3822(3) -0.5660(3) -0.95955(13)
C24 C -0.6611(3) -0.6766(3) -1.04610(13)
C25 C -0.5582(3) -1.0926(2) -1.13668(12)
C26 C -0.3619(3) -1.1348(3) -1.05628(12)
C27 C -0.6467(3) -1.0795(3) -1.08512(13)
C28 C -0.6001(3) -1.1292(3) -1.02422(13)
H37 H -0.5721(3) -1.0469(3) -0.98674(13)
H38 H -0.6801(3) -1.1899(3) -1.01663(13)
C29 C -0.7703(3) -0.6802(3) -1.10752(14)
C30 C -0.7644(3) -1.0160(3) -1.09096(13)
H39 H -0.8087(3) -1.0068(3) -1.05484(13)
C31 C -0.8368(3) -0.5428(3) -1.09528(18)
H40 H -0.9168(14) -0.5505(10) -1.1304(6)
H41 H -0.869(2) -0.5296(12) -1.0541(5)
H42 H -0.7667(7) -0.4624(4) -1.0937(11)
C32 C -0.2391(3) -1.2209(3) -1.06660(13)
H43 H -0.2811(3) -1.3214(3) -1.08629(13)
C33 C -0.1748(3) -0.6236(3) -1.02907(14)
H44 H -0.0829(7) -0.6528(12) -1.0291(8)
H45 H -0.2229(9) -0.6332(14) -1.0736(3)
H46 H -0.1627(16) -0.5256(4) -1.0048(5)
C34 C -0.3127(3) -0.9837(3) -1.01554(12)
H47 H -0.2902(3) -0.9698(3) -0.97000(12)
C35 C -0.8371(3) -0.9568(3) -1.14631(14)
H48 H -0.9194(3) -1.0260(3) -1.17180(14)
H49 H -0.7712(3) -0.9449(3) -1.17540(14)
C36 C -0.5036(3) -0.6662(3) -1.05032(14)
H50 H -0.4752(3) -0.5801(3) -1.06409(14)
H51 H -0.4923(3) -0.7471(3) -1.08409(14)
C37 C -0.4736(3) -1.2132(3) -1.02903(13)
H52 H -0.5075(3) -1.3082(3) -1.05760(13)
H53 H -0.4320(3) -1.2232(3) -0.98569(13)
C38 C -0.2992(3) -0.8696(3) -1.03934(12)
H54 H -0.3124(3) -0.8831(3) -1.08483(12)
C39 C -0.1396(3) -1.2125(3) -1.00230(15)
H55 H -0.1946(4) -1.231(2) -0.9704(3)
H56 H -0.0773(14) -1.2823(14) -1.0092(2)
H57 H -0.0836(15) -1.1187(7) -0.9864(5)
C40 C -0.1494(3) -1.1695(3) -1.11350(16)
H58 H -0.114(2) -1.0690(6) -1.0970(7)
H59 H -0.0703(16) -1.221(2) -1.1159(10)
H60 H -0.2081(8) -1.187(2) -1.1566(3)
O11 O -0.1974(2) -0.71555(19) -0.42919(9)
H61 H -0.2484(11) -0.762(2) -0.4114(4)
O12 O -0.4311(2) -1.13426(18) -0.62288(8)
O13 O -0.6807(2) -0.5885(3) -0.49098(11)
O14 O -0.5999(2) -1.07246(19) -0.68794(9)
C41 C -0.7743(3) -0.6601(3) -0.60652(14)
C42 C -0.1706(3) -0.6325(3) -0.52341(14)
H62 H -0.0794(6) -0.6641(12) -0.5188(7)
H63 H -0.2090(9) -0.6425(14) -0.5692(2)
H64 H -0.1593(14) -0.5340(3) -0.5001(6)
C43 C -0.3121(3) -0.9902(3) -0.51479(12)
H65 H -0.2817(3) -0.9781(3) -0.46968(12)
O15 O -0.7205(2) -0.6830(2) -0.66601(9)
H66 H -0.656(3) -0.617(2) -0.6634(7)
C44 C -0.2410(3) -1.2273(3) -0.56720(13)
H67 H -0.2838(3) -1.3271(3) -0.58796(13)
C45 C -0.5082(3) -0.6675(3) -0.55533(13)
H68 H -0.5179(3) -0.7616(3) -0.58459(13)
H69 H -0.4648(3) -0.5981(3) -0.57586(13)
C46 C -0.4740(3) -1.2185(3) -0.52834(13)
H70 H -0.5113(3) -1.3122(3) -0.55756(13)
H71 H -0.4305(3) -1.2315(3) -0.48586(13)
C47 C -0.1424(3) -1.2234(3) -0.50394(14)
H72 H -0.1976(3) -1.243(2) -0.4723(3)
H73 H -0.0815(14) -1.2942(14) -0.5118(2)
H74 H -0.0849(14) -1.1304(7) -0.4872(5)
C48 C -0.6545(3) -0.6356(3) -0.54565(14)
C49 C -0.3630(3) -1.1410(3) -0.55643(13)
C50 C -0.1516(4) -1.1734(3) -0.61359(17)
H75 H -0.0744(18) -1.227(2) -0.6178(11)
H76 H -0.2112(8) -1.186(3) -0.6562(4)
H77 H -0.114(2) -1.0738(8) -0.5956(7)
C51 C -0.8790(3) -0.7977(3) -0.61256(16)
H78 H -0.9019(3) -0.7964(3) -0.56964(16)
H79 H -0.9670(3) -0.7964(3) -0.64227(16)
C52 C -0.5604(3) -1.0932(2) -0.63342(12)
C53 C -0.3073(3) -0.8744(3) -0.53750(12)
H80 H -0.3271(3) -0.8870(3) -0.58300(12)
C54 C -0.4116(3) -0.6619(3) -0.48963(13)
H81 H -0.3875(3) -0.5632(3) -0.46428(13)
H82 H -0.4649(3) -0.7148(3) -0.46518(13)
C55 C -0.8254(3) -0.9376(3) -0.63731(16)
H83 H -0.9055(3) -1.0071(3) -0.66472(16)
H84 H -0.7573(3) -0.9210(3) -0.66484(16)
C56 C -0.7543(3) -1.0015(3) -0.58281(14)
H85 H -0.7940(3) -0.9870(3) -0.54528(14)
C57 C -0.5976(3) -1.1318(3) -0.52019(14)
H86 H -0.6784(3) -1.1923(3) -0.51320(14)
H87 H -0.5670(3) -1.0522(3) -0.48163(14)
C58 C -0.2719(3) -0.7224(3) -0.49520(12)
C59 C -0.6431(3) -1.0759(3) -0.57980(14)
C60 C -0.8528(3) -0.5310(3) -0.59986(16)
H88 H -0.9363(13) -0.5516(9) -0.6343(6)
H89 H -0.881(2) -0.5114(14) -0.5578(5)
H90 H -0.7906(8) -0.4492(6) -0.6033(10)
O16 O -0.4342(2) -0.9341(3) -0.87348(10)
C61 C -0.2925(3) -0.5934(3) -0.72973(13)
H91 H -0.2135(3) -0.5227(3) -0.70219(13)
H92 H -0.3613(3) -0.6100(3) -0.70251(13)
O17 O -0.9183(2) -0.82010(19) -0.93634(9)
H93 H -0.8606(5) -0.792(3) -0.9571(4)
O18 O -0.6837(2) -0.40123(18) -0.74285(9)
O19 O -0.3958(2) -0.85382(19) -0.70030(9)
H94 H -0.435(3) -0.9316(6) -0.6976(9)
O20 O -0.5168(2) -0.46464(19) -0.67773(9)
C62 C -0.5558(3) -0.4429(3) -0.73165(13)
C63 C -0.8110(3) -0.6624(3) -0.82891(12)
H95 H -0.7913(3) -0.6502(3) -0.78343(12)
C64 C -0.7061(3) -0.8743(3) -0.87627(12)
H96 H -0.7304(3) -0.9731(3) -0.90150(12)
H97 H -0.6540(3) -0.8217(3) -0.90125(12)
C65 C -0.8455(3) -0.8146(3) -0.87071(13)
C66 C -0.3610(3) -0.5332(3) -0.78284(13)
H98 H -0.3205(3) -0.5455(3) -0.82013(13)
C67 C -0.4607(3) -0.8971(3) -0.82019(13)
C68 C -0.2626(3) -1.0018(3) -0.76715(15)
H99 H -0.3296(5) -1.0866(4) -0.7718(10)
H100 H -0.2216(18) -1.0101(13) -0.8058(6)
H101 H -0.1883(14) -0.9900(10) -0.7292(5)
C69 C -0.4718(3) -0.4643(3) -0.78491(12)
C70 C -0.5209(3) -0.4050(3) -0.84527(13)
H102 H -0.4397(3) -0.3463(3) -0.85307(13)
H103 H -0.5541(3) -0.4844(3) -0.88382(13)
C71 C -0.2354(3) -0.7350(3) -0.75335(14)
H104 H -0.2116(3) -0.7378(3) -0.79620(14)
H105 H -0.1480(3) -0.7348(3) -0.72297(14)
C72 C -0.7529(3) -0.3947(3) -0.80855(13)
C73 C -0.8774(3) -0.3106(3) -0.79564(13)
H106 H -0.8354(3) -0.2112(3) -0.77342(13)
C74 C -0.3399(3) -0.8716(3) -0.75866(13)
C75 C -0.6379(3) -0.3177(3) -0.83683(13)
H107 H -0.5986(3) -0.2248(3) -0.80724(13)
H108 H -0.6805(3) -0.3030(3) -0.87909(13)
C76 C -0.6060(3) -0.8689(3) -0.81135(11)
H109 H -0.5976(3) -0.7754(3) -0.78174(11)
H110 H -0.6477(3) -0.9393(3) -0.79091(11)
C77 C -0.9453(3) -0.9053(3) -0.84178(14)
H111 H -0.9600(15) -1.0031(4) -0.8664(5)
H112 H -0.9036(9) -0.8986(15) -0.7966(3)
H113 H -1.0353(7) -0.8713(12) -0.8440(8)
C78 C -0.8062(3) -0.5450(3) -0.85087(13)
H114 H -0.8379(3) -0.5557(3) -0.89579(13)
C79 C -0.9735(4) -0.3107(3) -0.86235(15)
H115 H -1.0150(18) -0.4072(4) -0.8855(5)
H116 H -1.0481(13) -0.2558(19) -0.85413(16)
H117 H -0.9166(6) -0.269(2) -0.8886(4)
C80 C -0.9658(4) -0.3667(4) -0.75234(17)
H118 H -0.9077(9) -0.356(3) -0.7096(5)
H119 H -1.0438(19) -0.314(2) -0.7482(12)
H120 H -1.003(3) -0.4662(9) -0.7715(7)
loop_
_geom_bond_atom_site_label_1
_geom_bond_atom_site_label_2
_geom_bond_site_symmetry_1
_geom_bond_site_symmetry_2
O1 C6 1_555 1_555
O2 C15 1_555 1_555
O3 H1 1_555 1_555
O4 C15 1_555 1_555
C1 H2 1_555 1_555
C2 C1 1_555 1_555
H3 C2 1_555 1_555
C3 H4 1_555 1_555
H5 C3 1_555 1_555
O5 H6 1_555 1_555
C4 H7 1_555 1_555
C5 H8 1_555 1_555
H9 C5 1_555 1_555
C6 C7 1_555 1_555
C7 H10 1_555 1_555
H11 C7 1_555 1_555
C8 C4 1_555 1_555
H12 C8 1_555 1_555
H13 C8 1_555 1_555
H14 C8 1_555 1_555
C9 O5 1_555 1_555
C10 C9 1_555 1_555
H15 C10 1_555 1_555
H16 C10 1_555 1_555
H17 C10 1_555 1_555
C11 H18 1_555 1_555
H19 C11 1_555 1_555
H20 C11 1_555 1_555
C12 C5 1_555 1_555
H21 C12 1_555 1_555
C13 O3 1_555 1_555
C14 C12 1_555 1_555
C15 C14 1_555 1_555
C16 C5 1_555 1_555
H22 C16 1_555 1_555
H23 C16 1_555 1_555
C17 C7 1_555 1_555
H24 C17 1_555 1_555
H25 C17 1_555 1_555
C18 C3 1_555 1_555
H26 C18 1_555 1_555
H27 C18 1_555 1_555
C19 O2 1_555 1_555
C20 C4 1_555 1_555
H28 C20 1_555 1_555
H29 C20 1_555 1_555
H30 C20 1_555 1_555
O6 C24 1_555 1_555
O7 H31 1_555 1_555
O8 C25 1_555 1_555
O9 C25 1_555 1_555
O10 H32 1_555 1_555
C21 O7 1_555 1_555
C22 H33 1_555 1_555
H34 C22 1_555 1_555
C23 C21 1_555 1_555
H35 C23 1_555 1_555
H36 C23 1_555 1_555
C24 C29 1_555 1_555
C25 C27 1_555 1_555
C26 O8 1_555 1_555
C27 C28 1_555 1_555
C28 H37 1_555 1_555
H38 C28 1_555 1_555
C29 O10 1_555 1_555
C30 C27 1_555 1_555
H39 C30 1_555 1_555
C31 C29 1_555 1_555
H40 C31 1_555 1_555
H41 C31 1_555 1_555
H42 C31 1_555 1_555
C32 C26 1_555 1_555
H43 C32 1_555 1_555
C33 C21 1_555 1_555
H44 C33 1_555 1_555
H45 C33 1_555 1_555
H46 C33 1_555 1_555
C34 C26 1_555 1_555
H47 C34 1_555 1_555
C35 C22 1_555 1_555
H48 C35 1_555 1_555
H49 C35 1_555 1_555
C36 C23 1_555 1_555
H50 C36 1_555 1_555
H51 C36 1_555 1_555
C37 C26 1_555 1_555
H52 C37 1_555 1_555
H53 C37 1_555 1_555
C38 C21 1_555 1_555
H54 C38 1_555 1_555
C39 C32 1_555 1_555
H55 C39 1_555 1_555
H56 C39 1_555 1_555
H57 C39 1_555 1_555
C40 C32 1_555 1_555
H58 C40 1_555 1_555
H59 C40 1_555 1_555
H60 C40 1_555 1_555
O11 H61 1_555 1_555
O12 C49 1_555 1_555
O13 C48 1_555 1_555
O14 C52 1_555 1_555
C41 O15 1_555 1_555
C42 H62 1_555 1_555
H63 C42 1_555 1_555
H64 C42 1_555 1_555
C43 H65 1_555 1_555
O15 H66 1_555 1_555
C44 H67 1_555 1_555
C45 H68 1_555 1_555
H69 C45 1_555 1_555
C46 H70 1_555 1_555
H71 C46 1_555 1_555
C47 C44 1_555 1_555
H72 C47 1_555 1_555
H73 C47 1_555 1_555
H74 C47 1_555 1_555
C48 C41 1_555 1_555
C49 C43 1_555 1_555
C50 C44 1_555 1_555
H75 C50 1_555 1_555
H76 C50 1_555 1_555
H77 C50 1_555 1_555
C51 C41 1_555 1_555
H78 C51 1_555 1_555
H79 C51 1_555 1_555
C52 O12 1_555 1_555
C53 C43 1_555 1_555
H80 C53 1_555 1_555
C54 C45 1_555 1_555
H81 C54 1_555 1_555
H82 C54 1_555 1_555
C55 C51 1_555 1_555
H83 C55 1_555 1_555
H84 C55 1_555 1_555
C56 C55 1_555 1_555
H85 C56 1_555 1_555
C57 C46 1_555 1_555
H86 C57 1_555 1_555
H87 C57 1_555 1_555
C58 O11 1_555 1_555
C59 C52 1_555 1_555
C60 C41 1_555 1_555
H88 C60 1_555 1_555
H89 C60 1_555 1_555
H90 C60 1_555 1_555
O16 C67 1_555 1_555
C61 H91 1_555 1_555
H92 C61 1_555 1_555
O17 H93 1_555 1_555
O18 C62 1_555 1_555
O19 H94 1_555 1_555
O20 C62 1_555 1_555
C62 C69 1_555 1_555
C63 H95 1_555 1_555
C64 H96 1_555 1_555
H97 C64 1_555 1_555
C65 O17 1_555 1_555
C66 C61 1_555 1_555
H98 C66 1_555 1_555
C67 C74 1_555 1_555
C68 H99 1_555 1_555
H100 C68 1_555 1_555
H101 C68 1_555 1_555
C69 C66 1_555 1_555
C70 C69 1_555 1_555
H102 C70 1_555 1_555
H103 C70 1_555 1_555
C71 C61 1_555 1_555
H104 C71 1_555 1_555
H105 C71 1_555 1_555
C72 O18 1_555 1_555
C73 C72 1_555 1_555
H106 C73 1_555 1_555
C74 O19 1_555 1_555
C75 C70 1_555 1_555
H107 C75 1_555 1_555
H108 C75 1_555 1_555
C76 C64 1_555 1_555
H109 C76 1_555 1_555
H110 C76 1_555 1_555
C77 C65 1_555 1_555
H111 C77 1_555 1_555
H112 C77 1_555 1_555
H113 C77 1_555 1_555
C78 C63 1_555 1_555
H114 C78 1_555 1_555
C79 C73 1_555 1_555
H115 C79 1_555 1_555
H116 C79 1_555 1_555
H117 C79 1_555 1_555
C80 C73 1_555 1_555
H118 C80 1_555 1_555
H119 C80 1_555 1_555
H120 C80 1_555 1_555
C1 C13 1_555 1_555
C2 C19 1_555 1_555
C3 C19 1_555 1_555
C4 C19 1_555 1_555
C6 C9 1_555 1_555
C9 C16 1_555 1_555
C11 C13 1_555 1_555
C13 C17 1_555 1_555
C14 C18 1_555 1_555
C22 C29 1_555 1_555
C24 C36 1_555 1_555
C28 C37 1_555 1_555
C30 C35 1_555 1_555
C34 C38 1_555 1_555
C42 C58 1_555 1_555
C44 C49 1_555 1_555
C45 C48 1_555 1_555
C46 C49 1_555 1_555
C53 C58 1_555 1_555
C54 C58 1_555 1_555
C56 C59 1_555 1_555
C57 C59 1_555 1_555
C63 C65 1_555 1_555
C64 C65 1_555 1_555
C67 C76 1_555 1_555
C68 C74 1_555 1_555
C71 C74 1_555 1_555
C72 C75 1_555 1_555
C72 C78 1_555 1_555

#END
