
#######################################################################
#
#                 Cambridge Crystallographic Data Centre
#                                CCDC 
#
#######################################################################
#
# If this CIF has been generated from an entry in the Cambridge 
# Structural Database, then it will include bibliographic, chemical, 
# crystal, experimental, refinement or atomic coordinate data resulting 
# from the CCDC's data processing and validation procedures.
#
#######################################################################

data_JEGKIS
_chemical_formula_moiety         'C23 H16 O1,C6 F4 I2'
_chemical_name_systematic        
'3-(9-anthryl)-1-phenylprop-2-en-1-one 1,2,4,5-tetrafluoro-3,6-diiodobenzene'
_symmetry_cell_setting           triclinic
_symmetry_space_group_name_H-M   'P -1'
_symmetry_Int_Tables_number      2
_space_group_name_Hall           '-P 1'
loop_
_symmetry_equiv_pos_site_id
_symmetry_equiv_pos_as_xyz
1 x,y,z
2 -x,-y,-z
_cell_length_a                   7.8030(16)
_cell_length_b                   13.037(3)
_cell_length_c                   13.309(3)
_cell_angle_alpha                112.98(3)
_cell_angle_beta                 93.84(3)
_cell_angle_gamma                93.44(3)
_cell_volume                     1238.17
_exptl_crystal_colour            yellow
_exptl_crystal_description       block
_cell_formula_units_Z            2
loop_
_atom_site_label
_atom_site_type_symbol
_atom_site_fract_x
_atom_site_fract_y
_atom_site_fract_z
O1 O 1.1391(7) 0.7337(4) 0.8588(5)
C1 C 0.9110(11) 0.8941(5) 0.8652(7)
H1 H 1.0281 0.9162 0.8710
C2 C 0.7924(12) 0.9716(7) 0.8821(8)
H2 H 0.8293 1.0450 0.8942
C3 C 0.6220(12) 0.9425(6) 0.8813(7)
H3 H 0.5442 0.9966 0.8965
C4 C 0.5640(10) 0.8326(6) 0.8580(6)
H4 H 0.4474 0.8125 0.8572
C5 C 0.6810(10) 0.7529(6) 0.8357(6)
H5 H 0.6418 0.6785 0.8179
C6 C 0.8551(9) 0.7820(5) 0.8394(5)
C7 C 0.9879(9) 0.7006(5) 0.8244(6)
C8 C 0.9318(9) 0.5793(5) 0.7657(6)
H6 H 0.8199 0.5570 0.7318
C9 C 1.0376(10) 0.5028(5) 0.7608(6)
H7 H 1.1491 0.5292 0.7942
C10 C 1.0000(8) 0.3814(5) 0.7089(5)
C11 C 0.9159(8) 0.3276(6) 0.6003(6)
C12 C 0.8698(10) 0.3845(7) 0.5327(6)
H8 H 0.8914 0.4619 0.5599
C13 C 0.7946(11) 0.3282(8) 0.4288(7)
H9 H 0.7648 0.3676 0.3861
C14 C 0.7608(11) 0.2090(8) 0.3842(8)
H10 H 0.7116 0.1714 0.3123
C15 C 0.7990(10) 0.1518(7) 0.4444(7)
H11 H 0.7721 0.0747 0.4154
C16 C 0.8812(9) 0.2071(6) 0.5536(6)
C17 C 0.9318(10) 0.1462(6) 0.6143(6)
H12 H 0.9068 0.0689 0.5840
C18 C 1.0184(9) 0.1973(5) 0.7187(6)
C19 C 1.0770(10) 0.1335(6) 0.7776(6)
H13 H 1.0588 0.0558 0.7452
C20 C 1.1585(11) 0.1840(7) 0.8797(7)
H14 H 1.1952 0.1412 0.9175
C21 C 1.1879(10) 0.3014(6) 0.9290(6)
H15 H 1.2426 0.3354 0.9999
C22 C 1.1387(9) 0.3654(6) 0.8759(6)
H16 H 1.1607 0.4427 0.9106
C23 C 1.0530(9) 0.3171(5) 0.7669(6)
I1 I 0.67163(6) 0.28482(4) 0.93452(4)
I2 I 0.30442(8) 0.27820(6) 0.44101(5)
F1 F 0.5894(8) 0.4804(4) 0.8558(4)
F2 F 0.4547(8) 0.4792(4) 0.6677(5)
F3 F 0.3753(8) 0.0860(4) 0.5214(4)
F4 F 0.5182(8) 0.0865(4) 0.7087(4)
C24 C 0.5404(10) 0.3797(6) 0.7729(6)
C25 C 0.4686(10) 0.3802(6) 0.6760(7)
C26 C 0.4100(9) 0.2823(7) 0.5896(6)
C27 C 0.4290(10) 0.1845(6) 0.6037(6)
C28 C 0.5023(10) 0.1845(6) 0.6996(7)
C29 C 0.5621(9) 0.2838(6) 0.7883(6)
loop_
_geom_bond_atom_site_label_1
_geom_bond_atom_site_label_2
_geom_bond_site_symmetry_1
_geom_bond_site_symmetry_2
O1 C7 1_555 1_555
C1 H1 1_555 1_555
C2 C1 1_555 1_555
H2 C2 1_555 1_555
C3 C2 1_555 1_555
H3 C3 1_555 1_555
C4 C3 1_555 1_555
H4 C4 1_555 1_555
C5 C4 1_555 1_555
H5 C5 1_555 1_555
C6 C1 1_555 1_555
C7 C6 1_555 1_555
C8 C7 1_555 1_555
H6 C8 1_555 1_555
C9 C8 1_555 1_555
H7 C9 1_555 1_555
C10 C9 1_555 1_555
C11 C10 1_555 1_555
C12 C11 1_555 1_555
H8 C12 1_555 1_555
C13 C12 1_555 1_555
H9 C13 1_555 1_555
C14 C13 1_555 1_555
H10 C14 1_555 1_555
C15 C14 1_555 1_555
H11 C15 1_555 1_555
C16 C11 1_555 1_555
C17 C16 1_555 1_555
H12 C17 1_555 1_555
C18 C17 1_555 1_555
C19 C18 1_555 1_555
H13 C19 1_555 1_555
C20 C19 1_555 1_555
H14 C20 1_555 1_555
C21 C20 1_555 1_555
H15 C21 1_555 1_555
C22 C21 1_555 1_555
H16 C22 1_555 1_555
C23 C10 1_555 1_555
I1 C29 1_555 1_555
I2 C26 1_555 1_555
F1 C24 1_555 1_555
F2 C25 1_555 1_555
F3 C27 1_555 1_555
F4 C28 1_555 1_555
C24 C25 1_555 1_555
C25 C26 1_555 1_555
C26 C27 1_555 1_555
C27 C28 1_555 1_555
C28 C29 1_555 1_555
C29 C24 1_555 1_555
C5 C6 1_555 1_555
C15 C16 1_555 1_555
C18 C23 1_555 1_555
C22 C23 1_555 1_555

#END
