
#######################################################################
#
#                 Cambridge Crystallographic Data Centre
#                                CCDC 
#
#######################################################################
#
# If this CIF has been generated from an entry in the Cambridge 
# Structural Database, then it will include bibliographic, chemical, 
# crystal, experimental, refinement or atomic coordinate data resulting 
# from the CCDC's data processing and validation procedures.
#
#######################################################################

data_JEGKOY
_chemical_formula_moiety         'C26 H18 O2,C6 F4 I2'
_chemical_name_systematic        
'1-(4-methoxyphenyl)-3-(pyren-1-yl)prop-2-en-1-one 1,2,4,5-tetrafluoro-3,6-diiodobenzene'
_symmetry_cell_setting           triclinic
_symmetry_space_group_name_H-M   'P -1'
_symmetry_Int_Tables_number      2
_space_group_name_Hall           '-P 1'
loop_
_symmetry_equiv_pos_site_id
_symmetry_equiv_pos_as_xyz
1 x,y,z
2 -x,-y,-z
_cell_length_a                   7.6160(15)
_cell_length_b                   9.6880(19)
_cell_length_c                   19.298(4)
_cell_angle_alpha                87.84(3)
_cell_angle_beta                 83.14(3)
_cell_angle_gamma                73.58(3)
_cell_volume                     1356.02
_exptl_crystal_colour            red
_exptl_crystal_description       block
_cell_formula_units_Z            2
loop_
_atom_site_label
_atom_site_type_symbol
_atom_site_fract_x
_atom_site_fract_y
_atom_site_fract_z
I1 I 0.19773(7) 1.18899(4) 0.85815(3)
F1 F 0.1084(5) 1.6943(4) 0.72556(18)
I2 I -0.15477(6) 1.93279(4) 0.82965(2)
F2 F 0.2425(5) 1.4127(4) 0.73573(19)
F3 F -0.0876(5) 1.4234(3) 0.95921(18)
F4 F -0.2161(5) 1.7071(4) 0.95065(18)
C1 C 0.0602(8) 1.6297(6) 0.7837(3)
C2 C 0.1277(8) 1.4835(6) 0.7896(3)
C3 C 0.0852(8) 1.4089(5) 0.8485(3)
C4 C -0.0351(8) 1.4902(6) 0.9017(3)
C5 C -0.1025(8) 1.6355(6) 0.8968(3)
C6 C -0.0576(8) 1.7103(5) 0.8377(3)
C7 C 1.1150(7) 0.0841(5) 0.5810(3)
O1 O 0.7203(7) 0.2421(4) 0.8134(3)
O2 O 0.3109(6) 0.8756(4) 0.9103(2)
C8 C 1.1803(8) -0.0358(6) 0.6273(3)
H1 H 1.1356 -0.0284 0.6744
C9 C 1.3043(8) -0.1572(6) 0.6033(3)
H2 H 1.3426 -0.2319 0.6347
C10 C 1.3798(8) -0.1774(6) 0.5324(3)
C11 C 1.3192(8) -0.0641(6) 0.4855(3)
C12 C 1.1870(7) 0.0677(6) 0.5100(3)
C13 C 1.5045(8) -0.3039(6) 0.5079(4)
H3 H 1.5433 -0.3797 0.5387
C14 C 1.5732(9) -0.3192(7) 0.4369(4)
H4 H 1.6569 -0.4049 0.4208
C15 C 1.5173(9) -0.2086(8) 0.3916(4)
H5 H 1.5655 -0.2194 0.3448
C16 C 1.3893(8) -0.0795(7) 0.4137(3)
C17 C 1.3256(9) 0.0366(8) 0.3674(4)
H6 H 1.3705 0.0271 0.3203
C18 C 1.2024(9) 0.1594(7) 0.3898(3)
H7 H 1.1634 0.2330 0.3580
C19 C 1.1292(8) 0.1799(6) 0.4621(3)
C20 C 0.9991(8) 0.3065(6) 0.4855(3)
H8 H 0.9587 0.3804 0.4540
C21 C 0.9298(8) 0.3233(6) 0.5543(4)
H9 H 0.8448 0.4097 0.5687
C22 C 0.9825(7) 0.2144(5) 0.6042(3)
C23 C 0.8973(8) 0.2331(6) 0.6767(3)
H10 H 0.9346 0.1549 0.7062
C24 C 0.7734(9) 0.3481(6) 0.7054(3)
H11 H 0.7347 0.4297 0.6780
C25 C 0.6965(8) 0.3507(6) 0.7779(3)
C26 C 0.5852(8) 0.4902(5) 0.8101(3)
C27 C 0.5102(8) 0.4906(6) 0.8804(3)
H12 H 0.5242 0.4033 0.9039
C28 C 0.4178(8) 0.6146(6) 0.9151(3)
H13 H 0.3713 0.6116 0.9617
C29 C 0.3938(8) 0.7458(6) 0.8801(3)
C30 C 0.4600(9) 0.7471(6) 0.8097(3)
H14 H 0.4400 0.8339 0.7854
C31 C 0.5530(8) 0.6232(6) 0.7765(3)
H15 H 0.5972 0.6269 0.7296
C32 C 0.2634(12) 0.8801(7) 0.9834(4)
H16 H 0.2062 0.9779 0.9977
H17 H 0.1791 0.8236 0.9960
H18 H 0.3725 0.8418 1.0061
loop_
_geom_bond_atom_site_label_1
_geom_bond_atom_site_label_2
_geom_bond_site_symmetry_1
_geom_bond_site_symmetry_2
I1 C3 1_555 1_555
F1 C1 1_555 1_555
I2 C6 1_555 1_555
F2 C2 1_555 1_555
F3 C4 1_555 1_555
F4 C5 1_555 1_555
C1 C2 1_555 1_555
C2 C3 1_555 1_555
C3 C4 1_555 1_555
C4 C5 1_555 1_555
C5 C6 1_555 1_555
C6 C1 1_555 1_555
C7 C8 1_555 1_555
O1 C25 1_555 1_555
O2 C29 1_555 1_555
C8 H1 1_555 1_555
C9 C8 1_555 1_555
H2 C9 1_555 1_555
C10 C9 1_555 1_555
C11 C10 1_555 1_555
C12 C7 1_555 1_555
C13 C10 1_555 1_555
H3 C13 1_555 1_555
C14 C13 1_555 1_555
H4 C14 1_555 1_555
C15 C14 1_555 1_555
H5 C15 1_555 1_555
C16 C11 1_555 1_555
C17 C16 1_555 1_555
H6 C17 1_555 1_555
C18 C17 1_555 1_555
H7 C18 1_555 1_555
C19 C12 1_555 1_555
C20 C19 1_555 1_555
H8 C20 1_555 1_555
C21 C20 1_555 1_555
H9 C21 1_555 1_555
C22 C7 1_555 1_555
C23 C22 1_555 1_555
H10 C23 1_555 1_555
C24 C23 1_555 1_555
H11 C24 1_555 1_555
C25 C24 1_555 1_555
C26 C25 1_555 1_555
C27 C26 1_555 1_555
H12 C27 1_555 1_555
C28 C27 1_555 1_555
H13 C28 1_555 1_555
C29 C28 1_555 1_555
C30 C29 1_555 1_555
H14 C30 1_555 1_555
C31 C26 1_555 1_555
H15 C31 1_555 1_555
C32 O2 1_555 1_555
H16 C32 1_555 1_555
H17 C32 1_555 1_555
H18 C32 1_555 1_555
C11 C12 1_555 1_555
C15 C16 1_555 1_555
C18 C19 1_555 1_555
C21 C22 1_555 1_555
C30 C31 1_555 1_555

#END
