
#######################################################################
#
#                 Cambridge Crystallographic Data Centre
#                                CCDC 
#
#######################################################################
#
# If this CIF has been generated from an entry in the Cambridge 
# Structural Database, then it will include bibliographic, chemical, 
# crystal, experimental, refinement or atomic coordinate data resulting 
# from the CCDC's data processing and validation procedures.
#
#######################################################################

data_JEGVOJ
_chemical_formula_moiety         'C19 H23 N3 O6'
_chemical_name_systematic        
't-butyl {[4-(1,3-dioxo-1,3-dihydro-2H-isoindol-2-yl)-1-methoxy-5-oxopyrrolidin-2-yl]methyl}carbamate'
_symmetry_cell_setting           monoclinic
_symmetry_space_group_name_H-M   'P 21/c'
_symmetry_Int_Tables_number      14
_space_group_name_Hall           '-P 2ybc'
loop_
_symmetry_equiv_pos_site_id
_symmetry_equiv_pos_as_xyz
1 x,y,z
2 -x,1/2+y,1/2-z
3 -x,-y,-z
4 x,1/2-y,1/2+z
_cell_length_a                   14.2012(8)
_cell_length_b                   10.1164(5)
_cell_length_c                   13.3572(7)
_cell_angle_alpha                90
_cell_angle_beta                 94.624(3)
_cell_angle_gamma                90
_cell_volume                     1912.72
_exptl_crystal_colour            colorless
_exptl_crystal_description       block
_cell_formula_units_Z            4
loop_
_atom_site_label
_atom_site_type_symbol
_atom_site_fract_x
_atom_site_fract_y
_atom_site_fract_z
O1 O 0.45335(8) 0.36717(12) 0.15619(9)
O2 O 0.56905(8) 0.57912(12) 0.10914(9)
O3 O 0.22052(8) 0.80673(13) -0.02179(10)
O4 O 0.22896(8) 0.64013(12) -0.13604(9)
O5 O 0.14023(8) 0.43140(12) 0.20738(9)
O6 O 0.43492(8) 0.49342(12) 0.36627(9)
N1 N 0.47623(9) 0.58963(14) 0.13396(11)
N2 N 0.35691(10) 0.69526(15) -0.03932(11)
H1 H 0.3831(14) 0.634(2) -0.0724(15)
N3 N 0.29588(9) 0.47231(14) 0.26445(10)
C1 C 0.42663(11) 0.48229(17) 0.15476(12)
C2 C 0.32828(11) 0.53399(17) 0.17530(12)
H2 H 0.2827 0.5133 0.1164
C3 C 0.34011(12) 0.68453(17) 0.18410(13)
H3 H 0.3456 0.7118 0.2555
H4 H 0.2851 0.7302 0.1493
C4 C 0.43094(12) 0.71876(16) 0.13438(12)
H5 H 0.4704 0.7803 0.1787
C5 C 0.41633(12) 0.77684(17) 0.02938(12)
H6 H 0.3872 0.8654 0.0335
H7 H 0.4786 0.7883 0.0021
C6 C 0.63118(13) 0.5970(2) 0.19965(15)
H8 H 0.6969 0.5997 0.1823
H9 H 0.623 0.5232 0.2457
H10 H 0.6157 0.6802 0.2322
C7 C 0.26437(12) 0.72189(17) -0.06162(13)
C8 C 0.12557(11) 0.63098(18) -0.15939(14)
C9 C 0.08552(13) 0.76157(18) -0.19938(15)
H11 H 0.1195 0.7896 -0.2568
H12 H 0.0929 0.8287 -0.1464
H13 H 0.0183 0.7507 -0.2207
C10 C 0.08007(13) 0.5847(2) -0.06739(15)
H14 H 0.084 0.6549 -0.0167
H15 H 0.1131 0.5059 -0.04
H16 H 0.0136 0.5631 -0.0857
C11 C 0.11694(13) 0.5267(2) -0.24150(16)
H17 H 0.1432 0.443 -0.215
H18 H 0.1518 0.5555 -0.298
H19 H 0.0502 0.5144 -0.2644
C12 C 0.20361(12) 0.42863(17) 0.27380(13)
C13 C 0.20239(12) 0.37923(16) 0.37854(13)
C14 C 0.12976(13) 0.32623(18) 0.42778(13)
H20 H 0.0682 0.3165 0.3952
C15 C 0.15001(13) 0.28740(19) 0.52703(14)
H21 H 0.1015 0.2506 0.5633
C16 C 0.24073(13) 0.30185(18) 0.57403(13)
H22 H 0.2529 0.2734 0.6416
C17 C 0.31348(13) 0.35642(17) 0.52488(13)
H23 H 0.375 0.3668 0.5574
C18 C 0.29259(12) 0.39520(16) 0.42642(13)
C19 C 0.35303(12) 0.45841(16) 0.35472(12)
loop_
_geom_bond_atom_site_label_1
_geom_bond_atom_site_label_2
_geom_bond_site_symmetry_1
_geom_bond_site_symmetry_2
O1 C1 1_555 1_555
O2 N1 1_555 1_555
O3 C7 1_555 1_555
O4 C7 1_555 1_555
O5 C12 1_555 1_555
O6 C19 1_555 1_555
N1 C1 1_555 1_555
N2 H1 1_555 1_555
N3 C2 1_555 1_555
C1 C2 1_555 1_555
C2 H2 1_555 1_555
C3 C2 1_555 1_555
H3 C3 1_555 1_555
H4 C3 1_555 1_555
C4 N1 1_555 1_555
H5 C4 1_555 1_555
C5 N2 1_555 1_555
H6 C5 1_555 1_555
H7 C5 1_555 1_555
C6 O2 1_555 1_555
H8 C6 1_555 1_555
H9 C6 1_555 1_555
H10 C6 1_555 1_555
C7 N2 1_555 1_555
C8 O4 1_555 1_555
C9 C8 1_555 1_555
H11 C9 1_555 1_555
H12 C9 1_555 1_555
H13 C9 1_555 1_555
C10 C8 1_555 1_555
H14 C10 1_555 1_555
H15 C10 1_555 1_555
H16 C10 1_555 1_555
C11 C8 1_555 1_555
H17 C11 1_555 1_555
H18 C11 1_555 1_555
H19 C11 1_555 1_555
C12 N3 1_555 1_555
C13 C12 1_555 1_555
C14 C13 1_555 1_555
H20 C14 1_555 1_555
C15 C14 1_555 1_555
H21 C15 1_555 1_555
C16 C15 1_555 1_555
H22 C16 1_555 1_555
C17 C16 1_555 1_555
H23 C17 1_555 1_555
C18 C13 1_555 1_555
C19 N3 1_555 1_555
C3 C4 1_555 1_555
C4 C5 1_555 1_555
C17 C18 1_555 1_555
C18 C19 1_555 1_555

#END
