
#######################################################################
#
#                 Cambridge Crystallographic Data Centre
#                                CCDC 
#
#######################################################################
#
# If this CIF has been generated from an entry in the Cambridge 
# Structural Database, then it will include bibliographic, chemical, 
# crystal, experimental, refinement or atomic coordinate data resulting 
# from the CCDC's data processing and validation procedures.
#
#######################################################################

data_JEGXEY
_chemical_formula_moiety         'C21 H18 O5'
_chemical_name_systematic        
7,8-Dihydro-1,6,11-trimethoxy-5,12-napthacenedione
_symmetry_cell_setting           monoclinic
_symmetry_space_group_name_H-M   'P 21/n'
_symmetry_Int_Tables_number      14
_space_group_name_Hall           '-P 2yn'
loop_
_symmetry_equiv_pos_site_id
_symmetry_equiv_pos_as_xyz
1 x,y,z
2 1/2-x,1/2+y,1/2-z
3 -x,-y,-z
4 1/2+x,1/2-y,1/2+z
_cell_length_a                   12.853(3)
_cell_length_b                   8.183(2)
_cell_length_c                   17.506(4)
_cell_angle_alpha                90
_cell_angle_beta                 109.45(2)
_cell_angle_gamma                90
_cell_volume                     1736.14
_exptl_crystal_colour            'pale yellow'
_cell_formula_units_Z            4
loop_
_atom_site_label
_atom_site_type_symbol
_atom_site_fract_x
_atom_site_fract_y
_atom_site_fract_z
O1 O 0.2740(2) -0.1630(4) 0.6103(2)
O2 O 0.4298(2) 0.0659(3) 0.6247(1)
O3 O 0.6345(2) 0.0042(3) 0.6095(1)
O4 O 0.7872(2) 0.0387(3) 0.9444(1)
O5 O 0.5682(2) 0.0446(4) 0.9318(2)
C1 C 0.3074(3) -0.1654(4) 0.6920(2)
C2 C 0.4088(3) -0.0878(4) 0.7332(2)
C3 C 0.4737(3) 0.0016(4) 0.6903(2)
C4 C 0.5948(3) 0.0167(4) 0.7342(2)
C5 C 0.6701(3) 0.0268(4) 0.6921(2)
C6 C 0.7831(3) 0.0410(4) 0.7343(2)
C7 C 0.8647(3) 0.0402(5) 0.6909(2)
C8 C 0.9715(3) 0.0092(5) 0.7324(3)
C9 C 1.0144(3) -0.0032(6) 0.8203(3)
C10 C 0.9434(3) 0.0747(5) 0.8623(2)
C11 C 0.8217(3) 0.0526(4) 0.8191(2)
C12 C 0.7469(3) 0.0429(4) 0.8610(2)
C13 C 0.6337(3) 0.0215(4) 0.8197(2)
C14 C 0.5525(3) -0.0019(4) 0.8630(2)
C15 C 0.4472(3) -0.0880(4) 0.8176(2)
C16 C 0.3879(3) -0.1625(5) 0.8620(2)
C17 C 0.2911(3) -0.2411(5) 0.8204(3)
C18 C 0.2507(3) -0.2431(5) 0.7367(2)
C19 C 0.1749(3) -0.2432(7) 0.5663(3)
C20 C 0.6189(3) 0.1494(5) 0.5609(2)
C21 C 0.7930(4) 0.1937(5) 0.9835(2)
H1 H 0.8414 0.0616 0.6337
H2 H 1.0216 -0.0049 0.7027
H3 H 1.0216 -0.1170 0.8345
H4 H 1.0857 0.0477 0.8392
H5 H 0.9615 0.0284 0.9155
H6 H 0.9591 0.1897 0.8666
H7 H 0.4141 -0.1589 0.9201
H8 H 0.2506 -0.2957 0.8501
H9 H 0.1828 -0.2989 0.7092
H10 H 0.1616 -0.2316 0.5092
H11 H 0.1149 -0.1955 0.5796
H12 H 0.1807 -0.3571 0.5803
H13 H 0.5942 0.1201 0.5046
H14 H 0.6873 0.2080 0.5740
H15 H 0.5644 0.2173 0.5717
H16 H 0.8220 0.1789 1.0412
H17 H 0.7207 0.2409 0.9689
H18 H 0.8407 0.2652 0.9668
loop_
_geom_bond_atom_site_label_1
_geom_bond_atom_site_label_2
_geom_bond_site_symmetry_1
_geom_bond_site_symmetry_2
O1 C1 1_555 1_555
O2 C3 1_555 1_555
O3 C5 1_555 1_555
O4 C12 1_555 1_555
O5 C14 1_555 1_555
C1 C2 1_555 1_555
C2 C3 1_555 1_555
C3 C4 1_555 1_555
C4 C5 1_555 1_555
C5 C6 1_555 1_555
C6 C7 1_555 1_555
C7 C8 1_555 1_555
C8 C9 1_555 1_555
C9 C10 1_555 1_555
C10 C11 1_555 1_555
C11 C6 1_555 1_555
C12 C11 1_555 1_555
C13 C4 1_555 1_555
C14 C13 1_555 1_555
C15 C2 1_555 1_555
C16 C15 1_555 1_555
C17 C16 1_555 1_555
C18 C1 1_555 1_555
C19 O1 1_555 1_555
C20 O3 1_555 1_555
C21 O4 1_555 1_555
H1 C7 1_555 1_555
H2 C8 1_555 1_555
H3 C9 1_555 1_555
H4 C9 1_555 1_555
H5 C10 1_555 1_555
H6 C10 1_555 1_555
H7 C16 1_555 1_555
H8 C17 1_555 1_555
H9 C18 1_555 1_555
H10 C19 1_555 1_555
H11 C19 1_555 1_555
H12 C19 1_555 1_555
H13 C20 1_555 1_555
H14 C20 1_555 1_555
H15 C20 1_555 1_555
H16 C21 1_555 1_555
H17 C21 1_555 1_555
H18 C21 1_555 1_555
C12 C13 1_555 1_555
C14 C15 1_555 1_555
C17 C18 1_555 1_555

#END
