
#######################################################################
#
#                 Cambridge Crystallographic Data Centre
#                                CCDC 
#
#######################################################################
#
# If this CIF has been generated from an entry in the Cambridge 
# Structural Database, then it will include bibliographic, chemical, 
# crystal, experimental, refinement or atomic coordinate data resulting 
# from the CCDC's data processing and validation procedures.
#
#######################################################################

data_JEGYIE
_chemical_formula_moiety         'C16 H24 O8'
_chemical_name_systematic        Cyclo(2)pentylenemalonate
_symmetry_cell_setting           monoclinic
_symmetry_space_group_name_H-M   'P 21/c'
_symmetry_Int_Tables_number      14
_space_group_name_Hall           '-P 2ybc'
loop_
_symmetry_equiv_pos_site_id
_symmetry_equiv_pos_as_xyz
1 x,y,z
2 -x,1/2+y,1/2-z
3 -x,-y,-z
4 x,1/2-y,1/2+z
_cell_length_a                   4.68710(10)
_cell_length_b                   22.9169(11)
_cell_length_c                   8.24710(10)
_cell_angle_alpha                90
_cell_angle_beta                 102.567(2)
_cell_angle_gamma                90
_cell_volume                     864.629
_exptl_crystal_colour            colorless
_exptl_crystal_description       plate
_chemical_melting_point          71deg.C
_cell_formula_units_Z            2
_exptl_crystal_recrystallization_method pentane/dichloromethane
loop_
_atom_site_label
_atom_site_type_symbol
_atom_site_fract_x
_atom_site_fract_y
_atom_site_fract_z
O1 O -0.0646(3) 0.66397(5) 0.36566(16)
C1 C 0.3104(4) 0.64013(7) 0.5971(2)
H1 H 0.4599 0.6565 0.6895
H2 H 0.4124 0.6248 0.5128
O2 O -0.3709(4) 0.74027(5) 0.32371(19)
C2 C 0.1042(5) 0.68840(7) 0.5201(2)
H3 H -0.0258 0.6997 0.5947
H4 H 0.2148 0.7232 0.4977
O3 O -0.1097(3) 0.60005(5) 0.02409(17)
C3 C -0.2941(4) 0.69366(7) 0.2820(2)
O4 O -0.3781(3) 0.56173(5) 0.19270(16)
C4 C -0.4440(4) 0.66160(7) 0.1277(2)
H5 H -0.4490 0.6868 0.0296
H6 H -0.6483 0.6531 0.1342
C5 C -0.2908(4) 0.60527(7) 0.1058(2)
C6 C -0.2055(4) 0.50838(7) 0.2024(2)
H7 H -0.0010 0.5160 0.2609
H8 H -0.2050 0.4938 0.0894
C7 C -0.3440(4) 0.46397(6) 0.2966(2)
H9 H -0.5375 0.4526 0.2291
H10 H -0.3746 0.4817 0.4010
C8 C 0.1539(4) 0.59017(7) 0.6627(2)
H11 H -0.0240 0.5800 0.5785
H12 H 0.0918 0.6032 0.7641
O1B O 0.0646(3) 0.33603(5) 0.63434(16)
C1B C -0.3104(4) 0.35987(7) 0.4029(2)
H1B H -0.4599 0.3435 0.3105
H2B H -0.4124 0.3752 0.4872
O2B O 0.3709(4) 0.25973(5) 0.67629(19)
C2B C -0.1042(5) 0.31160(7) 0.4799(2)
H3B H 0.0258 0.3003 0.4053
H4B H -0.2148 0.2768 0.5023
O3B O 0.1097(3) 0.39995(5) 0.97591(17)
C3B C 0.2941(4) 0.30634(7) 0.7180(2)
O4B O 0.3781(3) 0.43827(5) 0.80730(16)
C4B C 0.4440(4) 0.33840(7) 0.8723(2)
H5B H 0.4490 0.3132 0.9704
H6B H 0.6483 0.3469 0.8658
C5B C 0.2908(4) 0.39473(7) 0.8942(2)
C6B C 0.2055(4) 0.49162(7) 0.7976(2)
H7B H 0.0010 0.4840 0.7391
H8B H 0.2050 0.5062 0.9106
C7B C 0.3440(4) 0.53603(6) 0.7034(2)
H9B H 0.5375 0.5474 0.7709
H10B H 0.3746 0.5183 0.5990
C8B C -0.1539(4) 0.40983(7) 0.3373(2)
H11B H 0.0240 0.4200 0.4215
H12B H -0.0918 0.3968 0.2359
loop_
_geom_bond_atom_site_label_1
_geom_bond_atom_site_label_2
_geom_bond_site_symmetry_1
_geom_bond_site_symmetry_2
O1 C2 1_555 1_555
C1 H1 1_555 1_555
H2 C1 1_555 1_555
O2 C3 1_555 1_555
C2 C1 1_555 1_555
H3 C2 1_555 1_555
H4 C2 1_555 1_555
O3 C5 1_555 1_555
C3 O1 1_555 1_555
O4 C5 1_555 1_555
C4 C3 1_555 1_555
H5 C4 1_555 1_555
H6 C4 1_555 1_555
C5 C4 1_555 1_555
C6 O4 1_555 1_555
H7 C6 1_555 1_555
H8 C6 1_555 1_555
C7 C6 1_555 1_555
H9 C7 1_555 1_555
H10 C7 1_555 1_555
C8 C1 1_555 1_555
H11 C8 1_555 1_555
H12 C8 1_555 1_555
O1B C2B 1_555 1_555
C1B H1B 1_555 1_555
H2B C1B 1_555 1_555
O2B C3B 1_555 1_555
C2B C1B 1_555 1_555
H3B C2B 1_555 1_555
H4B C2B 1_555 1_555
O3B C5B 1_555 1_555
C3B O1B 1_555 1_555
O4B C5B 1_555 1_555
C4B C3B 1_555 1_555
H5B C4B 1_555 1_555
H6B C4B 1_555 1_555
C5B C4B 1_555 1_555
C6B O4B 1_555 1_555
H7B C6B 1_555 1_555
H8B C6B 1_555 1_555
C7B C8 1_555 1_555
H9B C7B 1_555 1_555
H10B C7B 1_555 1_555
C8B C7 1_555 1_555
H11B C8B 1_555 1_555
H12B C8B 1_555 1_555
C1B C8B 1_555 1_555
C6B C7B 1_555 1_555

#END
