
#######################################################################
#
#                 Cambridge Crystallographic Data Centre
#                                CCDC 
#
#######################################################################
#
# If this CIF has been generated from an entry in the Cambridge 
# Structural Database, then it will include bibliographic, chemical, 
# crystal, experimental, refinement or atomic coordinate data resulting 
# from the CCDC's data processing and validation procedures.
#
#######################################################################

data_JEGYEA
_chemical_formula_moiety         'C11 H16 O8'
_chemical_name_systematic        "4,4'-Malonlybis(butanoic acid)"
_symmetry_cell_setting           monoclinic
_symmetry_space_group_name_H-M   'P 21/n'
_symmetry_Int_Tables_number      14
_space_group_name_Hall           '-P 2yn'
loop_
_symmetry_equiv_pos_site_id
_symmetry_equiv_pos_as_xyz
1 x,y,z
2 1/2-x,1/2+y,1/2-z
3 -x,-y,-z
4 1/2+x,1/2-y,1/2+z
_cell_length_a                   10.7635(3)
_cell_length_b                   4.66930(10)
_cell_length_c                   25.6082(6)
_cell_angle_alpha                90
_cell_angle_beta                 101.426(2)
_cell_angle_gamma                90
_cell_volume                     1261.51
_exptl_crystal_colour            colorless
_exptl_crystal_description       needle
_cell_formula_units_Z            4
_exptl_crystal_recrystallization_method chloroform
loop_
_atom_site_label
_atom_site_type_symbol
_atom_site_fract_x
_atom_site_fract_y
_atom_site_fract_z
C1 C 0.06544(13) 0.6723(3) 0.24898(5)
H1 H 0.0406 0.8583 0.2624
H2 H 0.1260 0.5806 0.2784
O1 O 0.22582(10) 0.6026(2) 0.19716(4)
O2 O -0.07666(10) 0.3091(3) 0.26613(4)
C2 C 0.13329(13) 0.7299(3) 0.20393(5)
C3 C -0.05096(13) 0.4862(3) 0.23588(5)
O3 O 0.07908(9) 0.9433(2) 0.17265(4)
O4 O -0.12454(9) 0.5454(2) 0.18863(4)
C4 C -0.24216(13) 0.3830(3) 0.17590(6)
H3 H -0.2832 0.3761 0.2072
H4 H -0.2245 0.1842 0.1660
C5 C 0.13483(14) 1.0130(3) 0.12681(5)
H5 H 0.1591 0.8359 0.1101
H6 H 0.2114 1.1327 0.1378
C6 C 0.03521(14) 1.1745(3) 0.08828(6)
H7 H 0.0721 1.2438 0.0581
H8 H 0.0079 1.3435 0.1064
C7 C -0.32811(13) 0.5284(3) 0.13003(6)
H9 H -0.2883 0.5263 0.0983
H10 H -0.3411 0.7304 0.1393
C8 C -0.45515(14) 0.3751(4) 0.11726(6)
H11 H -0.4413 0.1791 0.1048
H12 H -0.4884 0.3570 0.1505
C9 C -0.07951(14) 0.9873(3) 0.06696(6)
H13 H -0.0510 0.8162 0.0497
H14 H -0.1164 0.9205 0.0973
O5 O -0.66493(10) 0.3959(3) 0.07053(5)
O6 O -0.53349(10) 0.7255(3) 0.05033(5)
O7 O -0.15983(10) 1.3372(3) 0.00045(4)
C10 C -0.18050(13) 1.1355(3) 0.02773(5)
O8 O -0.29346(11) 1.0251(3) 0.02500(5)
C11 C -0.55290(13) 0.5183(3) 0.07630(6)
H15 H -0.354(2) 1.119(6) -0.0011(11)
H16 H -0.720(2) 0.495(5) 0.0449(10)
loop_
_geom_bond_atom_site_label_1
_geom_bond_atom_site_label_2
_geom_bond_site_symmetry_1
_geom_bond_site_symmetry_2
C1 H1 1_555 1_555
H2 C1 1_555 1_555
O1 C2 1_555 1_555
O2 C3 1_555 1_555
C2 C1 1_555 1_555
C3 C1 1_555 1_555
O3 C2 1_555 1_555
O4 C3 1_555 1_555
C4 O4 1_555 1_555
H3 C4 1_555 1_555
H4 C4 1_555 1_555
C5 O3 1_555 1_555
H5 C5 1_555 1_555
H6 C5 1_555 1_555
C6 C5 1_555 1_555
H7 C6 1_555 1_555
H8 C6 1_555 1_555
C7 C4 1_555 1_555
H9 C7 1_555 1_555
H10 C7 1_555 1_555
C8 C7 1_555 1_555
H11 C8 1_555 1_555
H12 C8 1_555 1_555
C9 C6 1_555 1_555
H13 C9 1_555 1_555
H14 C9 1_555 1_555
O5 C11 1_555 1_555
O6 C11 1_555 1_555
O7 C10 1_555 1_555
C10 C9 1_555 1_555
O8 C10 1_555 1_555
C11 C8 1_555 1_555
H15 O8 1_555 1_555
H16 O5 1_555 1_555

#END
