
#######################################################################
#
#                 Cambridge Crystallographic Data Centre
#                                CCDC 
#
#######################################################################
#
# If this CIF has been generated from an entry in the Cambridge 
# Structural Database, then it will include bibliographic, chemical, 
# crystal, experimental, refinement or atomic coordinate data resulting 
# from the CCDC's data processing and validation procedures.
#
#######################################################################

data_JEHFUX03
_chemical_formula_moiety         'C14 H17 B1 F2 N2'
_chemical_name_systematic        
{2-[1-(3,5-dimethyl-2H-pyrrol-2-ylidene)ethyl]-3,5-dimethyl-1H-pyrrolato}(difluoro)boron
_symmetry_cell_setting           orthorhombic
_symmetry_space_group_name_H-M   'P n m a'
_symmetry_Int_Tables_number      62
_space_group_name_Hall           '-P 2ac 2n'
loop_
_symmetry_equiv_pos_site_id
_symmetry_equiv_pos_as_xyz
1 x,y,z
2 1/2-x,-y,1/2+z
3 -x,1/2+y,-z
4 1/2+x,1/2-y,1/2-z
5 -x,-y,-z
6 1/2+x,y,1/2-z
7 x,1/2-y,z
8 1/2-x,1/2+y,1/2+z
_cell_length_a                   11.3643(6)
_cell_length_b                   7.1999(3)
_cell_length_c                   16.0342(7)
_cell_angle_alpha                90
_cell_angle_beta                 90
_cell_angle_gamma                90
_cell_volume                     1311.95
_exptl_crystal_colour            red
_exptl_crystal_description       prismatic
_cell_formula_units_Z            4
loop_
_atom_site_label
_atom_site_type_symbol
_atom_site_fract_x
_atom_site_fract_y
_atom_site_fract_z
F1 F 0.19882(8) 0.40674(17) 0.37455(6)
N1 N 0.38226(14) 0.2500 0.39829(10)
N2 N 0.22495(14) 0.2500 0.50499(10)
C1 C 0.43920(19) 0.2500 0.32471(13)
C2 C 0.5598(2) 0.2500 0.33934(14)
H1 H 0.6178 0.2500 0.2985
C3 C 0.57947(18) 0.2500 0.42436(14)
C4 C 0.46626(17) 0.2500 0.46251(13)
C5 C 0.43095(18) 0.2500 0.54619(12)
C6 C 0.31154(18) 0.2500 0.56744(12)
C7 C 0.2525(2) 0.2500 0.64573(13)
C8 C 0.1336(2) 0.2500 0.62773(15)
H2 H 0.0733 0.2500 0.6670
C9 C 0.11824(19) 0.2500 0.54185(15)
C10 C 0.3789(2) 0.2500 0.24235(14)
C11 C 0.69952(19) 0.2500 0.46282(17)
C12 C 0.5229(2) 0.2500 0.61339(13)
C13 C 0.3024(3) 0.2500 0.73270(14)
C14 C 0.0055(2) 0.2500 0.49467(18)
B1 B 0.2479(2) 0.2500 0.41072(15)
F1F F 0.19882(8) 0.09326(17) 0.37455(6)
H3? H 0.0108 0.1643 0.4490
H4? H -0.0097 0.3725 0.4736
H5? H -0.0575 0.2132 0.5310
H6? H 0.3615 0.1552 0.7372
H7? H 0.2406 0.2258 0.7720
H8? H 0.3369 0.3689 0.7443
H9? H 0.5459 0.1245 0.6254
H10? H 0.4913 0.3063 0.6629
H11? H 0.5902 0.3192 0.5949
H12? H 0.7569 0.2818 0.4213
H13? H 0.7165 0.1288 0.4846
H14? H 0.7021 0.3394 0.5072
H15? H 0.3560 0.3744 0.2283
H16? H 0.3104 0.1724 0.2451
H17? H 0.4316 0.2032 0.2005
loop_
_geom_bond_atom_site_label_1
_geom_bond_atom_site_label_2
_geom_bond_site_symmetry_1
_geom_bond_site_symmetry_2
F1 B1 1_555 1_555
N1 C1 1_555 1_555
N2 C6 1_555 1_555
C1 C2 1_555 1_555
C2 H1 1_555 1_555
C3 C2 1_555 1_555
C4 N1 1_555 1_555
C5 C4 1_555 1_555
C6 C5 1_555 1_555
C7 C6 1_555 1_555
C8 C7 1_555 1_555
H2 C8 1_555 1_555
C9 N2 1_555 1_555
C10 C1 1_555 1_555
C11 C3 1_555 1_555
C12 C5 1_555 1_555
C13 C7 1_555 1_555
C14 C9 1_555 1_555
B1 N1 1_555 1_555
F1F B1 1_555 1_555
N2 B1 1_555 1_555
C3 C4 1_555 1_555
C8 C9 1_555 1_555

#END
