
#######################################################################
#
#                 Cambridge Crystallographic Data Centre
#                                CCDC 
#
#######################################################################
#
# If this CIF has been generated from an entry in the Cambridge 
# Structural Database, then it will include bibliographic, chemical, 
# crystal, experimental, refinement or atomic coordinate data resulting 
# from the CCDC's data processing and validation procedures.
#
#######################################################################

data_JEHFUX01
_chemical_formula_moiety         'C14 H17 B1 F2 N2'
_chemical_name_systematic        
4,4-Difluoro-1,3,5,7,8-pentamethyl-3a,4a-diaza-4-bora-s-indacene
_symmetry_cell_setting           orthorhombic
_symmetry_space_group_name_H-M   'P n m a'
_symmetry_Int_Tables_number      62
_space_group_name_Hall           '-P 2ac 2n'
loop_
_symmetry_equiv_pos_site_id
_symmetry_equiv_pos_as_xyz
1 x,y,z
2 1/2-x,-y,1/2+z
3 -x,1/2+y,-z
4 1/2+x,1/2-y,1/2-z
5 -x,-y,-z
6 1/2+x,y,1/2-z
7 x,1/2-y,z
8 1/2-x,1/2+y,1/2+z
_cell_length_a                   11.3274(11)
_cell_length_b                   7.1032(6)
_cell_length_c                   16.0113(15)
_cell_angle_alpha                90
_cell_angle_beta                 90
_cell_angle_gamma                90
_cell_volume                     1288.28
_exptl_crystal_colour            orange
_exptl_crystal_description       block
_cell_formula_units_Z            4
loop_
_atom_site_label
_atom_site_type_symbol
_atom_site_fract_x
_atom_site_fract_y
_atom_site_fract_z
B1 B 0.7511(2) 0.2500 0.59100(17)
F1 F 0.80030(9) 0.09094(17) 0.62746(7)
N1 N 0.61626(16) 0.2500 0.60291(11)
N2 N 0.77414(17) 0.2500 0.49644(12)
C1 C 0.5582(2) 0.2500 0.67681(14)
C2 C 0.4372(2) 0.2500 0.66164(15)
H1 H 0.3774 0.2500 0.7032
C3 C 0.4182(2) 0.2500 0.57640(15)
C4 C 0.5320(2) 0.2500 0.53833(13)
C5 C 0.6187(3) 0.2500 0.75926(16)
C6 C 0.2983(2) 0.2500 0.53689(18)
C7 C 0.5678(2) 0.2500 0.45442(14)
C8 C 0.4762(2) 0.2500 0.38743(14)
C9 C 0.6876(2) 0.2500 0.43352(14)
C10 C 0.7472(2) 0.2500 0.35523(14)
C11 C 0.8668(2) 0.2500 0.37338(16)
H2 H 0.9287 0.2500 0.3334
C12 C 0.8816(2) 0.2500 0.45974(15)
C13 C 0.6975(3) 0.2500 0.26829(16)
C14 C 0.9939(2) 0.2500 0.50754(18)
F1F F 0.80030(9) 0.40906(17) 0.62746(7)
H3? H 0.5628 0.2114 0.8027
H4? H 0.6851 0.1617 0.7579
H5? H 0.6479 0.3769 0.7715
H6? H 0.2949 0.1524 0.4937
H7? H 0.2831 0.3733 0.5116
H8? H 0.2384 0.2243 0.5796
H9? H 0.4523 0.3798 0.3754
H10? H 0.5088 0.1926 0.3368
H11? H 0.4075 0.1776 0.4061
H12? H 0.6389 0.3508 0.2631
H13? H 0.6598 0.1284 0.2571
H14? H 0.7613 0.2707 0.2280
H15? H 1.0596 0.2788 0.4698
H16? H 1.0062 0.1258 0.5327
H17? H 0.9901 0.3455 0.5516
loop_
_geom_bond_atom_site_label_1
_geom_bond_atom_site_label_2
_geom_bond_site_symmetry_1
_geom_bond_site_symmetry_2
B1 F1 1_555 1_555
N1 B1 1_555 1_555
N2 B1 1_555 1_555
C1 N1 1_555 1_555
C2 C1 1_555 1_555
H1 C2 1_555 1_555
C3 C2 1_555 1_555
C4 N1 1_555 1_555
C5 C1 1_555 1_555
C6 C3 1_555 1_555
C7 C4 1_555 1_555
C8 C7 1_555 1_555
C9 N2 1_555 1_555
C10 C9 1_555 1_555
C11 C10 1_555 1_555
H2 C11 1_555 1_555
C12 N2 1_555 1_555
C13 C10 1_555 1_555
C14 C12 1_555 1_555
F1F B1 1_555 1_555
C3 C4 1_555 1_555
C7 C9 1_555 1_555
C11 C12 1_555 1_555

#END
