
#######################################################################
#
#                 Cambridge Crystallographic Data Centre
#                                CCDC 
#
#######################################################################
#
# If this CIF has been generated from an entry in the Cambridge 
# Structural Database, then it will include bibliographic, chemical, 
# crystal, experimental, refinement or atomic coordinate data resulting 
# from the CCDC's data processing and validation procedures.
#
#######################################################################

data_JEHNOC
_chemical_formula_moiety         'C23 H33 N1 O4'
_chemical_name_systematic        
7-(cyclopentoxy)-5-hexyl-8-methoxy-1,5,10,10a-tetrahydro[1,3]oxazolo[3,4-b]isoquinolin-3-one
_chemical_properties_biological  
'PDE4 inhibitor; potential for use in treatment of inflammatory disease'
_symmetry_cell_setting           monoclinic
_symmetry_space_group_name_H-M   'P 21/c'
_symmetry_Int_Tables_number      14
_space_group_name_Hall           '-P 2ybc'
loop_
_symmetry_equiv_pos_site_id
_symmetry_equiv_pos_as_xyz
1 x,y,z
2 -x,1/2+y,1/2-z
3 -x,-y,-z
4 x,1/2-y,1/2+z
_cell_length_a                   10.9772(17)
_cell_length_b                   7.5155(11)
_cell_length_c                   25.405(4)
_cell_angle_alpha                90
_cell_angle_beta                 94.779(4)
_cell_angle_gamma                90
_cell_volume                     2088.6
_exptl_crystal_colour            colorless
_exptl_crystal_description       Prism
_cell_formula_units_Z            4
loop_
_atom_site_label
_atom_site_type_symbol
_atom_site_fract_x
_atom_site_fract_y
_atom_site_fract_z
O1 O 0.59013(9) 0.72695(13) 0.51381(4)
O2 O 0.41163(9) 0.85219(13) 0.53022(4)
O3 O 0.20099(8) 0.99514(12) 0.23044(3)
O4 O 0.36031(8) 0.79168(12) 0.19309(3)
N1 N 0.45532(9) 0.77759(14) 0.44543(4)
C1 C -0.13983(15) 0.2618(3) 0.41352(7)
H1 H -0.1502 0.3877 0.4222
H2 H -0.2071 0.1926 0.4263
H3 H -0.1401 0.2482 0.3751
C2 C -0.01945(14) 0.1952(2) 0.43972(6)
H4 H -0.0136 0.0654 0.4338
H5 H -0.0183 0.2151 0.4783
C3 C 0.09191(12) 0.28573(18) 0.41938(6)
H6 H 0.0864 0.2759 0.3804
H7 H 0.1664 0.2215 0.4334
C4 C 0.10518(12) 0.48210(17) 0.43460(5)
H8 H 0.0310 0.5468 0.4205
H9 H 0.1107 0.4923 0.4736
C5 C 0.21710(11) 0.57046(17) 0.41407(5)
H10 H 0.2110 0.5625 0.3750
H11 H 0.2914 0.5050 0.4277
C6 C 0.22999(11) 0.76575(17) 0.43042(5)
H12 H 0.2269 0.7740 0.4692
H13 H 0.1593 0.8327 0.4138
C7 C 0.34816(11) 0.85508(16) 0.41538(5)
H14 H 0.3443 0.9846 0.4241
C8 C 0.36131(11) 0.83595(15) 0.35646(5)
C9 C 0.27810(11) 0.92946(16) 0.32173(5)
H15 H 0.2201 1.0062 0.3357
C10 C 0.27878(11) 0.91222(16) 0.26767(5)
C11 C 0.36610(11) 0.79991(15) 0.24695(5)
C12 C 0.44919(12) 0.70970(16) 0.28115(5)
H16 H 0.5083 0.6348 0.2672
C13 C 0.44765(11) 0.72684(16) 0.33602(5)
C14 C 0.54215(13) 0.63110(18) 0.37261(5)
H17 H 0.5104 0.5136 0.3826
H18 H 0.6178 0.6121 0.3547
C15 C 0.56892(12) 0.74419(18) 0.42093(6)
H19 H 0.6072 0.8591 0.4113
C16 C 0.64351(13) 0.6579(2) 0.46769(6)
H20 H 0.6366 0.5266 0.4661
H21 H 0.7308 0.6914 0.4681
C17 C 0.47691(12) 0.79280(17) 0.49840(5)
C18 C 0.45209(12) 0.68852(18) 0.17046(5)
H22 H 0.5326 0.7412 0.1800
H23 H 0.4361 0.6872 0.1319
H24 H 0.4505 0.5665 0.1840
C19 C 0.11694(11) 1.12624(17) 0.24747(5)
H25 H 0.0704 1.0813 0.2770
C20 C 0.18147(14) 1.30118(18) 0.26145(6)
H26 H 0.2615 1.2796 0.2814
H27 H 0.1311 1.3767 0.2831
C21 C 0.19853(15) 1.3900(2) 0.20837(7)
H28 H 0.2825 1.3696 0.1981
H29 H 0.1845 1.5198 0.2106
C22 C 0.10448(14) 1.3051(2) 0.16793(6)
H30 H 0.0491 1.3969 0.1514
H31 H 0.1460 1.2440 0.1399
C23 C 0.03282(12) 1.17168(19) 0.19857(6)
H32 H -0.0444 1.2250 0.2086
H33 H 0.0133 1.0639 0.1771
loop_
_geom_bond_atom_site_label_1
_geom_bond_atom_site_label_2
_geom_bond_site_symmetry_1
_geom_bond_site_symmetry_2
O1 C16 1_555 1_555
O2 C17 1_555 1_555
O3 C10 1_555 1_555
O4 C11 1_555 1_555
N1 C7 1_555 1_555
C1 H1 1_555 1_555
H2 C1 1_555 1_555
H3 C1 1_555 1_555
C2 C1 1_555 1_555
H4 C2 1_555 1_555
H5 C2 1_555 1_555
C3 C2 1_555 1_555
H6 C3 1_555 1_555
H7 C3 1_555 1_555
C4 C3 1_555 1_555
H8 C4 1_555 1_555
H9 C4 1_555 1_555
C5 C4 1_555 1_555
H10 C5 1_555 1_555
H11 C5 1_555 1_555
C6 C5 1_555 1_555
H12 C6 1_555 1_555
H13 C6 1_555 1_555
C7 C6 1_555 1_555
H14 C7 1_555 1_555
C8 C7 1_555 1_555
C9 C8 1_555 1_555
H15 C9 1_555 1_555
C10 C9 1_555 1_555
C11 C10 1_555 1_555
C12 C11 1_555 1_555
H16 C12 1_555 1_555
C13 C8 1_555 1_555
C14 C13 1_555 1_555
H17 C14 1_555 1_555
H18 C14 1_555 1_555
C15 N1 1_555 1_555
H19 C15 1_555 1_555
C16 C15 1_555 1_555
H20 C16 1_555 1_555
H21 C16 1_555 1_555
C17 O1 1_555 1_555
C18 O4 1_555 1_555
H22 C18 1_555 1_555
H23 C18 1_555 1_555
H24 C18 1_555 1_555
C19 O3 1_555 1_555
H25 C19 1_555 1_555
C20 C19 1_555 1_555
H26 C20 1_555 1_555
H27 C20 1_555 1_555
C21 C20 1_555 1_555
H28 C21 1_555 1_555
H29 C21 1_555 1_555
C22 C21 1_555 1_555
H30 C22 1_555 1_555
H31 C22 1_555 1_555
C23 C19 1_555 1_555
H32 C23 1_555 1_555
H33 C23 1_555 1_555
N1 C17 1_555 1_555
C12 C13 1_555 1_555
C14 C15 1_555 1_555
C22 C23 1_555 1_555

#END
