
#######################################################################
#
#                 Cambridge Crystallographic Data Centre
#                                CCDC 
#
#######################################################################
#
# If this CIF has been generated from an entry in the Cambridge 
# Structural Database, then it will include bibliographic, chemical, 
# crystal, experimental, refinement or atomic coordinate data resulting 
# from the CCDC's data processing and validation procedures.
#
#######################################################################

data_JEJDIL01
_chemical_formula_moiety         'C26 H24 F18 Li2 O2'
_chemical_name_systematic        
'bis(\m-2,4,6-tris(trifluoromethyl)phenyl)-bis(diethyl ether)-di-lithium'
_symmetry_cell_setting           triclinic
_symmetry_space_group_name_H-M   'P -1'
_symmetry_Int_Tables_number      2
_space_group_name_Hall           '-P 1'
loop_
_symmetry_equiv_pos_site_id
_symmetry_equiv_pos_as_xyz
1 x,y,z
2 -x,-y,-z
_cell_length_a                   9.0486(5)
_cell_length_b                   12.7853(7)
_cell_length_c                   14.6892(8)
_cell_angle_alpha                84.024(2)
_cell_angle_beta                 74.906(2)
_cell_angle_gamma                69.739(2)
_cell_volume                     1539.05
_exptl_crystal_colour            orange
_exptl_crystal_description       block
_cell_formula_units_Z            2
_exptl_crystal_preparation       'soaked in perfluoro polyether oil'
loop_
_atom_site_label
_atom_site_type_symbol
_atom_site_fract_x
_atom_site_fract_y
_atom_site_fract_z
F1 F 0.03945(14) 0.84670(10) 0.07745(9)
F2 F 0.19483(14) 0.85402(9) 0.42551(8)
F3 F 0.28538(13) 0.75607(9) 0.08667(8)
F4 F 0.04373(13) 0.68650(9) 0.22968(8)
F5 F 0.38976(14) 0.92158(11) 0.37892(9)
F6 F 0.43865(15) 0.63753(11) 0.45794(8)
F7 F 0.15614(16) 1.02446(10) 0.45471(8)
F8 F 0.53810(15) 0.69055(10) 0.31931(8)
F9 F 0.13252(16) 0.55426(12) 0.13106(9)
F10 F 0.23588(17) 0.89237(11) -0.01273(8)
F11 F 0.67687(14) 0.54192(11) 0.38238(10)
O1 O -0.08203(15) 0.77429(11) 0.42060(9)
O2 O 0.61822(16) 0.70266(12) 0.11597(10)
F12 F -0.01590(15) 0.53730(12) 0.26698(11)
F13 F -0.06596(18) 1.27629(11) 0.10482(11)
F14 F 0.14809(19) 1.29050(11) 0.12933(11)
F15 F -0.0630(2) 1.31460(11) 0.24317(10)
F16 F 0.6672(2) 0.19529(12) 0.23326(16)
F17 F 0.5554(3) 0.18971(14) 0.37850(15)
C1 C 0.1053(2) 1.05213(16) 0.12620(14)
C2 C 0.3171(2) 0.59403(15) 0.29449(12)
C3 C 0.3168(2) 0.40783(16) 0.26016(14)
C4 C 0.2297(2) 0.94678(16) 0.38803(13)
C5 C 0.5271(2) 0.59881(16) 0.37250(13)
C6 C 0.1654(2) 0.93947(15) 0.14892(13)
C7 C 0.2535(2) 0.52407(15) 0.26078(13)
F18 F 0.4336(2) 0.17905(12) 0.28075(19)
C8 C 0.1223(2) 1.09532(16) 0.27743(14)
C9 C 0.1818(2) 0.85986(16) 0.07552(13)
C10 C 0.4534(2) 0.35494(16) 0.29463(15)
C11 C 0.5231(2) 0.41762(16) 0.33067(14)
C12 C 0.2071(2) 0.89657(15) 0.23434(13)
C13 C 0.0831(2) 1.13007(15) 0.19146(14)
C14 C 0.1053(2) 0.57490(15) 0.22239(13)
C15 C 0.4541(2) 0.53292(15) 0.32979(13)
C16 C 0.1819(2) 0.98159(15) 0.29632(13)
C17 C -0.2136(2) 0.92403(16) 0.32439(15)
C18 C 0.0241(3) 1.25225(17) 0.16764(16)
C19 C -0.2341(2) 0.83567(17) 0.39723(15)
C20 C 0.5289(3) 0.23086(18) 0.29364(18)
C21 C -0.1060(3) 0.70000(19) 0.49878(15)
C22 C 0.6225(3) 0.52846(19) 0.06712(16)
C23 C 0.7182(2) 0.58776(19) 0.09685(16)
C24 C 0.0498(3) 0.6411(2) 0.52743(16)
C25 C 0.6145(3) 0.8912(2) 0.11728(19)
C26 C 0.7138(3) 0.77085(19) 0.12134(16)
Li1 Li 0.3991(4) 0.7318(3) 0.2041(2)
Li2 Li 0.1311(4) 0.7608(3) 0.3316(2)
H1 H 0.1086(2) 1.14817(16) 0.32249(14)
H2 H 0.0798(2) 1.07515(16) 0.06690(14)
H3 H 0.6160(2) 0.38231(16) 0.35534(14)
H4 H 0.2670(2) 0.36570(16) 0.23648(14)
H5 H -0.1355(14) 0.88907(18) 0.2670(4)
H6 H -0.3184(4) 0.9659(9) 0.3099(8)
H7 H -0.1736(18) 0.9749(8) 0.3487(4)
H8 H -0.2743(2) 0.78408(17) 0.37274(15)
H9 H -0.3154(2) 0.87067(17) 0.45464(15)
H10 H -0.1882(3) 0.74275(19) 0.55265(15)
H11 H -0.1471(3) 0.64454(19) 0.48103(15)
H12 H 0.5846(17) 0.5666(8) 0.0119(7)
H13 H 0.6912(7) 0.4514(4) 0.0511(12)
H14 H 0.5289(12) 0.5285(12) 0.1189(4)
H15 H 0.8164(2) 0.58433(19) 0.04618(16)
H16 H 0.7532(2) 0.55138(19) 0.15415(16)
H17 H 0.1291(8) 0.5954(12) 0.4753(5)
H18 H 0.0920(11) 0.6961(2) 0.5432(12)
H19 H 0.0303(5) 0.5932(12) 0.5826(8)
H20 H 0.5751(19) 0.9064(4) 0.0595(7)
H21 H 0.5218(13) 0.9088(4) 0.1722(7)
H22 H 0.6814(7) 0.9372(2) 0.1175(14)
H23 H 0.7498(3) 0.75431(19) 0.18095(16)
H24 H 0.8114(3) 0.75378(19) 0.06820(16)
loop_
_geom_bond_atom_site_label_1
_geom_bond_atom_site_label_2
_geom_bond_site_symmetry_1
_geom_bond_site_symmetry_2
F1 C9 1_555 1_555
F2 C4 1_555 1_555
F3 C9 1_555 1_555
F4 C14 1_555 1_555
F5 C4 1_555 1_555
F6 C5 1_555 1_555
F7 C4 1_555 1_555
F8 C5 1_555 1_555
F9 C14 1_555 1_555
F10 C9 1_555 1_555
F11 C5 1_555 1_555
O1 C19 1_555 1_555
O2 C23 1_555 1_555
F12 C14 1_555 1_555
F13 C18 1_555 1_555
F14 C18 1_555 1_555
F15 C18 1_555 1_555
F16 C20 1_555 1_555
F17 C20 1_555 1_555
C1 C6 1_555 1_555
C2 C7 1_555 1_555
C3 C7 1_555 1_555
C4 C16 1_555 1_555
C5 C15 1_555 1_555
C6 C9 1_555 1_555
C7 C14 1_555 1_555
F18 C20 1_555 1_555
C8 C13 1_555 1_555
C10 C3 1_555 1_555
C11 C10 1_555 1_555
C12 C6 1_555 1_555
C13 C1 1_555 1_555
C15 C2 1_555 1_555
C16 C8 1_555 1_555
C17 C19 1_555 1_555
C18 C13 1_555 1_555
C19 H8 1_555 1_555
C20 C10 1_555 1_555
C21 O1 1_555 1_555
C22 C23 1_555 1_555
C23 H15 1_555 1_555
C24 C21 1_555 1_555
C25 C26 1_555 1_555
C26 O2 1_555 1_555
Li1 F3 1_555 1_555
Li2 F2 1_555 1_555
H1 C8 1_555 1_555
H2 C1 1_555 1_555
H3 C11 1_555 1_555
H4 C3 1_555 1_555
H5 C17 1_555 1_555
H6 C17 1_555 1_555
H7 C17 1_555 1_555
H9 C19 1_555 1_555
H10 C21 1_555 1_555
H11 C21 1_555 1_555
H12 C22 1_555 1_555
H13 C22 1_555 1_555
H14 C22 1_555 1_555
H16 C23 1_555 1_555
H17 C24 1_555 1_555
H18 C24 1_555 1_555
H19 C24 1_555 1_555
H20 C25 1_555 1_555
H21 C25 1_555 1_555
H22 C25 1_555 1_555
H23 C26 1_555 1_555
H24 C26 1_555 1_555
F4 Li2 1_555 1_555
F8 Li1 1_555 1_555
O1 Li2 1_555 1_555
O2 Li1 1_555 1_555
C2 Li1 1_555 1_555
C2 Li2 1_555 1_555
C11 C15 1_555 1_555
C12 C16 1_555 1_555
C12 Li1 1_555 1_555
C12 Li2 1_555 1_555

#END
