
#######################################################################
#
#                 Cambridge Crystallographic Data Centre
#                                CCDC 
#
#######################################################################
#
# If this CIF has been generated from an entry in the Cambridge 
# Structural Database, then it will include bibliographic, chemical, 
# crystal, experimental, refinement or atomic coordinate data resulting 
# from the CCDC's data processing and validation procedures.
#
#######################################################################

data_JEJGIO
_chemical_formula_moiety         'C14 H38 Mg1 Si4'
_chemical_name_systematic        bis(bis(Trimethylsilyl)methyl)-magnesium
_symmetry_cell_setting           monoclinic
_symmetry_space_group_name_H-M   'P 21'
_symmetry_Int_Tables_number      4
_space_group_name_Hall           'P 2yb'
loop_
_symmetry_equiv_pos_site_id
_symmetry_equiv_pos_as_xyz
1 x,y,z
2 -x,1/2+y,-z
_cell_length_a                   9.502(1)
_cell_length_b                   10.435(1)
_cell_length_c                   12.323(2)
_cell_angle_alpha                90
_cell_angle_beta                 112.484(6)
_cell_angle_gamma                90
_cell_volume                     1128.99
_exptl_crystal_colour            colorless
_chemical_melting_point          38-40deg.C
_cell_formula_units_Z            2
loop_
_atom_site_label
_atom_site_type_symbol
_atom_site_fract_x
_atom_site_fract_y
_atom_site_fract_z
Si1 Si 0.0186(5) 0.8854(6) 0.5535(4)
Si2 Si 0.3083(5) 0.8948(6) 0.4809(4)
Si3 Si -0.0761(5) 1.1253(6) 0.0333(4)
Si4 Si -0.3249(5) 0.9441(6) 0.0744(4)
Mg1 Mg -0.0151(4) 1.0000 0.2950(3)
C1 C 0.0991(3) 0.8788(5) 0.4399(2)
C2 C -0.1236(3) 0.9916(5) 0.1109(2)
C3 C 0.1153(3) 1.0037(5) 0.6738(3)
C4 C 0.0323(3) 0.7221(5) 0.6277(2)
C5 C -0.1909(3) 0.9221(5) 0.4936(3)
C6 C 0.4229(3) 0.7832(5) 0.6023(3)
C7 C 0.3763(3) 1.0622(5) 0.5319(3)
C8 C 0.3537(3) 0.8611(5) 0.3480(3)
C9 C -0.1069(4) 1.0818(5) -0.1233(3)
C10 C 0.1317(3) 1.1700(5) 0.1065(3)
C11 C -0.1926(3) 1.2732(5) 0.0267(3)
C12 C -0.3271(3) 0.7794(5) 0.1374(3)
C13 C -0.4451(3) 0.9381(5) -0.0869(3)
C14 C -0.4236(3) 1.0554(5) 0.1440(3)
H1 H 0.0653(8) 0.7859(7) 0.3938(6)
H2 H -0.0640(8) 0.9060(8) 0.0958(6)
H3 H 0.2359(8) 0.9820(9) 0.7223(6)
H4 H 0.0602(9) 1.0060(10) 0.7369(6)
H5 H 0.1086(10) 1.1003(8) 0.6396(7)
H6 H 0.1503(7) 0.6935(8) 0.6702(7)
H7 H -0.0308(9) 0.6547(8) 0.5588(6)
H8 H -0.0206(9) 0.7294(9) 0.6922(6)
H9 H -0.2148(9) 1.0196(9) 0.4592(8)
H10 H -0.2403(9) 0.9158(10) 0.5627(7)
H11 H -0.2551(8) 0.8564(10) 0.4241(7)
H12 H 0.3966(9) 0.6843(8) 0.5785(7)
H13 H 0.4030(9) 0.7999(9) 0.6820(6)
H14 H 0.5456(8) 0.7946(9) 0.6248(7)
H15 H 0.3253(10) 1.1347(9) 0.4655(8)
H16 H 0.4985(8) 1.0690(10) 0.5536(8)
H17 H 0.3552(10) 1.0917(10) 0.6089(7)
H18 H 0.3158(11) 0.7673(9) 0.3125(7)
H19 H 0.4760(7) 0.8664(11) 0.3693(6)
H20 H 0.2995(10) 0.9314(11) 0.2779(7)
H21 H -0.2262(8) 1.0661(11) -0.1770(6)
H22 H -0.0487(11) 0.9933(10) -0.1262(7)
H23 H -0.0639(10) 1.1591(9) -0.1645(6)
H24 H 0.1658(8) 1.2013(10) 0.1966(6)
H25 H 0.1612(9) 1.2462(9) 0.0601(7)
H26 H 0.2047(9) 1.0889(9) 0.1075(8)
H27 H -0.1781(10) 1.3100(8) 0.1124(6)
H28 H -0.3123(8) 1.2558(9) -0.0191(7)
H29 H -0.1610(10) 1.3493(8) -0.0197(7)
H30 H -0.4400(9) 0.7511(10) 0.1264(9)
H31 H -0.2591(9) 0.7753(10) 0.2312(7)
H32 H -0.2814(10) 0.7069(8) 0.0967(7)
H33 H -0.3980(8) 0.8726(10) -0.1315(6)
H34 H -0.4557(9) 1.0325(8) -0.1280(6)
H35 H -0.5604(8) 0.9052(9) -0.1008(7)
H36 H -0.3759(9) 1.0494(10) 0.2397(6)
H37 H -0.5419(7) 1.0297(10) 0.1165(7)
H38 H -0.4202(10) 1.1541(9) 0.1194(8)
loop_
_geom_bond_atom_site_label_1
_geom_bond_atom_site_label_2
_geom_bond_site_symmetry_1
_geom_bond_site_symmetry_2
Si1 C1 1_555 1_555
Si2 C1 1_555 1_555
Si3 C2 1_555 1_555
Si4 C2 1_555 1_555
Mg1 C1 1_555 1_555
C1 H1 1_555 1_555
C2 Mg1 1_555 1_555
C3 Si1 1_555 1_555
C4 Si1 1_555 1_555
C5 Si1 1_555 1_555
C6 Si2 1_555 1_555
C7 Si2 1_555 1_555
C8 Si2 1_555 1_555
C9 Si3 1_555 1_555
C10 Si3 1_555 1_555
C11 Si3 1_555 1_555
C12 Si4 1_555 1_555
C13 Si4 1_555 1_555
C14 Si4 1_555 1_555
H2 C2 1_555 1_555
H3 C3 1_555 1_555
H4 C3 1_555 1_555
H5 C3 1_555 1_555
H6 C4 1_555 1_555
H7 C4 1_555 1_555
H8 C4 1_555 1_555
H9 C5 1_555 1_555
H10 C5 1_555 1_555
H11 C5 1_555 1_555
H12 C6 1_555 1_555
H13 C6 1_555 1_555
H14 C6 1_555 1_555
H15 C7 1_555 1_555
H16 C7 1_555 1_555
H17 C7 1_555 1_555
H18 C8 1_555 1_555
H19 C8 1_555 1_555
H20 C8 1_555 1_555
H21 C9 1_555 1_555
H22 C9 1_555 1_555
H23 C9 1_555 1_555
H24 C10 1_555 1_555
H25 C10 1_555 1_555
H26 C10 1_555 1_555
H27 C11 1_555 1_555
H28 C11 1_555 1_555
H29 C11 1_555 1_555
H30 C12 1_555 1_555
H31 C12 1_555 1_555
H32 C12 1_555 1_555
H33 C13 1_555 1_555
H34 C13 1_555 1_555
H35 C13 1_555 1_555
H36 C14 1_555 1_555
H37 C14 1_555 1_555
H38 C14 1_555 1_555

#END
