
#######################################################################
#
#                 Cambridge Crystallographic Data Centre
#                                CCDC 
#
#######################################################################
#
# If this CIF has been generated from an entry in the Cambridge 
# Structural Database, then it will include bibliographic, chemical, 
# crystal, experimental, refinement or atomic coordinate data resulting 
# from the CCDC's data processing and validation procedures.
#
#######################################################################

data_JEJHOW
_chemical_formula_moiety         'C14 H12 F1 N3 O5,C3 H7 N1 O1'
_chemical_name_systematic        
'N-((5-Fluorouracil-1-yl)acetyl)-2-phenylglycine dimethylformamide solvate'
_symmetry_cell_setting           monoclinic
_symmetry_space_group_name_H-M   'P 21/c'
_symmetry_Int_Tables_number      14
_space_group_name_Hall           '-P 2ybc'
loop_
_symmetry_equiv_pos_site_id
_symmetry_equiv_pos_as_xyz
1 x,y,z
2 -x,1/2+y,1/2-z
3 -x,-y,-z
4 x,1/2-y,1/2+z
_cell_length_a                   5.2042(5)
_cell_length_b                   21.778(2)
_cell_length_c                   16.9320(17)
_cell_angle_alpha                90
_cell_angle_beta                 101.165(2)
_cell_angle_gamma                90
_cell_volume                     1882.7
_exptl_crystal_colour            colorless
_exptl_crystal_description       block
_cell_formula_units_Z            4
_exptl_crystal_recrystallization_method '95% ethanol'
loop_
_atom_site_label
_atom_site_type_symbol
_atom_site_fract_x
_atom_site_fract_y
_atom_site_fract_z
F1 F -0.6716(7) 0.69856(18) -0.18986(19)
O1 O 0.0957(8) 0.80753(18) 0.0162(2)
O2 O -0.3137(7) 0.77552(18) -0.24204(18)
O3 O 0.1300(6) 0.66478(16) 0.04413(18)
O4 O 0.5521(7) 0.57496(19) 0.3043(2)
H1 H 0.5867 0.5725 0.3535
O5 O 0.2354(7) 0.63502(17) 0.32787(17)
N1 N -0.2617(8) 0.74556(18) -0.0048(2)
N2 N -0.1198(7) 0.79112(19) -0.1120(2)
H2 H -0.0129 0.8159 -0.1286
N3 N 0.0540(7) 0.65559(17) 0.16941(19)
H3 H -0.0363 0.6671 0.2043
C1 C -0.0812(10) 0.7830(2) -0.0299(3)
C2 C -0.3053(9) 0.7651(2) -0.1707(3)
C3 C -0.4781(9) 0.7255(2) -0.1373(3)
C4 C -0.4561(9) 0.7172(2) -0.0592(3)
H4 H -0.5745 0.6917 -0.0404
C5 C -0.2085(10) 0.7278(2) 0.0801(3)
H5 H -0.3669 0.7116 0.0945
H6 H -0.1546 0.7636 0.1133
C6 C 0.0058(9) 0.6795(2) 0.0959(2)
C7 C 0.2591(9) 0.6100(2) 0.1911(2)
H7 H 0.4095 0.6227 0.1680
C8 C 0.3449(9) 0.6085(2) 0.2826(3)
C9 C 0.1782(8) 0.5461(2) 0.1601(2)
C10 C 0.2979(12) 0.5181(3) 0.1039(4)
H8 H 0.4238 0.5391 0.0823
C11 C 0.2300(16) 0.4585(4) 0.0796(4)
H9 H 0.3159 0.4390 0.0433
C12 C 0.0403(14) 0.4284(3) 0.1083(4)
H10 H -0.0054 0.3887 0.0908
C13 C -0.0838(13) 0.4556(3) 0.1623(4)
H11 H -0.2128 0.4347 0.1825
C14 C -0.0156(11) 0.5154(3) 0.1873(3)
H12 H -0.1040 0.5347 0.2231
O6 O 0.6856(9) 0.5619(2) 0.4532(2)
N4 N 0.6881(10) 0.5803(2) 0.5835(3)
C15 C 0.5805(17) 0.6112(4) 0.6453(4)
H13 H 0.4319 0.6352 0.6208
H14 H 0.7112 0.6375 0.6758
H15 H 0.5270 0.5812 0.6805
C16 C 0.9051(16) 0.5383(5) 0.6083(4)
H16 H 0.9760 0.5265 0.5623
H17 H 0.8442 0.5024 0.6321
H18 H 1.0386 0.5581 0.6470
C17 C 0.5945(13) 0.5876(3) 0.5063(4)
H19 H 0.4518 0.6136 0.4910
loop_
_geom_bond_atom_site_label_1
_geom_bond_atom_site_label_2
_geom_bond_site_symmetry_1
_geom_bond_site_symmetry_2
F1 C3 1_555 1_555
O1 C1 1_555 1_555
O2 C2 1_555 1_555
O3 C6 1_555 1_555
O4 H1 1_555 1_555
O5 C8 1_555 1_555
N1 C1 1_555 1_555
N2 H2 1_555 1_555
N3 H3 1_555 1_555
C1 N2 1_555 1_555
C2 N2 1_555 1_555
C3 C2 1_555 1_555
C4 N1 1_555 1_555
H4 C4 1_555 1_555
C5 N1 1_555 1_555
H5 C5 1_555 1_555
H6 C5 1_555 1_555
C6 N3 1_555 1_555
C7 N3 1_555 1_555
H7 C7 1_555 1_555
C8 O4 1_555 1_555
C9 C7 1_555 1_555
C10 C9 1_555 1_555
H8 C10 1_555 1_555
C11 C10 1_555 1_555
H9 C11 1_555 1_555
C12 C11 1_555 1_555
H10 C12 1_555 1_555
C13 C12 1_555 1_555
H11 C13 1_555 1_555
C14 C9 1_555 1_555
H12 C14 1_555 1_555
O6 C17 1_555 1_555
N4 C15 1_555 1_555
C15 H13 1_555 1_555
H14 C15 1_555 1_555
H15 C15 1_555 1_555
C16 N4 1_555 1_555
H16 C16 1_555 1_555
H17 C16 1_555 1_555
H18 C16 1_555 1_555
C17 N4 1_555 1_555
H19 C17 1_555 1_555
C3 C4 1_555 1_555
C5 C6 1_555 1_555
C7 C8 1_555 1_555
C13 C14 1_555 1_555

#END
