
#######################################################################
#
#                 Cambridge Crystallographic Data Centre
#                                CCDC 
#
#######################################################################
#
# If this CIF has been generated from an entry in the Cambridge 
# Structural Database, then it will include bibliographic, chemical, 
# crystal, experimental, refinement or atomic coordinate data resulting 
# from the CCDC's data processing and validation procedures.
#
#######################################################################

data_JEJMUH
_chemical_formula_moiety         '2(C7 H8 N3 1+),C8 H4 O4 2-'
_chemical_name_systematic        'bis(2-Aminobenzimidazolium) phthalate'
_symmetry_cell_setting           orthorhombic
_symmetry_space_group_name_H-M   'P 21 21 21'
_symmetry_Int_Tables_number      19
_space_group_name_Hall           'P 2ac 2ab'
loop_
_symmetry_equiv_pos_site_id
_symmetry_equiv_pos_as_xyz
1 x,y,z
2 1/2-x,-y,1/2+z
3 -x,1/2+y,1/2-z
4 1/2+x,1/2-y,-z
_cell_length_a                   8.2519(18)
_cell_length_b                   11.814(3)
_cell_length_c                   22.267(5)
_cell_angle_alpha                90
_cell_angle_beta                 90
_cell_angle_gamma                90
_cell_volume                     2170.76
_exptl_crystal_colour            colorless
_exptl_crystal_description       block
_chemical_melting_point          255-256deg.C
_cell_formula_units_Z            4
loop_
_atom_site_label
_atom_site_type_symbol
_atom_site_fract_x
_atom_site_fract_y
_atom_site_fract_z
O1 O 1.1967(2) 0.07610(15) 0.06176(8)
O2 O 1.2000(2) 0.13991(17) 0.15607(7)
O3 O 0.9740(3) 0.32961(15) 0.10814(8)
O4 O 0.8800(3) 0.31982(15) 0.20180(8)
C1 C 0.9508(3) 0.0767(2) 0.11678(10)
C2 C 0.8488(3) 0.1601(2) 0.13911(10)
C3 C 0.6860(4) 0.1350(3) 0.14855(12)
H1 H 0.6175 0.1901 0.1642
C4 C 0.6251(4) 0.0293(3) 0.13498(13)
H2 H 0.5158 0.0136 0.1410
C5 C 0.7262(4) -0.0526(3) 0.11258(13)
H3 H 0.6855 -0.1239 0.1035
C6 C 0.8886(4) -0.0294(2) 0.10351(12)
H4 H 0.9567 -0.0853 0.0884
C7 C 1.1290(3) 0.0997(2) 0.11113(11)
C8 C 0.9080(4) 0.2785(2) 0.15044(11)
N1 N 0.4151(4) 0.2332(2) 0.01658(10)
H5 H 0.4541 0.2349 -0.0192
H6 H 0.3548 0.1777 0.0276
N2 N 0.3909(3) 0.3207(2) 0.11107(9)
H7 H 0.3265 0.2726 0.1275
N3 N 0.5386(3) 0.4065(2) 0.04354(9)
H8 H 0.5849 0.4220 0.0099
C9 C 0.4477(4) 0.3158(2) 0.05446(11)
C10 C 0.5469(3) 0.4724(2) 0.09546(12)
C11 C 0.6258(4) 0.5722(3) 0.10730(15)
H9 H 0.6880 0.6087 0.0783
C12 C 0.6080(5) 0.6155(3) 0.16427(16)
H10 H 0.6576 0.6839 0.1738
C13 C 0.5186(5) 0.5604(3) 0.20759(15)
H11 H 0.5128 0.5910 0.2460
C14 C 0.4374(4) 0.4606(3) 0.19539(13)
H12 H 0.3743 0.4247 0.2243
C15 C 0.4544(3) 0.4170(3) 0.13852(12)
N4 N 1.0438(3) 0.0390(2) 0.26352(9)
H13 H 1.0845 -0.0270 0.2696
H14 H 1.0565 0.0719 0.2294
N5 N 0.8957(3) 0.19303(18) 0.30311(9)
H15 H 0.8988 0.2370 0.2723
N6 N 0.9357(3) 0.04625(17) 0.36110(9)
H16 H 0.9683 -0.0188 0.3735
C16 C 0.9624(3) 0.0898(2) 0.30642(11)
C17 C 0.8206(3) 0.2177(2) 0.35751(11)
C18 C 0.7364(4) 0.3107(2) 0.37716(12)
H17 H 0.7198 0.3730 0.3524
C19 C 0.6773(4) 0.3082(3) 0.43499(14)
H18 H 0.6198 0.3701 0.4496
C20 C 0.7021(4) 0.2153(3) 0.47180(13)
H19 H 0.6610 0.2162 0.5107
C21 C 0.7863(4) 0.1213(2) 0.45217(11)
H20 H 0.8017 0.0588 0.4769
C22 C 0.8463(3) 0.1238(2) 0.39465(12)
loop_
_geom_bond_atom_site_label_1
_geom_bond_atom_site_label_2
_geom_bond_site_symmetry_1
_geom_bond_site_symmetry_2
O1 C7 1_555 1_555
O2 C7 1_555 1_555
O3 C8 1_555 1_555
O4 C8 1_555 1_555
C1 C2 1_555 1_555
C2 C3 1_555 1_555
C3 H1 1_555 1_555
C4 C3 1_555 1_555
H2 C4 1_555 1_555
C5 C4 1_555 1_555
H3 C5 1_555 1_555
C6 C1 1_555 1_555
H4 C6 1_555 1_555
C7 C1 1_555 1_555
C8 C2 1_555 1_555
N1 H5 1_555 1_555
H6 N1 1_555 1_555
N2 H7 1_555 1_555
N3 H8 1_555 1_555
C9 N1 1_555 1_555
C10 N3 1_555 1_555
C11 C10 1_555 1_555
H9 C11 1_555 1_555
C12 C11 1_555 1_555
H10 C12 1_555 1_555
C13 C12 1_555 1_555
H11 C13 1_555 1_555
C14 C13 1_555 1_555
H12 C14 1_555 1_555
C15 N2 1_555 1_555
N4 H13 1_555 1_555
H14 N4 1_555 1_555
N5 H15 1_555 1_555
N6 H16 1_555 1_555
C16 N4 1_555 1_555
C17 N5 1_555 1_555
C18 C17 1_555 1_555
H17 C18 1_555 1_555
C19 C18 1_555 1_555
H18 C19 1_555 1_555
C20 C19 1_555 1_555
H19 C20 1_555 1_555
C21 C20 1_555 1_555
H20 C21 1_555 1_555
C22 N6 1_555 1_555
C5 C6 1_555 1_555
N2 C9 1_555 1_555
N3 C9 1_555 1_555
C10 C15 1_555 1_555
C14 C15 1_555 1_555
N5 C16 1_555 1_555
N6 C16 1_555 1_555
C17 C22 1_555 1_555
C21 C22 1_555 1_555

#END
