
#######################################################################
#
#                 Cambridge Crystallographic Data Centre
#                                CCDC 
#
#######################################################################
#
# If this CIF has been generated from an entry in the Cambridge 
# Structural Database, then it will include bibliographic, chemical, 
# crystal, experimental, refinement or atomic coordinate data resulting 
# from the CCDC's data processing and validation procedures.
#
#######################################################################

data_JEJNES
_chemical_formula_moiety         'C7 H10 N1 O1 1+,C7 H4 N1 O4 1-'
_chemical_name_systematic        'p-Methoxyanilinium p-nitrobenzoate'
_symmetry_cell_setting           monoclinic
_symmetry_space_group_name_H-M   'P 21/n'
_symmetry_Int_Tables_number      14
_space_group_name_Hall           '-P 2yn'
loop_
_symmetry_equiv_pos_site_id
_symmetry_equiv_pos_as_xyz
1 x,y,z
2 1/2-x,1/2+y,1/2-z
3 -x,-y,-z
4 1/2+x,1/2-y,1/2+z
_cell_length_a                   4.2446(9)
_cell_length_b                   23.732(5)
_cell_length_c                   13.884(3)
_cell_angle_alpha                90
_cell_angle_beta                 97.441(4)
_cell_angle_gamma                90
_cell_volume                     1386.8
_exptl_crystal_colour            brown
_exptl_crystal_description       needle
_chemical_melting_point          164-166deg.C
_cell_formula_units_Z            4
loop_
_atom_site_label
_atom_site_type_symbol
_atom_site_fract_x
_atom_site_fract_y
_atom_site_fract_z
O1 O 1.3576(4) 0.91273(6) 0.11691(10)
O2 O 1.1933(3) 1.00055(6) 0.13408(10)
O3 O 0.6103(5) 0.92181(8) 0.55562(12)
O4 O 0.6847(5) 0.83496(7) 0.52141(13)
N1 N 0.7081(4) 0.88552(8) 0.50484(13)
C1 C 1.2280(4) 0.94975(8) 0.16155(14)
C2 C 1.1013(4) 0.93360(7) 0.25417(12)
C3 C 0.9689(5) 0.97360(7) 0.30978(14)
H1 H 0.9646 1.0112 0.2907
C4 C 0.8437(5) 0.95852(8) 0.39269(14)
H2 H 0.7563 0.9854 0.4301
C5 C 0.8512(4) 0.90249(8) 0.41888(13)
C6 C 0.9855(5) 0.86196(8) 0.36615(14)
H3 H 0.9916 0.8245 0.3859
C7 C 1.1102(5) 0.87782(7) 0.28392(14)
H4 H 1.2018 0.8508 0.2477
O5 O 0.9150(4) 0.26565(5) 0.27904(11)
N2 N 0.6713(4) 0.06404(6) 0.07573(11)
H5 H 0.8407 0.0419 0.0893
H6 H 0.6410 0.0713 0.0123
H7 H 0.5009 0.0467 0.0927
C8 C 0.8436(5) 0.21529(8) 0.23294(14)
C9 C 0.6938(5) 0.17097(8) 0.27319(14)
H8 H 0.6340 0.1743 0.3351
C10 C 0.6340(5) 0.12179(8) 0.22076(13)
H9 H 0.5330 0.0919 0.2474
C11 C 0.7230(4) 0.11688(7) 0.12959(13)
C12 C 0.8696(5) 0.16105(8) 0.08885(14)
H10 H 0.9284 0.1577 0.0269
C13 C 0.9283(5) 0.21025(8) 0.14075(15)
H11 H 1.0257 0.2403 0.1134
C14 C 0.8107(6) 0.27451(9) 0.37115(16)
H12 H 0.5844 0.2698 0.3655
H13 H 0.8654 0.3120 0.3932
H14 H 0.9117 0.2477 0.4170
loop_
_geom_bond_atom_site_label_1
_geom_bond_atom_site_label_2
_geom_bond_site_symmetry_1
_geom_bond_site_symmetry_2
O1 C1 1_555 1_555
O2 C1 1_555 1_555
O3 N1 1_555 1_555
O4 N1 1_555 1_555
N1 C5 1_555 1_555
C1 C2 1_555 1_555
C2 C3 1_555 1_555
C3 H1 1_555 1_555
C4 C3 1_555 1_555
H2 C4 1_555 1_555
C5 C4 1_555 1_555
C6 C5 1_555 1_555
H3 C6 1_555 1_555
C7 C2 1_555 1_555
H4 C7 1_555 1_555
O5 C8 1_555 1_555
N2 H5 1_555 1_555
H6 N2 1_555 1_555
H7 N2 1_555 1_555
C8 C9 1_555 1_555
C9 H8 1_555 1_555
C10 C9 1_555 1_555
H9 C10 1_555 1_555
C11 N2 1_555 1_555
C12 C11 1_555 1_555
H10 C12 1_555 1_555
C13 C8 1_555 1_555
H11 C13 1_555 1_555
C14 O5 1_555 1_555
H12 C14 1_555 1_555
H13 C14 1_555 1_555
H14 C14 1_555 1_555
C6 C7 1_555 1_555
C10 C11 1_555 1_555
C12 C13 1_555 1_555

#END
