
#######################################################################
#
#                 Cambridge Crystallographic Data Centre
#                                CCDC 
#
#######################################################################
#
# If this CIF has been generated from an entry in the Cambridge 
# Structural Database, then it will include bibliographic, chemical, 
# crystal, experimental, refinement or atomic coordinate data resulting 
# from the CCDC's data processing and validation procedures.
#
#######################################################################

data_JEJNIW
_chemical_formula_moiety         'C11 H9 F1 N2 O2'
_chemical_name_systematic        5-Fluoro-1-benzyluracil
_chemical_properties_biological  
'potential antimicrobial and antitumour activity'
_symmetry_cell_setting           triclinic
_symmetry_space_group_name_H-M   'P -1'
_symmetry_Int_Tables_number      2
_space_group_name_Hall           '-P 1'
loop_
_symmetry_equiv_pos_site_id
_symmetry_equiv_pos_as_xyz
1 x,y,z
2 -x,-y,-z
_cell_length_a                   5.9762(9)
_cell_length_b                   8.5082(13)
_cell_length_c                   10.3156(15)
_cell_angle_alpha                106.634(3)
_cell_angle_beta                 93.496(3)
_cell_angle_gamma                96.417(3)
_cell_volume                     497.03
_exptl_crystal_colour            colorless
_exptl_crystal_description       block
_cell_formula_units_Z            2
_exptl_crystal_recrystallization_method 'anhydrous ethanol'
loop_
_atom_site_label
_atom_site_type_symbol
_atom_site_fract_x
_atom_site_fract_y
_atom_site_fract_z
F1 F -0.2351(2) 1.07582(16) 0.28815(14)
O1 O 0.4609(2) 0.81763(16) 0.04602(13)
O2 O 0.0490(2) 1.24718(17) 0.15836(15)
N1 N 0.1583(3) 0.79078(18) 0.16436(15)
N2 N 0.2547(3) 1.03187(18) 0.10690(15)
H1 H 0.3458 1.0874 0.0696
C1 C 0.4266(4) 0.7512(2) 0.3975(2)
H2 H 0.3309 0.8322 0.4167
C2 C 0.5958(4) 0.7521(3) 0.4944(2)
H3 H 0.6144 0.8338 0.5778
C3 C 0.7376(4) 0.6323(3) 0.4682(2)
H4 H 0.8516 0.6324 0.5337
C4 C 0.7095(4) 0.5127(3) 0.3446(2)
H5 H 0.8046 0.4313 0.3264
C5 C 0.5405(3) 0.5126(2) 0.2469(2)
H6 H 0.5233 0.4314 0.1632
C6 C 0.3962(3) 0.6327(2) 0.27273(18)
C7 C 0.2069(3) 0.6256(2) 0.1673(2)
H7 H 0.2462 0.5654 0.0785
H8 H 0.0712 0.5648 0.1856
C8 C 0.3017(3) 0.8761(2) 0.10213(17)
C9 C 0.0781(3) 1.1105(2) 0.16456(19)
C10 C -0.0592(3) 1.0101(2) 0.22826(19)
C11 C -0.0211(3) 0.8590(2) 0.22575(19)
H9 H -0.1173 0.7977 0.2663
loop_
_geom_bond_atom_site_label_1
_geom_bond_atom_site_label_2
_geom_bond_site_symmetry_1
_geom_bond_site_symmetry_2
F1 C10 1_555 1_555
O1 C8 1_555 1_555
O2 C9 1_555 1_555
N1 C7 1_555 1_555
N2 H1 1_555 1_555
C1 H2 1_555 1_555
C2 C1 1_555 1_555
H3 C2 1_555 1_555
C3 C2 1_555 1_555
H4 C3 1_555 1_555
C4 C3 1_555 1_555
H5 C4 1_555 1_555
C5 C4 1_555 1_555
H6 C5 1_555 1_555
C6 C1 1_555 1_555
C7 C6 1_555 1_555
H7 C7 1_555 1_555
H8 C7 1_555 1_555
C8 N1 1_555 1_555
C9 N2 1_555 1_555
C10 C9 1_555 1_555
C11 N1 1_555 1_555
H9 C11 1_555 1_555
N2 C8 1_555 1_555
C5 C6 1_555 1_555
C10 C11 1_555 1_555

#END
