
#######################################################################
#
#                 Cambridge Crystallographic Data Centre
#                                CCDC 
#
#######################################################################
#
# If this CIF has been generated from an entry in the Cambridge 
# Structural Database, then it will include bibliographic, chemical, 
# crystal, experimental, refinement or atomic coordinate data resulting 
# from the CCDC's data processing and validation procedures.
#
#######################################################################

data_JEJQOF
_chemical_formula_moiety         'C22 H22 Cl1 N1 O3 S1'
_chemical_name_systematic        
9-(4-Chlorobenzyl)-1-(carboxymethyl)-8-(methylsulfinyl)-1,2,3,4-tetrahydrocarbazole
_chemical_properties_biological  'DP and TP receptor antagonist'
_symmetry_cell_setting           orthorhombic
_symmetry_space_group_name_H-M   'P 21 21 21'
_symmetry_Int_Tables_number      19
_space_group_name_Hall           'P 2ac 2ab'
loop_
_symmetry_equiv_pos_site_id
_symmetry_equiv_pos_as_xyz
1 x,y,z
2 1/2-x,-y,1/2+z
3 1/2+x,1/2-y,-z
4 -x,1/2+y,1/2-z
_cell_length_a                   16.164(2)
_cell_length_b                   21.377(3)
_cell_length_c                   5.820(1)
_cell_angle_alpha                90
_cell_angle_beta                 90
_cell_angle_gamma                90
_cell_volume                     2011.03
_exptl_crystal_colour            colorless
_cell_formula_units_Z            4
loop_
_atom_site_label
_atom_site_type_symbol
_atom_site_fract_x
_atom_site_fract_y
_atom_site_fract_z
Cl1 Cl 0.30925(12) 0.09955(9) -0.9331(5)
S1 S -0.02133(10) -0.04216(8) -0.6777(3)
O1 O 0.0194(3) 0.3323(2) -0.2132(9)
H1 H 0.0303 0.3471 -0.0867
O2 O -0.0270(7) 0.2573(4) -0.0071(13)
O3 O -0.0647(3) -0.1041(2) -0.6609(10)
N1 N -0.0853(3) 0.1035(2) -0.5646(8)
C1 C -0.1214(4) 0.2097(3) -0.3828(13)
H2 H -0.1198 0.1892 -0.2321
C2 C -0.1989(6) 0.2508(4) -0.3918(17)
H3 H -0.2423 0.2302 -0.3049
H4 H -0.1866 0.2900 -0.3149
C3 C -0.2303(8) 0.2648(5) -0.616(2)
H5 H -0.1898 0.2907 -0.6944
H6 H -0.2799 0.2898 -0.5978
C4 C -0.2511(5) 0.2103(3) -0.7726(15)
H7 H -0.2508 0.2238 -0.9317
H8 H -0.3057 0.1942 -0.7365
C5 C -0.2129(4) 0.0795(3) -1.0584(11)
H9 H -0.2530 0.1026 -1.1350
C6 C -0.1895(4) 0.0210(3) -1.1384(12)
H10 H -0.2137 0.0050 -1.2707
C7 C -0.1295(4) -0.0140(3) -1.0213(11)
H11 H -0.1153 -0.0535 -1.0753
C8 C -0.0909(4) 0.0092(3) -0.8261(11)
C9 C -0.1128(3) 0.0684(2) -0.7466(10)
C10 C -0.1753(4) 0.1028(3) -0.8612(11)
C11 C -0.1863(4) 0.1595(3) -0.7358(11)
C12 C -0.1308(4) 0.1596(3) -0.5625(12)
C13 C -0.0408(5) 0.2486(3) -0.4101(13)
H12 H 0.0035 0.2214 -0.4623
H13 H -0.0492 0.2806 -0.5258
C14 C -0.0159(5) 0.2789(3) -0.1877(14)
C15 C -0.0146(4) 0.0911(3) -0.4184(11)
H14 H -0.0202 0.0497 -0.3523
H15 H -0.0141 0.1211 -0.2933
C16 C 0.0663(4) 0.0950(3) -0.5466(10)
C17 C 0.0751(4) 0.1293(3) -0.7493(11)
H16 H 0.0300 0.1514 -0.8064
C18 C 0.1494(4) 0.1312(3) -0.8677(14)
H17 H 0.1549 0.1544 -1.0020
C19 C 0.2150(4) 0.0976(3) -0.7805(14)
C20 C 0.2091(4) 0.0642(3) -0.5855(15)
H18 H 0.2547 0.0422 -0.5308
C21 C 0.1354(4) 0.0626(3) -0.4672(13)
H19 H 0.1317 0.0395 -0.3322
C22 C 0.0540(4) -0.0532(4) -0.9007(14)
H20 H 0.0970 -0.0805 -0.8466
H21 H 0.0774 -0.0136 -0.9424
H22 H 0.0278 -0.0716 -1.0326
loop_
_geom_bond_atom_site_label_1
_geom_bond_atom_site_label_2
_geom_bond_site_symmetry_1
_geom_bond_site_symmetry_2
Cl1 C19 1_555 1_555
S1 O3 1_555 1_555
O1 H1 1_555 1_555
O2 C14 1_555 1_555
N1 C9 1_555 1_555
C1 H2 1_555 1_555
C2 C1 1_555 1_555
H3 C2 1_555 1_555
H4 C2 1_555 1_555
C3 C2 1_555 1_555
H5 C3 1_555 1_555
H6 C3 1_555 1_555
C4 C3 1_555 1_555
H7 C4 1_555 1_555
H8 C4 1_555 1_555
C5 H9 1_555 1_555
C6 C5 1_555 1_555
H10 C6 1_555 1_555
C7 C6 1_555 1_555
H11 C7 1_555 1_555
C8 S1 1_555 1_555
C9 C8 1_555 1_555
C10 C5 1_555 1_555
C11 C4 1_555 1_555
C12 N1 1_555 1_555
C13 C1 1_555 1_555
H12 C13 1_555 1_555
H13 C13 1_555 1_555
C14 O1 1_555 1_555
C15 N1 1_555 1_555
H14 C15 1_555 1_555
H15 C15 1_555 1_555
C16 C15 1_555 1_555
C17 C16 1_555 1_555
H16 C17 1_555 1_555
C18 C17 1_555 1_555
H17 C18 1_555 1_555
C19 C18 1_555 1_555
C20 C19 1_555 1_555
H18 C20 1_555 1_555
C21 C16 1_555 1_555
H19 C21 1_555 1_555
C22 S1 1_555 1_555
H20 C22 1_555 1_555
H21 C22 1_555 1_555
H22 C22 1_555 1_555
C1 C12 1_555 1_555
C7 C8 1_555 1_555
C9 C10 1_555 1_555
C10 C11 1_555 1_555
C11 C12 1_555 1_555
C13 C14 1_555 1_555
C20 C21 1_555 1_555

#END
