
#######################################################################
#
#                 Cambridge Crystallographic Data Centre
#                                CCDC 
#
#######################################################################
#
# If this CIF has been generated from an entry in the Cambridge 
# Structural Database, then it will include bibliographic, chemical, 
# crystal, experimental, refinement or atomic coordinate data resulting 
# from the CCDC's data processing and validation procedures.
#
#######################################################################

data_JEJQIB
_chemical_formula_moiety         'C9 H7 Br1 F3 N3'
_chemical_name_systematic        
3-bromo-2,5-dimethyl-7-(trifluoromethyl)pyrazolo[1,5-a]pyrimidine
_symmetry_cell_setting           monoclinic
_symmetry_space_group_name_H-M   'C 2/c'
_symmetry_Int_Tables_number      15
_space_group_name_Hall           '-C 2yn'
loop_
_symmetry_equiv_pos_site_id
_symmetry_equiv_pos_as_xyz
1 x,y,z
2 -x,y,1/2-z
3 1/2+x,1/2+y,z
4 1/2-x,1/2+y,1/2-z
5 -x,-y,-z
6 x,-y,1/2+z
7 1/2-x,1/2-y,-z
8 1/2+x,1/2-y,1/2+z
_cell_length_a                   17.4296(2)
_cell_length_b                   8.67733(9)
_cell_length_c                   14.6532(2)
_cell_angle_alpha                90
_cell_angle_beta                 110.8687(15)
_cell_angle_gamma                90
_cell_volume                     2070.8
_exptl_crystal_colour            yellow
_exptl_crystal_description       prism
_cell_formula_units_Z            8
loop_
_atom_site_label
_atom_site_type_symbol
_atom_site_fract_x
_atom_site_fract_y
_atom_site_fract_z
Br1 Br 0.32736(2) 0.45624(3) 0.11922(2)
F1 F 0.75791(9) 0.33922(19) 0.12104(13)
F2 F 0.65991(10) 0.18428(18) 0.04378(12)
F3 F 0.70742(9) 0.18595(18) 0.20085(12)
C1 C 0.49462(16) 0.4635(3) 0.12280(18)
N1 N 0.55344(13) 0.3541(2) 0.12446(14)
N2 N 0.50865(13) 0.6170(2) 0.12175(15)
C2 C 0.58084(16) 0.6600(3) 0.12198(17)
C3 C 0.62752(15) 0.3988(3) 0.12180(17)
C4 C 0.42839(15) 0.3778(3) 0.12345(17)
C5 C 0.40074(17) 0.0846(3) 0.1296(2)
H1 H 0.4311 -0.0072 0.1282
H2 H 0.3504 0.0855 0.0741
H3 H 0.3886 0.0867 0.1885
C6 C 0.68827(15) 0.2764(3) 0.12150(19)
N3 N 0.52729(13) 0.2060(2) 0.12655(15)
C7 C 0.45063(15) 0.2224(3) 0.12622(18)
C8 C 0.64282(16) 0.5526(3) 0.12077(18)
H4 H 0.6928 0.5874 0.1193
C9 C 0.59887(19) 0.8298(3) 0.1252(2)
H5 H 0.5500 0.8845 0.0874
H6 H 0.6410 0.8484 0.0986
H7 H 0.6171 0.8649 0.1917
loop_
_geom_bond_atom_site_label_1
_geom_bond_atom_site_label_2
_geom_bond_site_symmetry_1
_geom_bond_site_symmetry_2
Br1 C4 1_555 1_555
F1 C6 1_555 1_555
F2 C6 1_555 1_555
F3 C6 1_555 1_555
C1 N1 1_555 1_555
N1 C3 1_555 1_555
N2 C1 1_555 1_555
C2 N2 1_555 1_555
C3 C6 1_555 1_555
C4 C1 1_555 1_555
C5 H1 1_555 1_555
H2 C5 1_555 1_555
H3 C5 1_555 1_555
N3 N1 1_555 1_555
C7 C4 1_555 1_555
C8 C2 1_555 1_555
H4 C8 1_555 1_555
C9 C2 1_555 1_555
H5 C9 1_555 1_555
H6 C9 1_555 1_555
H7 C9 1_555 1_555
C3 C8 1_555 1_555
C5 C7 1_555 1_555
N3 C7 1_555 1_555

#END
