
#######################################################################
#
#                 Cambridge Crystallographic Data Centre
#                                CCDC 
#
#######################################################################
#
# If this CIF has been generated from an entry in the Cambridge 
# Structural Database, then it will include bibliographic, chemical, 
# crystal, experimental, refinement or atomic coordinate data resulting 
# from the CCDC's data processing and validation procedures.
#
#######################################################################

data_JEJRIA
_chemical_formula_moiety         'C12 H10 N6 O2'
_chemical_name_systematic        
'Methyl 5-(4-phenyl-1H-1,2,3-triazol-1-yl)-2H-1,2,4-triazole-3-carboxylate'
_chemical_properties_biological  
'antiviral activity against tobacco mosaic virus'
_symmetry_cell_setting           monoclinic
_symmetry_space_group_name_H-M   'P c'
_symmetry_Int_Tables_number      7
_space_group_name_Hall           'P -2yc'
loop_
_symmetry_equiv_pos_site_id
_symmetry_equiv_pos_as_xyz
1 x,y,z
2 x,-y,1/2+z
_cell_length_a                   8.1410(2)
_cell_length_b                   7.4730(2)
_cell_length_c                   10.6310(3)
_cell_angle_alpha                90
_cell_angle_beta                 105.7371(10)
_cell_angle_gamma                90
_cell_volume                     622.522
_exptl_crystal_colour            colorless
_exptl_crystal_description       prism
_chemical_melting_point          175.5-177deg.C
_cell_formula_units_Z            2
loop_
_atom_site_label
_atom_site_type_symbol
_atom_site_fract_x
_atom_site_fract_y
_atom_site_fract_z
O1 O 0.2218(2) 1.4019(2) 0.15514(17)
O2 O 0.1288(3) 1.3120(3) -0.05232(18)
N1 N 0.3990(2) 1.1034(2) 0.23004(16)
H1 H 0.4144 1.1772 0.2980
N2 N 0.4853(3) 0.9477(3) 0.24427(16)
N3 N 0.3393(2) 0.9918(2) 0.03265(16)
N4 N 0.5115(2) 0.7259(2) 0.09383(14)
N5 N 0.4959(3) 0.6752(2) -0.03054(16)
N6 N 0.5759(3) 0.5232(2) -0.02574(16)
C1 C 0.2093(3) 1.2893(3) 0.05739(19)
C2 C 0.3155(3) 1.1284(3) 0.10604(19)
C3 C 0.4434(3) 0.8890(3) 0.12313(19)
C4 C 0.6034(3) 0.6052(3) 0.17818(19)
H2 H 0.6354 0.6263 0.2687
C5 C 0.6452(3) 0.4748(3) 0.10232(17)
C6 C 0.7462(3) 0.3112(3) 0.13976(19)
C7 C 0.7341(3) 0.1707(3) 0.0533(2)
H3 H 0.6569 0.1788 -0.0326
C8 C 0.8317(4) 0.0183(3) 0.0897(3)
H4 H 0.8233 -0.0791 0.0293
C9 C 0.9419(4) 0.0040(4) 0.2135(3)
H5 H 1.0093 -0.1022 0.2380
C10 C 0.9559(4) 0.1438(4) 0.3005(3)
H6 H 1.0330 0.1348 0.3864
C11 C 0.8583(3) 0.2970(3) 0.2646(2)
H7 H 0.8669 0.3936 0.3256
C12 C 0.1257(4) 1.5660(4) 0.1257(3)
H8 H 0.1772 1.6430 0.0749
H9 H 0.1252 1.6248 0.2059
H10 H 0.0106 1.5394 0.0772
loop_
_geom_bond_atom_site_label_1
_geom_bond_atom_site_label_2
_geom_bond_site_symmetry_1
_geom_bond_site_symmetry_2
O1 C1 1_555 1_555
O2 C1 1_555 1_555
N1 H1 1_555 1_555
N2 N1 1_555 1_555
N3 C2 1_555 1_555
N4 N5 1_555 1_555
N5 N6 1_555 1_555
N6 C5 1_555 1_555
C1 C2 1_555 1_555
C2 N1 1_555 1_555
C3 N2 1_555 1_555
C4 N4 1_555 1_555
H2 C4 1_555 1_555
C5 C4 1_555 1_555
C6 C5 1_555 1_555
C7 C6 1_555 1_555
H3 C7 1_555 1_555
C8 C7 1_555 1_555
H4 C8 1_555 1_555
C9 C8 1_555 1_555
H5 C9 1_555 1_555
C10 C9 1_555 1_555
H6 C10 1_555 1_555
C11 C6 1_555 1_555
H7 C11 1_555 1_555
C12 O1 1_555 1_555
H8 C12 1_555 1_555
H9 C12 1_555 1_555
H10 C12 1_555 1_555
N3 C3 1_555 1_555
N4 C3 1_555 1_555
C10 C11 1_555 1_555

#END
