
#######################################################################
#
#                 Cambridge Crystallographic Data Centre
#                                CCDC 
#
#######################################################################
#
# If this CIF has been generated from an entry in the Cambridge 
# Structural Database, then it will include bibliographic, chemical, 
# crystal, experimental, refinement or atomic coordinate data resulting 
# from the CCDC's data processing and validation procedures.
#
#######################################################################

data_JEJZAZ
_chemical_formula_moiety         'C22 H21 N1 O2 S3'
_chemical_name_systematic        
(+)-(P)-N-(4-Tolylsulfonyl)-8-thiomethyl-1-thia-10-aza(2.2)metacyclophane
_symmetry_cell_setting           orthorhombic
_symmetry_space_group_name_H-M   'P 21 21 21'
_symmetry_Int_Tables_number      19
_space_group_name_Hall           'P 2ac 2ab'
loop_
_symmetry_equiv_pos_site_id
_symmetry_equiv_pos_as_xyz
1 x,y,z
2 1/2+x,1/2-y,-z
3 -x,1/2+y,1/2-z
4 1/2-x,-y,1/2+z
_cell_length_a                   10.540(1)
_cell_length_b                   11.491(1)
_cell_length_c                   16.768(1)
_cell_angle_alpha                90
_cell_angle_beta                 90
_cell_angle_gamma                90
_cell_volume                     2030.86
_cell_formula_units_Z            4
loop_
_atom_site_label
_atom_site_type_symbol
_atom_site_fract_x
_atom_site_fract_y
_atom_site_fract_z
S1 S 1.29530(8) 0.9125(1) 0.78498(5)
S2 S 1.11629(9) 0.97877(8) 0.99578(5)
S3 S 0.69297(7) 0.93500(7) 0.81729(5)
O1 O 0.7132(2) 0.9611(2) 0.7350(1)
O2 O 0.6328(2) 0.8281(2) 0.8393(2)
N1 N 0.8320(2) 0.9354(2) 0.8595(2)
C1 C 1.3059(4) 0.8467(3) 0.8869(2)
C2 C 1.1863(3) 0.7857(3) 0.9080(2)
C3 C 1.1633(4) 0.6739(3) 0.8776(2)
C4 C 1.0450(4) 0.6254(3) 0.8808(2)
C5 C 0.9432(4) 0.6905(3) 0.9079(2)
C6 C 0.9622(3) 0.8023(3) 0.9380(2)
C7 C 1.0861(3) 0.8438(3) 0.9464(2)
C8 C 0.8494(3) 0.8836(3) 0.9414(2)
C9 C 0.9349(3) 1.0041(3) 0.8289(2)
C10 C 0.9394(4) 1.1243(3) 0.8359(2)
C11 C 1.0528(4) 1.1812(3) 0.8195(2)
C12 C 1.1612(3) 1.1199(3) 0.8018(2)
C13 C 1.1558(3) 0.9982(3) 0.7943(2)
C14 C 1.0400(3) 0.9433(3) 0.8020(2)
C15 C 1.0632(5) 0.9449(3) 1.0960(2)
C16 C 0.6021(3) 1.0475(3) 0.8596(2)
C17 C 0.5711(3) 1.1458(3) 0.8161(2)
C18 C 0.4893(4) 1.2275(3) 0.8481(2)
C19 C 0.4381(3) 1.2131(3) 0.9223(2)
C20 C 0.3427(4) 1.2986(3) 0.9542(3)
C21 C 0.4736(4) 1.1166(3) 0.9671(2)
C22 C 0.5544(4) 1.0330(3) 0.9364(2)
H1 H 1.3220 0.9097 0.9267
H2 H 1.3775 0.7897 0.8881
H3 H 1.2346 0.6288 0.8533
H4 H 1.0319 0.5429 0.8634
H5 H 0.8556 0.6571 0.9058
H6 H 0.7716 0.8393 0.9571
H7 H 0.8655 0.9468 0.9811
H8 H 0.8624 1.1692 0.8523
H9 H 1.0555 1.2681 0.8205
H10 H 1.2435 1.1617 0.7943
H11 H 1.0319 0.8589 0.7882
H12 H 1.0750 1.0145 1.1309
H13 H 0.9714 0.9230 1.0948
H14 H 1.1140 0.8784 1.1175
H15 H 0.6077 1.1577 0.7616
H16 H 0.4673 1.2984 0.8164
H17 H 0.3289 1.3619 0.9141
H18 H 0.2606 1.2577 0.9646
H19 H 0.3752 1.3330 1.0050
H20 H 0.4400 1.1073 1.0225
H21 H 0.5783 0.9633 0.9688
loop_
_geom_bond_atom_site_label_1
_geom_bond_atom_site_label_2
_geom_bond_site_symmetry_1
_geom_bond_site_symmetry_2
S1 C1 1_555 1_555
S2 C7 1_555 1_555
S3 O1 1_555 1_555
O2 S3 1_555 1_555
N1 S3 1_555 1_555
C1 C2 1_555 1_555
C2 C3 1_555 1_555
C3 C4 1_555 1_555
C4 C5 1_555 1_555
C5 C6 1_555 1_555
C6 C7 1_555 1_555
C7 C2 1_555 1_555
C8 N1 1_555 1_555
C9 N1 1_555 1_555
C10 C9 1_555 1_555
C11 C10 1_555 1_555
C12 C11 1_555 1_555
C13 S1 1_555 1_555
C14 C9 1_555 1_555
C15 S2 1_555 1_555
C16 S3 1_555 1_555
C17 C16 1_555 1_555
C18 C17 1_555 1_555
C19 C18 1_555 1_555
C20 C19 1_555 1_555
C21 C19 1_555 1_555
C22 C16 1_555 1_555
H1 C1 1_555 1_555
H2 C1 1_555 1_555
H3 C3 1_555 1_555
H4 C4 1_555 1_555
H5 C5 1_555 1_555
H6 C8 1_555 1_555
H7 C8 1_555 1_555
H8 C10 1_555 1_555
H9 C11 1_555 1_555
H10 C12 1_555 1_555
H11 C14 1_555 1_555
H12 C15 1_555 1_555
H13 C15 1_555 1_555
H14 C15 1_555 1_555
H15 C17 1_555 1_555
H16 C18 1_555 1_555
H17 C20 1_555 1_555
H18 C20 1_555 1_555
H19 C20 1_555 1_555
H20 C21 1_555 1_555
H21 C22 1_555 1_555
C6 C8 1_555 1_555
C12 C13 1_555 1_555
C13 C14 1_555 1_555
C21 C22 1_555 1_555

#END
