
#######################################################################
#
#                 Cambridge Crystallographic Data Centre
#                                CCDC 
#
#######################################################################
#
# If this CIF has been generated from an entry in the Cambridge 
# Structural Database, then it will include bibliographic, chemical, 
# crystal, experimental, refinement or atomic coordinate data resulting 
# from the CCDC's data processing and validation procedures.
#
#######################################################################

data_JEKHOZ
_chemical_formula_moiety         'C17 H17 N1 O3'
_chemical_name_systematic        
'2-((1R,5R)-1-hydroxy-3-oxo-5-phenylcyclohexyl)pyridine 1-oxide'
_symmetry_cell_setting           orthorhombic
_symmetry_space_group_name_H-M   'P 21 21 21'
_symmetry_Int_Tables_number      19
_space_group_name_Hall           'P 2ac 2ab'
loop_
_symmetry_equiv_pos_site_id
_symmetry_equiv_pos_as_xyz
1 x,y,z
2 1/2-x,-y,1/2+z
3 1/2+x,1/2-y,-z
4 -x,1/2+y,1/2-z
_cell_length_a                   6.53370(10)
_cell_length_b                   8.45090(10)
_cell_length_c                   26.0879(3)
_cell_angle_alpha                90
_cell_angle_beta                 90
_cell_angle_gamma                90
_cell_volume                     1440.46
_exptl_crystal_colour            colorless
_exptl_crystal_description       block
_chemical_melting_point          '418.15-420.15 K'
_cell_formula_units_Z            4
_exptl_crystal_recrystallization_method 'petroleum ether/tetrahydrofuran'
loop_
_atom_site_label
_atom_site_type_symbol
_atom_site_fract_x
_atom_site_fract_y
_atom_site_fract_z
O1 O 0.6522(2) 0.47216(16) 0.44876(5)
H1 H 0.7733 0.4466 0.4492
O2 O 0.9251(2) 0.24251(19) 0.42719(7)
O3 O 0.1378(3) 0.6612(2) 0.41445(8)
C1 C 0.6160(3) 0.3951(2) 0.35887(7)
H2 H 0.7599 0.3682 0.3564
H3 H 0.5405 0.3249 0.3363
C2 C 0.5428(3) 0.3707(2) 0.41454(7)
N1 N 0.7700(2) 0.1441(2) 0.43275(6)
C3 C 0.5845(3) 0.5667(2) 0.34164(7)
H4 H 0.6550 0.6352 0.3663
C4 C 0.3173(3) 0.4174(2) 0.41877(8)
H5 H 0.2353 0.3355 0.4027
H6 H 0.2804 0.4207 0.4548
C5 C 0.6573(4) -0.1166(3) 0.45081(8)
H7 H 0.6869 -0.2229 0.4564
C6 C 0.4175(3) 0.0927(2) 0.44123(7)
H8 H 0.2827 0.1281 0.4415
C7 C 0.5734(3) 0.1983(2) 0.43011(6)
C8 C 0.6783(3) 0.5958(2) 0.28934(8)
C9 C 0.8117(4) -0.0109(3) 0.44141(9)
H9 H 0.9466 -0.0458 0.4410
C10 C 0.2626(3) 0.5736(3) 0.39490(9)
C11 C 0.4583(4) -0.0641(3) 0.45197(8)
H10 H 0.3523 -0.1334 0.4599
C12 C 0.6021(5) 0.5254(3) 0.24544(9)
H11 H 0.4866 0.4614 0.2473
C13 C 0.8487(4) 0.6917(3) 0.28492(10)
H12 H 0.9013 0.7407 0.3140
C14 C 0.3556(4) 0.6075(3) 0.34348(9)
H13 H 0.3378 0.7188 0.3355
H14 H 0.2841 0.5467 0.3175
C15 C 0.6980(6) 0.5502(4) 0.19863(10)
H15 H 0.6456 0.5027 0.1693
C16 C 0.9427(5) 0.7162(4) 0.23798(12)
H16 H 1.0564 0.7821 0.2357
C17 C 0.8685(6) 0.6438(4) 0.19508(10)
H17 H 0.9333 0.6579 0.1637
loop_
_geom_bond_atom_site_label_1
_geom_bond_atom_site_label_2
_geom_bond_site_symmetry_1
_geom_bond_site_symmetry_2
O1 H1 1_555 1_555
O2 N1 1_555 1_555
O3 C10 1_555 1_555
C1 H2 1_555 1_555
H3 C1 1_555 1_555
C2 O1 1_555 1_555
N1 C7 1_555 1_555
C3 C1 1_555 1_555
H4 C3 1_555 1_555
C4 C2 1_555 1_555
H5 C4 1_555 1_555
H6 C4 1_555 1_555
C5 H7 1_555 1_555
C6 H8 1_555 1_555
C7 C2 1_555 1_555
C8 C3 1_555 1_555
C9 N1 1_555 1_555
H9 C9 1_555 1_555
C10 C4 1_555 1_555
C11 C5 1_555 1_555
H10 C11 1_555 1_555
C12 C8 1_555 1_555
H11 C12 1_555 1_555
C13 C8 1_555 1_555
H12 C13 1_555 1_555
C14 C3 1_555 1_555
H13 C14 1_555 1_555
H14 C14 1_555 1_555
C15 C12 1_555 1_555
H15 C15 1_555 1_555
C16 C13 1_555 1_555
H16 C16 1_555 1_555
C17 C15 1_555 1_555
H17 C17 1_555 1_555
C1 C2 1_555 1_555
C5 C9 1_555 1_555
C6 C7 1_555 1_555
C6 C11 1_555 1_555
C10 C14 1_555 1_555
C16 C17 1_555 1_555

#END
