
#######################################################################
#
#                 Cambridge Crystallographic Data Centre
#                                CCDC 
#
#######################################################################
#
# If this CIF has been generated from an entry in the Cambridge 
# Structural Database, then it will include bibliographic, chemical, 
# crystal, experimental, refinement or atomic coordinate data resulting 
# from the CCDC's data processing and validation procedures.
#
#######################################################################

data_JEKJOB
_chemical_formula_moiety         'C22 H23 N1 O2'
_chemical_name_systematic        
5-(1,3-diphenylprop-2-yn-1-yl)-1-methoxy-3,3-dimethylpyrrolidin-2-one
_symmetry_cell_setting           triclinic
_symmetry_space_group_name_H-M   'P -1'
_symmetry_Int_Tables_number      2
_space_group_name_Hall           '-P 1'
loop_
_symmetry_equiv_pos_site_id
_symmetry_equiv_pos_as_xyz
1 x,y,z
2 -x,-y,-z
_cell_length_a                   9.3352(7)
_cell_length_b                   10.2282(9)
_cell_length_c                   11.6109(9)
_cell_angle_alpha                70.977(2)
_cell_angle_beta                 69.277(3)
_cell_angle_gamma                63.872(2)
_cell_volume                     911.645
_exptl_crystal_colour            colorless
_exptl_crystal_description       block
_cell_formula_units_Z            2
loop_
_atom_site_label
_atom_site_type_symbol
_atom_site_fract_x
_atom_site_fract_y
_atom_site_fract_z
O1 O -0.01952(10) 0.17571(9) 0.63364(8)
C1 C 0.13770(13) 0.42874(12) 0.64168(10)
H1 H 0.0681 0.5273 0.5999
C2 C 0.05056(14) 0.39440(14) 0.78158(11)
H2 H -0.0207 0.4877 0.8128
H3 H 0.1324 0.3338 0.8324
O2 O 0.19244(10) 0.31650(9) 0.46822(7)
N1 N 0.13890(11) 0.31034(10) 0.59775(8)
C3 C 0.01951(13) 0.25426(12) 0.66679(10)
C4 C 0.41649(13) 0.28301(12) 0.67892(11)
C5 C 0.33354(15) 0.18515(14) 0.44035(12)
H4 H 0.3725 0.1925 0.3491
H5 H 0.3029 0.0975 0.4795
H6 H 0.4214 0.1759 0.4734
C6 C -0.23461(14) 0.40751(14) 0.79407(12)
H7 H -0.2921 0.3505 0.7881
H8 H -0.2403 0.4926 0.7232
H9 H -0.287 0.4432 0.8732
C7 C -0.04341(16) 0.17517(14) 0.90093(12)
H10 H -0.1041 0.1196 0.8975
H11 H -0.0917 0.2109 0.98
H12 H 0.0722 0.11 0.8963
C8 C 0.31343(13) 0.42558(12) 0.61590(10)
H13 H 0.3632 0.4346 0.5233
C9 C 0.23052(14) 0.70194(13) 0.58258(11)
H14 H 0.1972 0.7111 0.511
C10 C 0.49116(14) 0.16386(12) 0.73328(11)
C11 C 0.57484(13) 0.01920(12) 0.80062(10)
C12 C 0.56142(14) -0.20557(13) 0.95075(11)
H15 H 0.4986 -0.2629 1.008
C13 C 0.48371(14) -0.06622(13) 0.88518(11)
H16 H 0.3675 -0.0282 0.8976
C14 C -0.05379(13) 0.30762(12) 0.79041(10)
C15 C 0.20885(15) 0.82850(13) 0.61664(12)
H17 H 0.1587 0.9239 0.5695
C16 C 0.30087(13) 0.56119(12) 0.65251(10)
C17 C 0.74557(14) -0.03807(13) 0.78326(11)
H18 H 0.809 0.0188 0.7262
C18 C 0.26002(15) 0.81632(14) 0.71915(13)
H19 H 0.2457 0.9032 0.7421
C19 C 0.35146(14) 0.54995(13) 0.75562(11)
H20 H 0.3995 0.4548 0.8042
C20 C 0.73095(15) -0.26187(13) 0.93319(11)
H21 H 0.7843 -0.3576 0.9784
C21 C 0.82237(14) -0.17814(14) 0.84946(12)
H22 H 0.9385 -0.217 0.8373
C22 C 0.33205(15) 0.67735(15) 0.78803(12)
H23 H 0.3685 0.6688 0.8578
loop_
_geom_bond_atom_site_label_1
_geom_bond_atom_site_label_2
_geom_bond_site_symmetry_1
_geom_bond_site_symmetry_2
O1 C3 1_555 1_555
C1 H1 1_555 1_555
C2 C1 1_555 1_555
H2 C2 1_555 1_555
H3 C2 1_555 1_555
O2 N1 1_555 1_555
N1 C1 1_555 1_555
C3 N1 1_555 1_555
C4 C8 1_555 1_555
C5 O2 1_555 1_555
H4 C5 1_555 1_555
H5 C5 1_555 1_555
H6 C5 1_555 1_555
C6 H7 1_555 1_555
H8 C6 1_555 1_555
H9 C6 1_555 1_555
C7 H10 1_555 1_555
H11 C7 1_555 1_555
H12 C7 1_555 1_555
C8 C1 1_555 1_555
H13 C8 1_555 1_555
C9 H14 1_555 1_555
C10 C4 1_555 1_555
C11 C10 1_555 1_555
C12 H15 1_555 1_555
C13 C11 1_555 1_555
H16 C13 1_555 1_555
C14 C2 1_555 1_555
C15 C9 1_555 1_555
H17 C15 1_555 1_555
C16 C8 1_555 1_555
C17 C11 1_555 1_555
H18 C17 1_555 1_555
C18 C15 1_555 1_555
H19 C18 1_555 1_555
C19 C16 1_555 1_555
H20 C19 1_555 1_555
C20 C12 1_555 1_555
H21 C20 1_555 1_555
C21 C17 1_555 1_555
H22 C21 1_555 1_555
C22 C18 1_555 1_555
H23 C22 1_555 1_555
C3 C14 1_555 1_555
C6 C14 1_555 1_555
C7 C14 1_555 1_555
C9 C16 1_555 1_555
C12 C13 1_555 1_555
C19 C22 1_555 1_555
C20 C21 1_555 1_555

#END
