
#######################################################################
#
#                 Cambridge Crystallographic Data Centre
#                                CCDC 
#
#######################################################################
#
# If this CIF has been generated from an entry in the Cambridge 
# Structural Database, then it will include bibliographic, chemical, 
# crystal, experimental, refinement or atomic coordinate data resulting 
# from the CCDC's data processing and validation procedures.
#
#######################################################################

data_JEKKAO
_chemical_formula_moiety         'C27 H27 N1 O4,C4 H8 O2'
_chemical_name_systematic        
'3a-(3,4-dimethoxyphenyl)-1-methoxy-7-(4-phenylbuta-1,3-diyn-1-yl)octahydro-2H-indol-2-one ethyl acetate solvate'
_symmetry_cell_setting           monoclinic
_symmetry_space_group_name_H-M   'P 21/c'
_symmetry_Int_Tables_number      14
_space_group_name_Hall           '-P 2ybc'
loop_
_symmetry_equiv_pos_site_id
_symmetry_equiv_pos_as_xyz
1 x,y,z
2 -x,1/2+y,1/2-z
3 -x,-y,-z
4 x,1/2-y,1/2+z
_cell_length_a                   14.8729(4)
_cell_length_b                   11.2262(3)
_cell_length_c                   16.4910(5)
_cell_angle_alpha                90
_cell_angle_beta                 92.9640(13)
_cell_angle_gamma                90
_cell_volume                     2749.76
_exptl_crystal_colour            colorless
_exptl_crystal_description       block
_cell_formula_units_Z            4
loop_
_atom_site_label
_atom_site_type_symbol
_atom_site_fract_x
_atom_site_fract_y
_atom_site_fract_z
O1 O 0.63629(5) -0.05050(6) 0.48374(4)
O2 O 0.58490(5) 0.15223(7) 0.56066(4)
O3 O 0.22184(5) 0.17390(8) 0.12783(5)
O4 O 0.21076(5) 0.09559(11) 0.27560(5)
N1 N 0.58442(5) 0.14179(7) 0.47633(5)
C1 C 0.51613(6) 0.20878(7) 0.42852(5)
H1 H 0.4549 0.1815 0.4428
C2 C 0.53566(6) 0.16348(7) 0.34179(5)
C3 C 0.61989(6) 0.22692(8) 0.31234(6)
H2 H 0.6735 0.1966 0.3439
H3 H 0.6269 0.206 0.2547
C4 C 0.61751(6) 0.36227(8) 0.32004(6)
H4 H 0.6732 0.3967 0.2994
H5 H 0.5655 0.3943 0.287
C5 C 0.60958(6) 0.39706(8) 0.40878(6)
H6 H 0.6077 0.4849 0.4135
H7 H 0.6631 0.3681 0.4412
C6 C 0.52405(6) 0.34367(8) 0.44254(6)
H8 H 0.5267 0.3579 0.5025
C7 C 0.56191(6) 0.03179(8) 0.35888(5)
H9 H 0.5085 -0.0207 0.3525
H10 H 0.6076 0.0046 0.3214
C8 C 0.59976(6) 0.03088(8) 0.44547(5)
C9 C 0.67374(7) 0.18205(12) 0.59154(7)
H11 H 0.6776 0.172 0.6507
H12 H 0.6869 0.265 0.578
H13 H 0.7175 0.1295 0.5671
C10 C 0.44249(6) 0.40179(8) 0.40771(6)
C11 C 0.37432(7) 0.44776(9) 0.38016(6)
C12 C 0.29596(7) 0.50131(9) 0.35179(7)
C13 C 0.22705(7) 0.55240(10) 0.33031(7)
C14 C 0.14626(6) 0.61805(9) 0.31118(6)
C15 C 0.06250(7) 0.56997(11) 0.32845(7)
H14 H 0.059 0.4918 0.3501
C16 C -0.01534(7) 0.63644(12) 0.31396(8)
H15 H -0.0721 0.6035 0.3255
C17 C -0.01057(8) 0.75073(12) 0.28272(8)
H16 H -0.064 0.7962 0.2735
C18 C 0.07231(8) 0.79901(11) 0.26486(8)
H17 H 0.0754 0.8774 0.2434
C19 C 0.15046(7) 0.73272(10) 0.27836(7)
H18 H 0.2069 0.7653 0.2653
C20 C 0.45325(6) 0.17291(7) 0.28312(5)
C21 C 0.45791(6) 0.21430(8) 0.20430(5)
H19 H 0.514 0.2417 0.1864
C22 C 0.38205(6) 0.21668(8) 0.15047(6)
H20 H 0.3871 0.2456 0.0968
C23 C 0.29964(6) 0.17708(8) 0.17523(6)
C24 C 0.29367(6) 0.13581(9) 0.25521(6)
C25 C 0.36936(6) 0.13325(9) 0.30770(5)
H21 H 0.3644 0.1041 0.3614
C26 C 0.22784(7) 0.20642(10) 0.04456(6)
H22 H 0.2509 0.288 0.0412
H23 H 0.168 0.2019 0.0169
H24 H 0.2688 0.1517 0.0185
C27 C 0.18786(8) 0.11500(17) 0.35675(8)
H25 H 0.2256 0.0647 0.3932
H26 H 0.1244 0.0949 0.3623
H27 H 0.1978 0.1989 0.3709
O5 O -0.00792(8) 0.81083(13) 0.05570(9)
O6 O 0.12522(6) 0.71439(9) 0.06310(7)
C28 C 0.07167(9) 0.81341(12) 0.05117(9)
C29 C 0.12678(9) 0.92287(13) 0.04103(9)
H28 H 0.1695 0.9094 -0.0013
H29 H 0.1599 0.9415 0.0924
H30 H 0.0871 0.9897 0.0254
C30 C 0.07744(10) 0.60424(13) 0.07964(11)
H31 H 0.0335 0.586 0.0342
H32 H 0.0443 0.6127 0.1299
C31 C 0.14528(13) 0.50579(16) 0.08933(12)
H33 H 0.1814 0.5028 0.0414
H34 H 0.114 0.4297 0.0952
H35 H 0.1847 0.5205 0.1378
loop_
_geom_bond_atom_site_label_1
_geom_bond_atom_site_label_2
_geom_bond_site_symmetry_1
_geom_bond_site_symmetry_2
O1 C8 1_555 1_555
O2 N1 1_555 1_555
O3 C23 1_555 1_555
O4 C24 1_555 1_555
N1 C1 1_555 1_555
C1 H1 1_555 1_555
C2 C1 1_555 1_555
C3 C2 1_555 1_555
H2 C3 1_555 1_555
H3 C3 1_555 1_555
C4 C3 1_555 1_555
H4 C4 1_555 1_555
H5 C4 1_555 1_555
C5 C4 1_555 1_555
H6 C5 1_555 1_555
H7 C5 1_555 1_555
C6 C1 1_555 1_555
H8 C6 1_555 1_555
C7 C2 1_555 1_555
H9 C7 1_555 1_555
H10 C7 1_555 1_555
C8 N1 1_555 1_555
C9 O2 1_555 1_555
H11 C9 1_555 1_555
H12 C9 1_555 1_555
H13 C9 1_555 1_555
C10 C6 1_555 1_555
C11 C10 1_555 1_555
C12 C11 1_555 1_555
C13 C12 1_555 1_555
C14 C13 1_555 1_555
C15 C14 1_555 1_555
H14 C15 1_555 1_555
C16 C15 1_555 1_555
H15 C16 1_555 1_555
C17 C16 1_555 1_555
H16 C17 1_555 1_555
C18 C17 1_555 1_555
H17 C18 1_555 1_555
C19 C14 1_555 1_555
H18 C19 1_555 1_555
C20 C2 1_555 1_555
C21 C20 1_555 1_555
H19 C21 1_555 1_555
C22 C21 1_555 1_555
H20 C22 1_555 1_555
C23 C22 1_555 1_555
C24 C23 1_555 1_555
C25 C20 1_555 1_555
H21 C25 1_555 1_555
C26 O3 1_555 1_555
H22 C26 1_555 1_555
H23 C26 1_555 1_555
H24 C26 1_555 1_555
C27 O4 1_555 1_555
H25 C27 1_555 1_555
H26 C27 1_555 1_555
H27 C27 1_555 1_555
O5 C28 1_555 1_555
O6 C28 1_555 1_555
C28 C29 1_555 1_555
C29 H28 1_555 1_555
H29 C29 1_555 1_555
H30 C29 1_555 1_555
C30 O6 1_555 1_555
H31 C30 1_555 1_555
H32 C30 1_555 1_555
C31 C30 1_555 1_555
H33 C31 1_555 1_555
H34 C31 1_555 1_555
H35 C31 1_555 1_555
C5 C6 1_555 1_555
C7 C8 1_555 1_555
C18 C19 1_555 1_555
C24 C25 1_555 1_555

#END
