
#######################################################################
#
#                 Cambridge Crystallographic Data Centre
#                                CCDC 
#
#######################################################################
#
# If this CIF has been generated from an entry in the Cambridge 
# Structural Database, then it will include bibliographic, chemical, 
# crystal, experimental, refinement or atomic coordinate data resulting 
# from the CCDC's data processing and validation procedures.
#
#######################################################################

data_JEKLER
_chemical_formula_moiety         'C51 H54 N3 O4 P1'
_chemical_name_systematic        
(phosphoryltripyrrolidine-1,2-diyl)tris(diphenylmethanol)
_symmetry_cell_setting           hexagonal
_symmetry_space_group_name_H-M   'P 63'
_symmetry_Int_Tables_number      173
_space_group_name_Hall           'P 6c'
loop_
_symmetry_equiv_pos_site_id
_symmetry_equiv_pos_as_xyz
1 x,y,z
2 -y,x-y,z
3 -x+y,-x,z
4 -x,-y,1/2+z
5 y,-x+y,1/2+z
6 x-y,x,1/2+z
_cell_length_a                   16.645(2)
_cell_length_b                   16.645(2)
_cell_length_c                   9.0395(18)
_cell_angle_alpha                90
_cell_angle_beta                 90
_cell_angle_gamma                120
_cell_volume                     2168.92
_exptl_crystal_colour            colorless
_exptl_crystal_description       block
_chemical_melting_point          '533 K'
_cell_formula_units_Z            2
_exptl_crystal_recrystallization_method 'ethyl acetate/petroleum ether'
loop_
_atom_site_label
_atom_site_type_symbol
_atom_site_fract_x
_atom_site_fract_y
_atom_site_fract_z
P1 P 0.3333 0.6667 0.18267(15)
O1 O 0.23414(15) 0.75436(15) -0.0584(2)
H1 H 0.2642(19) 0.7207(19) -0.038(4)
O2 O 0.3333 0.6667 0.0165(4)
N1 N 0.25774(14) 0.69312(14) 0.2474(2)
C1 C 0.02634(19) 0.6769(2) 0.1794(4)
H2 H 0.0341 0.7332 0.2129
C2 C -0.0548(2) 0.5954(3) 0.2128(4)
H3 H -0.1013 0.5971 0.2675
C3 C -0.0661(2) 0.5117(2) 0.1640(4)
H4 H -0.1190 0.4565 0.1898
C4 C 0.0006(3) 0.5100(2) 0.0778(5)
H5 H -0.0084 0.4538 0.0415
C5 C 0.08110(19) 0.5910(2) 0.0444(4)
H6 H 0.1259 0.5887 -0.0140
C6 C 0.09645(18) 0.67589(18) 0.0965(4)
C7 C 0.19073(18) 0.76343(18) 0.0730(4)
C8 C 0.18102(19) 0.8488(2) 0.0412(4)
C9 C 0.1131(2) 0.8390(2) -0.0604(5)
H7 H 0.0733 0.7812 -0.1015
C10 C 0.1048(3) 0.9151(3) -0.1002(5)
H8 H 0.0593 0.9078 -0.1674
C11 C 0.1633(3) 1.0011(3) -0.0409(6)
H9 H 0.1571 1.0519 -0.0669
C12 C 0.2305(3) 1.0113(2) 0.0568(5)
H10 H 0.2701 1.0693 0.0972
C13 C 0.2407(2) 0.93631(19) 0.0964(4)
H11 H 0.2880 0.9450 0.1607
C14 C 0.25443(18) 0.77794(18) 0.2078(4)
H12 H 0.3175 0.8266 0.1822
C15 C 0.2272(2) 0.8057(2) 0.3549(3)
H13 H 0.2806 0.8595 0.3972
H14 H 0.1790 0.8211 0.3375
C16 C 0.1929(2) 0.7246(2) 0.4585(4)
H15 H 0.2298 0.7427 0.5482
H16 H 0.1288 0.7028 0.4851
C17 C 0.20097(19) 0.64946(19) 0.3804(3)
H17 H 0.2308 0.6250 0.4436
H18 H 0.1401 0.5991 0.3528
O1A O 0.24564(15) 0.47978(21) -0.0584(2)
O1B O 0.52022(21) 0.76586(15) -0.0584(2)
H1A H 0.2793(19) 0.5435(27) -0.038(4)
H1B H 0.4565(27) 0.7358(19) -0.038(4)
N1A N 0.30688(14) 0.56462(20) 0.2474(2)
N1B N 0.43538(20) 0.74226(14) 0.2474(2)
C1A C 0.3231(2) 0.34944(28) 0.1794(4)
C1B C 0.65056(28) 0.97366(19) 0.1794(4)
H2A H 0.2668 0.3009 0.2129
H2B H 0.6991 0.9659 0.2129
C2A C 0.4046(3) 0.3498(4) 0.2128(4)
C2B C 0.6502(4) 1.0548(2) 0.2128(4)
H3A H 0.4029 0.3016 0.2675
H3B H 0.6984 1.1013 0.2675
C3A C 0.4883(2) 0.4222(3) 0.1640(4)
C3B C 0.5778(3) 1.0661(2) 0.1640(4)
H4A H 0.5435 0.4245 0.1898
H4B H 0.5755 1.1190 0.1898
C4A C 0.4900(2) 0.4906(4) 0.0778(5)
C4B C 0.5094(4) 0.9994(3) 0.0778(5)
H5A H 0.5462 0.5378 0.0415
H5B H 0.4622 1.0084 0.0415
C5A C 0.4090(2) 0.49010(28) 0.0444(4)
C5B C 0.50990(28) 0.91890(19) 0.0444(4)
H6A H 0.4113 0.5372 -0.0140
H6B H 0.4628 0.8741 -0.0140
C6A C 0.32411(18) 0.42056(25) 0.0965(4)
C6B C 0.57944(25) 0.90355(18) 0.0965(4)
C7A C 0.23657(18) 0.42730(25) 0.0730(4)
C7B C 0.57270(25) 0.80927(18) 0.0730(4)
C8A C 0.1512(2) 0.33222(28) 0.0412(4)
C8B C 0.66778(28) 0.81898(19) 0.0412(4)
C9A C 0.1610(2) 0.2741(3) -0.0604(5)
C9B C 0.7259(3) 0.8869(2) -0.0604(5)
H7A H 0.2188 0.2921 -0.1015
H7B H 0.7079 0.9267 -0.1015
C10A C 0.0849(3) 0.1897(4) -0.1002(5)
C10B C 0.8103(4) 0.8952(3) -0.1002(5)
H8A H 0.0922 0.1515 -0.1674
H8B H 0.8485 0.9407 -0.1674
C11A C -0.0011(3) 0.1622(4) -0.0409(6)
C11B C 0.8378(4) 0.8367(3) -0.0409(6)
H9A H -0.0519 0.1052 -0.0669
H9B H 0.8948 0.8429 -0.0669
C12A C -0.0113(2) 0.2192(4) 0.0568(5)
C12B C 0.7808(4) 0.7695(3) 0.0568(5)
H10A H -0.0693 0.2008 0.0972
H10B H 0.7992 0.7299 0.0972
C13A C 0.06369(19) 0.30439(28) 0.0964(4)
C13B C 0.69561(28) 0.7593(2) 0.0964(4)
H11A H 0.0550 0.3430 0.1607
H11B H 0.6570 0.7120 0.1607
C14A C 0.22206(18) 0.47649(25) 0.2078(4)
C14B C 0.52351(25) 0.74557(18) 0.2078(4)
H12A H 0.1734 0.4909 0.1822
H12B H 0.5091 0.6825 0.1822
C15A C 0.1943(2) 0.4215(3) 0.3549(3)
C15B C 0.5785(3) 0.7728(2) 0.3549(3)
H13A H 0.1405 0.4211 0.3972
H13B H 0.5789 0.7194 0.3972
H14A H 0.1789 0.3579 0.3375
H14B H 0.6421 0.8210 0.3375
C16A C 0.2754(2) 0.4683(3) 0.4585(4)
C16B C 0.5317(3) 0.8071(2) 0.4585(4)
H15A H 0.2573 0.4871 0.5482
H15B H 0.5129 0.7702 0.5482
H16A H 0.2972 0.4260 0.4851
H16B H 0.5740 0.8712 0.4851
C17A C 0.35054(19) 0.55151(27) 0.3804(3)
C17B C 0.44849(27) 0.79903(19) 0.3804(3)
H17A H 0.3750 0.6058 0.4436
H17B H 0.3942 0.7692 0.4436
H18A H 0.4009 0.5410 0.3528
H18B H 0.4590 0.8599 0.3528
loop_
_geom_bond_atom_site_label_1
_geom_bond_atom_site_label_2
_geom_bond_site_symmetry_1
_geom_bond_site_symmetry_2
P1 O2 1_555 1_555
O1 H1 1_555 1_555
N1 P1 1_555 1_555
C1 H2 1_555 1_555
C2 C1 1_555 1_555
H3 C2 1_555 1_555
C3 C2 1_555 1_555
H4 C3 1_555 1_555
C4 C3 1_555 1_555
H5 C4 1_555 1_555
C5 C4 1_555 1_555
H6 C5 1_555 1_555
C6 C1 1_555 1_555
C7 O1 1_555 1_555
C8 C7 1_555 1_555
C9 C8 1_555 1_555
H7 C9 1_555 1_555
C10 C9 1_555 1_555
H8 C10 1_555 1_555
C11 C10 1_555 1_555
H9 C11 1_555 1_555
C12 C11 1_555 1_555
H10 C12 1_555 1_555
C13 C8 1_555 1_555
H11 C13 1_555 1_555
C14 N1 1_555 1_555
H12 C14 1_555 1_555
C15 C14 1_555 1_555
H13 C15 1_555 1_555
H14 C15 1_555 1_555
C16 C15 1_555 1_555
H15 C16 1_555 1_555
H16 C16 1_555 1_555
C17 N1 1_555 1_555
H17 C17 1_555 1_555
H18 C17 1_555 1_555
O1A H1A 1_555 1_555
O1B H1B 1_555 1_555
N1A P1 1_555 1_555
N1B P1 1_555 1_555
C1A H2A 1_555 1_555
C1B H2B 1_555 1_555
C2A C1A 1_555 1_555
C2B C1B 1_555 1_555
H3A C2A 1_555 1_555
H3B C2B 1_555 1_555
C3A C2A 1_555 1_555
C3B C2B 1_555 1_555
H4A C3A 1_555 1_555
H4B C3B 1_555 1_555
C4A C3A 1_555 1_555
C4B C3B 1_555 1_555
H5A C4A 1_555 1_555
H5B C4B 1_555 1_555
C5A C4A 1_555 1_555
C5B C4B 1_555 1_555
H6A C5A 1_555 1_555
H6B C5B 1_555 1_555
C6A C1A 1_555 1_555
C6B C1B 1_555 1_555
C7A O1A 1_555 1_555
C7B O1B 1_555 1_555
C8A C7A 1_555 1_555
C8B C7B 1_555 1_555
C9A C8A 1_555 1_555
C9B C8B 1_555 1_555
H7A C9A 1_555 1_555
H7B C9B 1_555 1_555
C10A C9A 1_555 1_555
C10B C9B 1_555 1_555
H8A C10A 1_555 1_555
H8B C10B 1_555 1_555
C11A C10A 1_555 1_555
C11B C10B 1_555 1_555
H9A C11A 1_555 1_555
H9B C11B 1_555 1_555
C12A C11A 1_555 1_555
C12B C11B 1_555 1_555
H10A C12A 1_555 1_555
H10B C12B 1_555 1_555
C13A C8A 1_555 1_555
C13B C8B 1_555 1_555
H11A C13A 1_555 1_555
H11B C13B 1_555 1_555
C14A N1A 1_555 1_555
C14B N1B 1_555 1_555
H12A C14A 1_555 1_555
H12B C14B 1_555 1_555
C15A C14A 1_555 1_555
C15B C14B 1_555 1_555
H13A C15A 1_555 1_555
H13B C15B 1_555 1_555
H14A C15A 1_555 1_555
H14B C15B 1_555 1_555
C16A C15A 1_555 1_555
C16B C15B 1_555 1_555
H15A C16A 1_555 1_555
H15B C16B 1_555 1_555
H16A C16A 1_555 1_555
H16B C16B 1_555 1_555
C17A N1A 1_555 1_555
C17B N1B 1_555 1_555
H17A C17A 1_555 1_555
H17B C17B 1_555 1_555
H18A C17A 1_555 1_555
H18B C17B 1_555 1_555
C5 C6 1_555 1_555
C6 C7 1_555 1_555
C7 C14 1_555 1_555
C12 C13 1_555 1_555
C16 C17 1_555 1_555
C5A C6A 1_555 1_555
C5B C6B 1_555 1_555
C6A C7A 1_555 1_555
C6B C7B 1_555 1_555
C7A C14A 1_555 1_555
C7B C14B 1_555 1_555
C12A C13A 1_555 1_555
C12B C13B 1_555 1_555
C16A C17A 1_555 1_555
C16B C17B 1_555 1_555

#END
