
#######################################################################
#
#                 Cambridge Crystallographic Data Centre
#                                CCDC 
#
#######################################################################
#
# If this CIF has been generated from an entry in the Cambridge 
# Structural Database, then it will include bibliographic, chemical, 
# crystal, experimental, refinement or atomic coordinate data resulting 
# from the CCDC's data processing and validation procedures.
#
#######################################################################

data_JEKLUH
_chemical_formula_moiety         'C19 H21 F6 N1 O2'
_chemical_name_systematic        
3-(1-[(2,6-di-isopropylphenyl)amino]ethylidene)-1,1,1,5,5,5-hexafluoropentane-2,4-dione
_symmetry_cell_setting           triclinic
_symmetry_space_group_name_H-M   'P -1'
_symmetry_Int_Tables_number      2
_space_group_name_Hall           '-P 1'
loop_
_symmetry_equiv_pos_site_id
_symmetry_equiv_pos_as_xyz
1 x,y,z
2 -x,-y,-z
_cell_length_a                   9.5817(4)
_cell_length_b                   10.9073(5)
_cell_length_c                   10.9450(5)
_cell_angle_alpha                111.170(3)
_cell_angle_beta                 108.944(3)
_cell_angle_gamma                97.324(3)
_cell_volume                     969.284
_exptl_crystal_colour            brown
_exptl_crystal_description       block
_cell_formula_units_Z            2
_exptl_crystal_recrystallization_method toluene/pentane
loop_
_atom_site_label
_atom_site_type_symbol
_atom_site_fract_x
_atom_site_fract_y
_atom_site_fract_z
C1 C 0.78247(16) 0.78456(13) 0.38219(14)
C2 C 0.85207(18) 0.79364(15) 0.51998(15)
C3 C 0.95840(18) 0.72317(15) 0.55030(16)
C4 C 1.00012(18) 0.64292(15) 0.44481(16)
C5 C 0.93374(16) 0.62956(13) 0.30523(14)
C6 C 0.82401(15) 0.69999(13) 0.27714(13)
C7 C 0.66436(18) 0.86192(15) 0.34933(16)
C8 C 0.7171(3) 1.01107(18) 0.45950(22)
C9 C 0.51045(22) 0.78777(22) 0.3354(3)
C10 C 0.97772(18) 0.54128(15) 0.18717(17)
C11 C 0.86618(24) 0.39814(17) 0.10218(21)
C12 C 1.14310(23) 0.53284(23) 0.2440(3)
N1 N 0.74576(13) 0.68252(11) 0.13194(12)
C13 C 0.78831(15) 0.76459(13) 0.07833(14)
C14 C 0.93604(20) 0.87546(17) 0.17049(19)
C15 C 0.69461(15) 0.74886(13) -0.05956(14)
C16 C 0.75322(17) 0.84674(14) -0.11013(14)
O1 O 0.86720(13) 0.85370(12) -0.13387(12)
C17 C 0.67409(21) 0.96015(17) -0.11363(20)
F1 F 0.74185(16) 1.06617(11) 0.01387(16)
F2 F 0.68626(17) 1.00096(15) -0.21139(17)
F3 F 0.52596(12) 0.92585(11) -0.14007(12)
C18 C 0.55411(16) 0.64417(14) -0.14361(14)
O2 O 0.49922(11) 0.56121(10) -0.10660(10)
C19 C 0.45901(19) 0.61941(17) -0.29840(16)
F4 F 0.52893(11) 0.69495(10) -0.34583(9)
F5 F 0.32568(12) 0.64716(14) -0.31041(13)
F6 F 0.42996(16) 0.48964(11) -0.38722(10)
H1 H 0.8252(18) 0.8507(16) 0.5935(17)
H2 H 1.0035(21) 0.7330(18) 0.6427(20)
H3 H 1.0765(19) 0.5974(17) 0.4668(17)
H4 H 0.6537(18) 0.8660(15) 0.2607(18)
H5 H 0.6437(22) 1.0611(19) 0.4243(19)
H6 H 0.814(3) 1.0549(23) 0.4684(24)
H7 H 0.723(3) 1.0186(24) 0.558(3)
H8 H 0.476(3) 0.696(3) 0.262(3)
H9 H 0.4316(24) 0.8350(20) 0.3112(22)
H10 H 0.522(3) 0.7833(22) 0.429(3)
H11 H 0.9690(16) 0.5864(15) 0.1253(15)
H12 H 0.8696(22) 0.3481(19) 0.1624(21)
H13 H 0.8902(23) 0.3434(19) 0.0254(22)
H14 H 0.757(3) 0.4050(21) 0.0581(23)
H15 H 1.216(3) 0.6238(23) 0.2975(23)
H16 H 1.1522(24) 0.4747(22) 0.2997(23)
H17 H 1.1743(24) 0.4915(21) 0.1639(23)
H18 H 0.6571(21) 0.6194(18) 0.0728(19)
H19 H 1.047(3) 0.842(3) 0.175(3)
H20 H 0.953(3) 0.936(3) 0.140(3)
H21 H 0.942(3) 0.917(3) 0.256(3)
loop_
_geom_bond_atom_site_label_1
_geom_bond_atom_site_label_2
_geom_bond_site_symmetry_1
_geom_bond_site_symmetry_2
C1 C2 1_555 1_555
C2 C3 1_555 1_555
C3 C4 1_555 1_555
C4 C5 1_555 1_555
C5 C6 1_555 1_555
C6 C1 1_555 1_555
C7 C1 1_555 1_555
C8 C7 1_555 1_555
C9 C7 1_555 1_555
C10 C5 1_555 1_555
C11 C10 1_555 1_555
C12 C10 1_555 1_555
N1 C6 1_555 1_555
C13 N1 1_555 1_555
C14 C13 1_555 1_555
C15 C13 1_555 1_555
C16 C15 1_555 1_555
O1 C16 1_555 1_555
C17 C16 1_555 1_555
F1 C17 1_555 1_555
F2 C17 1_555 1_555
F3 C17 1_555 1_555
C18 C15 1_555 1_555
O2 C18 1_555 1_555
C19 C18 1_555 1_555
F4 C19 1_555 1_555
F5 C19 1_555 1_555
F6 C19 1_555 1_555
H1 C2 1_555 1_555
H2 C3 1_555 1_555
H3 C4 1_555 1_555
H4 C7 1_555 1_555
H5 C8 1_555 1_555
H6 C8 1_555 1_555
H7 C8 1_555 1_555
H8 C9 1_555 1_555
H9 C9 1_555 1_555
H10 C9 1_555 1_555
H11 C10 1_555 1_555
H12 C11 1_555 1_555
H13 C11 1_555 1_555
H14 C11 1_555 1_555
H15 C12 1_555 1_555
H16 C12 1_555 1_555
H17 C12 1_555 1_555
H18 N1 1_555 1_555
H19 C14 1_555 1_555
H20 C14 1_555 1_555
H21 C14 1_555 1_555

#END
