
#######################################################################
#
#                 Cambridge Crystallographic Data Centre
#                                CCDC 
#
#######################################################################
#
# If this CIF has been generated from an entry in the Cambridge 
# Structural Database, then it will include bibliographic, chemical, 
# crystal, experimental, refinement or atomic coordinate data resulting 
# from the CCDC's data processing and validation procedures.
#
#######################################################################

data_JEKMAO
_chemical_formula_moiety         'C15 H13 F6 N1 O2'
_chemical_name_systematic        
3-(1-[(2,6-dimethylphenyl)amino]ethylidene)-1,1,1,5,5,5-hexafluoropentane-2,4-dione
_symmetry_cell_setting           triclinic
_symmetry_space_group_name_H-M   'P -1'
_symmetry_Int_Tables_number      2
_space_group_name_Hall           '-P 1'
loop_
_symmetry_equiv_pos_site_id
_symmetry_equiv_pos_as_xyz
1 x,y,z
2 -x,-y,-z
_cell_length_a                   7.7190(12)
_cell_length_b                   9.4574(15)
_cell_length_c                   11.3047(17)
_cell_angle_alpha                75.083(6)
_cell_angle_beta                 78.299(6)
_cell_angle_gamma                81.459(7)
_cell_volume                     776.823
_exptl_crystal_colour            colorless
_exptl_crystal_description       block
_cell_formula_units_Z            2
_exptl_crystal_recrystallization_method toluene/pentane
loop_
_atom_site_label
_atom_site_type_symbol
_atom_site_fract_x
_atom_site_fract_y
_atom_site_fract_z
C1 C 0.76227(20) 0.53170(19) 0.55722(14)
C2 C 0.72249(22) 0.55398(21) 0.43826(15)
C3 C 0.71556(23) 0.43670(22) 0.38847(15)
C4 C 0.74590(24) 0.29503(23) 0.45611(16)
C5 C 0.79009(23) 0.26560(20) 0.57449(15)
C6 C 0.79630(20) 0.38683(19) 0.62266(13)
N1 N 0.85013(19) 0.35961(16) 0.74283(12)
C7 C 0.74769(20) 0.32116(16) 0.85215(13)
C8 C 0.82293(19) 0.28254(16) 0.96257(13)
C9 C 0.69859(20) 0.23995(17) 1.08172(13)
C10 C 0.71381(24) 0.07676(19) 1.15246(14)
C11 C 1.00640(20) 0.29075(16) 0.95615(13)
C12 C 1.08541(21) 0.26642(17) 1.07571(14)
C13 C 0.7663(3) 0.65951(23) 0.61295(19)
C14 C 0.8292(4) 0.11019(25) 0.64614(22)
C15 C 0.55281(22) 0.31882(21) 0.85678(16)
O1 O 0.57460(16) 0.31743(13) 1.12171(10)
F1 F 0.87444(14) 0.00625(11) 1.13010(10)
F2 F 0.60072(16) 0.00874(12) 1.11598(11)
F3 F 0.66854(19) 0.05950(13) 1.27468(9)
O2 O 1.11707(14) 0.32439(13) 0.86040(9)
F4 F 1.20442(13) 0.14875(11) 1.08783(9)
F5 F 0.96471(13) 0.24897(11) 1.18051(8)
F6 F 1.16980(14) 0.38142(11) 1.07052(9)
H1 H 0.7031(22) 0.6489(20) 0.3919(16)
H2 H 0.6865(23) 0.4544(20) 0.3078(17)
H3 H 0.742(3) 0.2189(24) 0.4212(19)
H4 H 0.963(3) 0.3644(20) 0.7444(17)
H5 H 0.679(3) 0.6531(22) 0.6925(20)
H6 H 0.879(3) 0.6559(23) 0.6367(19)
H7 H 0.747(3) 0.755(3) 0.5538(24)
H8 H 0.842(4) 0.041(3) 0.603(3)
H9 H 0.737(4) 0.081(3) 0.720(3)
H10 H 0.945(4) 0.097(3) 0.6701(25)
H11 H 0.528(3) 0.3183(22) 0.7755(19)
H12 H 0.505(3) 0.2262(24) 0.9081(20)
H13 H 0.488(3) 0.4053(22) 0.8836(17)
loop_
_geom_bond_atom_site_label_1
_geom_bond_atom_site_label_2
_geom_bond_site_symmetry_1
_geom_bond_site_symmetry_2
C1 C2 1_555 1_555
C2 C3 1_555 1_555
C3 C4 1_555 1_555
C4 C5 1_555 1_555
C5 C6 1_555 1_555
C6 C1 1_555 1_555
N1 C6 1_555 1_555
C7 N1 1_555 1_555
C8 C7 1_555 1_555
C9 C8 1_555 1_555
C10 C9 1_555 1_555
C11 C8 1_555 1_555
C12 C11 1_555 1_555
C13 C1 1_555 1_555
C14 C5 1_555 1_555
C15 C7 1_555 1_555
O1 C9 1_555 1_555
F1 C10 1_555 1_555
F2 C10 1_555 1_555
F3 C10 1_555 1_555
O2 C11 1_555 1_555
F4 C12 1_555 1_555
F5 C12 1_555 1_555
F6 C12 1_555 1_555
H1 C2 1_555 1_555
H2 C3 1_555 1_555
H3 C4 1_555 1_555
H4 N1 1_555 1_555
H5 C13 1_555 1_555
H6 C13 1_555 1_555
H7 C13 1_555 1_555
H8 C14 1_555 1_555
H9 C14 1_555 1_555
H10 C14 1_555 1_555
H11 C15 1_555 1_555
H12 C15 1_555 1_555
H13 C15 1_555 1_555

#END
