
#######################################################################
#
#                 Cambridge Crystallographic Data Centre
#                                CCDC 
#
#######################################################################
#
# If this CIF has been generated from an entry in the Cambridge 
# Structural Database, then it will include bibliographic, chemical, 
# crystal, experimental, refinement or atomic coordinate data resulting 
# from the CCDC's data processing and validation procedures.
#
#######################################################################

data_JEKNIZ
_chemical_formula_moiety         'C16 H12 N2 O1,0.25(C3 H6 O1)'
_chemical_name_systematic        
'3-(biphenyl-4-yl)-2-cyanoacrylamide acetone solvate'
_symmetry_cell_setting           triclinic
_symmetry_space_group_name_H-M   'P -1'
_symmetry_Int_Tables_number      2
_space_group_name_Hall           '-P 1'
loop_
_symmetry_equiv_pos_site_id
_symmetry_equiv_pos_as_xyz
1 x,y,z
2 -x,-y,-z
_cell_length_a                   9.123(2)
_cell_length_b                   10.860(3)
_cell_length_c                   13.842(3)
_cell_angle_alpha                84.270(6)
_cell_angle_beta                 89.011(6)
_cell_angle_gamma                82.514(6)
_cell_volume                     1352.91
_exptl_crystal_colour            colorless
_exptl_crystal_description       polyhedron
_cell_formula_units_Z            4
loop_
_atom_site_label
_atom_site_type_symbol
_atom_site_fract_x
_atom_site_fract_y
_atom_site_fract_z
C17 C 0.1109(5) 0.5874(4) 0.5716(3)
O2 O 0.2421(3) 0.5421(3) 0.5859(2)
N3 N 0.0668(5) 0.6525(4) 0.4901(3)
H13 H 0.139(6) 0.662(4) 0.438(3)
H14 H -0.024(7) 0.684(5) 0.480(4)
C18 C -0.0013(5) 0.5670(4) 0.6508(3)
C19 C 0.0425(5) 0.5025(4) 0.7352(3)
H15 H 0.1458 0.4754 0.7380
C20 C -0.1511(5) 0.6159(4) 0.6287(3)
N4 N -0.2690(5) 0.6583(4) 0.6058(3)
C21 C -0.0357(5) 0.4659(4) 0.8225(3)
C22 C -0.1844(5) 0.5085(4) 0.8423(3)
H16 H -0.2408 0.5633 0.7949
C23 C -0.2501(5) 0.4723(4) 0.9294(3)
H17 H -0.3501 0.5043 0.9412
C24 C -0.1737(4) 0.3902(4) 1.0003(3)
C25 C -0.0269(5) 0.3468(4) 0.9809(3)
H18 H 0.0282 0.2895 1.0273
C26 C 0.0394(5) 0.3859(4) 0.8948(3)
H19 H 0.1408 0.3568 0.8847
C27 C -0.2457(5) 0.3539(4) 1.0934(3)
C28 C -0.3570(5) 0.4342(4) 1.1337(3)
H20 H -0.3860 0.5146 1.1011
C29 C -0.4260(5) 0.3994(5) 1.2202(3)
H21 H -0.5001 0.4565 1.2466
C30 C -0.3881(5) 0.2834(5) 1.2678(4)
H22 H -0.4378 0.2585 1.3260
C31 C -0.2761(6) 0.2027(5) 1.2302(4)
H23 H -0.2470 0.1227 1.2637
C32 C -0.2068(5) 0.2381(4) 1.1440(3)
H24 H -0.1305 0.1816 1.1191
C1 C 0.4219(5) 0.6792(4) 0.3740(3)
O1 O 0.2980(4) 0.6642(3) 0.3454(2)
N1 N 0.4647(5) 0.6504(4) 0.4651(3)
H1 H 0.405(5) 0.614(4) 0.504(3)
H2 H 0.553(7) 0.666(6) 0.492(4)
C2 C 0.5282(5) 0.7344(4) 0.3034(3)
C3 C 0.4882(5) 0.7614(4) 0.2104(3)
H3 H 0.3924 0.7426 0.1964
C4 C 0.6680(6) 0.7538(5) 0.3404(3)
N2 N 0.7787(5) 0.7670(4) 0.3738(3)
C5 C 0.5661(5) 0.8145(4) 0.1269(3)
C6 C 0.6842(5) 0.8823(4) 0.1326(3)
H4 H 0.7176 0.8976 0.1944
C7 C 0.7535(5) 0.9274(4) 0.0500(3)
H5 H 0.8336 0.9738 0.0561
C8 C 0.7096(5) 0.9070(4) -0.0424(3)
C9 C 0.5899(5) 0.8414(4) -0.0479(3)
H6 H 0.5559 0.8264 -0.1096
C10 C 0.5196(5) 0.7978(4) 0.0349(3)
H7 H 0.4365 0.7549 0.0288
C11 C 0.7892(5) 0.9529(4) -0.1300(3)
C12 C 0.8533(5) 1.0622(4) -0.1344(3)
H8 H 0.8465 1.1090 -0.0797
C13 C 0.9269(5) 1.1046(5) -0.2165(4)
H9 H 0.9686 1.1805 -0.2180
C14 C 0.9401(6) 1.0381(5) -0.2959(4)
H10 H 0.9913 1.0673 -0.3522
C15 C 0.8789(8) 0.9288(6) -0.2935(4)
H11 H 0.8887 0.8815 -0.3479
C16 C 0.8026(7) 0.8876(5) -0.2113(4)
H12 H 0.7586 0.8129 -0.2108
O3? O -0.486(2) 0.0214(15) 1.3753(12)
C33? C -0.475(3) 0.0117(19) 1.449(2)
C34? C -0.635(4) -0.007(3) 1.488(3)
H25? H -0.6763 0.0643 1.5218
H26? H -0.6297 -0.0837 1.5327
H27? H -0.6992 -0.0150 1.4331
C35? C -0.327(4) 0.061(4) 1.483(3)
H28? H -0.2636 -0.0080 1.5188
H29? H -0.3527 0.1281 1.5248
H30? H -0.2729 0.0926 1.4257
loop_
_geom_bond_atom_site_label_1
_geom_bond_atom_site_label_2
_geom_bond_site_symmetry_1
_geom_bond_site_symmetry_2
C1 O1 1_555 1_555
N1 C1 1_555 1_555
H1 N1 1_555 1_555
H2 N1 1_555 1_555
C2 C1 1_555 1_555
C3 C2 1_555 1_555
H3 C3 1_555 1_555
C4 C2 1_555 1_555
N2 C4 1_555 1_555
C5 C3 1_555 1_555
C6 C5 1_555 1_555
H4 C6 1_555 1_555
C7 C6 1_555 1_555
H5 C7 1_555 1_555
C8 C7 1_555 1_555
C9 C8 1_555 1_555
H6 C9 1_555 1_555
C10 C5 1_555 1_555
H7 C10 1_555 1_555
C11 C8 1_555 1_555
C12 C11 1_555 1_555
H8 C12 1_555 1_555
C13 C12 1_555 1_555
H9 C13 1_555 1_555
C14 C13 1_555 1_555
H10 C14 1_555 1_555
C15 C14 1_555 1_555
H11 C15 1_555 1_555
C16 C11 1_555 1_555
H12 C16 1_555 1_555
C17 O2 1_555 1_555
N3 C17 1_555 1_555
H13 N3 1_555 1_555
H14 N3 1_555 1_555
C18 C17 1_555 1_555
C19 C18 1_555 1_555
H15 C19 1_555 1_555
C20 C18 1_555 1_555
N4 C20 1_555 1_555
C21 C19 1_555 1_555
C22 C21 1_555 1_555
H16 C22 1_555 1_555
C23 C22 1_555 1_555
H17 C23 1_555 1_555
C24 C23 1_555 1_555
C25 C24 1_555 1_555
H18 C25 1_555 1_555
C26 C21 1_555 1_555
H19 C26 1_555 1_555
C27 C24 1_555 1_555
C28 C27 1_555 1_555
H20 C28 1_555 1_555
C29 C28 1_555 1_555
H21 C29 1_555 1_555
C30 C29 1_555 1_555
H22 C30 1_555 1_555
C31 C30 1_555 1_555
H23 C31 1_555 1_555
C32 C27 1_555 1_555
H24 C32 1_555 1_555
C9 C10 1_555 1_555
C15 C16 1_555 1_555
C25 C26 1_555 1_555
C31 C32 1_555 1_555

#END
