
#######################################################################
#
#                 Cambridge Crystallographic Data Centre
#                                CCDC 
#
#######################################################################
#
# If this CIF has been generated from an entry in the Cambridge 
# Structural Database, then it will include bibliographic, chemical, 
# crystal, experimental, refinement or atomic coordinate data resulting 
# from the CCDC's data processing and validation procedures.
#
#######################################################################

data_JEKPEX
_chemical_formula_moiety         'C18 H16 N2 O1'
_chemical_name_systematic        3-(biphenyl-3-yl)-2-cyano-N-ethylacrylamide
_symmetry_cell_setting           triclinic
_symmetry_space_group_name_H-M   'P -1'
_symmetry_Int_Tables_number      2
_space_group_name_Hall           '-P 1'
loop_
_symmetry_equiv_pos_site_id
_symmetry_equiv_pos_as_xyz
1 x,y,z
2 -x,-y,-z
_cell_length_a                   12.034(7)
_cell_length_b                   16.341(10)
_cell_length_c                   17.484(11)
_cell_angle_alpha                63.781(11)
_cell_angle_beta                 77.633(11)
_cell_angle_gamma                80.249(11)
_cell_volume                     3001.89
_exptl_crystal_colour            colorless
_exptl_crystal_description       needle
_cell_formula_units_Z            8
loop_
_atom_site_label
_atom_site_type_symbol
_atom_site_fract_x
_atom_site_fract_y
_atom_site_fract_z
C1 C 0.7719(7) 0.4829(7) 1.0445(5)
O1 O 0.8588(5) 0.4826(5) 1.0698(4)
N1 N 0.6715(6) 0.4677(5) 1.0951(4)
H1 H 0.6122 0.4658 1.0742
C2 C 0.7745(7) 0.4951(7) 0.9533(5)
C3 C 0.6695(7) 0.4933(7) 0.9287(5)
N2 N 0.5829(7) 0.4923(8) 0.9130(6)
C4 C 0.8747(7) 0.5074(6) 0.8999(5)
H2 H 0.9364 0.5110 0.9240
C5 C 0.6575(9) 0.4541(7) 1.1844(5)
H3 H 0.7271 0.4202 1.2090
H4 H 0.5925 0.4167 1.2183
C6 C 0.6369(11) 0.5417(7) 1.1912(7)
H5 H 0.6277 0.5306 1.2520
H6 H 0.7018 0.5783 1.1584
H7 H 0.5673 0.5748 1.1677
C7 C 0.9051(7) 0.5160(6) 0.8123(5)
C8 C 1.0153(7) 0.5381(6) 0.7713(5)
H8 H 1.0662 0.5477 0.8008
C9 C 1.0507(8) 0.5462(7) 0.6890(5)
H9 H 1.1250 0.5642 0.6607
C10 C 0.9801(7) 0.5286(6) 0.6458(5)
H10 H 1.0067 0.5330 0.5890
C11 C 0.8703(6) 0.5047(6) 0.6860(5)
C12 C 0.8335(7) 0.4984(6) 0.7680(5)
H11 H 0.7585 0.4819 0.7956
C13 C 0.7918(6) 0.4850(6) 0.6401(5)
C14 C 0.8356(7) 0.4386(6) 0.5881(5)
H12 H 0.9146 0.4191 0.5822
C15 C 0.7658(7) 0.4207(6) 0.5451(6)
H13 H 0.7969 0.3890 0.5099
C16 C 0.6505(7) 0.4489(6) 0.5531(6)
H14 H 0.6020 0.4365 0.5239
C17 C 0.6067(7) 0.4953(6) 0.6041(6)
H15 H 0.5280 0.5162 0.6087
C18 C 0.6762(6) 0.5118(6) 0.6487(6)
H16 H 0.6443 0.5417 0.6852
C19 C 0.7530(6) 0.7362(7) 0.8097(5)
O2 O 0.8395(5) 0.7383(6) 0.8331(4)
N3 N 0.6503(6) 0.7254(6) 0.8595(5)
H17 H 0.5900 0.7266 0.8380
C20 C 0.7573(6) 0.7430(6) 0.7198(5)
C21 C 0.6509(6) 0.7392(6) 0.6970(5)
N4 N 0.5647(6) 0.7385(7) 0.6801(5)
C22 C 0.8593(6) 0.7523(6) 0.6679(5)
H18 H 0.9213 0.7563 0.6915
C23 C 0.6376(10) 0.7117(8) 0.9499(6)
H19 H 0.5744 0.6725 0.9850
H20 H 0.7086 0.6801 0.9734
C24 C 0.6137(15) 0.7986(10) 0.9552(9)
H21 H 0.6054 0.7887 1.0156
H22 H 0.6768 0.8369 0.9210
H23 H 0.5428 0.8293 0.9326
C25 C 0.8882(6) 0.7573(6) 0.5802(5)
C26 C 0.9971(6) 0.7831(6) 0.5362(5)
H24 H 1.0472 0.7971 0.5632
C27 C 1.0323(7) 0.7882(7) 0.4538(5)
H25 H 1.1058 0.8073 0.4243
C28 C 0.9622(6) 0.7658(6) 0.4132(5)
H26 H 0.9888 0.7674 0.3573
C29 C 0.8526(6) 0.7412(6) 0.4551(5)
C30 C 0.8181(6) 0.7362(6) 0.5381(5)
H27 H 0.7442 0.7178 0.5674
C31 C 0.7746(6) 0.7176(6) 0.4119(5)
C32 C 0.8173(7) 0.6717(7) 0.3608(6)
H28 H 0.8967 0.6536 0.3534
C33 C 0.7465(7) 0.6515(7) 0.3199(6)
H29 H 0.7780 0.6201 0.2845
C34 C 0.6320(7) 0.6760(7) 0.3297(6)
H30 H 0.5838 0.6638 0.3001
C35 C 0.5880(7) 0.7187(7) 0.3837(6)
H31 H 0.5081 0.7342 0.3925
C36 C 0.6571(6) 0.7397(6) 0.4254(5)
H32 H 0.6249 0.7688 0.4627
C37 C 0.7742(9) 0.9803(8) 0.5476(7)
O3 O 0.8601(7) 0.9827(6) 0.5721(6)
N5 N 0.6714(8) 0.9720(6) 0.5974(6)
H33 H 0.6120 0.9696 0.5768
C38 C 0.7802(9) 0.9842(7) 0.4574(7)
C39 C 0.6720(10) 0.9782(8) 0.4375(10)
N6 N 0.5840(9) 0.9722(8) 0.4255(9)
C40 C 0.8801(9) 0.9969(7) 0.4010(7)
H34 H 0.9424 1.0014 0.4239
C41 C 0.6540(12) 0.9668(9) 0.6851(8)
H35 H 0.5847 0.9352 0.7192
H36 H 0.7200 0.9311 0.7139
C42 C 0.6417(17) 1.0580(10) 0.6818(12)
H37 H 0.6302 1.0538 0.7406
H38 H 0.7109 1.0889 0.6486
H39 H 0.5758 1.0930 0.6539
C43 C 0.9121(9) 1.0051(7) 0.3109(7)
C44 C 1.0208(9) 1.0327(8) 0.2658(8)
H40 H 1.0716 1.0443 0.2939
C45 C 1.0559(11) 1.0434(9) 0.1808(9)
H41 H 1.1289 1.0636 0.1509
C46 C 0.9825(10) 1.0241(8) 0.1401(9)
H42 H 1.0061 1.0320 0.0820
C47 C 0.8766(9) 0.9938(8) 0.1820(8)
C48 C 0.8422(10) 0.9839(8) 0.2677(8)
H43 H 0.7697 0.9623 0.2974
C49 C 0.7995(8) 0.9743(7) 0.1341(7)
C50 C 0.7317(11) 0.9014(7) 0.1796(6)
H44 H 0.7369 0.8628 0.2385
C51 C 0.6561(11) 0.8850(8) 0.1389(7)
H45 H 0.6097 0.8352 0.1700
C52 C 0.6485(9) 0.9414(8) 0.0527(7)
H46 H 0.5968 0.9302 0.0249
C53 C 0.7163(11) 1.0143(7) 0.0072(6)
H47 H 0.7111 1.0529 -0.0517
C54 C 0.7919(10) 1.0307(7) 0.0479(7)
H48 H 0.8383 1.0805 0.0168
C61 C 0.7910(6) 1.2259(6) 0.2848(5)
O4 O 0.8774(5) 1.2291(5) 0.3086(4)
N7 N 0.6872(5) 1.2145(5) 0.3351(4)
H54 H 0.6283 1.2102 0.3152
C62 C 0.7946(6) 1.2361(6) 0.1928(5)
C63 C 0.6885(7) 1.2295(8) 0.1727(6)
N8 N 0.6019(6) 1.2279(8) 0.1585(6)
C64 C 0.8937(6) 1.2523(6) 0.1382(5)
H55 H 0.9550 1.2569 0.1620
C65 C 0.6720(7) 1.2093(6) 0.4228(5)
H56 H 0.6047 1.1751 0.4578
H57 H 0.7398 1.1745 0.4497
C66 C 0.6561(9) 1.2992(6) 0.4249(6)
H58 H 0.6465 1.2912 0.4848
H59 H 0.7232 1.3329 0.3916
H60 H 0.5881 1.3336 0.3997
C67 C 0.9247(6) 1.2641(7) 0.0470(5)
C68 C 1.0347(7) 1.2881(7) 0.0061(5)
H61 H 1.0849 1.2984 0.0355
C69 C 1.0701(8) 1.2966(9) -0.0768(6)
H62 H 1.1447 1.3139 -0.1050
C70 C 0.9989(7) 1.2805(7) -0.1198(6)
H63 H 1.0260 1.2846 -0.1765
C71 C 0.8879(7) 1.2583(6) -0.0814(5)
C72 C 0.8529(7) 1.2493(7) 0.0030(5)
H64 H 0.7780 1.2326 0.0310
C73 C 0.8120(5) 1.2471(5) -0.1327(4)
C74 C 0.8552(4) 1.2025(5) -0.1859(4)
H65 H 0.9336 1.1809 -0.1911
C75 C 0.7836(5) 1.1896(5) -0.2317(4)
H66 H 0.8131 1.1591 -0.2680
C76 C 0.6688(5) 1.2213(5) -0.2241(4)
H67 H 0.6199 1.2124 -0.2554
C77 C 0.6257(4) 1.2659(5) -0.1709(5)
H68 H 0.5472 1.2875 -0.1657
C78 C 0.6972(5) 1.2788(5) -0.1251(4)
H69 H 0.6677 1.3093 -0.0887
C55? C 0.7817(14) 0.9630(16) 0.1587(16)
C56? C 0.6663(15) 0.9885(15) 0.1766(15)
H49? H 0.6422 1.0234 0.2095
C57? C 0.5863(12) 0.9630(16) 0.1463(15)
H50? H 0.5074 0.9804 0.1585
C58? C 0.6216(17) 0.9119(17) 0.0982(16)
H51? H 0.5669 0.8945 0.0775
C59? C 0.7369(19) 0.8864(16) 0.0803(16)
H52? H 0.7611 0.8515 0.0474
C60? C 0.8170(14) 0.9119(17) 0.1106(16)
H53? H 0.8958 0.8945 0.0984
C79? C 0.8039(18) 1.2210(17) -0.1133(12)
C80? C 0.736(2) 1.1491(16) -0.0608(11)
H70? H 0.7443 1.1151 -0.0017
C81? C 0.658(2) 1.1270(16) -0.0948(14)
H71? H 0.6115 1.0779 -0.0589
C82? C 0.646(2) 1.1768(19) -0.1813(15)
H72? H 0.5922 1.1617 -0.2045
C83? C 0.713(2) 1.2487(18) -0.2338(11)
H73? H 0.7056 1.2828 -0.2929
C84? C 0.792(2) 1.2708(16) -0.1998(12)
H74? H 0.8384 1.3200 -0.2357
loop_
_geom_bond_atom_site_label_1
_geom_bond_atom_site_label_2
_geom_bond_site_symmetry_1
_geom_bond_site_symmetry_2
C1 O1 1_555 1_555
N1 C1 1_555 1_555
H1 N1 1_555 1_555
C2 C1 1_555 1_555
C3 C2 1_555 1_555
N2 C3 1_555 1_555
C4 C2 1_555 1_555
H2 C4 1_555 1_555
C5 N1 1_555 1_555
H3 C5 1_555 1_555
H4 C5 1_555 1_555
C6 C5 1_555 1_555
H5 C6 1_555 1_555
H6 C6 1_555 1_555
H7 C6 1_555 1_555
C7 C4 1_555 1_555
C8 C7 1_555 1_555
H8 C8 1_555 1_555
C9 C8 1_555 1_555
H9 C9 1_555 1_555
C10 C9 1_555 1_555
H10 C10 1_555 1_555
C11 C10 1_555 1_555
C12 C7 1_555 1_555
H11 C12 1_555 1_555
C13 C11 1_555 1_555
C14 C13 1_555 1_555
H12 C14 1_555 1_555
C15 C14 1_555 1_555
H13 C15 1_555 1_555
C16 C15 1_555 1_555
H14 C16 1_555 1_555
C17 C16 1_555 1_555
H15 C17 1_555 1_555
C18 C13 1_555 1_555
H16 C18 1_555 1_555
C19 O2 1_555 1_555
N3 C19 1_555 1_555
H17 N3 1_555 1_555
C20 C19 1_555 1_555
C21 C20 1_555 1_555
N4 C21 1_555 1_555
C22 C20 1_555 1_555
H18 C22 1_555 1_555
C23 N3 1_555 1_555
H19 C23 1_555 1_555
H20 C23 1_555 1_555
C24 C23 1_555 1_555
H21 C24 1_555 1_555
H22 C24 1_555 1_555
H23 C24 1_555 1_555
C25 C22 1_555 1_555
C26 C25 1_555 1_555
H24 C26 1_555 1_555
C27 C26 1_555 1_555
H25 C27 1_555 1_555
C28 C27 1_555 1_555
H26 C28 1_555 1_555
C29 C28 1_555 1_555
C30 C25 1_555 1_555
H27 C30 1_555 1_555
C31 C29 1_555 1_555
C32 C31 1_555 1_555
H28 C32 1_555 1_555
C33 C32 1_555 1_555
H29 C33 1_555 1_555
C34 C33 1_555 1_555
H30 C34 1_555 1_555
C35 C34 1_555 1_555
H31 C35 1_555 1_555
C36 C31 1_555 1_555
H32 C36 1_555 1_555
C37 O3 1_555 1_555
N5 C37 1_555 1_555
H33 N5 1_555 1_555
C38 C37 1_555 1_555
C39 C38 1_555 1_555
N6 C39 1_555 1_555
C40 C38 1_555 1_555
H34 C40 1_555 1_555
C41 N5 1_555 1_555
H35 C41 1_555 1_555
H36 C41 1_555 1_555
C42 C41 1_555 1_555
H37 C42 1_555 1_555
H38 C42 1_555 1_555
H39 C42 1_555 1_555
C43 C40 1_555 1_555
C44 C43 1_555 1_555
H40 C44 1_555 1_555
C45 C44 1_555 1_555
H41 C45 1_555 1_555
C46 C45 1_555 1_555
H42 C46 1_555 1_555
C47 C46 1_555 1_555
C48 C43 1_555 1_555
H43 C48 1_555 1_555
C49 C47 1_555 1_555
C50 C49 1_555 1_555
H44 C50 1_555 1_555
C51 C50 1_555 1_555
H45 C51 1_555 1_555
C52 C51 1_555 1_555
H46 C52 1_555 1_555
C53 C52 1_555 1_555
H47 C53 1_555 1_555
C54 C49 1_555 1_555
H48 C54 1_555 1_555
C61 O4 1_555 1_555
N7 C61 1_555 1_555
H54 N7 1_555 1_555
C62 C61 1_555 1_555
C63 C62 1_555 1_555
N8 C63 1_555 1_555
C64 C62 1_555 1_555
H55 C64 1_555 1_555
C65 N7 1_555 1_555
H56 C65 1_555 1_555
H57 C65 1_555 1_555
C66 C65 1_555 1_555
H58 C66 1_555 1_555
H59 C66 1_555 1_555
H60 C66 1_555 1_555
C67 C64 1_555 1_555
C68 C67 1_555 1_555
H61 C68 1_555 1_555
C69 C68 1_555 1_555
H62 C69 1_555 1_555
C70 C69 1_555 1_555
H63 C70 1_555 1_555
C71 C70 1_555 1_555
C72 C67 1_555 1_555
H64 C72 1_555 1_555
C73 C71 1_555 1_555
C74 C73 1_555 1_555
H65 C74 1_555 1_555
C75 C74 1_555 1_555
H66 C75 1_555 1_555
C76 C75 1_555 1_555
H67 C76 1_555 1_555
C77 C76 1_555 1_555
H68 C77 1_555 1_555
C78 C73 1_555 1_555
H69 C78 1_555 1_555
C11 C12 1_555 1_555
C17 C18 1_555 1_555
C29 C30 1_555 1_555
C35 C36 1_555 1_555
C47 C48 1_555 1_555
C53 C54 1_555 1_555
C71 C72 1_555 1_555
C77 C78 1_555 1_555

#END
