
#######################################################################
#
#                 Cambridge Crystallographic Data Centre
#                                CCDC 
#
#######################################################################
#
# If this CIF has been generated from an entry in the Cambridge 
# Structural Database, then it will include bibliographic, chemical, 
# crystal, experimental, refinement or atomic coordinate data resulting 
# from the CCDC's data processing and validation procedures.
#
#######################################################################

data_JEKPAT
_chemical_formula_moiety         'C17 H14 N2 O1'
_chemical_name_systematic        2-cyano-3-(4'-methylbiphenyl-4-yl)acrylamide
_symmetry_cell_setting           triclinic
_symmetry_space_group_name_H-M   'P -1'
_symmetry_Int_Tables_number      2
_space_group_name_Hall           '-P 1'
loop_
_symmetry_equiv_pos_site_id
_symmetry_equiv_pos_as_xyz
1 x,y,z
2 -x,-y,-z
_cell_length_a                   9.8273(13)
_cell_length_b                   10.8890(17)
_cell_length_c                   13.5247(19)
_cell_angle_alpha                90.213(4)
_cell_angle_beta                 110.004(4)
_cell_angle_gamma                90.524(5)
_cell_volume                     1359.86
_exptl_crystal_colour            yellow
_exptl_crystal_description       parallelepiped
_cell_formula_units_Z            4
loop_
_atom_site_label
_atom_site_type_symbol
_atom_site_fract_x
_atom_site_fract_y
_atom_site_fract_z
O1 O 0.5174(2) 0.5515(2) 0.80206(19)
C1 C 0.3852(4) 0.5355(3) 0.7765(3)
N1 N 0.3070(4) 0.4711(3) 0.6920(2)
H1 H 0.359(4) 0.440(4) 0.652(3)
H2 H 0.207(5) 0.462(4) 0.672(3)
C2 C 0.3069(4) 0.5931(3) 0.8427(3)
N2 N 0.0266(3) 0.5790(3) 0.7705(3)
C3 C 0.1509(4) 0.5883(3) 0.8044(3)
C4 C 0.3850(4) 0.6455(3) 0.9349(3)
H3 H 0.4866 0.6363 0.9531
C5 C 0.3422(3) 0.7142(3) 1.0122(3)
C6 C 0.4486(4) 0.7386(3) 1.1090(3)
H4 H 0.5427 0.7059 1.1234
C7 C 0.4206(4) 0.8095(3) 1.1846(3)
H5 H 0.4948 0.8231 1.2506
C8 C 0.2847(3) 0.8614(3) 1.1651(2)
C9 C 0.1779(4) 0.8350(4) 1.0687(3)
H6 H 0.0837 0.8674 1.0543
C10 C 0.2052(4) 0.7631(4) 0.9938(3)
H7 H 0.1300 0.7467 0.9288
C11 C 0.2589(3) 0.9488(3) 1.2417(2)
C12 C 0.3328(4) 0.9399(3) 1.3489(3)
H8 H 0.3986 0.8746 1.3748
C13 C 0.3122(4) 1.0249(4) 1.4189(3)
H9 H 0.3635 1.0160 1.4920
C14 C 0.2192(4) 1.1218(3) 1.3849(3)
C15 C 0.1453(4) 1.1311(4) 1.2780(3)
H10 H 0.0807 1.1974 1.2526
C16 C 0.1631(4) 1.0460(3) 1.2071(3)
H11 H 0.1096 1.0540 1.1343
C17 C 0.1969(4) 1.2145(4) 1.4621(3)
H12 H 0.1094 1.2618 1.4272
H13 H 0.2808 1.2703 1.4864
H14 H 0.1862 1.1712 1.5224
O2 O 0.4916(2) 0.3852(2) 0.57822(19)
C18 C 0.6214(4) 0.4077(3) 0.5974(3)
N3 N 0.6988(3) 0.4801(3) 0.6786(2)
H15 H 0.653(5) 0.518(5) 0.736(4)
H16 H 0.813(4) 0.491(3) 0.693(3)
C19 C 0.6985(4) 0.3495(3) 0.5307(3)
N4 N 0.9732(3) 0.3878(3) 0.5862(2)
C20 C 0.8501(4) 0.3692(3) 0.5605(3)
C21 C 0.6215(4) 0.2795(3) 0.4484(3)
H17 H 0.5196 0.2824 0.4324
C22 C 0.6682(3) 0.1991(3) 0.3789(3)
C23 C 0.5676(4) 0.1628(3) 0.2834(3)
H18 H 0.4726 0.1953 0.2623
C24 C 0.6026(4) 0.0804(3) 0.2183(3)
H19 H 0.5316 0.0588 0.1527
C25 C 0.7387(3) 0.0284(3) 0.2464(3)
C26 C 0.8397(4) 0.0654(3) 0.3427(3)
H20 H 0.9339 0.0312 0.3646
C27 C 0.8068(4) 0.1499(3) 0.4068(3)
H21 H 0.8792 0.1750 0.4707
C28 C 0.7718(3) -0.0675(3) 0.1800(3)
C29 C 0.7095(4) -0.0671(3) 0.0711(3)
H22 H 0.6476 -0.0018 0.0377
C30 C 0.7359(4) -0.1604(4) 0.0102(3)
H23 H 0.6929 -0.1567 -0.0642
C31 C 0.8225(4) -0.2579(3) 0.0544(3)
C32 C 0.8862(4) -0.2583(3) 0.1628(3)
H24 H 0.9482 -0.3238 0.1956
C33 C 0.8615(4) -0.1655(3) 0.2242(3)
H25 H 0.9069 -0.1686 0.2984
C34 C 0.8474(4) -0.3598(4) -0.0130(3)
H26 H 0.9385 -0.4009 0.0251
H27 H 0.8527 -0.3255 -0.0785
H28 H 0.7672 -0.4194 -0.0294
loop_
_geom_bond_atom_site_label_1
_geom_bond_atom_site_label_2
_geom_bond_site_symmetry_1
_geom_bond_site_symmetry_2
O1 C1 1_555 1_555
C1 N1 1_555 1_555
N1 H1 1_555 1_555
H2 N1 1_555 1_555
C2 C1 1_555 1_555
N2 C3 1_555 1_555
C3 C2 1_555 1_555
C4 C2 1_555 1_555
H3 C4 1_555 1_555
C5 C4 1_555 1_555
C6 C5 1_555 1_555
H4 C6 1_555 1_555
C7 C6 1_555 1_555
H5 C7 1_555 1_555
C8 C7 1_555 1_555
C9 C8 1_555 1_555
H6 C9 1_555 1_555
C10 C5 1_555 1_555
H7 C10 1_555 1_555
C11 C8 1_555 1_555
C12 C11 1_555 1_555
H8 C12 1_555 1_555
C13 C12 1_555 1_555
H9 C13 1_555 1_555
C14 C13 1_555 1_555
C15 C14 1_555 1_555
H10 C15 1_555 1_555
C16 C11 1_555 1_555
H11 C16 1_555 1_555
C17 C14 1_555 1_555
H12 C17 1_555 1_555
H13 C17 1_555 1_555
H14 C17 1_555 1_555
O2 C18 1_555 1_555
C18 N3 1_555 1_555
N3 H15 1_555 1_555
H16 N3 1_555 1_555
C19 C18 1_555 1_555
N4 C20 1_555 1_555
C20 C19 1_555 1_555
C21 C19 1_555 1_555
H17 C21 1_555 1_555
C22 C21 1_555 1_555
C23 C22 1_555 1_555
H18 C23 1_555 1_555
C24 C23 1_555 1_555
H19 C24 1_555 1_555
C25 C24 1_555 1_555
C26 C25 1_555 1_555
H20 C26 1_555 1_555
C27 C22 1_555 1_555
H21 C27 1_555 1_555
C28 C25 1_555 1_555
C29 C28 1_555 1_555
H22 C29 1_555 1_555
C30 C29 1_555 1_555
H23 C30 1_555 1_555
C31 C30 1_555 1_555
C32 C31 1_555 1_555
H24 C32 1_555 1_555
C33 C28 1_555 1_555
H25 C33 1_555 1_555
C34 C31 1_555 1_555
H26 C34 1_555 1_555
H27 C34 1_555 1_555
H28 C34 1_555 1_555
C9 C10 1_555 1_555
C15 C16 1_555 1_555
C26 C27 1_555 1_555
C32 C33 1_555 1_555

#END
