
#######################################################################
#
#                 Cambridge Crystallographic Data Centre
#                                CCDC 
#
#######################################################################
#
# If this CIF has been generated from an entry in the Cambridge 
# Structural Database, then it will include bibliographic, chemical, 
# crystal, experimental, refinement or atomic coordinate data resulting 
# from the CCDC's data processing and validation procedures.
#
#######################################################################

data_JEKRIB
_chemical_formula_moiety         'C15 H22 N1 O3 P1'
_chemical_name_systematic        
"2-ethoxy-4H-spiro[1,4,2-benzoxazaphosphinine-3,1'-cycloheptane] 2-oxide"
_symmetry_cell_setting           orthorhombic
_symmetry_space_group_name_H-M   'P 21 21 21'
_symmetry_Int_Tables_number      19
_space_group_name_Hall           'P 2ac 2ab'
loop_
_symmetry_equiv_pos_site_id
_symmetry_equiv_pos_as_xyz
1 x,y,z
2 1/2-x,-y,1/2+z
3 -x,1/2+y,1/2-z
4 1/2+x,1/2-y,-z
_cell_length_a                   8.9840(12)
_cell_length_b                   9.2978(12)
_cell_length_c                   37.205(5)
_cell_angle_alpha                90
_cell_angle_beta                 90
_cell_angle_gamma                90
_cell_volume                     3107.79
_chemical_melting_point          '87-89 deg.C'
_cell_formula_units_Z            8
loop_
_atom_site_label
_atom_site_type_symbol
_atom_site_fract_x
_atom_site_fract_y
_atom_site_fract_z
P1 P 0.92765(9) 0.10850(9) 0.05645(2)
N1 N 0.7437(3) 0.2831(3) 0.02809(7)
H1 H 0.682(4) 0.310(4) 0.0135(9)
O1 O 0.9192(3) 0.2223(2) 0.08840(6)
O2 O 1.0562(2) 0.1274(3) 0.03314(6)
O3 O 0.9247(2) -0.0374(2) 0.07727(6)
C1 C 0.7564(3) 0.3827(3) 0.05572(8)
C2 C 0.8439(4) 0.3536(4) 0.08531(9)
C3 C 0.8620(5) 0.4495(4) 0.11285(10)
H3 H 0.9206 0.4259 0.1326
C4 C 0.7925(5) 0.5818(4) 0.11100(12)
H4 H 0.8043 0.6479 0.1295
C5 C 0.7057(5) 0.6158(4) 0.08168(12)
H5 H 0.6601 0.7054 0.0803
C6 C 0.6864(4) 0.5173(4) 0.05443(11)
H6 H 0.6261 0.5403 0.0349
C7 C 0.7469(3) 0.1282(3) 0.03562(8)
C8 C 0.7442(4) 0.0503(4) -0.00077(8)
H7 H 0.6804 0.1045 -0.0169
H8 H 0.8440 0.0531 -0.0107
C9 C 0.6932(4) -0.1017(4) -0.00096(10)
H9 H 0.7286 -0.1479 0.0208
H10 H 0.7391 -0.1504 -0.0212
C10 C 0.5255(4) -0.1223(5) -0.00333(11)
H11 H 0.5061 -0.2236 -0.0074
H12 H 0.4900 -0.0705 -0.0243
C11 C 0.4333(4) -0.0746(4) 0.02886(11)
H13 H 0.3292 -0.0764 0.0220
H14 H 0.4463 -0.1449 0.0479
C12 C 0.4676(4) 0.0730(4) 0.04416(10)
H15 H 0.3934 0.0968 0.0621
H16 H 0.4607 0.1437 0.0251
C13 C 0.6222(4) 0.0818(4) 0.06122(8)
H17 H 0.6471 -0.0118 0.0711
H18 H 0.6183 0.1493 0.0811
C14 C 1.0559(5) -0.1211(5) 0.08427(11)
H19 H 1.1216 -0.1169 0.0640
H20 H 1.0287 -0.2197 0.0883
C15 C 1.1267(13) -0.0730(19) 0.1176(3)
H23 H 1.1737 0.0184 0.1137
H24 H 1.2001 -0.1421 0.1249
H25 H 1.0527 -0.0636 0.1361
P2 P 0.36045(11) 0.35133(10) 0.19377(2)
N2 N 0.3938(3) 0.1752(3) 0.24602(7)
H2 H 0.437(4) 0.129(4) 0.2595(9)
O4 O 0.1907(3) 0.3356(3) 0.20474(7)
O5 O 0.4322(3) 0.4798(3) 0.20752(7)
O6 O 0.3466(3) 0.3474(3) 0.15210(6)
C17 C 0.2446(4) 0.1843(3) 0.25606(8)
C18 C 0.1452(4) 0.2650(4) 0.23638(9)
C19 C -0.0004(5) 0.2786(5) 0.24585(13)
H29 H -0.0645 0.3335 0.2318
C20 C -0.0523(5) 0.2116(5) 0.27602(12)
H30 H -0.1520 0.2192 0.2825
C21 C 0.0446(5) 0.1326(5) 0.29678(11)
H31 H 0.0105 0.0878 0.3176
C22 C 0.1916(4) 0.1196(4) 0.28696(9)
H32 H 0.2562 0.0665 0.3013
C23 C 0.4368(4) 0.1803(4) 0.20809(8)
C24 C 0.3680(4) 0.0567(3) 0.18609(9)
H33 H 0.2650 0.0457 0.1934
H34 H 0.3680 0.0846 0.1610
C25 C 0.4446(5) -0.0897(4) 0.18929(11)
H35 H 0.4874 -0.0990 0.2131
H36 H 0.3711 -0.1652 0.1864
C26 C 0.5649(6) -0.1084(5) 0.16170(13)
H37 H 0.5238 -0.0848 0.1383
H38 H 0.5929 -0.2092 0.1612
C27 C 0.7035(5) -0.0206(5) 0.16711(13)
H39 H 0.7681 -0.0355 0.1465
H40 H 0.7551 -0.0575 0.1881
C28 C 0.6817(5) 0.1413(6) 0.17206(11)
H41 H 0.7782 0.1879 0.1707
H42 H 0.6220 0.1773 0.1523
C29 C 0.6075(4) 0.1839(5) 0.20721(10)
H43 H 0.6394 0.2807 0.2132
H44 H 0.6442 0.1206 0.2259
C30 C 0.3761(18) 0.4758(10) 0.1321(2)
H45 H 0.4825 0.4890 0.1292
H46 H 0.3362 0.5588 0.1446
C31 C 0.3022(11) 0.4596(13) 0.0958(2)
H47 H 0.3043 0.5500 0.0834
H48 H 0.2008 0.4297 0.0991
H49 H 0.3545 0.3886 0.0820
H21? H 1.1363 -0.0847 0.0699
H22? H 1.0365 -0.2181 0.0767
C16? C 1.090(5) -0.142(7) 0.1240(4)
H26? H 1.0485 -0.2317 0.1320
H27? H 1.0467 -0.0646 0.1375
H28? H 1.1956 -0.1428 0.1276
C32? C 0.411(3) 0.431(2) 0.1234(6)
H50? H 0.4296 0.3709 0.1025
H51? H 0.5032 0.4749 0.1309
C33? C 0.294(2) 0.545(2) 0.1148(5)
H52? H 0.3349 0.6131 0.0981
H53? H 0.2661 0.5937 0.1365
H54? H 0.2082 0.5000 0.1044
loop_
_geom_bond_atom_site_label_1
_geom_bond_atom_site_label_2
_geom_bond_site_symmetry_1
_geom_bond_site_symmetry_2
P1 O1 1_555 1_555
P2 O4 1_555 1_555
N1 H1 1_555 1_555
N2 H2 1_555 1_555
O1 C2 1_555 1_555
O2 P1 1_555 1_555
O3 P1 1_555 1_555
O4 C18 1_555 1_555
O5 P2 1_555 1_555
O6 P2 1_555 1_555
C1 N1 1_555 1_555
C2 C1 1_555 1_555
C3 C2 1_555 1_555
H3 C3 1_555 1_555
C4 C3 1_555 1_555
H4 C4 1_555 1_555
C5 C4 1_555 1_555
H5 C5 1_555 1_555
C6 C1 1_555 1_555
H6 C6 1_555 1_555
C7 P1 1_555 1_555
C8 C7 1_555 1_555
H7 C8 1_555 1_555
H8 C8 1_555 1_555
C9 C8 1_555 1_555
H9 C9 1_555 1_555
H10 C9 1_555 1_555
C10 C9 1_555 1_555
H11 C10 1_555 1_555
H12 C10 1_555 1_555
C11 C10 1_555 1_555
H13 C11 1_555 1_555
H14 C11 1_555 1_555
C12 C11 1_555 1_555
H15 C12 1_555 1_555
H16 C12 1_555 1_555
C13 C7 1_555 1_555
H17 C13 1_555 1_555
H18 C13 1_555 1_555
C14 O3 1_555 1_555
H19 C14 1_555 1_555
H20 C14 1_555 1_555
C15 C14 1_555 1_555
H23 C15 1_555 1_555
H24 C15 1_555 1_555
H25 C15 1_555 1_555
C17 N2 1_555 1_555
C18 C17 1_555 1_555
C19 C18 1_555 1_555
H29 C19 1_555 1_555
C20 C19 1_555 1_555
H30 C20 1_555 1_555
C21 C20 1_555 1_555
H31 C21 1_555 1_555
C22 C17 1_555 1_555
H32 C22 1_555 1_555
C23 P2 1_555 1_555
C24 C23 1_555 1_555
H33 C24 1_555 1_555
H34 C24 1_555 1_555
C25 C24 1_555 1_555
H35 C25 1_555 1_555
H36 C25 1_555 1_555
C26 C25 1_555 1_555
H37 C26 1_555 1_555
H38 C26 1_555 1_555
C27 C26 1_555 1_555
H39 C27 1_555 1_555
H40 C27 1_555 1_555
C28 C27 1_555 1_555
H41 C28 1_555 1_555
H42 C28 1_555 1_555
C29 C23 1_555 1_555
H43 C29 1_555 1_555
H44 C29 1_555 1_555
C30 O6 1_555 1_555
H45 C30 1_555 1_555
H46 C30 1_555 1_555
C31 C30 1_555 1_555
H47 C31 1_555 1_555
H48 C31 1_555 1_555
H49 C31 1_555 1_555
N1 C7 1_555 1_555
N2 C23 1_555 1_555
C5 C6 1_555 1_555
C12 C13 1_555 1_555
C21 C22 1_555 1_555
C28 C29 1_555 1_555

#END
