
#######################################################################
#
#                 Cambridge Crystallographic Data Centre
#                                CCDC 
#
#######################################################################
#
# If this CIF has been generated from an entry in the Cambridge 
# Structural Database, then it will include bibliographic, chemical, 
# crystal, experimental, refinement or atomic coordinate data resulting 
# from the CCDC's data processing and validation procedures.
#
#######################################################################

data_JEKTIF
_chemical_name_common            'Truxillic acid'
_chemical_formula_moiety         'C18 H16 O4'
_chemical_name_systematic        
'trans-2,4-diphenylcyclobutane-1,3-dicarboxylic acid'
_symmetry_cell_setting           monoclinic
_symmetry_space_group_name_H-M   'C 2/c'
_symmetry_Int_Tables_number      15
_space_group_name_Hall           '-C 2yn'
loop_
_symmetry_equiv_pos_site_id
_symmetry_equiv_pos_as_xyz
1 x,y,z
2 -x,y,1/2-z
3 1/2+x,1/2+y,z
4 1/2-x,1/2+y,1/2-z
5 -x,-y,-z
6 x,-y,1/2+z
7 1/2-x,1/2-y,-z
8 1/2+x,1/2-y,1/2+z
_cell_length_a                   15.7822(6)
_cell_length_b                   5.6013(2)
_cell_length_c                   16.2750(5)
_cell_angle_alpha                90
_cell_angle_beta                 99.255(3)
_cell_angle_gamma                90
_cell_volume                     1419.99
_exptl_crystal_colour            colorless
_exptl_crystal_description       block
_cell_formula_units_Z            4
loop_
_atom_site_label
_atom_site_type_symbol
_atom_site_fract_x
_atom_site_fract_y
_atom_site_fract_z
C1 C 0.0281(2) 0.2637(6) 0.1913(2)
C2 C 0.0499(2) 0.2563(6) 0.26006(19)
C3 C 0.1380(3) 0.2490(8) 0.3095(2)
C4 C 0.1690(6) 0.4404(18) 0.3630(7)
H1 H 0.1334 0.5706 0.3676
C5 C 0.2507(6) 0.4376(13) 0.4084(4)
H2 H 0.2697 0.5659 0.4427
C6 C 0.3043(11) 0.246(2) 0.4032(9)
H3 H 0.3588 0.2434 0.4350
C7 C 0.2767(5) 0.0594(12) 0.3510(4)
H4 H 0.3130 -0.0695 0.3473
C8 C 0.1955(4) 0.0609(8) 0.3038(3)
H5 H 0.1787 -0.0652 0.2676
C9 C 0.0111(4) 0.1533(19) 0.1067(4)
O1 O 0.0283(2) 0.2932(8) 0.0468(2)
H6 H 0.0190 0.2213 0.0023
O2 O -0.0145(3) -0.0524(11) 0.0958(3)
C1A C -0.0281(2) 0.2637(6) 0.3087(2)
C2A C -0.0499(2) 0.2563(6) 0.23994(19)
C3A C -0.1380(3) 0.2490(8) 0.1905(2)
C4A C -0.1690(6) 0.4404(18) 0.1370(7)
H1A H -0.1334 0.5706 0.1324
C5A C -0.2507(6) 0.4376(13) 0.0916(4)
H2A H -0.2697 0.5659 0.0573
C6A C -0.3043(11) 0.246(2) 0.0968(9)
H3A H -0.3588 0.2434 0.0650
C7A C -0.2767(5) 0.0594(12) 0.1490(4)
H4A H -0.3130 -0.0695 0.1527
C8A C -0.1955(4) 0.0609(8) 0.1962(3)
H5A H -0.1787 -0.0652 0.2324
C9A C -0.0111(4) 0.1533(19) 0.3933(4)
O1A O -0.0283(2) 0.2932(8) 0.4532(2)
H6A H -0.0190 0.2213 0.4977
O2A O 0.0145(3) -0.0524(11) 0.4042(3)
C10? C 0.0777(2) 0.0883(6) 0.25616(19)
H7? H 0.0983 -0.0767 0.2625
C11? C 0.0096(2) 0.0384(6) 0.2118(2)
H8? H 0.0116 -0.1340 0.2222
C12? C 0.1524(3) 0.1949(9) 0.3159(3)
C13? C 0.1415(5) 0.4141(19) 0.3552(7)
H9? H 0.0889 0.4927 0.3452
C14? C 0.2106(5) 0.5129(11) 0.4096(4)
H10? H 0.2046 0.6595 0.4349
C15? C 0.2880(5) 0.3905(19) 0.4253(5)
H11? H 0.3334 0.4525 0.4628
C16? C 0.2978(10) 0.177(3) 0.3855(8)
H12? H 0.3503 0.0980 0.3951
C17? C 0.2301(5) 0.0801(10) 0.3316(4)
H13? H 0.2372 -0.0648 0.3057
C18? C 0.0072(4) 0.0261(18) 0.1195(4)
O3? O -0.0272(2) -0.1717(8) 0.0864(2)
H14? H -0.0292 -0.1672 0.0357
O4? O 0.0322(3) 0.1882(10) 0.0788(3)
H15? H 0.055(2) 0.394(7) 0.218(2)
H16? H 0.0328 0.4340 0.1788
loop_
_geom_bond_atom_site_label_1
_geom_bond_atom_site_label_2
_geom_bond_site_symmetry_1
_geom_bond_site_symmetry_2
C1 C2 1_555 1_555
C2 C3 1_555 1_555
C3 C4 1_555 1_555
C4 H1 1_555 1_555
C5 C4 1_555 1_555
H2 C5 1_555 1_555
C6 C5 1_555 1_555
H3 C6 1_555 1_555
C7 C6 1_555 1_555
H4 C7 1_555 1_555
C8 C3 1_555 1_555
H5 C8 1_555 1_555
C9 C1 1_555 1_555
O1 C9 1_555 1_555
H6 O1 1_555 1_555
O2 C9 1_555 1_555
C1A C2 1_555 1_555
C2A C1 1_555 1_555
C3A C2A 1_555 1_555
C4A C3A 1_555 1_555
H1A C4A 1_555 1_555
C5A C4A 1_555 1_555
H2A C5A 1_555 1_555
C6A C5A 1_555 1_555
H3A C6A 1_555 1_555
C7A C6A 1_555 1_555
H4A C7A 1_555 1_555
C8A C3A 1_555 1_555
H5A C8A 1_555 1_555
C9A C1A 1_555 1_555
O1A C9A 1_555 1_555
H6A O1A 1_555 1_555
O2A C9A 1_555 1_555
C7 C8 1_555 1_555
C1A C2A 1_555 1_555
C7A C8A 1_555 1_555

#END
