
#######################################################################
#
#                 Cambridge Crystallographic Data Centre
#                                CCDC 
#
#######################################################################
#
# If this CIF has been generated from an entry in the Cambridge 
# Structural Database, then it will include bibliographic, chemical, 
# crystal, experimental, refinement or atomic coordinate data resulting 
# from the CCDC's data processing and validation procedures.
#
#######################################################################

data_JEKZUV
_chemical_formula_moiety         'C20 H22 O5'
_chemical_name_systematic        
'ethyl 3-(benzoyloxy)-5-ethyl-6-hydroxy-2,4-dimethylbenzoate'
_symmetry_cell_setting           monoclinic
_symmetry_space_group_name_H-M   'P 21/c'
_symmetry_Int_Tables_number      14
_space_group_name_Hall           '-P 2ybc'
loop_
_symmetry_equiv_pos_site_id
_symmetry_equiv_pos_as_xyz
1 x,y,z
2 -x,1/2+y,1/2-z
3 -x,-y,-z
4 x,1/2-y,1/2+z
_cell_length_a                   13.527(3)
_cell_length_b                   13.270(3)
_cell_length_c                   10.082(2)
_cell_angle_alpha                90
_cell_angle_beta                 98.76(3)
_cell_angle_gamma                90
_cell_volume                     1788.64
_exptl_crystal_colour            colorless
_exptl_crystal_description       prism
_chemical_melting_point          '89 deg.C'
_cell_formula_units_Z            4
loop_
_atom_site_label
_atom_site_type_symbol
_atom_site_fract_x
_atom_site_fract_y
_atom_site_fract_z
O1 O 0.45017(14) -0.23018(13) 0.6245(2)
O2 O 0.46490(11) -0.08288(12) 0.72866(16)
O3 O 0.86854(13) 0.03973(11) 0.72312(16)
O4 O 0.75781(11) 0.08350(10) 0.54410(14)
O5 O 0.58038(13) -0.28779(12) 0.4891(2)
H1 H 0.5299 -0.2910 0.5282
C1 C 0.58443(15) -0.12240(15) 0.5881(2)
C2 C 0.62288(17) -0.19613(15) 0.5092(2)
C3 C 0.70823(18) -0.17975(16) 0.4483(2)
C4 C 0.75454(17) -0.08646(16) 0.4641(2)
C5 C 0.71416(16) -0.01353(15) 0.54033(19)
C6 C 0.63234(15) -0.02705(14) 0.6055(2)
C7 C 0.83516(15) 0.10224(15) 0.64250(19)
C8 C 0.87218(15) 0.20663(15) 0.63696(19)
C9 C 0.83176(18) 0.27395(16) 0.5388(2)
H2 H 0.7783 0.2537 0.4719
C10 C 0.86936(19) 0.37089(17) 0.5382(2)
H3 H 0.8420 0.4170 0.4703
C11 C 0.94614(19) 0.40059(18) 0.6354(3)
H4 H 0.9719 0.4671 0.6342
C12 C 0.98595(19) 0.33457(19) 0.7343(3)
H5 H 1.0383 0.3558 0.8022
C13 C 0.94956(17) 0.23717(18) 0.7348(2)
H6 H 0.9777 0.1911 0.8023
C14 C 0.8458(2) -0.0627(2) 0.4018(2)
H7 H 0.8672 0.0065 0.4242
H8 H 0.8299 -0.0697 0.3041
H9 H 0.8997 -0.1095 0.4363
C15 C 0.60197(18) 0.05749(16) 0.6900(2)
H10 H 0.5430 0.0372 0.7292
H11 H 0.5859 0.1173 0.6339
H12 H 0.6571 0.0730 0.7619
C16 C 0.49510(17) -0.15024(17) 0.6478(2)
C17 C 0.37710(18) -0.1072(2) 0.7895(3)
H13 H 0.3879 -0.1701 0.8424
H14 H 0.3178 -0.1160 0.7197
C18 C 0.3625(2) -0.0203(3) 0.8783(3)
H15 H 0.3037 -0.0325 0.9221
H16 H 0.3523 0.0414 0.8244
H17 H 0.4218 -0.0126 0.9466
C19 C 0.7468(2) -0.26572(19) 0.3739(2)
H18 H 0.7830 -0.2385 0.3035
H19 H 0.6895 -0.3057 0.3290
C20 C 0.8163(2) -0.33400(19) 0.4658(3)
H20 H 0.8396 -0.3888 0.4132
H21 H 0.7804 -0.3623 0.5345
H22 H 0.8738 -0.2950 0.5091
loop_
_geom_bond_atom_site_label_1
_geom_bond_atom_site_label_2
_geom_bond_site_symmetry_1
_geom_bond_site_symmetry_2
O1 C16 1_555 1_555
O2 C16 1_555 1_555
O3 C7 1_555 1_555
O4 C5 1_555 1_555
O5 H1 1_555 1_555
C1 C2 1_555 1_555
C2 O5 1_555 1_555
C3 C2 1_555 1_555
C4 C3 1_555 1_555
C5 C4 1_555 1_555
C6 C1 1_555 1_555
C7 O4 1_555 1_555
C8 C7 1_555 1_555
C9 C8 1_555 1_555
H2 C9 1_555 1_555
C10 C9 1_555 1_555
H3 C10 1_555 1_555
C11 C10 1_555 1_555
H4 C11 1_555 1_555
C12 C11 1_555 1_555
H5 C12 1_555 1_555
C13 C8 1_555 1_555
H6 C13 1_555 1_555
C14 C4 1_555 1_555
H7 C14 1_555 1_555
H8 C14 1_555 1_555
H9 C14 1_555 1_555
C15 C6 1_555 1_555
H10 C15 1_555 1_555
H11 C15 1_555 1_555
H12 C15 1_555 1_555
C16 C1 1_555 1_555
C17 O2 1_555 1_555
H13 C17 1_555 1_555
H14 C17 1_555 1_555
C18 C17 1_555 1_555
H15 C18 1_555 1_555
H16 C18 1_555 1_555
H17 C18 1_555 1_555
C19 C3 1_555 1_555
H18 C19 1_555 1_555
H19 C19 1_555 1_555
C20 C19 1_555 1_555
H20 C20 1_555 1_555
H21 C20 1_555 1_555
H22 C20 1_555 1_555
C5 C6 1_555 1_555
C12 C13 1_555 1_555

#END
