
#######################################################################
#
#                 Cambridge Crystallographic Data Centre
#                                CCDC 
#
#######################################################################
#
# If this CIF has been generated from an entry in the Cambridge 
# Structural Database, then it will include bibliographic, chemical, 
# crystal, experimental, refinement or atomic coordinate data resulting 
# from the CCDC's data processing and validation procedures.
#
#######################################################################

data_JELWUS
_chemical_compound_source        'Stem bark of Goniothalamus giganteus Hook'
_chemical_formula_moiety         'C13 H14 O5'
_chemical_name_systematic        (-)-Goniofufurone
_symmetry_cell_setting           orthorhombic
_symmetry_space_group_name_H-M   'P 21 21 21'
_symmetry_Int_Tables_number      19
_space_group_name_Hall           'P 2ac 2ab'
loop_
_symmetry_equiv_pos_site_id
_symmetry_equiv_pos_as_xyz
1 x,y,z
2 1/2+x,1/2-y,-z
3 -x,1/2+y,1/2-z
4 1/2-x,-y,1/2+z
_cell_length_a                   6.047(1)
_cell_length_b                   8.027(1)
_cell_length_c                   24.625(2)
_cell_angle_alpha                90
_cell_angle_beta                 90
_cell_angle_gamma                90
_cell_volume                     1195.28
_exptl_crystal_colour            colorless
_chemical_melting_point          152-154deg.C
_cell_formula_units_Z            4
loop_
_atom_site_label
_atom_site_type_symbol
_atom_site_fract_x
_atom_site_fract_y
_atom_site_fract_z
O1 O 0.3965(3) 1.1391(2) 0.57284(7)
O2 O 0.1274(4) 1.3084(2) 0.54717(8)
O3 O 0.6334(3) 0.7367(3) 0.60168(8)
O4 O 0.3193(4) 0.5154(2) 0.62708(7)
O5 O 0.1952(3) 0.7775(2) 0.55386(7)
C1 C 0.2208(5) 1.1765(3) 0.5420(1)
C2 C 0.1711(5) 1.0387(3) 0.5032(1)
C3 C 0.3146(5) 0.8950(3) 0.5215(1)
C4 C 0.4827(4) 0.9746(3) 0.5599(1)
C5 C 0.4781(4) 0.8668(3) 0.6103(1)
C6 C 0.2399(4) 0.8082(3) 0.6098(1)
C7 C 0.1820(5) 0.6526(3) 0.6423(1)
C8 C 0.2048(5) 0.6862(3) 0.7024(1)
C9 C 0.4001(5) 0.6527(4) 0.7296(1)
C10 C 0.4201(6) 0.6900(5) 0.7843(1)
C11 C 0.2468(7) 0.7561(4) 0.8118(1)
C12 C 0.0549(7) 0.7891(5) 0.7858(1)
C13 C 0.0327(6) 0.7557(4) 0.7307(1)
H1 H 0.20568 1.07040 0.46693
H2 H 0.02017 1.00812 0.50493
H3 H 0.37461 0.84048 0.49001
H4 H 0.62837 0.98055 0.54460
H5 H 0.51617 0.91801 0.64451
H6 H 0.15297 0.89281 0.62677
H7 H 0.03211 0.62331 0.63375
H8 H 0.58203 0.625 0.60938
H9 H 0.29297 0.45898 0.59570
H10 H 0.52140 0.60216 0.71018
H11 H 0.55829 0.67061 0.80252
H12 H 0.25880 0.77762 0.84981
H13 H -0.06325 0.83850 0.80553
H14 H -0.10252 0.78137 0.71225
loop_
_geom_bond_atom_site_label_1
_geom_bond_atom_site_label_2
_geom_bond_site_symmetry_1
_geom_bond_site_symmetry_2
O1 C1 1_555 1_555
O2 C1 1_555 1_555
O3 C5 1_555 1_555
O4 C7 1_555 1_555
O5 C3 1_555 1_555
C1 C2 1_555 1_555
C2 C3 1_555 1_555
C3 C4 1_555 1_555
C4 O1 1_555 1_555
C5 C4 1_555 1_555
C6 O5 1_555 1_555
C7 C6 1_555 1_555
C8 C7 1_555 1_555
C9 C8 1_555 1_555
C10 C9 1_555 1_555
C11 C10 1_555 1_555
C12 C11 1_555 1_555
C13 C8 1_555 1_555
H1 C2 1_555 1_555
H2 C2 1_555 1_555
H3 C3 1_555 1_555
H4 C4 1_555 1_555
H5 C5 1_555 1_555
H6 C6 1_555 1_555
H7 C7 1_555 1_555
H8 O3 1_555 1_555
H9 O4 1_555 1_555
H10 C9 1_555 1_555
H11 C10 1_555 1_555
H12 C11 1_555 1_555
H13 C12 1_555 1_555
H14 C13 1_555 1_555
C5 C6 1_555 1_555
C12 C13 1_555 1_555

#END
