
#######################################################################
#
#                 Cambridge Crystallographic Data Centre
#                                CCDC 
#
#######################################################################
#
# If this CIF has been generated from an entry in the Cambridge 
# Structural Database, then it will include bibliographic, chemical, 
# crystal, experimental, refinement or atomic coordinate data resulting 
# from the CCDC's data processing and validation procedures.
#
#######################################################################

data_JELWOM
_chemical_compound_source        'Stem bark of Goniothalamus giganteus Hook'
_chemical_name_common            (+)-Goniopypyrone
_chemical_formula_moiety         'C13 H14 O5'
_chemical_name_systematic        
8,9-Dihydroxy-7-phenyl-2,6-dioxabicyclo(3.3.1)nonan-3-one
_chemical_properties_biological  'activity against human tumour cells'
_symmetry_cell_setting           trigonal
_symmetry_space_group_name_H-M   'P 31'
_symmetry_Int_Tables_number      144
_space_group_name_Hall           'P 31'
loop_
_symmetry_equiv_pos_site_id
_symmetry_equiv_pos_as_xyz
1 x,y,z
2 -y,x-y,1/3+z
3 -x+y,-x,2/3+z
_cell_length_a                   12.642(1)
_cell_length_b                   12.642(1)
_cell_length_c                   6.291(1)
_cell_angle_alpha                90
_cell_angle_beta                 90
_cell_angle_gamma                120
_cell_volume                     870.727
_exptl_crystal_colour            colorless
_chemical_melting_point          182-184deg.C
_cell_formula_units_Z            3
loop_
_atom_site_label
_atom_site_type_symbol
_atom_site_fract_x
_atom_site_fract_y
_atom_site_fract_z
O1 O 0.0671(1) 0.3660(1) 0.4633(3)
O2 O 0.1626(2) 0.5647(2) 0.4851(4)
O3 O 0.0540(1) 0.1606(1) 0.0347(2)
O4 O 0.1103(1) 0.1053(1) 0.4116(2)
O5 O 0.2923(1) 0.3374(1) 0.21200
C1 C 0.1515(2) 0.4780(2) 0.3913(5)
C2 C 0.2211(2) 0.4874(2) 0.1930(5)
C3 C 0.2119(2) 0.3707(2) 0.1102(4)
C4 C 0.0804(2) 0.2715(2) 0.1346(3)
C5 C 0.0549(2) 0.2558(2) 0.3705(3)
C6 C 0.1410(2) 0.2235(2) 0.4845(3)
C7 C 0.2744(2) 0.3173(2) 0.4374(3)
C8 C 0.3593(2) 0.2754(2) 0.5163(3)
C9 C 0.3883(2) 0.2022(2) 0.3946(4)
C10 C 0.4622(2) 0.1604(2) 0.4731(4)
C11 C 0.5077(2) 0.1898(2) 0.6769(5)
C12 C 0.4802(2) 0.2628(2) 0.7996(4)
C13 C 0.4077(2) 0.3059(2) 0.7212(4)
H1 H 0.08203 0.125 0.08203
H2 H 0.125 0.0625 0.54036
H3 H 0.30522 0.54391 0.21561
H4 H 0.19175 0.51768 0.08125
H5 H 0.24034 0.38486 -0.03471
H6 H 0.02733 0.29490 0.06367
H7 H -0.02668 0.19093 0.38622
H8 H 0.13486 0.22470 0.63329
H9 H 0.29065 0.39124 0.50475
H10 H 0.35499 0.17933 0.25430
H11 H 0.47950 0.10911 0.38223
H12 H 0.56188 0.16303 0.72733
H13 H 0.50886 0.27962 0.94361
H14 H 0.39202 0.35943 0.80450
loop_
_geom_bond_atom_site_label_1
_geom_bond_atom_site_label_2
_geom_bond_site_symmetry_1
_geom_bond_site_symmetry_2
O1 C1 1_555 1_555
O2 C1 1_555 1_555
O3 C4 1_555 1_555
O4 C6 1_555 1_555
O5 C3 1_555 1_555
C1 C2 1_555 1_555
C2 C3 1_555 1_555
C3 C4 1_555 1_555
C4 C5 1_555 1_555
C5 O1 1_555 1_555
C6 C5 1_555 1_555
C7 O5 1_555 1_555
C8 C7 1_555 1_555
C9 C8 1_555 1_555
C10 C9 1_555 1_555
C11 C10 1_555 1_555
C12 C11 1_555 1_555
C13 C8 1_555 1_555
H1 O3 1_555 1_555
H2 O4 1_555 1_555
H3 C2 1_555 1_555
H4 C2 1_555 1_555
H5 C3 1_555 1_555
H6 C4 1_555 1_555
H7 C5 1_555 1_555
H8 C6 1_555 1_555
H9 C7 1_555 1_555
H10 C9 1_555 1_555
H11 C10 1_555 1_555
H12 C11 1_555 1_555
H13 C12 1_555 1_555
H14 C13 1_555 1_555
C6 C7 1_555 1_555
C12 C13 1_555 1_555

#END
