
#######################################################################
#
#                 Cambridge Crystallographic Data Centre
#                                CCDC 
#
#######################################################################
#
# If this CIF has been generated from an entry in the Cambridge 
# Structural Database, then it will include bibliographic, chemical, 
# crystal, experimental, refinement or atomic coordinate data resulting 
# from the CCDC's data processing and validation procedures.
#
#######################################################################

data_JEMBIN
_chemical_formula_moiety         'C44 H78 Na2 O4'
_chemical_name_systematic        
'bis(\m~2~-2,4,6-Tri-t-butylphenoxo)-bis(diethyl ether)-di-sodium'
_symmetry_cell_setting           triclinic
_symmetry_space_group_name_H-M   'P -1'
_symmetry_Int_Tables_number      2
_space_group_name_Hall           '-P 1'
loop_
_symmetry_equiv_pos_site_id
_symmetry_equiv_pos_as_xyz
1 x,y,z
2 -x,-y,-z
_cell_length_a                   9.6500(19)
_cell_length_b                   9.768(2)
_cell_length_c                   12.695(3)
_cell_angle_alpha                102.421(6)
_cell_angle_beta                 92.529(4)
_cell_angle_gamma                99.087(6)
_cell_volume                     1150.18
_exptl_crystal_colour            colorless
_exptl_crystal_description       block
_cell_formula_units_Z            1
loop_
_atom_site_label
_atom_site_type_symbol
_atom_site_fract_x
_atom_site_fract_y
_atom_site_fract_z
Na1 Na 0.39032(7) 0.04263(8) 0.92331(6)
O1 O 0.62447(12) 0.03489(13) 0.92804(9)
O2 O 0.28757(16) 0.12889(17) 0.79175(12)
C1 C 0.68367(17) 0.09525(18) 0.85344(14)
C2 C 0.69967(18) 0.01318(19) 0.74834(14)
C3 C 0.75743(19) 0.0829(2) 0.67125(15)
H1 H 0.7667 0.0272 0.6016
C4 C 0.80204(19) 0.2289(2) 0.69032(15)
C5 C 0.78801(19) 0.3067(2) 0.79342(15)
H2 H 0.8182 0.4068 0.8088
C6 C 0.73215(18) 0.24607(19) 0.87547(14)
C7 C 0.6534(2) -0.1497(2) 0.71955(15)
C8 C 0.6803(3) -0.2165(2) 0.60268(19)
H3 H 0.7810 -0.1948 0.5930
H4 H 0.6268 -0.1774 0.5523
H5 H 0.6503 -0.3199 0.5882
C9 C 0.4944(2) -0.1895(2) 0.72795(18)
H6 H 0.4649 -0.2924 0.7009
H7 H 0.4434 -0.1389 0.6846
H8 H 0.4735 -0.1627 0.8037
C10 C 0.7350(3) -0.2183(2) 0.79501(19)
H9 H 0.8353 -0.2023 0.7828
H10 H 0.6993 -0.3208 0.7799
H11 H 0.7226 -0.1755 0.8705
C11 C 0.8569(2) 0.3033(2) 0.60152(16)
C12 C 0.7380(3) 0.3644(4) 0.5561(2)
H12 H 0.7734 0.4179 0.5030
H13 H 0.7017 0.4280 0.6151
H14 H 0.6621 0.2867 0.5210
C13 C 0.9118(5) 0.2047(3) 0.5118(3)
H15 H 0.9786 0.1551 0.5425
H16 H 0.9593 0.2596 0.4637
H17 H 0.8332 0.1349 0.4707
C14 C 0.9735(3) 0.4287(4) 0.6477(2)
H18 H 1.0489 0.3962 0.6849
H19 H 0.9357 0.5008 0.6993
H20 H 1.0111 0.4701 0.5889
C15 C 0.7241(2) 0.34081(19) 0.98817(15)
C16 C 0.7766(2) 0.4994(2) 0.99315(18)
H21 H 0.7691 0.5551 1.0661
H22 H 0.7189 0.5312 0.9407
H23 H 0.8751 0.5129 0.9759
C17 C 0.8159(2) 0.2977(2) 1.07343(16)
H24 H 0.8024 0.3518 1.1456
H25 H 0.9152 0.3182 1.0591
H26 H 0.7888 0.1957 1.0699
C18 C 0.5713(2) 0.3303(2) 1.02030(16)
H27 H 0.5407 0.2375 1.0373
H28 H 0.5097 0.3407 0.9601
H29 H 0.5662 0.4060 1.0840
C19 C 0.3603(3) 0.1707(3) 0.70310(19)
H30 H 0.3044 0.1222 0.6342
H31 H 0.4523 0.1379 0.7014
C20 C 0.3846(3) 0.3265(3) 0.7103(2)
H32 H 0.2941 0.3602 0.7121
H33 H 0.4315 0.3468 0.6470
H34 H 0.4442 0.3752 0.7763
C21 C 0.1400(2) 0.1291(3) 0.7842(2)
H35 H 0.0952 0.0607 0.7177
H36 H 0.1223 0.2250 0.7800
C22 C 0.0782(2) 0.0887(3) 0.8811(2)
H37 H 0.0927 -0.0077 0.8833
H38 H -0.0229 0.0916 0.8769
H39 H 0.1242 0.1557 0.9468
Na1A Na 0.60968(7) -0.04263(8) 1.07669(6)
O1A O 0.37553(12) -0.03489(13) 1.07196(9)
O2A O 0.71243(16) -0.12889(17) 1.20825(12)
C1A C 0.31633(17) -0.09525(18) 1.14656(14)
C2A C 0.30033(18) -0.01318(19) 1.25166(14)
C3A C 0.24257(19) -0.0829(2) 1.32875(15)
H1A H 0.2333 -0.0272 1.3984
C4A C 0.19796(19) -0.2289(2) 1.30968(15)
C5A C 0.21199(19) -0.3067(2) 1.20658(15)
H2A H 0.1818 -0.4068 1.1912
C6A C 0.26785(18) -0.24607(19) 1.12453(14)
C7A C 0.3466(2) 0.1497(2) 1.28045(15)
C8A C 0.3197(3) 0.2165(2) 1.39732(19)
H3A H 0.2190 0.1948 1.4070
H4A H 0.3732 0.1774 1.4477
H5A H 0.3497 0.3199 1.4118
C9A C 0.5056(2) 0.1895(2) 1.27205(18)
H6A H 0.5351 0.2924 1.2991
H7A H 0.5566 0.1389 1.3154
H8A H 0.5265 0.1627 1.1963
C10A C 0.2650(3) 0.2183(2) 1.20499(19)
H9A H 0.1647 0.2023 1.2172
H10A H 0.3007 0.3208 1.2201
H11A H 0.2774 0.1755 1.1295
C11A C 0.1431(2) -0.3033(2) 1.39848(16)
C12A C 0.2620(3) -0.3644(4) 1.4439(2)
H12A H 0.2266 -0.4179 1.4970
H13A H 0.2983 -0.4280 1.3849
H14A H 0.3379 -0.2867 1.4790
C13A C 0.0882(5) -0.2047(3) 1.4882(3)
H15A H 0.0214 -0.1551 1.4575
H16A H 0.0407 -0.2596 1.5363
H17A H 0.1668 -0.1349 1.5293
C14A C 0.0265(3) -0.4287(4) 1.3523(2)
H18A H -0.0489 -0.3962 1.3151
H19A H 0.0643 -0.5008 1.3007
H20A H -0.0111 -0.4701 1.4111
C15A C 0.2759(2) -0.34081(19) 1.01183(15)
C16A C 0.2234(2) -0.4994(2) 1.00685(18)
H21A H 0.2309 -0.5551 0.9339
H22A H 0.2811 -0.5312 1.0593
H23A H 0.1249 -0.5129 1.0241
C17A C 0.1841(2) -0.2977(2) 0.92657(16)
H24A H 0.1976 -0.3518 0.8544
H25A H 0.0848 -0.3182 0.9409
H26A H 0.2112 -0.1957 0.9301
C18A C 0.4287(2) -0.3303(2) 0.97970(16)
H27A H 0.4593 -0.2375 0.9627
H28A H 0.4903 -0.3407 1.0399
H29A H 0.4338 -0.4060 0.9160
C19A C 0.6397(3) -0.1707(3) 1.29690(19)
H30A H 0.6956 -0.1222 1.3658
H31A H 0.5477 -0.1379 1.2986
C20A C 0.6154(3) -0.3265(3) 1.2897(2)
H32A H 0.7059 -0.3602 1.2879
H33A H 0.5685 -0.3468 1.3530
H34A H 0.5558 -0.3752 1.2237
C21A C 0.8600(2) -0.1291(3) 1.2158(2)
H35A H 0.9048 -0.0607 1.2823
H36A H 0.8777 -0.2250 1.2200
C22A C 0.9218(2) -0.0887(3) 1.1189(2)
H37A H 0.9073 0.0077 1.1167
H38A H 1.0229 -0.0916 1.1231
H39A H 0.8758 -0.1557 1.0532
loop_
_geom_bond_atom_site_label_1
_geom_bond_atom_site_label_2
_geom_bond_site_symmetry_1
_geom_bond_site_symmetry_2
Na1 O1 1_555 1_555
O1 C1 1_555 1_555
O2 Na1 1_555 1_555
C1 C2 1_555 1_555
C2 C3 1_555 1_555
C3 H1 1_555 1_555
C4 C3 1_555 1_555
C5 C4 1_555 1_555
H2 C5 1_555 1_555
C6 C1 1_555 1_555
C7 C2 1_555 1_555
C8 C7 1_555 1_555
H3 C8 1_555 1_555
H4 C8 1_555 1_555
H5 C8 1_555 1_555
C9 C7 1_555 1_555
H6 C9 1_555 1_555
H7 C9 1_555 1_555
H8 C9 1_555 1_555
C10 C7 1_555 1_555
H9 C10 1_555 1_555
H10 C10 1_555 1_555
H11 C10 1_555 1_555
C11 C4 1_555 1_555
C12 C11 1_555 1_555
H12 C12 1_555 1_555
H13 C12 1_555 1_555
H14 C12 1_555 1_555
C13 C11 1_555 1_555
H15 C13 1_555 1_555
H16 C13 1_555 1_555
H17 C13 1_555 1_555
C14 C11 1_555 1_555
H18 C14 1_555 1_555
H19 C14 1_555 1_555
H20 C14 1_555 1_555
C15 C6 1_555 1_555
C16 C15 1_555 1_555
H21 C16 1_555 1_555
H22 C16 1_555 1_555
H23 C16 1_555 1_555
C17 C15 1_555 1_555
H24 C17 1_555 1_555
H25 C17 1_555 1_555
H26 C17 1_555 1_555
C18 C15 1_555 1_555
H27 C18 1_555 1_555
H28 C18 1_555 1_555
H29 C18 1_555 1_555
C19 O2 1_555 1_555
H30 C19 1_555 1_555
H31 C19 1_555 1_555
C20 C19 1_555 1_555
H32 C20 1_555 1_555
H33 C20 1_555 1_555
H34 C20 1_555 1_555
C21 O2 1_555 1_555
H35 C21 1_555 1_555
H36 C21 1_555 1_555
C22 C21 1_555 1_555
H37 C22 1_555 1_555
H38 C22 1_555 1_555
H39 C22 1_555 1_555
Na1A O1 1_555 1_555
O1A Na1 1_555 1_555
O2A Na1A 1_555 1_555
C1A O1A 1_555 1_555
C2A C1A 1_555 1_555
C3A C2A 1_555 1_555
H1A C3A 1_555 1_555
C4A C3A 1_555 1_555
C5A C4A 1_555 1_555
H2A C5A 1_555 1_555
C6A C1A 1_555 1_555
C7A C2A 1_555 1_555
C8A C7A 1_555 1_555
H3A C8A 1_555 1_555
H4A C8A 1_555 1_555
H5A C8A 1_555 1_555
C9A C7A 1_555 1_555
H6A C9A 1_555 1_555
H7A C9A 1_555 1_555
H8A C9A 1_555 1_555
C10A C7A 1_555 1_555
H9A C10A 1_555 1_555
H10A C10A 1_555 1_555
H11A C10A 1_555 1_555
C11A C4A 1_555 1_555
C12A C11A 1_555 1_555
H12A C12A 1_555 1_555
H13A C12A 1_555 1_555
H14A C12A 1_555 1_555
C13A C11A 1_555 1_555
H15A C13A 1_555 1_555
H16A C13A 1_555 1_555
H17A C13A 1_555 1_555
C14A C11A 1_555 1_555
H18A C14A 1_555 1_555
H19A C14A 1_555 1_555
H20A C14A 1_555 1_555
C15A C6A 1_555 1_555
C16A C15A 1_555 1_555
H21A C16A 1_555 1_555
H22A C16A 1_555 1_555
H23A C16A 1_555 1_555
C17A C15A 1_555 1_555
H24A C17A 1_555 1_555
H25A C17A 1_555 1_555
H26A C17A 1_555 1_555
C18A C15A 1_555 1_555
H27A C18A 1_555 1_555
H28A C18A 1_555 1_555
H29A C18A 1_555 1_555
C19A O2A 1_555 1_555
H30A C19A 1_555 1_555
H31A C19A 1_555 1_555
C20A C19A 1_555 1_555
H32A C20A 1_555 1_555
H33A C20A 1_555 1_555
H34A C20A 1_555 1_555
C21A O2A 1_555 1_555
H35A C21A 1_555 1_555
H36A C21A 1_555 1_555
C22A C21A 1_555 1_555
H37A C22A 1_555 1_555
H38A C22A 1_555 1_555
H39A C22A 1_555 1_555
C5 C6 1_555 1_555
Na1A O1A 1_555 1_555
C5A C6A 1_555 1_555

#END
