
#######################################################################
#
#                 Cambridge Crystallographic Data Centre
#                                CCDC 
#
#######################################################################
#
# If this CIF has been generated from an entry in the Cambridge 
# Structural Database, then it will include bibliographic, chemical, 
# crystal, experimental, refinement or atomic coordinate data resulting 
# from the CCDC's data processing and validation procedures.
#
#######################################################################

data_JEMDUB
_chemical_formula_moiety         'C26 H17 F1 N2 O1,C3 H7 N1 O1'
_chemical_name_systematic        
'7-(4-Fluorophenyl)-5,6,7,14-tetrahydroquinolino(4,3-b)benzo(f)quinolin-6-one N,N-dimethylformamide solvate'
_symmetry_cell_setting           monoclinic
_symmetry_space_group_name_H-M   'P 21/c'
_symmetry_Int_Tables_number      14
_space_group_name_Hall           '-P 2ybc'
loop_
_symmetry_equiv_pos_site_id
_symmetry_equiv_pos_as_xyz
1 x,y,z
2 -x,1/2+y,1/2-z
3 -x,-y,-z
4 x,1/2-y,1/2+z
_cell_length_a                   9.5653(12)
_cell_length_b                   24.394(3)
_cell_length_c                   10.7387(15)
_cell_angle_alpha                90
_cell_angle_beta                 111.978(2)
_cell_angle_gamma                90
_cell_volume                     2323.63
_exptl_crystal_colour            'pale yellow'
_exptl_crystal_description       Block
_chemical_melting_point          'above 573 K'
_cell_formula_units_Z            4
_exptl_crystal_recrystallization_method dimethylformamide/water
loop_
_atom_site_label
_atom_site_type_symbol
_atom_site_fract_x
_atom_site_fract_y
_atom_site_fract_z
F1 F 0.34612(16) 0.22465(6) 0.71439(14)
O1 O -0.06061(14) 0.44651(5) 0.58404(12)
N1 N 0.11764(16) 0.51192(6) 0.67123(15)
H1 H 0.091(2) 0.5250(9) 0.579(2)
N2 N 0.19803(16) 0.45724(6) 1.05479(15)
H2 H 0.261(2) 0.4763(8) 1.128(2)
C1 C 0.22916(18) 0.53738(6) 0.77609(17)
C2 C 0.3127(2) 0.57992(7) 0.7496(2)
H3 H 0.2928 0.5907 0.6616
C3 C 0.4232(2) 0.60544(8) 0.8529(2)
H4 H 0.4791 0.6333 0.8349
C4 C 0.4528(2) 0.59016(8) 0.9847(2)
H5 H 0.5273 0.6081 1.0547
C5 C 0.3718(2) 0.54837(7) 1.01179(19)
H6 H 0.3922 0.5383 1.1004
C6 C 0.25939(18) 0.52078(6) 0.90804(17)
C7 C 0.17508(18) 0.47416(6) 0.92751(16)
C8 C 0.07477(17) 0.44668(6) 0.81945(16)
C9 C 0.03834(18) 0.46748(7) 0.68607(17)
C10 C 0.00687(18) 0.39216(6) 0.83574(16)
H7 H -0.0979 0.3909 0.7719
C11 C 0.09394(18) 0.34534(6) 0.80227(16)
C12 C 0.0557(2) 0.32631(7) 0.67162(18)
H8 H -0.0276 0.3410 0.6033
C13 C 0.1398(2) 0.28571(8) 0.6414(2)
H9 H 0.1139 0.2733 0.5537
C14 C 0.2606(2) 0.26452(8) 0.7426(2)
C15 C 0.3019(2) 0.28127(8) 0.8724(2)
H10 H 0.3848 0.2659 0.9399
C16 C 0.2172(2) 0.32181(7) 0.90127(18)
H11 H 0.2439 0.3335 0.9896
C17 C 0.00748(18) 0.38682(6) 0.97671(16)
C18 C -0.08379(18) 0.34676(7) 1.00733(17)
C19 C -0.1879(2) 0.31326(7) 0.90812(19)
H12 H -0.1987 0.3173 0.8189
C20 C -0.2730(2) 0.27503(8) 0.9407(2)
H13 H -0.3415 0.2537 0.8737
C21 C -0.2576(2) 0.26781(8) 1.0746(2)
H14 H -0.3160 0.2418 1.0961
C22 C -0.1578(2) 0.29874(8) 1.1730(2)
H15 H -0.1479 0.2934 1.2616
C23 C -0.06863(19) 0.33886(7) 1.14297(18)
C24 C 0.0357(2) 0.37144(8) 1.24437(19)
H16 H 0.0468 0.3663 1.3334
C25 C 0.1197(2) 0.41003(7) 1.21419(18)
H17 H 0.1863 0.4316 1.2819
C26 C 0.10614(18) 0.41754(7) 1.07961(16)
O2 O 0.3944(2) 0.50527(8) 0.31899(16)
N3 N 0.50663(18) 0.58422(7) 0.41305(17)
C27 C 0.3981(2) 0.54758(10) 0.3800(2)
H18 H 0.3171 0.5546 0.4056
C28 C 0.6397(3) 0.57465(13) 0.3834(3)
H19 H 0.7253 0.5704 0.4658
H20 H 0.6559 0.6052 0.3342
H21 H 0.6265 0.5419 0.3306
C29 C 0.5052(4) 0.63265(11) 0.4902(3)
H22 H 0.4073 0.6369 0.4942
H23 H 0.5282 0.6642 0.4480
H24 H 0.5793 0.6289 0.5795
loop_
_geom_bond_atom_site_label_1
_geom_bond_atom_site_label_2
_geom_bond_site_symmetry_1
_geom_bond_site_symmetry_2
F1 C14 1_555 1_555
O1 C9 1_555 1_555
N1 H1 1_555 1_555
N2 H2 1_555 1_555
C1 N1 1_555 1_555
C2 C1 1_555 1_555
H3 C2 1_555 1_555
C3 C2 1_555 1_555
H4 C3 1_555 1_555
C4 C3 1_555 1_555
H5 C4 1_555 1_555
C5 C4 1_555 1_555
H6 C5 1_555 1_555
C6 C1 1_555 1_555
C7 N2 1_555 1_555
C8 C7 1_555 1_555
C9 N1 1_555 1_555
C10 C8 1_555 1_555
H7 C10 1_555 1_555
C11 C10 1_555 1_555
C12 C11 1_555 1_555
H8 C12 1_555 1_555
C13 C12 1_555 1_555
H9 C13 1_555 1_555
C14 C13 1_555 1_555
C15 C14 1_555 1_555
H10 C15 1_555 1_555
C16 C11 1_555 1_555
H11 C16 1_555 1_555
C17 C10 1_555 1_555
C18 C17 1_555 1_555
C19 C18 1_555 1_555
H12 C19 1_555 1_555
C20 C19 1_555 1_555
H13 C20 1_555 1_555
C21 C20 1_555 1_555
H14 C21 1_555 1_555
C22 C21 1_555 1_555
H15 C22 1_555 1_555
C23 C18 1_555 1_555
C24 C23 1_555 1_555
H16 C24 1_555 1_555
C25 C24 1_555 1_555
H17 C25 1_555 1_555
C26 N2 1_555 1_555
O2 C27 1_555 1_555
N3 C27 1_555 1_555
C27 H18 1_555 1_555
C28 N3 1_555 1_555
H19 C28 1_555 1_555
H20 C28 1_555 1_555
H21 C28 1_555 1_555
C29 N3 1_555 1_555
H22 C29 1_555 1_555
H23 C29 1_555 1_555
H24 C29 1_555 1_555
C5 C6 1_555 1_555
C6 C7 1_555 1_555
C8 C9 1_555 1_555
C15 C16 1_555 1_555
C17 C26 1_555 1_555
C22 C23 1_555 1_555
C25 C26 1_555 1_555

#END
