
#######################################################################
#
#                 Cambridge Crystallographic Data Centre
#                                CCDC 
#
#######################################################################
#
# If this CIF has been generated from an entry in the Cambridge 
# Structural Database, then it will include bibliographic, chemical, 
# crystal, experimental, refinement or atomic coordinate data resulting 
# from the CCDC's data processing and validation procedures.
#
#######################################################################

data_JEMJOA01
_chemical_name_common            'diphenhydramine hydrochloride'
_chemical_formula_moiety         'C17 H22 N1 O1 1+,Cl1 1-'
_chemical_name_systematic        
'2-(diphenylmethoxy)-N,N-dimethylethanaminium chloride'
_chemical_properties_biological  
'Diphenhydramine is a first-generation H-receptor antagonist.'
_symmetry_cell_setting           orthorhombic
_symmetry_space_group_name_H-M   'P n a 21'
_symmetry_Int_Tables_number      33
_space_group_name_Hall           'P 2c -2n'
loop_
_symmetry_equiv_pos_site_id
_symmetry_equiv_pos_as_xyz
1 x,y,z
2 -x,-y,1/2+z
3 1/2+x,1/2-y,z
4 1/2-x,1/2+y,1/2+z
_cell_length_a                   10.7556(11)
_cell_length_b                   14.0355(10)
_cell_length_c                   10.5063(10)
_cell_angle_alpha                90
_cell_angle_beta                 90
_cell_angle_gamma                90
_cell_volume                     1586.03
_cell_formula_units_Z            4
loop_
_atom_site_label
_atom_site_type_symbol
_atom_site_fract_x
_atom_site_fract_y
_atom_site_fract_z
Cl1 Cl 0.82299(4) 0.51579(3) 0.68481(4)
O1 O 0.62402(11) 0.44183(9) 0.41486(12)
N1 N 0.89121(14) 0.47162(10) 0.41480(16)
C1 C 0.99737(19) 0.40575(15) 0.4436(2)
H1 H 0.9648 0.3430 0.4675
H2 H 1.0465 0.4317 0.5140
H3 H 1.0501 0.3994 0.3680
C2 C 0.93823(19) 0.57006(14) 0.3895(2)
H4 H 0.9966 0.5686 0.3179
H5 H 0.9807 0.5942 0.4655
H6 H 0.8682 0.6119 0.3686
C3 C 0.81461(16) 0.43520(14) 0.30653(18)
H7 H 0.8082 0.3650 0.3129
H8 H 0.8569 0.4506 0.2254
C4 C 0.68535(16) 0.47758(13) 0.30510(18)
H9 H 0.6896 0.5480 0.3079
H10 H 0.6404 0.4583 0.2270
C5 C 0.49355(16) 0.46138(11) 0.41903(17)
H11 H 0.4584 0.4555 0.3312
C6 C 0.43548(16) 0.38552(11) 0.50362(17)
C7 C 0.49148(18) 0.36022(12) 0.61805(17)
H12 H 0.5678 0.3889 0.6426
C8 C 0.43539(18) 0.29249(12) 0.6968(2)
H13 H 0.4740 0.2749 0.7747
C9 C 0.32357(19) 0.25081(13) 0.6617(2)
H14 H 0.2857 0.2047 0.7154
C10 C 0.26693(18) 0.27671(14) 0.5476(2)
H15 H 0.1899 0.2488 0.5238
C11 C 0.32337(17) 0.34373(13) 0.4680(2)
H16 H 0.2853 0.3608 0.3896
C12 C 0.46253(16) 0.55980(12) 0.47172(16)
C13 C 0.54349(17) 0.60736(12) 0.55299(18)
H17 H 0.6237 0.5819 0.5696
C14 C 0.5067(2) 0.69285(13) 0.6102(2)
H18 H 0.5623 0.7253 0.6655
C15 C 0.3895(2) 0.73055(13) 0.5867(2)
H19 H 0.3641 0.7879 0.6271
C16 C 0.30925(19) 0.68340(14) 0.5033(2)
H20 H 0.2296 0.7094 0.4855
C17 C 0.34554(17) 0.59878(13) 0.44635(17)
H21 H 0.2905 0.5671 0.3897
loop_
_geom_bond_atom_site_label_1
_geom_bond_atom_site_label_2
_geom_bond_site_symmetry_1
_geom_bond_site_symmetry_2
O1 C4 1_555 1_555
N1 C1 1_555 1_555
C1 H1 1_555 1_555
H2 C1 1_555 1_555
H3 C1 1_555 1_555
C2 N1 1_555 1_555
H4 C2 1_555 1_555
H5 C2 1_555 1_555
H6 C2 1_555 1_555
C3 N1 1_555 1_555
H7 C3 1_555 1_555
H8 C3 1_555 1_555
C4 C3 1_555 1_555
H9 C4 1_555 1_555
H10 C4 1_555 1_555
C5 O1 1_555 1_555
H11 C5 1_555 1_555
C6 C5 1_555 1_555
C7 C6 1_555 1_555
H12 C7 1_555 1_555
C8 C7 1_555 1_555
H13 C8 1_555 1_555
C9 C8 1_555 1_555
H14 C9 1_555 1_555
C10 C9 1_555 1_555
H15 C10 1_555 1_555
C11 C6 1_555 1_555
H16 C11 1_555 1_555
C12 C5 1_555 1_555
C13 C12 1_555 1_555
H17 C13 1_555 1_555
C14 C13 1_555 1_555
H18 C14 1_555 1_555
C15 C14 1_555 1_555
H19 C15 1_555 1_555
C16 C15 1_555 1_555
H20 C16 1_555 1_555
C17 C12 1_555 1_555
H21 C17 1_555 1_555
C10 C11 1_555 1_555
C16 C17 1_555 1_555

#END
