
#######################################################################
#
#                 Cambridge Crystallographic Data Centre
#                                CCDC 
#
#######################################################################
#
# If this CIF has been generated from an entry in the Cambridge 
# Structural Database, then it will include bibliographic, chemical, 
# crystal, experimental, refinement or atomic coordinate data resulting 
# from the CCDC's data processing and validation procedures.
#
#######################################################################

data_JEMRIF
_chemical_formula_moiety         'C18 H16 O2'
_chemical_name_systematic        
(E)-2-(4-hydroxy-3,5-dimethylbenzylidene)-2,3-dihydro-1H-indan-1-one
_symmetry_cell_setting           monoclinic
_symmetry_space_group_name_H-M   'P 21/n'
_symmetry_Int_Tables_number      14
_space_group_name_Hall           '-P 2yn'
loop_
_symmetry_equiv_pos_site_id
_symmetry_equiv_pos_as_xyz
1 x,y,z
2 1/2-x,1/2+y,1/2-z
3 -x,-y,-z
4 1/2+x,1/2-y,1/2+z
_cell_length_a                   7.5305(5)
_cell_length_b                   13.6344(9)
_cell_length_c                   13.2887(9)
_cell_angle_alpha                90
_cell_angle_beta                 94.872(2)
_cell_angle_gamma                90
_cell_volume                     1359.47
_exptl_crystal_colour            yellow
_exptl_crystal_description       prism
_cell_formula_units_Z            4
loop_
_atom_site_label
_atom_site_type_symbol
_atom_site_fract_x
_atom_site_fract_y
_atom_site_fract_z
O1 O 0.0252(2) 0.52155(10) 0.75904(10)
O2 O 0.4352(2) 0.18265(11) 0.26022(10)
H1 H 0.4428 0.1253 0.2788
C1 C 0.0900(3) 0.56854(13) 0.68610(14)
C2 C 0.1727(2) 0.52942(13) 0.58954(13)
C3 C 0.2305(3) 0.61446(13) 0.52121(14)
H2 H 0.3571 0.6123 0.5126
H3 H 0.1635 0.6143 0.4556
C4 C 0.2070(3) 0.80147(14) 0.56369(17)
H4 H 0.2583 0.8211 0.5057
C5 C 0.1813(3) 0.70309(13) 0.58617(14)
C6 C 0.1497(3) 0.87042(15) 0.63517(19)
H5 H 0.1658 0.9368 0.6224
C7 C 0.0669(3) 0.84330(15) 0.72771(18)
H6 H 0.0318 0.8920 0.7708
C8 C 0.0412(3) 0.74593(15) 0.75073(15)
H7 H -0.0109 0.7266 0.8086
C9 C 0.1002(3) 0.67604(13) 0.67933(14)
C10 C 0.2565(2) 0.37150(13) 0.49206(13)
C11 C 0.2598(3) 0.27011(13) 0.50776(13)
H8 H 0.2221 0.2450 0.5674
C12 C 0.3197(3) 0.20420(13) 0.43419(14)
C13 C 0.3776(3) 0.24127(13) 0.33914(13)
C14 C 0.3764(3) 0.34250(13) 0.31892(14)
C15 C 0.3158(2) 0.40585(13) 0.39590(13)
H9 H 0.3143 0.4730 0.3837
C16 C 0.1871(3) 0.43204(13) 0.57616(14)
H10 H 0.1470 0.3948 0.6283
C17 C 0.3198(4) 0.09588(14) 0.45530(17)
H11 H 0.2256 0.0651 0.4134
H12 H 0.3015 0.0851 0.5251
H13 H 0.4321 0.0683 0.4409
C18 C 0.4372(3) 0.38002(16) 0.21590(15)
H14 H 0.3890 0.3381 0.1623
H15 H 0.5650 0.3792 0.2183
H16 H 0.3950 0.4458 0.2039
loop_
_geom_bond_atom_site_label_1
_geom_bond_atom_site_label_2
_geom_bond_site_symmetry_1
_geom_bond_site_symmetry_2
O1 C1 1_555 1_555
O2 H1 1_555 1_555
C1 C2 1_555 1_555
C2 C3 1_555 1_555
C3 H2 1_555 1_555
H3 C3 1_555 1_555
C4 H4 1_555 1_555
C5 C3 1_555 1_555
C6 C4 1_555 1_555
H5 C6 1_555 1_555
C7 C6 1_555 1_555
H6 C7 1_555 1_555
C8 C7 1_555 1_555
H7 C8 1_555 1_555
C9 C1 1_555 1_555
C10 C11 1_555 1_555
C11 H8 1_555 1_555
C12 C11 1_555 1_555
C13 O2 1_555 1_555
C14 C13 1_555 1_555
C15 C10 1_555 1_555
H9 C15 1_555 1_555
C16 C2 1_555 1_555
H10 C16 1_555 1_555
C17 C12 1_555 1_555
H11 C17 1_555 1_555
H12 C17 1_555 1_555
H13 C17 1_555 1_555
C18 C14 1_555 1_555
H14 C18 1_555 1_555
H15 C18 1_555 1_555
H16 C18 1_555 1_555
C4 C5 1_555 1_555
C5 C9 1_555 1_555
C8 C9 1_555 1_555
C10 C16 1_555 1_555
C12 C13 1_555 1_555
C14 C15 1_555 1_555

#END
