
#######################################################################
#
#                 Cambridge Crystallographic Data Centre
#                                CCDC 
#
#######################################################################
#
# If this CIF has been generated from an entry in the Cambridge 
# Structural Database, then it will include bibliographic, chemical, 
# crystal, experimental, refinement or atomic coordinate data resulting 
# from the CCDC's data processing and validation procedures.
#
#######################################################################

data_JEMSEA
_chemical_formula_moiety         'C21 H24 O1 Si1'
_chemical_name_systematic        
11-Trimethylsilanylmethyl-1,2,3,10-tetrahydrocyclopenta(b)anthracen-5-one
_symmetry_cell_setting           monoclinic
_symmetry_space_group_name_H-M   'P 21/c'
_symmetry_Int_Tables_number      14
_space_group_name_Hall           '-P 2ybc'
loop_
_symmetry_equiv_pos_site_id
_symmetry_equiv_pos_as_xyz
1 x,y,z
2 -x,1/2+y,1/2-z
3 -x,-y,-z
4 x,1/2-y,1/2+z
_cell_length_a                   20.5691(10)
_cell_length_b                   13.2135(7)
_cell_length_c                   13.9395(7)
_cell_angle_alpha                90.00
_cell_angle_beta                 101.3920(10)
_cell_angle_gamma                90.00
_cell_volume                     3713.97
_cell_formula_units_Z            20
loop_
_atom_site_label
_atom_site_type_symbol
_atom_site_fract_x
_atom_site_fract_y
_atom_site_fract_z
Si1 Si 0.28065(4) 0.49021(7) 0.10472(5)
O1 O 0.46508(9) 0.60941(12) -0.26011(12)
C1 C 0.44777(11) 0.61752(16) -0.18153(15)
C2 C 0.44582(10) 0.71734(15) -0.13464(15)
C3 C 0.45808(12) 0.80534(18) -0.18374(17)
C4 C 0.45583(14) 0.89783(19) -0.1421(2)
C5 C 0.44050(13) 0.90598(18) -0.0503(2)
C6 C 0.42884(12) 0.82045(17) -0.00001(16)
C7 C 0.43109(10) 0.72483(15) -0.04172(15)
C8 C 0.41970(11) 0.63323(16) 0.01520(14)
C9 C 0.41064(9) 0.53540(14) -0.03858(14)
C10 C 0.38958(10) 0.44927(16) 0.00662(15)
C11 C 0.38608(10) 0.35803(16) -0.04402(17)
C12 C 0.36827(14) 0.25507(18) -0.0105(2)
H1 H 0.3992 0.2345 0.0481
H2 H 0.3238 0.2552 0.0030
C13 C 0.3725(2) 0.1869(2) -0.0930(3)
H3 H 0.4048 0.1342 -0.0711
H4 H 0.3298 0.1550 -0.1161
C14 C 0.39202(15) 0.24405(19) -0.1737(2)
C15 C 0.40072(11) 0.35118(16) -0.13678(18)
C16 C 0.42032(11) 0.43546(17) -0.18174(16)
C17 C 0.42588(9) 0.52800(14) -0.13205(14)
C18 C 0.36974(12) 0.45649(17) 0.10451(16)
C19 C 0.22770(17) 0.3774(3) 0.0752(3)
H5 H 0.1824 0.3952 0.0749
H6 H 0.2417 0.3259 0.1234
H7 H 0.2314 0.3524 0.0118
C20 C 0.27554(15) 0.5349(2) 0.2283(2)
H8 H 0.2305 0.5526 0.2299
H9 H 0.3034 0.5932 0.2443
H10 H 0.2901 0.4822 0.2750
C21 C 0.24840(17) 0.5899(3) 0.0150(2)
H11 H 0.2030 0.6039 0.0176
H12 H 0.2511 0.5674 -0.0496
H13 H 0.2743 0.6503 0.0303
H25 H 0.4680 0.8022 -0.2408
H26 H 0.4646 0.9515 -0.1705
H27 H 0.4363 0.9744 -0.0211
H28 H 0.4185 0.8251 0.0664
H29 H 0.4577 0.6312 0.0648
H30 H 0.3840 0.6505 0.0380
H31 H 0.3664 0.2378 -0.2268
H32 H 0.4371 0.2090 -0.1985
H33 H 0.4264 0.4347 -0.2425
H34 H 0.3920 0.4983 0.1414
H35 H 0.3772 0.3926 0.1360
Si2 Si 0.22866(3) 0.95971(5) 0.15089(5)
O2 O -0.06086(10) 1.26775(16) 0.09263(16)
C22 C -0.02804(13) 1.1923(2) 0.1181(2)
C23 C -0.03784(12) 1.1322(2) 0.2030(2)
C24 C -0.08216(15) 1.1678(2) 0.2611(3)
C25 C -0.08977(18) 1.1154(4) 0.3415(3)
C26 C -0.0554(2) 1.0307(4) 0.3679(3)
C27 C -0.01194(15) 0.9928(2) 0.3136(2)
C28 C -0.00291(12) 1.0440(2) 0.22946(19)
C29 C 0.04422(12) 1.00233(18) 0.16858(19)
C30 C 0.05936(11) 1.06879(17) 0.08892(16)
C31 C 0.10742(11) 1.03894(17) 0.03619(17)
C32 C 0.11816(11) 1.1017(2) -0.03904(17)
C33 C 0.16340(13) 1.0835(3) -0.1115(2)
C34 C 0.15989(19) 1.1803(3) -0.1686(3)
H14 H 0.2011 1.2176 -0.1498
H15 H 0.1532 1.1657 -0.2380
C35 C 0.10453(17) 1.2407(3) -0.1480(2)
C36 C 0.08403(13) 1.1914(2) -0.06221(19)
C37 C 0.03739(13) 1.22083(19) -0.0100(2)
C38 C 0.02451(11) 1.15932(18) 0.06521(18)
C39 C 0.14693(12) 0.94397(18) 0.06136(18)
C40 C 0.2479(2) 0.8420(3) 0.2208(3)
H16 H 0.2892 0.8496 0.2664
H17 H 0.2515 0.7874 0.1767
H18 H 0.2132 0.8276 0.2557
C41 C 0.29522(17) 0.9940(4) 0.0878(3)
H19 H 0.3357 1.0028 0.1349
H20 H 0.2841 1.0561 0.0526
H21 H 0.3009 0.9412 0.0429
C42 C 0.22357(17) 1.0612(3) 0.2395(3)
H22 H 0.2657 1.0685 0.2831
H23 H 0.1903 1.0445 0.2765
H24 H 0.2120 1.1237 0.2052
H36 H -0.1007 1.2450 0.2313
H37 H -0.1135 1.1469 0.3780
H38 H -0.0535 0.9858 0.4097
H39 H 0.0114 0.9387 0.3251
H40 H 0.0838 0.9778 0.2122
H41 H 0.0267 0.9341 0.1448
H42 H 0.1983 1.0719 -0.0893
H43 H 0.1415 1.0267 -0.1719
H44 H 0.0724 1.2334 -0.2039
H45 H 0.1077 1.3095 -0.1292
H46 H 0.0129 1.2779 -0.0214
H47 H 0.1573 0.9133 0.0053
H48 H 0.1228 0.8943 0.0896
loop_
_geom_bond_atom_site_label_1
_geom_bond_atom_site_label_2
_geom_bond_site_symmetry_1
_geom_bond_site_symmetry_2
Si1 C18 1_555 1_555
Si2 C39 1_555 1_555
O1 C1 1_555 1_555
O2 C22 1_555 1_555
C1 C2 1_555 1_555
C2 C3 1_555 1_555
C3 C4 1_555 1_555
C4 C5 1_555 1_555
C5 C6 1_555 1_555
C6 C7 1_555 1_555
C7 C2 1_555 1_555
C8 C7 1_555 1_555
C9 C8 1_555 1_555
C10 C9 1_555 1_555
C11 C10 1_555 1_555
C12 C11 1_555 1_555
H1 C12 1_555 1_555
H2 C12 1_555 1_555
C13 C12 1_555 1_555
H3 C13 1_555 1_555
H4 C13 1_555 1_555
C14 C13 1_555 1_555
C15 C11 1_555 1_555
C16 C15 1_555 1_555
C17 C1 1_555 1_555
C18 C10 1_555 1_555
C19 Si1 1_555 1_555
H5 C19 1_555 1_555
H6 C19 1_555 1_555
H7 C19 1_555 1_555
C20 Si1 1_555 1_555
H8 C20 1_555 1_555
H9 C20 1_555 1_555
H10 C20 1_555 1_555
C21 Si1 1_555 1_555
H11 C21 1_555 1_555
H12 C21 1_555 1_555
H13 C21 1_555 1_555
C22 C23 1_555 1_555
C23 C24 1_555 1_555
C24 C25 1_555 1_555
C25 C26 1_555 1_555
C26 C27 1_555 1_555
C27 C28 1_555 1_555
C28 C23 1_555 1_555
C29 C28 1_555 1_555
C30 C29 1_555 1_555
C31 C30 1_555 1_555
C32 C31 1_555 1_555
C33 C32 1_555 1_555
C34 C33 1_555 1_555
H14 C34 1_555 1_555
H15 C34 1_555 1_555
C35 C34 1_555 1_555
C36 C32 1_555 1_555
C37 C36 1_555 1_555
C38 C22 1_555 1_555
C39 C31 1_555 1_555
C40 Si2 1_555 1_555
H16 C40 1_555 1_555
H17 C40 1_555 1_555
H18 C40 1_555 1_555
C41 Si2 1_555 1_555
H19 C41 1_555 1_555
H20 C41 1_555 1_555
H21 C41 1_555 1_555
C42 Si2 1_555 1_555
H22 C42 1_555 1_555
H23 C42 1_555 1_555
H24 C42 1_555 1_555
H25 C3 1_555 1_555
H26 C4 1_555 1_555
H27 C5 1_555 1_555
H28 C6 1_555 1_555
H29 C8 1_555 1_555
H30 C8 1_555 1_555
H31 C14 1_555 1_555
H32 C14 1_555 1_555
H33 C16 1_555 1_555
H34 C18 1_555 1_555
H35 C18 1_555 1_555
H36 C24 1_555 1_555
H37 C25 1_555 1_555
H38 C26 1_555 1_555
H39 C27 1_555 1_555
H40 C29 1_555 1_555
H41 C29 1_555 1_555
H42 C33 1_555 1_555
H43 C33 1_555 1_555
H44 C35 1_555 1_555
H45 C35 1_555 1_555
H46 C37 1_555 1_555
H47 C39 1_555 1_555
H48 C39 1_555 1_555
C9 C17 1_555 1_555
C14 C15 1_555 1_555
C16 C17 1_555 1_555
C30 C38 1_555 1_555
C35 C36 1_555 1_555
C37 C38 1_555 1_555

#END
