
#######################################################################
#
#                 Cambridge Crystallographic Data Centre
#                                CCDC 
#
#######################################################################
#
# If this CIF has been generated from an entry in the Cambridge 
# Structural Database, then it will include bibliographic, chemical, 
# crystal, experimental, refinement or atomic coordinate data resulting 
# from the CCDC's data processing and validation procedures.
#
#######################################################################

data_JEMTOL
_chemical_formula_moiety         'C14 H25 N1 O8 S1'
_chemical_name_systematic        
'Ethyl 3-methyl-5,5,6,6-tetramethoxy-1,4,5,6-tetrahydro-1-methylsulfonylpyridine-2-carboxylate'
_symmetry_cell_setting           monoclinic
_symmetry_space_group_name_H-M   'P 21/c'
_symmetry_Int_Tables_number      14
_space_group_name_Hall           '-P 2ybc'
loop_
_symmetry_equiv_pos_site_id
_symmetry_equiv_pos_as_xyz
1 x,y,z
2 -x,1/2+y,1/2-z
3 -x,-y,-z
4 x,1/2-y,1/2+z
_cell_length_a                   10.574(2)
_cell_length_b                   15.982(3)
_cell_length_c                   10.753(2)
_cell_angle_alpha                90
_cell_angle_beta                 92.79(3)
_cell_angle_gamma                90
_cell_volume                     1815.03
_exptl_crystal_colour            colorless
_exptl_crystal_description       parallelepiped
_chemical_melting_point          116-118deg.C
_cell_formula_units_Z            4
_exptl_crystal_recrystallization_method toluene
loop_
_atom_site_label
_atom_site_type_symbol
_atom_site_fract_x
_atom_site_fract_y
_atom_site_fract_z
S1 S 0.19822(7) 0.24251(4) 0.21973(6)
O1 O 0.0840(2) 0.26006(12) 0.28041(19)
O2 O 0.3136(2) 0.26999(12) 0.28017(19)
O3 O -0.1143(3) 0.1126(2) 0.3048(3)
O4 O -0.0525(2) 0.14882(15) 0.1157(2)
O5 O 0.4678(2) -0.00159(15) 0.22702(19)
O6 O 0.3987(2) 0.09578(13) 0.36934(17)
O7 O 0.38251(18) 0.15034(12) 0.10483(17)
O8 O 0.2639(2) 0.03012(11) 0.07107(17)
N1 N 0.1957(2) 0.13917(13) 0.19779(19)
C1 C 0.1001(3) 0.09081(18) 0.2539(3)
C2 C 0.1291(3) 0.01718(18) 0.3077(3)
C3 C 0.2622(4) -0.01470(18) 0.3181(3)
H1 H 0.2652 -0.0673 0.2732
H2 H 0.2834 -0.0266 0.4050
C4 C 0.3638(3) 0.04213(18) 0.2703(3)
C5 C 0.3052(3) 0.09080(16) 0.1553(2)
C6 C 0.1866(3) 0.28544(18) 0.0692(3)
H3 H 0.1832 0.3453 0.0747
H4 H 0.1112 0.2652 0.0259
H5 H 0.2592 0.2693 0.0246
C7 C -0.0328(3) 0.1192(2) 0.2316(3)
C8 C -0.1759(4) 0.1850(4) 0.0877(5)
H6 H -0.2414 0.1463 0.1108
H7 H -0.1850 0.2362 0.1349
C9 C -0.1890(5) 0.2025(4) -0.0416(6)
H8 H -0.1518 0.2559 -0.0580
H9 H -0.2772 0.2035 -0.0674
H10 H -0.1468 0.1598 -0.0870
C10 C 0.0326(4) -0.0452(2) 0.3482(4)
H11 H -0.0505 -0.0213 0.3379
H12 H 0.0498 -0.0592 0.4341
H13 H 0.0371 -0.0948 0.2983
C11 C 0.5277(5) -0.0594(3) 0.3143(4)
H14 H 0.5415 -0.0324 0.3935
H15 H 0.6074 -0.0770 0.2841
H16 H 0.4741 -0.1072 0.3233
C12 C 0.5132(3) 0.1429(3) 0.3615(4)
H17 H 0.5821 0.1056 0.3467
H18 H 0.5305 0.1724 0.4382
H19 H 0.5039 0.1823 0.2943
C13 C 0.4799(3) 0.1220(2) 0.0267(3)
H20 H 0.5517 0.1037 0.0776
H21 H 0.5047 0.1671 -0.0259
H22 H 0.4484 0.0764 -0.0239
C14 C 0.1922(3) 0.0594(2) -0.0374(3)
H23 H 0.1075 0.0724 -0.0155
H24 H 0.1898 0.0166 -0.1001
H25 H 0.2315 0.1087 -0.0690
loop_
_geom_bond_atom_site_label_1
_geom_bond_atom_site_label_2
_geom_bond_site_symmetry_1
_geom_bond_site_symmetry_2
S1 O1 1_555 1_555
O2 S1 1_555 1_555
O3 C7 1_555 1_555
O4 C7 1_555 1_555
O5 C4 1_555 1_555
O6 C4 1_555 1_555
O7 C5 1_555 1_555
O8 C5 1_555 1_555
N1 S1 1_555 1_555
C1 N1 1_555 1_555
C2 C1 1_555 1_555
C3 C2 1_555 1_555
H1 C3 1_555 1_555
H2 C3 1_555 1_555
C4 C3 1_555 1_555
C5 N1 1_555 1_555
C6 S1 1_555 1_555
H3 C6 1_555 1_555
H4 C6 1_555 1_555
H5 C6 1_555 1_555
C7 C1 1_555 1_555
C8 O4 1_555 1_555
H6 C8 1_555 1_555
H7 C8 1_555 1_555
C9 C8 1_555 1_555
H8 C9 1_555 1_555
H9 C9 1_555 1_555
H10 C9 1_555 1_555
C10 C2 1_555 1_555
H11 C10 1_555 1_555
H12 C10 1_555 1_555
H13 C10 1_555 1_555
C11 O5 1_555 1_555
H14 C11 1_555 1_555
H15 C11 1_555 1_555
H16 C11 1_555 1_555
C12 O6 1_555 1_555
H17 C12 1_555 1_555
H18 C12 1_555 1_555
H19 C12 1_555 1_555
C13 O7 1_555 1_555
H20 C13 1_555 1_555
H21 C13 1_555 1_555
H22 C13 1_555 1_555
C14 O8 1_555 1_555
H23 C14 1_555 1_555
H24 C14 1_555 1_555
H25 C14 1_555 1_555
C4 C5 1_555 1_555

#END
