
#######################################################################
#
#                 Cambridge Crystallographic Data Centre
#                                CCDC 
#
#######################################################################
#
# If this CIF has been generated from an entry in the Cambridge 
# Structural Database, then it will include bibliographic, chemical, 
# crystal, experimental, refinement or atomic coordinate data resulting 
# from the CCDC's data processing and validation procedures.
#
#######################################################################

data_JEMTUR
_chemical_formula_moiety         'C18 H33 N1 O4 Si1'
_chemical_name_systematic        
4-Hydroxy-3-methyl-5,6-dimethoxy-2-(tri-isopropylsily(hydroxy)methyl)-pyridine
_symmetry_cell_setting           monoclinic
_symmetry_space_group_name_H-M   'P 21/c'
_symmetry_Int_Tables_number      14
_space_group_name_Hall           '-P 2ybc'
loop_
_symmetry_equiv_pos_site_id
_symmetry_equiv_pos_as_xyz
1 x,y,z
2 -x,1/2+y,1/2-z
3 -x,-y,-z
4 x,1/2-y,1/2+z
_cell_length_a                   15.341(3)
_cell_length_b                   8.3070(17)
_cell_length_c                   15.902(3)
_cell_angle_alpha                90
_cell_angle_beta                 92.24(3)
_cell_angle_gamma                90
_cell_volume                     2024.97
_exptl_crystal_colour            colorless
_exptl_crystal_description       parallelepiped
_chemical_melting_point          143-145deg.C
_cell_formula_units_Z            4
_exptl_crystal_recrystallization_method toluene
loop_
_atom_site_label
_atom_site_type_symbol
_atom_site_fract_x
_atom_site_fract_y
_atom_site_fract_z
Si1 Si 0.30501(5) 0.31730(9) 0.67803(5)
O1 O 0.03620(13) 0.7072(3) 0.52255(14)
O2 O 0.12146(14) 0.7790(3) 0.37869(12)
O3 O 0.30206(13) 0.7540(3) 0.38521(12)
H1 H 0.2701 0.7965 0.3491
O4 O 0.23754(14) 0.5994(3) 0.74140(11)
H2 H 0.2686 0.6408 0.7786
N1 N 0.16529(15) 0.6357(3) 0.59243(14)
C1 C 0.12390(18) 0.6893(4) 0.52424(18)
C2 C 0.16557(19) 0.7296(3) 0.45114(17)
C3 C 0.25502(18) 0.7134(3) 0.45187(16)
C4 C 0.30100(17) 0.6537(3) 0.52302(17)
C5 C 0.25246(17) 0.6162(3) 0.59193(16)
C6 C -0.0075(2) 0.6538(5) 0.5948(2)
H3 H -0.0691 0.6712 0.5865
H4 H 0.0136 0.7131 0.6433
H5 H 0.0035 0.5411 0.6035
C7 C 0.0849(2) 0.9360(4) 0.3833(2)
H6 H 0.0555 0.9620 0.3307
H7 H 0.1305 1.0129 0.3951
H8 H 0.0439 0.9392 0.4274
C8 C 0.39801(19) 0.6391(4) 0.5215(2)
H9 H 0.4201 0.5966 0.5742
H10 H 0.4230 0.7433 0.5124
H11 H 0.4132 0.5680 0.4767
C9 C 0.29069(17) 0.5490(3) 0.67326(16)
H12 H 0.3485 0.5973 0.6827
C10 C 0.3179(2) 0.2318(4) 0.56922(19)
H13 H 0.3586 0.3035 0.5415
C11 C 0.2354(3) 0.2307(5) 0.5139(2)
H14 H 0.2476 0.1860 0.4599
H15 H 0.2143 0.3389 0.5067
H16 H 0.1918 0.1666 0.5398
C12 C 0.3605(3) 0.0645(5) 0.5701(3)
H17 H 0.3655 0.0272 0.5134
H18 H 0.3251 -0.0092 0.6004
H19 H 0.4174 0.0709 0.5972
C13 C 0.2101(2) 0.2295(4) 0.7348(2)
H20 H 0.2108 0.2833 0.7896
C14 C 0.1206(2) 0.2631(6) 0.6946(3)
H21 H 0.0768 0.2147 0.7279
H22 H 0.1172 0.2187 0.6389
H23 H 0.1112 0.3773 0.6918
C15 C 0.2211(4) 0.0503(6) 0.7540(4)
H24 H 0.1715 0.0124 0.7833
H25 H 0.2731 0.0342 0.7886
H26 H 0.2256 -0.0083 0.7024
C16 C 0.4080(2) 0.2795(4) 0.7436(2)
H27 H 0.4142 0.1625 0.7490
C17 C 0.4900(2) 0.3406(5) 0.7037(3)
H28 H 0.5398 0.3168 0.7400
H29 H 0.4857 0.4549 0.6956
H30 H 0.4963 0.2888 0.6503
C18 C 0.4032(3) 0.3469(7) 0.8328(2)
H31 H 0.4568 0.3245 0.8638
H32 H 0.3556 0.2974 0.8605
H33 H 0.3943 0.4612 0.8301
loop_
_geom_bond_atom_site_label_1
_geom_bond_atom_site_label_2
_geom_bond_site_symmetry_1
_geom_bond_site_symmetry_2
Si1 C9 1_555 1_555
O1 C1 1_555 1_555
O2 C2 1_555 1_555
O3 H1 1_555 1_555
O4 H2 1_555 1_555
N1 C1 1_555 1_555
C1 C2 1_555 1_555
C2 C3 1_555 1_555
C3 O3 1_555 1_555
C4 C3 1_555 1_555
C5 N1 1_555 1_555
C6 O1 1_555 1_555
H3 C6 1_555 1_555
H4 C6 1_555 1_555
H5 C6 1_555 1_555
C7 O2 1_555 1_555
H6 C7 1_555 1_555
H7 C7 1_555 1_555
H8 C7 1_555 1_555
C8 C4 1_555 1_555
H9 C8 1_555 1_555
H10 C8 1_555 1_555
H11 C8 1_555 1_555
C9 O4 1_555 1_555
H12 C9 1_555 1_555
C10 Si1 1_555 1_555
H13 C10 1_555 1_555
C11 C10 1_555 1_555
H14 C11 1_555 1_555
H15 C11 1_555 1_555
H16 C11 1_555 1_555
C12 C10 1_555 1_555
H17 C12 1_555 1_555
H18 C12 1_555 1_555
H19 C12 1_555 1_555
C13 Si1 1_555 1_555
H20 C13 1_555 1_555
C14 C13 1_555 1_555
H21 C14 1_555 1_555
H22 C14 1_555 1_555
H23 C14 1_555 1_555
C15 C13 1_555 1_555
H24 C15 1_555 1_555
H25 C15 1_555 1_555
H26 C15 1_555 1_555
C16 Si1 1_555 1_555
H27 C16 1_555 1_555
C17 C16 1_555 1_555
H28 C17 1_555 1_555
H29 C17 1_555 1_555
H30 C17 1_555 1_555
C18 C16 1_555 1_555
H31 C18 1_555 1_555
H32 C18 1_555 1_555
H33 C18 1_555 1_555
C4 C5 1_555 1_555
C5 C9 1_555 1_555

#END
