
#######################################################################
#
#                 Cambridge Crystallographic Data Centre
#                                CCDC 
#
#######################################################################
#
# If this CIF has been generated from an entry in the Cambridge 
# Structural Database, then it will include bibliographic, chemical, 
# crystal, experimental, refinement or atomic coordinate data resulting 
# from the CCDC's data processing and validation procedures.
#
#######################################################################

data_JEMXOP
_chemical_formula_moiety         'C18 H18 N2 O2'
_chemical_name_systematic        1,4-bis(2-Methylphenyl)-2,5-piperazinedione
_symmetry_cell_setting           triclinic
_symmetry_space_group_name_H-M   'P -1'
_symmetry_Int_Tables_number      2
_space_group_name_Hall           '-P 1'
loop_
_symmetry_equiv_pos_site_id
_symmetry_equiv_pos_as_xyz
1 x,y,z
2 -x,-y,-z
_cell_length_a                   10.372(3)
_cell_length_b                   12.224(3)
_cell_length_c                   12.614(3)
_cell_angle_alpha                95.448(4)
_cell_angle_beta                 101.751(4)
_cell_angle_gamma                90.072(5)
_cell_volume                     1558.36
_exptl_crystal_colour            colorless
_exptl_crystal_description       prismatic
_cell_formula_units_Z            4
_exptl_crystal_recrystallization_method chloroform/ethanol
loop_
_atom_site_label
_atom_site_type_symbol
_atom_site_fract_x
_atom_site_fract_y
_atom_site_fract_z
O1 O 0.1158(3) 0.8635(2) 1.0960(2)
O2 O 0.3954(2) 1.10098(17) 0.88844(18)
N1 N 0.2844(2) 0.94229(17) 0.89296(17)
N2 N 0.2334(2) 1.01888(18) 1.09531(17)
C1 C 0.1276(3) 1.0369(3) 0.7060(3)
H1 H 0.0870 1.0563 0.6351
H2 H 0.1741 1.0998 0.7480
H3 H 0.0610 1.0128 0.7420
C2 C 0.2224(3) 0.9460(2) 0.6951(2)
C3 C 0.2397(3) 0.9023(3) 0.5933(3)
H4 H 0.1916 0.9308 0.5319
C4 C 0.3241(4) 0.8196(3) 0.5798(3)
H5 H 0.3342 0.7935 0.5103
C5 C 0.3941(3) 0.7749(3) 0.6686(3)
H6 H 0.4513 0.7178 0.6595
C6 C 0.3798(3) 0.8143(2) 0.7717(2)
H7 H 0.4261 0.7830 0.8322
C7 C 0.2956(2) 0.9010(2) 0.7847(2)
C8 C 0.2453(4) 0.8638(2) 0.9617(2)
H8 H 0.3212 0.8212 0.9900
H9 H 0.1793 0.8134 0.9172
C9 C 0.1905(3) 0.9167(2) 1.0560(2)
C10 C 0.3336(3) 1.0733(2) 1.0521(3)
H10 H 0.4189 1.0597 1.0965
H11 H 0.3200 1.1519 1.0604
C11 C 0.3391(3) 1.0411(2) 0.9369(2)
C12 C 0.2044(3) 1.0711(2) 1.1943(2)
C13 C 0.1139(3) 1.1546(3) 1.1872(3)
H12 H 0.0694 1.1723 1.1194
C14 C 0.0898(4) 1.2110(3) 1.2801(4)
H13 H 0.0296 1.2676 1.2761
C15 C 0.1565(4) 1.1826(3) 1.3799(3)
H14 H 0.1399 1.2197 1.4435
C16 C 0.2455(4) 1.1013(3) 1.3861(3)
H15 H 0.2893 1.0844 1.4544
C17 C 0.2739(3) 1.0422(2) 1.2944(2)
C18 C 0.3728(4) 0.9545(3) 1.3020(3)
H16 H 0.4095 0.9468 1.3771
H17 H 0.4417 0.9734 1.2660
H18 H 0.3313 0.8863 1.2677
O3 O 0.4357(3) 0.3658(2) 1.09978(19)
O4 O 0.0507(2) 0.60288(17) 0.89561(18)
N3 N 0.1648(2) 0.44417(17) 0.89936(17)
N4 N 0.3166(2) 0.52053(18) 1.10136(18)
C19 C 0.2300(3) 0.5434(3) 0.7155(3)
H19 H 0.2370 0.5636 0.6451
H20 H 0.3145 0.5209 0.7529
H21 H 0.2013 0.6052 0.7568
C20 C 0.1324(3) 0.4503(2) 0.7023(2)
C21 C 0.0676(3) 0.4068(3) 0.6000(3)
H22 H 0.0863 0.4363 0.5394
C22 C -0.0226(3) 0.3226(3) 0.5843(3)
H23 H -0.0659 0.2970 0.5143
C23 C -0.0491(3) 0.2759(3) 0.6719(3)
H24 H -0.1099 0.2179 0.6616
C24 C 0.0137(3) 0.3146(2) 0.7751(2)
H25 H -0.0027 0.2816 0.8347
C25 C 0.1021(2) 0.4035(2) 0.7908(2)
C26 C 0.2367(3) 0.3655(2) 0.9690(2)
H26 H 0.2784 0.3132 0.9246
H27 H 0.1742 0.3250 0.9988
C27 C 0.3405(3) 0.4175(2) 1.0615(2)
C28 C 0.1939(3) 0.5736(2) 1.0600(2)
H28 H 0.2102 0.6524 1.0696
H29 H 0.1315 0.5577 1.1046
C29 C 0.1303(3) 0.5425(2) 0.9440(2)
C30 C 0.3981(3) 0.5732(2) 1.1992(2)
C31 C 0.4855(3) 0.6552(3) 1.1891(3)
H30 H 0.4938 0.6731 1.1207
C32 C 0.5601(3) 0.7100(3) 1.2818(3)
H31 H 0.6195 0.7651 1.2763
C33 C 0.5469(4) 0.6833(3) 1.3824(3)
H32 H 0.5977 0.7201 1.4449
C34 C 0.4592(3) 0.6025(3) 1.3909(3)
H33 H 0.4512 0.5855 1.4596
C35 C 0.3822(3) 0.5453(2) 1.3000(2)
C36 C 0.2845(4) 0.4589(3) 1.3101(3)
H34 H 0.2875 0.4514 1.3857
H35 H 0.3055 0.3901 1.2749
H36 H 0.1977 0.4797 1.2764
loop_
_geom_bond_atom_site_label_1
_geom_bond_atom_site_label_2
_geom_bond_site_symmetry_1
_geom_bond_site_symmetry_2
O1 C9 1_555 1_555
O2 C11 1_555 1_555
O3 C27 1_555 1_555
O4 C29 1_555 1_555
N1 C7 1_555 1_555
N2 C9 1_555 1_555
N3 C25 1_555 1_555
N4 C27 1_555 1_555
C1 H1 1_555 1_555
H2 C1 1_555 1_555
H3 C1 1_555 1_555
C2 C1 1_555 1_555
C3 C2 1_555 1_555
H4 C3 1_555 1_555
C4 C3 1_555 1_555
H5 C4 1_555 1_555
C5 C4 1_555 1_555
H6 C5 1_555 1_555
C6 C5 1_555 1_555
H7 C6 1_555 1_555
C7 C2 1_555 1_555
C8 N1 1_555 1_555
H8 C8 1_555 1_555
H9 C8 1_555 1_555
C9 C8 1_555 1_555
C10 N2 1_555 1_555
H10 C10 1_555 1_555
H11 C10 1_555 1_555
C11 N1 1_555 1_555
C12 N2 1_555 1_555
C13 C12 1_555 1_555
H12 C13 1_555 1_555
C14 C13 1_555 1_555
H13 C14 1_555 1_555
C15 C14 1_555 1_555
H14 C15 1_555 1_555
C16 C15 1_555 1_555
H15 C16 1_555 1_555
C17 C12 1_555 1_555
C18 C17 1_555 1_555
H16 C18 1_555 1_555
H17 C18 1_555 1_555
H18 C18 1_555 1_555
C19 H19 1_555 1_555
H20 C19 1_555 1_555
H21 C19 1_555 1_555
C20 C19 1_555 1_555
C21 C20 1_555 1_555
H22 C21 1_555 1_555
C22 C21 1_555 1_555
H23 C22 1_555 1_555
C23 C22 1_555 1_555
H24 C23 1_555 1_555
C24 C23 1_555 1_555
H25 C24 1_555 1_555
C25 C20 1_555 1_555
C26 N3 1_555 1_555
H26 C26 1_555 1_555
H27 C26 1_555 1_555
C27 C26 1_555 1_555
C28 N4 1_555 1_555
H28 C28 1_555 1_555
H29 C28 1_555 1_555
C29 N3 1_555 1_555
C30 N4 1_555 1_555
C31 C30 1_555 1_555
H30 C31 1_555 1_555
C32 C31 1_555 1_555
H31 C32 1_555 1_555
C33 C32 1_555 1_555
H32 C33 1_555 1_555
C34 C33 1_555 1_555
H33 C34 1_555 1_555
C35 C30 1_555 1_555
C36 C35 1_555 1_555
H34 C36 1_555 1_555
H35 C36 1_555 1_555
H36 C36 1_555 1_555
C6 C7 1_555 1_555
C10 C11 1_555 1_555
C16 C17 1_555 1_555
C24 C25 1_555 1_555
C28 C29 1_555 1_555
C34 C35 1_555 1_555

#END
