
#######################################################################
#
#                 Cambridge Crystallographic Data Centre
#                                CCDC 
#
#######################################################################
#
# If this CIF has been generated from an entry in the Cambridge 
# Structural Database, then it will include bibliographic, chemical, 
# crystal, experimental, refinement or atomic coordinate data resulting 
# from the CCDC's data processing and validation procedures.
#
#######################################################################

data_JEMYIJ
_chemical_formula_moiety         'C28 H26 N1 O7 P1 S1'
_chemical_name_systematic        
Dibenzo-(phenyl-(N-phenylsulfonyl)iminophosphonyl)-14-crown-5
_symmetry_cell_setting           monoclinic
_symmetry_space_group_name_H-M   'P 1 1 21/b'
_symmetry_Int_Tables_number      14
_space_group_name_Hall           '-P 2bc'
loop_
_symmetry_equiv_pos_site_id
_symmetry_equiv_pos_as_xyz
1 x,y,z
2 -x,1/2-y,1/2+z
3 -x,-y,-z
4 x,1/2+y,1/2-z
_cell_length_a                   11.184(3)
_cell_length_b                   15.893(4)
_cell_length_c                   16.036(4)
_cell_angle_alpha                90
_cell_angle_beta                 90
_cell_angle_gamma                66.15(3)
_cell_volume                     2606.96
_exptl_crystal_colour            colorless
_cell_formula_units_Z            4
loop_
_atom_site_label
_atom_site_type_symbol
_atom_site_fract_x
_atom_site_fract_y
_atom_site_fract_z
P1 P 0.2563(1) 0.4493(1) 0.7539(1)
S1 S -0.0097(1) 0.5773(1) 0.7711(1)
O1 O -0.1284(4) 0.5640(4) 0.7753(4)
O2 O 0.0037(5) 0.6330(3) 0.7045(3)
O3 O 0.2903(4) 0.4846(3) 0.6681(3)
O4 O 0.5044(4) 0.4144(3) 0.5817(3)
O5 O 0.7263(5) 0.3490(3) 0.6789(3)
O6 O 0.5887(4) 0.4245(3) 0.8238(3)
O7 O 0.3316(4) 0.4925(3) 0.8118(3)
N1 N 0.1092(4) 0.4780(3) 0.7745(3)
C1 C 0.3358(5) 0.3261(3) 0.7588(4)
C2 C 0.4668(6) 0.2837(4) 0.7403(4)
C3 C 0.5284(6) 0.1892(4) 0.7468(4)
C4 C 0.4559(7) 0.1383(4) 0.7715(4)
C5 C 0.3234(7) 0.1838(5) 0.7899(5)
C6 C 0.2621(6) 0.2775(4) 0.7839(4)
C7 C 0.0023(6) 0.6309(4) 0.8671(4)
C8 C 0.0682(7) 0.6871(5) 0.8674(5)
C9 C 0.0776(8) 0.7283(5) 0.9414(6)
C10 C 0.0215(8) 0.7119(6) 1.0121(6)
C11 C -0.0417(9) 0.6550(6) 1.0116(5)
C12 C -0.0516(7) 0.6133(5) 0.9392(5)
C13 C 0.2833(7) 0.4430(4) 0.5901(4)
C14 C 0.3999(6) 0.4070(4) 0.5460(5)
C15 C 0.3978(7) 0.3658(5) 0.4701(5)
C16 C 0.2823(8) 0.3679(5) 0.4387(5)
C17 C 0.1678(7) 0.4059(5) 0.4824(5)
C18 C 0.1669(7) 0.4456(5) 0.5618(4)
C19 C 0.6307(8) 0.3666(6) 0.5455(5)
C20 C 0.7239(8) 0.3901(6) 0.5958(5)
C21 C 0.7772(6) 0.3916(5) 0.7400(5)
C22 C 0.7288(7) 0.3751(5) 0.8224(5)
C23 C 0.5248(6) 0.4167(4) 0.8923(4)
C24 C 0.3889(6) 0.4508(4) 0.8878(4)
C25 C 0.3118(6) 0.4496(4) 0.9544(4)
C26 C 0.3735(7) 0.4097(5) 1.0288(5)
C27 C 0.5070(7) 0.3716(5) 1.0341(5)
C28 C 0.5830(6) 0.3754(5) 0.9687(6)
H1 H 0.522(2) 0.320(1) 0.721(1)
H2 H 0.641(2) 0.152(1) 0.736(1)
H3 H 0.496(2) 0.074(1) 0.779(1)
H4 H 0.286(2) 0.138(1) 0.796(1)
H5 H 0.151(2) 0.320(1) 0.802(1)
H6 H 0.102(2) 0.710(1) 0.814(1)
H7 H 0.129(2) 0.768(1) 0.944(1)
H8 H 0.030(2) 0.750(1) 1.062(1)
H9 H -0.087(2) 0.643(1) 1.070(1)
H10 H -0.118(2) 0.583(1) 0.919(1)
H11 H 0.495(2) 0.334(1) 0.440(1)
H12 H 0.277(2) 0.336(1) 0.388(1)
H14 H 0.075(2) 0.473(1) 0.603(1)
H15 H 0.606(2) 0.333(1) 0.536(1)
H16 H 0.651(2) 0.350(1) 0.495(1)
H17 H 0.828(2) 0.365(1) 0.566(1)
H19 H 0.883(2) 0.358(1) 0.745(1)
H20 H 0.764(2) 0.458(1) 0.722(1)
H21 H 0.746(2) 0.302(1) 0.831(1)
H22 H 0.772(2) 0.399(1) 0.863(1)
H23 H 0.202(2) 0.479(1) 0.952(1)
H24 H 0.319(2) 0.399(1) 1.082(1)
H25 H 0.574(2) 0.337(1) 1.087(1)
H26 H 0.680(2) 0.350(1) 0.977(1)
H13? H 0.721(2) 0.405(1) 0.480(1)
H18? H 0.731(2) 0.371(1) 0.630(1)
loop_
_geom_bond_atom_site_label_1
_geom_bond_atom_site_label_2
_geom_bond_site_symmetry_1
_geom_bond_site_symmetry_2
P1 O3 1_555 1_555
S1 O1 1_555 1_555
O2 S1 1_555 1_555
O3 C13 1_555 1_555
O4 C14 1_555 1_555
O5 C20 1_555 1_555
O6 C22 1_555 1_555
O7 P1 1_555 1_555
N1 P1 1_555 1_555
C1 P1 1_555 1_555
C2 C1 1_555 1_555
C3 C2 1_555 1_555
C4 C3 1_555 1_555
C5 C4 1_555 1_555
C6 C1 1_555 1_555
C7 S1 1_555 1_555
C8 C7 1_555 1_555
C9 C8 1_555 1_555
C10 C9 1_555 1_555
C11 C10 1_555 1_555
C12 C7 1_555 1_555
C13 C14 1_555 1_555
C14 C15 1_555 1_555
C15 C16 1_555 1_555
C16 C17 1_555 1_555
C17 C18 1_555 1_555
C18 C13 1_555 1_555
C19 O4 1_555 1_555
C20 C19 1_555 1_555
C21 O5 1_555 1_555
C22 C21 1_555 1_555
C23 O6 1_555 1_555
C24 O7 1_555 1_555
C25 C24 1_555 1_555
C26 C25 1_555 1_555
C27 C26 1_555 1_555
C28 C23 1_555 1_555
H1 C2 1_555 1_555
H2 C3 1_555 1_555
H3 C4 1_555 1_555
H4 C5 1_555 1_555
H5 C6 1_555 1_555
H6 C8 1_555 1_555
H7 C9 1_555 1_555
H8 C10 1_555 1_555
H9 C11 1_555 1_555
H10 C12 1_555 1_555
H11 C15 1_555 1_555
H12 C16 1_555 1_555
H14 C18 1_555 1_555
H15 C19 1_555 1_555
H16 C19 1_555 1_555
H17 C20 1_555 1_555
H19 C21 1_555 1_555
H20 C21 1_555 1_555
H21 C22 1_555 1_555
H22 C22 1_555 1_555
H23 C25 1_555 1_555
H24 C26 1_555 1_555
H25 C27 1_555 1_555
H26 C28 1_555 1_555
S1 N1 1_555 1_555
C5 C6 1_555 1_555
C11 C12 1_555 1_555
C23 C24 1_555 1_555
C27 C28 1_555 1_555

#END
