
#######################################################################
#
#                 Cambridge Crystallographic Data Centre
#                                CCDC 
#
#######################################################################
#
# If this CIF has been generated from an entry in the Cambridge 
# Structural Database, then it will include bibliographic, chemical, 
# crystal, experimental, refinement or atomic coordinate data resulting 
# from the CCDC's data processing and validation procedures.
#
#######################################################################

data_JENGIV
_chemical_formula_moiety         'C17 H13 Br1 N3 S1 1+,Br3 1-'
_chemical_name_systematic        
'6-(bromomethylidene)-2,3-diphenyl-5,6-dihydro[1,3]thiazolo[3,2-b][1,2,4]triazol-3-ium tribromide'
_symmetry_cell_setting           monoclinic
_symmetry_space_group_name_H-M   'P 21/n'
_symmetry_Int_Tables_number      14
_space_group_name_Hall           '-P 2yn'
loop_
_symmetry_equiv_pos_site_id
_symmetry_equiv_pos_as_xyz
1 x,y,z
2 1/2-x,1/2+y,1/2-z
3 -x,-y,-z
4 1/2+x,1/2-y,1/2+z
_cell_length_a                   12.1614(12)
_cell_length_b                   7.2386(4)
_cell_length_c                   24.0202(17)
_cell_angle_alpha                90
_cell_angle_beta                 102.896(8)
_cell_angle_gamma                90
_cell_volume                     2061.2
_exptl_crystal_description       needle
_cell_formula_units_Z            4
loop_
_atom_site_label
_atom_site_type_symbol
_atom_site_fract_x
_atom_site_fract_y
_atom_site_fract_z
Br1 Br 0.21091(10) 0.31054(11) 0.38764(3)
S1 S 0.18727(16) 0.3098(2) 0.59340(8)
N1 N 0.4848(5) 0.2932(6) 0.5697(2)
N2 N 0.4150(5) 0.2989(6) 0.6477(2)
N3 N 0.3719(4) 0.3034(6) 0.5580(2)
C1 C 0.5108(5) 0.2900(7) 0.6266(3)
C2 C 0.3285(5) 0.3090(6) 0.6038(3)
C3 C 0.1729(7) 0.3092(9) 0.5146(3)
H1 H 0.1297 0.2025 0.4978
H2 H 0.1340 0.4198 0.4980
C4 C 0.2894(6) 0.3026(8) 0.5030(3)
C5 C 0.6289(6) 0.2787(7) 0.6588(3)
C6 C 0.6619(6) 0.3640(8) 0.7096(3)
H3 H 0.6102 0.4254 0.7263
C7 C 0.7766(7) 0.3574(9) 0.7365(3)
H4 H 0.8014 0.4182 0.7712
C8 C 0.8533(8) 0.2634(9) 0.7130(3)
H5 H 0.9282 0.2523 0.7325
C9 C 0.8176(7) 0.1896(11) 0.6621(4)
H6 H 0.8706 0.1344 0.6449
C10 C 0.7087(7) 0.1894(9) 0.6334(3)
H7 H 0.6869 0.1323 0.5979
C11 C 0.4071(5) 0.3006(9) 0.7072(3)
C12 C 0.3633(6) 0.4508(10) 0.7274(3)
H8 H 0.3388 0.5518 0.7040
C13 C 0.3558(7) 0.4501(13) 0.7849(4)
H9 H 0.3287 0.5547 0.7999
C14 C 0.3867(8) 0.3014(14) 0.8193(4)
H10 H 0.3765 0.3009 0.8565
C15 C 0.4328(7) 0.1533(13) 0.7982(3)
H11 H 0.4569 0.0544 0.8226
C16 C 0.4465(6) 0.1407(9) 0.7409(3)
H12 H 0.4780 0.0387 0.7267
C17 C 0.3219(8) 0.3093(10) 0.4559(3)
H13 H 0.3981 0.3133 0.4555
Br2 Br 0.89881(9) 0.19530(13) 0.52259(6)
Br3 Br 0.71755(7) 0.19910(9) 0.44680(3)
Br4 Br 0.53226(10) 0.20921(11) 0.37092(4)
loop_
_geom_bond_atom_site_label_1
_geom_bond_atom_site_label_2
_geom_bond_site_symmetry_1
_geom_bond_site_symmetry_2
Br1 C17 1_555 1_555
S1 C2 1_555 1_555
N1 N3 1_555 1_555
N2 C1 1_555 1_555
N3 C2 1_555 1_555
C1 N1 1_555 1_555
C2 N2 1_555 1_555
C3 S1 1_555 1_555
H1 C3 1_555 1_555
H2 C3 1_555 1_555
C4 N3 1_555 1_555
C5 C1 1_555 1_555
C6 C5 1_555 1_555
H3 C6 1_555 1_555
C7 C6 1_555 1_555
H4 C7 1_555 1_555
C8 C7 1_555 1_555
H5 C8 1_555 1_555
C9 C8 1_555 1_555
H6 C9 1_555 1_555
C10 C5 1_555 1_555
H7 C10 1_555 1_555
C11 N2 1_555 1_555
C12 C11 1_555 1_555
H8 C12 1_555 1_555
C13 C12 1_555 1_555
H9 C13 1_555 1_555
C14 C13 1_555 1_555
H10 C14 1_555 1_555
C15 C14 1_555 1_555
H11 C15 1_555 1_555
C16 C11 1_555 1_555
H12 C16 1_555 1_555
C17 C4 1_555 1_555
H13 C17 1_555 1_555
Br2 Br3 1_555 1_555
Br3 Br4 1_555 1_555
C3 C4 1_555 1_555
C9 C10 1_555 1_555
C15 C16 1_555 1_555

#END
