
#######################################################################
#
#                 Cambridge Crystallographic Data Centre
#                                CCDC 
#
#######################################################################
#
# If this CIF has been generated from an entry in the Cambridge 
# Structural Database, then it will include bibliographic, chemical, 
# crystal, experimental, refinement or atomic coordinate data resulting 
# from the CCDC's data processing and validation procedures.
#
#######################################################################

data_JENLEW
_chemical_formula_moiety         'C21 H21 N3 O1'
_chemical_name_systematic        
4'-methoxy-3-methyl-5-(piperidin-1-yl)biphenyl-2,4-dicarbonitrile
_symmetry_cell_setting           orthorhombic
_symmetry_space_group_name_H-M   'P b c a'
_symmetry_Int_Tables_number      61
_space_group_name_Hall           '-P 2ac 2ab'
loop_
_symmetry_equiv_pos_site_id
_symmetry_equiv_pos_as_xyz
1 x,y,z
2 1/2-x,-y,1/2+z
3 1/2+x,1/2-y,-z
4 -x,1/2+y,1/2-z
5 -x,-y,-z
6 1/2+x,y,1/2-z
7 1/2-x,1/2+y,z
8 x,1/2-y,1/2+z
_cell_length_a                   7.525(3)
_cell_length_b                   15.738(6)
_cell_length_c                   29.646(6)
_cell_angle_alpha                90
_cell_angle_beta                 90
_cell_angle_gamma                90
_cell_volume                     3510.93
_exptl_crystal_colour            yellow
_exptl_crystal_description       needle
_cell_formula_units_Z            8
loop_
_atom_site_label
_atom_site_type_symbol
_atom_site_fract_x
_atom_site_fract_y
_atom_site_fract_z
O1 O 0.0629(5) 0.14163(18) 0.14727(9)
N1 N -0.0563(5) 0.1815(2) -0.14398(11)
C1 C 0.0456(6) 0.2711(2) -0.03092(13)
C2 C -0.0130(6) 0.2882(3) 0.05236(13)
H1 H -0.0559 0.3426 0.0466
C3 C 0.1088(6) 0.1582(2) 0.02670(14)
H2 H 0.1488 0.1233 0.0035
C4 C 0.0474(6) 0.2393(2) 0.01633(13)
C5 C 0.0999(6) 0.3528(2) -0.04277(14)
C6 C -0.0116(6) 0.2586(3) 0.09674(14)
H3 H -0.0535 0.2927 0.1201
C7 C -0.0058(5) 0.2382(2) -0.11012(14)
C8 C 0.0411(6) 0.3227(3) -0.12096(14)
C9 C -0.0036(5) 0.2148(2) -0.06469(14)
H4 H -0.0362 0.1597 -0.0568
C10 C 0.1657(6) 0.4103(3) -0.00893(15)
C11 C 0.0528(6) 0.1782(3) 0.10559(14)
C12 C 0.0953(6) 0.3797(2) -0.08782(14)
C13 C 0.1120(6) 0.1279(3) 0.07039(14)
H5 H 0.1543 0.0735 0.0762
C14 C 0.0205(7) 0.3545(3) -0.16604(16)
C15 C -0.1371(6) 0.1013(2) -0.12990(14)
H6 H -0.2207 0.1119 -0.1056
H7 H -0.0455 0.0635 -0.1186
C16 C -0.2323(7) 0.0591(3) -0.16862(15)
H8 H -0.3339 0.0935 -0.1771
H9 H -0.2763 0.0042 -0.1588
C17 C -0.0275(7) 0.1310(3) -0.22234(14)
H10 H 0.0564 0.1221 -0.2467
H11 H -0.1178 0.1705 -0.2327
C18 C -0.1135(7) 0.0469(3) -0.20944(16)
H12 H -0.1833 0.0257 -0.2345
H13 H -0.0222 0.0054 -0.2026
N2 N 0.0034(7) 0.3809(3) -0.20175(14)
C19 C 0.0681(6) 0.1677(3) -0.18163(15)
H14 H 0.1612 0.1290 -0.1722
H15 H 0.1231 0.2213 -0.1898
C20 C 0.1488(6) 0.4694(2) -0.10002(15)
H16 H 0.1821 0.4996 -0.0732
H17 H 0.2477 0.4678 -0.1204
H18 H 0.0506 0.4977 -0.1142
C21 C 0.0321(8) 0.1927(3) 0.18597(14)
H19 H 0.0437 0.1585 0.2126
H20 H 0.1173 0.2380 0.1868
H21 H -0.0857 0.2160 0.1846
N3 N 0.2187(6) 0.4579(2) 0.01705(14)
loop_
_geom_bond_atom_site_label_1
_geom_bond_atom_site_label_2
_geom_bond_site_symmetry_1
_geom_bond_site_symmetry_2
O1 C11 1_555 1_555
N1 C7 1_555 1_555
C1 C4 1_555 1_555
C2 H1 1_555 1_555
C3 H2 1_555 1_555
C4 C2 1_555 1_555
C5 C1 1_555 1_555
C6 C2 1_555 1_555
H3 C6 1_555 1_555
C7 C8 1_555 1_555
C8 C12 1_555 1_555
C9 C1 1_555 1_555
H4 C9 1_555 1_555
C10 C5 1_555 1_555
C11 C6 1_555 1_555
C12 C5 1_555 1_555
C13 C3 1_555 1_555
H5 C13 1_555 1_555
C14 C8 1_555 1_555
C15 N1 1_555 1_555
H6 C15 1_555 1_555
H7 C15 1_555 1_555
C16 C15 1_555 1_555
H8 C16 1_555 1_555
H9 C16 1_555 1_555
C17 H10 1_555 1_555
H11 C17 1_555 1_555
C18 C16 1_555 1_555
H12 C18 1_555 1_555
H13 C18 1_555 1_555
N2 C14 1_555 1_555
C19 N1 1_555 1_555
H14 C19 1_555 1_555
H15 C19 1_555 1_555
C20 C12 1_555 1_555
H16 C20 1_555 1_555
H17 C20 1_555 1_555
H18 C20 1_555 1_555
C21 O1 1_555 1_555
H19 C21 1_555 1_555
H20 C21 1_555 1_555
H21 C21 1_555 1_555
N3 C10 1_555 1_555
C3 C4 1_555 1_555
C7 C9 1_555 1_555
C11 C13 1_555 1_555
C17 C18 1_555 1_555
C17 C19 1_555 1_555

#END
