
#######################################################################
#
#                 Cambridge Crystallographic Data Centre
#                                CCDC 
#
#######################################################################
#
# If this CIF has been generated from an entry in the Cambridge 
# Structural Database, then it will include bibliographic, chemical, 
# crystal, experimental, refinement or atomic coordinate data resulting 
# from the CCDC's data processing and validation procedures.
#
#######################################################################

data_JENMUN
_chemical_formula_moiety         'C17 H18 N2 O6,C6 H6 N2 O1'
_chemical_name_systematic        
'dimethyl 2,6-dimethyl-4-(2-nitrophenyl)-1,4-dihydropyridine-3,5-dicarboxylate pyridine-4-carboxamide'
_symmetry_cell_setting           monoclinic
_symmetry_space_group_name_H-M   'P 21/n'
_symmetry_Int_Tables_number      14
_space_group_name_Hall           '-P 2yn'
loop_
_symmetry_equiv_pos_site_id
_symmetry_equiv_pos_as_xyz
1 x,y,z
2 1/2-x,1/2+y,1/2-z
3 -x,-y,-z
4 1/2+x,1/2-y,1/2+z
_cell_length_a                   7.9427(16)
_cell_length_b                   12.732(3)
_cell_length_c                   22.382(4)
_cell_angle_alpha                90
_cell_angle_beta                 90.080(5)
_cell_angle_gamma                90
_cell_volume                     2263.41
_exptl_crystal_colour            yellow
_exptl_crystal_description       block
_cell_formula_units_Z            4
loop_
_atom_site_label
_atom_site_type_symbol
_atom_site_fract_x
_atom_site_fract_y
_atom_site_fract_z
O1 O 1.1105(2) 0.61399(14) 0.82333(8)
O2 O 1.0307(3) 0.13948(14) 0.77217(9)
O3 O 1.0715(3) 0.24068(15) 0.85216(8)
N1 N 0.8384(3) 0.40252(15) 0.68072(9)
H1 H 0.7720 0.3970 0.6494
O4 O 1.1082(3) 0.44630(19) 0.92234(9)
O5 O 1.0316(3) 0.69622(15) 0.73997(10)
N2 N 0.9961(4) 0.5118(2) 0.92445(10)
O6 O 1.0085(4) 0.59635(18) 0.95039(10)
C1 C 0.9655(3) 0.42463(17) 0.79757(10)
H2 H 1.0729 0.4279 0.8208
C2 C 0.9636(3) 0.51449(18) 0.75230(11)
C3 C 0.8186(3) 0.43925(17) 0.84037(11)
C4 C 0.9567(3) 0.31974(18) 0.76555(11)
C5 C 0.8850(3) 0.31176(18) 0.71054(11)
C6 C 0.8915(3) 0.50130(18) 0.69793(11)
C7 C 1.0236(3) 0.2318(2) 0.80095(12)
C8 C 1.0347(3) 0.6165(2) 0.76943(12)
C9 C 0.8306(3) 0.48767(19) 0.89601(11)
C10 C 0.6562(3) 0.41266(19) 0.82144(12)
H3 H 0.6422 0.3783 0.7841
C11 C 0.8471(4) 0.2156(2) 0.67440(13)
H4 H 0.7431 0.2266 0.6516
H5 H 0.8333 0.1553 0.7011
H6 H 0.9402 0.2021 0.6468
C12 C 0.8657(4) 0.5834(2) 0.65043(13)
H7 H 0.9751 0.6050 0.6344
H8 H 0.8085 0.6444 0.6678
H9 H 0.7965 0.5542 0.6181
C13 C 0.5164(4) 0.4348(2) 0.85523(15)
H10 H 0.4079 0.4141 0.8417
C14 C 0.6925(4) 0.5131(2) 0.92973(14)
H11 H 0.7055 0.5482 0.9669
C15 C 0.5340(4) 0.4871(2) 0.90883(15)
H12 H 0.4371 0.5052 0.9314
C16 C 1.1794(4) 0.7120(2) 0.84480(15)
H13 H 1.2599 0.7394 0.8156
H14 H 1.2369 0.7001 0.8830
H15 H 1.0881 0.7628 0.8504
C17 C 1.0937(4) 0.0515(2) 0.80613(15)
H16 H 1.1059 -0.0095 0.7798
H17 H 1.0145 0.0347 0.8383
H18 H 1.2035 0.0695 0.8234
O7 O 0.6505(3) 0.38951(17) 0.56944(9)
N3 N 0.6928(3) 0.31435(19) 0.48051(12)
H19 H 0.8029 0.3174 0.4845
H20 H 0.6483 0.2871 0.4480
C18 C 0.4094(3) 0.34251(18) 0.51260(11)
N4 N 0.0606(3) 0.3283(2) 0.50061(13)
C19 C 0.3350(3) 0.27147(19) 0.47377(12)
H21 H 0.4028 0.2261 0.4502
C20 C 0.5952(3) 0.3504(2) 0.52283(12)
C21 C 0.1625(3) 0.2671(2) 0.46965(14)
H22 H 0.1139 0.2174 0.4431
C22 C 0.3039(4) 0.4069(2) 0.54423(13)
H23 H 0.3484 0.4575 0.5711
C23 C 0.1345(4) 0.3974(3) 0.53661(16)
H24 H 0.0640 0.4435 0.5586
loop_
_geom_bond_atom_site_label_1
_geom_bond_atom_site_label_2
_geom_bond_site_symmetry_1
_geom_bond_site_symmetry_2
O1 C8 1_555 1_555
O2 C7 1_555 1_555
O3 C7 1_555 1_555
N1 H1 1_555 1_555
O4 N2 1_555 1_555
O5 C8 1_555 1_555
N2 O6 1_555 1_555
C1 H2 1_555 1_555
C2 C1 1_555 1_555
C3 C1 1_555 1_555
C4 C1 1_555 1_555
C5 N1 1_555 1_555
C6 N1 1_555 1_555
C7 C4 1_555 1_555
C8 C2 1_555 1_555
C9 N2 1_555 1_555
C10 C3 1_555 1_555
H3 C10 1_555 1_555
C11 C5 1_555 1_555
H4 C11 1_555 1_555
H5 C11 1_555 1_555
H6 C11 1_555 1_555
C12 C6 1_555 1_555
H7 C12 1_555 1_555
H8 C12 1_555 1_555
H9 C12 1_555 1_555
C13 C10 1_555 1_555
H10 C13 1_555 1_555
C14 C9 1_555 1_555
H11 C14 1_555 1_555
C15 C13 1_555 1_555
H12 C15 1_555 1_555
C16 O1 1_555 1_555
H13 C16 1_555 1_555
H14 C16 1_555 1_555
H15 C16 1_555 1_555
C17 O2 1_555 1_555
H16 C17 1_555 1_555
H17 C17 1_555 1_555
H18 C17 1_555 1_555
O7 C20 1_555 1_555
N3 H19 1_555 1_555
H20 N3 1_555 1_555
C18 C19 1_555 1_555
N4 C21 1_555 1_555
C19 H21 1_555 1_555
C20 N3 1_555 1_555
C21 C19 1_555 1_555
H22 C21 1_555 1_555
C22 C18 1_555 1_555
H23 C22 1_555 1_555
C23 N4 1_555 1_555
H24 C23 1_555 1_555
C2 C6 1_555 1_555
C3 C9 1_555 1_555
C4 C5 1_555 1_555
C14 C15 1_555 1_555
C18 C20 1_555 1_555
C22 C23 1_555 1_555

#END
