
#######################################################################
#
#                 Cambridge Crystallographic Data Centre
#                                CCDC 
#
#######################################################################
#
# If this CIF has been generated from an entry in the Cambridge 
# Structural Database, then it will include bibliographic, chemical, 
# crystal, experimental, refinement or atomic coordinate data resulting 
# from the CCDC's data processing and validation procedures.
#
#######################################################################

data_JEPBEO
_chemical_formula_moiety         'C24 H18 Br1 N1 O1 S1'
_chemical_name_systematic        
9-benzyl-6-bromo-4-phenyl-4,9-dihydrothiopyrano[2,3-b]indol-2(3H)-one
_symmetry_cell_setting           monoclinic
_symmetry_space_group_name_H-M   'C 2/c'
_symmetry_Int_Tables_number      15
_space_group_name_Hall           '-C 2yn'
loop_
_symmetry_equiv_pos_site_id
_symmetry_equiv_pos_as_xyz
1 x,y,z
2 -x,y,1/2-z
3 1/2+x,1/2+y,z
4 1/2-x,1/2+y,1/2-z
5 -x,-y,-z
6 x,-y,1/2+z
7 1/2-x,1/2-y,-z
8 1/2+x,1/2-y,1/2+z
_cell_length_a                   21.887(8)
_cell_length_b                   9.836(3)
_cell_length_c                   21.186(8)
_cell_angle_alpha                90
_cell_angle_beta                 120.152(4)
_cell_angle_gamma                90
_cell_volume                     3943.82
_exptl_crystal_colour            colorless
_exptl_crystal_description       block
_cell_formula_units_Z            8
loop_
_atom_site_label
_atom_site_type_symbol
_atom_site_fract_x
_atom_site_fract_y
_atom_site_fract_z
Br1 Br 0.40916(2) 0.67035(4) 0.64476(2)
S1 S 0.73689(5) 0.38473(9) 0.60950(5)
O1 O 0.80947(14) 0.1963(3) 0.70161(15)
N1 N 0.62535(15) 0.5626(3) 0.55648(15)
C1 C 0.58059(17) 0.5346(3) 0.63144(18)
C2 C 0.53257(17) 0.5566(3) 0.65537(18)
H1 H 0.5382 0.5154 0.6975
C3 C 0.47658(17) 0.6416(3) 0.61429(19)
C4 C 0.46662(18) 0.7060(3) 0.55116(19)
H2 H 0.4275 0.7615 0.5248
C5 C 0.51425(18) 0.6879(3) 0.52764(19)
H3 H 0.5084 0.7313 0.4860
C6 C 0.57156(17) 0.6024(3) 0.56841(18)
C7 C 0.66712(17) 0.4704(3) 0.61070(18)
C8 C 0.64240(17) 0.4512(3) 0.65800(18)
C9 C 0.67364(17) 0.3565(3) 0.72174(18)
H4 H 0.6698 0.4009 0.7610
C10 C 0.75316(17) 0.3367(4) 0.74946(19)
H5 H 0.7772 0.4223 0.7695
H6 H 0.7717 0.2711 0.7890
C11 C 0.77083(18) 0.2898(4) 0.6934(2)
C12 C 0.63391(19) 0.6074(3) 0.49557(18)
H7 H 0.5898 0.5934 0.4503
H8 H 0.6698 0.5520 0.4940
C13 C 0.65475(18) 0.7554(3) 0.50126(18)
C14 C 0.6132(2) 0.8452(4) 0.4455(2)
H9 H 0.5722 0.8146 0.4047
C15 C 0.6329(2) 0.9805(4) 0.4505(2)
H10 H 0.6051 1.0402 0.4128
C16 C 0.6929(2) 1.0268(4) 0.5106(2)
H11 H 0.7055 1.1179 0.5138
C17 C 0.7347(2) 0.9386(4) 0.5662(2)
H12 H 0.7755 0.9701 0.6070
C18 C 0.71584(19) 0.8021(4) 0.56153(19)
H13 H 0.7443 0.7425 0.5989
C19 C 0.63505(16) 0.2217(3) 0.70652(18)
C20 C 0.61822(18) 0.1467(3) 0.64423(19)
H14 H 0.6291 0.1818 0.6103
C21 C 0.5856(2) 0.0209(4) 0.6316(2)
H15 H 0.5750 -0.0280 0.5897
C22 C 0.5689(2) -0.0315(4) 0.6815(3)
H16 H 0.5470 -0.1158 0.6734
C23 C 0.5848(2) 0.0410(5) 0.7430(2)
H17 H 0.5738 0.0054 0.7767
C24 C 0.61737(19) 0.1676(4) 0.7556(2)
H18 H 0.6273 0.2162 0.7974
loop_
_geom_bond_atom_site_label_1
_geom_bond_atom_site_label_2
_geom_bond_site_symmetry_1
_geom_bond_site_symmetry_2
Br1 C3 1_555 1_555
S1 C7 1_555 1_555
O1 C11 1_555 1_555
N1 C6 1_555 1_555
C1 C2 1_555 1_555
C2 H1 1_555 1_555
C3 C2 1_555 1_555
C4 C3 1_555 1_555
H2 C4 1_555 1_555
C5 C4 1_555 1_555
H3 C5 1_555 1_555
C6 C1 1_555 1_555
C7 N1 1_555 1_555
C8 C1 1_555 1_555
C9 C8 1_555 1_555
H4 C9 1_555 1_555
C10 C9 1_555 1_555
H5 C10 1_555 1_555
H6 C10 1_555 1_555
C11 S1 1_555 1_555
C12 N1 1_555 1_555
H7 C12 1_555 1_555
H8 C12 1_555 1_555
C13 C12 1_555 1_555
C14 C13 1_555 1_555
H9 C14 1_555 1_555
C15 C14 1_555 1_555
H10 C15 1_555 1_555
C16 C15 1_555 1_555
H11 C16 1_555 1_555
C17 C16 1_555 1_555
H12 C17 1_555 1_555
C18 C13 1_555 1_555
H13 C18 1_555 1_555
C19 C9 1_555 1_555
C20 C19 1_555 1_555
H14 C20 1_555 1_555
C21 C20 1_555 1_555
H15 C21 1_555 1_555
C22 C21 1_555 1_555
H16 C22 1_555 1_555
C23 C22 1_555 1_555
H17 C23 1_555 1_555
C24 C19 1_555 1_555
H18 C24 1_555 1_555
C5 C6 1_555 1_555
C7 C8 1_555 1_555
C10 C11 1_555 1_555
C17 C18 1_555 1_555
C23 C24 1_555 1_555

#END
