
#######################################################################
#
#                 Cambridge Crystallographic Data Centre
#                                CCDC 
#
#######################################################################
#
# If this CIF has been generated from an entry in the Cambridge 
# Structural Database, then it will include bibliographic, chemical, 
# crystal, experimental, refinement or atomic coordinate data resulting 
# from the CCDC's data processing and validation procedures.
#
#######################################################################

data_JEPJOD02
_chemical_formula_moiety         'C14 H10 O3,H2 O1'
_chemical_name_systematic        '2-Benzoylbenzoic acid monohydrate'
_symmetry_cell_setting           triclinic
_symmetry_space_group_name_H-M   'P -1'
_symmetry_Int_Tables_number      2
_space_group_name_Hall           '-P 1'
loop_
_symmetry_equiv_pos_site_id
_symmetry_equiv_pos_as_xyz
1 x,y,z
2 -x,-y,-z
_cell_length_a                   7.751(2)
_cell_length_b                   8.377(2)
_cell_length_c                   10.037(2)
_cell_angle_alpha                75.57(3)
_cell_angle_beta                 83.05(3)
_cell_angle_gamma                86.08(3)
_cell_volume                     626.012
_exptl_crystal_colour            colorless
_exptl_crystal_description       block
_cell_formula_units_Z            2
loop_
_atom_site_label
_atom_site_type_symbol
_atom_site_fract_x
_atom_site_fract_y
_atom_site_fract_z
O1 O 0.3598(2) 0.5468(2) 0.75795(19)
O2 O 0.3546(2) 0.2182(2) 0.63626(17)
O3 O 0.1443(2) 0.0695(2) 0.6029(2)
C1 C 0.3658(5) 0.0594(4) 1.1586(3)
H1 H 0.3881 -0.0208 1.2378
C2 C 0.2080(4) 0.0691(3) 1.1095(3)
H2 H 0.1231 -0.0042 1.1558
C3 C 0.1734(3) 0.1869(3) 0.9917(2)
H3 H 0.0659 0.1919 0.9582
C4 C 0.2988(3) 0.2981(3) 0.9229(2)
C5 C 0.4576(3) 0.2871(3) 0.9760(3)
H4 H 0.5421 0.3621 0.9324
C6 C 0.4923(4) 0.1677(4) 1.0916(3)
H5 H 0.6004 0.1598 1.1245
C7 C 0.2630(3) 0.4317(3) 0.8010(2)
C8 C 0.0967(3) 0.4317(3) 0.7384(2)
C9 C -0.0309(3) 0.5506(3) 0.7589(3)
H6 H -0.0079 0.6297 0.8043
C10 C -0.1915(3) 0.5522(4) 0.7123(3)
H7 H -0.2762 0.6321 0.7267
C11 C -0.2267(3) 0.4363(3) 0.6446(3)
H8 H -0.3356 0.4368 0.6145
C12 C -0.1001(3) 0.3189(3) 0.6214(2)
H9 H -0.1234 0.2416 0.5743
C13 C 0.0614(3) 0.3160(2) 0.6682(2)
C14 C 0.2016(3) 0.1972(3) 0.6350(2)
H12 H 0.229(4) -0.004(4) 0.590(3)
O4 O 0.3734(3) -0.1556(2) 0.5601(2)
H10 H 0.443(5) -0.162(4) 0.499(4)
H11 H 0.369(4) -0.258(4) 0.619(3)
loop_
_geom_bond_atom_site_label_1
_geom_bond_atom_site_label_2
_geom_bond_site_symmetry_1
_geom_bond_site_symmetry_2
O1 C7 1_555 1_555
O2 C14 1_555 1_555
O3 C14 1_555 1_555
C1 H1 1_555 1_555
O4 H10 1_555 1_555
C2 C1 1_555 1_555
H2 C2 1_555 1_555
C3 C2 1_555 1_555
H3 C3 1_555 1_555
C4 C3 1_555 1_555
C5 C4 1_555 1_555
H4 C5 1_555 1_555
C6 C1 1_555 1_555
H5 C6 1_555 1_555
C7 C4 1_555 1_555
C8 C7 1_555 1_555
C9 C8 1_555 1_555
H6 C9 1_555 1_555
C10 C9 1_555 1_555
H7 C10 1_555 1_555
C11 C10 1_555 1_555
H8 C11 1_555 1_555
C12 C11 1_555 1_555
H9 C12 1_555 1_555
C13 C8 1_555 1_555
C14 C13 1_555 1_555
H11 O4 1_555 1_555
H12 O3 1_555 1_555
C5 C6 1_555 1_555
C12 C13 1_555 1_555

#END
