
#######################################################################
#
#                 Cambridge Crystallographic Data Centre
#                                CCDC 
#
#######################################################################
#
# If this CIF has been generated from an entry in the Cambridge 
# Structural Database, then it will include bibliographic, chemical, 
# crystal, experimental, refinement or atomic coordinate data resulting 
# from the CCDC's data processing and validation procedures.
#
#######################################################################

data_JEPMEW
_chemical_name_common            'bis(15-Crown-5)-cesium kalide'
_chemical_formula_moiety         'C20 H40 Cs1 O10 1+,K1 1-'
_chemical_name_systematic        'bis(15-Crown-5)-cesium potassium'
_symmetry_cell_setting           monoclinic
_symmetry_space_group_name_H-M   'C 2/m'
_symmetry_Int_Tables_number      12
_space_group_name_Hall           '-C 2y'
loop_
_symmetry_equiv_pos_site_id
_symmetry_equiv_pos_as_xyz
1 x,y,z
2 1/2+x,1/2+y,z
3 -x,y,-z
4 1/2-x,1/2+y,-z
5 -x,-y,-z
6 1/2-x,1/2-y,-z
7 x,-y,z
8 1/2+x,1/2-y,z
_cell_length_a                   11.537(4)
_cell_length_b                   13.679(3)
_cell_length_c                   10.624(3)
_cell_angle_alpha                90
_cell_angle_beta                 90.12(2)
_cell_angle_gamma                90
_cell_volume                     1676.62
_exptl_crystal_colour            'dark grey'
_cell_formula_units_Z            2
loop_
_atom_site_label
_atom_site_type_symbol
_atom_site_fract_x
_atom_site_fract_y
_atom_site_fract_z
Cs1 Cs 0.5000 0.0000 0.5000
O1 O 0.4754(7) 0.0000 0.2033(8)
O2 O 0.5141(5) -0.1790(4) 0.3301(5)
O3 O 0.7271(5) -0.1056(4) 0.4388(6)
C1 C 0.4117(8) -0.0877(7) 0.1790(8)
C2 C 0.4872(9) -0.1710(7) 0.204(1)
C3 C 0.614(1) -0.2347(6) 0.3558(9)
C4 C 0.7228(8) -0.1789(8) 0.347(1)
C6 C 0.819(1) -0.055(1) 0.384(2)
H1 H 0.391(6) -0.073(5) 0.110(7)
H2 H 0.369(6) -0.075(5) 0.237(7)
H3 H 0.461(6) -0.218(6) 0.179(7)
H4 H 0.543(4) -0.154(4) 0.167(4)
H5 H 0.600(6) -0.288(5) 0.314(6)
H6 H 0.605(5) -0.239(4) 0.420(5)
H7 H 0.778(6) -0.209(5) 0.345(6)
H8 H 0.734(6) -0.153(6) 0.284(7)
H11 H 0.802 -0.033 0.301
H12 H 0.888 -0.091 0.384
O1D O 0.5246(7) 0.0000 0.7967(8)
O2D O 0.4859(5) 0.1790(4) 0.6699(5)
O2B O 0.4859(5) -0.1790(4) 0.6699(5)
O2F O 0.5141(5) 0.1790(4) 0.3301(5)
O3D O 0.2729(5) 0.1056(4) 0.5612(6)
O3B O 0.2729(5) -0.1056(4) 0.5612(6)
O3F O 0.7271(5) 0.1056(4) 0.4388(6)
C1F C 0.4117(8) 0.0877(7) 0.1790(8)
C6F C 0.819(1) 0.055(1) 0.384(2)
C1D C 0.5883(8) 0.0877(7) 0.8210(8)
C1B C 0.5883(8) -0.0877(7) 0.8210(8)
C2D C 0.5128(9) 0.1710(7) 0.796(1)
C3D C 0.386(1) 0.2347(6) 0.6442(9)
C2B C 0.5128(9) -0.1710(7) 0.796(1)
C3B C 0.386(1) -0.2347(6) 0.6442(9)
C2F C 0.4872(9) 0.1710(7) 0.204(1)
C3F C 0.614(1) 0.2347(6) 0.3558(9)
C4D C 0.2772(8) 0.1789(8) 0.653(1)
C6D C 0.181(1) 0.055(1) 0.616(2)
C4B C 0.2772(8) -0.1789(8) 0.653(1)
C6B C 0.181(1) -0.055(1) 0.616(2)
C4F C 0.7228(8) 0.1789(8) 0.347(1)
H1F H 0.391(6) 0.073(5) 0.110(7)
H2F H 0.369(6) 0.075(5) 0.237(7)
H11F H 0.802 0.033 0.301
H12F H 0.888 0.091 0.384
H1D H 0.609(6) 0.073(5) 0.890(7)
H2D H 0.631(6) 0.075(5) 0.763(7)
H1B H 0.609(6) -0.073(5) 0.890(7)
H2B H 0.631(6) -0.075(5) 0.763(7)
H3D H 0.539(6) 0.218(6) 0.821(7)
H4D H 0.457(4) 0.154(4) 0.833(4)
H5D H 0.400(6) 0.288(5) 0.686(6)
H6D H 0.395(5) 0.239(4) 0.580(5)
H3B H 0.539(6) -0.218(6) 0.821(7)
H4B H 0.457(4) -0.154(4) 0.833(4)
H5B H 0.400(6) -0.288(5) 0.686(6)
H6B H 0.395(5) -0.239(4) 0.580(5)
H3F H 0.461(6) 0.218(6) 0.179(7)
H4F H 0.543(4) 0.154(4) 0.167(4)
H5F H 0.600(6) 0.288(5) 0.314(6)
H6F H 0.605(5) 0.239(4) 0.420(5)
H7D H 0.222(6) 0.209(5) 0.655(6)
H8D H 0.266(6) 0.153(6) 0.716(7)
H11D H 0.198 0.033 0.699
H12D H 0.112 0.091 0.616
H7B H 0.222(6) -0.209(5) 0.655(6)
H8B H 0.266(6) -0.153(6) 0.716(7)
H11B H 0.198 -0.033 0.699
H12B H 0.112 -0.091 0.616
H7F H 0.778(6) 0.209(5) 0.345(6)
H8F H 0.734(6) 0.153(6) 0.284(7)
K1 K 0.5000 0.5000 0.0000
C5? C 0.828(1) -0.031(1) 0.470(2)
H9? H 0.902 -0.061 0.465
H10? H 0.816 -0.008 0.554
loop_
_geom_bond_atom_site_label_1
_geom_bond_atom_site_label_2
_geom_bond_site_symmetry_1
_geom_bond_site_symmetry_2
Cs1 O1 1_555 1_555
O1 C1 1_555 1_555
O2 Cs1 1_555 1_555
O3 Cs1 1_555 1_555
C1 C2 1_555 1_555
C2 O2 1_555 1_555
C3 O2 1_555 1_555
C4 O3 1_555 1_555
C6 O3 1_555 1_555
H1 C1 1_555 1_555
H2 C1 1_555 1_555
H3 C2 1_555 1_555
H4 C2 1_555 1_555
H5 C3 1_555 1_555
H6 C3 1_555 1_555
H7 C4 1_555 1_555
H8 C4 1_555 1_555
H11 C6 1_555 1_555
H12 C6 1_555 1_555
O1D Cs1 1_555 1_555
O2D Cs1 1_555 1_555
O2B Cs1 1_555 1_555
O2F Cs1 1_555 1_555
O3D Cs1 1_555 1_555
O3B Cs1 1_555 1_555
O3F Cs1 1_555 1_555
C1F O1 1_555 1_555
C6F C6 1_555 1_555
C1D O1D 1_555 1_555
C1B O1D 1_555 1_555
C2D O2D 1_555 1_555
C3D O2D 1_555 1_555
C2B O2B 1_555 1_555
C3B O2B 1_555 1_555
C2F O2F 1_555 1_555
C3F O2F 1_555 1_555
C4D O3D 1_555 1_555
C6D O3D 1_555 1_555
C4B O3B 1_555 1_555
C6B O3B 1_555 1_555
C4F O3F 1_555 1_555
H1F C1F 1_555 1_555
H2F C1F 1_555 1_555
H11F C6F 1_555 1_555
H12F C6F 1_555 1_555
H1D C1D 1_555 1_555
H2D C1D 1_555 1_555
H1B C1B 1_555 1_555
H2B C1B 1_555 1_555
H3D C2D 1_555 1_555
H4D C2D 1_555 1_555
H5D C3D 1_555 1_555
H6D C3D 1_555 1_555
H3B C2B 1_555 1_555
H4B C2B 1_555 1_555
H5B C3B 1_555 1_555
H6B C3B 1_555 1_555
H3F C2F 1_555 1_555
H4F C2F 1_555 1_555
H5F C3F 1_555 1_555
H6F C3F 1_555 1_555
H7D C4D 1_555 1_555
H8D C4D 1_555 1_555
H11D C6D 1_555 1_555
H12D C6D 1_555 1_555
H7B C4B 1_555 1_555
H8B C4B 1_555 1_555
H11B C6B 1_555 1_555
H12B C6B 1_555 1_555
H7F C4F 1_555 1_555
H8F C4F 1_555 1_555
C3 C4 1_555 1_555
O3F C6F 1_555 1_555
C1F C2F 1_555 1_555
C1D C2D 1_555 1_555
C1B C2B 1_555 1_555
C3D C4D 1_555 1_555
C3B C4B 1_555 1_555
C3F C4F 1_555 1_555
C6D C6B 1_555 1_555

#END
