
#######################################################################
#
#                 Cambridge Crystallographic Data Centre
#                                CCDC 
#
#######################################################################
#
# If this CIF has been generated from an entry in the Cambridge 
# Structural Database, then it will include bibliographic, chemical, 
# crystal, experimental, refinement or atomic coordinate data resulting 
# from the CCDC's data processing and validation procedures.
#
#######################################################################

data_JEPMIA
_chemical_formula_moiety         'C20 H40 O10 Rb1 1+,Rb1 1-'
_chemical_name_systematic        'bis(15-Crown-5)-rubidium rubidide'
_symmetry_cell_setting           monoclinic
_symmetry_space_group_name_H-M   'C 2/m'
_symmetry_Int_Tables_number      12
_space_group_name_Hall           '-C 2y'
loop_
_symmetry_equiv_pos_site_id
_symmetry_equiv_pos_as_xyz
1 x,y,z
2 1/2+x,1/2+y,z
3 -x,y,-z
4 1/2-x,1/2+y,-z
5 -x,-y,-z
6 1/2-x,1/2-y,-z
7 x,-y,z
8 1/2+x,1/2-y,z
_cell_length_a                   11.635(3)
_cell_length_b                   13.855(5)
_cell_length_c                   10.556(3)
_cell_angle_alpha                90
_cell_angle_beta                 88.82(2)
_cell_angle_gamma                90
_cell_volume                     1701.3
_exptl_crystal_colour            'dark grey'
_cell_formula_units_Z            2
loop_
_atom_site_label
_atom_site_type_symbol
_atom_site_fract_x
_atom_site_fract_y
_atom_site_fract_z
Rb1 Rb 0.5000 0.0000 0.5000
O1 O 0.4703(6) 0.0000 0.2112(6)
O2 O 0.5127(4) -0.1756(3) 0.3353(4)
O3 O 0.7210(4) -0.1041(3) 0.4454(5)
C1 C 0.4084(6) -0.0855(5) 0.1857(6)
C2 C 0.4878(7) -0.1665(5) 0.2058(6)
C3 C 0.6128(6) -0.2293(5) 0.3633(8)
C4 C 0.7201(6) -0.1749(6) 0.3492(8)
C5 C 0.8077 -0.0468 0.3984
H1 H 0.3789 -0.0853 0.1038
H2 H 0.3467 -0.0915 0.2483
H3 H 0.4561 -0.2250 0.1766
H4 H 0.5568 -0.1522 0.1567
H5 H 0.6174 -0.2824 0.3063
H6 H 0.6074 -0.2524 0.4481
H7 H 0.7851 -0.2159 0.3525
H8 H 0.7217 -0.1435 0.2690
H9 H 0.7995 -0.0393 0.3051
H10 H 0.8902 -0.0891 0.3847
O1D O 0.5297(6) 0.0000 0.7888(6)
O2D O 0.4873(4) 0.1756(3) 0.6647(4)
O2B O 0.4873(4) -0.1756(3) 0.6647(4)
O2F O 0.5127(4) 0.1756(3) 0.3353(4)
O3D O 0.2790(4) 0.1041(3) 0.5546(5)
O3B O 0.2790(4) -0.1041(3) 0.5546(5)
O3F O 0.7210(4) 0.1041(3) 0.4454(5)
C1F C 0.4084(6) 0.0855(5) 0.1857(6)
C5F C 0.8077 0.0468 0.3984
C1D C 0.5916(6) 0.0855(5) 0.8143(6)
C1B C 0.5916(6) -0.0855(5) 0.8143(6)
C2D C 0.5122(7) 0.1665(5) 0.7942(6)
C3D C 0.3872(6) 0.2293(5) 0.6367(8)
C2B C 0.5122(7) -0.1665(5) 0.7942(6)
C3B C 0.3872(6) -0.2293(5) 0.6367(8)
C2F C 0.4878(7) 0.1665(5) 0.2058(6)
C3F C 0.6128(6) 0.2293(5) 0.3633(8)
C4D C 0.2799(6) 0.1749(6) 0.6508(8)
C5D C 0.1923 0.0468 0.6016
C4B C 0.2799(6) -0.1749(6) 0.6508(8)
C5B C 0.1923 -0.0468 0.6016
C4F C 0.7201(6) 0.1749(6) 0.3492(8)
H1F H 0.3789 0.0853 0.1038
H2F H 0.3467 0.0915 0.2483
H9F H 0.7995 0.0393 0.3051
H10F H 0.8902 0.0891 0.3847
H1D H 0.6211 0.0853 0.8962
H2D H 0.6533 0.0915 0.7517
H1B H 0.6211 -0.0853 0.8962
H2B H 0.6533 -0.0915 0.7517
H3D H 0.5439 0.2250 0.8234
H4D H 0.4432 0.1522 0.8433
H5D H 0.3826 0.2824 0.6937
H6D H 0.3926 0.2524 0.5519
H3B H 0.5439 -0.2250 0.8234
H4B H 0.4432 -0.1522 0.8433
H5B H 0.3826 -0.2824 0.6937
H6B H 0.3926 -0.2524 0.5519
H3F H 0.4561 0.2250 0.1766
H4F H 0.5568 0.1522 0.1567
H5F H 0.6174 0.2824 0.3063
H6F H 0.6074 0.2524 0.4481
H7D H 0.2149 0.2159 0.6475
H8D H 0.2783 0.1435 0.7310
H9D H 0.2005 0.0393 0.6949
H10D H 0.1098 0.0891 0.6153
H7B H 0.2149 -0.2159 0.6475
H8B H 0.2783 -0.1435 0.7310
H9B H 0.2005 -0.0393 0.6949
H10B H 0.1098 -0.0891 0.6153
H7F H 0.7851 0.2159 0.3525
H8F H 0.7217 0.1435 0.2690
Rb2 Rb 0.5000 0.5000 0.0000
C6? C 0.8124 0.0390 0.4778
H11? H 0.8923 0.0443 0.4388
H12? H 0.8170 -0.0070 0.5447
loop_
_geom_bond_atom_site_label_1
_geom_bond_atom_site_label_2
_geom_bond_site_symmetry_1
_geom_bond_site_symmetry_2
Rb1 O1 1_555 1_555
O1 C1 1_555 1_555
O2 Rb1 1_555 1_555
O3 Rb1 1_555 1_555
C1 C2 1_555 1_555
C2 O2 1_555 1_555
C3 O2 1_555 1_555
C4 O3 1_555 1_555
C5 O3 1_555 1_555
H1 C1 1_555 1_555
H2 C1 1_555 1_555
H3 C2 1_555 1_555
H4 C2 1_555 1_555
H5 C3 1_555 1_555
H6 C3 1_555 1_555
H7 C4 1_555 1_555
H8 C4 1_555 1_555
H9 C5 1_555 1_555
H10 C5 1_555 1_555
O1D Rb1 1_555 1_555
O2D Rb1 1_555 1_555
O2B Rb1 1_555 1_555
O2F Rb1 1_555 1_555
O3D Rb1 1_555 1_555
O3B Rb1 1_555 1_555
O3F Rb1 1_555 1_555
C1F O1 1_555 1_555
C5F C5 1_555 1_555
C1D O1D 1_555 1_555
C1B O1D 1_555 1_555
C2D O2D 1_555 1_555
C3D O2D 1_555 1_555
C2B O2B 1_555 1_555
C3B O2B 1_555 1_555
C2F O2F 1_555 1_555
C3F O2F 1_555 1_555
C4D O3D 1_555 1_555
C5D O3D 1_555 1_555
C4B O3B 1_555 1_555
C5B O3B 1_555 1_555
C4F O3F 1_555 1_555
H1F C1F 1_555 1_555
H2F C1F 1_555 1_555
H9F C5F 1_555 1_555
H10F C5F 1_555 1_555
H1D C1D 1_555 1_555
H2D C1D 1_555 1_555
H1B C1B 1_555 1_555
H2B C1B 1_555 1_555
H3D C2D 1_555 1_555
H4D C2D 1_555 1_555
H5D C3D 1_555 1_555
H6D C3D 1_555 1_555
H3B C2B 1_555 1_555
H4B C2B 1_555 1_555
H5B C3B 1_555 1_555
H6B C3B 1_555 1_555
H3F C2F 1_555 1_555
H4F C2F 1_555 1_555
H5F C3F 1_555 1_555
H6F C3F 1_555 1_555
H7D C4D 1_555 1_555
H8D C4D 1_555 1_555
H9D C5D 1_555 1_555
H10D C5D 1_555 1_555
H7B C4B 1_555 1_555
H8B C4B 1_555 1_555
H9B C5B 1_555 1_555
H10B C5B 1_555 1_555
H7F C4F 1_555 1_555
H8F C4F 1_555 1_555
C3 C4 1_555 1_555
O3F C5F 1_555 1_555
C1F C2F 1_555 1_555
C1D C2D 1_555 1_555
C1B C2B 1_555 1_555
C3D C4D 1_555 1_555
C3B C4B 1_555 1_555
C3F C4F 1_555 1_555
C5D C5B 1_555 1_555

#END
