
#######################################################################
#
#                 Cambridge Crystallographic Data Centre
#                                CCDC 
#
#######################################################################
#
# If this CIF has been generated from an entry in the Cambridge 
# Structural Database, then it will include bibliographic, chemical, 
# crystal, experimental, refinement or atomic coordinate data resulting 
# from the CCDC's data processing and validation procedures.
#
#######################################################################

data_JEPTEG
_chemical_name_common            HOF-11
_chemical_formula_moiety         'C21 H15 N1 O6'
_chemical_name_systematic        
"4,4',4''-nitrilotribenzoic acid unknown solvate"
_symmetry_cell_setting           monoclinic
_symmetry_space_group_name_H-M   'P 21/n'
_symmetry_Int_Tables_number      14
_space_group_name_Hall           '-P 2yn'
loop_
_symmetry_equiv_pos_site_id
_symmetry_equiv_pos_as_xyz
1 x,y,z
2 1/2-x,1/2+y,1/2-z
3 -x,-y,-z
4 1/2+x,1/2-y,1/2+z
_cell_length_a                   7.3337(6)
_cell_length_b                   26.482(2)
_cell_length_c                   49.894(4)
_cell_angle_alpha                90
_cell_angle_beta                 92.622(2)
_cell_angle_gamma                90
_cell_volume                     9679.82
_exptl_crystal_colour            colorless
_exptl_crystal_description       block
_cell_formula_units_Z            16
loop_
_atom_site_label
_atom_site_type_symbol
_atom_site_fract_x
_atom_site_fract_y
_atom_site_fract_z
C1 C 0.2132(3) 0.12334(9) 0.49526(5)
C2 C 0.0948(3) 0.11626(9) 0.47269(5)
H1 H 0.1184 0.1329 0.4563
C3 C -0.0562(3) 0.08520(9) 0.47414(5)
H2 H -0.1349 0.0805 0.4587
C4 C -0.0944(3) 0.06082(9) 0.49784(5)
C5 C 0.0246(3) 0.06633(9) 0.51999(5)
H3 H 0.0009 0.0491 0.5361
C6 C 0.1789(3) 0.09685(10) 0.51890(5)
H4 H 0.2608 0.0997 0.5341
C7 C -0.2690(3) 0.03229(9) 0.49913(5)
C8 C 0.4001(3) 0.19403(10) 0.53942(5)
H5 H 0.2725 0.1998 0.5400
C9 C 0.4711(3) 0.17091(9) 0.51702(4)
C10 C 0.6591(3) 0.16238(10) 0.51640(5)
H6 H 0.7081 0.1465 0.5012
C11 C 0.7731(3) 0.17682(10) 0.53757(5)
H7 H 0.9005 0.1707 0.5370
C12 C 0.7041(3) 0.20039(10) 0.55987(5)
C13 C 0.5161(3) 0.20857(10) 0.56082(5)
H8 H 0.4678 0.2241 0.5761
C14 C 0.8309(3) 0.21523(11) 0.58233(5)
C15 C 0.4362(3) 0.16934(9) 0.46877(4)
C16 C 0.4822(3) 0.21948(10) 0.46413(5)
H9 H 0.4572 0.2446 0.4770
C17 C 0.5644(3) 0.23271(10) 0.44062(5)
H10 H 0.5954 0.2669 0.4374
C18 C 0.6013(3) 0.19597(10) 0.42182(5)
C19 C 0.5544(3) 0.14586(10) 0.42650(5)
H11 H 0.5788 0.1207 0.4136
C20 C 0.4725(3) 0.13265(10) 0.44992(5)
H12 H 0.4410 0.0984 0.4531
C21 C 0.6895(3) 0.20982(11) 0.39663(5)
N1 N 0.3617(3) 0.15687(8) 0.49395(4)
O1 O 0.7224(3) 0.25605(8) 0.39269(4)
O2 O 0.7269(3) 0.17490(9) 0.38053(4)
H13 H 0.7770 0.1872 0.3672
O3 O -0.3735(2) 0.02844(7) 0.47911(4)
O4 O -0.3004(2) 0.01375(7) 0.52234(4)
H14 H -0.4001 -0.0019 0.5215
O5 O 0.7760(2) 0.23027(8) 0.60403(3)
O6 O 1.0033(2) 0.21119(8) 0.57723(3)
H15 H 1.0676 0.2193 0.5909
C22 C 0.0248(3) 0.65953(9) 0.46005(5)
C23 C -0.1638(3) 0.66433(10) 0.46243(5)
H16 H -0.2129 0.6660 0.4797
C24 C -0.2787(3) 0.66664(11) 0.43978(5)
H17 H -0.4065 0.6701 0.4416
C25 C -0.2087(3) 0.66391(11) 0.41432(5)
C26 C -0.0208(3) 0.66065(10) 0.41192(5)
H18 H 0.0280 0.6595 0.3946
C27 C 0.0956(3) 0.65905(10) 0.43452(5)
H19 H 0.2239 0.6576 0.4327
C28 C -0.3342(3) 0.66362(12) 0.39030(5)
C29 C 0.0770(3) 0.67810(9) 0.50783(4)
C30 C 0.0438(3) 0.72909(10) 0.50879(5)
H20 H 0.0604 0.7494 0.4934
C31 C -0.0143(3) 0.75090(10) 0.53228(5)
H21 H -0.0352 0.7863 0.5330
C32 C -0.0418(3) 0.72126(10) 0.55465(5)
C33 C -0.0087(3) 0.66986(10) 0.55358(5)
H22 H -0.0272 0.6494 0.5688
C34 C 0.0515(3) 0.64824(10) 0.53029(5)
H23 H 0.0754 0.6130 0.5297
C35 C -0.1070(3) 0.74394(10) 0.57972(5)
C36 C 0.2928(3) 0.62427(9) 0.48574(5)
C37 C 0.4269(3) 0.63432(10) 0.50614(5)
H24 H 0.4129 0.6625 0.5176
C38 C 0.5778(3) 0.60381(10) 0.50961(6)
H25 H 0.6648 0.6102 0.5239
C39 C 0.6034(3) 0.56375(10) 0.49233(5)
C40 C 0.4713(4) 0.55341(10) 0.47210(5)
H26 H 0.4881 0.5258 0.4603
C41 C 0.3156(4) 0.58302(10) 0.46905(5)
H27 H 0.2246 0.5751 0.4555
C42 C 0.7743(4) 0.53411(10) 0.49573(6)
N2 N 0.1386(3) 0.65553(8) 0.48365(4)
O7 O -0.2694(3) 0.65768(9) 0.36745(4)
O8 O -0.5043(2) 0.66883(9) 0.39403(4)
H28 H -0.5626 0.6691 0.3791
O9 O -0.1127(2) 0.79123(7) 0.58180(3)
O10 O -0.1553(3) 0.71322(7) 0.59777(4)
H29 H -0.1888 0.7295 0.6111
O11 O 0.8007(3) 0.50177(8) 0.47664(4)
H30 H 0.9103 0.4925 0.4774
O12 O 0.8805(3) 0.54033(8) 0.51516(5)
C43 C 0.3184(3) 0.33574(9) 0.22943(5)
C44 C 0.4522(3) 0.33318(10) 0.25016(5)
H31 H 0.4397 0.3097 0.2644
C45 C 0.6030(3) 0.36456(10) 0.25022(5)
H32 H 0.6906 0.3634 0.2648
C46 C 0.6274(3) 0.39775(9) 0.22914(5)
C47 C 0.4940(3) 0.40089(10) 0.20845(5)
H33 H 0.5089 0.4239 0.1941
C48 C 0.3389(3) 0.37063(10) 0.20860(5)
H34 H 0.2471 0.3736 0.1946
C49 C 0.7987(3) 0.42778(10) 0.22923(6)
C50 C 0.1032(3) 0.28892(9) 0.25610(4)
C51 C 0.0793(3) 0.32485(10) 0.27602(5)
H35 H 0.1083 0.3593 0.2729
C52 C 0.0130(3) 0.31009(10) 0.30042(5)
H36 H -0.0034 0.3345 0.3141
C53 C -0.0294(3) 0.25995(10) 0.30493(4)
C54 C -0.0031(3) 0.22422(10) 0.28513(5)
H37 H -0.0308 0.1897 0.2883
C55 C 0.0639(3) 0.23888(10) 0.26069(5)
H38 H 0.0826 0.2144 0.2472
C56 C -0.1025(3) 0.24461(10) 0.33101(5)
C57 C 0.0476(3) 0.29306(9) 0.20779(4)
C58 C -0.1396(3) 0.28922(10) 0.21112(5)
H39 H -0.1859 0.2927 0.2285
C59 C -0.2583(3) 0.28039(10) 0.18933(5)
H40 H -0.3854 0.2775 0.1919
C60 C -0.1933(3) 0.27573(10) 0.16367(5)
C61 C -0.0051(3) 0.27786(10) 0.16029(5)
H41 H 0.0408 0.2739 0.1429
C62 C 0.1147(3) 0.28574(10) 0.18221(5)
H42 H 0.2425 0.2862 0.1799
C63 C -0.3220(3) 0.27068(11) 0.14033(5)
N3 N 0.1644(3) 0.30373(8) 0.23032(4)
O13 O -0.1165(2) 0.19804(7) 0.33612(3)
O14 O -0.1494(3) 0.27977(7) 0.34666(3)
H43 H -0.1886 0.2671 0.3607
O15 O 0.9082(3) 0.42642(8) 0.24864(4)
O16 O 0.8224(2) 0.45387(7) 0.20763(4)
H44 H 0.9230 0.4690 0.2091
O17 O -0.2670(2) 0.27275(9) 0.11709(3)
O18 O -0.4921(2) 0.26515(9) 0.14561(4)
H45 H -0.5551 0.2623 0.1312
C64 C 0.7291(3) 0.59003(9) 0.23430(5)
C65 C 0.6104(3) 0.58939(9) 0.21141(5)
H46 H 0.6332 0.6108 0.1966
C66 C 0.4611(3) 0.55784(9) 0.21032(5)
H47 H 0.3823 0.5574 0.1947
C67 C 0.4240(3) 0.52656(9) 0.23177(5)
C68 C 0.2521(3) 0.49681(10) 0.23083(5)
C69 C 0.5444(3) 0.52628(10) 0.25431(5)
H48 H 0.5216 0.5046 0.2690
C70 C 0.6964(3) 0.55723(10) 0.25547(5)
H49 H 0.7788 0.5562 0.2707
C71 C 0.9846(3) 0.63205(9) 0.25985(4)
C72 C 1.1718(3) 0.62373(10) 0.25917(5)
H50 H 1.2231 0.6127 0.2430
C73 C 1.2830(3) 0.63155(10) 0.28186(5)
H51 H 1.4106 0.6258 0.2813
C74 C 1.2102(3) 0.64777(10) 0.30551(5)
C75 C 1.0226(3) 0.65622(10) 0.30629(5)
H52 H 0.9718 0.6672 0.3225
C76 C 0.9100(3) 0.64868(10) 0.28353(5)
H53 H 0.7826 0.6548 0.2841
C77 C 1.3339(3) 0.65474(11) 0.32954(5)
C78 C 0.9514(3) 0.64316(10) 0.21177(4)
C79 C 0.9937(3) 0.61115(10) 0.19097(5)
H54 H 0.9682 0.5761 0.1921
C80 C 1.0735(3) 0.63065(11) 0.16845(5)
H55 H 1.1029 0.6088 0.1542
C81 C 1.1103(3) 0.68162(11) 0.16666(5)
C82 C 1.0672(3) 0.71370(11) 0.18757(5)
H56 H 1.0923 0.7488 0.1864
C83 C 0.9878(3) 0.69470(10) 0.21012(5)
H57 H 0.9584 0.7166 0.2244
C84 C 1.1956(3) 0.70236(11) 0.14270(5)
N4 N 0.8760(3) 0.62426(8) 0.23581(4)
O19 O 0.2243(2) 0.47127(7) 0.25258(4)
H58 H 0.1247 0.4557 0.2508
O20 O 0.1452(2) 0.49757(7) 0.21106(4)
O21 O 1.2405(3) 0.67128(9) 0.12457(4)
H59 H 1.2878 0.6871 0.1121
O22 O 1.2193(3) 0.74936(8) 0.14123(4)
O23 O 1.5036(2) 0.64926(9) 0.32623(4)
H60 H 1.5619 0.6535 0.3409
O24 O 1.2676(2) 0.66556(8) 0.35192(3)
loop_
_geom_bond_atom_site_label_1
_geom_bond_atom_site_label_2
_geom_bond_site_symmetry_1
_geom_bond_site_symmetry_2
C1 C2 1_555 1_555
C2 H1 1_555 1_555
C3 C2 1_555 1_555
H2 C3 1_555 1_555
C4 C3 1_555 1_555
C5 C4 1_555 1_555
H3 C5 1_555 1_555
C6 C1 1_555 1_555
H4 C6 1_555 1_555
C7 C4 1_555 1_555
C8 H5 1_555 1_555
C9 C8 1_555 1_555
C10 C9 1_555 1_555
H6 C10 1_555 1_555
C11 C10 1_555 1_555
H7 C11 1_555 1_555
C12 C11 1_555 1_555
C13 C8 1_555 1_555
H8 C13 1_555 1_555
C14 C12 1_555 1_555
C15 C16 1_555 1_555
C16 H9 1_555 1_555
C17 C16 1_555 1_555
H10 C17 1_555 1_555
C18 C17 1_555 1_555
C19 C18 1_555 1_555
H11 C19 1_555 1_555
C20 C15 1_555 1_555
H12 C20 1_555 1_555
C21 C18 1_555 1_555
N1 C1 1_555 1_555
O1 C21 1_555 1_555
O2 C21 1_555 1_555
H13 O2 1_555 1_555
O3 C7 1_555 1_555
O4 C7 1_555 1_555
H14 O4 1_555 1_555
O5 C14 1_555 1_555
O6 C14 1_555 1_555
H15 O6 1_555 1_555
C22 C23 1_555 1_555
C23 H16 1_555 1_555
C24 C23 1_555 1_555
H17 C24 1_555 1_555
C25 C24 1_555 1_555
C26 C25 1_555 1_555
H18 C26 1_555 1_555
C27 C22 1_555 1_555
H19 C27 1_555 1_555
C28 C25 1_555 1_555
C29 C30 1_555 1_555
C30 H20 1_555 1_555
C31 C30 1_555 1_555
H21 C31 1_555 1_555
C32 C31 1_555 1_555
C33 C32 1_555 1_555
H22 C33 1_555 1_555
C34 C29 1_555 1_555
H23 C34 1_555 1_555
C35 C32 1_555 1_555
C36 C37 1_555 1_555
C37 H24 1_555 1_555
C38 C37 1_555 1_555
H25 C38 1_555 1_555
C39 C38 1_555 1_555
C40 C39 1_555 1_555
H26 C40 1_555 1_555
C41 C36 1_555 1_555
H27 C41 1_555 1_555
C42 C39 1_555 1_555
N2 C22 1_555 1_555
O7 C28 1_555 1_555
O8 C28 1_555 1_555
H28 O8 1_555 1_555
O9 C35 1_555 1_555
O10 C35 1_555 1_555
H29 O10 1_555 1_555
O11 C42 1_555 1_555
H30 O11 1_555 1_555
O12 C42 1_555 1_555
C43 C44 1_555 1_555
C44 H31 1_555 1_555
C45 C44 1_555 1_555
H32 C45 1_555 1_555
C46 C45 1_555 1_555
C47 C46 1_555 1_555
H33 C47 1_555 1_555
C48 C43 1_555 1_555
H34 C48 1_555 1_555
C49 C46 1_555 1_555
C50 C51 1_555 1_555
C51 H35 1_555 1_555
C52 C51 1_555 1_555
H36 C52 1_555 1_555
C53 C52 1_555 1_555
C54 C53 1_555 1_555
H37 C54 1_555 1_555
C55 C50 1_555 1_555
H38 C55 1_555 1_555
C56 C53 1_555 1_555
C57 C58 1_555 1_555
C58 H39 1_555 1_555
C59 C58 1_555 1_555
H40 C59 1_555 1_555
C60 C59 1_555 1_555
C61 C60 1_555 1_555
H41 C61 1_555 1_555
C62 C57 1_555 1_555
H42 C62 1_555 1_555
C63 C60 1_555 1_555
N3 C43 1_555 1_555
O13 C56 1_555 1_555
O14 C56 1_555 1_555
H43 O14 1_555 1_555
O15 C49 1_555 1_555
O16 C49 1_555 1_555
H44 O16 1_555 1_555
O17 C63 1_555 1_555
O18 C63 1_555 1_555
H45 O18 1_555 1_555
C64 C65 1_555 1_555
C65 H46 1_555 1_555
C66 C65 1_555 1_555
H47 C66 1_555 1_555
C67 C66 1_555 1_555
C68 C67 1_555 1_555
C69 C67 1_555 1_555
H48 C69 1_555 1_555
C70 C64 1_555 1_555
H49 C70 1_555 1_555
C71 C72 1_555 1_555
C72 H50 1_555 1_555
C73 C72 1_555 1_555
H51 C73 1_555 1_555
C74 C73 1_555 1_555
C75 C74 1_555 1_555
H52 C75 1_555 1_555
C76 C71 1_555 1_555
H53 C76 1_555 1_555
C77 C74 1_555 1_555
C78 C79 1_555 1_555
C79 H54 1_555 1_555
C80 C79 1_555 1_555
H55 C80 1_555 1_555
C81 C80 1_555 1_555
C82 C81 1_555 1_555
H56 C82 1_555 1_555
C83 C78 1_555 1_555
H57 C83 1_555 1_555
C84 C81 1_555 1_555
N4 C64 1_555 1_555
O19 C68 1_555 1_555
H58 O19 1_555 1_555
O20 C68 1_555 1_555
O21 C84 1_555 1_555
H59 O21 1_555 1_555
O22 C84 1_555 1_555
O23 C77 1_555 1_555
H60 O23 1_555 1_555
O24 C77 1_555 1_555
C5 C6 1_555 1_555
C9 N1 1_555 1_555
C12 C13 1_555 1_555
C15 N1 1_555 1_555
C19 C20 1_555 1_555
C26 C27 1_555 1_555
C29 N2 1_555 1_555
C33 C34 1_555 1_555
C36 N2 1_555 1_555
C40 C41 1_555 1_555
C47 C48 1_555 1_555
C50 N3 1_555 1_555
C54 C55 1_555 1_555
C57 N3 1_555 1_555
C61 C62 1_555 1_555
C69 C70 1_555 1_555
C71 N4 1_555 1_555
C75 C76 1_555 1_555
C78 N4 1_555 1_555
C82 C83 1_555 1_555

#END
