
#######################################################################
#
#                 Cambridge Crystallographic Data Centre
#                                CCDC 
#
#######################################################################
#
# If this CIF has been generated from an entry in the Cambridge 
# Structural Database, then it will include bibliographic, chemical, 
# crystal, experimental, refinement or atomic coordinate data resulting 
# from the CCDC's data processing and validation procedures.
#
#######################################################################

data_JEPYIP01
_chemical_name_common            'sulfamethazine dimethylacetamide solvate'
_chemical_formula_moiety         'C12 H14 N4 O2 S1,C4 H9 N1 O1'
_chemical_name_systematic        
'4-amino-N-(4,6-dimethylpyrimidin-2-yl)benzene-1-sulfonamide N,N-dimethylacetamide solvate'
_symmetry_cell_setting           monoclinic
_symmetry_space_group_name_H-M   'P 21/n'
_symmetry_Int_Tables_number      14
_space_group_name_Hall           '-P 2yn'
loop_
_symmetry_equiv_pos_site_id
_symmetry_equiv_pos_as_xyz
1 x,y,z
2 1/2-x,1/2+y,1/2-z
3 -x,-y,-z
4 1/2+x,1/2-y,1/2+z
_cell_length_a                   13.408(3)
_cell_length_b                   10.874(2)
_cell_length_c                   25.595(5)
_cell_angle_alpha                90
_cell_angle_beta                 102.58(3)
_cell_angle_gamma                90
_cell_volume                     3642.13
_exptl_crystal_colour            colorless
_exptl_crystal_description       prism
_cell_formula_units_Z            8
loop_
_atom_site_label
_atom_site_type_symbol
_atom_site_fract_x
_atom_site_fract_y
_atom_site_fract_z
S1 S 0.97588(7) 0.84150(7) 0.15930(3)
O1 O 1.06841(16) 0.9101(2) 0.16305(8)
O2 O 0.98267(17) 0.72460(18) 0.18625(8)
N1 N 0.6800(2) 1.1429(3) 0.24193(12)
H1 H 0.698(2) 1.206(2) 0.2641(11)
H2 H 0.6121(9) 1.131(3) 0.2322(12)
N2 N 0.9236(2) 0.8054(2) 0.09702(9)
H3 H 0.923(2) 0.7231(10) 0.0929(11)
N3 N 0.90703(19) 1.0067(2) 0.06529(9)
N4 N 0.87928(19) 0.8320(2) 0.00589(9)
C1 C 0.8866(2) 0.9341(3) 0.18121(11)
C2 C 0.9205(3) 1.0356(3) 0.21346(12)
H4 H 0.9908 1.0573 0.2212
C3 C 0.8518(3) 1.1042(3) 0.23400(13)
H5 H 0.8756 1.1721 0.2567
C4 C 0.7476(3) 1.0759(3) 0.22203(12)
C5 C 0.7150(3) 0.9731(3) 0.18904(12)
H6 H 0.6446 0.9520 0.1805
C6 C 0.7835(2) 0.9026(3) 0.16897(11)
H7 H 0.7606 0.8334 0.1470
C7 C 0.9030(2) 0.8875(3) 0.05376(11)
C8 C 0.8896(3) 1.2183(3) 0.03323(13)
H8 H 0.8914 1.2325 0.0712
H9 H 0.8289 1.2580 0.0115
H10 H 0.9512 1.2531 0.0242
C9 C 0.8854(2) 1.0829(3) 0.02219(12)
C10 C 0.8607(2) 1.0362(3) -0.02910(12)
H11 H 0.8455 1.0898 -0.0591
C11 C 0.8585(2) 0.9099(3) -0.03619(11)
C12 C 0.8319(3) 0.8524(3) -0.09098(11)
H12 H 0.8543 0.7664 -0.0887
H13 H 0.8665 0.8973 -0.1152
H14 H 0.7578 0.8562 -0.1047
S2 S 0.45268(7) 0.77019(7) 0.14326(3)
O3 O 0.46037(17) 0.78123(19) 0.20011(8)
O4 O 0.53971(17) 0.72595(19) 0.12458(9)
N5 N 0.0967(2) 0.4648(3) 0.04850(12)
H15 H 0.098(2) 0.412(2) 0.0225(9)
H16 H 0.0364(13) 0.483(3) 0.0555(12)
N6 N 0.4242(2) 0.9108(2) 0.12146(9)
H17 H 0.429(2) 0.9706(19) 0.1458(9)
N7 N 0.40290(19) 1.0709(2) 0.06209(9)
N8 N 0.3922(2) 0.8614(2) 0.03034(10)
C13 C 0.3484(2) 0.6796(3) 0.11524(12)
C14 C 0.2567(2) 0.6945(3) 0.13114(12)
H18 H 0.2520 0.7541 0.1576
C15 C 0.1724(2) 0.6249(3) 0.10933(11)
H19 H 0.1101 0.6368 0.1206
C16 C 0.1785(3) 0.5357(3) 0.07019(12)
C17 C 0.2706(3) 0.5218(3) 0.05410(13)
H20 H 0.2760 0.4625 0.0276
C18 C 0.3539(3) 0.5932(3) 0.07620(12)
H21 H 0.4160 0.5830 0.0645
C19 C 0.4063(2) 0.9491(3) 0.06832(12)
C20 C 0.3801(3) 1.2452(3) 0.00204(14)
H22 H 0.3088 1.2725 -0.0077
H23 H 0.4146 1.2653 -0.0270
H24 H 0.4149 1.2869 0.0349
C21 C 0.3834(2) 1.1106(3) 0.01087(12)
C22 C 0.3677(2) 1.0279(3) -0.03123(12)
H25 H 0.3542 1.0564 -0.0672
C23 C 0.3718(2) 0.9043(3) -0.02049(12)
C24 C 0.3548(3) 0.8099(3) -0.06437(12)
H26 H 0.4130 0.8101 -0.0818
H27 H 0.2922 0.8296 -0.0908
H28 H 0.3481 0.7283 -0.0492
O5 O 0.91244(18) 0.54230(18) 0.08696(8)
N9 N 0.8029(3) 0.4690(3) 0.13416(12)
C25 C 0.9816(3) 0.4092(3) 0.16275(13)
H29 H 1.0437 0.4140 0.1485
H30 H 0.9623 0.3229 0.1653
H31 H 0.9943 0.4469 0.1984
C26 C 0.8942(3) 0.4784(3) 0.12504(15)
C27 C 0.7200(3) 0.5367(3) 0.10103(15)
H32 H 0.7475 0.5945 0.0784
H33 H 0.6829 0.5823 0.1239
H34 H 0.6733 0.4792 0.0784
C28 C 0.7799(4) 0.3898(3) 0.17737(14)
H35 H 0.7641 0.3063 0.1636
H36 H 0.7211 0.4233 0.1896
H37 H 0.8394 0.3875 0.2074
O6 O 0.037(4) 0.593(3) 0.301(3)
N10 N 0.1170(5) 0.7750(6) 0.3075(2)
C29 C 0.196(2) 0.6044(18) 0.2674(17)
H38 H 0.2009 0.5148 0.2713
H39 H 0.2616 0.6415 0.2853
H40 H 0.1816 0.6260 0.2293
C30 C 0.1105(7) 0.6531(7) 0.2931(3)
C31 C 0.0328(16) 0.8197(17) 0.3314(12)
H41 H -0.0209 0.8555 0.3033
H42 H 0.0588 0.8825 0.3584
H43 H 0.0046 0.7509 0.3482
C32 C 0.1948(9) 0.8591(11) 0.2965(5)
H44 H 0.2587 0.8140 0.2981
H45 H 0.2064 0.9250 0.3233
H46 H 0.1717 0.8947 0.2608
O7? O 0.037(5) 0.596(3) 0.302(4)
N11? N 0.1741(6) 0.7011(8) 0.2896(3)
C33? C 0.053(2) 0.8219(18) 0.3257(14)
H47? H 0.0572 0.8860 0.2993
H48? H 0.1008 0.8408 0.3595
H49? H -0.0168 0.8187 0.3317
C34? C 0.0804(7) 0.6969(11) 0.3047(4)
C35? C 0.202(3) 0.582(2) 0.268(2)
H50? H 0.1550 0.5177 0.2752
H51? H 0.2720 0.5600 0.2858
H52? H 0.1965 0.5890 0.2296
C36? C 0.2312(12) 0.8135(11) 0.2848(7)
H53? H 0.1979 0.8578 0.2523
H54? H 0.3012 0.7923 0.2827
H55? H 0.2326 0.8658 0.3161
loop_
_geom_bond_atom_site_label_1
_geom_bond_atom_site_label_2
_geom_bond_site_symmetry_1
_geom_bond_site_symmetry_2
S1 O1 1_555 1_555
O2 S1 1_555 1_555
N1 H1 1_555 1_555
H2 N1 1_555 1_555
N2 S1 1_555 1_555
H3 N2 1_555 1_555
N3 C7 1_555 1_555
N4 C7 1_555 1_555
C1 S1 1_555 1_555
C2 C1 1_555 1_555
H4 C2 1_555 1_555
C3 C2 1_555 1_555
H5 C3 1_555 1_555
C4 N1 1_555 1_555
C5 C4 1_555 1_555
H6 C5 1_555 1_555
C6 C1 1_555 1_555
H7 C6 1_555 1_555
C7 N2 1_555 1_555
C8 H8 1_555 1_555
H9 C8 1_555 1_555
H10 C8 1_555 1_555
C9 N3 1_555 1_555
C10 C9 1_555 1_555
H11 C10 1_555 1_555
C11 N4 1_555 1_555
C12 C11 1_555 1_555
H12 C12 1_555 1_555
H13 C12 1_555 1_555
H14 C12 1_555 1_555
S2 O3 1_555 1_555
O4 S2 1_555 1_555
N5 H15 1_555 1_555
H16 N5 1_555 1_555
N6 S2 1_555 1_555
H17 N6 1_555 1_555
N7 C19 1_555 1_555
N8 C19 1_555 1_555
C13 S2 1_555 1_555
C14 C13 1_555 1_555
H18 C14 1_555 1_555
C15 C14 1_555 1_555
H19 C15 1_555 1_555
C16 N5 1_555 1_555
C17 C16 1_555 1_555
H20 C17 1_555 1_555
C18 C13 1_555 1_555
H21 C18 1_555 1_555
C19 N6 1_555 1_555
C20 H22 1_555 1_555
H23 C20 1_555 1_555
H24 C20 1_555 1_555
C21 N7 1_555 1_555
C22 C21 1_555 1_555
H25 C22 1_555 1_555
C23 N8 1_555 1_555
C24 C23 1_555 1_555
H26 C24 1_555 1_555
H27 C24 1_555 1_555
H28 C24 1_555 1_555
O5 C26 1_555 1_555
N9 C26 1_555 1_555
C25 H29 1_555 1_555
H30 C25 1_555 1_555
H31 C25 1_555 1_555
C26 C25 1_555 1_555
C27 N9 1_555 1_555
H32 C27 1_555 1_555
H33 C27 1_555 1_555
H34 C27 1_555 1_555
C28 N9 1_555 1_555
H35 C28 1_555 1_555
H36 C28 1_555 1_555
H37 C28 1_555 1_555
O6 C30 1_555 1_555
N10 C30 1_555 1_555
C29 H38 1_555 1_555
H39 C29 1_555 1_555
H40 C29 1_555 1_555
C30 C29 1_555 1_555
C31 N10 1_555 1_555
H41 C31 1_555 1_555
H42 C31 1_555 1_555
H43 C31 1_555 1_555
C32 N10 1_555 1_555
H44 C32 1_555 1_555
H45 C32 1_555 1_555
H46 C32 1_555 1_555
C3 C4 1_555 1_555
C5 C6 1_555 1_555
C8 C9 1_555 1_555
C10 C11 1_555 1_555
C15 C16 1_555 1_555
C17 C18 1_555 1_555
C20 C21 1_555 1_555
C22 C23 1_555 1_555

#END
