
#######################################################################
#
#                 Cambridge Crystallographic Data Centre
#                                CCDC 
#
#######################################################################
#
# If this CIF has been generated from an entry in the Cambridge 
# Structural Database, then it will include bibliographic, chemical, 
# crystal, experimental, refinement or atomic coordinate data resulting 
# from the CCDC's data processing and validation procedures.
#
#######################################################################

data_JEPYOV01
_chemical_name_common            'Sulfamethazine N,N-dimethylformamide solvate'
_chemical_formula_moiety         'C12 H14 N4 O2 S1,C3 H7 N1 O1'
_chemical_name_systematic        
'4-amino-N-(4,6-dimethylpyrimidin-2-yl)benzene-1-sulfonamide N,N-dimethylformamide solvate'
_symmetry_cell_setting           monoclinic
_symmetry_space_group_name_H-M   'P 21/n'
_symmetry_Int_Tables_number      14
_space_group_name_Hall           '-P 2yn'
loop_
_symmetry_equiv_pos_site_id
_symmetry_equiv_pos_as_xyz
1 x,y,z
2 1/2-x,1/2+y,1/2-z
3 -x,-y,-z
4 1/2+x,1/2-y,1/2+z
_cell_length_a                   9.4267(19)
_cell_length_b                   13.851(3)
_cell_length_c                   14.619(3)
_cell_angle_alpha                90
_cell_angle_beta                 108.69(3)
_cell_angle_gamma                90
_cell_volume                     1808.13
_exptl_crystal_colour            colorless
_exptl_crystal_description       prism
_cell_formula_units_Z            4
loop_
_atom_site_label
_atom_site_type_symbol
_atom_site_fract_x
_atom_site_fract_y
_atom_site_fract_z
S1 S 0.57501(8) 0.71290(6) 0.01460(6)
O1 O 0.5384(3) 0.80730(16) 0.04129(18)
O2 O 0.4562(3) 0.65393(17) -0.04313(17)
C1 C 0.8321(4) 0.5558(2) 0.2911(2)
C2 C 0.8735(4) 0.6489(2) 0.2700(2)
H1 H 0.9549 0.6796 0.3138
C3 C 0.7962(4) 0.6944(2) 0.1866(2)
H2 H 0.8246 0.7561 0.1743
C4 C 0.6745(3) 0.6495(2) 0.1191(2)
C5 C 0.6322(4) 0.5580(2) 0.1376(2)
H3 H 0.5512 0.5277 0.0931
C6 C 0.7107(4) 0.5118(2) 0.2224(2)
H4 H 0.6821 0.4500 0.2341
N1 N 0.6950(3) 0.73705(18) -0.04182(18)
H5 H 0.7108 0.7971 -0.0498
C7 C 0.7741(3) 0.6716(2) -0.0783(2)
C8 C 0.9500(4) 0.6529(3) -0.1530(3)
C9 C 1.0579(5) 0.6974(3) -0.1972(4)
H6 H 1.0532 0.7665 -0.1934
H7 H 1.0319 0.6782 -0.2636
H8 H 1.1577 0.6760 -0.1629
C10 C 0.9318(5) 0.5539(3) -0.1495(3)
H9 H 0.9868 0.5121 -0.1749
C11 C 0.8300(4) 0.5184(3) -0.1076(3)
C12 C 0.8041(5) 0.4115(3) -0.1004(3)
H10 H 0.7292 0.4016 -0.0697
H11 H 0.8958 0.3811 -0.0629
H12 H 0.7708 0.3838 -0.1639
N2 N 0.9102(4) 0.5111(3) 0.3740(2)
H13 H 0.8856 0.4538 0.3859
H14 H 0.9844 0.5399 0.4150
N3 N 0.7486(3) 0.57812(19) -0.0715(2)
N4 N 0.8691(3) 0.7139(2) -0.1179(2)
O3 O 0.2460(3) 1.0661(2) 0.0442(3)
C13 C 0.0629(8) 0.9042(6) 0.1582(5)
H15 H 0.0407 0.9570 0.1939
H16 H 0.1211 0.8568 0.2024
H17 H -0.0288 0.8754 0.1185
C14 C 0.1928(7) 0.8698(4) 0.0409(6)
H18 H 0.2495 0.9015 0.0055
H19 H 0.1061 0.8399 -0.0036
H20 H 0.2538 0.8214 0.0822
C15 C 0.1760(5) 1.0315(4) 0.0946(3)
H21 H 0.1416 1.0734 0.1325
N5 N 0.1468(4) 0.9391(3) 0.0981(3)
loop_
_geom_bond_atom_site_label_1
_geom_bond_atom_site_label_2
_geom_bond_site_symmetry_1
_geom_bond_site_symmetry_2
S1 O1 1_555 1_555
O2 S1 1_555 1_555
C1 C2 1_555 1_555
C2 H1 1_555 1_555
C3 C2 1_555 1_555
H2 C3 1_555 1_555
C4 S1 1_555 1_555
C5 C4 1_555 1_555
H3 C5 1_555 1_555
C6 C1 1_555 1_555
H4 C6 1_555 1_555
N1 S1 1_555 1_555
H5 N1 1_555 1_555
C7 N1 1_555 1_555
C8 C9 1_555 1_555
C9 H6 1_555 1_555
H7 C9 1_555 1_555
H8 C9 1_555 1_555
C10 C8 1_555 1_555
H9 C10 1_555 1_555
C11 C10 1_555 1_555
C12 C11 1_555 1_555
H10 C12 1_555 1_555
H11 C12 1_555 1_555
H12 C12 1_555 1_555
N2 C1 1_555 1_555
H13 N2 1_555 1_555
H14 N2 1_555 1_555
N3 C7 1_555 1_555
N4 C7 1_555 1_555
O3 C15 1_555 1_555
C13 H15 1_555 1_555
H16 C13 1_555 1_555
H17 C13 1_555 1_555
C14 H18 1_555 1_555
H19 C14 1_555 1_555
H20 C14 1_555 1_555
C15 H21 1_555 1_555
N5 C13 1_555 1_555
C3 C4 1_555 1_555
C5 C6 1_555 1_555
C8 N4 1_555 1_555
C11 N3 1_555 1_555
C14 N5 1_555 1_555
C15 N5 1_555 1_555

#END
