
#######################################################################
#
#                 Cambridge Crystallographic Data Centre
#                                CCDC 
#
#######################################################################
#
# If this CIF has been generated from an entry in the Cambridge 
# Structural Database, then it will include bibliographic, chemical, 
# crystal, experimental, refinement or atomic coordinate data resulting 
# from the CCDC's data processing and validation procedures.
#
#######################################################################

data_JEQCIS
_chemical_formula_moiety         'C26 H14 F5 N1 O5'
_chemical_name_systematic        
'Pentafluorophenyl 1-(2-oxo-4S-phenyloxazolidine-3-carbonyl)-2-phenylcycloprop-2-enecarboxylate'
_symmetry_cell_setting           monoclinic
_symmetry_space_group_name_H-M   'P 21'
_symmetry_Int_Tables_number      4
_space_group_name_Hall           'P 2yb'
loop_
_symmetry_equiv_pos_site_id
_symmetry_equiv_pos_as_xyz
1 x,y,z
2 -x,1/2+y,-z
_cell_length_a                   12.454(2)
_cell_length_b                   6.0439(10)
_cell_length_c                   29.876(5)
_cell_angle_alpha                90
_cell_angle_beta                 93.218(2)
_cell_angle_gamma                90
_cell_volume                     2245.24
_exptl_crystal_colour            colorless
_exptl_crystal_description       needle
_chemical_melting_point          '146-147 deg.C'
_cell_formula_units_Z            4
loop_
_atom_site_label
_atom_site_type_symbol
_atom_site_fract_x
_atom_site_fract_y
_atom_site_fract_z
C1 C 0.88130(16) 0.3186(4) 0.53340(7)
C2 C 0.80254(18) 0.1746(4) 0.51693(7)
C3 C 0.69558(18) 0.2178(4) 0.52337(7)
C4 C 0.66741(17) 0.4085(4) 0.54509(7)
C5 C 0.74602(19) 0.5517(4) 0.56156(7)
C6 C 0.85384(17) 0.5066(4) 0.55653(7)
C7 C 0.93758(15) 0.6366(4) 0.62253(7)
C8 C 1.00737(15) 0.8148(3) 0.64203(7)
C9 C 0.99773(17) 1.0425(4) 0.62046(7)
H1 H 0.9556 1.1718 0.6150
C10 C 1.08649(17) 0.9385(4) 0.61470(6)
C11 C 1.23431(18) 1.1186(4) 0.57838(7)
H2 H 1.1898 1.2450 0.5736
C12 C 1.33959(19) 1.1203(4) 0.56501(8)
H3 H 1.3669 1.2479 0.5510
C13 C 1.40485(19) 0.9356(5) 0.57215(8)
H4 H 1.4772 0.9384 0.5637
C14 C 1.3643(2) 0.7473(4) 0.59164(8)
H5 H 1.4086 0.6203 0.5959
C15 C 1.25946(18) 0.7436(4) 0.60491(7)
H6 H 1.2319 0.6140 0.6181
C16 C 1.19431(17) 0.9307(4) 0.59882(7)
C17 C 1.01671(15) 0.8194(3) 0.69311(7)
C18 C 1.10946(15) 0.4587(3) 0.69974(7)
C19 C 1.11010(18) 0.4070(4) 0.77561(7)
H7 H 1.1691 0.4212 0.7991
H8 H 1.0571 0.2987 0.7858
C20 C 1.05638(16) 0.6321(4) 0.76619(7)
H9 H 1.1056 0.7532 0.7774
C21 C 0.8679(2) 0.4998(6) 0.77813(9)
H10 H 0.8795 0.3783 0.7588
C22 C 0.7700(2) 0.5228(7) 0.79816(11)
H11 H 0.7144 0.4173 0.7923
C23 C 0.7539(2) 0.6984(8) 0.82649(11)
H12 H 0.6875 0.7111 0.8405
C24 C 0.8325(2) 0.8554(6) 0.83470(9)
H13 H 0.8201 0.9780 0.8536
C25 C 0.9304(2) 0.8327(5) 0.81500(8)
H14 H 0.9855 0.9391 0.8210
C26 C 0.94860(17) 0.6564(4) 0.78662(7)
F1 F 0.98410(10) 0.2709(3) 0.52819(5)
F2 F 0.82905(12) -0.0102(3) 0.49576(5)
F3 F 0.61942(11) 0.0758(3) 0.50855(5)
F4 F 0.56357(11) 0.4523(3) 0.55045(6)
F5 F 0.71830(12) 0.7351(3) 0.58340(5)
N1 N 1.04981(14) 0.6317(3) 0.71658(6)
O1 O 0.93253(12) 0.6430(3) 0.57607(5)
O2 O 0.88646(12) 0.5076(3) 0.64289(5)
O3 O 0.99443(13) 0.9851(3) 0.71331(5)
O4 O 1.15178(12) 0.3369(3) 0.73356(5)
O5 O 1.12424(12) 0.4209(3) 0.66107(5)
C27 C 0.1180(2) 0.5892(4) 0.89961(8)
C28 C 0.0137(2) 0.5424(5) 0.91077(8)
C29 C -0.04171(19) 0.6922(5) 0.93504(8)
C30 C 0.0060(2) 0.8909(5) 0.94803(8)
C31 C 0.10966(19) 0.9380(4) 0.93642(8)
C32 C 0.16619(17) 0.7883(4) 0.91193(7)
C33 C 0.28171(17) 0.9408(4) 0.86160(7)
C34 C 0.39671(16) 0.9593(4) 0.85155(7)
C35 C 0.47387(17) 0.7735(4) 0.86333(7)
H15 H 0.4974 0.6280 0.8569
C36 C 0.48592(16) 0.9471(4) 0.88803(7)
C37 C 0.63474(18) 1.0200(5) 0.94408(8)
H16 H 0.6659 0.8815 0.9373
C38 C 0.6850(2) 1.1582(6) 0.97577(9)
H17 H 0.7510 1.1142 0.9906
C39 C 0.6397(2) 1.3605(5) 0.98595(8)
H18 H 0.6750 1.4549 1.0075
C40 C 0.5425(2) 1.4254(5) 0.96454(8)
H19 H 0.5109 1.5630 0.9718
C41 C 0.49238(19) 1.2891(4) 0.93281(7)
H20 H 0.4264 1.3339 0.9181
C42 C 0.53754(17) 1.0859(4) 0.92215(7)
C43 C 0.41869(16) 1.1070(4) 0.81208(7)
C44 C 0.33487(17) 0.8381(4) 0.75762(7)
C45 C 0.33506(18) 1.0512(4) 0.69367(7)
H21 H 0.2679 1.1347 0.6864
H22 H 0.3742 1.0328 0.6660
C46 C 0.40552(16) 1.1720(4) 0.72999(7)
H23 H 0.3790 1.3267 0.7338
C47 C 0.56114(19) 1.3524(4) 0.69554(8)
H24 H 0.5156 1.4756 0.6890
C48 C 0.6657(2) 1.3523(5) 0.68129(9)
H25 H 0.6908 1.4735 0.6645
C49 C 0.7329(2) 1.1752(5) 0.69161(9)
H26 H 0.8046 1.1754 0.6822
C50 C 0.69583(19) 0.9980(5) 0.71558(9)
H27 H 0.7420 0.8761 0.7225
C51 C 0.59102(19) 0.9973(4) 0.72965(8)
H28 H 0.5662 0.8758 0.7464
C52 C 0.52284(17) 1.1742(4) 0.71924(7)
F6 F 0.17209(14) 0.4443(3) 0.87648(5)
F7 F -0.03187(16) 0.3520(3) 0.89765(7)
F8 F -0.14136(13) 0.6476(4) 0.94662(6)
F9 F -0.04722(14) 1.0353(4) 0.97245(6)
F10 F 0.15407(13) 1.1306(3) 0.94910(6)
N2 N 0.38381(14) 1.0395(3) 0.76919(6)
O6 O 0.27098(12) 0.8274(3) 0.90159(5)
O7 O 0.20648(12) 1.0122(3) 0.83994(5)
O8 O 0.46881(14) 1.2785(3) 0.81672(5)
O9 O 0.31154(13) 0.8377(3) 0.71308(5)
O10 O 0.31662(13) 0.6851(3) 0.78133(5)
loop_
_geom_bond_atom_site_label_1
_geom_bond_atom_site_label_2
_geom_bond_site_symmetry_1
_geom_bond_site_symmetry_2
C1 C2 1_555 1_555
C2 C3 1_555 1_555
C3 C4 1_555 1_555
C4 C5 1_555 1_555
C5 C6 1_555 1_555
C6 C1 1_555 1_555
C7 C8 1_555 1_555
C8 C9 1_555 1_555
C9 H1 1_555 1_555
C10 C8 1_555 1_555
C11 H2 1_555 1_555
C12 C11 1_555 1_555
H3 C12 1_555 1_555
C13 C12 1_555 1_555
H4 C13 1_555 1_555
C14 C13 1_555 1_555
H5 C14 1_555 1_555
C15 C14 1_555 1_555
H6 C15 1_555 1_555
C16 C10 1_555 1_555
C17 C8 1_555 1_555
C18 N1 1_555 1_555
C19 H7 1_555 1_555
H8 C19 1_555 1_555
C20 C19 1_555 1_555
H9 C20 1_555 1_555
C21 H10 1_555 1_555
C22 C21 1_555 1_555
H11 C22 1_555 1_555
C23 C22 1_555 1_555
H12 C23 1_555 1_555
C24 C23 1_555 1_555
H13 C24 1_555 1_555
C25 C24 1_555 1_555
H14 C25 1_555 1_555
C26 C20 1_555 1_555
C27 C28 1_555 1_555
C28 C29 1_555 1_555
C29 C30 1_555 1_555
C30 C31 1_555 1_555
C31 C32 1_555 1_555
C32 C27 1_555 1_555
C33 C34 1_555 1_555
C34 C35 1_555 1_555
C35 H15 1_555 1_555
C36 C34 1_555 1_555
C37 H16 1_555 1_555
C38 C37 1_555 1_555
H17 C38 1_555 1_555
C39 C38 1_555 1_555
H18 C39 1_555 1_555
C40 C39 1_555 1_555
H19 C40 1_555 1_555
C41 C40 1_555 1_555
H20 C41 1_555 1_555
C42 C36 1_555 1_555
C43 C34 1_555 1_555
C44 N2 1_555 1_555
C45 H21 1_555 1_555
H22 C45 1_555 1_555
C46 C45 1_555 1_555
H23 C46 1_555 1_555
C47 H24 1_555 1_555
C48 C47 1_555 1_555
H25 C48 1_555 1_555
C49 C48 1_555 1_555
H26 C49 1_555 1_555
C50 C49 1_555 1_555
H27 C50 1_555 1_555
C51 C50 1_555 1_555
H28 C51 1_555 1_555
C52 C46 1_555 1_555
F1 C1 1_555 1_555
F2 C2 1_555 1_555
F3 C3 1_555 1_555
F4 C4 1_555 1_555
F5 C5 1_555 1_555
F6 C27 1_555 1_555
F7 C28 1_555 1_555
F8 C29 1_555 1_555
F9 C30 1_555 1_555
F10 C31 1_555 1_555
N1 C17 1_555 1_555
N2 C43 1_555 1_555
O1 C6 1_555 1_555
O2 C7 1_555 1_555
O3 C17 1_555 1_555
O4 C18 1_555 1_555
O5 C18 1_555 1_555
O6 C32 1_555 1_555
O7 C33 1_555 1_555
O8 C43 1_555 1_555
O9 C44 1_555 1_555
O10 C44 1_555 1_555
C7 O1 1_555 1_555
C9 C10 1_555 1_555
C11 C16 1_555 1_555
C15 C16 1_555 1_555
C19 O4 1_555 1_555
C20 N1 1_555 1_555
C21 C26 1_555 1_555
C25 C26 1_555 1_555
C33 O6 1_555 1_555
C35 C36 1_555 1_555
C37 C42 1_555 1_555
C41 C42 1_555 1_555
C45 O9 1_555 1_555
C46 N2 1_555 1_555
C47 C52 1_555 1_555
C51 C52 1_555 1_555

#END
