
#######################################################################
#
#                 Cambridge Crystallographic Data Centre
#                                CCDC 
#
#######################################################################
#
# If this CIF has been generated from an entry in the Cambridge 
# Structural Database, then it will include bibliographic, chemical, 
# crystal, experimental, refinement or atomic coordinate data resulting 
# from the CCDC's data processing and validation procedures.
#
#######################################################################

data_JEQRAZ
_chemical_formula_moiety         'C46 H58 N2 O1 Si1'
_chemical_name_systematic        
2-(4-t-Butylphenyl)-5-(4-(9,9-di-n-hexyl-2-(trimethylsilyl)fluoren-7-yl)phenyl)-1,3,4-oxadiazole
_symmetry_cell_setting           monoclinic
_symmetry_space_group_name_H-M   'C 2/c'
_symmetry_Int_Tables_number      15
_space_group_name_Hall           '-C 2yn'
loop_
_symmetry_equiv_pos_site_id
_symmetry_equiv_pos_as_xyz
1 x,y,z
2 1/2+x,1/2+y,z
3 -x,y,1/2-z
4 1/2-x,1/2+y,1/2-z
5 -x,-y,-z
6 1/2-x,1/2-y,-z
7 x,-y,1/2+z
8 1/2+x,1/2-y,1/2+z
_cell_length_a                   14.695(2)
_cell_length_b                   13.3300(14)
_cell_length_c                   41.182(5)
_cell_angle_alpha                90
_cell_angle_beta                 94.32(1)
_cell_angle_gamma                90
_cell_volume                     8043.99
_exptl_crystal_colour            colorless
_exptl_crystal_description       plate
_chemical_melting_point          144.0-144.7deg.C
_cell_formula_units_Z            8
_exptl_crystal_recrystallization_method ethanol
loop_
_atom_site_label
_atom_site_type_symbol
_atom_site_fract_x
_atom_site_fract_y
_atom_site_fract_z
Si1 Si -0.08774(5) 0.27706(5) 0.532489(16)
O1 O 0.74757(10) 0.55596(10) 0.75457(3)
N1 N 0.71142(13) 0.71245(14) 0.74123(4)
N2 N 0.79884(13) 0.71200(14) 0.75792(4)
C1 C 0.05794(15) 0.38443(17) 0.56743(5)
H1 H 0.0508 0.4325 0.5504
C2 C 0.00149(15) 0.29937(16) 0.56657(5)
C3 C 0.01473(15) 0.23046(17) 0.59211(5)
H2 H -0.0228 0.1724 0.5919
C4 C 0.08005(15) 0.24347(16) 0.61760(5)
H3 H 0.0874 0.1953 0.6346
C5 C 0.24846(15) 0.31975(16) 0.66934(5)
H4 H 0.2241 0.2597 0.6776
C6 C 0.32198(15) 0.36677(16) 0.68573(5)
H5 H 0.3479 0.3383 0.7055
C7 C 0.35939(15) 0.45469(16) 0.67418(5)
C8 C 0.31935(15) 0.49774(16) 0.64564(5)
H6 H 0.3426 0.5588 0.6378
C9 C 0.19484(15) 0.48245(15) 0.59692(5)
C10 C 0.12384(15) 0.39913(16) 0.59276(5)
C11 C 0.13524(15) 0.32869(16) 0.61789(5)
C12 C 0.21082(15) 0.36188(16) 0.64056(5)
C13 C 0.24605(15) 0.45149(15) 0.62895(5)
C14 C 0.15223(15) 0.58803(16) 0.59846(5)
H7 H 0.2021 0.6370 0.6033
H8 H 0.1232 0.6045 0.5766
C15 C 0.08148(16) 0.60263(17) 0.62335(6)
H9 H 0.0360 0.5478 0.6210
H10 H 0.1121 0.5986 0.6456
C16 C 0.03233(16) 0.70318(17) 0.61924(6)
H11 H 0.0114 0.7118 0.5960
H12 H -0.0225 0.7015 0.6318
C17 C 0.08959(17) 0.79330(18) 0.63008(6)
H13 H 0.1500 0.7877 0.6211
H14 H 0.0995 0.7925 0.6541
C18 C 0.04635(18) 0.89360(19) 0.61944(6)
H15 H -0.0194 0.8920 0.6232
H16 H 0.0750 0.9478 0.6331
C19 C 0.0566(2) 0.9174(2) 0.58419(7)
H17 H 0.1212 0.9277 0.5808
H18 H 0.0222 0.9784 0.5781
H19 H 0.0329 0.8614 0.5706
C20 C 0.25755(16) 0.48123(16) 0.56839(5)
H20 H 0.2220 0.5060 0.5486
H21 H 0.3082 0.5291 0.5734
C21 C 0.29832(17) 0.38003(17) 0.56060(5)
H22 H 0.2503 0.3280 0.5612
H23 H 0.3470 0.3634 0.5777
C22 C 0.33822(17) 0.37678(18) 0.52746(5)
H24 H 0.3861 0.4289 0.5270
H25 H 0.3680 0.3109 0.5250
C23 C 0.26960(18) 0.39289(19) 0.49838(5)
H26 H 0.2192 0.3441 0.4997
H27 H 0.2433 0.4610 0.4999
C24 C 0.3088(2) 0.3819(2) 0.46550(6)
H28 H 0.3585 0.4315 0.4640
H29 H 0.3358 0.3142 0.4641
C25 C 0.2395(2) 0.3967(2) 0.43682(6)
H30 H 0.1875 0.3517 0.4389
H31 H 0.2678 0.3816 0.4166
H32 H 0.2182 0.4664 0.4363
C26 C 0.44242(15) 0.49946(17) 0.69139(5)
C27 C 0.45611(16) 0.60284(17) 0.69388(5)
H33 H 0.4111 0.6472 0.6844
C28 C 0.53411(16) 0.64151(17) 0.70995(5)
H34 H 0.5419 0.7121 0.7116
C29 C 0.60161(15) 0.57796(17) 0.72381(5)
C30 C 0.58923(15) 0.47464(16) 0.72122(5)
H35 H 0.6346 0.4302 0.7305
C31 C 0.51109(15) 0.43708(17) 0.70524(5)
H36 H 0.5036 0.3664 0.7036
C32 C 0.68464(15) 0.62014(16) 0.73971(5)
C33 C 0.81720(15) 0.61935(16) 0.76513(5)
C34 C 0.89916(15) 0.57687(16) 0.78184(5)
C35 C 0.97420(16) 0.63790(17) 0.78922(5)
H37 H 0.9715 0.7068 0.7833
C36 C 1.05261(16) 0.60024(17) 0.80506(5)
H38 H 1.1032 0.6437 0.8098
C37 C 1.05973(15) 0.49965(17) 0.81438(5)
C38 C 0.98314(15) 0.43923(17) 0.80681(5)
H39 H 0.9854 0.3706 0.8130
C39 C 0.90440(16) 0.47614(16) 0.79066(5)
H40 H 0.8540 0.4329 0.7856
C40 C 1.14626(15) 0.45373(17) 0.83100(5)
C41 C 1.18377(16) 0.37645(18) 0.80782(6)
H41 H 1.1384 0.3234 0.8032
H42 H 1.2400 0.3470 0.8180
H43 H 1.1969 0.4095 0.7874
C42 C 1.12520(17) 0.4017(2) 0.86269(6)
H44 H 1.1022 0.4511 0.8777
H45 H 1.1810 0.3709 0.8727
H46 H 1.0789 0.3497 0.8580
C43 C 1.22023(16) 0.53328(19) 0.83914(6)
H47 H 1.2370 0.5651 0.8190
H48 H 1.2741 0.5013 0.8501
H49 H 1.1967 0.5842 0.8535
C44 C -0.07470(18) 0.14845(19) 0.51604(6)
H50 H -0.0186 0.1448 0.5046
H51 H -0.1272 0.1327 0.5008
H52 H -0.0714 0.1000 0.5340
C45 C -0.07550(19) 0.3708(2) 0.49986(6)
H53 H -0.0808 0.4385 0.5088
H54 H -0.1236 0.3605 0.4824
H55 H -0.0156 0.3631 0.4911
C46 C -0.20238(17) 0.2887(2) 0.54869(6)
H56 H -0.2055 0.2446 0.5676
H57 H -0.2495 0.2692 0.5318
H58 H -0.2123 0.3583 0.5552
loop_
_geom_bond_atom_site_label_1
_geom_bond_atom_site_label_2
_geom_bond_site_symmetry_1
_geom_bond_site_symmetry_2
Si1 C2 1_555 1_555
O1 C32 1_555 1_555
N1 N2 1_555 1_555
N2 C33 1_555 1_555
C1 H1 1_555 1_555
C2 C1 1_555 1_555
C3 C2 1_555 1_555
H2 C3 1_555 1_555
C4 C3 1_555 1_555
H3 C4 1_555 1_555
C5 H4 1_555 1_555
C6 C5 1_555 1_555
H5 C6 1_555 1_555
C7 C6 1_555 1_555
C8 C7 1_555 1_555
H6 C8 1_555 1_555
C9 C10 1_555 1_555
C10 C1 1_555 1_555
C11 C4 1_555 1_555
C12 C5 1_555 1_555
C13 C8 1_555 1_555
C14 C9 1_555 1_555
H7 C14 1_555 1_555
H8 C14 1_555 1_555
C15 C14 1_555 1_555
H9 C15 1_555 1_555
H10 C15 1_555 1_555
C16 C15 1_555 1_555
H11 C16 1_555 1_555
H12 C16 1_555 1_555
C17 C16 1_555 1_555
H13 C17 1_555 1_555
H14 C17 1_555 1_555
C18 C17 1_555 1_555
H15 C18 1_555 1_555
H16 C18 1_555 1_555
C19 C18 1_555 1_555
H17 C19 1_555 1_555
H18 C19 1_555 1_555
H19 C19 1_555 1_555
C20 C9 1_555 1_555
H20 C20 1_555 1_555
H21 C20 1_555 1_555
C21 C20 1_555 1_555
H22 C21 1_555 1_555
H23 C21 1_555 1_555
C22 C21 1_555 1_555
H24 C22 1_555 1_555
H25 C22 1_555 1_555
C23 C22 1_555 1_555
H26 C23 1_555 1_555
H27 C23 1_555 1_555
C24 C23 1_555 1_555
H28 C24 1_555 1_555
H29 C24 1_555 1_555
C25 C24 1_555 1_555
H30 C25 1_555 1_555
H31 C25 1_555 1_555
H32 C25 1_555 1_555
C26 C7 1_555 1_555
C27 C26 1_555 1_555
H33 C27 1_555 1_555
C28 C27 1_555 1_555
H34 C28 1_555 1_555
C29 C28 1_555 1_555
C30 C29 1_555 1_555
H35 C30 1_555 1_555
C31 C26 1_555 1_555
H36 C31 1_555 1_555
C32 N1 1_555 1_555
C33 O1 1_555 1_555
C34 C33 1_555 1_555
C35 C34 1_555 1_555
H37 C35 1_555 1_555
C36 C35 1_555 1_555
H38 C36 1_555 1_555
C37 C36 1_555 1_555
C38 C37 1_555 1_555
H39 C38 1_555 1_555
C39 C34 1_555 1_555
H40 C39 1_555 1_555
C40 C37 1_555 1_555
C41 C40 1_555 1_555
H41 C41 1_555 1_555
H42 C41 1_555 1_555
H43 C41 1_555 1_555
C42 C40 1_555 1_555
H44 C42 1_555 1_555
H45 C42 1_555 1_555
H46 C42 1_555 1_555
C43 C40 1_555 1_555
H47 C43 1_555 1_555
H48 C43 1_555 1_555
H49 C43 1_555 1_555
C44 Si1 1_555 1_555
H50 C44 1_555 1_555
H51 C44 1_555 1_555
H52 C44 1_555 1_555
C45 Si1 1_555 1_555
H53 C45 1_555 1_555
H54 C45 1_555 1_555
H55 C45 1_555 1_555
C46 Si1 1_555 1_555
H56 C46 1_555 1_555
H57 C46 1_555 1_555
H58 C46 1_555 1_555
C9 C13 1_555 1_555
C10 C11 1_555 1_555
C11 C12 1_555 1_555
C12 C13 1_555 1_555
C29 C32 1_555 1_555
C30 C31 1_555 1_555
C38 C39 1_555 1_555

#END
