
#######################################################################
#
#                 Cambridge Crystallographic Data Centre
#                                CCDC 
#
#######################################################################
#
# If this CIF has been generated from an entry in the Cambridge 
# Structural Database, then it will include bibliographic, chemical, 
# crystal, experimental, refinement or atomic coordinate data resulting 
# from the CCDC's data processing and validation procedures.
#
#######################################################################

data_JERKAS
_chemical_formula_moiety         'C13 H22 O6'
_chemical_name_systematic        
2,3:4,5-Di-O-isopropylidene-1-O-methyl-\b-D-fructopyranose
_symmetry_cell_setting           orthorhombic
_symmetry_space_group_name_H-M   'P 21 21 21'
_symmetry_Int_Tables_number      19
_space_group_name_Hall           'P 2ac 2ab'
loop_
_symmetry_equiv_pos_site_id
_symmetry_equiv_pos_as_xyz
1 x,y,z
2 1/2+x,1/2-y,-z
3 -x,1/2+y,1/2-z
4 1/2-x,-y,1/2+z
_cell_length_a                   12.388(2)
_cell_length_b                   13.307(5)
_cell_length_c                   8.660(1)
_cell_angle_alpha                90
_cell_angle_beta                 90
_cell_angle_gamma                90
_cell_volume                     1427.58
_chemical_melting_point          48-49deg.C
_cell_formula_units_Z            4
loop_
_atom_site_label
_atom_site_type_symbol
_atom_site_fract_x
_atom_site_fract_y
_atom_site_fract_z
O1 O 1.0218(1) -0.0432(1) 0.4088(2)
O2 O 0.83093(9) 0.05407(9) 0.5347(1)
O3 O 0.90815(9) 0.20625(9) 0.5795(1)
O4 O 1.13332(9) 0.0998(1) 0.7853(1)
O5 O 1.0411(1) 0.0870(1) 1.0091(2)
O6 O 0.8954(1) 0.00436(9) 0.7739(1)
C1 C 0.9841(2) -0.0571(2) 0.5617(2)
C2 C 0.9247(1) 0.0337(1) 0.6233(2)
C3 C 0.9876(1) 0.1325(1) 0.6159(2)
C4 C 1.0420(1) 0.1630(1) 0.7654(2)
C5 C 0.9732(1) 0.1447(1) 0.9105(2)
C6 C 0.8719(1) 0.0856(1) 0.8760(2)
C7 C 0.9579(2) -0.0909(2) 0.2940(3)
C8 C 0.8295(1) 0.1572(1) 0.4851(2)
C9 C 0.8595(2) 0.1631(2) 0.3154(2)
C10 C 0.7202(2) 0.2021(2) 0.5168(3)
C11 C 1.1471(1) 0.0829(2) 0.9467(2)
C12 C 1.1927(2) -0.0213(2) 0.9686(3)
C13 C 1.2177(2) 0.1633(2) 1.0163(3)
H1 H 1.041(2) 0.129(1) 0.538(2)
H2 H 1.063(2) 0.238(1) 0.751(2)
H3 H 0.957(2) 0.209(2) 0.959(3)
H4 H 1.048(2) -0.070(1) 0.623(3)
H5 H 0.931(2) -0.116(2) 0.568(3)
H6 H 0.844(2) 0.055(1) 0.978(2)
H7 H 0.816(1) 0.131(1) 0.826(2)
H8 H 0.877(2) -0.063(2) 0.305(3)
H9 H 0.962(2) -0.161(2) 0.311(3)
H10 H 0.987(3) -0.066(2) 0.196(4)
H11 H 0.931(2) 0.131(2) 0.301(3)
H12 H 0.810(2) 0.122(2) 0.252(3)
H13 H 0.863(2) 0.232(2) 0.283(3)
H14 H 0.705(2) 0.200(2) 0.624(3)
H15 H 0.716(2) 0.276(2) 0.463(3)
H16 H 0.667(2) 0.166(2) 0.469(2)
H17 H 1.145(2) -0.063(2) 0.922(3)
H18 H 1.268(2) -0.026(2) 0.917(2)
H19 H 1.194(2) -0.030(2) 1.078(3)
H20 H 1.188(2) 0.227(2) 0.994(3)
H21 H 1.226(2) 0.155(2) 1.139(3)
H22 H 1.286(2) 0.159(2) 0.975(3)
loop_
_geom_bond_atom_site_label_1
_geom_bond_atom_site_label_2
_geom_bond_site_symmetry_1
_geom_bond_site_symmetry_2
O1 C1 1_555 1_555
O2 C2 1_555 1_555
O3 C3 1_555 1_555
O4 C4 1_555 1_555
O5 C5 1_555 1_555
O6 C2 1_555 1_555
C1 C2 1_555 1_555
C2 C3 1_555 1_555
C3 C4 1_555 1_555
C4 C5 1_555 1_555
C5 C6 1_555 1_555
C6 O6 1_555 1_555
C7 O1 1_555 1_555
C8 O2 1_555 1_555
C9 C8 1_555 1_555
C10 C8 1_555 1_555
C11 O4 1_555 1_555
C12 C11 1_555 1_555
C13 C11 1_555 1_555
H1 C3 1_555 1_555
H2 C4 1_555 1_555
H3 C5 1_555 1_555
H4 C1 1_555 1_555
H5 C1 1_555 1_555
H6 C6 1_555 1_555
H7 C6 1_555 1_555
H8 C7 1_555 1_555
H9 C7 1_555 1_555
H10 C7 1_555 1_555
H11 C9 1_555 1_555
H12 C9 1_555 1_555
H13 C9 1_555 1_555
H14 C10 1_555 1_555
H15 C10 1_555 1_555
H16 C10 1_555 1_555
H17 C12 1_555 1_555
H18 C12 1_555 1_555
H19 C12 1_555 1_555
H20 C13 1_555 1_555
H21 C13 1_555 1_555
H22 C13 1_555 1_555
O3 C8 1_555 1_555
O5 C11 1_555 1_555

#END
