
#######################################################################
#
#                 Cambridge Crystallographic Data Centre
#                                CCDC 
#
#######################################################################
#
# If this CIF has been generated from an entry in the Cambridge 
# Structural Database, then it will include bibliographic, chemical, 
# crystal, experimental, refinement or atomic coordinate data resulting 
# from the CCDC's data processing and validation procedures.
#
#######################################################################

data_JERVUY
_chemical_formula_moiety         'C5 H3 N3 O5'
_chemical_name_systematic        3,5-Dinitro-2-pyridone
_symmetry_cell_setting           orthorhombic
_symmetry_space_group_name_H-M   'P n a 21'
_symmetry_Int_Tables_number      33
_space_group_name_Hall           'P 2c -2n'
loop_
_symmetry_equiv_pos_site_id
_symmetry_equiv_pos_as_xyz
1 x,y,z
2 -x,-y,1/2+z
3 1/2+x,1/2-y,z
4 1/2-x,1/2+y,1/2+z
_cell_length_a                   12.335(4)
_cell_length_b                   9.636(3)
_cell_length_c                   5.738(2)
_cell_angle_alpha                90
_cell_angle_beta                 90
_cell_angle_gamma                90
_cell_volume                     682.019
_exptl_crystal_colour            yellow
_exptl_crystal_description       block
_chemical_melting_point          '175-176 deg.C'
_cell_formula_units_Z            4
_exptl_crystal_recrystallization_method water
loop_
_atom_site_label
_atom_site_type_symbol
_atom_site_fract_x
_atom_site_fract_y
_atom_site_fract_z
N1 N 0.46045(17) 0.1378(2) 0.7735(5)
H1 H 0.5043 0.0685 0.7750
N2 N 0.22634(16) 0.2839(2) 1.0999(5)
N3 N 0.41348(17) 0.4304(2) 0.3891(5)
O1 O 0.38734(15) 0.0581(2) 1.1099(4)
O2 O 0.22886(17) 0.2200(2) 1.2821(4)
O3 O 0.15595(17) 0.3690(3) 1.0539(5)
O4 O 0.35114(17) 0.5279(2) 0.3720(5)
O5 O 0.48477(18) 0.4048(2) 0.2463(4)
C1 C 0.38518(19) 0.1449(2) 0.9544(5)
C2 C 0.31177(18) 0.2622(2) 0.9272(5)
C3 C 0.32040(19) 0.3548(3) 0.7488(5)
H2 H 0.2724 0.4289 0.7369
C4 C 0.40212(19) 0.3369(2) 0.5848(5)
C5 C 0.47116(19) 0.2273(2) 0.5996(6)
H3 H 0.5254 0.2151 0.4888
loop_
_geom_bond_atom_site_label_1
_geom_bond_atom_site_label_2
_geom_bond_site_symmetry_1
_geom_bond_site_symmetry_2
N1 H1 1_555 1_555
N2 O2 1_555 1_555
N3 O4 1_555 1_555
O1 C1 1_555 1_555
O3 N2 1_555 1_555
O5 N3 1_555 1_555
C1 N1 1_555 1_555
C2 N2 1_555 1_555
C3 C2 1_555 1_555
H2 C3 1_555 1_555
C4 N3 1_555 1_555
C5 N1 1_555 1_555
H3 C5 1_555 1_555
C1 C2 1_555 1_555
C3 C4 1_555 1_555
C4 C5 1_555 1_555

#END
