
#######################################################################
#
#                 Cambridge Crystallographic Data Centre
#                                CCDC 
#
#######################################################################
#
# If this CIF has been generated from an entry in the Cambridge 
# Structural Database, then it will include bibliographic, chemical, 
# crystal, experimental, refinement or atomic coordinate data resulting 
# from the CCDC's data processing and validation procedures.
#
#######################################################################

data_JERWEJ01
_chemical_formula_moiety         'C17 H16 N8 S2'
_chemical_name_systematic        
1,3-bis(1-Phenyl-1H-tetrazole-5-ylsulfanyl)propane
_symmetry_cell_setting           monoclinic
_symmetry_space_group_name_H-M   'P 21/n'
_symmetry_Int_Tables_number      14
_space_group_name_Hall           '-P 2yn'
loop_
_symmetry_equiv_pos_site_id
_symmetry_equiv_pos_as_xyz
1 x,y,z
2 1/2-x,1/2+y,1/2-z
3 -x,-y,-z
4 1/2+x,1/2-y,1/2+z
_cell_length_a                   16.774(3)
_cell_length_b                   6.5029(13)
_cell_length_c                   18.691(4)
_cell_angle_alpha                90
_cell_angle_beta                 112.24(3)
_cell_angle_gamma                90
_cell_volume                     1887.13
_exptl_crystal_colour            colorless
_exptl_crystal_description       plate
_chemical_melting_point          '372 K'
_cell_formula_units_Z            4
_exptl_crystal_recrystallization_method chloroform
loop_
_atom_site_label
_atom_site_type_symbol
_atom_site_fract_x
_atom_site_fract_y
_atom_site_fract_z
S1 S 0.17882(3) 1.23458(8) 1.03342(3)
S2 S 0.11140(4) 0.83195(9) 0.79835(3)
N1 N 0.04608(10) 1.2317(2) 1.08302(8)
N2 N -0.04119(10) 1.2434(2) 1.05572(10)
N3 N -0.06596(11) 1.2642(2) 0.98180(10)
N4 N 0.00229(11) 1.2653(2) 0.95911(9)
N5 N 0.19750(11) 1.0604(3) 0.72532(10)
N6 N 0.19470(14) 1.0695(3) 0.65123(11)
N7 N 0.14153(13) 0.9381(3) 0.60708(10)
N8 N 0.10687(10) 0.8364(3) 0.65240(9)
C1 C 0.09563(12) 1.2158(3) 1.16485(10)
C2 C 0.13872(15) 1.0367(4) 1.19400(12)
H1 H 0.1368 0.9267 1.1616
C3 C 0.18515(17) 1.0233(5) 1.27279(14)
H2 H 0.2148 0.9031 1.2938
C4 C 0.18764(19) 1.1863(5) 1.31981(15)
H3 H 0.2193 1.1767 1.3727
C5 C 0.14372(19) 1.3639(5) 1.28955(14)
H4 H 0.1453 1.4735 1.3221
C6 C 0.09696(15) 1.3810(4) 1.21086(13)
H5 H 0.0673 1.5012 1.1898
C7 C 0.07152(12) 1.2454(2) 1.02300(10)
C8 C 0.17388(15) 1.3429(3) 0.94242(11)
H6 H 0.1431 1.4726 0.9346
H7 H 0.2322 1.3731 0.9468
C9 C 0.13129(15) 1.2107(3) 0.87103(11)
H8 H 0.0716 1.1881 0.8641
H9 H 0.1317 1.2851 0.8262
C10 C 0.17444(12) 1.0044(3) 0.87479(10)
H10 H 0.1841 0.9409 0.9243
H11 H 0.2301 1.0257 0.8714
C11 C 0.14204(12) 0.9143(3) 0.72444(10)
C12 C 0.04254(12) 0.6805(3) 0.62220(10)
C13 C 0.05662(14) 0.4895(3) 0.65652(13)
H12 H 0.1075 0.4617 0.6982
C14 C -0.00601(18) 0.3396(4) 0.62813(16)
H13 H 0.0016 0.2109 0.6515
C15 C -0.07975(18) 0.3827(5) 0.56493(17)
H14 H -0.1216 0.2816 0.5454
C16 C -0.09226(16) 0.5724(6) 0.53049(15)
H15 H -0.1421 0.5985 0.4875
C17 C -0.03113(15) 0.7251(4) 0.55937(13)
H16 H -0.0396 0.8550 0.5369
loop_
_geom_bond_atom_site_label_1
_geom_bond_atom_site_label_2
_geom_bond_site_symmetry_1
_geom_bond_site_symmetry_2
S1 C7 1_555 1_555
S2 C10 1_555 1_555
N1 N2 1_555 1_555
N2 N3 1_555 1_555
N3 N4 1_555 1_555
N4 C7 1_555 1_555
N5 N6 1_555 1_555
N6 N7 1_555 1_555
N7 N8 1_555 1_555
N8 C11 1_555 1_555
C1 N1 1_555 1_555
C2 C1 1_555 1_555
H1 C2 1_555 1_555
C3 C2 1_555 1_555
H2 C3 1_555 1_555
C4 C3 1_555 1_555
H3 C4 1_555 1_555
C5 C4 1_555 1_555
H4 C5 1_555 1_555
C6 C1 1_555 1_555
H5 C6 1_555 1_555
C7 N1 1_555 1_555
C8 S1 1_555 1_555
H6 C8 1_555 1_555
H7 C8 1_555 1_555
C9 C8 1_555 1_555
H8 C9 1_555 1_555
H9 C9 1_555 1_555
C10 C9 1_555 1_555
H10 C10 1_555 1_555
H11 C10 1_555 1_555
C11 S2 1_555 1_555
C12 N8 1_555 1_555
C13 C12 1_555 1_555
H12 C13 1_555 1_555
C14 C13 1_555 1_555
H13 C14 1_555 1_555
C15 C14 1_555 1_555
H14 C15 1_555 1_555
C16 C15 1_555 1_555
H15 C16 1_555 1_555
C17 C12 1_555 1_555
H16 C17 1_555 1_555
N5 C11 1_555 1_555
C5 C6 1_555 1_555
C16 C17 1_555 1_555

#END
