
#######################################################################
#
#                 Cambridge Crystallographic Data Centre
#                                CCDC 
#
#######################################################################
#
# If this CIF has been generated from an entry in the Cambridge 
# Structural Database, then it will include bibliographic, chemical, 
# crystal, experimental, refinement or atomic coordinate data resulting 
# from the CCDC's data processing and validation procedures.
#
#######################################################################

data_JERWUY
_chemical_formula_moiety         'C14 H25 N3 P2 S2'
_chemical_name_systematic        
4,5-Benzo-3-(N',N'-diethylaminoethylthiophosphinoyl)-2-ethyl-1,3,2-diazaphosphazane-2-thione
_symmetry_cell_setting           monoclinic
_symmetry_space_group_name_H-M   'P n'
_symmetry_Int_Tables_number      7
_space_group_name_Hall           'P -2yac'
loop_
_symmetry_equiv_pos_site_id
_symmetry_equiv_pos_as_xyz
1 x,y,z
2 1/2+x,-y,1/2+z
_cell_length_a                   8.561(3)
_cell_length_b                   7.705(3)
_cell_length_c                   14.036(4)
_cell_angle_alpha                90
_cell_angle_beta                 95.97(2)
_cell_angle_gamma                90
_cell_volume                     920.828
_chemical_melting_point          163.5-164deg.C
_cell_formula_units_Z            2
loop_
_atom_site_label
_atom_site_type_symbol
_atom_site_fract_x
_atom_site_fract_y
_atom_site_fract_z
P1 P 0.5800 0.2607(1) 0.5600
P2 P 0.2236(1) 0.2997(1) 0.4990(1)
S1 S 0.6484(1) 0.4846(1) 0.6095(1)
S2 S 0.0828(1) 0.1054(1) 0.4641(1)
N1 N 0.4136(3) 0.2524(3) 0.4806(2)
N2 N 0.6879(3) 0.1646(4) 0.4831(2)
N3 N 0.1755(3) 0.4780(3) 0.4397(2)
C1 C 0.4530(3) 0.2048(4) 0.3870(2)
C2 C 0.6109(3) 0.1557(4) 0.3898(2)
C3 C 0.6755(4) 0.1076(5) 0.3076(3)
C4 C 0.5785(5) 0.1067(6) 0.2213(3)
C5 C 0.4234(4) 0.1555(5) 0.2185(2)
C6 C 0.3587(4) 0.2057(4) 0.3013(2)
C7 C 0.2748(4) 0.6327(4) 0.4569(3)
C8 C 0.3680(7) 0.6777(7) 0.3747(4)
C9 C 0.0371(4) 0.4961(5) 0.3692(3)
C10 C -0.0861(5) 0.6168(8) 0.4016(4)
C11 C 0.2373(3) 0.3474(5) 0.6257(2)
C12 C 0.0831(5) 0.4124(8) 0.6559(3)
C13 C 0.5659(4) 0.1044(4) 0.6550(2)
C14 C 0.4957(5) -0.0685(5) 0.6229(3)
H1 H 0.7708(53) 0.1645(55) 0.4882(31)
H2 H 0.7842 0.0756 0.3098
H3 H 0.6203 0.0718 0.1634
H4 H 0.3587 0.1548 0.1584
H5 H 0.2506 0.2403 0.2987
H6 H 0.2085 0.7295 0.4681
H7 H 0.3470 0.6125 0.5128
H8 H 0.4296 0.7779 0.3945
H9 H 0.2998 0.7049 0.3180
H10 H 0.4364 0.5840 0.3614
H11 H 0.0707 0.5406 0.3107
H12 H -0.0092 0.3836 0.3576
H13 H -0.1739 0.6068 0.3535
H14 H -0.0502 0.7349 0.4049
H15 H -0.1175 0.5829 0.4626
H16 H 0.3162 0.4348 0.6402
H17 H 0.2670 0.2436 0.6609
H18 H 0.0858 0.4423 0.7225
H19 H 0.0088 0.3204 0.6414
H20 H 0.0522 0.5120 0.6174
H21 H 0.5019 0.1538 0.7003
H22 H 0.6698 0.0840 0.6858
H23 H 0.5043 -0.1270 0.6836
H24 H 0.5572 -0.1287 0.5800
H25 H 0.3877 -0.0665 0.5964
loop_
_geom_bond_atom_site_label_1
_geom_bond_atom_site_label_2
_geom_bond_site_symmetry_1
_geom_bond_site_symmetry_2
P1 S1 1_555 1_555
P2 S2 1_555 1_555
N1 P1 1_555 1_555
N2 P1 1_555 1_555
N3 P2 1_555 1_555
C1 N1 1_555 1_555
C2 N2 1_555 1_555
C3 C2 1_555 1_555
C4 C3 1_555 1_555
C5 C4 1_555 1_555
C6 C1 1_555 1_555
C7 N3 1_555 1_555
C8 C7 1_555 1_555
C9 N3 1_555 1_555
C10 C9 1_555 1_555
C11 P2 1_555 1_555
C12 C11 1_555 1_555
C13 P1 1_555 1_555
C14 C13 1_555 1_555
H1 N2 1_555 1_555
H2 C3 1_555 1_555
H3 C4 1_555 1_555
H4 C5 1_555 1_555
H5 C6 1_555 1_555
H6 C7 1_555 1_555
H7 C7 1_555 1_555
H8 C8 1_555 1_555
H9 C8 1_555 1_555
H10 C8 1_555 1_555
H11 C9 1_555 1_555
H12 C9 1_555 1_555
H13 C10 1_555 1_555
H14 C10 1_555 1_555
H15 C10 1_555 1_555
H16 C11 1_555 1_555
H17 C11 1_555 1_555
H18 C12 1_555 1_555
H19 C12 1_555 1_555
H20 C12 1_555 1_555
H21 C13 1_555 1_555
H22 C13 1_555 1_555
H23 C14 1_555 1_555
H24 C14 1_555 1_555
H25 C14 1_555 1_555
P2 N1 1_555 1_555
C1 C2 1_555 1_555
C5 C6 1_555 1_555

#END
