
#######################################################################
#
#                 Cambridge Crystallographic Data Centre
#                                CCDC 
#
#######################################################################
#
# If this CIF has been generated from an entry in the Cambridge 
# Structural Database, then it will include bibliographic, chemical, 
# crystal, experimental, refinement or atomic coordinate data resulting 
# from the CCDC's data processing and validation procedures.
#
#######################################################################

data_JERZEM
_chemical_name_common            
'2-nitro-benzene-1,4-bis(oxyacetic acid) dihydrate'
_chemical_formula_moiety         'C10 H9 N1 O8,2(H2 O1)'
_chemical_name_systematic        
'2-nitro-benzene-1,4-dioxyacetic acid dihydrate'
_symmetry_cell_setting           monoclinic
_symmetry_space_group_name_H-M   'P 21/n'
_symmetry_Int_Tables_number      14
_space_group_name_Hall           '-P 2yn'
loop_
_symmetry_equiv_pos_site_id
_symmetry_equiv_pos_as_xyz
1 x,y,z
2 1/2-x,1/2+y,1/2-z
3 -x,-y,-z
4 1/2+x,1/2-y,1/2+z
_cell_length_a                   7.3506(16)
_cell_length_b                   22.077(5)
_cell_length_c                   8.1290(17)
_cell_angle_alpha                90
_cell_angle_beta                 99.907(4)
_cell_angle_gamma                90
_cell_volume                     1299.5
_exptl_crystal_colour            'light yellow'
_exptl_crystal_description       column
_cell_formula_units_Z            4
loop_
_atom_site_label
_atom_site_type_symbol
_atom_site_fract_x
_atom_site_fract_y
_atom_site_fract_z
O1 O 0.1746(2) 0.16643(8) 1.12736(19)
O2 O 0.2534(2) 0.22072(8) 1.4175(2)
O3 O -0.0444(2) 0.23203(7) 1.4342(2)
H1 H -0.0026 0.2502 1.5205
O4 O -0.3250(3) 0.15782(10) 0.6239(2)
O5 O -0.2429(3) 0.08465(10) 0.4790(3)
O6 O 0.1125(2) 0.08123(7) 0.48022(19)
O7 O 0.0723(3) 0.02433(9) 0.1879(2)
O8 O 0.3731(2) 0.00902(9) 0.2103(2)
H2 H 0.3416 -0.0095 0.1226
N1 N -0.2098(3) 0.12074(10) 0.5937(3)
C1 C 0.1460(3) 0.14563(11) 0.9652(3)
C2 C -0.0204(3) 0.14364(10) 0.8607(3)
H3 H -0.1270 0.1570 0.8966
C3 C -0.0284(3) 0.12124(10) 0.6993(3)
C4 C 0.1291(3) 0.10115(10) 0.6412(3)
C5 C 0.2949(3) 0.10526(11) 0.7499(3)
H4 H 0.4028 0.0933 0.7140
C6 C 0.3047(3) 0.12658(11) 0.9095(3)
H5 H 0.4181 0.1283 0.9807
C7 C 0.0202(3) 0.18954(11) 1.1899(3)
H6 H -0.0678 0.1575 1.1986
H7 H -0.0409 0.2207 1.1163
C8 C 0.0927(3) 0.21532(10) 1.3581(3)
C9 C 0.2776(3) 0.06012(11) 0.4292(3)
H8 H 0.3405 0.0315 0.5102
H9 H 0.3601 0.0938 0.4205
C10 C 0.2241(4) 0.03017(11) 0.2635(3)
O9 O 0.0575(4) 0.28528(10) 0.7246(3)
H10 H -0.034(5) 0.2880(14) 0.776(4)
H11 H 0.145(5) 0.2748(14) 0.790(4)
O10 O 0.2912(3) 0.95107(10) 0.9264(3)
H12 H 0.161(5) 0.9603(12) 0.872(4)
H13 H 0.357(6) 0.9501(16) 0.857(5)
loop_
_geom_bond_atom_site_label_1
_geom_bond_atom_site_label_2
_geom_bond_site_symmetry_1
_geom_bond_site_symmetry_2
O1 C1 1_555 1_555
O2 C8 1_555 1_555
O3 H1 1_555 1_555
O4 N1 1_555 1_555
O5 N1 1_555 1_555
O6 C4 1_555 1_555
O7 C10 1_555 1_555
O8 H2 1_555 1_555
N1 C3 1_555 1_555
C1 C2 1_555 1_555
C2 H3 1_555 1_555
C3 C2 1_555 1_555
C4 C3 1_555 1_555
C5 C4 1_555 1_555
H4 C5 1_555 1_555
C6 C1 1_555 1_555
H5 C6 1_555 1_555
C7 O1 1_555 1_555
H6 C7 1_555 1_555
H7 C7 1_555 1_555
C8 O3 1_555 1_555
C9 O6 1_555 1_555
H8 C9 1_555 1_555
H9 C9 1_555 1_555
C10 O8 1_555 1_555
O9 H10 1_555 1_555
H11 O9 1_555 1_555
O10 H12 1_555 1_555
H13 O10 1_555 1_555
C5 C6 1_555 1_555
C7 C8 1_555 1_555
C9 C10 1_555 1_555

#END
