
#######################################################################
#
#                 Cambridge Crystallographic Data Centre
#                                CCDC 
#
#######################################################################
#
# If this CIF has been generated from an entry in the Cambridge 
# Structural Database, then it will include bibliographic, chemical, 
# crystal, experimental, refinement or atomic coordinate data resulting 
# from the CCDC's data processing and validation procedures.
#
#######################################################################

data_JESBAN
_chemical_compound_source        
'unripe fruit of Evodia rutaecarpa (Juss.) Benth.'
_chemical_name_common            'evodiamide A'
_chemical_formula_moiety         'C20 H19 N3 O5'
_chemical_name_systematic        
3-(2-(4-methoxy-2-oxo-1,4-dihydro-2H-3,1-benzoxazin-4-yl)ethyl)-1-methylquinazoline-2,4(1H,3H)-dione
_symmetry_cell_setting           orthorhombic
_symmetry_space_group_name_H-M   'P b c a'
_symmetry_Int_Tables_number      61
_space_group_name_Hall           '-P 2ac 2ab'
loop_
_symmetry_equiv_pos_site_id
_symmetry_equiv_pos_as_xyz
1 x,y,z
2 1/2-x,-y,1/2+z
3 1/2+x,1/2-y,-z
4 -x,1/2+y,1/2-z
5 -x,-y,-z
6 1/2+x,y,1/2-z
7 1/2-x,1/2+y,z
8 x,1/2-y,1/2+z
_cell_length_a                   8.2710(17)
_cell_length_b                   20.751(4)
_cell_length_c                   21.428(4)
_cell_angle_alpha                90
_cell_angle_beta                 90
_cell_angle_gamma                90
_cell_volume                     3677.72
_exptl_crystal_colour            colorless
_exptl_crystal_description       needle
_cell_formula_units_Z            8
_exptl_crystal_recrystallization_method dichloromethane/n-hexane
loop_
_atom_site_label
_atom_site_type_symbol
_atom_site_fract_x
_atom_site_fract_y
_atom_site_fract_z
O1 O 1.2645(7) -0.0432(2) 0.8874(2)
N1 N 1.2943(7) -0.0950(3) 0.7953(3)
C1 C 1.2511(9) -0.0439(4) 0.8300(4)
O2 O 1.0680(7) 0.0553(3) 0.7157(2)
N2 N 1.1879(7) 0.0090(3) 0.7994(3)
C2 C 1.2874(9) -0.0940(4) 0.7306(4)
O3 O 0.9837(5) 0.1878(2) 0.8378(2)
O4 O 0.8994(5) 0.2264(2) 0.7466(2)
C3 C 1.3648(11) -0.1438(4) 0.6968(4)
H1 H 1.4217 -0.1765 0.7168
O5 O 1.0801(5) 0.1576(2) 0.9321(2)
N3 N 0.7124(6) 0.1913(3) 0.8160(2)
H2 H 0.6361 0.1996 0.7900
C4 C 1.3517(12) -0.1413(5) 0.6331(5)
H3 H 1.3988 -0.1743 0.6099
C5 C 1.2724(12) -0.0926(5) 0.6012(4)
H4 H 1.2691 -0.0927 0.5578
C6 C 1.1967(10) -0.0430(5) 0.6354(3)
H5 H 1.1413 -0.0101 0.6150
C7 C 1.2065(9) -0.0441(4) 0.6998(3)
C8 C 1.1433(9) 0.0094(4) 0.7362(4)
C9 C 1.3528(11) -0.1528(4) 0.8279(4)
H6 H 1.3510 -0.1454 0.8721
H7 H 1.4614 -0.1621 0.8149
H8 H 1.2842 -0.1887 0.8180
C10 C 1.1686(9) 0.0704(4) 0.8356(4)
H9 H 1.2486 0.0719 0.8687
H10 H 1.1872 0.1068 0.8082
C11 C 1.0032(8) 0.0751(3) 0.8632(3)
H11 H 0.9936 0.0434 0.8963
H12 H 0.9246 0.0643 0.8313
C12 C 0.9614(8) 0.1407(3) 0.8896(3)
C13 C 0.8652(9) 0.2022(3) 0.7978(3)
C14 C 0.6701(8) 0.1674(3) 0.8743(3)
C15 C 0.5125(9) 0.1653(3) 0.8950(3)
H13 H 0.4313 0.1825 0.8701
C16 C 0.4720(9) 0.1385(4) 0.9514(3)
H14 H 0.3647 0.1366 0.9642
C17 C 0.5933(9) 0.1146(4) 0.9886(3)
H15 H 0.5671 0.0960 1.0268
C18 C 0.7533(8) 0.1175(4) 0.9705(3)
H16 H 0.8345 0.1020 0.9965
C19 C 0.7912(8) 0.1440(3) 0.9129(3)
C20 C 1.0614(9) 0.2204(4) 0.9599(3)
H17 H 1.1478 0.2278 0.9890
H18 H 0.9597 0.2224 0.9815
H19 H 1.0642 0.2527 0.9279
loop_
_geom_bond_atom_site_label_1
_geom_bond_atom_site_label_2
_geom_bond_site_symmetry_1
_geom_bond_site_symmetry_2
O1 C1 1_555 1_555
N1 C1 1_555 1_555
C1 N2 1_555 1_555
O2 C8 1_555 1_555
N2 C8 1_555 1_555
C2 N1 1_555 1_555
O3 C12 1_555 1_555
O4 C13 1_555 1_555
C3 C2 1_555 1_555
H1 C3 1_555 1_555
O5 C12 1_555 1_555
N3 H2 1_555 1_555
C4 C3 1_555 1_555
H3 C4 1_555 1_555
C5 C4 1_555 1_555
H4 C5 1_555 1_555
C6 C5 1_555 1_555
H5 C6 1_555 1_555
C7 C2 1_555 1_555
C8 C7 1_555 1_555
C9 N1 1_555 1_555
H6 C9 1_555 1_555
H7 C9 1_555 1_555
H8 C9 1_555 1_555
C10 N2 1_555 1_555
H9 C10 1_555 1_555
H10 C10 1_555 1_555
C11 C10 1_555 1_555
H11 C11 1_555 1_555
H12 C11 1_555 1_555
C12 C11 1_555 1_555
C13 O3 1_555 1_555
C14 N3 1_555 1_555
C15 C14 1_555 1_555
H13 C15 1_555 1_555
C16 C15 1_555 1_555
H14 C16 1_555 1_555
C17 C16 1_555 1_555
H15 C17 1_555 1_555
C18 C17 1_555 1_555
H16 C18 1_555 1_555
C19 C12 1_555 1_555
C20 O5 1_555 1_555
H17 C20 1_555 1_555
H18 C20 1_555 1_555
H19 C20 1_555 1_555
N3 C13 1_555 1_555
C6 C7 1_555 1_555
C14 C19 1_555 1_555
C18 C19 1_555 1_555

#END
