
#######################################################################
#
#                 Cambridge Crystallographic Data Centre
#                                CCDC 
#
#######################################################################
#
# If this CIF has been generated from an entry in the Cambridge 
# Structural Database, then it will include bibliographic, chemical, 
# crystal, experimental, refinement or atomic coordinate data resulting 
# from the CCDC's data processing and validation procedures.
#
#######################################################################

data_JESTAF
_chemical_formula_moiety         'C10 H15 F2 N1 O4'
_chemical_name_systematic        
'1-((t-butoxycarbonyl)amino)-2-(difluoromethyl)cyclopropane-1-carboxylic acid'
_symmetry_cell_setting           monoclinic
_symmetry_space_group_name_H-M   'P 21/n'
_symmetry_Int_Tables_number      14
_space_group_name_Hall           '-P 2yn'
loop_
_symmetry_equiv_pos_site_id
_symmetry_equiv_pos_as_xyz
1 x,y,z
2 1/2-x,1/2+y,1/2-z
3 -x,-y,-z
4 1/2+x,1/2-y,1/2+z
_cell_length_a                   6.0743(1)
_cell_length_b                   23.3773(7)
_cell_length_c                   8.5699(2)
_cell_angle_alpha                90
_cell_angle_beta                 96.101(1)
_cell_angle_gamma                90
_cell_volume                     1210.04
_exptl_crystal_description       plate
_cell_formula_units_Z            4
_exptl_crystal_recrystallization_method Ethanol/water
loop_
_atom_site_label
_atom_site_type_symbol
_atom_site_fract_x
_atom_site_fract_y
_atom_site_fract_z
F1 F 0.3777(3) 0.08689(7) 0.25245(19)
F2 F 0.0611(4) 0.05599(6) 0.14486(19)
C1 C 0.1707(5) 0.10427(10) 0.1977(3)
H1 H 0.1763 0.1319 0.1121
C2 C 0.1139(4) 0.18724(9) 0.3973(2)
C3 C -0.0993(4) 0.17829(10) 0.2928(3)
H2 H -0.2361 0.1781 0.3418
H3 H -0.1108 0.1948 0.1885
C4 C 0.0544(4) 0.12925(9) 0.3257(3)
H4 H 0.0058 0.1011 0.3997
C5 C 0.2901(4) 0.22165(8) 0.3307(2)
C6 C 0.2177(4) 0.16915(9) 0.6800(2)
C7 C 0.4931(4) 0.09262(9) 0.7361(3)
C8 C 0.3300(5) 0.04836(12) 0.7838(4)
H5 H 0.2300 0.0661 0.8488
H6 H 0.4092 0.0182 0.8413
H7 H 0.2476 0.0329 0.6917
C9 C 0.6490(5) 0.06666(13) 0.6276(3)
H8 H 0.5645 0.0520 0.5352
H9 H 0.7315 0.0361 0.6809
H10 H 0.7494 0.0955 0.5984
C10 C 0.6196(5) 0.12043(16) 0.8770(3)
H11 H 0.7107 0.1505 0.8429
H12 H 0.7113 0.0924 0.9342
H13 H 0.5172 0.1361 0.9436
O1 O 0.3695(3) 0.13448(7) 0.63082(17)
O2 O 0.1908(3) 0.17766(7) 0.81807(17)
O3 O 0.4152(3) 0.25079(7) 0.43608(17)
H14 H 0.5021 0.2705 0.3925
O4 O 0.3117(3) 0.22179(7) 0.19186(17)
N1 N 0.0922(3) 0.19426(8) 0.56066(19)
H15 H -0.0111 0.2167 0.5849
loop_
_geom_bond_atom_site_label_1
_geom_bond_atom_site_label_2
_geom_bond_site_symmetry_1
_geom_bond_site_symmetry_2
F1 C1 1_555 1_555
F2 C1 1_555 1_555
C1 H1 1_555 1_555
C2 C3 1_555 1_555
C3 H2 1_555 1_555
H3 C3 1_555 1_555
C4 C1 1_555 1_555
H4 C4 1_555 1_555
C5 C2 1_555 1_555
C6 O1 1_555 1_555
C7 C8 1_555 1_555
C8 H5 1_555 1_555
H6 C8 1_555 1_555
H7 C8 1_555 1_555
C9 C7 1_555 1_555
H8 C9 1_555 1_555
H9 C9 1_555 1_555
H10 C9 1_555 1_555
C10 C7 1_555 1_555
H11 C10 1_555 1_555
H12 C10 1_555 1_555
H13 C10 1_555 1_555
O1 C7 1_555 1_555
O2 C6 1_555 1_555
O3 C5 1_555 1_555
H14 O3 1_555 1_555
O4 C5 1_555 1_555
N1 C2 1_555 1_555
H15 N1 1_555 1_555
C2 C4 1_555 1_555
C3 C4 1_555 1_555
C6 N1 1_555 1_555

#END
