
#######################################################################
#
#                 Cambridge Crystallographic Data Centre
#                                CCDC 
#
#######################################################################
#
# If this CIF has been generated from an entry in the Cambridge 
# Structural Database, then it will include bibliographic, chemical, 
# crystal, experimental, refinement or atomic coordinate data resulting 
# from the CCDC's data processing and validation procedures.
#
#######################################################################

data_JESTUZ
_chemical_formula_moiety         'C32 H36 O4 Si4'
_chemical_name_systematic        
7,7,15,15-tetraphenyl-6,8,14,16-tetraoxa-5,7,9,15-tetrasiladispiro[4.3.4^9^.3^5^]hexadecane
_symmetry_cell_setting           monoclinic
_symmetry_space_group_name_H-M   'P 21/n'
_symmetry_Int_Tables_number      14
_space_group_name_Hall           '-P 2yn'
loop_
_symmetry_equiv_pos_site_id
_symmetry_equiv_pos_as_xyz
1 x,y,z
2 1/2-x,1/2+y,1/2-z
3 -x,-y,-z
4 1/2+x,1/2-y,1/2+z
_cell_length_a                   10.802(2)
_cell_length_b                   12.548(3)
_cell_length_c                   23.414(5)
_cell_angle_alpha                90
_cell_angle_beta                 95.998(4)
_cell_angle_gamma                90
_cell_volume                     3156.24
_exptl_crystal_colour            colorless
_exptl_crystal_description       flake
_cell_formula_units_Z            4
loop_
_atom_site_label
_atom_site_type_symbol
_atom_site_fract_x
_atom_site_fract_y
_atom_site_fract_z
Si1 Si 0.93626(11) 0.38210(9) 0.15744(5)
C1 C 0.8257(4) 0.2971(3) 0.11227(17)
C2 C 0.8613(4) 0.2039(4) 0.08633(18)
H1 H 0.945076 0.180295 0.093471
C3 C 0.7778(4) 0.1446(4) 0.05034(18)
H2 H 0.804127 0.080081 0.034122
C4 C 0.6560(4) 0.1789(4) 0.0379(2)
H3 H 0.59962 0.139854 0.011969
C5 C 0.6180(4) 0.2695(4) 0.0633(2)
H4 H 0.534094 0.292535 0.055735
C6 C 0.7007(4) 0.3278(4) 0.09992(19)
H5 H 0.672286 0.390388 0.117252
C7 C 1.0007(4) 0.4914(4) 0.11640(18)
C8 C 1.0838(5) 0.4723(5) 0.0761(2)
H6 H 1.108601 0.401233 0.069249
C9 C 1.1314(6) 0.5554(6) 0.0455(3)
H7 H 1.189216 0.540455 0.018699
C10 C 1.0956(6) 0.6580(6) 0.0538(3)
H8 H 1.128293 0.714301 0.032779
C11 C 1.0116(6) 0.6799(5) 0.0929(3)
H9 H 0.985919 0.751084 0.098819
C12 C 0.9654(4) 0.5969(4) 0.1234(2)
H10 H 0.907412 0.612522 0.150062
O1 O 1.0490(2) 0.3052(2) 0.18429(11)
Si2 Si 1.17845(10) 0.30107(9) 0.22729(5)
C13 C 1.2657(3) 0.1750(3) 0.22011(19)
H11 H 1.262987 0.129358 0.254437
H12 H 1.231823 0.134724 0.185605
C14 C 1.4002(4) 0.2144(4) 0.2144(2)
H13 H 1.445017 0.227469 0.252833
H14 H 1.446699 0.16026 0.194482
C15 C 1.3894(4) 0.3185(4) 0.17942(19)
H15 H 1.472179 0.352521 0.179852
H16 H 1.357792 0.3031 0.139043
C16 C 1.2995(4) 0.3934(3) 0.20628(19)
H17 H 1.263637 0.446756 0.178115
H18 H 1.341594 0.430807 0.240143
O2 O 1.1441(2) 0.3212(2) 0.29239(12)
Si3 Si 1.06633(11) 0.36900(10) 0.34191(5)
C17 C 1.0073(4) 0.2546(3) 0.38189(17)
C18 C 0.9006(4) 0.2641(4) 0.41134(19)
H19 H 0.857751 0.330247 0.411002
C19 C 0.8571(4) 0.1784(4) 0.4408(2)
H20 H 0.785096 0.186233 0.460507
C20 C 0.9180(5) 0.0820(4) 0.4416(2)
H21 H 0.887235 0.023208 0.461493
C21 C 1.0231(5) 0.0703(4) 0.4137(2)
H22 H 1.066173 0.004204 0.414982
C22 C 1.0659(4) 0.1561(3) 0.38363(19)
H23 H 1.137446 0.147019 0.363708
C23 C 1.1719(3) 0.4576(3) 0.38798(16)
C24 C 1.1275(4) 0.5440(3) 0.41704(17)
H24 H 1.040424 0.557114 0.413458
C25 C 1.2050(4) 0.6112(4) 0.45081(19)
H25 H 1.170788 0.668323 0.470693
C26 C 1.3326(4) 0.5956(4) 0.4558(2)
H26 H 1.386348 0.643149 0.478109
C27 C 1.3807(4) 0.5111(4) 0.4282(2)
H27 H 1.467971 0.499096 0.432157
C28 C 1.3018(4) 0.4425(3) 0.39445(17)
H28 H 1.336433 0.384476 0.375462
O3 O 0.9486(2) 0.4415(2) 0.31653(11)
Si4 Si 0.82402(10) 0.45305(9) 0.27149(5)
C29 C 0.6945(4) 0.3634(3) 0.28794(19)
H29 H 0.654308 0.328905 0.252732
H30 H 0.724185 0.307762 0.316079
C30 C 0.6048(4) 0.4421(4) 0.3136(2)
H31 H 0.519701 0.411909 0.310509
H32 H 0.632413 0.454648 0.35469
C31 C 0.6046(4) 0.5466(4) 0.2806(2)
H33 H 0.557842 0.601606 0.299762
H34 H 0.564363 0.536705 0.241
C32 C 0.7418(4) 0.5816(3) 0.2794(2)
H35 H 0.773403 0.61823 0.31541
H36 H 0.751008 0.62949 0.246475
O4 O 0.8639(2) 0.4368(2) 0.20720(12)
loop_
_geom_bond_atom_site_label_1
_geom_bond_atom_site_label_2
_geom_bond_site_symmetry_1
_geom_bond_site_symmetry_2
Si1 C1 1_555 1_555
C1 C2 1_555 1_555
C2 H1 1_555 1_555
C3 C2 1_555 1_555
H2 C3 1_555 1_555
C4 C3 1_555 1_555
H3 C4 1_555 1_555
C5 C4 1_555 1_555
H4 C5 1_555 1_555
C6 C1 1_555 1_555
H5 C6 1_555 1_555
C7 Si1 1_555 1_555
C8 C7 1_555 1_555
H6 C8 1_555 1_555
C9 C8 1_555 1_555
H7 C9 1_555 1_555
C10 C9 1_555 1_555
H8 C10 1_555 1_555
C11 C10 1_555 1_555
H9 C11 1_555 1_555
C12 C7 1_555 1_555
H10 C12 1_555 1_555
O1 Si1 1_555 1_555
Si2 O1 1_555 1_555
C13 Si2 1_555 1_555
H11 C13 1_555 1_555
H12 C13 1_555 1_555
C14 C13 1_555 1_555
H13 C14 1_555 1_555
H14 C14 1_555 1_555
C15 C14 1_555 1_555
H15 C15 1_555 1_555
H16 C15 1_555 1_555
C16 Si2 1_555 1_555
H17 C16 1_555 1_555
H18 C16 1_555 1_555
O2 Si2 1_555 1_555
Si3 O2 1_555 1_555
C17 Si3 1_555 1_555
C18 C17 1_555 1_555
H19 C18 1_555 1_555
C19 C18 1_555 1_555
H20 C19 1_555 1_555
C20 C19 1_555 1_555
H21 C20 1_555 1_555
C21 C20 1_555 1_555
H22 C21 1_555 1_555
C22 C17 1_555 1_555
H23 C22 1_555 1_555
C23 Si3 1_555 1_555
C24 C23 1_555 1_555
H24 C24 1_555 1_555
C25 C24 1_555 1_555
H25 C25 1_555 1_555
C26 C25 1_555 1_555
H26 C26 1_555 1_555
C27 C26 1_555 1_555
H27 C27 1_555 1_555
C28 C23 1_555 1_555
H28 C28 1_555 1_555
O3 Si3 1_555 1_555
Si4 O3 1_555 1_555
C29 Si4 1_555 1_555
H29 C29 1_555 1_555
H30 C29 1_555 1_555
C30 C29 1_555 1_555
H31 C30 1_555 1_555
H32 C30 1_555 1_555
C31 C30 1_555 1_555
H33 C31 1_555 1_555
H34 C31 1_555 1_555
C32 Si4 1_555 1_555
H35 C32 1_555 1_555
H36 C32 1_555 1_555
O4 Si1 1_555 1_555
C5 C6 1_555 1_555
C11 C12 1_555 1_555
C15 C16 1_555 1_555
C21 C22 1_555 1_555
C27 C28 1_555 1_555
Si4 O4 1_555 1_555
C31 C32 1_555 1_555

#END
