
#######################################################################
#
#                 Cambridge Crystallographic Data Centre
#                                CCDC 
#
#######################################################################
#
# If this CIF has been generated from an entry in the Cambridge 
# Structural Database, then it will include bibliographic, chemical, 
# crystal, experimental, refinement or atomic coordinate data resulting 
# from the CCDC's data processing and validation procedures.
#
#######################################################################

data_JESVUB
_chemical_formula_moiety         'C24 H25 N1 O4'
_chemical_name_systematic        
'diethyl 4-methyl-2,6-diphenyl-1,4-dihydropyridine-3,5-dicarboxylate'
_symmetry_cell_setting           monoclinic
_symmetry_space_group_name_H-M   'P 21/c'
_symmetry_Int_Tables_number      14
_space_group_name_Hall           '-P 2ybc'
loop_
_symmetry_equiv_pos_site_id
_symmetry_equiv_pos_as_xyz
1 x,y,z
2 -x,1/2+y,1/2-z
3 -x,-y,-z
4 x,1/2-y,1/2+z
_cell_length_a                   10.7236(3)
_cell_length_b                   7.93240(17)
_cell_length_c                   24.7114(6)
_cell_angle_alpha                90
_cell_angle_beta                 92.972(3)
_cell_angle_gamma                90
_cell_volume                     2099.22
_exptl_crystal_colour            colorless
_exptl_crystal_description       plate
_cell_formula_units_Z            4
loop_
_atom_site_label
_atom_site_type_symbol
_atom_site_fract_x
_atom_site_fract_y
_atom_site_fract_z
O1 O 0.67250(12) 0.30281(16) 0.46417(5)
O2 O 0.26714(13) 0.41307(18) 0.25343(5)
O3 O 0.47969(13) 0.2750(2) 0.49394(5)
N1 N 0.55553(13) 0.08962(18) 0.31693(6)
H1 H 0.5987 0.0197 0.2976
O4 O 0.1880(2) 0.3977(3) 0.33510(8)
C1 C 0.72124(16) 0.0575(2) 0.38648(7)
C2 C 0.45244(16) 0.1674(2) 0.29313(7)
C3 C 0.55200(16) 0.2574(2) 0.45845(7)
C4 C 0.59377(16) 0.1181(2) 0.37072(7)
C5 C 0.51491(16) 0.1959(2) 0.40363(7)
C6 C 0.74217(17) -0.0423(2) 0.43239(7)
H2 H 0.6739 -0.0759 0.4529
C7 C 0.37058(16) 0.2492(2) 0.32412(7)
C8 C 0.37984(17) 0.2260(2) 0.38535(7)
H3 H 0.3516 0.3326 0.4025
C9 C 0.44060(18) 0.1480(2) 0.23305(7)
C10 C 0.82155(18) 0.1005(2) 0.35570(7)
H4 H 0.8078 0.1656 0.3237
C11 C 0.86210(19) -0.0927(2) 0.44832(8)
H5 H 0.8761 -0.1591 0.4800
C12 C 0.29594(18) 0.0822(3) 0.40311(8)
H6 H 0.3177 -0.0217 0.3844
H7 H 0.2084 0.1106 0.3940
H8 H 0.3080 0.0658 0.4423
C13 C 0.71633(19) 0.3640(3) 0.51672(7)
H9 H 0.7174 0.2716 0.5437
H10 H 0.6611 0.4548 0.5290
C14 C 0.5367(2) 0.1978(2) 0.20155(8)
H11 H 0.6105 0.2456 0.2181
C15 C 0.27446(19) 0.3585(3) 0.29933(8)
C16 C 0.3349(2) 0.0744(3) 0.20832(8)
H12 H 0.2692 0.0373 0.2298
C17 C 0.94065(18) 0.0492(3) 0.37149(9)
H13 H 1.0087 0.0794 0.3503
C18 C 0.96182(19) -0.0463(3) 0.41806(9)
H14 H 1.0443 -0.0798 0.4292
C19 C 0.5252(3) 0.1781(3) 0.14542(8)
H15 H 0.5912 0.2130 0.1238
C20 C 0.3246(2) 0.0547(3) 0.15250(8)
H16 H 0.2521 0.0039 0.1358
C21 C 0.4194(3) 0.1087(3) 0.12124(8)
H17 H 0.4115 0.0979 0.0829
C22 C 0.8456(2) 0.4300(3) 0.51054(10)
H18 H 0.8428 0.5224 0.4842
H19 H 0.8987 0.3393 0.4978
H20 H 0.8798 0.4715 0.5456
C23 C 0.0709(6) 0.4705(6) 0.31191(18)
H21 H -0.0011 0.4333 0.3324
H22 H 0.0565 0.4371 0.2735
C24 C 0.0897(9) 0.6586(13) 0.3169(3)
H23 H 0.1500 0.6958 0.2910
H24 H 0.1213 0.6860 0.3538
H25 H 0.0098 0.7162 0.3092
C25? C 0.1260(10) 0.5827(19) 0.3230(3)
H26? H 0.1161 0.6493 0.3564
H27? H 0.1719 0.6490 0.2965
C26? C 0.0092(11) 0.5172(15) 0.3003(5)
H28? H 0.0252 0.4412 0.2702
H29? H -0.0438 0.6107 0.2871
H30? H -0.0332 0.4551 0.3283
loop_
_geom_bond_atom_site_label_1
_geom_bond_atom_site_label_2
_geom_bond_site_symmetry_1
_geom_bond_site_symmetry_2
O1 C3 1_555 1_555
O2 C15 1_555 1_555
O3 C3 1_555 1_555
N1 H1 1_555 1_555
O4 C15 1_555 1_555
C1 C4 1_555 1_555
C2 N1 1_555 1_555
C3 C5 1_555 1_555
C4 N1 1_555 1_555
C5 C4 1_555 1_555
C6 C1 1_555 1_555
H2 C6 1_555 1_555
C7 C2 1_555 1_555
C8 C5 1_555 1_555
H3 C8 1_555 1_555
C9 C2 1_555 1_555
C10 C1 1_555 1_555
H4 C10 1_555 1_555
C11 C6 1_555 1_555
H5 C11 1_555 1_555
C12 C8 1_555 1_555
H6 C12 1_555 1_555
H7 C12 1_555 1_555
H8 C12 1_555 1_555
C13 O1 1_555 1_555
H9 C13 1_555 1_555
H10 C13 1_555 1_555
C14 C9 1_555 1_555
H11 C14 1_555 1_555
C15 C7 1_555 1_555
C16 C9 1_555 1_555
H12 C16 1_555 1_555
C17 C10 1_555 1_555
H13 C17 1_555 1_555
C18 C11 1_555 1_555
H14 C18 1_555 1_555
C19 C14 1_555 1_555
H15 C19 1_555 1_555
C20 C16 1_555 1_555
H16 C20 1_555 1_555
C21 C19 1_555 1_555
H17 C21 1_555 1_555
C22 C13 1_555 1_555
H18 C22 1_555 1_555
H19 C22 1_555 1_555
H20 C22 1_555 1_555
C23 O4 1_555 1_555
H21 C23 1_555 1_555
H22 C23 1_555 1_555
C24 C23 1_555 1_555
H23 C24 1_555 1_555
H24 C24 1_555 1_555
H25 C24 1_555 1_555
C7 C8 1_555 1_555
C17 C18 1_555 1_555
C20 C21 1_555 1_555

#END
