
#######################################################################
#
#                 Cambridge Crystallographic Data Centre
#                                CCDC 
#
#######################################################################
#
# If this CIF has been generated from an entry in the Cambridge 
# Structural Database, then it will include bibliographic, chemical, 
# crystal, experimental, refinement or atomic coordinate data resulting 
# from the CCDC's data processing and validation procedures.
#
#######################################################################

data_JESWEK
_chemical_formula_moiety         'C15 H15 N5 O3 S1'
_chemical_name_systematic        
1-(4,6-Diethoxypyrimidin-2-yl)-2-thioxo-2,3-dihydropyrido(2,3-d)pyrimidin-4(1H)-one
_symmetry_cell_setting           monoclinic
_symmetry_space_group_name_H-M   'P 21/n'
_symmetry_Int_Tables_number      14
_space_group_name_Hall           '-P 2yn'
loop_
_symmetry_equiv_pos_site_id
_symmetry_equiv_pos_as_xyz
1 x,y,z
2 1/2-x,1/2+y,1/2-z
3 -x,-y,-z
4 1/2+x,1/2-y,1/2+z
_cell_length_a                   9.0543(10)
_cell_length_b                   17.884(2)
_cell_length_c                   10.3365(12)
_cell_angle_alpha                90
_cell_angle_beta                 102.840(2)
_cell_angle_gamma                90
_cell_volume                     1631.91
_exptl_crystal_colour            colorless
_exptl_crystal_description       prism
_chemical_melting_point          '472-473 K'
_cell_formula_units_Z            4
_exptl_crystal_recrystallization_method 'hexane/ethyl acetate'
loop_
_atom_site_label
_atom_site_type_symbol
_atom_site_fract_x
_atom_site_fract_y
_atom_site_fract_z
S1 S 0.38756(9) 0.05866(4) 0.32565(8)
O1 O 0.4317(2) 0.10599(12) 0.7984(2)
O2 O 0.2068(2) 0.31137(12) 0.05298(19)
O3 O -0.1263(3) 0.11057(13) 0.0366(2)
N1 N 0.0467(3) 0.13614(13) 0.2336(2)
N2 N 0.2229(2) 0.23733(13) 0.2394(2)
N3 N 0.2312(2) 0.16135(12) 0.4243(2)
N4 N 0.3959(3) 0.08976(14) 0.5773(2)
N5 N 0.0878(3) 0.25567(13) 0.4873(2)
C1 C 0.1559(4) 0.25288(17) 0.1130(3)
C2 C 0.0394(3) 0.21123(17) 0.0405(3)
H1 H -0.0034 0.2222 -0.0479
C3 C -0.0111(4) 0.15243(18) 0.1049(3)
C4 C 0.1614(3) 0.18010(17) 0.2873(3)
C5 C 0.3361(3) 0.10550(15) 0.4473(3)
C6 C 0.3696(3) 0.12651(16) 0.6879(3)
C7 C 0.2644(3) 0.18871(15) 0.6569(3)
C8 C 0.1935(3) 0.20324(16) 0.5260(3)
C9 C 0.0577(3) 0.29812(16) 0.5834(3)
H2 H -0.0143 0.3356 0.5594
C10 C 0.1256(3) 0.29087(17) 0.7173(3)
H3 H 0.1014 0.3230 0.7802
C11 C 0.2298(3) 0.23440(17) 0.7535(3)
H4 H 0.2764 0.2271 0.8423
C12 C 0.3141(4) 0.36009(18) 0.1308(3)
H5 H 0.4023 0.3322 0.1762
H6 H 0.2703 0.3850 0.1968
C13 C 0.3583(3) 0.41673(18) 0.0383(3)
H7 H 0.4071 0.3918 -0.0231
H8 H 0.4267 0.4525 0.0887
H9 H 0.2693 0.4420 -0.0097
C14 C -0.1748(5) 0.0486(3) 0.1039(4)
H10 H -0.0882 0.0196 0.1493
H11 H -0.2295 0.0660 0.1688
C15 C -0.2713(9) 0.0041(4) 0.0052(6)
H12 H -0.3046 -0.0389 0.0463
H13 H -0.2165 -0.0117 -0.0595
H14 H -0.3576 0.0331 -0.0375
H20 H 0.468(3) 0.0501(15) 0.593(3)
C16? C -0.1748(5) 0.0486(3) 0.1039(4)
H15? H -0.1450 0.0590 0.1982
H16? H -0.2847 0.0484 0.0808
C17? C -0.131(2) -0.0187(8) 0.0864(16)
H17? H -0.1734 -0.0528 0.1398
H18? H -0.0221 -0.0211 0.1118
H19? H -0.1636 -0.0321 -0.0055
loop_
_geom_bond_atom_site_label_1
_geom_bond_atom_site_label_2
_geom_bond_site_symmetry_1
_geom_bond_site_symmetry_2
S1 C5 1_555 1_555
O1 C6 1_555 1_555
O2 C1 1_555 1_555
O3 C3 1_555 1_555
N1 C3 1_555 1_555
N2 C1 1_555 1_555
N3 C4 1_555 1_555
N4 C5 1_555 1_555
N5 C8 1_555 1_555
C1 C2 1_555 1_555
C2 H1 1_555 1_555
C3 C2 1_555 1_555
C4 N1 1_555 1_555
C5 N3 1_555 1_555
C6 N4 1_555 1_555
C7 C6 1_555 1_555
C8 N3 1_555 1_555
C9 N5 1_555 1_555
H2 C9 1_555 1_555
C10 C9 1_555 1_555
H3 C10 1_555 1_555
C11 C7 1_555 1_555
H4 C11 1_555 1_555
C12 O2 1_555 1_555
H5 C12 1_555 1_555
H6 C12 1_555 1_555
C13 C12 1_555 1_555
H7 C13 1_555 1_555
H8 C13 1_555 1_555
H9 C13 1_555 1_555
C14 O3 1_555 1_555
H10 C14 1_555 1_555
H11 C14 1_555 1_555
C15 C14 1_555 1_555
H12 C15 1_555 1_555
H13 C15 1_555 1_555
H14 C15 1_555 1_555
H20 N4 1_555 1_555
N2 C4 1_555 1_555
C7 C8 1_555 1_555
C10 C11 1_555 1_555

#END
