
#######################################################################
#
#                 Cambridge Crystallographic Data Centre
#                                CCDC 
#
#######################################################################
#
# If this CIF has been generated from an entry in the Cambridge 
# Structural Database, then it will include bibliographic, chemical, 
# crystal, experimental, refinement or atomic coordinate data resulting 
# from the CCDC's data processing and validation procedures.
#
#######################################################################

data_JESWEM
_chemical_formula_moiety         'C17 H15 Br1 O4 S1'
_chemical_name_systematic        
'methyl 3-(4-bromophenyl)-2-((phenylsulfonyl)methyl)prop-2-enoate'
_symmetry_cell_setting           monoclinic
_symmetry_space_group_name_H-M   'P 21/c'
_symmetry_Int_Tables_number      14
_space_group_name_Hall           '-P 2ybc'
loop_
_symmetry_equiv_pos_site_id
_symmetry_equiv_pos_as_xyz
1 x,y,z
2 -x,1/2+y,1/2-z
3 -x,-y,-z
4 x,1/2-y,1/2+z
_cell_length_a                   5.2017(4)
_cell_length_b                   18.3247(14)
_cell_length_c                   17.1824(14)
_cell_angle_alpha                90
_cell_angle_beta                 96.142(2)
_cell_angle_gamma                90
_cell_volume                     1628.42
_cell_formula_units_Z            4
loop_
_atom_site_label
_atom_site_type_symbol
_atom_site_fract_x
_atom_site_fract_y
_atom_site_fract_z
Br1 Br -0.38979(5) 0.60019(2) 0.44128(2)
C1 C 0.7452(5) 0.45240(14) 0.93298(15)
H1 H 0.890966 0.481678 0.943022
C2 C 0.6644(6) 0.40916(14) 0.99159(16)
H2 H 0.755924 0.408721 1.041137
C3 C 0.4451(6) 0.36644(13) 0.97563(16)
H3 H 0.386973 0.338243 1.015202
C4 C 0.3120(5) 0.36527(13) 0.90165(17)
H4 H 0.167214 0.335614 0.891614
C5 C 0.3926(5) 0.40793(12) 0.84225(16)
H5 H 0.304249 0.407054 0.792252
C6 C 0.6084(4) 0.45202(12) 0.85921(14)
C7 C 0.5275(5) 0.59171(12) 0.79695(14)
H6 H 0.347851 0.582829 0.777944
H7 H 0.535432 0.604231 0.852008
C8 C 1.1328(5) 0.79419(15) 0.80092(18)
H8 H 1.048661 0.824603 0.835989
H9 H 1.215688 0.824276 0.765264
H10 H 1.259907 0.764360 0.830446
C9 C 0.8364(5) 0.69659(13) 0.79872(14)
C10 C 0.6260(4) 0.65466(12) 0.75297(14)
C11 C 0.5255(5) 0.67936(12) 0.68266(14)
H11 H 0.613455 0.719026 0.664558
C12 C 0.3028(4) 0.65551(12) 0.62901(14)
C13 C 0.1886(5) 0.58642(13) 0.62644(15)
H12 H 0.254748 0.550454 0.661174
C14 C -0.0223(5) 0.57094(14) 0.57263(14)
H13 H -0.099307 0.525122 0.572040
C15 C -0.1177(5) 0.62372(14) 0.51991(14)
C16 C -0.0090(5) 0.69246(14) 0.52019(15)
H14 H -0.073757 0.727679 0.484339
C17 C 0.1984(5) 0.70771(13) 0.57505(15)
H15 H 0.270841 0.754137 0.576148
O1 O 0.9785(3) 0.52703(10) 0.80756(11)
O2 O 0.6362(3) 0.47800(9) 0.71103(10)
O3 O 0.9016(4) 0.68657(10) 0.86772(11)
O4 O 0.9428(3) 0.74791(9) 0.75723(10)
S1 S 0.71043(11) 0.51007(3) 0.78638(3)
loop_
_geom_bond_atom_site_label_1
_geom_bond_atom_site_label_2
_geom_bond_site_symmetry_1
_geom_bond_site_symmetry_2
Br1 C15 1_555 1_555
C1 H1 1_555 1_555
C2 C1 1_555 1_555
H2 C2 1_555 1_555
C3 C2 1_555 1_555
H3 C3 1_555 1_555
C4 C3 1_555 1_555
H4 C4 1_555 1_555
C5 C4 1_555 1_555
H5 C5 1_555 1_555
C6 C1 1_555 1_555
C7 H6 1_555 1_555
H7 C7 1_555 1_555
C8 H8 1_555 1_555
H9 C8 1_555 1_555
H10 C8 1_555 1_555
C9 C10 1_555 1_555
C10 C7 1_555 1_555
C11 C10 1_555 1_555
H11 C11 1_555 1_555
C12 C11 1_555 1_555
C13 C12 1_555 1_555
H12 C13 1_555 1_555
C14 C13 1_555 1_555
H13 C14 1_555 1_555
C15 C14 1_555 1_555
C16 C15 1_555 1_555
H14 C16 1_555 1_555
C17 C12 1_555 1_555
H15 C17 1_555 1_555
O1 S1 1_555 1_555
O2 S1 1_555 1_555
O3 C9 1_555 1_555
O4 C8 1_555 1_555
S1 C6 1_555 1_555
C5 C6 1_555 1_555
C7 S1 1_555 1_555
C9 O4 1_555 1_555
C16 C17 1_555 1_555

#END
