
#######################################################################
#
#                 Cambridge Crystallographic Data Centre
#                                CCDC 
#
#######################################################################
#
# If this CIF has been generated from an entry in the Cambridge 
# Structural Database, then it will include bibliographic, chemical, 
# crystal, experimental, refinement or atomic coordinate data resulting 
# from the CCDC's data processing and validation procedures.
#
#######################################################################

data_JETDIY
_chemical_formula_moiety         'C25 H20 N2 O2,0.5(C2 H6 O1)'
_chemical_name_systematic        
"1',6',8'-trimethyl-2-phenyl-2'H-spiro[indole-3,3'-quinoline]-2',4'(1'H)-dione ethanol solvate"
_symmetry_cell_setting           orthorhombic
_symmetry_space_group_name_H-M   'P b c a'
_symmetry_Int_Tables_number      61
_space_group_name_Hall           '-P 2ac 2ab'
loop_
_symmetry_equiv_pos_site_id
_symmetry_equiv_pos_as_xyz
1 x,y,z
2 1/2+x,1/2-y,-z
3 -x,1/2+y,1/2-z
4 1/2-x,-y,1/2+z
5 -x,-y,-z
6 1/2-x,1/2+y,z
7 x,1/2-y,1/2+z
8 1/2+x,y,1/2-z
_cell_length_a                   12.7785(3)
_cell_length_b                   11.4821(3)
_cell_length_c                   28.3821(8)
_cell_angle_alpha                90
_cell_angle_beta                 90
_cell_angle_gamma                90
_cell_volume                     4164.34
_exptl_crystal_description       plate
_cell_formula_units_Z            8
loop_
_atom_site_label
_atom_site_type_symbol
_atom_site_fract_x
_atom_site_fract_y
_atom_site_fract_z
C1 C 0.2270(3) 0.3239(3) 0.69208(12)
H1 H 0.2230 0.2522 0.6770
C2 C 0.0562(3) 0.3804(3) 0.65581(11)
C3 C 0.1484(3) 0.4052(3) 0.68498(11)
C4 C 0.1567(3) 0.5130(3) 0.70766(12)
H2 H 0.1055 0.5695 0.7031
C5 C 0.3181(3) 0.4533(4) 0.74368(13)
H3 H 0.3745 0.4693 0.7634
C6 C 0.3109(3) 0.3474(4) 0.72110(13)
H4 H 0.3627 0.2916 0.7254
C7 C 0.2405(3) 0.5355(3) 0.73673(13)
H5 H 0.2451 0.6071 0.7519
C8 C -0.0941(3) 0.4034(3) 0.61950(12)
C9 C -0.0696(2) 0.2877(3) 0.60913(11)
C10 C 0.0339(2) 0.2605(3) 0.63369(11)
C11 C -0.1349(3) 0.2216(3) 0.58143(11)
H6 H -0.1187 0.1445 0.5745
C12 C -0.2259(3) 0.2728(4) 0.56406(13)
H7 H -0.2710 0.2300 0.5451
C13 C -0.1839(3) 0.4541(3) 0.60260(14)
H8 H -0.2001 0.5311 0.6095
C14 C -0.2490(3) 0.3871(4) 0.57502(13)
H9 H -0.3104 0.4199 0.5634
N1 N -0.0159(2) 0.4569(2) 0.64785(10)
N2 N 0.1347(2) 0.1122(2) 0.58975(9)
O1 O 0.16902(19) 0.3030(2) 0.57834(8)
O2 O -0.0118(2) 0.1909(2) 0.71060(8)
C15 C 0.0691(2) 0.0237(3) 0.60984(11)
C16 C 0.0136(2) 0.1665(3) 0.67056(12)
C17 C 0.1176(3) 0.2276(3) 0.59797(11)
C18 C 0.0166(2) 0.0465(3) 0.65192(11)
C19 C 0.2363(3) 0.0829(3) 0.56804(14)
H10 H 0.2292 0.0828 0.5344
H11 H 0.2581 0.0071 0.5785
H12 H 0.2876 0.1396 0.5772
C20 C 0.0578(3) -0.0852(3) 0.58793(11)
C21 C -0.0409(3) -0.0402(3) 0.67406(12)
H13 H -0.0752 -0.0235 0.7021
C22 C 0.0003(3) -0.1693(3) 0.61247(13)
H14 H -0.0057 -0.2428 0.5990
C23 C -0.0481(3) -0.1508(3) 0.65518(12)
C24 C 0.0935(3) -0.1127(3) 0.53839(12)
H15 H 0.0913 -0.0431 0.5196
H16 H 0.0481 -0.1702 0.5249
H17 H 0.1638 -0.1421 0.5392
C25 C -0.1105(3) -0.2453(3) 0.67932(14)
H18 H -0.1830 -0.2376 0.6711
H19 H -0.1027 -0.2381 0.7128
H20 H -0.0853 -0.3201 0.6694
C26? C 0.4918(14) 0.0572(19) 0.5111(4)
H21? H 0.4368 0.0999 0.4951
H22? H 0.4701 0.0459 0.5435
O3? O 0.5811(6) 0.1228(7) 0.5106(3)
H23? H 0.6101 0.1161 0.4850
C27? C 0.503(2) -0.058(2) 0.4885(10)
H24? H 0.5295 -0.0477 0.4571
H25? H 0.4365 -0.0957 0.4874
H26? H 0.5515 -0.1042 0.5064
loop_
_geom_bond_atom_site_label_1
_geom_bond_atom_site_label_2
_geom_bond_site_symmetry_1
_geom_bond_site_symmetry_2
C1 H1 1_555 1_555
C2 C3 1_555 1_555
C3 C1 1_555 1_555
C4 C3 1_555 1_555
H2 C4 1_555 1_555
C5 H3 1_555 1_555
C6 C1 1_555 1_555
H4 C6 1_555 1_555
C7 C4 1_555 1_555
H5 C7 1_555 1_555
C8 C9 1_555 1_555
C9 C10 1_555 1_555
C10 C2 1_555 1_555
C11 C9 1_555 1_555
H6 C11 1_555 1_555
C12 C11 1_555 1_555
H7 C12 1_555 1_555
C13 C8 1_555 1_555
H8 C13 1_555 1_555
C14 C12 1_555 1_555
H9 C14 1_555 1_555
N1 C2 1_555 1_555
N2 C15 1_555 1_555
O1 C17 1_555 1_555
O2 C16 1_555 1_555
C15 C18 1_555 1_555
C16 C10 1_555 1_555
C17 C10 1_555 1_555
C18 C16 1_555 1_555
C19 N2 1_555 1_555
H10 C19 1_555 1_555
H11 C19 1_555 1_555
H12 C19 1_555 1_555
C20 C15 1_555 1_555
C21 C18 1_555 1_555
H13 C21 1_555 1_555
C22 C20 1_555 1_555
H14 C22 1_555 1_555
C23 C21 1_555 1_555
C24 C20 1_555 1_555
H15 C24 1_555 1_555
H16 C24 1_555 1_555
H17 C24 1_555 1_555
C25 C23 1_555 1_555
H18 C25 1_555 1_555
H19 C25 1_555 1_555
H20 C25 1_555 1_555
C5 C6 1_555 1_555
C5 C7 1_555 1_555
C8 N1 1_555 1_555
C13 C14 1_555 1_555
N2 C17 1_555 1_555
C22 C23 1_555 1_555

#END
