
#######################################################################
#
#                 Cambridge Crystallographic Data Centre
#                                CCDC 
#
#######################################################################
#
# If this CIF has been generated from an entry in the Cambridge 
# Structural Database, then it will include bibliographic, chemical, 
# crystal, experimental, refinement or atomic coordinate data resulting 
# from the CCDC's data processing and validation procedures.
#
#######################################################################

data_JETDOE
_chemical_formula_moiety         'C25 H20 N2 O2'
_chemical_name_systematic        
3-(1-hydroxy-2-phenyl-3H-1\l^5^-indol-3-ylidene)-1,5,7-trimethyl-1,3-dihydro-2H-indol-2-one
_symmetry_cell_setting           triclinic
_symmetry_space_group_name_H-M   'P -1'
_symmetry_Int_Tables_number      2
_space_group_name_Hall           '-P 1'
loop_
_symmetry_equiv_pos_site_id
_symmetry_equiv_pos_as_xyz
1 x,y,z
2 -x,-y,-z
_cell_length_a                   8.5334(6)
_cell_length_b                   10.7746(7)
_cell_length_c                   11.3844(7)
_cell_angle_alpha                73.097(3)
_cell_angle_beta                 80.962(3)
_cell_angle_gamma                77.669(3)
_cell_volume                     973.336
_exptl_crystal_description       block
_cell_formula_units_Z            2
loop_
_atom_site_label
_atom_site_type_symbol
_atom_site_fract_x
_atom_site_fract_y
_atom_site_fract_z
N1 N 0.27132(12) 0.66197(11) 0.43347(9)
C1 C 0.25363(14) 0.57356(12) 0.37602(11)
C2 C 0.24873(15) 0.79185(13) 0.35169(12)
C3 C 0.22598(14) 0.64255(12) 0.24893(11)
C4 C 0.20869(15) 0.78478(13) 0.24044(12)
C5 C 0.17721(18) 0.90217(14) 0.14895(14)
H1 H 0.1500 0.9025 0.0729
C6 C 0.1873(2) 1.01914(15) 0.17371(17)
H2 H 0.1649 1.0981 0.1133
C7 C 0.26147(19) 0.90654(15) 0.37729(15)
H3 H 0.2901 0.9063 0.4529
C8 C 0.2296(2) 1.02162(16) 0.28517(17)
H4 H 0.2366 1.1015 0.2982
O1 O 0.29362(12) 0.64208(10) 0.54647(8)
O2 O 0.06771(13) 0.74980(11) 0.00922(10)
C9 C 0.23088(14) 0.43913(12) 0.44341(10)
C10 C 0.11536(15) 0.38555(13) 0.40921(11)
H5 H 0.0537 0.4360 0.3456
C11 C 0.31843(17) 0.36311(14) 0.54069(12)
H6 H 0.3940 0.3977 0.5664
C12 C 0.09150(16) 0.25892(14) 0.46841(13)
H7 H 0.0150 0.2242 0.4440
C13 C 0.2936(2) 0.23646(15) 0.59938(14)
H8 H 0.3536 0.1859 0.6639
C14 C 0.1806(2) 0.18378(15) 0.56349(14)
H9 H 0.1650 0.0982 0.6034
N2 N 0.19783(13) 0.55494(12) -0.03066(9)
C15 C 0.32759(14) 0.45571(12) 0.14292(10)
C16 C 0.16054(16) 0.64498(14) 0.03746(12)
C17 C 0.24014(14) 0.58385(12) 0.15419(11)
C18 C 0.30171(15) 0.44126(13) 0.02884(11)
C19 C 0.1310(2) 0.58126(19) -0.14741(13)
H10 H 0.0500 0.6596 -0.1579
H11 H 0.0835 0.5081 -0.1473
H12 H 0.2153 0.5935 -0.2140
C20 C 0.43821(15) 0.36183(12) 0.21473(11)
H13 H 0.4600 0.3735 0.2879
C21 C 0.51579(16) 0.25102(13) 0.17715(13)
C22 C 0.48207(18) 0.23808(15) 0.06591(14)
H14 H 0.5327 0.1625 0.0421
C23 C 0.37755(17) 0.33094(15) -0.01182(13)
C24 C 0.3555(2) 0.3068(2) -0.13213(16)
H15 H 0.4257 0.2271 -0.1416
H16 H 0.3814 0.3795 -0.1995
H17 H 0.2456 0.2986 -0.1316
C25 C 0.6323(2) 0.14628(15) 0.25459(16)
H18 H 0.6658 0.1812 0.3132
H19 H 0.7247 0.1183 0.2024
H20 H 0.5807 0.0724 0.2976
loop_
_geom_bond_atom_site_label_1
_geom_bond_atom_site_label_2
_geom_bond_site_symmetry_1
_geom_bond_site_symmetry_2
N1 C1 1_555 1_555
C1 C3 1_555 1_555
C2 N1 1_555 1_555
C3 C4 1_555 1_555
C4 C2 1_555 1_555
C5 C4 1_555 1_555
H1 C5 1_555 1_555
C6 C5 1_555 1_555
H2 C6 1_555 1_555
C7 C2 1_555 1_555
H3 C7 1_555 1_555
C8 C6 1_555 1_555
H4 C8 1_555 1_555
O1 N1 1_555 1_555
O2 C16 1_555 1_555
C9 C1 1_555 1_555
C10 C9 1_555 1_555
H5 C10 1_555 1_555
C11 C9 1_555 1_555
H6 C11 1_555 1_555
C12 C10 1_555 1_555
H7 C12 1_555 1_555
C13 C11 1_555 1_555
H8 C13 1_555 1_555
C14 C12 1_555 1_555
H9 C14 1_555 1_555
N2 C16 1_555 1_555
C15 C17 1_555 1_555
C16 C17 1_555 1_555
C17 C3 1_555 1_555
C18 N2 1_555 1_555
C19 N2 1_555 1_555
H10 C19 1_555 1_555
H11 C19 1_555 1_555
H12 C19 1_555 1_555
C20 C15 1_555 1_555
H13 C20 1_555 1_555
C21 C20 1_555 1_555
C22 C21 1_555 1_555
H14 C22 1_555 1_555
C23 C18 1_555 1_555
C24 C23 1_555 1_555
H15 C24 1_555 1_555
H16 C24 1_555 1_555
H17 C24 1_555 1_555
C25 C21 1_555 1_555
H18 C25 1_555 1_555
H19 C25 1_555 1_555
H20 C25 1_555 1_555
C7 C8 1_555 1_555
C13 C14 1_555 1_555
C15 C18 1_555 1_555
C22 C23 1_555 1_555

#END
