
#######################################################################
#
#                 Cambridge Crystallographic Data Centre
#                                CCDC 
#
#######################################################################
#
# If this CIF has been generated from an entry in the Cambridge 
# Structural Database, then it will include bibliographic, chemical, 
# crystal, experimental, refinement or atomic coordinate data resulting 
# from the CCDC's data processing and validation procedures.
#
#######################################################################

data_JETGIZ
_chemical_formula_moiety         'C20 H18 O3'
_chemical_name_systematic        
5,22-Dioxahexacyclo(7.6.6.1^3,6^.0^2,8^.0^10,15^.0^16,21^)docosa-10,12,14,16,18,20-hexaen-7-ol
_symmetry_cell_setting           orthorhombic
_symmetry_space_group_name_H-M   'P 21 21 21'
_symmetry_Int_Tables_number      19
_space_group_name_Hall           'P 2ac 2ab'
loop_
_symmetry_equiv_pos_site_id
_symmetry_equiv_pos_as_xyz
1 x,y,z
2 1/2+x,1/2-y,-z
3 -x,1/2+y,1/2-z
4 1/2-x,-y,1/2+z
_cell_length_a                   8.6946(9)
_cell_length_b                   9.2618(9)
_cell_length_c                   18.1857(16)
_cell_angle_alpha                90
_cell_angle_beta                 90
_cell_angle_gamma                90
_cell_volume                     1464.45
_exptl_crystal_colour            colorless
_exptl_crystal_description       plate
_chemical_melting_point          225-226deg.C
_cell_formula_units_Z            4
loop_
_atom_site_label
_atom_site_type_symbol
_atom_site_fract_x
_atom_site_fract_y
_atom_site_fract_z
C1 C 0.4572(3) 0.6328(3) 0.74054(12)
C2 C 0.6213(2) 0.5783(2) 0.74613(11)
C3 C 0.6774(2) 0.5224(2) 0.67001(9)
C4 C 0.5780(2) 0.5642(2) 0.60116(10)
C5 C 0.4333(2) 0.6519(2) 0.61924(11)
C6 C 0.3061(2) 0.5528(3) 0.64553(14)
C7 C 0.6824(2) 0.63824(19) 0.54220(10)
C8 C 0.8024(2) 0.5256(2) 0.52309(10)
C9 C 0.8229(2) 0.4597(2) 0.45525(10)
C10 C 0.9321(2) 0.3499(2) 0.44833(11)
C11 C 1.0183(2) 0.3067(2) 0.50851(12)
C12 C 0.9969(2) 0.37210(19) 0.57705(11)
C13 C 0.8901(2) 0.4827(2) 0.58384(10)
C14 C 0.8501(2) 0.5628(2) 0.65376(10)
C15 C 0.8582(2) 0.72313(19) 0.63628(10)
C16 C 0.9475(2) 0.8261(2) 0.67206(11)
C17 C 0.9383(3) 0.9701(2) 0.64972(13)
C18 C 0.8393(3) 1.0101(2) 0.59360(13)
C19 C 0.7517(3) 0.9073(2) 0.55671(12)
C20 C 0.7637(2) 0.7636(2) 0.57767(10)
O1 O 0.35431(19) 0.5202(2) 0.71920(9)
O2 O 0.45277(18) 0.73944(17) 0.68441(9)
O3 O 0.71216(19) 0.68966(18) 0.77780(8)
H1 H 0.6946 0.7682 0.7528
H2 H 0.4240 0.6754 0.7885
H3 H 0.6217 0.4947 0.7809
H4 H 0.6742 0.4146 0.6730
H5 H 0.5417 0.4715 0.5790
H6 H 0.3995 0.7113 0.5763
H7 H 0.2042 0.6030 0.6451
H8 H 0.3000 0.4635 0.6148
H9 H 0.6222 0.6689 0.4980
H10 H 0.7603 0.4905 0.4119
H11 H 0.9481 0.3022 0.3996
H12 H 1.0964 0.2282 0.5029
H13 H 1.0578 0.3396 0.6207
H14 H 0.9195 0.5358 0.6954
H15 H 1.0174 0.7974 0.7132
H16 H 1.0035 1.0448 0.6744
H17 H 0.8307 1.1141 0.5794
H18 H 0.6814 0.9365 0.5158
loop_
_geom_bond_atom_site_label_1
_geom_bond_atom_site_label_2
_geom_bond_site_symmetry_1
_geom_bond_site_symmetry_2
C1 C2 1_555 1_555
C2 C3 1_555 1_555
C3 C4 1_555 1_555
C4 C5 1_555 1_555
C5 C6 1_555 1_555
C6 O1 1_555 1_555
C7 C4 1_555 1_555
C8 C7 1_555 1_555
C9 C8 1_555 1_555
C10 C9 1_555 1_555
C11 C10 1_555 1_555
C12 C11 1_555 1_555
C13 C8 1_555 1_555
C14 C3 1_555 1_555
C15 C14 1_555 1_555
C16 C15 1_555 1_555
C17 C16 1_555 1_555
C18 C17 1_555 1_555
C19 C18 1_555 1_555
C20 C7 1_555 1_555
O1 C1 1_555 1_555
O2 C1 1_555 1_555
O3 C2 1_555 1_555
H1 O3 1_555 1_555
H2 C1 1_555 1_555
H3 C2 1_555 1_555
H4 C3 1_555 1_555
H5 C4 1_555 1_555
H6 C5 1_555 1_555
H7 C6 1_555 1_555
H8 C6 1_555 1_555
H9 C7 1_555 1_555
H10 C9 1_555 1_555
H11 C10 1_555 1_555
H12 C11 1_555 1_555
H13 C12 1_555 1_555
H14 C14 1_555 1_555
H15 C16 1_555 1_555
H16 C17 1_555 1_555
H17 C18 1_555 1_555
H18 C19 1_555 1_555
C5 O2 1_555 1_555
C12 C13 1_555 1_555
C13 C14 1_555 1_555
C15 C20 1_555 1_555
C19 C20 1_555 1_555

#END
