
#######################################################################
#
#                 Cambridge Crystallographic Data Centre
#                                CCDC 
#
#######################################################################
#
# If this CIF has been generated from an entry in the Cambridge 
# Structural Database, then it will include bibliographic, chemical, 
# crystal, experimental, refinement or atomic coordinate data resulting 
# from the CCDC's data processing and validation procedures.
#
#######################################################################

data_JETHOG
_chemical_formula_moiety         'C68 H100 N4 O8,C1 H2 Cl2'
_chemical_name_systematic        
'5,11,17,23-Tetra-t-butyl-25,26,27,28-tetrakis(2-(n-butylamino)-2-oxoethoxy)calix(4)arene dichloromethane solvate'
_symmetry_cell_setting           triclinic
_symmetry_space_group_name_H-M   'P -1'
_symmetry_Int_Tables_number      2
_space_group_name_Hall           '-P 1'
loop_
_symmetry_equiv_pos_site_id
_symmetry_equiv_pos_as_xyz
1 x,y,z
2 -x,-y,-z
_cell_length_a                   13.798(3)
_cell_length_b                   14.308(3)
_cell_length_c                   18.487(4)
_cell_angle_alpha                80.335(4)
_cell_angle_beta                 84.024(4)
_cell_angle_gamma                73.188(3)
_cell_volume                     3438.18
_exptl_crystal_colour            colorless
_exptl_crystal_description       needle
_cell_formula_units_Z            2
loop_
_atom_site_label
_atom_site_type_symbol
_atom_site_fract_x
_atom_site_fract_y
_atom_site_fract_z
C1 C 0.5233(2) 0.3438(2) 0.40954(15)
C2 C 0.4616(2) 0.4396(2) 0.39623(15)
C3 C 0.3579(2) 0.4544(2) 0.40152(16)
H1 H 0.3156 0.5192 0.3929
C4 C 0.3135(2) 0.3769(2) 0.41918(17)
C5 C 0.3793(2) 0.2819(2) 0.42345(16)
H2 H 0.3515 0.2282 0.4299
C6 C 0.4844(2) 0.2629(2) 0.41853(15)
C7 C 0.5533(2) 0.1578(2) 0.42378(16)
H3 H 0.6214 0.1586 0.4337
H4 H 0.5285 0.1178 0.4659
C8 C 0.1993(3) 0.3970(3) 0.43838(19)
C9 C 0.1387(3) 0.4907(3) 0.3936(2)
H5 H 0.0668 0.4962 0.4025
H6 H 0.1575 0.4884 0.3417
H7 H 0.1529 0.5474 0.4078
C10 C 0.1815(3) 0.4117(4) 0.5197(2)
H8 H 0.2062 0.4662 0.5268
H9 H 0.2176 0.3520 0.5499
H10 H 0.1096 0.4261 0.5335
C11 C 0.1587(3) 0.3135(3) 0.4272(3)
H11 H 0.1897 0.2547 0.4604
H12 H 0.1746 0.3006 0.3768
H13 H 0.0857 0.3316 0.4371
O1 O 0.62743(15) 0.32780(14) 0.41646(10)
C12 C 0.6446(3) 0.3459(3) 0.48689(18)
H14 H 0.5886 0.3351 0.5214
H15 H 0.6431 0.4154 0.4833
C13 C 0.7415(3) 0.2840(2) 0.51761(18)
O2 O 0.76078(18) 0.29647(17) 0.57915(12)
N1 N 0.7999(2) 0.2190(2) 0.47838(17)
H16 H 0.7817 0.2163 0.4353
C14 C 0.8943(3) 0.1508(4) 0.5046(2)
H17 H 0.9326 0.1870 0.5252
H18 H 0.9354 0.1219 0.4632
C15 C 0.8752(4) 0.0694(3) 0.5623(2)
H19 H 0.9406 0.0278 0.5800
H20 H 0.8356 0.0990 0.6040
C16 C 0.8230(3) 0.0081(3) 0.5384(2)
H21 H 0.8647 -0.0259 0.4993
H22 H 0.7593 0.0496 0.5179
C17 C 0.7997(5) -0.0690(4) 0.6014(4)
H23 H 0.8617 -0.1204 0.6132
H24 H 0.7509 -0.0978 0.5863
H25 H 0.7719 -0.0373 0.6444
C21 C 0.5171(2) 0.5373(2) 0.23496(16)
C22 C 0.5726(2) 0.5288(2) 0.16795(16)
C23 C 0.6765(2) 0.5164(2) 0.16648(17)
H33 H 0.7145 0.5106 0.1214
C24 C 0.7262(2) 0.5123(2) 0.22867(18)
C25 C 0.6682(2) 0.5156(2) 0.29519(17)
H34 H 0.7006 0.5097 0.3387
C26 C 0.5642(2) 0.5274(2) 0.29960(16)
C27 C 0.5056(2) 0.5267(2) 0.37396(16)
H35 H 0.5509 0.5264 0.4115
H36 H 0.4501 0.5877 0.3730
C28 C 0.8404(2) 0.5015(3) 0.22687(18)
C29 C 0.8557(4) 0.5916(4) 0.2518(3)
H37 H 0.9277 0.5855 0.2508
H38 H 0.8263 0.5968 0.3015
H39 H 0.8230 0.6503 0.2191
C30 C 0.8904(4) 0.4932(5) 0.1494(3)
H40 H 0.8555 0.5493 0.1154
H41 H 0.8863 0.4327 0.1343
H42 H 0.9609 0.4922 0.1494
C31 C 0.8923(4) 0.4089(4) 0.2788(3)
H43 H 0.8870 0.3507 0.2610
H44 H 0.8595 0.4119 0.3277
H45 H 0.9633 0.4055 0.2806
O3 O 0.41222(14) 0.55431(15) 0.23630(11)
C36 C 0.3587(2) 0.6555(2) 0.23671(18)
H55 H 0.3904 0.6968 0.1997
H56 H 0.3614 0.6741 0.2850
C37 C 0.2502(2) 0.6717(2) 0.22020(19)
O4 O 0.22941(18) 0.65742(19) 0.16090(13)
N2 N 0.1816(2) 0.7044(2) 0.27193(15)
H57 H 0.2016 0.7118 0.3132
C38 C 0.0734(2) 0.7284(3) 0.2624(2)
H58 H 0.0546 0.6671 0.2637
H59 H 0.0589 0.7674 0.2138
C39 C 0.0099(3) 0.7846(4) 0.3193(3)
H60 H 0.0357 0.8408 0.3224
H61 H 0.0182 0.7420 0.3669
C40 C -0.1008(3) 0.8227(4) 0.3069(4)
H62 H -0.1091 0.8634 0.2585
H63 H -0.1272 0.7664 0.3057
C41 C -0.1628(4) 0.8817(4) 0.3623(3)
H64 H -0.1542 0.8429 0.4108
H65 H -0.2337 0.9001 0.3513
H66 H -0.1413 0.9408 0.3612
C46 C 0.5671(2) 0.3403(2) 0.10702(16)
C47 C 0.5437(2) 0.2517(2) 0.12948(16)
C48 C 0.4417(2) 0.2550(3) 0.14006(16)
H76 H 0.4242 0.1954 0.1533
C49 C 0.3646(2) 0.3425(3) 0.13202(17)
C50 C 0.3927(2) 0.4299(3) 0.11651(16)
H77 H 0.3419 0.4903 0.1137
C51 C 0.4928(2) 0.4307(2) 0.10515(15)
C52 C 0.5223(2) 0.5259(2) 0.09910(16)
H78 H 0.4618 0.5822 0.0925
H79 H 0.5693 0.5313 0.0560
C53 C 0.2518(3) 0.3464(3) 0.1436(2)
C54 C 0.1979(3) 0.3985(4) 0.0727(2)
H80 H 0.2271 0.3610 0.0327
H81 H 0.2065 0.4643 0.0604
H82 H 0.1262 0.4028 0.0803
C55 C 0.2043(3) 0.4070(4) 0.2057(3)
H83 H 0.1342 0.4060 0.2159
H84 H 0.2071 0.4745 0.1909
H85 H 0.2416 0.3788 0.2495
C56 C 0.2342(3) 0.2446(4) 0.1614(4)
H86 H 0.2668 0.2058 0.1228
H87 H 0.1619 0.2513 0.1647
H88 H 0.2625 0.2119 0.2079
O5 O 0.66839(15) 0.34195(15) 0.09357(11)
C61 C 0.7156(2) 0.3101(3) 0.02655(17)
H98 H 0.6923 0.3616 -0.0150
H99 H 0.6987 0.2505 0.0193
C62 C 0.8290(3) 0.2889(3) 0.03168(19)
O6 O 0.86933(18) 0.2628(2) 0.09009(13)
N3 N 0.8814(2) 0.2995(2) -0.03281(16)
H100 H 0.8490 0.3177 -0.0730
C63 C 0.9907(3) 0.2814(3) -0.0373(2)
H101 H 1.0143 0.2869 0.0095
H102 H 1.0118 0.3286 -0.0760
C64 C 1.0324(6) 0.1777(6) -0.0552(5)
H103 H 0.9989 0.1360 -0.0200
H104 H 1.0097 0.1778 -0.1037
C65 C 1.1387(6) 0.1283(7) -0.0564(7)
H105 H 1.1650 0.1392 -0.0123
H106 H 1.1712 0.1611 -0.0988
C66 C 1.1734(11) 0.0208(7) -0.0600(9)
H107 H 1.1454 -0.0143 -0.0173
H108 H 1.2469 -0.0014 -0.0609
H109 H 1.1506 0.0077 -0.1043
C71 C 0.5959(2) 0.1488(2) 0.28863(17)
C72 C 0.5616(2) 0.1077(2) 0.35611(16)
C73 C 0.5393(2) 0.0179(2) 0.36109(17)
H119 H 0.5155 -0.0101 0.4067
C74 C 0.5510(2) -0.0322(2) 0.30045(18)
C75 C 0.5812(2) 0.0147(2) 0.23396(18)
H120 H 0.5872 -0.0163 0.1921
C76 C 0.6031(2) 0.1051(2) 0.22530(16)
C77 C 0.6240(2) 0.1543(2) 0.14811(16)
H121 H 0.6246 0.1104 0.1126
H122 H 0.6909 0.1662 0.1445
C78 C 0.5295(3) -0.1321(2) 0.30761(19)
C79 C 0.5540(6) -0.1817(5) 0.2400(3)
H123 H 0.5083 -0.1442 0.2023
H124 H 0.5461 -0.2479 0.2518
H125 H 0.6234 -0.1852 0.2220
C80 C 0.5963(5) -0.2048(4) 0.3683(3)
H126 H 0.5810 -0.2678 0.3753
H127 H 0.5816 -0.1774 0.4141
H128 H 0.6674 -0.2139 0.3531
C81 C 0.4203(5) -0.1265(5) 0.3388(5)
H129 H 0.3728 -0.0851 0.3035
H130 H 0.4082 -0.0984 0.3843
H131 H 0.4111 -0.1922 0.3482
O7 O 0.61350(16) 0.23935(15) 0.28770(11)
C86 C 0.7084(2) 0.2555(2) 0.25941(17)
H141 H 0.7113 0.3184 0.2720
H142 H 0.7112 0.2616 0.2057
C87 C 0.8006(3) 0.1760(2) 0.28692(18)
O8 O 0.80580(17) 0.13550(17) 0.35112(12)
N4 N 0.8774(2) 0.1576(2) 0.23683(16)
H143 H 0.8667 0.1824 0.1911
C88 C 0.9787(3) 0.0975(3) 0.2555(2)
H144 H 0.9730 0.0422 0.2933
H145 H 1.0127 0.1374 0.2764
C89 C 1.0421(3) 0.0582(3) 0.1917(2)
H146 H 1.0466 0.1137 0.1537
H147 H 1.0081 0.0180 0.1712
C90 C 1.1472(3) -0.0029(3) 0.2088(2)
H148 H 1.1822 0.0383 0.2270
H149 H 1.1426 -0.0564 0.2486
C91 C 1.2101(4) -0.0469(4) 0.1461(3)
H150 H 1.1768 -0.0886 0.1278
H151 H 1.2761 -0.0861 0.1624
H152 H 1.2182 0.0054 0.1071
Cl1 Cl 0.43602(14) 0.82679(15) 0.05720(10)
Cl2 Cl 0.63562(18) 0.8544(2) 0.03429(15)
C92 C 0.5593(4) 0.7722(4) 0.0483(3)
H153 H 0.5724 0.7350 0.0067
H154 H 0.5794 0.7249 0.0927
C18? C 0.8752(4) 0.0694(3) 0.5623(2)
H26? H 0.9301 0.0104 0.5539
H27? H 0.8873 0.0863 0.6092
C19? C 0.7850(6) 0.0375(9) 0.5758(10)
H28? H 0.7258 0.0952 0.5688
H29? H 0.7812 0.0061 0.6269
C20? C 0.7817(13) -0.0358(17) 0.5245(19)
H30? H 0.7119 -0.0352 0.5208
H31? H 0.8205 -0.1016 0.5442
H32? H 0.8106 -0.0167 0.4761
C32? C 0.8404(2) 0.5015(3) 0.22687(18)
C33? C 0.8624(15) 0.5892(10) 0.1761(12)
H46? H 0.8557 0.5828 0.1256
H47? H 0.9309 0.5909 0.1819
H48? H 0.8146 0.6497 0.1884
C34? C 0.9019(16) 0.4059(10) 0.1987(15)
H49? H 0.8815 0.3506 0.2273
H50? H 0.9735 0.3966 0.2035
H51? H 0.8896 0.4096 0.1474
C35? C 0.8774(18) 0.505(3) 0.3011(14)
H52? H 0.8673 0.4497 0.3361
H53? H 0.8395 0.5663 0.3187
H54? H 0.9490 0.5018 0.2956
C42? C 0.0734(2) 0.7284(3) 0.2624(2)
H67? H 0.0522 0.6680 0.2783
H68? H 0.0633 0.7468 0.2096
C43? C 0.0035(9) 0.8074(13) 0.3004(13)
H69? H 0.0213 0.7957 0.3518
H70? H 0.0155 0.8705 0.2780
C44? C -0.1055(9) 0.8172(12) 0.300(2)
H71? H -0.1266 0.7806 0.3453
H72? H -0.1161 0.7862 0.2588
C45? C -0.1718(16) 0.9199(15) 0.292(3)
H73? H -0.1708 0.9479 0.3363
H74? H -0.2406 0.9200 0.2854
H75? H -0.1474 0.9589 0.2500
C57? C 0.2518(3) 0.3464(3) 0.1436(2)
C58? C 0.179(2) 0.4496(11) 0.141(2)
H89? H 0.1931 0.4813 0.1797
H90? H 0.1100 0.4453 0.1478
H91? H 0.1887 0.4881 0.0936
C59? C 0.241(2) 0.291(2) 0.2215(9)
H92? H 0.2959 0.2905 0.2499
H93? H 0.2422 0.2232 0.2183
H94? H 0.1765 0.3230 0.2453
C60? C 0.226(4) 0.289(5) 0.087(4)
H95? H 0.1528 0.3027 0.0864
H96? H 0.2560 0.2192 0.0999
H97? H 0.2525 0.3110 0.0380
C67? C 0.9907(3) 0.2814(3) -0.0373(2)
H110? H 1.0055 0.3207 -0.0035
H111? H 1.0091 0.3100 -0.0870
C68? C 1.0629(7) 0.1815(6) -0.0231(5)
H112? H 1.1318 0.1882 -0.0249
H113? H 1.0476 0.1508 0.0267
C69? C 1.0595(9) 0.1176(7) -0.0746(8)
H114? H 1.0526 0.1570 -0.1235
H115? H 0.9977 0.0961 -0.0623
C70? C 1.1458(11) 0.0284(9) -0.0798(11)
H116? H 1.2088 0.0468 -0.0862
H117? H 1.1390 -0.0019 -0.1215
H118? H 1.1459 -0.0181 -0.0351
C82? C 0.5295(3) -0.1321(2) 0.30761(19)
C83? C 0.6189(7) -0.1992(7) 0.2687(6)
H132? H 0.6284 -0.1683 0.2186
H133? H 0.6054 -0.2619 0.2683
H134? H 0.6798 -0.2099 0.2945
C84? C 0.5032(11) -0.1757(9) 0.3836(4)
H135? H 0.5598 -0.1873 0.4141
H136? H 0.4886 -0.2377 0.3821
H137? H 0.4440 -0.1304 0.4040
C85? C 0.4340(8) -0.1076(8) 0.2538(6)
H138? H 0.3810 -0.0511 0.2675
H139? H 0.4074 -0.1644 0.2594
H140? H 0.4576 -0.0931 0.2031
O9? O 0.4512(7) 0.8820(7) 0.0420(7)
C93? C 0.5403(8) 0.8547(7) 0.0336(6)
C94? C 0.5891(15) 0.9134(17) -0.0225(10)
H155? H 0.5487 0.9817 -0.0278
H156? H 0.5950 0.8886 -0.0689
H157? H 0.6562 0.9088 -0.0081
C95? C 0.6155(12) 0.7695(12) 0.0702(10)
H158? H 0.6037 0.7667 0.1230
H159? H 0.6831 0.7762 0.0559
H160? H 0.6095 0.7094 0.0558
loop_
_geom_bond_atom_site_label_1
_geom_bond_atom_site_label_2
_geom_bond_site_symmetry_1
_geom_bond_site_symmetry_2
C1 C2 1_555 1_555
C2 C3 1_555 1_555
C3 H1 1_555 1_555
C4 C3 1_555 1_555
C5 C4 1_555 1_555
H2 C5 1_555 1_555
C6 C1 1_555 1_555
C7 C6 1_555 1_555
H3 C7 1_555 1_555
H4 C7 1_555 1_555
C8 C4 1_555 1_555
C9 C8 1_555 1_555
H5 C9 1_555 1_555
H6 C9 1_555 1_555
H7 C9 1_555 1_555
C10 C8 1_555 1_555
H8 C10 1_555 1_555
H9 C10 1_555 1_555
H10 C10 1_555 1_555
C11 C8 1_555 1_555
H11 C11 1_555 1_555
H12 C11 1_555 1_555
H13 C11 1_555 1_555
O1 C1 1_555 1_555
C12 O1 1_555 1_555
H14 C12 1_555 1_555
H15 C12 1_555 1_555
C13 C12 1_555 1_555
O2 C13 1_555 1_555
N1 C13 1_555 1_555
H16 N1 1_555 1_555
C14 N1 1_555 1_555
H17 C14 1_555 1_555
H18 C14 1_555 1_555
C15 C14 1_555 1_555
H19 C15 1_555 1_555
H20 C15 1_555 1_555
C16 C15 1_555 1_555
H21 C16 1_555 1_555
H22 C16 1_555 1_555
C17 C16 1_555 1_555
H23 C17 1_555 1_555
H24 C17 1_555 1_555
H25 C17 1_555 1_555
C21 C22 1_555 1_555
C22 C23 1_555 1_555
C23 H33 1_555 1_555
C24 C23 1_555 1_555
C25 C24 1_555 1_555
H34 C25 1_555 1_555
C26 C21 1_555 1_555
C27 C2 1_555 1_555
H35 C27 1_555 1_555
H36 C27 1_555 1_555
C28 C24 1_555 1_555
C29 C28 1_555 1_555
H37 C29 1_555 1_555
H38 C29 1_555 1_555
H39 C29 1_555 1_555
C30 C28 1_555 1_555
H40 C30 1_555 1_555
H41 C30 1_555 1_555
H42 C30 1_555 1_555
C31 C28 1_555 1_555
H43 C31 1_555 1_555
H44 C31 1_555 1_555
H45 C31 1_555 1_555
O3 C21 1_555 1_555
C36 O3 1_555 1_555
H55 C36 1_555 1_555
H56 C36 1_555 1_555
C37 C36 1_555 1_555
O4 C37 1_555 1_555
N2 C37 1_555 1_555
H57 N2 1_555 1_555
C38 N2 1_555 1_555
H58 C38 1_555 1_555
H59 C38 1_555 1_555
C39 C38 1_555 1_555
H60 C39 1_555 1_555
H61 C39 1_555 1_555
C40 C39 1_555 1_555
H62 C40 1_555 1_555
H63 C40 1_555 1_555
C41 C40 1_555 1_555
H64 C41 1_555 1_555
H65 C41 1_555 1_555
H66 C41 1_555 1_555
C46 C47 1_555 1_555
C47 C48 1_555 1_555
C48 H76 1_555 1_555
C49 C48 1_555 1_555
C50 C49 1_555 1_555
H77 C50 1_555 1_555
C51 C46 1_555 1_555
C52 C22 1_555 1_555
H78 C52 1_555 1_555
H79 C52 1_555 1_555
C53 C49 1_555 1_555
C54 C53 1_555 1_555
H80 C54 1_555 1_555
H81 C54 1_555 1_555
H82 C54 1_555 1_555
C55 C53 1_555 1_555
H83 C55 1_555 1_555
H84 C55 1_555 1_555
H85 C55 1_555 1_555
C56 C53 1_555 1_555
H86 C56 1_555 1_555
H87 C56 1_555 1_555
H88 C56 1_555 1_555
O5 C46 1_555 1_555
C61 O5 1_555 1_555
H98 C61 1_555 1_555
H99 C61 1_555 1_555
C62 C61 1_555 1_555
O6 C62 1_555 1_555
N3 C62 1_555 1_555
H100 N3 1_555 1_555
C63 N3 1_555 1_555
H101 C63 1_555 1_555
H102 C63 1_555 1_555
C64 C63 1_555 1_555
H103 C64 1_555 1_555
H104 C64 1_555 1_555
C65 C64 1_555 1_555
H105 C65 1_555 1_555
H106 C65 1_555 1_555
C66 C65 1_555 1_555
H107 C66 1_555 1_555
H108 C66 1_555 1_555
H109 C66 1_555 1_555
C71 C72 1_555 1_555
C72 C7 1_555 1_555
C73 C72 1_555 1_555
H119 C73 1_555 1_555
C74 C73 1_555 1_555
C75 C74 1_555 1_555
H120 C75 1_555 1_555
C76 C71 1_555 1_555
C77 C47 1_555 1_555
H121 C77 1_555 1_555
H122 C77 1_555 1_555
C78 C74 1_555 1_555
C79 C78 1_555 1_555
H123 C79 1_555 1_555
H124 C79 1_555 1_555
H125 C79 1_555 1_555
C80 C78 1_555 1_555
H126 C80 1_555 1_555
H127 C80 1_555 1_555
H128 C80 1_555 1_555
C81 C78 1_555 1_555
H129 C81 1_555 1_555
H130 C81 1_555 1_555
H131 C81 1_555 1_555
O7 C71 1_555 1_555
C86 O7 1_555 1_555
H141 C86 1_555 1_555
H142 C86 1_555 1_555
C87 C86 1_555 1_555
O8 C87 1_555 1_555
N4 C87 1_555 1_555
H143 N4 1_555 1_555
C88 N4 1_555 1_555
H144 C88 1_555 1_555
H145 C88 1_555 1_555
C89 C88 1_555 1_555
H146 C89 1_555 1_555
H147 C89 1_555 1_555
C90 C89 1_555 1_555
H148 C90 1_555 1_555
H149 C90 1_555 1_555
C91 C90 1_555 1_555
H150 C91 1_555 1_555
H151 C91 1_555 1_555
H152 C91 1_555 1_555
Cl1 C92 1_555 1_555
Cl2 C92 1_555 1_555
C92 H153 1_555 1_555
H154 C92 1_555 1_555
C5 C6 1_555 1_555
C25 C26 1_555 1_555
C26 C27 1_555 1_555
C50 C51 1_555 1_555
C51 C52 1_555 1_555
C75 C76 1_555 1_555
C76 C77 1_555 1_555

#END
