
#######################################################################
#
#                 Cambridge Crystallographic Data Centre
#                                CCDC 
#
#######################################################################
#
# If this CIF has been generated from an entry in the Cambridge 
# Structural Database, then it will include bibliographic, chemical, 
# crystal, experimental, refinement or atomic coordinate data resulting 
# from the CCDC's data processing and validation procedures.
#
#######################################################################

data_JETJEY
_chemical_formula_moiety         'C17 H16 N1 O1 1+,C4 H5 O6 1-,H2 O1'
_chemical_name_systematic        
'(S)-\a-(2-Hydroxy-1-naphthyl)benzylammonium L-(+)-hydrogen tartrate monohydrate'
_symmetry_cell_setting           monoclinic
_symmetry_space_group_name_H-M   'P 21'
_symmetry_Int_Tables_number      4
_space_group_name_Hall           'P 2yb'
loop_
_symmetry_equiv_pos_site_id
_symmetry_equiv_pos_as_xyz
1 x,y,z
2 -x,1/2+y,-z
_cell_length_a                   7.687(7)
_cell_length_b                   7.876(2)
_cell_length_c                   16.673(3)
_cell_angle_alpha                90.00(2)
_cell_angle_beta                 90.00(4)
_cell_angle_gamma                90.00(4)
_cell_volume                     1009.43
_exptl_crystal_colour            colorless
_exptl_crystal_description       prismatic
_cell_formula_units_Z            2
loop_
_atom_site_label
_atom_site_type_symbol
_atom_site_fract_x
_atom_site_fract_y
_atom_site_fract_z
O1 O 0.3742(3) 0.3818(4) 0.22516(15)
H1 H 0.309(6) 0.313(6) 0.204(3)
N1 N 0.6980(3) 0.3757(4) 0.17332(14)
H7 H 0.7813 0.4208 0.1429
H8 H 0.5971 0.4262 0.1626
H9 H 0.6894 0.2652 0.1629
C1 C 0.5953(7) 0.1217(7) 0.5183(3)
H10 H 0.5179 0.0615 0.5504
C2 C 0.7601(7) 0.1510(8) 0.5449(3)
H11 H 0.7944 0.1110 0.5949
C3 C 0.8760(6) 0.2397(7) 0.4979(2)
H12 H 0.9877 0.2607 0.5169
C4 C 0.8290(5) 0.2972(6) 0.4237(2)
H13 H 0.9096 0.3560 0.3928
C5 C 0.6043(4) 0.3260(4) 0.31523(19)
C6 C 0.4328(4) 0.3087(5) 0.2938(2)
C7 C 0.3162(5) 0.2204(6) 0.3443(2)
H14 H 0.2012 0.2065 0.3284
C8 C 0.3686(5) 0.1562(7) 0.4148(2)
H15 H 0.2908 0.0941 0.4458
C9 C 0.6605(4) 0.2692(5) 0.39317(19)
C10 C 0.5405(5) 0.1815(5) 0.4428(2)
C11 C 0.7420(4) 0.4007(5) 0.25957(18)
H16 H 0.8502 0.3383 0.2696
C12 C 0.7812(4) 0.5862(5) 0.27309(19)
C13 C 0.9523(5) 0.6425(6) 0.2730(2)
H17 H 1.0423 0.5645 0.2670
C14 C 0.9907(6) 0.8123(6) 0.2816(3)
H18 H 1.1057 0.8488 0.2814
C15 C 0.8592(8) 0.9263(7) 0.2904(4)
H19 H 0.8849 1.0411 0.2960
C16 C 0.6888(7) 0.8741(8) 0.2912(4)
H20 H 0.5999 0.9530 0.2975
C17 C 0.6504(6) 0.7046(6) 0.2827(3)
H21 H 0.5349 0.6693 0.2833
O2 O 0.8016(3) 0.1180(3) 0.05893(13)
H2 H 0.8398 0.0231 0.0688
O3 O 0.4745(3) 0.2395(4) 0.05215(15)
O4 O 0.4486(3) 0.1710(4) -0.07676(14)
H3 H 0.3477 0.2018 -0.0702
O5 O 0.8036(3) 0.4028(3) -0.05873(14)
H4 H 0.8503 0.4232 -0.0156
O6 O 1.0333(3) 0.0123(3) -0.08620(14)
O7 O 1.1275(3) 0.2757(4) -0.06777(16)
C18 C 0.5335(4) 0.1833(5) -0.0087(2)
C19 C 0.7190(4) 0.1168(5) -0.01688(18)
H22 H 0.7158 0.0002 -0.0374
C20 C 0.8195(3) 0.2293(4) -0.07600(19)
H23 H 0.7709 0.2101 -0.1296
C21 C 1.0091(4) 0.1681(4) -0.07702(18)
O8 O 0.1200(3) 0.2132(5) 0.15757(17)
H5 H 0.098(6) 0.290(4) 0.125(2)
H6 H 0.145(9) 0.112(3) 0.148(3)
loop_
_geom_bond_atom_site_label_1
_geom_bond_atom_site_label_2
_geom_bond_site_symmetry_1
_geom_bond_site_symmetry_2
O1 H1 1_555 1_555
O2 H2 1_555 1_555
O3 C18 1_555 1_555
O4 H3 1_555 1_555
O5 H4 1_555 1_555
O6 C21 1_555 1_555
O7 C21 1_555 1_555
O8 H5 1_555 1_555
H6 O8 1_555 1_555
N1 H7 1_555 1_555
H8 N1 1_555 1_555
H9 N1 1_555 1_555
C1 H10 1_555 1_555
C2 C1 1_555 1_555
H11 C2 1_555 1_555
C3 C2 1_555 1_555
H12 C3 1_555 1_555
C4 C3 1_555 1_555
H13 C4 1_555 1_555
C5 C6 1_555 1_555
C6 O1 1_555 1_555
C7 C6 1_555 1_555
H14 C7 1_555 1_555
C8 C7 1_555 1_555
H15 C8 1_555 1_555
C9 C4 1_555 1_555
C10 C1 1_555 1_555
C11 N1 1_555 1_555
H16 C11 1_555 1_555
C12 C11 1_555 1_555
C13 C12 1_555 1_555
H17 C13 1_555 1_555
C14 C13 1_555 1_555
H18 C14 1_555 1_555
C15 C14 1_555 1_555
H19 C15 1_555 1_555
C16 C15 1_555 1_555
H20 C16 1_555 1_555
C17 C12 1_555 1_555
H21 C17 1_555 1_555
C18 O4 1_555 1_555
C19 O2 1_555 1_555
H22 C19 1_555 1_555
C20 O5 1_555 1_555
H23 C20 1_555 1_555
C21 C20 1_555 1_555
C5 C9 1_555 1_555
C5 C11 1_555 1_555
C8 C10 1_555 1_555
C9 C10 1_555 1_555
C16 C17 1_555 1_555
C18 C19 1_555 1_555
C19 C20 1_555 1_555

#END
