
#######################################################################
#
#                 Cambridge Crystallographic Data Centre
#                                CCDC 
#
#######################################################################
#
# If this CIF has been generated from an entry in the Cambridge 
# Structural Database, then it will include bibliographic, chemical, 
# crystal, experimental, refinement or atomic coordinate data resulting 
# from the CCDC's data processing and validation procedures.
#
#######################################################################

data_JETNAA
_chemical_formula_moiety         'C112 H146 S8'
_chemical_name_systematic        
5,6,11,12,17,18,23,24,29,30,35,36,41,42,47,48-hexadecabutyl-49,50,51,52,53,54,55,56-octathianonacyclo[44.2.1.1^4,7^.1^10,13^.1^16,19^.1^22,25^.1^28,31^.1^34,37^.1^40,43^]hexapentaconta-1(48),2,4,6,10,12,16,18,22,24,28,30,34,36,40,42,46-heptadecaene-8,14,20,26,32,38,44-heptayne
_symmetry_cell_setting           triclinic
_symmetry_space_group_name_H-M   'P -1'
_symmetry_Int_Tables_number      2
_space_group_name_Hall           '-P 1'
loop_
_symmetry_equiv_pos_site_id
_symmetry_equiv_pos_as_xyz
1 x,y,z
2 -x,-y,-z
_cell_length_a                   13.8766(3)
_cell_length_b                   14.3792(3)
_cell_length_c                   15.4781(3)
_cell_angle_alpha                111.158(8)
_cell_angle_beta                 102.018(7)
_cell_angle_gamma                105.842(7)
_cell_volume                     2603.83
_exptl_crystal_colour            red
_exptl_crystal_description       platelet
_cell_formula_units_Z            1
loop_
_atom_site_label
_atom_site_type_symbol
_atom_site_fract_x
_atom_site_fract_y
_atom_site_fract_z
S1 S 0.52268(6) 0.02102(5) 0.82652(5)
S2 S 0.30743(6) 0.12559(6) 0.55635(5)
S3 S 0.18924(6) 0.45055(5) 0.52409(5)
S4 S 0.24848(6) 0.80209(6) 0.78067(6)
C1 C 0.5626(2) -0.0644(2) 0.8671(2)
C2 C 0.5278(2) -0.1672(2) 0.79203(19)
C3 C 0.4690(2) -0.1770(2) 0.6996(2)
C4 C 0.4609(2) -0.0813(2) 0.7070(2)
C5 C 0.5464(2) -0.2590(2) 0.8077(2)
H1 H 0.6107 -0.2301 0.8641
H2 H 0.5580 -0.3047 0.7504
C6 C 0.4537(3) -0.3281(3) 0.8252(2)
H3 H 0.3885 -0.3525 0.7711
H4 H 0.4662 -0.3914 0.8245
C7 C 0.4379(3) -0.2700(3) 0.9209(2)
H5 H 0.5005 -0.2509 0.9755
H6 H 0.4308 -0.2037 0.9242
C8 C 0.3403(3) -0.3378(4) 0.9319(4)
H7 H 0.3337 -0.2976 0.9936
H8 H 0.3476 -0.4028 0.9301
H9 H 0.2778 -0.3556 0.8788
C9 C 0.4205(2) -0.2792(2) 0.6051(2)
H10 H 0.3576 -0.2785 0.5643
H11 H 0.3976 -0.3397 0.6203
C10 C 0.4948(2) -0.2972(2) 0.5458(2)
H12 H 0.5587 -0.2966 0.5864
H13 H 0.5158 -0.2387 0.5277
C11 C 0.4406(3) -0.4046(3) 0.4525(2)
H14 H 0.4203 -0.4628 0.4710
H15 H 0.3760 -0.4053 0.4129
C12 C 0.5115(3) -0.4248(3) 0.3905(2)
H16 H 0.4739 -0.4932 0.3333
H17 H 0.5751 -0.4255 0.4289
H18 H 0.5303 -0.3686 0.3703
C13 C 0.3242(3) 0.0060(3) 0.5134(3)
C14 C 0.2543(4) -0.0628(4) 0.4095(4)
C15 C 0.2109(5) -0.0030(5) 0.3681(4)
C16 C 0.2489(3) 0.1078(3) 0.4400(2)
C17 C 0.2433(5) -0.1756(5) 0.3527(5)
H19 H 0.1772 -0.2128 0.2970
H20 H 0.2391 -0.2122 0.3944
C18 C 0.3366(6) -0.1831(7) 0.3143(6)
H21 H 0.4011 -0.1546 0.3704
H22 H 0.3472 -0.1377 0.2808
C19 C 0.3202(16) -0.3004(16) 0.2419(14)
H23 H 0.3068 -0.3466 0.2743
H24 H 0.2575 -0.3279 0.1844
C20 C 0.4085(8) -0.3070(8) 0.2100(7)
H25 H 0.3936 -0.3808 0.1675
H26 H 0.4711 -0.2802 0.2662
H27 H 0.4203 -0.2645 0.1747
C21 C 0.1453(5) -0.0440(5) 0.2629(5)
H28 H 0.0899 -0.0149 0.2605
H29 H 0.1106 -0.1219 0.2343
C22 C 0.2073(9) -0.0158(17) 0.2017(9)
H30 H 0.2643 -0.0426 0.2060
H31 H 0.2398 0.0622 0.2288
C23 C 0.1413(13) -0.0608(18) 0.0947(13)
H32 H 0.0674 -0.0712 0.0870
H33 H 0.1683 -0.0126 0.0670
C24 C 0.1516(7) -0.1641(8) 0.0465(6)
H34 H 0.1117 -0.1975 -0.0227
H35 H 0.1244 -0.2105 0.0748
H36 H 0.2253 -0.1522 0.0558
C25 C 0.1533(2) 0.3387(2) 0.4147(2)
C26 C 0.0852(6) 0.3385(7) 0.3385(7)
C27 C 0.0636(5) 0.4332(5) 0.3652(5)
C28 C 0.1232(2) 0.5082(2) 0.4653(2)
C29 C 0.0430(5) 0.2471(5) 0.2359(6)
H37 H -0.0340 0.2227 0.2108
H38 H 0.0605 0.1873 0.2390
C30 C 0.0891(4) 0.2798(4) 0.1636(4)
H39 H 0.0658 0.2160 0.1016
H40 H 0.0601 0.3296 0.1508
C31 C 0.2103(5) 0.3322(6) 0.2009(5)
H41 H 0.2406 0.2838 0.2151
H42 H 0.2347 0.3982 0.2613
C32 C 0.2482(7) 0.3582(8) 0.1212(6)
H43 H 0.3244 0.3937 0.1459
H44 H 0.2165 0.4045 0.1059
H45 H 0.2269 0.2923 0.0626
C33 C -0.0088(4) 0.4574(4) 0.2981(3)
H46 H -0.0502 0.4894 0.3338
H47 H -0.0584 0.3893 0.2434
C34 C 0.0416(5) 0.5327(5) 0.2545(4)
H48 H 0.0725 0.6066 0.3054
H49 H 0.0990 0.5145 0.2359
C35 C -0.0382(7) 0.5256(7) 0.1635(6)
H50 H -0.0680 0.4514 0.1132
H51 H -0.0962 0.5416 0.1826
C36 C -0.0004(9) 0.5924(10) 0.1196(7)
H52 H -0.0573 0.5780 0.0631
H53 H 0.0569 0.5778 0.0994
H54 H 0.0248 0.6667 0.1665
C37 C 0.1721(2) 0.7955(2) 0.6731(2)
C38 C 0.1550(2) 0.8896(2) 0.6886(2)
C39 C 0.2041(2) 0.9672(2) 0.7890(2)
C40 C 0.2587(2) 0.9318(2) 0.8479(2)
C41 C 0.0932(2) 0.9127(3) 0.6105(2)
H55 H 0.0343 0.9272 0.6290
H56 H 0.1398 0.9786 0.6134
C42 C 0.0496(3) 0.8301(3) 0.5073(2)
H57 H 0.0035 0.7634 0.5034
H58 H 0.1080 0.8170 0.4868
C43 C -0.0125(3) 0.8591(3) 0.4365(3)
H59 H 0.0360 0.9209 0.4347
H60 H -0.0649 0.8813 0.4620
C44 C -0.0689(5) 0.7721(5) 0.3333(4)
H61 H -0.1068 0.7982 0.2942
H62 H -0.1184 0.7107 0.3335
H63 H -0.0178 0.7514 0.3057
C45 C 0.2043(3) 1.0795(2) 0.8304(2)
H64 H 0.2098 1.1026 0.8990
H65 H 0.1370 1.0782 0.7950
C46 C 0.2954(3) 1.1613(2) 0.8235(2)
H66 H 0.3612 1.1528 0.8480
H67 H 0.2826 1.1452 0.7547
C47 C 0.3098(4) 1.2779(3) 0.8805(3)
H68 H 0.3281 1.2961 0.9502
H69 H 0.2430 1.2860 0.8593
C48 C 0.3975(6) 1.3566(4) 0.8655(5)
H70 H 0.4044 1.4292 0.9031
H71 H 0.3789 1.3402 0.7969
H72 H 0.4640 1.3496 0.8872
C49 C 0.6250(2) -0.0232(2) 0.9670(2)
C50 C 0.3199(2) 0.9848(3) 0.9483(2)
C51 C 0.4081(2) -0.0581(3) 0.6328(2)
C52 C 0.3711(3) -0.0284(3) 0.5802(3)
C53 C 0.2151(3) 0.1870(3) 0.4268(2)
C54 C 0.1854(2) 0.2536(2) 0.4162(2)
C55 C 0.1272(2) 0.6117(2) 0.5256(2)
C56 C 0.1424(2) 0.6977(2) 0.5875(2)
S1A S 0.47732(6) 0.97898(5) 1.17348(5)
S2A S 0.69257(6) 0.87441(6) 1.44365(5)
S3A S 0.81076(6) 0.54945(5) 1.47591(5)
S4A S 0.75152(6) 0.19791(6) 1.21933(6)
C1A C 0.4374(2) 1.0644(2) 1.1329(2)
C2A C 0.4722(2) 1.1672(2) 1.20797(19)
C3A C 0.5310(2) 1.1770(2) 1.3004(2)
C4A C 0.5391(2) 1.0813(2) 1.2930(2)
C5A C 0.4536(2) 1.2590(2) 1.1923(2)
H1A H 0.3893 1.2301 1.1359
H2A H 0.4420 1.3047 1.2496
C6A C 0.5463(3) 1.3281(3) 1.1748(2)
H3A H 0.6115 1.3525 1.2289
H4A H 0.5338 1.3914 1.1755
C7A C 0.5621(3) 1.2700(3) 1.0791(2)
H5A H 0.4995 1.2509 1.0245
H6A H 0.5692 1.2037 1.0758
C8A C 0.6597(3) 1.3378(4) 1.0681(4)
H7A H 0.6663 1.2976 1.0064
H8A H 0.6524 1.4028 1.0699
H9A H 0.7222 1.3556 1.1212
C9A C 0.5795(2) 1.2792(2) 1.3949(2)
H10A H 0.6424 1.2785 1.4357
H11A H 0.6024 1.3397 1.3797
C10A C 0.5052(2) 1.2972(2) 1.4542(2)
H12A H 0.4413 1.2966 1.4136
H13A H 0.4842 1.2387 1.4723
C11A C 0.5594(3) 1.4046(3) 1.5475(2)
H14A H 0.5797 1.4628 1.5290
H15A H 0.6240 1.4053 1.5871
C12A C 0.4885(3) 1.4248(3) 1.6095(2)
H16A H 0.5261 1.4932 1.6667
H17A H 0.4249 1.4255 1.5711
H18A H 0.4697 1.3686 1.6297
C13A C 0.6758(3) 0.9940(3) 1.4866(3)
C14A C 0.7457(4) 1.0628(4) 1.5905(4)
C15A C 0.7891(5) 1.0030(5) 1.6319(4)
C16A C 0.7511(3) 0.8922(3) 1.5600(2)
C17A C 0.7567(5) 1.1756(5) 1.6473(5)
H19A H 0.8228 1.2128 1.7030
H20A H 0.7609 1.2122 1.6056
C18A C 0.6634(6) 1.1831(7) 1.6857(6)
H21A H 0.5989 1.1546 1.6296
H22A H 0.6528 1.1377 1.7192
C19A C 0.6798(16) 1.3004(16) 1.7581(14)
H23A H 0.6932 1.3466 1.7257
H24A H 0.7425 1.3279 1.8156
C20A C 0.5915(8) 1.3070(8) 1.7900(7)
H25A H 0.6064 1.3808 1.8325
H26A H 0.5289 1.2802 1.7338
H27A H 0.5797 1.2645 1.8253
C21A C 0.8547(5) 1.0440(5) 1.7371(5)
H28A H 0.9101 1.0149 1.7395
H29A H 0.8894 1.1219 1.7657
C22A C 0.7927(9) 1.0158(17) 1.7983(9)
H30A H 0.7357 1.0426 1.7940
H31A H 0.7602 0.9378 1.7712
C23A C 0.8587(13) 1.0608(18) 1.9053(13)
H32A H 0.9326 1.0712 1.9130
H33A H 0.8317 1.0126 1.9330
C24A C 0.8484(7) 1.1641(8) 1.9535(6)
H34A H 0.8883 1.1975 2.0227
H35A H 0.8756 1.2105 1.9252
H36A H 0.7747 1.1522 1.9442
C25A C 0.8467(2) 0.6613(2) 1.5853(2)
C26A C 0.9148(6) 0.6615(7) 1.6615(7)
C27A C 0.9364(5) 0.5668(5) 1.6348(5)
C28A C 0.8768(2) 0.4918(2) 1.5347(2)
C29A C 0.9570(5) 0.7529(5) 1.7641(6)
H37A H 1.0340 0.7773 1.7892
H38A H 0.9395 0.8127 1.7610
C30A C 0.9109(4) 0.7202(4) 1.8364(4)
H39A H 0.9342 0.7840 1.8984
H40A H 0.9399 0.6704 1.8492
C31A C 0.7897(5) 0.6678(6) 1.7991(5)
H41A H 0.7594 0.7162 1.7849
H42A H 0.7653 0.6018 1.7387
C32A C 0.7518(7) 0.6418(8) 1.8788(6)
H43A H 0.6756 0.6063 1.8541
H44A H 0.7835 0.5955 1.8941
H45A H 0.7731 0.7077 1.9374
C33A C 1.0088(4) 0.5426(4) 1.7019(3)
H46A H 1.0502 0.5106 1.6662
H47A H 1.0584 0.6107 1.7566
C34A C 0.9584(5) 0.4673(5) 1.7455(4)
H48A H 0.9275 0.3934 1.6946
H49A H 0.9010 0.4855 1.7641
C35A C 1.0382(7) 0.4744(7) 1.8365(6)
H50A H 1.0680 0.5486 1.8868
H51A H 1.0962 0.4584 1.8174
C36A C 1.0004(9) 0.4076(10) 1.8804(7)
H52A H 1.0573 0.4220 1.9369
H53A H 0.9431 0.4222 1.9006
H54A H 0.9752 0.3333 1.8335
C37A C 0.8279(2) 0.2045(2) 1.3269(2)
C38A C 0.8450(2) 0.1104(2) 1.3114(2)
C39A C 0.7959(2) 0.0328(2) 1.2110(2)
C40A C 0.7413(2) 0.0682(2) 1.1521(2)
C41A C 0.9068(2) 0.0873(3) 1.3895(2)
H55A H 0.9657 0.0728 1.3710
H56A H 0.8602 0.0214 1.3866
C42A C 0.9504(3) 0.1699(3) 1.4927(2)
H57A H 0.9965 0.2366 1.4966
H58A H 0.8920 0.1830 1.5132
C43A C 1.0125(3) 0.1409(3) 1.5635(3)
H59A H 0.9640 0.0791 1.5653
H60A H 1.0649 0.1187 1.5380
C44A C 1.0689(5) 0.2279(5) 1.6667(4)
H61A H 1.1068 0.2018 1.7058
H62A H 1.1184 0.2893 1.6665
H63A H 1.0178 0.2486 1.6943
C45A C 0.7957(3) -0.0795(2) 1.1696(2)
H64A H 0.7902 -0.1026 1.1010
H65A H 0.8630 -0.0782 1.2050
C46A C 0.7046(3) -0.1613(2) 1.1765(2)
H66A H 0.6388 -0.1528 1.1520
H67A H 0.7174 -0.1452 1.2453
C47A C 0.6902(4) -0.2779(3) 1.1195(3)
H68A H 0.6719 -0.2961 1.0498
H69A H 0.7570 -0.2860 1.1407
C48A C 0.6025(6) -0.3566(4) 1.1345(5)
H70A H 0.5956 -0.4292 1.0969
H71A H 0.6211 -0.3402 1.2031
H72A H 0.5360 -0.3496 1.1128
C49A C 0.3750(2) 1.0232(2) 1.0330(2)
C50A C 0.6801(2) 0.0152(3) 1.0517(2)
C51A C 0.5919(2) 1.0581(3) 1.3672(2)
C52A C 0.6289(3) 1.0284(3) 1.4198(3)
C53A C 0.7849(3) 0.8130(3) 1.5732(2)
C54A C 0.8146(2) 0.7464(2) 1.5838(2)
C55A C 0.8728(2) 0.3883(2) 1.4744(2)
C56A C 0.8576(2) 0.3023(2) 1.4125(2)
C57? C 0.3276(5) -0.0217(5) 0.4186(5)
C58? C 0.2807(5) 0.0347(5) 0.3745(4)
C59? C 0.3640(5) -0.1080(7) 0.3670(7)
H73? H 0.4299 -0.0994 0.4116
H74? H 0.3788 -0.0998 0.3110
C60? C 0.2830(7) -0.2193(6) 0.3317(6)
H75? H 0.2692 -0.2283 0.3877
H76? H 0.2167 -0.2279 0.2878
C61? C 0.3213(10) -0.3060(11) 0.2778(12)
H77? H 0.3933 -0.2892 0.3178
H78? H 0.2763 -0.3747 0.2713
C62? C 0.3210(14) -0.3177(10) 0.1809(10)
H79? H 0.3466 -0.3731 0.1523
H80? H 0.3666 -0.2507 0.1864
H81? H 0.2498 -0.3370 0.1397
C63? C 0.2554(5) 0.0137(5) 0.2676(5)
H82? H 0.2696 0.0818 0.2639
H83? H 0.3017 -0.0187 0.2405
C64? C 0.1409(10) -0.0598(10) 0.2067(9)
H84? H 0.0947 -0.0231 0.2275
H85? H 0.1237 -0.1238 0.2175
C65? C 0.1201(18) -0.0938(16) 0.0937(15)
H86? H 0.1804 -0.1072 0.0776
H87? H 0.0574 -0.1600 0.0552
C66? C 0.1037(9) -0.0063(8) 0.0681(7)
H88? H 0.0955 -0.0263 0.0000
H89? H 0.1644 0.0600 0.1086
H90? H 0.0409 0.0032 0.0796
C67? C 0.1126(14) 0.3617(15) 0.3309(15)
C68? C 0.1017(12) 0.4651(11) 0.3699(12)
C69? C 0.0809(15) 0.2833(16) 0.2275(12)
H91? H 0.0299 0.2990 0.1874
H92? H 0.0443 0.2121 0.2212
C70? C 0.168(2) 0.280(2) 0.1859(15)
H93? H 0.1372 0.2150 0.1236
H94? H 0.2197 0.2684 0.2295
C71? C 0.2277(18) 0.3677(18) 0.167(2)
H95? H 0.2933 0.3603 0.1600
H96? H 0.2461 0.4365 0.2230
C72? C 0.1567(18) 0.364(2) 0.0686(17)
H97? H 0.1967 0.4214 0.0564
H98? H 0.0927 0.3736 0.0768
H99? H 0.1385 0.2961 0.0137
C73? C 0.0649(11) 0.5178(11) 0.2972(13)
H100? H 0.0975 0.5960 0.3311
H101? H 0.0843 0.4927 0.2387
C74? C -0.0430(13) 0.4828(14) 0.2735(13)
H102? H -0.0636 0.5072 0.3313
H103? H -0.0770 0.4048 0.2372
C75? C -0.070(2) 0.5430(19) 0.203(2)
H104? H -0.0167 0.6153 0.2290
H105? H -0.1399 0.5462 0.1948
C76? C -0.0636(12) 0.4452(16) 0.0788(11)
H106? H -0.0733 0.4735 0.0316
H107? H -0.1190 0.3754 0.0537
H108? H 0.0045 0.4388 0.0906
H109? H 0.2975 1.0421 0.9591
H110? H 0.602(2) 0.032(2) 0.9864(19)
loop_
_geom_bond_atom_site_label_1
_geom_bond_atom_site_label_2
_geom_bond_site_symmetry_1
_geom_bond_site_symmetry_2
S1 C1 1_555 1_555
S2 C13 1_555 1_555
S3 C25 1_555 1_555
S4 C37 1_555 1_555
C1 C2 1_555 1_555
C2 C3 1_555 1_555
C3 C4 1_555 1_555
C4 S1 1_555 1_555
C5 C2 1_555 1_555
H1 C5 1_555 1_555
H2 C5 1_555 1_555
C6 C5 1_555 1_555
H3 C6 1_555 1_555
H4 C6 1_555 1_555
C7 C6 1_555 1_555
H5 C7 1_555 1_555
H6 C7 1_555 1_555
C8 C7 1_555 1_555
H7 C8 1_555 1_555
H8 C8 1_555 1_555
H9 C8 1_555 1_555
C9 C3 1_555 1_555
H10 C9 1_555 1_555
H11 C9 1_555 1_555
C10 C9 1_555 1_555
H12 C10 1_555 1_555
H13 C10 1_555 1_555
C11 C10 1_555 1_555
H14 C11 1_555 1_555
H15 C11 1_555 1_555
C12 C11 1_555 1_555
H16 C12 1_555 1_555
H17 C12 1_555 1_555
H18 C12 1_555 1_555
C13 C14 1_555 1_555
C14 C15 1_555 1_555
C15 C16 1_555 1_555
C16 S2 1_555 1_555
C17 C14 1_555 1_555
H19 C17 1_555 1_555
H20 C17 1_555 1_555
C18 C17 1_555 1_555
H21 C18 1_555 1_555
H22 C18 1_555 1_555
C19 C18 1_555 1_555
H23 C19 1_555 1_555
H24 C19 1_555 1_555
C20 C19 1_555 1_555
H25 C20 1_555 1_555
H26 C20 1_555 1_555
H27 C20 1_555 1_555
C21 C15 1_555 1_555
H28 C21 1_555 1_555
H29 C21 1_555 1_555
C22 C21 1_555 1_555
H30 C22 1_555 1_555
H31 C22 1_555 1_555
C23 C22 1_555 1_555
H32 C23 1_555 1_555
H33 C23 1_555 1_555
C24 C23 1_555 1_555
H34 C24 1_555 1_555
H35 C24 1_555 1_555
H36 C24 1_555 1_555
C25 C26 1_555 1_555
C26 C27 1_555 1_555
C27 C28 1_555 1_555
C28 S3 1_555 1_555
C29 C26 1_555 1_555
H37 C29 1_555 1_555
H38 C29 1_555 1_555
C30 C29 1_555 1_555
H39 C30 1_555 1_555
H40 C30 1_555 1_555
C31 C30 1_555 1_555
H41 C31 1_555 1_555
H42 C31 1_555 1_555
C32 C31 1_555 1_555
H43 C32 1_555 1_555
H44 C32 1_555 1_555
H45 C32 1_555 1_555
C33 C27 1_555 1_555
H46 C33 1_555 1_555
H47 C33 1_555 1_555
C34 C33 1_555 1_555
H48 C34 1_555 1_555
H49 C34 1_555 1_555
C35 C34 1_555 1_555
H50 C35 1_555 1_555
H51 C35 1_555 1_555
C36 C35 1_555 1_555
H52 C36 1_555 1_555
H53 C36 1_555 1_555
H54 C36 1_555 1_555
C37 C38 1_555 1_555
C38 C39 1_555 1_555
C39 C40 1_555 1_555
C40 S4 1_555 1_555
C41 C38 1_555 1_555
H55 C41 1_555 1_555
H56 C41 1_555 1_555
C42 C41 1_555 1_555
H57 C42 1_555 1_555
H58 C42 1_555 1_555
C43 C42 1_555 1_555
H59 C43 1_555 1_555
H60 C43 1_555 1_555
C44 C43 1_555 1_555
H61 C44 1_555 1_555
H62 C44 1_555 1_555
H63 C44 1_555 1_555
C45 C39 1_555 1_555
H64 C45 1_555 1_555
H65 C45 1_555 1_555
C46 C45 1_555 1_555
H66 C46 1_555 1_555
H67 C46 1_555 1_555
C47 C46 1_555 1_555
H68 C47 1_555 1_555
H69 C47 1_555 1_555
C48 C47 1_555 1_555
H70 C48 1_555 1_555
H71 C48 1_555 1_555
H72 C48 1_555 1_555
C49 C1 1_555 1_555
C50 C40 1_555 1_555
C51 C4 1_555 1_555
C52 C13 1_555 1_555
C53 C16 1_555 1_555
C54 C25 1_555 1_555
C55 C28 1_555 1_555
C56 C37 1_555 1_555
S1A C1A 1_555 1_555
S2A C13A 1_555 1_555
S3A C25A 1_555 1_555
S4A C37A 1_555 1_555
C1A C2A 1_555 1_555
C2A C3A 1_555 1_555
C3A C4A 1_555 1_555
C4A S1A 1_555 1_555
C5A C2A 1_555 1_555
H1A C5A 1_555 1_555
H2A C5A 1_555 1_555
C6A C5A 1_555 1_555
H3A C6A 1_555 1_555
H4A C6A 1_555 1_555
C7A C6A 1_555 1_555
H5A C7A 1_555 1_555
H6A C7A 1_555 1_555
C8A C7A 1_555 1_555
H7A C8A 1_555 1_555
H8A C8A 1_555 1_555
H9A C8A 1_555 1_555
C9A C3A 1_555 1_555
H10A C9A 1_555 1_555
H11A C9A 1_555 1_555
C10A C9A 1_555 1_555
H12A C10A 1_555 1_555
H13A C10A 1_555 1_555
C11A C10A 1_555 1_555
H14A C11A 1_555 1_555
H15A C11A 1_555 1_555
C12A C11A 1_555 1_555
H16A C12A 1_555 1_555
H17A C12A 1_555 1_555
H18A C12A 1_555 1_555
C13A C14A 1_555 1_555
C14A C15A 1_555 1_555
C15A C16A 1_555 1_555
C16A S2A 1_555 1_555
C17A C14A 1_555 1_555
H19A C17A 1_555 1_555
H20A C17A 1_555 1_555
C18A C17A 1_555 1_555
H21A C18A 1_555 1_555
H22A C18A 1_555 1_555
C19A C18A 1_555 1_555
H23A C19A 1_555 1_555
H24A C19A 1_555 1_555
C20A C19A 1_555 1_555
H25A C20A 1_555 1_555
H26A C20A 1_555 1_555
H27A C20A 1_555 1_555
C21A C15A 1_555 1_555
H28A C21A 1_555 1_555
H29A C21A 1_555 1_555
C22A C21A 1_555 1_555
H30A C22A 1_555 1_555
H31A C22A 1_555 1_555
C23A C22A 1_555 1_555
H32A C23A 1_555 1_555
H33A C23A 1_555 1_555
C24A C23A 1_555 1_555
H34A C24A 1_555 1_555
H35A C24A 1_555 1_555
H36A C24A 1_555 1_555
C25A C26A 1_555 1_555
C26A C27A 1_555 1_555
C27A C28A 1_555 1_555
C28A S3A 1_555 1_555
C29A C26A 1_555 1_555
H37A C29A 1_555 1_555
H38A C29A 1_555 1_555
C30A C29A 1_555 1_555
H39A C30A 1_555 1_555
H40A C30A 1_555 1_555
C31A C30A 1_555 1_555
H41A C31A 1_555 1_555
H42A C31A 1_555 1_555
C32A C31A 1_555 1_555
H43A C32A 1_555 1_555
H44A C32A 1_555 1_555
H45A C32A 1_555 1_555
C33A C27A 1_555 1_555
H46A C33A 1_555 1_555
H47A C33A 1_555 1_555
C34A C33A 1_555 1_555
H48A C34A 1_555 1_555
H49A C34A 1_555 1_555
C35A C34A 1_555 1_555
H50A C35A 1_555 1_555
H51A C35A 1_555 1_555
C36A C35A 1_555 1_555
H52A C36A 1_555 1_555
H53A C36A 1_555 1_555
H54A C36A 1_555 1_555
C37A C38A 1_555 1_555
C38A C39A 1_555 1_555
C39A C40A 1_555 1_555
C40A S4A 1_555 1_555
C41A C38A 1_555 1_555
H55A C41A 1_555 1_555
H56A C41A 1_555 1_555
C42A C41A 1_555 1_555
H57A C42A 1_555 1_555
H58A C42A 1_555 1_555
C43A C42A 1_555 1_555
H59A C43A 1_555 1_555
H60A C43A 1_555 1_555
C44A C43A 1_555 1_555
H61A C44A 1_555 1_555
H62A C44A 1_555 1_555
H63A C44A 1_555 1_555
C45A C39A 1_555 1_555
H64A C45A 1_555 1_555
H65A C45A 1_555 1_555
C46A C45A 1_555 1_555
H66A C46A 1_555 1_555
H67A C46A 1_555 1_555
C47A C46A 1_555 1_555
H68A C47A 1_555 1_555
H69A C47A 1_555 1_555
C48A C47A 1_555 1_555
H70A C48A 1_555 1_555
H71A C48A 1_555 1_555
H72A C48A 1_555 1_555
C49A C50 1_555 1_555
C50A C49 1_555 1_555
C51A C4A 1_555 1_555
C52A C13A 1_555 1_555
C53A C16A 1_555 1_555
C54A C25A 1_555 1_555
C55A C28A 1_555 1_555
C56A C37A 1_555 1_555
C51 C52 1_555 1_555
C53 C54 1_555 1_555
C55 C56 1_555 1_555
C1A C49A 1_555 1_555
C40A C50A 1_555 1_555
C51A C52A 1_555 1_555
C53A C54A 1_555 1_555
C55A C56A 1_555 1_555

#END
