
#######################################################################
#
#                 Cambridge Crystallographic Data Centre
#                                CCDC 
#
#######################################################################
#
# If this CIF has been generated from an entry in the Cambridge 
# Structural Database, then it will include bibliographic, chemical, 
# crystal, experimental, refinement or atomic coordinate data resulting 
# from the CCDC's data processing and validation procedures.
#
#######################################################################

data_JETNUU
_chemical_formula_moiety         'C14 H8 Cl4 N2'
_chemical_name_systematic        bis((3,4-dichlorophenyl)methylidene)hydrazine
_symmetry_cell_setting           monoclinic
_symmetry_space_group_name_H-M   'P 21/c'
_symmetry_Int_Tables_number      14
_space_group_name_Hall           '-P 2ybc'
loop_
_symmetry_equiv_pos_site_id
_symmetry_equiv_pos_as_xyz
1 x,y,z
2 -x,1/2+y,1/2-z
3 -x,-y,-z
4 x,1/2-y,1/2+z
_cell_length_a                   3.8619(2)
_cell_length_b                   15.6567(11)
_cell_length_c                   11.6089(8)
_cell_angle_alpha                90
_cell_angle_beta                 91.431(6)
_cell_angle_gamma                90
_cell_volume                     701.709
_exptl_crystal_colour            yellow
_exptl_crystal_description       plate
_cell_formula_units_Z            2
loop_
_atom_site_label
_atom_site_type_symbol
_atom_site_fract_x
_atom_site_fract_y
_atom_site_fract_z
Cl1 Cl -0.1887(3) 0.80452(6) 0.14332(8)
Cl2 Cl -0.3883(2) 0.65683(6) -0.03282(7)
N1 N 0.4135(8) 0.5009(2) 0.4463(2)
C1 C 0.1334(9) 0.5943(2) 0.3097(3)
C2 C 0.0615(10) 0.6782(3) 0.2799(3)
H1 H 0.1251 0.7226 0.3320
C3 C -0.1012(10) 0.6988(2) 0.1759(3)
C4 C -0.1982(10) 0.6339(3) 0.1005(3)
C5 C -0.1353(10) 0.5492(3) 0.1303(3)
H2 H -0.2069 0.5047 0.0793
C6 C 0.0304(10) 0.5293(3) 0.2336(3)
H3 H 0.0747 0.4713 0.2530
C7 C 0.3165(10) 0.5763(3) 0.4187(3)
H4 H 0.3646 0.6220 0.4705
Cl1B Cl 1.1887(3) 0.19548(6) 0.85668(8)
Cl2B Cl 1.3883(2) 0.34317(6) 1.03282(7)
N1B N 0.5865(8) 0.4991(2) 0.5537(2)
C1B C 0.8666(9) 0.4057(2) 0.6903(3)
C2B C 0.9385(10) 0.3218(3) 0.7201(3)
H1B H 0.8749 0.2774 0.6680
C3B C 1.1012(10) 0.3012(2) 0.8241(3)
C4B C 1.1982(10) 0.3661(3) 0.8995(3)
C5B C 1.1353(10) 0.4508(3) 0.8697(3)
H2B H 1.2069 0.4953 0.9207
C6B C 0.9696(10) 0.4707(3) 0.7664(3)
H3B H 0.9253 0.5287 0.7470
C7B C 0.6835(10) 0.4237(3) 0.5813(3)
H4B H 0.6354 0.3780 0.5295
loop_
_geom_bond_atom_site_label_1
_geom_bond_atom_site_label_2
_geom_bond_site_symmetry_1
_geom_bond_site_symmetry_2
Cl1 C3 1_555 1_555
Cl2 C4 1_555 1_555
N1 C7 1_555 1_555
C1 C2 1_555 1_555
C2 H1 1_555 1_555
C3 C2 1_555 1_555
C4 C3 1_555 1_555
C5 C4 1_555 1_555
H2 C5 1_555 1_555
C6 C1 1_555 1_555
H3 C6 1_555 1_555
C7 C1 1_555 1_555
H4 C7 1_555 1_555
Cl1B C3B 1_555 1_555
Cl2B C4B 1_555 1_555
N1B N1 1_555 1_555
C1B C2B 1_555 1_555
C2B H1B 1_555 1_555
C3B C2B 1_555 1_555
C4B C3B 1_555 1_555
C5B C4B 1_555 1_555
H2B C5B 1_555 1_555
C6B C1B 1_555 1_555
H3B C6B 1_555 1_555
C7B N1B 1_555 1_555
H4B C7B 1_555 1_555
C5 C6 1_555 1_555
C1B C7B 1_555 1_555
C5B C6B 1_555 1_555

#END
