
#######################################################################
#
#                 Cambridge Crystallographic Data Centre
#                                CCDC 
#
#######################################################################
#
# If this CIF has been generated from an entry in the Cambridge 
# Structural Database, then it will include bibliographic, chemical, 
# crystal, experimental, refinement or atomic coordinate data resulting 
# from the CCDC's data processing and validation procedures.
#
#######################################################################

data_JETNOO
_chemical_formula_moiety         'C14 H10 Br2 N2'
_chemical_name_systematic        bis((3-bromophenyl)methylidene)hydrazine
_symmetry_cell_setting           monoclinic
_symmetry_space_group_name_H-M   'P 21/c'
_symmetry_Int_Tables_number      14
_space_group_name_Hall           '-P 2ybc'
loop_
_symmetry_equiv_pos_site_id
_symmetry_equiv_pos_as_xyz
1 x,y,z
2 -x,1/2+y,1/2-z
3 -x,-y,-z
4 x,1/2-y,1/2+z
_cell_length_a                   3.8736(8)
_cell_length_b                   14.818(4)
_cell_length_c                   11.214(3)
_cell_angle_alpha                90
_cell_angle_beta                 91.739(5)
_cell_angle_gamma                90
_cell_volume                     643.376
_exptl_crystal_colour            colorless
_exptl_crystal_description       prism
_cell_formula_units_Z            2
loop_
_atom_site_label
_atom_site_type_symbol
_atom_site_fract_x
_atom_site_fract_y
_atom_site_fract_z
Br1 Br 0.53858(5) 0.09308(2) 0.61834(2)
N1 N 0.5110(5) 0.45516(12) 0.52040(14)
C1 C 0.6381(5) 0.28260(15) 0.62743(16)
H1 H 0.5274 0.2822 0.5507
C2 C 0.9622(5) 0.28233(17) 0.85160(17)
H2 H 1.0723 0.2825 0.9285
C3 C 0.8513(5) 0.20153(15) 0.80231(18)
H3 H 0.8842 0.1463 0.8442
C4 C 0.6895(5) 0.20317(14) 0.68916(17)
C5 C 0.6936(5) 0.44998(15) 0.61762(17)
H4 H 0.7942 0.5032 0.6506
C6 C 0.7501(5) 0.36382(14) 0.67862(17)
C7 C 0.9157(5) 0.36297(15) 0.79095(17)
H5 H 0.9964 0.4178 0.8258
Br1B Br 0.46142(5) 0.90692(2) 0.38166(2)
N1B N 0.4890(5) 0.54484(12) 0.47960(14)
C1B C 0.3619(5) 0.71740(15) 0.37257(16)
H1B H 0.4726 0.7178 0.4493
C2B C 0.0378(5) 0.71767(17) 0.14840(17)
H2B H -0.0723 0.7175 0.0715
C3B C 0.1487(5) 0.79847(15) 0.19769(18)
H3B H 0.1158 0.8537 0.1558
C4B C 0.3105(5) 0.79683(14) 0.31084(17)
C5B C 0.3064(5) 0.55002(15) 0.38238(17)
H4B H 0.2058 0.4968 0.3494
C6B C 0.2499(5) 0.63618(14) 0.32138(17)
C7B C 0.0843(5) 0.63703(15) 0.20905(17)
H5B H 0.0036 0.5822 0.1742
loop_
_geom_bond_atom_site_label_1
_geom_bond_atom_site_label_2
_geom_bond_site_symmetry_1
_geom_bond_site_symmetry_2
Br1 C4 1_555 1_555
N1 C5 1_555 1_555
C1 H1 1_555 1_555
C2 H2 1_555 1_555
C3 C2 1_555 1_555
H3 C3 1_555 1_555
C4 C1 1_555 1_555
C5 H4 1_555 1_555
C6 C1 1_555 1_555
C7 C2 1_555 1_555
H5 C7 1_555 1_555
Br1B C4B 1_555 1_555
N1B N1 1_555 1_555
C1B H1B 1_555 1_555
C2B H2B 1_555 1_555
C3B C2B 1_555 1_555
H3B C3B 1_555 1_555
C4B C1B 1_555 1_555
C5B N1B 1_555 1_555
H4B C5B 1_555 1_555
C6B C1B 1_555 1_555
C7B C2B 1_555 1_555
H5B C7B 1_555 1_555
C3 C4 1_555 1_555
C5 C6 1_555 1_555
C6 C7 1_555 1_555
C3B C4B 1_555 1_555
C5B C6B 1_555 1_555
C6B C7B 1_555 1_555

#END
