
#######################################################################
#
#                 Cambridge Crystallographic Data Centre
#                                CCDC 
#
#######################################################################
#
# If this CIF has been generated from an entry in the Cambridge 
# Structural Database, then it will include bibliographic, chemical, 
# crystal, experimental, refinement or atomic coordinate data resulting 
# from the CCDC's data processing and validation procedures.
#
#######################################################################

data_JETROQ
_chemical_formula_moiety         'C6 H9 N2 O2 1+,N1 O3 1-,H2 O1'
_chemical_name_systematic        
'2-carboxyl-1,3-dimethylimidazolium nitrate monohydrate'
_symmetry_cell_setting           triclinic
_symmetry_space_group_name_H-M   'P -1'
_symmetry_Int_Tables_number      2
_space_group_name_Hall           '-P 1'
loop_
_symmetry_equiv_pos_site_id
_symmetry_equiv_pos_as_xyz
1 x,y,z
2 -x,-y,-z
_cell_length_a                   6.430(4)
_cell_length_b                   6.715(4)
_cell_length_c                   11.544(7)
_cell_angle_alpha                87.486(12)
_cell_angle_beta                 80.110(12)
_cell_angle_gamma                80.82(1)
_cell_volume                     484.675
_exptl_crystal_colour            colorless
_exptl_crystal_description       Rectangular
_chemical_melting_point          'about 200deg.C(dec)'
_cell_formula_units_Z            2
_exptl_crystal_recrystallization_method ethanol/water
loop_
_atom_site_label
_atom_site_type_symbol
_atom_site_fract_x
_atom_site_fract_y
_atom_site_fract_z
N1 N 1.6295(4) 0.1903(3) 0.1983(2)
N2 N 1.4312(4) 0.2714(3) 0.3665(2)
O1 O 1.2862(4) 0.3629(3) 0.07846(18)
O2 O 1.0925(4) 0.4583(3) 0.25198(19)
H1 H 0.980(10) 0.527(8) 0.201(4)
C1 C 1.4346(5) 0.2791(4) 0.2494(2)
C2 C 1.6263(5) 0.1770(5) 0.3873(3)
H4 H 1.653(6) 0.158(5) 0.460(3)
C3 C 1.7486(5) 0.1271(5) 0.2836(3)
H5 H 1.879(6) 0.065(5) 0.269(3)
C4 C 1.7106(7) 0.1599(6) 0.0721(3)
H6 H 1.851(8) 0.103(6) 0.066(4)
H7 H 1.648(6) 0.062(5) 0.046(3)
H8 H 1.694(7) 0.302(6) 0.029(3)
C5 C 1.2619(5) 0.3706(4) 0.1843(3)
C6 C 1.2528(6) 0.3458(5) 0.4598(3)
H9 H 1.211(6) 0.484(5) 0.449(3)
H10 H 1.115(8) 0.261(6) 0.454(3)
H11 H 1.298(7) 0.325(5) 0.532(4)
N3 N 0.2932(4) 0.8395(4) 0.2925(2)
O3 O 0.2733(4) 0.8957(3) 0.19085(17)
O4 O 0.4574(4) 0.7193(3) 0.31079(18)
O5 O 0.1534(4) 0.8975(3) 0.37808(18)
O6 O 0.8080(4) 0.6486(4) 0.1473(2)
H2 H 0.793(9) 0.631(7) 0.069(5)
H3 H 0.694(7) 0.672(6) 0.191(4)
loop_
_geom_bond_atom_site_label_1
_geom_bond_atom_site_label_2
_geom_bond_site_symmetry_1
_geom_bond_site_symmetry_2
N1 C1 1_555 1_555
N2 C1 1_555 1_555
N3 O3 1_555 1_555
O1 C5 1_555 1_555
O2 H1 1_555 1_555
O4 N3 1_555 1_555
O5 N3 1_555 1_555
O6 H2 1_555 1_555
H3 O6 1_555 1_555
C1 C5 1_555 1_555
C2 N2 1_555 1_555
H4 C2 1_555 1_555
C3 N1 1_555 1_555
H5 C3 1_555 1_555
C4 N1 1_555 1_555
H6 C4 1_555 1_555
H7 C4 1_555 1_555
H8 C4 1_555 1_555
C5 O2 1_555 1_555
C6 N2 1_555 1_555
H9 C6 1_555 1_555
H10 C6 1_555 1_555
H11 C6 1_555 1_555
C2 C3 1_555 1_555

#END
