
#######################################################################
#
#                 Cambridge Crystallographic Data Centre
#                                CCDC 
#
#######################################################################
#
# If this CIF has been generated from an entry in the Cambridge 
# Structural Database, then it will include bibliographic, chemical, 
# crystal, experimental, refinement or atomic coordinate data resulting 
# from the CCDC's data processing and validation procedures.
#
#######################################################################

data_JETYUD
_chemical_compound_source        
'roots of Australian native grass Neurachne alopecuroidea'
_chemical_formula_moiety         'C11 H10 O3'
_chemical_name_systematic        
5-Hydroxy-1-(3-methyl-3-buten-1-ynyl)-7-oxabicyclo(4.1.0)hept-3-en-2-one
_chemical_properties_biological  
'activity against phytopathogens and plant growth promoting activity'
_symmetry_cell_setting           orthorhombic
_symmetry_space_group_name_H-M   'P 21 21 21'
_symmetry_Int_Tables_number      19
_space_group_name_Hall           'P 2ac 2ab'
loop_
_symmetry_equiv_pos_site_id
_symmetry_equiv_pos_as_xyz
1 x,y,z
2 1/2-x,-y,1/2+z
3 1/2+x,1/2-y,-z
4 -x,1/2+y,1/2-z
_cell_length_a                   6.436(2)
_cell_length_b                   8.330(2)
_cell_length_c                   18.481(2)
_cell_angle_alpha                90
_cell_angle_beta                 90
_cell_angle_gamma                90
_cell_volume                     990.801
_exptl_crystal_colour            colorless
_exptl_crystal_description       needles
_chemical_melting_point          '97-98 deg.C'
_cell_formula_units_Z            4
loop_
_atom_site_label
_atom_site_type_symbol
_atom_site_fract_x
_atom_site_fract_y
_atom_site_fract_z
O1 O 0.6691(3) 0.3264(3) 0.45065(11)
O2 O 0.0800(4) 0.4944(3) 0.60294(12)
O3 O 0.3042(4) 0.6260(2) 0.42759(10)
C1 C 0.5437(4) 0.4210(3) 0.47614(14)
C2 C 0.5808(5) 0.5063(4) 0.54370(15)
C3 C 0.4321(5) 0.5804(4) 0.58016(15)
C4 C 0.2089(5) 0.5876(4) 0.55661(16)
C5 C 0.1802(4) 0.5412(4) 0.47890(15)
C6 C 0.3408(5) 0.4529(3) 0.43773(13)
C7 C 0.2867(5) 0.3523(3) 0.37671(14)
C8 C 0.2339(5) 0.2743(4) 0.32689(14)
C9 C 0.1701(6) 0.1782(4) 0.26640(16)
C10 C -0.0338(9) 0.1637(6) 0.2524(2)
C11 C 0.3347(10) 0.1056(9) 0.2222(3)
H1 H 0.128(7) 0.393(5) 0.603(2)
H2 H 0.724(5) 0.504(4) 0.5623(14)
H3 H 0.462(5) 0.628(3) 0.6290(12)
H4 H 0.161(5) 0.698(3) 0.5612(13)
H5 H 0.037(4) 0.522(3) 0.4635(14)
H6 H -0.078(6) 0.102(5) 0.217(2)
H7 H -0.135(7) 0.221(5) 0.285(2)
H8 H 0.413(8) 0.032(6) 0.251(3)
H9 H 0.430(10) 0.191(7) 0.201(3)
H10 H 0.271(6) 0.042(5) 0.1833(19)
loop_
_geom_bond_atom_site_label_1
_geom_bond_atom_site_label_2
_geom_bond_site_symmetry_1
_geom_bond_site_symmetry_2
O1 C1 1_555 1_555
O2 C4 1_555 1_555
O3 C5 1_555 1_555
C1 C2 1_555 1_555
C2 C3 1_555 1_555
C3 C4 1_555 1_555
C4 C5 1_555 1_555
C5 C6 1_555 1_555
C6 O3 1_555 1_555
C7 C6 1_555 1_555
C8 C7 1_555 1_555
C9 C8 1_555 1_555
C10 C9 1_555 1_555
C11 C9 1_555 1_555
H1 O2 1_555 1_555
H2 C2 1_555 1_555
H3 C3 1_555 1_555
H4 C4 1_555 1_555
H5 C5 1_555 1_555
H6 C10 1_555 1_555
H7 C10 1_555 1_555
H8 C11 1_555 1_555
H9 C11 1_555 1_555
H10 C11 1_555 1_555
C1 C6 1_555 1_555

#END
