
#######################################################################
#
#                 Cambridge Crystallographic Data Centre
#                                CCDC 
#
#######################################################################
#
# If this CIF has been generated from an entry in the Cambridge 
# Structural Database, then it will include bibliographic, chemical, 
# crystal, experimental, refinement or atomic coordinate data resulting 
# from the CCDC's data processing and validation procedures.
#
#######################################################################

data_JETYAL
_chemical_formula_moiety         'C13 H18 N1 1+,Cl1 1-'
_chemical_name_systematic        
'N-benzyl-1-cyclopropylprop-2-en-1-aminium chloride'
_symmetry_cell_setting           monoclinic
_symmetry_space_group_name_H-M   'P 21'
_symmetry_Int_Tables_number      4
_space_group_name_Hall           'P 2yb'
loop_
_symmetry_equiv_pos_site_id
_symmetry_equiv_pos_as_xyz
1 x,y,z
2 -x,1/2+y,-z
_cell_length_a                   10.993(2)
_cell_length_b                   9.035(3)
_cell_length_c                   13.737(4)
_cell_angle_alpha                90
_cell_angle_beta                 109.866(7)
_cell_angle_gamma                90
_cell_volume                     1283.19
_exptl_crystal_colour            colorless
_exptl_crystal_description       plate
_cell_formula_units_Z            4
loop_
_atom_site_label
_atom_site_type_symbol
_atom_site_fract_x
_atom_site_fract_y
_atom_site_fract_z
C1 C 0.3526(3) 0.7931(5) 0.3398(3)
H1 H 0.353401 0.817091 0.268983
C2 C 0.2553(3) 0.8936(5) 0.3623(3)
H2 H 0.260876 0.999827 0.343733
C3 C 0.2137(3) 0.8696(4) 0.4557(3)
H3 H 0.249577 0.782989 0.500344
H4 H 0.199418 0.958298 0.492796
C4 C 0.1201(4) 0.8411(6) 0.3494(3)
H5 H 0.048132 0.912087 0.321015
H6 H 0.098277 0.736824 0.328561
C5 C 0.3263(3) 0.6286(5) 0.3434(3)
H7 H 0.322924 0.587619 0.406155
C6 C 0.3082(4) 0.5404(5) 0.2639(3)
H8 H 0.311131 0.578888 0.200394
H9 H 0.291990 0.438106 0.269799
C7 C 0.5942(3) 0.7510(5) 0.3980(3)
H10 H 0.577280 0.744272 0.322606
H11 H 0.600376 0.649109 0.425739
C8 C 0.7202(3) 0.8302(5) 0.4489(3)
C9 C 0.7952(4) 0.8064(5) 0.5531(3)
H12 H 0.767438 0.737290 0.593369
C10 C 0.9086(4) 0.8832(6) 0.5969(3)
H13 H 0.960358 0.864771 0.666795
C11 C 0.9481(4) 0.9868(6) 0.5400(3)
H14 H 1.025864 1.040567 0.571511
C12 C 0.8752(4) 1.0131(6) 0.4371(3)
H15 H 0.902592 1.084533 0.398091
C13 C 0.7618(4) 0.9338(5) 0.3919(3)
H16 H 0.712011 0.950231 0.321253
N1 N 0.4843(3) 0.8304(4) 0.4167(2)
H17 H 0.496(3) 0.922(5) 0.414(3)
H18 H 0.483(4) 0.811(6) 0.476(3)
C14 C 0.6335(4) 0.2128(5) 0.1569(3)
H19 H 0.631538 0.183666 0.226608
C15 C 0.6577(4) 0.3719(6) 0.1603(3)
H20 H 0.657302 0.418232 0.094109
C16 C 0.7487(5) 0.4378(5) 0.2573(3)
H21 H 0.788585 0.370395 0.316382
H22 H 0.805490 0.519049 0.250248
C17 C 0.6146(5) 0.4688(5) 0.2309(3)
H23 H 0.584827 0.570041 0.206693
H24 H 0.567917 0.421338 0.272849
C18 C 0.7337(4) 0.1170(6) 0.1353(3)
H25 H 0.716493 0.013780 0.129221
C19 C 0.8389(5) 0.1590(8) 0.1242(5)
H26 H 0.861198 0.260960 0.129472
H27 H 0.895107 0.088195 0.110679
C20 C 0.3897(4) 0.2513(5) 0.0959(3)
H28 H 0.405672 0.259771 0.171074
H29 H 0.381650 0.352699 0.066985
C21 C 0.2658(3) 0.1697(6) 0.0458(3)
C22 C 0.2277(4) 0.0628(6) 0.1026(3)
H30 H 0.279697 0.044287 0.172460
C23 C 0.1147(4) -0.0165(7) 0.0582(4)
H31 H 0.090539 -0.089565 0.097919
C24 C 0.0380(4) 0.0080(7) -0.0409(4)
H32 H -0.039334 -0.047146 -0.070564
C25 C 0.0738(4) 0.1146(7) -0.0985(4)
H33 H 0.020797 0.132996 -0.168086
C26 C 0.1891(4) 0.1957(6) -0.0535(3)
H34 H 0.213312 0.269086 -0.093055
N2 N 0.5032(3) 0.1750(5) 0.0794(2)
H35 H 0.502(4) 0.200(6) 0.015(3)
H36 H 0.497(5) 0.065(7) 0.086(4)
Cl1 Cl 0.51152(8) 0.67230(8) 0.62566(6)
Cl2 Cl 0.49800(9) 0.33358(9) -0.12201(6)
loop_
_geom_bond_atom_site_label_1
_geom_bond_atom_site_label_2
_geom_bond_site_symmetry_1
_geom_bond_site_symmetry_2
C1 H1 1_555 1_555
C2 C1 1_555 1_555
H2 C2 1_555 1_555
C3 C2 1_555 1_555
H3 C3 1_555 1_555
H4 C3 1_555 1_555
C4 C2 1_555 1_555
H5 C4 1_555 1_555
H6 C4 1_555 1_555
C5 C1 1_555 1_555
H7 C5 1_555 1_555
C6 C5 1_555 1_555
H8 C6 1_555 1_555
H9 C6 1_555 1_555
C7 H10 1_555 1_555
H11 C7 1_555 1_555
C8 C7 1_555 1_555
C9 C8 1_555 1_555
H12 C9 1_555 1_555
C10 C9 1_555 1_555
H13 C10 1_555 1_555
C11 C10 1_555 1_555
H14 C11 1_555 1_555
C12 C11 1_555 1_555
H15 C12 1_555 1_555
C13 C8 1_555 1_555
H16 C13 1_555 1_555
N1 C1 1_555 1_555
H17 N1 1_555 1_555
H18 N1 1_555 1_555
C14 H19 1_555 1_555
C15 C14 1_555 1_555
H20 C15 1_555 1_555
C16 C15 1_555 1_555
H21 C16 1_555 1_555
H22 C16 1_555 1_555
C17 C15 1_555 1_555
H23 C17 1_555 1_555
H24 C17 1_555 1_555
C18 C14 1_555 1_555
H25 C18 1_555 1_555
C19 C18 1_555 1_555
H26 C19 1_555 1_555
H27 C19 1_555 1_555
C20 H28 1_555 1_555
H29 C20 1_555 1_555
C21 C20 1_555 1_555
C22 C21 1_555 1_555
H30 C22 1_555 1_555
C23 C22 1_555 1_555
H31 C23 1_555 1_555
C24 C23 1_555 1_555
H32 C24 1_555 1_555
C25 C24 1_555 1_555
H33 C25 1_555 1_555
C26 C21 1_555 1_555
H34 C26 1_555 1_555
N2 C14 1_555 1_555
H35 N2 1_555 1_555
H36 N2 1_555 1_555
C3 C4 1_555 1_555
C7 N1 1_555 1_555
C12 C13 1_555 1_555
C16 C17 1_555 1_555
C20 N2 1_555 1_555
C25 C26 1_555 1_555

#END
