
#######################################################################
#
#                 Cambridge Crystallographic Data Centre
#                                CCDC 
#
#######################################################################
#
# If this CIF has been generated from an entry in the Cambridge 
# Structural Database, then it will include bibliographic, chemical, 
# crystal, experimental, refinement or atomic coordinate data resulting 
# from the CCDC's data processing and validation procedures.
#
#######################################################################

data_JETZUG
_chemical_compound_source        'Resina Commiphora'
_chemical_name_common            'commiphoroid B'
_chemical_formula_moiety         'C33 H48 O6'
_chemical_name_systematic        
"(1aR,3aS,4R,7R,8S,10S,13aS,13bS,17aR)-10-methoxy-3a,5,8,12,17a-pentamethyl-6-oxo-15-(propan-2-yl)-2,3,3a,4,6,7,8,9,10,13,13b,16,17,17a-tetradecahydro-1aH-4,13a-epoxycyclodeca[3',4']benzo[1',2':5,6]cyclodeca[1,2-b]oxiren-7-yl acetate"
_symmetry_cell_setting           orthorhombic
_symmetry_space_group_name_H-M   'P 21 21 21'
_symmetry_Int_Tables_number      19
_space_group_name_Hall           'P 2ac 2ab'
loop_
_symmetry_equiv_pos_site_id
_symmetry_equiv_pos_as_xyz
1 x,y,z
2 1/2+x,1/2-y,-z
3 -x,1/2+y,1/2-z
4 1/2-x,-y,1/2+z
_cell_length_a                   8.0060(2)
_cell_length_b                   16.9875(5)
_cell_length_c                   22.5448(7)
_cell_angle_alpha                90
_cell_angle_beta                 90
_cell_angle_gamma                90
_cell_volume                     3066.14
_exptl_crystal_colour            colorless
_exptl_crystal_description       prism
_cell_formula_units_Z            4
loop_
_atom_site_label
_atom_site_type_symbol
_atom_site_fract_x
_atom_site_fract_y
_atom_site_fract_z
O1 O 0.13445(19) 0.34892(8) 0.80474(6)
O2 O -0.06768(19) 0.35733(9) 1.01611(7)
O3 O 0.61781(17) 0.52260(7) 0.96199(5)
O4 O 0.18279(18) 0.48957(8) 0.85542(6)
O5 O 0.3639(2) 0.38990(9) 0.75620(7)
O6 O 0.5842(2) 0.69753(9) 0.69965(6)
C1 C 0.1066(4) 0.37089(18) 0.70303(11)
H1 H 0.0204 0.4114 0.7075
H2 H 0.0535 0.3191 0.6994
H3 H 0.1727 0.3817 0.6674
C2 C 0.2184(3) 0.37157(12) 0.75621(10)
C3 C 0.2262(3) 0.35122(11) 0.86031(9)
H4 H 0.3272 0.3167 0.8580
C4 C 0.2774(2) 0.43727(11) 0.87112(8)
C5 C 0.4373(2) 0.45700(10) 0.89967(8)
C6 C 0.4641(2) 0.53707(10) 0.93032(8)
C7 C 0.5231(2) 0.59401(11) 0.87972(8)
H5 H 0.4547 0.5836 0.8435
C8 C 0.5034(3) 0.67900(11) 0.89662(8)
H6 H 0.5781 0.6997 0.9254
C9 C 0.3890(3) 0.72734(11) 0.87429(8)
C10 C 0.2682(3) 0.70429(11) 0.82532(8)
H7 H 0.1614 0.7326 0.8312
H8 H 0.2450 0.6472 0.8280
C11 C 0.3368(3) 0.72324(11) 0.76314(9)
H9 H 0.2418 0.7273 0.7352
H10 H 0.3922 0.7753 0.7645
C12 C 0.4598(3) 0.66340(11) 0.73920(9)
C13 C 0.3838(3) 0.58788(13) 0.71685(9)
H11 H 0.3115 0.5992 0.6828
H12 H 0.3176 0.5636 0.7485
H13 H 0.4729 0.5517 0.7047
C14 C -0.1483(3) 0.40478(14) 1.05920(10)
H14 H -0.1063 0.3912 1.0987
H15 H -0.2691 0.3955 1.0576
H16 H -0.1253 0.4604 1.0510
C15 C 0.1076(3) 0.37078(12) 1.01465(9)
H17 H 0.1565 0.3606 1.0547
C16 C 0.1484(3) 0.45329(11) 0.99542(8)
H18 H 0.0734 0.4768 0.9680
C17 C 0.2769(3) 0.49708(11) 1.01232(8)
C18 C 0.3879(3) 0.47816(14) 1.06410(9)
H19 H 0.3283 0.4435 1.0917
H20 H 0.4188 0.5270 1.0845
H21 H 0.4890 0.4517 1.0499
C19 C 0.3293(2) 0.56509(10) 0.97315(8)
H22 H 0.3730 0.6086 0.9979
H23 H 0.2318 0.5849 0.9506
C20 C 0.7080(2) 0.49115(11) 0.91271(8)
H24 H 0.8223 0.4716 0.9229
C21 C 0.5911(3) 0.42817(11) 0.88995(8)
C22 C 0.6542(3) 0.35578(12) 0.85956(9)
H25 H 0.6796 0.3154 0.8892
H26 H 0.7558 0.3685 0.8373
H27 H 0.5687 0.3360 0.8323
C23 C 0.1030(3) 0.31959(11) 0.90682(9)
H28 H 0.0074 0.3574 0.9093
C24 C 0.1802(3) 0.31242(11) 0.96976(9)
H29 H 0.1618 0.2582 0.9846
H30 H 0.3022 0.3209 0.9669
C25 C 0.0333(3) 0.23985(12) 0.88668(11)
H31 H -0.0259 0.2463 0.8489
H32 H -0.0443 0.2198 0.9167
H33 H 0.1254 0.2025 0.8815
C26 C 0.7067(2) 0.56330(11) 0.86846(8)
C27 C 0.3667(3) 0.81144(11) 0.89671(9)
H34 H 0.3464 0.8456 0.8613
C28 C 0.2120(3) 0.81702(14) 0.93630(11)
H35 H 0.2279 0.7842 0.9716
H36 H 0.1140 0.7986 0.9143
H37 H 0.1951 0.8719 0.9484
C29 C 0.5174(4) 0.84448(13) 0.92903(13)
H38 H 0.5349 0.8152 0.9660
H39 H 0.4982 0.9001 0.9382
H40 H 0.6166 0.8395 0.9038
C30 C 0.6359(3) 0.66847(12) 0.75754(9)
H41 H 0.6597 0.7106 0.7873
C31 C 0.7606(3) 0.60183(12) 0.75738(9)
H42 H 0.8733 0.6244 0.7634
H43 H 0.7592 0.5773 0.7176
C32 C 0.7342(3) 0.53640(11) 0.80392(9)
H44 H 0.6364 0.5046 0.7917
H45 H 0.8329 0.5013 0.8031
C33 C 0.8440(3) 0.61986(12) 0.88847(9)
H46 H 0.9535 0.5972 0.8791
H47 H 0.8353 0.6284 0.9313
H48 H 0.8313 0.6702 0.8678
loop_
_geom_bond_atom_site_label_1
_geom_bond_atom_site_label_2
_geom_bond_site_symmetry_1
_geom_bond_site_symmetry_2
O1 C2 1_555 1_555
O2 C14 1_555 1_555
O3 C6 1_555 1_555
O4 C4 1_555 1_555
O5 C2 1_555 1_555
O6 C12 1_555 1_555
C1 H1 1_555 1_555
H2 C1 1_555 1_555
H3 C1 1_555 1_555
C2 C1 1_555 1_555
C3 O1 1_555 1_555
H4 C3 1_555 1_555
C4 C3 1_555 1_555
C5 C4 1_555 1_555
C6 C5 1_555 1_555
C7 C6 1_555 1_555
H5 C7 1_555 1_555
C8 C7 1_555 1_555
H6 C8 1_555 1_555
C9 C8 1_555 1_555
C10 C9 1_555 1_555
H7 C10 1_555 1_555
H8 C10 1_555 1_555
C11 C10 1_555 1_555
H9 C11 1_555 1_555
H10 C11 1_555 1_555
C12 C11 1_555 1_555
C13 C12 1_555 1_555
H11 C13 1_555 1_555
H12 C13 1_555 1_555
H13 C13 1_555 1_555
C14 H14 1_555 1_555
H15 C14 1_555 1_555
H16 C14 1_555 1_555
C15 O2 1_555 1_555
H17 C15 1_555 1_555
C16 C15 1_555 1_555
H18 C16 1_555 1_555
C17 C16 1_555 1_555
C18 C17 1_555 1_555
H19 C18 1_555 1_555
H20 C18 1_555 1_555
H21 C18 1_555 1_555
C19 C6 1_555 1_555
H22 C19 1_555 1_555
H23 C19 1_555 1_555
C20 O3 1_555 1_555
H24 C20 1_555 1_555
C21 C5 1_555 1_555
C22 C21 1_555 1_555
H25 C22 1_555 1_555
H26 C22 1_555 1_555
H27 C22 1_555 1_555
C23 C3 1_555 1_555
H28 C23 1_555 1_555
C24 C15 1_555 1_555
H29 C24 1_555 1_555
H30 C24 1_555 1_555
C25 C23 1_555 1_555
H31 C25 1_555 1_555
H32 C25 1_555 1_555
H33 C25 1_555 1_555
C26 C7 1_555 1_555
C27 C9 1_555 1_555
H34 C27 1_555 1_555
C28 C27 1_555 1_555
H35 C28 1_555 1_555
H36 C28 1_555 1_555
H37 C28 1_555 1_555
C29 C27 1_555 1_555
H38 C29 1_555 1_555
H39 C29 1_555 1_555
H40 C29 1_555 1_555
C30 O6 1_555 1_555
H41 C30 1_555 1_555
C31 C30 1_555 1_555
H42 C31 1_555 1_555
H43 C31 1_555 1_555
C32 C26 1_555 1_555
H44 C32 1_555 1_555
H45 C32 1_555 1_555
C33 C26 1_555 1_555
H46 C33 1_555 1_555
H47 C33 1_555 1_555
H48 C33 1_555 1_555
C12 C30 1_555 1_555
C17 C19 1_555 1_555
C20 C21 1_555 1_555
C20 C26 1_555 1_555
C23 C24 1_555 1_555
C31 C32 1_555 1_555

#END
