
#######################################################################
#
#                 Cambridge Crystallographic Data Centre
#                                CCDC 
#
#######################################################################
#
# If this CIF has been generated from an entry in the Cambridge 
# Structural Database, then it will include bibliographic, chemical, 
# crystal, experimental, refinement or atomic coordinate data resulting 
# from the CCDC's data processing and validation procedures.
#
#######################################################################

data_JEVBOE
_chemical_formula_moiety         'C28 H34 O4'
_chemical_name_systematic        
(3S,4S)-4-(3,5-di-t-butyl-4-hydroxyphenyl)-2H,2'H,4H-spiro[1-benzopyran-3,1'-cyclohexane]-2,2'-dione
_symmetry_cell_setting           monoclinic
_symmetry_space_group_name_H-M   'P 21'
_symmetry_Int_Tables_number      4
_space_group_name_Hall           'P 2yb'
loop_
_symmetry_equiv_pos_site_id
_symmetry_equiv_pos_as_xyz
1 x,y,z
2 -x,1/2+y,-z
_cell_length_a                   10.06850(10)
_cell_length_b                   20.88460(10)
_cell_length_c                   12.21800(10)
_cell_angle_alpha                90
_cell_angle_beta                 103.3070(10)
_cell_angle_gamma                90
_cell_volume                     2500.18
_chemical_melting_point          '185-187 deg.C'
_cell_formula_units_Z            4
loop_
_atom_site_label
_atom_site_type_symbol
_atom_site_fract_x
_atom_site_fract_y
_atom_site_fract_z
O1 O 1.05476(15) 0.48890(8) 0.61315(14)
O2 O 0.9671(3) 0.52281(12) 0.74956(14)
O3 O 0.8315(2) 0.39447(8) 0.60491(16)
O4 O 0.93585(18) 0.79299(7) 0.39604(16)
C1 C 0.9471(2) 0.50743(10) 0.65308(16)
C2 C 0.80690(18) 0.50768(8) 0.57203(14)
C3 C 0.81994(15) 0.53050(8) 0.45362(13)
H1 H 0.7322 0.5224 0.4011
C4 C 0.92414(18) 0.48828(8) 0.41974(15)
C5 C 1.0376(2) 0.46964(9) 0.5013(2)
C6 C 1.1406(3) 0.43287(12) 0.4770(3)
H2 H 1.2167 0.4221 0.5331
C7 C 1.1291(4) 0.41244(13) 0.3690(4)
H3 H 1.1986 0.3881 0.3513
C8 C 1.0163(4) 0.42746(12) 0.2865(3)
H4 H 1.0086 0.4122 0.2138
C9 C 0.9125(3) 0.46567(10) 0.3111(2)
H5 H 0.8362 0.4758 0.2548
C10 C 0.7571(2) 0.43780(9) 0.56269(15)
C11 C 0.6118(3) 0.42847(14) 0.5001(2)
H6 H 0.5856 0.3843 0.5081
H7 H 0.6044 0.4366 0.4208
C12 C 0.5145(3) 0.4724(2) 0.5426(4)
H8 H 0.5072 0.4584 0.6166
H9 H 0.4246 0.4695 0.4926
C13 C 0.5616(3) 0.54171(17) 0.5492(3)
H10 H 0.5572 0.5577 0.4739
H11 H 0.5007 0.5675 0.5821
C14 C 0.7061(3) 0.54849(12) 0.6191(2)
H12 H 0.7091 0.5354 0.6958
H13 H 0.7334 0.5931 0.6205
C15 C 0.85212(16) 0.60145(7) 0.44594(13)
C16 C 0.97595(16) 0.62785(8) 0.50122(14)
H14 H 1.0393 0.6017 0.5481
C17 C 1.00929(17) 0.69180(8) 0.48941(14)
C18 C 0.91203(18) 0.72990(8) 0.41689(15)
C19 C 0.78503(19) 0.70547(8) 0.36091(16)
C20 C 0.75848(17) 0.64129(8) 0.37723(15)
H15 H 0.6745 0.6244 0.3406
C21 C 1.15001(19) 0.71807(9) 0.55130(17)
C22 C 1.1350(3) 0.77703(14) 0.6232(2)
H16 H 1.0887 0.8105 0.5754
H17 H 1.2237 0.7917 0.6619
H18 H 1.0831 0.7656 0.6771
C23 C 1.2351(2) 0.73575(12) 0.4662(2)
H19 H 1.2455 0.6987 0.4223
H20 H 1.3234 0.7506 0.5057
H21 H 1.1896 0.7690 0.4173
C24 C 1.2310(3) 0.66724(15) 0.6288(3)
H22 H 1.1812 0.6545 0.6834
H23 H 1.3178 0.6846 0.6665
H24 H 1.2450 0.6307 0.5851
C25 C 0.6774(2) 0.74821(10) 0.2837(2)
C26 C 0.5519(4) 0.70962(16) 0.2303(5)
H25 H 0.5778 0.6745 0.1891
H26 H 0.4882 0.7365 0.1800
H27 H 0.5102 0.6935 0.2879
C27 C 0.6350(3) 0.80236(15) 0.3520(3)
H28 H 0.5994 0.7847 0.4119
H29 H 0.5661 0.8279 0.3041
H30 H 0.7129 0.8286 0.3830
C28 C 0.7373(5) 0.7755(2) 0.1871(3)
H31 H 0.8130 0.8031 0.2180
H32 H 0.6683 0.7995 0.1362
H33 H 0.7678 0.7409 0.1474
H34 H 1.016(4) 0.805(2) 0.434(3)
O5 O 0.3459(2) 0.51273(10) 0.23441(12)
O6 O 0.5356(2) 0.47202(15) 0.20618(17)
O7 O 0.4201(4) 0.60356(13) 0.0661(2)
O8 O 0.0396(2) 0.22443(9) 0.0969(2)
C29 C 0.4231(3) 0.49121(13) 0.16490(18)
C30 C 0.3599(2) 0.49265(10) 0.03889(15)
C31 C 0.20563(18) 0.47662(8) 0.01600(14)
H35 H 0.1660 0.4858 -0.0635
C32 C 0.1427(2) 0.52265(9) 0.08469(16)
C33 C 0.0146(3) 0.55008(11) 0.0466(2)
H36 H -0.0363 0.5411 -0.0255
C34 C -0.0373(4) 0.59093(13) 0.1162(3)
H37 H -0.1234 0.6089 0.0906
C35 C 0.0366(5) 0.60503(13) 0.2219(3)
H38 H 0.0001 0.6322 0.2677
C36 C 0.1640(5) 0.57944(13) 0.2609(2)
H39 H 0.2145 0.5891 0.3328
C37 C 0.2165(3) 0.53882(11) 0.19131(18)
C38 C 0.3745(3) 0.56207(12) 0.0006(2)
C39 C 0.3320(3) 0.57440(12) -0.1234(2)
H40 H 0.3533 0.6183 -0.1389
H41 H 0.2342 0.5685 -0.1489
C40 C 0.4060(4) 0.52870(16) -0.1868(2)
H42 H 0.3689 0.5334 -0.2670
H43 H 0.5020 0.5399 -0.1713
C41 C 0.3916(3) 0.45936(14) -0.1533(2)
H44 H 0.4449 0.4322 -0.1914
H45 H 0.2968 0.4465 -0.1772
C42 C 0.4401(2) 0.45017(13) -0.0259(2)
H46 H 0.5364 0.4605 -0.0028
H47 H 0.4289 0.4056 -0.0074
C43 C 0.16892(17) 0.40742(8) 0.03797(13)
C44 C 0.25166(18) 0.36596(9) 0.11232(15)
H48 H 0.3379 0.3798 0.1499
C45 C 0.21029(19) 0.30436(9) 0.13274(16)
C46 C 0.0783(2) 0.28558(9) 0.07643(17)
C47 C -0.01088(18) 0.32691(9) 0.00321(15)
C48 C 0.03934(18) 0.38665(9) -0.01594(14)
H49 H -0.0160 0.4140 -0.0670
C49 C 0.3068(2) 0.25895(11) 0.2140(2)
C50 C 0.3412(4) 0.20052(17) 0.1494(3)
H50 H 0.2589 0.1775 0.1171
H51 H 0.4028 0.1730 0.2000
H52 H 0.3833 0.2145 0.0906
C51 C 0.2424(3) 0.23664(15) 0.3097(3)
H53 H 0.2129 0.2732 0.3453
H54 H 0.3086 0.2131 0.3639
H55 H 0.1655 0.2096 0.2798
C52 C 0.4402(3) 0.29298(17) 0.2694(3)
H56 H 0.4878 0.3048 0.2128
H57 H 0.4963 0.2647 0.3226
H58 H 0.4201 0.3307 0.3074
C53 C -0.1584(2) 0.30712(12) -0.05398(18)
C54 C -0.1565(3) 0.2506(2) -0.1341(3)
H59 H -0.1089 0.2628 -0.1905
H60 H -0.2485 0.2388 -0.1696
H61 H -0.1110 0.2148 -0.0922
C55 C -0.2395(3) 0.2912(2) 0.0343(3)
H62 H -0.1994 0.2548 0.0774
H63 H -0.3322 0.2816 -0.0027
H64 H -0.2377 0.3272 0.0834
C56 C -0.2350(3) 0.36239(19) -0.1234(3)
H65 H -0.2365 0.3987 -0.0754
H66 H -0.3269 0.3493 -0.1566
H67 H -0.1897 0.3738 -0.1816
H68 H -0.025(4) 0.220(2) 0.057(3)
loop_
_geom_bond_atom_site_label_1
_geom_bond_atom_site_label_2
_geom_bond_site_symmetry_1
_geom_bond_site_symmetry_2
O1 C1 1_555 1_555
O2 C1 1_555 1_555
O3 C10 1_555 1_555
O4 C18 1_555 1_555
C1 C2 1_555 1_555
C2 C3 1_555 1_555
C3 H1 1_555 1_555
C4 C3 1_555 1_555
C5 O1 1_555 1_555
C6 C5 1_555 1_555
H2 C6 1_555 1_555
C7 C6 1_555 1_555
H3 C7 1_555 1_555
C8 C7 1_555 1_555
H4 C8 1_555 1_555
C9 C4 1_555 1_555
H5 C9 1_555 1_555
C10 C2 1_555 1_555
C11 C10 1_555 1_555
H6 C11 1_555 1_555
H7 C11 1_555 1_555
C12 C11 1_555 1_555
H8 C12 1_555 1_555
H9 C12 1_555 1_555
C13 C12 1_555 1_555
H10 C13 1_555 1_555
H11 C13 1_555 1_555
C14 C2 1_555 1_555
H12 C14 1_555 1_555
H13 C14 1_555 1_555
C15 C3 1_555 1_555
C16 C15 1_555 1_555
H14 C16 1_555 1_555
C17 C16 1_555 1_555
C18 C17 1_555 1_555
C19 C18 1_555 1_555
C20 C15 1_555 1_555
H15 C20 1_555 1_555
C21 C17 1_555 1_555
C22 C21 1_555 1_555
H16 C22 1_555 1_555
H17 C22 1_555 1_555
H18 C22 1_555 1_555
C23 C21 1_555 1_555
H19 C23 1_555 1_555
H20 C23 1_555 1_555
H21 C23 1_555 1_555
C24 C21 1_555 1_555
H22 C24 1_555 1_555
H23 C24 1_555 1_555
H24 C24 1_555 1_555
C25 C19 1_555 1_555
C26 C25 1_555 1_555
H25 C26 1_555 1_555
H26 C26 1_555 1_555
H27 C26 1_555 1_555
C27 C25 1_555 1_555
H28 C27 1_555 1_555
H29 C27 1_555 1_555
H30 C27 1_555 1_555
C28 C25 1_555 1_555
H31 C28 1_555 1_555
H32 C28 1_555 1_555
H33 C28 1_555 1_555
H34 O4 1_555 1_555
O5 C29 1_555 1_555
O6 C29 1_555 1_555
O7 C38 1_555 1_555
O8 C46 1_555 1_555
C29 C30 1_555 1_555
C30 C31 1_555 1_555
C31 H35 1_555 1_555
C32 C31 1_555 1_555
C33 C32 1_555 1_555
H36 C33 1_555 1_555
C34 C33 1_555 1_555
H37 C34 1_555 1_555
C35 C34 1_555 1_555
H38 C35 1_555 1_555
C36 C35 1_555 1_555
H39 C36 1_555 1_555
C37 O5 1_555 1_555
C38 C30 1_555 1_555
C39 C38 1_555 1_555
H40 C39 1_555 1_555
H41 C39 1_555 1_555
C40 C39 1_555 1_555
H42 C40 1_555 1_555
H43 C40 1_555 1_555
C41 C40 1_555 1_555
H44 C41 1_555 1_555
H45 C41 1_555 1_555
C42 C30 1_555 1_555
H46 C42 1_555 1_555
H47 C42 1_555 1_555
C43 C31 1_555 1_555
C44 C43 1_555 1_555
H48 C44 1_555 1_555
C45 C44 1_555 1_555
C46 C45 1_555 1_555
C47 C46 1_555 1_555
C48 C43 1_555 1_555
H49 C48 1_555 1_555
C49 C45 1_555 1_555
C50 C49 1_555 1_555
H50 C50 1_555 1_555
H51 C50 1_555 1_555
H52 C50 1_555 1_555
C51 C49 1_555 1_555
H53 C51 1_555 1_555
H54 C51 1_555 1_555
H55 C51 1_555 1_555
C52 C49 1_555 1_555
H56 C52 1_555 1_555
H57 C52 1_555 1_555
H58 C52 1_555 1_555
C53 C47 1_555 1_555
C54 C53 1_555 1_555
H59 C54 1_555 1_555
H60 C54 1_555 1_555
H61 C54 1_555 1_555
C55 C53 1_555 1_555
H62 C55 1_555 1_555
H63 C55 1_555 1_555
H64 C55 1_555 1_555
C56 C53 1_555 1_555
H65 C56 1_555 1_555
H66 C56 1_555 1_555
H67 C56 1_555 1_555
H68 O8 1_555 1_555
C4 C5 1_555 1_555
C8 C9 1_555 1_555
C13 C14 1_555 1_555
C19 C20 1_555 1_555
C32 C37 1_555 1_555
C36 C37 1_555 1_555
C41 C42 1_555 1_555
C47 C48 1_555 1_555

#END
