
#######################################################################
#
#                 Cambridge Crystallographic Data Centre
#                                CCDC 
#
#######################################################################
#
# If this CIF has been generated from an entry in the Cambridge 
# Structural Database, then it will include bibliographic, chemical, 
# crystal, experimental, refinement or atomic coordinate data resulting 
# from the CCDC's data processing and validation procedures.
#
#######################################################################

data_JEVBAQ
_chemical_formula_moiety         'C28 H27 N1 O5 S1'
_chemical_name_systematic        
'ethyl 2-(5-acetyl-1-((4-methylphenyl)sulfonyl)-2,3-dihydro-1H-indol-2-yl)-3-phenylprop-2-enoate'
_symmetry_cell_setting           orthorhombic
_symmetry_space_group_name_H-M   'P b c a'
_symmetry_Int_Tables_number      61
_space_group_name_Hall           '-P 2ac 2ab'
loop_
_symmetry_equiv_pos_site_id
_symmetry_equiv_pos_as_xyz
1 x,y,z
2 1/2-x,-y,1/2+z
3 -x,1/2+y,1/2-z
4 1/2+x,1/2-y,-z
5 -x,-y,-z
6 1/2+x,y,1/2-z
7 x,1/2-y,1/2+z
8 1/2-x,1/2+y,z
_cell_length_a                   15.4536(15)
_cell_length_b                   12.9941(12)
_cell_length_c                   24.233(2)
_cell_angle_alpha                90
_cell_angle_beta                 90
_cell_angle_gamma                90
_cell_volume                     4866.12
_exptl_crystal_colour            colorless
_exptl_crystal_description       plate
_cell_formula_units_Z            8
loop_
_atom_site_label
_atom_site_type_symbol
_atom_site_fract_x
_atom_site_fract_y
_atom_site_fract_z
S1 S 0.52582(3) 0.35912(3) 0.71385(2)
O1 O 0.54052(9) 0.28170(9) 0.75476(5)
O2 O 0.59303(8) 0.43048(10) 0.69990(5)
O3 O 0.72141(8) 0.32978(10) 0.56681(7)
O4 O 0.60763(7) 0.22222(8) 0.56782(5)
O5 O 0.24196(9) -0.03776(10) 0.56581(5)
N1 N 0.50260(9) 0.29973(10) 0.65525(5)
C1 C 0.49159(10) 0.36600(11) 0.60456(6)
H1 H 0.459493 0.429756 0.615296
C2 C 0.43293(10) 0.30132(11) 0.56551(6)
H2 H 0.381145 0.340974 0.554272
H3 H 0.465021 0.280101 0.532029
C3 C 0.40781(9) 0.20897(11) 0.59966(6)
C4 C 0.35355(10) 0.12846(11) 0.58614(6)
H4 H 0.325497 0.126927 0.551266
C5 C 0.34018(10) 0.04887(12) 0.62435(7)
C6 C 0.38221(11) 0.05226(12) 0.67532(7)
H5 H 0.373075 -0.001826 0.701046
C7 C 0.43711(11) 0.13291(12) 0.68934(7)
H6 H 0.465976 0.134219 0.723947
C8 C 0.44842(10) 0.21138(11) 0.65122(6)
C9 C 0.28054(10) -0.03763(12) 0.60993(7)
C10 C 0.26869(12) -0.12424(13) 0.65078(8)
H7 H 0.237104 -0.098859 0.683093
H8 H 0.325472 -0.150049 0.662305
H9 H 0.235810 -0.180042 0.633439
C11 C 0.57800(10) 0.39704(12) 0.58086(7)
C12 C 0.59994(10) 0.49361(12) 0.56708(7)
H10 H 0.656864 0.502088 0.552990
C13 C 0.54763(10) 0.58859(12) 0.57082(6)
C14 C 0.45825(11) 0.59234(13) 0.56213(7)
H11 H 0.427679 0.531243 0.553009
C15 C 0.41384(12) 0.68508(14) 0.56678(7)
H12 H 0.352993 0.686704 0.561245
C16 C 0.45760(14) 0.77496(14) 0.57939(8)
H13 H 0.426811 0.837909 0.582882
C17 C 0.54645(13) 0.77286(13) 0.58689(7)
H14 H 0.576750 0.834504 0.595309
C18 C 0.59097(12) 0.68115(12) 0.58214(7)
H15 H 0.652041 0.680684 0.586620
C19 C 0.64460(11) 0.31526(12) 0.57146(7)
C20 C 0.66352(11) 0.13533(12) 0.55599(8)
H16 H 0.704841 0.124470 0.586664
H17 H 0.696804 0.147908 0.521740
C21 C 0.60642(14) 0.04274(14) 0.54925(10)
H18 H 0.567821 0.053042 0.517646
H19 H 0.571851 0.033052 0.582759
H20 H 0.642296 -0.018331 0.542961
C22 C 0.43524(10) 0.43186(12) 0.73440(6)
C23 C 0.38229(11) 0.39599(13) 0.77693(7)
H21 H 0.391860 0.330004 0.792667
C24 C 0.31540(12) 0.45808(15) 0.79595(7)
H22 H 0.279504 0.434215 0.825095
C25 C 0.30009(11) 0.55459(14) 0.77305(7)
C26 C 0.35171(11) 0.58735(13) 0.72927(7)
H23 H 0.339840 0.651499 0.712056
C27 C 0.42002(11) 0.52794(12) 0.71045(7)
H24 H 0.456149 0.552294 0.681544
C28 C 0.23159(13) 0.62572(17) 0.79590(9)
H25 H 0.259091 0.678893 0.818600
H26 H 0.190960 0.586142 0.818566
H27 H 0.200287 0.658288 0.765376
loop_
_geom_bond_atom_site_label_1
_geom_bond_atom_site_label_2
_geom_bond_site_symmetry_1
_geom_bond_site_symmetry_2
S1 O1 1_555 1_555
O2 S1 1_555 1_555
O3 C19 1_555 1_555
O4 C19 1_555 1_555
O5 C9 1_555 1_555
N1 S1 1_555 1_555
C1 N1 1_555 1_555
H1 C1 1_555 1_555
C2 C1 1_555 1_555
H2 C2 1_555 1_555
H3 C2 1_555 1_555
C3 C2 1_555 1_555
C4 C3 1_555 1_555
H4 C4 1_555 1_555
C5 C4 1_555 1_555
C6 C5 1_555 1_555
H5 C6 1_555 1_555
C7 C6 1_555 1_555
H6 C7 1_555 1_555
C8 N1 1_555 1_555
C9 C5 1_555 1_555
C10 C9 1_555 1_555
H7 C10 1_555 1_555
H8 C10 1_555 1_555
H9 C10 1_555 1_555
C11 C1 1_555 1_555
C12 C11 1_555 1_555
H10 C12 1_555 1_555
C13 C12 1_555 1_555
C14 C13 1_555 1_555
H11 C14 1_555 1_555
C15 C14 1_555 1_555
H12 C15 1_555 1_555
C16 C15 1_555 1_555
H13 C16 1_555 1_555
C17 C16 1_555 1_555
H14 C17 1_555 1_555
C18 C13 1_555 1_555
H15 C18 1_555 1_555
C19 C11 1_555 1_555
C20 O4 1_555 1_555
H16 C20 1_555 1_555
H17 C20 1_555 1_555
C21 C20 1_555 1_555
H18 C21 1_555 1_555
H19 C21 1_555 1_555
H20 C21 1_555 1_555
C22 S1 1_555 1_555
C23 C22 1_555 1_555
H21 C23 1_555 1_555
C24 C23 1_555 1_555
H22 C24 1_555 1_555
C25 C24 1_555 1_555
C26 C25 1_555 1_555
H23 C26 1_555 1_555
C27 C22 1_555 1_555
H24 C27 1_555 1_555
C28 C25 1_555 1_555
H25 C28 1_555 1_555
H26 C28 1_555 1_555
H27 C28 1_555 1_555
C3 C8 1_555 1_555
C7 C8 1_555 1_555
C17 C18 1_555 1_555
C26 C27 1_555 1_555

#END
