
#######################################################################
#
#                 Cambridge Crystallographic Data Centre
#                                CCDC 
#
#######################################################################
#
# If this CIF has been generated from an entry in the Cambridge 
# Structural Database, then it will include bibliographic, chemical, 
# crystal, experimental, refinement or atomic coordinate data resulting 
# from the CCDC's data processing and validation procedures.
#
#######################################################################

data_JEVBUK
_chemical_formula_moiety         'C33 H36 O4'
_chemical_name_systematic        
(3S,4S)-4-(3,5-di-t-butyl-4-hydroxyphenyl)-7'-methyl-3',4'-dihydro-1'H,2H,4H-spiro[1-benzopyran-3,2'-naphthalene]-1',2-dione
_symmetry_cell_setting           orthorhombic
_symmetry_space_group_name_H-M   'P 21 21 21'
_symmetry_Int_Tables_number      19
_space_group_name_Hall           'P 2ac 2ab'
loop_
_symmetry_equiv_pos_site_id
_symmetry_equiv_pos_as_xyz
1 x,y,z
2 1/2-x,-y,1/2+z
3 -x,1/2+y,1/2-z
4 1/2+x,1/2-y,-z
_cell_length_a                   11.13710(10)
_cell_length_b                   17.0065(2)
_cell_length_c                   30.3267(3)
_cell_angle_alpha                90
_cell_angle_beta                 90
_cell_angle_gamma                90
_cell_volume                     5743.97
_exptl_crystal_colour            colorless
_exptl_crystal_description       block
_chemical_melting_point          '178-180 deg.C'
_cell_formula_units_Z            8
loop_
_atom_site_label
_atom_site_type_symbol
_atom_site_fract_x
_atom_site_fract_y
_atom_site_fract_z
O1 O 0.60147(15) 0.03355(10) 0.79750(5)
O2 O 0.75904(12) 0.07843(7) 0.83146(4)
O3 O 0.87892(17) -0.03096(9) 0.77070(4)
O4 O 0.54824(15) 0.43470(9) 0.75343(6)
H1 H 0.5531 0.4588 0.7301
C1 C 0.69885(17) 0.06228(10) 0.79372(6)
C2 C 0.75939(16) 0.08060(9) 0.74988(5)
C3 C 0.84494(18) 0.01130(10) 0.74097(6)
C4 C 0.8825(2) -0.00215(11) 0.69457(6)
C5 C 0.9747(2) -0.05668(12) 0.68660(7)
H2 H 1.0086 -0.0832 0.7103
C6 C 1.0165(3) -0.07208(14) 0.64468(9)
C7 C 0.9604(4) -0.03185(19) 0.61041(9)
H3 H 0.9867 -0.0406 0.5817
C8 C 0.8670(3) 0.02072(18) 0.61725(7)
H4 H 0.8314 0.0454 0.5932
C9 C 0.8258(3) 0.03708(13) 0.65990(6)
C10 C 0.7255(3) 0.09375(15) 0.66811(7)
H5 H 0.6657 0.0877 0.6451
H6 H 0.7566 0.1469 0.6664
C11 C 0.6655(2) 0.08237(13) 0.71276(7)
H7 H 0.6208 0.0334 0.7127
H8 H 0.6093 0.1250 0.7180
C12 C 0.83354(15) 0.15835(9) 0.75319(5)
H9 H 0.8875 0.1605 0.7277
C13 C 0.91022(14) 0.15618(9) 0.79425(6)
C14 C 1.01860(16) 0.19627(12) 0.79762(8)
H10 H 1.0483 0.2236 0.7734
C15 C 1.0824(2) 0.19583(16) 0.83649(10)
H11 H 1.1543 0.2234 0.8384
C16 C 1.0408(3) 0.15523(16) 0.87221(9)
H12 H 1.0847 0.1553 0.8983
C17 C 0.9345(2) 0.11422(13) 0.86996(7)
H13 H 0.9065 0.0859 0.8941
C18 C 0.87009(16) 0.11599(9) 0.83096(6)
C19 C 1.1159(4) -0.13007(19) 0.63667(13)
H14 H 1.1468 -0.1482 0.6644
H15 H 1.1790 -0.1051 0.6203
H16 H 1.0854 -0.1740 0.6202
C20 C 0.75634(15) 0.23237(9) 0.75248(5)
C21 C 0.65879(16) 0.24129(10) 0.78061(6)
H17 H 0.6410 0.2010 0.8003
C22 C 0.58690(16) 0.30770(11) 0.78061(6)
C23 C 0.61920(16) 0.36860(10) 0.75149(6)
C24 C 0.71896(14) 0.36377(9) 0.72332(5)
C25 C 0.78470(14) 0.29381(9) 0.72437(5)
H18 H 0.8499 0.2883 0.7055
C26 C 0.47455(19) 0.31277(14) 0.81024(9)
C27 C 0.4591(3) 0.23735(18) 0.83790(12)
H19 H 0.4455 0.1934 0.8186
H20 H 0.3917 0.2433 0.8574
H21 H 0.5304 0.2283 0.8549
C28 C 0.4859(3) 0.38216(17) 0.84275(10)
H22 H 0.5555 0.3748 0.8610
H23 H 0.4155 0.3845 0.8610
H24 H 0.4937 0.4304 0.8265
C29 C 0.3622(2) 0.3223(2) 0.78147(13)
H25 H 0.3689 0.3696 0.7644
H26 H 0.2924 0.3254 0.8000
H27 H 0.3550 0.2780 0.7621
C30 C 0.75409(17) 0.43057(10) 0.69134(5)
C31 C 0.87193(19) 0.41289(12) 0.66725(7)
H28 H 0.9349 0.4053 0.6884
H29 H 0.8919 0.4562 0.6483
H30 H 0.8628 0.3661 0.6499
C32 C 0.7737(3) 0.50823(12) 0.71588(9)
H31 H 0.6986 0.5263 0.7277
H32 H 0.8050 0.5468 0.6958
H33 H 0.8296 0.5002 0.7395
C33 C 0.6570(2) 0.43960(18) 0.65573(7)
H34 H 0.6472 0.3906 0.6404
H35 H 0.6807 0.4796 0.6352
H36 H 0.5824 0.4542 0.6693
O5 O 0.52789(14) 0.47291(12) 0.56511(6)
O6 O 0.50573(10) 0.40376(10) 0.50485(5)
O7 O 0.48994(16) 0.26976(13) 0.56710(6)
O8 O -0.00549(15) 0.64422(8) 0.48724(7)
H37 H -0.0773 0.6348 0.4900
C34 C 0.47088(15) 0.42363(13) 0.54651(6)
C35 C 0.36158(13) 0.38267(10) 0.56598(5)
C36 C 0.40079(15) 0.30080(13) 0.58180(6)
C37 C 0.32518(16) 0.26215(12) 0.61566(5)
C38 C 0.3463(2) 0.18332(14) 0.62539(7)
H38 H 0.4068 0.1567 0.6104
C39 C 0.2803(3) 0.14372(15) 0.65659(8)
C40 C 0.1913(3) 0.18545(17) 0.67880(8)
H39 H 0.1453 0.1599 0.7000
C41 C 0.1701(2) 0.26356(15) 0.67006(7)
H40 H 0.1111 0.2900 0.6859
C42 C 0.23501(17) 0.30382(12) 0.63804(6)
C43 C 0.21080(18) 0.38874(12) 0.62788(6)
H41 H 0.1911 0.4161 0.6550
H42 H 0.1418 0.3923 0.6084
C44 C 0.31698(17) 0.42888(12) 0.60629(6)
H43 H 0.3817 0.4337 0.6275
H44 H 0.2939 0.4814 0.5972
C45 C 0.26349(12) 0.37134(8) 0.53003(5)
H45 H 0.2056 0.3330 0.5414
C46 C 0.31999(14) 0.33587(9) 0.48928(5)
C47 C 0.25527(18) 0.28822(10) 0.46058(6)
H46 H 0.1752 0.2768 0.4664
C48 C 0.3098(2) 0.25780(13) 0.42331(8)
H47 H 0.2658 0.2268 0.4039
C49 C 0.4286(3) 0.27319(16) 0.41482(8)
H48 H 0.4648 0.2517 0.3900
C50 C 0.4945(2) 0.32002(14) 0.44263(7)
H49 H 0.5751 0.3302 0.4369
C51 C 0.43863(15) 0.35180(11) 0.47933(6)
C52 C 0.3048(5) 0.0584(2) 0.66638(12)
H50 H 0.3527 0.0363 0.6432
H51 H 0.2301 0.0304 0.6684
H52 H 0.3471 0.0541 0.6938
C53 C 0.19385(12) 0.44586(8) 0.51893(5)
C54 C 0.07005(13) 0.44168(8) 0.51499(5)
H53 H 0.0323 0.3937 0.5198
C55 C 0.00026(14) 0.50650(9) 0.50408(6)
C56 C 0.05993(15) 0.57811(9) 0.49772(6)
C57 C 0.18510(16) 0.58570(9) 0.50214(6)
C58 C 0.24894(14) 0.51784(9) 0.51196(6)
H54 H 0.3321 0.5208 0.5139
C59 C -0.13717(16) 0.49851(11) 0.49954(8)
C60 C -0.2015(2) 0.55056(15) 0.53309(11)
H55 H -0.1735 0.5382 0.5622
H56 H -0.2865 0.5414 0.5314
H57 H -0.1850 0.6048 0.5267
C61 C -0.1771(3) 0.5198(2) 0.45268(11)
H58 H -0.1621 0.5746 0.4474
H59 H -0.2613 0.5093 0.4495
H60 H -0.1328 0.4889 0.4318
C62 C -0.17737(17) 0.41401(14) 0.50805(13)
H61 H -0.1384 0.3795 0.4875
H62 H -0.2628 0.4103 0.5044
H63 H -0.1562 0.3991 0.5376
C63 C 0.2496(2) 0.66568(11) 0.49697(9)
C64 C 0.2027(3) 0.72452(13) 0.53146(11)
H64 H 0.1169 0.7285 0.5291
H65 H 0.2381 0.7752 0.5263
H66 H 0.2237 0.7066 0.5605
C65 C 0.2324(4) 0.69815(17) 0.45058(11)
H67 H 0.2578 0.6596 0.4294
H68 H 0.2794 0.7451 0.4471
H69 H 0.1491 0.7102 0.4460
C66 C 0.3848(2) 0.65687(16) 0.50513(15)
H70 H 0.3981 0.6401 0.5350
H71 H 0.4237 0.7065 0.5003
H72 H 0.4171 0.6185 0.4852
loop_
_geom_bond_atom_site_label_1
_geom_bond_atom_site_label_2
_geom_bond_site_symmetry_1
_geom_bond_site_symmetry_2
O1 C1 1_555 1_555
O2 C1 1_555 1_555
O3 C3 1_555 1_555
O4 H1 1_555 1_555
C1 C2 1_555 1_555
C2 C3 1_555 1_555
C3 C4 1_555 1_555
C4 C5 1_555 1_555
C5 H2 1_555 1_555
C6 C5 1_555 1_555
C7 C6 1_555 1_555
H3 C7 1_555 1_555
C8 C7 1_555 1_555
H4 C8 1_555 1_555
C9 C4 1_555 1_555
C10 C9 1_555 1_555
H5 C10 1_555 1_555
H6 C10 1_555 1_555
C11 C2 1_555 1_555
H7 C11 1_555 1_555
H8 C11 1_555 1_555
C12 C2 1_555 1_555
H9 C12 1_555 1_555
C13 C12 1_555 1_555
C14 C13 1_555 1_555
H10 C14 1_555 1_555
C15 C14 1_555 1_555
H11 C15 1_555 1_555
C16 C15 1_555 1_555
H12 C16 1_555 1_555
C17 C16 1_555 1_555
H13 C17 1_555 1_555
C18 O2 1_555 1_555
C19 C6 1_555 1_555
H14 C19 1_555 1_555
H15 C19 1_555 1_555
H16 C19 1_555 1_555
C20 C12 1_555 1_555
C21 C20 1_555 1_555
H17 C21 1_555 1_555
C22 C21 1_555 1_555
C23 O4 1_555 1_555
C24 C23 1_555 1_555
C25 C20 1_555 1_555
H18 C25 1_555 1_555
C26 C22 1_555 1_555
C27 C26 1_555 1_555
H19 C27 1_555 1_555
H20 C27 1_555 1_555
H21 C27 1_555 1_555
C28 C26 1_555 1_555
H22 C28 1_555 1_555
H23 C28 1_555 1_555
H24 C28 1_555 1_555
C29 C26 1_555 1_555
H25 C29 1_555 1_555
H26 C29 1_555 1_555
H27 C29 1_555 1_555
C30 C24 1_555 1_555
C31 C30 1_555 1_555
H28 C31 1_555 1_555
H29 C31 1_555 1_555
H30 C31 1_555 1_555
C32 C30 1_555 1_555
H31 C32 1_555 1_555
H32 C32 1_555 1_555
H33 C32 1_555 1_555
C33 C30 1_555 1_555
H34 C33 1_555 1_555
H35 C33 1_555 1_555
H36 C33 1_555 1_555
O5 C34 1_555 1_555
O6 C34 1_555 1_555
O7 C36 1_555 1_555
O8 H37 1_555 1_555
C34 C35 1_555 1_555
C35 C36 1_555 1_555
C36 C37 1_555 1_555
C37 C38 1_555 1_555
C38 H38 1_555 1_555
C39 C38 1_555 1_555
C40 C39 1_555 1_555
H39 C40 1_555 1_555
C41 C40 1_555 1_555
H40 C41 1_555 1_555
C42 C37 1_555 1_555
C43 C42 1_555 1_555
H41 C43 1_555 1_555
H42 C43 1_555 1_555
C44 C35 1_555 1_555
H43 C44 1_555 1_555
H44 C44 1_555 1_555
C45 C35 1_555 1_555
H45 C45 1_555 1_555
C46 C45 1_555 1_555
C47 C46 1_555 1_555
H46 C47 1_555 1_555
C48 C47 1_555 1_555
H47 C48 1_555 1_555
C49 C48 1_555 1_555
H48 C49 1_555 1_555
C50 C49 1_555 1_555
H49 C50 1_555 1_555
C51 O6 1_555 1_555
C52 C39 1_555 1_555
H50 C52 1_555 1_555
H51 C52 1_555 1_555
H52 C52 1_555 1_555
C53 C45 1_555 1_555
C54 C53 1_555 1_555
H53 C54 1_555 1_555
C55 C54 1_555 1_555
C56 O8 1_555 1_555
C57 C56 1_555 1_555
C58 C53 1_555 1_555
H54 C58 1_555 1_555
C59 C55 1_555 1_555
C60 C59 1_555 1_555
H55 C60 1_555 1_555
H56 C60 1_555 1_555
H57 C60 1_555 1_555
C61 C59 1_555 1_555
H58 C61 1_555 1_555
H59 C61 1_555 1_555
H60 C61 1_555 1_555
C62 C59 1_555 1_555
H61 C62 1_555 1_555
H62 C62 1_555 1_555
H63 C62 1_555 1_555
C63 C57 1_555 1_555
C64 C63 1_555 1_555
H64 C64 1_555 1_555
H65 C64 1_555 1_555
H66 C64 1_555 1_555
C65 C63 1_555 1_555
H67 C65 1_555 1_555
H68 C65 1_555 1_555
H69 C65 1_555 1_555
C66 C63 1_555 1_555
H70 C66 1_555 1_555
H71 C66 1_555 1_555
H72 C66 1_555 1_555
C8 C9 1_555 1_555
C10 C11 1_555 1_555
C13 C18 1_555 1_555
C17 C18 1_555 1_555
C22 C23 1_555 1_555
C24 C25 1_555 1_555
C41 C42 1_555 1_555
C43 C44 1_555 1_555
C46 C51 1_555 1_555
C50 C51 1_555 1_555
C55 C56 1_555 1_555
C57 C58 1_555 1_555

#END
