
#######################################################################
#
#                 Cambridge Crystallographic Data Centre
#                                CCDC 
#
#######################################################################
#
# If this CIF has been generated from an entry in the Cambridge 
# Structural Database, then it will include bibliographic, chemical, 
# crystal, experimental, refinement or atomic coordinate data resulting 
# from the CCDC's data processing and validation procedures.
#
#######################################################################

data_JEVGAV
_chemical_formula_moiety         'Cs1 1+,C38 H45 N5 O4,N3 1-'
_chemical_name_systematic        
'cesium 1,16,21,21,30,30-hexamethyl-5,12-dioxa-35,36,37,38,39-pentaazaheptacyclo[14.9.9.1^7,10^.1^17,20^.1^22,25^.1^26,29^.1^31,34^]nonatriaconta-7,9,17,19,22,24,26,28,31,33-decaene-6,11-dione azide'
_symmetry_cell_setting           orthorhombic
_symmetry_space_group_name_H-M   'C m c 21'
_symmetry_Int_Tables_number      36
_space_group_name_Hall           'C 2n -2'
loop_
_symmetry_equiv_pos_site_id
_symmetry_equiv_pos_as_xyz
1 x,y,z
2 -x,-y,1/2+z
3 -x,y,z
4 x,-y,1/2+z
5 1/2+x,1/2+y,z
6 1/2-x,1/2-y,1/2+z
7 1/2-x,1/2+y,z
8 1/2+x,1/2-y,1/2+z
_cell_length_a                   17.237(4)
_cell_length_b                   12.996(2)
_cell_length_c                   16.538(3)
_cell_angle_alpha                90
_cell_angle_beta                 90
_cell_angle_gamma                90
_cell_volume                     3704.71
_exptl_crystal_colour            colorless
_exptl_crystal_description       prisms
_cell_formula_units_Z            4
loop_
_atom_site_label
_atom_site_type_symbol
_atom_site_fract_x
_atom_site_fract_y
_atom_site_fract_z
N1 N 0.40336(9) 0.88978(11) 0.18394(9)
H1 H 0.4276 0.8985 0.2296
N2 N 0.40247(8) 1.15913(11) 0.24045(9)
H2 H 0.4240 1.1271 0.2809
C1 C 0.42702(10) 0.82352(13) 0.12269(10)
C2 C 0.37463(11) 0.83382(13) 0.06096(17)
H3 H 0.3763 0.7989 0.0112
C3 C 0.31735(11) 0.90614(15) 0.08488(13)
H4 H 0.2745 0.9273 0.0539
C4 C 0.33561(11) 0.94002(12) 0.16191(13)
C5 C 0.29803(9) 1.02150(14) 0.21507(13)
C6 C 0.33762(10) 1.12488(14) 0.19880(13)
C7 C 0.32265(12) 1.19627(15) 0.13956(14)
H5 H 0.2818 1.1935 0.1020
C8 C 0.37948(12) 1.27492(14) 0.14482(13)
H6 H 0.3832 1.3327 0.1108
C9 C 0.42832(10) 1.25228(12) 0.20828(11)
C10 C 0.5000 1.30803(18) 0.23875(19)
C11 C 0.5000 0.75766(18) 0.13098(15)
C12 C 0.5000 0.6766(2) 0.0622(3)
H7 H 0.5000 0.7110 0.0108
H8 H 0.5455 0.6343 0.0665
C13 C 0.5000 0.7006(2) 0.21275(19)
H9 H 0.5000 0.7498 0.2560
H10 H 0.4545 0.6582 0.2165
C14 C 0.5000 1.4187(3) 0.2043(3)
H11 H 0.5000 1.4157 0.1463
H12 H 0.4545 1.4545 0.2226
C15 C 0.5000 1.3153(2) 0.33189(19)
H13 H 0.5000 1.2473 0.3545
H14 H 0.5455 1.3516 0.3495
C16 C 0.21137(12) 1.0329(2) 0.19115(19)
H15 H 0.2077 1.0572 0.1358
H16 H 0.1864 1.0818 0.2270
H17 H 0.1858 0.9666 0.1957
C17 C 0.30348(11) 0.9920(2) 0.30628(15)
H18 H 0.3582 0.9823 0.3203
H19 H 0.2840 1.0498 0.3385
C18 C 0.25854(15) 0.8945(2) 0.33027(17)
H20 H 0.2665 0.8423 0.2883
H21 H 0.2031 0.9109 0.3313
N3 N 0.4875(4) 0.7315(2) 0.42313(18)
O1 O 0.3581(8) 0.8041(10) 0.4158(8)
O2 O 0.3121(5) 0.6439(8) 0.4310(8)
C19 C 0.2815(9) 0.8465(8) 0.4144(10)
H22 H 0.2777 0.8998 0.4560
H23 H 0.2443 0.7921 0.4279
C20 C 0.3705(6) 0.7009(8) 0.4268(7)
C21 C 0.4216(5) 0.6751(7) 0.4312(6)
C22 C 0.4425(4) 0.5743(6) 0.4462(5)
C23 C 0.5231(4) 0.5694(6) 0.4472(5)
N1B N 0.59664(9) 0.88978(11) 0.18394(9)
H1B H 0.5724 0.8985 0.2296
N2B N 0.59753(8) 1.15913(11) 0.24045(9)
H2B H 0.5760 1.1271 0.2809
C1B C 0.57298(10) 0.82352(13) 0.12269(10)
C2B C 0.62537(11) 0.83382(13) 0.06096(17)
H3B H 0.6237 0.7989 0.0112
C3B C 0.68265(11) 0.90614(15) 0.08488(13)
H4B H 0.7255 0.9273 0.0539
C4B C 0.66439(11) 0.94002(12) 0.16191(13)
C5B C 0.70197(9) 1.02150(14) 0.21507(13)
C6B C 0.66238(10) 1.12488(14) 0.19880(13)
C7B C 0.67735(12) 1.19627(15) 0.13956(14)
H5B H 0.7182 1.1935 0.1020
C8B C 0.62052(12) 1.27492(14) 0.14482(13)
H6B H 0.6168 1.3327 0.1108
C9B C 0.57168(10) 1.25228(12) 0.20828(11)
H8B H 0.4545 0.6343 0.0665
H10B H 0.5455 0.6582 0.2165
H12B H 0.5455 1.4545 0.2226
H14B H 0.4545 1.3516 0.3495
C16B C 0.78863(12) 1.0329(2) 0.19115(19)
H15B H 0.7923 1.0572 0.1358
H16B H 0.8136 1.0818 0.2270
H17B H 0.8142 0.9666 0.1957
C17B C 0.69652(11) 0.9920(2) 0.30628(15)
H18B H 0.6418 0.9823 0.3203
H19B H 0.7160 1.0498 0.3385
C18B C 0.74146(15) 0.8945(2) 0.33027(17)
H20B H 0.7335 0.8423 0.2883
H21B H 0.7969 0.9109 0.3313
N3B N 0.5125(4) 0.7315(2) 0.42313(18)
O1B O 0.6419(8) 0.8041(10) 0.4158(8)
O2B O 0.6879(5) 0.6439(8) 0.4310(8)
C19B C 0.7185(9) 0.8465(8) 0.4144(10)
H22B H 0.7223 0.8998 0.4560
H23B H 0.7557 0.7921 0.4279
C20B C 0.6295(6) 0.7009(8) 0.4268(7)
C21B C 0.5784(5) 0.6751(7) 0.4312(6)
C22B C 0.5575(4) 0.5743(6) 0.4462(5)
C23B C 0.4769(4) 0.5694(6) 0.4472(5)
N4 N 0.5000 1.0771(2) 0.4001(2)
N5 N 0.5000 0.99516(17) 0.36589(12)
N6 N 0.5000 0.9184(2) 0.33431(16)
Cs1 Cs 0.5000 0.936645(10) 0.569446(9)
O3? O 0.7148(5) 0.6668(8) 0.4256(8)
C24? C 0.6551(4) 0.7175(7) 0.4257(6)
O4? O 0.3471(8) 0.8232(9) 0.4252(8)
H24? H 0.2705 0.9400 0.4469
H25? H 0.2293 0.8310 0.4380
C25? C 0.2707(7) 0.8751(8) 0.4168(8)
C26? C 0.4492(4) 0.6684(8) 0.4319(6)
H26? H 0.4467 0.5103 0.4565
H27? H 0.4083 0.5189 0.4542
H28? H 0.4893 0.7974 0.4139
loop_
_geom_bond_atom_site_label_1
_geom_bond_atom_site_label_2
_geom_bond_site_symmetry_1
_geom_bond_site_symmetry_2
N1 H1 1_555 1_555
N2 H2 1_555 1_555
C1 N1 1_555 1_555
C2 C1 1_555 1_555
H3 C2 1_555 1_555
C3 C2 1_555 1_555
H4 C3 1_555 1_555
C4 N1 1_555 1_555
C5 C4 1_555 1_555
C6 N2 1_555 1_555
C7 C6 1_555 1_555
H5 C7 1_555 1_555
C8 C7 1_555 1_555
H6 C8 1_555 1_555
C9 N2 1_555 1_555
C10 C9 1_555 1_555
C11 C1 1_555 1_555
C12 C11 1_555 1_555
H7 C12 1_555 1_555
H8 C12 1_555 1_555
C13 C11 1_555 1_555
H9 C13 1_555 1_555
H10 C13 1_555 1_555
C14 C10 1_555 1_555
H11 C14 1_555 1_555
H12 C14 1_555 1_555
C15 C10 1_555 1_555
H13 C15 1_555 1_555
H14 C15 1_555 1_555
C16 C5 1_555 1_555
H15 C16 1_555 1_555
H16 C16 1_555 1_555
H17 C16 1_555 1_555
C17 C5 1_555 1_555
H18 C17 1_555 1_555
H19 C17 1_555 1_555
C18 C17 1_555 1_555
H20 C18 1_555 1_555
H21 C18 1_555 1_555
N3 C21 1_555 1_555
O1 C19 1_555 1_555
O2 C20 1_555 1_555
C19 C18 1_555 1_555
H22 C19 1_555 1_555
H23 C19 1_555 1_555
C20 O1 1_555 1_555
C21 C20 1_555 1_555
C22 C21 1_555 1_555
C23 C22 1_555 1_555
N4 N5 1_555 1_555
N5 N6 1_555 1_555
N1B H1B 1_555 1_555
N2B H2B 1_555 1_555
C1B C11 1_555 1_555
C2B C1B 1_555 1_555
H3B C2B 1_555 1_555
C3B C2B 1_555 1_555
H4B C3B 1_555 1_555
C4B N1B 1_555 1_555
C5B C4B 1_555 1_555
C6B N2B 1_555 1_555
C7B C6B 1_555 1_555
H5B C7B 1_555 1_555
C8B C7B 1_555 1_555
H6B C8B 1_555 1_555
C9B C10 1_555 1_555
H8B C12 1_555 1_555
H10B C13 1_555 1_555
H12B C14 1_555 1_555
H14B C15 1_555 1_555
C16B C5B 1_555 1_555
H15B C16B 1_555 1_555
H16B C16B 1_555 1_555
H17B C16B 1_555 1_555
C17B C5B 1_555 1_555
H18B C17B 1_555 1_555
H19B C17B 1_555 1_555
C18B C17B 1_555 1_555
H20B C18B 1_555 1_555
H21B C18B 1_555 1_555
N3B C21 1_555 1_555
O1B C19B 1_555 1_555
O2B C20B 1_555 1_555
C19B C18B 1_555 1_555
H22B C19B 1_555 1_555
H23B C19B 1_555 1_555
C20B O1B 1_555 1_555
C21B N3 1_555 1_555
C22B C23 1_555 1_555
C23B C21 1_555 1_555
C3 C4 1_555 1_555
C5 C6 1_555 1_555
C8 C9 1_555 1_555
C22 C23B 1_555 1_555
C23 C21B 1_555 1_555
C23 C23B 1_555 1_555
N1B C1B 1_555 1_555
N2B C9B 1_555 1_555
C3B C4B 1_555 1_555
C5B C6B 1_555 1_555
C8B C9B 1_555 1_555
N3B C21B 1_555 1_555
C20B C21B 1_555 1_555
C21B C22B 1_555 1_555
C22B C23B 1_555 1_555

#END
