
#######################################################################
#
#                 Cambridge Crystallographic Data Centre
#                                CCDC 
#
#######################################################################
#
# If this CIF has been generated from an entry in the Cambridge 
# Structural Database, then it will include bibliographic, chemical, 
# crystal, experimental, refinement or atomic coordinate data resulting 
# from the CCDC's data processing and validation procedures.
#
#######################################################################

data_JEVGEZ
_chemical_formula_moiety         'Cs1 1+,C52 H58 N6 O4,N3 1-'
_chemical_name_systematic        
'cesium 49,50-diethyl-1,26,31,31,40,40-hexamethyl-5,22-dioxa-8,19,45,46,47,48-hexaazadecacyclo[24.9.9.1^7,10^.1^17,20^.1^27,30^.1^32,35^.1^36,39^.1^41,44^.0^9,18^.0^11,16^]pentaconta-7(50),9(18),10,12,14,16,20(49),27,29,32,34,36,38,41,43-pentadecaene-6,21-dione azide'
_symmetry_cell_setting           monoclinic
_symmetry_space_group_name_H-M   'P 21/n'
_symmetry_Int_Tables_number      14
_space_group_name_Hall           '-P 2yn'
loop_
_symmetry_equiv_pos_site_id
_symmetry_equiv_pos_as_xyz
1 x,y,z
2 1/2-x,1/2+y,1/2-z
3 -x,-y,-z
4 1/2+x,1/2-y,1/2+z
_cell_length_a                   11.4274(9)
_cell_length_b                   21.0570(14)
_cell_length_c                   20.4912(15)
_cell_angle_alpha                90
_cell_angle_beta                 101.302(4)
_cell_angle_gamma                90
_cell_volume                     4835.11
_exptl_crystal_colour            colorless
_exptl_crystal_description       prism
_cell_formula_units_Z            4
loop_
_atom_site_label
_atom_site_type_symbol
_atom_site_fract_x
_atom_site_fract_y
_atom_site_fract_z
Cs1 Cs 0.011414(18) 0.753494(8) 0.138150(10)
C1 C 0.3234(3) 0.72970(14) 0.11247(14)
C2 C 0.3349(3) 0.79312(14) 0.09924(15)
H1 H 0.3427 0.8108 0.0576
C3 C 0.3330(3) 0.82738(14) 0.15804(15)
H2 H 0.3398 0.8722 0.1629
C4 C 0.3197(3) 0.78506(13) 0.20733(14)
C5 C 0.3171(3) 0.79479(13) 0.28058(14)
C6 C 0.1929(3) 0.78375(13) 0.29510(14)
C7 C 0.1094(3) 0.82534(14) 0.31040(17)
H3 H 0.1169 0.8703 0.3126
C8 C 0.0102(3) 0.78972(14) 0.32237(16)
H4 H -0.0597 0.8066 0.3344
C9 C 0.0329(3) 0.72654(13) 0.31353(13)
C10 C -0.0426(2) 0.66755(13) 0.31861(13)
C11 C -0.1032(2) 0.64658(12) 0.24924(13)
C12 C -0.2170(3) 0.65597(15) 0.21346(16)
H5 H -0.2797 0.6774 0.2287
C13 C -0.2244(3) 0.62800(15) 0.14975(16)
H6 H -0.2927 0.6277 0.1148
C14 C -0.1156(2) 0.60139(13) 0.14735(13)
C15 C -0.0718(2) 0.56373(13) 0.09366(13)
C16 C 0.0109(2) 0.60399(13) 0.06062(13)
C17 C -0.0090(3) 0.63516(15) 0.00066(14)
H7 H -0.0827 0.6371 -0.0303
C18 C 0.0998(3) 0.66394(15) -0.00692(14)
H8 H 0.1118 0.6881 -0.0442
C19 C 0.1844(2) 0.65102(13) 0.04852(13)
C20 C 0.3148(2) 0.67132(14) 0.06807(13)
C21 C 0.3551(3) 0.86378(14) 0.29978(16)
H9 H 0.2994 0.8933 0.2727
H10 H 0.4358 0.8712 0.2919
H11 H 0.3540 0.8707 0.3470
C22 C 0.4070(3) 0.74953(14) 0.32367(16)
H12 H 0.4063 0.7569 0.3708
H13 H 0.4872 0.7576 0.3153
H14 H 0.3844 0.7054 0.3122
C23 C -0.1391(3) 0.68456(15) 0.35868(16)
H15 H -0.1893 0.7188 0.3361
H16 H -0.1008 0.6985 0.4034
H17 H -0.1886 0.6471 0.3620
C24 C -0.1792(3) 0.54343(17) 0.04067(15)
H18 H -0.2320 0.5165 0.0611
H19 H -0.1514 0.5196 0.0055
H20 H -0.2230 0.5812 0.0214
C25 C -0.0069(3) 0.50313(13) 0.12396(15)
H21 H 0.0631 0.5150 0.1575
H22 H 0.0185 0.4783 0.0888
H23 H -0.0612 0.4776 0.1448
C26 C 0.3581(3) 0.68874(17) 0.00347(16)
H24 H 0.3407 0.6536 -0.0283
H25 H 0.4443 0.6965 0.0137
H26 H 0.3168 0.7271 -0.0159
C27 C 0.0375(2) 0.61336(12) 0.35605(13)
H27 H 0.1076 0.6079 0.3349
H28 H 0.0673 0.6272 0.4025
C28 C -0.0236(3) 0.54849(14) 0.35745(14)
H29 H -0.1089 0.5552 0.3586
H30 H -0.0193 0.5251 0.3161
C29 C 0.0327(3) 0.50861(14) 0.41661(14)
H31 H 0.0356 0.5331 0.4582
H32 H -0.0159 0.4700 0.4188
C30 C 0.2143(3) 0.45660(15) 0.46210(15)
C31 C 0.3332(3) 0.43799(14) 0.45121(14)
C32 C 0.4186(3) 0.39972(16) 0.48923(15)
C33 C 0.5169(3) 0.39601(14) 0.45443(14)
C34 C 0.4806(2) 0.42999(13) 0.39524(14)
C35 C 0.5525(2) 0.43195(13) 0.34578(14)
C36 C 0.6650(2) 0.40233(13) 0.35633(14)
C37 C 0.7111(2) 0.41347(13) 0.29690(15)
C38 C 0.6248(3) 0.44702(13) 0.25380(15)
C39 C 0.6166(3) 0.46412(14) 0.18371(15)
C40 C 0.4948(3) 0.51163(16) 0.08898(15)
H33 H 0.4832 0.4715 0.0634
H34 H 0.5645 0.5340 0.0778
C41 C 0.3844(3) 0.55278(15) 0.07077(15)
H35 H 0.3159 0.5299 0.0827
H36 H 0.3669 0.5593 0.0220
C42 C 0.3959(2) 0.61752(13) 0.10494(14)
H37 H 0.4801 0.6314 0.1108
H38 H 0.3773 0.6124 0.1499
C43 C 0.4005(3) 0.36452(17) 0.55281(16)
H39 H 0.3143 0.3576 0.5510
H40 H 0.4400 0.3225 0.5552
C44 C 0.4519(4) 0.40253(19) 0.6133(2)
H41 H 0.5373 0.4094 0.6148
H42 H 0.4411 0.3795 0.6532
H43 H 0.4112 0.4436 0.6114
C45 C 0.6311(2) 0.36273(14) 0.46604(14)
C46 C 0.6674(3) 0.32353(15) 0.52214(15)
H44 H 0.6205 0.3225 0.5556
C47 C 0.7691(3) 0.28656(18) 0.52994(17)
H45 H 0.7896 0.2588 0.5670
C48 C 0.8407(3) 0.2908(2) 0.48259(18)
H46 H 0.9119 0.2664 0.4882
C49 C 0.8108(3) 0.32947(17) 0.42765(17)
H47 H 0.8620 0.3316 0.3963
C50 C 0.7050(2) 0.36615(13) 0.41716(14)
C51 C 0.8300(3) 0.39269(15) 0.28193(17)
H48 H 0.8922 0.3966 0.3228
H49 H 0.8520 0.4213 0.2479
C52 C 0.8272(3) 0.32451(18) 0.2568(2)
H50 H 0.7863 0.2975 0.2843
H51 H 0.9090 0.3092 0.2595
H52 H 0.7843 0.3229 0.2105
N1 N 0.3139(2) 0.72585(11) 0.17851(11)
H53 H 0.3052 0.6902 0.1994
N2 N 0.1438(2) 0.72362(11) 0.29651(11)
H54 H 0.1788 0.6883 0.2877
N3 N -0.04201(19) 0.61404(10) 0.20790(10)
H55 H 0.0335 0.6029 0.2187
N4 N 0.12896(19) 0.61495(11) 0.08972(10)
H56 H 0.1639 0.6008 0.1292
N5 N 0.3711(2) 0.45593(11) 0.39397(11)
H57 H 0.3312 0.4800 0.3621
N6 N 0.5288(2) 0.45902(11) 0.28450(12)
H58 H 0.4640 0.4804 0.2672
O1 O 0.15384(17) 0.49056(9) 0.41016(10)
O2 O 0.1739(2) 0.44278(13) 0.51028(11)
O3 O 0.6877(2) 0.44857(11) 0.14978(12)
O4 O 0.51622(18) 0.49808(10) 0.15985(10)
N7 N 0.2297(2) 0.60896(11) 0.23673(12)
N8 N 0.26105(18) 0.55812(11) 0.25002(10)
N9 N 0.2878(3) 0.50388(12) 0.26171(14)
loop_
_geom_bond_atom_site_label_1
_geom_bond_atom_site_label_2
_geom_bond_site_symmetry_1
_geom_bond_site_symmetry_2
C1 C2 1_555 1_555
C2 H1 1_555 1_555
C3 C2 1_555 1_555
H2 C3 1_555 1_555
C4 C3 1_555 1_555
C5 C4 1_555 1_555
C6 C5 1_555 1_555
C7 C6 1_555 1_555
H3 C7 1_555 1_555
C8 C7 1_555 1_555
H4 C8 1_555 1_555
C9 C8 1_555 1_555
C10 C9 1_555 1_555
C11 C10 1_555 1_555
C12 C11 1_555 1_555
H5 C12 1_555 1_555
C13 C12 1_555 1_555
H6 C13 1_555 1_555
C14 C13 1_555 1_555
C15 C14 1_555 1_555
C16 C15 1_555 1_555
C17 C16 1_555 1_555
H7 C17 1_555 1_555
C18 C17 1_555 1_555
H8 C18 1_555 1_555
C19 C18 1_555 1_555
C20 C1 1_555 1_555
C21 C5 1_555 1_555
H9 C21 1_555 1_555
H10 C21 1_555 1_555
H11 C21 1_555 1_555
C22 C5 1_555 1_555
H12 C22 1_555 1_555
H13 C22 1_555 1_555
H14 C22 1_555 1_555
C23 C10 1_555 1_555
H15 C23 1_555 1_555
H16 C23 1_555 1_555
H17 C23 1_555 1_555
C24 C15 1_555 1_555
H18 C24 1_555 1_555
H19 C24 1_555 1_555
H20 C24 1_555 1_555
C25 C15 1_555 1_555
H21 C25 1_555 1_555
H22 C25 1_555 1_555
H23 C25 1_555 1_555
C26 C20 1_555 1_555
H24 C26 1_555 1_555
H25 C26 1_555 1_555
H26 C26 1_555 1_555
C27 C10 1_555 1_555
H27 C27 1_555 1_555
H28 C27 1_555 1_555
C28 C27 1_555 1_555
H29 C28 1_555 1_555
H30 C28 1_555 1_555
C29 C28 1_555 1_555
H31 C29 1_555 1_555
H32 C29 1_555 1_555
C30 C31 1_555 1_555
C31 C32 1_555 1_555
C32 C33 1_555 1_555
C33 C34 1_555 1_555
C34 C35 1_555 1_555
C35 C36 1_555 1_555
C36 C37 1_555 1_555
C37 C38 1_555 1_555
C38 C39 1_555 1_555
C39 O3 1_555 1_555
C40 H33 1_555 1_555
H34 C40 1_555 1_555
C41 C40 1_555 1_555
H35 C41 1_555 1_555
H36 C41 1_555 1_555
C42 C20 1_555 1_555
H37 C42 1_555 1_555
H38 C42 1_555 1_555
C43 C32 1_555 1_555
H39 C43 1_555 1_555
H40 C43 1_555 1_555
C44 C43 1_555 1_555
H41 C44 1_555 1_555
H42 C44 1_555 1_555
H43 C44 1_555 1_555
C45 C33 1_555 1_555
C46 C45 1_555 1_555
H44 C46 1_555 1_555
C47 C46 1_555 1_555
H45 C47 1_555 1_555
C48 C47 1_555 1_555
H46 C48 1_555 1_555
C49 C48 1_555 1_555
H47 C49 1_555 1_555
C50 C36 1_555 1_555
C51 C37 1_555 1_555
H48 C51 1_555 1_555
H49 C51 1_555 1_555
C52 C51 1_555 1_555
H50 C52 1_555 1_555
H51 C52 1_555 1_555
H52 C52 1_555 1_555
N1 C1 1_555 1_555
H53 N1 1_555 1_555
N2 C6 1_555 1_555
H54 N2 1_555 1_555
N3 C11 1_555 1_555
H55 N3 1_555 1_555
N4 C16 1_555 1_555
H56 N4 1_555 1_555
N5 C31 1_555 1_555
H57 N5 1_555 1_555
N6 C35 1_555 1_555
H58 N6 1_555 1_555
O1 C29 1_555 1_555
O2 C30 1_555 1_555
O4 C39 1_555 1_555
N7 N8 1_555 1_555
N8 N9 1_555 1_555
C4 N1 1_555 1_555
C9 N2 1_555 1_555
C14 N3 1_555 1_555
C19 C20 1_555 1_555
C19 N4 1_555 1_555
C30 O1 1_555 1_555
C34 N5 1_555 1_555
C38 N6 1_555 1_555
C40 O4 1_555 1_555
C41 C42 1_555 1_555
C45 C50 1_555 1_555
C49 C50 1_555 1_555

#END
