
#######################################################################
#
#                 Cambridge Crystallographic Data Centre
#                                CCDC 
#
#######################################################################
#
# If this CIF has been generated from an entry in the Cambridge 
# Structural Database, then it will include bibliographic, chemical, 
# crystal, experimental, refinement or atomic coordinate data resulting 
# from the CCDC's data processing and validation procedures.
#
#######################################################################

data_JEVKED
_chemical_compound_source        'Resina Commiphora'
_chemical_name_common            'commiphoroid A'
_chemical_formula_moiety         'C33 H48 O6'
_chemical_name_systematic        
"(1aS,3aS,4R,7R,8S,10S,13aS,13bS,17aS)-10-methoxy-3a,5,8,12,17a-pentamethyl-6-oxo-15-isopropyl-2,3,3a,4,6,7,8,9,10,13,13b,16,17,17a-tetradecahydro-1aH-4,13a-epoxycyclodeca[3',4']benzo[1',2':5,6]cyclodeca[1,2-b]oxiren-7-yl acetate"
_chemical_properties_biological  
'Adipose-derived stem cell proliferation and differentiation activity'
_symmetry_cell_setting           orthorhombic
_symmetry_space_group_name_H-M   'P 21 21 21'
_symmetry_Int_Tables_number      19
_space_group_name_Hall           'P 2ac 2ab'
loop_
_symmetry_equiv_pos_site_id
_symmetry_equiv_pos_as_xyz
1 x,y,z
2 1/2+x,1/2-y,-z
3 -x,1/2+y,1/2-z
4 1/2-x,-y,1/2+z
_cell_length_a                   12.4728(4)
_cell_length_b                   13.9162(4)
_cell_length_c                   17.2735(5)
_cell_angle_alpha                90
_cell_angle_beta                 90
_cell_angle_gamma                90
_cell_volume                     2998.23
_exptl_crystal_colour            colorless
_exptl_crystal_description       prism
_cell_formula_units_Z            4
loop_
_atom_site_label
_atom_site_type_symbol
_atom_site_fract_x
_atom_site_fract_y
_atom_site_fract_z
O1 O -0.01863(9) 0.48897(9) 0.24593(6)
O2 O 0.10052(9) 0.42409(8) 0.12798(6)
O3 O 0.31527(9) 0.61732(8) 0.01695(6)
O4 O 0.51661(10) 0.28450(9) 0.25996(6)
O5 O -0.19153(10) 0.55013(10) -0.01520(7)
O6 O 0.14855(10) 0.50244(9) 0.29307(7)
C1 C 0.02835(15) 0.38625(14) 0.34815(10)
H1 H 0.0319 0.3245 0.3210
H2 H -0.0452 0.3976 0.3658
H3 H 0.0767 0.3849 0.3929
C2 C 0.06143(13) 0.46501(13) 0.29448(9)
C3 C 0.00874(13) 0.55627(12) 0.18490(9)
H4 H 0.0331 0.6185 0.2078
C4 C 0.10014(12) 0.51076(11) 0.13734(9)
C5 C 0.18718(13) 0.56916(11) 0.10532(9)
C6 C 0.25646(12) 0.53146(11) 0.03831(9)
C7 C 0.34734(12) 0.46969(11) 0.07709(9)
H5 H 0.3151 0.4274 0.1177
C8 C 0.40552(12) 0.40880(11) 0.01889(9)
H6 H 0.4422 0.4420 -0.0212
C9 C 0.41125(13) 0.31310(11) 0.01749(9)
C10 C 0.35919(13) 0.24959(12) 0.07819(10)
H7 H 0.3252 0.1942 0.0519
H8 H 0.3017 0.2865 0.1041
C11 C 0.43749(14) 0.21130(12) 0.14058(9)
H9 H 0.3955 0.1805 0.1824
H10 H 0.4838 0.1614 0.1171
C12 C 0.50801(14) 0.28873(13) 0.17549(9)
C13 C 0.61385(14) 0.30461(14) 0.13625(10)
H11 H 0.6545 0.3537 0.1644
H12 H 0.6017 0.3262 0.0830
H13 H 0.6545 0.2443 0.1357
C14 C 0.24367(12) 0.64111(11) 0.13798(9)
C15 C 0.34867(13) 0.64200(12) 0.09353(9)
H14 H 0.3888 0.7041 0.0970
C16 C 0.41646(13) 0.55106(11) 0.11745(9)
C17 C 0.42221(13) 0.54105(12) 0.20638(9)
H15 H 0.4454 0.6036 0.2280
H16 H 0.3488 0.5286 0.2258
C18 C 0.49636(13) 0.46289(13) 0.23875(9)
H17 H 0.5681 0.4698 0.2148
H18 H 0.5046 0.4728 0.2952
C19 C 0.45620(13) 0.36219(12) 0.22459(9)
H19 H 0.3767 0.3551 0.2290
C20 C 0.47020(13) 0.25883(12) -0.04633(9)
H20 H 0.5099 0.2048 -0.0212
C21 C 0.38924(15) 0.21428(15) -0.10264(11)
H21 H 0.3468 0.2653 -0.1268
H22 H 0.3415 0.1707 -0.0743
H23 H 0.4276 0.1783 -0.1427
C22 C 0.55180(15) 0.31798(14) -0.09137(11)
H24 H 0.5144 0.3667 -0.1222
H25 H 0.5927 0.2757 -0.1258
H26 H 0.6008 0.3496 -0.0551
C23 C 0.52882(13) 0.56450(13) 0.08309(10)
H27 H 0.5670 0.6145 0.1120
H28 H 0.5227 0.5837 0.0287
H29 H 0.5686 0.5039 0.0866
C24 C 0.19576(13) 0.49094(12) -0.03103(9)
H30 H 0.2432 0.4891 -0.0769
H31 H 0.1717 0.4246 -0.0198
C25 C 0.09988(13) 0.55462(12) -0.04695(8)
C26 C 0.00275(13) 0.52916(12) -0.02129(9)
H32 H -0.0087 0.4633 -0.0094
C27 C -0.08940(13) 0.59681(12) -0.00993(10)
H33 H -0.0856 0.6485 -0.0500
C28 C -0.21715(15) 0.52565(15) -0.09262(11)
H34 H -0.2204 0.5842 -0.1241
H35 H -0.2868 0.4931 -0.0940
H36 H -0.1619 0.4827 -0.1134
C29 C -0.08369(14) 0.64300(13) 0.07060(10)
H37 H -0.1408 0.6921 0.0746
H38 H -0.0140 0.6764 0.0758
C30 C -0.09593(13) 0.57136(13) 0.13900(10)
H39 H -0.1182 0.5078 0.1172
C31 C -0.18448(15) 0.60572(18) 0.19410(12)
H40 H -0.1941 0.5585 0.2357
H41 H -0.2518 0.6127 0.1654
H42 H -0.1642 0.6678 0.2165
C32 C 0.12408(14) 0.65170(13) -0.08170(11)
H43 H 0.0600 0.6763 -0.1079
H44 H 0.1826 0.6455 -0.1192
H45 H 0.1453 0.6963 -0.0406
C33 C 0.22577(14) 0.70202(12) 0.20817(10)
H46 H 0.1638 0.7440 0.1996
H47 H 0.2896 0.7414 0.2178
H48 H 0.2122 0.6606 0.2530
loop_
_geom_bond_atom_site_label_1
_geom_bond_atom_site_label_2
_geom_bond_site_symmetry_1
_geom_bond_site_symmetry_2
O1 C2 1_555 1_555
O2 C4 1_555 1_555
O3 C6 1_555 1_555
O4 C12 1_555 1_555
O5 C27 1_555 1_555
O6 C2 1_555 1_555
C1 H1 1_555 1_555
H2 C1 1_555 1_555
H3 C1 1_555 1_555
C2 C1 1_555 1_555
C3 O1 1_555 1_555
H4 C3 1_555 1_555
C4 C3 1_555 1_555
C5 C4 1_555 1_555
C6 C5 1_555 1_555
C7 C6 1_555 1_555
H5 C7 1_555 1_555
C8 C7 1_555 1_555
H6 C8 1_555 1_555
C9 C8 1_555 1_555
C10 C9 1_555 1_555
H7 C10 1_555 1_555
H8 C10 1_555 1_555
C11 C10 1_555 1_555
H9 C11 1_555 1_555
H10 C11 1_555 1_555
C12 C11 1_555 1_555
C13 C12 1_555 1_555
H11 C13 1_555 1_555
H12 C13 1_555 1_555
H13 C13 1_555 1_555
C14 C5 1_555 1_555
C15 O3 1_555 1_555
H14 C15 1_555 1_555
C16 C7 1_555 1_555
C17 C16 1_555 1_555
H15 C17 1_555 1_555
H16 C17 1_555 1_555
C18 C17 1_555 1_555
H17 C18 1_555 1_555
H18 C18 1_555 1_555
C19 O4 1_555 1_555
H19 C19 1_555 1_555
C20 C9 1_555 1_555
H20 C20 1_555 1_555
C21 C20 1_555 1_555
H21 C21 1_555 1_555
H22 C21 1_555 1_555
H23 C21 1_555 1_555
C22 C20 1_555 1_555
H24 C22 1_555 1_555
H25 C22 1_555 1_555
H26 C22 1_555 1_555
C23 C16 1_555 1_555
H27 C23 1_555 1_555
H28 C23 1_555 1_555
H29 C23 1_555 1_555
C24 C6 1_555 1_555
H30 C24 1_555 1_555
H31 C24 1_555 1_555
C25 C24 1_555 1_555
C26 C25 1_555 1_555
H32 C26 1_555 1_555
C27 C26 1_555 1_555
H33 C27 1_555 1_555
C28 O5 1_555 1_555
H34 C28 1_555 1_555
H35 C28 1_555 1_555
H36 C28 1_555 1_555
C29 C27 1_555 1_555
H37 C29 1_555 1_555
H38 C29 1_555 1_555
C30 C3 1_555 1_555
H39 C30 1_555 1_555
C31 C30 1_555 1_555
H40 C31 1_555 1_555
H41 C31 1_555 1_555
H42 C31 1_555 1_555
C32 C25 1_555 1_555
H43 C32 1_555 1_555
H44 C32 1_555 1_555
H45 C32 1_555 1_555
C33 C14 1_555 1_555
H46 C33 1_555 1_555
H47 C33 1_555 1_555
H48 C33 1_555 1_555
C12 C19 1_555 1_555
C14 C15 1_555 1_555
C15 C16 1_555 1_555
C18 C19 1_555 1_555
C29 C30 1_555 1_555

#END
