
#######################################################################
#
#                 Cambridge Crystallographic Data Centre
#                                CCDC 
#
#######################################################################
#
# If this CIF has been generated from an entry in the Cambridge 
# Structural Database, then it will include bibliographic, chemical, 
# crystal, experimental, refinement or atomic coordinate data resulting 
# from the CCDC's data processing and validation procedures.
#
#######################################################################

data_JEVKEB
_chemical_formula_moiety         'C21 H17 N1 O1'
_chemical_name_systematic        2-Ethoxy-6-phenylphenanthridine
_symmetry_cell_setting           monoclinic
_symmetry_space_group_name_H-M   'P 21/c'
_symmetry_Int_Tables_number      14
_space_group_name_Hall           '-P 2ybc'
loop_
_symmetry_equiv_pos_site_id
_symmetry_equiv_pos_as_xyz
1 x,y,z
2 -x,1/2+y,1/2-z
3 -x,-y,-z
4 x,1/2-y,1/2+z
_cell_length_a                   9.3549(10)
_cell_length_b                   15.5649(17)
_cell_length_c                   11.7440(13)
_cell_angle_alpha                90
_cell_angle_beta                 112.690(2)
_cell_angle_gamma                90
_cell_volume                     1577.67
_exptl_crystal_colour            colorless
_exptl_crystal_description       prismatic
_chemical_melting_point          '161-162 deg.C'
_cell_formula_units_Z            4
loop_
_atom_site_label
_atom_site_type_symbol
_atom_site_fract_x
_atom_site_fract_y
_atom_site_fract_z
O1 O 0.35834(11) 0.43376(6) 0.36766(10)
N1 N 0.62284(12) 0.14008(7) 0.62601(10)
C1 C 0.83688(14) 0.14463(8) 0.55874(11)
C2 C 0.97307(16) 0.10744(10) 0.55648(14)
C3 C 1.04430(18) 0.14087(10) 0.48503(15)
C4 C 0.98260(16) 0.21257(10) 0.41187(14)
C5 C 0.85125(16) 0.25058(9) 0.41223(13)
C6 C 0.77536(14) 0.21794(8) 0.48579(11)
C7 C 0.63438(14) 0.25481(8) 0.48713(11)
C8 C 0.56460(14) 0.21406(8) 0.55895(11)
C9 C 0.75185(15) 0.10773(8) 0.62701(11)
C10 C 0.56475(15) 0.32904(9) 0.41986(13)
C11 C 0.43198(15) 0.36138(9) 0.42638(13)
C12 C 0.36342(16) 0.32070(9) 0.49880(14)
C13 C 0.42829(16) 0.24859(9) 0.56348(14)
C14 C 0.80238(15) 0.02593(9) 0.69757(12)
C15 C 0.9464(2) 0.01661(12) 0.79272(14)
C16 C 0.9858(2) -0.06163(14) 0.85544(17)
C17 C 0.8851(2) -0.12936(13) 0.82287(17)
C18 C 0.7430(2) -0.12052(10) 0.73007(16)
C19 C 0.70124(18) -0.04324(9) 0.66775(14)
C20 C 0.43308(18) 0.48376(9) 0.30423(14)
H1 H 0.4425 0.4505 0.2376
H2 H 0.5361 0.5002 0.3606
C21 C 0.33687(19) 0.56179(10) 0.25400(16)
H3 H 0.2381 0.5450 0.1934
H4 H 0.3886 0.5986 0.2164
H5 H 0.3220 0.5920 0.3198
H6 H 1.0174(17) 0.0597(9) 0.6065(14)
H7 H 1.1372(18) 0.1131(9) 0.4862(13)
H8 H 1.0320(17) 0.2325(9) 0.3577(13)
H9 H 0.8115(14) 0.3021(9) 0.3608(11)
H10 H 0.6088(14) 0.3545(8) 0.3686(12)
H11 H 0.2745(17) 0.3455(9) 0.5020(13)
H12 H 0.3825(16) 0.2203(9) 0.6142(13)
H13 H 1.0121(18) 0.0645(10) 0.8117(14)
H14 H 1.088(2) -0.0619(10) 0.9209(17)
H15 H 0.912(2) -0.1862(12) 0.8680(17)
H16 H 0.6692(19) -0.1701(11) 0.7093(14)
H17 H 0.5993(19) -0.0370(9) 0.6007(14)
loop_
_geom_bond_atom_site_label_1
_geom_bond_atom_site_label_2
_geom_bond_site_symmetry_1
_geom_bond_site_symmetry_2
O1 C11 1_555 1_555
N1 C8 1_555 1_555
C1 C2 1_555 1_555
C2 C3 1_555 1_555
C3 C4 1_555 1_555
C4 C5 1_555 1_555
C5 C6 1_555 1_555
C6 C1 1_555 1_555
C7 C6 1_555 1_555
C8 C7 1_555 1_555
C9 N1 1_555 1_555
C10 C7 1_555 1_555
C11 C10 1_555 1_555
C12 C11 1_555 1_555
C13 C8 1_555 1_555
C14 C9 1_555 1_555
C15 C14 1_555 1_555
C16 C15 1_555 1_555
C17 C16 1_555 1_555
C18 C17 1_555 1_555
C19 C14 1_555 1_555
C20 O1 1_555 1_555
H1 C20 1_555 1_555
H2 C20 1_555 1_555
C21 C20 1_555 1_555
H3 C21 1_555 1_555
H4 C21 1_555 1_555
H5 C21 1_555 1_555
H6 C2 1_555 1_555
H7 C3 1_555 1_555
H8 C4 1_555 1_555
H9 C5 1_555 1_555
H10 C10 1_555 1_555
H11 C12 1_555 1_555
H12 C13 1_555 1_555
H13 C15 1_555 1_555
H14 C16 1_555 1_555
H15 C17 1_555 1_555
H16 C18 1_555 1_555
H17 C19 1_555 1_555
C1 C9 1_555 1_555
C12 C13 1_555 1_555
C18 C19 1_555 1_555

#END
