
#######################################################################
#
#                 Cambridge Crystallographic Data Centre
#                                CCDC 
#
#######################################################################
#
# If this CIF has been generated from an entry in the Cambridge 
# Structural Database, then it will include bibliographic, chemical, 
# crystal, experimental, refinement or atomic coordinate data resulting 
# from the CCDC's data processing and validation procedures.
#
#######################################################################

data_JEVMIJ
_chemical_name_common            'C-(propyl-3-ol)pyrogallol[4]arene trihydrate'
_chemical_formula_moiety         'C40 H48 O16,3(H2 O1)'
_chemical_name_systematic        
'2,8,14,20-tetrakis(3-hydroxypropyl)-4,5,6,10,11,12,16,17,18,22,23,24-dodecahydroxycalix(4)arene trihydrate'
_symmetry_cell_setting           triclinic
_symmetry_space_group_name_H-M   'P -1'
_symmetry_Int_Tables_number      2
_space_group_name_Hall           '-P 1'
loop_
_symmetry_equiv_pos_site_id
_symmetry_equiv_pos_as_xyz
1 x,y,z
2 -x,-y,-z
_cell_length_a                   12.0989(13)
_cell_length_b                   13.2391(14)
_cell_length_c                   13.9143(15)
_cell_angle_alpha                86.336(3)
_cell_angle_beta                 64.911(3)
_cell_angle_gamma                79.216(3)
_cell_volume                     1982.54
_exptl_crystal_colour            colorless
_exptl_crystal_description       Plate
_cell_formula_units_Z            2
loop_
_atom_site_label
_atom_site_type_symbol
_atom_site_fract_x
_atom_site_fract_y
_atom_site_fract_z
O1 O 0.9092(2) 0.94344(17) 0.46219(17)
H1 H 0.9700 0.9691 0.4196
C1 C 0.6545(3) 0.8949(2) 0.4057(2)
H2 H 0.6046 0.8437 0.4184
O2 O 0.8730(2) 1.11693(17) 0.35376(18)
H3 H 0.8861 1.1449 0.2950
C2 C 0.7451(3) 0.8802(2) 0.4445(2)
O3 O 0.6949(2) 1.14750(16) 0.28083(18)
H4 H 0.6437 1.1468 0.2549
C3 C 0.8193(3) 0.9556(2) 0.4238(2)
O4 O 0.5694(2) 1.16079(16) 0.15767(17)
H5 H 0.5884 1.2052 0.1103
C4 C 0.7993(3) 1.0438(2) 0.3693(2)
O5 O 0.6948(2) 1.13584(17) -0.06055(18)
H6 H 0.7679 1.1470 -0.0880
C5 C 0.7064(3) 1.0571(2) 0.3333(2)
O6 O 0.8114(2) 0.93310(17) -0.14667(17)
H7 H 0.8006 0.9862 -0.1804
C6 C 0.6338(3) 0.9817(2) 0.3490(2)
O7 O 1.0224(2) 0.81040(18) -0.14530(18)
H8 H 0.9532 0.8400 -0.1423
C7 C 0.5395(3) 0.9951(2) 0.3009(2)
H9 H 0.4951 1.0680 0.3150
O8 O 1.2236(2) 0.7259(2) -0.1105(2)
H10 H 1.2166 0.7678 -0.1564
C8 C 0.6613(3) 0.8825(2) 0.1352(2)
H11 H 0.6535 0.8250 0.1806
O9 O 1.2108(2) 0.59267(18) 0.04528(18)
H12 H 1.2656 0.6276 0.0097
C9 C 0.6086(3) 0.9807(2) 0.1803(2)
O10 O 1.2061(2) 0.51656(17) 0.23088(17)
H13 H 1.2155 0.5247 0.1677
C10 C 0.6213(3) 1.0640(2) 0.1124(2)
O11 O 1.2143(2) 0.61883(18) 0.38558(18)
H14 H 1.2054 0.6487 0.4405
C11 C 0.6878(3) 1.0507(2) 0.0030(2)
O12 O 1.0118(2) 0.75149(17) 0.52211(18)
H15 H 0.9747 0.8127 0.5279
C12 C 0.7391(3) 0.9510(2) -0.0399(2)
O13 O 0.1512(2) 0.93074(18) 0.30328(18)
H16 H 0.1299 0.8841 0.2802
C13 C 0.7253(3) 0.8655(2) 0.0253(2)
O14 O 0.4317(2) 0.65150(17) -0.06180(18)
H17 H 0.4702 0.6084 -0.1120
C14 C 0.7789(3) 0.7565(2) -0.0194(2)
H18 H 0.8081 0.7610 -0.0982
O15 O 0.7265(2) 0.30561(18) 0.46973(18)
H19 H 0.7716 0.2486 0.4452
C15 C 0.8865(3) 0.6448(2) 0.0832(2)
H20 H 0.8090 0.6260 0.1280
O16 O 0.5621(2) 0.52430(18) 0.76212(19)
H21 H 0.6306 0.5189 0.7667
C16 C 0.8922(3) 0.7132(2) 0.0012(2)
C17 C 1.0047(3) 0.7420(2) -0.0624(2)
C18 C 1.1106(3) 0.7012(2) -0.0470(2)
C19 C 1.1034(3) 0.6319(2) 0.0342(2)
C20 C 0.9904(3) 0.6032(2) 0.1018(2)
C21 C 0.9828(3) 0.5329(2) 0.1948(2)
H22 H 1.0563 0.4761 0.1685
C22 C 0.8880(3) 0.6612(2) 0.3490(2)
H23 H 0.8146 0.6721 0.3377
C23 C 0.9911(3) 0.5926(2) 0.2813(2)
C24 C 1.0997(3) 0.5804(2) 0.2967(2)
C25 C 1.1038(3) 0.6342(2) 0.3778(2)
C26 C 0.9985(3) 0.7007(2) 0.4449(2)
C27 C 0.8881(3) 0.7141(2) 0.4320(2)
C28 C 0.7698(3) 0.7850(2) 0.5046(2)
H24 H 0.7849 0.8081 0.5643
C29 C 0.4402(3) 0.9264(2) 0.3473(2)
H25 H 0.4792 0.8538 0.3270
H26 H 0.4017 0.9323 0.4257
C30 C 0.3406(3) 0.9590(2) 0.3056(3)
H27 H 0.2948 1.0285 0.3343
H28 H 0.3814 0.9633 0.2274
C31 C 0.2494(3) 0.8860(2) 0.3354(3)
H29 H 0.2918 0.8186 0.2991
H30 H 0.2141 0.8752 0.4129
C32 C 0.6817(3) 0.6860(2) 0.0195(2)
H31 H 0.7240 0.6135 0.0033
H32 H 0.6345 0.6939 0.0975
C33 C 0.5927(3) 0.7114(2) -0.0330(3)
H33 H 0.5516 0.7843 -0.0179
H34 H 0.6398 0.7024 -0.1109
C34 C 0.4955(3) 0.6437(3) 0.0061(3)
H35 H 0.5353 0.5714 0.0072
H36 H 0.4352 0.6647 0.0795
C35 C 0.8651(3) 0.4836(2) 0.2408(2)
H37 H 0.7912 0.5387 0.2686
H38 H 0.8609 0.4467 0.1831
C36 C 0.8615(3) 0.4081(3) 0.3300(3)
H39 H 0.9270 0.3469 0.3003
H40 H 0.8783 0.4413 0.3831
C37 C 0.7354(3) 0.3750(3) 0.3839(3)
H41 H 0.6703 0.4368 0.4116
H42 H 0.7198 0.3411 0.3306
C38 C 0.6589(3) 0.7281(2) 0.5535(2)
H43 H 0.5816 0.7789 0.5870
H44 H 0.6530 0.6917 0.4963
C39 C 0.6702(3) 0.6507(2) 0.6362(3)
H45 H 0.7505 0.6029 0.6047
H46 H 0.6683 0.6874 0.6969
C40 C 0.5644(3) 0.5901(3) 0.6751(3)
H47 H 0.4847 0.6388 0.6978
H48 H 0.5725 0.5476 0.6157
O17 O 0.4854(4) 0.3532(3) 0.6739(4)
O18 O 0.0695(3) 0.8281(2) 0.1870(2)
O19 O -0.0709(3) 0.9615(3) 0.1032(3)
loop_
_geom_bond_atom_site_label_1
_geom_bond_atom_site_label_2
_geom_bond_site_symmetry_1
_geom_bond_site_symmetry_2
O1 H1 1_555 1_555
C1 H2 1_555 1_555
O2 H3 1_555 1_555
C2 C1 1_555 1_555
O3 H4 1_555 1_555
C3 O1 1_555 1_555
O4 H5 1_555 1_555
C4 O2 1_555 1_555
O5 H6 1_555 1_555
C5 O3 1_555 1_555
O6 H7 1_555 1_555
C6 C1 1_555 1_555
O7 H8 1_555 1_555
C7 C6 1_555 1_555
H9 C7 1_555 1_555
O8 H10 1_555 1_555
C8 H11 1_555 1_555
O9 H12 1_555 1_555
C9 C7 1_555 1_555
O10 H13 1_555 1_555
C10 O4 1_555 1_555
O11 H14 1_555 1_555
C11 O5 1_555 1_555
O12 H15 1_555 1_555
C12 O6 1_555 1_555
O13 H16 1_555 1_555
C13 C8 1_555 1_555
O14 H17 1_555 1_555
C14 C13 1_555 1_555
H18 C14 1_555 1_555
O15 H19 1_555 1_555
C15 H20 1_555 1_555
O16 H21 1_555 1_555
C16 C14 1_555 1_555
C17 O7 1_555 1_555
C18 O8 1_555 1_555
C19 O9 1_555 1_555
C20 C15 1_555 1_555
C21 C20 1_555 1_555
H22 C21 1_555 1_555
C22 H23 1_555 1_555
C23 C21 1_555 1_555
C24 O10 1_555 1_555
C25 O11 1_555 1_555
C26 O12 1_555 1_555
C27 C22 1_555 1_555
C28 C2 1_555 1_555
H24 C28 1_555 1_555
C29 C7 1_555 1_555
H25 C29 1_555 1_555
H26 C29 1_555 1_555
C30 C29 1_555 1_555
H27 C30 1_555 1_555
H28 C30 1_555 1_555
C31 O13 1_555 1_555
H29 C31 1_555 1_555
H30 C31 1_555 1_555
C32 C14 1_555 1_555
H31 C32 1_555 1_555
H32 C32 1_555 1_555
C33 C32 1_555 1_555
H33 C33 1_555 1_555
H34 C33 1_555 1_555
C34 O14 1_555 1_555
H35 C34 1_555 1_555
H36 C34 1_555 1_555
C35 C21 1_555 1_555
H37 C35 1_555 1_555
H38 C35 1_555 1_555
C36 C35 1_555 1_555
H39 C36 1_555 1_555
H40 C36 1_555 1_555
C37 O15 1_555 1_555
H41 C37 1_555 1_555
H42 C37 1_555 1_555
C38 C28 1_555 1_555
H43 C38 1_555 1_555
H44 C38 1_555 1_555
C39 C38 1_555 1_555
H45 C39 1_555 1_555
H46 C39 1_555 1_555
C40 O16 1_555 1_555
H47 C40 1_555 1_555
H48 C40 1_555 1_555
C2 C3 1_555 1_555
C3 C4 1_555 1_555
C4 C5 1_555 1_555
C5 C6 1_555 1_555
C8 C9 1_555 1_555
C9 C10 1_555 1_555
C10 C11 1_555 1_555
C11 C12 1_555 1_555
C12 C13 1_555 1_555
C15 C16 1_555 1_555
C16 C17 1_555 1_555
C17 C18 1_555 1_555
C18 C19 1_555 1_555
C19 C20 1_555 1_555
C22 C23 1_555 1_555
C23 C24 1_555 1_555
C24 C25 1_555 1_555
C25 C26 1_555 1_555
C26 C27 1_555 1_555
C27 C28 1_555 1_555
C30 C31 1_555 1_555
C33 C34 1_555 1_555
C36 C37 1_555 1_555
C39 C40 1_555 1_555

#END
