
#######################################################################
#
#                 Cambridge Crystallographic Data Centre
#                                CCDC 
#
#######################################################################
#
# If this CIF has been generated from an entry in the Cambridge 
# Structural Database, then it will include bibliographic, chemical, 
# crystal, experimental, refinement or atomic coordinate data resulting 
# from the CCDC's data processing and validation procedures.
#
#######################################################################

data_JEVNUW
_chemical_formula_moiety         'C24 H18 N1 P1 Se1'
_chemical_name_systematic        9-(diphenylphosphoroselenoyl)-9H-carbazole
_symmetry_cell_setting           triclinic
_symmetry_space_group_name_H-M   'P -1'
_symmetry_Int_Tables_number      2
_space_group_name_Hall           '-P 1'
loop_
_symmetry_equiv_pos_site_id
_symmetry_equiv_pos_as_xyz
1 x,y,z
2 -x,-y,-z
_cell_length_a                   9.689(3)
_cell_length_b                   9.904(3)
_cell_length_c                   11.312(4)
_cell_angle_alpha                95.848(7)
_cell_angle_beta                 101.924(7)
_cell_angle_gamma                111.026(6)
_cell_volume                     972.773
_exptl_crystal_description       block
_cell_formula_units_Z            2
loop_
_atom_site_label
_atom_site_type_symbol
_atom_site_fract_x
_atom_site_fract_y
_atom_site_fract_z
C1 C 0.7545(2) 0.3830(2) 0.17068(17)
C2 C 0.8974(2) 0.4481(2) 0.1488(2)
H1 H 0.9465 0.5501 0.1607
C3 C 0.9643(3) 0.3561(3) 0.1087(2)
H2 H 1.0597 0.3974 0.0929
C4 C 0.8926(3) 0.2040(3) 0.0914(2)
H3 H 0.9403 0.1449 0.0643
C5 C 0.7517(3) 0.1398(3) 0.1138(2)
H4 H 0.7040 0.0378 0.1025
C6 C 0.6811(2) 0.2299(2) 0.15397(18)
C7 C 0.5385(2) 0.1991(2) 0.18664(18)
C8 C 0.4220(3) 0.0670(3) 0.1863(2)
H5 H 0.4303 -0.0221 0.1635
C9 C 0.2951(3) 0.0687(3) 0.2197(3)
H6 H 0.2161 -0.0195 0.2188
C10 C 0.2834(3) 0.2020(3) 0.2551(2)
H7 H 0.1962 0.2013 0.2777
C11 C 0.3984(2) 0.3357(2) 0.2576(2)
H8 H 0.3900 0.4243 0.2824
C12 C 0.5265(2) 0.3337(2) 0.22184(16)
C13 C 0.4333(2) 0.6673(2) 0.1806(2)
H9 H 0.4330 0.6509 0.0981
C14 C 0.3116(3) 0.6876(3) 0.2133(3)
H10 H 0.2290 0.6844 0.1524
C15 C 0.3112(3) 0.7125(3) 0.3349(3)
H11 H 0.2273 0.7233 0.3558
C16 C 0.4350(3) 0.7215(3) 0.4261(3)
H12 H 0.4361 0.7418 0.5084
C17 C 0.5573(3) 0.7002(3) 0.3948(2)
H13 H 0.6402 0.7053 0.4563
C18 C 0.5568(2) 0.6714(2) 0.27193(18)
C19 C 0.8918(3) 0.6384(3) 0.4522(2)
H14 H 0.8191 0.5453 0.4491
C20 C 1.0190(3) 0.7054(4) 0.5542(2)
H15 H 1.0305 0.6574 0.6198
C21 C 1.1268(3) 0.8424(3) 0.5573(2)
H16 H 1.2114 0.8864 0.6251
C22 C 1.1111(3) 0.9137(3) 0.4626(2)
H17 H 1.1853 1.0060 0.4657
C23 C 0.9854(2) 0.8503(2) 0.3610(2)
H18 H 0.9750 0.9004 0.2967
C24 C 0.8752(2) 0.7123(2) 0.35553(17)
N1 N 0.66108(18) 0.44984(17) 0.21244(16)
P1 P 0.70870(5) 0.63536(5) 0.22424(4)
Se1 Se 0.74568(3) 0.71441(3) 0.064571(19)
loop_
_geom_bond_atom_site_label_1
_geom_bond_atom_site_label_2
_geom_bond_site_symmetry_1
_geom_bond_site_symmetry_2
C1 C2 1_555 1_555
C2 H1 1_555 1_555
C3 C2 1_555 1_555
H2 C3 1_555 1_555
C4 C3 1_555 1_555
H3 C4 1_555 1_555
C5 C4 1_555 1_555
H4 C5 1_555 1_555
C6 C1 1_555 1_555
C7 C6 1_555 1_555
C8 C7 1_555 1_555
H5 C8 1_555 1_555
C9 C8 1_555 1_555
H6 C9 1_555 1_555
C10 C9 1_555 1_555
H7 C10 1_555 1_555
C11 C10 1_555 1_555
H8 C11 1_555 1_555
C12 C7 1_555 1_555
C13 H9 1_555 1_555
C14 C13 1_555 1_555
H10 C14 1_555 1_555
C15 C14 1_555 1_555
H11 C15 1_555 1_555
C16 C15 1_555 1_555
H12 C16 1_555 1_555
C17 C16 1_555 1_555
H13 C17 1_555 1_555
C18 C13 1_555 1_555
C19 H14 1_555 1_555
C20 C19 1_555 1_555
H15 C20 1_555 1_555
C21 C20 1_555 1_555
H16 C21 1_555 1_555
C22 C21 1_555 1_555
H17 C22 1_555 1_555
C23 C22 1_555 1_555
H18 C23 1_555 1_555
C24 C19 1_555 1_555
N1 C1 1_555 1_555
P1 C18 1_555 1_555
Se1 P1 1_555 1_555
C5 C6 1_555 1_555
C11 C12 1_555 1_555
C12 N1 1_555 1_555
C17 C18 1_555 1_555
C23 C24 1_555 1_555
C24 P1 1_555 1_555
N1 P1 1_555 1_555

#END
