
#######################################################################
#
#                 Cambridge Crystallographic Data Centre
#                                CCDC 
#
#######################################################################
#
# If this CIF has been generated from an entry in the Cambridge 
# Structural Database, then it will include bibliographic, chemical, 
# crystal, experimental, refinement or atomic coordinate data resulting 
# from the CCDC's data processing and validation procedures.
#
#######################################################################

data_JEVPAC
_chemical_formula_moiety         'C11 H15 N3 O6 S1'
_chemical_name_systematic        
1-((4aS,5R,7R,7aS)-7-Hydroxymethyl-3,4,4a,5,7,7a-hexahydro-2H-furo(3,4-b)(1,4)thiazin-5-yl)pyrimidine-2,4(1H,3H)-dione
_symmetry_cell_setting           monoclinic
_symmetry_space_group_name_H-M   'P 21'
_symmetry_Int_Tables_number      4
_space_group_name_Hall           'P 2yb'
loop_
_symmetry_equiv_pos_site_id
_symmetry_equiv_pos_as_xyz
1 x,y,z
2 -x,1/2+y,-z
_cell_length_a                   5.365(4)
_cell_length_b                   7.130(5)
_cell_length_c                   17.272(14)
_cell_angle_alpha                90
_cell_angle_beta                 90.39(3)
_cell_angle_gamma                90
_cell_volume                     660.681
_exptl_crystal_colour            yellow
_exptl_crystal_description       block
_chemical_melting_point          '556 K'
_cell_formula_units_Z            2
_exptl_crystal_recrystallization_method ethanol/methanol
loop_
_atom_site_label
_atom_site_type_symbol
_atom_site_fract_x
_atom_site_fract_y
_atom_site_fract_z
C1 C 0.3008(6) 0.6096(5) 0.44793(17)
H1 H 0.2569 0.6066 0.5023
H2 H 0.4809 0.6033 0.4442
C2 C 0.2082(7) 0.7915(5) 0.41178(18)
H3 H 0.0280 0.7980 0.4153
H4 H 0.2780 0.8976 0.4395
C3 C 0.1468(5) 0.6731(4) 0.28073(15)
H5 H -0.0330 0.6975 0.2811
C4 C 0.2091(5) 0.4684(4) 0.30068(13)
H6 H 0.0963 0.3878 0.2707
C5 C 0.4701(5) 0.4478(4) 0.26694(14)
H7 H 0.5905 0.5082 0.3018
C6 C 0.5595(6) 0.2522(5) 0.2487(2)
H8 H 0.7177 0.2599 0.2221
H9 H 0.5867 0.1846 0.2968
C7 C 0.2559(5) 0.6850(4) 0.19947(15)
H10 H 0.3213 0.8116 0.1909
C8 C -0.0936(6) 0.7862(5) 0.11944(16)
C9 C -0.3022(5) 0.5742(5) 0.02851(17)
C10 C -0.1437(5) 0.4255(5) 0.05607(15)
H11 H -0.1639 0.3038 0.0377
C11 C 0.0351(6) 0.4655(4) 0.10904(16)
H12 H 0.1414 0.3702 0.1255
N1 N 0.2828(5) 0.7987(4) 0.33098(14)
H13 H 0.268(6) 0.933(6) 0.3147(19)
N2 N 0.0651(4) 0.6418(3) 0.13930(13)
N3 N -0.2647(5) 0.7443(3) 0.06297(13)
H14 H -0.3586 0.8348 0.0475
O1 O 0.2997(5) 0.2479(3) 0.41942(14)
O2 O -0.0974(3) 0.4193(4) 0.41179(11)
O3 O 0.3924(5) 0.1539(4) 0.20339(18)
H15 H 0.2590 0.1454 0.2260
O4 O 0.4522(4) 0.5556(3) 0.19615(11)
O5 O -0.0845(5) 0.9396(4) 0.15042(14)
O6 O -0.4626(5) 0.5599(4) -0.02287(15)
S1 S 0.16726(12) 0.41612(10) 0.40024(4)
loop_
_geom_bond_atom_site_label_1
_geom_bond_atom_site_label_2
_geom_bond_site_symmetry_1
_geom_bond_site_symmetry_2
C1 H1 1_555 1_555
H2 C1 1_555 1_555
C2 C1 1_555 1_555
H3 C2 1_555 1_555
H4 C2 1_555 1_555
C3 H5 1_555 1_555
C4 C3 1_555 1_555
H6 C4 1_555 1_555
C5 C4 1_555 1_555
H7 C5 1_555 1_555
C6 C5 1_555 1_555
H8 C6 1_555 1_555
H9 C6 1_555 1_555
C7 C3 1_555 1_555
H10 C7 1_555 1_555
C8 N2 1_555 1_555
C9 C10 1_555 1_555
C10 H11 1_555 1_555
C11 C10 1_555 1_555
H12 C11 1_555 1_555
N1 C2 1_555 1_555
H13 N1 1_555 1_555
N2 C7 1_555 1_555
N3 C8 1_555 1_555
H14 N3 1_555 1_555
O1 S1 1_555 1_555
O2 S1 1_555 1_555
O3 C6 1_555 1_555
H15 O3 1_555 1_555
O4 C5 1_555 1_555
O5 C8 1_555 1_555
O6 C9 1_555 1_555
S1 C1 1_555 1_555
C3 N1 1_555 1_555
C4 S1 1_555 1_555
C7 O4 1_555 1_555
C9 N3 1_555 1_555
C11 N2 1_555 1_555

#END
