
#######################################################################
#
#                 Cambridge Crystallographic Data Centre
#                                CCDC 
#
#######################################################################
#
# If this CIF has been generated from an entry in the Cambridge 
# Structural Database, then it will include bibliographic, chemical, 
# crystal, experimental, refinement or atomic coordinate data resulting 
# from the CCDC's data processing and validation procedures.
#
#######################################################################

data_JEVPEI
_chemical_formula_moiety         'C30 H21 N2 P1 Se1'
_chemical_name_systematic        
9,9'-(phenylphosphoroselenoyl)bis(9H-carbazole)
_symmetry_cell_setting           triclinic
_symmetry_space_group_name_H-M   'P -1'
_symmetry_Int_Tables_number      2
_space_group_name_Hall           '-P 1'
loop_
_symmetry_equiv_pos_site_id
_symmetry_equiv_pos_as_xyz
1 x,y,z
2 -x,-y,-z
_cell_length_a                   9.5713(14)
_cell_length_b                   11.6043(17)
_cell_length_c                   12.0406(17)
_cell_angle_alpha                72.019(3)
_cell_angle_beta                 68.768(3)
_cell_angle_gamma                73.861(3)
_cell_volume                     1164.66
_exptl_crystal_description       block
_cell_formula_units_Z            2
loop_
_atom_site_label
_atom_site_type_symbol
_atom_site_fract_x
_atom_site_fract_y
_atom_site_fract_z
C1 C 0.2144(3) 0.1976(2) 0.1925(2)
C2 C 0.0744(3) 0.1625(3) 0.2264(3)
H1 H -0.0026 0.1787 0.2968
C3 C 0.0531(4) 0.1025(3) 0.1519(3)
H2 H -0.0405 0.0796 0.1726
C4 C 0.1673(4) 0.0754(3) 0.0475(3)
H3 H 0.1492 0.0356 -0.0008
C5 C 0.3070(4) 0.1075(3) 0.0156(3)
H4 H 0.3846 0.0879 -0.0531
C6 C 0.3309(3) 0.1699(2) 0.0874(2)
C7 C 0.4625(3) 0.2134(2) 0.0779(2)
C8 C 0.6067(3) 0.2128(3) -0.0082(3)
H5 H 0.6311 0.1822 -0.0771
C9 C 0.7132(4) 0.2585(3) 0.0110(3)
H6 H 0.8095 0.2595 -0.0461
C10 C 0.6773(3) 0.3024(3) 0.1139(4)
H7 H 0.7515 0.3305 0.1260
C11 C 0.5344(3) 0.3061(3) 0.1996(3)
H8 H 0.5119 0.3354 0.2691
C12 C 0.4253(3) 0.2644(2) 0.1784(2)
C13 C -0.0776(3) 0.4278(2) 0.2975(3)
C14 C -0.0099(4) 0.5011(3) 0.1857(3)
H9 H 0.0951 0.4971 0.1561
C15 C -0.1057(4) 0.5803(3) 0.1203(3)
H10 H -0.0637 0.6306 0.0449
C16 C -0.2630(4) 0.5871(3) 0.1639(4)
H11 H -0.3240 0.6423 0.1179
C17 C -0.3288(3) 0.5137(3) 0.2735(3)
H12 H -0.4340 0.5182 0.3023
C18 C -0.2353(3) 0.4316(2) 0.3414(3)
C19 C -0.2662(3) 0.3395(2) 0.4547(3)
C20 C -0.4022(3) 0.3025(3) 0.5344(3)
H13 H -0.4945 0.3407 0.5186
C21 C -0.3969(3) 0.2087(3) 0.6364(3)
H14 H -0.4867 0.1839 0.6911
C22 C -0.2586(3) 0.1506(3) 0.6586(3)
H15 H -0.2575 0.0870 0.7280
C23 C -0.1222(3) 0.1848(3) 0.5801(3)
H16 H -0.0301 0.1441 0.5952
C24 C -0.1267(3) 0.2813(2) 0.4787(2)
C25 C 0.2174(3) 0.2119(2) 0.4989(2)
C26 C 0.1898(3) 0.2472(3) 0.6070(3)
H17 H 0.1504 0.3290 0.6116
C27 C 0.2213(4) 0.1606(4) 0.7061(3)
H18 H 0.2011 0.1836 0.7787
C28 C 0.2828(4) 0.0392(4) 0.6993(3)
H19 H 0.3060 -0.0186 0.7664
C29 C 0.3097(4) 0.0040(3) 0.5934(3)
H20 H 0.3498 -0.0780 0.5895
C30 C 0.2775(3) 0.0899(3) 0.4921(3)
H21 H 0.2960 0.0659 0.4204
N1 N 0.2703(2) 0.2594(2) 0.2486(2)
N2 N -0.0085(2) 0.3369(2) 0.38258(19)
P1 P 0.17601(7) 0.32688(6) 0.36981(6)
Se1 Se 0.22665(3) 0.49568(3) 0.35172(3)
loop_
_geom_bond_atom_site_label_1
_geom_bond_atom_site_label_2
_geom_bond_site_symmetry_1
_geom_bond_site_symmetry_2
C1 C2 1_555 1_555
C2 H1 1_555 1_555
C3 C2 1_555 1_555
H2 C3 1_555 1_555
C4 C3 1_555 1_555
H3 C4 1_555 1_555
C5 C4 1_555 1_555
H4 C5 1_555 1_555
C6 C1 1_555 1_555
C7 C6 1_555 1_555
C8 C7 1_555 1_555
H5 C8 1_555 1_555
C9 C8 1_555 1_555
H6 C9 1_555 1_555
C10 C9 1_555 1_555
H7 C10 1_555 1_555
C11 C10 1_555 1_555
H8 C11 1_555 1_555
C12 C7 1_555 1_555
C13 C14 1_555 1_555
C14 H9 1_555 1_555
C15 C14 1_555 1_555
H10 C15 1_555 1_555
C16 C15 1_555 1_555
H11 C16 1_555 1_555
C17 C16 1_555 1_555
H12 C17 1_555 1_555
C18 C13 1_555 1_555
C19 C18 1_555 1_555
C20 C19 1_555 1_555
H13 C20 1_555 1_555
C21 C20 1_555 1_555
H14 C21 1_555 1_555
C22 C21 1_555 1_555
H15 C22 1_555 1_555
C23 C22 1_555 1_555
H16 C23 1_555 1_555
C24 C19 1_555 1_555
C25 C26 1_555 1_555
C26 H17 1_555 1_555
C27 C26 1_555 1_555
H18 C27 1_555 1_555
C28 C27 1_555 1_555
H19 C28 1_555 1_555
C29 C28 1_555 1_555
H20 C29 1_555 1_555
C30 C25 1_555 1_555
H21 C30 1_555 1_555
N1 C1 1_555 1_555
N2 C13 1_555 1_555
P1 C25 1_555 1_555
Se1 P1 1_555 1_555
C5 C6 1_555 1_555
C11 C12 1_555 1_555
C12 N1 1_555 1_555
C17 C18 1_555 1_555
C23 C24 1_555 1_555
C24 N2 1_555 1_555
C29 C30 1_555 1_555
N1 P1 1_555 1_555
N2 P1 1_555 1_555

#END
