
#######################################################################
#
#                 Cambridge Crystallographic Data Centre
#                                CCDC 
#
#######################################################################
#
# If this CIF has been generated from an entry in the Cambridge 
# Structural Database, then it will include bibliographic, chemical, 
# crystal, experimental, refinement or atomic coordinate data resulting 
# from the CCDC's data processing and validation procedures.
#
#######################################################################

data_JEVQUX
_chemical_name_common            'Adefovir dipivoxil dihydrate'
_chemical_formula_moiety         'C20 H32 N5 O8 P1,2(H2 O1)'
_chemical_name_systematic        
'9-(2-(bis(Pivaloyloxymethoxy)phosphinylmethoxy)ethyl)adenine dihydrate'
_chemical_properties_biological  
'adefovir dipivoxil has been used to treat adults with chronic hepatitis B'
_symmetry_cell_setting           triclinic
_symmetry_space_group_name_H-M   'P -1'
_symmetry_Int_Tables_number      2
_space_group_name_Hall           '-P 1'
loop_
_symmetry_equiv_pos_site_id
_symmetry_equiv_pos_as_xyz
1 x,y,z
2 -x,-y,-z
_cell_length_a                   6.0590(12)
_cell_length_b                   11.221(2)
_cell_length_c                   20.972(4)
_cell_angle_alpha                93.88(3)
_cell_angle_beta                 97.49(3)
_cell_angle_gamma                102.97(3)
_cell_volume                     1370.66
_exptl_crystal_colour            colorless
_exptl_crystal_description       block
_cell_formula_units_Z            2
_exptl_crystal_recrystallization_method ethanol/chloroform
loop_
_atom_site_label
_atom_site_type_symbol
_atom_site_fract_x
_atom_site_fract_y
_atom_site_fract_z
P1 P 0.75341(16) 0.97471(8) 0.23621(4)
O1 O 0.5946(5) 0.8015(3) 0.30524(14)
O2 O 0.9603(4) 1.0277(3) 0.28273(12)
O3 O 0.5472(4) 1.0370(2) 0.24088(13)
O4 O 0.6831(4) 1.2485(2) 0.26641(13)
O5 O 0.3871(5) 1.2529(3) 0.19149(19)
O6 O 0.7855(4) 0.9847(3) 0.16328(12)
O7 O 1.0203(5) 0.9437(2) 0.08986(12)
O8 O 1.0841(6) 0.7989(3) 0.15323(14)
N1 N 0.3901(5) 0.2943(3) 0.40129(14)
N2 N 0.2308(5) 0.4655(3) 0.37057(16)
N3 N 0.7956(5) 0.5952(3) 0.45640(15)
N4 N 0.4979(5) 0.6617(3) 0.40835(14)
N5 N 0.7522(5) 0.3167(3) 0.45867(15)
H1 H 0.7280 0.2380 0.4572
H2 H 0.8806 0.3621 0.4779
C1 C 0.5904(6) 0.3685(3) 0.43117(16)
C2 C 0.2279(7) 0.3469(4) 0.37362(19)
H3 H 0.0937 0.2923 0.3536
C3 C 0.4331(6) 0.5350(3) 0.40107(16)
C4 C 0.7140(7) 0.6912(3) 0.44195(18)
H4 H 0.7967 0.7718 0.4537
C5 C 0.6147(6) 0.4960(3) 0.43082(16)
C6 C 0.3599(7) 0.7461(4) 0.3851(2)
H5 H 0.4199 0.8264 0.4090
H6 H 0.2034 0.7162 0.3927
C7 C 0.3626(7) 0.7573(4) 0.3141(2)
H7 H 0.2985 0.6779 0.2895
H8 H 0.2720 0.8141 0.2994
C8 C 0.6271(7) 0.8168(3) 0.24040(19)
H9 H 0.4814 0.7923 0.2121
H10 H 0.7267 0.7663 0.2269
C9 C 0.5557(7) 1.1388(3) 0.2865(2)
H11 H 0.4015 1.1466 0.2900
H12 H 0.6271 1.1251 0.3287
C10 C 0.5739(7) 1.2998(3) 0.2189(2)
C11 C 0.7212(6) 1.4214(3) 0.20564(18)
C12 C 0.6020(8) 1.4683(5) 0.1465(2)
H13 H 0.5870 1.4111 0.1092
H14 H 0.6917 1.5470 0.1393
H15 H 0.4529 1.4762 0.1542
C13 C 0.9561(8) 1.4044(4) 0.1939(2)
H16 H 0.9389 1.3482 0.1560
H17 H 1.0255 1.3720 0.2305
H18 H 1.0514 1.4822 0.1878
C14 C 0.7479(8) 1.5118(4) 0.2660(2)
H19 H 0.6000 1.5226 0.2731
H20 H 0.8433 1.5896 0.2597
H21 H 0.8172 1.4799 0.3028
C15 C 1.0084(7) 1.0212(4) 0.1449(2)
H22 H 1.0366 1.1060 0.1350
H23 H 1.1242 1.0148 0.1802
C16 C 1.0733(7) 0.8336(4) 0.10061(19)
C17 C 1.1098(7) 0.7685(4) 0.0388(2)
C18 C 1.2884(8) 0.8558(5) 0.0072(2)
H24 H 1.4318 0.8775 0.0357
H25 H 1.2364 0.9288 -0.0011
H26 H 1.3085 0.8155 -0.0328
C19 C 0.8825(8) 0.7325(5) -0.0069(2)
H27 H 0.8318 0.8051 -0.0169
H28 H 0.7700 0.6801 0.0134
H29 H 0.9030 0.6895 -0.0460
C20 C 1.1993(11) 0.6558(5) 0.0550(3)
H30 H 1.3418 0.6811 0.0838
H31 H 1.2227 0.6137 0.0159
H32 H 1.0896 0.6016 0.0754
O9 O 0.1519(6) 0.0473(3) 0.41309(15)
H33 H 0.074(7) 0.026(4) 0.3769(11)
H34 H 0.259(6) 0.104(3) 0.409(2)
O10 O 0.7432(7) 0.0551(4) 0.4682(2)
H35 H 0.759(8) 0.030(5) 0.5042(13)
H36 H 0.860(5) 0.059(5) 0.452(2)
loop_
_geom_bond_atom_site_label_1
_geom_bond_atom_site_label_2
_geom_bond_site_symmetry_1
_geom_bond_site_symmetry_2
P1 O2 1_555 1_555
O1 C7 1_555 1_555
O3 P1 1_555 1_555
O4 C9 1_555 1_555
O5 C10 1_555 1_555
O6 P1 1_555 1_555
O7 C15 1_555 1_555
O8 C16 1_555 1_555
N1 C1 1_555 1_555
N2 C2 1_555 1_555
N3 C4 1_555 1_555
N4 C3 1_555 1_555
N5 H1 1_555 1_555
H2 N5 1_555 1_555
C1 N5 1_555 1_555
C2 N1 1_555 1_555
H3 C2 1_555 1_555
C3 N2 1_555 1_555
C4 N4 1_555 1_555
H4 C4 1_555 1_555
C5 N3 1_555 1_555
C6 N4 1_555 1_555
H5 C6 1_555 1_555
H6 C6 1_555 1_555
C7 C6 1_555 1_555
H7 C7 1_555 1_555
H8 C7 1_555 1_555
C8 P1 1_555 1_555
H9 C8 1_555 1_555
H10 C8 1_555 1_555
C9 O3 1_555 1_555
H11 C9 1_555 1_555
H12 C9 1_555 1_555
C10 O4 1_555 1_555
C11 C10 1_555 1_555
C12 C11 1_555 1_555
H13 C12 1_555 1_555
H14 C12 1_555 1_555
H15 C12 1_555 1_555
C13 C11 1_555 1_555
H16 C13 1_555 1_555
H17 C13 1_555 1_555
H18 C13 1_555 1_555
C14 C11 1_555 1_555
H19 C14 1_555 1_555
H20 C14 1_555 1_555
H21 C14 1_555 1_555
C15 O6 1_555 1_555
H22 C15 1_555 1_555
H23 C15 1_555 1_555
C16 O7 1_555 1_555
C17 C16 1_555 1_555
C18 C17 1_555 1_555
H24 C18 1_555 1_555
H25 C18 1_555 1_555
H26 C18 1_555 1_555
C19 C17 1_555 1_555
H27 C19 1_555 1_555
H28 C19 1_555 1_555
H29 C19 1_555 1_555
C20 C17 1_555 1_555
H30 C20 1_555 1_555
H31 C20 1_555 1_555
H32 C20 1_555 1_555
O9 H33 1_555 1_555
H34 O9 1_555 1_555
O10 H35 1_555 1_555
H36 O10 1_555 1_555
O1 C8 1_555 1_555
C1 C5 1_555 1_555
C3 C5 1_555 1_555

#END
