
#######################################################################
#
#                 Cambridge Crystallographic Data Centre
#                                CCDC 
#
#######################################################################
#
# If this CIF has been generated from an entry in the Cambridge 
# Structural Database, then it will include bibliographic, chemical, 
# crystal, experimental, refinement or atomic coordinate data resulting 
# from the CCDC's data processing and validation procedures.
#
#######################################################################

data_JEVSOT
_chemical_formula_moiety         'C15 H23 N1 O3'
_chemical_name_systematic        
'(3S,4S)-t-Butyl 4-amino-3-hydroxy-5-phenylpentanoate'
_symmetry_cell_setting           orthorhombic
_symmetry_space_group_name_H-M   'P 21 21 21'
_symmetry_Int_Tables_number      19
_space_group_name_Hall           'P 2ac 2ab'
loop_
_symmetry_equiv_pos_site_id
_symmetry_equiv_pos_as_xyz
1 x,y,z
2 1/2-x,-y,1/2+z
3 -x,1/2+y,1/2-z
4 1/2+x,1/2-y,-z
_cell_length_a                   11.696(3)
_cell_length_b                   14.377(4)
_cell_length_c                   9.177(2)
_cell_angle_alpha                90
_cell_angle_beta                 90
_cell_angle_gamma                90
_cell_volume                     1543.14
_exptl_crystal_colour            colorless
_exptl_crystal_description       chunk
_cell_formula_units_Z            4
_exptl_crystal_recrystallization_method 'ethyl acetate/petroleum ether'
loop_
_atom_site_label
_atom_site_type_symbol
_atom_site_fract_x
_atom_site_fract_y
_atom_site_fract_z
N1 N 0.27728(19) 1.10961(14) 0.1347(2)
H1 H 0.341(2) 1.079(2) 0.104(3)
H2 H 0.298(2) 1.164(2) 0.163(3)
O1 O 0.27832(14) 0.99005(12) -0.11032(19)
H3 H 0.262(2) 0.9569(17) -0.191(3)
C1 C 0.1506(3) 1.34380(18) -0.0452(5)
H4 H 0.0882 1.3199 -0.0956
O2 O 0.02272(15) 0.88581(11) -0.15206(16)
C2 C 0.1418(4) 1.4295(2) 0.0207(7)
H5 H 0.0737 1.4627 0.0147
O3 O 0.04563(13) 0.81952(10) 0.06730(16)
C3 C 0.2325(4) 1.46605(19) 0.0948(6)
H6 H 0.2261 1.5236 0.1402
C4 C 0.3315(3) 1.41814(19) 0.1018(4)
H7 H 0.3939 1.4430 0.1510
C5 C 0.3399(2) 1.33201(18) 0.0357(3)
H8 H 0.4086 1.2996 0.0411
C6 C 0.2494(2) 1.29301(14) -0.0379(3)
C7 C 0.2538(2) 1.19634(15) -0.1000(2)
H9 H 0.3325 1.1802 -0.1221
H10 H 0.2105 1.1943 -0.1901
C8 C 0.20432(17) 1.12504(13) 0.0080(2)
H11 H 0.1322 1.1509 0.0443
C9 C 0.17578(17) 1.03271(13) -0.0633(2)
H12 H 0.1269 1.0441 -0.1482
C10 C 0.1130(2) 0.96983(14) 0.0421(2)
H13 H 0.1669 0.9472 0.1142
H14 H 0.0555 1.0061 0.0928
C11 C 0.05589(17) 0.88790(13) -0.0287(2)
C12 C -0.0250(2) 0.73602(15) 0.0396(3)
C13 C -0.1474(2) 0.7661(2) 0.0221(4)
H15 H -0.1555 0.8007 -0.0668
H16 H -0.1690 0.8045 0.1031
H17 H -0.1958 0.7122 0.0189
C14 C -0.0056(3) 0.6813(2) 0.1769(3)
H18 H -0.0336 0.7160 0.2589
H19 H 0.0746 0.6697 0.1889
H20 H -0.0457 0.6231 0.1708
C15 C 0.0180(2) 0.68338(17) -0.0908(3)
H21 H 0.0050 0.7194 -0.1773
H22 H -0.0219 0.6252 -0.0983
H23 H 0.0984 0.6718 -0.0801
loop_
_geom_bond_atom_site_label_1
_geom_bond_atom_site_label_2
_geom_bond_site_symmetry_1
_geom_bond_site_symmetry_2
N1 H1 1_555 1_555
H2 N1 1_555 1_555
O1 H3 1_555 1_555
C1 H4 1_555 1_555
O2 C11 1_555 1_555
C2 C1 1_555 1_555
H5 C2 1_555 1_555
O3 C11 1_555 1_555
C3 C2 1_555 1_555
H6 C3 1_555 1_555
C4 C3 1_555 1_555
H7 C4 1_555 1_555
C5 C4 1_555 1_555
H8 C5 1_555 1_555
C6 C1 1_555 1_555
C7 C6 1_555 1_555
H9 C7 1_555 1_555
H10 C7 1_555 1_555
C8 N1 1_555 1_555
H11 C8 1_555 1_555
C9 O1 1_555 1_555
H12 C9 1_555 1_555
C10 C9 1_555 1_555
H13 C10 1_555 1_555
H14 C10 1_555 1_555
C11 C10 1_555 1_555
C12 O3 1_555 1_555
C13 C12 1_555 1_555
H15 C13 1_555 1_555
H16 C13 1_555 1_555
H17 C13 1_555 1_555
C14 C12 1_555 1_555
H18 C14 1_555 1_555
H19 C14 1_555 1_555
H20 C14 1_555 1_555
C15 C12 1_555 1_555
H21 C15 1_555 1_555
H22 C15 1_555 1_555
H23 C15 1_555 1_555
C5 C6 1_555 1_555
C7 C8 1_555 1_555
C8 C9 1_555 1_555

#END
