
#######################################################################
#
#                 Cambridge Crystallographic Data Centre
#                                CCDC 
#
#######################################################################
#
# If this CIF has been generated from an entry in the Cambridge 
# Structural Database, then it will include bibliographic, chemical, 
# crystal, experimental, refinement or atomic coordinate data resulting 
# from the CCDC's data processing and validation procedures.
#
#######################################################################

data_JEVTIO
_chemical_formula_moiety         'C16 H16 N2 O1 S1'
_chemical_name_systematic        
2-(4'-(dimethylamino)phenyl)-6-methoxybenzothiazole
_symmetry_cell_setting           monoclinic
_symmetry_space_group_name_H-M   'P 21/n'
_symmetry_Int_Tables_number      14
_space_group_name_Hall           '-P 2yn'
loop_
_symmetry_equiv_pos_site_id
_symmetry_equiv_pos_as_xyz
1 x,y,z
2 1/2-x,1/2+y,1/2-z
3 -x,-y,-z
4 1/2+x,1/2-y,1/2+z
_cell_length_a                   14.997(3)
_cell_length_b                   5.9717(12)
_cell_length_c                   15.617(3)
_cell_angle_alpha                90
_cell_angle_beta                 101.24(3)
_cell_angle_gamma                90
_cell_volume                     1371.79
_exptl_crystal_colour            colorless
_exptl_crystal_description       Prism
_cell_formula_units_Z            4
_exptl_crystal_recrystallization_method THF
loop_
_atom_site_label
_atom_site_type_symbol
_atom_site_fract_x
_atom_site_fract_y
_atom_site_fract_z
S1 S 0.25917(3) 0.21853(7) -0.08537(3)
O1 O 0.05341(7) 0.00523(17) -0.38608(7)
N1 N 0.19871(8) -0.1610(2) -0.03808(9)
N2 N 0.41093(8) 0.1096(2) 0.35001(9)
C1 C 0.07606(11) 0.2058(3) -0.42694(12)
H1 H 0.0595 0.3333 -0.3961
H2 H 0.0437 0.2099 -0.4863
H3 H 0.1403 0.2089 -0.4259
C2 C 0.09421(10) -0.0281(3) -0.30092(11)
C3 C 0.06980(10) -0.2297(2) -0.26431(11)
H4 H 0.0303 -0.3284 -0.2989
C4 C 0.10339(10) -0.2825(2) -0.17851(11)
H5 H 0.0868 -0.4161 -0.1553
C5 C 0.16261(9) -0.1344(2) -0.12630(10)
C6 C 0.18759(10) 0.0642(2) -0.16409(11)
C7 C 0.15439(10) 0.1202(3) -0.25148(10)
H6 H 0.1720 0.2517 -0.2755
C8 C 0.24995(10) 0.0089(2) -0.00774(10)
C9 C 0.29724(9) 0.0320(2) 0.08280(10)
C10 C 0.34638(10) 0.2238(2) 0.11414(11)
H7 H 0.3531 0.3375 0.0752
C11 C 0.38514(10) 0.2491(2) 0.20108(11)
H8 H 0.4174 0.3791 0.2195
C12 C 0.37688(9) 0.0819(2) 0.26271(10)
C13 C 0.33052(10) -0.1168(2) 0.23003(11)
H9 H 0.3261 -0.2343 0.2681
C14 C 0.29223(10) -0.1383(2) 0.14330(11)
H10 H 0.2619 -0.2703 0.1240
C15 C 0.45268(11) 0.3192(3) 0.38270(12)
H11 H 0.5079 0.3402 0.3613
H12 H 0.4662 0.3160 0.4454
H13 H 0.4117 0.4403 0.3632
C16 C 0.39774(11) -0.0598(3) 0.41274(11)
H14 H 0.3367 -0.1158 0.3982
H15 H 0.4081 0.0046 0.4702
H16 H 0.4397 -0.1805 0.4114
loop_
_geom_bond_atom_site_label_1
_geom_bond_atom_site_label_2
_geom_bond_site_symmetry_1
_geom_bond_site_symmetry_2
S1 C6 1_555 1_555
O1 C1 1_555 1_555
N1 C5 1_555 1_555
N2 C12 1_555 1_555
C1 H1 1_555 1_555
H2 C1 1_555 1_555
H3 C1 1_555 1_555
C2 O1 1_555 1_555
C3 C2 1_555 1_555
H4 C3 1_555 1_555
C4 C3 1_555 1_555
H5 C4 1_555 1_555
C5 C4 1_555 1_555
C6 C5 1_555 1_555
C7 C2 1_555 1_555
H6 C7 1_555 1_555
C8 S1 1_555 1_555
C9 C8 1_555 1_555
C10 C9 1_555 1_555
H7 C10 1_555 1_555
C11 C10 1_555 1_555
H8 C11 1_555 1_555
C12 C11 1_555 1_555
C13 C12 1_555 1_555
H9 C13 1_555 1_555
C14 C9 1_555 1_555
H10 C14 1_555 1_555
C15 N2 1_555 1_555
H11 C15 1_555 1_555
H12 C15 1_555 1_555
H13 C15 1_555 1_555
C16 N2 1_555 1_555
H14 C16 1_555 1_555
H15 C16 1_555 1_555
H16 C16 1_555 1_555
N1 C8 1_555 1_555
C6 C7 1_555 1_555
C13 C14 1_555 1_555

#END
