
#######################################################################
#
#                 Cambridge Crystallographic Data Centre
#                                CCDC 
#
#######################################################################
#
# If this CIF has been generated from an entry in the Cambridge 
# Structural Database, then it will include bibliographic, chemical, 
# crystal, experimental, refinement or atomic coordinate data resulting 
# from the CCDC's data processing and validation procedures.
#
#######################################################################

data_JEVZAM01
_chemical_formula_moiety         
'C36 H36 N24 O12,C6 H10 N2 2+,10(H2 O1),2(I1 1-)'
_chemical_name_systematic        
'cucurbit(6)uril 1,4-phenylenediammonium bis(iodide) decahydrate'
_symmetry_cell_setting           orthorhombic
_symmetry_space_group_name_H-M   'P n n m'
_symmetry_Int_Tables_number      58
_space_group_name_Hall           '-P 2 2n'
loop_
_symmetry_equiv_pos_site_id
_symmetry_equiv_pos_as_xyz
1 x,y,z
2 -x,-y,z
3 1/2-x,1/2+y,1/2-z
4 1/2+x,1/2-y,1/2-z
5 -x,-y,-z
6 x,y,-z
7 1/2+x,1/2-y,1/2+z
8 1/2-x,1/2+y,1/2+z
_cell_length_a                   11.7794(10)
_cell_length_b                   15.4625(11)
_cell_length_c                   15.1806(12)
_cell_angle_alpha                90
_cell_angle_beta                 90
_cell_angle_gamma                90
_cell_volume                     2764.98
_cell_formula_units_Z            2
loop_
_atom_site_label
_atom_site_type_symbol
_atom_site_fract_x
_atom_site_fract_y
_atom_site_fract_z
C1 C -0.0524(12) 0.2497(9) 0.1441(7)
N1 N 0.0253(10) 0.2254(13) 0.0830(8)
C2 C 0.1384(8) 0.2184(9) 0.1194(7)
H3 H 0.1637 0.1594 0.1202
C3 C 0.1199(9) 0.2544(9) 0.2121(8)
H4 H 0.1413 0.2123 0.2556
N2 N 0.0020(9) 0.2708(11) 0.2198(8)
C4 C 0.2534(11) 0.3363(9) 0.1407(7)
N3 N 0.2219(14) 0.2738(11) 0.0821(9)
N4 N 0.1954(12) 0.3256(9) 0.2168(8)
C5 C -0.0066(9) 0.1900(7) 0.0000
H5 H -0.0881 0.1883 0.0000
H6 H 0.0184 0.1309 0.0000
C6 C 0.2776(9) 0.2599(8) 0.0000
H7 H 0.3061 0.2018 0.0000
H8 H 0.3427 0.2972 0.0000
C7 C -0.1508(10) 0.4386(7) 0.2779(8)
N5 N -0.1261(11) 0.5238(8) 0.2898(10)
C8 C -0.0248(9) 0.5356(9) 0.3416(7)
H9 H -0.0436 0.5577 0.3989
N6 N -0.0637(10) 0.3907(8) 0.3115(10)
C9 C -0.0555(11) 0.3003(7) 0.2968(8)
H10 H -0.0170 0.2763 0.3469
H11 H -0.1309 0.2768 0.2963
C10 C 0.2089(12) 0.3807(8) 0.2920(9)
H12 H 0.2837 0.4054 0.2905
H13 H 0.2039 0.3455 0.3440
O2 O -0.1566(10) 0.2559(10) 0.1322(10)
O3 O 0.3230(13) 0.3945(10) 0.1256(11)
O4 O -0.2370(9) 0.4088(10) 0.2431(10)
C1A C 0.0524(12) 0.7503(9) 0.1441(7)
N1A N -0.0253(10) 0.7746(13) 0.0830(8)
C2A C -0.1384(8) 0.7816(9) 0.1194(7)
H3A H -0.1637 0.8406 0.1202
C3A C -0.1199(9) 0.7456(9) 0.2121(8)
H4A H -0.1413 0.7877 0.2556
N2A N -0.0020(9) 0.7292(11) 0.2198(8)
C4A C -0.2534(11) 0.6637(9) 0.1407(7)
N3A N -0.2219(14) 0.7262(11) 0.0821(9)
N4A N -0.1954(12) 0.6744(9) 0.2168(8)
C5A C 0.0066(9) 0.8100(7) 0.0000
H5A H 0.0881 0.8117 0.0000
H6A H -0.0184 0.8691 0.0000
C6A C -0.2776(9) 0.7401(8) 0.0000
H7A H -0.3061 0.7982 0.0000
H8A H -0.3427 0.7028 0.0000
C7A C 0.1508(10) 0.5614(7) 0.2779(8)
N5A N 0.1261(11) 0.4762(8) 0.2898(10)
C8A C 0.0248(9) 0.4644(9) 0.3416(7)
H9A H 0.0436 0.4423 0.3989
N6A N 0.0637(10) 0.6093(8) 0.3115(10)
C9A C 0.0555(11) 0.6997(7) 0.2968(8)
H10A H 0.0170 0.7237 0.3469
H11A H 0.1309 0.7232 0.2963
C10A C -0.2089(12) 0.6193(8) 0.2920(9)
H12A H -0.2837 0.5946 0.2905
H13A H -0.2039 0.6545 0.3440
O2A O 0.1566(10) 0.7441(10) 0.1322(10)
O3A O -0.3230(13) 0.6055(10) 0.1256(11)
O4A O 0.2370(9) 0.5912(10) 0.2431(10)
C1E C -0.0524(12) 0.2497(9) -0.1441(7)
N1E N 0.0253(10) 0.2254(13) -0.0830(8)
C2E C 0.1384(8) 0.2184(9) -0.1194(7)
H3E H 0.1637 0.1594 -0.1202
C3E C 0.1199(9) 0.2544(9) -0.2121(8)
H4E H 0.1413 0.2123 -0.2556
N2E N 0.0020(9) 0.2708(11) -0.2198(8)
C4E C 0.2534(11) 0.3363(9) -0.1407(7)
N3E N 0.2219(14) 0.2738(11) -0.0821(9)
N4E N 0.1954(12) 0.3256(9) -0.2168(8)
C7E C -0.1508(10) 0.4386(7) -0.2779(8)
N5E N -0.1261(11) 0.5238(8) -0.2898(10)
C8E C -0.0248(9) 0.5356(9) -0.3416(7)
H9E H -0.0436 0.5577 -0.3989
N6E N -0.0637(10) 0.3907(8) -0.3115(10)
C9E C -0.0555(11) 0.3003(7) -0.2968(8)
H10E H -0.0170 0.2763 -0.3469
H11E H -0.1309 0.2768 -0.2963
C10E C 0.2089(12) 0.3807(8) -0.2920(9)
H12E H 0.2837 0.4054 -0.2905
H13E H 0.2039 0.3455 -0.3440
O2E O -0.1566(10) 0.2559(10) -0.1322(10)
O3E O 0.3230(13) 0.3945(10) -0.1256(11)
O4E O -0.2370(9) 0.4088(10) -0.2431(10)
C1D C 0.0524(12) 0.7503(9) -0.1441(7)
N1D N -0.0253(10) 0.7746(13) -0.0830(8)
C2D C -0.1384(8) 0.7816(9) -0.1194(7)
H3D H -0.1637 0.8406 -0.1202
C3D C -0.1199(9) 0.7456(9) -0.2121(8)
H4D H -0.1413 0.7877 -0.2556
N2D N -0.0020(9) 0.7292(11) -0.2198(8)
C4D C -0.2534(11) 0.6637(9) -0.1407(7)
N3D N -0.2219(14) 0.7262(11) -0.0821(9)
N4D N -0.1954(12) 0.6744(9) -0.2168(8)
C7D C 0.1508(10) 0.5614(7) -0.2779(8)
N5D N 0.1261(11) 0.4762(8) -0.2898(10)
C8D C 0.0248(9) 0.4644(9) -0.3416(7)
H9D H 0.0436 0.4423 -0.3989
N6D N 0.0637(10) 0.6093(8) -0.3115(10)
C9D C 0.0555(11) 0.6997(7) -0.2968(8)
H10D H 0.0170 0.7237 -0.3469
H11D H 0.1309 0.7232 -0.2963
C10D C -0.2089(12) 0.6193(8) -0.2920(9)
H12D H -0.2837 0.5946 -0.2905
H13D H -0.2039 0.6545 -0.3440
O2D O 0.1566(10) 0.7441(10) -0.1322(10)
O3D O -0.3230(13) 0.6055(10) -0.1256(11)
O4D O 0.2370(9) 0.5912(10) -0.2431(10)
I1 I 0.77158(9) 0.00149(7) 0.0000
O5 O 0.0931(12) 0.2885(11) 0.5000
N7 N 0.7775(14) 0.4487(13) 0.0518(13)
H14 H 0.7365 0.4961 0.0652
H15 H 0.7816 0.4157 0.1005
H16 H 0.7444 0.4192 0.0000
C11 C 0.8940(15) 0.4767(12) 0.0248(11)
C12 C 0.961(2) 0.5150(17) 0.0845(19)
H17 H 0.9330 0.5251 0.1430
C13 C 0.929(2) 0.4569(16) -0.0596(17)
H18 H 0.8799 0.4283 -0.1005
N7A N 1.2225(14) 0.5513(13) 0.0518(13)
H14A H 1.2635 0.5039 0.0652
H15A H 1.2184 0.5843 0.1005
H16A H 1.2556 0.5808 0.0000
C11A C 1.1060(15) 0.5233(12) 0.0248(11)
C12A C 1.039(2) 0.4850(17) 0.0845(19)
H17A H 1.0670 0.4749 0.1430
C13A C 1.071(2) 0.5431(16) -0.0596(17)
H18A H 1.1201 0.5717 -0.1005
N7D N 1.2225(14) 0.5513(13) -0.0518(13)
H14D H 1.2635 0.5039 -0.0652
H15D H 1.2184 0.5843 -0.1005
C11D C 1.1060(15) 0.5233(12) -0.0248(11)
C12D C 1.039(2) 0.4850(17) -0.0845(19)
H17D H 1.0670 0.4749 -0.1430
C13D C 1.071(2) 0.5431(16) 0.0596(17)
H18D H 1.1201 0.5717 0.1005
N7E N 0.7775(14) 0.4487(13) -0.0518(13)
H14E H 0.7365 0.4961 -0.0652
H15E H 0.7816 0.4157 -0.1005
C11E C 0.8940(15) 0.4767(12) -0.0248(11)
C12E C 0.961(2) 0.5150(17) -0.0845(19)
H17E H 0.9330 0.5251 -0.1430
C13E C 0.929(2) 0.4569(16) 0.0596(17)
H18E H 0.8799 0.4283 0.1005
O1 O 0.5600(17) 0.4017(13) 0.1303(14)
H1 H 0.4903 0.4036 0.1446
H2 H 0.6000 0.4152 0.1749
O6? O 0.6690(17) 0.3635(14) 0.0765(14)
H19? H 0.6239 0.3733 0.1191
H20? H 0.7096 0.3214 0.0951
H21? H -0.0554 0.0183 0.1260
H22? H 0.1388 0.3309 0.5000
H23? H 0.1224 0.2453 0.5260
O7? O 0.0031(18) 0.0222(12) 0.1585(13)
H24? H 0.0615 0.0175 0.1259
O8? O 0.520(2) 0.3964(18) 0.2099(19)
H25? H 0.5152 0.4341 0.2505
H26? H 0.4568 0.3957 0.1822
C14? C 0.0554(10) 0.7324(8) 0.1339(7)
N8? N -0.0245(9) 0.7639(11) 0.0779(8)
O9? O 0.1571(10) 0.7222(11) 0.1163(10)
C15? C -0.2511(10) 0.6461(8) 0.1271(7)
O10? O -0.3174(11) 0.5883(8) 0.1039(10)
N9? N -0.2184(13) 0.7145(9) 0.0772(9)
C16? C -0.1346(8) 0.7664(9) 0.1192(7)
N10? N -0.1913(11) 0.6482(9) 0.2032(8)
C17? C -0.2095(11) 0.5891(8) 0.2738(9)
H27? H -0.2161 0.6223 0.3270
H28? H -0.2812 0.5611 0.2642
C18? C -0.1161(9) 0.7208(8) 0.2069(8)
H29? H -0.1359 0.7576 0.2554
H30? H 0.1600 0.1750 0.1263
N11? N 0.0024(9) 0.7030(11) 0.2079(8)
C19? C 0.0224(9) 0.4441(9) 0.3469(7)
C20? C 0.1552(11) 0.5319(7) 0.2811(9)
N12? N 0.0651(11) 0.5840(8) 0.3030(11)
O11? O 0.2444(10) 0.5586(10) 0.2479(10)
N13? N 0.1277(11) 0.4495(8) 0.3008(11)
H31? H -0.0358 0.5719 0.4071
C21? C -0.0650(13) 0.3272(8) 0.2822(10)
H32? H -0.1424 0.3089 0.2752
H33? H -0.0353 0.2974 0.3327
loop_
_geom_bond_atom_site_label_1
_geom_bond_atom_site_label_2
_geom_bond_site_symmetry_1
_geom_bond_site_symmetry_2
O1 H1 1_555 1_555
H2 O1 1_555 1_555
C1 N1 1_555 1_555
N1 C2 1_555 1_555
C2 H3 1_555 1_555
C3 C2 1_555 1_555
H4 C3 1_555 1_555
N2 C1 1_555 1_555
C4 N3 1_555 1_555
N3 C2 1_555 1_555
N4 C3 1_555 1_555
C5 N1 1_555 1_555
H5 C5 1_555 1_555
H6 C5 1_555 1_555
C6 N3 1_555 1_555
H7 C6 1_555 1_555
H8 C6 1_555 1_555
C7 N5 1_555 1_555
N5 C8 1_555 1_555
C8 H9 1_555 1_555
N6 C7 1_555 1_555
C9 N2 1_555 1_555
H10 C9 1_555 1_555
H11 C9 1_555 1_555
C10 N4 1_555 1_555
H12 C10 1_555 1_555
H13 C10 1_555 1_555
O2 C1 1_555 1_555
O3 C4 1_555 1_555
O4 C7 1_555 1_555
N7 H14 1_555 1_555
H15 N7 1_555 1_555
H16 N7 1_555 1_555
C11 N7 1_555 1_555
C12 C11 1_555 1_555
H17 C12 1_555 1_555
C13 C11 1_555 1_555
H18 C13 1_555 1_555
C1A N1A 1_555 1_555
N1A C2A 1_555 1_555
C2A H3A 1_555 1_555
C3A C2A 1_555 1_555
H4A C3A 1_555 1_555
N2A C1A 1_555 1_555
C4A N3A 1_555 1_555
N3A C2A 1_555 1_555
N4A C3A 1_555 1_555
C5A N1A 1_555 1_555
H5A C5A 1_555 1_555
H6A C5A 1_555 1_555
C6A N3A 1_555 1_555
H7A C6A 1_555 1_555
H8A C6A 1_555 1_555
C7A N5A 1_555 1_555
N5A C10 1_555 1_555
C8A C8 1_555 1_555
H9A C8A 1_555 1_555
N6A C8 1_555 1_555
C9A N2A 1_555 1_555
H10A C9A 1_555 1_555
H11A C9A 1_555 1_555
C10A N5 1_555 1_555
H12A C10A 1_555 1_555
H13A C10A 1_555 1_555
O2A C1A 1_555 1_555
O3A C4A 1_555 1_555
O4A C7A 1_555 1_555
C1E N1E 1_555 1_555
N1E C5 1_555 1_555
C2E N1E 1_555 1_555
H3E C2E 1_555 1_555
C3E C2E 1_555 1_555
H4E C3E 1_555 1_555
N2E C1E 1_555 1_555
C4E N3E 1_555 1_555
N3E C6 1_555 1_555
N4E C3E 1_555 1_555
C7E N5E 1_555 1_555
N5E C8E 1_555 1_555
C8E H9E 1_555 1_555
N6E C7E 1_555 1_555
C9E N2E 1_555 1_555
H10E C9E 1_555 1_555
H11E C9E 1_555 1_555
C10E N4E 1_555 1_555
H12E C10E 1_555 1_555
H13E C10E 1_555 1_555
O2E C1E 1_555 1_555
O3E C4E 1_555 1_555
O4E C7E 1_555 1_555
C1D N1D 1_555 1_555
N1D C5A 1_555 1_555
C2D N1D 1_555 1_555
H3D C2D 1_555 1_555
C3D C2D 1_555 1_555
H4D C3D 1_555 1_555
N2D C1D 1_555 1_555
C4D N3D 1_555 1_555
N3D C6A 1_555 1_555
N4D C3D 1_555 1_555
C7D N5D 1_555 1_555
N5D C10E 1_555 1_555
C8D C8E 1_555 1_555
H9D C8D 1_555 1_555
N6D C8E 1_555 1_555
C9D N2D 1_555 1_555
H10D C9D 1_555 1_555
H11D C9D 1_555 1_555
C10D N5E 1_555 1_555
H12D C10D 1_555 1_555
H13D C10D 1_555 1_555
O2D C1D 1_555 1_555
O3D C4D 1_555 1_555
O4D C7D 1_555 1_555
N7A H14A 1_555 1_555
H15A N7A 1_555 1_555
H16A N7A 1_555 1_555
C11A N7A 1_555 1_555
C12A C12 1_555 1_555
H17A C12A 1_555 1_555
C13A C11A 1_555 1_555
H18A C13A 1_555 1_555
N7D N7A 1_555 1_555
H14D N7D 1_555 1_555
H15D N7D 1_555 1_555
C11D C11A 1_555 1_555
C12D C13 1_555 1_555
H17D C12D 1_555 1_555
C13D C12 1_555 1_555
H18D C13D 1_555 1_555
N7E N7 1_555 1_555
H14E N7E 1_555 1_555
H15E N7E 1_555 1_555
C11E C11 1_555 1_555
C12E C13 1_555 1_555
H17E C12E 1_555 1_555
C13E N7 1_555 1_555
H18E C13E 1_555 1_555
C3 N2 1_555 1_555
C4 N4 1_555 1_555
N6 C9 1_555 1_555
N6 C8A 1_555 1_555
H16 N7E 1_555 1_555
C11 C13E 1_555 1_555
C12 C13E 1_555 1_555
C13 N7E 1_555 1_555
C13 C11E 1_555 1_555
C13 C13E 1_555 1_555
C3A N2A 1_555 1_555
C4A N4A 1_555 1_555
N4A C10A 1_555 1_555
C7A N6A 1_555 1_555
N5A C8A 1_555 1_555
N6A C9A 1_555 1_555
C2E N3E 1_555 1_555
C3E N2E 1_555 1_555
C4E N4E 1_555 1_555
N6E C9E 1_555 1_555
N6E C8D 1_555 1_555
C2D N3D 1_555 1_555
C3D N2D 1_555 1_555
C4D N4D 1_555 1_555
N4D C10D 1_555 1_555
C7D N6D 1_555 1_555
N5D C8D 1_555 1_555
N6D C9D 1_555 1_555
N7A C13D 1_555 1_555
H16A N7D 1_555 1_555
C11A C12A 1_555 1_555
C11A C13D 1_555 1_555
C12A C13D 1_555 1_555
C12A C13E 1_555 1_555
C13A N7D 1_555 1_555
C13A C11D 1_555 1_555
C13A C12D 1_555 1_555
C13A C13D 1_555 1_555
C13A C12E 1_555 1_555
N7D C11D 1_555 1_555
C11D C12D 1_555 1_555
C11D C13D 1_555 1_555
C12D C12E 1_555 1_555
N7E C11E 1_555 1_555
C11E C12E 1_555 1_555
C11E C13E 1_555 1_555

#END
