
#######################################################################
#
#                 Cambridge Crystallographic Data Centre
#                                CCDC 
#
#######################################################################
#
# If this CIF has been generated from an entry in the Cambridge 
# Structural Database, then it will include bibliographic, chemical, 
# crystal, experimental, refinement or atomic coordinate data resulting 
# from the CCDC's data processing and validation procedures.
#
#######################################################################

data_JEWCUK01
_chemical_formula_moiety         'C7 H3 N2 O6 1-,C1 H6 N3 1+'
_chemical_name_systematic        'diaminomethaniminium 3,5-dinitrobenzoate'
_symmetry_cell_setting           monoclinic
_symmetry_space_group_name_H-M   'P 21/n'
_symmetry_Int_Tables_number      14
_space_group_name_Hall           '-P 2yn'
loop_
_symmetry_equiv_pos_site_id
_symmetry_equiv_pos_as_xyz
1 x,y,z
2 1/2-x,1/2+y,1/2-z
3 -x,-y,-z
4 1/2+x,1/2-y,1/2+z
_cell_length_a                   7.523(3)
_cell_length_b                   19.233(8)
_cell_length_c                   7.950(3)
_cell_angle_alpha                90
_cell_angle_beta                 102.422(6)
_cell_angle_gamma                90
_cell_volume                     1123.36
_exptl_crystal_colour            yellow
_exptl_crystal_description       plate
_cell_formula_units_Z            4
loop_
_atom_site_label
_atom_site_type_symbol
_atom_site_fract_x
_atom_site_fract_y
_atom_site_fract_z
O1 O 0.72332(17) 1.13832(6) 0.7780(2)
C1 C 0.9307(2) 0.89071(9) 0.7902(2)
H1 H 0.9422 0.8426 0.7948
C2 C 0.7676(2) 0.99557(8) 0.8332(2)
H2 H 0.6689 1.0163 0.8666
C3 C 1.0391(2) 1.00363(9) 0.7233(2)
H3 H 1.1265 1.0300 0.6855
N1 N 0.66180(19) 0.88235(8) 0.9156(2)
O2 O 1.2081(2) 0.83523(8) 0.6691(2)
C4 C 0.7906(2) 0.92456(8) 0.8429(2)
O3 O 0.66514(19) 0.81971(7) 0.8995(2)
C5 C 0.8933(2) 1.03573(8) 0.7730(2)
N2 N 1.20420(19) 0.89833(9) 0.6721(2)
C6 C 1.0528(2) 0.93234(9) 0.7304(2)
O4 O 1.31739(19) 0.93541(8) 0.6274(2)
C7 C 0.8733(2) 1.11439(9) 0.7665(2)
O5 O 1.00884(19) 1.14926(6) 0.7541(2)
O6 O 0.5603(2) 0.91287(8) 0.9904(2)
N3 N 0.4791(2) 0.22899(8) 0.4854(2)
H4 H 0.4734 0.2628 0.4136
H5 H 0.5797 0.2069 0.5199
C8 C 0.3336(2) 0.21111(8) 0.5426(2)
N4 N 0.3426(2) 0.15905(8) 0.6507(2)
H6 H 0.2476 0.1469 0.6874
H7 H 0.4434 0.1371 0.6849
N5 N 0.18024(19) 0.24497(8) 0.4897(2)
H8 H 0.0848 0.2331 0.5260
H9 H 0.1752 0.2791 0.4189
loop_
_geom_bond_atom_site_label_1
_geom_bond_atom_site_label_2
_geom_bond_site_symmetry_1
_geom_bond_site_symmetry_2
O1 C7 1_555 1_555
C1 H1 1_555 1_555
C2 H2 1_555 1_555
C3 H3 1_555 1_555
N1 C4 1_555 1_555
O2 N2 1_555 1_555
C4 C1 1_555 1_555
O3 N1 1_555 1_555
C5 C2 1_555 1_555
N2 C6 1_555 1_555
C6 C1 1_555 1_555
O4 N2 1_555 1_555
C7 C5 1_555 1_555
O5 C7 1_555 1_555
O6 N1 1_555 1_555
N3 H4 1_555 1_555
H5 N3 1_555 1_555
C8 N3 1_555 1_555
N4 C8 1_555 1_555
H6 N4 1_555 1_555
H7 N4 1_555 1_555
N5 C8 1_555 1_555
H8 N5 1_555 1_555
H9 N5 1_555 1_555
C2 C4 1_555 1_555
C3 C5 1_555 1_555
C3 C6 1_555 1_555

#END
