
#######################################################################
#
#                 Cambridge Crystallographic Data Centre
#                                CCDC 
#
#######################################################################
#
# If this CIF has been generated from an entry in the Cambridge 
# Structural Database, then it will include bibliographic, chemical, 
# crystal, experimental, refinement or atomic coordinate data resulting 
# from the CCDC's data processing and validation procedures.
#
#######################################################################

data_JEWGEA
_chemical_formula_moiety         'C21 H27 N1 O3'
_chemical_name_systematic        
4-ethenyl-10,12b-dimethyldecahydro-1H-11,12c-methanoazuleno[4,5-a]indolizine-3,7,13(2H,3aH)-trione
_symmetry_cell_setting           monoclinic
_symmetry_space_group_name_H-M   'P 21'
_symmetry_Int_Tables_number      4
_space_group_name_Hall           'P 2yb'
loop_
_symmetry_equiv_pos_site_id
_symmetry_equiv_pos_as_xyz
1 x,y,z
2 -x,1/2+y,-z
_cell_length_a                   10.237(3)
_cell_length_b                   11.783(4)
_cell_length_c                   15.988(6)
_cell_angle_alpha                90
_cell_angle_beta                 111.650(5)
_cell_angle_gamma                90
_cell_volume                     1792.47
_exptl_crystal_colour            colorless
_exptl_crystal_description       Prism
_cell_formula_units_Z            4
loop_
_atom_site_label
_atom_site_type_symbol
_atom_site_fract_x
_atom_site_fract_y
_atom_site_fract_z
O1 O -0.7371(4) -0.5178(4) -0.5418(3)
O2 O -0.3733(4) -0.6167(3) -0.3347(3)
O3 O -0.0849(5) -0.5786(4) -0.3790(3)
N1 N -0.6785(4) -0.4454(4) -0.3999(3)
C1 C -0.6771(5) -0.4484(5) -0.4842(3)
C2 C -0.5840(5) -0.3511(4) -0.4908(3)
H1 H -0.6454(5) -0.2847(4) -0.5105(3)
C3 C -0.4868(5) -0.3281(4) -0.3904(3)
C4 C -0.5934(6) -0.3502(5) -0.3455(4)
H2 H -0.6526(6) -0.2832(5) -0.3507(4)
C5 C -0.5302(8) -0.3887(5) -0.2493(4)
H3 H -0.4503(8) -0.3416(5) -0.2158(4)
H4 H -0.5990(8) -0.3840(5) -0.2209(4)
C6 C -0.4841(6) -0.5109(5) -0.2515(3)
H5 H -0.4209(6) -0.5330(5) -0.1910(3)
C7 C -0.6140(7) -0.5901(5) -0.2816(4)
H6 H -0.5888(7) -0.6580(5) -0.3078(4)
C8 C -0.7330(7) -0.5317(7) -0.3565(4)
H7 H -0.7968(7) -0.4970(7) -0.3318(4)
H8 H -0.7854(7) -0.5876(7) -0.4008(4)
C9 C -0.4066(5) -0.5236(4) -0.3167(3)
C10 C -0.3616(5) -0.4158(4) -0.3531(3)
C11 C -0.2881(5) -0.4538(4) -0.4192(3)
H9 H -0.3448(5) -0.5114(4) -0.4612(3)
C12 C -0.2557(5) -0.3533(4) -0.4715(3)
H10 H -0.2231(5) -0.2894(4) -0.4297(3)
C13 C -0.3868(5) -0.3138(5) -0.5512(3)
H11 H -0.3993(5) -0.2332(5) -0.5440(3)
H12 H -0.3681(5) -0.3230(5) -0.6060(3)
C14 C -0.5236(5) -0.3728(5) -0.5639(3)
H13 H -0.5098(5) -0.4539(5) -0.5672(3)
H14 H -0.5929(5) -0.3494(5) -0.6212(3)
C15 C -0.4390(6) -0.2057(4) -0.3749(4)
H15 H -0.390(4) -0.1931(10) -0.3118(5)
H16 H -0.378(4) -0.1899(11) -0.407(2)
H17 H -0.5193(7) -0.1566(4) -0.396(3)
C16 C -0.2315(5) -0.3734(5) -0.2703(3)
H18 H -0.2089(5) -0.2954(5) -0.2789(3)
H19 H -0.2503(5) -0.3785(5) -0.2153(3)
C17 C -0.1128(6) -0.4517(6) -0.2667(4)
H20 H -0.0260(6) -0.4092(6) -0.2521(4)
H21 H -0.0993(6) -0.5095(6) -0.2211(4)
C18 C -0.1513(5) -0.5048(5) -0.3563(3)
C19 C -0.6580(11) -0.6297(8) -0.2052(6)
H22 H -0.5762(17) -0.652(8) -0.155(3)
H23 H -0.705(9) -0.569(3) -0.188(5)
H24 H -0.721(9) -0.693(6) -0.225(2)
C20 C -0.1410(7) -0.3821(7) -0.5052(5)
H25 H -0.1448(7) -0.4524(7) -0.5325(5)
C21 C -0.0370(8) -0.3154(11) -0.4989(7)
H26 H -0.0301(8) -0.2446(11) -0.4720(7)
H27 H 0.0307(8) -0.3385(11) -0.5212(7)
O4 O -0.2116(4) -0.1384(3) -0.1376(2)
O5 O 0.0962(4) 0.0226(3) 0.0411(2)
O6 O 0.4104(4) 0.0037(5) 0.0140(2)
N2 N -0.2362(3) 0.0530(3) -0.1222(2)
C22 C -0.1968(5) -0.0393(4) -0.1565(3)
C23 C -0.1314(4) 0.0017(3) -0.2221(2)
H28 H -0.2104(4) 0.0152(3) -0.2788(2)
C24 C -0.0754(4) 0.1229(4) -0.1844(3)
C25 C -0.1953(4) 0.1584(4) -0.1534(3)
H29 H -0.2743(4) 0.1886(4) -0.2045(3)
C26 C -0.1526(5) 0.2429(4) -0.0758(3)
H30 H -0.0966(5) 0.3035(4) -0.0864(3)
H31 H -0.2352(5) 0.2757(4) -0.0692(3)
C27 C -0.0683(4) 0.1776(4) 0.0073(3)
H32 H -0.0157(4) 0.2300(4) 0.0556(3)
C28 C -0.1716(5) 0.1047(4) 0.0369(3)
H33 H -0.1190(5) 0.0423(4) 0.0749(3)
C29 C -0.2853(5) 0.0548(5) -0.0473(3)
H34 H -0.3700(5) 0.1002(5) -0.0634(3)
H35 H -0.3077(5) -0.0218(5) -0.0348(3)
C30 C 0.0338(4) 0.0954(4) -0.0131(3)
C31 C 0.0681(4) 0.1151(3) -0.0982(2)
C32 C 0.1571(5) 0.2260(4) -0.0767(3)
H36 H 0.1619(5) 0.2584(4) -0.1313(3)
H37 H 0.1163(5) 0.2816(4) -0.0488(3)
C33 C 0.3026(6) 0.1911(5) -0.0125(4)
H38 H 0.3750(6) 0.2316(5) -0.0260(4)
H39 H 0.3136(6) 0.2067(5) 0.0494(4)
C34 C 0.3109(5) 0.0661(5) -0.0273(3)
C35 C 0.1758(4) 0.0260(4) -0.1018(3)
H40 H 0.1494(4) -0.0488(4) -0.0864(3)
C36 C 0.2007(4) 0.0183(4) -0.1926(2)
H41 H 0.2064(4) 0.0961(4) -0.2127(2)
C37 C 0.0791(5) -0.0417(5) -0.2680(3)
H42 H 0.0409(5) 0.0111(5) -0.3177(3)
H43 H 0.1182(5) -0.1051(5) -0.2897(3)
C38 C -0.0420(5) -0.0860(4) -0.2435(3)
H44 H -0.0034(5) -0.1356(4) -0.1918(3)
H45 H -0.1022(5) -0.1318(4) -0.2931(3)
C39 C 0.3334(5) -0.0396(6) -0.1838(3)
H46 H 0.3571(5) -0.1049(6) -0.1487(3)
C40 C 0.4188(6) -0.0057(9) -0.2215(4)
C41 C -0.0689(5) 0.2034(4) -0.2563(3)
H47 H -0.060(4) 0.2799(5) -0.2342(10)
H48 H 0.011(3) 0.185(2) -0.272(2)
H49 H -0.153(2) 0.197(3) -0.3087(10)
C42 C -0.2412(6) 0.1741(5) 0.0894(4)
H50 H -0.1712(10) 0.199(4) 0.1452(16)
H51 H -0.286(5) 0.239(2) 0.0546(15)
H52 H -0.310(4) 0.1283(15) 0.101(3)
H53 H 0.3983(6) 0.0593(9) -0.2570(4)
H54 H 0.5006(6) -0.0463(9) -0.2131(4)
loop_
_geom_bond_atom_site_label_1
_geom_bond_atom_site_label_2
_geom_bond_site_symmetry_1
_geom_bond_site_symmetry_2
O1 C1 1_555 1_555
O2 C9 1_555 1_555
O3 C18 1_555 1_555
N1 C1 1_555 1_555
C1 C2 1_555 1_555
C2 H1 1_555 1_555
C3 C2 1_555 1_555
C4 N1 1_555 1_555
H2 C4 1_555 1_555
C5 C4 1_555 1_555
H3 C5 1_555 1_555
H4 C5 1_555 1_555
C6 C5 1_555 1_555
H5 C6 1_555 1_555
C7 C6 1_555 1_555
H6 C7 1_555 1_555
C8 N1 1_555 1_555
H7 C8 1_555 1_555
H8 C8 1_555 1_555
C9 C6 1_555 1_555
C10 C3 1_555 1_555
C11 C10 1_555 1_555
H9 C11 1_555 1_555
C12 C11 1_555 1_555
H10 C12 1_555 1_555
C13 C12 1_555 1_555
H11 C13 1_555 1_555
H12 C13 1_555 1_555
C14 C2 1_555 1_555
H13 C14 1_555 1_555
H14 C14 1_555 1_555
C15 C3 1_555 1_555
H15 C15 1_555 1_555
H16 C15 1_555 1_555
H17 C15 1_555 1_555
C16 C10 1_555 1_555
H18 C16 1_555 1_555
H19 C16 1_555 1_555
C17 C16 1_555 1_555
H20 C17 1_555 1_555
H21 C17 1_555 1_555
C18 C11 1_555 1_555
C19 C7 1_555 1_555
H22 C19 1_555 1_555
H23 C19 1_555 1_555
H24 C19 1_555 1_555
C20 C12 1_555 1_555
H25 C20 1_555 1_555
C21 C20 1_555 1_555
H26 C21 1_555 1_555
H27 C21 1_555 1_555
O4 C22 1_555 1_555
O5 C30 1_555 1_555
O6 C34 1_555 1_555
N2 C22 1_555 1_555
C22 C23 1_555 1_555
C23 H28 1_555 1_555
C24 C23 1_555 1_555
C25 N2 1_555 1_555
H29 C25 1_555 1_555
C26 C25 1_555 1_555
H30 C26 1_555 1_555
H31 C26 1_555 1_555
C27 C26 1_555 1_555
H32 C27 1_555 1_555
C28 C27 1_555 1_555
H33 C28 1_555 1_555
C29 N2 1_555 1_555
H34 C29 1_555 1_555
H35 C29 1_555 1_555
C30 C27 1_555 1_555
C31 C24 1_555 1_555
C32 C31 1_555 1_555
H36 C32 1_555 1_555
H37 C32 1_555 1_555
C33 C32 1_555 1_555
H38 C33 1_555 1_555
H39 C33 1_555 1_555
C34 C33 1_555 1_555
C35 C31 1_555 1_555
H40 C35 1_555 1_555
C36 C35 1_555 1_555
H41 C36 1_555 1_555
C37 C36 1_555 1_555
H42 C37 1_555 1_555
H43 C37 1_555 1_555
C38 C23 1_555 1_555
H44 C38 1_555 1_555
H45 C38 1_555 1_555
C39 C36 1_555 1_555
H46 C39 1_555 1_555
C40 C39 1_555 1_555
C41 C24 1_555 1_555
H47 C41 1_555 1_555
H48 C41 1_555 1_555
H49 C41 1_555 1_555
C42 C28 1_555 1_555
H50 C42 1_555 1_555
H51 C42 1_555 1_555
H52 C42 1_555 1_555
H53 C40 1_555 1_555
H54 C40 1_555 1_555
C3 C4 1_555 1_555
C7 C8 1_555 1_555
C9 C10 1_555 1_555
C13 C14 1_555 1_555
C17 C18 1_555 1_555
C24 C25 1_555 1_555
C28 C29 1_555 1_555
C30 C31 1_555 1_555
C34 C35 1_555 1_555
C37 C38 1_555 1_555

#END
