
#######################################################################
#
#                 Cambridge Crystallographic Data Centre
#                                CCDC 
#
#######################################################################
#
# If this CIF has been generated from an entry in the Cambridge 
# Structural Database, then it will include bibliographic, chemical, 
# crystal, experimental, refinement or atomic coordinate data resulting 
# from the CCDC's data processing and validation procedures.
#
#######################################################################

data_JEWGIE
_chemical_formula_moiety         'C21 H23 N1 O4,H2 O1'
_chemical_name_systematic        
'10b,11-dimethyl-1,8-dioxo-2a,3,4,8,9,10,10a,10b-octahydro-1H-2,4-ethano-2-azanaphtho[2,1,8-cde]azulen-7-yl acetate monohydrate'
_symmetry_cell_setting           orthorhombic
_symmetry_space_group_name_H-M   'P 21 21 21'
_symmetry_Int_Tables_number      19
_space_group_name_Hall           'P 2ac 2ab'
loop_
_symmetry_equiv_pos_site_id
_symmetry_equiv_pos_as_xyz
1 x,y,z
2 1/2+x,1/2-y,-z
3 -x,1/2+y,1/2-z
4 1/2-x,-y,1/2+z
_cell_length_a                   6.3298(4)
_cell_length_b                   13.1173(9)
_cell_length_c                   21.5930(16)
_cell_angle_alpha                90
_cell_angle_beta                 90
_cell_angle_gamma                90
_cell_volume                     1792.86
_exptl_crystal_colour            colorless
_exptl_crystal_description       block
_cell_formula_units_Z            4
loop_
_atom_site_label
_atom_site_type_symbol
_atom_site_fract_x
_atom_site_fract_y
_atom_site_fract_z
O1 O -0.6991(2) -0.40648(9) -0.48012(6)
O2 O -0.32178(19) -0.76317(9) -0.64151(6)
O3 O -0.71528(19) -0.73480(8) -0.70242(5)
O4 O -0.8219(2) -0.74960(9) -0.60327(5)
N1 N -0.4766(2) -0.32897(10) -0.54858(6)
C1 C -0.6501(3) -0.63367(12) -0.69385(7)
C2 C -0.7365(3) -0.56327(12) -0.73354(7)
C3 C -0.6797(3) -0.46200(12) -0.72699(7)
C4 C -0.5452(2) -0.43029(12) -0.67991(7)
C5 C -0.4527(2) -0.50247(12) -0.64055(7)
C6 C -0.5015(3) -0.60657(12) -0.64924(7)
C7 C -0.3949(2) -0.69111(12) -0.61365(7)
C8 C -0.3880(3) -0.68720(13) -0.54394(7)
C9 C -0.5058(3) -0.59813(12) -0.51543(7)
C10 C -0.3921(3) -0.49613(12) -0.52426(7)
C11 C -0.2975(3) -0.47104(11) -0.58923(7)
C12 C -0.2869(3) -0.35360(11) -0.58445(7)
C13 C -0.2917(2) -0.29756(12) -0.64571(7)
C14 C -0.5083(2) -0.31633(12) -0.67388(7)
C15 C -0.6843(3) -0.26314(12) -0.63495(7)
C16 C -0.6103(3) -0.24443(12) -0.56822(8)
C17 C -0.5419(3) -0.40718(13) -0.51359(7)
C18 C -0.7544(3) -0.16324(14) -0.66424(9)
C19 C -0.0749(3) -0.51279(13) -0.60008(8)
C20 C -0.7985(3) -0.78659(12) -0.65347(7)
C21 C -0.8489(3) -0.89386(14) -0.67110(9)
H1 H -0.8333(3) -0.58366(12) -0.76480(7)
H2 H -0.7337(3) -0.41307(12) -0.75529(7)
H3 H -0.4484(3) -0.75132(13) -0.52747(7)
H4 H -0.2385(3) -0.68395(13) -0.53064(7)
H5 H -0.6480(3) -0.59371(12) -0.53430(7)
H6 H -0.5242(3) -0.61089(12) -0.47057(7)
H7 H -0.2758(3) -0.49173(12) -0.49301(7)
H8 H -0.1583(3) -0.33321(11) -0.56061(7)
H9 H -0.2687(2) -0.22369(12) -0.63918(7)
H10 H -0.1796(2) -0.32360(12) -0.67350(7)
H11 H -0.5097(2) -0.28607(12) -0.71639(7)
H12 H -0.8093(3) -0.30972(12) -0.63346(7)
H13 H -0.7341(3) -0.23884(12) -0.54042(8)
H14 H -0.5300(3) -0.17977(12) -0.56598(8)
H15 H -0.6327(5) -0.1175(4) -0.6681(6)
H16 H -0.814(2) -0.17670(18) -0.7054(3)
H17 H -0.8621(16) -0.1312(5) -0.6381(3)
H18 H -0.0811(4) -0.58709(17) -0.6044(6)
H19 H -0.0162(8) -0.4829(7) -0.6379(3)
H20 H 0.0154(6) -0.4952(8) -0.5648(3)
H21 H -0.855(2) -0.8994(3) -0.71632(9)
H22 H -0.7389(12) -0.93942(19) -0.6552(6)
H23 H -0.9857(11) -0.9132(4) -0.6534(6)
O5 O -0.9175(4) -0.53151(16) -0.40136(14)
H24 H -0.844(6) -0.498(3) -0.4272(18)
H25 H -0.853(6) -0.586(2) -0.392(2)
loop_
_geom_bond_atom_site_label_1
_geom_bond_atom_site_label_2
_geom_bond_site_symmetry_1
_geom_bond_site_symmetry_2
O1 C17 1_555 1_555
O2 C7 1_555 1_555
O3 C1 1_555 1_555
O4 C20 1_555 1_555
N1 C12 1_555 1_555
C1 C2 1_555 1_555
C2 C3 1_555 1_555
C3 C4 1_555 1_555
C4 C5 1_555 1_555
C5 C6 1_555 1_555
C6 C1 1_555 1_555
C7 C6 1_555 1_555
C8 C7 1_555 1_555
C9 C8 1_555 1_555
C10 C9 1_555 1_555
C11 C5 1_555 1_555
C12 C11 1_555 1_555
C13 C12 1_555 1_555
C14 C4 1_555 1_555
C15 C14 1_555 1_555
C16 N1 1_555 1_555
C17 N1 1_555 1_555
C18 C15 1_555 1_555
C19 C11 1_555 1_555
C20 O3 1_555 1_555
C21 C20 1_555 1_555
H1 C2 1_555 1_555
H2 C3 1_555 1_555
H3 C8 1_555 1_555
H4 C8 1_555 1_555
H5 C9 1_555 1_555
H6 C9 1_555 1_555
H7 C10 1_555 1_555
H8 C12 1_555 1_555
H9 C13 1_555 1_555
H10 C13 1_555 1_555
H11 C14 1_555 1_555
H12 C15 1_555 1_555
H13 C16 1_555 1_555
H14 C16 1_555 1_555
H15 C18 1_555 1_555
H16 C18 1_555 1_555
H17 C18 1_555 1_555
H18 C19 1_555 1_555
H19 C19 1_555 1_555
H20 C19 1_555 1_555
H21 C21 1_555 1_555
H22 C21 1_555 1_555
H23 C21 1_555 1_555
O5 H24 1_555 1_555
H25 O5 1_555 1_555
C10 C11 1_555 1_555
C10 C17 1_555 1_555
C13 C14 1_555 1_555
C15 C16 1_555 1_555

#END
