
#######################################################################
#
#                 Cambridge Crystallographic Data Centre
#                                CCDC 
#
#######################################################################
#
# If this CIF has been generated from an entry in the Cambridge 
# Structural Database, then it will include bibliographic, chemical, 
# crystal, experimental, refinement or atomic coordinate data resulting 
# from the CCDC's data processing and validation procedures.
#
#######################################################################

data_JEWGOH
_chemical_formula_moiety         'C5 H10 P2 S4'
_chemical_name_systematic        Methylenebis(1,3,2-dithiaphospholane)
_symmetry_cell_setting           monoclinic
_symmetry_space_group_name_H-M   'P 21/n'
_symmetry_Int_Tables_number      14
_space_group_name_Hall           '-P 2yn'
loop_
_symmetry_equiv_pos_site_id
_symmetry_equiv_pos_as_xyz
1 x,y,z
2 1/2-x,1/2+y,1/2-z
3 -x,-y,-z
4 1/2+x,1/2-y,1/2+z
_cell_length_a                   10.495(2)
_cell_length_b                   10.386(2)
_cell_length_c                   10.959(2)
_cell_angle_alpha                90
_cell_angle_beta                 113.89(2)
_cell_angle_gamma                90
_cell_volume                     1092.2
_exptl_crystal_colour            colorless
_cell_formula_units_Z            4
loop_
_atom_site_label
_atom_site_type_symbol
_atom_site_fract_x
_atom_site_fract_y
_atom_site_fract_z
S1 S 0.3161(1) 0.0596(2) 0.8891(1)
S2 S 0.2193(2) 0.0526(2) 0.5835(1)
S3 S 0.6082(2) 0.4288(2) 0.6497(2)
S4 S 0.6007(2) 0.1460(2) 0.5659(1)
P1 P 0.4088(1) 0.0559(2) 0.7520(1)
P2 P 0.4656(1) 0.2777(2) 0.5948(1)
C1 C 0.1606(5) 0.1555(7) 0.7903(5)
C2 C 0.1126(6) 0.1432(8) 0.6510(6)
C3 C 0.7620(6) 0.3357(6) 0.7370(6)
C4 C 0.7715(5) 0.2238(7) 0.6627(6)
C5 C 0.4626(5) 0.2257(6) 0.7540(5)
loop_
_geom_bond_atom_site_label_1
_geom_bond_atom_site_label_2
_geom_bond_site_symmetry_1
_geom_bond_site_symmetry_2
S1 P1 1_555 1_555
S2 P1 1_555 1_555
S3 P2 1_555 1_555
S4 P2 1_555 1_555
P1 C5 1_555 1_555
P2 C5 1_555 1_555
C1 S1 1_555 1_555
C2 S2 1_555 1_555
C3 S3 1_555 1_555
C4 S4 1_555 1_555
C1 C2 1_555 1_555
C3 C4 1_555 1_555

#END
