
#######################################################################
#
#                 Cambridge Crystallographic Data Centre
#                                CCDC 
#
#######################################################################
#
# If this CIF has been generated from an entry in the Cambridge 
# Structural Database, then it will include bibliographic, chemical, 
# crystal, experimental, refinement or atomic coordinate data resulting 
# from the CCDC's data processing and validation procedures.
#
#######################################################################

data_JEWHOL
_chemical_formula_moiety         'C32 H58 N1 O1 Si2 1+,C1 F3 O3 S1 1-'
_chemical_name_systematic        
'3a-methyl-8-[(trimethylsilyl)methyl]-12-({[tris(propan-2-yl)silyl]oxy}methyl)-2,3,3a,4,5,5a,6,10,10a,10c-decahydro-1H,9H-5,10b,6a-(ethane[1,1,2]triyl)dibenzo[cd,f]indol-5-ium trifluoromethanesulfonate'
_symmetry_cell_setting           monoclinic
_symmetry_space_group_name_H-M   'P 21/c'
_symmetry_Int_Tables_number      14
_space_group_name_Hall           '-P 2ybc'
loop_
_symmetry_equiv_pos_site_id
_symmetry_equiv_pos_as_xyz
1 x,y,z
2 -x,1/2+y,1/2-z
3 -x,-y,-z
4 x,1/2-y,1/2+z
_cell_length_a                   14.10629(15)
_cell_length_b                   18.5624(2)
_cell_length_c                   14.99124(18)
_cell_angle_alpha                90
_cell_angle_beta                 102.2410(11)
_cell_angle_gamma                90
_cell_volume                     3836.16
_exptl_crystal_colour            colorless
_exptl_crystal_description       block
_cell_formula_units_Z            4
loop_
_atom_site_label
_atom_site_type_symbol
_atom_site_fract_x
_atom_site_fract_y
_atom_site_fract_z
Si1 Si 0.88880(6) 0.82724(6) 0.51774(6)
Si2 Si 0.79247(8) 0.46636(6) 0.55251(9)
O1 O 0.77750(13) 0.79527(13) 0.49955(15)
N1 N 0.49929(14) 0.83429(11) 0.53166(14)
H1 H 0.4950 0.8405 0.4660
C1 C 0.8767(5) 0.9280(3) 0.5524(6)
H2 H 0.9405 0.9500 0.5563
C2 C 0.8566(6) 0.9296(5) 0.6514(6)
H3 H 0.7902 0.9168 0.6492
H4 H 0.8687 0.9772 0.6764
H5 H 0.8985 0.8959 0.6892
C3 C 0.8083(8) 0.9631(5) 0.4707(8)
H6 H 0.8341 0.9569 0.4169
H7 H 0.8024 1.0136 0.4824
H8 H 0.7456 0.9408 0.4618
C4 C 0.9194(5) 0.8308(4) 0.4060(4)
H9 H 0.8631 0.8525 0.3652
C5 C 1.0063(7) 0.8791(6) 0.3989(6)
H10 H 0.9977 0.9259 0.4232
H11 H 1.0105 0.8836 0.3360
H12 H 1.0650 0.8578 0.4330
C6 C 0.9183(7) 0.7383(5) 0.3745(6)
H13 H 0.9837 0.7208 0.3838
H14 H 0.8872 0.7332 0.3114
H15 H 0.8833 0.7110 0.4115
C7 C 0.9696(3) 0.7868(3) 0.6174(4)
H16 H 0.9362 0.7906 0.6682
C8 C 1.0670(4) 0.8271(4) 0.6470(6)
H17 H 1.1020 0.8252 0.5987
H18 H 1.1048 0.8048 0.7007
H19 H 1.0548 0.8765 0.6600
C9 C 0.9840(4) 0.6974(4) 0.5994(6)
H20 H 0.9941 0.6901 0.5387
H21 H 0.9269 0.6718 0.6066
H22 H 1.0391 0.6797 0.6429
C10 C 0.7404(2) 0.74074(17) 0.5474(2)
H23 H 0.762(3) 0.690(2) 0.534(3)
H24 H 0.770(3) 0.744(2) 0.606(3)
C11 C 0.63047(17) 0.74752(13) 0.52909(16)
H25 H 0.6059 0.7560 0.4637
C12 C 0.57388(17) 0.68372(13) 0.55985(17)
C13 C 0.46555(17) 0.70129(14) 0.5209(2)
H26 H 0.4538 0.7018 0.4547
H27 H 0.4256 0.6637 0.5388
C14 C 0.43587(17) 0.77376(14) 0.55428(18)
H28 H 0.3670 0.7837 0.5302
C15 C 0.59804(16) 0.80907(13) 0.58263(16)
H29 H 0.6456 0.8482 0.5949
C16 C 0.57512(17) 0.77570(13) 0.67279(16)
C17 C 0.46404(18) 0.78846(14) 0.65664(18)
H30 H 0.4314 0.7569 0.6931
C18 C 0.4406(2) 0.86895(15) 0.6649(2)
C19 C 0.5007(3) 0.90247(18) 0.7522(2)
H31 H 0.4887 0.9540 0.7508
H32 H 0.4786 0.8829 0.8042
C20 C 0.6091(3) 0.88989(18) 0.7658(2)
H33 H 0.6414 0.9085 0.8250
H34 H 0.6339 0.9158 0.7194
C21 C 0.6316(2) 0.80985(17) 0.76031(19)
H35 H 0.7006 0.8038 0.7633
H36 H 0.6158 0.7852 0.8123
C22 C 0.4670(2) 0.89935(14) 0.57664(19)
H37 H 0.4111 0.9217 0.5376
H38 H 0.5188 0.9346 0.5912
C23 C 0.3325(3) 0.8801(2) 0.6633(3)
H39 H 0.2944 0.8566 0.6106
H40 H 0.3180 0.9307 0.6607
H41 H 0.3173 0.8599 0.7176
C24 C 0.58750(18) 0.69333(13) 0.66356(17)
H42 H 0.5313 0.6708 0.6810
C25 C 0.6770(2) 0.65527(16) 0.7179(2)
H43 H 0.6810 0.6618 0.7828
H44 H 0.7351 0.6752 0.7026
C26 C 0.60077(19) 0.60958(14) 0.5336(2)
H45 H 0.5868 0.5975 0.4720
C27 C 0.6433(2) 0.56031(15) 0.5929(2)
C28 C 0.6683(3) 0.57519(17) 0.6938(3)
H46 H 0.7294 0.5518 0.7198
H47 H 0.6189 0.5540 0.7217
C29 C 0.6652(3) 0.48516(18) 0.5640(3)
H48 H 0.6223 0.4751 0.5057
H49 H 0.6492 0.4514 0.6080
C30 C 0.8843(4) 0.4946(4) 0.6553(4)
H50 H 0.8906 0.5461 0.6557
H51 H 0.9457 0.4730 0.6536
H52 H 0.8638 0.4793 0.7094
C31 C 0.8179(4) 0.5168(4) 0.4530(4)
H53 H 0.7748 0.5007 0.3983
H54 H 0.8838 0.5084 0.4481
H55 H 0.8084 0.5674 0.4612
C32 C 0.7999(5) 0.3667(3) 0.5347(6)
H56 H 0.7800 0.3417 0.5837
H57 H 0.8655 0.3538 0.5334
H58 H 0.7580 0.3537 0.4778
S1 S 0.61153(5) 0.39348(4) 0.19878(5)
F1 F 0.7375(3) 0.2958(2) 0.2630(4)
F2 F 0.80040(19) 0.3953(2) 0.2447(3)
F3 F 0.7441(2) 0.3345(2) 0.1274(3)
O2 O 0.6131(2) 0.45165(15) 0.1371(2)
O3 O 0.6069(2) 0.41247(17) 0.28936(17)
O4 O 0.54749(18) 0.33557(14) 0.16008(15)
C33 C 0.7297(3) 0.3526(3) 0.2098(4)
loop_
_geom_bond_atom_site_label_1
_geom_bond_atom_site_label_2
_geom_bond_site_symmetry_1
_geom_bond_site_symmetry_2
Si1 O1 1_555 1_555
Si2 C29 1_555 1_555
O1 C10 1_555 1_555
N1 H1 1_555 1_555
C1 Si1 1_555 1_555
H2 C1 1_555 1_555
C2 C1 1_555 1_555
H3 C2 1_555 1_555
H4 C2 1_555 1_555
H5 C2 1_555 1_555
C3 C1 1_555 1_555
H6 C3 1_555 1_555
H7 C3 1_555 1_555
H8 C3 1_555 1_555
C4 Si1 1_555 1_555
H9 C4 1_555 1_555
C5 C4 1_555 1_555
H10 C5 1_555 1_555
H11 C5 1_555 1_555
H12 C5 1_555 1_555
C6 C4 1_555 1_555
H13 C6 1_555 1_555
H14 C6 1_555 1_555
H15 C6 1_555 1_555
C7 Si1 1_555 1_555
H16 C7 1_555 1_555
C8 C7 1_555 1_555
H17 C8 1_555 1_555
H18 C8 1_555 1_555
H19 C8 1_555 1_555
C9 C7 1_555 1_555
H20 C9 1_555 1_555
H21 C9 1_555 1_555
H22 C9 1_555 1_555
C10 H23 1_555 1_555
H24 C10 1_555 1_555
C11 C10 1_555 1_555
H25 C11 1_555 1_555
C12 C11 1_555 1_555
C13 C12 1_555 1_555
H26 C13 1_555 1_555
H27 C13 1_555 1_555
C14 N1 1_555 1_555
H28 C14 1_555 1_555
C15 N1 1_555 1_555
H29 C15 1_555 1_555
C16 C15 1_555 1_555
C17 C14 1_555 1_555
H30 C17 1_555 1_555
C18 C17 1_555 1_555
C19 C18 1_555 1_555
H31 C19 1_555 1_555
H32 C19 1_555 1_555
C20 C19 1_555 1_555
H33 C20 1_555 1_555
H34 C20 1_555 1_555
C21 C16 1_555 1_555
H35 C21 1_555 1_555
H36 C21 1_555 1_555
C22 N1 1_555 1_555
H37 C22 1_555 1_555
H38 C22 1_555 1_555
C23 C18 1_555 1_555
H39 C23 1_555 1_555
H40 C23 1_555 1_555
H41 C23 1_555 1_555
C24 C12 1_555 1_555
H42 C24 1_555 1_555
C25 C24 1_555 1_555
H43 C25 1_555 1_555
H44 C25 1_555 1_555
C26 C12 1_555 1_555
H45 C26 1_555 1_555
C27 C26 1_555 1_555
C28 C25 1_555 1_555
H46 C28 1_555 1_555
H47 C28 1_555 1_555
C29 C27 1_555 1_555
H48 C29 1_555 1_555
H49 C29 1_555 1_555
C30 Si2 1_555 1_555
H50 C30 1_555 1_555
H51 C30 1_555 1_555
H52 C30 1_555 1_555
C31 Si2 1_555 1_555
H53 C31 1_555 1_555
H54 C31 1_555 1_555
H55 C31 1_555 1_555
C32 Si2 1_555 1_555
H56 C32 1_555 1_555
H57 C32 1_555 1_555
H58 C32 1_555 1_555
S1 O2 1_555 1_555
F1 C33 1_555 1_555
F2 C33 1_555 1_555
F3 C33 1_555 1_555
O3 S1 1_555 1_555
O4 S1 1_555 1_555
C33 S1 1_555 1_555
C11 C15 1_555 1_555
C13 C14 1_555 1_555
C16 C17 1_555 1_555
C16 C24 1_555 1_555
C18 C22 1_555 1_555
C20 C21 1_555 1_555
C27 C28 1_555 1_555

#END
