
#######################################################################
#
#                 Cambridge Crystallographic Data Centre
#                                CCDC 
#
#######################################################################
#
# If this CIF has been generated from an entry in the Cambridge 
# Structural Database, then it will include bibliographic, chemical, 
# crystal, experimental, refinement or atomic coordinate data resulting 
# from the CCDC's data processing and validation procedures.
#
#######################################################################

data_JEWHEB
_chemical_formula_moiety         'C23 H27 N1 O6'
_chemical_name_systematic        
'methyl 3-acetyl-10,12b-dimethyl-4,7,13-trioxo-3a,4,5,6,9,10,11,12,12a,12b-decahydro-1H-11,12c-methanoazuleno[4,5-a]indolizine-6a(7H)-carboxylate'
_symmetry_cell_setting           orthorhombic
_symmetry_space_group_name_H-M   'P 21 21 21'
_symmetry_Int_Tables_number      19
_space_group_name_Hall           'P 2ac 2ab'
loop_
_symmetry_equiv_pos_site_id
_symmetry_equiv_pos_as_xyz
1 x,y,z
2 1/2-x,-y,1/2+z
3 1/2+x,1/2-y,-z
4 -x,1/2+y,1/2-z
_cell_length_a                   7.7174(14)
_cell_length_b                   13.724(3)
_cell_length_c                   19.262(3)
_cell_angle_alpha                90
_cell_angle_beta                 90
_cell_angle_gamma                90
_cell_volume                     2040.11
_exptl_crystal_colour            colorless
_exptl_crystal_description       block
_cell_formula_units_Z            4
loop_
_atom_site_label
_atom_site_type_symbol
_atom_site_fract_x
_atom_site_fract_y
_atom_site_fract_z
C1 C 0.2367(2) 0.10703(12) 0.42166(8)
C2 C 0.1578(2) 0.13947(11) 0.35184(8)
C3 C 0.13890(19) 0.03914(11) 0.31075(8)
C4 C 0.1035(2) -0.03151(12) 0.37307(8)
H1 H -0.0206 -0.0330 0.3839
C5 C 0.1719(2) -0.13431(11) 0.36327(9)
H2 H 0.1393 -0.1595 0.3181
H3 H 0.1263 -0.1774 0.3988
C6 C 0.3694(2) -0.12610(11) 0.36931(8)
H4 H 0.4219 -0.1862 0.3516
C7 C 0.4209(2) -0.11339(12) 0.44681(8)
H5 H 0.5317 -0.0786 0.4487
C8 C 0.2818(2) -0.04946(13) 0.48251(8)
H6 H 0.1952 -0.0906 0.5043
H7 H 0.3351 -0.0096 0.5182
C9 C 0.4371(2) -0.04001(10) 0.32690(7)
C10 C 0.31323(19) 0.00566(10) 0.27288(7)
C11 C 0.2880(2) -0.07789(12) 0.21718(8)
H8 H 0.2978 -0.1417 0.2385
H9 H 0.1757 -0.0727 0.1949
C12 C 0.4308(3) -0.06150(13) 0.16619(8)
H10 H 0.4641 -0.1068 0.1329
C13 C 0.5046(2) 0.02479(12) 0.17383(8)
C14 C 0.4173(2) 0.08322(11) 0.22993(8)
H11 H 0.5053 0.1135 0.2596
C15 C 0.3045(2) 0.16214(12) 0.19746(8)
C16 C 0.2430(3) 0.24203(12) 0.24480(9)
H12 H 0.1205 0.2528 0.2365
H13 H 0.3036 0.3016 0.2329
C17 C 0.2696(2) 0.22172(11) 0.32182(9)
H14 H 0.2454 0.2810 0.3475
H15 H 0.3905 0.2056 0.3293
C18 C -0.0229(2) 0.18264(13) 0.36637(9)
C19 C -0.2822(2) 0.16999(14) 0.43034(10)
H16 H -0.2777 0.2356 0.4475
H17 H -0.3352 0.1287 0.4645
H18 H -0.3492 0.1683 0.3884
C20 C 0.4423(3) -0.21019(14) 0.48438(9)
H19 H 0.4691 -0.1984 0.5323
H20 H 0.5347 -0.2465 0.4634
H21 H 0.3365 -0.2467 0.4812
C21 C 0.6491(3) 0.06674(14) 0.13368(9)
C22 C 0.7240(4) 0.00835(19) 0.07473(12)
H22 H 0.6341 -0.0068 0.0420
H23 H 0.7727 -0.0510 0.0925
H24 H 0.8129 0.0456 0.0521
C23 C -0.0167(2) 0.03807(14) 0.26099(9)
H25 H -0.0414 -0.0278 0.2474
H26 H 0.0100 0.0761 0.2205
H27 H -0.1160 0.0653 0.2839
N1 N 0.20038(18) 0.01270(10) 0.43045(7)
O1 O 0.32061(16) 0.15911(9) 0.46071(6)
O2 O 0.58545(14) -0.01218(9) 0.33339(6)
O3 O 0.2690(2) 0.16196(11) 0.13630(7)
O4 O -0.0805(2) 0.25136(13) 0.33647(9)
O5 O -0.10753(15) 0.13584(9) 0.41614(6)
O6 O 0.70601(18) 0.14646(10) 0.14837(7)
loop_
_geom_bond_atom_site_label_1
_geom_bond_atom_site_label_2
_geom_bond_site_symmetry_1
_geom_bond_site_symmetry_2
C1 C2 1_555 1_555
C2 C3 1_555 1_555
C3 C4 1_555 1_555
C4 H1 1_555 1_555
C5 C4 1_555 1_555
H2 C5 1_555 1_555
H3 C5 1_555 1_555
C6 C5 1_555 1_555
H4 C6 1_555 1_555
C7 C6 1_555 1_555
H5 C7 1_555 1_555
C8 C7 1_555 1_555
H6 C8 1_555 1_555
H7 C8 1_555 1_555
C9 C6 1_555 1_555
C10 C3 1_555 1_555
C11 C10 1_555 1_555
H8 C11 1_555 1_555
H9 C11 1_555 1_555
C12 C11 1_555 1_555
H10 C12 1_555 1_555
C13 C12 1_555 1_555
C14 C10 1_555 1_555
H11 C14 1_555 1_555
C15 C14 1_555 1_555
C16 C15 1_555 1_555
H12 C16 1_555 1_555
H13 C16 1_555 1_555
C17 C2 1_555 1_555
H14 C17 1_555 1_555
H15 C17 1_555 1_555
C18 C2 1_555 1_555
C19 H16 1_555 1_555
H17 C19 1_555 1_555
H18 C19 1_555 1_555
C20 C7 1_555 1_555
H19 C20 1_555 1_555
H20 C20 1_555 1_555
H21 C20 1_555 1_555
C21 C13 1_555 1_555
C22 C21 1_555 1_555
H22 C22 1_555 1_555
H23 C22 1_555 1_555
H24 C22 1_555 1_555
C23 C3 1_555 1_555
H25 C23 1_555 1_555
H26 C23 1_555 1_555
H27 C23 1_555 1_555
N1 C1 1_555 1_555
O1 C1 1_555 1_555
O2 C9 1_555 1_555
O3 C15 1_555 1_555
O4 C18 1_555 1_555
O5 C18 1_555 1_555
O6 C21 1_555 1_555
C4 N1 1_555 1_555
C8 N1 1_555 1_555
C9 C10 1_555 1_555
C13 C14 1_555 1_555
C16 C17 1_555 1_555
C19 O5 1_555 1_555

#END
