
#######################################################################
#
#                 Cambridge Crystallographic Data Centre
#                                CCDC 
#
#######################################################################
#
# If this CIF has been generated from an entry in the Cambridge 
# Structural Database, then it will include bibliographic, chemical, 
# crystal, experimental, refinement or atomic coordinate data resulting 
# from the CCDC's data processing and validation procedures.
#
#######################################################################

data_JEWNAD
_chemical_name_common            'photosantonic N-methyl amino acid'
_chemical_formula_moiety         'C16 H23 N1 O3'
_chemical_name_systematic        
'(S)-2-((2R,4aS,5S)-4a,5-dimethyl-5-(methylamino)-6-oxo-2,3,4,4a,5,6-hexahydronaphthalen-2-yl)propanoic acid'
_symmetry_cell_setting           orthorhombic
_symmetry_space_group_name_H-M   'P 21 21 21'
_symmetry_Int_Tables_number      19
_space_group_name_Hall           'P 2ac 2ab'
loop_
_symmetry_equiv_pos_site_id
_symmetry_equiv_pos_as_xyz
1 x,y,z
2 1/2+x,1/2-y,-z
3 -x,1/2+y,1/2-z
4 1/2-x,-y,1/2+z
_cell_length_a                   9.475
_cell_length_b                   9.695
_cell_length_c                   15.795
_cell_angle_alpha                90
_cell_angle_beta                 90
_cell_angle_gamma                90
_cell_volume                     1450.93
_exptl_crystal_colour            yellow
_exptl_crystal_description       'rectangular block'
_cell_formula_units_Z            4
loop_
_atom_site_label
_atom_site_type_symbol
_atom_site_fract_x
_atom_site_fract_y
_atom_site_fract_z
O1 O 0.5158(3) 0.9988(2) 0.59019(12)
O2 O 0.3955(3) 0.9061(2) 0.48248(13)
H1 H 0.441025 0.962163 0.454854
O3 O 0.0716(2) 0.1273(2) 0.72187(14)
N1 N 0.0073(3) 0.4293(3) 0.63708(16)
H2 H 0.028(3) 0.491(3) 0.685(2)
C1 C 0.2705(3) 0.4060(3) 0.63442(18)
C2 C 0.2817(3) 0.4959(3) 0.71292(19)
C3 C 0.1269(3) 0.3275(3) 0.63546(19)
C4 C 0.3912(3) 0.3000(3) 0.63841(18)
H3 H 0.479400 0.347237 0.645586
H4 H 0.393304 0.247786 0.586788
H5 H 0.376037 0.238857 0.685345
C5 C 0.1604(3) 0.3180(4) 0.79601(19)
H6 H 0.138138 0.280877 0.848617
C6 C 0.2308(4) 0.4374(3) 0.7924(2)
H7 H 0.248011 0.485002 0.842487
C7 C 0.1180(3) 0.2450(4) 0.7201(2)
C8 C 0.2849(3) 0.4948(3) 0.55518(18)
H8 H 0.295738 0.435127 0.506315
H9 H 0.199064 0.547825 0.547542
C9 C 0.1067(4) 0.2325(3) 0.55960(18)
H10 H 0.100153 0.286763 0.508895
H11 H 0.021549 0.180124 0.566714
H12 H 0.185647 0.170871 0.555376
C10 C 0.4106(4) 0.5937(3) 0.5593(2)
H13 H 0.497107 0.540314 0.560067
H14 H 0.411341 0.650019 0.508520
C11 C 0.3368(3) 0.8314(3) 0.62266(19)
H15 H 0.336042 0.877747 0.677789
C12 C -0.1353(3) 0.3700(4) 0.6529(2)
H16 H -0.161951 0.312493 0.606124
H17 H -0.202559 0.443366 0.659082
H18 H -0.133247 0.315933 0.703847
C13 C 0.3467(3) 0.6188(3) 0.7122(2)
H19 H 0.354010 0.664634 0.763675
C14 C 0.4080(3) 0.6887(3) 0.63699(16)
H20 H 0.506841 0.707836 0.651024
C15 C 0.4254(4) 0.9208(4) 0.5643(2)
C16 C 0.1848(3) 0.8212(4) 0.59485(19)
H21 H 0.142526 0.911174 0.596116
H22 H 0.134573 0.760893 0.632439
H23 H 0.180745 0.785159 0.538302
loop_
_geom_bond_atom_site_label_1
_geom_bond_atom_site_label_2
_geom_bond_site_symmetry_1
_geom_bond_site_symmetry_2
O1 C15 1_555 1_555
O2 H1 1_555 1_555
O3 C7 1_555 1_555
N1 H2 1_555 1_555
C1 C2 1_555 1_555
C2 C6 1_555 1_555
C3 N1 1_555 1_555
C4 C1 1_555 1_555
H3 C4 1_555 1_555
H4 C4 1_555 1_555
H5 C4 1_555 1_555
C5 H6 1_555 1_555
C6 C5 1_555 1_555
H7 C6 1_555 1_555
C7 C3 1_555 1_555
C8 C1 1_555 1_555
H8 C8 1_555 1_555
H9 C8 1_555 1_555
C9 C3 1_555 1_555
H10 C9 1_555 1_555
H11 C9 1_555 1_555
H12 C9 1_555 1_555
C10 C8 1_555 1_555
H13 C10 1_555 1_555
H14 C10 1_555 1_555
C11 H15 1_555 1_555
C12 N1 1_555 1_555
H16 C12 1_555 1_555
H17 C12 1_555 1_555
H18 C12 1_555 1_555
C13 C2 1_555 1_555
H19 C13 1_555 1_555
C14 C10 1_555 1_555
H20 C14 1_555 1_555
C15 O2 1_555 1_555
C16 C11 1_555 1_555
H21 C16 1_555 1_555
H22 C16 1_555 1_555
H23 C16 1_555 1_555
C1 C3 1_555 1_555
C5 C7 1_555 1_555
C11 C14 1_555 1_555
C11 C15 1_555 1_555
C13 C14 1_555 1_555

#END
