
#######################################################################
#
#                 Cambridge Crystallographic Data Centre
#                                CCDC 
#
#######################################################################
#
# If this CIF has been generated from an entry in the Cambridge 
# Structural Database, then it will include bibliographic, chemical, 
# crystal, experimental, refinement or atomic coordinate data resulting 
# from the CCDC's data processing and validation procedures.
#
#######################################################################

data_JEWNUU
_chemical_formula_moiety         'C20 H18 N4 O2,C6 H10 O4'
_chemical_name_systematic        
'1,4-bis(\a-Picolin-6-yl)benzenediamide adipic acid'
_symmetry_cell_setting           orthorhombic
_symmetry_space_group_name_H-M   'P 21 21 21'
_symmetry_Int_Tables_number      19
_space_group_name_Hall           'P 2ac 2ab'
loop_
_symmetry_equiv_pos_site_id
_symmetry_equiv_pos_as_xyz
1 x,y,z
2 1/2+x,1/2-y,-z
3 -x,1/2+y,1/2-z
4 1/2-x,-y,1/2+z
_cell_length_a                   11.115(3)
_cell_length_b                   13.682(3)
_cell_length_c                   16.144(4)
_cell_angle_alpha                90
_cell_angle_beta                 90
_cell_angle_gamma                90
_cell_volume                     2455.11
_exptl_crystal_colour            colorless
_cell_formula_units_Z            4
loop_
_atom_site_label
_atom_site_type_symbol
_atom_site_fract_x
_atom_site_fract_y
_atom_site_fract_z
N1 N 0.5255(3) -0.1162(3) 0.1622(2)
C1 C 0.4878(4) -0.2056(4) 0.1828(3)
C2 C 0.3689(5) -0.2227(4) 0.2043(3)
C3 C 0.2894(5) -0.1463(5) 0.2052(4)
C4 C 0.3268(4) -0.0538(5) 0.1828(4)
C5 C 0.4462(4) -0.0426(4) 0.1615(3)
C6 C 0.5785(5) -0.2864(4) 0.1802(4)
N2 N 0.4971(3) 0.0488(3) 0.1392(3)
C7 C 0.4352(4) 0.1318(4) 0.1159(3)
O1 O 0.3263(2) 0.1342(3) 0.1110(3)
C8 C 0.5115(4) 0.2191(4) 0.0961(3)
C9 C 0.4592(4) 0.3105(4) 0.1062(4)
C10 C 0.5239(4) 0.3940(4) 0.0926(3)
C11 C 0.6443(4) 0.3892(4) 0.0674(3)
C12 C 0.6957(4) 0.2977(4) 0.0543(3)
C13 C 0.6303(4) 0.2130(4) 0.0682(3)
C14 C 0.7108(4) 0.4823(4) 0.0535(3)
O2 O 0.6580(3) 0.5546(3) 0.0283(3)
N3 N 0.8308(3) 0.4806(3) 0.0697(3)
C15 C 0.9136(4) 0.5572(4) 0.0595(3)
C16 C 0.8841(5) 0.6516(4) 0.0395(3)
C17 C 0.9757(5) 0.7198(4) 0.0345(4)
C18 C 1.0925(5) 0.6917(4) 0.0483(4)
C19 C 1.1168(4) 0.5962(4) 0.0675(3)
N4 N 1.0290(3) 0.5290(3) 0.0735(3)
C20 C 1.2430(4) 0.5609(4) 0.0833(4)
H1 H 0.5771(32) 0.0475(30) 0.1394(24)
H2 H 0.8687(29) 0.4252(25) 0.0928(23)
H5 H 0.3426 -0.2874 0.2184
H6 H 0.2075 -0.1572 0.2218
H7 H 0.2718 0.0003 0.1820
H8 H 0.5405 -0.3468 0.1952
H9 H 0.6423 -0.2724 0.2185
H10 H 0.6108 -0.2917 0.1252
H11 H 0.3765 0.3153 0.1230
H12 H 0.4864 0.4564 0.1007
H13 H 0.7776 0.2930 0.0359
H14 H 0.6665 0.1503 0.0587
H15 H 0.8020 0.6698 0.0292
H16 H 0.9578 0.7867 0.0216
H17 H 1.1566 0.7385 0.0445
H18 H 1.2978 0.6146 0.0777
H19 H 1.2631 0.5111 0.0438
H20 H 1.2487 0.5345 0.1383
O3 O 0.7672(3) -0.1073(3) 0.1323(3)
O4 O 0.7542(3) 0.04683 0.17363
O5 O 1.1202(3) 0.3659(3) 0.1466(3)
O6 O 0.9338(3) 0.3156(3) 0.1605(3)
C21 C 0.8145(4) -0.0219(4) 0.1499(3)
C22 C 0.9471(4) -0.0201(4) 0.1346(4)
C23 C 1.0021(4) 0.0828(4) 0.1360(3)
C24 C 1.0123(5) 0.1287(4) 0.2205(3)
C25 C 1.0907(4) 0.2203(4) 0.2207(3)
C26 C 1.0392(4) 0.3034(4) 0.1739(3)
H3 H 0.6963(29) -0.1092(28) 0.1441(23)
H4 H 1.0829(49) 0.4129(44) 0.1154(39)
H21 H 0.9856 -0.0584 0.1768
H22 H 0.9623 -0.0487 0.0813
H23 H 0.9527 0.1243 0.1022
H24 H 1.0814 0.0790 0.1126
H25 H 0.9332 0.1461 0.2393
H26 H 1.0468 0.0818 0.2579
H27 H 1.1671 0.2039 0.1968
H28 H 1.1021 0.2407 0.2771
loop_
_geom_bond_atom_site_label_1
_geom_bond_atom_site_label_2
_geom_bond_site_symmetry_1
_geom_bond_site_symmetry_2
N1 C1 1_555 1_555
C1 C2 1_555 1_555
C2 C3 1_555 1_555
C3 C4 1_555 1_555
C4 C5 1_555 1_555
C5 N1 1_555 1_555
C6 C1 1_555 1_555
N2 C5 1_555 1_555
C7 N2 1_555 1_555
O1 C7 1_555 1_555
C8 C7 1_555 1_555
C9 C8 1_555 1_555
C10 C9 1_555 1_555
C11 C10 1_555 1_555
C12 C11 1_555 1_555
C13 C8 1_555 1_555
C14 C11 1_555 1_555
O2 C14 1_555 1_555
N3 C14 1_555 1_555
C15 N3 1_555 1_555
C16 C15 1_555 1_555
C17 C16 1_555 1_555
C18 C17 1_555 1_555
C19 C18 1_555 1_555
N4 C15 1_555 1_555
C20 C19 1_555 1_555
O3 C21 1_555 1_555
O4 C21 1_555 1_555
O5 C26 1_555 1_555
O6 C26 1_555 1_555
C21 C22 1_555 1_555
C22 C23 1_555 1_555
C23 C24 1_555 1_555
C24 C25 1_555 1_555
C25 C26 1_555 1_555
H1 N2 1_555 1_555
H2 N3 1_555 1_555
H3 O3 1_555 1_555
H4 O5 1_555 1_555
H5 C2 1_555 1_555
H6 C3 1_555 1_555
H7 C4 1_555 1_555
H8 C6 1_555 1_555
H9 C6 1_555 1_555
H10 C6 1_555 1_555
H11 C9 1_555 1_555
H12 C10 1_555 1_555
H13 C12 1_555 1_555
H14 C13 1_555 1_555
H15 C16 1_555 1_555
H16 C17 1_555 1_555
H17 C18 1_555 1_555
H18 C20 1_555 1_555
H19 C20 1_555 1_555
H20 C20 1_555 1_555
H21 C22 1_555 1_555
H22 C22 1_555 1_555
H23 C23 1_555 1_555
H24 C23 1_555 1_555
H25 C24 1_555 1_555
H26 C24 1_555 1_555
H27 C25 1_555 1_555
H28 C25 1_555 1_555
C12 C13 1_555 1_555
C19 N4 1_555 1_555

#END
