
#######################################################################
#
#                 Cambridge Crystallographic Data Centre
#                                CCDC 
#
#######################################################################
#
# If this CIF has been generated from an entry in the Cambridge 
# Structural Database, then it will include bibliographic, chemical, 
# crystal, experimental, refinement or atomic coordinate data resulting 
# from the CCDC's data processing and validation procedures.
#
#######################################################################

data_JEWQIO
_chemical_name_common            
(2-(pyridin-2-yl)-6-[4-(mesityl)buta-1,3-dien-1,4-diyl]benzen-1-yl)(mesityl)boron
_chemical_formula_moiety         'C33 H32 B1 N1'
_chemical_name_systematic        
7,8-bis(2,4,6-trimethylphenyl)-8H-9\l^5^,8\l^5^-[1]benzoborepino[1',9':2,3,4][1,2]azaborolo[1,5-a]pyridine
_symmetry_cell_setting           monoclinic
_symmetry_space_group_name_H-M   'P 21/c'
_symmetry_Int_Tables_number      14
_space_group_name_Hall           '-P 2ybc'
loop_
_symmetry_equiv_pos_site_id
_symmetry_equiv_pos_as_xyz
1 x,y,z
2 -x,1/2+y,1/2-z
3 -x,-y,-z
4 x,1/2-y,1/2+z
_cell_length_a                   9.1498(5)
_cell_length_b                   19.5550(12)
_cell_length_c                   14.6795(8)
_cell_angle_alpha                90
_cell_angle_beta                 100.598(2)
_cell_angle_gamma                90
_cell_volume                     2581.72
_exptl_crystal_colour            yellow
_exptl_crystal_description       block
_cell_formula_units_Z            4
loop_
_atom_site_label
_atom_site_type_symbol
_atom_site_fract_x
_atom_site_fract_y
_atom_site_fract_z
B1 B 0.6590(2) 0.67037(10) 0.45505(13)
N1 N 0.58814(14) 0.66890(7) 0.54924(9)
C1 C 0.83273(18) 0.64525(9) 0.47877(12)
C2 C 0.92227(19) 0.65933(10) 0.41808(13)
H1 H 1.0177 0.6398 0.4317
C3 C 0.8919(2) 0.70059(11) 0.33427(14)
H2 H 0.9296 0.6840 0.2831
C4 C 0.8163(2) 0.75941(11) 0.32184(14)
H3 H 0.8091 0.7816 0.2644
C5 C 0.7446(2) 0.79118(10) 0.39154(13)
C6 C 0.7464(3) 0.86244(11) 0.40360(17)
H4 H 0.7792 0.8904 0.3593
C7 C 0.7015(3) 0.89230(12) 0.47842(18)
H5 H 0.7045 0.9401 0.4846
C8 C 0.6519(3) 0.85312(11) 0.54475(16)
H6 H 0.6259 0.8733 0.5976
C9 C 0.64168(19) 0.78304(9) 0.53109(12)
C10 C 0.68215(17) 0.75134(9) 0.45361(12)
C11 C 0.58390(18) 0.73206(9) 0.58751(11)
C12 C 0.5216(2) 0.74170(11) 0.66530(13)
H7 H 0.5195 0.7855 0.6915
C13 C 0.4630(2) 0.68702(12) 0.70368(14)
H8 H 0.4205 0.6928 0.7568
C14 C 0.4664(2) 0.62306(12) 0.66398(14)
H9 H 0.4259 0.5850 0.6896
C15 C 0.5296(2) 0.61570(10) 0.58685(13)
H10 H 0.5318 0.5722 0.5598
C16 C 0.90482(18) 0.61913(10) 0.57230(12)
C17 C 1.00308(19) 0.66314(11) 0.63083(13)
C18 C 1.0668(2) 0.64032(13) 0.71905(14)
H11 H 1.1316 0.6699 0.7577
C19 C 1.0398(2) 0.57656(14) 0.75263(14)
C20 C 0.9456(2) 0.53391(12) 0.69391(14)
H12 H 0.9258 0.4900 0.7148
C21 C 0.8790(2) 0.55382(10) 0.60487(13)
C22 C 0.7864(2) 0.50150(10) 0.54399(14)
H13 H 0.7410 0.4705 0.5823
H14 H 0.8494 0.4758 0.5099
H15 H 0.7093 0.5246 0.5007
C23 C 1.0395(2) 0.73447(11) 0.60308(16)
H16 H 1.1032 0.7567 0.6548
H17 H 0.9484 0.7605 0.5859
H18 H 1.0904 0.7322 0.5508
C24 C 1.1100(3) 0.55543(17) 0.85018(15)
H19 H 1.2113 0.5724 0.8645
H20 H 1.1106 0.5059 0.8547
H21 H 1.0532 0.5744 0.8938
C25 C 0.53738(17) 0.63764(8) 0.36831(11)
C26 C 0.56670(19) 0.58751(9) 0.30389(11)
C27 C 0.4576(2) 0.56832(9) 0.22881(12)
H22 H 0.4813 0.5347 0.1882
C28 C 0.3173(2) 0.59603(10) 0.21111(12)
C29 C 0.28571(19) 0.64306(9) 0.27444(12)
H23 H 0.1896 0.6618 0.2656
C30 C 0.38918(18) 0.66417(9) 0.35096(11)
C31 C 0.7145(2) 0.55225(10) 0.30520(14)
H24 H 0.6981 0.5092 0.2720
H25 H 0.7621 0.5436 0.3688
H26 H 0.7779 0.5813 0.2757
C32 C 0.2052(3) 0.57731(13) 0.12536(15)
H27 H 0.1962 0.5279 0.1208
H28 H 0.2382 0.5950 0.0708
H29 H 0.1093 0.5970 0.1295
C33 C 0.33190(19) 0.71683(10) 0.41119(12)
H30 H 0.2346 0.7325 0.3807
H31 H 0.4000 0.7553 0.4211
H32 H 0.3244 0.6965 0.4704
loop_
_geom_bond_atom_site_label_1
_geom_bond_atom_site_label_2
_geom_bond_site_symmetry_1
_geom_bond_site_symmetry_2
B1 N1 1_555 1_555
N1 C11 1_555 1_555
C1 B1 1_555 1_555
C2 C1 1_555 1_555
H1 C2 1_555 1_555
C3 C2 1_555 1_555
H2 C3 1_555 1_555
C4 C3 1_555 1_555
H3 C4 1_555 1_555
C5 C4 1_555 1_555
C6 C5 1_555 1_555
H4 C6 1_555 1_555
C7 C6 1_555 1_555
H5 C7 1_555 1_555
C8 C7 1_555 1_555
H6 C8 1_555 1_555
C9 C8 1_555 1_555
C10 B1 1_555 1_555
C11 C9 1_555 1_555
C12 C11 1_555 1_555
H7 C12 1_555 1_555
C13 C12 1_555 1_555
H8 C13 1_555 1_555
C14 C13 1_555 1_555
H9 C14 1_555 1_555
C15 N1 1_555 1_555
H10 C15 1_555 1_555
C16 C1 1_555 1_555
C17 C16 1_555 1_555
C18 C17 1_555 1_555
H11 C18 1_555 1_555
C19 C18 1_555 1_555
C20 C19 1_555 1_555
H12 C20 1_555 1_555
C21 C16 1_555 1_555
C22 C21 1_555 1_555
H13 C22 1_555 1_555
H14 C22 1_555 1_555
H15 C22 1_555 1_555
C23 C17 1_555 1_555
H16 C23 1_555 1_555
H17 C23 1_555 1_555
H18 C23 1_555 1_555
C24 C19 1_555 1_555
H19 C24 1_555 1_555
H20 C24 1_555 1_555
H21 C24 1_555 1_555
C25 B1 1_555 1_555
C26 C25 1_555 1_555
C27 C26 1_555 1_555
H22 C27 1_555 1_555
C28 C27 1_555 1_555
C29 C28 1_555 1_555
H23 C29 1_555 1_555
C30 C25 1_555 1_555
C31 C26 1_555 1_555
H24 C31 1_555 1_555
H25 C31 1_555 1_555
H26 C31 1_555 1_555
C32 C28 1_555 1_555
H27 C32 1_555 1_555
H28 C32 1_555 1_555
H29 C32 1_555 1_555
C33 C30 1_555 1_555
H30 C33 1_555 1_555
H31 C33 1_555 1_555
H32 C33 1_555 1_555
C5 C10 1_555 1_555
C9 C10 1_555 1_555
C14 C15 1_555 1_555
C20 C21 1_555 1_555
C29 C30 1_555 1_555

#END
