
#######################################################################
#
#                 Cambridge Crystallographic Data Centre
#                                CCDC 
#
#######################################################################
#
# If this CIF has been generated from an entry in the Cambridge 
# Structural Database, then it will include bibliographic, chemical, 
# crystal, experimental, refinement or atomic coordinate data resulting 
# from the CCDC's data processing and validation procedures.
#
#######################################################################

data_JEWQUA
_chemical_formula_moiety         'C23 H27 N1 O6'
_chemical_name_systematic        
'methyl 10b,11-dimethyl-1,8-dioxo-6-(2-oxopropylidene)-2a,3,4,6,7,7a,8,9,10,10b-decahydro-2,4-ethano-5-oxa-2-azanaphtho[2,1,8-cde]azulene-10a(1H)-carboxylate'
_symmetry_cell_setting           monoclinic
_symmetry_space_group_name_H-M   'P 21'
_symmetry_Int_Tables_number      4
_space_group_name_Hall           'P 2yb'
loop_
_symmetry_equiv_pos_site_id
_symmetry_equiv_pos_as_xyz
1 x,y,z
2 -x,1/2+y,-z
_cell_length_a                   9.3642(5)
_cell_length_b                   7.4054(4)
_cell_length_c                   14.9332(8)
_cell_angle_alpha                90
_cell_angle_beta                 103.399(2)
_cell_angle_gamma                90
_cell_volume                     1007.36
_exptl_crystal_colour            colorless
_exptl_crystal_description       block
_cell_formula_units_Z            2
loop_
_atom_site_label
_atom_site_type_symbol
_atom_site_fract_x
_atom_site_fract_y
_atom_site_fract_z
C1 C 0.4864(2) 0.5290(3) 0.38884(13)
H1 H 0.4014 0.5321 0.4167
C2 C 0.5948(2) 0.3868(3) 0.43599(13)
H2 H 0.5560 0.2668 0.4196
H3 H 0.6137 0.4000 0.5023
C3 C 0.7360(2) 0.4156(3) 0.40309(13)
H4 H 0.8035 0.3161 0.4262
C4 C 0.8116(2) 0.5971(3) 0.44109(13)
H5 H 0.8546 0.6511 0.3934
C5 C 0.6975(2) 0.7298(3) 0.46296(14)
H6 H 0.6852 0.7081 0.5248
H7 H 0.7317 0.8528 0.4600
C6 C 0.9340(2) 0.5684(4) 0.52723(15)
H8 H 0.9657 0.6832 0.5546
H9 H 1.0152 0.5085 0.5108
H10 H 0.8981 0.4956 0.5704
C7 C 0.5092(2) 0.8137(3) 0.32366(14)
C8 C 0.3944(2) 0.7069(3) 0.25234(13)
C9 C 0.4345(2) 0.5051(3) 0.28359(13)
C10 C 0.5630(2) 0.4405(3) 0.24554(13)
C11 C 0.6938(2) 0.4052(3) 0.29999(13)
C12 C 0.7874(2) 0.2580(3) 0.18162(14)
C13 C 0.6310(2) 0.2358(3) 0.13170(14)
H11 H 0.5894 0.1315 0.1556
H12 H 0.6255 0.2154 0.0668
C14 C 0.5431(2) 0.4053(3) 0.14352(13)
H13 H 0.4389 0.3811 0.1172
C15 C 0.5881(2) 0.5690(3) 0.09512(13)
C16 C 0.5493(2) 0.7515(3) 0.12756(14)
H14 H 0.5500 0.8389 0.0793
H15 H 0.6252 0.7863 0.1808
C17 C 0.3993(2) 0.7621(3) 0.15364(13)
H16 H 0.3639 0.8853 0.1439
H17 H 0.3307 0.6861 0.1112
C18 C 0.2432(2) 0.7472(3) 0.27026(14)
C19 C -0.0124(2) 0.7337(4) 0.21189(15)
H18 H -0.0269 0.6386 0.2525
H19 H -0.0831 0.7224 0.1543
H20 H -0.0245 0.8484 0.2392
C20 C 0.3070(2) 0.3712(3) 0.25806(14)
H21 H 0.2650 0.3775 0.1931
H22 H 0.2336 0.4009 0.2911
H23 H 0.3425 0.2510 0.2740
C21 C 0.9081(2) 0.2044(3) 0.15490(14)
H24 H 0.9985 0.2320 0.1934
C22 C 0.9087(2) 0.1056(3) 0.06968(14)
C23 C 1.0545(3) 0.0970(4) 0.04350(17)
H25 H 1.0434 0.0330 -0.0136
H26 H 1.1243 0.0353 0.0908
H27 H 1.0886 0.2173 0.0366
N1 N 0.55762(18) 0.7066(3) 0.39723(11)
O1 O 0.81245(15) 0.3452(2) 0.26522(9)
O2 O 0.5506(2) 0.9673(2) 0.31298(12)
O3 O 0.2227(2) 0.7890(4) 0.34377(12)
O4 O 0.13426(15) 0.7214(2) 0.19635(10)
O5 O 0.79997(17) 0.0307(2) 0.02233(10)
O6 O 0.65311(18) 0.5537(2) 0.03407(10)
loop_
_geom_bond_atom_site_label_1
_geom_bond_atom_site_label_2
_geom_bond_site_symmetry_1
_geom_bond_site_symmetry_2
C1 H1 1_555 1_555
C2 C1 1_555 1_555
H2 C2 1_555 1_555
H3 C2 1_555 1_555
C3 C2 1_555 1_555
H4 C3 1_555 1_555
C4 C3 1_555 1_555
H5 C4 1_555 1_555
C5 C4 1_555 1_555
H6 C5 1_555 1_555
H7 C5 1_555 1_555
C6 C4 1_555 1_555
H8 C6 1_555 1_555
H9 C6 1_555 1_555
H10 C6 1_555 1_555
C7 C8 1_555 1_555
C8 C9 1_555 1_555
C9 C1 1_555 1_555
C10 C9 1_555 1_555
C11 C3 1_555 1_555
C12 C13 1_555 1_555
C13 H11 1_555 1_555
H12 C13 1_555 1_555
C14 C10 1_555 1_555
H13 C14 1_555 1_555
C15 C14 1_555 1_555
C16 C15 1_555 1_555
H14 C16 1_555 1_555
H15 C16 1_555 1_555
C17 C8 1_555 1_555
H16 C17 1_555 1_555
H17 C17 1_555 1_555
C18 C8 1_555 1_555
C19 H18 1_555 1_555
H19 C19 1_555 1_555
H20 C19 1_555 1_555
C20 C9 1_555 1_555
H21 C20 1_555 1_555
H22 C20 1_555 1_555
H23 C20 1_555 1_555
C21 C12 1_555 1_555
H24 C21 1_555 1_555
C22 C21 1_555 1_555
C23 C22 1_555 1_555
H25 C23 1_555 1_555
H26 C23 1_555 1_555
H27 C23 1_555 1_555
N1 C1 1_555 1_555
O1 C11 1_555 1_555
O2 C7 1_555 1_555
O3 C18 1_555 1_555
O4 C18 1_555 1_555
O5 C22 1_555 1_555
O6 C15 1_555 1_555
C5 N1 1_555 1_555
C7 N1 1_555 1_555
C10 C11 1_555 1_555
C12 O1 1_555 1_555
C13 C14 1_555 1_555
C16 C17 1_555 1_555
C19 O4 1_555 1_555

#END
