
#######################################################################
#
#                 Cambridge Crystallographic Data Centre
#                                CCDC 
#
#######################################################################
#
# If this CIF has been generated from an entry in the Cambridge 
# Structural Database, then it will include bibliographic, chemical, 
# crystal, experimental, refinement or atomic coordinate data resulting 
# from the CCDC's data processing and validation procedures.
#
#######################################################################

data_JEWREL
_chemical_formula_moiety         'C21 H25 N1 S1'
_chemical_name_systematic        
3,12a-dimethyl-1,2,3,4,6a,7,8,8a,9,10,12a,12b-dodecahydro-6H-11,2,12-(prop[1]ene[1,3]diyl[3]ylidene)azuleno[5,6-a]indolizine-6-thione
_symmetry_cell_setting           monoclinic
_symmetry_space_group_name_H-M   'P 21'
_symmetry_Int_Tables_number      4
_space_group_name_Hall           'P 2yb'
loop_
_symmetry_equiv_pos_site_id
_symmetry_equiv_pos_as_xyz
1 x,y,z
2 -x,1/2+y,-z
_cell_length_a                   8.8057(5)
_cell_length_b                   8.4054(5)
_cell_length_c                   11.5369(7)
_cell_angle_alpha                90
_cell_angle_beta                 97.325(2)
_cell_angle_gamma                90
_cell_volume                     846.94
_exptl_crystal_colour            colorless
_exptl_crystal_description       block
_cell_formula_units_Z            2
loop_
_atom_site_label
_atom_site_type_symbol
_atom_site_fract_x
_atom_site_fract_y
_atom_site_fract_z
C1 C 0.1065(2) 0.6020(3) 0.30863(19)
C2 C 0.0912(2) 0.4974(3) 0.19990(18)
H1 H -0.0146 0.4589 0.1922
C3 C 0.1891(2) 0.3508(3) 0.24517(17)
C4 C 0.1244(2) 0.3344(3) 0.36271(18)
H2 H 0.0200 0.2918 0.3494
C5 C 0.1672(3) 0.5404(3) 0.52166(18)
H3 H 0.0980 0.4900 0.5695
H4 H 0.1622 0.6545 0.5331
C6 C 0.3315(3) 0.4816(3) 0.55915(17)
H5 H 0.4022 0.5656 0.5414
C7 C 0.3669(2) 0.3292(2) 0.48989(16)
H6 H 0.4374 0.2619 0.5411
C8 C 0.2200(3) 0.2366(3) 0.45459(19)
H7 H 0.2427 0.1335 0.4233
H8 H 0.1655 0.2205 0.5216
C9 C 0.4427(2) 0.3721(2) 0.38228(17)
C10 C 0.3609(2) 0.3889(2) 0.26964(18)
C11 C 0.4418(2) 0.4441(3) 0.18018(17)
C12 C 0.5975(2) 0.4789(3) 0.20119(18)
C13 C 0.6776(2) 0.4573(3) 0.31111(19)
H9 H 0.7821 0.4782 0.3248
C14 C 0.5996(2) 0.4040(3) 0.40049(19)
H10 H 0.6530 0.3890 0.4746
C15 C 0.6556(3) 0.5484(3) 0.0943(2)
H11 H 0.7432 0.4891 0.0744
H12 H 0.6848 0.6589 0.1071
C16 C 0.5206(3) 0.5336(4) -0.0019(2)
H13 H 0.5407 0.4512 -0.0568
H14 H 0.5046 0.6333 -0.0440
C17 C 0.3774(2) 0.4908(3) 0.05625(18)
H15 H 0.3258 0.3991 0.0163
C18 C 0.2635(3) 0.6283(3) 0.0579(2)
H16 H 0.3042 0.7044 0.1170
H17 H 0.2538 0.6819 -0.0171
C19 C 0.1056(3) 0.5765(3) 0.0827(2)
H18 H 0.0651 0.5032 0.0215
H19 H 0.0399 0.6695 0.0761
C20 C 0.1578(3) 0.2018(3) 0.1704(2)
H20 H 0.1913 0.2189 0.0954
H21 H 0.0501 0.1793 0.1604
H22 H 0.2125 0.1134 0.2084
C21 C 0.3557(4) 0.4529(4) 0.6915(2)
H23 H 0.3325 0.5485 0.7313
H24 H 0.4603 0.4234 0.7154
H25 H 0.2894 0.3688 0.7106
S1 S 0.10419(7) 0.79986(7) 0.31310(5)
N1 N 0.12063(19) 0.5026(2) 0.39921(15)
loop_
_geom_bond_atom_site_label_1
_geom_bond_atom_site_label_2
_geom_bond_site_symmetry_1
_geom_bond_site_symmetry_2
C1 C2 1_555 1_555
C2 H1 1_555 1_555
C3 C2 1_555 1_555
C4 C3 1_555 1_555
H2 C4 1_555 1_555
C5 H3 1_555 1_555
H4 C5 1_555 1_555
C6 C5 1_555 1_555
H5 C6 1_555 1_555
C7 C6 1_555 1_555
H6 C7 1_555 1_555
C8 C4 1_555 1_555
H7 C8 1_555 1_555
H8 C8 1_555 1_555
C9 C7 1_555 1_555
C10 C3 1_555 1_555
C11 C10 1_555 1_555
C12 C11 1_555 1_555
C13 C12 1_555 1_555
H9 C13 1_555 1_555
C14 C9 1_555 1_555
H10 C14 1_555 1_555
C15 C12 1_555 1_555
H11 C15 1_555 1_555
H12 C15 1_555 1_555
C16 C15 1_555 1_555
H13 C16 1_555 1_555
H14 C16 1_555 1_555
C17 C11 1_555 1_555
H15 C17 1_555 1_555
C18 C17 1_555 1_555
H16 C18 1_555 1_555
H17 C18 1_555 1_555
C19 C2 1_555 1_555
H18 C19 1_555 1_555
H19 C19 1_555 1_555
C20 C3 1_555 1_555
H20 C20 1_555 1_555
H21 C20 1_555 1_555
H22 C20 1_555 1_555
C21 C6 1_555 1_555
H23 C21 1_555 1_555
H24 C21 1_555 1_555
H25 C21 1_555 1_555
S1 C1 1_555 1_555
N1 C1 1_555 1_555
C4 N1 1_555 1_555
C5 N1 1_555 1_555
C7 C8 1_555 1_555
C9 C10 1_555 1_555
C13 C14 1_555 1_555
C16 C17 1_555 1_555
C18 C19 1_555 1_555

#END
