
#######################################################################
#
#                 Cambridge Crystallographic Data Centre
#                                CCDC 
#
#######################################################################
#
# If this CIF has been generated from an entry in the Cambridge 
# Structural Database, then it will include bibliographic, chemical, 
# crystal, experimental, refinement or atomic coordinate data resulting 
# from the CCDC's data processing and validation procedures.
#
#######################################################################

data_JEWROV
_chemical_formula_moiety         'C21 H25 N1 O4,H2 O1'
_chemical_name_systematic        
'3-acetyl-10,12b-dimethyl-6,6a,9,10,11,12,12a,12b-octahydro-1H-11,12c-methanoazuleno[4,5-a]indolizine-4,7,13(3aH,5H)-trione monohydrate'
_symmetry_cell_setting           orthorhombic
_symmetry_space_group_name_H-M   'P 21 21 21'
_symmetry_Int_Tables_number      19
_space_group_name_Hall           'P 2ac 2ab'
loop_
_symmetry_equiv_pos_site_id
_symmetry_equiv_pos_as_xyz
1 x,y,z
2 1/2-x,-y,1/2+z
3 1/2+x,1/2-y,-z
4 -x,1/2+y,1/2-z
_cell_length_a                   10.4711(4)
_cell_length_b                   12.0878(4)
_cell_length_c                   14.4516(5)
_cell_angle_alpha                90
_cell_angle_beta                 90
_cell_angle_gamma                90
_cell_volume                     1829.18
_exptl_crystal_colour            colorless
_exptl_crystal_description       block
_cell_formula_units_Z            4
loop_
_atom_site_label
_atom_site_type_symbol
_atom_site_fract_x
_atom_site_fract_y
_atom_site_fract_z
C1 C 0.65776(14) 0.30183(12) 0.25130(10)
C2 C 0.71368(14) 0.18466(12) 0.26404(10)
C3 C 0.66981(15) 0.11962(12) 0.34996(11)
H1 H 0.6071 0.0639 0.3310
C4 C 0.60819(15) 0.19733(13) 0.42107(11)
H2 H 0.5232 0.2188 0.4013
H3 H 0.6022 0.1616 0.4810
C5 C 0.69563(15) 0.29765(13) 0.42597(11)
H4 H 0.6785 0.3404 0.4822
C6 C 0.69016(14) 0.37405(12) 0.33920(11)
C7 C 0.83162(15) 0.41787(13) 0.34040(11)
H5 H 0.8357 0.4729 0.3901
C8 C 0.90691(15) 0.31866(13) 0.37431(10)
C9 C 0.85442(16) 0.14548(14) 0.45849(11)
H6 H 0.8256 0.1375 0.5219
H7 H 0.9457 0.1320 0.4568
C10 C 0.78496(16) 0.06075(13) 0.39626(11)
H8 H 0.8440 0.0363 0.3477
C11 C 0.7434(2) -0.04015(15) 0.45241(14)
H9 H 0.8136 -0.0656 0.4895
H10 H 0.7171 -0.0980 0.4111
H11 H 0.6733 -0.0202 0.4919
C12 C 0.59118(16) 0.46566(14) 0.35510(13)
H12 H 0.5107 0.4330 0.3715
H13 H 0.5814 0.5082 0.2995
H14 H 0.6195 0.5131 0.4043
C13 C 0.70311(14) 0.34958(12) 0.15605(10)
H15 H 0.7892 0.3224 0.1422
C14 C 0.70117(15) 0.47636(13) 0.14961(12)
C15 C 0.80621(17) 0.54095(13) 0.19691(13)
H16 H 0.7675 0.5972 0.2357
H17 H 0.8563 0.5786 0.1500
C16 C 0.89552(15) 0.47138(13) 0.25604(11)
H18 H 0.9652 0.5178 0.2773
H19 H 0.9319 0.4135 0.2178
C17 C 0.60977(15) 0.30126(12) 0.08814(11)
C18 C 0.50525(15) 0.26445(13) 0.12989(11)
H20 H 0.4362 0.2334 0.0989
C19 C 0.51125(15) 0.27873(13) 0.23259(11)
H21 H 0.4831 0.2123 0.2643
H22 H 0.4590 0.3406 0.2525
C20 C 0.63548(15) 0.30473(13) -0.01224(11)
C21 C 0.5336(2) 0.26648(18) -0.07808(13)
H23 H 0.4675 0.3213 -0.0816
H24 H 0.4980 0.1980 -0.0563
H25 H 0.5701 0.2556 -0.1383
N1 N 0.82769(13) 0.25704(11) 0.42598(9)
O1 O 0.78408(11) 0.14276(9) 0.20708(8)
O2 O 1.01908(11) 0.29622(10) 0.35755(8)
O3 O 0.61903(12) 0.52411(10) 0.10567(9)
O4 O 0.73760(12) 0.34001(10) -0.04053(8)
O5 O 0.24860(13) 0.40226(12) 0.30986(10)
H26 H 0.227(3) 0.476(2) 0.3068(18)
H27 H 0.171(3) 0.368(2) 0.3181(19)
loop_
_geom_bond_atom_site_label_1
_geom_bond_atom_site_label_2
_geom_bond_site_symmetry_1
_geom_bond_site_symmetry_2
C1 C2 1_555 1_555
C2 C3 1_555 1_555
C3 H1 1_555 1_555
C4 C3 1_555 1_555
H2 C4 1_555 1_555
H3 C4 1_555 1_555
C5 C4 1_555 1_555
H4 C5 1_555 1_555
C6 C1 1_555 1_555
C7 C6 1_555 1_555
H5 C7 1_555 1_555
C8 C7 1_555 1_555
C9 H6 1_555 1_555
H7 C9 1_555 1_555
C10 C3 1_555 1_555
H8 C10 1_555 1_555
C11 C10 1_555 1_555
H9 C11 1_555 1_555
H10 C11 1_555 1_555
H11 C11 1_555 1_555
C12 C6 1_555 1_555
H12 C12 1_555 1_555
H13 C12 1_555 1_555
H14 C12 1_555 1_555
C13 C1 1_555 1_555
H15 C13 1_555 1_555
C14 C13 1_555 1_555
C15 C14 1_555 1_555
H16 C15 1_555 1_555
H17 C15 1_555 1_555
C16 C7 1_555 1_555
H18 C16 1_555 1_555
H19 C16 1_555 1_555
C17 C13 1_555 1_555
C18 C17 1_555 1_555
H20 C18 1_555 1_555
C19 C1 1_555 1_555
H21 C19 1_555 1_555
H22 C19 1_555 1_555
C20 C17 1_555 1_555
C21 C20 1_555 1_555
H23 C21 1_555 1_555
H24 C21 1_555 1_555
H25 C21 1_555 1_555
N1 C5 1_555 1_555
O1 C2 1_555 1_555
O2 C8 1_555 1_555
O3 C14 1_555 1_555
O4 C20 1_555 1_555
O5 H26 1_555 1_555
H27 O5 1_555 1_555
C5 C6 1_555 1_555
C8 N1 1_555 1_555
C9 C10 1_555 1_555
C9 N1 1_555 1_555
C15 C16 1_555 1_555
C18 C19 1_555 1_555

#END
