
#######################################################################
#
#                 Cambridge Crystallographic Data Centre
#                                CCDC 
#
#######################################################################
#
# If this CIF has been generated from an entry in the Cambridge 
# Structural Database, then it will include bibliographic, chemical, 
# crystal, experimental, refinement or atomic coordinate data resulting 
# from the CCDC's data processing and validation procedures.
#
#######################################################################

data_JEWSEJ
_chemical_formula_moiety         'C26 H19 N1 O4,H2 O1'
_chemical_name_systematic        
9-Phenoxycarbonyl-2,20-epoxy-1-hydroxy-9-azatetracyclo(8.6.4.0^2,20^.0^3,8^)eicosa-3,5,7,13-tetraene-11,15-diyne
_symmetry_cell_setting           monoclinic
_symmetry_space_group_name_H-M   'P 21/n'
_symmetry_Int_Tables_number      14
_space_group_name_Hall           '-P 2yn'
loop_
_symmetry_equiv_pos_site_id
_symmetry_equiv_pos_as_xyz
1 x,y,z
2 1/2-x,1/2+y,1/2-z
3 -x,-y,-z
4 1/2+x,1/2-y,1/2+z
_cell_length_a                   11.817(5)
_cell_length_b                   11.627(4)
_cell_length_c                   15.727(6)
_cell_angle_alpha                90
_cell_angle_beta                 103.79(3)
_cell_angle_gamma                90
_cell_volume                     2098.55
_exptl_crystal_colour            colorless
_chemical_melting_point          228-230deg.C(dec.)
_cell_formula_units_Z            4
loop_
_atom_site_label
_atom_site_type_symbol
_atom_site_fract_x
_atom_site_fract_y
_atom_site_fract_z
O1 O 0.6183(1) 0.1565(1) 0.2545(1)
O2 O 0.5616(2) 0.4285(1) 0.2320(1)
O3 O 0.5432(1) -0.1478(1) 0.2647(1)
O4 O 0.4000(1) -0.0875(1) 0.1507(1)
N1 N 0.4421(2) 0.0156(1) 0.2738(1)
C1 C 0.2531(2) 0.0863(2) 0.1923(1)
C2 C 0.1817(2) 0.1754(2) 0.1559(1)
C3 C 0.2254(2) 0.2857(2) 0.1603(1)
C4 C 0.3404(2) 0.3071(2) 0.2011(1)
C5 C 0.4149(2) 0.2181(2) 0.2381(1)
C6 C 0.3685(2) 0.1073(2) 0.2321(1)
C7 C 0.5399(2) 0.2368(2) 0.2840(1)
C8 C 0.6009(2) 0.1447(2) 0.3421(1)
C9 C 0.5223(2) 0.0470(2) 0.3565(1)
C10 C 0.7090(2) 0.1618(2) 0.4147(1)
C11 C 0.7447(2) 0.2868(2) 0.4338(2)
C12 C 0.7138(2) 0.3610(2) 0.3527(2)
C13 C 0.5839(2) 0.3594(2) 0.3086(1)
C14 C 0.5149(2) 0.3914(2) 0.3718(1)
C15 C 0.4593(2) 0.3855(2) 0.4263(2)
C16 C 0.3938(2) 0.3584(2) 0.4886(1)
C17 C 0.3745(2) 0.2488(2) 0.5068(1)
C18 C 0.4183(2) 0.1586(2) 0.4626(1)
C19 C 0.4601(2) 0.0941(2) 0.4196(1)
C20 C 0.4687(2) -0.0796(2) 0.2322(1)
C21 C 0.4123(2) -0.1814(2) 0.0979(1)
C22 C 0.4013(2) -0.2925(2) 0.1235(2)
C23 C 0.4050(3) -0.3799(2) 0.0655(2)
C24 C 0.4181(3) -0.3573(3) -0.0160(2)
C25 C 0.4273(2) -0.2467(3) -0.0419(2)
C26 C 0.4242(2) -0.1561(2) 0.0155(2)
H3 H 0.5896 0.4952 0.2455
H4 H 0.2236 0.0092 0.1901
H5 H 0.1017 0.1611 0.1273
H6 H 0.1753 0.3484 0.1360
H7 H 0.3704 0.3840 0.2032
H8 H 0.5680 -0.0184 0.3812
H9 H 0.7727 0.1213 0.4003
H10 H 0.6951 0.1275 0.4668
H11 H 0.8270 0.2903 0.4589
H12 H 0.7055 0.3170 0.4758
H13 H 0.7561 0.3331 0.3118
H14 H 0.7375 0.4389 0.3672
H15 H 0.3644 0.4200 0.5180
H16 H 0.3306 0.2307 0.5491
H17 H 0.3915 -0.3087 0.1811
H18 H 0.3989 -0.4583 0.0830
H19 H 0.4190 -0.4192 -0.0562
H20 H 0.4366 -0.2323 -0.1000
H21 H 0.4309 -0.0780 -0.0024
O5 O 0.8419(2) 0.1377(2) 0.2122(1)
H1 H 0.8832(23) 0.2002(23) 0.2215(17)
H2 H 0.7796(25) 0.1484(24) 0.2238(18)
loop_
_geom_bond_atom_site_label_1
_geom_bond_atom_site_label_2
_geom_bond_site_symmetry_1
_geom_bond_site_symmetry_2
O1 C7 1_555 1_555
O2 C13 1_555 1_555
O3 C20 1_555 1_555
O4 C20 1_555 1_555
O5 H1 1_555 1_555
N1 C6 1_555 1_555
C1 C2 1_555 1_555
C2 C3 1_555 1_555
C3 C4 1_555 1_555
C4 C5 1_555 1_555
C5 C6 1_555 1_555
C6 C1 1_555 1_555
C7 C5 1_555 1_555
C8 O1 1_555 1_555
C9 N1 1_555 1_555
C10 C8 1_555 1_555
C11 C10 1_555 1_555
C12 C11 1_555 1_555
C13 C7 1_555 1_555
C14 C13 1_555 1_555
C15 C14 1_555 1_555
C16 C15 1_555 1_555
C17 C16 1_555 1_555
C18 C17 1_555 1_555
C19 C9 1_555 1_555
C20 N1 1_555 1_555
C21 O4 1_555 1_555
C22 C21 1_555 1_555
C23 C22 1_555 1_555
C24 C23 1_555 1_555
C25 C24 1_555 1_555
C26 C21 1_555 1_555
H2 O5 1_555 1_555
H3 O2 1_555 1_555
H4 C1 1_555 1_555
H5 C2 1_555 1_555
H6 C3 1_555 1_555
H7 C4 1_555 1_555
H8 C9 1_555 1_555
H9 C10 1_555 1_555
H10 C10 1_555 1_555
H11 C11 1_555 1_555
H12 C11 1_555 1_555
H13 C12 1_555 1_555
H14 C12 1_555 1_555
H15 C16 1_555 1_555
H16 C17 1_555 1_555
H17 C22 1_555 1_555
H18 C23 1_555 1_555
H19 C24 1_555 1_555
H20 C25 1_555 1_555
H21 C26 1_555 1_555
C7 C8 1_555 1_555
C8 C9 1_555 1_555
C12 C13 1_555 1_555
C18 C19 1_555 1_555
C25 C26 1_555 1_555

#END
