
#######################################################################
#
#                 Cambridge Crystallographic Data Centre
#                                CCDC 
#
#######################################################################
#
# If this CIF has been generated from an entry in the Cambridge 
# Structural Database, then it will include bibliographic, chemical, 
# crystal, experimental, refinement or atomic coordinate data resulting 
# from the CCDC's data processing and validation procedures.
#
#######################################################################

data_JEWSIN
_chemical_formula_moiety         'C26 H19 N1 O3'
_chemical_name_systematic        
9-Phenoxycarbonyl-2,10-epoxy-9-azatetracyclo(8.6.4.0^2,20^.0^3,8^)icosa-3,5,7,13-tetraen-11,15-diyne
_symmetry_cell_setting           monoclinic
_symmetry_space_group_name_H-M   'P 21/c'
_symmetry_Int_Tables_number      14
_space_group_name_Hall           '-P 2ybc'
loop_
_symmetry_equiv_pos_site_id
_symmetry_equiv_pos_as_xyz
1 x,y,z
2 -x,1/2+y,1/2-z
3 -x,-y,-z
4 x,1/2-y,1/2+z
_cell_length_a                   9.805(4)
_cell_length_b                   9.775(4)
_cell_length_c                   20.707(9)
_cell_angle_alpha                90
_cell_angle_beta                 96.24(3)
_cell_angle_gamma                90
_cell_volume                     1972.88
_exptl_crystal_colour            colorless
_chemical_melting_point          248-250deg.C(dec.)
_cell_formula_units_Z            4
loop_
_atom_site_label
_atom_site_type_symbol
_atom_site_fract_x
_atom_site_fract_y
_atom_site_fract_z
O1 O 0.1023(4) 0.1236(3) 0.8001(2)
O2 O 0.2912(5) -0.1316(4) 0.8977(2)
O3 O 0.4521(4) 0.0212(4) 0.8773(2)
N1 N 0.2610(5) 0.0958(4) 0.9166(2)
C1 C 0.2964(5) 0.2349(5) 0.9035(2)
C2 C 0.4212(6) 0.2896(6) 0.9302(3)
C3 C 0.4501(6) 0.4247(6) 0.9178(3)
C4 C 0.3602(5) 0.5056(6) 0.8821(3)
C5 C 0.2347(5) 0.4521(5) 0.8558(2)
C6 C 0.2036(5) 0.3148(5) 0.8658(2)
C7 C 0.0757(6) 0.2509(5) 0.8343(3)
C8 C 0.0308(6) 0.1181(5) 0.8574(3)
C9 C 0.1142(6) 0.0727(5) 0.9200(3)
C10 C -0.1145(6) 0.0658(7) 0.8454(3)
C11 C -0.2157(7) 0.1566(8) 0.8044(3)
C12 C -0.1484(7) 0.2593(7) 0.7631(3)
C13 C -0.0391(6) 0.3437(6) 0.8032(2)
C14 C -0.0927(6) 0.4060 0.8601(3)
C15 C -0.1260(6) 0.4260 0.9132(3)
C16 C -0.1548(6) 0.4272(6) 0.9787(3)
C17 C -0.0998(6) 0.3324(6) 1.0201(3)
C18 C -0.0086(6) 0.2302(6) 0.9983(3)
C19 C 0.0584(6) 0.1540(6) 0.9716(3)
C20 C 0.3300(7) -0.0150(7) 0.8971(3)
C21 C 0.5289(5) -0.0886 0.8546(3)
C22 C 0.6228(6) -0.1559(6) 0.8976(3)
C23 C 0.7011(6) -0.2577(6) 0.8731(3)
C24 C 0.6844(6) -0.2894(6) 0.8094(3)
C25 C 0.5915(6) -0.2222(6) 0.7674(3)
C26 C 0.5109(6) -0.1185(6) 0.7898(3)
H1 H 0.4859 0.2343 0.9568
H2 H 0.5370 0.4620 0.9352
H3 H 0.3825 0.5996 0.8747
H4 H 0.1692 0.5097 0.8309
H5 H 0.1065 -0.0235 0.9284
H6 H -0.1120 -0.0211 0.8239
H7 H -0.1482 0.0537 0.8869
H8 H -0.2692 0.2058 0.8329
H9 H -0.2749 0.0992 0.7761
H10 H -0.1064 0.2110 0.7301
H11 H -0.2176 0.3199 0.7431
H12 H -0.0092 0.4103 0.7737
H13 H -0.2139 0.4962 0.9934
H14 H -0.1206 0.3323 1.0643
H15 H 0.6338 -0.1329 0.9429
H16 H 0.7678 -0.3061 0.9018
H17 H 0.7392 -0.3608 0.7935
H18 H 0.5814 -0.2462 0.7222
H19 H 0.4452 -0.0698 0.7606
loop_
_geom_bond_atom_site_label_1
_geom_bond_atom_site_label_2
_geom_bond_site_symmetry_1
_geom_bond_site_symmetry_2
O1 C7 1_555 1_555
O2 C20 1_555 1_555
O3 C20 1_555 1_555
N1 C1 1_555 1_555
C1 C2 1_555 1_555
C2 C3 1_555 1_555
C3 C4 1_555 1_555
C4 C5 1_555 1_555
C5 C6 1_555 1_555
C6 C1 1_555 1_555
C7 C6 1_555 1_555
C8 O1 1_555 1_555
C9 N1 1_555 1_555
C10 C8 1_555 1_555
C11 C10 1_555 1_555
C12 C11 1_555 1_555
C13 C7 1_555 1_555
C14 C13 1_555 1_555
C15 C14 1_555 1_555
C16 C15 1_555 1_555
C17 C16 1_555 1_555
C18 C17 1_555 1_555
C19 C9 1_555 1_555
C20 N1 1_555 1_555
C21 O3 1_555 1_555
C22 C21 1_555 1_555
C23 C22 1_555 1_555
C24 C23 1_555 1_555
C25 C24 1_555 1_555
C26 C21 1_555 1_555
H1 C2 1_555 1_555
H2 C3 1_555 1_555
H3 C4 1_555 1_555
H4 C5 1_555 1_555
H5 C9 1_555 1_555
H6 C10 1_555 1_555
H7 C10 1_555 1_555
H8 C11 1_555 1_555
H9 C11 1_555 1_555
H10 C12 1_555 1_555
H11 C12 1_555 1_555
H12 C13 1_555 1_555
H13 C16 1_555 1_555
H14 C17 1_555 1_555
H15 C22 1_555 1_555
H16 C23 1_555 1_555
H17 C24 1_555 1_555
H18 C25 1_555 1_555
H19 C26 1_555 1_555
C7 C8 1_555 1_555
C8 C9 1_555 1_555
C12 C13 1_555 1_555
C18 C19 1_555 1_555
C25 C26 1_555 1_555

#END
