
#######################################################################
#
#                 Cambridge Crystallographic Data Centre
#                                CCDC 
#
#######################################################################
#
# If this CIF has been generated from an entry in the Cambridge 
# Structural Database, then it will include bibliographic, chemical, 
# crystal, experimental, refinement or atomic coordinate data resulting 
# from the CCDC's data processing and validation procedures.
#
#######################################################################

data_JEWVOZ
_chemical_formula_moiety         'C44 H60 N2 O2'
_chemical_name_systematic        
"1',10,13-trimethyl-17-(6-methylheptan-2-yl)-4'-phenyl-4,5,6,7,8,9,10,11,12,13,14,15,16,17-tetradecahydrodispiro[cyclopenta[a]phenanthrene-2,3'-pyrrolidine-2',3''-indole]-2'',3(1H,1''H)-dione unknown solvate"
_symmetry_cell_setting           monoclinic
_symmetry_space_group_name_H-M   'C 2'
_symmetry_Int_Tables_number      5
_space_group_name_Hall           'C 2y'
loop_
_symmetry_equiv_pos_site_id
_symmetry_equiv_pos_as_xyz
1 x,y,z
2 -x,y,-z
3 1/2+x,1/2+y,z
4 1/2-x,1/2+y,-z
_cell_length_a                   23.1003(18)
_cell_length_b                   9.8731(8)
_cell_length_c                   17.7064(14)
_cell_angle_alpha                90
_cell_angle_beta                 103.2250(10)
_cell_angle_gamma                90
_cell_volume                     3931.23
_exptl_crystal_colour            yellow
_exptl_crystal_description       block
_cell_formula_units_Z            4
loop_
_atom_site_label
_atom_site_type_symbol
_atom_site_fract_x
_atom_site_fract_y
_atom_site_fract_z
O1 O 0.77263(6) 0.31096(18) 0.51680(9)
O2 O 0.58675(7) 0.29406(18) 0.64199(10)
N1 N 0.70885(7) 0.12972(19) 0.50521(10)
H1 H 0.7347 0.0632 0.5165
N2 N 0.66735(8) 0.46985(19) 0.46157(10)
C1 C 0.61662(9) -0.0082(2) 0.45726(12)
H2 H 0.6364 -0.0909 0.4622
C2 C 0.55532(9) 0.0001(2) 0.42788(13)
H3 H 0.5335 -0.0786 0.4134
C3 C 0.52661(9) 0.1239(3) 0.41998(13)
H4 H 0.4859 0.1276 0.3987
C4 C 0.55756(9) 0.2423(2) 0.44325(12)
H5 H 0.5376 0.3248 0.4382
C5 C 0.61835(9) 0.2377(2) 0.47414(12)
C6 C 0.64676(9) 0.1121(2) 0.47883(12)
C7 C 0.72302(9) 0.2629(2) 0.51066(12)
C8 C 0.66519(9) 0.3454(2) 0.50563(12)
C9 C 0.65868(9) 0.4087(2) 0.58632(12)
C10 C 0.60849(9) 0.5129(2) 0.55462(13)
H6 H 0.5716 0.4606 0.5399
C11 C 0.59742(10) 0.6218(3) 0.61061(14)
C12 C 0.55577(12) 0.5979(3) 0.65480(16)
H7 H 0.5354 0.5159 0.6495
C13 C 0.54405(16) 0.6935(4) 0.70655(19)
H8 H 0.5164 0.6753 0.7360
C14 C 0.57330(18) 0.8148(4) 0.7142(2)
H9 H 0.5651 0.8798 0.7483
C15 C 0.61502(17) 0.8407(3) 0.67140(18)
H10 H 0.6353 0.9228 0.6774
C16 C 0.62688(13) 0.7452(3) 0.61950(16)
H11 H 0.6548 0.7640 0.5905
C17 C 0.62235(10) 0.5628(3) 0.47852(13)
H12 H 0.5868 0.5611 0.4369
H13 H 0.6376 0.6547 0.4843
C18 C 0.66392(11) 0.4522(3) 0.37922(13)
H14 H 0.6958 0.3947 0.3722
H15 H 0.6671 0.5388 0.3559
H16 H 0.6265 0.4113 0.3551
C19 C 0.63819(10) 0.3011(2) 0.63718(12)
C20 C 0.68405(10) 0.2059(2) 0.68167(13)
H17 H 0.6834 0.1237 0.6515
H18 H 0.6728 0.1816 0.7295
C21 C 0.74791(10) 0.2607(2) 0.70202(12)
H19 H 0.7657 0.2391 0.6583
C22 C 0.74908(10) 0.4153(2) 0.71044(12)
C23 C 0.71778(9) 0.4763(2) 0.63037(12)
H20 H 0.7457 0.4730 0.5969
H21 H 0.7096 0.5710 0.6382
C24 C 0.71645(11) 0.4634(3) 0.77260(13)
H22 H 0.6764 0.4298 0.7603
H23 H 0.7159 0.5606 0.7737
H24 H 0.7368 0.4298 0.8225
C25 C 0.81505(10) 0.4614(3) 0.72912(12)
H25 H 0.8311 0.4316 0.6852
C26 C 0.85275(10) 0.3900(3) 0.80106(13)
H26 H 0.8380 0.4164 0.8466
C27 C 0.84828(11) 0.2360(3) 0.79209(14)
H27 H 0.8673 0.2082 0.7512
H28 H 0.8694 0.1938 0.8399
C28 C 0.78462(11) 0.1872(3) 0.77304(13)
H29 H 0.7672 0.2029 0.8172
H30 H 0.7838 0.0906 0.7630
C29 C 0.82404(10) 0.6157(3) 0.73418(13)
H31 H 0.8067 0.6507 0.7752
H32 H 0.8029 0.6562 0.6858
C30 C 0.88965(10) 0.6591(3) 0.75009(13)
H33 H 0.9058 0.6355 0.7059
H34 H 0.8923 0.7566 0.7566
C31 C 0.92651(10) 0.5904(3) 0.82304(12)
C32 C 0.91721(11) 0.4371(3) 0.81257(13)
H35 H 0.9294 0.4137 0.7647
C33 C 0.96359(11) 0.3744(3) 0.87856(14)
H36 H 0.9748 0.2847 0.8647
H37 H 0.9488 0.3683 0.9255
C34 C 1.01646(11) 0.4734(3) 0.88912(14)
H38 H 1.0500 0.4299 0.8746
H39 H 1.0287 0.5016 0.9429
C35 C 0.99556(11) 0.5983(3) 0.83597(14)
H40 H 1.0052 0.5796 0.7859
C36 C 0.90751(11) 0.6452(3) 0.89503(13)
H41 H 0.8665 0.6230 0.8917
H42 H 0.9124 0.7418 0.8974
H43 H 0.9317 0.6050 0.9409
C37 C 1.02901(11) 0.7279(3) 0.86814(14)
H44 H 1.0190 0.7482 0.9178
C38 C 1.01037(14) 0.8504(4) 0.81473(19)
H45 H 1.0349 0.9266 0.8346
H46 H 0.9695 0.8720 0.8127
H47 H 1.0150 0.8291 0.7635
C39 C 1.09631(11) 0.7059(3) 0.88421(15)
H48 H 1.1055 0.6206 0.9114
H49 H 1.1075 0.6973 0.8348
C40 C 1.13493(11) 0.8162(3) 0.93140(15)
H50 H 1.1348 0.8957 0.8991
H51 H 1.1182 0.8419 0.9748
C41 C 1.19810(11) 0.7692(3) 0.96144(15)
H52 H 1.2132 0.7382 0.9176
H53 H 1.1975 0.6917 0.9949
C42 C 1.24177(12) 0.8730(3) 1.00626(16)
H54 H 1.2401 0.9541 0.9739
C43 C 1.22582(15) 0.9137(4) 1.08144(18)
H55 H 1.1864 0.9508 1.0704
H56 H 1.2535 0.9805 1.1074
H57 H 1.2274 0.8356 1.1141
C44 C 1.30524(12) 0.8166(4) 1.0221(2)
H58 H 1.3328 0.8858 1.0453
H59 H 1.3141 0.7882 0.9741
H60 H 1.3086 0.7407 1.0566
loop_
_geom_bond_atom_site_label_1
_geom_bond_atom_site_label_2
_geom_bond_site_symmetry_1
_geom_bond_site_symmetry_2
O1 C7 1_555 1_555
O2 C19 1_555 1_555
N1 H1 1_555 1_555
N2 C8 1_555 1_555
C1 H2 1_555 1_555
C2 C1 1_555 1_555
H3 C2 1_555 1_555
C3 C2 1_555 1_555
H4 C3 1_555 1_555
C4 C3 1_555 1_555
H5 C4 1_555 1_555
C5 C4 1_555 1_555
C6 N1 1_555 1_555
C7 N1 1_555 1_555
C8 C5 1_555 1_555
C9 C8 1_555 1_555
C10 C9 1_555 1_555
H6 C10 1_555 1_555
C11 C10 1_555 1_555
C12 C11 1_555 1_555
H7 C12 1_555 1_555
C13 C12 1_555 1_555
H8 C13 1_555 1_555
C14 C13 1_555 1_555
H9 C14 1_555 1_555
C15 C14 1_555 1_555
H10 C15 1_555 1_555
C16 C11 1_555 1_555
H11 C16 1_555 1_555
C17 N2 1_555 1_555
H12 C17 1_555 1_555
H13 C17 1_555 1_555
C18 N2 1_555 1_555
H14 C18 1_555 1_555
H15 C18 1_555 1_555
H16 C18 1_555 1_555
C19 C9 1_555 1_555
C20 C19 1_555 1_555
H17 C20 1_555 1_555
H18 C20 1_555 1_555
C21 C20 1_555 1_555
H19 C21 1_555 1_555
C22 C21 1_555 1_555
C23 C9 1_555 1_555
H20 C23 1_555 1_555
H21 C23 1_555 1_555
C24 C22 1_555 1_555
H22 C24 1_555 1_555
H23 C24 1_555 1_555
H24 C24 1_555 1_555
C25 C22 1_555 1_555
H25 C25 1_555 1_555
C26 C25 1_555 1_555
H26 C26 1_555 1_555
C27 C26 1_555 1_555
H27 C27 1_555 1_555
H28 C27 1_555 1_555
C28 C21 1_555 1_555
H29 C28 1_555 1_555
H30 C28 1_555 1_555
C29 C25 1_555 1_555
H31 C29 1_555 1_555
H32 C29 1_555 1_555
C30 C29 1_555 1_555
H33 C30 1_555 1_555
H34 C30 1_555 1_555
C31 C30 1_555 1_555
C32 C26 1_555 1_555
H35 C32 1_555 1_555
C33 C32 1_555 1_555
H36 C33 1_555 1_555
H37 C33 1_555 1_555
C34 C33 1_555 1_555
H38 C34 1_555 1_555
H39 C34 1_555 1_555
C35 C31 1_555 1_555
H40 C35 1_555 1_555
C36 C31 1_555 1_555
H41 C36 1_555 1_555
H42 C36 1_555 1_555
H43 C36 1_555 1_555
C37 C35 1_555 1_555
H44 C37 1_555 1_555
C38 C37 1_555 1_555
H45 C38 1_555 1_555
H46 C38 1_555 1_555
H47 C38 1_555 1_555
C39 C37 1_555 1_555
H48 C39 1_555 1_555
H49 C39 1_555 1_555
C40 C39 1_555 1_555
H50 C40 1_555 1_555
H51 C40 1_555 1_555
C41 C40 1_555 1_555
H52 C41 1_555 1_555
H53 C41 1_555 1_555
C42 C41 1_555 1_555
H54 C42 1_555 1_555
C43 C42 1_555 1_555
H55 C43 1_555 1_555
H56 C43 1_555 1_555
H57 C43 1_555 1_555
C44 C42 1_555 1_555
H58 C44 1_555 1_555
H59 C44 1_555 1_555
H60 C44 1_555 1_555
C1 C6 1_555 1_555
C5 C6 1_555 1_555
C7 C8 1_555 1_555
C10 C17 1_555 1_555
C15 C16 1_555 1_555
C22 C23 1_555 1_555
C27 C28 1_555 1_555
C31 C32 1_555 1_555
C34 C35 1_555 1_555

#END
