
#######################################################################
#
#                 Cambridge Crystallographic Data Centre
#                                CCDC 
#
#######################################################################
#
# If this CIF has been generated from an entry in the Cambridge 
# Structural Database, then it will include bibliographic, chemical, 
# crystal, experimental, refinement or atomic coordinate data resulting 
# from the CCDC's data processing and validation procedures.
#
#######################################################################

data_JEWXOZ
_chemical_formula_moiety         'C24 H24 N8 2+,2(C1 F3 O3 S1 1-)'
_chemical_name_systematic        
'2-Phenylpyrimidine-4,6-dicarboxaldehyde bis(N-methyl-N-(2-pyridinium)hydrazone) bis(trifluoromethanesulfonate)'
_symmetry_cell_setting           orthorhombic
_symmetry_space_group_name_H-M   'P 21 21 21'
_symmetry_Int_Tables_number      19
_space_group_name_Hall           'P 2ac 2ab'
loop_
_symmetry_equiv_pos_site_id
_symmetry_equiv_pos_as_xyz
1 x,y,z
2 1/2-x,-y,1/2+z
3 1/2+x,1/2-y,-z
4 -x,1/2+y,1/2-z
_cell_length_a                   9.05800(10)
_cell_length_b                   11.4700(2)
_cell_length_c                   29.7330(4)
_cell_angle_alpha                90
_cell_angle_beta                 90
_cell_angle_gamma                90
_cell_volume                     3089.12
_exptl_crystal_colour            yellow
_exptl_crystal_description       prism
_cell_formula_units_Z            4
_exptl_crystal_recrystallization_method 
'chloroform/methanol/trifluoromethanesulfonic acid'
loop_
_atom_site_label
_atom_site_type_symbol
_atom_site_fract_x
_atom_site_fract_y
_atom_site_fract_z
S1 S 0.67069(7) 0.62894(5) 0.897446(19)
F1 F 0.43624(19) 0.66967(16) 0.84803(7)
F2 F 0.6298(2) 0.62585(16) 0.81031(5)
F3 F 0.6094(2) 0.79588(13) 0.84007(6)
O1 O 0.5988(2) 0.69325(14) 0.93244(6)
O2 O 0.8229(2) 0.65723(17) 0.89016(6)
O3 O 0.6361(2) 0.50627(13) 0.89682(6)
C1 C 0.5823(3) 0.6827(2) 0.84671(9)
S2 S 0.48715(7) 0.17003(5) 0.95096(2)
F4 F 0.4401(2) 0.08788(15) 0.87025(6)
F5 F 0.4841(2) -0.04350(13) 0.91997(5)
F6 F 0.6588(2) 0.06045(14) 0.89380(6)
O4 O 0.3325(3) 0.1600(2) 0.95858(11)
O5 O 0.5783(3) 0.1308(2) 0.98656(7)
O6 O 0.5306(2) 0.27817(14) 0.93105(6)
C2 C 0.5207(3) 0.0634(2) 0.90709(8)
N1 N 0.8007(2) 0.30327(16) 0.87486(7)
H1 H 0.7173 0.3425 0.8754
N2 N 0.7224(2) 0.22834(16) 0.80621(6)
N3 N 0.5957(2) 0.28780(16) 0.81532(6)
N4 N 0.2431(2) 0.33974(17) 0.76806(6)
N5 N 0.0888(2) 0.45712(16) 0.81535(6)
N6 N 0.2525(2) 0.51509(15) 0.92037(6)
N7 N 0.2261(2) 0.57002(16) 0.95987(6)
N8 N 0.4479(2) 0.48705(16) 0.98183(6)
H2 H 0.4467 0.4498 0.9560
C3 C 0.8932(3) 0.3146(2) 0.91010(8)
H3 H 0.8659 0.3619 0.9350
C4 C 1.0258(3) 0.2585(2) 0.91018(8)
H4 H 1.0922 0.2656 0.9348
C5 C 1.0605(3) 0.1898(2) 0.87266(9)
H5 H 1.1530 0.1509 0.8716
C6 C 0.9647(3) 0.1774(2) 0.83756(8)
H6 H 0.9899 0.1301 0.8125
C7 C 0.8285(3) 0.23545(18) 0.83893(7)
C8 C 0.7362(3) 0.1523(2) 0.76725(9)
H7 H 0.7114 0.1959 0.7399
H8 H 0.6686 0.0860 0.7705
H9 H 0.8379 0.1236 0.7651
C9 C 0.4859(3) 0.2818(2) 0.78815(7)
H10 H 0.4928 0.2382 0.7611
C10 C 0.3493(3) 0.34386(19) 0.79981(7)
C11 C 0.3296(3) 0.4015(2) 0.84042(7)
H11 H 0.4043 0.4024 0.8628
C12 C 0.1964(3) 0.45737(19) 0.84666(7)
C13 C 0.1183(3) 0.39658(19) 0.77728(7)
C14 C -0.0010(3) 0.39467(19) 0.74275(7)
C15 C 0.0122(3) 0.3240(2) 0.70475(8)
H12 H 0.0979 0.2774 0.7007
C16 C -0.0995(3) 0.3218(2) 0.67302(8)
H13 H -0.0908 0.2723 0.6476
C17 C -0.2234(3) 0.3909(2) 0.67795(9)
H14 H -0.2991 0.3895 0.6559
C18 C -0.2363(3) 0.4623(2) 0.71550(9)
H15 H -0.3208 0.5106 0.7189
C19 C -0.1269(3) 0.4635(2) 0.74795(8)
H16 H -0.1374 0.5113 0.7738
C20 C 0.1585(3) 0.51903(18) 0.88857(7)
H17 H 0.0679 0.5599 0.8917
C21 C 0.0882(3) 0.6326(2) 0.96835(8)
H18 H 0.0077 0.5764 0.9723
H19 H 0.0661 0.6836 0.9428
H20 H 0.0983 0.6797 0.9957
C22 C 0.3332(3) 0.55600(18) 0.99195(7)
C23 C 0.3301(3) 0.6092(2) 1.03414(7)
H21 H 0.2487 0.6564 1.0428
C24 C 0.4463(3) 0.5922(2) 1.06273(8)
H22 H 0.4445 0.6272 1.0917
C25 C 0.5669(3) 0.5245(2) 1.05026(8)
H23 H 0.6487 0.5154 1.0699
C26 C 0.5653(3) 0.4716(2) 1.00930(8)
H24 H 0.6459 0.4243 1.0001
loop_
_geom_bond_atom_site_label_1
_geom_bond_atom_site_label_2
_geom_bond_site_symmetry_1
_geom_bond_site_symmetry_2
S1 O1 1_555 1_555
F1 C1 1_555 1_555
F2 C1 1_555 1_555
F3 C1 1_555 1_555
O2 S1 1_555 1_555
O3 S1 1_555 1_555
C1 S1 1_555 1_555
S2 O4 1_555 1_555
F4 C2 1_555 1_555
F5 C2 1_555 1_555
F6 C2 1_555 1_555
O5 S2 1_555 1_555
O6 S2 1_555 1_555
C2 S2 1_555 1_555
N1 H1 1_555 1_555
N2 N3 1_555 1_555
N3 C9 1_555 1_555
N4 C10 1_555 1_555
N5 C12 1_555 1_555
N6 N7 1_555 1_555
N7 C21 1_555 1_555
N8 H2 1_555 1_555
C3 N1 1_555 1_555
H3 C3 1_555 1_555
C4 C3 1_555 1_555
H4 C4 1_555 1_555
C5 C4 1_555 1_555
H5 C5 1_555 1_555
C6 C5 1_555 1_555
H6 C6 1_555 1_555
C7 N1 1_555 1_555
C8 N2 1_555 1_555
H7 C8 1_555 1_555
H8 C8 1_555 1_555
H9 C8 1_555 1_555
C9 H10 1_555 1_555
C10 C9 1_555 1_555
C11 C10 1_555 1_555
H11 C11 1_555 1_555
C12 C11 1_555 1_555
C13 N4 1_555 1_555
C14 C13 1_555 1_555
C15 C14 1_555 1_555
H12 C15 1_555 1_555
C16 C15 1_555 1_555
H13 C16 1_555 1_555
C17 C16 1_555 1_555
H14 C17 1_555 1_555
C18 C17 1_555 1_555
H15 C18 1_555 1_555
C19 C14 1_555 1_555
H16 C19 1_555 1_555
C20 N6 1_555 1_555
H17 C20 1_555 1_555
C21 H18 1_555 1_555
H19 C21 1_555 1_555
H20 C21 1_555 1_555
C22 N7 1_555 1_555
C23 C22 1_555 1_555
H21 C23 1_555 1_555
C24 C23 1_555 1_555
H22 C24 1_555 1_555
C25 C24 1_555 1_555
H23 C25 1_555 1_555
C26 N8 1_555 1_555
H24 C26 1_555 1_555
N2 C7 1_555 1_555
N5 C13 1_555 1_555
N8 C22 1_555 1_555
C6 C7 1_555 1_555
C12 C20 1_555 1_555
C18 C19 1_555 1_555
C25 C26 1_555 1_555

#END
