
#######################################################################
#
#                 Cambridge Crystallographic Data Centre
#                                CCDC 
#
#######################################################################
#
# If this CIF has been generated from an entry in the Cambridge 
# Structural Database, then it will include bibliographic, chemical, 
# crystal, experimental, refinement or atomic coordinate data resulting 
# from the CCDC's data processing and validation procedures.
#
#######################################################################

data_JEWYIW
_chemical_formula_moiety         'C15 H17 B1 F1 N1 O2'
_chemical_name_systematic        
4-[2-fluoro-2-(4,4,5,5-tetramethyl-1,3,2-dioxaborolan-2-yl)ethenyl]benzonitrile
_symmetry_cell_setting           monoclinic
_symmetry_space_group_name_H-M   'P 21/c'
_symmetry_Int_Tables_number      14
_space_group_name_Hall           '-P 2ybc'
loop_
_symmetry_equiv_pos_site_id
_symmetry_equiv_pos_as_xyz
1 x,y,z
2 -x,1/2+y,1/2-z
3 -x,-y,-z
4 x,1/2-y,1/2+z
_cell_length_a                   10.9441(6)
_cell_length_b                   10.8311(6)
_cell_length_c                   11.9960(7)
_cell_angle_alpha                90
_cell_angle_beta                 96.625(5)
_cell_angle_gamma                90
_cell_volume                     1412.47
_exptl_crystal_colour            colorless
_exptl_crystal_description       plate
_cell_formula_units_Z            4
loop_
_atom_site_label
_atom_site_type_symbol
_atom_site_fract_x
_atom_site_fract_y
_atom_site_fract_z
F1 F 0.48301(16) 0.08594(15) 0.83381(12)
O1 O 0.28968(16) 0.13448(17) 0.65491(14)
O2 O 0.26825(17) 0.33258(17) 0.71842(14)
C1 C 0.6319(3) 0.3880(2) 1.0435(2)
C2 C 0.7044(3) 0.3843(2) 1.1450(2)
C3 C 0.4427(2) 0.2060(2) 0.8202(2)
N1 N 0.8605(2) 0.2673(3) 1.3929(2)
C4 C 0.5999(3) 0.1689(2) 1.0528(2)
C5 C 0.7263(2) 0.2720(2) 1.2008(2)
C6 C 0.8005(3) 0.2690(3) 1.3079(2)
C7 C 0.0743(3) 0.1167(3) 0.6719(2)
C8 C 0.0581(3) 0.3814(3) 0.6451(2)
C9 C 0.5755(2) 0.2807(2) 0.9956(2)
C10 C 0.4911(3) 0.2921(2) 0.8924(2)
C11 C 0.1764(3) 0.3200(2) 0.6201(2)
C12 C 0.6733(3) 0.1643(3) 1.1538(2)
C13 C 0.1476(3) 0.1334(3) 0.4836(2)
C14 C 0.2286(3) 0.3871(3) 0.5241(2)
C15 C 0.1676(3) 0.1763(2) 0.6044(2)
B1 B 0.3343(3) 0.2254(3) 0.7268(2)
H1 H 0.5649(3) 0.0948(2) 1.0212(2)
H2 H 0.6879(3) 0.0876(3) 1.1914(2)
H3 H 0.7395(3) 0.4582(2) 1.1772(2)
H4 H 0.6197(3) 0.4645(2) 1.0050(2)
H5 H 0.0848(14) 0.0268(3) 0.6714(16)
H6 H 0.0870(14) 0.1469(16) 0.7494(5)
H7 H -0.0090(3) 0.1378(17) 0.6385(11)
H8 H 0.0372(11) 0.3532(15) 0.7181(8)
H9 H 0.0692(7) 0.4712(3) 0.6467(17)
H10 H -0.0084(5) 0.3596(16) 0.5866(10)
H11 H 0.4664(3) 0.3743(2) 0.8734(2)
H12 H 0.2160(11) 0.1616(18) 0.4441(5)
H13 H 0.144(2) 0.0430(3) 0.4814(2)
H14 H 0.0704(11) 0.1678(17) 0.4471(6)
H15 H 0.2481(18) 0.4726(6) 0.5463(7)
H16 H 0.3037(11) 0.3453(12) 0.5070(12)
H17 H 0.1678(8) 0.3865(17) 0.4575(6)
loop_
_geom_bond_atom_site_label_1
_geom_bond_atom_site_label_2
_geom_bond_site_symmetry_1
_geom_bond_site_symmetry_2
F1 C3 1_555 1_555
O1 C15 1_555 1_555
O2 C11 1_555 1_555
C1 C2 1_555 1_555
C2 C5 1_555 1_555
C3 C10 1_555 1_555
N1 C6 1_555 1_555
C4 C9 1_555 1_555
C5 C6 1_555 1_555
C7 C15 1_555 1_555
C8 C11 1_555 1_555
C9 C1 1_555 1_555
C10 C9 1_555 1_555
C11 C14 1_555 1_555
C12 C4 1_555 1_555
C13 C15 1_555 1_555
C14 H15 1_555 1_555
C15 C11 1_555 1_555
B1 O1 1_555 1_555
H1 C4 1_555 1_555
H2 C12 1_555 1_555
H3 C2 1_555 1_555
H4 C1 1_555 1_555
H5 C7 1_555 1_555
H6 C7 1_555 1_555
H7 C7 1_555 1_555
H8 C8 1_555 1_555
H9 C8 1_555 1_555
H10 C8 1_555 1_555
H11 C10 1_555 1_555
H12 C13 1_555 1_555
H13 C13 1_555 1_555
H14 C13 1_555 1_555
H16 C14 1_555 1_555
H17 C14 1_555 1_555
O2 B1 1_555 1_555
C3 B1 1_555 1_555
C5 C12 1_555 1_555

#END
