
#######################################################################
#
#                 Cambridge Crystallographic Data Centre
#                                CCDC 
#
#######################################################################
#
# If this CIF has been generated from an entry in the Cambridge 
# Structural Database, then it will include bibliographic, chemical, 
# crystal, experimental, refinement or atomic coordinate data resulting 
# from the CCDC's data processing and validation procedures.
#
#######################################################################

data_JEWZER
_chemical_formula_moiety         'C4 H17 B11'
_chemical_name_systematic        1,2-Dimethyl-1,2-dicarba-closo-tridecaborane
_symmetry_cell_setting           monoclinic
_symmetry_space_group_name_H-M   'P 21/m'
_symmetry_Int_Tables_number      11
_space_group_name_Hall           '-P 2yb'
loop_
_symmetry_equiv_pos_site_id
_symmetry_equiv_pos_as_xyz
1 x,y,z
2 -x,1/2+y,-z
3 -x,-y,-z
4 x,1/2-y,z
_cell_length_a                   7.0551(9)
_cell_length_b                   11.6875(14)
_cell_length_c                   8.0262(10)
_cell_angle_alpha                90
_cell_angle_beta                 115.576(2)
_cell_angle_gamma                90
_cell_volume                     596.964
_exptl_crystal_colour            colorless
_exptl_crystal_description       block
_cell_formula_units_Z            2
_exptl_crystal_recrystallization_method hexane
loop_
_atom_site_label
_atom_site_type_symbol
_atom_site_fract_x
_atom_site_fract_y
_atom_site_fract_z
B1 B 0.9816(5) 0.2500 0.0878(5)
B2 B 0.8454(4) 0.1103(2) 0.1102(4)
B3 B 0.5972(4) 0.1671(2) 0.0929(4)
B4 B 1.0444(4) 0.1753(3) 0.3072(4)
B5 B 0.8079(5) 0.1259(3) 0.3097(4)
B6 B 0.6555(6) 0.2500 0.2911(5)
B7 B 0.9311(7) 0.2500 0.4331(5)
C1 C 0.7137(4) 0.1892(2) -0.0647(3)
C2 C 0.6373(6) 0.1257(3) -0.2475(4)
H1 H 0.4918 0.1062 -0.2893
H2 H 0.7183 0.0571 -0.2310
H3 H 0.6537 0.1737 -0.3375
H4 H 1.076(6) 0.2500 0.020(5)
H5 H 0.454(4) 0.123(2) 0.028(4)
H6 H 0.544(7) 0.2500 0.337(6)
H7 H 1.194(4) 0.129(3) 0.364(4)
H8 H 0.994(6) 0.2500 0.595(6)
H9 H 0.871(5) 0.023(3) 0.070(4)
H10 H 0.806(5) 0.045(3) 0.387(5)
B2C B 0.8454(4) 0.3897(2) 0.1102(4)
B3C B 0.5972(4) 0.3329(2) 0.0929(4)
B4C B 1.0444(4) 0.3247(3) 0.3072(4)
B5C B 0.8079(5) 0.3741(3) 0.3097(4)
C1C C 0.7137(4) 0.3108(2) -0.0647(3)
C2C C 0.6373(6) 0.3743(3) -0.2475(4)
H1C H 0.4918 0.3938 -0.2893
H2C H 0.7183 0.4429 -0.2310
H3C H 0.6537 0.3263 -0.3375
H5C H 0.454(4) 0.377(2) 0.028(4)
H7C H 1.194(4) 0.371(3) 0.364(4)
H9C H 0.871(5) 0.477(3) 0.070(4)
H10C H 0.806(5) 0.455(3) 0.387(5)
loop_
_geom_bond_atom_site_label_1
_geom_bond_atom_site_label_2
_geom_bond_site_symmetry_1
_geom_bond_site_symmetry_2
B1 B2 1_555 1_555
B2 B3 1_555 1_555
B3 B5 1_555 1_555
B4 B1 1_555 1_555
B5 B2 1_555 1_555
B6 B3 1_555 1_555
B7 B4 1_555 1_555
C1 B1 1_555 1_555
C2 C1 1_555 1_555
H1 C2 1_555 1_555
H2 C2 1_555 1_555
H3 C2 1_555 1_555
H4 B1 1_555 1_555
H5 B3 1_555 1_555
H6 B6 1_555 1_555
H7 B4 1_555 1_555
H8 B7 1_555 1_555
H9 B2 1_555 1_555
H10 B5 1_555 1_555
B2C B1 1_555 1_555
B3C B3 1_555 1_555
B4C B1 1_555 1_555
B5C B6 1_555 1_555
C1C B1 1_555 1_555
C2C C1C 1_555 1_555
H1C C2C 1_555 1_555
H2C C2C 1_555 1_555
H3C C2C 1_555 1_555
H5C B3C 1_555 1_555
H7C B4C 1_555 1_555
H9C B2C 1_555 1_555
H10C B5C 1_555 1_555
B2 B4 1_555 1_555
B2 C1 1_555 1_555
B3 C1 1_555 1_555
B4 B5 1_555 1_555
B4 B4C 1_555 1_555
B5 B6 1_555 1_555
B5 B7 1_555 1_555
B6 B7 1_555 1_555
B6 B3C 1_555 1_555
B7 B4C 1_555 1_555
B7 B5C 1_555 1_555
C1 C1C 1_555 1_555
B2C B3C 1_555 1_555
B2C B4C 1_555 1_555
B2C B5C 1_555 1_555
B2C C1C 1_555 1_555
B3C B5C 1_555 1_555
B3C C1C 1_555 1_555
B4C B5C 1_555 1_555

#END
