
#######################################################################
#
#                 Cambridge Crystallographic Data Centre
#                                CCDC 
#
#######################################################################
#
# If this CIF has been generated from an entry in the Cambridge 
# Structural Database, then it will include bibliographic, chemical, 
# crystal, experimental, refinement or atomic coordinate data resulting 
# from the CCDC's data processing and validation procedures.
#
#######################################################################

data_JEWZIX
_chemical_formula_moiety         'C22 H18 Br1 N1'
_chemical_name_systematic        
4-(4-bromophenyl)-3-methyl-1-phenyl-3,4-dihydroisoquinoline
_symmetry_cell_setting           monoclinic
_symmetry_space_group_name_H-M   'P 21/c'
_symmetry_Int_Tables_number      14
_space_group_name_Hall           '-P 2ybc'
loop_
_symmetry_equiv_pos_site_id
_symmetry_equiv_pos_as_xyz
1 x,y,z
2 -x,1/2+y,1/2-z
3 -x,-y,-z
4 x,1/2-y,1/2+z
_cell_length_a                   21.8196(8)
_cell_length_b                   17.2985(6)
_cell_length_c                   9.6319(3)
_cell_angle_alpha                90
_cell_angle_beta                 102.0080(10)
_cell_angle_gamma                90
_cell_volume                     3555.97
_exptl_crystal_colour            colorless
_exptl_crystal_description       plate
_cell_formula_units_Z            8
loop_
_atom_site_label
_atom_site_type_symbol
_atom_site_fract_x
_atom_site_fract_y
_atom_site_fract_z
Br1 Br 0.67630(2) 0.26683(2) 0.82623(6)
H1 H 1.0543(15) 0.6216(18) 0.620(3)
N1 N 0.98981(11) 0.53560(13) 0.7653(3)
C1 C 1.09022(16) 0.59908(17) 0.6533(3)
H2 H 1.1449(16) 0.687(2) 0.602(4)
C2 C 1.14536(17) 0.63460(19) 0.6426(4)
C3 C 1.20167(17) 0.5976(2) 0.6889(4)
H3 H 1.2375(18) 0.621(2) 0.685(4)
C4 C 1.20282(16) 0.5251(2) 0.7472(4)
H4 H 1.2407(16) 0.499(2) 0.781(4)
C5 C 1.14760(14) 0.48910(18) 0.7588(3)
H5 H 1.1499(16) 0.443(2) 0.805(4)
C6 C 1.09047(13) 0.52526(15) 0.7118(3)
C7 C 1.02968(13) 0.49036(15) 0.7271(3)
C8 C 1.01838(12) 0.40620(15) 0.6994(3)
C9 C 1.05247(14) 0.36264(18) 0.6203(3)
H6 H 1.0826(14) 0.3868(17) 0.579(3)
C10 C 1.04170(15) 0.28387(18) 0.6029(4)
H7 H 1.0647(16) 0.2542(19) 0.550(4)
C11 C 0.99777(15) 0.24867(18) 0.6647(4)
H8 H 0.9902(15) 0.196(2) 0.655(3)
C12 C 0.97143(12) 0.37121(15) 0.7558(3)
C13 C 0.93284(13) 0.42147(16) 0.8360(3)
H9 H 0.9571(13) 0.4227(16) 0.933(3)
C14 C 0.86894(13) 0.38697(16) 0.8352(3)
C15 C 0.85290(15) 0.36035(17) 0.9585(3)
H10 H 0.8826(14) 0.3656(17) 1.044(3)
C16 C 0.75400(13) 0.31696(16) 0.8302(4)
H11 H 0.9306(17) 0.269(2) 0.777(4)
C17 C 0.96200(15) 0.29220(18) 0.7385(4)
H12 H 0.9025(14) 0.5016(17) 0.674(3)
C18 C 0.92835(14) 0.50374(17) 0.7747(4)
C19 C 0.89715(17) 0.55871(19) 0.8621(5)
H13 H 0.920525 0.559457 0.958284
H14 H 0.855166 0.541572 0.860504
H15 H 0.896090 0.609792 0.822723
H16 H 0.7389(17) 0.338(2) 0.621(4)
C20 C 0.76742(15) 0.3444(2) 0.7060(4)
C21 C 0.82476(15) 0.3792(2) 0.7100(3)
H17 H 0.8356(15) 0.397(2) 0.628(4)
C22 C 0.79598(16) 0.32540(18) 0.9564(4)
H18 H 0.7859(16) 0.310(2) 1.038(4)
Br2 Br 0.17203(2) 0.26631(3) 0.38609(5)
N2 N 0.48700(12) 0.53581(14) 0.7304(3)
H19 H 0.7446(16) 0.619(2) 0.991(4)
C23 C 0.70702(18) 0.5955(2) 0.9601(4)
H20 H 0.5574(14) 0.6270(18) 0.921(3)
C24 C 0.59490(16) 0.60127(17) 0.9173(3)
H21 H 0.6568(16) 0.683(2) 1.003(4)
C25 C 0.65307(18) 0.6349(2) 0.9659(3)
H22 H 0.7421(17) 0.495(2) 0.901(4)
C26 C 0.70367(16) 0.5217(2) 0.9052(4)
C27 C 0.64589(15) 0.48719(18) 0.8573(4)
H23 H 0.6430(16) 0.438(2) 0.815(4)
C28 C 0.59101(14) 0.52632(16) 0.8627(3)
C29 C 0.52815(13) 0.49203(16) 0.8049(3)
C30 C 0.51666(13) 0.40941(16) 0.8327(3)
H24 H 0.4887(16) 0.201(2) 0.878(4)
C31 C 0.49557(16) 0.25342(19) 0.8683(4)
H25 H 0.5629(17) 0.266(2) 1.044(4)
C32 C 0.54035(15) 0.2911(2) 0.9656(4)
C33 C 0.55152(14) 0.36893(18) 0.9473(3)
H26 H 0.5825(14) 0.3960(18) 1.011(3)
H27 H 0.4301(16) 0.2689(19) 0.694(4)
C34 C 0.45928(15) 0.29355(18) 0.7568(4)
C35 C 0.46851(13) 0.37173(16) 0.7385(3)
C36 C 0.42930(14) 0.41962(17) 0.6203(3)
H28 H 0.4521(14) 0.4250(17) 0.542(3)
C37 C 0.42482(15) 0.50237(18) 0.6744(4)
H29 H 0.4027(15) 0.5009(18) 0.752(3)
C38 C 0.36550(13) 0.38425(16) 0.5618(3)
C39 C 0.32246(15) 0.3736(2) 0.6479(3)
H30 H 0.3327(16) 0.389(2) 0.744(4)
C40 C 0.26481(16) 0.3402(2) 0.5968(4)
H31 H 0.2368(16) 0.3308(19) 0.655(4)
C41 C 0.24991(13) 0.31624(18) 0.4578(3)
C42 C 0.29090(16) 0.32665(19) 0.3699(3)
H32 H 0.2817(17) 0.313(2) 0.276(4)
C43 C 0.34879(15) 0.36085(18) 0.4222(3)
H33 H 0.3788(16) 0.3677(19) 0.362(4)
C44 C 0.3901(3) 0.5565(3) 0.5594(7)
H34 H 0.416(3) 0.560(3) 0.474(7)
H35 H 0.351(2) 0.542(3) 0.527(5)
H36 H 0.390(2) 0.607(3) 0.597(5)
loop_
_geom_bond_atom_site_label_1
_geom_bond_atom_site_label_2
_geom_bond_site_symmetry_1
_geom_bond_site_symmetry_2
Br1 C16 1_555 1_555
H1 C1 1_555 1_555
N1 C7 1_555 1_555
C1 C2 1_555 1_555
H2 C2 1_555 1_555
C2 C3 1_555 1_555
C3 H3 1_555 1_555
C4 C3 1_555 1_555
H4 C4 1_555 1_555
C5 C4 1_555 1_555
H5 C5 1_555 1_555
C6 C1 1_555 1_555
C7 C6 1_555 1_555
C8 C7 1_555 1_555
C9 C8 1_555 1_555
H6 C9 1_555 1_555
C10 C9 1_555 1_555
H7 C10 1_555 1_555
C11 C10 1_555 1_555
H8 C11 1_555 1_555
C12 C8 1_555 1_555
C13 C12 1_555 1_555
H9 C13 1_555 1_555
C14 C13 1_555 1_555
C15 C14 1_555 1_555
H10 C15 1_555 1_555
C16 C20 1_555 1_555
H11 C17 1_555 1_555
C17 C11 1_555 1_555
H12 C18 1_555 1_555
C18 N1 1_555 1_555
C19 C18 1_555 1_555
H13 C19 1_555 1_555
H14 C19 1_555 1_555
H15 C19 1_555 1_555
H16 C20 1_555 1_555
C20 C21 1_555 1_555
C21 C14 1_555 1_555
H17 C21 1_555 1_555
C22 C15 1_555 1_555
H18 C22 1_555 1_555
Br2 C41 1_555 1_555
N2 C29 1_555 1_555
H19 C23 1_555 1_555
C23 C25 1_555 1_555
H20 C24 1_555 1_555
C24 C25 1_555 1_555
H21 C25 1_555 1_555
H22 C26 1_555 1_555
C26 C23 1_555 1_555
C27 C26 1_555 1_555
H23 C27 1_555 1_555
C28 C24 1_555 1_555
C29 C28 1_555 1_555
C30 C29 1_555 1_555
H24 C31 1_555 1_555
C31 C32 1_555 1_555
H25 C32 1_555 1_555
C32 C33 1_555 1_555
C33 C30 1_555 1_555
H26 C33 1_555 1_555
H27 C34 1_555 1_555
C34 C31 1_555 1_555
C35 C30 1_555 1_555
C36 C35 1_555 1_555
H28 C36 1_555 1_555
C37 N2 1_555 1_555
H29 C37 1_555 1_555
C38 C36 1_555 1_555
C39 C38 1_555 1_555
H30 C39 1_555 1_555
C40 C39 1_555 1_555
H31 C40 1_555 1_555
C41 C40 1_555 1_555
C42 C41 1_555 1_555
H32 C42 1_555 1_555
C43 C38 1_555 1_555
H33 C43 1_555 1_555
C44 C37 1_555 1_555
H34 C44 1_555 1_555
H35 C44 1_555 1_555
H36 C44 1_555 1_555
C5 C6 1_555 1_555
C12 C17 1_555 1_555
C13 C18 1_555 1_555
C16 C22 1_555 1_555
C27 C28 1_555 1_555
C34 C35 1_555 1_555
C36 C37 1_555 1_555
C42 C43 1_555 1_555

#END
