
#######################################################################
#
#                 Cambridge Crystallographic Data Centre
#                                CCDC 
#
#######################################################################
#
# If this CIF has been generated from an entry in the Cambridge 
# Structural Database, then it will include bibliographic, chemical, 
# crystal, experimental, refinement or atomic coordinate data resulting 
# from the CCDC's data processing and validation procedures.
#
#######################################################################

data_JEWZAP
_chemical_formula_moiety         'C21 H20 Br1 N3 O6 S1'
_chemical_name_systematic        
'methyl 6-bromo-3-ethenyl-1-[(4-methylphenyl)sulfonyl]-3a-nitro-2,3,3a,8a-tetrahydropyrrolo[2,3-b]indole-8(1H)-carboxylate'
_symmetry_cell_setting           orthorhombic
_symmetry_space_group_name_H-M   'P 21 21 21'
_symmetry_Int_Tables_number      19
_space_group_name_Hall           'P 2ac 2ab'
loop_
_symmetry_equiv_pos_site_id
_symmetry_equiv_pos_as_xyz
1 x,y,z
2 1/2-x,-y,1/2+z
3 -x,1/2+y,1/2-z
4 1/2+x,1/2-y,-z
_cell_length_a                   7.0520(5)
_cell_length_b                   22.3291(13)
_cell_length_c                   27.6452(17)
_cell_angle_alpha                90
_cell_angle_beta                 90
_cell_angle_gamma                90
_cell_volume                     4353.15
_exptl_crystal_colour            colorless
_exptl_crystal_description       'rod like'
_cell_formula_units_Z            8
loop_
_atom_site_label
_atom_site_type_symbol
_atom_site_fract_x
_atom_site_fract_y
_atom_site_fract_z
Br1 Br 0.07328(13) 0.91304(4) 0.71382(3)
S1 S 0.0147(3) 0.57066(9) 0.88080(7)
O1 O 0.1241(9) 0.6018(2) 0.76136(17)
O2 O 0.4690(8) 0.6738(3) 0.90673(18)
O3 O 0.1378(11) 0.5373(2) 0.85020(19)
O4 O 0.0871(9) 0.6798(2) 0.70980(18)
O5 O 0.5090(9) 0.7683(3) 0.8928(2)
N1 N 0.1345(9) 0.6938(3) 0.7906(2)
N2 N 0.4168(10) 0.7224(3) 0.8910(2)
O6 O -0.1797(10) 0.5536(3) 0.8862(2)
N3 N 0.0107(10) 0.6395(3) 0.8604(2)
C1 C 0.1194(12) 0.8584(3) 0.7643(3)
C2 C 0.1657(12) 0.8795(4) 0.8094(3)
H1 H 0.1723 0.9213 0.8153
C3 C 0.1042(11) 0.7978(4) 0.7536(3)
H2 H 0.0713 0.7842 0.7221
C4 C 0.1396(11) 0.7583(3) 0.7911(2)
C5 C 0.0767(12) 0.7199(3) 0.9136(3)
H3 H 0.1362 0.6933 0.9384
C6 C 0.1896(11) 0.7785(4) 0.8375(3)
C7 C 0.1779(12) 0.6680(3) 0.8388(3)
H4 H 0.2896 0.6404 0.8378
C8 C 0.1142(12) 0.5700(3) 0.9397(3)
C9 C -0.0881(12) 0.6847(3) 0.8898(3)
H5 H -0.1694 0.6655 0.9146
H6 H -0.1670 0.7112 0.8694
C10 C 0.2176(11) 0.7254(4) 0.8705(3)
C11 C 0.2026(11) 0.8391(3) 0.8462(3)
H7 H 0.2368 0.8532 0.8774
C12 C 0.3035(13) 0.5575(3) 0.9452(3)
H8 H 0.3820 0.5500 0.9180
C13 C 0.0207(12) 0.7769(3) 0.9380(3)
H9 H -0.0580 0.8041 0.9209
C14 C 0.0932(14) 0.5591(4) 0.7229(3)
H10 H -0.0328 0.5655 0.7089
H11 H 0.1013 0.5184 0.7360
H12 H 0.1900 0.5645 0.6979
C15 C -0.0015(14) 0.5810(4) 0.9784(3)
H13 H -0.1329 0.5885 0.9739
C16 C 0.1112(12) 0.6602(4) 0.7502(3)
C17 C 0.3772(15) 0.5563(4) 0.9919(3)
H14 H 0.5077 0.5472 0.9963
C18 C 0.0747(15) 0.7912(4) 0.9820(3)
H15 H 0.1534 0.7648 0.9999
H16 H 0.0350 0.8281 0.9959
C19 C 0.0781(16) 0.5812(4) 1.0251(3)
H17 H 0.0003 0.5905 1.0521
C20 C 0.2668(15) 0.5680(4) 1.0323(3)
C21 C 0.3502(18) 0.5652(4) 1.0828(3)
H18 H 0.2994 0.5982 1.1023
H19 H 0.4885 0.5688 1.0809
H20 H 0.3167 0.5270 1.0978
Br2 Br 0.64675(14) 0.90209(4) 0.79416(3)
S2 S 0.6524(4) 0.55931(10) 0.62539(7)
O7 O 0.2358(8) 0.6728(3) 0.5950(2)
O8 O 0.5625(9) 0.5919(3) 0.74308(17)
O9 O 0.4855(10) 0.5344(3) 0.6466(2)
O10 O 0.5983(9) 0.6681(2) 0.79635(19)
N4 N 0.2930(10) 0.7198(3) 0.6126(2)
O11 O 0.8327(11) 0.5307(3) 0.6321(2)
N5 N 0.5600(10) 0.6847(3) 0.7152(2)
O12 O 0.2074(10) 0.7672(3) 0.6125(3)
N6 N 0.6771(11) 0.6284(3) 0.6460(2)
C22 C 0.6051(11) 0.7880(4) 0.7530(3)
H21 H 0.6325 0.7739 0.7846
C23 C 0.5654(11) 0.7485(3) 0.7152(3)
C24 C 0.7886(12) 0.6719(4) 0.6181(3)
H22 H 0.8706 0.6515 0.5942
H23 H 0.8689 0.6967 0.6397
C25 C 0.5249(12) 0.7705(4) 0.6688(3)
C26 C 0.4927(11) 0.7196(3) 0.6348(3)
C27 C 0.5762(13) 0.6487(4) 0.7552(3)
C28 C 0.6029(12) 0.8483(4) 0.7424(3)
C29 C 0.5146(12) 0.6604(4) 0.6666(3)
H24 H 0.3966 0.6356 0.6667
C30 C 0.6202(13) 0.5647(3) 0.5613(3)
C31 C 0.6365(12) 0.7108(3) 0.5925(3)
H25 H 0.5739 0.6854 0.5674
C32 C 0.5636(14) 0.8718(4) 0.6972(3)
H26 H 0.5639 0.9138 0.6919
C33 C 0.5242(12) 0.8327(4) 0.6599(3)
H27 H 0.4968 0.8476 0.6285
C34 C 0.5730(16) 0.5473(4) 0.7821(3)
H28 H 0.6688 0.5597 0.8057
H29 H 0.6078 0.5083 0.7685
H30 H 0.4493 0.5443 0.7980
C35 C 0.6683(16) 0.7778(4) 0.5232(3)
H31 H 0.5953 0.7506 0.5046
H32 H 0.7146 0.8137 0.5089
C36 C 0.4374(14) 0.5688(3) 0.5434(3)
H33 H 0.3309 0.5671 0.5644
C37 C 0.4144(16) 0.5755(3) 0.4939(3)
H34 H 0.2895 0.5770 0.4811
C38 C 0.7052(13) 0.7661(4) 0.5685(3)
H35 H 0.7784 0.7938 0.5867
C39 C 0.7739(15) 0.5663(4) 0.5311(3)
H36 H 0.8984 0.5622 0.5438
C40 C 0.7454(17) 0.5740(4) 0.4812(3)
H37 H 0.8516 0.5751 0.4601
C41 C 0.5658(17) 0.5800(4) 0.4626(3)
C42 C 0.5355(19) 0.5891(4) 0.4094(3)
H38 H 0.5610 0.6310 0.4010
H39 H 0.4040 0.5793 0.4011
H40 H 0.6217 0.5630 0.3912
H41? H 0.5016 0.6776 0.9358
loop_
_geom_bond_atom_site_label_1
_geom_bond_atom_site_label_2
_geom_bond_site_symmetry_1
_geom_bond_site_symmetry_2
Br1 C1 1_555 1_555
S1 O3 1_555 1_555
O1 C14 1_555 1_555
O2 N2 1_555 1_555
O4 C16 1_555 1_555
O5 N2 1_555 1_555
N1 C4 1_555 1_555
N2 C10 1_555 1_555
O6 S1 1_555 1_555
N3 S1 1_555 1_555
C1 C2 1_555 1_555
C2 H1 1_555 1_555
C3 C1 1_555 1_555
H2 C3 1_555 1_555
C4 C3 1_555 1_555
C5 H3 1_555 1_555
C6 C4 1_555 1_555
C7 N1 1_555 1_555
H4 C7 1_555 1_555
C8 S1 1_555 1_555
C9 N3 1_555 1_555
H5 C9 1_555 1_555
H6 C9 1_555 1_555
C10 C5 1_555 1_555
C11 C2 1_555 1_555
H7 C11 1_555 1_555
C12 C8 1_555 1_555
H8 C12 1_555 1_555
C13 C5 1_555 1_555
H9 C13 1_555 1_555
C14 H10 1_555 1_555
H11 C14 1_555 1_555
H12 C14 1_555 1_555
C15 C8 1_555 1_555
H13 C15 1_555 1_555
C16 O1 1_555 1_555
C17 C12 1_555 1_555
H14 C17 1_555 1_555
C18 C13 1_555 1_555
H15 C18 1_555 1_555
H16 C18 1_555 1_555
C19 C15 1_555 1_555
H17 C19 1_555 1_555
C20 C17 1_555 1_555
C21 C20 1_555 1_555
H18 C21 1_555 1_555
H19 C21 1_555 1_555
H20 C21 1_555 1_555
Br2 C28 1_555 1_555
S2 O9 1_555 1_555
O7 N4 1_555 1_555
O8 C27 1_555 1_555
O10 C27 1_555 1_555
N4 O12 1_555 1_555
O11 S2 1_555 1_555
N5 C23 1_555 1_555
N6 S2 1_555 1_555
C22 H21 1_555 1_555
C23 C22 1_555 1_555
C24 N6 1_555 1_555
H22 C24 1_555 1_555
H23 C24 1_555 1_555
C25 C23 1_555 1_555
C26 N4 1_555 1_555
C27 N5 1_555 1_555
C28 C22 1_555 1_555
C29 N5 1_555 1_555
H24 C29 1_555 1_555
C30 S2 1_555 1_555
C31 C24 1_555 1_555
H25 C31 1_555 1_555
C32 C28 1_555 1_555
H26 C32 1_555 1_555
C33 C25 1_555 1_555
H27 C33 1_555 1_555
C34 O8 1_555 1_555
H28 C34 1_555 1_555
H29 C34 1_555 1_555
H30 C34 1_555 1_555
C35 H31 1_555 1_555
H32 C35 1_555 1_555
C36 C30 1_555 1_555
H33 C36 1_555 1_555
C37 C36 1_555 1_555
H34 C37 1_555 1_555
C38 C31 1_555 1_555
H35 C38 1_555 1_555
C39 C30 1_555 1_555
H36 C39 1_555 1_555
C40 C39 1_555 1_555
H37 C40 1_555 1_555
C41 C37 1_555 1_555
C42 C41 1_555 1_555
H38 C42 1_555 1_555
H39 C42 1_555 1_555
H40 C42 1_555 1_555
N1 C16 1_555 1_555
N3 C7 1_555 1_555
C5 C9 1_555 1_555
C6 C10 1_555 1_555
C6 C11 1_555 1_555
C7 C10 1_555 1_555
C19 C20 1_555 1_555
N6 C29 1_555 1_555
C25 C26 1_555 1_555
C26 C29 1_555 1_555
C26 C31 1_555 1_555
C32 C33 1_555 1_555
C35 C38 1_555 1_555
C40 C41 1_555 1_555

#END
