
#######################################################################
#
#                 Cambridge Crystallographic Data Centre
#                                CCDC 
#
#######################################################################
#
# If this CIF has been generated from an entry in the Cambridge 
# Structural Database, then it will include bibliographic, chemical, 
# crystal, experimental, refinement or atomic coordinate data resulting 
# from the CCDC's data processing and validation procedures.
#
#######################################################################

data_JEXGIF
_chemical_formula_moiety         'C30 H20 Br1 F1 N2 O2'
_chemical_name_systematic        
(2-(4-bromophenyl)-4-(4-fluoro-3-phenoxyphenyl)-5-(2-hydroxyphenyl)-1H-pyrrol-3-yl)acetonitrile
_symmetry_cell_setting           triclinic
_symmetry_space_group_name_H-M   'P -1'
_symmetry_Int_Tables_number      2
_space_group_name_Hall           '-P 1'
loop_
_symmetry_equiv_pos_site_id
_symmetry_equiv_pos_as_xyz
1 x,y,z
2 -x,-y,-z
_cell_length_a                   9.5439(6)
_cell_length_b                   10.6277(7)
_cell_length_c                   14.5000(9)
_cell_angle_alpha                91.430(2)
_cell_angle_beta                 93.576(2)
_cell_angle_gamma                110.092(2)
_cell_volume                     1376.85
_exptl_crystal_colour            white
_exptl_crystal_description       block
_cell_formula_units_Z            2
loop_
_atom_site_label
_atom_site_type_symbol
_atom_site_fract_x
_atom_site_fract_y
_atom_site_fract_z
Br1 Br 1.55414(8) 0.57395(10) 0.73020(4)
F1 F 0.7136(6) 0.4460(5) -0.0853(3)
O1 O 0.9461(5) -0.0027(4) 0.3520(3)
H1 H 0.9411 -0.0796 0.3670
O2 O 0.8411(6) 0.2572(5) -0.0729(3)
N1 N 1.0030(4) 0.2620(3) 0.3838(3)
N2 N 1.0109(7) 0.7611(5) 0.3597(4)
C1 C 0.9141(5) 0.2407(4) 0.3037(3)
C2 C 0.9488(5) 0.3622(4) 0.2617(3)
C3 C 1.0610(5) 0.4581(4) 0.3214(3)
C4 C 1.0951(5) 0.3943(4) 0.3958(3)
C5 C 0.7993(5) 0.1107(4) 0.2778(3)
C6 C 0.8207(7) -0.0108(5) 0.3001(4)
C7 C 0.7112(9) -0.1341(5) 0.2703(5)
H2 H 0.7280 -0.2136 0.2819
C8 C 0.5826(9) -0.1382(7) 0.2254(5)
H3 H 0.5103 -0.2212 0.2083
C9 C 0.5538(8) -0.0225(7) 0.2035(4)
H4 H 0.4640 -0.0270 0.1723
C10 C 0.6651(6) 0.1022(5) 0.2302(4)
H5 H 0.6483 0.1808 0.2155
C11 C 0.8886(5) 0.3872(4) 0.1705(3)
C12 C 0.8233(6) 0.4852(5) 0.1601(4)
H6 H 0.8183 0.5383 0.2109
C13 C 0.7652(8) 0.5027(7) 0.0719(5)
H7 H 0.7222 0.5684 0.0641
C14 C 0.7713(7) 0.4256(6) -0.0011(4)
C15 C 0.8339(7) 0.3289(6) 0.0067(3)
C16 C 0.8959(6) 0.3118(5) 0.0928(3)
H8 H 0.9431 0.2487 0.0983
C17 C 0.8215(7) 0.1206(6) -0.0702(3)
C18 C 0.7239(7) 0.0349(6) -0.0154(4)
H9 H 0.6716 0.0672 0.0256
C19 C 0.7043(9) -0.0989(7) -0.0219(5)
H10 H 0.6381 -0.1579 0.0151
C20 C 0.7807(11) -0.1468(8) -0.0819(5)
H11 H 0.7678 -0.2376 -0.0860
C21 C 0.8740(12) -0.0613(10) -0.1345(6)
H12 H 0.9250 -0.0940 -0.1761
C22 C 0.8972(9) 0.0712(9) -0.1296(5)
H13 H 0.9645 0.1287 -0.1667
C23 C 1.1438(6) 0.6027(4) 0.2999(4)
H14 H 1.2448 0.6310 0.3289
H15 H 1.1505 0.6089 0.2336
C24 C 1.0696(7) 0.6913(5) 0.3323(4)
C25 C 1.2064(5) 0.4411(5) 0.4752(3)
C26 C 1.2872(6) 0.3604(5) 0.5047(3)
H16 H 1.2706 0.2785 0.4735
C27 C 1.3909(6) 0.4003(6) 0.5794(4)
H17 H 1.4453 0.3464 0.5980
C28 C 1.4134(6) 0.5195(6) 0.6258(3)
C29 C 1.3364(6) 0.6034(6) 0.5988(4)
H18 H 1.3536 0.6850 0.6306
C30 C 1.2324(6) 0.5619(5) 0.5224(3)
H19 H 1.1797 0.6168 0.5030
loop_
_geom_bond_atom_site_label_1
_geom_bond_atom_site_label_2
_geom_bond_site_symmetry_1
_geom_bond_site_symmetry_2
Br1 C28 1_555 1_555
F1 C14 1_555 1_555
O1 H1 1_555 1_555
O2 C15 1_555 1_555
N1 C1 1_555 1_555
N2 C24 1_555 1_555
C1 C2 1_555 1_555
C2 C3 1_555 1_555
C3 C4 1_555 1_555
C4 N1 1_555 1_555
C5 C1 1_555 1_555
C6 O1 1_555 1_555
C7 C6 1_555 1_555
H2 C7 1_555 1_555
C8 C7 1_555 1_555
H3 C8 1_555 1_555
C9 C8 1_555 1_555
H4 C9 1_555 1_555
C10 C5 1_555 1_555
H5 C10 1_555 1_555
C11 C2 1_555 1_555
C12 C11 1_555 1_555
H6 C12 1_555 1_555
C13 C12 1_555 1_555
H7 C13 1_555 1_555
C14 C13 1_555 1_555
C15 C14 1_555 1_555
C16 C11 1_555 1_555
H8 C16 1_555 1_555
C17 O2 1_555 1_555
C18 C17 1_555 1_555
H9 C18 1_555 1_555
C19 C18 1_555 1_555
H10 C19 1_555 1_555
C20 C19 1_555 1_555
H11 C20 1_555 1_555
C21 C20 1_555 1_555
H12 C21 1_555 1_555
C22 C17 1_555 1_555
H13 C22 1_555 1_555
C23 C3 1_555 1_555
H14 C23 1_555 1_555
H15 C23 1_555 1_555
C24 C23 1_555 1_555
C25 C4 1_555 1_555
C26 C25 1_555 1_555
H16 C26 1_555 1_555
C27 C26 1_555 1_555
H17 C27 1_555 1_555
C28 C27 1_555 1_555
C29 C28 1_555 1_555
H18 C29 1_555 1_555
C30 C25 1_555 1_555
H19 C30 1_555 1_555
C5 C6 1_555 1_555
C9 C10 1_555 1_555
C15 C16 1_555 1_555
C21 C22 1_555 1_555
C29 C30 1_555 1_555

#END
