
#######################################################################
#
#                 Cambridge Crystallographic Data Centre
#                                CCDC 
#
#######################################################################
#
# If this CIF has been generated from an entry in the Cambridge 
# Structural Database, then it will include bibliographic, chemical, 
# crystal, experimental, refinement or atomic coordinate data resulting 
# from the CCDC's data processing and validation procedures.
#
#######################################################################

data_JEXHEZ
_chemical_formula_moiety         'C27 H31 B1 O1'
_chemical_name_systematic        E-Dimesityl(4-methoxyphenylethene)borane
_symmetry_cell_setting           monoclinic
_symmetry_space_group_name_H-M   'P 21/c'
_symmetry_Int_Tables_number      14
_space_group_name_Hall           '-P 2ybc'
loop_
_symmetry_equiv_pos_site_id
_symmetry_equiv_pos_as_xyz
1 x,y,z
2 -x,1/2+y,1/2-z
3 -x,-y,-z
4 x,1/2-y,1/2+z
_cell_length_a                   14.416(3)
_cell_length_b                   12.033(3)
_cell_length_c                   13.264(2)
_cell_angle_alpha                90
_cell_angle_beta                 90.38(2)
_cell_angle_gamma                90
_cell_volume                     2300.83
_cell_formula_units_Z            4
loop_
_atom_site_label
_atom_site_type_symbol
_atom_site_fract_x
_atom_site_fract_y
_atom_site_fract_z
O1 O 0.6370(2) -0.0086(2) 0.6748(2)
C1 C 0.3234(3) 0.2975(3) 0.4402(3)
C2 C 0.3302(3) 0.2285(3) 0.5201(3)
C3 C 0.2410(3) 0.4722(3) 0.3499(3)
C4 C 0.3120(3) 0.5533(3) 0.3683(3)
C5 C 0.3209(3) 0.6459(3) 0.3072(3)
C6 C 0.2639(3) 0.6644(3) 0.2234(3)
C7 C 0.1943(3) 0.5857(4) 0.2061(3)
C8 C 0.1808(3) 0.4929(3) 0.2662(3)
C9 C 0.3778(3) 0.5444(4) 0.4569(4)
C10 C 0.2736(5) 0.7661(5) 0.1595(5)
C11 C 0.1041(3) 0.4143(5) 0.2377(4)
C12 C 0.1397(3) 0.3196(3) 0.4638(3)
C13 C 0.0937(3) 0.3807(3) 0.5383(3)
C14 C 0.0132(3) 0.3404(3) 0.5829(3)
C15 C -0.0258(3) 0.2396(4) 0.5523(3)
C16 C 0.0199(3) 0.1787(3) 0.4780(3)
C17 C 0.1018(3) 0.2168(3) 0.4341(3)
C18 C 0.1328(4) 0.4904(4) 0.5772(4)
C19 C -0.1142(4) 0.1964(6) 0.5995(6)
C20 C 0.1455(4) 0.1447(5) 0.3539(5)
C21 C 0.4107(3) 0.1692(3) 0.5590(3)
C22 C 0.4028(3) 0.1094(4) 0.6487(3)
C23 C 0.4764(3) 0.0505(4) 0.6896(3)
C24 C 0.5605(3) 0.0496(3) 0.6410(3)
C25 C 0.5720(3) 0.1087(3) 0.5516(3)
C26 C 0.4986(3) 0.1677(3) 0.5118(3)
C27 C 0.6228(4) -0.0810(5) 0.7597(4)
B1 B 0.2343(3) 0.3639(3) 0.4157(3)
H1 H 0.381(3) 0.312(3) 0.404(3)
H2 H 0.271(3) 0.213(3) 0.563(3)
H3 H 0.375(2) 0.702(3) 0.321(2)
H4 H 0.164(3) 0.596(4) 0.150(3)
H5 H 0.437(5) 0.484(5) 0.435(4)
H6 H 0.349(5) 0.512(5) 0.520(5)
H7 H 0.413(4) 0.626(5) 0.473(4)
H8 H 0.259(6) 0.834(6) 0.209(6)
H9 H 0.355(5) 0.792(5) 0.154(4)
H10 H 0.282(4) 0.755(5) 0.080(5)
H11 H 0.125(4) 0.336(6) 0.197(5)
H12 H 0.067(4) 0.382(5) 0.300(4)
H13 H 0.061(5) 0.454(5) 0.192(5)
H14 H -0.020(2) 0.393(3) 0.629(3)
H15 H -0.006(3) 0.099(4) 0.451(3)
H16 H 0.092(5) 0.543(6) 0.614(5)
H17 H 0.150(4) 0.541(5) 0.529(4)
H18 H 0.189(4) 0.478(4) 0.625(4)
H19 H -0.108(6) 0.175(6) 0.657(7)
H20 H -0.166(4) 0.261(4) 0.600(4)
H21 H -0.143(5) 0.142(6) 0.558(5)
H22 H 0.195(5) 0.113(5) 0.378(4)
H23 H 0.181(4) 0.182(4) 0.306(4)
H24 H 0.105(5) 0.075(6) 0.329(5)
H25 H 0.342(3) 0.105(3) 0.692(3)
H26 H 0.463(3) 0.009(4) 0.752(4)
H27 H 0.634(3) 0.110(3) 0.511(3)
H28 H 0.504(2) 0.210(3) 0.447(3)
H29 H 0.564(3) -0.132(4) 0.739(3)
H30 H 0.687(3) -0.130(4) 0.766(3)
H31 H 0.599(4) -0.033(4) 0.817(4)
loop_
_geom_bond_atom_site_label_1
_geom_bond_atom_site_label_2
_geom_bond_site_symmetry_1
_geom_bond_site_symmetry_2
O1 C24 1_555 1_555
C1 C2 1_555 1_555
C2 C21 1_555 1_555
C3 C4 1_555 1_555
C4 C5 1_555 1_555
C5 C6 1_555 1_555
C6 C7 1_555 1_555
C7 C8 1_555 1_555
C8 C3 1_555 1_555
C9 C4 1_555 1_555
C10 C6 1_555 1_555
C11 C8 1_555 1_555
C12 C13 1_555 1_555
C13 C14 1_555 1_555
C14 C15 1_555 1_555
C15 C16 1_555 1_555
C16 C17 1_555 1_555
C17 C12 1_555 1_555
C18 C13 1_555 1_555
C19 C15 1_555 1_555
C20 C17 1_555 1_555
C21 C22 1_555 1_555
C22 C23 1_555 1_555
C23 C24 1_555 1_555
C24 C25 1_555 1_555
C25 C26 1_555 1_555
C26 C21 1_555 1_555
C27 O1 1_555 1_555
B1 C1 1_555 1_555
H1 C1 1_555 1_555
H2 C2 1_555 1_555
H3 C5 1_555 1_555
H4 C7 1_555 1_555
H5 C9 1_555 1_555
H6 C9 1_555 1_555
H7 C9 1_555 1_555
H8 C10 1_555 1_555
H9 C10 1_555 1_555
H10 C10 1_555 1_555
H11 C11 1_555 1_555
H12 C11 1_555 1_555
H13 C11 1_555 1_555
H14 C14 1_555 1_555
H15 C16 1_555 1_555
H16 C18 1_555 1_555
H17 C18 1_555 1_555
H18 C18 1_555 1_555
H19 C19 1_555 1_555
H20 C19 1_555 1_555
H21 C19 1_555 1_555
H22 C20 1_555 1_555
H23 C20 1_555 1_555
H24 C20 1_555 1_555
H25 C22 1_555 1_555
H26 C23 1_555 1_555
H27 C25 1_555 1_555
H28 C26 1_555 1_555
H29 C27 1_555 1_555
H30 C27 1_555 1_555
H31 C27 1_555 1_555
C3 B1 1_555 1_555
C12 B1 1_555 1_555

#END
