
#######################################################################
#
#                 Cambridge Crystallographic Data Centre
#                                CCDC 
#
#######################################################################
#
# If this CIF has been generated from an entry in the Cambridge 
# Structural Database, then it will include bibliographic, chemical, 
# crystal, experimental, refinement or atomic coordinate data resulting 
# from the CCDC's data processing and validation procedures.
#
#######################################################################

data_JEXHEZ01
_chemical_formula_moiety         'C27 H31 B1 O1'
_chemical_name_systematic        
(E)-(2-(4-methoxyphenyl)ethenyl)dimesitylborane
_symmetry_cell_setting           monoclinic
_symmetry_space_group_name_H-M   'P 21/c'
_symmetry_Int_Tables_number      14
_space_group_name_Hall           '-P 2ybc'
loop_
_symmetry_equiv_pos_site_id
_symmetry_equiv_pos_as_xyz
1 x,y,z
2 -x,1/2+y,1/2-z
3 -x,-y,-z
4 x,1/2-y,1/2+z
_cell_length_a                   14.372(2)
_cell_length_b                   11.9248(17)
_cell_length_c                   13.1421(18)
_cell_angle_alpha                90
_cell_angle_beta                 90.07(1)
_cell_angle_gamma                90
_cell_volume                     2252.33
_exptl_crystal_colour            colorless
_exptl_crystal_description       irregular
_chemical_melting_point          '362 K'
_cell_formula_units_Z            4
_exptl_crystal_recrystallization_method hexane
loop_
_atom_site_label
_atom_site_type_symbol
_atom_site_fract_x
_atom_site_fract_y
_atom_site_fract_z
B1 B 0.23307(7) 0.13540(9) 0.41427(8)
O1 O 0.63825(5) 0.50865(7) 0.67325(6)
C1 C 0.41119(6) 0.33086(7) 0.55753(7)
C2 C 0.49829(6) 0.33233(8) 0.50848(7)
H1 H 0.5075(8) 0.2916(10) 0.4430(9)
C3 C 0.57244(6) 0.39105(8) 0.54889(7)
H2 H 0.6321(9) 0.3909(12) 0.5157(10)
C4 C 0.56193(6) 0.45061(8) 0.64011(7)
C5 C 0.47711(7) 0.44908(9) 0.69068(7)
H3 H 0.4692(10) 0.4905(12) 0.7513(11)
C6 C 0.40304(7) 0.39017(9) 0.64869(7)
H4 H 0.3445(9) 0.3909(12) 0.6841(10)
C7 C 0.32941(6) 0.27181(8) 0.51827(7)
H5 H 0.2738(8) 0.2855(10) 0.5566(9)
C8 C 0.32305(6) 0.20251(8) 0.43749(7)
H6 H 0.3772(10) 0.1889(11) 0.3958(11)
C9 C 0.62461(8) 0.58140(11) 0.75826(8)
H7 H 0.6825(5) 0.6225(7) 0.7724(5)
H8 H 0.6073(7) 0.5368(4) 0.8183(6)
H9 H 0.5746(6) 0.6350(7) 0.7427(3)
C10 C 0.24087(6) 0.02564(8) 0.34721(7)
C11 C 0.18104(7) 0.00428(8) 0.26357(7)
C12 C 0.19505(7) -0.08976(9) 0.20188(8)
H10 H 0.1547(10) -0.1028(13) 0.1422(11)
C13 C 0.26527(8) -0.16692(8) 0.22102(8)
C14 C 0.32280(7) -0.14810(8) 0.30438(7)
H11 H 0.3696(10) -0.2050(12) 0.3209(10)
C15 C 0.31233(6) -0.05416(8) 0.36647(7)
C16 C 0.10299(8) 0.08286(10) 0.23424(8)
H12 H 0.0604(6) 0.0446(4) 0.1888(7)
H13 H 0.1286(3) 0.1481(7) 0.2002(7)
H14 H 0.0699(5) 0.1064(7) 0.2949(6)
C17 C 0.27724(10) -0.27030(10) 0.15618(9)
H15 H 0.2344(9) -0.2660(6) 0.0962(9)
H16 H 0.2621(10) -0.3385(8) 0.1974(6)
H17 H 0.3432(8) -0.2750(7) 0.1319(10)
C18 C 0.37867(7) -0.04404(9) 0.45551(8)
H18 H 0.4092(6) -0.1153(7) 0.4668(5)
H19 H 0.3444(3) -0.0230(8) 0.5159(6)
H20 H 0.4249(6) 0.0126(8) 0.4408(3)
C19 C 0.13865(6) 0.17972(8) 0.46230(7)
C20 C 0.10039(6) 0.28391(8) 0.43307(7)
C21 C 0.01845(6) 0.32250(8) 0.47803(8)
H21 H -0.0084(10) 0.3973(12) 0.4543(10)
C22 C -0.02716(7) 0.26151(9) 0.55323(8)
C23 C 0.01138(7) 0.15967(8) 0.58308(7)
H22 H -0.0188(10) 0.1144(12) 0.6338(10)
C24 C 0.09270(6) 0.11799(8) 0.53918(7)
C25 C 0.14516(7) 0.35550(9) 0.35159(8)
H23 H 0.0997(5) 0.4085(8) 0.3251(6)
H24 H 0.1671(7) 0.3077(5) 0.2966(7)
H25 H 0.1974(7) 0.3963(8) 0.3806(3)
C26 C -0.11505(8) 0.30489(11) 0.60172(10)
H26 H -0.1640(6) 0.2455(7) 0.5992(7)
H27 H -0.1371(5) 0.3725(9) 0.5640(6)
H28 H -0.1023(2) 0.3254(9) 0.6740(8)
C27 C 0.13204(7) 0.00843(8) 0.57727(8)
H29 H 0.0844(6) -0.0311(6) 0.6181(8)
H30 H 0.1874(7) 0.02334(18) 0.6201(8)
H31 H 0.1502(7) -0.0388(6) 0.5186(6)
loop_
_geom_bond_atom_site_label_1
_geom_bond_atom_site_label_2
_geom_bond_site_symmetry_1
_geom_bond_site_symmetry_2
B1 C8 1_555 1_555
O1 C4 1_555 1_555
C1 C2 1_555 1_555
C2 H1 1_555 1_555
C3 C2 1_555 1_555
H2 C3 1_555 1_555
C4 C3 1_555 1_555
C5 C4 1_555 1_555
H3 C5 1_555 1_555
C6 C1 1_555 1_555
H4 C6 1_555 1_555
C7 C1 1_555 1_555
H5 C7 1_555 1_555
C8 C7 1_555 1_555
H6 C8 1_555 1_555
C9 O1 1_555 1_555
H7 C9 1_555 1_555
H8 C9 1_555 1_555
H9 C9 1_555 1_555
C10 B1 1_555 1_555
C11 C10 1_555 1_555
C12 C11 1_555 1_555
H10 C12 1_555 1_555
C13 C12 1_555 1_555
C14 C13 1_555 1_555
H11 C14 1_555 1_555
C15 C10 1_555 1_555
C16 C11 1_555 1_555
H12 C16 1_555 1_555
H13 C16 1_555 1_555
H14 C16 1_555 1_555
C17 C13 1_555 1_555
H15 C17 1_555 1_555
H16 C17 1_555 1_555
H17 C17 1_555 1_555
C18 C15 1_555 1_555
H18 C18 1_555 1_555
H19 C18 1_555 1_555
H20 C18 1_555 1_555
C19 B1 1_555 1_555
C20 C19 1_555 1_555
C21 C20 1_555 1_555
H21 C21 1_555 1_555
C22 C21 1_555 1_555
C23 C22 1_555 1_555
H22 C23 1_555 1_555
C24 C19 1_555 1_555
C25 C20 1_555 1_555
H23 C25 1_555 1_555
H24 C25 1_555 1_555
H25 C25 1_555 1_555
C26 C22 1_555 1_555
H26 C26 1_555 1_555
H27 C26 1_555 1_555
H28 C26 1_555 1_555
C27 C24 1_555 1_555
H29 C27 1_555 1_555
H30 C27 1_555 1_555
H31 C27 1_555 1_555
C5 C6 1_555 1_555
C14 C15 1_555 1_555
C23 C24 1_555 1_555

#END
