
#######################################################################
#
#                 Cambridge Crystallographic Data Centre
#                                CCDC 
#
#######################################################################
#
# If this CIF has been generated from an entry in the Cambridge 
# Structural Database, then it will include bibliographic, chemical, 
# crystal, experimental, refinement or atomic coordinate data resulting 
# from the CCDC's data processing and validation procedures.
#
#######################################################################

data_JEXHID01
_chemical_formula_moiety         'C28 H34 B1 N1'
_chemical_name_systematic        
(E)-(2-(4-Dimethylaminophenyl)ethenyl)dimesitylborane
_symmetry_cell_setting           monoclinic
_symmetry_space_group_name_H-M   'P 21/c'
_symmetry_Int_Tables_number      14
_space_group_name_Hall           '-P 2ybc'
loop_
_symmetry_equiv_pos_site_id
_symmetry_equiv_pos_as_xyz
1 x,y,z
2 -x,1/2+y,1/2-z
3 -x,-y,-z
4 x,1/2-y,1/2+z
_cell_length_a                   14.876(4)
_cell_length_b                   14.130(4)
_cell_length_c                   11.738(3)
_cell_angle_alpha                90
_cell_angle_beta                 109.16(1)
_cell_angle_gamma                90
_cell_volume                     2330.63
_exptl_crystal_colour            yellow
_exptl_crystal_description       needle
_chemical_melting_point          '468 K'
_cell_formula_units_Z            4
_exptl_crystal_recrystallization_method hexane
loop_
_atom_site_label
_atom_site_type_symbol
_atom_site_fract_x
_atom_site_fract_y
_atom_site_fract_z
N1 N 0.61471(16) 0.50583(15) 0.4044(2)
B1 B 0.23741(18) 0.90355(17) 0.4601(2)
C1 C 0.40520(15) 0.70873(14) 0.39849(19)
C2 C 0.48969(16) 0.70127(15) 0.4955(2)
H1 H 0.5003 0.7434 0.5616
C3 C 0.55826(16) 0.63480(16) 0.4985(2)
H2 H 0.6145 0.6317 0.5666
C4 C 0.54615(17) 0.57130(16) 0.4018(2)
C5 C 0.46163(18) 0.57780(17) 0.3047(2)
H3 H 0.4509 0.5358 0.2383
C6 C 0.39348(17) 0.64449(16) 0.3038(2)
H4 H 0.3366 0.6469 0.2366
C7 C 0.32876(15) 0.77409(14) 0.39417(19)
H5 H 0.2733 0.7687 0.3253
C8 C 0.32563(15) 0.84159(15) 0.47473(19)
H6 H 0.3805 0.8512 0.5434
C9 C 0.70361(19) 0.5035(2) 0.5028(3)
H7 H 0.7332 0.5663 0.5128
H8 H 0.7463 0.4572 0.4851
H9 H 0.6918 0.4854 0.5772
C10 C 0.5969(2) 0.43281(19) 0.3135(2)
H10 H 0.5357 0.4024 0.3041
H11 H 0.6477 0.3854 0.3380
H12 H 0.5952 0.4611 0.2365
C11 C 0.24533(16) 0.99550(15) 0.54076(19)
C12 C 0.18262(17) 1.01247(17) 0.6071(2)
C13 C 0.1910(2) 1.09514(18) 0.6744(2)
H13 H 0.1491 1.1048 0.7194
C14 C 0.2580(2) 1.16353(18) 0.6777(2)
C15 C 0.32013(17) 1.14758(16) 0.6146(2)
H14 H 0.3672 1.1937 0.6172
C16 C 0.31546(15) 1.06491(15) 0.5469(2)
C17 C 0.10849(19) 0.94121(19) 0.6111(2)
H15 H 0.0699 0.9240 0.5287
H16 H 0.0675 0.9687 0.6529
H17 H 0.1398 0.8845 0.6542
C18 C 0.2625(2) 1.2556(2) 0.7458(2)
H18 H 0.1987 1.2833 0.7238
H19 H 0.3054 1.2998 0.7250
H20 H 0.2862 1.2431 0.8327
C19 C 0.38486(17) 1.05677(17) 0.4785(3)
H21 H 0.3517 1.0686 0.3927
H22 H 0.4123 0.9930 0.4889
H23 H 0.4358 1.1035 0.5094
C20 C 0.14095(15) 0.87310(14) 0.35981(19)
C21 C 0.09768(15) 0.78450(15) 0.3622(2)
C22 C 0.01945(16) 0.75623(16) 0.2653(2)
H24 H -0.0084 0.6962 0.2684
C23 C -0.01908(16) 0.81268(17) 0.1646(2)
C24 C 0.02202(16) 0.90124(16) 0.1642(2)
H25 H -0.0044 0.9420 0.0971
C25 C 0.10027(15) 0.93172(15) 0.25858(19)
C26 C 0.13222(18) 0.71849(18) 0.4691(3)
H26 H 0.1024 0.7358 0.5293
H27 H 0.2015 0.7236 0.5049
H28 H 0.1151 0.6532 0.4425
C27 C -0.09910(19) 0.7776(2) 0.0571(3)
H29 H -0.0730 0.7535 -0.0038
H30 H -0.1431 0.8298 0.0229
H31 H -0.1332 0.7267 0.0822
C28 C 0.14390(18) 1.02655(15) 0.2475(2)
H32 H 0.1043 1.0586 0.1741
H33 H 0.2080 1.0169 0.2432
H34 H 0.1477 1.0656 0.3179
loop_
_geom_bond_atom_site_label_1
_geom_bond_atom_site_label_2
_geom_bond_site_symmetry_1
_geom_bond_site_symmetry_2
N1 C4 1_555 1_555
B1 C8 1_555 1_555
C1 C2 1_555 1_555
C2 H1 1_555 1_555
C3 C2 1_555 1_555
H2 C3 1_555 1_555
C4 C3 1_555 1_555
C5 C4 1_555 1_555
H3 C5 1_555 1_555
C6 C1 1_555 1_555
H4 C6 1_555 1_555
C7 C1 1_555 1_555
H5 C7 1_555 1_555
C8 C7 1_555 1_555
H6 C8 1_555 1_555
C9 N1 1_555 1_555
H7 C9 1_555 1_555
H8 C9 1_555 1_555
H9 C9 1_555 1_555
C10 N1 1_555 1_555
H10 C10 1_555 1_555
H11 C10 1_555 1_555
H12 C10 1_555 1_555
C11 B1 1_555 1_555
C12 C11 1_555 1_555
C13 C12 1_555 1_555
H13 C13 1_555 1_555
C14 C13 1_555 1_555
C15 C14 1_555 1_555
H14 C15 1_555 1_555
C16 C11 1_555 1_555
C17 C12 1_555 1_555
H15 C17 1_555 1_555
H16 C17 1_555 1_555
H17 C17 1_555 1_555
C18 C14 1_555 1_555
H18 C18 1_555 1_555
H19 C18 1_555 1_555
H20 C18 1_555 1_555
C19 C16 1_555 1_555
H21 C19 1_555 1_555
H22 C19 1_555 1_555
H23 C19 1_555 1_555
C20 B1 1_555 1_555
C21 C20 1_555 1_555
C22 C21 1_555 1_555
H24 C22 1_555 1_555
C23 C22 1_555 1_555
C24 C23 1_555 1_555
H25 C24 1_555 1_555
C25 C20 1_555 1_555
C26 C21 1_555 1_555
H26 C26 1_555 1_555
H27 C26 1_555 1_555
H28 C26 1_555 1_555
C27 C23 1_555 1_555
H29 C27 1_555 1_555
H30 C27 1_555 1_555
H31 C27 1_555 1_555
C28 C25 1_555 1_555
H32 C28 1_555 1_555
H33 C28 1_555 1_555
H34 C28 1_555 1_555
C5 C6 1_555 1_555
C15 C16 1_555 1_555
C24 C25 1_555 1_555

#END
