
#######################################################################
#
#                 Cambridge Crystallographic Data Centre
#                                CCDC 
#
#######################################################################
#
# If this CIF has been generated from an entry in the Cambridge 
# Structural Database, then it will include bibliographic, chemical, 
# crystal, experimental, refinement or atomic coordinate data resulting 
# from the CCDC's data processing and validation procedures.
#
#######################################################################

data_JEXNUV
_chemical_formula_moiety         'C10 H14 Br2 N2 O3'
_chemical_name_systematic        
(1S,4S)-5,5-Dibromo-1,3,3-trimethyl-N-nitro-2-oxabicyclo(2.2.2)octan-6(E)-imine
_symmetry_cell_setting           orthorhombic
_symmetry_space_group_name_H-M   'P 21 21 21'
_symmetry_Int_Tables_number      19
_space_group_name_Hall           'P 2ac 2ab'
loop_
_symmetry_equiv_pos_site_id
_symmetry_equiv_pos_as_xyz
1 x,y,z
2 1/2+x,1/2-y,-z
3 -x,1/2+y,1/2-z
4 1/2-x,-y,1/2+z
_cell_length_a                   7.732(4)
_cell_length_b                   11.657(4)
_cell_length_c                   29.427(8)
_cell_angle_alpha                90
_cell_angle_beta                 90
_cell_angle_gamma                90
_cell_volume                     2652.31
_exptl_crystal_colour            colorless
_chemical_melting_point          89-90deg.C
_cell_formula_units_Z            8
loop_
_atom_site_label
_atom_site_type_symbol
_atom_site_fract_x
_atom_site_fract_y
_atom_site_fract_z
C1 C 0.2058(9) 0.5092(7) 0.4742(2)
C2 C 0.1602(10) 0.3490(5) 0.4204(2)
C3 C 0.0418(10) 0.4459(7) 0.4026(3)
C4 C -0.0874(11) 0.4838(7) 0.4391(3)
C5 C 0.0143(11) 0.5037(7) 0.4828(3)
C6 C 0.2400(11) 0.5902(8) 0.4339(3)
C7 C 0.1529(12) 0.5498(8) 0.3902(3)
C8 C 0.0768(10) 0.2402(5) 0.4361(2)
C9 C 0.2984(10) 0.3180(5) 0.3860(2)
C10 C 0.3232(9) 0.5348(7) 0.5140(2)
Br1 Br -0.2813(2) 0.3805(1) 0.4468
Br2 Br -0.2007(2) 0.6313(1) 0.4245
N1 N -0.0783(10) 0.5120(8) 0.5185(3)
N2 N 0.0094(12) 0.5384(12) 0.5610(3)
O1 O 0.2500(8) 0.3934(5) 0.4607(2)
O2 O 0.0351(12) 0.4557(10) 0.5848(3)
O3 O 0.0266(10) 0.6397(9) 0.5696(3)
H1 H -0.019 0.420 0.377
H2 H 0.361 0.597 0.429
H3 H 0.201 0.665 0.441
H4 H 0.239 0.528 0.369
H5 H 0.081 0.609 0.379
H6 H 0.163 0.184 0.441
H7 H -0.001 0.213 0.413
H8 H 0.015 0.254 0.463
H9 H 0.247 0.308 0.357
H10 H 0.353 0.249 0.395
H11 H 0.382 0.378 0.385
H12 H 0.299 0.609 0.525
H13 H 0.440 0.531 0.504
H14 H 0.304 0.480 0.537
C11 C 0.7930(9) 0.4941(5) 0.7103(3)
C12 C 0.5548(7) 0.5632(6) 0.6628(2)
C13 C 0.5802(10) 0.6592(6) 0.6983(3)
C14 C 0.5623(9) 0.6156(6) 0.7465(2)
C15 C 0.7004(9) 0.5211(6) 0.7547(2)
C16 C 0.8893(1) 0.6035(7) 0.6979(3)
C17 C 0.7628(11) 0.7052(7) 0.6940(3)
C18 C 0.3728(7) 0.5185(6) 0.6556(2)
C19 C 0.6200(7) 0.5996(6) 0.6156(2)
C20 C 0.9109(9) 0.3903(5) 0.7096
Br3 Br 0.3365(1) 0.5526(1) 0.7652
Br4 Br 0.5985(2) 0.7390(1) 0.7906
N3 N 0.7141(8) 0.4869(6) 0.7951(2)
N4 N 0.8497(10) 0.4071(7) 0.8055(2)
O4 O 0.6576(7) 0.4675(4) 0.6783(2)
O5 O 0.8085(8) 0.3079(6) 0.8091(2)
O6 O 0.9881(8) 0.4487(6) 0.8139(2)
H15 H 0.499 0.719 0.693
H16 H 0.973 0.620 0.721
H17 H 0.947 0.593 0.670
H18 H 0.785 0.758 0.708
H19 H 0.777 0.741 0.665
H20 H 0.366 0.480 0.627
H21 H 0.294 0.581 0.656
H22 H 0.344 0.467 0.679
H23 H 0.576 0.673 0.608
H24 H 0.582 0.546 0.594
H25 H 0.743 0.602 0.616
H26 H 1.008 0.404 0.728
H27 H 0.948 0.377 0.679
H28 H 0.850 0.325 0.720
loop_
_geom_bond_atom_site_label_1
_geom_bond_atom_site_label_2
_geom_bond_site_symmetry_1
_geom_bond_site_symmetry_2
C1 C5 1_555 1_555
C2 C3 1_555 1_555
C3 C4 1_555 1_555
C4 C5 1_555 1_555
C5 N1 1_555 1_555
C6 C1 1_555 1_555
C7 C3 1_555 1_555
C8 C2 1_555 1_555
C9 C2 1_555 1_555
C10 C1 1_555 1_555
Br1 C4 1_555 1_555
Br2 C4 1_555 1_555
N1 N2 1_555 1_555
N2 O2 1_555 1_555
O1 C1 1_555 1_555
O3 N2 1_555 1_555
C11 C15 1_555 1_555
C12 C13 1_555 1_555
C13 C14 1_555 1_555
C14 C15 1_555 1_555
C15 N3 1_555 1_555
C16 C11 1_555 1_555
C17 C13 1_555 1_555
C18 C12 1_555 1_555
C19 C12 1_555 1_555
C20 C11 1_555 1_555
Br3 C14 1_555 1_555
Br4 C14 1_555 1_555
N3 N4 1_555 1_555
N4 O5 1_555 1_555
O4 C11 1_555 1_555
O6 N4 1_555 1_555
H1 C3 1_555 1_555
H2 C6 1_555 1_555
H3 C6 1_555 1_555
H4 C7 1_555 1_555
H5 C7 1_555 1_555
H6 C8 1_555 1_555
H7 C8 1_555 1_555
H8 C8 1_555 1_555
H9 C9 1_555 1_555
H10 C9 1_555 1_555
H11 C9 1_555 1_555
H12 C10 1_555 1_555
H13 C10 1_555 1_555
H14 C10 1_555 1_555
H15 C13 1_555 1_555
H16 C16 1_555 1_555
H17 C16 1_555 1_555
H18 C17 1_555 1_555
H19 C17 1_555 1_555
H20 C18 1_555 1_555
H21 C18 1_555 1_555
H22 C18 1_555 1_555
H23 C19 1_555 1_555
H24 C19 1_555 1_555
H25 C19 1_555 1_555
H26 C20 1_555 1_555
H27 C20 1_555 1_555
H28 C20 1_555 1_555
C2 O1 1_555 1_555
C6 C7 1_555 1_555
C12 O4 1_555 1_555
C16 C17 1_555 1_555

#END
