
#######################################################################
#
#                 Cambridge Crystallographic Data Centre
#                                CCDC 
#
#######################################################################
#
# If this CIF has been generated from an entry in the Cambridge 
# Structural Database, then it will include bibliographic, chemical, 
# crystal, experimental, refinement or atomic coordinate data resulting 
# from the CCDC's data processing and validation procedures.
#
#######################################################################

data_JEXPAD
_chemical_formula_moiety         'C10 H14 Br2 N2 O3'
_chemical_name_systematic        
(1S,4S)-5,5-Dibromo-1,3,3-trimethyl-N-nitro-2-oxabicyclo(2.2.2)octan-6(Z)-imine
_symmetry_cell_setting           orthorhombic
_symmetry_space_group_name_H-M   'P 21 21 21'
_symmetry_Int_Tables_number      19
_space_group_name_Hall           'P 2ac 2ab'
loop_
_symmetry_equiv_pos_site_id
_symmetry_equiv_pos_as_xyz
1 x,y,z
2 1/2+x,1/2-y,-z
3 -x,1/2+y,1/2-z
4 1/2-x,-y,1/2+z
_cell_length_a                   6.685(3)
_cell_length_b                   13.584(3)
_cell_length_c                   14.465(4)
_cell_angle_alpha                90
_cell_angle_beta                 90
_cell_angle_gamma                90
_cell_volume                     1313.55
_exptl_crystal_colour            colorless
_chemical_melting_point          118-120deg.C(dec.)
_cell_formula_units_Z            4
loop_
_atom_site_label
_atom_site_type_symbol
_atom_site_fract_x
_atom_site_fract_y
_atom_site_fract_z
C1 C 0.8312(9) 0.2552(3) 0.8407(3)
C2 C 0.8764(8) 0.1926(4) 0.6829(3)
C3 C 0.6781(8) 0.1448(3) 0.7167(3)
C4 C 0.7129(8) 0.0831(3) 0.8045(3)
C5 C 0.8276(7) 0.1476(3) 0.8722(3)
C6 C 0.6227(11) 0.2905(4) 0.8184(4)
C7 C 0.5309(10) 0.2283(4) 0.7404(4)
C8 C 1.0453(10) 0.1238(4) 0.6577(4)
C9 C 0.8386(11) 0.2589(5) 0.5984(4)
C10 C 0.9329(11) 0.3212(4) 0.9088(3)
Br1 Br 0.8370(1) -0.0446 0.7812
Br2 Br 0.4536(1) 0.0480(1) 0.8635
N1 N 0.9184(7) 0.1286(3) 0.9475(3)
N2 N 0.9292(8) 0.0284(3) 0.9812(3)
O1 O 0.9523(7) 0.2542(3) 0.7581(2)
O2 O 1.0909(7) -0.0087(3) 0.9797(3)
O3 O 0.7808(7) -0.0037(3) 1.0176(3)
H1 H 0.624 0.105 0.669
H2 H 0.627 0.358 0.800
H3 H 0.541 0.286 0.872
H4 H 0.408 0.201 0.761
H5 H 0.511 0.268 0.687
H6 H 0.997 0.074 0.618
H7 H 1.098 0.094 0.712
H8 H 1.148 0.159 0.627
H9 H 0.758 0.225 0.555
H10 H 0.963 0.276 0.570
H11 H 0.772 0.317 0.617
H12 H 0.865 0.318 0.967
H13 H 0.930 0.387 0.887
H14 H 1.068 0.301 0.917
loop_
_geom_bond_atom_site_label_1
_geom_bond_atom_site_label_2
_geom_bond_site_symmetry_1
_geom_bond_site_symmetry_2
C1 C5 1_555 1_555
C2 C3 1_555 1_555
C3 C4 1_555 1_555
C4 C5 1_555 1_555
C5 N1 1_555 1_555
C6 C1 1_555 1_555
C7 C3 1_555 1_555
C8 C2 1_555 1_555
C9 C2 1_555 1_555
C10 C1 1_555 1_555
Br1 C4 1_555 1_555
Br2 C4 1_555 1_555
N1 N2 1_555 1_555
N2 O2 1_555 1_555
O1 C1 1_555 1_555
O3 N2 1_555 1_555
H1 C3 1_555 1_555
H2 C6 1_555 1_555
H3 C6 1_555 1_555
H4 C7 1_555 1_555
H5 C7 1_555 1_555
H6 C8 1_555 1_555
H7 C8 1_555 1_555
H8 C8 1_555 1_555
H9 C9 1_555 1_555
H10 C9 1_555 1_555
H11 C9 1_555 1_555
H12 C10 1_555 1_555
H13 C10 1_555 1_555
H14 C10 1_555 1_555
C2 O1 1_555 1_555
C6 C7 1_555 1_555

#END
