
#######################################################################
#
#                 Cambridge Crystallographic Data Centre
#                                CCDC 
#
#######################################################################
#
# If this CIF has been generated from an entry in the Cambridge 
# Structural Database, then it will include bibliographic, chemical, 
# crystal, experimental, refinement or atomic coordinate data resulting 
# from the CCDC's data processing and validation procedures.
#
#######################################################################

data_JEXROW
_chemical_formula_moiety         'C8 H7 N4 1+,N1 O3 1-'
_chemical_name_systematic        
"3,5-dihydrobenzo[1,2-d:4,5-d']diimidazol-1-ium nitrate"
_symmetry_cell_setting           monoclinic
_symmetry_space_group_name_H-M   'P 21/c'
_symmetry_Int_Tables_number      14
_space_group_name_Hall           '-P 2ybc'
loop_
_symmetry_equiv_pos_site_id
_symmetry_equiv_pos_as_xyz
1 x,y,z
2 -x,1/2+y,1/2-z
3 -x,-y,-z
4 x,1/2-y,1/2+z
_cell_length_a                   3.6220(17)
_cell_length_b                   19.775(9)
_cell_length_c                   12.743(6)
_cell_angle_alpha                90
_cell_angle_beta                 94.456(10)
_cell_angle_gamma                90
_cell_volume                     909.959
_exptl_crystal_colour            colorless
_exptl_crystal_description       block
_cell_formula_units_Z            4
_exptl_crystal_recrystallization_method 'Re-crystallisation from solvent: water'
loop_
_atom_site_label
_atom_site_type_symbol
_atom_site_fract_x
_atom_site_fract_y
_atom_site_fract_z
N1 N 0.4775(10) 0.35112(17) 0.1795(3)
H1 H 0.4320 0.3539 0.2462
N2 N 0.6424(9) 0.37972(16) 0.0245(3)
H2 H 0.7228 0.4044 -0.0265
N3 N 0.3551(10) 0.14707(17) -0.1117(3)
N4 N 0.1930(10) 0.11799(17) 0.0482(3)
H3 H 0.1172 0.0926 0.0990
C1 C 0.4024(12) 0.2027(2) -0.0459(3)
C2 C 0.4252(11) 0.2937(2) 0.1158(3)
C3 C 0.5307(11) 0.31222(19) 0.0157(3)
C4 C 0.3011(11) 0.2300(2) 0.1397(3)
H4 H 0.2281 0.2177 0.2071
C5 C 0.2935(11) 0.1854(2) 0.0551(3)
C6 C 0.5220(11) 0.2678(2) -0.0678(3)
H5 H 0.5922 0.2806 -0.1353
C7 C 0.2344(12) 0.0987(2) -0.0526(3)
H6 H 0.1809 0.0543 -0.0780
C8 C 0.6078(13) 0.4007(2) 0.1223(3)
H7 H 0.6675 0.4449 0.1477
O1 O 0.9079(9) 0.03323(15) 0.3758(2)
O2 O 1.0461(9) 0.02395(15) 0.2139(2)
O3 O 0.8245(10) 0.11792(15) 0.2695(3)
N5 N 0.9258(10) 0.05914(17) 0.2864(3)
loop_
_geom_bond_atom_site_label_1
_geom_bond_atom_site_label_2
_geom_bond_site_symmetry_1
_geom_bond_site_symmetry_2
N1 H1 1_555 1_555
N2 H2 1_555 1_555
N3 C1 1_555 1_555
N4 H3 1_555 1_555
C1 C5 1_555 1_555
C2 N1 1_555 1_555
C3 N2 1_555 1_555
C4 C2 1_555 1_555
H4 C4 1_555 1_555
C5 N4 1_555 1_555
C6 C1 1_555 1_555
H5 C6 1_555 1_555
C7 N3 1_555 1_555
H6 C7 1_555 1_555
C8 N1 1_555 1_555
H7 C8 1_555 1_555
O1 N5 1_555 1_555
O2 N5 1_555 1_555
O3 N5 1_555 1_555
N2 C8 1_555 1_555
N4 C7 1_555 1_555
C2 C3 1_555 1_555
C3 C6 1_555 1_555
C4 C5 1_555 1_555

#END
