
#######################################################################
#
#                 Cambridge Crystallographic Data Centre
#                                CCDC 
#
#######################################################################
#
# If this CIF has been generated from an entry in the Cambridge 
# Structural Database, then it will include bibliographic, chemical, 
# crystal, experimental, refinement or atomic coordinate data resulting 
# from the CCDC's data processing and validation procedures.
#
#######################################################################

data_JEXRAI
_chemical_formula_moiety         'C33 H35 Br1 N2 O10 S1'
_chemical_name_systematic        
'dimethyl 1-(4-bromophenyl)-4-(1,3-dimethoxy-1,3-dioxopropan-2-yl)-6-(dimethylamino)-2-[(4-methylphenyl)sulfonyl]-1,4-dihydroisoquinoline-3,3(2H)-dicarboxylate'
_symmetry_cell_setting           monoclinic
_symmetry_space_group_name_H-M   'P 21/n'
_symmetry_Int_Tables_number      14
_space_group_name_Hall           '-P 2yn'
loop_
_symmetry_equiv_pos_site_id
_symmetry_equiv_pos_as_xyz
1 x,y,z
2 1/2-x,1/2+y,1/2-z
3 -x,-y,-z
4 1/2+x,1/2-y,1/2+z
_cell_length_a                   9.8702(5)
_cell_length_b                   19.6205(10)
_cell_length_c                   17.0635(8)
_cell_angle_alpha                90
_cell_angle_beta                 91.8073(17)
_cell_angle_gamma                90
_cell_volume                     3302.84
_exptl_crystal_colour            yellow
_exptl_crystal_description       Block
_cell_formula_units_Z            4
loop_
_atom_site_label
_atom_site_type_symbol
_atom_site_fract_x
_atom_site_fract_y
_atom_site_fract_z
C1 C 0.3020(2) 0.94622(10) 0.28317(12)
C2 C 0.4301(2) 0.91143(10) 0.25069(11)
H1 H 0.4336 0.8639 0.2703
C3 C 0.4077(2) 0.90942(10) 0.16232(12)
C4 C 0.4347(2) 0.85111(11) 0.11967(12)
H2 H 0.4670 0.8120 0.1459
C5 C 0.4145(2) 0.84952(12) 0.03765(13)
C6 C 0.3658(3) 0.90895(12) 0.00161(13)
H3 H 0.3528 0.9100 -0.0532
C7 C 0.3366(3) 0.96575(13) 0.04477(13)
H4 H 0.3029 1.0047 0.0187
C8 C 0.3554(2) 0.96746(11) 0.12586(12)
C9 C 0.3339(2) 1.03256(11) 0.17193(12)
H5 H 0.4224 1.0563 0.1747
N1 N 0.29729(18) 1.01766(9) 0.25566(10)
C10 C 0.2894(2) 0.93749(11) 0.37347(13)
O1 O 0.18197(18) 0.93148(9) 0.40334(9)
O2 O 0.40875(16) 0.93019(8) 0.40985(8)
C11 C 0.4047(3) 0.91856(15) 0.49364(14)
H6 H 0.3655 0.9580 0.5187
H7 H 0.4960 0.9113 0.5147
H8 H 0.3498 0.8787 0.5036
C12 C 0.1739(2) 0.90807(11) 0.25216(12)
O3 O 0.07488(17) 0.93471(8) 0.22482(11)
O4 O 0.18890(16) 0.84148(8) 0.26355(9)
C13 C 0.0715(3) 0.80070(13) 0.24217(17)
H9 H -0.0074 0.8188 0.2676
H10 H 0.0868 0.7540 0.2589
H11 H 0.0564 0.8020 0.1857
C14 C 0.5647(2) 0.94812(10) 0.27737(12)
H12 H 0.5412 0.9926 0.3008
C15 C 0.6559(2) 0.96103(13) 0.20878(13)
O5 O 0.66607(19) 1.01476(10) 0.17602(11)
O6 O 0.72141(17) 0.90438(10) 0.18979(9)
C16 C 0.7977(3) 0.9069(2) 0.11917(16)
H13 H 0.7357 0.9088 0.0740
H14 H 0.8538 0.8665 0.1160
H15 H 0.8548 0.9471 0.1201
C17 C 0.6463(2) 0.90718(11) 0.33820(12)
O7 O 0.64325(18) 0.84705(8) 0.34750(10)
O8 O 0.72880(16) 0.94990(8) 0.37822(9)
C18 C 0.8259(3) 0.91862(15) 0.43216(16)
H16 H 0.7799 0.8862 0.4650
H17 H 0.8686 0.9535 0.4648
H18 H 0.8945 0.8952 0.4029
N2 N 0.4449(2) 0.79211(11) -0.00611(11)
C19 C 0.3803(3) 0.78301(16) -0.08319(16)
H19 H 0.2844 0.7743 -0.0775
H20 H 0.4215 0.7447 -0.1094
H21 H 0.3919 0.8240 -0.1141
C20 C 0.4929(4) 0.73133(14) 0.03263(16)
H22 H 0.5653 0.7429 0.0700
H23 H 0.5268 0.6998 -0.0059
H24 H 0.4191 0.7102 0.0599
C21 C 0.2348(2) 1.08083(11) 0.12984(13)
C22 C 0.2826(3) 1.14256(12) 0.10354(14)
H25 H 0.3736 1.1544 0.1141
C23 C 0.1992(3) 1.18759(13) 0.06179(15)
H26 H 0.2327 1.2297 0.0446
C24 C 0.0673(3) 1.16947(13) 0.04613(13)
C25 C 0.0164(3) 1.10844(13) 0.07146(15)
H27 H -0.0746 1.0968 0.0603
C26 C 0.1004(2) 1.06435(12) 0.11352(15)
H28 H 0.0658 1.0227 0.1312
Br1 Br -0.04487(3) 1.22986(2) -0.01412(2)
S1 S 0.28382(6) 1.08479(3) 0.31227(3)
O9 O 0.37035(17) 1.13629(8) 0.28183(10)
O10 O 0.30613(18) 1.06260(8) 0.39147(9)
C27 C 0.1152(2) 1.11416(11) 0.30271(13)
C28 C 0.0867(2) 1.17477(12) 0.26417(14)
H29 H 0.1566 1.2002 0.2421
C29 C -0.0464(3) 1.19758(13) 0.25853(14)
H30 H -0.0666 1.2383 0.2317
C30 C -0.1499(3) 1.16116(13) 0.29191(15)
C31 C -0.1184(3) 1.10001(14) 0.32951(17)
H31 H -0.1881 1.0744 0.3515
C32 C 0.0131(3) 1.07617(12) 0.33512(15)
H32 H 0.0330 1.0347 0.3606
C33 C -0.2934(3) 1.18734(18) 0.2889(2)
H33 H -0.2970 1.2303 0.2608
H34 H -0.3239 1.1941 0.3418
H35 H -0.3518 1.1545 0.2620
loop_
_geom_bond_atom_site_label_1
_geom_bond_atom_site_label_2
_geom_bond_site_symmetry_1
_geom_bond_site_symmetry_2
C1 C2 1_555 1_555
C2 H1 1_555 1_555
C3 C2 1_555 1_555
C4 C3 1_555 1_555
H2 C4 1_555 1_555
C5 C4 1_555 1_555
C6 C5 1_555 1_555
H3 C6 1_555 1_555
C7 C6 1_555 1_555
H4 C7 1_555 1_555
C8 C3 1_555 1_555
C9 C8 1_555 1_555
H5 C9 1_555 1_555
N1 C1 1_555 1_555
C10 C1 1_555 1_555
O1 C10 1_555 1_555
O2 C10 1_555 1_555
C11 O2 1_555 1_555
H6 C11 1_555 1_555
H7 C11 1_555 1_555
H8 C11 1_555 1_555
C12 C1 1_555 1_555
O3 C12 1_555 1_555
O4 C12 1_555 1_555
C13 O4 1_555 1_555
H9 C13 1_555 1_555
H10 C13 1_555 1_555
H11 C13 1_555 1_555
C14 C2 1_555 1_555
H12 C14 1_555 1_555
C15 C14 1_555 1_555
O5 C15 1_555 1_555
O6 C15 1_555 1_555
C16 O6 1_555 1_555
H13 C16 1_555 1_555
H14 C16 1_555 1_555
H15 C16 1_555 1_555
C17 C14 1_555 1_555
O7 C17 1_555 1_555
O8 C17 1_555 1_555
C18 O8 1_555 1_555
H16 C18 1_555 1_555
H17 C18 1_555 1_555
H18 C18 1_555 1_555
N2 C5 1_555 1_555
C19 N2 1_555 1_555
H19 C19 1_555 1_555
H20 C19 1_555 1_555
H21 C19 1_555 1_555
C20 N2 1_555 1_555
H22 C20 1_555 1_555
H23 C20 1_555 1_555
H24 C20 1_555 1_555
C21 C9 1_555 1_555
C22 C21 1_555 1_555
H25 C22 1_555 1_555
C23 C22 1_555 1_555
H26 C23 1_555 1_555
C24 C23 1_555 1_555
C25 C24 1_555 1_555
H27 C25 1_555 1_555
C26 C21 1_555 1_555
H28 C26 1_555 1_555
Br1 C24 1_555 1_555
S1 N1 1_555 1_555
O9 S1 1_555 1_555
O10 S1 1_555 1_555
C27 S1 1_555 1_555
C28 C27 1_555 1_555
H29 C28 1_555 1_555
C29 C28 1_555 1_555
H30 C29 1_555 1_555
C30 C29 1_555 1_555
C31 C30 1_555 1_555
H31 C31 1_555 1_555
C32 C27 1_555 1_555
H32 C32 1_555 1_555
C33 C30 1_555 1_555
H33 C33 1_555 1_555
H34 C33 1_555 1_555
H35 C33 1_555 1_555
C7 C8 1_555 1_555
C9 N1 1_555 1_555
C25 C26 1_555 1_555
C31 C32 1_555 1_555

#END
