
#######################################################################
#
#                 Cambridge Crystallographic Data Centre
#                                CCDC 
#
#######################################################################
#
# If this CIF has been generated from an entry in the Cambridge 
# Structural Database, then it will include bibliographic, chemical, 
# crystal, experimental, refinement or atomic coordinate data resulting 
# from the CCDC's data processing and validation procedures.
#
#######################################################################

data_JEYDEW02
_chemical_name_common            'Cholic acid'
_chemical_formula_moiety         'C24 H40 O5'
_chemical_name_systematic        '3,7,12-trihydroxycholan-24-oic acid'
_symmetry_cell_setting           monoclinic
_symmetry_space_group_name_H-M   'C 2'
_symmetry_Int_Tables_number      5
_space_group_name_Hall           'C 2y'
loop_
_symmetry_equiv_pos_site_id
_symmetry_equiv_pos_as_xyz
1 x,y,z
2 -x,y,-z
3 1/2+x,1/2+y,z
4 1/2-x,1/2+y,-z
_cell_length_a                   40.334(5)
_cell_length_b                   7.7289(9)
_cell_length_c                   15.6202(18)
_cell_angle_alpha                90
_cell_angle_beta                 90.602(3)
_cell_angle_gamma                90
_cell_volume                     4869.13
_cell_formula_units_Z            8
loop_
_atom_site_label
_atom_site_type_symbol
_atom_site_fract_x
_atom_site_fract_y
_atom_site_fract_z
O1 O 0.6298(3) 0.394(2) 0.5489(8)
O2 O 0.5835(4) -0.125(2) 0.6103(10)
O3 O 0.4803(7) 0.159(3) 0.5617(15)
O4 O 0.8105(6) 0.302(4) 0.7443(15)
O5 O 0.7772(4) 0.082(2) 0.7188(10)
C1 C 0.5311(5) 0.3542(18) 0.7430(13)
C2 C 0.5157(5) 0.3433(18) 0.6527(11)
C3 C 0.5226(4) 0.0219(18) 0.6548(10)
C4 C 0.5390(3) 0.0334(15) 0.7432(8)
C5 C 0.5626(3) -0.1170(16) 0.7578(12)
C6 C 0.5926(4) -0.0997(15) 0.6986(13)
C7 C 0.6106(2) 0.0726(15) 0.7173(10)
C8 C 0.5861(3) 0.2220(14) 0.6951(11)
C9 C 0.5562(2) 0.2066(15) 0.7555(8)
C10 C 0.6054(4) 0.3928(16) 0.6951(13)
C11 C 0.6356(2) 0.3862(12) 0.6361(9)
C12 C 0.6592(2) 0.2527(12) 0.6697(6)
C13 C 0.6367(2) 0.0651(13) 0.6499(8)
C14 C 0.6643(3) -0.0654(12) 0.6672(11)
C15 C 0.6967(2) 0.0172(15) 0.6316(9)
C16 C 0.6887(2) 0.2122(12) 0.6112(7)
C17 C 0.7205(3) 0.3206(16) 0.6237(8)
C18 C 0.7137(5) 0.5110(19) 0.6004(11)
C19 C 0.7502(3) 0.256(2) 0.5719(8)
C20 C 0.7845(3) 0.300(2) 0.6122(9)
C21 C 0.7907(5) 0.215(3) 0.6927(12)
C22 C 0.5680(5) 0.220(3) 0.8501(9)
C23 C 0.6715(3) 0.2834(19) 0.7612(7)
C24 C 0.4976(4) 0.169(2) 0.6432(12)
O6 O 0.6200(4) 1.103(2) 0.1667(10)
O7 O 0.6792(3) 0.6060(16) 0.1143(7)
O8 O 0.8066(3) 0.7195(16) -0.3130(7)
O9 O 0.8176(2) 0.7664(15) -0.1738(6)
C25 C 0.5601(4) 0.5804(16) 0.1813(10)
C26 C 0.5708(7) 0.620(2) 0.2736(10)
C27 C 0.5546(8) 0.786(3) 0.3052(9)
C28 C 0.5654(7) 0.9370(19) 0.2469(9)
C29 C 0.5541(3) 0.8979(15) 0.1554(9)
C30 C 0.5620(3) 1.0501(16) 0.0970(10)
C31 C 0.6000(3) 1.0626(12) 0.0880(8)
C32 C 0.6123(2) 0.8935(12) 0.0444(7)
C33 C 0.6057(2) 0.7424(12) 0.1065(8)
C34 C 0.5685(2) 0.7308(13) 0.1226(7)
C35 C 0.6182(3) 0.5742(14) 0.0659(12)
C36 C 0.6553(3) 0.5885(11) 0.0446(8)
C37 C 0.6622(2) 0.7394(10) -0.0188(6)
C38 C 0.6494(2) 0.9080(10) 0.0290(6)
C39 C 0.6644(3) 1.0582(12) -0.0248(8)
C40 C 0.6965(2) 0.9847(11) -0.0669(7)
C41 C 0.6987(2) 0.7921(12) -0.0401(6)
C42 C 0.7140(2) 0.6832(12) -0.1084(6)
C43 C 0.7207(4) 0.4944(16) -0.0799(9)
C44 C 0.7489(3) 0.754(2) -0.1327(8)
C45 C 0.7626(3) 0.6949(18) -0.2203(7)
C46 C 0.7985(4) 0.736(2) -0.2331(10)
C47 C 0.5461(5) 0.696(3) 0.0437(11)
C48 C 0.6412(3) 0.703(2) -0.0997(8)
O10 O 0.5640(10) 0.823(4) 0.3936(10)
loop_
_geom_bond_atom_site_label_1
_geom_bond_atom_site_label_2
_geom_bond_site_symmetry_1
_geom_bond_site_symmetry_2
O1 C11 1_555 1_555
O2 C6 1_555 1_555
O3 C24 1_555 1_555
O4 C21 1_555 1_555
O5 C21 1_555 1_555
C1 C2 1_555 1_555
C2 C24 1_555 1_555
C3 C4 1_555 1_555
C4 C5 1_555 1_555
C5 C6 1_555 1_555
C6 C7 1_555 1_555
C7 C8 1_555 1_555
C8 C9 1_555 1_555
C9 C1 1_555 1_555
C10 C8 1_555 1_555
C11 C10 1_555 1_555
C12 C11 1_555 1_555
C13 C7 1_555 1_555
C14 C13 1_555 1_555
C15 C14 1_555 1_555
C16 C12 1_555 1_555
C17 C16 1_555 1_555
C18 C17 1_555 1_555
C19 C17 1_555 1_555
C20 C19 1_555 1_555
C21 C20 1_555 1_555
C22 C9 1_555 1_555
C23 C12 1_555 1_555
C24 C3 1_555 1_555
O6 C31 1_555 1_555
O7 C36 1_555 1_555
O8 C46 1_555 1_555
O9 C46 1_555 1_555
C25 C26 1_555 1_555
C26 C27 1_555 1_555
C27 C28 1_555 1_555
C28 C29 1_555 1_555
C29 C30 1_555 1_555
C30 C31 1_555 1_555
C31 C32 1_555 1_555
C32 C33 1_555 1_555
C33 C34 1_555 1_555
C34 C25 1_555 1_555
C35 C33 1_555 1_555
C36 C35 1_555 1_555
C37 C36 1_555 1_555
C38 C32 1_555 1_555
C39 C38 1_555 1_555
C40 C39 1_555 1_555
C41 C37 1_555 1_555
C42 C41 1_555 1_555
C43 C42 1_555 1_555
C44 C42 1_555 1_555
C45 C44 1_555 1_555
C46 C45 1_555 1_555
C47 C34 1_555 1_555
C48 C37 1_555 1_555
O10 C27 1_555 1_555
C4 C9 1_555 1_555
C12 C13 1_555 1_555
C15 C16 1_555 1_555
C29 C34 1_555 1_555
C37 C38 1_555 1_555
C40 C41 1_555 1_555

#END
