
#######################################################################
#
#                 Cambridge Crystallographic Data Centre
#                                CCDC 
#
#######################################################################
#
# If this CIF has been generated from an entry in the Cambridge 
# Structural Database, then it will include bibliographic, chemical, 
# crystal, experimental, refinement or atomic coordinate data resulting 
# from the CCDC's data processing and validation procedures.
#
#######################################################################

data_JEYKAC
_chemical_formula_moiety         'C20 H20 N2 O5'
_chemical_name_systematic        
'methyl \b-ethenyl-\a-methyl-N-(4-nitrobenzene-1-carbonyl)phenylalaninate'
_symmetry_cell_setting           monoclinic
_symmetry_space_group_name_H-M   'P 21'
_symmetry_Int_Tables_number      4
_space_group_name_Hall           'P 2yb'
loop_
_symmetry_equiv_pos_site_id
_symmetry_equiv_pos_as_xyz
1 x,y,z
2 -x,1/2+y,-z
_cell_length_a                   7.2492(9)
_cell_length_b                   6.8094(6)
_cell_length_c                   18.254(2)
_cell_angle_alpha                90
_cell_angle_beta                 91.428(11)
_cell_angle_gamma                90
_cell_volume                     900.787
_exptl_crystal_colour            colorless
_exptl_crystal_description       block
_cell_formula_units_Z            2
loop_
_atom_site_label
_atom_site_type_symbol
_atom_site_fract_x
_atom_site_fract_y
_atom_site_fract_z
O1 O 0.54390(18) 0.16825(19) 0.78152(7)
H1 H 0.262(3) 0.540(4) 0.7039(12)
C1 C 0.5624(2) 0.6039(3) 0.89153(9)
N1 N 0.3600(2) 0.4740(2) 0.70221(8)
O2 O 0.79991(16) 0.34707(18) 0.76546(7)
C2 C 0.6259(3) 0.7939(3) 0.90561(10)
H2 H 0.5828 0.8997 0.8759
N2 N -0.1485(2) 0.3784(2) 0.40511(8)
O3 O 0.55048(18) 0.3245(2) 0.62393(7)
C3 C 0.7518(3) 0.8297(4) 0.96288(11)
H3 H 0.7936 0.9597 0.9722
O4 O -0.0920(2) 0.3617(3) 0.34274(7)
C4 C 0.8163(3) 0.6764(4) 1.00620(10)
H4 H 0.9032 0.7009 1.0450
C5 C 0.2757(3) 0.7184(3) 0.82319(9)
H5 H 0.3125 0.8445 0.8067
C6 C 0.4194(2) 0.5595(3) 0.83071(9)
H6 H 0.3535 0.4372 0.8455
C7 C 0.6284(3) 0.4511(3) 0.93602(10)
H7 H 0.5869 0.3207 0.9273
O5 O -0.31129(19) 0.3834(3) 0.41892(8)
C8 C 0.7541(3) 0.4881(4) 0.99288(11)
H8 H 0.7977 0.3830 1.0229
C9 C 0.1012(3) 0.6898(3) 0.83847(11)
H9 H 0.0615 0.5649 0.8550
H10 H 0.0150 0.7942 0.8330
C10 C 0.5106(2) 0.5147(2) 0.75556(9)
C11 C 0.6171(2) 0.3219(3) 0.76725(9)
C12 C 0.6298(2) 0.6828(3) 0.72801(9)
H11 H 0.6834 0.6456 0.6813
H12 H 0.7289 0.7102 0.7640
H13 H 0.5535 0.8004 0.7211
C13 C 0.9073(3) 0.1727(3) 0.78106(12)
H14 H 0.8761 0.0710 0.7448
H15 H 0.8798 0.1247 0.8302
H16 H 1.0390 0.2040 0.7787
C14 C 0.3983(2) 0.3932(3) 0.63666(9)
C15 C 0.2465(2) 0.3923(3) 0.57866(9)
C16 C 0.3028(3) 0.3966(3) 0.50610(10)
H17 H 0.4305 0.3999 0.4957
C17 C 0.1727(3) 0.3960(3) 0.44930(9)
H18 H 0.2097 0.4013 0.3998
C18 C -0.0111(2) 0.3876(3) 0.46593(9)
C19 C -0.0718(2) 0.3836(3) 0.53720(9)
H19 H -0.1998 0.3781 0.5471
C20 C 0.0597(2) 0.3880(3) 0.59384(9)
H20 H 0.0217 0.3881 0.6433
loop_
_geom_bond_atom_site_label_1
_geom_bond_atom_site_label_2
_geom_bond_site_symmetry_1
_geom_bond_site_symmetry_2
O1 C11 1_555 1_555
H1 N1 1_555 1_555
C1 C2 1_555 1_555
N1 C10 1_555 1_555
O2 C11 1_555 1_555
C2 H2 1_555 1_555
N2 O4 1_555 1_555
O3 C14 1_555 1_555
C3 C2 1_555 1_555
H3 C3 1_555 1_555
C4 C3 1_555 1_555
H4 C4 1_555 1_555
C5 H5 1_555 1_555
C6 C1 1_555 1_555
H6 C6 1_555 1_555
C7 C1 1_555 1_555
H7 C7 1_555 1_555
O5 N2 1_555 1_555
C8 C4 1_555 1_555
H8 C8 1_555 1_555
C9 C5 1_555 1_555
H9 C9 1_555 1_555
H10 C9 1_555 1_555
C10 C6 1_555 1_555
C11 C10 1_555 1_555
C12 C10 1_555 1_555
H11 C12 1_555 1_555
H12 C12 1_555 1_555
H13 C12 1_555 1_555
C13 O2 1_555 1_555
H14 C13 1_555 1_555
H15 C13 1_555 1_555
H16 C13 1_555 1_555
C14 N1 1_555 1_555
C15 C14 1_555 1_555
C16 C15 1_555 1_555
H17 C16 1_555 1_555
C17 C16 1_555 1_555
H18 C17 1_555 1_555
C18 N2 1_555 1_555
C19 C18 1_555 1_555
H19 C19 1_555 1_555
C20 C15 1_555 1_555
H20 C20 1_555 1_555
C5 C6 1_555 1_555
C7 C8 1_555 1_555
C17 C18 1_555 1_555
C19 C20 1_555 1_555

#END
