
#######################################################################
#
#                 Cambridge Crystallographic Data Centre
#                                CCDC 
#
#######################################################################
#
# If this CIF has been generated from an entry in the Cambridge 
# Structural Database, then it will include bibliographic, chemical, 
# crystal, experimental, refinement or atomic coordinate data resulting 
# from the CCDC's data processing and validation procedures.
#
#######################################################################

data_JEYLAD
_chemical_formula_moiety         'C21 H21 N1 O5'
_chemical_name_systematic        
'1-benzyl 7-ethyl 5-oxo-2,3,4,5-tetrahydro-1H-1-benzazepine-1,7-dicarboxylate'
_symmetry_cell_setting           triclinic
_symmetry_space_group_name_H-M   'P -1'
_symmetry_Int_Tables_number      2
_space_group_name_Hall           '-P 1'
loop_
_symmetry_equiv_pos_site_id
_symmetry_equiv_pos_as_xyz
1 x,y,z
2 -x,-y,-z
_cell_length_a                   6.4957(3)
_cell_length_b                   9.6763(5)
_cell_length_c                   14.8709(7)
_cell_angle_alpha                97.388(2)
_cell_angle_beta                 95.474(2)
_cell_angle_gamma                100.439(2)
_cell_volume                     904.822
_exptl_crystal_colour            colorless
_exptl_crystal_description       block
_cell_formula_units_Z            2
loop_
_atom_site_label
_atom_site_type_symbol
_atom_site_fract_x
_atom_site_fract_y
_atom_site_fract_z
O1 O -0.00424(14) 0.24087(11) 0.72705(7)
O2 O 0.5833(2) 0.74216(14) 0.99491(8)
O3 O 0.2486(2) 0.62387(12) 0.97124(8)
O4 O 0.71803(13) 0.51293(9) 0.56091(6)
O5 O 0.66754(13) 0.29052(8) 0.48275(5)
N1 N 0.57151(15) 0.31887(10) 0.62293(6)
C1 C 0.53674(18) 0.40100(12) 0.70440(7)
C2 C 0.70252(19) 0.50204(14) 0.75424(8)
H1 H 0.8374 0.5162 0.7333
C3 C 0.6712(2) 0.58155(15) 0.83391(9)
H2 H 0.7843 0.6513 0.8669
C4 C 0.4757(2) 0.56047(14) 0.86636(8)
C5 C 0.3125(2) 0.45728(13) 0.81840(8)
H3 H 0.1802 0.4407 0.8415
C6 C 0.33897(18) 0.37708(12) 0.73669(8)
C7 C 0.14572(18) 0.27677(12) 0.68641(9)
C8 C 0.13562(19) 0.23046(13) 0.58489(9)
H4 H 0.1811 0.3153 0.5555
H5 H -0.0128 0.1894 0.5599
C9 C 0.2722(2) 0.12106(13) 0.55929(9)
H6 H 0.2047 0.0274 0.5734
H7 H 0.2817 0.1114 0.4928
C10 C 0.4927(2) 0.16447(12) 0.61090(8)
H8 H 0.4915 0.1331 0.6717
H9 H 0.5900 0.1158 0.5772
C11 C 0.4457(3) 0.65272(16) 0.95096(9)
C12 C 0.1983(4) 0.7099(2) 1.05141(13)
H10 H 0.3217 0.7328 1.0990
H11 H 0.0793 0.6546 1.0766
C13 C 0.1409(3) 0.8433(2) 1.02812(13)
H12 H 0.0254 0.8209 0.9779
H13 H 0.2635 0.9027 1.0094
H14 H 0.0958 0.8944 1.0816
C14 C 0.65795(16) 0.38571(12) 0.55602(7)
C15 C 0.7505(2) 0.35417(12) 0.40668(8)
H15 H 0.8959 0.4087 0.4257
H16 H 0.6614 0.4197 0.3861
C16 C 0.74957(19) 0.23609(12) 0.33100(8)
C17 C 0.5646(2) 0.17228(16) 0.27614(10)
H17 H 0.4372 0.2033 0.2868
C18 C 0.5631(3) 0.06369(18) 0.20583(11)
H18 H 0.4351 0.0212 0.1681
C19 C 0.7461(3) 0.01685(16) 0.19014(10)
H19 H 0.7446 -0.0582 0.1420
C20 C 0.9310(3) 0.07933(16) 0.24453(11)
H20 H 1.0575 0.0469 0.2342
C21 C 0.9339(2) 0.18960(14) 0.31456(9)
H21 H 1.0626 0.2333 0.3513
loop_
_geom_bond_atom_site_label_1
_geom_bond_atom_site_label_2
_geom_bond_site_symmetry_1
_geom_bond_site_symmetry_2
O1 C7 1_555 1_555
O2 C11 1_555 1_555
O3 C11 1_555 1_555
O4 C14 1_555 1_555
O5 C14 1_555 1_555
N1 C1 1_555 1_555
C1 C2 1_555 1_555
C2 H1 1_555 1_555
C3 C2 1_555 1_555
H2 C3 1_555 1_555
C4 C3 1_555 1_555
C5 C4 1_555 1_555
H3 C5 1_555 1_555
C6 C1 1_555 1_555
C7 C6 1_555 1_555
C8 C7 1_555 1_555
H4 C8 1_555 1_555
H5 C8 1_555 1_555
C9 C8 1_555 1_555
H6 C9 1_555 1_555
H7 C9 1_555 1_555
C10 N1 1_555 1_555
H8 C10 1_555 1_555
H9 C10 1_555 1_555
C11 C4 1_555 1_555
C12 O3 1_555 1_555
H10 C12 1_555 1_555
H11 C12 1_555 1_555
C13 C12 1_555 1_555
H12 C13 1_555 1_555
H13 C13 1_555 1_555
H14 C13 1_555 1_555
C14 N1 1_555 1_555
C15 O5 1_555 1_555
H15 C15 1_555 1_555
H16 C15 1_555 1_555
C16 C15 1_555 1_555
C17 C16 1_555 1_555
H17 C17 1_555 1_555
C18 C17 1_555 1_555
H18 C18 1_555 1_555
C19 C18 1_555 1_555
H19 C19 1_555 1_555
C20 C19 1_555 1_555
H20 C20 1_555 1_555
C21 C16 1_555 1_555
H21 C21 1_555 1_555
C5 C6 1_555 1_555
C9 C10 1_555 1_555
C20 C21 1_555 1_555

#END
