
#######################################################################
#
#                 Cambridge Crystallographic Data Centre
#                                CCDC 
#
#######################################################################
#
# If this CIF has been generated from an entry in the Cambridge 
# Structural Database, then it will include bibliographic, chemical, 
# crystal, experimental, refinement or atomic coordinate data resulting 
# from the CCDC's data processing and validation procedures.
#
#######################################################################

data_JEYQAI
_chemical_formula_moiety         'C32 H26 Cl1 N1 O3 S1'
_chemical_name_systematic        
4-(2-chlorophenyl)-1-[(4-methylphenyl)sulfonyl]-3-(1-phenylethenyl)-1,2,3,4-tetrahydro[1]benzofuro[3,2-b]pyridine
_symmetry_cell_setting           monoclinic
_symmetry_space_group_name_H-M   'P 21/n'
_symmetry_Int_Tables_number      14
_space_group_name_Hall           '-P 2yn'
loop_
_symmetry_equiv_pos_site_id
_symmetry_equiv_pos_as_xyz
1 x,y,z
2 1/2-x,1/2+y,1/2-z
3 -x,-y,-z
4 1/2+x,1/2-y,1/2+z
_cell_length_a                   9.7614(9)
_cell_length_b                   16.2483(15)
_cell_length_c                   17.0956(17)
_cell_angle_alpha                90
_cell_angle_beta                 102.881(3)
_cell_angle_gamma                90
_cell_volume                     2643.23
_exptl_crystal_colour            'pale yellow'
_exptl_crystal_description       Block
_cell_formula_units_Z            4
loop_
_atom_site_label
_atom_site_type_symbol
_atom_site_fract_x
_atom_site_fract_y
_atom_site_fract_z
Cl1 Cl 0.24744(6) 0.55896(3) 0.48783(3)
S1 S 0.59009(5) 0.14929(3) 0.60039(3)
O1 O 0.58401(14) 0.43896(8) 0.67651(8)
O2 O 0.69128(16) 0.14370(8) 0.67455(9)
O3 O 0.60671(15) 0.10074(9) 0.53346(9)
N1 N 0.59160(17) 0.24697(10) 0.57181(10)
C1 C 0.7052(2) 0.40635(12) 0.72323(12)
C2 C 0.7865(2) 0.44555(13) 0.78912(13)
H1 H 0.7632 0.4986 0.8056
C3 C 0.9039(2) 0.40332(14) 0.82979(13)
H2 H 0.9627 0.4273 0.8759
C4 C 0.9372(2) 0.32543(14) 0.80383(13)
H3 H 1.0194 0.2982 0.8324
C5 C 0.8541(2) 0.28718(13) 0.73789(12)
H4 H 0.8784 0.2345 0.7210
C6 C 0.7332(2) 0.32774(12) 0.69653(12)
C7 C 0.6162(2) 0.31172(11) 0.62950(11)
C8 C 0.5325(2) 0.37930(11) 0.62054(11)
C9 C 0.4025(2) 0.39684(12) 0.55882(12)
H5 H 0.4247 0.4362 0.5184
C10 C 0.3563(2) 0.31331(11) 0.51754(11)
H6 H 0.3194 0.2785 0.5565
C11 C 0.4847(2) 0.26865(12) 0.49872(12)
H7 H 0.4526 0.2178 0.4683
H8 H 0.5285 0.3044 0.4642
C12 C 0.2421(2) 0.31949(12) 0.44146(12)
C13 C 0.1152(2) 0.26679(12) 0.43760(12)
C14 C 0.0703(2) 0.21281(14) 0.37400(13)
H9 H 0.1213 0.2089 0.3328
C15 C -0.0492(3) 0.16419(15) 0.37008(16)
H10 H -0.0780 0.1268 0.3268
C16 C -0.1256(3) 0.17035(15) 0.42880(16)
H11 H -0.2076 0.1379 0.4256
C17 C -0.0821(2) 0.22401(15) 0.49228(16)
H12 H -0.1346 0.2287 0.5326
C18 C 0.0384(2) 0.27112(14) 0.49719(14)
H13 H 0.0689 0.3067 0.5417
C19 C 0.2576(2) 0.36565(13) 0.37996(13)
H14 H 0.1869 0.3658 0.3317
H15 H 0.3394 0.3985 0.3842
C20 C 0.2882(2) 0.43338(12) 0.59598(12)
C21 C 0.2563(2) 0.39311(14) 0.66336(13)
H16 H 0.3084 0.3458 0.6850
C22 C 0.1505(2) 0.42168(14) 0.69781(13)
H17 H 0.1312 0.3945 0.7434
C23 C 0.0722(2) 0.48987(14) 0.66629(14)
H18 H -0.0022 0.5083 0.6895
C24 C 0.1017(2) 0.53134(14) 0.60118(14)
H19 H 0.0489 0.5785 0.5797
C25 C 0.2106(2) 0.50249(12) 0.56776(12)
C26 C 0.4235(2) 0.12790(12) 0.61852(13)
C27 C 0.3280(7) 0.0821(4) 0.5594(3)
H20 H 0.3536 0.0644 0.5116
C28 C 0.1962(4) 0.0639(2) 0.5734(3)
H21 H 0.1315 0.0330 0.5346
C29 C 0.1568(4) 0.0898(2) 0.6425(3)
C30 C 0.2499(5) 0.1365(3) 0.6977(3)
H22 H 0.2227 0.1561 0.7443
C31 C 0.3834(5) 0.1552(3) 0.6860(3)
H23 H 0.4466 0.1868 0.7248
C32 C 0.0142(4) 0.0689(2) 0.6581(3)
H24 H 0.0249 0.0516 0.7140
H25 H -0.0280 0.0240 0.6224
H26 H -0.0468 0.1174 0.6478
C33? C 0.3273(19) 0.0787(11) 0.5754(8)
H27? H 0.3425 0.0532 0.5281
C34? C 0.2020(12) 0.0649(7) 0.6016(7)
H28? H 0.1314 0.0302 0.5713
C35? C 0.1811(12) 0.1021(7) 0.6716(8)
C36? C 0.2854(12) 0.1504(7) 0.7166(7)
H29? H 0.2711 0.1739 0.7650
C37? C 0.4097(14) 0.1657(9) 0.6940(9)
H30? H 0.4819 0.1987 0.7253
C38? C 0.0442(11) 0.0817(6) 0.6958(8)
H31? H 0.0448 0.1064 0.7481
H32? H 0.0347 0.0218 0.6992
H33? H -0.0350 0.1037 0.6556
loop_
_geom_bond_atom_site_label_1
_geom_bond_atom_site_label_2
_geom_bond_site_symmetry_1
_geom_bond_site_symmetry_2
Cl1 C25 1_555 1_555
S1 O2 1_555 1_555
O1 C1 1_555 1_555
O3 S1 1_555 1_555
N1 S1 1_555 1_555
C1 C2 1_555 1_555
C2 H1 1_555 1_555
C3 C2 1_555 1_555
H2 C3 1_555 1_555
C4 C3 1_555 1_555
H3 C4 1_555 1_555
C5 C4 1_555 1_555
H4 C5 1_555 1_555
C6 C1 1_555 1_555
C7 N1 1_555 1_555
C8 O1 1_555 1_555
C9 C8 1_555 1_555
H5 C9 1_555 1_555
C10 C9 1_555 1_555
H6 C10 1_555 1_555
C11 N1 1_555 1_555
H7 C11 1_555 1_555
H8 C11 1_555 1_555
C12 C10 1_555 1_555
C13 C12 1_555 1_555
C14 C13 1_555 1_555
H9 C14 1_555 1_555
C15 C14 1_555 1_555
H10 C15 1_555 1_555
C16 C15 1_555 1_555
H11 C16 1_555 1_555
C17 C16 1_555 1_555
H12 C17 1_555 1_555
C18 C13 1_555 1_555
H13 C18 1_555 1_555
C19 C12 1_555 1_555
H14 C19 1_555 1_555
H15 C19 1_555 1_555
C20 C9 1_555 1_555
C21 C20 1_555 1_555
H16 C21 1_555 1_555
C22 C21 1_555 1_555
H17 C22 1_555 1_555
C23 C22 1_555 1_555
H18 C23 1_555 1_555
C24 C23 1_555 1_555
H19 C24 1_555 1_555
C25 C20 1_555 1_555
C26 S1 1_555 1_555
C27 C26 1_555 1_555
H20 C27 1_555 1_555
C28 C27 1_555 1_555
H21 C28 1_555 1_555
C29 C28 1_555 1_555
C30 C29 1_555 1_555
H22 C30 1_555 1_555
C31 C26 1_555 1_555
H23 C31 1_555 1_555
C32 C29 1_555 1_555
H24 C32 1_555 1_555
H25 C32 1_555 1_555
H26 C32 1_555 1_555
C5 C6 1_555 1_555
C6 C7 1_555 1_555
C7 C8 1_555 1_555
C10 C11 1_555 1_555
C17 C18 1_555 1_555
C24 C25 1_555 1_555
C30 C31 1_555 1_555

#END
