
#######################################################################
#
#                 Cambridge Crystallographic Data Centre
#                                CCDC 
#
#######################################################################
#
# If this CIF has been generated from an entry in the Cambridge 
# Structural Database, then it will include bibliographic, chemical, 
# crystal, experimental, refinement or atomic coordinate data resulting 
# from the CCDC's data processing and validation procedures.
#
#######################################################################

data_JEYQEM
_chemical_formula_moiety         'C32 H26 Cl1 N1 O3 S1'
_chemical_name_systematic        
4-(2-chlorophenyl)-1-[(4-methylphenyl)sulfonyl]-3-(1-phenylethenyl)-1,2,3,4-tetrahydro[1]benzofuro[3,2-b]pyridine
_symmetry_cell_setting           monoclinic
_symmetry_space_group_name_H-M   'P 21/n'
_symmetry_Int_Tables_number      14
_space_group_name_Hall           '-P 2yn'
loop_
_symmetry_equiv_pos_site_id
_symmetry_equiv_pos_as_xyz
1 x,y,z
2 1/2-x,1/2+y,1/2-z
3 -x,-y,-z
4 1/2+x,1/2-y,1/2+z
_cell_length_a                   8.6732(3)
_cell_length_b                   27.5205(9)
_cell_length_c                   11.3307(4)
_cell_angle_alpha                90
_cell_angle_beta                 104.7530(10)
_cell_angle_gamma                90
_cell_volume                     2615.37
_exptl_crystal_colour            colorless
_exptl_crystal_description       Needle
_cell_formula_units_Z            4
loop_
_atom_site_label
_atom_site_type_symbol
_atom_site_fract_x
_atom_site_fract_y
_atom_site_fract_z
Cl1 Cl 0.92902(7) 0.71331(2) 0.70472(5)
S1 S 0.38939(6) 0.51338(2) 0.69386(5)
O1 O 0.94826(18) 0.55008(6) 0.79501(14)
O2 O 0.4297(2) 0.46782(6) 0.75571(17)
O3 O 0.24809(19) 0.51724(6) 0.59620(15)
N1 N 0.5406(2) 0.52677(7) 0.63404(17)
C1 C 0.9418(3) 0.50101(8) 0.8201(2)
C2 C 1.0703(3) 0.47437(9) 0.8860(2)
H1 H 1.1721 0.4887 0.9179
C3 C 1.0422(3) 0.42561(10) 0.9030(2)
H2 H 1.1263 0.4057 0.9480
C4 C 0.8913(3) 0.40528(9) 0.8546(2)
H3 H 0.8757 0.3717 0.8671
C5 C 0.7644(3) 0.43254(8) 0.7893(2)
H4 H 0.6626 0.4182 0.7576
C6 C 0.7901(3) 0.48223(8) 0.7711(2)
C7 C 0.6981(3) 0.52336(8) 0.7118(2)
C8 C 0.7971(3) 0.56193(8) 0.7290(2)
C9 C 0.7691(3) 0.61220(8) 0.6801(2)
H5 H 0.7942 0.6352 0.7507
C10 C 0.5861(3) 0.61681(8) 0.6154(2)
H6 H 0.5301 0.6220 0.6814
C11 C 0.5204(3) 0.56930(8) 0.5504(2)
H7 H 0.4055 0.5736 0.5107
H8 H 0.5754 0.5626 0.4856
C12 C 0.8801(3) 0.62348(8) 0.59929(19)
C13 C 0.9113(3) 0.58873(8) 0.5182(2)
H9 H 0.8623 0.5577 0.5141
C14 C 1.0122(3) 0.59863(9) 0.4437(2)
H10 H 1.0285 0.5750 0.3870
C15 C 1.0891(3) 0.64322(9) 0.4525(2)
H11 H 1.1597 0.6499 0.4027
C16 C 1.0631(3) 0.67792(9) 0.5337(2)
H12 H 1.1170 0.7083 0.5409
C17 C 0.9579(3) 0.66802(8) 0.6041(2)
C18 C 0.5464(3) 0.66033(8) 0.5304(2)
C19 C 0.5679(3) 0.65841(9) 0.4178(2)
H13 H 0.5445 0.6860 0.3659
H14 H 0.6065 0.6295 0.3897
C20 C 0.4860(3) 0.70526(8) 0.5768(2)
C21 C 0.4049(3) 0.74083(9) 0.4966(2)
H15 H 0.3863 0.7359 0.4112
C22 C 0.3507(3) 0.78338(9) 0.5391(3)
H16 H 0.2968 0.8071 0.4827
C23 C 0.3747(3) 0.79125(9) 0.6625(3)
H17 H 0.3393 0.8205 0.6915
C24 C 0.4508(3) 0.75608(10) 0.7436(3)
H18 H 0.4651 0.7608 0.8288
C25 C 0.5070(3) 0.71377(9) 0.7012(2)
H19 H 0.5607 0.6902 0.7583
C26 C 0.3863(3) 0.55845(8) 0.8030(2)
C27 C 0.2793(3) 0.59675(9) 0.7719(2)
H20 H 0.2024 0.5972 0.6953
C28 C 0.2867(3) 0.63429(9) 0.8548(2)
H21 H 0.2139 0.6606 0.8344
C29 C 0.3984(3) 0.63423(9) 0.9671(2)
C30 C 0.5028(3) 0.59519(10) 0.9972(2)
H22 H 0.5781 0.5945 1.0745
C31 C 0.4983(3) 0.55704(9) 0.9153(2)
H23 H 0.5704 0.5306 0.9359
C32 C 0.4069(4) 0.67571(12) 1.0549(3)
H24 H 0.4280 0.6630 1.1383
H25 H 0.3052 0.6933 1.0351
H26 H 0.4928 0.6979 1.0486
loop_
_geom_bond_atom_site_label_1
_geom_bond_atom_site_label_2
_geom_bond_site_symmetry_1
_geom_bond_site_symmetry_2
Cl1 C17 1_555 1_555
S1 O2 1_555 1_555
O1 C1 1_555 1_555
O3 S1 1_555 1_555
N1 S1 1_555 1_555
C1 C2 1_555 1_555
C2 H1 1_555 1_555
C3 C2 1_555 1_555
H2 C3 1_555 1_555
C4 C3 1_555 1_555
H3 C4 1_555 1_555
C5 C4 1_555 1_555
H4 C5 1_555 1_555
C6 C1 1_555 1_555
C7 N1 1_555 1_555
C8 O1 1_555 1_555
C9 C8 1_555 1_555
H5 C9 1_555 1_555
C10 C9 1_555 1_555
H6 C10 1_555 1_555
C11 N1 1_555 1_555
H7 C11 1_555 1_555
H8 C11 1_555 1_555
C12 C9 1_555 1_555
C13 C12 1_555 1_555
H9 C13 1_555 1_555
C14 C13 1_555 1_555
H10 C14 1_555 1_555
C15 C14 1_555 1_555
H11 C15 1_555 1_555
C16 C15 1_555 1_555
H12 C16 1_555 1_555
C17 C12 1_555 1_555
C18 C10 1_555 1_555
C19 C18 1_555 1_555
H13 C19 1_555 1_555
H14 C19 1_555 1_555
C20 C18 1_555 1_555
C21 C20 1_555 1_555
H15 C21 1_555 1_555
C22 C21 1_555 1_555
H16 C22 1_555 1_555
C23 C22 1_555 1_555
H17 C23 1_555 1_555
C24 C23 1_555 1_555
H18 C24 1_555 1_555
C25 C20 1_555 1_555
H19 C25 1_555 1_555
C26 S1 1_555 1_555
C27 C26 1_555 1_555
H20 C27 1_555 1_555
C28 C27 1_555 1_555
H21 C28 1_555 1_555
C29 C28 1_555 1_555
C30 C29 1_555 1_555
H22 C30 1_555 1_555
C31 C26 1_555 1_555
H23 C31 1_555 1_555
C32 C29 1_555 1_555
H24 C32 1_555 1_555
H25 C32 1_555 1_555
H26 C32 1_555 1_555
C5 C6 1_555 1_555
C6 C7 1_555 1_555
C7 C8 1_555 1_555
C10 C11 1_555 1_555
C16 C17 1_555 1_555
C24 C25 1_555 1_555
C30 C31 1_555 1_555

#END
