
#######################################################################
#
#                 Cambridge Crystallographic Data Centre
#                                CCDC 
#
#######################################################################
#
# If this CIF has been generated from an entry in the Cambridge 
# Structural Database, then it will include bibliographic, chemical, 
# crystal, experimental, refinement or atomic coordinate data resulting 
# from the CCDC's data processing and validation procedures.
#
#######################################################################

data_JEYSEO
_chemical_formula_moiety         'C18 H13 N3'
_chemical_name_systematic        2-phenyl-1-(pyridin-2-yl)-1H-benzimidazole
_symmetry_cell_setting           monoclinic
_symmetry_space_group_name_H-M   'P 21/n'
_symmetry_Int_Tables_number      14
_space_group_name_Hall           '-P 2yn'
loop_
_symmetry_equiv_pos_site_id
_symmetry_equiv_pos_as_xyz
1 x,y,z
2 1/2-x,1/2+y,1/2-z
3 -x,-y,-z
4 1/2+x,1/2-y,1/2+z
_cell_length_a                   8.9797(2)
_cell_length_b                   17.5384(3)
_cell_length_c                   9.3882(2)
_cell_angle_alpha                90
_cell_angle_beta                 108.488(2)
_cell_angle_gamma                90
_cell_volume                     1402.24
_exptl_crystal_colour            white
_exptl_crystal_description       block
_chemical_melting_point          '364 K'
_cell_formula_units_Z            4
_exptl_crystal_recrystallization_method 
'Re-crystallisation from solvent: acetone'
loop_
_atom_site_label
_atom_site_type_symbol
_atom_site_fract_x
_atom_site_fract_y
_atom_site_fract_z
N1 N 0.51512(11) 0.54021(6) 0.72972(11)
N2 N 0.35788(13) 0.57881(7) 0.49389(13)
N3 N 0.70626(12) 0.48387(6) 0.91438(13)
C1 C 0.46879(13) 0.40696(6) 0.80603(14)
C2 C 0.56312(13) 0.47688(7) 0.82060(14)
C3 C 0.36243(13) 0.55823(6) 0.63065(14)
C4 C 0.64164(14) 0.59076(7) 0.76825(15)
C5 C 0.37283(14) 0.38094(7) 0.66739(15)
H1 H 0.3643 0.4089 0.5810
C6 C 0.23347(15) 0.55679(7) 0.68163(16)
H2 H 0.2428 0.5425 0.7795
C7 C 0.29018(15) 0.31372(7) 0.65769(17)
H3 H 0.2264 0.2964 0.5647
C8 C 0.75748(15) 0.55490(8) 0.88335(16)
C9 C 0.09070(15) 0.57744(8) 0.58059(19)
H4 H 0.0008 0.5775 0.6095
C10 C 0.48299(18) 0.36350(8) 0.93324(16)
H5 H 0.5496 0.3794 1.0261
C11 C 0.08234(17) 0.59789(8) 0.43702(18)
H6 H -0.0132 0.6113 0.3671
C12 C 0.30184(18) 0.27215(8) 0.78546(19)
H7 H 0.2443 0.2275 0.7789
C13 C 0.66092(18) 0.66276(8) 0.71535(17)
H8 H 0.5818 0.6864 0.6393
C14 C 0.21743(17) 0.59822(9) 0.39877(17)
H9 H 0.2112 0.6127 0.3017
C15 C 0.3988(2) 0.29687(8) 0.92265(19)
H10 H 0.4076 0.2685 1.0086
C16 C 0.90132(18) 0.59165(10) 0.9498(2)
H11 H 0.9802 0.5689 1.0274
C17 C 0.8051(2) 0.69737(9) 0.7826(2)
H12 H 0.8237 0.7455 0.7501
C18 C 0.9221(2) 0.66233(10) 0.8967(2)
H13 H 1.0173 0.6874 0.9384
loop_
_geom_bond_atom_site_label_1
_geom_bond_atom_site_label_2
_geom_bond_site_symmetry_1
_geom_bond_site_symmetry_2
N1 C2 1_555 1_555
N2 C3 1_555 1_555
N3 C2 1_555 1_555
C1 C2 1_555 1_555
C3 N1 1_555 1_555
C4 N1 1_555 1_555
C5 C1 1_555 1_555
H1 C5 1_555 1_555
C6 C3 1_555 1_555
H2 C6 1_555 1_555
C7 C5 1_555 1_555
H3 C7 1_555 1_555
C8 N3 1_555 1_555
C9 C6 1_555 1_555
H4 C9 1_555 1_555
C10 C1 1_555 1_555
H5 C10 1_555 1_555
C11 C9 1_555 1_555
H6 C11 1_555 1_555
C12 C7 1_555 1_555
H7 C12 1_555 1_555
C13 C4 1_555 1_555
H8 C13 1_555 1_555
C14 N2 1_555 1_555
H9 C14 1_555 1_555
C15 C10 1_555 1_555
H10 C15 1_555 1_555
C16 C8 1_555 1_555
H11 C16 1_555 1_555
C17 C13 1_555 1_555
H12 C17 1_555 1_555
C18 C16 1_555 1_555
H13 C18 1_555 1_555
C4 C8 1_555 1_555
C11 C14 1_555 1_555
C12 C15 1_555 1_555
C17 C18 1_555 1_555

#END
