
#######################################################################
#
#                 Cambridge Crystallographic Data Centre
#                                CCDC 
#
#######################################################################
#
# If this CIF has been generated from an entry in the Cambridge 
# Structural Database, then it will include bibliographic, chemical, 
# crystal, experimental, refinement or atomic coordinate data resulting 
# from the CCDC's data processing and validation procedures.
#
#######################################################################

data_JEYTIT
_chemical_formula_moiety         'C35 H40 Br1 O5 P1,C1 H1 Cl3'
_chemical_name_systematic        
'3-[{2-[(benzenecarbonyl)oxy]-5-bromophenyl}(tributylphosphaniumyl)methyl]-2-oxo-2H-1-benzopyran-4-olate chloroform solvate'
_symmetry_cell_setting           triclinic
_symmetry_space_group_name_H-M   'P -1'
_symmetry_Int_Tables_number      2
_space_group_name_Hall           '-P 1'
loop_
_symmetry_equiv_pos_site_id
_symmetry_equiv_pos_as_xyz
1 x,y,z
2 -x,-y,-z
_cell_length_a                   9.8727(4)
_cell_length_b                   12.6066(5)
_cell_length_c                   16.0897(5)
_cell_angle_alpha                109.5650(10)
_cell_angle_beta                 91.0660(10)
_cell_angle_gamma                99.3770(10)
_cell_volume                     1855.93
_exptl_crystal_colour            colorless
_exptl_crystal_description       prism
_cell_formula_units_Z            2
loop_
_atom_site_label
_atom_site_type_symbol
_atom_site_fract_x
_atom_site_fract_y
_atom_site_fract_z
C1 C 0.3540(4) 0.9172(3) 0.2277(2)
C2 C 0.4078(4) 1.0046(3) 0.3057(3)
H1 H 0.3933 1.0806 0.3167
C3 C 0.4828(4) 0.9779(3) 0.3666(2)
H2 H 0.5202 1.0357 0.4207
C4 C 0.5035(3) 0.8670(3) 0.3490(2)
C5 C 0.4496(3) 0.7789(3) 0.2707(2)
C6 C 0.3729(3) 0.8067(3) 0.2101(2)
H3 H 0.3335 0.7489 0.1564
C7 C 0.7030(4) 0.8920(3) 0.4443(2)
C8 C 0.7562(4) 0.8507(3) 0.5118(2)
C9 C 0.8782(5) 0.9136(4) 0.5613(3)
H4 H 0.9239 0.9800 0.5511
C10 C 0.9318(5) 0.8781(6) 0.6251(4)
H5 H 1.0145 0.9208 0.6595
C11 C 0.8670(6) 0.7820(5) 0.6393(4)
H6 H 0.9056 0.7581 0.6831
C12 C 0.7471(5) 0.7198(4) 0.5910(3)
H7 H 0.7031 0.6530 0.6013
C13 C 0.6897(4) 0.7543(3) 0.5269(3)
H8 H 0.6057 0.7122 0.4939
C14 C 0.4716(3) 0.6565(3) 0.2532(2)
H9 H 0.5016 0.6543 0.3122
C15 C 0.3441(3) 0.5653(3) 0.2210(2)
C16 C 0.2938(4) 0.5158(3) 0.2857(3)
C17 C 0.1080(4) 0.4012(3) 0.1801(3)
C18 C -0.0156(5) 0.3176(4) 0.1618(3)
H10 H -0.0470 0.2854 0.2051
C19 C -0.0869(4) 0.2850(4) 0.0826(3)
H11 H -0.1687 0.2291 0.0701
C20 C -0.0425(4) 0.3321(4) 0.0180(3)
H12 H -0.0953 0.3100 -0.0370
C21 C 0.0776(4) 0.4103(3) 0.0349(3)
H13 H 0.1091 0.4413 -0.0090
C22 C 0.1534(4) 0.4443(3) 0.1157(2)
C23 C 0.2846(3) 0.5291(3) 0.1351(2)
C24 C 0.6009(4) 0.4757(3) 0.1272(2)
H14 H 0.5145 0.4497 0.0882
H15 H 0.6782 0.4620 0.0889
C25 C 0.5987(4) 0.4037(3) 0.1860(3)
H16 H 0.5413 0.4324 0.2357
H17 H 0.6934 0.4109 0.2112
C26 C 0.5413(6) 0.2785(4) 0.1348(4)
H18 H 0.4432 0.2711 0.1159
H19 H 0.5912 0.2535 0.0808
C27 C 0.5524(11) 0.2017(6) 0.1860(6)
H20 H 0.5143 0.1227 0.1491
H21 H 0.5007 0.2243 0.2386
H22 H 0.6494 0.2074 0.2041
C28 C 0.6417(4) 0.7020(3) 0.1071(2)
H23 H 0.6893 0.6574 0.0572
H24 H 0.5496 0.7042 0.0830
C29 C 0.7228(4) 0.8245(4) 0.1434(3)
H25 H 0.6739 0.8715 0.1913
H26 H 0.8146 0.8241 0.1688
C30 C 0.7400(7) 0.8774(5) 0.0720(4)
H27 H 0.7794 0.8259 0.0212
H28 H 0.6485 0.8855 0.0511
C31 C 0.8319(9) 0.9925(7) 0.1040(7)
H29 H 0.8407 1.0235 0.0557
H30 H 0.9230 0.9848 0.1240
H31 H 0.7921 1.0444 0.1534
C32 C 0.7698(3) 0.6727(3) 0.2622(2)
H32 H 0.7815 0.7565 0.2926
H33 H 0.7545 0.6360 0.3076
C33 C 0.9034(4) 0.6446(4) 0.2193(3)
H34 H 0.9114 0.5655 0.2144
H35 H 0.8979 0.6476 0.1587
C34 C 1.0324(7) 0.7259(7) 0.2708(5)
H36 H 1.1132 0.7079 0.2367
H37 H 1.0235 0.8054 0.2774
C35 C 1.0564(9) 0.7180(8) 0.3607(6)
H38 H 1.1398 0.7719 0.3913
H39 H 1.0678 0.6400 0.3545
H40 H 0.9773 0.7369 0.3951
Br1 Br 0.24514(5) 0.95075(4) 0.14425(3)
O1 O 0.5708(2) 0.8370(2) 0.41280(15)
O2 O 0.7644(3) 0.9619(3) 0.4173(2)
O3 O 0.3426(3) 0.5364(3) 0.35898(18)
O4 O 0.1749(3) 0.4315(2) 0.26134(18)
O5 O 0.3348(3) 0.5637(2) 0.07555(16)
P1 P 0.61871(8) 0.62670(8) 0.18502(5)
C38 C 0.2446(7) 0.6058(6) 0.5479(4)
H46 H 0.2232 0.5681 0.4825
Cl1 Cl 0.1120(2) 0.5553(2) 0.60315(14)
Cl2 Cl 0.3948(2) 0.56595(17) 0.58029(12)
Cl3 Cl 0.2676(3) 0.75341(18) 0.57510(17)
C36? C 1.0230(11) 0.6773(10) 0.2908(8)
H41? H 0.9975 0.6391 0.3343
H42? H 1.1049 0.6494 0.2630
C37? C 1.0576(16) 0.8000(13) 0.3366(10)
H43? H 1.1342 0.8168 0.3814
H44? H 0.9774 0.8279 0.3653
H45? H 1.0848 0.8382 0.2939
loop_
_geom_bond_atom_site_label_1
_geom_bond_atom_site_label_2
_geom_bond_site_symmetry_1
_geom_bond_site_symmetry_2
C1 C2 1_555 1_555
C2 H1 1_555 1_555
C3 C2 1_555 1_555
H2 C3 1_555 1_555
C4 C3 1_555 1_555
C5 C4 1_555 1_555
C6 C1 1_555 1_555
H3 C6 1_555 1_555
C7 C8 1_555 1_555
C8 C9 1_555 1_555
C9 H4 1_555 1_555
C10 C9 1_555 1_555
H5 C10 1_555 1_555
C11 C10 1_555 1_555
H6 C11 1_555 1_555
C12 C11 1_555 1_555
H7 C12 1_555 1_555
C13 C8 1_555 1_555
H8 C13 1_555 1_555
C14 C5 1_555 1_555
H9 C14 1_555 1_555
C15 C14 1_555 1_555
C16 C15 1_555 1_555
C17 C18 1_555 1_555
C18 H10 1_555 1_555
C19 C18 1_555 1_555
H11 C19 1_555 1_555
C20 C19 1_555 1_555
H12 C20 1_555 1_555
C21 C20 1_555 1_555
H13 C21 1_555 1_555
C22 C17 1_555 1_555
C23 C15 1_555 1_555
C24 H14 1_555 1_555
H15 C24 1_555 1_555
C25 C24 1_555 1_555
H16 C25 1_555 1_555
H17 C25 1_555 1_555
C26 C25 1_555 1_555
H18 C26 1_555 1_555
H19 C26 1_555 1_555
C27 C26 1_555 1_555
H20 C27 1_555 1_555
H21 C27 1_555 1_555
H22 C27 1_555 1_555
C28 H23 1_555 1_555
H24 C28 1_555 1_555
C29 C28 1_555 1_555
H25 C29 1_555 1_555
H26 C29 1_555 1_555
C30 C29 1_555 1_555
H27 C30 1_555 1_555
H28 C30 1_555 1_555
C31 C30 1_555 1_555
H29 C31 1_555 1_555
H30 C31 1_555 1_555
H31 C31 1_555 1_555
C32 H32 1_555 1_555
H33 C32 1_555 1_555
C33 C32 1_555 1_555
H34 C33 1_555 1_555
H35 C33 1_555 1_555
C34 C33 1_555 1_555
H36 C34 1_555 1_555
H37 C34 1_555 1_555
C35 C34 1_555 1_555
H38 C35 1_555 1_555
H39 C35 1_555 1_555
H40 C35 1_555 1_555
Br1 C1 1_555 1_555
O1 C4 1_555 1_555
O2 C7 1_555 1_555
O3 C16 1_555 1_555
O4 C16 1_555 1_555
O5 C23 1_555 1_555
P1 C14 1_555 1_555
C38 H46 1_555 1_555
Cl1 C38 1_555 1_555
Cl2 C38 1_555 1_555
Cl3 C38 1_555 1_555
C5 C6 1_555 1_555
C7 O1 1_555 1_555
C12 C13 1_555 1_555
C17 O4 1_555 1_555
C21 C22 1_555 1_555
C22 C23 1_555 1_555
C24 P1 1_555 1_555
C28 P1 1_555 1_555
C32 P1 1_555 1_555

#END
