
#######################################################################
#
#                 Cambridge Crystallographic Data Centre
#                                CCDC 
#
#######################################################################
#
# If this CIF has been generated from an entry in the Cambridge 
# Structural Database, then it will include bibliographic, chemical, 
# crystal, experimental, refinement or atomic coordinate data resulting 
# from the CCDC's data processing and validation procedures.
#
#######################################################################

data_JEYWEQ
_chemical_formula_moiety         'C19 H19 N3 O3'
_chemical_name_systematic        
(E)-4-(2-Hydroxy-4-methoxybenzylideneamino)-1,5-dimethyl-2-phenyl-1H-pyrazol-3(2H)-one
_symmetry_cell_setting           monoclinic
_symmetry_space_group_name_H-M   'P 21/c'
_symmetry_Int_Tables_number      14
_space_group_name_Hall           '-P 2ybc'
loop_
_symmetry_equiv_pos_site_id
_symmetry_equiv_pos_as_xyz
1 x,y,z
2 -x,1/2+y,1/2-z
3 -x,-y,-z
4 x,1/2-y,1/2+z
_cell_length_a                   10.0306(9)
_cell_length_b                   7.5903(7)
_cell_length_c                   22.248(2)
_cell_angle_alpha                90
_cell_angle_beta                 93.021(2)
_cell_angle_gamma                90
_cell_volume                     1691.5
_exptl_crystal_colour            colorless
_exptl_crystal_description       block
_cell_formula_units_Z            4
_exptl_crystal_recrystallization_method 'dichloromethane/absolute ethanol'
loop_
_atom_site_label
_atom_site_type_symbol
_atom_site_fract_x
_atom_site_fract_y
_atom_site_fract_z
C1 C -0.04294(14) 0.50019(17) 0.40731(7)
H1 H -0.0087 0.5929 0.3856
C2 C -0.14097(14) 0.53671(17) 0.45081(6)
C3 C -0.18717(15) 0.70877(18) 0.45834(7)
H2 H -0.1526 0.7985 0.4353
C4 C -0.28131(16) 0.7498(2) 0.49834(7)
H3 H -0.3106 0.8654 0.5022
C5 C -0.33287(15) 0.61613(19) 0.53333(7)
C6 C -0.28989(14) 0.44426(18) 0.52741(7)
H4 H -0.3251 0.3555 0.5507
C7 C -0.19416(14) 0.40452(17) 0.48671(6)
C8 C 0.08607(13) 0.30620(16) 0.35236(6)
C9 C 0.13026(13) 0.14130(17) 0.34049(7)
C10 C 0.14209(13) 0.42590(18) 0.31028(7)
C11 C 0.30298(14) 0.37380(17) 0.22915(6)
C12 C 0.26297(16) 0.50168(19) 0.18781(8)
H5 H 0.1793 0.5538 0.1891
C13 C 0.3497(2) 0.5509(2) 0.14433(8)
H6 H 0.3237 0.6365 0.1162
C14 C 0.4742(2) 0.4743(2) 0.14227(9)
H7 H 0.5319 0.5079 0.1130
C15 C 0.51170(17) 0.3489(2) 0.18365(8)
H8 H 0.5953 0.2966 0.1821
C16 C 0.42816(14) 0.29803(19) 0.22767(7)
H9 H 0.4556 0.2138 0.2560
C17 C 0.10232(17) -0.02543(18) 0.37236(8)
H10 H 0.0626 0.0008 0.4097
H11 H 0.1842 -0.0886 0.3804
H12 H 0.0420 -0.0963 0.3477
C18 C 0.19623(15) 0.01017(19) 0.24572(8)
H13 H 0.1858 -0.1038 0.2636
H14 H 0.2734 0.0097 0.2220
H15 H 0.1184 0.0373 0.2205
C19 C -0.47768(18) 0.5381(2) 0.61056(8)
H16 H -0.5224 0.4486 0.5866
H17 H -0.5398 0.5918 0.6364
H18 H -0.4058 0.4861 0.6346
N1 N -0.00144(11) 0.34202(14) 0.39776(5)
N2 N 0.21315(11) 0.14334(13) 0.29319(5)
N3 N 0.21195(11) 0.31878(14) 0.27256(6)
O1 O -0.42580(11) 0.66863(13) 0.57212(5)
O2 O -0.15459(11) 0.23513(13) 0.48254(5)
H19 H -0.0965 0.2276 0.4581
O3 O 0.13802(11) 0.58828(12) 0.30592(5)
loop_
_geom_bond_atom_site_label_1
_geom_bond_atom_site_label_2
_geom_bond_site_symmetry_1
_geom_bond_site_symmetry_2
C1 H1 1_555 1_555
C2 C1 1_555 1_555
C3 C2 1_555 1_555
H2 C3 1_555 1_555
C4 C3 1_555 1_555
H3 C4 1_555 1_555
C5 C4 1_555 1_555
C6 C5 1_555 1_555
H4 C6 1_555 1_555
C7 C2 1_555 1_555
C8 C9 1_555 1_555
C9 C17 1_555 1_555
C10 C8 1_555 1_555
C11 C12 1_555 1_555
C12 H5 1_555 1_555
C13 C12 1_555 1_555
H6 C13 1_555 1_555
C14 C13 1_555 1_555
H7 C14 1_555 1_555
C15 C14 1_555 1_555
H8 C15 1_555 1_555
C16 C11 1_555 1_555
H9 C16 1_555 1_555
C17 H10 1_555 1_555
H11 C17 1_555 1_555
H12 C17 1_555 1_555
C18 H13 1_555 1_555
H14 C18 1_555 1_555
H15 C18 1_555 1_555
C19 H16 1_555 1_555
H17 C19 1_555 1_555
H18 C19 1_555 1_555
N1 C1 1_555 1_555
N2 C9 1_555 1_555
N3 C10 1_555 1_555
O1 C5 1_555 1_555
O2 C7 1_555 1_555
H19 O2 1_555 1_555
O3 C10 1_555 1_555
C6 C7 1_555 1_555
C8 N1 1_555 1_555
C11 N3 1_555 1_555
C15 C16 1_555 1_555
C18 N2 1_555 1_555
C19 O1 1_555 1_555
N2 N3 1_555 1_555

#END
