
#######################################################################
#
#                 Cambridge Crystallographic Data Centre
#                                CCDC 
#
#######################################################################
#
# If this CIF has been generated from an entry in the Cambridge 
# Structural Database, then it will include bibliographic, chemical, 
# crystal, experimental, refinement or atomic coordinate data resulting 
# from the CCDC's data processing and validation procedures.
#
#######################################################################

data_JEYWOC
_chemical_formula_moiety         'C32 H36 O3 P2'
_chemical_name_systematic        
'[2-(diphenylphosphoryl)-2-(4-methoxyphenyl)ethyl](ethyl)oxo(2,4,6-trimethylphenyl)phosphine'
_symmetry_cell_setting           orthorhombic
_symmetry_space_group_name_H-M   'P 21 21 21'
_symmetry_Int_Tables_number      19
_space_group_name_Hall           'P 2ac 2ab'
loop_
_symmetry_equiv_pos_site_id
_symmetry_equiv_pos_as_xyz
1 x,y,z
2 1/2-x,-y,1/2+z
3 -x,1/2+y,1/2-z
4 1/2+x,1/2-y,-z
_cell_length_a                   5.6982(2)
_cell_length_b                   20.5949(8)
_cell_length_c                   23.5553(9)
_cell_angle_alpha                90
_cell_angle_beta                 90
_cell_angle_gamma                90
_cell_volume                     2764.31
_exptl_crystal_colour            colorless
_exptl_crystal_description       needle
_cell_formula_units_Z            4
loop_
_atom_site_label
_atom_site_type_symbol
_atom_site_fract_x
_atom_site_fract_y
_atom_site_fract_z
C1 C 0.3710(8) 0.66342(19) 0.61130(17)
C2 C 0.5337(8) 0.6117(2) 0.61059(19)
C3 C 0.5379(9) 0.5693(2) 0.5643(2)
H1 H 0.6496 0.535 0.5639
C4 C 0.3844(10) 0.5755(2) 0.5190(2)
C5 C 0.2169(9) 0.6236(2) 0.5220(2)
H2 H 0.1059 0.6269 0.4921
C6 C 0.2024(8) 0.6676(2) 0.56677(19)
C7 C -0.0017(9) 0.7149(2) 0.5655(2)
H3 H 0.0561 0.7583 0.5558
H4 H -0.0769 0.7161 0.6029
H5 H -0.116 0.7008 0.537
C8 C 0.3928(12) 0.5281(3) 0.4698(2)
H6 H 0.332 0.4859 0.4821
H7 H 0.5554 0.5232 0.457
H8 H 0.2965 0.5447 0.4386
C9 C 0.7023(8) 0.5961(2) 0.6577(2)
H9 H 0.7126 0.5489 0.6623
H10 H 0.6467 0.6157 0.6931
H11 H 0.8577 0.6134 0.6483
C10 C 0.2538(8) 0.7958(2) 0.65838(19)
H12 H 0.0883 0.7886 0.6473
H13 H 0.2545 0.822 0.6936
C11 C 0.3792(10) 0.8337(2) 0.6112(2)
H14 H 0.5448 0.8394 0.6214
H15 H 0.3051 0.8763 0.6067
H16 H 0.368 0.8096 0.5755
C12 C 0.2135(8) 0.6771(2) 0.72553(17)
H17 H 0.0483 0.691 0.721
H18 H 0.2198 0.6298 0.7182
C13 C 0.2881(8) 0.68938(19) 0.78722(18)
H19 H 0.4599 0.6804 0.7909
C14 C 0.2388(7) 0.7576(2) 0.80913(18)
C15 C 0.4049(8) 0.7886(2) 0.84322(17)
H20 H 0.5503 0.7678 0.8508
C16 C 0.3607(9) 0.8492(2) 0.86613(19)
H21 H 0.4757 0.8697 0.8892
C17 C 0.1480(9) 0.8802(2) 0.85548(18)
C18 C -0.0176(8) 0.8504(2) 0.82186(18)
H22 H -0.1627 0.8714 0.8143
C19 C 0.0282(8) 0.7889(2) 0.79877(18)
H23 H -0.0869 0.7684 0.7757
C20 C -0.1013(9) 0.9721(2) 0.8727(2)
H24 H -0.1284 0.9792 0.832
H25 H -0.0991 1.0141 0.8923
H26 H -0.2275 0.9451 0.8882
C21 C 0.2235(8) 0.6451(2) 0.90446(19)
C22 C 0.4378(8) 0.6227(2) 0.92489(19)
H27 H 0.5449 0.6015 0.9002
C23 C 0.4937(9) 0.6317(2) 0.9818(2)
H28 H 0.6387 0.6159 0.9962
C24 C 0.3398(9) 0.6634(2) 1.0175(2)
H29 H 0.3788 0.6691 1.0564
C25 C 0.1308(10) 0.6866(2) 0.99712(19)
H30 H 0.0272 0.7093 1.0217
C26 C 0.0705(9) 0.6771(2) 0.94079(19)
H31 H -0.0759 0.6925 0.927
C27 C 0.2258(8) 0.5518(2) 0.81262(18)
C28 C 0.4452(8) 0.5379(2) 0.7900(2)
H32 H 0.5566 0.5717 0.785
C29 C 0.5028(10) 0.4743(2) 0.7747(2)
H33 H 0.6522 0.4652 0.7586
C30 C 0.3430(9) 0.4246(2) 0.7828(2)
H34 H 0.3824 0.3814 0.7724
C31 C 0.1257(10) 0.4381(2) 0.8061(2)
H35 H 0.0168 0.4039 0.8123
C32 C 0.0658(9) 0.5016(2) 0.8206(2)
H36 H -0.0849 0.5106 0.8359
O1 O 0.6394(6) 0.73075(14) 0.68984(12)
O2 O 0.1210(6) 0.93983(14) 0.88063(13)
O3 O -0.1320(5) 0.63904(13) 0.82666(13)
P1 P 0.3915(2) 0.71847(5) 0.67207(5)
P2 P 0.1272(2) 0.63225(5) 0.83207(5)
loop_
_geom_bond_atom_site_label_1
_geom_bond_atom_site_label_2
_geom_bond_site_symmetry_1
_geom_bond_site_symmetry_2
C1 C2 1_555 1_555
C2 C3 1_555 1_555
C3 H1 1_555 1_555
C4 C3 1_555 1_555
C5 C4 1_555 1_555
H2 C5 1_555 1_555
C6 C1 1_555 1_555
C7 C6 1_555 1_555
H3 C7 1_555 1_555
H4 C7 1_555 1_555
H5 C7 1_555 1_555
C8 C4 1_555 1_555
H6 C8 1_555 1_555
H7 C8 1_555 1_555
H8 C8 1_555 1_555
C9 C2 1_555 1_555
H9 C9 1_555 1_555
H10 C9 1_555 1_555
H11 C9 1_555 1_555
C10 H12 1_555 1_555
H13 C10 1_555 1_555
C11 C10 1_555 1_555
H14 C11 1_555 1_555
H15 C11 1_555 1_555
H16 C11 1_555 1_555
C12 H17 1_555 1_555
H18 C12 1_555 1_555
C13 C12 1_555 1_555
H19 C13 1_555 1_555
C14 C13 1_555 1_555
C15 C14 1_555 1_555
H20 C15 1_555 1_555
C16 C15 1_555 1_555
H21 C16 1_555 1_555
C17 C16 1_555 1_555
C18 C17 1_555 1_555
H22 C18 1_555 1_555
C19 C14 1_555 1_555
H23 C19 1_555 1_555
C20 H24 1_555 1_555
H25 C20 1_555 1_555
H26 C20 1_555 1_555
C21 C22 1_555 1_555
C22 H27 1_555 1_555
C23 C22 1_555 1_555
H28 C23 1_555 1_555
C24 C23 1_555 1_555
H29 C24 1_555 1_555
C25 C24 1_555 1_555
H30 C25 1_555 1_555
C26 C21 1_555 1_555
H31 C26 1_555 1_555
C27 C28 1_555 1_555
C28 H32 1_555 1_555
C29 C28 1_555 1_555
H33 C29 1_555 1_555
C30 C29 1_555 1_555
H34 C30 1_555 1_555
C31 C30 1_555 1_555
H35 C31 1_555 1_555
C32 C27 1_555 1_555
H36 C32 1_555 1_555
O1 P1 1_555 1_555
O2 C17 1_555 1_555
O3 P2 1_555 1_555
P1 C1 1_555 1_555
P2 C13 1_555 1_555
C5 C6 1_555 1_555
C10 P1 1_555 1_555
C12 P1 1_555 1_555
C18 C19 1_555 1_555
C20 O2 1_555 1_555
C21 P2 1_555 1_555
C25 C26 1_555 1_555
C27 P2 1_555 1_555
C31 C32 1_555 1_555

#END
