
#######################################################################
#
#                 Cambridge Crystallographic Data Centre
#                                CCDC 
#
#######################################################################
#
# If this CIF has been generated from an entry in the Cambridge 
# Structural Database, then it will include bibliographic, chemical, 
# crystal, experimental, refinement or atomic coordinate data resulting 
# from the CCDC's data processing and validation procedures.
#
#######################################################################

data_JEYYIW
_chemical_formula_moiety         'C10 H10 N2 O3'
_chemical_name_systematic        'Phenyl 2-oxoimidazolidine-1-carboxylate'
_symmetry_cell_setting           monoclinic
_symmetry_space_group_name_H-M   'P 21/c'
_symmetry_Int_Tables_number      14
_space_group_name_Hall           '-P 2ybc'
loop_
_symmetry_equiv_pos_site_id
_symmetry_equiv_pos_as_xyz
1 x,y,z
2 -x,1/2+y,1/2-z
3 -x,-y,-z
4 x,1/2-y,1/2+z
_cell_length_a                   6.3535(8)
_cell_length_b                   14.0240(18)
_cell_length_c                   10.8840(13)
_cell_angle_alpha                90
_cell_angle_beta                 95.207(3)
_cell_angle_gamma                90
_cell_volume                     965.779
_exptl_crystal_colour            colorless
_exptl_crystal_description       block
_chemical_melting_point          '457-458 K'
_cell_formula_units_Z            4
_exptl_crystal_recrystallization_method ethanol
loop_
_atom_site_label
_atom_site_type_symbol
_atom_site_fract_x
_atom_site_fract_y
_atom_site_fract_z
O1 O 0.2082(3) 0.47526(13) 0.33051(19)
O2 O 0.0051(3) 0.35450(15) 0.25090(19)
O3 O -0.3326(3) 0.42602(14) 0.09373(19)
N1 N -0.0379(4) 0.50807(15) 0.1801(2)
N2 N -0.2653(4) 0.58139(16) 0.0497(2)
H1 H -0.3772 0.5918 0.0010
C1 C 0.3251(4) 0.41197(19) 0.4110(3)
C2 C 0.5033(5) 0.3720(2) 0.3745(3)
H2 H 0.5436 0.3830 0.2957
C3 C 0.6242(5) 0.3145(2) 0.4567(4)
H3 H 0.7473 0.2868 0.4331
C4 C 0.5645(6) 0.2983(2) 0.5711(4)
H4 H 0.6455 0.2589 0.6255
C5 C 0.3858(6) 0.3397(2) 0.6067(3)
H5 H 0.3461 0.3291 0.6857
C6 C 0.2637(5) 0.3972(2) 0.5261(3)
H6 H 0.1414 0.4255 0.5499
C7 C 0.0525(4) 0.4363(2) 0.2535(3)
C8 C -0.2270(5) 0.4984(2) 0.1047(3)
C9 C 0.0451(5) 0.60541(19) 0.1756(3)
H7 H 0.1887 0.6056 0.1520
H8 H 0.0424 0.6370 0.2547
C10 C -0.1061(5) 0.6530(2) 0.0775(3)
H9 H -0.1667 0.7105 0.1092
H10 H -0.0350 0.6689 0.0050
loop_
_geom_bond_atom_site_label_1
_geom_bond_atom_site_label_2
_geom_bond_site_symmetry_1
_geom_bond_site_symmetry_2
O1 C1 1_555 1_555
O2 C7 1_555 1_555
O3 C8 1_555 1_555
N1 C7 1_555 1_555
N2 H1 1_555 1_555
C1 C2 1_555 1_555
C2 H2 1_555 1_555
C3 C2 1_555 1_555
H3 C3 1_555 1_555
C4 C3 1_555 1_555
H4 C4 1_555 1_555
C5 C4 1_555 1_555
H5 C5 1_555 1_555
C6 C1 1_555 1_555
H6 C6 1_555 1_555
C7 O1 1_555 1_555
C8 N1 1_555 1_555
C9 N1 1_555 1_555
H7 C9 1_555 1_555
H8 C9 1_555 1_555
C10 N2 1_555 1_555
H9 C10 1_555 1_555
H10 C10 1_555 1_555
N2 C8 1_555 1_555
C5 C6 1_555 1_555
C9 C10 1_555 1_555

#END
