
#######################################################################
#
#                 Cambridge Crystallographic Data Centre
#                                CCDC 
#
#######################################################################
#
# If this CIF has been generated from an entry in the Cambridge 
# Structural Database, then it will include bibliographic, chemical, 
# crystal, experimental, refinement or atomic coordinate data resulting 
# from the CCDC's data processing and validation procedures.
#
#######################################################################

data_JEYZEV
_chemical_formula_moiety         'C26 H15 Br1 F3 N1 O4'
_chemical_name_systematic        
'3-(5-bromo-2-(trifluoromethyl)-1-benzofuran-3-yl)-1-methyl-2-oxo-1,2-dihydroquinolin-4-yl benzoate'
_symmetry_cell_setting           triclinic
_symmetry_space_group_name_H-M   'P -1'
_symmetry_Int_Tables_number      2
_space_group_name_Hall           '-P 1'
loop_
_symmetry_equiv_pos_site_id
_symmetry_equiv_pos_as_xyz
1 x,y,z
2 -x,-y,-z
_cell_length_a                   9.6529(6)
_cell_length_b                   10.5571(7)
_cell_length_c                   12.4337(8)
_cell_angle_alpha                65.108(2)
_cell_angle_beta                 82.514(2)
_cell_angle_gamma                74.379(2)
_cell_volume                     1106.71
_exptl_crystal_colour            colorless
_exptl_crystal_description       prism
_cell_formula_units_Z            2
loop_
_atom_site_label
_atom_site_type_symbol
_atom_site_fract_x
_atom_site_fract_y
_atom_site_fract_z
C1 C 0.7660(3) 0.7657(4) 0.6318(3)
C2 C 0.7573(4) 0.9108(4) 0.6040(3)
H1 H 0.8418 0.9464 0.5809
C3 C 0.6273(3) 1.0020(3) 0.6100(3)
H2 H 0.6186 1.1008 0.5910
C4 C 0.5099(3) 0.9411(3) 0.6451(2)
C5 C 0.5165(3) 0.7992(3) 0.6688(2)
C6 C 0.6483(3) 0.7068(3) 0.6623(3)
H3 H 0.6562 0.6090 0.6781
C7 C 0.3719(3) 0.7801(3) 0.7020(2)
C8 C 0.2927(3) 0.9091(3) 0.6955(3)
C9 C 0.1390(4) 0.9597(3) 0.7229(3)
C10 C 0.3273(3) 0.6436(3) 0.7409(2)
C11 C 0.3371(3) 0.5870(3) 0.6498(3)
C12 C 0.3067(4) 0.4027(4) 0.5928(3)
H4 H 0.2765 0.3119 0.6271
H5 H 0.4060 0.3864 0.5626
H6 H 0.2433 0.4729 0.5277
C13 C 0.2541(3) 0.3819(3) 0.7994(3)
C14 C 0.2228(4) 0.2476(3) 0.8324(3)
H7 H 0.2300 0.2082 0.7753
C15 C 0.1816(4) 0.1733(4) 0.9475(3)
H8 H 0.1608 0.0825 0.9692
C16 C 0.1700(4) 0.2290(4) 1.0320(3)
H9 H 0.1417 0.1763 1.1111
C17 C 0.1992(4) 0.3599(4) 1.0019(3)
H10 H 0.1903 0.3980 1.0601
C18 C 0.2420(3) 0.4380(3) 0.8856(3)
C19 C 0.2812(3) 0.5718(3) 0.8509(2)
C20 C 0.3699(3) 0.6596(3) 0.9718(3)
C21 C 0.3216(3) 0.7083(3) 1.0694(3)
C22 C 0.4084(4) 0.7770(4) 1.0947(3)
H11 H 0.4927 0.7953 1.0481
C23 C 0.3721(4) 0.8190(5) 1.1879(4)
H12 H 0.4301 0.8682 1.2043
C24 C 0.2515(4) 0.7894(5) 1.2571(3)
H13 H 0.2282 0.8163 1.3223
C25 C 0.1643(4) 0.7209(4) 1.2324(3)
H14 H 0.0814 0.7006 1.2803
C26 C 0.1989(4) 0.6819(4) 1.1368(3)
H15 H 0.1382 0.6371 1.1179
N1 N 0.2984(3) 0.4583(3) 0.6845(2)
O1 O 0.3712(2) 1.0118(2) 0.66107(18)
O2 O 0.3753(3) 0.6523(2) 0.54730(18)
O3 O 0.2586(2) 0.6248(2) 0.93851(18)
O4 O 0.4869(2) 0.6506(2) 0.92671(18)
F1 F 0.1184(2) 0.9649(2) 0.82909(18)
F2 F 0.0616(2) 0.8740(2) 0.7225(2)
F3 F 0.0831(3) 1.0928(2) 0.6454(2)
Br1 Br 0.95119(4) 0.64572(4) 0.62563(4)
loop_
_geom_bond_atom_site_label_1
_geom_bond_atom_site_label_2
_geom_bond_site_symmetry_1
_geom_bond_site_symmetry_2
C1 C2 1_555 1_555
C2 H1 1_555 1_555
C3 C2 1_555 1_555
H2 C3 1_555 1_555
C4 C3 1_555 1_555
C5 C4 1_555 1_555
C6 C1 1_555 1_555
H3 C6 1_555 1_555
C7 C5 1_555 1_555
C8 C7 1_555 1_555
C9 C8 1_555 1_555
C10 C7 1_555 1_555
C11 C10 1_555 1_555
C12 H4 1_555 1_555
H5 C12 1_555 1_555
H6 C12 1_555 1_555
C13 C14 1_555 1_555
C14 H7 1_555 1_555
C15 C14 1_555 1_555
H8 C15 1_555 1_555
C16 C15 1_555 1_555
H9 C16 1_555 1_555
C17 C16 1_555 1_555
H10 C17 1_555 1_555
C18 C13 1_555 1_555
C19 C10 1_555 1_555
C20 C21 1_555 1_555
C21 C22 1_555 1_555
C22 H11 1_555 1_555
C23 C22 1_555 1_555
H12 C23 1_555 1_555
C24 C23 1_555 1_555
H13 C24 1_555 1_555
C25 C24 1_555 1_555
H14 C25 1_555 1_555
C26 C21 1_555 1_555
H15 C26 1_555 1_555
N1 C11 1_555 1_555
O1 C4 1_555 1_555
O2 C11 1_555 1_555
O3 C19 1_555 1_555
O4 C20 1_555 1_555
F1 C9 1_555 1_555
F2 C9 1_555 1_555
F3 C9 1_555 1_555
Br1 C1 1_555 1_555
C5 C6 1_555 1_555
C8 O1 1_555 1_555
C12 N1 1_555 1_555
C13 N1 1_555 1_555
C17 C18 1_555 1_555
C18 C19 1_555 1_555
C20 O3 1_555 1_555
C25 C26 1_555 1_555

#END
