
#######################################################################
#
#                 Cambridge Crystallographic Data Centre
#                                CCDC 
#
#######################################################################
#
# If this CIF has been generated from an entry in the Cambridge 
# Structural Database, then it will include bibliographic, chemical, 
# crystal, experimental, refinement or atomic coordinate data resulting 
# from the CCDC's data processing and validation procedures.
#
#######################################################################

data_JEZCEZ
_chemical_formula_moiety         'C50 H71 N3 O1 P2,C2 H3 N1'
_chemical_name_systematic        
'1,3-bis[2,6-diisopropylphenyl]-2-[({2-[2,6-diisopropylphenyl]-3,3-dimethyl-2-azaspiro[4.5]decan-1-ylidene}methylidene)phosphanyl]-2,3-dihydro-1H-1,3,2-diazaphosphol-2-one acetonitrile solvate'
_symmetry_cell_setting           triclinic
_symmetry_space_group_name_H-M   'P -1'
_symmetry_Int_Tables_number      2
_space_group_name_Hall           '-P 1'
loop_
_symmetry_equiv_pos_site_id
_symmetry_equiv_pos_as_xyz
1 x,y,z
2 -x,-y,-z
_cell_length_a                   11.2851(4)
_cell_length_b                   12.7762(4)
_cell_length_c                   16.9337(6)
_cell_angle_alpha                92.170(3)
_cell_angle_beta                 97.578(3)
_cell_angle_gamma                90.558(3)
_cell_volume                     2418.19
_exptl_crystal_colour            pink
_exptl_crystal_description       block
_cell_formula_units_Z            2
loop_
_atom_site_label
_atom_site_type_symbol
_atom_site_fract_x
_atom_site_fract_y
_atom_site_fract_z
P1 P 0.24808(4) 0.61509(3) 0.29679(2)
P2 P 0.41722(4) 0.70974(3) 0.32425(3)
O1 O 0.15400(12) 0.66723(10) 0.24354(8)
N1 N 0.28253(13) 0.49103(11) 0.26942(8)
N2 N 0.21383(13) 0.57393(11) 0.38509(8)
N3 N 0.33509(15) 0.96398(12) 0.20104(9)
C1 C 0.22411(16) 0.46439(13) 0.39135(10)
H1 H 0.2074 0.4285 0.4354
C2 C 0.26032(16) 0.41841(13) 0.32723(10)
H2 H 0.2700 0.3465 0.3209
C3 C 0.38025(17) 0.45446(14) 0.15032(10)
C4 C 0.17286(16) 0.63799(13) 0.44778(10)
C5 C 0.25404(17) 0.66616(14) 0.51549(11)
C6 C 0.27549(16) 0.45610(13) 0.18676(10)
C7 C 0.26610(18) 0.98375(14) 0.32786(12)
C8 C 0.05165(17) 0.66664(14) 0.44116(11)
C9 C 0.32953(17) 0.91486(14) 0.27089(11)
C10 C 0.16401(17) 0.42385(14) 0.14557(11)
C11 C 0.04865(17) 0.42767(16) 0.18339(12)
H3 H 0.0665 0.4640 0.2357
C12 C 0.50177(17) 0.48878(16) 0.19332(11)
H4 H 0.4914 0.5095 0.2483
C13 C 0.53284(19) 0.94524(15) 0.15747(11)
C14 C -0.03740(17) 0.63296(17) 0.36960(12)
H5 H 0.0051 0.6305 0.3227
C15 C 0.38390(18) 0.63454(17) 0.52433(11)
H6 H 0.4014 0.6098 0.4717
C16 C 0.3556(2) 1.02408(18) 0.39842(14)
H7 H 0.4150 1.0681 0.3789
H8 H 0.3965 0.9650 0.4233
C17 C 0.2114(2) 0.72300(17) 0.57754(12)
H9 H 0.2636 0.7416 0.6232
C18 C 0.4324(2) 0.83326(18) 0.02030(12)
H10 H 0.3996 0.7955 -0.0255
C19 C 0.40949(18) 0.92507(14) 0.14378(11)
C20 C 0.16637(19) 0.92150(16) 0.35932(13)
H11 H 0.1072 0.8991 0.3149
H12 H 0.1999 0.8593 0.3842
C21 C 0.3579(2) 0.86487(16) 0.07613(11)
C22 C 0.37096(19) 0.82132(15) 0.29017(11)
C23 C 0.37082(19) 0.41832(17) 0.07068(11)
H13 H 0.4388 0.4168 0.0450
C24 C 0.16050(19) 0.38753(17) 0.06670(12)
H14 H 0.0880 0.3646 0.0385
C25 C 0.2624(2) 0.38484(19) 0.02942(12)
H15 H 0.2580 0.3605 -0.0234
C26 C 0.1957(2) 1.02334(19) 0.48975(14)
H16 H 0.2291 0.9634 0.5178
H17 H 0.1560 1.0662 0.5265
C27 C 0.6030(2) 0.91092(18) 0.09999(13)
H18 H 0.6849 0.9248 0.1079
C28 C 0.5524(2) 0.85636(19) 0.03119(14)
H19 H 0.5998 0.8355 -0.0074
C29 C 0.0149(2) 0.72442(17) 0.50490(13)
H20 H -0.0643 0.7449 0.5020
C30 C 0.0936(2) 0.75200(18) 0.57236(13)
H21 H 0.0668 0.7902 0.6142
C31 C 0.2797(2) 1.06980(16) 0.19826(13)
C32 C 0.2153(3) 1.07099(17) 0.27227(15)
H22 H 0.1302 1.0593 0.2566
H23 H 0.2267 1.1387 0.3003
C33 C 0.2285(2) 0.82799(18) 0.06375(13)
H24 H 0.1897 0.8556 0.1085
C34 C -0.0474(2) 0.4898(2) 0.13349(15)
H25 H -0.0169 0.5587 0.1261
H26 H -0.1168 0.4953 0.1606
H27 H -0.0687 0.4545 0.0825
C35 C 0.1056(2) 0.98605(18) 0.41982(14)
H28 H 0.0675 1.0460 0.3943
H29 H 0.0441 0.9437 0.4388
C36 C 0.2213(3) 0.70799(19) 0.06282(15)
H30 H 0.2574 0.6796 0.0186
H31 H 0.1391 0.6857 0.0577
H32 H 0.2630 0.6836 0.1116
C37 C 0.5962(2) 0.99669(19) 0.23442(13)
H33 H 0.5351 1.0219 0.2663
C38 C 0.2963(2) 1.0871(2) 0.46134(15)
H34 H 0.3559 1.1061 0.5064
H35 H 0.2642 1.1511 0.4387
C39 C 0.5515(2) 0.5837(2) 0.15555(14)
H36 H 0.5671 0.5644 0.1026
H37 H 0.6244 0.6074 0.1871
H38 H 0.4942 0.6389 0.1532
C40 C 0.5899(2) 0.3984(2) 0.19663(15)
H39 H 0.5583 0.3408 0.2225
H40 H 0.6649 0.4212 0.2260
H41 H 0.6018 0.3764 0.1434
C41 C 0.3744(3) 1.15882(18) 0.20386(16)
H42 H 0.4235 1.1583 0.2547
H43 H 0.3351 1.2250 0.1983
H44 H 0.4235 1.1485 0.1621
C42 C 0.6720(2) 0.9154(3) 0.28254(16)
H45 H 0.6222 0.8567 0.2913
H46 H 0.7061 0.9468 0.3329
H47 H 0.7348 0.8921 0.2534
C43 C 0.4075(2) 0.54410(19) 0.58042(13)
H48 H 0.3839 0.5636 0.6313
H49 H 0.4911 0.5284 0.5869
H50 H 0.3622 0.4834 0.5583
C44 C 0.0016(2) 0.31786(19) 0.19661(15)
H51 H -0.0124 0.2790 0.1465
H52 H -0.0718 0.3232 0.2192
H53 H 0.0596 0.2824 0.2324
C45 C 0.1983(3) 1.0831(2) 0.12030(16)
H54 H 0.2426 1.0705 0.0763
H55 H 0.1683 1.1532 0.1188
H56 H 0.1325 1.0341 0.1165
C46 C 0.1603(3) 0.8672(2) -0.01374(16)
H57 H 0.1669 0.9422 -0.0138
H58 H 0.0776 0.8468 -0.0174
H59 H 0.1938 0.8372 -0.0585
C47 C 0.4687(2) 0.7267(2) 0.55162(17)
H60 H 0.4504 0.7840 0.5172
H61 H 0.5497 0.7057 0.5495
H62 H 0.4593 0.7484 0.6053
C48 C -0.0862(2) 0.5237(2) 0.37937(16)
H63 H -0.0211 0.4758 0.3877
H64 H -0.1386 0.5020 0.3322
H65 H -0.1297 0.5243 0.4244
C49 C 0.6748(3) 1.0902(2) 0.21944(17)
H66 H 0.7387 1.0664 0.1914
H67 H 0.7074 1.1234 0.2695
H68 H 0.6275 1.1395 0.1880
C50 C -0.1406(3) 0.7097(3) 0.3539(2)
H69 H -0.1905 0.7062 0.3955
H70 H -0.1871 0.6914 0.3035
H71 H -0.1090 0.7796 0.3528
N4 N -0.0624(3) 0.9760(3) 0.1753(3)
C51 C -0.0731(4) 0.7758(3) 0.1461(3)
H72 H -0.0783 0.7605 0.0898
H73 H -0.1425 0.7479 0.1657
H74 H -0.0027 0.7446 0.1729
C52 C -0.0670(3) 0.8850(3) 0.1608(2)
loop_
_geom_bond_atom_site_label_1
_geom_bond_atom_site_label_2
_geom_bond_site_symmetry_1
_geom_bond_site_symmetry_2
P1 P2 1_555 1_555
P2 C22 1_555 1_555
O1 P1 1_555 1_555
N1 P1 1_555 1_555
N2 P1 1_555 1_555
N3 C9 1_555 1_555
C1 N2 1_555 1_555
H1 C1 1_555 1_555
C2 N1 1_555 1_555
H2 C2 1_555 1_555
C3 C6 1_555 1_555
C4 N2 1_555 1_555
C5 C4 1_555 1_555
C6 N1 1_555 1_555
C7 C9 1_555 1_555
C8 C4 1_555 1_555
C9 C22 1_555 1_555
C10 C6 1_555 1_555
C11 C10 1_555 1_555
H3 C11 1_555 1_555
C12 C3 1_555 1_555
H4 C12 1_555 1_555
C13 C19 1_555 1_555
C14 C8 1_555 1_555
H5 C14 1_555 1_555
C15 C5 1_555 1_555
H6 C15 1_555 1_555
C16 C7 1_555 1_555
H7 C16 1_555 1_555
H8 C16 1_555 1_555
C17 C5 1_555 1_555
H9 C17 1_555 1_555
C18 H10 1_555 1_555
C19 N3 1_555 1_555
C20 C7 1_555 1_555
H11 C20 1_555 1_555
H12 C20 1_555 1_555
C21 C18 1_555 1_555
C23 C3 1_555 1_555
H13 C23 1_555 1_555
C24 C10 1_555 1_555
H14 C24 1_555 1_555
C25 C23 1_555 1_555
H15 C25 1_555 1_555
C26 H16 1_555 1_555
H17 C26 1_555 1_555
C27 C13 1_555 1_555
H18 C27 1_555 1_555
C28 C18 1_555 1_555
H19 C28 1_555 1_555
C29 C8 1_555 1_555
H20 C29 1_555 1_555
C30 C17 1_555 1_555
H21 C30 1_555 1_555
C31 N3 1_555 1_555
C32 C7 1_555 1_555
H22 C32 1_555 1_555
H23 C32 1_555 1_555
C33 C21 1_555 1_555
H24 C33 1_555 1_555
C34 C11 1_555 1_555
H25 C34 1_555 1_555
H26 C34 1_555 1_555
H27 C34 1_555 1_555
C35 C20 1_555 1_555
H28 C35 1_555 1_555
H29 C35 1_555 1_555
C36 C33 1_555 1_555
H30 C36 1_555 1_555
H31 C36 1_555 1_555
H32 C36 1_555 1_555
C37 C13 1_555 1_555
H33 C37 1_555 1_555
C38 C16 1_555 1_555
H34 C38 1_555 1_555
H35 C38 1_555 1_555
C39 C12 1_555 1_555
H36 C39 1_555 1_555
H37 C39 1_555 1_555
H38 C39 1_555 1_555
C40 C12 1_555 1_555
H39 C40 1_555 1_555
H40 C40 1_555 1_555
H41 C40 1_555 1_555
C41 C31 1_555 1_555
H42 C41 1_555 1_555
H43 C41 1_555 1_555
H44 C41 1_555 1_555
C42 C37 1_555 1_555
H45 C42 1_555 1_555
H46 C42 1_555 1_555
H47 C42 1_555 1_555
C43 C15 1_555 1_555
H48 C43 1_555 1_555
H49 C43 1_555 1_555
H50 C43 1_555 1_555
C44 C11 1_555 1_555
H51 C44 1_555 1_555
H52 C44 1_555 1_555
H53 C44 1_555 1_555
C45 C31 1_555 1_555
H54 C45 1_555 1_555
H55 C45 1_555 1_555
H56 C45 1_555 1_555
C46 C33 1_555 1_555
H57 C46 1_555 1_555
H58 C46 1_555 1_555
H59 C46 1_555 1_555
C47 C15 1_555 1_555
H60 C47 1_555 1_555
H61 C47 1_555 1_555
H62 C47 1_555 1_555
C48 C14 1_555 1_555
H63 C48 1_555 1_555
H64 C48 1_555 1_555
H65 C48 1_555 1_555
C49 C37 1_555 1_555
H66 C49 1_555 1_555
H67 C49 1_555 1_555
H68 C49 1_555 1_555
C50 C14 1_555 1_555
H69 C50 1_555 1_555
H70 C50 1_555 1_555
H71 C50 1_555 1_555
N4 C52 1_555 1_555
C51 H72 1_555 1_555
H73 C51 1_555 1_555
H74 C51 1_555 1_555
C52 C51 1_555 1_555
C1 C2 1_555 1_555
C19 C21 1_555 1_555
C24 C25 1_555 1_555
C26 C35 1_555 1_555
C26 C38 1_555 1_555
C27 C28 1_555 1_555
C29 C30 1_555 1_555
C31 C32 1_555 1_555

#END
