
#######################################################################
#
#                 Cambridge Crystallographic Data Centre
#                                CCDC 
#
#######################################################################
#
# If this CIF has been generated from an entry in the Cambridge 
# Structural Database, then it will include bibliographic, chemical, 
# crystal, experimental, refinement or atomic coordinate data resulting 
# from the CCDC's data processing and validation procedures.
#
#######################################################################

data_JEZDIE
_chemical_formula_moiety         'C63 H93 N3 P3 1+,C6 H5 F1,F6 P1 1-'
_chemical_name_systematic        
'5-(3,5-bis{1-[2,6-diisopropylphenyl]-3,3,5,5-tetramethylpyrrolidin-2-ylidene}-2,4,6-triphosphatricyclo[2.2.0.0^2,6^]hexan-1-yl)-1-[2,6-diisopropylphenyl]-2,2,4,4-tetramethyl-3,4-dihydro-2H-pyrrol-1-ium hexafluorophosphate fluorobenzene solvate'
_symmetry_cell_setting           monoclinic
_symmetry_space_group_name_H-M   'P 21/n'
_symmetry_Int_Tables_number      14
_space_group_name_Hall           '-P 2yn'
loop_
_symmetry_equiv_pos_site_id
_symmetry_equiv_pos_as_xyz
1 x,y,z
2 1/2-x,1/2+y,1/2-z
3 -x,-y,-z
4 1/2+x,1/2-y,1/2+z
_cell_length_a                   13.61923(13)
_cell_length_b                   21.2145(2)
_cell_length_c                   23.4165(3)
_cell_angle_alpha                90
_cell_angle_beta                 91.0530(9)
_cell_angle_gamma                90
_cell_volume                     6764.47
_exptl_crystal_colour            orange
_exptl_crystal_description       block
_cell_formula_units_Z            4
loop_
_atom_site_label
_atom_site_type_symbol
_atom_site_fract_x
_atom_site_fract_y
_atom_site_fract_z
P1 P 0.78459(4) 0.14138(3) 0.05879(3)
P2 P 0.71246(5) 0.24028(3) 0.12253(3)
P3 P 0.71153(5) 0.25846(3) 0.02942(3)
N1 N 1.00233(15) 0.23816(10) 0.07671(9)
N2 N 0.60498(16) 0.13575(11) 0.20377(10)
C1 C 0.70655(18) 0.17791(12) 0.00363(11)
C2 C 0.67441(17) 0.15824(12) -0.04909(10)
N3 N 0.61762(15) 0.19357(10) -0.08639(9)
C3 C 0.91288(18) 0.26043(11) 0.08479(10)
C4 C 0.65625(18) 0.11589(12) 0.15689(11)
C5 C 1.02641(18) 0.18442(13) 0.04080(11)
C6 C 0.82276(18) 0.22748(11) 0.07405(11)
C7 C 0.70352(18) 0.15491(12) 0.12023(11)
C8 C 0.55436(19) 0.24420(12) -0.06875(11)
C9 C 1.08179(19) 0.28256(14) 0.10093(12)
C10 C 0.62122(19) 0.19656(14) 0.22933(11)
C11 C 0.70040(19) 0.09510(12) -0.07694(11)
C12 C 1.0780(2) 0.07768(14) 0.02712(14)
H1 H 1.0963 0.0377 0.0422
C13 C 0.6342(2) 0.09575(13) -0.13116(11)
H2 H 0.6685 0.0757 -0.1634
H3 H 0.5727 0.0723 -0.1244
C14 C 1.0048(2) 0.25803(14) -0.04715(12)
H4 H 0.9970 0.2904 -0.0165
C15 C 0.6116(2) 0.16447(13) -0.14496(11)
C16 C 1.02572(18) 0.19510(14) -0.01867(12)
C17 C 0.6750(2) 0.03817(13) -0.04032(12)
H5 H 0.7195 0.0365 -0.0070
H6 H 0.6821 -0.0004 -0.0629
H7 H 0.6071 0.0418 -0.0276
C18 C 1.05505(19) 0.12645(13) 0.06468(12)
C19 C 1.0267(2) 0.34458(13) 0.09836(12)
H8 H 1.0358 0.3652 0.0609
H9 H 1.0509 0.3734 0.1288
C20 C 1.0652(2) 0.11374(14) 0.12825(13)
H10 H 1.0407 0.1515 0.1492
C21 C 0.7285(2) 0.26712(16) 0.28217(13)
H11 H 0.7882 0.2751 0.3025
C22 C 1.1106(2) 0.26441(15) 0.16197(14)
H12 H 1.0513 0.2552 0.1835
H13 H 1.1463 0.2994 0.1802
H14 H 1.1527 0.2270 0.1614
C23 C 0.6499(2) 0.04396(13) 0.15316(12)
C24 C 0.4572(2) 0.23768(17) 0.18870(14)
H15 H 0.4565 0.1948 0.1711
C25 C 0.4082(2) 0.27703(16) -0.02000(13)
H16 H 0.3515 0.2670 0.0012
C26 C 0.4691(2) 0.22846(14) -0.03827(12)
C27 C 1.0051(3) 0.05678(16) 0.14615(15)
H17 H 0.9353 0.0647 0.1380
H18 H 1.0148 0.0493 0.1872
H19 H 1.0263 0.0196 0.1248
C28 C 0.7865(2) 0.15633(15) 0.27070(12)
H20 H 0.7585 0.1152 0.2573
C29 C 0.3336(2) 0.14748(17) -0.04723(15)
H21 H 0.2859 0.1709 -0.0247
H22 H 0.3204 0.1022 -0.0442
H23 H 0.3279 0.1604 -0.0873
C30 C 0.9182(2) 0.32879(12) 0.10693(12)
C31 C 0.5751(2) 0.30771(13) -0.08152(12)
C32 C 0.6631(2) 0.32917(14) -0.11524(13)
H24 H 0.7075 0.2922 -0.1206
C33 C 0.5527(2) 0.24547(15) 0.22203(12)
C34 C 1.0499(2) 0.14386(15) -0.05381(13)
H25 H 1.0489 0.1493 -0.0941
C35 C 0.5836(2) 0.02291(15) 0.10276(13)
H26 H 0.5160 0.0363 0.1094
H27 H 0.5859 -0.0231 0.0993
H28 H 0.6069 0.0421 0.0674
C36 C 1.0749(2) 0.08619(16) -0.03139(14)
H29 H 1.0900 0.0521 -0.0561
C37 C 0.5739(2) 0.30439(16) 0.24596(14)
H30 H 0.5271 0.3374 0.2423
C38 C 0.7214(3) 0.38112(16) -0.08475(16)
H31 H 0.6808 0.4191 -0.0822
H32 H 0.7806 0.3906 -0.1063
H33 H 0.7402 0.3670 -0.0462
C39 C 0.6302(3) 0.35341(16) -0.17466(14)
H34 H 0.5946 0.3199 -0.1952
H35 H 0.6880 0.3657 -0.1963
H36 H 0.5870 0.3900 -0.1702
C40 C 0.3705(3) 0.2424(2) 0.22927(18)
H37 H 0.3815 0.2140 0.2618
H38 H 0.3099 0.2302 0.2089
H39 H 0.3646 0.2858 0.2430
C41 C 0.6610(3) 0.31540(17) 0.27459(14)
H40 H 0.6750 0.3562 0.2893
C42 C 0.6878(2) 0.19197(15) -0.18514(12)
H41 H 0.6658 0.2335 -0.1985
H42 H 0.6954 0.1638 -0.2180
H43 H 0.7509 0.1962 -0.1647
C43 C 0.4378(2) 0.16142(14) -0.02455(13)
H44 H 0.4840 0.1319 -0.0438
C44 C 0.7101(2) 0.20686(14) 0.26038(11)
C45 C 0.9101(2) 0.25692(16) -0.08359(13)
H45 H 0.9171 0.2266 -0.1149
H46 H 0.8977 0.2990 -0.0994
H47 H 0.8549 0.2444 -0.0598
C46 C 0.8804(2) 0.16934(17) 0.23727(14)
H48 H 0.8643 0.1714 0.1963
H49 H 0.9278 0.1354 0.2444
H50 H 0.9089 0.2096 0.2498
C47 C 1.1730(2) 0.28188(19) 0.06437(16)
H51 H 1.1984 0.2387 0.0619
H52 H 1.2233 0.3092 0.0817
H53 H 1.1562 0.2972 0.0259
C48 C 0.5481(2) 0.08361(15) 0.23117(12)
C49 C 0.4287(2) 0.33935(16) -0.03202(15)
H54 H 0.3867 0.3718 -0.0189
C50 C 0.4438(2) 0.14860(17) 0.03973(14)
H55 H 0.5113 0.1554 0.0536
H56 H 0.4246 0.1049 0.0472
H57 H 0.3995 0.1773 0.0596
C51 C 0.4406(2) 0.08164(18) 0.21057(15)
H58 H 0.4053 0.1178 0.2262
H59 H 0.4101 0.0425 0.2236
H60 H 0.4377 0.0834 0.1688
C52 C 0.8889(2) 0.33674(16) 0.16960(14)
H61 H 0.8176 0.3321 0.1726
H62 H 0.9086 0.3787 0.1831
H63 H 0.9218 0.3045 0.1930
C53 C 1.0897(2) 0.27886(18) -0.08529(14)
H64 H 1.1522 0.2736 -0.0644
H65 H 1.0810 0.3233 -0.0958
H66 H 1.0899 0.2530 -0.1199
C54 C 0.6051(2) 0.02638(15) 0.21093(13)
H67 H 0.5607 -0.0103 0.2064
H68 H 0.6576 0.0154 0.2390
C55 C 0.8099(2) 0.09176(14) -0.09076(13)
H69 H 0.8277 0.1280 -0.1144
H70 H 0.8233 0.0527 -0.1116
H71 H 0.8489 0.0925 -0.0552
C56 C 0.5097(2) 0.35399(14) -0.06297(15)
H72 H 0.5220 0.3968 -0.0722
C57 C 0.8546(2) 0.37277(14) 0.06986(16)
H73 H 0.8686 0.3655 0.0295
H74 H 0.8695 0.4167 0.0797
H75 H 0.7851 0.3643 0.0767
C58 C 0.5098(2) 0.17233(16) -0.17199(13)
H76 H 0.4608 0.1535 -0.1471
H77 H 0.5076 0.1513 -0.2093
H78 H 0.4955 0.2173 -0.1770
C59 C 1.1732(2) 0.10368(16) 0.14503(15)
H79 H 1.1962 0.0639 0.1287
H80 H 1.1800 0.1020 0.1867
H81 H 1.2125 0.1386 0.1304
C60 C 0.7500(2) 0.01292(15) 0.14716(15)
H82 H 0.7774 0.0241 0.1101
H83 H 0.7428 -0.0330 0.1497
H84 H 0.7942 0.0277 0.1778
C61 C 0.4462(3) 0.2865(2) 0.14092(16)
H85 H 0.4418 0.3287 0.1576
H86 H 0.3865 0.2776 0.1184
H87 H 0.5034 0.2843 0.1162
C62 C 0.8133(3) 0.1502(2) 0.33425(14)
H88 H 0.8411 0.1900 0.3482
H89 H 0.8617 0.1164 0.3395
H90 H 0.7542 0.1401 0.3557
C63 C 0.5489(3) 0.0897(2) 0.29602(14)
H91 H 0.6169 0.0898 0.3105
H92 H 0.5136 0.0540 0.3125
H93 H 0.5167 0.1291 0.3068
P4 P 0.23957(8) 0.45759(4) 0.19411(4)
F1 F 0.1427(2) 0.42332(14) 0.21537(12)
F2 F 0.3056(2) 0.40099(15) 0.21692(17)
F3 F 0.3344(2) 0.49145(14) 0.17199(15)
F4 F 0.2496(2) 0.48830(16) 0.25547(13)
F5 F 0.1731(3) 0.51394(17) 0.17317(16)
F6 F 0.2286(3) 0.4241(2) 0.13405(14)
C64 C 0.6728(6) 0.4843(3) 0.0672(4)
H94 H 0.7164 0.4926 0.0369
C65 C 0.5439(5) 0.4630(3) 0.1551(3)
H95 H 0.4999 0.4564 0.1856
C66 C 0.5140(6) 0.4559(3) 0.0976(4)
H96 H 0.4484 0.4443 0.0882
C67 C 0.5789(6) 0.4656(4) 0.0564(3)
H97 H 0.5584 0.4592 0.0178
C68 C 0.7032(5) 0.4907(4) 0.1239(4)
H98 H 0.7688 0.5026 0.1333
F7 F 0.6670(4) 0.4886(4) 0.2190(3)
C69 C 0.6384(5) 0.4799(3) 0.1648(4)
F8? F 0.1132(6) 0.4300(4) -0.0458(5)
C70? C 0.0473(4) 0.4682(3) -0.0229(3)
C71? C -0.0427(5) 0.4781(3) -0.0503(3)
H99? H -0.0567 0.4581 -0.0859
C72? C -0.1123(4) 0.5170(4) -0.0258(4)
H100? H -0.1738 0.5237 -0.0446
C73? C -0.0918(5) 0.5462(3) 0.0262(4)
H101? H -0.1393 0.5728 0.0430
C74? C -0.0018(6) 0.5364(3) 0.0537(3)
H102? H 0.0122 0.5563 0.0893
C75? C 0.0678(4) 0.4974(3) 0.0292(3)
H103? H 0.1294 0.4907 0.0479
loop_
_geom_bond_atom_site_label_1
_geom_bond_atom_site_label_2
_geom_bond_site_symmetry_1
_geom_bond_site_symmetry_2
P1 C1 1_555 1_555
P2 P3 1_555 1_555
P3 C1 1_555 1_555
N1 C3 1_555 1_555
N2 C4 1_555 1_555
C1 C2 1_555 1_555
C2 N3 1_555 1_555
N3 C8 1_555 1_555
C3 C6 1_555 1_555
C4 C7 1_555 1_555
C5 N1 1_555 1_555
C6 P1 1_555 1_555
C7 P1 1_555 1_555
C8 C26 1_555 1_555
C9 N1 1_555 1_555
C10 N2 1_555 1_555
C11 C2 1_555 1_555
C12 H1 1_555 1_555
C13 C11 1_555 1_555
H2 C13 1_555 1_555
H3 C13 1_555 1_555
C14 H4 1_555 1_555
C15 N3 1_555 1_555
C16 C5 1_555 1_555
C17 C11 1_555 1_555
H5 C17 1_555 1_555
H6 C17 1_555 1_555
H7 C17 1_555 1_555
C18 C5 1_555 1_555
C19 C9 1_555 1_555
H8 C19 1_555 1_555
H9 C19 1_555 1_555
C20 C18 1_555 1_555
H10 C20 1_555 1_555
C21 H11 1_555 1_555
C22 C9 1_555 1_555
H12 C22 1_555 1_555
H13 C22 1_555 1_555
H14 C22 1_555 1_555
C23 C4 1_555 1_555
C24 H15 1_555 1_555
C25 H16 1_555 1_555
C26 C25 1_555 1_555
C27 C20 1_555 1_555
H17 C27 1_555 1_555
H18 C27 1_555 1_555
H19 C27 1_555 1_555
C28 H20 1_555 1_555
C29 H21 1_555 1_555
H22 C29 1_555 1_555
H23 C29 1_555 1_555
C30 C3 1_555 1_555
C31 C8 1_555 1_555
C32 C31 1_555 1_555
H24 C32 1_555 1_555
C33 C10 1_555 1_555
C34 C16 1_555 1_555
H25 C34 1_555 1_555
C35 C23 1_555 1_555
H26 C35 1_555 1_555
H27 C35 1_555 1_555
H28 C35 1_555 1_555
C36 C12 1_555 1_555
H29 C36 1_555 1_555
C37 C33 1_555 1_555
H30 C37 1_555 1_555
C38 C32 1_555 1_555
H31 C38 1_555 1_555
H32 C38 1_555 1_555
H33 C38 1_555 1_555
C39 C32 1_555 1_555
H34 C39 1_555 1_555
H35 C39 1_555 1_555
H36 C39 1_555 1_555
C40 C24 1_555 1_555
H37 C40 1_555 1_555
H38 C40 1_555 1_555
H39 C40 1_555 1_555
C41 C21 1_555 1_555
H40 C41 1_555 1_555
C42 C15 1_555 1_555
H41 C42 1_555 1_555
H42 C42 1_555 1_555
H43 C42 1_555 1_555
C43 C26 1_555 1_555
H44 C43 1_555 1_555
C44 C10 1_555 1_555
C45 C14 1_555 1_555
H45 C45 1_555 1_555
H46 C45 1_555 1_555
H47 C45 1_555 1_555
C46 C28 1_555 1_555
H48 C46 1_555 1_555
H49 C46 1_555 1_555
H50 C46 1_555 1_555
C47 C9 1_555 1_555
H51 C47 1_555 1_555
H52 C47 1_555 1_555
H53 C47 1_555 1_555
C48 N2 1_555 1_555
C49 C25 1_555 1_555
H54 C49 1_555 1_555
C50 C43 1_555 1_555
H55 C50 1_555 1_555
H56 C50 1_555 1_555
H57 C50 1_555 1_555
C51 C48 1_555 1_555
H58 C51 1_555 1_555
H59 C51 1_555 1_555
H60 C51 1_555 1_555
C52 C30 1_555 1_555
H61 C52 1_555 1_555
H62 C52 1_555 1_555
H63 C52 1_555 1_555
C53 C14 1_555 1_555
H64 C53 1_555 1_555
H65 C53 1_555 1_555
H66 C53 1_555 1_555
C54 C23 1_555 1_555
H67 C54 1_555 1_555
H68 C54 1_555 1_555
C55 C11 1_555 1_555
H69 C55 1_555 1_555
H70 C55 1_555 1_555
H71 C55 1_555 1_555
C56 C31 1_555 1_555
H72 C56 1_555 1_555
C57 C30 1_555 1_555
H73 C57 1_555 1_555
H74 C57 1_555 1_555
H75 C57 1_555 1_555
C58 C15 1_555 1_555
H76 C58 1_555 1_555
H77 C58 1_555 1_555
H78 C58 1_555 1_555
C59 C20 1_555 1_555
H79 C59 1_555 1_555
H80 C59 1_555 1_555
H81 C59 1_555 1_555
C60 C23 1_555 1_555
H82 C60 1_555 1_555
H83 C60 1_555 1_555
H84 C60 1_555 1_555
C61 C24 1_555 1_555
H85 C61 1_555 1_555
H86 C61 1_555 1_555
H87 C61 1_555 1_555
C62 C28 1_555 1_555
H88 C62 1_555 1_555
H89 C62 1_555 1_555
H90 C62 1_555 1_555
C63 C48 1_555 1_555
H91 C63 1_555 1_555
H92 C63 1_555 1_555
H93 C63 1_555 1_555
P4 F1 1_555 1_555
F2 P4 1_555 1_555
F3 P4 1_555 1_555
F4 P4 1_555 1_555
F5 P4 1_555 1_555
F6 P4 1_555 1_555
C64 H94 1_555 1_555
C65 H95 1_555 1_555
C66 C65 1_555 1_555
H96 C66 1_555 1_555
C67 C64 1_555 1_555
H97 C67 1_555 1_555
C68 C64 1_555 1_555
H98 C68 1_555 1_555
F7 C69 1_555 1_555
C69 C65 1_555 1_555
P2 C6 1_555 1_555
P2 C7 1_555 1_555
P3 C6 1_555 1_555
C12 C18 1_555 1_555
C13 C15 1_555 1_555
C14 C16 1_555 1_555
C19 C30 1_555 1_555
C21 C44 1_555 1_555
C24 C33 1_555 1_555
C28 C44 1_555 1_555
C29 C43 1_555 1_555
C34 C36 1_555 1_555
C37 C41 1_555 1_555
C48 C54 1_555 1_555
C49 C56 1_555 1_555
C66 C67 1_555 1_555
C68 C69 1_555 1_555

#END
