
#######################################################################
#
#                 Cambridge Crystallographic Data Centre
#                                CCDC 
#
#######################################################################
#
# If this CIF has been generated from an entry in the Cambridge 
# Structural Database, then it will include bibliographic, chemical, 
# crystal, experimental, refinement or atomic coordinate data resulting 
# from the CCDC's data processing and validation procedures.
#
#######################################################################

data_JEZDOK
_chemical_formula_moiety         'C72 H105 N3 P3 1+,5(C6 H5 F1),F6 P1 1-'
_chemical_name_systematic        
'1-(3,5-bis{2-[2,6-diisopropylphenyl]-3,3-dimethyl-2-azaspiro[4.5]decan-1-ylidene}-2,4,6-triphosphatricyclo[2.2.0.0^2,6^]hexan-1-yl)-2-[2,6-diisopropylphenyl]-3,3-dimethyl-2-azaspiro[4.5]dec-1-en-2-ium hexafluorophosphate fluorobenzene solvate'
_symmetry_cell_setting           triclinic
_symmetry_space_group_name_H-M   'P -1'
_symmetry_Int_Tables_number      2
_space_group_name_Hall           '-P 1'
loop_
_symmetry_equiv_pos_site_id
_symmetry_equiv_pos_as_xyz
1 x,y,z
2 -x,-y,-z
_cell_length_a                   14.8439(5)
_cell_length_b                   17.0075(6)
_cell_length_c                   18.3724(7)
_cell_angle_alpha                88.362(3)
_cell_angle_beta                 86.443(3)
_cell_angle_gamma                86.329(3)
_cell_volume                     4618.41
_exptl_crystal_colour            yellow
_exptl_crystal_description       block
_cell_formula_units_Z            2
loop_
_atom_site_label
_atom_site_type_symbol
_atom_site_fract_x
_atom_site_fract_y
_atom_site_fract_z
P1 P 0.20388(3) 0.37201(3) 0.37490(3)
P2 P 0.08405(3) 0.30949(3) 0.34667(3)
P3 P 0.22667(3) 0.29516(3) 0.24356(3)
N1 N 0.10160(13) 0.47663(10) 0.18657(9)
N2 N 0.41450(12) 0.31526(10) 0.40562(10)
N3 N 0.04175(12) 0.12886(10) 0.31769(9)
C1 C 0.14959(13) 0.38208(11) 0.28322(10)
C2 C 0.28211(15) 0.43203(13) 0.54997(12)
H1 H 0.2506 0.4244 0.5947
C3 C 0.02357(14) 0.14449(11) 0.39428(11)
C4 C 0.14030(14) 0.23486(12) 0.28885(10)
C5 C 0.38147(14) 0.45739(12) 0.41808(11)
C6 C 0.29101(13) 0.31159(11) 0.32463(11)
C7 C 0.37413(13) 0.38018(12) 0.44764(11)
C8 C 0.37828(14) 0.29321(11) 0.34255(11)
C9 C 0.10977(13) 0.16280(11) 0.27607(10)
C10 C 0.14178(15) 0.10885(12) 0.21270(11)
C11 C 0.17584(15) 0.06951(12) 0.42093(12)
H2 H 0.1742 0.0572 0.3693
C12 C 0.43781(15) 0.47667(13) 0.34873(12)
H3 H 0.4698 0.4278 0.3317
C13 C 0.14581(15) 0.56693(12) 0.33726(12)
H4 H 0.1831 0.5301 0.3655
H5 H 0.1839 0.5879 0.2975
C14 C 0.31770(15) 0.28624(13) 0.55045(12)
H6 H 0.3420 0.2467 0.5154
C15 C 0.07010(14) 0.52248(11) 0.30542(11)
C16 C 0.08887(14) 0.11723(11) 0.44351(11)
C17 C 0.07266(15) 0.13374(12) 0.51713(12)
H7 H 0.1159 0.1173 0.5498
C18 C 0.12099(16) 0.42453(13) 0.12508(11)
C19 C 0.45297(14) 0.24779(12) 0.29576(11)
C20 C 0.00802(15) 0.49317(12) 0.36912(12)
H8 H -0.0406 0.4658 0.3503
H9 H 0.0422 0.4564 0.3998
C21 C -0.13323(15) 0.21212(13) 0.37129(13)
H10 H -0.1108 0.2057 0.3204
C22 C 0.33477(15) 0.51975(12) 0.45524(12)
H11 H 0.3372 0.5707 0.4358
C23 C -0.05772(15) 0.18437(12) 0.42004(12)
C24 C 0.32533(14) 0.36712(12) 0.51453(11)
C25 C 0.10974(13) 0.45586(11) 0.25585(11)
C26 C 0.28520(15) 0.50718(13) 0.52014(12)
H12 H 0.2540 0.5493 0.5437
C27 C -0.07093(16) 0.19787(13) 0.49466(13)
H13 H -0.1247 0.2236 0.5123
C28 C 0.53845(14) 0.25975(13) 0.33647(13)
H14 H 0.5786 0.2124 0.3347
H15 H 0.5706 0.3030 0.3142
C29 C 0.09239(16) 0.03332(12) 0.23241(12)
H16 H 0.0730 0.0104 0.1887
H17 H 0.1324 -0.0052 0.2563
C30 C -0.07362(16) 0.07556(14) 0.24051(13)
H18 H -0.1248 0.0877 0.2737
H19 H -0.0849 0.0308 0.2124
H20 H -0.0638 0.1201 0.2083
C31 C 0.25873(15) 0.11652(14) 0.42991(14)
H21 H 0.2524 0.1658 0.4034
H22 H 0.3121 0.0870 0.4114
H23 H 0.2637 0.1263 0.4807
C32 C 0.50583(16) 0.20258(14) 0.46296(13)
H24 H 0.4923 0.2160 0.5130
H25 H 0.5638 0.1741 0.4583
H26 H 0.4603 0.1703 0.4473
C33 C -0.04239(16) 0.37740(15) 0.14614(12)
H27 H -0.0465 0.4182 0.1830
C34 C 0.27839(17) 0.47880(14) 0.09680(13)
H28 H 0.2600 0.5099 0.1399
C35 C 0.46075(15) 0.28413(13) 0.21843(12)
H29 H 0.4027 0.2834 0.1970
H30 H 0.4753 0.3387 0.2212
C36 C 0.05172(16) 0.37582(13) 0.10800(12)
C37 C 0.24443(16) 0.09158(14) 0.20995(13)
H31 H 0.2615 0.0677 0.2561
H32 H 0.2740 0.1407 0.2031
C38 C 0.01503(16) 0.57403(13) 0.25172(12)
H33 H -0.0471 0.5591 0.2538
H34 H 0.0151 0.6291 0.2639
C39 C 0.21549(17) 0.37562(15) 0.02404(13)
H35 H 0.2691 0.3758 -0.0049
C40 C -0.00641(16) 0.17412(13) 0.54284(12)
H36 H -0.0159 0.1851 0.5921
C41 C 0.15080(18) 0.32537(16) 0.00765(13)
H37 H 0.1616 0.2912 -0.0310
C42 C 0.11777(17) 0.14683(14) 0.13885(12)
H38 H 0.0526 0.1558 0.1384
H39 H 0.1440 0.1976 0.1334
C43 C -0.03172(17) 0.56266(13) 0.41450(14)
H40 H -0.0672 0.5987 0.3840
H41 H -0.0716 0.5434 0.4539
C44 C 0.20290(16) 0.42632(14) 0.08294(12)
C45 C 0.50770(14) 0.27808(13) 0.41549(12)
C46 C 0.01043(15) 0.05657(12) 0.28367(12)
C47 C 0.05955(18) 0.56076(13) 0.17620(13)
C48 C 0.10849(17) 0.63446(13) 0.38585(13)
H42 H 0.1582 0.6577 0.4075
H43 H 0.0782 0.6749 0.3563
C49 C 0.43455(16) 0.16009(12) 0.29052(13)
H44 H 0.4374 0.1353 0.3386
H45 H 0.3738 0.1561 0.2749
C50 C 0.06979(17) 0.32598(14) 0.04896(12)
H46 H 0.0261 0.2924 0.0372
C51 C 0.50846(17) 0.53499(14) 0.36392(14)
H47 H 0.4788 0.5857 0.3739
H48 H 0.5500 0.5394 0.3221
H49 H 0.5408 0.5165 0.4053
C52 C 0.37460(19) 0.27870(15) 0.61770(14)
H50 H 0.4356 0.2912 0.6039
H51 H 0.3745 0.2257 0.6371
H52 H 0.3493 0.3145 0.6541
C53 C 0.37941(17) 0.51025(15) 0.28794(13)
H53 H 0.3358 0.4733 0.2780
H54 H 0.4172 0.5195 0.2446
H55 H 0.3486 0.5590 0.3031
C54 C 0.53278(17) 0.24060(15) 0.16895(14)
H56 H 0.5359 0.2661 0.1211
H57 H 0.5914 0.2421 0.1892
C55 C -0.21502(17) 0.16208(16) 0.38571(15)
H58 H -0.1958 0.1073 0.3822
H59 H -0.2586 0.1756 0.3502
H60 H -0.2419 0.1720 0.4337
C56 C 0.50158(19) 0.11534(14) 0.23745(15)
H61 H 0.5607 0.1112 0.2574
H62 H 0.4825 0.0624 0.2326
C57 C -0.06303(18) 0.29882(16) 0.18422(14)
H63 H -0.0646 0.2590 0.1484
H64 H -0.1206 0.3043 0.2110
H65 H -0.0168 0.2839 0.2172
C58 C 0.0424(2) 0.60621(14) 0.44590(13)
H66 H 0.0746 0.5715 0.4797
H67 H 0.0157 0.6511 0.4727
C59 C 0.56745(16) 0.33520(15) 0.44906(15)
H68 H 0.5731 0.3808 0.4175
H69 H 0.6262 0.3098 0.4552
H70 H 0.5406 0.3510 0.4957
C60 C 0.22022(18) 0.26883(15) 0.57274(15)
H71 H 0.1962 0.3053 0.6090
H72 H 0.2185 0.2160 0.5924
H73 H 0.1846 0.2743 0.5308
C61 C 0.18559(17) -0.00828(14) 0.46466(14)
H74 H 0.1966 0.0024 0.5143
H75 H 0.2353 -0.0406 0.4436
H76 H 0.1309 -0.0354 0.4635
C62 C 0.3655(2) 0.42964(18) 0.11219(17)
H77 H 0.3554 0.3973 0.1552
H78 H 0.4127 0.4641 0.1195
H79 H 0.3829 0.3967 0.0715
C63 C -0.11531(18) 0.39815(17) 0.09108(14)
H80 H -0.1024 0.4466 0.0657
H81 H -0.1736 0.4040 0.1167
H82 H -0.1152 0.3567 0.0567
C64 C -0.0090(3) 0.56624(17) 0.11760(15)
H83 H 0.0199 0.5488 0.0722
H84 H -0.0322 0.6199 0.1120
H85 H -0.0578 0.5335 0.1317
C65 C -0.16370(18) 0.29888(15) 0.38196(16)
H86 H -0.1883 0.3059 0.4311
H87 H -0.2091 0.3145 0.3485
H88 H -0.1128 0.3307 0.3730
C66 C -0.00942(17) -0.00768(13) 0.34032(13)
H89 H 0.0437 -0.0212 0.3663
H90 H -0.0269 -0.0534 0.3165
H91 H -0.0577 0.0109 0.3739
C67 C 0.2972(2) 0.53569(17) 0.03262(15)
H92 H 0.3236 0.5067 -0.0083
H93 H 0.3382 0.5733 0.0462
H94 H 0.2415 0.5627 0.0196
C68 C 0.50900(19) 0.15538(16) 0.16239(15)
H95 H 0.4520 0.1540 0.1395
H96 H 0.5554 0.1273 0.1319
C69 C 0.1516(2) 0.09607(17) 0.07401(14)
H97 H 0.1190 0.0483 0.0754
H98 H 0.1393 0.1247 0.0289
C70 C 0.1315(2) 0.61914(15) 0.15597(16)
H99 H 0.1811 0.6096 0.1869
H100 H 0.1059 0.6719 0.1623
H101 H 0.1529 0.6126 0.1060
C71 C 0.27686(19) 0.03622(17) 0.14793(16)
H102 H 0.3418 0.0255 0.1483
H103 H 0.2483 -0.0134 0.1549
C72 C 0.2530(2) 0.0742(2) 0.07516(16)
H104 H 0.2710 0.0379 0.0364
H105 H 0.2861 0.1212 0.0664
P4 P 0.89763(5) 0.81651(4) 0.18926(4)
F1 F 0.85096(17) 0.86404(16) 0.25464(15)
F2 F 0.9470(2) 0.76766(16) 0.12494(18)
F3 F 0.8213(7) 0.8428(8) 0.1396(5)
F4 F 0.9540(8) 0.8874(4) 0.1670(6)
F5 F 0.9804(6) 0.7857(6) 0.2399(5)
F6 F 0.8525(9) 0.7378(5) 0.2118(6)
C73 C -0.38087(14) 0.47367(13) 0.17711(12)
H106 H -0.4204 0.4391 0.1601
C74 C -0.31452(15) 0.44611(10) 0.22331(12)
C75 C -0.25543(12) 0.49780(12) 0.24866(11)
C76 C -0.26267(14) 0.57705(11) 0.22781(12)
H107 H -0.2231 0.6116 0.2448
C77 C -0.32902(17) 0.60461(10) 0.18160(13)
H108 H -0.3339 0.6576 0.1676
C78 C -0.38812(15) 0.55292(15) 0.15625(12)
H109 H -0.4325 0.5714 0.1253
F7 F -0.1953(2) 0.4742(2) 0.2901(2)
H110 H -0.3097 0.3931 0.2373
C79 C 0.2772(2) 0.77903(18) 0.19349(11)
H111 H 0.2711 0.7797 0.1434
C80 C 0.35485(18) 0.74405(18) 0.22229(16)
H112 H 0.4007 0.7213 0.1915
C81 C 0.36397(16) 0.74311(16) 0.29716(17)
H113 H 0.4159 0.7197 0.3164
C82 C 0.2954(2) 0.77715(17) 0.34323(11)
C83 C 0.21781(16) 0.81214(16) 0.31443(14)
H114 H 0.1720 0.8349 0.3453
C84 C 0.20869(15) 0.81308(16) 0.23957(15)
H115 H 0.1567 0.8365 0.2203
F8 F 0.3029(3) 0.7748(3) 0.41359(18)
C85 C 0.48911(17) 0.03554(16) 0.60985(12)
C86 C 0.52226(13) 0.07406(16) 0.66734(15)
H116 H 0.5836 0.0823 0.6673
C87 C 0.46374(17) 0.10028(13) 0.72481(12)
H117 H 0.4859 0.1260 0.7633
C88 C 0.37206(16) 0.08799(13) 0.72480(11)
H118 H 0.3329 0.1055 0.7633
C89 C 0.33891(13) 0.04947(14) 0.66731(14)
H119 H 0.2776 0.0412 0.6673
C90 C 0.39743(18) 0.02325(14) 0.60984(12)
F9 F 0.3723(4) -0.0134(4) 0.5585(3)
H120 H 0.5283 0.0180 0.5714
F10 F 0.4399(4) 0.2982(2) -0.0396(3)
C91 C 0.53849(19) 0.19363(18) -0.04093(15)
H121 H 0.5843 0.2237 -0.0269
C92 C 0.5558(2) 0.11352(19) -0.05245(17)
H122 H 0.6132 0.0900 -0.0462
C93 C 0.4873(3) 0.06855(14) -0.07340(17)
H123 H 0.4988 0.0149 -0.0811
C94 C 0.4015(2) 0.1037(2) -0.08282(16)
H124 H 0.3557 0.0736 -0.0968
C95 C 0.38422(17) 0.1838(2) -0.07129(16)
H125 H 0.3268 0.2073 -0.0776
C96 C 0.4527(2) 0.22877(15) -0.05034(16)
F11? F 0.9733(7) 0.8748(8) 0.1810(8)
F12? F 0.8507(12) 0.8685(11) 0.1339(8)
F13? F 0.9391(15) 0.7664(10) 0.2423(10)
F14? F 0.8109(9) 0.7677(9) 0.1945(10)
H126? H -0.2110 0.4794 0.2796
F15? F -0.3026(7) 0.3703(7) 0.2384(7)
F16? F -0.4410(13) 0.5768(14) 0.1149(10)
F17? F 0.2654(18) 0.7346(13) -0.021(2)
C97? C 0.1369(12) 0.8095(8) 0.0170(8)
H127? H 0.1196 0.7710 0.0511
C98? C 0.2180(11) 0.7989(8) -0.0246(10)
C99? C 0.2438(8) 0.8564(11) -0.0756(10)
H128? H 0.2981 0.8493 -0.1033
C100? C 0.1885(10) 0.9245(9) -0.0850(9)
H129? H 0.2057 0.9630 -0.1191
C101? C 0.1073(9) 0.9351(7) -0.0435(10)
H130? H 0.0703 0.9807 -0.0498
C102? C 0.0815(9) 0.8776(9) 0.0075(8)
H131? H 0.0272 0.8847 0.0353
F18? F 0.2468(5) 0.7277(3) 0.0078(3)
C103? C 0.1343(8) 0.9416(6) -0.0562(7)
H132? H 0.1121 0.9912 -0.0718
C104? C 0.0877(7) 0.9012(7) -0.0005(7)
H133? H 0.0343 0.9237 0.0211
C105? C 0.1209(8) 0.8270(7) 0.0228(6)
H134? H 0.0897 0.8000 0.0601
C106? C 0.2008(9) 0.7934(6) -0.0095(6)
C107? C 0.2474(7) 0.8338(7) -0.0652(7)
H135? H 0.3009 0.8112 -0.0869
C108? C 0.2142(8) 0.9079(7) -0.0885(7)
H136? H 0.2454 0.9350 -0.1258
H137? H 0.3752 -0.0025 0.5714
F19? F 0.5466(7) 0.0216(7) 0.5611(5)
F20? F 0.6063(5) 0.0619(5) 0.6587(5)
loop_
_geom_bond_atom_site_label_1
_geom_bond_atom_site_label_2
_geom_bond_site_symmetry_1
_geom_bond_site_symmetry_2
P1 P2 1_555 1_555
P2 C1 1_555 1_555
P3 C1 1_555 1_555
N1 C18 1_555 1_555
N2 C7 1_555 1_555
N3 C3 1_555 1_555
C1 P1 1_555 1_555
C2 H1 1_555 1_555
C3 C16 1_555 1_555
C4 P2 1_555 1_555
C5 C7 1_555 1_555
C6 P1 1_555 1_555
C7 C24 1_555 1_555
C8 N2 1_555 1_555
C9 N3 1_555 1_555
C10 C9 1_555 1_555
C11 H2 1_555 1_555
C12 C5 1_555 1_555
H3 C12 1_555 1_555
C13 H4 1_555 1_555
H5 C13 1_555 1_555
C14 H6 1_555 1_555
C15 C13 1_555 1_555
C16 C11 1_555 1_555
C17 C16 1_555 1_555
H7 C17 1_555 1_555
C18 C36 1_555 1_555
C19 C8 1_555 1_555
C20 C15 1_555 1_555
H8 C20 1_555 1_555
H9 C20 1_555 1_555
C21 H10 1_555 1_555
C22 C5 1_555 1_555
H11 C22 1_555 1_555
C23 C3 1_555 1_555
C24 C2 1_555 1_555
C25 N1 1_555 1_555
C26 C2 1_555 1_555
H12 C26 1_555 1_555
C27 C23 1_555 1_555
H13 C27 1_555 1_555
C28 C19 1_555 1_555
H14 C28 1_555 1_555
H15 C28 1_555 1_555
C29 C10 1_555 1_555
H16 C29 1_555 1_555
H17 C29 1_555 1_555
C30 H18 1_555 1_555
H19 C30 1_555 1_555
H20 C30 1_555 1_555
C31 C11 1_555 1_555
H21 C31 1_555 1_555
H22 C31 1_555 1_555
H23 C31 1_555 1_555
C32 H24 1_555 1_555
H25 C32 1_555 1_555
H26 C32 1_555 1_555
C33 H27 1_555 1_555
C34 H28 1_555 1_555
C35 C19 1_555 1_555
H29 C35 1_555 1_555
H30 C35 1_555 1_555
C36 C33 1_555 1_555
C37 C10 1_555 1_555
H31 C37 1_555 1_555
H32 C37 1_555 1_555
C38 C15 1_555 1_555
H33 C38 1_555 1_555
H34 C38 1_555 1_555
C39 H35 1_555 1_555
C40 C17 1_555 1_555
H36 C40 1_555 1_555
C41 C39 1_555 1_555
H37 C41 1_555 1_555
C42 C10 1_555 1_555
H38 C42 1_555 1_555
H39 C42 1_555 1_555
C43 C20 1_555 1_555
H40 C43 1_555 1_555
H41 C43 1_555 1_555
C44 C18 1_555 1_555
C45 N2 1_555 1_555
C46 N3 1_555 1_555
C47 N1 1_555 1_555
C48 C13 1_555 1_555
H42 C48 1_555 1_555
H43 C48 1_555 1_555
C49 C19 1_555 1_555
H44 C49 1_555 1_555
H45 C49 1_555 1_555
C50 C36 1_555 1_555
H46 C50 1_555 1_555
C51 C12 1_555 1_555
H47 C51 1_555 1_555
H48 C51 1_555 1_555
H49 C51 1_555 1_555
C52 C14 1_555 1_555
H50 C52 1_555 1_555
H51 C52 1_555 1_555
H52 C52 1_555 1_555
C53 C12 1_555 1_555
H53 C53 1_555 1_555
H54 C53 1_555 1_555
H55 C53 1_555 1_555
C54 C35 1_555 1_555
H56 C54 1_555 1_555
H57 C54 1_555 1_555
C55 C21 1_555 1_555
H58 C55 1_555 1_555
H59 C55 1_555 1_555
H60 C55 1_555 1_555
C56 C49 1_555 1_555
H61 C56 1_555 1_555
H62 C56 1_555 1_555
C57 C33 1_555 1_555
H63 C57 1_555 1_555
H64 C57 1_555 1_555
H65 C57 1_555 1_555
C58 C43 1_555 1_555
H66 C58 1_555 1_555
H67 C58 1_555 1_555
C59 C45 1_555 1_555
H68 C59 1_555 1_555
H69 C59 1_555 1_555
H70 C59 1_555 1_555
C60 C14 1_555 1_555
H71 C60 1_555 1_555
H72 C60 1_555 1_555
H73 C60 1_555 1_555
C61 C11 1_555 1_555
H74 C61 1_555 1_555
H75 C61 1_555 1_555
H76 C61 1_555 1_555
C62 C34 1_555 1_555
H77 C62 1_555 1_555
H78 C62 1_555 1_555
H79 C62 1_555 1_555
C63 C33 1_555 1_555
H80 C63 1_555 1_555
H81 C63 1_555 1_555
H82 C63 1_555 1_555
C64 C47 1_555 1_555
H83 C64 1_555 1_555
H84 C64 1_555 1_555
H85 C64 1_555 1_555
C65 C21 1_555 1_555
H86 C65 1_555 1_555
H87 C65 1_555 1_555
H88 C65 1_555 1_555
C66 C46 1_555 1_555
H89 C66 1_555 1_555
H90 C66 1_555 1_555
H91 C66 1_555 1_555
C67 C34 1_555 1_555
H92 C67 1_555 1_555
H93 C67 1_555 1_555
H94 C67 1_555 1_555
C68 C54 1_555 1_555
H95 C68 1_555 1_555
H96 C68 1_555 1_555
C69 C42 1_555 1_555
H97 C69 1_555 1_555
H98 C69 1_555 1_555
C70 C47 1_555 1_555
H99 C70 1_555 1_555
H100 C70 1_555 1_555
H101 C70 1_555 1_555
C71 C37 1_555 1_555
H102 C71 1_555 1_555
H103 C71 1_555 1_555
C72 C69 1_555 1_555
H104 C72 1_555 1_555
H105 C72 1_555 1_555
P4 F1 1_555 1_555
F2 P4 1_555 1_555
F3 P4 1_555 1_555
F4 P4 1_555 1_555
F5 P4 1_555 1_555
F6 P4 1_555 1_555
C73 H106 1_555 1_555
C74 C73 1_555 1_555
C75 C74 1_555 1_555
C76 C75 1_555 1_555
H107 C76 1_555 1_555
C77 C76 1_555 1_555
H108 C77 1_555 1_555
C78 C73 1_555 1_555
H109 C78 1_555 1_555
F7 C75 1_555 1_555
H110 C74 1_555 1_555
C79 H111 1_555 1_555
C80 C79 1_555 1_555
H112 C80 1_555 1_555
C81 C80 1_555 1_555
H113 C81 1_555 1_555
C82 C81 1_555 1_555
C83 C82 1_555 1_555
H114 C83 1_555 1_555
C84 C79 1_555 1_555
H115 C84 1_555 1_555
F8 C82 1_555 1_555
C85 C86 1_555 1_555
C86 H116 1_555 1_555
C87 C86 1_555 1_555
H117 C87 1_555 1_555
C88 C87 1_555 1_555
H118 C88 1_555 1_555
C89 C88 1_555 1_555
H119 C89 1_555 1_555
C90 C85 1_555 1_555
F9 C90 1_555 1_555
H120 C85 1_555 1_555
F10 C96 1_555 1_555
C91 H121 1_555 1_555
C92 C91 1_555 1_555
H122 C92 1_555 1_555
C93 C92 1_555 1_555
H123 C93 1_555 1_555
C94 C93 1_555 1_555
H124 C94 1_555 1_555
C95 C94 1_555 1_555
H125 C95 1_555 1_555
C96 C91 1_555 1_555
P3 C4 1_555 1_555
P3 C6 1_555 1_555
C1 C25 1_555 1_555
C4 C9 1_555 1_555
C6 C8 1_555 1_555
C14 C24 1_555 1_555
C15 C25 1_555 1_555
C21 C23 1_555 1_555
C22 C26 1_555 1_555
C27 C40 1_555 1_555
C28 C45 1_555 1_555
C29 C46 1_555 1_555
C30 C46 1_555 1_555
C32 C45 1_555 1_555
C34 C44 1_555 1_555
C38 C47 1_555 1_555
C39 C44 1_555 1_555
C41 C50 1_555 1_555
C48 C58 1_555 1_555
C56 C68 1_555 1_555
C71 C72 1_555 1_555
C77 C78 1_555 1_555
C83 C84 1_555 1_555
C89 C90 1_555 1_555
C95 C96 1_555 1_555

#END
