
#######################################################################
#
#                 Cambridge Crystallographic Data Centre
#                                CCDC 
#
#######################################################################
#
# If this CIF has been generated from an entry in the Cambridge 
# Structural Database, then it will include bibliographic, chemical, 
# crystal, experimental, refinement or atomic coordinate data resulting 
# from the CCDC's data processing and validation procedures.
#
#######################################################################

data_JEZDAW
_chemical_formula_moiety         'C69 H105 N3 P3,C2 H3 N1'
_chemical_name_systematic        
'3,5,6-tris{1-[2,6-diisopropylphenyl]-3,3-diethyl-5,5-dimethylpyrrolidin-2-ylidene}-1,2,4-triphosphabicyclo[2.1.1]hexan-2-yl radical acetonitrile solvate'
_symmetry_cell_setting           triclinic
_symmetry_space_group_name_H-M   'P -1'
_symmetry_Int_Tables_number      2
_space_group_name_Hall           '-P 1'
loop_
_symmetry_equiv_pos_site_id
_symmetry_equiv_pos_as_xyz
1 x,y,z
2 -x,-y,-z
_cell_length_a                   13.5384(4)
_cell_length_b                   13.8929(4)
_cell_length_c                   20.7433(6)
_cell_angle_alpha                95.672(3)
_cell_angle_beta                 99.881(3)
_cell_angle_gamma                118.477(3)
_cell_volume                     3304.29
_exptl_crystal_colour            green
_exptl_crystal_description       block
_cell_formula_units_Z            2
loop_
_atom_site_label
_atom_site_type_symbol
_atom_site_fract_x
_atom_site_fract_y
_atom_site_fract_z
P1 P 0.68813(3) 0.33535(3) 0.29461(2)
P2 P 0.59192(4) 0.37552(3) 0.18348(2)
P3 P 0.44740(4) 0.22191(4) 0.20108(2)
N1 N 0.62104(12) 0.60283(11) 0.28022(7)
N2 N 0.38310(12) 0.04237(11) 0.29817(7)
N3 N 0.85726(12) 0.30048(12) 0.18381(7)
C1 C 0.53635(14) 0.21593(13) 0.27711(8)
C2 C 0.64390(14) 0.43886(13) 0.27389(8)
C3 C 0.69845(14) 0.32976(13) 0.20566(8)
C4 C 0.49484(14) 0.13682(13) 0.31515(8)
C5 C 0.69746(16) 0.57458(14) 0.38525(9)
C6 C 0.28311(14) 0.03449(14) 0.25456(9)
C7 C 0.87766(15) 0.25305(15) 0.23978(9)
C8 C 0.65209(14) 0.53095(13) 0.30873(8)
C9 C 0.56127(14) 0.13482(14) 0.38383(8)
C10 C 0.63678(15) 0.62466(13) 0.21558(9)
C11 C 0.37145(15) -0.03900(14) 0.34290(9)
C12 C 0.70020(17) 0.68762(15) 0.39420(9)
H1 H 0.6753 0.6993 0.4340
H2 H 0.7783 0.7487 0.3989
C13 C 0.96552(15) 0.32178(16) 0.29811(9)
C14 C 0.75801(15) 0.34059(15) 0.09407(8)
C15 C 0.22956(14) -0.04030(14) 0.19180(9)
C16 C 0.27253(15) -0.11488(15) 0.16428(9)
H3 H 0.3455 -0.0961 0.1952
C17 C 0.60769(16) 0.24516(15) 0.43429(9)
H4 H 0.6676 0.3051 0.4193
H5 H 0.5449 0.2608 0.4332
C18 C 0.71755(16) 0.05692(15) 0.17168(10)
H6 H 0.7202 0.0994 0.1364
C19 C 0.76648(14) 0.32111(13) 0.16695(8)
C20 C 0.46247(15) 0.03953(15) 0.40625(9)
H7 H 0.4922 -0.0002 0.4317
H8 H 0.4291 0.0700 0.4341
C21 C 0.92452(16) 0.31437(16) 0.13164(10)
C22 C 0.81881(17) 0.58663(16) 0.40877(10)
H9 H 0.8079 0.5180 0.4222
H10 H 0.8528 0.5934 0.3707
C23 C 0.13264(16) -0.04549(16) 0.15137(9)
H11 H 0.0964 -0.0952 0.1102
C24 C 0.63437(16) 0.27542(16) 0.04736(9)
H12 H 0.5910 0.3096 0.0606
H13 H 0.6404 0.2851 0.0022
C25 C 0.59823(16) 0.01071(16) 0.18643(10)
H14 H 0.5923 -0.0345 0.2193
H15 H 0.5390 -0.0341 0.1461
H16 H 0.5884 0.0717 0.2032
C26 C 0.66148(15) 0.11336(15) 0.37537(9)
H17 H 0.6383 0.0666 0.3315
H18 H 0.7288 0.1846 0.3762
C27 C 0.61772(16) 0.68312(14) 0.33190(9)
C28 C 0.40105(17) -0.12674(15) 0.31613(10)
H19 H 0.3399 -0.1792 0.2783
H20 H 0.4092 -0.1657 0.3506
H21 H 0.4726 -0.0901 0.3028
C29 C 0.81395(15) 0.13599(15) 0.23314(10)
C30 C 0.66051(18) 0.79813(15) 0.31438(10)
H22 H 0.7384 0.8274 0.3096
H23 H 0.6592 0.8478 0.3494
H24 H 0.6109 0.7915 0.2731
C31 C 0.84135(17) 0.08955(18) 0.28533(11)
H25 H 0.7998 0.0124 0.2817
C32 C 0.23706(15) 0.10129(15) 0.27565(9)
C33 C 0.75100(16) 0.68080(15) 0.20682(10)
C34 C 0.83482(16) 0.29882(16) 0.07001(9)
H26 H 0.7882 0.2205 0.0479
H27 H 0.8729 0.3415 0.0387
C35 C 0.49370(17) 0.63979(17) 0.34090(11)
H28 H 0.4478 0.6483 0.3036
H29 H 0.4969 0.6820 0.3815
H30 H 0.4593 0.5621 0.3432
C36 C 0.14093(16) 0.09359(16) 0.23296(10)
H31 H 0.1109 0.1379 0.2464
C37 C 0.80577(17) 0.46737(15) 0.09630(9)
H32 H 0.7500 0.4861 0.1083
H33 H 0.8767 0.5091 0.1317
C38 C 1.03545(16) 0.44874(16) 0.31050(10)
H34 H 1.0079 0.4726 0.2718
C39 C 0.85782(16) 0.72247(15) 0.26399(11)
H35 H 0.8317 0.7095 0.3052
C40 C 0.7652(2) 0.69886(18) 0.14316(11)
H36 H 0.8395 0.7350 0.1364
C41 C 0.54037(17) 0.59068(16) 0.16173(10)
C42 C 0.29544(18) -0.09769(17) 0.09550(10)
H37 H 0.2238 -0.1206 0.0637
H38 H 0.3282 -0.1417 0.0815
H39 H 0.3487 -0.0200 0.0981
C43 C 0.92893(18) 0.1559(2) 0.34217(12)
H40 H 0.9466 0.1234 0.3761
C44 C 0.08940(17) 0.02179(18) 0.17128(10)
H41 H 0.0260 0.0185 0.1432
C45 C 0.25042(16) -0.10009(16) 0.35455(10)
H42 H 0.2332 -0.0467 0.3750
H43 H 0.2471 -0.1508 0.3835
H44 H 0.1946 -0.1414 0.3125
C46 C 0.41737(17) 0.53294(17) 0.17009(11)
H45 H 0.4203 0.5170 0.2151
C47 C 0.56415(17) 0.15033(17) 0.04553(10)
H46 H 0.4894 0.1189 0.0149
H47 H 0.5544 0.1390 0.0894
H48 H 0.6044 0.1144 0.0311
C48 C 0.18478(17) -0.23911(16) 0.15906(11)
H49 H 0.1701 -0.2507 0.2021
H50 H 0.2159 -0.2842 0.1443
H51 H 0.1136 -0.2599 0.1275
C49 C 0.60985(19) 0.49308(16) 0.41956(10)
H52 H 0.5394 0.4969 0.4087
H53 H 0.5904 0.4176 0.4007
C50 C 0.6577(2) 0.24850(18) 0.50683(10)
H54 H 0.7304 0.2506 0.5107
H55 H 0.6045 0.1829 0.5203
H56 H 0.6697 0.3141 0.5351
C51 C 1.16638(17) 0.49256(19) 0.31907(12)
H57 H 1.1966 0.4764 0.3593
H58 H 1.2063 0.5720 0.3218
H59 H 1.1776 0.4565 0.2814
C52 C 0.6705(2) 0.6638(2) 0.09017(11)
H60 H 0.6815 0.6756 0.0480
C53 C 0.28888(17) 0.18400(17) 0.34239(11)
H61 H 0.3602 0.1862 0.3645
C54 C 0.92213(16) 0.65863(16) 0.25464(11)
H62 H 0.8699 0.5800 0.2498
H63 H 0.9860 0.6841 0.2930
H64 H 0.9509 0.6718 0.2153
C55 C 0.9611(2) 0.2263(2) 0.12312(12)
H65 H 1.0101 0.2326 0.1646
H66 H 1.0027 0.2381 0.0889
H67 H 0.8933 0.1530 0.1106
C56 C 0.5598(2) 0.61143(19) 0.09943(11)
H68 H 0.4969 0.5895 0.0634
C57 C 1.03442(17) 0.4294(2) 0.14641(11)
H69 H 1.0161 0.4866 0.1579
H70 H 1.0648 0.4399 0.1075
H71 H 1.0913 0.4338 0.1831
C58 C 0.98990(17) 0.27005(19) 0.34833(11)
H72 H 1.0488 0.3141 0.3867
C59 C 1.0183(2) 0.5018(2) 0.37266(12)
H73 H 0.9371 0.4745 0.3679
H74 H 1.0586 0.5817 0.3776
H75 H 1.0485 0.4825 0.4115
C60 C 0.7316(2) -0.04206(18) 0.14482(13)
H76 H 0.7228 -0.0885 0.1772
H77 H 0.8072 -0.0141 0.1367
H78 H 0.6734 -0.0853 0.1038
C61 C 0.6984(2) 0.0582(2) 0.42719(11)
H79 H 0.7657 0.0564 0.4200
H80 H 0.6362 -0.0168 0.4229
H81 H 0.7165 0.1005 0.4713
C62 C 0.6498(3) 0.5132(2) 0.49576(11)
H82 H 0.7169 0.5052 0.5073
H83 H 0.5886 0.4595 0.5124
H84 H 0.6691 0.5874 0.5154
C63 C 0.36704(19) 0.61136(19) 0.16448(13)
H85 H 0.4176 0.6806 0.1963
H86 H 0.2917 0.5765 0.1735
H87 H 0.3604 0.6259 0.1201
C64 C 0.2061(2) 0.1496(2) 0.38869(12)
H88 H 0.1369 0.1499 0.3686
H89 H 0.2434 0.2017 0.4310
H90 H 0.1863 0.0758 0.3954
C65 C 0.94233(19) 0.84811(17) 0.27365(15)
H91 H 0.9797 0.8617 0.2375
H92 H 0.9998 0.8737 0.3153
H93 H 0.9005 0.8877 0.2742
C66 C 0.9065(2) 0.6853(2) 0.46655(13)
H94 H 0.9322 0.7541 0.4510
H95 H 0.9719 0.6763 0.4826
H96 H 0.8703 0.6871 0.5022
C67 C 0.8315(3) 0.5072(2) 0.03217(12)
H97 H 0.7623 0.4669 -0.0036
H98 H 0.8906 0.4940 0.0211
H99 H 0.8580 0.5858 0.0386
C68 C 0.3369(2) 0.4217(2) 0.11967(15)
H100 H 0.3315 0.4354 0.0751
H101 H 0.2611 0.3877 0.1281
H102 H 0.3676 0.3725 0.1243
C69 C 0.3201(3) 0.30169(19) 0.33217(15)
H103 H 0.3743 0.3250 0.3047
H104 H 0.3544 0.3528 0.3748
H105 H 0.2511 0.3012 0.3106
C70 C 0.1438(2) 0.1482(2) 0.00826(11)
N4 N 0.0780(2) 0.1753(3) -0.00906(13)
C71 C 0.2299(3) 0.1182(3) 0.03023(14)
H106 H 0.2010 0.0414 0.0103
H107 H 0.2471 0.1278 0.0781
H108 H 0.2992 0.1654 0.0170
loop_
_geom_bond_atom_site_label_1
_geom_bond_atom_site_label_2
_geom_bond_site_symmetry_1
_geom_bond_site_symmetry_2
P1 C1 1_555 1_555
P2 P3 1_555 1_555
P3 C1 1_555 1_555
N1 C8 1_555 1_555
N2 C4 1_555 1_555
N3 C7 1_555 1_555
C1 C4 1_555 1_555
C2 P1 1_555 1_555
C3 P1 1_555 1_555
C4 C9 1_555 1_555
C5 C8 1_555 1_555
C6 N2 1_555 1_555
C7 C13 1_555 1_555
C8 C2 1_555 1_555
C9 C17 1_555 1_555
C10 N1 1_555 1_555
C11 N2 1_555 1_555
C12 C5 1_555 1_555
H1 C12 1_555 1_555
H2 C12 1_555 1_555
C13 C38 1_555 1_555
C14 C19 1_555 1_555
C15 C6 1_555 1_555
C16 C15 1_555 1_555
H3 C16 1_555 1_555
C17 H4 1_555 1_555
H5 C17 1_555 1_555
C18 H6 1_555 1_555
C19 N3 1_555 1_555
C20 C9 1_555 1_555
H7 C20 1_555 1_555
H8 C20 1_555 1_555
C21 N3 1_555 1_555
C22 C5 1_555 1_555
H9 C22 1_555 1_555
H10 C22 1_555 1_555
C23 C15 1_555 1_555
H11 C23 1_555 1_555
C24 C14 1_555 1_555
H12 C24 1_555 1_555
H13 C24 1_555 1_555
C25 C18 1_555 1_555
H14 C25 1_555 1_555
H15 C25 1_555 1_555
H16 C25 1_555 1_555
C26 C9 1_555 1_555
H17 C26 1_555 1_555
H18 C26 1_555 1_555
C27 N1 1_555 1_555
C28 C11 1_555 1_555
H19 C28 1_555 1_555
H20 C28 1_555 1_555
H21 C28 1_555 1_555
C29 C7 1_555 1_555
C30 C27 1_555 1_555
H22 C30 1_555 1_555
H23 C30 1_555 1_555
H24 C30 1_555 1_555
C31 C29 1_555 1_555
H25 C31 1_555 1_555
C32 C6 1_555 1_555
C33 C10 1_555 1_555
C34 C14 1_555 1_555
H26 C34 1_555 1_555
H27 C34 1_555 1_555
C35 C27 1_555 1_555
H28 C35 1_555 1_555
H29 C35 1_555 1_555
H30 C35 1_555 1_555
C36 C32 1_555 1_555
H31 C36 1_555 1_555
C37 C14 1_555 1_555
H32 C37 1_555 1_555
H33 C37 1_555 1_555
C38 H34 1_555 1_555
C39 C33 1_555 1_555
H35 C39 1_555 1_555
C40 C33 1_555 1_555
H36 C40 1_555 1_555
C41 C10 1_555 1_555
C42 C16 1_555 1_555
H37 C42 1_555 1_555
H38 C42 1_555 1_555
H39 C42 1_555 1_555
C43 C31 1_555 1_555
H40 C43 1_555 1_555
C44 C23 1_555 1_555
H41 C44 1_555 1_555
C45 C11 1_555 1_555
H42 C45 1_555 1_555
H43 C45 1_555 1_555
H44 C45 1_555 1_555
C46 C41 1_555 1_555
H45 C46 1_555 1_555
C47 C24 1_555 1_555
H46 C47 1_555 1_555
H47 C47 1_555 1_555
H48 C47 1_555 1_555
C48 C16 1_555 1_555
H49 C48 1_555 1_555
H50 C48 1_555 1_555
H51 C48 1_555 1_555
C49 C5 1_555 1_555
H52 C49 1_555 1_555
H53 C49 1_555 1_555
C50 C17 1_555 1_555
H54 C50 1_555 1_555
H55 C50 1_555 1_555
H56 C50 1_555 1_555
C51 C38 1_555 1_555
H57 C51 1_555 1_555
H58 C51 1_555 1_555
H59 C51 1_555 1_555
C52 C40 1_555 1_555
H60 C52 1_555 1_555
C53 C32 1_555 1_555
H61 C53 1_555 1_555
C54 C39 1_555 1_555
H62 C54 1_555 1_555
H63 C54 1_555 1_555
H64 C54 1_555 1_555
C55 C21 1_555 1_555
H65 C55 1_555 1_555
H66 C55 1_555 1_555
H67 C55 1_555 1_555
C56 C41 1_555 1_555
H68 C56 1_555 1_555
C57 C21 1_555 1_555
H69 C57 1_555 1_555
H70 C57 1_555 1_555
H71 C57 1_555 1_555
C58 C13 1_555 1_555
H72 C58 1_555 1_555
C59 C38 1_555 1_555
H73 C59 1_555 1_555
H74 C59 1_555 1_555
H75 C59 1_555 1_555
C60 C18 1_555 1_555
H76 C60 1_555 1_555
H77 C60 1_555 1_555
H78 C60 1_555 1_555
C61 C26 1_555 1_555
H79 C61 1_555 1_555
H80 C61 1_555 1_555
H81 C61 1_555 1_555
C62 C49 1_555 1_555
H82 C62 1_555 1_555
H83 C62 1_555 1_555
H84 C62 1_555 1_555
C63 C46 1_555 1_555
H85 C63 1_555 1_555
H86 C63 1_555 1_555
H87 C63 1_555 1_555
C64 C53 1_555 1_555
H88 C64 1_555 1_555
H89 C64 1_555 1_555
H90 C64 1_555 1_555
C65 C39 1_555 1_555
H91 C65 1_555 1_555
H92 C65 1_555 1_555
H93 C65 1_555 1_555
C66 C22 1_555 1_555
H94 C66 1_555 1_555
H95 C66 1_555 1_555
H96 C66 1_555 1_555
C67 C37 1_555 1_555
H97 C67 1_555 1_555
H98 C67 1_555 1_555
H99 C67 1_555 1_555
C68 C46 1_555 1_555
H100 C68 1_555 1_555
H101 C68 1_555 1_555
H102 C68 1_555 1_555
C69 C53 1_555 1_555
H103 C69 1_555 1_555
H104 C69 1_555 1_555
H105 C69 1_555 1_555
C70 N4 1_555 1_555
C71 C70 1_555 1_555
H106 C71 1_555 1_555
H107 C71 1_555 1_555
H108 C71 1_555 1_555
P2 C2 1_555 1_555
P2 C3 1_555 1_555
C3 C19 1_555 1_555
C11 C20 1_555 1_555
C12 C27 1_555 1_555
C18 C29 1_555 1_555
C21 C34 1_555 1_555
C36 C44 1_555 1_555
C43 C58 1_555 1_555
C52 C56 1_555 1_555

#END
