
#######################################################################
#
#                 Cambridge Crystallographic Data Centre
#                                CCDC 
#
#######################################################################
#
# If this CIF has been generated from an entry in the Cambridge 
# Structural Database, then it will include bibliographic, chemical, 
# crystal, experimental, refinement or atomic coordinate data resulting 
# from the CCDC's data processing and validation procedures.
#
#######################################################################

data_JEZPAI
_chemical_formula_moiety         'C32 H38 F2 N2 S2'
_chemical_name_systematic        
9,10-difluoro-2,5-dioctylbisthieno[3,2-a:2',3'-c]phenazine
_symmetry_cell_setting           monoclinic
_symmetry_space_group_name_H-M   'P 21'
_symmetry_Int_Tables_number      4
_space_group_name_Hall           'P 2yb'
loop_
_symmetry_equiv_pos_site_id
_symmetry_equiv_pos_as_xyz
1 x,y,z
2 -x,1/2+y,-z
_cell_length_a                   4.89080(10)
_cell_length_b                   37.3867(9)
_cell_length_c                   15.8515(4)
_cell_angle_alpha                90
_cell_angle_beta                 95.8960(10)
_cell_angle_gamma                90
_cell_volume                     2883.13
_exptl_crystal_colour            yellow
_exptl_crystal_description       needle
_cell_formula_units_Z            4
loop_
_atom_site_label
_atom_site_type_symbol
_atom_site_fract_x
_atom_site_fract_y
_atom_site_fract_z
C1 C 1.379(2) 0.84249(19) 0.4694(6)
H1 H 1.4840 0.8637 0.4611
H2 H 1.3364 0.8415 0.5272
H3 H 1.2113 0.8430 0.4321
C2 C 1.5429(18) 0.81003(16) 0.4503(5)
H4 H 1.7101 0.8095 0.4889
H5 H 1.5955 0.8121 0.3932
C3 C 1.3900(14) 0.77526(16) 0.4580(4)
H6 H 1.2234 0.7759 0.4191
H7 H 1.3359 0.7735 0.5150
C4 C 1.5522(14) 0.74211(15) 0.4397(4)
H8 H 1.7183 0.7413 0.4788
H9 H 1.6066 0.7438 0.3827
C5 C 1.3920(13) 0.70721(14) 0.4476(4)
H10 H 1.3391 0.7053 0.5048
H11 H 1.2252 0.7080 0.4089
C6 C 1.5570(13) 0.67407(14) 0.4283(4)
H12 H 1.6173 0.6765 0.3722
H13 H 1.7197 0.6727 0.4687
C7 C 1.3965(12) 0.63958(14) 0.4321(4)
H14 H 1.2489 0.6392 0.3863
H15 H 1.3152 0.6384 0.4853
C8 C 1.5839(11) 0.60704(13) 0.4245(4)
H16 H 1.6536 0.6076 0.3694
H17 H 1.7400 0.6090 0.4672
C9 C 1.4460(12) 0.57178(13) 0.4347(3)
C10 C 1.5012(11) 0.54688(13) 0.4965(3)
H18 H 1.6399 0.5495 0.5408
C11 C 1.3268(10) 0.51634(13) 0.4871(3)
C12 C 1.1391(11) 0.51862(12) 0.4161(3)
C13 C 0.9462(10) 0.49088(13) 0.3941(3)
C14 C 0.9416(10) 0.46073(13) 0.4450(3)
C15 C 1.1326(10) 0.45740(12) 0.5192(3)
C16 C 1.3315(10) 0.48516(13) 0.5406(3)
C17 C 1.5128(11) 0.45298(14) 0.6552(3)
C18 C 1.7131(12) 0.44840(15) 0.7256(3)
H19 H 1.8476 0.4656 0.7390
C19 C 1.7041(12) 0.41845(16) 0.7727(3)
C20 C 1.5069(14) 0.39198(16) 0.7546(4)
C21 C 1.3126(12) 0.39496(15) 0.6876(3)
H20 H 1.1807 0.3772 0.6761
C22 C 1.3149(11) 0.42581(14) 0.6351(3)
C23 C 0.7343(10) 0.43586(13) 0.4118(3)
H21 H 0.6998 0.4144 0.4383
C24 C 0.5945(11) 0.44661(12) 0.3384(3)
C25 C 0.3698(11) 0.42820(13) 0.2834(3)
H22 H 0.4259 0.4257 0.2267
H23 H 0.2068 0.4431 0.2794
C26 C 0.2965(11) 0.39129(13) 0.3156(3)
H24 H 0.4588 0.3762 0.3199
H25 H 0.2366 0.3936 0.3718
C27 C 0.0700(12) 0.37365(14) 0.2569(4)
H26 H -0.0852 0.3899 0.2490
H27 H 0.1366 0.3701 0.2019
C28 C -0.0298(12) 0.33796(15) 0.2877(4)
H28 H -0.0757 0.3410 0.3453
H29 H -0.1977 0.3316 0.2529
C29 C 0.1700(12) 0.30691(14) 0.2863(4)
H30 H 0.2285 0.3048 0.2299
H31 H 0.3314 0.3119 0.3253
C30 C 0.0465(13) 0.27165(15) 0.3105(4)
H32 H -0.0054 0.2738 0.3677
H33 H -0.1203 0.2676 0.2732
C31 C 0.2262(14) 0.23980(17) 0.3070(4)
H34 H 0.3909 0.2433 0.3456
H35 H 0.2816 0.2377 0.2502
C32 C 0.089(2) 0.20532(19) 0.3297(6)
H36 H -0.0585 0.1999 0.2870
H37 H 0.0183 0.2080 0.3836
H38 H 0.2215 0.1863 0.3328
N1 N 1.1255(9) 0.42788(11) 0.5672(3)
N2 N 1.5173(9) 0.48280(11) 0.6077(3)
F1 F 1.5113(9) 0.36317(10) 0.8060(2)
F2 F 1.8946(8) 0.41247(10) 0.8397(2)
S1 S 0.7076(3) 0.48842(3) 0.30731(8)
S2 S 1.1751(3) 0.55807(3) 0.36188(8)
C33 C -0.223(2) 0.15913(19) 0.0968(6)
H39 H -0.3231 0.1370 0.0927
H40 H -0.1246 0.1611 0.1523
H41 H -0.0943 0.1595 0.0549
C34 C -0.4186(18) 0.18983(18) 0.0822(6)
H42 H -0.5327 0.1908 0.1287
H43 H -0.5384 0.1854 0.0306
C35 C -0.2808(15) 0.22566(16) 0.0747(4)
H44 H -0.1608 0.2243 0.0298
H45 H -0.1670 0.2305 0.1272
C36 C -0.4796(14) 0.25659(16) 0.0563(5)
H46 H -0.6026 0.2575 0.1005
H47 H -0.5903 0.2520 0.0031
C37 C -0.3420(13) 0.29282(15) 0.0508(4)
H48 H -0.2314 0.2975 0.1040
H49 H -0.2191 0.2919 0.0065
C38 C -0.5412(13) 0.32340(15) 0.0324(4)
H50 H -0.6645 0.3242 0.0766
H51 H -0.6512 0.3188 -0.0209
C39 C -0.4037(12) 0.35973(14) 0.0273(4)
H52 H -0.2849 0.3639 0.0792
H53 H -0.2898 0.3596 -0.0193
C40 C -0.6107(11) 0.39001(14) 0.0143(4)
H54 H -0.7347 0.3850 -0.0361
H55 H -0.7191 0.3905 0.0622
C41 C -0.4872(11) 0.42628(14) 0.0049(3)
C42 C -0.3830(11) 0.48241(13) -0.0455(3)
C43 C -0.1929(11) 0.48055(12) 0.0239(3)
C44 C -0.0046(10) 0.50879(14) 0.0459(3)
C45 C -0.0053(11) 0.53905(14) -0.0042(3)
C46 C -0.2061(11) 0.54267(13) -0.0775(3)
C47 C -0.3978(10) 0.51411(13) -0.0988(3)
C48 C -0.5912(11) 0.54661(13) -0.2113(3)
C49 C -0.7895(12) 0.55050(14) -0.2827(3)
H56 H -0.9135 0.5322 -0.2982
C50 C -0.7948(12) 0.58107(15) -0.3277(3)
C51 C -0.6067(14) 0.60889(15) -0.3063(4)
C52 C -0.4126(13) 0.60602(15) -0.2401(4)
H57 H -0.2883 0.6245 -0.2271
C53 C -0.3995(11) 0.57447(13) -0.1901(3)
C54 C 0.1973(11) 0.56444(13) 0.0281(3)
H58 H 0.2248 0.5862 0.0017
C55 C 0.3453(12) 0.55389(14) 0.1006(3)
C56 C 0.5721(12) 0.57317(16) 0.1537(3)
H59 H 0.7386 0.5590 0.1558
H60 H 0.5224 0.5754 0.2112
C57 C 0.6300(13) 0.61023(15) 0.1200(4)
H61 H 0.6985 0.6079 0.0650
H62 H 0.4600 0.6237 0.1125
C58 C 0.8381(15) 0.63046(17) 0.1792(4)
H63 H 1.0091 0.6171 0.1850
H64 H 0.7719 0.6317 0.2347
C59 C 0.8962(17) 0.66815(19) 0.1502(4)
H65 H 0.9824 0.6666 0.0979
H66 H 0.7221 0.6804 0.1374
C60 C 1.071(2) 0.6900(3) 0.2102(6)
H67 H 1.2445 0.6776 0.2228
H68 H 0.9845 0.6913 0.2625
C61 C -0.5546(11) 0.45141(13) -0.0559(3)
H69 H -0.6963 0.4487 -0.0992
C62 C 1.054(4) 0.7931(4) 0.2000(9)
H70 H 0.9885 0.8009 0.1438
H71 H 1.2497 0.7959 0.2088
H72 H 0.9698 0.8073 0.2408
C63 C 0.980(4) 0.7544(4) 0.2105(11)
H73 H 0.9687 0.7508 0.2706
H74 H 0.7955 0.7514 0.1828
C64 C 1.131(3) 0.7267(3) 0.1843(9)
H75 H 1.3220 0.7315 0.2033
H76 H 1.1132 0.7272 0.1228
N3 N -0.5845(9) 0.51595(11) -0.1650(3)
N4 N -0.2085(9) 0.57233(12) -0.1227(3)
F3 F -0.9811(8) 0.58672(10) -0.3946(2)
F4 F -0.6289(10) 0.63851(10) -0.3543(2)
S3 S -0.2163(3) 0.44053(3) 0.07723(8)
S4 S 0.2410(3) 0.51154(3) 0.13169(8)
loop_
_geom_bond_atom_site_label_1
_geom_bond_atom_site_label_2
_geom_bond_site_symmetry_1
_geom_bond_site_symmetry_2
C1 H1 1_555 1_555
H2 C1 1_555 1_555
H3 C1 1_555 1_555
C2 C1 1_555 1_555
H4 C2 1_555 1_555
H5 C2 1_555 1_555
C3 C2 1_555 1_555
H6 C3 1_555 1_555
H7 C3 1_555 1_555
C4 C3 1_555 1_555
H8 C4 1_555 1_555
H9 C4 1_555 1_555
C5 C4 1_555 1_555
H10 C5 1_555 1_555
H11 C5 1_555 1_555
C6 C5 1_555 1_555
H12 C6 1_555 1_555
H13 C6 1_555 1_555
C7 C6 1_555 1_555
H14 C7 1_555 1_555
H15 C7 1_555 1_555
C8 C7 1_555 1_555
H16 C8 1_555 1_555
H17 C8 1_555 1_555
C9 C8 1_555 1_555
C10 C9 1_555 1_555
H18 C10 1_555 1_555
C11 C10 1_555 1_555
C12 C11 1_555 1_555
C13 C12 1_555 1_555
C14 C13 1_555 1_555
C15 C14 1_555 1_555
C16 C11 1_555 1_555
C17 C18 1_555 1_555
C18 H19 1_555 1_555
C19 C18 1_555 1_555
C20 C19 1_555 1_555
C21 C20 1_555 1_555
H20 C21 1_555 1_555
C22 C17 1_555 1_555
C23 C14 1_555 1_555
H21 C23 1_555 1_555
C24 C23 1_555 1_555
C25 C24 1_555 1_555
H22 C25 1_555 1_555
H23 C25 1_555 1_555
C26 C25 1_555 1_555
H24 C26 1_555 1_555
H25 C26 1_555 1_555
C27 C26 1_555 1_555
H26 C27 1_555 1_555
H27 C27 1_555 1_555
C28 C27 1_555 1_555
H28 C28 1_555 1_555
H29 C28 1_555 1_555
C29 C28 1_555 1_555
H30 C29 1_555 1_555
H31 C29 1_555 1_555
C30 C29 1_555 1_555
H32 C30 1_555 1_555
H33 C30 1_555 1_555
C31 C30 1_555 1_555
H34 C31 1_555 1_555
H35 C31 1_555 1_555
C32 C31 1_555 1_555
H36 C32 1_555 1_555
H37 C32 1_555 1_555
H38 C32 1_555 1_555
N1 C15 1_555 1_555
N2 C16 1_555 1_555
F1 C20 1_555 1_555
F2 C19 1_555 1_555
S1 C13 1_555 1_555
S2 C9 1_555 1_555
C33 H39 1_555 1_555
H40 C33 1_555 1_555
H41 C33 1_555 1_555
C34 C33 1_555 1_555
H42 C34 1_555 1_555
H43 C34 1_555 1_555
C35 C34 1_555 1_555
H44 C35 1_555 1_555
H45 C35 1_555 1_555
C36 C35 1_555 1_555
H46 C36 1_555 1_555
H47 C36 1_555 1_555
C37 C36 1_555 1_555
H48 C37 1_555 1_555
H49 C37 1_555 1_555
C38 C37 1_555 1_555
H50 C38 1_555 1_555
H51 C38 1_555 1_555
C39 C38 1_555 1_555
H52 C39 1_555 1_555
H53 C39 1_555 1_555
C40 C39 1_555 1_555
H54 C40 1_555 1_555
H55 C40 1_555 1_555
C41 C40 1_555 1_555
C42 C43 1_555 1_555
C43 C44 1_555 1_555
C44 C45 1_555 1_555
C45 C46 1_555 1_555
C46 C47 1_555 1_555
C47 C42 1_555 1_555
C48 C49 1_555 1_555
C49 H56 1_555 1_555
C50 C49 1_555 1_555
C51 C50 1_555 1_555
C52 C51 1_555 1_555
H57 C52 1_555 1_555
C53 C48 1_555 1_555
C54 C45 1_555 1_555
H58 C54 1_555 1_555
C55 C54 1_555 1_555
C56 C55 1_555 1_555
H59 C56 1_555 1_555
H60 C56 1_555 1_555
C57 C56 1_555 1_555
H61 C57 1_555 1_555
H62 C57 1_555 1_555
C58 C57 1_555 1_555
H63 C58 1_555 1_555
H64 C58 1_555 1_555
C59 C58 1_555 1_555
H65 C59 1_555 1_555
H66 C59 1_555 1_555
C60 C59 1_555 1_555
H67 C60 1_555 1_555
H68 C60 1_555 1_555
C61 C41 1_555 1_555
H69 C61 1_555 1_555
C62 H70 1_555 1_555
H71 C62 1_555 1_555
H72 C62 1_555 1_555
C63 C62 1_555 1_555
H73 C63 1_555 1_555
H74 C63 1_555 1_555
C64 C60 1_555 1_555
H75 C64 1_555 1_555
H76 C64 1_555 1_555
N3 C47 1_555 1_555
N4 C46 1_555 1_555
F3 C50 1_555 1_555
F4 C51 1_555 1_555
S3 C41 1_555 1_555
S4 C44 1_555 1_555
C12 S2 1_555 1_555
C15 C16 1_555 1_555
C17 N2 1_555 1_555
C21 C22 1_555 1_555
C22 N1 1_555 1_555
C24 S1 1_555 1_555
C42 C61 1_555 1_555
C43 S3 1_555 1_555
C48 N3 1_555 1_555
C52 C53 1_555 1_555
C53 N4 1_555 1_555
C55 S4 1_555 1_555
C63 C64 1_555 1_555

#END
