
#######################################################################
#
#                 Cambridge Crystallographic Data Centre
#                                CCDC 
#
#######################################################################
#
# If this CIF has been generated from an entry in the Cambridge 
# Structural Database, then it will include bibliographic, chemical, 
# crystal, experimental, refinement or atomic coordinate data resulting 
# from the CCDC's data processing and validation procedures.
#
#######################################################################

data_JEZRIP
_chemical_name_common            
'endo-8-Hydroxy-8-methyl-2,3:6,7-dibenzobicyclo(3.3.1)nona-2,6-dien-4-one dimethylsulfoxide clathrate'
_chemical_formula_moiety         'C18 H16 O2,C2 H6 O1 S1'
_chemical_name_systematic        
'11,12-Dihydro-endo-12-hydroxy-12-methyl-5,11-methanodibenzo(a,e)cyclo-octen-6(5H)-one dimethylsulfoxide clathrate'
_symmetry_cell_setting           monoclinic
_symmetry_space_group_name_H-M   'P 21/c'
_symmetry_Int_Tables_number      14
_space_group_name_Hall           '-P 2ybc'
loop_
_symmetry_equiv_pos_site_id
_symmetry_equiv_pos_as_xyz
1 x,y,z
2 -x,1/2+y,1/2-z
3 -x,-y,-z
4 x,1/2-y,1/2+z
_cell_length_a                   7.3324(5)
_cell_length_b                   29.947(1)
_cell_length_c                   8.4414(5)
_cell_angle_alpha                90
_cell_angle_beta                 111.606(3)
_cell_angle_gamma                90
_cell_volume                     1723.35
_exptl_crystal_colour            white
_chemical_melting_point          92-94deg.C
_cell_formula_units_Z            4
loop_
_atom_site_label
_atom_site_type_symbol
_atom_site_fract_x
_atom_site_fract_y
_atom_site_fract_z
O1 O 0.2624(2) 0.1517 0.8798(2)
O2 O 0.6988(2) 0.0417(1) 0.5819(2)
C1 C 0.2133(3) 0.0575(1) 0.5683(2)
C2 C 0.2456(3) 0.0790(1) 0.7413(2)
C3 C 0.2116(2) 0.1300(1) 0.7180(2)
C4 C 0.3243(2) 0.1501(1) 0.6150(2)
C5 C 0.3945(2) 0.1238(1) 0.5129(2)
C6 C -0.0074(3) 0.1398(41) 0.6280(3)
C7 C 0.3479(3) 0.1962(1) 0.6128(2)
C8 C 0.4364(3) 0.2162(1) 0.5121(3)
C9 C 0.5052(3) 0.1898(1) 0.4114(3)
C10 C 0.4857(3) 0.1442(1) 0.4132(2)
C11 C 0.3775(3) 0.0730(1) 0.5114(2)
C12 C 0.5719(3) 0.0549(1) 0.6321(2)
C13 C 0.6009(3) 0.0546(1) 0.8162(2)
C14 C 0.4459(3) 0.0664(1) 0.8677(2)
C15 C 0.7815(3) 0.0413(1) 0.9349(2)
C16 C 0.8113(3) 0.0394(1) 1.1063(2)
C17 C 0.6598(4) 0.0509(1) 1.1591(2)
C18 C 0.4796(3) 0.0643(1) 1.0416(2)
H1 H 0.3881 0.1553 0.9247
H2 H 0.1568 0.0672 0.7930
H3 H 0.3637 0.0634 0.3999
H4 H 0.0787 0.0669 0.4789
H5 H 0.2067 0.0238 0.5770
H6 H 0.2954 0.2141 0.6742
H7 H 0.4459 0.2486 0.5112
H8 H 0.5549 0.2060 0.3360
H9 H 0.5322 0.1248 0.3367
H10 H 0.8853 0.0301 0.8899
H11 H 0.9484 0.0276 1.1975
H12 H 0.6659 0.0462 1.2787
H13 H 0.3676 0.0723 1.0783
H14 H -0.0553 0.1251 0.5282
H15 H -0.0318 0.1721 0.6110
H16 H -0.0811 0.1252 0.6919
S1 S 0.7996(1) 0.1695 -0.0244(1)
O3 O 0.6434(2) 0.1806(1) 0.0442(2)
C19 C 0.8913(4) 0.2207(1) -0.0670(4)
C20 C 1.0089(4) 0.1526(1) 0.1506(4)
H17 H 0.8893 0.2422 0.0040
H18 H 0.7940 0.2359 -0.1697
H19 H 1.0050 0.2150 -0.0691
H20 H 1.0314 0.1781 0.2330
H21 H 0.9750 0.1276 0.2015
H22 H 1.1292 0.1428 0.1072
loop_
_geom_bond_atom_site_label_1
_geom_bond_atom_site_label_2
_geom_bond_site_symmetry_1
_geom_bond_site_symmetry_2
O1 C3 1_555 1_555
O2 C12 1_555 1_555
C1 C2 1_555 1_555
C2 C3 1_555 1_555
C3 C4 1_555 1_555
C4 C5 1_555 1_555
C5 C10 1_555 1_555
C6 C3 1_555 1_555
C7 C4 1_555 1_555
C8 C7 1_555 1_555
C9 C8 1_555 1_555
C10 C9 1_555 1_555
C11 C1 1_555 1_555
C12 C11 1_555 1_555
C13 C12 1_555 1_555
C14 C2 1_555 1_555
C15 C13 1_555 1_555
C16 C15 1_555 1_555
C17 C16 1_555 1_555
C18 C14 1_555 1_555
H1 O1 1_555 1_555
H2 C2 1_555 1_555
H3 C11 1_555 1_555
H4 C1 1_555 1_555
H5 C1 1_555 1_555
H6 C7 1_555 1_555
H7 C8 1_555 1_555
H8 C9 1_555 1_555
H9 C10 1_555 1_555
H10 C15 1_555 1_555
H11 C16 1_555 1_555
H12 C17 1_555 1_555
H13 C18 1_555 1_555
H14 C6 1_555 1_555
H15 C6 1_555 1_555
H16 C6 1_555 1_555
S1 O3 1_555 1_555
C19 S1 1_555 1_555
C20 S1 1_555 1_555
H17 C19 1_555 1_555
H18 C19 1_555 1_555
H19 C19 1_555 1_555
H20 C20 1_555 1_555
H21 C20 1_555 1_555
H22 C20 1_555 1_555
C5 C11 1_555 1_555
C13 C14 1_555 1_555
C17 C18 1_555 1_555

#END
