
#######################################################################
#
#                 Cambridge Crystallographic Data Centre
#                                CCDC 
#
#######################################################################
#
# If this CIF has been generated from an entry in the Cambridge 
# Structural Database, then it will include bibliographic, chemical, 
# crystal, experimental, refinement or atomic coordinate data resulting 
# from the CCDC's data processing and validation procedures.
#
#######################################################################

data_JEZTEQ
_chemical_formula_moiety         'C24 H22 F2 N2 S2'
_chemical_name_systematic        
2,5-dibutyl-9,10-difluorobisthieno[3,2-a:2',3'-c]phenazine
_symmetry_cell_setting           monoclinic
_symmetry_space_group_name_H-M   'P 21/c'
_symmetry_Int_Tables_number      14
_space_group_name_Hall           '-P 2ybc'
loop_
_symmetry_equiv_pos_site_id
_symmetry_equiv_pos_as_xyz
1 x,y,z
2 -x,1/2+y,1/2-z
3 -x,-y,-z
4 x,1/2-y,1/2+z
_cell_length_a                   4.9401(5)
_cell_length_b                   27.416(3)
_cell_length_c                   15.4519(14)
_cell_angle_alpha                90
_cell_angle_beta                 95.408(2)
_cell_angle_gamma                90
_cell_volume                     2083.46
_exptl_crystal_colour            yellow
_exptl_crystal_description       needle
_cell_formula_units_Z            4
loop_
_atom_site_label
_atom_site_type_symbol
_atom_site_fract_x
_atom_site_fract_y
_atom_site_fract_z
S1 S 0.31768(12) 0.41875(2) 0.35812(4)
S2 S 0.77015(12) 0.51520(2) 0.41253(4)
F1 F -0.4479(3) 0.61914(6) -0.12244(9)
N1 N -0.0563(4) 0.52268(8) 0.11198(13)
F2 F -0.0753(3) 0.68727(6) -0.08966(10)
C1 C 0.1384(5) 0.60169(9) 0.08335(15)
N2 N 0.3294(4) 0.59857(8) 0.15138(12)
C2 C 0.3291(4) 0.55823(9) 0.19941(15)
C3 C 0.1343(5) 0.51955(9) 0.17920(15)
C4 C 0.5261(4) 0.51187(9) 0.32497(15)
C5 C 0.5250(4) 0.55324(9) 0.27396(15)
C6 C -0.0576(5) 0.56387(9) 0.06361(15)
C7 C 0.3391(5) 0.47316(9) 0.30384(15)
C8 C -0.0612(5) 0.64784(10) -0.03717(16)
C9 C 0.1458(4) 0.47628(9) 0.23356(15)
C10 C -0.2583(5) 0.61112(10) -0.05522(16)
C11 C 1.1686(5) 0.64863(10) 0.40082(16)
H1 H 1.0060 0.6687 0.3964
H2 H 1.2281 0.6454 0.3430
C12 C -0.0743(5) 0.34976(10) 0.29580(17)
H3 H -0.1978 0.3427 0.2448
H4 H -0.1804 0.3504 0.3455
C13 C 1.1012(5) 0.59853(9) 0.43450(16)
H5 H 1.2635 0.5785 0.4371
H6 H 1.0500 0.6019 0.4933
C14 C 0.0470(5) 0.39953(10) 0.28528(16)
C15 C 0.8755(5) 0.57262(9) 0.38030(16)
C16 C 0.7284(5) 0.58760(9) 0.30638(15)
H7 H 0.7568 0.6173 0.2795
C17 C -0.2583(5) 0.57004(10) -0.00725(16)
H8 H -0.3885 0.5460 -0.0206
C18 C 0.1327(5) 0.64378(10) 0.02988(16)
H9 H 0.2613 0.6683 0.0410
C19 C 1.3904(5) 0.67375(10) 0.45996(18)
H10 H 1.3293 0.6769 0.5176
H11 H 1.5512 0.6533 0.4648
C20 C 0.1324(5) 0.30874(9) 0.30832(17)
H12 H 0.2465 0.3092 0.2606
H13 H 0.2483 0.3145 0.3616
C21 C -0.0212(5) 0.43400(9) 0.22423(15)
H14 H -0.1629 0.4304 0.1806
C22 C 0.0032(6) 0.25871(11) 0.3128(2)
H15 H -0.1078 0.2580 0.3613
H16 H -0.1159 0.2533 0.2601
C23 C 1.4670(6) 0.72382(11) 0.4287(2)
H17 H 1.6061 0.7375 0.4690
H18 H 1.3099 0.7446 0.4247
H19 H 1.5334 0.7210 0.3725
C24 C 0.2075(7) 0.21768(12) 0.3233(2)
H20 H 0.1136 0.1872 0.3264
H21 H 0.3249 0.2225 0.3757
H22 H 0.3140 0.2173 0.2744
loop_
_geom_bond_atom_site_label_1
_geom_bond_atom_site_label_2
_geom_bond_site_symmetry_1
_geom_bond_site_symmetry_2
S1 C7 1_555 1_555
S2 C4 1_555 1_555
F1 C10 1_555 1_555
N1 C3 1_555 1_555
F2 C8 1_555 1_555
C1 N2 1_555 1_555
N2 C2 1_555 1_555
C2 C3 1_555 1_555
C3 C9 1_555 1_555
C4 C5 1_555 1_555
C5 C2 1_555 1_555
C6 N1 1_555 1_555
C7 C4 1_555 1_555
C8 C10 1_555 1_555
C9 C7 1_555 1_555
C10 C17 1_555 1_555
C11 H1 1_555 1_555
H2 C11 1_555 1_555
C12 H3 1_555 1_555
H4 C12 1_555 1_555
C13 C11 1_555 1_555
H5 C13 1_555 1_555
H6 C13 1_555 1_555
C14 S1 1_555 1_555
C15 S2 1_555 1_555
C16 C5 1_555 1_555
H7 C16 1_555 1_555
C17 C6 1_555 1_555
H8 C17 1_555 1_555
C18 C1 1_555 1_555
H9 C18 1_555 1_555
C19 C11 1_555 1_555
H10 C19 1_555 1_555
H11 C19 1_555 1_555
C20 C12 1_555 1_555
H12 C20 1_555 1_555
H13 C20 1_555 1_555
C21 C9 1_555 1_555
H14 C21 1_555 1_555
C22 C20 1_555 1_555
H15 C22 1_555 1_555
H16 C22 1_555 1_555
C23 C19 1_555 1_555
H17 C23 1_555 1_555
H18 C23 1_555 1_555
H19 C23 1_555 1_555
C24 C22 1_555 1_555
H20 C24 1_555 1_555
H21 C24 1_555 1_555
H22 C24 1_555 1_555
C1 C6 1_555 1_555
C8 C18 1_555 1_555
C12 C14 1_555 1_555
C13 C15 1_555 1_555
C14 C21 1_555 1_555
C15 C16 1_555 1_555

#END
