
#######################################################################
#
#                 Cambridge Crystallographic Data Centre
#                                CCDC 
#
#######################################################################
#
# If this CIF has been generated from an entry in the Cambridge 
# Structural Database, then it will include bibliographic, chemical, 
# crystal, experimental, refinement or atomic coordinate data resulting 
# from the CCDC's data processing and validation procedures.
#
#######################################################################

data_JEZWUG
_chemical_formula_moiety         'C10 H16 N3 P1 S1'
_chemical_name_systematic        
2-Diethylamino-benzo-1,3,2-diazaphosphole-2-thione
_symmetry_cell_setting           monoclinic
_symmetry_space_group_name_H-M   'P 21/c'
_symmetry_Int_Tables_number      14
_space_group_name_Hall           '-P 2ybc'
loop_
_symmetry_equiv_pos_site_id
_symmetry_equiv_pos_as_xyz
1 x,y,z
2 -x,1/2+y,1/2-z
3 -x,-y,-z
4 x,1/2-y,1/2+z
_cell_length_a                   14.736(6)
_cell_length_b                   8.872(5)
_cell_length_c                   20.581(8)
_cell_angle_alpha                90
_cell_angle_beta                 104.38(3)
_cell_angle_gamma                90
_cell_volume                     2606.41
_exptl_crystal_colour            colorless
_chemical_melting_point          142.5-144.5deg.C
_cell_formula_units_Z            8
loop_
_atom_site_label
_atom_site_type_symbol
_atom_site_fract_x
_atom_site_fract_y
_atom_site_fract_z
P1 P 0.4669(1) 0.7242(2) 0.1847(1)
S1 S 0.4140(1) 0.7186(2) 0.2621(1)
N1 N 0.5509(4) 0.8497(6) 0.1862(3)
N2 N 0.5396(3) 0.5834(6) 0.1778(3)
N3 N 0.3863(3) 0.7386(7) 0.1158(3)
C1 C 0.6382(4) 0.7852(7) 0.1862(3)
C2 C 0.6317(4) 0.6310(6) 0.1808(3)
C3 C 0.7092(4) 0.5449(7) 0.1790(3)
C4 C 0.7933(4) 0.6203(9) 0.1829(3)
C5 C 0.8002(4) 0.7703(9) 0.1881(3)
C6 C 0.7223(4) 0.8591(7) 0.1898(3)
C7 C 0.2847(5) 0.7583(9) 0.1122(5)
C8 C 0.2348(6) 0.6154(11) 0.1009(6)
C9 C 0.4153(7) 0.7416(23) 0.0488(6)
C10 C 0.3845(25) 0.6461(40) 0.0020(15)
H1 H 0.5491(36) 0.9343(58) 0.1935(26)
H2 H 0.5251(33) 0.4918(57) 0.1807(23)
H3 H 0.7053 0.4372 0.1751
H4 H 0.8481 0.5626 0.1820
H5 H 0.8596 0.8177 0.1906
H6 H 0.7268 0.9669 0.1934
H7 H 0.2578 0.8261 0.0762
H8 H 0.2783 0.8001 0.1538
H9 H 0.1697 0.6312 0.0991
H10 H 0.2612 0.5473 0.1369
H11 H 0.2408 0.5733 0.0592
P2 P 0.0724(1) 0.1004(2) 0.1119(1)
S2 S 0.0308(1) -0.1030(2) 0.1246(1)
N4 N 0.1822(3) 0.1426(6) 0.1513(3)
N5 N 0.0950(5) 0.1431(7) 0.0398(3)
N6 N 0.0010(4) 0.2252(6) 0.1287(3)
C12 C 0.2385(4) 0.1797(6) 0.1083(3)
C13 C 0.1871(4) 0.1798(7) 0.0423(3)
C14 C 0.2277(5) 0.2139(7) -0.0087(3)
C15 C 0.3224(6) 0.2479(9) 0.0074(4)
C16 C 0.3747(5) 0.2477(9) 0.0724(5)
C17 C 0.3339(5) 0.2127(8) 0.1248(3)
C18 C 0.0220(7) 0.3865(9) 0.1203(5)
C19 C -0.0382(10) 0.4678(14) 0.0718(7)
C21 C -0.0873(7) 0.1877(10) 0.1495(5)
C23 C -0.0841(14) 0.1865(24) 0.2144(9)
H12 H 0.2034(40) 0.1478(63) 0.1993(32)
H13 H 0.0684(29) 0.1345(46) 0.0144(19)
H14 H 0.1915 0.2143 -0.0544
H15 H 0.3519 0.2728 -0.0279
H16 H 0.4404 0.2703 0.0820
H17 H 0.3700 0.2123 0.1706
C11? C 0.4028(15) 0.8633(27) 0.0092(13)
C20? C 0.0418(15) 0.4606(32) 0.1701(1)
C22? C -0.1666(13) 0.1929(22) 0.1045(14)
loop_
_geom_bond_atom_site_label_1
_geom_bond_atom_site_label_2
_geom_bond_site_symmetry_1
_geom_bond_site_symmetry_2
P1 S1 1_555 1_555
N1 P1 1_555 1_555
N2 P1 1_555 1_555
N3 P1 1_555 1_555
C1 N1 1_555 1_555
C2 N2 1_555 1_555
C3 C2 1_555 1_555
C4 C3 1_555 1_555
C5 C4 1_555 1_555
C6 C1 1_555 1_555
C7 N3 1_555 1_555
C8 C7 1_555 1_555
C9 N3 1_555 1_555
C10 C9 1_555 1_555
P2 S2 1_555 1_555
N4 P2 1_555 1_555
N5 P2 1_555 1_555
N6 P2 1_555 1_555
C12 N4 1_555 1_555
C13 N5 1_555 1_555
C14 C13 1_555 1_555
C15 C14 1_555 1_555
C16 C15 1_555 1_555
C17 C12 1_555 1_555
C18 N6 1_555 1_555
C19 C18 1_555 1_555
C21 N6 1_555 1_555
C23 C21 1_555 1_555
H1 N1 1_555 1_555
H2 N2 1_555 1_555
H3 C3 1_555 1_555
H4 C4 1_555 1_555
H5 C5 1_555 1_555
H6 C6 1_555 1_555
H7 C7 1_555 1_555
H8 C7 1_555 1_555
H9 C8 1_555 1_555
H10 C8 1_555 1_555
H11 C8 1_555 1_555
H12 N4 1_555 1_555
H13 N5 1_555 1_555
H14 C14 1_555 1_555
H15 C15 1_555 1_555
H16 C16 1_555 1_555
H17 C17 1_555 1_555
C1 C2 1_555 1_555
C5 C6 1_555 1_555
C12 C13 1_555 1_555
C16 C17 1_555 1_555

#END
