
#######################################################################
#
#                 Cambridge Crystallographic Data Centre
#                                CCDC 
#
#######################################################################
#
# If this CIF has been generated from an entry in the Cambridge 
# Structural Database, then it will include bibliographic, chemical, 
# crystal, experimental, refinement or atomic coordinate data resulting 
# from the CCDC's data processing and validation procedures.
#
#######################################################################

data_JEZYUL
_chemical_formula_moiety         'C39 H40 B2 O1'
_chemical_name_systematic        
'{8-[bis(2,4,6-trimethylphenyl)boranyl]biphenylen-1-yl}(2,4,6-trimethylphenyl)borinic acid'
_symmetry_cell_setting           triclinic
_symmetry_space_group_name_H-M   'P -1'
_symmetry_Int_Tables_number      2
_space_group_name_Hall           '-P 1'
loop_
_symmetry_equiv_pos_site_id
_symmetry_equiv_pos_as_xyz
1 x,y,z
2 -x,-y,-z
_cell_length_a                   8.6324(13)
_cell_length_b                   12.4436(19)
_cell_length_c                   15.370(2)
_cell_angle_alpha                106.172(7)
_cell_angle_beta                 101.752(7)
_cell_angle_gamma                93.431(8)
_cell_volume                     1540.47
_exptl_crystal_colour            yellow
_exptl_crystal_description       block
_cell_formula_units_Z            2
loop_
_atom_site_label
_atom_site_type_symbol
_atom_site_fract_x
_atom_site_fract_y
_atom_site_fract_z
O1 O -0.2818(2) 0.46929(13) 0.15601(12)
H1 H -0.2013 0.5140 0.1675
C1 C -0.0492(2) 0.75000(14) 0.35114(11)
C2 C 0.0307(2) 0.85290(14) 0.41991(12)
H2 H -0.0044 0.9206 0.4147
C3 C 0.1564(2) 0.85709(15) 0.49326(12)
H3 H 0.2043 0.9267 0.5342
C4 C 0.2135(2) 0.75800(15) 0.50711(12)
H4 H 0.2983 0.7598 0.5559
C5 C 0.1363(2) 0.65873(15) 0.44422(11)
C6 C 0.00741(19) 0.65395(14) 0.36812(11)
C7 C -0.0139(2) 0.52461(14) 0.34413(11)
C8 C -0.1059(2) 0.42271(14) 0.29326(11)
C9 C -0.0537(2) 0.32833(15) 0.32111(12)
H5 H -0.1111 0.2577 0.2896
C10 C 0.0770(2) 0.33550(15) 0.39209(13)
H6 H 0.1066 0.2702 0.4055
C11 C 0.1666(2) 0.44073(15) 0.44476(12)
H7 H 0.2537 0.4471 0.4936
C12 C 0.1177(2) 0.53251(15) 0.41957(11)
C13 C -0.1688(2) 0.71203(14) 0.16309(11)
C14 C -0.3109(2) 0.67144(14) 0.09223(12)
C15 C -0.3034(2) 0.62426(15) -0.00027(12)
H8 H -0.3976 0.5971 -0.0455
C16 C -0.1591(3) 0.61686(16) -0.02630(13)
C17 C -0.0199(3) 0.65889(17) 0.04208(13)
H9 H 0.0775 0.6554 0.0251
C18 C -0.0214(2) 0.70637(15) 0.13565(12)
C19 C -0.4748(2) 0.67273(18) 0.11245(14)
H10 H -0.4769 0.6418 0.1629
H11 H -0.5521 0.6283 0.0581
H12 H -0.4995 0.7489 0.1292
C20 C -0.1524(3) 0.5640(2) -0.12655(14)
H13 H -0.2577 0.5322 -0.1629
H14 H -0.0840 0.5057 -0.1300
H15 H -0.1114 0.6206 -0.1504
C21 C 0.1376(2) 0.75539(19) 0.20265(14)
H16 H 0.1282 0.8280 0.2427
H17 H 0.2166 0.7631 0.1682
H18 H 0.1688 0.7061 0.2395
C22 C -0.3018(2) 0.84994(14) 0.29476(11)
C23 C -0.4030(2) 0.82866(14) 0.35113(12)
C24 C -0.5156(2) 0.90110(15) 0.37399(12)
H19 H -0.5819 0.8855 0.4108
C25 C -0.5315(2) 0.99550(15) 0.34350(12)
C26 C -0.4305(2) 1.01689(14) 0.28817(12)
H20 H -0.4394 1.0800 0.2671
C27 C -0.3170(2) 0.94643(14) 0.26366(11)
C28 C -0.3993(3) 0.72442(17) 0.38392(15)
H21 H -0.3980 0.6596 0.3327
H22 H -0.4923 0.7143 0.4074
H23 H -0.3054 0.7333 0.4324
C29 C -0.6550(2) 1.07176(17) 0.36905(14)
H24 H -0.6088 1.1490 0.3868
H25 H -0.6913 1.0571 0.4201
H26 H -0.7436 1.0577 0.3165
C30 C -0.2094(3) 0.97685(16) 0.20540(14)
H27 H -0.2219 0.9163 0.1489
H28 H -0.1004 0.9893 0.2397
H29 H -0.2375 1.0443 0.1907
C31 C -0.4002(2) 0.30423(15) 0.18955(12)
C32 C -0.5128(2) 0.31484(15) 0.24420(13)
C33 C -0.6524(2) 0.23919(17) 0.21493(14)
H30 H -0.7274 0.2483 0.2512
C34 C -0.6819(2) 0.15079(17) 0.13306(15)
C35 C -0.5662(2) 0.13787(16) 0.08050(13)
H31 H -0.5829 0.0781 0.0261
C36 C -0.4266(2) 0.21254(15) 0.10781(13)
C37 C -0.4910(3) 0.41010(18) 0.33339(15)
H32 H -0.5046 0.3800 0.3828
H33 H -0.5687 0.4607 0.3253
H34 H -0.3858 0.4502 0.3487
C38 C -0.8355(3) 0.0722(2) 0.1015(2)
H35 H -0.8160 0.0019 0.1134
H36 H -0.8767 0.0591 0.0360
H37 H -0.9117 0.1055 0.1350
C39 C -0.3042(3) 0.19493(18) 0.04880(15)
H38 H -0.2722 0.2649 0.0388
H39 H -0.3500 0.1398 -0.0101
H40 H -0.2130 0.1690 0.0803
B1 B -0.1760(2) 0.76667(15) 0.26738(13)
B2 B -0.2592(3) 0.40240(17) 0.21225(14)
loop_
_geom_bond_atom_site_label_1
_geom_bond_atom_site_label_2
_geom_bond_site_symmetry_1
_geom_bond_site_symmetry_2
O1 H1 1_555 1_555
C1 C2 1_555 1_555
C2 H2 1_555 1_555
C3 C2 1_555 1_555
H3 C3 1_555 1_555
C4 C3 1_555 1_555
H4 C4 1_555 1_555
C5 C4 1_555 1_555
C6 C1 1_555 1_555
C7 C6 1_555 1_555
C8 C7 1_555 1_555
C9 C8 1_555 1_555
H5 C9 1_555 1_555
C10 C9 1_555 1_555
H6 C10 1_555 1_555
C11 C10 1_555 1_555
H7 C11 1_555 1_555
C12 C5 1_555 1_555
C13 C14 1_555 1_555
C14 C15 1_555 1_555
C15 H8 1_555 1_555
C16 C15 1_555 1_555
C17 C16 1_555 1_555
H9 C17 1_555 1_555
C18 C13 1_555 1_555
C19 C14 1_555 1_555
H10 C19 1_555 1_555
H11 C19 1_555 1_555
H12 C19 1_555 1_555
C20 C16 1_555 1_555
H13 C20 1_555 1_555
H14 C20 1_555 1_555
H15 C20 1_555 1_555
C21 C18 1_555 1_555
H16 C21 1_555 1_555
H17 C21 1_555 1_555
H18 C21 1_555 1_555
C22 C23 1_555 1_555
C23 C24 1_555 1_555
C24 H19 1_555 1_555
C25 C24 1_555 1_555
C26 C25 1_555 1_555
H20 C26 1_555 1_555
C27 C22 1_555 1_555
C28 C23 1_555 1_555
H21 C28 1_555 1_555
H22 C28 1_555 1_555
H23 C28 1_555 1_555
C29 C25 1_555 1_555
H24 C29 1_555 1_555
H25 C29 1_555 1_555
H26 C29 1_555 1_555
C30 C27 1_555 1_555
H27 C30 1_555 1_555
H28 C30 1_555 1_555
H29 C30 1_555 1_555
C31 C32 1_555 1_555
C32 C33 1_555 1_555
C33 H30 1_555 1_555
C34 C33 1_555 1_555
C35 C34 1_555 1_555
H31 C35 1_555 1_555
C36 C31 1_555 1_555
C37 C32 1_555 1_555
H32 C37 1_555 1_555
H33 C37 1_555 1_555
H34 C37 1_555 1_555
C38 C34 1_555 1_555
H35 C38 1_555 1_555
H36 C38 1_555 1_555
H37 C38 1_555 1_555
C39 C36 1_555 1_555
H38 C39 1_555 1_555
H39 C39 1_555 1_555
H40 C39 1_555 1_555
B1 C1 1_555 1_555
B2 O1 1_555 1_555
C5 C6 1_555 1_555
C7 C12 1_555 1_555
C8 B2 1_555 1_555
C11 C12 1_555 1_555
C13 B1 1_555 1_555
C17 C18 1_555 1_555
C22 B1 1_555 1_555
C26 C27 1_555 1_555
C31 B2 1_555 1_555
C35 C36 1_555 1_555

#END
