
#######################################################################
#
#                 Cambridge Crystallographic Data Centre
#                                CCDC 
#
#######################################################################
#
# If this CIF has been generated from an entry in the Cambridge 
# Structural Database, then it will include bibliographic, chemical, 
# crystal, experimental, refinement or atomic coordinate data resulting 
# from the CCDC's data processing and validation procedures.
#
#######################################################################

data_JIBDOQ
_chemical_formula_moiety         'C27 H38 N3 O1 1+,C1 F3 O3 S1 1-'
_chemical_name_systematic        
'1,3-bis[2,6-di-isopropylphenyl]-N-hydroxy-1,3-dihydro-2H-imidazol-2-iminium radical trifluoromethanesulfonate'
_symmetry_cell_setting           orthorhombic
_symmetry_space_group_name_H-M   'P 21 21 21'
_symmetry_Int_Tables_number      19
_space_group_name_Hall           'P 2ac 2ab'
loop_
_symmetry_equiv_pos_site_id
_symmetry_equiv_pos_as_xyz
1 x,y,z
2 1/2-x,-y,1/2+z
3 -x,1/2+y,1/2-z
4 1/2+x,1/2-y,-z
_cell_length_a                   10.5153(6)
_cell_length_b                   13.9953(6)
_cell_length_c                   20.4490(11)
_cell_angle_alpha                90
_cell_angle_beta                 90
_cell_angle_gamma                90
_cell_volume                     3009.37
_exptl_crystal_colour            colorless
_exptl_crystal_description       block
_cell_formula_units_Z            4
loop_
_atom_site_label
_atom_site_type_symbol
_atom_site_fract_x
_atom_site_fract_y
_atom_site_fract_z
S1 S 0.65573(7) 0.47391(5) 0.61287(3)
F1 F 0.5793(2) 0.53470(15) 0.72718(9)
F2 F 0.43090(18) 0.47331(16) 0.66839(10)
F3 F 0.5681(2) 0.38280(14) 0.71541(10)
O1 O 0.7809(2) 0.45614(16) 0.63846(11)
O2 O 0.6344(2) 0.57177(14) 0.59145(10)
O3 O 0.6056(2) 0.40227(15) 0.56897(11)
C1 C 0.5530(3) 0.4653(2) 0.68444(16)
O4 O 0.5078(2) 0.57590(17) 0.47861(11)
N1 N 0.5844(2) 0.59146(17) 0.34534(12)
N2 N 0.6271(2) 0.43926(17) 0.34699(12)
N3 N 0.5952(3) 0.5123(2) 0.45024(12)
C2 C 0.5984(3) 0.5151(2) 0.38436(14)
C3 C 0.6402(3) 0.3424(2) 0.37021(13)
C4 C 0.6043(3) 0.5613(2) 0.28072(14)
H1 H 0.6000 0.6004 0.2428
C5 C 0.6304(3) 0.4684(2) 0.28191(13)
H2 H 0.6479 0.4291 0.2451
C6 C 0.4378(3) 0.7241(2) 0.36142(14)
C7 C 0.5620(3) 0.6897(2) 0.36431(14)
C8 C 0.7622(3) 0.3089(2) 0.38432(15)
C9 C 0.6430(3) 0.8401(2) 0.39771(15)
H3 H 0.7114 0.8805 0.4103
C10 C 0.7727(3) 0.2129(2) 0.40194(15)
H4 H 0.8538 0.1869 0.4120
C11 C 0.4194(3) 0.8193(2) 0.37744(15)
H5 H 0.3362 0.8456 0.3760
C12 C 0.5456(3) 0.1917(2) 0.39239(16)
H6 H 0.4733 0.1513 0.3958
C13 C 0.8022(3) 0.7053(2) 0.38369(16)
H7 H 0.8008 0.6406 0.3630
C14 C 0.5205(3) 0.8767(2) 0.39553(17)
H8 H 0.5060 0.9417 0.4066
C15 C 0.3256(3) 0.6619(2) 0.34163(15)
H9 H 0.3593 0.5975 0.3293
C16 C 0.8781(3) 0.3735(2) 0.38191(17)
H10 H 0.8531 0.4338 0.3590
C17 C 0.6658(3) 0.1554(2) 0.40487(15)
H11 H 0.6750 0.0897 0.4156
C18 C 0.6673(3) 0.7449(2) 0.38170(14)
C19 C 0.5304(3) 0.2873(2) 0.37492(14)
C20 C 0.9874(3) 0.3287(2) 0.34375(17)
H12 H 1.0246 0.2765 0.3694
H13 H 1.0526 0.3773 0.3352
H14 H 0.9555 0.3036 0.3021
C21 C 0.9205(4) 0.3999(3) 0.45101(18)
H15 H 0.8493 0.4289 0.4746
H16 H 0.9911 0.4454 0.4487
H17 H 0.9484 0.3422 0.4741
C22 C 0.3985(3) 0.3313(3) 0.36408(17)
H18 H 0.4134 0.4005 0.3545
C23 C 0.8946(3) 0.7673(3) 0.34481(18)
H19 H 0.8623 0.7758 0.3002
H20 H 0.9780 0.7360 0.3432
H21 H 0.9030 0.8297 0.3660
C24 C 0.3337(4) 0.2915(3) 0.30522(18)
H22 H 0.3897 0.2977 0.2671
H23 H 0.2546 0.3267 0.2973
H24 H 0.3141 0.2239 0.3125
C25 C 0.2569(3) 0.7029(3) 0.28230(16)
H25 H 0.2164 0.7635 0.2942
H26 H 0.1918 0.6577 0.2675
H27 H 0.3182 0.7138 0.2470
C26 C 0.3197(3) 0.3283(3) 0.42547(17)
H28 H 0.3013 0.2617 0.4368
H29 H 0.2397 0.3627 0.4183
H30 H 0.3667 0.3585 0.4613
C27 C 0.2328(3) 0.6485(3) 0.39885(16)
H31 H 0.2773 0.6185 0.4356
H32 H 0.1621 0.6076 0.3850
H33 H 0.1997 0.7109 0.4125
C28 C 0.8478(4) 0.6933(3) 0.45443(17)
H34 H 0.8533 0.7561 0.4754
H35 H 0.9317 0.6629 0.4546
H36 H 0.7873 0.6531 0.4784
H37 H 0.595(3) 0.457(3) 0.4674(17)
H38 H 0.550(5) 0.590(3) 0.5209(17)
loop_
_geom_bond_atom_site_label_1
_geom_bond_atom_site_label_2
_geom_bond_site_symmetry_1
_geom_bond_site_symmetry_2
S1 O1 1_555 1_555
F1 C1 1_555 1_555
F2 C1 1_555 1_555
F3 C1 1_555 1_555
O2 S1 1_555 1_555
O3 S1 1_555 1_555
C1 S1 1_555 1_555
O4 N3 1_555 1_555
N1 C2 1_555 1_555
N2 C2 1_555 1_555
N3 C2 1_555 1_555
C3 N2 1_555 1_555
C4 N1 1_555 1_555
H1 C4 1_555 1_555
C5 N2 1_555 1_555
H2 C5 1_555 1_555
C6 C7 1_555 1_555
C7 N1 1_555 1_555
C8 C3 1_555 1_555
C9 H3 1_555 1_555
C10 C8 1_555 1_555
H4 C10 1_555 1_555
C11 C6 1_555 1_555
H5 C11 1_555 1_555
C12 H6 1_555 1_555
C13 H7 1_555 1_555
C14 C9 1_555 1_555
H8 C14 1_555 1_555
C15 C6 1_555 1_555
H9 C15 1_555 1_555
C16 C8 1_555 1_555
H10 C16 1_555 1_555
C17 C10 1_555 1_555
H11 C17 1_555 1_555
C18 C7 1_555 1_555
C19 C3 1_555 1_555
C20 C16 1_555 1_555
H12 C20 1_555 1_555
H13 C20 1_555 1_555
H14 C20 1_555 1_555
C21 C16 1_555 1_555
H15 C21 1_555 1_555
H16 C21 1_555 1_555
H17 C21 1_555 1_555
C22 C19 1_555 1_555
H18 C22 1_555 1_555
C23 C13 1_555 1_555
H19 C23 1_555 1_555
H20 C23 1_555 1_555
H21 C23 1_555 1_555
C24 C22 1_555 1_555
H22 C24 1_555 1_555
H23 C24 1_555 1_555
H24 C24 1_555 1_555
C25 C15 1_555 1_555
H25 C25 1_555 1_555
H26 C25 1_555 1_555
H27 C25 1_555 1_555
C26 C22 1_555 1_555
H28 C26 1_555 1_555
H29 C26 1_555 1_555
H30 C26 1_555 1_555
C27 C15 1_555 1_555
H31 C27 1_555 1_555
H32 C27 1_555 1_555
H33 C27 1_555 1_555
C28 C13 1_555 1_555
H34 C28 1_555 1_555
H35 C28 1_555 1_555
H36 C28 1_555 1_555
H37 N3 1_555 1_555
H38 O4 1_555 1_555
C4 C5 1_555 1_555
C9 C18 1_555 1_555
C11 C14 1_555 1_555
C12 C17 1_555 1_555
C12 C19 1_555 1_555
C13 C18 1_555 1_555

#END
