
#######################################################################
#
#                 Cambridge Crystallographic Data Centre
#                                CCDC 
#
#######################################################################
#
# If this CIF has been generated from an entry in the Cambridge 
# Structural Database, then it will include bibliographic, chemical, 
# crystal, experimental, refinement or atomic coordinate data resulting 
# from the CCDC's data processing and validation procedures.
#
#######################################################################

data_JIBGOT
_chemical_formula_moiety         'C22 H22 O7'
_chemical_name_systematic        
5-(3,4,5-trimethoxyphenyl)-5,8,8a,9-tetrahydro-2H-furo[3',4':6,7]naphtho[2,3-d][1,3]dioxol-6(5aH)-one
_symmetry_cell_setting           monoclinic
_symmetry_space_group_name_H-M   'P 21/c'
_symmetry_Int_Tables_number      14
_space_group_name_Hall           '-P 2ybc'
loop_
_symmetry_equiv_pos_site_id
_symmetry_equiv_pos_as_xyz
1 x,y,z
2 -x,1/2+y,1/2-z
3 -x,-y,-z
4 x,1/2-y,1/2+z
_cell_length_a                   10.7496(6)
_cell_length_b                   14.9983(8)
_cell_length_c                   11.7767(7)
_cell_angle_alpha                90
_cell_angle_beta                 97.320(6)
_cell_angle_gamma                90
_cell_volume                     1883.23
_exptl_crystal_colour            'light colorless'
_exptl_crystal_description       block
_cell_formula_units_Z            4
loop_
_atom_site_label
_atom_site_type_symbol
_atom_site_fract_x
_atom_site_fract_y
_atom_site_fract_z
O1 O -0.5746(2) -0.58571(16) -0.44402(19)
O2 O -0.6592(2) -0.68123(16) -0.5880(2)
O3 O -1.2020(2) -0.27549(17) -0.6889(2)
O4 O -1.1081(2) -0.20879(17) -0.5310(2)
O5 O -0.5922(2) -0.24073(16) -0.8021(2)
O6 O -0.6057(2) -0.07469(15) -0.7222(2)
O7 O -0.7430(2) -0.03721(15) -0.5553(2)
C1 C -0.8929(3) -0.35002(19) -0.5449(3)
H1 H -0.8891 -0.3395 -0.4624
C2 C -0.8404(3) -0.4426(2) -0.5610(2)
C3 C -0.7310(3) -0.4670(2) -0.4883(3)
H2 H -0.6954 -0.4286 -0.4312
C4 C -0.6791(3) -0.5481(2) -0.5041(3)
C5 C -0.5632(3) -0.6710(3) -0.4948(3)
H3 H -0.4818 -0.6763 -0.5215
H4 H -0.5701 -0.7174 -0.4386
C6 C -0.7296(3) -0.6046(2) -0.5896(3)
C7 C -0.8353(3) -0.5841(2) -0.6612(3)
H5 H -0.8685 -0.6236 -0.7181
C8 C -0.8931(3) -0.5008(2) -0.6464(2)
C9 C -1.0148(3) -0.4808(2) -0.7231(3)
H6 H -1.0054 -0.4966 -0.8014
H7 H -1.0816 -0.5169 -0.6993
C10 C -1.0499(3) -0.3834(2) -0.7181(3)
H8 H -0.9953 -0.3487 -0.7621
C11 C -1.1851(3) -0.3561(2) -0.7549(3)
H9 H -1.1992 -0.3438 -0.8364
H10 H -1.2424 -0.4026 -0.7374
C12 C -1.1121(3) -0.2699(3) -0.5976(3)
C13 C -1.0304(3) -0.3521(2) -0.5947(3)
H11 H -1.0702 -0.3968 -0.5506
C14 C -0.8159(3) -0.2768(2) -0.5938(3)
C15 C -0.7410(3) -0.2955(2) -0.6784(3)
H12 H -0.7385 -0.3531 -0.7075
C16 C -0.6700(3) -0.2286(2) -0.7198(3)
C17 C -0.6734(3) -0.1422(2) -0.6788(3)
C18 C -0.7483(3) -0.1238(2) -0.5931(3)
C19 C -0.8187(3) -0.1908(2) -0.5514(3)
H13 H -0.8683 -0.1779 -0.4943
C20 C -0.5507(3) -0.3281(2) -0.8228(3)
H14 H -0.5255 -0.3575 -0.7511
H15 H -0.4808 -0.3252 -0.8659
H16 H -0.6178 -0.3610 -0.8654
C21 C -0.4764(4) -0.0729(3) -0.6763(4)
H17 H -0.4685 -0.0545 -0.5977
H18 H -0.4325 -0.0317 -0.7192
H19 H -0.4412 -0.1314 -0.6812
C22 C -0.8180(3) -0.0136(2) -0.4695(3)
H20 H -0.7886 -0.0445 -0.3999
H21 H -0.9036 -0.0298 -0.4940
H22 H -0.8127 0.0496 -0.4565
loop_
_geom_bond_atom_site_label_1
_geom_bond_atom_site_label_2
_geom_bond_site_symmetry_1
_geom_bond_site_symmetry_2
O1 C4 1_555 1_555
O2 C5 1_555 1_555
O3 C11 1_555 1_555
O4 C12 1_555 1_555
O5 C16 1_555 1_555
O6 C17 1_555 1_555
O7 C18 1_555 1_555
C1 H1 1_555 1_555
C2 C1 1_555 1_555
C3 C2 1_555 1_555
H2 C3 1_555 1_555
C4 C3 1_555 1_555
C5 O1 1_555 1_555
H3 C5 1_555 1_555
H4 C5 1_555 1_555
C6 O2 1_555 1_555
C7 C6 1_555 1_555
H5 C7 1_555 1_555
C8 C2 1_555 1_555
C9 C8 1_555 1_555
H6 C9 1_555 1_555
H7 C9 1_555 1_555
C10 C9 1_555 1_555
H8 C10 1_555 1_555
C11 C10 1_555 1_555
H9 C11 1_555 1_555
H10 C11 1_555 1_555
C12 O3 1_555 1_555
C13 C1 1_555 1_555
H11 C13 1_555 1_555
C14 C1 1_555 1_555
C15 C14 1_555 1_555
H12 C15 1_555 1_555
C16 C15 1_555 1_555
C17 C16 1_555 1_555
C18 C17 1_555 1_555
C19 C14 1_555 1_555
H13 C19 1_555 1_555
C20 O5 1_555 1_555
H14 C20 1_555 1_555
H15 C20 1_555 1_555
H16 C20 1_555 1_555
C21 O6 1_555 1_555
H17 C21 1_555 1_555
H18 C21 1_555 1_555
H19 C21 1_555 1_555
C22 O7 1_555 1_555
H20 C22 1_555 1_555
H21 C22 1_555 1_555
H22 C22 1_555 1_555
C4 C6 1_555 1_555
C7 C8 1_555 1_555
C10 C13 1_555 1_555
C12 C13 1_555 1_555
C18 C19 1_555 1_555

#END
