
#######################################################################
#
#                 Cambridge Crystallographic Data Centre
#                                CCDC 
#
#######################################################################
#
# If this CIF has been generated from an entry in the Cambridge 
# Structural Database, then it will include bibliographic, chemical, 
# crystal, experimental, refinement or atomic coordinate data resulting 
# from the CCDC's data processing and validation procedures.
#
#######################################################################

data_JIBJOW
_chemical_formula_moiety         'C29 H28 Cl1 N1 O7'
_chemical_name_systematic        
"t-butyl 2-(4-chlorophenyl)-6-hydroxy-2,7-dimethoxy-2'-oxo-2,3-dihydrospiro[1-benzopyran-4,3'-indole]-1'(2'H)-carboxylate"
_symmetry_cell_setting           orthorhombic
_symmetry_space_group_name_H-M   'P 21 21 21'
_symmetry_Int_Tables_number      19
_space_group_name_Hall           'P 2ac 2ab'
loop_
_symmetry_equiv_pos_site_id
_symmetry_equiv_pos_as_xyz
1 x,y,z
2 1/2-x,-y,1/2+z
3 -x,1/2+y,1/2-z
4 1/2+x,1/2-y,-z
_cell_length_a                   10.4770(11)
_cell_length_b                   14.7947(16)
_cell_length_c                   17.4906(18)
_cell_angle_alpha                90
_cell_angle_beta                 90
_cell_angle_gamma                90
_cell_volume                     2711.11
_exptl_crystal_colour            colorless
_exptl_crystal_description       block
_cell_formula_units_Z            4
loop_
_atom_site_label
_atom_site_type_symbol
_atom_site_fract_x
_atom_site_fract_y
_atom_site_fract_z
Cl1 Cl 0.95467(12) 1.13479(7) 0.32054(5)
O1 O 0.61891(17) 0.87093(13) 0.55017(10)
O2 O 0.78802(18) 0.90561(12) 0.63172(10)
O3 O 0.7097(2) 0.60251(13) 0.50533(12)
O4 O 0.2495(2) 0.78684(17) 0.69576(14)
O5 O 0.9396(3) 0.42563(15) 0.62808(14)
O6 O 0.3658(3) 0.64131(16) 0.74664(16)
H1 H 0.2913 0.6578 0.7495
O7 O 0.8404(3) 0.45347(16) 0.51646(17)
N1 N 0.8453(2) 0.56191(15) 0.60526(14)
C1 C 0.8011(3) 0.94145(18) 0.49703(15)
C2 C 0.5612(3) 0.80958(18) 0.59981(14)
C3 C 0.4366(3) 0.83163(19) 0.62077(15)
H2 H 0.3980 0.8839 0.6024
C4 C 0.7544(2) 0.87600(18) 0.55758(14)
C5 C 0.7645(3) 0.62002(18) 0.56343(16)
C6 C 0.3715(3) 0.7744(2) 0.66938(17)
C7 C 0.8430(3) 0.69437(19) 0.67436(16)
C8 C 0.6217(3) 0.73353(18) 0.62646(15)
C9 C 0.8903(3) 0.60679(19) 0.67265(17)
C10 C 0.8797(3) 0.4726(2) 0.5858(2)
C11 C 0.7594(3) 0.71196(17) 0.60518(15)
C12 C 0.4308(3) 0.6965(2) 0.69678(17)
C13 C 0.5539(3) 0.67687(19) 0.67583(17)
H3 H 0.5928 0.6250 0.6948
C14 C 0.8957(3) 1.0599(2) 0.38878(17)
C15 C 0.7249(3) 0.9861(2) 0.65624(18)
H4 H 0.7416 1.0338 0.6205
H5 H 0.7559 1.0031 0.7058
H6 H 0.6346 0.9753 0.6589
C16 C 0.7254(3) 0.9705(2) 0.43785(16)
H7 H 0.6421 0.9494 0.4340
C17 C 0.9497(3) 0.7193(2) 0.79260(18)
H8 H 0.9706 0.7570 0.8333
C18 C 0.8115(3) 0.78264(17) 0.54784(16)
H9 H 0.9034 0.7868 0.5539
H10 H 0.7945 0.7618 0.4963
C19 C 0.8712(3) 0.7506(2) 0.73469(17)
H11 H 0.8380 0.8089 0.7365
C20 C 0.9254(3) 0.9722(2) 0.50116(19)
H12 H 0.9777 0.9531 0.5410
C21 C 0.7712(3) 1.0309(3) 0.38375(18)
H13 H 0.7186 1.0514 0.3446
C22 C 0.9681(3) 0.5745(2) 0.73031(19)
H14 H 1.0000 0.5159 0.7290
C23 C 0.9970(3) 0.6322(3) 0.7899(2)
H15 H 1.0496 0.6119 0.8292
C24 C 0.9729(3) 1.0313(2) 0.4463(2)
H16 H 1.0570 1.0511 0.4490
C25 C 0.8666(4) 0.3648(2) 0.4796(3)
C26 C 0.1901(4) 0.8716(3) 0.6845(2)
H17 H 0.1789 0.8820 0.6307
H18 H 0.2427 0.9184 0.7057
H19 H 0.1084 0.8718 0.7093
C27 C 1.0058(4) 0.3465(3) 0.4767(3)
H20 H 1.0497 0.3993 0.4586
H21 H 1.0220 0.2969 0.4427
H22 H 1.0358 0.3316 0.5270
C28 C 0.774(2) 0.3618(13) 0.4177(12)
H23 H 0.6896 0.3708 0.4381
H24 H 0.7779 0.3040 0.3928
H25 H 0.7924 0.4086 0.3814
C29 C 0.8122(16) 0.2877(12) 0.5424(11)
H26 H 0.8614 0.2910 0.5886
H27 H 0.8201 0.2284 0.5207
H28 H 0.7242 0.2998 0.5536
C30? C 0.7848(16) 0.2983(11) 0.5061(13)
H29? H 0.7915 0.2941 0.5608
H30? H 0.8074 0.2413 0.4837
H31? H 0.6986 0.3133 0.4924
C31? C 0.8447(17) 0.3900(8) 0.3899(7)
H32? H 0.7666 0.4234 0.3845
H33? H 0.8398 0.3354 0.3603
H34? H 0.9147 0.4261 0.3720
loop_
_geom_bond_atom_site_label_1
_geom_bond_atom_site_label_2
_geom_bond_site_symmetry_1
_geom_bond_site_symmetry_2
Cl1 C14 1_555 1_555
O1 C2 1_555 1_555
O2 C4 1_555 1_555
O3 C5 1_555 1_555
O4 C6 1_555 1_555
O5 C10 1_555 1_555
O6 H1 1_555 1_555
O7 C10 1_555 1_555
N1 C5 1_555 1_555
C1 C4 1_555 1_555
C2 C3 1_555 1_555
C3 H2 1_555 1_555
C4 O1 1_555 1_555
C5 C11 1_555 1_555
C6 C3 1_555 1_555
C7 C9 1_555 1_555
C8 C2 1_555 1_555
C9 N1 1_555 1_555
C10 N1 1_555 1_555
C11 C7 1_555 1_555
C12 O6 1_555 1_555
C13 C8 1_555 1_555
H3 C13 1_555 1_555
C14 C21 1_555 1_555
C15 O2 1_555 1_555
H4 C15 1_555 1_555
H5 C15 1_555 1_555
H6 C15 1_555 1_555
C16 C1 1_555 1_555
H7 C16 1_555 1_555
C17 H8 1_555 1_555
C18 C4 1_555 1_555
H9 C18 1_555 1_555
H10 C18 1_555 1_555
C19 C7 1_555 1_555
H11 C19 1_555 1_555
C20 C1 1_555 1_555
H12 C20 1_555 1_555
C21 C16 1_555 1_555
H13 C21 1_555 1_555
C22 C9 1_555 1_555
H14 C22 1_555 1_555
C23 C17 1_555 1_555
H15 C23 1_555 1_555
C24 C14 1_555 1_555
H16 C24 1_555 1_555
C25 O7 1_555 1_555
C26 O4 1_555 1_555
H17 C26 1_555 1_555
H18 C26 1_555 1_555
H19 C26 1_555 1_555
C27 C25 1_555 1_555
H20 C27 1_555 1_555
H21 C27 1_555 1_555
H22 C27 1_555 1_555
C28 C25 1_555 1_555
H23 C28 1_555 1_555
H24 C28 1_555 1_555
H25 C28 1_555 1_555
C29 C25 1_555 1_555
H26 C29 1_555 1_555
H27 C29 1_555 1_555
H28 C29 1_555 1_555
C6 C12 1_555 1_555
C8 C11 1_555 1_555
C11 C18 1_555 1_555
C12 C13 1_555 1_555
C17 C19 1_555 1_555
C20 C24 1_555 1_555
C22 C23 1_555 1_555

#END
