
#######################################################################
#
#                 Cambridge Crystallographic Data Centre
#                                CCDC 
#
#######################################################################
#
# If this CIF has been generated from an entry in the Cambridge 
# Structural Database, then it will include bibliographic, chemical, 
# crystal, experimental, refinement or atomic coordinate data resulting 
# from the CCDC's data processing and validation procedures.
#
#######################################################################

data_JIBMUF
_chemical_formula_moiety         'C56 H34 N2'
_chemical_name_systematic        
6,12-bis(biphenyl-4-yl)-3,9-diphenyltetracene-5,11-dicarbonitrile
_symmetry_cell_setting           monoclinic
_symmetry_space_group_name_H-M   'C 2/c'
_symmetry_Int_Tables_number      15
_space_group_name_Hall           '-C 2yn'
loop_
_symmetry_equiv_pos_site_id
_symmetry_equiv_pos_as_xyz
1 x,y,z
2 -x,y,1/2-z
3 1/2+x,1/2+y,z
4 1/2-x,1/2+y,1/2-z
5 -x,-y,-z
6 x,-y,1/2+z
7 1/2-x,1/2-y,-z
8 1/2+x,1/2-y,1/2+z
_cell_length_a                   25.9086(11)
_cell_length_b                   5.5063(2)
_cell_length_c                   27.0971(9)
_cell_angle_alpha                90
_cell_angle_beta                 99.378(3)
_cell_angle_gamma                90
_cell_volume                     3814.02
_exptl_crystal_colour            'dark red'
_exptl_crystal_description       needle
_cell_formula_units_Z            4
_exptl_crystal_recrystallization_method chloroform
loop_
_atom_site_label
_atom_site_type_symbol
_atom_site_fract_x
_atom_site_fract_y
_atom_site_fract_z
N1 N 0.65494(9) -0.3499(4) 0.44376(8)
C1 C 0.67221(10) -0.1702(5) 0.46131(9)
C2 C 0.69210(10) 0.0429(5) 0.48920(9)
C3 C 0.73824(10) 0.1634(4) 0.48121(8)
C4 C 0.66546(10) 0.1049(5) 0.52894(9)
C5 C 0.61633(10) 0.0011(5) 0.53429(9)
H1 H 0.6005 -0.1071 0.5101
C6 C 0.59164(10) 0.0553(5) 0.57378(9)
C7 C 0.53877(10) -0.0394(5) 0.57755(9)
C8 C 0.52045(12) -0.2602(5) 0.55644(10)
H2 H 0.5419 -0.3530 0.5394
C9 C 0.47170(12) -0.3422(6) 0.56036(10)
H3 H 0.4601 -0.4886 0.5454
C10 C 0.43916(11) -0.2125(6) 0.58612(11)
H4 H 0.4064 -0.2729 0.5895
C11 C 0.45620(11) 0.0106(6) 0.60697(10)
H5 H 0.4343 0.1034 0.6235
C12 C 0.50552(11) 0.0930(5) 0.60301(10)
H6 H 0.5169 0.2404 0.6176
C13 C 0.61811(11) 0.2120(5) 0.61208(9)
H7 H 0.6027 0.2450 0.6400
C14 C 0.66465(10) 0.3120(5) 0.60850(9)
H8 H 0.6809 0.4098 0.6344
C15 C 0.69004(10) 0.2728(4) 0.56597(9)
C16 C 0.73831(10) 0.3766(4) 0.56198(9)
C17 C 0.76657(10) 0.5144(5) 0.60555(8)
C18 C 0.81250(10) 0.4203(5) 0.63280(9)
H9 H 0.8255 0.2728 0.6234
C19 C 0.83909(11) 0.5444(5) 0.67378(9)
H10 H 0.8693 0.4778 0.6919
C20 C 0.82084(11) 0.7688(5) 0.68806(9)
C21 C 0.77430(11) 0.8580(5) 0.66139(9)
H11 H 0.7611 1.0047 0.6709
C22 C 0.74735(11) 0.7340(5) 0.62111(9)
H12 H 0.7161 0.7967 0.6041
C23 C 0.85150(12) 0.9138(5) 0.72914(9)
C24 C 0.90574(13) 0.9027(6) 0.73833(11)
H13 H 0.9230 0.7969 0.7198
C25 C 0.93464(15) 1.0478(8) 0.77488(12)
H14 H 0.9709 1.0367 0.7810
C26 C 0.90936(15) 1.2081(7) 0.80205(11)
H15 H 0.9287 1.3084 0.8258
C27 C 0.85610(14) 1.2196(6) 0.79410(10)
H16 H 0.8392 1.3262 0.8128
C28 C 0.82675(13) 1.0725(5) 0.75810(10)
H17 H 0.7904 1.0800 0.7533
N1F N 0.84506(9) 0.8499(4) 0.55624(8)
C1F C 0.82779(10) 0.6702(5) 0.53869(9)
C2F C 0.80790(10) 0.4571(5) 0.51080(9)
C3F C 0.76176(10) 0.3366(4) 0.51879(8)
C4F C 0.83454(10) 0.3951(5) 0.47106(9)
C5F C 0.88367(10) 0.4989(5) 0.46571(9)
H1F H 0.8995 0.6071 0.4899
C6F C 0.90836(10) 0.4447(5) 0.42622(9)
C7F C 0.96123(10) 0.5394(5) 0.42245(9)
C8F C 0.97955(12) 0.7602(5) 0.44356(10)
H2F H 0.9581 0.8530 0.4606
C9F C 1.02830(12) 0.8422(6) 0.43964(10)
H3F H 1.0399 0.9886 0.4546
C10F C 1.06084(11) 0.7125(6) 0.41388(11)
H4F H 1.0936 0.7729 0.4105
C11F C 1.04380(11) 0.4894(6) 0.39303(10)
H5F H 1.0657 0.3966 0.3765
C12F C 0.99448(11) 0.4070(5) 0.39699(10)
H6F H 0.9831 0.2596 0.3824
C13F C 0.88189(11) 0.2880(5) 0.38792(9)
H7F H 0.8973 0.2550 0.3600
C14F C 0.83535(10) 0.1880(5) 0.39150(9)
H8F H 0.8191 0.0902 0.3656
C15F C 0.80996(10) 0.2272(4) 0.43403(9)
C16F C 0.76169(10) 0.1234(4) 0.43802(9)
C17F C 0.73343(10) -0.0144(5) 0.39445(8)
C18F C 0.68750(10) 0.0797(5) 0.36720(9)
H9F H 0.6745 0.2272 0.3766
C19F C 0.66091(11) -0.0444(5) 0.32622(9)
H10F H 0.6307 0.0222 0.3081
C20F C 0.67916(11) -0.2688(5) 0.31194(9)
C21F C 0.72570(11) -0.3580(5) 0.33861(9)
H11F H 0.7389 -0.5047 0.3291
C22F C 0.75265(11) -0.2340(5) 0.37889(9)
H12F H 0.7839 -0.2967 0.3959
C23F C 0.64850(12) -0.4138(5) 0.27086(9)
C24F C 0.59426(13) -0.4027(6) 0.26167(11)
H13F H 0.5770 -0.2969 0.2802
C25F C 0.56536(15) -0.5478(8) 0.22512(12)
H14F H 0.5291 -0.5367 0.2190
C26F C 0.59064(15) -0.7081(7) 0.19795(11)
H15F H 0.5713 -0.8084 0.1742
C27F C 0.64390(14) -0.7196(6) 0.20590(10)
H16F H 0.6608 -0.8262 0.1872
C28F C 0.67325(13) -0.5725(5) 0.24190(10)
H17F H 0.7096 -0.5800 0.2467
loop_
_geom_bond_atom_site_label_1
_geom_bond_atom_site_label_2
_geom_bond_site_symmetry_1
_geom_bond_site_symmetry_2
N1 C1 1_555 1_555
C1 C2 1_555 1_555
C2 C3 1_555 1_555
C3 C3F 1_555 1_555
C4 C2 1_555 1_555
C5 C4 1_555 1_555
H1 C5 1_555 1_555
C6 C5 1_555 1_555
C7 C6 1_555 1_555
C8 C7 1_555 1_555
H2 C8 1_555 1_555
C9 C8 1_555 1_555
H3 C9 1_555 1_555
C10 C9 1_555 1_555
H4 C10 1_555 1_555
C11 C10 1_555 1_555
H5 C11 1_555 1_555
C12 C7 1_555 1_555
H6 C12 1_555 1_555
C13 C6 1_555 1_555
H7 C13 1_555 1_555
C14 C13 1_555 1_555
H8 C14 1_555 1_555
C15 C4 1_555 1_555
C16 C15 1_555 1_555
C17 C16 1_555 1_555
C18 C17 1_555 1_555
H9 C18 1_555 1_555
C19 C18 1_555 1_555
H10 C19 1_555 1_555
C20 C19 1_555 1_555
C21 C20 1_555 1_555
H11 C21 1_555 1_555
C22 C17 1_555 1_555
H12 C22 1_555 1_555
C23 C20 1_555 1_555
C24 C23 1_555 1_555
H13 C24 1_555 1_555
C25 C24 1_555 1_555
H14 C25 1_555 1_555
C26 C25 1_555 1_555
H15 C26 1_555 1_555
C27 C26 1_555 1_555
H16 C27 1_555 1_555
C28 C23 1_555 1_555
H17 C28 1_555 1_555
N1F C1F 1_555 1_555
C1F C2F 1_555 1_555
C2F C3F 1_555 1_555
C3F C16 1_555 1_555
C4F C2F 1_555 1_555
C5F C4F 1_555 1_555
H1F C5F 1_555 1_555
C6F C5F 1_555 1_555
C7F C6F 1_555 1_555
C8F C7F 1_555 1_555
H2F C8F 1_555 1_555
C9F C8F 1_555 1_555
H3F C9F 1_555 1_555
C10F C9F 1_555 1_555
H4F C10F 1_555 1_555
C11F C10F 1_555 1_555
H5F C11F 1_555 1_555
C12F C7F 1_555 1_555
H6F C12F 1_555 1_555
C13F C6F 1_555 1_555
H7F C13F 1_555 1_555
C14F C13F 1_555 1_555
H8F C14F 1_555 1_555
C15F C4F 1_555 1_555
C16F C3 1_555 1_555
C17F C16F 1_555 1_555
C18F C17F 1_555 1_555
H9F C18F 1_555 1_555
C19F C18F 1_555 1_555
H10F C19F 1_555 1_555
C20F C19F 1_555 1_555
C21F C20F 1_555 1_555
H11F C21F 1_555 1_555
C22F C17F 1_555 1_555
H12F C22F 1_555 1_555
C23F C20F 1_555 1_555
C24F C23F 1_555 1_555
H13F C24F 1_555 1_555
C25F C24F 1_555 1_555
H14F C25F 1_555 1_555
C26F C25F 1_555 1_555
H15F C26F 1_555 1_555
C27F C26F 1_555 1_555
H16F C27F 1_555 1_555
C28F C23F 1_555 1_555
H17F C28F 1_555 1_555
C11 C12 1_555 1_555
C14 C15 1_555 1_555
C21 C22 1_555 1_555
C27 C28 1_555 1_555
C11F C12F 1_555 1_555
C14F C15F 1_555 1_555
C15F C16F 1_555 1_555
C21F C22F 1_555 1_555
C27F C28F 1_555 1_555

#END
