
#######################################################################
#
#                 Cambridge Crystallographic Data Centre
#                                CCDC 
#
#######################################################################
#
# If this CIF has been generated from an entry in the Cambridge 
# Structural Database, then it will include bibliographic, chemical, 
# crystal, experimental, refinement or atomic coordinate data resulting 
# from the CCDC's data processing and validation procedures.
#
#######################################################################

data_JIBNIU
_chemical_formula_moiety         'C21 H21 N1 O8'
_chemical_name_systematic        
'dimethyl 1,2-dimethoxy-6-methyl-8-oxo-5,6-dihydro-4H-benzo[de]furo[3,4-g]quinoline-10,10(8H)-dicarboxylate'
_symmetry_cell_setting           monoclinic
_symmetry_space_group_name_H-M   'P 21/c'
_symmetry_Int_Tables_number      14
_space_group_name_Hall           '-P 2ybc'
loop_
_symmetry_equiv_pos_site_id
_symmetry_equiv_pos_as_xyz
1 x,y,z
2 -x,1/2+y,1/2-z
3 -x,-y,-z
4 x,1/2-y,1/2+z
_cell_length_a                   14.0113(5)
_cell_length_b                   19.7144(7)
_cell_length_c                   14.2623(5)
_cell_angle_alpha                90
_cell_angle_beta                 108.242(2)
_cell_angle_gamma                90
_cell_volume                     3741.6
_exptl_crystal_colour            brown
_exptl_crystal_description       plate
_cell_formula_units_Z            8
loop_
_atom_site_label
_atom_site_type_symbol
_atom_site_fract_x
_atom_site_fract_y
_atom_site_fract_z
O1 O 0.76683(14) 0.89892(9) 0.36307(13)
O2 O 0.63671(15) 0.68761(10) 0.11432(12)
O3 O 0.54779(15) 0.68406(11) 0.39831(12)
O4 O 0.68434(15) 0.62523(10) 0.39746(14)
O5 O 0.70856(13) 0.76698(9) 0.32205(12)
O6 O 0.48746(13) 0.61614(9) 0.20865(12)
O7 O 0.32214(14) 0.61324(10) 0.12771(13)
O8 O 0.6944(2) 0.59812(12) 0.20989(17)
N1 N 0.30040(18) 0.88997(12) 0.10533(16)
C1 C 0.7914(2) 0.96680(15) 0.3965(2)
H1 H 0.7894 0.9959 0.3402
H2 H 0.8590 0.9679 0.4445
H3 H 0.7427 0.9833 0.4278
C2 C 0.6709(2) 0.88686(14) 0.30363(17)
C3 C 0.64378(19) 0.81945(13) 0.28363(16)
C4 C 0.54430(19) 0.80186(12) 0.22875(16)
C5 C 0.51150(19) 0.73334(13) 0.21264(16)
C6 C 0.5660(2) 0.66727(13) 0.24289(17)
C7 C 0.6421(2) 0.64690(13) 0.18952(19)
C8 C 0.6994(2) 0.66618(18) 0.0552(2)
H4 H 0.7695 0.6632 0.0973
H5 H 0.6939 0.6993 0.0025
H6 H 0.6769 0.6217 0.0260
C9 C 0.5679(3) 0.66683(18) 0.50180(18)
H7 H 0.5571 0.6181 0.5079
H8 H 0.5225 0.6925 0.5287
H9 H 0.6377 0.6782 0.5385
C10 C 0.6104(2) 0.65592(13) 0.35513(18)
C11 C 0.4720(2) 0.85402(13) 0.19114(16)
C12 C 0.3679(2) 0.83750(14) 0.13791(16)
C13 C 0.1988(2) 0.87336(15) 0.04648(18)
H10 H 0.2001 0.8481 -0.0123
H11 H 0.1601 0.9152 0.0263
H12 H 0.1673 0.8455 0.0855
C14 C 0.3396(2) 0.95499(15) 0.0870(2)
H13 H 0.2854 0.9893 0.0733
H14 H 0.3618 0.9514 0.0278
C15 C 0.4259(2) 0.97783(16) 0.1728(2)
H15 H 0.4005 0.9921 0.2272
H16 H 0.4583 1.0176 0.1530
C16 C 0.5027(2) 0.92239(14) 0.20911(18)
C17 C 0.5999(2) 0.93801(14) 0.26370(18)
H17 H 0.6195 0.9842 0.2746
C18 C 0.7985(2) 0.76529(15) 0.29199(19)
H18 H 0.7807 0.7753 0.2213
H19 H 0.8291 0.7202 0.3050
H20 H 0.8465 0.7993 0.3294
C19 C 0.3389(2) 0.77001(14) 0.12497(17)
H21 H 0.2714 0.7578 0.0906
C20 C 0.41236(19) 0.72023(13) 0.16416(16)
C21 C 0.3968(2) 0.64654(13) 0.16178(16)
O9 O -0.00661(15) 0.92144(10) 0.82608(13)
O10 O 0.09102(15) 0.85072(11) 0.58663(12)
O11 O -0.03166(17) 0.91292(11) 0.61625(13)
O12 O 0.17100(13) 0.90252(9) 0.78739(12)
O13 O 0.33840(15) 0.90080(10) 0.85839(13)
O14 O -0.13170(14) 0.62943(10) 0.63903(13)
O15 O -0.05703(13) 0.75717(9) 0.64788(12)
O16 O 0.00089(15) 0.81051(10) 0.85734(13)
N2 N 0.34192(18) 0.62264(12) 0.86935(15)
C22 C -0.0692(2) 0.92929(16) 0.8902(2)
H22 H -0.1343 0.9073 0.8598
H23 H -0.0797 0.9776 0.8996
H24 H -0.0357 0.9082 0.9543
C23 C 0.02116(19) 0.85879(13) 0.81611(17)
C24 C 0.0907(2) 0.85357(13) 0.74974(17)
C25 C 0.1428(2) 0.78599(14) 0.76458(16)
C26 C 0.2434(2) 0.79600(14) 0.81275(17)
C27 C 0.3127(2) 0.74377(14) 0.84823(17)
H25 H 0.3818 0.7536 0.8794
C28 C 0.2785(2) 0.67720(14) 0.83697(17)
C29 C 0.2980(2) 0.56039(15) 0.89282(19)
H26 H 0.2785 0.5675 0.9531
H27 H 0.3488 0.5237 0.9065
C30 C 0.0615(3) 0.87428(17) 0.4851(2)
H28 H -0.0113 0.8691 0.4552
H29 H 0.0962 0.8475 0.4478
H30 H 0.0796 0.9222 0.4837
C31 C 0.0395(2) 0.87626(14) 0.64271(18)
C32 C 0.2624(2) 0.86958(14) 0.82406(17)
C33 C 0.1049(2) 0.71903(13) 0.74736(16)
C34 C 0.1728(2) 0.66441(13) 0.78703(16)
C35 C 0.4444(2) 0.63626(16) 0.92829(19)
H31 H 0.4763 0.6654 0.8911
H32 H 0.4814 0.5934 0.9445
H33 H 0.4449 0.6593 0.9894
C36 C 0.2075(2) 0.53938(15) 0.8095(2)
H34 H 0.2291 0.5230 0.7537
H35 H 0.1732 0.5015 0.8315
C37 C 0.1353(2) 0.59710(14) 0.77522(18)
C38 C 0.0342(2) 0.58540(14) 0.73008(18)
H36 H 0.0088 0.5405 0.7277
C39 C -0.0320(2) 0.63860(14) 0.68756(17)
C40 C -0.1716(2) 0.56261(15) 0.6338(2)
H37 H -0.1394 0.5334 0.5970
H38 H -0.2442 0.5638 0.6002
H39 H -0.1586 0.5447 0.7008
C41 C 0.0038(2) 0.70450(13) 0.69340(17)
C42 C -0.0928(2) 0.75083(15) 0.54094(18)
H40 H -0.0368 0.7376 0.5173
H41 H -0.1201 0.7944 0.5116
H42 H -0.1454 0.7162 0.5218
loop_
_geom_bond_atom_site_label_1
_geom_bond_atom_site_label_2
_geom_bond_site_symmetry_1
_geom_bond_site_symmetry_2
O1 C1 1_555 1_555
O2 C7 1_555 1_555
O3 C9 1_555 1_555
O4 C10 1_555 1_555
O5 C3 1_555 1_555
O6 C6 1_555 1_555
O7 C21 1_555 1_555
O8 C7 1_555 1_555
N1 C12 1_555 1_555
C1 H1 1_555 1_555
H2 C1 1_555 1_555
H3 C1 1_555 1_555
C2 O1 1_555 1_555
C3 C2 1_555 1_555
C4 C3 1_555 1_555
C5 C4 1_555 1_555
C6 C5 1_555 1_555
C7 C6 1_555 1_555
C8 O2 1_555 1_555
H4 C8 1_555 1_555
H5 C8 1_555 1_555
H6 C8 1_555 1_555
C9 H7 1_555 1_555
H8 C9 1_555 1_555
H9 C9 1_555 1_555
C10 O3 1_555 1_555
C11 C4 1_555 1_555
C12 C11 1_555 1_555
C13 N1 1_555 1_555
H10 C13 1_555 1_555
H11 C13 1_555 1_555
H12 C13 1_555 1_555
C14 N1 1_555 1_555
H13 C14 1_555 1_555
H14 C14 1_555 1_555
C15 C14 1_555 1_555
H15 C15 1_555 1_555
H16 C15 1_555 1_555
C16 C11 1_555 1_555
C17 C2 1_555 1_555
H17 C17 1_555 1_555
C18 O5 1_555 1_555
H18 C18 1_555 1_555
H19 C18 1_555 1_555
H20 C18 1_555 1_555
C19 C12 1_555 1_555
H21 C19 1_555 1_555
C20 C5 1_555 1_555
C21 O6 1_555 1_555
O9 C22 1_555 1_555
O10 C30 1_555 1_555
O11 C31 1_555 1_555
O12 C24 1_555 1_555
O13 C32 1_555 1_555
O14 C39 1_555 1_555
O15 C41 1_555 1_555
O16 C23 1_555 1_555
N2 C28 1_555 1_555
C22 H22 1_555 1_555
H23 C22 1_555 1_555
H24 C22 1_555 1_555
C23 O9 1_555 1_555
C24 C23 1_555 1_555
C25 C24 1_555 1_555
C26 C25 1_555 1_555
C27 C26 1_555 1_555
H25 C27 1_555 1_555
C28 C27 1_555 1_555
C29 N2 1_555 1_555
H26 C29 1_555 1_555
H27 C29 1_555 1_555
C30 H28 1_555 1_555
H29 C30 1_555 1_555
H30 C30 1_555 1_555
C31 O10 1_555 1_555
C32 O12 1_555 1_555
C33 C25 1_555 1_555
C34 C28 1_555 1_555
C35 N2 1_555 1_555
H31 C35 1_555 1_555
H32 C35 1_555 1_555
H33 C35 1_555 1_555
C36 C29 1_555 1_555
H34 C36 1_555 1_555
H35 C36 1_555 1_555
C37 C34 1_555 1_555
C38 C37 1_555 1_555
H36 C38 1_555 1_555
C39 C38 1_555 1_555
C40 O14 1_555 1_555
H37 C40 1_555 1_555
H38 C40 1_555 1_555
H39 C40 1_555 1_555
C41 C33 1_555 1_555
C42 O15 1_555 1_555
H40 C42 1_555 1_555
H41 C42 1_555 1_555
H42 C42 1_555 1_555
C6 C10 1_555 1_555
C15 C16 1_555 1_555
C16 C17 1_555 1_555
C19 C20 1_555 1_555
C20 C21 1_555 1_555
C24 C31 1_555 1_555
C26 C32 1_555 1_555
C33 C34 1_555 1_555
C36 C37 1_555 1_555
C39 C41 1_555 1_555

#END
