
#######################################################################
#
#                 Cambridge Crystallographic Data Centre
#                                CCDC 
#
#######################################################################
#
# If this CIF has been generated from an entry in the Cambridge 
# Structural Database, then it will include bibliographic, chemical, 
# crystal, experimental, refinement or atomic coordinate data resulting 
# from the CCDC's data processing and validation procedures.
#
#######################################################################

data_JIBNAM
_chemical_formula_moiety         'C68 H66 N2 Si4'
_chemical_name_systematic        
6,12-bis(4'-(trimethylsilyl)biphenyl-4-yl)-3,9-bis(4-(trimethylsilyl)phenyl)tetracene-5,11-dicarbonitrile
_symmetry_cell_setting           triclinic
_symmetry_space_group_name_H-M   'P -1'
_symmetry_Int_Tables_number      2
_space_group_name_Hall           '-P 1'
loop_
_symmetry_equiv_pos_site_id
_symmetry_equiv_pos_as_xyz
1 x,y,z
2 -x,-y,-z
_cell_length_a                   5.7102(3)
_cell_length_b                   15.7203(7)
_cell_length_c                   16.4629(9)
_cell_angle_alpha                87.171(4)
_cell_angle_beta                 84.480(4)
_cell_angle_gamma                88.956(4)
_cell_volume                     1469.03
_exptl_crystal_colour            'dark red'
_exptl_crystal_description       needle
_cell_formula_units_Z            1
_exptl_crystal_recrystallization_method dichloromethane/n-hexane
loop_
_atom_site_label
_atom_site_type_symbol
_atom_site_fract_x
_atom_site_fract_y
_atom_site_fract_z
Si1 Si 0.5288(3) 0.38931(11) 0.29941(15)
N1 N 0.9018(9) 0.8374(3) 0.5267(3)
C1 C 1.2472(9) 0.9545(3) 0.6320(3)
C2 C 0.7032(11) 0.4861(4) 0.3147(4)
C3 C 1.4291(9) 0.9658(3) 0.4887(3)
C4 C 1.4150(10) 0.7790(3) 0.4166(3)
H1 H 1.5429 0.7753 0.4476
C5 C 1.3386(9) 0.8573(3) 0.3873(3)
C6 C 1.2569(9) 0.9317(3) 0.5503(3)
C7 C 1.4536(9) 0.9370(3) 0.4078(3)
C8 C 1.6069(9) 0.9784(3) 0.3475(3)
C9 C 1.1094(10) 0.7080(3) 0.3544(3)
C10 C 1.1502(10) 0.8605(4) 0.3388(3)
H2 H 1.1017 0.9127 0.3168
C11 C 1.3006(10) 0.7054(3) 0.3997(3)
H3 H 1.3545 0.6529 0.4196
C12 C 1.0345(11) 0.7874(3) 0.3231(4)
H4 H 0.9072 0.7909 0.2918
C13 C 1.0821(10) 0.9183(4) 0.6938(4)
H5 H 0.9806 0.8770 0.6797
C14 C 1.0669(10) 0.9418(4) 0.7734(3)
C15 C 0.9769(10) 0.6307(3) 0.3395(3)
C16 C 1.0711(11) 0.8772(4) 0.5323(4)
C17 C 1.3745(9) 1.0463(4) 0.7353(4)
H6 H 1.4696 1.0893 0.7500
C18 C 0.7553(15) 0.5479(5) 0.2556(5)
H7 H 0.6995 0.5425 0.2048
C19 C 1.2186(11) 1.0076(4) 0.7935(4)
H8 H 1.2111 1.0243 0.8471
C20 C 0.8881(16) 0.6188(5) 0.2671(4)
H9 H 0.9169 0.6592 0.2243
C21 C 0.9241(13) 0.5690(4) 0.4006(4)
H10 H 0.9805 0.5745 0.4512
C22 C 0.7899(13) 0.4992(4) 0.3889(4)
H11 H 0.7566 0.4596 0.4322
Si2 Si 0.3931(5) 0.78495(17) 1.0560(2)
C23 C 0.225(2) 0.6931(7) 1.0217(9)
H12 H 0.0974 0.7148 0.9922
H13 H 0.1627 0.6591 1.0686
H14 H 0.3280 0.6589 0.9869
C24 C 0.5786(18) 0.7449(7) 1.1365(6)
H15 H 0.4814 0.7168 1.1802
H16 H 0.6565 0.7918 1.1570
H17 H 0.6939 0.7053 1.1138
C25 C 0.1830(17) 0.8670(7) 1.0995(7)
H18 H 0.0890 0.8893 1.0579
H19 H 0.2693 0.9123 1.1191
H20 H 0.0826 0.8415 1.1439
C26 C 0.736(2) 0.2952(7) 0.3019(9)
H21 H 0.8172 0.2892 0.2486
H22 H 0.6487 0.2445 0.3180
H23 H 0.8484 0.3037 0.3405
C27 C 0.367(3) 0.4020(9) 0.2111(7)
H24 H 0.2443 0.4439 0.2207
H25 H 0.2990 0.3486 0.2010
H26 H 0.4713 0.4202 0.1646
C28 C 0.319(2) 0.3742(8) 0.3973(7)
H27 H 0.4063 0.3778 0.4441
H28 H 0.2474 0.3194 0.3986
H29 H 0.1996 0.4179 0.3983
C29 C 0.8872(17) 0.9141(6) 0.8452(5)
C30 C 0.817(2) 0.8304(6) 0.8408(5)
H30 H 0.8717 0.7990 0.7963
C31 C 0.6640(19) 0.7936(5) 0.9030(6)
H31 H 0.6168 0.7376 0.9001
C32 C 0.5817(14) 0.8405(5) 0.9696(4)
C33 C 0.652(2) 0.9242(5) 0.9739(5)
H32 H 0.5972 0.9555 1.0184
C34 C 0.805(2) 0.9610(5) 0.9117(6)
H33 H 0.8521 1.0170 0.9146
Si1A Si 2.4712(3) 1.61069(11) 0.70059(15)
N1A N 2.0982(9) 1.1626(3) 0.4733(3)
C1A C 1.7528(9) 1.0455(3) 0.3680(3)
C2A C 2.2968(11) 1.5139(4) 0.6853(4)
C3A C 1.5709(9) 1.0342(3) 0.5113(3)
C4A C 1.5850(10) 1.2210(3) 0.5834(3)
H1A H 1.4571 1.2247 0.5524
C5A C 1.6614(9) 1.1427(3) 0.6127(3)
C6A C 1.7431(9) 1.0683(3) 0.4497(3)
C7A C 1.5464(9) 1.0630(3) 0.5922(3)
C8A C 1.3931(9) 1.0216(3) 0.6525(3)
C9A C 1.8906(10) 1.2920(3) 0.6456(3)
C10A C 1.8498(10) 1.1395(4) 0.6612(3)
H2A H 1.8983 1.0873 0.6832
C11A C 1.6994(10) 1.2946(3) 0.6003(3)
H3A H 1.6455 1.3471 0.5804
C12A C 1.9655(11) 1.2126(3) 0.6769(4)
H4A H 2.0928 1.2091 0.7082
C13A C 1.9179(10) 1.0817(4) 0.3062(4)
H5A H 2.0194 1.1230 0.3203
C14A C 1.9331(10) 1.0582(4) 0.2266(3)
C15A C 2.0231(10) 1.3693(3) 0.6605(3)
C16A C 1.9289(11) 1.1228(4) 0.4677(4)
C17A C 1.6255(9) 0.9537(4) 0.2647(4)
H6A H 1.5304 0.9107 0.2500
C18A C 2.2447(15) 1.4521(5) 0.7444(5)
H7A H 2.3005 1.4575 0.7952
C19A C 1.7814(11) 0.9924(4) 0.2065(4)
H8A H 1.7889 0.9757 0.1529
C20A C 2.1119(16) 1.3812(5) 0.7329(4)
H9A H 2.0831 1.3408 0.7757
C21A C 2.0759(13) 1.4310(4) 0.5994(4)
H10A H 2.0195 1.4255 0.5488
C22A C 2.2101(13) 1.5008(4) 0.6111(4)
H11A H 2.2434 1.5404 0.5678
Si2A Si 2.6069(5) 1.21505(17) -0.0560(2)
C23A C 2.775(2) 1.3069(7) -0.0217(9)
H12A H 2.9026 1.2852 0.0078
H13A H 2.8373 1.3409 -0.0686
H14A H 2.6720 1.3411 0.0131
C24A C 2.4214(18) 1.2551(7) -0.1365(6)
H15A H 2.5186 1.2832 -0.1802
H16A H 2.3435 1.2082 -0.1570
H17A H 2.3061 1.2947 -0.1138
C25A C 2.8170(17) 1.1330(7) -0.0995(7)
H18A H 2.9110 1.1107 -0.0579
H19A H 2.7307 1.0877 -0.1191
H20A H 2.9174 1.1585 -0.1439
C26A C 2.264(2) 1.7048(7) 0.6981(9)
H21A H 2.1828 1.7108 0.7514
H22A H 2.3513 1.7555 0.6820
H23A H 2.1516 1.6963 0.6595
C27A C 2.633(3) 1.5980(9) 0.7889(7)
H24A H 2.7557 1.5561 0.7793
H25A H 2.7010 1.6514 0.7990
H26A H 2.5287 1.5798 0.8354
C28A C 2.681(2) 1.6258(8) 0.6027(7)
H27A H 2.5937 1.6222 0.5559
H28A H 2.7526 1.6806 0.6014
H29A H 2.8004 1.5821 0.6017
C29A C 2.1128(17) 1.0859(6) 0.1548(5)
C30A C 2.183(2) 1.1696(6) 0.1592(5)
H30A H 2.1283 1.2010 0.2037
C31A C 2.3360(19) 1.2064(5) 0.0970(6)
H31A H 2.3832 1.2624 0.0999
C32A C 2.4183(14) 1.1595(5) 0.0304(4)
C33A C 2.348(2) 1.0758(5) 0.0261(5)
H32A H 2.4028 1.0445 -0.0184
C34A C 2.195(2) 1.0390(5) 0.0883(6)
H33A H 2.1479 0.9830 0.0854
Si3? Si 0.4032(12) 0.7074(4) 1.0085(3)
C35? C 0.136(3) 0.6746(13) 0.9632(12)
H34? H 0.0501 0.7243 0.9463
H35? H 0.0390 0.6412 1.0031
H36? H 0.1812 0.6413 0.9168
C36? C 0.8933(13) 0.8927(6) 0.8319(5)
C37? C 0.6830(13) 0.8635(6) 0.8082(4)
H37? H 0.6452 0.8744 0.7550
C38? C 0.5292(12) 0.8181(6) 0.8641(5)
H38? H 0.3884 0.7986 0.8483
C39? C 0.5856(15) 0.8018(8) 0.9437(5)
C40? C 0.7960(16) 0.8309(8) 0.9674(4)
H39? H 0.8338 0.8201 1.0207
C41? C 0.9498(13) 0.8764(7) 0.9115(5)
H40? H 1.0905 0.8959 0.9273
C42? C 0.370(4) 0.3400(11) 0.3880(10)
H41? H 0.4762 0.3263 0.4286
H42? H 0.2985 0.2889 0.3733
H43? H 0.2499 0.3785 0.4096
C43? C 0.322(4) 0.4259(16) 0.2192(10)
H44? H 0.2095 0.4664 0.2422
H45? H 0.2408 0.3777 0.2027
H46? H 0.4118 0.4521 0.1726
C44? C 0.740(3) 0.3102(11) 0.2431(12)
H47? H 0.7666 0.3286 0.1865
H48? H 0.6708 0.2547 0.2474
H49? H 0.8862 0.3078 0.2671
C45? C 0.600(3) 0.6137(11) 1.0239(12)
H50? H 0.5179 0.5714 1.0591
H51? H 0.7365 0.6312 1.0485
H52? H 0.6489 0.5903 0.9721
C46? C 0.326(4) 0.7580(14) 1.1068(10)
H53? H 0.2215 0.8056 1.0986
H54? H 0.4663 0.7774 1.1273
H55? H 0.2495 0.7173 1.1455
loop_
_geom_bond_atom_site_label_1
_geom_bond_atom_site_label_2
_geom_bond_site_symmetry_1
_geom_bond_site_symmetry_2
Si1 C2 1_555 1_555
N1 C16 1_555 1_555
C1 C6 1_555 1_555
C2 C18 1_555 1_555
C3 C6 1_555 1_555
C4 H1 1_555 1_555
C5 C4 1_555 1_555
C6 C16 1_555 1_555
C7 C3 1_555 1_555
C8 C7 1_555 1_555
C9 C11 1_555 1_555
C10 C5 1_555 1_555
H2 C10 1_555 1_555
C11 C4 1_555 1_555
H3 C11 1_555 1_555
C12 C9 1_555 1_555
H4 C12 1_555 1_555
C13 C1 1_555 1_555
H5 C13 1_555 1_555
C14 C13 1_555 1_555
C15 C9 1_555 1_555
C17 H6 1_555 1_555
C18 H7 1_555 1_555
C19 C14 1_555 1_555
H8 C19 1_555 1_555
C20 C15 1_555 1_555
H9 C20 1_555 1_555
C21 C15 1_555 1_555
H10 C21 1_555 1_555
C22 C2 1_555 1_555
H11 C22 1_555 1_555
Si2 C23 1_555 1_555
C23 H12 1_555 1_555
H13 C23 1_555 1_555
H14 C23 1_555 1_555
C24 Si2 1_555 1_555
H15 C24 1_555 1_555
H16 C24 1_555 1_555
H17 C24 1_555 1_555
C25 Si2 1_555 1_555
H18 C25 1_555 1_555
H19 C25 1_555 1_555
H20 C25 1_555 1_555
C26 Si1 1_555 1_555
H21 C26 1_555 1_555
H22 C26 1_555 1_555
H23 C26 1_555 1_555
C27 Si1 1_555 1_555
H24 C27 1_555 1_555
H25 C27 1_555 1_555
H26 C27 1_555 1_555
C28 Si1 1_555 1_555
H27 C28 1_555 1_555
H28 C28 1_555 1_555
H29 C28 1_555 1_555
C29 C14 1_555 1_555
C30 C29 1_555 1_555
H30 C30 1_555 1_555
C31 C30 1_555 1_555
H31 C31 1_555 1_555
C32 Si2 1_555 1_555
C33 C32 1_555 1_555
H32 C33 1_555 1_555
C34 C29 1_555 1_555
H33 C34 1_555 1_555
Si1A C2A 1_555 1_555
N1A C16A 1_555 1_555
C1A C8 1_555 1_555
C2A C18A 1_555 1_555
C3A C3 1_555 1_555
C4A H1A 1_555 1_555
C5A C4A 1_555 1_555
C6A C1A 1_555 1_555
C7A C3A 1_555 1_555
C8A C1 1_555 1_555
C9A C11A 1_555 1_555
C10A C5A 1_555 1_555
H2A C10A 1_555 1_555
C11A C4A 1_555 1_555
H3A C11A 1_555 1_555
C12A C9A 1_555 1_555
H4A C12A 1_555 1_555
C13A C1A 1_555 1_555
H5A C13A 1_555 1_555
C14A C13A 1_555 1_555
C15A C9A 1_555 1_555
C16A C6A 1_555 1_555
C17A C8 1_555 1_555
H6A C17A 1_555 1_555
C18A H7A 1_555 1_555
C19A C14A 1_555 1_555
H8A C19A 1_555 1_555
C20A C15A 1_555 1_555
H9A C20A 1_555 1_555
C21A C15A 1_555 1_555
H10A C21A 1_555 1_555
C22A C2A 1_555 1_555
H11A C22A 1_555 1_555
Si2A C23A 1_555 1_555
C23A H12A 1_555 1_555
H13A C23A 1_555 1_555
H14A C23A 1_555 1_555
C24A Si2A 1_555 1_555
H15A C24A 1_555 1_555
H16A C24A 1_555 1_555
H17A C24A 1_555 1_555
C25A Si2A 1_555 1_555
H18A C25A 1_555 1_555
H19A C25A 1_555 1_555
H20A C25A 1_555 1_555
C26A Si1A 1_555 1_555
H21A C26A 1_555 1_555
H22A C26A 1_555 1_555
H23A C26A 1_555 1_555
C27A Si1A 1_555 1_555
H24A C27A 1_555 1_555
H25A C27A 1_555 1_555
H26A C27A 1_555 1_555
C28A Si1A 1_555 1_555
H27A C28A 1_555 1_555
H28A C28A 1_555 1_555
H29A C28A 1_555 1_555
C29A C14A 1_555 1_555
C30A C29A 1_555 1_555
H30A C30A 1_555 1_555
C31A C30A 1_555 1_555
H31A C31A 1_555 1_555
C32A Si2A 1_555 1_555
C33A C32A 1_555 1_555
H32A C33A 1_555 1_555
C34A C29A 1_555 1_555
H33A C34A 1_555 1_555
C5 C7 1_555 1_555
C10 C12 1_555 1_555
C17 C19 1_555 1_555
C17 C8A 1_555 1_555
C18 C20 1_555 1_555
C21 C22 1_555 1_555
C31 C32 1_555 1_555
C33 C34 1_555 1_555
C3A C6A 1_555 1_555
C5A C7A 1_555 1_555
C7A C8A 1_555 1_555
C10A C12A 1_555 1_555
C17A C19A 1_555 1_555
C18A C20A 1_555 1_555
C21A C22A 1_555 1_555
C31A C32A 1_555 1_555
C33A C34A 1_555 1_555

#END
