
#######################################################################
#
#                 Cambridge Crystallographic Data Centre
#                                CCDC 
#
#######################################################################
#
# If this CIF has been generated from an entry in the Cambridge 
# Structural Database, then it will include bibliographic, chemical, 
# crystal, experimental, refinement or atomic coordinate data resulting 
# from the CCDC's data processing and validation procedures.
#
#######################################################################

data_JIBVUO
_chemical_formula_moiety         'C23 H25 N3 O1 S1'
_chemical_name_systematic        
7-(4-methoxyphenyl)-N-(tricyclo[3.3.1.1^3,7^]decan-1-yl)-2,1,3-benzothiadiazol-4-amine
_symmetry_cell_setting           orthorhombic
_symmetry_space_group_name_H-M   'P n a 21'
_symmetry_Int_Tables_number      33
_space_group_name_Hall           'P 2c -2n'
loop_
_symmetry_equiv_pos_site_id
_symmetry_equiv_pos_as_xyz
1 x,y,z
2 -x,-y,1/2+z
3 1/2-x,1/2+y,1/2+z
4 1/2+x,1/2-y,z
_cell_length_a                   18.4571(8)
_cell_length_b                   16.2012(7)
_cell_length_c                   6.5052(4)
_cell_angle_alpha                90
_cell_angle_beta                 90
_cell_angle_gamma                90
_cell_volume                     1945.23
_exptl_crystal_colour            red
_exptl_crystal_description       block
_cell_formula_units_Z            4
loop_
_atom_site_label
_atom_site_type_symbol
_atom_site_fract_x
_atom_site_fract_y
_atom_site_fract_z
S1 S 0.79097(5) 0.49341(7) 0.7162(2)
O1 O 0.67439(16) 0.23987(17) -0.3025(4)
N1 N 0.75543(15) 0.45409(19) 0.5125(6)
N2 N 0.73520(16) 0.56709(17) 0.7622(6)
N3 N 0.61972(18) 0.67605(17) 0.7589(6)
H1 H 0.647583 0.668424 0.863139
C1 C 0.69508(18) 0.4977(2) 0.4719(6)
C2 C 0.64490(19) 0.4847(2) 0.3081(6)
C3 C 0.5878(2) 0.5384(2) 0.3076(7)
H2 H 0.553098 0.531689 0.205390
C4 C 0.5772(2) 0.6033(2) 0.4492(7)
H3 H 0.537278 0.637711 0.433272
C5 C 0.6236(2) 0.6172(2) 0.6083(6)
C6 C 0.6838(2) 0.5626(2) 0.6165(6)
C7 C 0.65343(18) 0.4191(2) 0.1537(6)
C8 C 0.69190(19) 0.3465(2) 0.1914(7)
H4 H 0.712889 0.338997 0.320012
C9 C 0.7000(2) 0.2856(2) 0.0453(6)
H5 H 0.726338 0.238205 0.075561
C10 C 0.6691(2) 0.2952(2) -0.1447(6)
C11 C 0.6291(2) 0.3657(2) -0.1860(7)
H6 H 0.606841 0.371892 -0.313331
C12 C 0.62202(19) 0.4264(2) -0.0407(6)
H7 H 0.595646 0.473626 -0.072320
C13 C 0.7141(3) 0.1674(3) -0.2695(9)
H8 H 0.716075 0.136011 -0.394559
H9 H 0.691128 0.135186 -0.164209
H10 H 0.762428 0.181313 -0.227081
C14 C 0.57465(18) 0.7500(2) 0.7663(6)
C15 C 0.5842(2) 0.8028(2) 0.5761(6)
H11 H 0.568153 0.772424 0.455945
H12 H 0.635108 0.816009 0.558181
C16 C 0.5406(2) 0.8821(2) 0.5965(7)
H13 H 0.546569 0.915437 0.471923
C17 C 0.5669(2) 0.9307(2) 0.7807(7)
H14 H 0.617530 0.944870 0.763171
H15 H 0.539338 0.981420 0.793285
C18 C 0.5574(2) 0.8790(2) 0.9724(7)
H16 H 0.575173 0.909913 1.091661
C19 C 0.6004(2) 0.7993(2) 0.9509(6)
H17 H 0.651447 0.812175 0.935122
H18 H 0.594795 0.766453 1.074585
C20 C 0.4945(2) 0.7300(2) 0.7972(7)
H19 H 0.476775 0.698071 0.681474
H20 H 0.488365 0.697278 0.920818
C21 C 0.4514(2) 0.8101(3) 0.8156(7)
H21 H 0.399902 0.796910 0.833033
C22 C 0.4611(2) 0.8607(3) 0.6241(8)
H22 H 0.432728 0.910970 0.634259
H23 H 0.444042 0.829844 0.505787
C23 C 0.4779(2) 0.8585(3) 1.0029(8)
H24 H 0.450049 0.908871 1.017909
H25 H 0.471771 0.825716 1.126472
loop_
_geom_bond_atom_site_label_1
_geom_bond_atom_site_label_2
_geom_bond_site_symmetry_1
_geom_bond_site_symmetry_2
S1 N1 1_555 1_555
O1 C10 1_555 1_555
N1 C1 1_555 1_555
N2 S1 1_555 1_555
N3 H1 1_555 1_555
C1 C2 1_555 1_555
C2 C3 1_555 1_555
C3 H2 1_555 1_555
C4 C3 1_555 1_555
H3 C4 1_555 1_555
C5 N3 1_555 1_555
C6 N2 1_555 1_555
C7 C2 1_555 1_555
C8 C7 1_555 1_555
H4 C8 1_555 1_555
C9 C8 1_555 1_555
H5 C9 1_555 1_555
C10 C9 1_555 1_555
C11 C10 1_555 1_555
H6 C11 1_555 1_555
C12 C7 1_555 1_555
H7 C12 1_555 1_555
C13 O1 1_555 1_555
H8 C13 1_555 1_555
H9 C13 1_555 1_555
H10 C13 1_555 1_555
C14 N3 1_555 1_555
C15 C14 1_555 1_555
H11 C15 1_555 1_555
H12 C15 1_555 1_555
C16 C15 1_555 1_555
H13 C16 1_555 1_555
C17 C16 1_555 1_555
H14 C17 1_555 1_555
H15 C17 1_555 1_555
C18 C17 1_555 1_555
H16 C18 1_555 1_555
C19 C14 1_555 1_555
H17 C19 1_555 1_555
H18 C19 1_555 1_555
C20 C14 1_555 1_555
H19 C20 1_555 1_555
H20 C20 1_555 1_555
C21 C20 1_555 1_555
H21 C21 1_555 1_555
C22 C16 1_555 1_555
H22 C22 1_555 1_555
H23 C22 1_555 1_555
C23 C18 1_555 1_555
H24 C23 1_555 1_555
H25 C23 1_555 1_555
C1 C6 1_555 1_555
C4 C5 1_555 1_555
C5 C6 1_555 1_555
C11 C12 1_555 1_555
C18 C19 1_555 1_555
C21 C22 1_555 1_555
C21 C23 1_555 1_555

#END
