
#######################################################################
#
#                 Cambridge Crystallographic Data Centre
#                                CCDC 
#
#######################################################################
#
# If this CIF has been generated from an entry in the Cambridge 
# Structural Database, then it will include bibliographic, chemical, 
# crystal, experimental, refinement or atomic coordinate data resulting 
# from the CCDC's data processing and validation procedures.
#
#######################################################################

data_JIBWUP
_chemical_formula_moiety         'C27 H23 N3 O3 S1'
_chemical_name_systematic        
N,N,7-tris(4-methoxyphenyl)-2,1,3-benzothiadiazol-4-amine
_symmetry_cell_setting           monoclinic
_symmetry_space_group_name_H-M   'P 21/n'
_symmetry_Int_Tables_number      14
_space_group_name_Hall           '-P 2yn'
loop_
_symmetry_equiv_pos_site_id
_symmetry_equiv_pos_as_xyz
1 x,y,z
2 1/2-x,1/2+y,1/2-z
3 -x,-y,-z
4 1/2+x,1/2-y,1/2+z
_cell_length_a                   13.9070(12)
_cell_length_b                   5.0220(6)
_cell_length_c                   33.693(3)
_cell_angle_alpha                90
_cell_angle_beta                 93.091(8)
_cell_angle_gamma                90
_cell_volume                     2349.73
_exptl_crystal_colour            yellow
_exptl_crystal_description       needle
_cell_formula_units_Z            4
loop_
_atom_site_label
_atom_site_type_symbol
_atom_site_fract_x
_atom_site_fract_y
_atom_site_fract_z
S1 S 0.45422(6) 1.03408(17) 0.05235(2)
O1 O 0.89113(17) 0.3480(5) -0.05607(6)
O2 O 0.09161(16) 0.5610(5) 0.16830(8)
O3 O 0.68044(14) 0.5748(4) 0.32477(5)
N1 N 0.54292(16) 0.8584(4) 0.03862(6)
N2 N 0.44902(17) 0.9433(5) 0.09796(6)
N3 N 0.49066(16) 0.6904(4) 0.17533(6)
C1 C 0.57461(18) 0.7156(5) 0.07052(7)
C2 C 0.65522(18) 0.5377(5) 0.07220(7)
C3 C 0.67285(19) 0.4195(5) 0.10839(7)
H1 H 0.724084 0.300630 0.110992
C4 C 0.6191(2) 0.4643(5) 0.14208(8)
H2 H 0.636483 0.374076 0.165489
C5 C 0.54313(18) 0.6340(5) 0.14168(7)
C6 C 0.52010(19) 0.7643(5) 0.10473(7)
C7 C 0.71560(18) 0.4892(5) 0.03820(7)
C8 C 0.8351(2) 0.3876(6) -0.02438(8)
C9 C 0.38849(19) 0.6543(5) 0.17238(7)
C10 C 0.3302(2) 0.8043(6) 0.19581(9)
H3 H 0.357518 0.932793 0.212797
C11 C 0.2322(2) 0.7649(6) 0.19417(10)
H4 H 0.194116 0.864174 0.210528
C12 C 0.1903(2) 0.5817(6) 0.16879(9)
C13 C 0.2474(2) 0.4299(6) 0.14565(9)
H5 H 0.219949 0.303223 0.128402
C14 C 0.3458(2) 0.4666(6) 0.14818(8)
H6 H 0.384160 0.360044 0.132907
C15 C 0.0481(2) 0.3489(8) 0.14705(12)
H7 H 0.055772 0.373624 0.119151
H8 H -0.019287 0.343222 0.151938
H9 H 0.077872 0.184564 0.155529
C16 C 0.5386(2) 0.6528(5) 0.21379(7)
C17 C 0.6172(2) 0.8093(5) 0.22547(8)
H10 H 0.639212 0.937655 0.208260
C18 C 0.6629(2) 0.7759(5) 0.26233(8)
H11 H 0.715619 0.881587 0.269872
C19 C 0.63092(19) 0.5863(5) 0.28825(7)
C20 C 0.5533(2) 0.4301(6) 0.27688(8)
H12 H 0.531140 0.302795 0.294223
C21 C 0.5082(2) 0.4619(5) 0.23967(8)
H13 H 0.456542 0.352734 0.231953
C22 C 0.6581(3) 0.3592(6) 0.34965(9)
H14 H 0.669467 0.194458 0.336218
H15 H 0.591696 0.369355 0.355884
H16 H 0.698135 0.367317 0.373753
C23 C 0.7421(4) 0.6905(10) 0.01197(15)
H17 H 0.720150 0.863012 0.015839
C24 C 0.7991(4) 0.6416(12) -0.01905(17)
H18 H 0.813650 0.777851 -0.036436
C25 C 0.8039(4) 0.1815(11) -0.00192(17)
H19 H 0.820811 0.006931 -0.007554
C26 C 0.7468(4) 0.2377(10) 0.02932(16)
H20 H 0.728423 0.097351 0.045237
C27 C 0.9176(10) 0.1021(18) -0.0672(3)
H21 H 0.948677 0.011698 -0.044936
H22 H 0.961364 0.115720 -0.088210
H23 H 0.861602 0.003633 -0.076462
C28? C 0.6800(4) 0.4611(9) -0.00004(14)
H24? H 0.613951 0.475774 -0.005630
C29? C 0.7397(4) 0.4111(11) -0.03083(15)
H25? H 0.712880 0.393435 -0.056573
C30? C 0.8773(4) 0.4156(11) 0.01526(16)
H26? H 0.943428 0.400079 0.020365
C31? C 0.8162(4) 0.4669(10) 0.04595(15)
H27? H 0.842024 0.486611 0.071817
C32? C 0.9921(6) 0.294(2) -0.0488(2)
H28? H 1.024410 0.453510 -0.039687
H29? H 1.018867 0.234686 -0.072913
H30? H 1.000439 0.158145 -0.028860
loop_
_geom_bond_atom_site_label_1
_geom_bond_atom_site_label_2
_geom_bond_site_symmetry_1
_geom_bond_site_symmetry_2
S1 N1 1_555 1_555
O1 C8 1_555 1_555
O2 C12 1_555 1_555
O3 C19 1_555 1_555
N1 C1 1_555 1_555
N2 S1 1_555 1_555
N3 C5 1_555 1_555
C1 C2 1_555 1_555
C2 C3 1_555 1_555
C3 H1 1_555 1_555
C4 C3 1_555 1_555
H2 C4 1_555 1_555
C5 C4 1_555 1_555
C6 N2 1_555 1_555
C7 C2 1_555 1_555
C8 C24 1_555 1_555
C9 N3 1_555 1_555
C10 C9 1_555 1_555
H3 C10 1_555 1_555
C11 C10 1_555 1_555
H4 C11 1_555 1_555
C12 C11 1_555 1_555
C13 C12 1_555 1_555
H5 C13 1_555 1_555
C14 C9 1_555 1_555
H6 C14 1_555 1_555
C15 O2 1_555 1_555
H7 C15 1_555 1_555
H8 C15 1_555 1_555
H9 C15 1_555 1_555
C16 N3 1_555 1_555
C17 C16 1_555 1_555
H10 C17 1_555 1_555
C18 C17 1_555 1_555
H11 C18 1_555 1_555
C19 C18 1_555 1_555
C20 C19 1_555 1_555
H12 C20 1_555 1_555
C21 C16 1_555 1_555
H13 C21 1_555 1_555
C22 O3 1_555 1_555
H14 C22 1_555 1_555
H15 C22 1_555 1_555
H16 C22 1_555 1_555
C23 C7 1_555 1_555
H17 C23 1_555 1_555
C24 C23 1_555 1_555
H18 C24 1_555 1_555
C25 C8 1_555 1_555
H19 C25 1_555 1_555
C26 C7 1_555 1_555
H20 C26 1_555 1_555
C27 O1 1_555 1_555
H21 C27 1_555 1_555
H22 C27 1_555 1_555
H23 C27 1_555 1_555
C1 C6 1_555 1_555
C5 C6 1_555 1_555
C13 C14 1_555 1_555
C20 C21 1_555 1_555
C25 C26 1_555 1_555

#END
