
#######################################################################
#
#                 Cambridge Crystallographic Data Centre
#                                CCDC 
#
#######################################################################
#
# If this CIF has been generated from an entry in the Cambridge 
# Structural Database, then it will include bibliographic, chemical, 
# crystal, experimental, refinement or atomic coordinate data resulting 
# from the CCDC's data processing and validation procedures.
#
#######################################################################

data_JIBXUQ
_chemical_formula_moiety         'C28 H28 N2 O5'
_chemical_name_systematic        
't-butyl 2-[6-(1,3-dioxo-1,3-dihydro-2H-isoindol-2-yl)-4-formylhex-1-en-3-yl]-1H-indole-1-carboxylate'
_symmetry_cell_setting           monoclinic
_symmetry_space_group_name_H-M   'P 21'
_symmetry_Int_Tables_number      4
_space_group_name_Hall           'P 2yb'
loop_
_symmetry_equiv_pos_site_id
_symmetry_equiv_pos_as_xyz
1 x,y,z
2 -x,1/2+y,-z
_cell_length_a                   7.2033(12)
_cell_length_b                   20.041(3)
_cell_length_c                   17.059(3)
_cell_angle_alpha                90
_cell_angle_beta                 94.048(3)
_cell_angle_gamma                90
_cell_volume                     2456.52
_cell_formula_units_Z            4
loop_
_atom_site_label
_atom_site_type_symbol
_atom_site_fract_x
_atom_site_fract_y
_atom_site_fract_z
O1 O 0.2162(5) 0.79168(14) 0.94251(17)
O2 O 0.2922(5) 0.76033(15) 1.06812(17)
O3 O -0.2520(5) 0.75193(17) 0.9884(2)
O4 O -0.2774(5) 0.53210(16) 0.9163(2)
O5 O -0.1044(5) 0.65202(17) 1.24495(19)
N1 N 0.2462(5) 0.68250(16) 0.96925(19)
N2 N -0.2670(5) 0.63733(18) 0.9714(2)
C1 C 0.4218(7) 0.8850(2) 0.9839(3)
H1 H 0.5008 0.8726 0.9418
H2 H 0.4656 0.8622 1.0325
H3 H 0.4281 0.9334 0.9921
C2 C 0.2218(7) 0.8648(2) 0.9611(3)
C3 C 0.2562(6) 0.7482(2) 0.9994(2)
C4 C 0.2514(5) 0.6236(2) 1.0165(2)
C5 C 0.2314(6) 0.6256(2) 1.1035(2)
H4 H 0.3146 0.6617 1.1262
C6 C 0.0263(5) 0.6448(2) 1.1183(2)
H5 H -0.0063 0.6844 1.0845
C7 C -0.1155(6) 0.5906(2) 1.0948(2)
H6 H -0.1481 0.5666 1.1426
H7 H -0.0574 0.5580 1.0604
C8 C -0.2937(6) 0.6170(2) 1.0520(3)
H8 H -0.3904 0.5818 1.0513
H9 H -0.3390 0.6557 1.0813
C9 C -0.2530(6) 0.7033(2) 0.9457(3)
C10 C -0.2418(6) 0.6997(2) 0.8594(3)
C11 C -0.2254(7) 0.7494(3) 0.8043(3)
H10 H -0.2178 0.7951 0.8191
C12 C -0.2205(7) 0.7296(3) 0.7257(3)
H11 H -0.2093 0.7627 0.6864
C13 C 0.1563(10) 0.8944(3) 0.8820(3)
H12 H 0.0342 0.8759 0.8649
H13 H 0.2458 0.8834 0.8433
H14 H 0.1466 0.9430 0.8868
C14 C -0.2494(6) 0.6331(2) 0.8371(3)
C15 C -0.2472(7) 0.6134(3) 0.7597(3)
H15 H -0.2559 0.5678 0.7449
C16 C -0.2315(7) 0.6640(3) 0.7041(3)
H16 H -0.2284 0.6525 0.6502
C17 C -0.2658(6) 0.5917(2) 0.9092(3)
C18 C 0.0165(6) 0.6670(2) 1.2023(3)
H17 H 0.1135 0.6951 1.2236
C19 C 0.2886(6) 0.5610(2) 1.1438(2)
H18 H 0.2239 0.5214 1.1281
C20 C 0.4246(6) 0.5570(2) 1.1999(3)
H19 H 0.4914 0.5960 1.2165
H20 H 0.4556 0.5152 1.2235
C21 C 0.2587(6) 0.5701(2) 0.9690(2)
H21 H 0.2609 0.5249 0.9857
C22 C 0.2625(6) 0.5926(2) 0.8890(2)
C23 C 0.2756(6) 0.5588(2) 0.8176(2)
H22 H 0.2819 0.5115 0.8166
C24 C 0.2791(6) 0.5948(2) 0.7491(3)
H23 H 0.2883 0.5723 0.7005
C25 C 0.2691(6) 0.6644(2) 0.7512(2)
H24 H 0.2704 0.6885 0.7033
C26 C 0.2575(6) 0.6993(2) 0.8205(2)
H25 H 0.2525 0.7466 0.8209
C27 C 0.2533(5) 0.6627(2) 0.8897(2)
C28 C 0.0893(7) 0.8816(2) 1.0224(3)
H26 H 0.1374 0.8638 1.0733
H27 H -0.0326 0.8618 1.0076
H28 H 0.0767 0.9301 1.0261
O6 O 0.2030(4) 0.73006(14) 0.45891(16)
O7 O 0.2157(4) 0.76708(14) 0.58442(16)
O8 O 0.6148(4) 0.98762(15) 0.41290(18)
O9 O 0.7512(5) 0.77906(16) 0.50983(19)
O10 O 0.6154(5) 0.89457(17) 0.75380(19)
N3 N 0.1749(5) 0.83978(17) 0.48065(19)
N4 N 0.6860(5) 0.89014(18) 0.4802(2)
C29 C 0.2285(8) 0.6255(2) 0.4011(3)
H29 H 0.3297 0.6427 0.3714
H30 H 0.1087 0.6352 0.3726
H31 H 0.2425 0.5771 0.4075
C30 C 0.2357(6) 0.6586(2) 0.4816(2)
C31 C 0.1983(6) 0.7760(2) 0.5148(2)
C32 C 0.1856(5) 0.90057(19) 0.5239(2)
C33 C 0.2387(6) 0.9037(2) 0.6108(2)
H32 H 0.1685 0.8681 0.6374
C34 C 0.4525(5) 0.8889(2) 0.6253(2)
H33 H 0.4789 0.8489 0.5929
C35 C 0.5761(6) 0.9452(2) 0.5980(2)
H34 H 0.6218 0.9720 0.6442
H35 H 0.5005 0.9749 0.5620
C36 C 0.7433(6) 0.9199(2) 0.5559(2)
H36 H 0.8290 0.9575 0.5479
H37 H 0.8116 0.8863 0.5893
C37 C 0.6994(6) 0.8218(2) 0.4625(3)
C38 C 0.6362(6) 0.8154(2) 0.3780(3)
C39 C 0.6246(6) 0.7597(2) 0.3307(3)
H38 H 0.6581 0.7167 0.3505
C40 C 0.5609(7) 0.7695(3) 0.2517(3)
H39 H 0.5501 0.7323 0.2172
C41 C 0.0767(6) 0.6341(2) 0.5280(3)
H40 H -0.0420 0.6426 0.4980
H41 H 0.0790 0.6577 0.5783
H42 H 0.0904 0.5860 0.5376
C42 C 0.1285(6) 0.8556(2) 0.4002(2)
C43 C 0.0951(6) 0.8155(2) 0.3340(2)
H43 H 0.1045 0.7683 0.3372
C44 C 0.0476(6) 0.8471(2) 0.2637(3)
H44 H 0.0239 0.8208 0.2177
C45 C 0.0331(6) 0.9168(2) 0.2577(3)
H45 H 0.0036 0.9369 0.2079
C46 C 0.0615(6) 0.9558(2) 0.3235(3)
H46 H 0.0475 1.0029 0.3202
C47 C 0.1115(6) 0.9251(2) 0.3958(2)
C48 C 0.1506(6) 0.9519(2) 0.4740(3)
H47 H 0.1514 0.9979 0.4878
C49 C 0.6285(6) 0.9277(2) 0.4142(3)
C50 C 0.5912(6) 0.8780(2) 0.3487(2)
C51 C 0.5276(6) 0.8886(3) 0.2718(3)
H48 H 0.4949 0.9319 0.2526
C52 C 0.5137(7) 0.8324(3) 0.2234(3)
H49 H 0.4708 0.8375 0.1698
C53 C 0.4948(7) 0.8695(2) 0.7094(3)
H50 H 0.4219 0.8350 0.7298
C54 C 0.1906(6) 0.9707(2) 0.6457(3)
H51 H 0.2513 1.0094 0.6281
C55 C 0.0685(6) 0.9776(2) 0.6992(2)
H52 H 0.0060 0.9396 0.7177
H53 H 0.0431 1.0207 0.7193
C56 C 0.4239(6) 0.6508(2) 0.5246(3)
H54 H 0.4233 0.6720 0.5763
H55 H 0.5183 0.6720 0.4943
H56 H 0.4527 0.6033 0.5312
loop_
_geom_bond_atom_site_label_1
_geom_bond_atom_site_label_2
_geom_bond_site_symmetry_1
_geom_bond_site_symmetry_2
O1 C2 1_555 1_555
O2 C3 1_555 1_555
O3 C9 1_555 1_555
O4 C17 1_555 1_555
O5 C18 1_555 1_555
N1 C3 1_555 1_555
N2 C8 1_555 1_555
C1 H1 1_555 1_555
H2 C1 1_555 1_555
H3 C1 1_555 1_555
C2 C1 1_555 1_555
C3 O1 1_555 1_555
C4 N1 1_555 1_555
C5 C4 1_555 1_555
H4 C5 1_555 1_555
C6 C5 1_555 1_555
H5 C6 1_555 1_555
C7 C6 1_555 1_555
H6 C7 1_555 1_555
H7 C7 1_555 1_555
C8 C7 1_555 1_555
H8 C8 1_555 1_555
H9 C8 1_555 1_555
C9 N2 1_555 1_555
C10 C9 1_555 1_555
C11 C10 1_555 1_555
H10 C11 1_555 1_555
C12 C11 1_555 1_555
H11 C12 1_555 1_555
C13 C2 1_555 1_555
H12 C13 1_555 1_555
H13 C13 1_555 1_555
H14 C13 1_555 1_555
C14 C10 1_555 1_555
C15 C14 1_555 1_555
H15 C15 1_555 1_555
C16 C12 1_555 1_555
H16 C16 1_555 1_555
C17 N2 1_555 1_555
C18 C6 1_555 1_555
H17 C18 1_555 1_555
C19 C5 1_555 1_555
H18 C19 1_555 1_555
C20 C19 1_555 1_555
H19 C20 1_555 1_555
H20 C20 1_555 1_555
C21 C4 1_555 1_555
H21 C21 1_555 1_555
C22 C21 1_555 1_555
C23 C22 1_555 1_555
H22 C23 1_555 1_555
C24 C23 1_555 1_555
H23 C24 1_555 1_555
C25 C24 1_555 1_555
H24 C25 1_555 1_555
C26 C25 1_555 1_555
H25 C26 1_555 1_555
C27 N1 1_555 1_555
C28 C2 1_555 1_555
H26 C28 1_555 1_555
H27 C28 1_555 1_555
H28 C28 1_555 1_555
O6 C30 1_555 1_555
O7 C31 1_555 1_555
O8 C49 1_555 1_555
O9 C37 1_555 1_555
O10 C53 1_555 1_555
N3 C31 1_555 1_555
N4 C36 1_555 1_555
C29 H29 1_555 1_555
H30 C29 1_555 1_555
H31 C29 1_555 1_555
C30 C29 1_555 1_555
C31 O6 1_555 1_555
C32 N3 1_555 1_555
C33 C32 1_555 1_555
H32 C33 1_555 1_555
C34 C33 1_555 1_555
H33 C34 1_555 1_555
C35 C34 1_555 1_555
H34 C35 1_555 1_555
H35 C35 1_555 1_555
C36 C35 1_555 1_555
H36 C36 1_555 1_555
H37 C36 1_555 1_555
C37 N4 1_555 1_555
C38 C37 1_555 1_555
C39 C38 1_555 1_555
H38 C39 1_555 1_555
C40 C39 1_555 1_555
H39 C40 1_555 1_555
C41 C30 1_555 1_555
H40 C41 1_555 1_555
H41 C41 1_555 1_555
H42 C41 1_555 1_555
C42 N3 1_555 1_555
C43 C42 1_555 1_555
H43 C43 1_555 1_555
C44 C43 1_555 1_555
H44 C44 1_555 1_555
C45 C44 1_555 1_555
H45 C45 1_555 1_555
C46 C45 1_555 1_555
H46 C46 1_555 1_555
C47 C42 1_555 1_555
C48 C32 1_555 1_555
H47 C48 1_555 1_555
C49 N4 1_555 1_555
C50 C38 1_555 1_555
C51 C50 1_555 1_555
H48 C51 1_555 1_555
C52 C40 1_555 1_555
H49 C52 1_555 1_555
C53 C34 1_555 1_555
H50 C53 1_555 1_555
C54 C33 1_555 1_555
H51 C54 1_555 1_555
C55 C54 1_555 1_555
H52 C55 1_555 1_555
H53 C55 1_555 1_555
C56 C30 1_555 1_555
H54 C56 1_555 1_555
H55 C56 1_555 1_555
H56 C56 1_555 1_555
C14 C17 1_555 1_555
C15 C16 1_555 1_555
C22 C27 1_555 1_555
C26 C27 1_555 1_555
C46 C47 1_555 1_555
C47 C48 1_555 1_555
C49 C50 1_555 1_555
C51 C52 1_555 1_555

#END
