
#######################################################################
#
#                 Cambridge Crystallographic Data Centre
#                                CCDC 
#
#######################################################################
#
# If this CIF has been generated from an entry in the Cambridge 
# Structural Database, then it will include bibliographic, chemical, 
# crystal, experimental, refinement or atomic coordinate data resulting 
# from the CCDC's data processing and validation procedures.
#
#######################################################################

data_JIBYOL
_chemical_formula_moiety         'C20 H19 N1 O4'
_chemical_name_systematic        
'benzyl [(1,3-dimethyl-2-oxo-1,2-dihydronaphthalen-1-yl)oxy]carbamate'
_symmetry_cell_setting           triclinic
_symmetry_space_group_name_H-M   'P -1'
_symmetry_Int_Tables_number      2
_space_group_name_Hall           '-P 1'
loop_
_symmetry_equiv_pos_site_id
_symmetry_equiv_pos_as_xyz
1 x,y,z
2 -x,-y,-z
_cell_length_a                   10.1377(6)
_cell_length_b                   11.6324(7)
_cell_length_c                   15.3503(9)
_cell_angle_alpha                82.485(2)
_cell_angle_beta                 88.370(2)
_cell_angle_gamma                81.506(2)
_cell_volume                     1774.89
_exptl_crystal_colour            colorless
_exptl_crystal_description       prismatic
_cell_formula_units_Z            4
loop_
_atom_site_label
_atom_site_type_symbol
_atom_site_fract_x
_atom_site_fract_y
_atom_site_fract_z
N1 N 0.3489(2) 0.70162(19) 0.83888(15)
O1 O 0.3219(2) 0.46698(19) 0.78702(13)
O2 O 0.21650(16) 0.67930(15) 0.83302(11)
O3 O 0.2721(2) 0.88545(18) 0.87610(16)
O4 O 0.48445(18) 0.83122(16) 0.83349(14)
C1 C 0.2963(3) 0.4716(2) 0.86460(19)
C2 C 0.3503(4) 0.3781(3) 0.9326(2)
C3 C 0.3375(3) 0.3974(3) 1.0167(2)
H1 H 0.3738 0.3374 1.0590
C4 C 0.2722(3) 0.5037(3) 1.04691(18)
C5 C 0.2709(4) 0.5176(4) 1.1360(2)
H2 H 0.3138 0.4582 1.1763
C6 C 0.2063(5) 0.6188(4) 1.1644(2)
H3 H 0.2051 0.6273 1.2238
C7 C 0.1446(5) 0.7058(3) 1.1059(2)
H4 H 0.1013 0.7741 1.1253
C8 C 0.1454(4) 0.6939(3) 1.0175(2)
H5 H 0.1028 0.7546 0.9780
C9 C 0.2083(3) 0.5933(2) 0.98706(17)
C10 C 0.1997(3) 0.5751(2) 0.89204(16)
C11 C 0.0593(3) 0.5529(3) 0.8717(2)
H6 H -0.0047 0.6178 0.8850
H7 H 0.0404 0.4824 0.9067
H8 H 0.0541 0.5444 0.8105
C12 C 0.4258(6) 0.2683(4) 0.9043(3)
H9 H 0.4508 0.2127 0.9551
H10 H 0.5046 0.2863 0.8724
H11 H 0.3705 0.2355 0.8673
C13 C 0.3571(3) 0.8150(2) 0.85092(17)
C14 C 0.5169(3) 0.9458(3) 0.8433(2)
H12 H 0.4729 0.9736 0.8951
H13 H 0.4871 1.0012 0.7924
C15 C 0.6636(3) 0.9354(2) 0.85179(19)
C16 C 0.7148(4) 0.9881(3) 0.9157(3)
H14 H 0.6576 1.0278 0.9539
C17 C 0.8507(5) 0.9822(4) 0.9235(3)
H15 H 0.8846 1.0170 0.9675
C18 C 0.9350(4) 0.9270(4) 0.8683(3)
H16 H 1.0264 0.9257 0.8731
C19 C 0.8865(4) 0.8724(4) 0.8047(3)
H17 H 0.9449 0.8330 0.7670
C20 C 0.7506(3) 0.8762(3) 0.7970(2)
H18 H 0.7177 0.8385 0.7543
H19 H 0.399(3) 0.678(2) 0.7912(19)
N2 N 0.2533(2) 0.6538(2) 0.62560(15)
O5 O 0.5316(2) 0.6190(2) 0.69289(13)
O6 O 0.30874(18) 0.75849(16) 0.62986(11)
O7 O 0.0577(2) 0.5860(2) 0.62551(17)
O8 O 0.0667(2) 0.7775(2) 0.58079(15)
C21 C 0.5306(3) 0.6514(3) 0.61420(18)
C22 C 0.6284(3) 0.5973(3) 0.55419(19)
C23 C 0.6098(3) 0.6252(3) 0.4674(2)
H20 H 0.6734 0.5911 0.4300
C24 C 0.4972(3) 0.7049(2) 0.42761(18)
C25 C 0.4799(3) 0.7215(3) 0.33684(19)
H21 H 0.5432 0.6839 0.3011
C26 C 0.3704(3) 0.7926(3) 0.29955(19)
H22 H 0.3603 0.8034 0.2389
C27 C 0.2763(3) 0.8477(3) 0.3517(2)
H23 H 0.2011 0.8944 0.3265
C28 C 0.2926(3) 0.8340(3) 0.44159(19)
H24 H 0.2289 0.8726 0.4766
C29 C 0.4028(3) 0.7636(2) 0.48016(17)
C30 C 0.4285(3) 0.7564(2) 0.57731(17)
C31 C 0.4838(3) 0.8664(3) 0.5957(2)
H25 H 0.4207 0.9346 0.5769
H26 H 0.5663 0.8715 0.5641
H27 H 0.4991 0.8622 0.6575
C32 C 0.7401(3) 0.5080(3) 0.5927(2)
H28 H 0.7987 0.4827 0.5465
H29 H 0.7044 0.4420 0.6235
H30 H 0.7889 0.5421 0.6329
C33 C 0.1182(3) 0.6681(3) 0.61234(19)
C34 C -0.0739(3) 0.7978(4) 0.5565(2)
H31 H -0.1175 0.8684 0.5784
H32 H -0.1170 0.7327 0.5834
C35 C -0.0889(3) 0.8105(3) 0.4584(2)
C36 C -0.0751(4) 0.7137(3) 0.4143(3)
H33 H -0.0535 0.6391 0.4450
C37 C -0.0932(5) 0.7270(5) 0.3264(4)
H34 H -0.0836 0.6611 0.2971
C38 C -0.1254(5) 0.8367(6) 0.2793(3)
H35 H -0.1394 0.8445 0.2191
C39 C -0.1365(5) 0.9339(4) 0.3221(3)
H36 H -0.1565 1.0085 0.2911
C40 C -0.1177(4) 0.9199(3) 0.4113(3)
H37 H -0.1247 0.9859 0.4404
H38 H 0.276(3) 0.602(3) 0.675(2)
loop_
_geom_bond_atom_site_label_1
_geom_bond_atom_site_label_2
_geom_bond_site_symmetry_1
_geom_bond_site_symmetry_2
N1 O2 1_555 1_555
O1 C1 1_555 1_555
O2 C10 1_555 1_555
O3 C13 1_555 1_555
O4 C13 1_555 1_555
C1 C2 1_555 1_555
C2 C3 1_555 1_555
C3 H1 1_555 1_555
C4 C3 1_555 1_555
C5 C4 1_555 1_555
H2 C5 1_555 1_555
C6 C5 1_555 1_555
H3 C6 1_555 1_555
C7 C6 1_555 1_555
H4 C7 1_555 1_555
C8 C7 1_555 1_555
H5 C8 1_555 1_555
C9 C4 1_555 1_555
C10 C1 1_555 1_555
C11 C10 1_555 1_555
H6 C11 1_555 1_555
H7 C11 1_555 1_555
H8 C11 1_555 1_555
C12 C2 1_555 1_555
H9 C12 1_555 1_555
H10 C12 1_555 1_555
H11 C12 1_555 1_555
C13 N1 1_555 1_555
C14 O4 1_555 1_555
H12 C14 1_555 1_555
H13 C14 1_555 1_555
C15 C14 1_555 1_555
C16 C15 1_555 1_555
H14 C16 1_555 1_555
C17 C16 1_555 1_555
H15 C17 1_555 1_555
C18 C17 1_555 1_555
H16 C18 1_555 1_555
C19 C18 1_555 1_555
H17 C19 1_555 1_555
C20 C15 1_555 1_555
H18 C20 1_555 1_555
H19 N1 1_555 1_555
N2 O6 1_555 1_555
O5 C21 1_555 1_555
O6 C30 1_555 1_555
O7 C33 1_555 1_555
O8 C33 1_555 1_555
C21 C22 1_555 1_555
C22 C23 1_555 1_555
C23 H20 1_555 1_555
C24 C23 1_555 1_555
C25 C24 1_555 1_555
H21 C25 1_555 1_555
C26 C25 1_555 1_555
H22 C26 1_555 1_555
C27 C26 1_555 1_555
H23 C27 1_555 1_555
C28 C27 1_555 1_555
H24 C28 1_555 1_555
C29 C24 1_555 1_555
C30 C21 1_555 1_555
C31 C30 1_555 1_555
H25 C31 1_555 1_555
H26 C31 1_555 1_555
H27 C31 1_555 1_555
C32 C22 1_555 1_555
H28 C32 1_555 1_555
H29 C32 1_555 1_555
H30 C32 1_555 1_555
C33 N2 1_555 1_555
C34 O8 1_555 1_555
H31 C34 1_555 1_555
H32 C34 1_555 1_555
C35 C34 1_555 1_555
C36 C35 1_555 1_555
H33 C36 1_555 1_555
C37 C36 1_555 1_555
H34 C37 1_555 1_555
C38 C37 1_555 1_555
H35 C38 1_555 1_555
C39 C38 1_555 1_555
H36 C39 1_555 1_555
C40 C35 1_555 1_555
H37 C40 1_555 1_555
H38 N2 1_555 1_555
C8 C9 1_555 1_555
C9 C10 1_555 1_555
C19 C20 1_555 1_555
C28 C29 1_555 1_555
C29 C30 1_555 1_555
C39 C40 1_555 1_555

#END
