
#######################################################################
#
#                 Cambridge Crystallographic Data Centre
#                                CCDC 
#
#######################################################################
#
# If this CIF has been generated from an entry in the Cambridge 
# Structural Database, then it will include bibliographic, chemical, 
# crystal, experimental, refinement or atomic coordinate data resulting 
# from the CCDC's data processing and validation procedures.
#
#######################################################################

data_JICFOT
_chemical_formula_moiety         'C27 H21 Cl1 O2'
_chemical_name_systematic        
'methyl 6-chloro-1,4-diphenyl-2,3-dihydro-1H-cyclopenta[b]naphthalene-1-carboxylate'
_symmetry_cell_setting           monoclinic
_symmetry_space_group_name_H-M   'P 21/n'
_symmetry_Int_Tables_number      14
_space_group_name_Hall           '-P 2yn'
loop_
_symmetry_equiv_pos_site_id
_symmetry_equiv_pos_as_xyz
1 x,y,z
2 1/2-x,1/2+y,1/2-z
3 -x,-y,-z
4 1/2+x,1/2-y,1/2+z
_cell_length_a                   11.5155(15)
_cell_length_b                   15.546(2)
_cell_length_c                   12.2267(16)
_cell_angle_alpha                90
_cell_angle_beta                 103.002(2)
_cell_angle_gamma                90
_cell_volume                     2132.71
_exptl_crystal_colour            colorless
_exptl_crystal_description       prismatic
_cell_formula_units_Z            4
loop_
_atom_site_label
_atom_site_type_symbol
_atom_site_fract_x
_atom_site_fract_y
_atom_site_fract_z
Cl1 Cl -0.17104(5) 1.00835(4) -0.25190(5)
O1 O 0.55584(15) 0.72578(11) -0.03247(14)
O2 O 0.59636(12) 0.86455(9) 0.00409(13)
C1 C 0.10850(16) 0.88711(11) -0.05674(15)
C2 C -0.00837(16) 0.91524(12) -0.10721(16)
H1 H -0.0734 0.8914 -0.0849
C3 C -0.02588(17) 0.97675(12) -0.18783(17)
C4 C 0.06884(19) 1.01585(14) -0.22381(19)
H2 H 0.0545 1.0574 -0.2800
C5 C 0.18248(18) 0.99152(13) -0.17457(19)
H3 H 0.2459 1.0177 -0.1971
C6 C 0.20629(16) 0.92753(12) -0.09025(16)
C7 C 0.32458(16) 0.90272(13) -0.04040(17)
H4 H 0.3884 0.9294 -0.0614
C8 C 0.34423(15) 0.83943(12) 0.03859(16)
C9 C 0.46330(16) 0.79981(12) 0.10011(16)
C10 C 0.42142(17) 0.71159(12) 0.13576(18)
H5 H 0.4199 0.6690 0.0775
H6 H 0.4742 0.6916 0.2044
C11 C 0.29548(17) 0.72717(13) 0.15408(18)
H7 H 0.2471 0.6756 0.1385
H8 H 0.2981 0.7457 0.2303
C12 C 0.24803(16) 0.79735(12) 0.07102(15)
C13 C 0.13135(16) 0.81933(11) 0.02561(15)
C14 C 0.03107(16) 0.77107(12) 0.05666(16)
C15 C -0.04558(17) 0.72146(12) -0.02201(17)
H9 H -0.0347 0.7186 -0.0950
C16 C -0.13822(18) 0.67609(13) 0.0061(2)
H10 H -0.1889 0.6432 -0.0479
C17 C -0.15517(19) 0.67970(14) 0.1137(2)
H11 H -0.2177 0.6497 0.1326
C18 C -0.0796(2) 0.72773(15) 0.1928(2)
H12 H -0.0910 0.7299 0.2657
C19 C 0.01392(18) 0.77323(13) 0.16572(17)
H13 H 0.0651 0.8052 0.2205
C20 C 0.52653(16) 0.85151(12) 0.20293(16)
C21 C 0.63617(18) 0.82278(14) 0.26468(18)
H14 H 0.6701 0.7736 0.2418
C22 C 0.6955(2) 0.86615(17) 0.3594(2)
H15 H 0.7693 0.8465 0.3991
C23 C 0.6460(3) 0.93808(18) 0.3950(2)
H16 H 0.6855 0.9668 0.4594
C24 C 0.5376(2) 0.96756(16) 0.3351(2)
H17 H 0.5040 1.0165 0.3589
C25 C 0.47809(19) 0.92465(14) 0.23939(19)
H18 H 0.4050 0.9452 0.1994
C26 C 0.54343(17) 0.79001(14) 0.01749(17)
C27 C 0.6719(2) 0.86608(17) -0.0749(2)
H19 H 0.7286 0.8200 -0.0585
H20 H 0.7133 0.9201 -0.0694
H21 H 0.6241 0.8592 -0.1496
loop_
_geom_bond_atom_site_label_1
_geom_bond_atom_site_label_2
_geom_bond_site_symmetry_1
_geom_bond_site_symmetry_2
Cl1 C3 1_555 1_555
O1 C26 1_555 1_555
O2 C26 1_555 1_555
C1 C2 1_555 1_555
C2 H1 1_555 1_555
C3 C2 1_555 1_555
C4 C3 1_555 1_555
H2 C4 1_555 1_555
C5 C4 1_555 1_555
H3 C5 1_555 1_555
C6 C1 1_555 1_555
C7 C6 1_555 1_555
H4 C7 1_555 1_555
C8 C7 1_555 1_555
C9 C8 1_555 1_555
C10 C9 1_555 1_555
H5 C10 1_555 1_555
H6 C10 1_555 1_555
C11 C10 1_555 1_555
H7 C11 1_555 1_555
H8 C11 1_555 1_555
C12 C8 1_555 1_555
C13 C1 1_555 1_555
C14 C13 1_555 1_555
C15 C14 1_555 1_555
H9 C15 1_555 1_555
C16 C15 1_555 1_555
H10 C16 1_555 1_555
C17 C16 1_555 1_555
H11 C17 1_555 1_555
C18 C17 1_555 1_555
H12 C18 1_555 1_555
C19 C14 1_555 1_555
H13 C19 1_555 1_555
C20 C9 1_555 1_555
C21 C20 1_555 1_555
H14 C21 1_555 1_555
C22 C21 1_555 1_555
H15 C22 1_555 1_555
C23 C22 1_555 1_555
H16 C23 1_555 1_555
C24 C23 1_555 1_555
H17 C24 1_555 1_555
C25 C20 1_555 1_555
H18 C25 1_555 1_555
C26 C9 1_555 1_555
C27 O2 1_555 1_555
H19 C27 1_555 1_555
H20 C27 1_555 1_555
H21 C27 1_555 1_555
C5 C6 1_555 1_555
C11 C12 1_555 1_555
C12 C13 1_555 1_555
C18 C19 1_555 1_555
C24 C25 1_555 1_555

#END
