
#######################################################################
#
#                 Cambridge Crystallographic Data Centre
#                                CCDC 
#
#######################################################################
#
# If this CIF has been generated from an entry in the Cambridge 
# Structural Database, then it will include bibliographic, chemical, 
# crystal, experimental, refinement or atomic coordinate data resulting 
# from the CCDC's data processing and validation procedures.
#
#######################################################################

data_JICGIO
_chemical_formula_moiety         'C17 H19 N3 O1 S1'
_chemical_name_systematic        
N-butyl-7-(4-methoxyphenyl)-2,1,3-benzothiadiazol-4-amine
_symmetry_cell_setting           triclinic
_symmetry_space_group_name_H-M   'P -1'
_symmetry_Int_Tables_number      2
_space_group_name_Hall           '-P 1'
loop_
_symmetry_equiv_pos_site_id
_symmetry_equiv_pos_as_xyz
1 x,y,z
2 -x,-y,-z
_cell_length_a                   8.4386(8)
_cell_length_b                   9.4891(9)
_cell_length_c                   11.2415(11)
_cell_angle_alpha                106.972(9)
_cell_angle_beta                 102.465(8)
_cell_angle_gamma                107.518(8)
_cell_volume                     774.174
_exptl_crystal_colour            red
_exptl_crystal_description       block
_cell_formula_units_Z            2
loop_
_atom_site_label
_atom_site_type_symbol
_atom_site_fract_x
_atom_site_fract_y
_atom_site_fract_z
S1 S 0.40431(8) 1.03011(8) 0.68554(6)
O1 O -0.1011(2) 0.1146(2) 0.58494(17)
N1 N 0.3296(2) 0.8573(2) 0.69404(19)
N2 N 0.5871(2) 1.1174(2) 0.8072(2)
N3 N 0.8795(2) 1.1842(2) 1.02522(19)
H1 H 0.889148 1.248560 0.982108
C1 C 0.4502(3) 0.8599(3) 0.7969(2)
C2 C 0.4390(3) 0.7322(3) 0.8436(2)
C3 C 0.5794(3) 0.7697(3) 0.9517(2)
H2 H 0.578533 0.689583 0.986512
C4 C 0.7250(3) 0.9176(3) 1.0155(2)
H3 H 0.815296 0.932759 1.090834
C5 C 0.7398(3) 1.0401(3) 0.9720(2)
C6 C 0.5971(3) 1.0094(3) 0.8604(2)
C7 C 0.2927(3) 0.5737(3) 0.7800(2)
C8 C 0.1964(3) 0.5098(3) 0.6453(2)
H4 H 0.221127 0.572783 0.594425
C9 C 0.0671(3) 0.3586(3) 0.5849(2)
H5 H 0.003368 0.318731 0.493387
C10 C 0.0286(3) 0.2636(3) 0.6557(2)
C11 C 0.1190(3) 0.3238(3) 0.7896(2)
H6 H 0.092691 0.260569 0.839991
C12 C 0.2480(3) 0.4773(3) 0.8495(2)
H7 H 0.308238 0.518137 0.941689
C13 C -0.1200(3) 0.0008(3) 0.6447(3)
H8 H -0.214049 -0.101503 0.582686
H9 H -0.150153 0.039055 0.724308
H10 H -0.009027 -0.013852 0.668583
C14 C 1.0120(3) 1.2329(3) 1.1512(2)
H11 H 1.071724 1.157141 1.144935
H12 H 0.954217 1.228721 1.218692
C15 C 1.1471(3) 1.3997(3) 1.1937(2)
H13 H 1.088350 1.476258 1.204630
H14 H 1.200544 1.405425 1.124166
C16 C 1.2908(3) 1.4472(3) 1.3221(2)
H15 H 1.235798 1.432238 1.389327
H16 H 1.354901 1.375155 1.308794
C17 C 1.4209(3) 1.6180(3) 1.3736(3)
H17 H 1.476942 1.633543 1.308021
H18 H 1.511147 1.640963 1.455816
H19 H 1.359216 1.690341 1.390308
loop_
_geom_bond_atom_site_label_1
_geom_bond_atom_site_label_2
_geom_bond_site_symmetry_1
_geom_bond_site_symmetry_2
S1 N1 1_555 1_555
O1 C10 1_555 1_555
N1 C1 1_555 1_555
N2 S1 1_555 1_555
N3 H1 1_555 1_555
C1 C2 1_555 1_555
C2 C3 1_555 1_555
C3 H2 1_555 1_555
C4 C3 1_555 1_555
H3 C4 1_555 1_555
C5 N3 1_555 1_555
C6 N2 1_555 1_555
C7 C2 1_555 1_555
C8 C7 1_555 1_555
H4 C8 1_555 1_555
C9 C8 1_555 1_555
H5 C9 1_555 1_555
C10 C9 1_555 1_555
C11 C10 1_555 1_555
H6 C11 1_555 1_555
C12 C7 1_555 1_555
H7 C12 1_555 1_555
C13 O1 1_555 1_555
H8 C13 1_555 1_555
H9 C13 1_555 1_555
H10 C13 1_555 1_555
C14 N3 1_555 1_555
H11 C14 1_555 1_555
H12 C14 1_555 1_555
C15 C14 1_555 1_555
H13 C15 1_555 1_555
H14 C15 1_555 1_555
C16 C15 1_555 1_555
H15 C16 1_555 1_555
H16 C16 1_555 1_555
C17 C16 1_555 1_555
H17 C17 1_555 1_555
H18 C17 1_555 1_555
H19 C17 1_555 1_555
C1 C6 1_555 1_555
C4 C5 1_555 1_555
C5 C6 1_555 1_555
C11 C12 1_555 1_555

#END
