
#######################################################################
#
#                 Cambridge Crystallographic Data Centre
#                                CCDC 
#
#######################################################################
#
# If this CIF has been generated from an entry in the Cambridge 
# Structural Database, then it will include bibliographic, chemical, 
# crystal, experimental, refinement or atomic coordinate data resulting 
# from the CCDC's data processing and validation procedures.
#
#######################################################################

data_JICJOU
_chemical_formula_moiety         'C21 H26 O2,0.5(C6 H6)'
_chemical_name_systematic        
'9-Acetyl-1,2,3,4-tetrahydro-7-isopropyl-1,1-dimethyl-phenanthren-6-ol benzene solvate'
_symmetry_cell_setting           monoclinic
_symmetry_space_group_name_H-M   'P 21/a'
_symmetry_Int_Tables_number      14
_space_group_name_Hall           '-P 2yab'
loop_
_symmetry_equiv_pos_site_id
_symmetry_equiv_pos_as_xyz
1 x,y,z
2 1/2-x,1/2+y,-z
3 -x,-y,-z
4 1/2+x,1/2-y,z
_cell_length_a                   9.781(2)
_cell_length_b                   17.238(3)
_cell_length_c                   12.350(1)
_cell_angle_alpha                90
_cell_angle_beta                 92.42(1)
_cell_angle_gamma                90
_cell_volume                     2080.41
_exptl_crystal_colour            colorless
_chemical_melting_point          76-78deg.C
_cell_formula_units_Z            4
loop_
_atom_site_label
_atom_site_type_symbol
_atom_site_fract_x
_atom_site_fract_y
_atom_site_fract_z
O1 O 0.0365(3) 0.8572(2) 0.6750(2)
O2 O 0.3644(3) 0.5369(2) 0.5818(2)
C1 C 0.0215(3) 0.7751(2) 0.5193(3)
C2 C 0.0693(3) 0.7907(2) 0.6223(3)
C3 C 0.1529(3) 0.7380(2) 0.6820(2)
C4 C 0.1866(3) 0.6703(2) 0.6314(2)
C5 C 0.1422(3) 0.6524(2) 0.5237(2)
C6 C 0.0565(3) 0.7056(2) 0.4658(3)
C7 C 0.0052(3) 0.6890(2) 0.3576(3)
C8 C 0.0404(3) 0.6206(2) 0.3087(3)
C9 C 0.1236(3) 0.5671(2) 0.3682(3)
C10 C 0.1755(3) 0.5809(2) 0.4709(3)
C11 C -0.0116(4) 0.5974(2) 0.1941(3)
C12 C -0.0861(5) 0.6639(3) 0.1411(3)
C13 C -0.1495(5) 0.7168(3) 0.1965(3)
C14 C -0.0882(4) 0.7474(3) 0.3014(3)
C15 C -0.1030(4) 0.5265(3) 0.1991(3)
C16 C 0.1114(4) 0.5762(3) 0.1254(3)
C17 C 0.2027(3) 0.7588(2) 0.7968(2)
C18 C 0.3148(3) 0.8205(2) 0.7949(3)
C19 C 0.2448(4) 0.6902(3) 0.8648(3)
C20 C 0.2655(3) 0.5206(2) 0.5223(3)
C21 C 0.2328(4) 0.4368(2) 0.5023(3)
H1 H -0.0075 0.8946 0.6341
H2 H -0.0372 0.8120 0.4822
H3 H 0.2429 0.6334 0.6708
H4 H 0.1447 0.5186 0.3347
H5 H -0.1540 0.6415 0.0922
H6 H -0.0198 0.6912 0.1004
H7 H -0.1626 0.7607 0.1494
H8 H -0.2368 0.6952 0.2126
H9 H -0.0366 0.7933 0.2868
H10 H -0.1607 0.7601 0.3483
H11 H -0.1805 0.5382 0.2414
H12 H -0.0524 0.4843 0.2319
H13 H -0.1340 0.5122 0.1270
H14 H 0.1603 0.5335 0.1586
H15 H 0.1713 0.6201 0.1213
H16 H 0.0790 0.5618 0.0538
H17 H 0.1255 0.7802 0.8319
H18 H 0.3451 0.8329 0.8678
H19 H 0.2793 0.8663 0.7596
H20 H 0.3905 0.8010 0.7560
H21 H 0.1717 0.6530 0.8639
H22 H 0.2648 0.7068 0.9380
H23 H 0.3248 0.6669 0.8363
H24 H 0.1532 0.4327 0.4544
H25 H 0.2154 0.4118 0.5698
H26 H 0.3089 0.4121 0.4698
C22 C 0.4698(4) 0.4678(4) 0.0954(4)
C23 C 0.4587(4) 0.4280(3) 0.0062(4)
C24 C 0.5132(5) 0.5414(4) 0.0910(5)
H27 H 0.4473 0.4451 0.1633
H28 H 0.4296 0.3749 0.0098
H29 H 0.5243 0.5719 0.1558
C24B C 0.4868(5) 0.4586(4) -0.0910(5)
C23B C 0.5413(4) 0.5720(3) -0.0062(4)
C22B C 0.5302(4) 0.5322(4) -0.0954(4)
H29B H 0.4757 0.4281 -0.1558
H28B H 0.5704 0.6251 -0.0098
H27B H 0.5527 0.5549 -0.1633
loop_
_geom_bond_atom_site_label_1
_geom_bond_atom_site_label_2
_geom_bond_site_symmetry_1
_geom_bond_site_symmetry_2
O1 C2 1_555 1_555
O2 C20 1_555 1_555
C1 C2 1_555 1_555
C2 C3 1_555 1_555
C3 C4 1_555 1_555
C4 C5 1_555 1_555
C5 C6 1_555 1_555
C6 C1 1_555 1_555
C7 C6 1_555 1_555
C8 C7 1_555 1_555
C9 C8 1_555 1_555
C10 C5 1_555 1_555
C11 C8 1_555 1_555
C12 C11 1_555 1_555
C13 C12 1_555 1_555
C14 C7 1_555 1_555
C15 C11 1_555 1_555
C16 C11 1_555 1_555
C17 C3 1_555 1_555
C18 C17 1_555 1_555
C19 C17 1_555 1_555
C20 C10 1_555 1_555
C21 C20 1_555 1_555
C22 C23 1_555 1_555
C23 H28 1_555 1_555
C24 C22 1_555 1_555
H1 O1 1_555 1_555
H2 C1 1_555 1_555
H3 C4 1_555 1_555
H4 C9 1_555 1_555
H5 C12 1_555 1_555
H6 C12 1_555 1_555
H7 C13 1_555 1_555
H8 C13 1_555 1_555
H9 C14 1_555 1_555
H10 C14 1_555 1_555
H11 C15 1_555 1_555
H12 C15 1_555 1_555
H13 C15 1_555 1_555
H14 C16 1_555 1_555
H15 C16 1_555 1_555
H16 C16 1_555 1_555
H17 C17 1_555 1_555
H18 C18 1_555 1_555
H19 C18 1_555 1_555
H20 C18 1_555 1_555
H21 C19 1_555 1_555
H22 C19 1_555 1_555
H23 C19 1_555 1_555
H24 C21 1_555 1_555
H25 C21 1_555 1_555
H26 C21 1_555 1_555
H27 C22 1_555 1_555
H29 C24 1_555 1_555
C24B C23 1_555 1_555
C23B C24 1_555 1_555
C22B C24B 1_555 1_555
H29B C24B 1_555 1_555
H28B C23B 1_555 1_555
H27B C22B 1_555 1_555
C9 C10 1_555 1_555
C13 C14 1_555 1_555
C23B C22B 1_555 1_555

#END
