
#######################################################################
#
#                 Cambridge Crystallographic Data Centre
#                                CCDC 
#
#######################################################################
#
# If this CIF has been generated from an entry in the Cambridge 
# Structural Database, then it will include bibliographic, chemical, 
# crystal, experimental, refinement or atomic coordinate data resulting 
# from the CCDC's data processing and validation procedures.
#
#######################################################################

data_JICLIT
_chemical_formula_moiety         'C21 H19 Cl1 O4 S2'
_chemical_name_systematic        
1-((4-chlorophenyl)sulfonyl)-2,4-dimethoxy-5-((4-methylphenyl)sulfanyl)benzene
_symmetry_cell_setting           monoclinic
_symmetry_space_group_name_H-M   'P 21/c'
_symmetry_Int_Tables_number      14
_space_group_name_Hall           '-P 2ybc'
loop_
_symmetry_equiv_pos_site_id
_symmetry_equiv_pos_as_xyz
1 x,y,z
2 -x,1/2+y,1/2-z
3 -x,-y,-z
4 x,1/2-y,1/2+z
_cell_length_a                   11.765(2)
_cell_length_b                   13.501(3)
_cell_length_c                   14.523(6)
_cell_angle_alpha                90
_cell_angle_beta                 116.78(2)
_cell_angle_gamma                90
_cell_volume                     2059.4
_exptl_crystal_colour            colorless
_exptl_crystal_description       block
_cell_formula_units_Z            4
loop_
_atom_site_label
_atom_site_type_symbol
_atom_site_fract_x
_atom_site_fract_y
_atom_site_fract_z
Cl1 Cl 0.32147(10) 0.65398(7) 0.44820(7)
S1 S 0.53153(10) 0.36309(7) 0.81904(7)
S2 S 0.97800(9) 0.15789(9) 0.93024(7)
O1 O 0.4410(2) 0.23272(16) 0.63987(17)
O2 O 0.8369(2) 0.06012(18) 0.74645(16)
O3 O 0.6199(2) 0.41884(17) 0.90648(15)
O4 O 0.4256(2) 0.31620(17) 0.82562(15)
C1 C 0.3782(4) 0.5713(3) 0.5502(3)
C2 C 0.2984(3) 0.5016(3) 0.5578(3)
H1 H 0.2138 0.4980 0.5084
C3 C 0.3456(3) 0.4367(3) 0.6399(3)
H2 H 0.2929 0.3884 0.6457
C4 C 0.4700(3) 0.4433(2) 0.7128(2)
C5 C 0.5483(3) 0.5144(3) 0.7049(3)
H3 H 0.6325 0.5192 0.7549
C6 C 0.5015(4) 0.5790(3) 0.6224(3)
H4 H 0.5540 0.6274 0.6163
C7 C 0.6206(3) 0.2745(2) 0.7912(2)
C8 C 0.5657(3) 0.2153(2) 0.7037(2)
C9 C 0.6366(3) 0.1439(2) 0.6850(2)
H5 H 0.6008 0.1057 0.6253
C10 C 0.7610(3) 0.1303(3) 0.7561(3)
C11 C 0.8197(3) 0.1885(3) 0.8450(2)
C12 C 0.7469(3) 0.2605(2) 0.8601(2)
H6 H 0.7837 0.3008 0.9181
C13 C 1.0189(3) 0.2480(3) 1.0270(3)
C14 C 1.0569(4) 0.3414(4) 1.0159(3)
H7 H 1.0566 0.3590 0.9538
C15 C 1.0956(4) 0.4095(4) 1.0945(4)
H8 H 1.1212 0.4721 1.0845
C16 C 1.0973(4) 0.3882(4) 1.1861(4)
C17 C 1.0613(5) 0.2951(5) 1.1978(3)
H9 H 1.0630 0.2778 1.2604
C18 C 1.0222(4) 0.2258(4) 1.1197(3)
H10 H 0.9977 0.1631 1.1305
C19 C 0.3830(3) 0.1845(3) 0.5422(2)
H11 H 0.2952 0.2041 0.5061
H12 H 0.3881 0.1141 0.5521
H13 H 0.4264 0.2030 0.5025
C20 C 0.7876(3) -0.0009(3) 0.6555(3)
H14 H 0.8518 -0.0470 0.6596
H15 H 0.7637 0.0402 0.5956
H16 H 0.7144 -0.0365 0.6504
C21 C 1.1369(4) 0.4625(4) 1.2724(3)
H17 H 1.1599 0.5236 1.2514
H18 H 1.2085 0.4373 1.3322
H19 H 1.0673 0.4739 1.2886
loop_
_geom_bond_atom_site_label_1
_geom_bond_atom_site_label_2
_geom_bond_site_symmetry_1
_geom_bond_site_symmetry_2
Cl1 C1 1_555 1_555
S1 O3 1_555 1_555
S2 C11 1_555 1_555
O1 C8 1_555 1_555
O2 C10 1_555 1_555
O4 S1 1_555 1_555
C1 C2 1_555 1_555
C2 H1 1_555 1_555
C3 C2 1_555 1_555
H2 C3 1_555 1_555
C4 S1 1_555 1_555
C5 C4 1_555 1_555
H3 C5 1_555 1_555
C6 C1 1_555 1_555
H4 C6 1_555 1_555
C7 S1 1_555 1_555
C8 C7 1_555 1_555
C9 C8 1_555 1_555
H5 C9 1_555 1_555
C10 C9 1_555 1_555
C11 C10 1_555 1_555
C12 C7 1_555 1_555
H6 C12 1_555 1_555
C13 S2 1_555 1_555
C14 C13 1_555 1_555
H7 C14 1_555 1_555
C15 C14 1_555 1_555
H8 C15 1_555 1_555
C16 C15 1_555 1_555
C17 C16 1_555 1_555
H9 C17 1_555 1_555
C18 C13 1_555 1_555
H10 C18 1_555 1_555
C19 O1 1_555 1_555
H11 C19 1_555 1_555
H12 C19 1_555 1_555
H13 C19 1_555 1_555
C20 O2 1_555 1_555
H14 C20 1_555 1_555
H15 C20 1_555 1_555
H16 C20 1_555 1_555
C21 C16 1_555 1_555
H17 C21 1_555 1_555
H18 C21 1_555 1_555
H19 C21 1_555 1_555
C3 C4 1_555 1_555
C5 C6 1_555 1_555
C11 C12 1_555 1_555
C17 C18 1_555 1_555

#END
