
#######################################################################
#
#                 Cambridge Crystallographic Data Centre
#                                CCDC 
#
#######################################################################
#
# If this CIF has been generated from an entry in the Cambridge 
# Structural Database, then it will include bibliographic, chemical, 
# crystal, experimental, refinement or atomic coordinate data resulting 
# from the CCDC's data processing and validation procedures.
#
#######################################################################

data_JICLEP
_chemical_formula_moiety         'C22 H22 O4 S2'
_chemical_name_systematic        
1,5-dimethoxy-2-((4-methylphenyl)sulfanyl)-4-((4-methylphenyl)sulfonyl)benzene
_symmetry_cell_setting           monoclinic
_symmetry_space_group_name_H-M   'P 21/c'
_symmetry_Int_Tables_number      14
_space_group_name_Hall           '-P 2ybc'
loop_
_symmetry_equiv_pos_site_id
_symmetry_equiv_pos_as_xyz
1 x,y,z
2 -x,1/2+y,1/2-z
3 -x,-y,-z
4 x,1/2-y,1/2+z
_cell_length_a                   20.586(2)
_cell_length_b                   12.9669(13)
_cell_length_c                   16.6714(18)
_cell_angle_alpha                90
_cell_angle_beta                 104.271(4)
_cell_angle_gamma                90
_cell_volume                     4312.88
_exptl_crystal_colour            colorless
_exptl_crystal_description       block
_cell_formula_units_Z            8
loop_
_atom_site_label
_atom_site_type_symbol
_atom_site_fract_x
_atom_site_fract_y
_atom_site_fract_z
C1 C 0.4972(2) 0.2543(4) 0.0724(3)
C2 C 0.5413(2) 0.1925(3) 0.0410(3)
C3 C 0.5171(2) 0.1337(3) -0.0307(2)
H1 H 0.5463 0.0924 -0.0510
C4 C 0.4496(2) 0.1369(3) -0.0714(2)
C5 C 0.4053(2) 0.2012(4) -0.0389(3)
C6 C 0.4308(2) 0.2579(4) 0.0317(3)
H2 H 0.4020 0.3000 0.0522
C7 C 0.5503(2) 0.2516(4) 0.2434(3)
C8 C 0.5026(2) 0.2035(4) 0.2760(3)
H3 H 0.4575 0.2129 0.2506
C9 C 0.5208(3) 0.1413(4) 0.3459(3)
H4 H 0.4880 0.1086 0.3662
C10 C 0.5876(3) 0.1281(4) 0.3852(3)
C11 C 0.6349(3) 0.1758(5) 0.3526(4)
H5 H 0.6801 0.1676 0.3783
C12 C 0.6163(3) 0.2358(4) 0.2821(3)
H6 H 0.6493 0.2661 0.2605
C13 C 0.6093(5) 0.0618(5) 0.4621(4)
H7 H 0.6260 0.1052 0.5093
H8 H 0.6439 0.0153 0.4557
H9 H 0.5716 0.0231 0.4699
C14 C 0.3187(2) 0.2849(4) -0.1773(3)
C15 C 0.3108(2) 0.2397(4) -0.2528(3)
H10 H 0.3074 0.1684 -0.2579
C16 C 0.3078(2) 0.3009(5) -0.3227(3)
H11 H 0.3011 0.2701 -0.3744
C17 C 0.3146(3) 0.4060(5) -0.3156(3)
C18 C 0.3231(3) 0.4502(5) -0.2385(4)
H12 H 0.3280 0.5213 -0.2327
C19 C 0.3244(3) 0.3895(5) -0.1696(3)
H13 H 0.3293 0.4202 -0.1180
C20 C 0.3125(4) 0.4731(6) -0.3905(5)
H14 H 0.3568 0.4791 -0.3990
H15 H 0.2962 0.5404 -0.3815
H16 H 0.2833 0.4425 -0.4384
C21 C 0.6522(2) 0.1314(5) 0.0527(4)
H17 H 0.6389 0.0603 0.0517
H18 H 0.6962 0.1392 0.0885
H19 H 0.6527 0.1529 -0.0023
C22 C 0.4642(3) 0.0208(4) -0.1757(3)
H20 H 0.4976 0.0621 -0.1917
H21 H 0.4375 -0.0140 -0.2234
H22 H 0.4857 -0.0293 -0.1354
O1 O 0.2944(2) 0.2823(5) -0.0320(3)
O2 O 0.2932(2) 0.1223(4) -0.1087(3)
O3 O 0.60555(16) 0.1937(3) 0.0827(2)
O4 O 0.42225(17) 0.0853(3) -0.1408(2)
S1 S 0.52778(10) 0.33703(11) 0.15840(8)
S2 S 0.32008(7) 0.21266(14) -0.08775(9)
C23 C 0.0619(2) 0.7588(4) 0.0713(3)
H23 H 0.0917 0.7999 0.1089
C24 C 0.0858(2) 0.6996(4) 0.0158(3)
C25 C 0.0406(2) 0.6372(3) -0.0417(3)
C26 C -0.0262(2) 0.6344(3) -0.0405(3)
H24 H -0.0558 0.5917 -0.0770
C27 C -0.0491(2) 0.6957(3) 0.0154(3)
C28 C -0.0050(2) 0.7586(3) 0.0727(3)
C29 C 0.1730(2) 0.7792(4) -0.0726(3)
C30 C 0.1848(2) 0.7299(4) -0.1414(3)
H25 H 0.1896 0.6586 -0.1420
C31 C 0.1893(2) 0.7885(4) -0.2094(3)
H26 H 0.1974 0.7562 -0.2557
C32 C 0.1817(2) 0.8935(4) -0.2091(3)
C33 C 0.1689(2) 0.9410(4) -0.1407(3)
H27 H 0.1630 1.0121 -0.1409
C34 C 0.1648(2) 0.8852(4) -0.0726(3)
H28 H 0.1567 0.9181 -0.0265
C35 C 0.1884(4) 0.9574(6) -0.2823(4)
H29 H 0.2326 0.9489 -0.2907
H30 H 0.1810 1.0287 -0.2719
H31 H 0.1558 0.9351 -0.3309
C36 C -0.0538(2) 0.7537(3) 0.2139(3)
C37 C -0.0049(2) 0.7091(4) 0.2748(3)
H32 H 0.0400 0.7220 0.2772
C38 C -0.0215(2) 0.6454(4) 0.3324(3)
H33 H 0.0125 0.6146 0.3725
C39 C -0.0878(2) 0.6257(4) 0.3323(3)
C40 C -0.1367(2) 0.6717(5) 0.2694(4)
H34 H -0.1817 0.6593 0.2665
C41 C -0.1199(2) 0.7347(4) 0.2118(3)
H35 H -0.1535 0.7648 0.1707
C42 C -0.1058(3) 0.5582(5) 0.3967(4)
H36 H -0.0657 0.5288 0.4312
H37 H -0.1350 0.5040 0.3701
H38 H -0.1281 0.5986 0.4301
C43 C 0.0252(3) 0.5173(4) -0.1537(3)
H39 H 0.0050 0.4665 -0.1255
H40 H 0.0513 0.4835 -0.1863
H41 H -0.0093 0.5578 -0.1891
C44 C -0.1614(3) 0.6355(5) -0.0340(4)
H42 H -0.1637 0.6540 -0.0904
H43 H -0.2046 0.6452 -0.0229
H44 H -0.1484 0.5645 -0.0252
O5 O 0.1997(2) 0.7807(4) 0.0874(2)
O6 O 0.1985(2) 0.6179(3) 0.0144(3)
O7 O 0.06737(17) 0.5826(3) -0.0945(2)
O8 O -0.11380(16) 0.6985(3) 0.0195(2)
S3 S 0.17123(6) 0.71149(12) 0.01772(8)
S4 S -0.03299(9) 0.84109(10) 0.14134(9)
loop_
_geom_bond_atom_site_label_1
_geom_bond_atom_site_label_2
_geom_bond_site_symmetry_1
_geom_bond_site_symmetry_2
C1 C2 1_555 1_555
C2 C3 1_555 1_555
C3 H1 1_555 1_555
C4 C3 1_555 1_555
C5 C4 1_555 1_555
C6 C1 1_555 1_555
H2 C6 1_555 1_555
C7 C8 1_555 1_555
C8 H3 1_555 1_555
C9 C8 1_555 1_555
H4 C9 1_555 1_555
C10 C9 1_555 1_555
C11 C10 1_555 1_555
H5 C11 1_555 1_555
C12 C7 1_555 1_555
H6 C12 1_555 1_555
C13 C10 1_555 1_555
H7 C13 1_555 1_555
H8 C13 1_555 1_555
H9 C13 1_555 1_555
C14 C15 1_555 1_555
C15 H10 1_555 1_555
C16 C15 1_555 1_555
H11 C16 1_555 1_555
C17 C16 1_555 1_555
C18 C17 1_555 1_555
H12 C18 1_555 1_555
C19 C14 1_555 1_555
H13 C19 1_555 1_555
C20 C17 1_555 1_555
H14 C20 1_555 1_555
H15 C20 1_555 1_555
H16 C20 1_555 1_555
C21 H17 1_555 1_555
H18 C21 1_555 1_555
H19 C21 1_555 1_555
C22 H20 1_555 1_555
H21 C22 1_555 1_555
H22 C22 1_555 1_555
O1 S2 1_555 1_555
O2 S2 1_555 1_555
O3 C2 1_555 1_555
O4 C4 1_555 1_555
S1 C1 1_555 1_555
S2 C5 1_555 1_555
C23 H23 1_555 1_555
C24 C23 1_555 1_555
C25 C24 1_555 1_555
C26 C25 1_555 1_555
H24 C26 1_555 1_555
C27 C26 1_555 1_555
C28 C23 1_555 1_555
C29 C30 1_555 1_555
C30 H25 1_555 1_555
C31 C30 1_555 1_555
H26 C31 1_555 1_555
C32 C31 1_555 1_555
C33 C32 1_555 1_555
H27 C33 1_555 1_555
C34 C29 1_555 1_555
H28 C34 1_555 1_555
C35 C32 1_555 1_555
H29 C35 1_555 1_555
H30 C35 1_555 1_555
H31 C35 1_555 1_555
C36 C37 1_555 1_555
C37 H32 1_555 1_555
C38 C37 1_555 1_555
H33 C38 1_555 1_555
C39 C38 1_555 1_555
C40 C39 1_555 1_555
H34 C40 1_555 1_555
C41 C36 1_555 1_555
H35 C41 1_555 1_555
C42 C39 1_555 1_555
H36 C42 1_555 1_555
H37 C42 1_555 1_555
H38 C42 1_555 1_555
C43 H39 1_555 1_555
H40 C43 1_555 1_555
H41 C43 1_555 1_555
C44 H42 1_555 1_555
H43 C44 1_555 1_555
H44 C44 1_555 1_555
O5 S3 1_555 1_555
O6 S3 1_555 1_555
O7 C25 1_555 1_555
O8 C27 1_555 1_555
S3 C24 1_555 1_555
S4 C28 1_555 1_555
C5 C6 1_555 1_555
C7 S1 1_555 1_555
C11 C12 1_555 1_555
C14 S2 1_555 1_555
C18 C19 1_555 1_555
C21 O3 1_555 1_555
C22 O4 1_555 1_555
C27 C28 1_555 1_555
C29 S3 1_555 1_555
C33 C34 1_555 1_555
C36 S4 1_555 1_555
C40 C41 1_555 1_555
C43 O7 1_555 1_555
C44 O8 1_555 1_555

#END
