
#######################################################################
#
#                 Cambridge Crystallographic Data Centre
#                                CCDC 
#
#######################################################################
#
# If this CIF has been generated from an entry in the Cambridge 
# Structural Database, then it will include bibliographic, chemical, 
# crystal, experimental, refinement or atomic coordinate data resulting 
# from the CCDC's data processing and validation procedures.
#
#######################################################################

data_JIDZOO
_chemical_formula_moiety         'C24 H23 N5 O1,C11 H8 O3'
_chemical_name_systematic        
'N-[4-(1-cyanocyclopentyl)phenyl]-2-{[(pyridin-4-yl)methyl]amino}pyridine-3-carboxamide 1-hydroxynaphthalene-2-carboxylic acid solvate'
_symmetry_cell_setting           monoclinic
_symmetry_space_group_name_H-M   'C 2/c'
_symmetry_Int_Tables_number      15
_space_group_name_Hall           '-C 2yn'
loop_
_symmetry_equiv_pos_site_id
_symmetry_equiv_pos_as_xyz
1 x,y,z
2 -x,y,1/2-z
3 1/2+x,1/2+y,z
4 1/2-x,1/2+y,1/2-z
5 -x,-y,-z
6 x,-y,1/2+z
7 1/2-x,1/2-y,-z
8 1/2+x,1/2-y,1/2+z
_cell_length_a                   18.0080(7)
_cell_length_b                   8.4825(3)
_cell_length_c                   39.5323(15)
_cell_angle_alpha                90
_cell_angle_beta                 101.8750(10)
_cell_angle_gamma                90
_cell_volume                     5909.44
_exptl_crystal_colour            'brownish brown'
_exptl_crystal_description       plate
_cell_formula_units_Z            8
loop_
_atom_site_label
_atom_site_type_symbol
_atom_site_fract_x
_atom_site_fract_y
_atom_site_fract_z
O1 O 0.69605(10) 0.7099(2) 0.40095(4)
N1 N 0.69326(10) 0.8371(2) 0.45107(5)
H1 H 0.6764 0.8345 0.4704
N2 N 0.57595(12) 0.5179(2) 0.37909(5)
H2 H 0.6100 0.5805 0.3731
N3 N 0.52803(12) 0.3934(2) 0.42141(5)
N4 N 0.57491(14) -0.0297(2) 0.32456(6)
C1 C 0.73772(12) 0.9682(2) 0.44539(5)
C2 C 0.82666(12) 1.2337(2) 0.43816(5)
C3 C 0.67475(12) 0.7144(3) 0.42860(6)
C4 C 0.62565(12) 0.5903(2) 0.43892(6)
C5 C 0.62466(13) 0.5593(3) 0.47320(6)
H3 H 0.6574 0.6160 0.4910
C6 C 0.57672(13) 0.4993(2) 0.41321(6)
N5 N 0.86154(15) 1.5898(3) 0.48007(6)
C7 C 0.76416(12) 1.2453(2) 0.45366(6)
H4 H 0.7516 1.3447 0.4621
C8 C 0.79949(13) 0.9549(3) 0.42960(6)
H5 H 0.8124 0.8551 0.4215
C9 C 0.71998(12) 1.1157(3) 0.45708(6)
H6 H 0.6772 1.1271 0.4675
C10 C 0.84227(12) 1.0860(3) 0.42563(6)
H7 H 0.8834 1.0756 0.4141
C11 C 0.87568(13) 1.3761(3) 0.43384(6)
C12 C 0.54430(13) 0.2755(3) 0.34326(6)
C13 C 0.86669(14) 1.4976(3) 0.45958(6)
C14 C 0.57616(14) 0.4458(3) 0.48169(6)
H8 H 0.5757 0.4216 0.5051
C15 C 0.52874(15) 0.3698(3) 0.45492(6)
H9 H 0.4940 0.2951 0.4607
C16 C 0.52229(14) 0.4406(3) 0.35221(6)
H10 H 0.5152 0.5063 0.3311
H11 H 0.4728 0.4351 0.3594
C17 C 0.96281(13) 1.3419(3) 0.43854(7)
H12 H 0.9915 1.3972 0.4592
H13 H 0.9728 1.2273 0.4414
C18 C 0.50373(15) 0.2059(3) 0.31340(7)
H14 H 0.4645 0.2628 0.2987
C19 C 0.85442(15) 1.4482(3) 0.39699(6)
H15 H 0.8381 1.3649 0.3795
H16 H 0.8130 1.5261 0.3955
C20 C 0.60183(15) 0.1884(3) 0.36314(6)
H17 H 0.6317 0.2319 0.3836
C21 C 0.61564(17) 0.0378(3) 0.35302(7)
H18 H 0.6558 -0.0206 0.3668
C22 C 0.52029(16) 0.0548(3) 0.30515(7)
H19 H 0.4915 0.0088 0.2847
C23 C 0.92616(17) 1.5265(4) 0.39157(9)
H20 H 0.9355 1.6271 0.4044
H21 H 0.9247 1.5461 0.3668
C24 C 0.9861(5) 1.4011(9) 0.4064(2)
H22 H 0.9862 1.3143 0.3897
H23 H 1.0375 1.4483 0.4121
O2 O 0.59198(13) -0.3040(2) 0.30081(5)
H30 H 0.5820 -0.2143 0.3077
O3 O 0.59956(12) -0.1673(2) 0.25325(5)
O4 O 0.63939(13) -0.3083(2) 0.20259(5)
H31 H 0.6236 -0.2331 0.2130
C26 C 0.64421(14) -0.4392(3) 0.22220(7)
C27 C 0.62506(14) -0.4421(3) 0.25436(6)
C28 C 0.67153(14) -0.5788(3) 0.20843(6)
C29 C 0.67679(14) -0.7201(3) 0.22799(7)
C30 C 0.60352(15) -0.2935(3) 0.26930(7)
C31 C 0.65675(15) -0.7195(3) 0.26087(7)
H32 H 0.6606 -0.8135 0.2742
C32 C 0.63206(16) -0.5845(3) 0.27325(7)
H33 H 0.6191 -0.5857 0.2953
C33 C 0.69180(16) -0.5797(4) 0.17575(7)
H34 H 0.6891 -0.4851 0.1627
C34 C 0.70077(15) -0.8595(3) 0.21360(7)
H35 H 0.7041 -0.9555 0.2262
C35 C 0.71528(17) -0.7164(4) 0.16298(7)
H36 H 0.7292 -0.7163 0.1411
C36 C 0.71896(17) -0.8570(4) 0.18192(8)
H37 H 0.7343 -0.9516 0.1725
H24? H 0.9886 1.3515 0.4631
H25? H 0.9717 1.2346 0.4303
H26? H 0.9337 1.5050 0.3679
H27? H 0.9225 1.6420 0.3944
C25? C 0.9905(12) 1.4637(18) 0.4172(7)
H28? H 1.0154 1.5502 0.4322
H29? H 1.0284 1.4169 0.4052
loop_
_geom_bond_atom_site_label_1
_geom_bond_atom_site_label_2
_geom_bond_site_symmetry_1
_geom_bond_site_symmetry_2
O1 C3 1_555 1_555
N1 H1 1_555 1_555
N2 H2 1_555 1_555
N3 C6 1_555 1_555
N4 C21 1_555 1_555
C1 N1 1_555 1_555
C2 C7 1_555 1_555
C3 N1 1_555 1_555
C4 C3 1_555 1_555
C5 C4 1_555 1_555
H3 C5 1_555 1_555
C6 N2 1_555 1_555
N5 C13 1_555 1_555
C7 H4 1_555 1_555
C8 C1 1_555 1_555
H5 C8 1_555 1_555
C9 C1 1_555 1_555
H6 C9 1_555 1_555
C10 C2 1_555 1_555
H7 C10 1_555 1_555
C11 C2 1_555 1_555
C12 C16 1_555 1_555
C13 C11 1_555 1_555
C14 C5 1_555 1_555
H8 C14 1_555 1_555
C15 N3 1_555 1_555
H9 C15 1_555 1_555
C16 N2 1_555 1_555
H10 C16 1_555 1_555
H11 C16 1_555 1_555
C17 C11 1_555 1_555
H12 C17 1_555 1_555
H13 C17 1_555 1_555
C18 C12 1_555 1_555
H14 C18 1_555 1_555
C19 C11 1_555 1_555
H15 C19 1_555 1_555
H16 C19 1_555 1_555
C20 C12 1_555 1_555
H17 C20 1_555 1_555
C21 C20 1_555 1_555
H18 C21 1_555 1_555
C22 N4 1_555 1_555
H19 C22 1_555 1_555
C23 C19 1_555 1_555
H20 C23 1_555 1_555
H21 C23 1_555 1_555
C24 C17 1_555 1_555
H22 C24 1_555 1_555
H23 C24 1_555 1_555
O2 H30 1_555 1_555
O3 C30 1_555 1_555
O4 H31 1_555 1_555
C26 O4 1_555 1_555
C27 C26 1_555 1_555
C28 C26 1_555 1_555
C29 C28 1_555 1_555
C30 O2 1_555 1_555
C31 C29 1_555 1_555
H32 C31 1_555 1_555
C32 C27 1_555 1_555
H33 C32 1_555 1_555
C33 C28 1_555 1_555
H34 C33 1_555 1_555
C34 C29 1_555 1_555
H35 C34 1_555 1_555
C35 C33 1_555 1_555
H36 C35 1_555 1_555
C36 C34 1_555 1_555
H37 C36 1_555 1_555
C4 C6 1_555 1_555
C7 C9 1_555 1_555
C8 C10 1_555 1_555
C14 C15 1_555 1_555
C18 C22 1_555 1_555
C23 C24 1_555 1_555
C27 C30 1_555 1_555
C31 C32 1_555 1_555
C35 C36 1_555 1_555

#END
