
#######################################################################
#
#                 Cambridge Crystallographic Data Centre
#                                CCDC 
#
#######################################################################
#
# If this CIF has been generated from an entry in the Cambridge 
# Structural Database, then it will include bibliographic, chemical, 
# crystal, experimental, refinement or atomic coordinate data resulting 
# from the CCDC's data processing and validation procedures.
#
#######################################################################

data_JIFBOS
_chemical_formula_moiety         'C60 H49 N1 O2'
_chemical_name_systematic        
2-hexyl-4,17-bis(2,4,6-trimethylphenyl)-4,17-dihydro-1H-benzo[6,7]diindeno[1',2':8,9;2'',1'':2,3]fluorantheno[1,10-efg]isoindole-1,3(2H)-dione
_symmetry_cell_setting           triclinic
_symmetry_space_group_name_H-M   'P -1'
_symmetry_Int_Tables_number      2
_space_group_name_Hall           '-P 1'
loop_
_symmetry_equiv_pos_site_id
_symmetry_equiv_pos_as_xyz
1 x,y,z
2 -x,-y,-z
_cell_length_a                   11.5398(5)
_cell_length_b                   18.2890(6)
_cell_length_c                   21.9329(5)
_cell_angle_alpha                107.695(2)
_cell_angle_beta                 90.666(3)
_cell_angle_gamma                100.697(3)
_cell_volume                     4321.87
_exptl_crystal_colour            'yellowish black'
_exptl_crystal_description       block
_cell_formula_units_Z            4
loop_
_atom_site_label
_atom_site_type_symbol
_atom_site_fract_x
_atom_site_fract_y
_atom_site_fract_z
O1 O 0.10186(19) 0.85796(13) 0.34811(10)
O2 O -0.1431(2) 0.91823(14) 0.21563(11)
N1 N 0.0038(2) 0.91201(15) 0.28536(12)
C1 C 0.3045(2) 0.76323(18) 0.20946(14)
C2 C 0.3591(3) 0.83883(19) 0.32099(14)
C3 C -0.1446(2) 0.66567(17) 0.14957(14)
C4 C -0.1850(2) 0.59740(18) 0.09697(14)
C5 C -0.0736(2) 0.64631(17) 0.19358(13)
C6 C 0.2939(2) 0.77090(17) 0.27528(13)
C7 C -0.2737(3) 0.6549(2) -0.08839(15)
H1 H -0.2947 0.6006 -0.0999
C8 C 0.2780(3) 0.64035(18) 0.29740(13)
C9 C 0.3723(3) 0.82407(19) 0.19208(15)
H2 H 0.3756 0.8192 0.1487
C10 C 0.4277(3) 0.89728(19) 0.30124(15)
H3 H 0.4699 0.9416 0.3322
C11 C -0.1758(3) 0.74419(18) 0.08459(14)
C12 C -0.2152(2) 0.59799(18) 0.03618(14)
C13 C -0.0719(2) 0.56541(17) 0.16782(13)
C14 C 0.0171(3) 0.53145(17) 0.18215(14)
C15 C -0.2023(3) 0.78103(19) -0.00866(15)
C16 C 0.0010(2) 0.77925(17) 0.24433(13)
C17 C -0.2340(3) 0.69929(19) -0.02521(14)
C18 C -0.2154(3) 0.67606(18) 0.03220(14)
C19 C 0.3557(3) 0.5019(2) 0.28331(15)
H4 H 0.3837 0.4560 0.2779
C20 C 0.1038(2) 0.58425(17) 0.23211(14)
C21 C -0.1660(3) 0.81678(18) 0.06273(15)
H5 H -0.2271 0.8450 0.0827
C22 C -0.0701(2) 0.79806(18) 0.20243(13)
C23 C -0.1419(2) 0.53567(17) 0.10877(14)
C24 C 0.2169(3) 0.70745(18) 0.29775(13)
H6 H 0.1970 0.7316 0.3417
C25 C 0.2507(3) 0.49953(18) 0.24944(14)
H7 H 0.2078 0.4524 0.2223
C26 C 0.0457(3) 0.85165(18) 0.29934(14)
C27 C -0.0480(3) 0.87475(18) 0.07859(14)
C28 C 0.3815(3) 0.6424(2) 0.33124(14)
H8 H 0.4256 0.6895 0.3577
C29 C -0.2159(3) 0.52472(19) -0.01361(14)
H9 H -0.2454 0.5183 -0.0549
C30 C 0.4182(3) 0.5715(2) 0.32462(15)
H10 H 0.4854 0.5715 0.3484
C31 C 0.0129(2) 0.69897(17) 0.23703(13)
C32 C -0.1269(3) 0.46949(18) 0.06088(14)
C33 C 0.0208(3) 0.45551(18) 0.13678(15)
H11 H 0.0708 0.4256 0.1466
C34 C 0.4354(3) 0.89178(19) 0.23657(16)
C35 C -0.1361(2) 0.74114(18) 0.14616(14)
C36 C 0.1036(2) 0.66500(17) 0.25717(13)
C37 C 0.3574(3) 0.8513(2) 0.39234(15)
H12 H 0.2825 0.8626 0.4066
H13 H 0.4195 0.8943 0.4147
H14 H 0.3693 0.8047 0.4011
C38 C -0.0752(3) 0.88222(19) 0.23164(14)
C39 C -0.1739(3) 0.46384(19) -0.00158(15)
H15 H -0.1764 0.4178 -0.0351
C40 C 0.2123(3) 0.56951(18) 0.25745(13)
C41 C -0.0475(3) 0.42640(18) 0.07960(15)
H16 H -0.0424 0.3773 0.0521
C42 C -0.0467(3) 0.9565(2) 0.09909(16)
C43 C 0.0110(3) 0.98969(19) 0.33120(15)
H17 H 0.0458 0.9908 0.3720
H18 H -0.0684 0.9996 0.3377
C44 C -0.2811(3) 0.6929(2) -0.13323(16)
H19 H -0.3093 0.6639 -0.1751
C45 C 0.2737(3) 1.0697(2) 0.37699(18)
H20 H 0.2615 1.0196 0.3850
H21 H 0.2343 1.1041 0.4090
C46 C 0.0610(3) 0.84991(19) 0.07350(16)
C47 C 0.2544(3) 0.6902(2) 0.15511(14)
H22 H 0.2738 0.6455 0.1641
H23 H 0.2873 0.6943 0.1160
H24 H 0.1700 0.6842 0.1506
C48 C -0.2074(3) 0.8189(2) -0.05433(16)
H25 H -0.1848 0.8730 -0.0434
C49 C 0.0836(3) 1.0547(2) 0.30980(17)
H26 H 0.0693 1.1044 0.3370
H27 H 0.0554 1.0485 0.2664
C50 C 0.2173(3) 1.0581(2) 0.31129(18)
H28 H 0.2325 1.0098 0.2819
H29 H 0.2546 1.1007 0.2960
C51 C 0.5144(4) 0.9529(2) 0.2151(2)
H30 H 0.5950 0.9474 0.2189
H31 H 0.5064 1.0040 0.2414
H32 H 0.4923 0.9464 0.1711
C52 C 0.1681(3) 0.9851(2) 0.11663(18)
C53 C 0.0606(3) 1.0089(2) 0.11722(18)
H33 H 0.0604 1.0623 0.1303
C54 C -0.2475(4) 0.7733(2) -0.11725(17)
H34 H -0.2516 0.7974 -0.1487
C55 C 0.4054(3) 1.1043(2) 0.3848(2)
H35 H 0.4427 1.0753 0.3483
H36 H 0.4167 1.1581 0.3845
C56 C 0.1652(3) 0.9052(2) 0.09389(18)
H37 H 0.2363 0.8878 0.0922
C57 C -0.1593(4) 0.9880(2) 0.10182(19)
H38 H -0.2041 0.9652 0.0611
H39 H -0.1400 1.0439 0.1115
H40 H -0.2053 0.9750 0.1346
C58 C 0.0699(3) 0.7659(2) 0.04352(19)
H41 H 0.0480 0.7375 0.0733
H42 H 0.1497 0.7630 0.0328
H43 H 0.0177 0.7434 0.0053
C59 C 0.4661(4) 1.1027(3) 0.4459(2)
H44 H 0.4639 1.0493 0.4442
H45 H 0.4261 1.1278 0.4821
H46 H 0.5469 1.1298 0.4501
C60 C 0.2836(4) 1.0426(3) 0.1384(2)
H47 H 0.3114 1.0614 0.1038
H48 H 0.3409 1.0172 0.1513
H49 H 0.2720 1.0859 0.1741
O3 O 1.03574(19) 0.63954(14) 0.40533(10)
O4 O 0.9589(2) 0.38917(13) 0.27487(11)
N2 N 1.0125(2) 0.50775(15) 0.35404(11)
C61 C 0.9750(3) 0.76001(18) 0.52385(14)
C62 C 0.5984(2) 0.51280(19) 0.19311(13)
C63 C 0.7620(3) 0.72287(17) 0.50351(14)
C64 C 0.8726(3) 0.74653(17) 0.48309(13)
C65 C 0.6774(2) 0.51530(19) 0.24397(13)
C66 C 0.7529(3) 0.26270(18) 0.20968(14)
C67 C 0.6399(2) 0.63820(19) 0.25988(14)
C68 C 0.7484(2) 0.75390(18) 0.33207(14)
C69 C 0.7023(2) 0.59329(18) 0.28550(13)
C70 C 0.5781(2) 0.58892(19) 0.20267(14)
C71 C 0.7544(3) 0.71250(18) 0.56433(15)
H50 H 0.6802 0.6976 0.5780
C72 C 1.1259(2) 0.49940(19) 0.37940(13)
H51 H 1.1864 0.5437 0.3788
H52 H 1.1478 0.4524 0.3516
C73 C 0.8408(2) 0.49009(17) 0.29030(13)
C74 C 0.7452(2) 0.45910(18) 0.24104(13)
C75 C 0.7115(2) 0.39004(18) 0.18419(14)
C76 C 0.6665(3) 0.71797(19) 0.27535(14)
C77 C 0.7972(2) 0.62583(18) 0.33085(13)
C78 C 0.8505(3) 0.84306(19) 0.42490(15)
C79 C 0.8473(3) 0.22364(19) 0.20997(16)
C80 C 0.8535(3) 0.72369(19) 0.60450(15)
C81 C 0.8851(2) 0.76534(17) 0.41921(14)
H53 H 0.9684 0.7698 0.4098
C82 C 0.9406(2) 0.45338(18) 0.30342(14)
C83 C 0.8647(2) 0.56736(18) 0.33179(13)
C84 C 0.9788(2) 0.57988(18) 0.36957(13)
C85 C 0.9621(3) 0.74678(18) 0.58341(15)
H54 H 1.0297 0.7539 0.6097
C86 C 0.8417(3) 0.1731(2) 0.24656(17)
H55 H 0.9040 0.1474 0.2469
C87 C 0.5242(3) 0.4781(2) 0.08530(14)
H56 H 0.5003 0.4409 0.0455
C88 C 0.6541(3) 0.2479(2) 0.24363(15)
C89 C 0.6327(3) 0.38878(19) 0.13388(14)
C90 C 1.2464(3) 0.5029(2) 0.47607(15)
H57 H 1.2936 0.5527 0.4762
H58 H 1.2826 0.4617 0.4493
C91 C 0.6173(3) 0.3138(2) 0.08371(15)
C92 C 0.7571(3) 0.31318(19) 0.16530(14)
H59 H 0.8397 0.3257 0.1556
C93 C 0.5800(3) 0.4549(2) 0.13433(13)
C94 C 0.8106(2) 0.71016(18) 0.35919(13)
C95 C 1.0970(3) 0.7923(2) 0.50847(16)
H60 H 1.1108 0.7635 0.4656
H61 H 1.1547 0.7875 0.5382
H62 H 1.1033 0.8465 0.5119
C96 C 0.7720(3) 0.83525(19) 0.37367(15)
C97 C 0.6467(3) 0.7110(2) 0.46454(16)
H63 H 0.6451 0.7565 0.4515
H64 H 0.5815 0.7032 0.4902
H65 H 0.6404 0.6659 0.4272
C98 C 1.1222(3) 0.4947(2) 0.44741(15)
H66 H 1.0746 0.4449 0.4470
H67 H 1.0858 0.5361 0.4737
C99 C 0.6862(3) 0.2678(2) 0.10181(15)
C100 C 0.5054(3) 0.5533(2) 0.09546(15)
H68 H 0.4693 0.5645 0.0621
C101 C 0.8793(3) 0.91247(19) 0.47485(15)
H69 H 0.9315 0.9170 0.5090
C102 C 0.5411(3) 0.2821(2) 0.02782(16)
H70 H 0.4953 0.3126 0.0153
C103 C 0.6166(3) 0.7480(2) 0.22940(15)
H71 H 0.6246 0.8019 0.2385
C104 C 0.5389(3) 0.6149(2) 0.15504(15)
C105 C 0.5568(3) 0.6985(2) 0.17196(15)
H72 H 0.5273 0.7204 0.1435
C106 C 0.9527(3) 0.2326(2) 0.17114(18)
H73 H 0.9272 0.2144 0.1263
H74 H 1.0073 0.2024 0.1792
H75 H 0.9909 0.2868 0.1831
C107 C 0.7474(3) 0.1595(2) 0.28239(17)
C108 C 0.5446(3) 0.2803(2) 0.23935(18)
H76 H 0.5615 0.3358 0.2603
H77 H 0.4827 0.2560 0.2599
H78 H 0.5196 0.2697 0.1951
C109 C 0.7499(3) 0.9685(2) 0.42203(18)
H79 H 0.7161 1.0107 0.4216
C110 C 0.8288(3) 0.9757(2) 0.47313(17)
H80 H 0.8479 1.0228 0.5063
C111 C 0.6542(3) 0.1971(2) 0.28034(17)
H81 H 0.5898 0.1884 0.3041
C112 C 0.7213(3) 0.8985(2) 0.37153(16)
H82 H 0.6696 0.8939 0.3371
C113 C 1.2472(3) 0.4984(2) 0.54441(15)
H83 H 1.2063 0.5376 0.5702
H84 H 1.2031 0.4475 0.5436
C114 C 1.3696(3) 0.5108(3) 0.57677(18)
H85 H 1.3609 0.5010 0.6177
H86 H 1.4111 0.4723 0.5505
C115 C 0.6791(3) 0.1897(2) 0.06612(17)
H87 H 0.7237 0.1588 0.0789
C116 C 0.8421(4) 0.7153(2) 0.67085(17)
H88 H 0.8354 0.7646 0.7009
H89 H 0.9108 0.6991 0.6833
H90 H 0.7729 0.6767 0.6704
C117 C 0.5352(4) 0.2054(3) -0.00808(17)
H91 H 0.4853 0.1839 -0.0454
C118 C 0.6035(4) 0.1592(3) 0.01084(18)
H92 H 0.5981 0.1074 -0.0140
C119 C 0.7458(4) 0.1039(3) 0.3213(2)
H93 H 0.7527 0.0532 0.2935
H94 H 0.6729 0.0997 0.3417
H95 H 0.8109 0.1234 0.3534
C120 C 1.4438(4) 0.5899(4) 0.5881(2)
H96 H 1.4598 0.5984 0.5476
H97 H 1.5170 0.5937 0.6112
H98 H 1.4026 0.6288 0.6127
loop_
_geom_bond_atom_site_label_1
_geom_bond_atom_site_label_2
_geom_bond_site_symmetry_1
_geom_bond_site_symmetry_2
O1 C26 1_555 1_555
O2 C38 1_555 1_555
N1 C26 1_555 1_555
C1 C6 1_555 1_555
C2 C6 1_555 1_555
C3 C4 1_555 1_555
C4 C12 1_555 1_555
C5 C3 1_555 1_555
C6 C24 1_555 1_555
C7 H1 1_555 1_555
C8 C24 1_555 1_555
C9 C1 1_555 1_555
H2 C9 1_555 1_555
C10 C2 1_555 1_555
H3 C10 1_555 1_555
C11 C18 1_555 1_555
C12 C18 1_555 1_555
C13 C5 1_555 1_555
C14 C13 1_555 1_555
C15 C17 1_555 1_555
C16 C22 1_555 1_555
C17 C7 1_555 1_555
C18 C17 1_555 1_555
C19 H4 1_555 1_555
C20 C14 1_555 1_555
C21 C11 1_555 1_555
H5 C21 1_555 1_555
C22 C35 1_555 1_555
C23 C4 1_555 1_555
C24 H6 1_555 1_555
C25 C19 1_555 1_555
H7 C25 1_555 1_555
C26 C16 1_555 1_555
C27 C21 1_555 1_555
C28 C8 1_555 1_555
H8 C28 1_555 1_555
C29 C12 1_555 1_555
H9 C29 1_555 1_555
C30 C19 1_555 1_555
H10 C30 1_555 1_555
C31 C5 1_555 1_555
C32 C23 1_555 1_555
C33 C14 1_555 1_555
H11 C33 1_555 1_555
C34 C9 1_555 1_555
C35 C3 1_555 1_555
C36 C20 1_555 1_555
C37 C2 1_555 1_555
H12 C37 1_555 1_555
H13 C37 1_555 1_555
H14 C37 1_555 1_555
C38 N1 1_555 1_555
C39 C29 1_555 1_555
H15 C39 1_555 1_555
C40 C8 1_555 1_555
C41 C32 1_555 1_555
H16 C41 1_555 1_555
C42 C27 1_555 1_555
C43 N1 1_555 1_555
H17 C43 1_555 1_555
H18 C43 1_555 1_555
C44 C7 1_555 1_555
H19 C44 1_555 1_555
C45 H20 1_555 1_555
H21 C45 1_555 1_555
C46 C27 1_555 1_555
C47 C1 1_555 1_555
H22 C47 1_555 1_555
H23 C47 1_555 1_555
H24 C47 1_555 1_555
C48 C15 1_555 1_555
H25 C48 1_555 1_555
C49 C43 1_555 1_555
H26 C49 1_555 1_555
H27 C49 1_555 1_555
C50 C45 1_555 1_555
H28 C50 1_555 1_555
H29 C50 1_555 1_555
C51 C34 1_555 1_555
H30 C51 1_555 1_555
H31 C51 1_555 1_555
H32 C51 1_555 1_555
C52 C53 1_555 1_555
C53 C42 1_555 1_555
H33 C53 1_555 1_555
C54 C44 1_555 1_555
H34 C54 1_555 1_555
C55 C45 1_555 1_555
H35 C55 1_555 1_555
H36 C55 1_555 1_555
C56 C46 1_555 1_555
H37 C56 1_555 1_555
C57 C42 1_555 1_555
H38 C57 1_555 1_555
H39 C57 1_555 1_555
H40 C57 1_555 1_555
C58 C46 1_555 1_555
H41 C58 1_555 1_555
H42 C58 1_555 1_555
H43 C58 1_555 1_555
C59 C55 1_555 1_555
H44 C59 1_555 1_555
H45 C59 1_555 1_555
H46 C59 1_555 1_555
C60 C52 1_555 1_555
H47 C60 1_555 1_555
H48 C60 1_555 1_555
H49 C60 1_555 1_555
O3 C84 1_555 1_555
O4 C82 1_555 1_555
N2 C72 1_555 1_555
C61 C64 1_555 1_555
C62 C65 1_555 1_555
C63 C64 1_555 1_555
C64 C81 1_555 1_555
C65 C69 1_555 1_555
C66 C79 1_555 1_555
C67 C69 1_555 1_555
C68 C76 1_555 1_555
C69 C77 1_555 1_555
C70 C62 1_555 1_555
C71 C63 1_555 1_555
H50 C71 1_555 1_555
C72 H51 1_555 1_555
H52 C72 1_555 1_555
C73 C74 1_555 1_555
C74 C65 1_555 1_555
C75 C74 1_555 1_555
C76 C67 1_555 1_555
C77 C83 1_555 1_555
C78 C81 1_555 1_555
C79 C86 1_555 1_555
C80 C71 1_555 1_555
C81 H53 1_555 1_555
C82 N2 1_555 1_555
C83 C73 1_555 1_555
C84 N2 1_555 1_555
C85 C61 1_555 1_555
H54 C85 1_555 1_555
C86 H55 1_555 1_555
C87 H56 1_555 1_555
C88 C66 1_555 1_555
C89 C75 1_555 1_555
C90 H57 1_555 1_555
H58 C90 1_555 1_555
C91 C89 1_555 1_555
C92 C66 1_555 1_555
H59 C92 1_555 1_555
C93 C62 1_555 1_555
C94 C68 1_555 1_555
C95 C61 1_555 1_555
H60 C95 1_555 1_555
H61 C95 1_555 1_555
H62 C95 1_555 1_555
C96 C68 1_555 1_555
C97 C63 1_555 1_555
H63 C97 1_555 1_555
H64 C97 1_555 1_555
H65 C97 1_555 1_555
C98 C72 1_555 1_555
H66 C98 1_555 1_555
H67 C98 1_555 1_555
C99 C91 1_555 1_555
C100 C87 1_555 1_555
H68 C100 1_555 1_555
C101 C78 1_555 1_555
H69 C101 1_555 1_555
C102 C91 1_555 1_555
H70 C102 1_555 1_555
C103 C76 1_555 1_555
H71 C103 1_555 1_555
C104 C70 1_555 1_555
C105 C103 1_555 1_555
H72 C105 1_555 1_555
C106 C79 1_555 1_555
H73 C106 1_555 1_555
H74 C106 1_555 1_555
H75 C106 1_555 1_555
C107 C86 1_555 1_555
C108 C88 1_555 1_555
H76 C108 1_555 1_555
H77 C108 1_555 1_555
H78 C108 1_555 1_555
C109 H79 1_555 1_555
C110 C101 1_555 1_555
H80 C110 1_555 1_555
C111 C88 1_555 1_555
H81 C111 1_555 1_555
C112 C96 1_555 1_555
H82 C112 1_555 1_555
C113 C90 1_555 1_555
H83 C113 1_555 1_555
H84 C113 1_555 1_555
C114 C113 1_555 1_555
H85 C114 1_555 1_555
H86 C114 1_555 1_555
C115 C99 1_555 1_555
H87 C115 1_555 1_555
C116 C80 1_555 1_555
H88 C116 1_555 1_555
H89 C116 1_555 1_555
H90 C116 1_555 1_555
C117 C102 1_555 1_555
H91 C117 1_555 1_555
C118 C115 1_555 1_555
H92 C118 1_555 1_555
C119 C107 1_555 1_555
H93 C119 1_555 1_555
H94 C119 1_555 1_555
H95 C119 1_555 1_555
C120 C114 1_555 1_555
H96 C120 1_555 1_555
H97 C120 1_555 1_555
H98 C120 1_555 1_555
C10 C34 1_555 1_555
C11 C35 1_555 1_555
C13 C23 1_555 1_555
C15 C21 1_555 1_555
C16 C31 1_555 1_555
C20 C40 1_555 1_555
C22 C38 1_555 1_555
C24 C36 1_555 1_555
C25 C40 1_555 1_555
C28 C30 1_555 1_555
C31 C36 1_555 1_555
C32 C39 1_555 1_555
C33 C41 1_555 1_555
C48 C54 1_555 1_555
C49 C50 1_555 1_555
C52 C56 1_555 1_555
C67 C70 1_555 1_555
C73 C82 1_555 1_555
C75 C92 1_555 1_555
C77 C94 1_555 1_555
C78 C96 1_555 1_555
C80 C85 1_555 1_555
C81 C94 1_555 1_555
C83 C84 1_555 1_555
C87 C93 1_555 1_555
C89 C93 1_555 1_555
C90 C98 1_555 1_555
C92 C99 1_555 1_555
C100 C104 1_555 1_555
C104 C105 1_555 1_555
C107 C111 1_555 1_555
C109 C110 1_555 1_555
C109 C112 1_555 1_555
C117 C118 1_555 1_555

#END
