
#######################################################################
#
#                 Cambridge Crystallographic Data Centre
#                                CCDC 
#
#######################################################################
#
# If this CIF has been generated from an entry in the Cambridge 
# Structural Database, then it will include bibliographic, chemical, 
# crystal, experimental, refinement or atomic coordinate data resulting 
# from the CCDC's data processing and validation procedures.
#
#######################################################################

data_JIFCAF01
_chemical_formula_moiety         'C24 H23 N5 O1,0.5(C10 H18 O4)'
_chemical_name_systematic        
'N-[4-(1-cyanocyclopentyl)phenyl]-2-{[(pyridin-4-yl)methyl]amino}pyridine-3-carboxamide decanedioic acid solvate'
_symmetry_cell_setting           triclinic
_symmetry_space_group_name_H-M   'P -1'
_symmetry_Int_Tables_number      2
_space_group_name_Hall           '-P 1'
loop_
_symmetry_equiv_pos_site_id
_symmetry_equiv_pos_as_xyz
1 x,y,z
2 -x,-y,-z
_cell_length_a                   8.9892(6)
_cell_length_b                   9.1111(6)
_cell_length_c                   18.7864(12)
_cell_angle_alpha                78.988(4)
_cell_angle_beta                 76.935(5)
_cell_angle_gamma                62.674(4)
_cell_volume                     1324.77
_exptl_crystal_colour            'light colorless'
_exptl_crystal_description       plate
_cell_formula_units_Z            2
_exptl_crystal_recrystallization_method 'Vapour deposition'
loop_
_atom_site_label
_atom_site_type_symbol
_atom_site_fract_x
_atom_site_fract_y
_atom_site_fract_z
N1 N 0.9899(5) 0.6858(5) 0.26093(17)
H1 H 0.9506 0.6132 0.2755
N2 N 0.8239(3) 0.5353(3) 0.10953(15)
H2 H 0.8235 0.5956 0.0683
C1 C 0.5849(4) 0.5032(4) 0.09187(18)
H3 H 0.5452 0.6094 0.0671
C2 C 0.4952(4) 0.4105(4) 0.09927(17)
H4 H 0.3951 0.4559 0.0797
N3 N 1.0987(4) 0.8287(4) 0.16798(17)
C3 C 0.6986(4) 0.1906(4) 0.16519(19)
H5 H 0.7363 0.0858 0.1913
C4 C 0.3421(5) 0.2096(4) 0.08748(19)
N4 N 0.2612(5) 0.2512(4) 0.04228(19)
O1 O 0.9169(4) 0.4608(4) 0.21880(14)
N5 N 1.5039(6) 0.5519(7) 0.3789(2)
C5 C 1.1852(6) 0.6843(5) 0.33674(19)
C6 C 1.0114(6) 0.7634(6) 0.3155(2)
H6 H 0.9302 0.7630 0.3594
H7 H 0.9841 0.8784 0.2972
C7 C 1.0289(4) 0.7223(4) 0.18768(19)
C8 C 0.9963(4) 0.6526(4) 0.13489(17)
C9 C 0.9119(4) 0.5406(4) 0.15850(18)
C10 C 0.7337(4) 0.4389(4) 0.12112(17)
C11 C 0.5511(4) 0.2519(4) 0.13508(17)
C12 C 0.4495(4) 0.1504(4) 0.14494(17)
C13 C 0.7906(5) 0.2799(4) 0.1576(2)
H8 H 0.8910 0.2339 0.1769
C14 C 0.3376(5) 0.1611(5) 0.2207(2)
H9 H 0.3900 0.1731 0.2577
H10 H 0.2267 0.2544 0.2195
C15 C 1.3246(7) 0.5671(6) 0.2988(2)
H11 H 1.3144 0.5304 0.2580
C16 C 1.3695(9) 0.6647(8) 0.4154(3)
H12 H 1.3831 0.7003 0.4557
C17 C 1.2107(7) 0.7320(6) 0.3966(2)
H13 H 1.1196 0.8103 0.4244
C18 C 0.5586(5) -0.0395(4) 0.1414(2)
H14 H 0.5564 -0.0714 0.0954
H15 H 0.6753 -0.0697 0.1449
C19 C 0.4854(11) -0.1222(7) 0.2030(4)
H16 H 0.4697 -0.2075 0.1861
H17 H 0.5616 -0.1749 0.2390
C20 C 1.4803(8) 0.5036(7) 0.3215(3)
H18 H 1.5733 0.4233 0.2954
C21 C 1.1420(5) 0.8662(5) 0.0966(2)
H19 H 1.1901 0.9407 0.0833
C22 C 1.1202(5) 0.8020(4) 0.0416(2)
H20 H 1.1554 0.8292 -0.0075
C23 C 1.0446(4) 0.6961(4) 0.06160(18)
H21 H 1.0254 0.6528 0.0254
C24 C 0.3235(10) -0.0015(8) 0.2364(3)
H22 H 0.3032 -0.0312 0.2888
H23 H 0.2317 0.0058 0.2148
O2 O -0.1240(9) 0.2290(8) 0.4110(3)
C25 C 0.0916(17) 0.319(2) 0.4192(12)
H24 H 0.1398 0.3664 0.3748
H25 H 0.0723 0.3837 0.4586
O3 O -0.1783(6) 0.4825(6) 0.3975(2)
H26 H -0.1252 0.5324 0.3724
C26 C -0.0829(9) 0.3372(10) 0.4080(3)
C27 C 0.2216(19) 0.141(2) 0.4373(10)
H27 H 0.2679 0.0788 0.3948
H28 H 0.1742 0.0826 0.4772
C28 C 0.357(2) 0.178(2) 0.4606(10)
H29 H 0.3744 0.2650 0.4266
H30 H 0.3163 0.2155 0.5093
C29 C 0.518(2) 0.025(2) 0.4606(5)
H31 H 0.5275 -0.0533 0.4296
H32 H 0.6163 0.0480 0.4480
O2A O 1.1240(9) -0.2290(8) 0.5890(3)
C25A C 0.9084(17) -0.319(2) 0.5808(12)
H24A H 0.8602 -0.3664 0.6252
H25A H 0.9277 -0.3837 0.5414
O3A O 1.1783(6) -0.4825(6) 0.6025(2)
H26A H 1.1252 -0.5324 0.6276
C26A C 1.0829(9) -0.3372(10) 0.5920(3)
C27A C 0.7784(19) -0.141(2) 0.5627(10)
H27A H 0.7321 -0.0788 0.6052
H28A H 0.8258 -0.0826 0.5228
C28A C 0.643(2) -0.178(2) 0.5394(10)
H29A H 0.6256 -0.2650 0.5734
H30A H 0.6837 -0.2155 0.4907
C29A C 0.482(2) -0.025(2) 0.5394(5)
H31A H 0.4725 0.0533 0.5704
H32A H 0.3837 -0.0480 0.5520
C30? C 0.0952(17) 0.233(2) 0.4108(11)
H33? H 0.1059 0.1220 0.4285
H34? H 0.1529 0.2286 0.3604
C31? C 0.1923(17) 0.265(2) 0.4521(9)
H35? H 0.1562 0.2453 0.5042
H36? H 0.1723 0.3809 0.4415
C32? C 0.4129(12) 0.059(2) 0.5047(8)
H37? H 0.3904 0.1339 0.5404
H38? H 0.3391 0.0040 0.5208
C33? C 0.3880(19) 0.149(2) 0.4314(8)
H39? H 0.4104 0.0770 0.3947
H40? H 0.4549 0.2117 0.4155
loop_
_geom_bond_atom_site_label_1
_geom_bond_atom_site_label_2
_geom_bond_site_symmetry_1
_geom_bond_site_symmetry_2
N1 H1 1_555 1_555
N2 H2 1_555 1_555
C1 H3 1_555 1_555
C2 C1 1_555 1_555
H4 C2 1_555 1_555
N3 C7 1_555 1_555
C3 H5 1_555 1_555
C4 N4 1_555 1_555
O1 C9 1_555 1_555
N5 C16 1_555 1_555
C5 C6 1_555 1_555
C6 N1 1_555 1_555
H6 C6 1_555 1_555
H7 C6 1_555 1_555
C7 N1 1_555 1_555
C8 C7 1_555 1_555
C9 N2 1_555 1_555
C10 N2 1_555 1_555
C11 C2 1_555 1_555
C12 C4 1_555 1_555
C13 C3 1_555 1_555
H8 C13 1_555 1_555
C14 C12 1_555 1_555
H9 C14 1_555 1_555
H10 C14 1_555 1_555
C15 C5 1_555 1_555
H11 C15 1_555 1_555
C16 H12 1_555 1_555
C17 C5 1_555 1_555
H13 C17 1_555 1_555
C18 C12 1_555 1_555
H14 C18 1_555 1_555
H15 C18 1_555 1_555
C19 C18 1_555 1_555
H16 C19 1_555 1_555
H17 C19 1_555 1_555
C20 N5 1_555 1_555
H18 C20 1_555 1_555
C21 N3 1_555 1_555
H19 C21 1_555 1_555
C22 C21 1_555 1_555
H20 C22 1_555 1_555
C23 C8 1_555 1_555
H21 C23 1_555 1_555
C24 C14 1_555 1_555
H22 C24 1_555 1_555
H23 C24 1_555 1_555
O2 C26 1_555 1_555
C25 H24 1_555 1_555
H25 C25 1_555 1_555
O3 H26 1_555 1_555
C26 C25 1_555 1_555
C27 C25 1_555 1_555
H27 C27 1_555 1_555
H28 C27 1_555 1_555
C28 C27 1_555 1_555
H29 C28 1_555 1_555
H30 C28 1_555 1_555
C29 C28 1_555 1_555
H31 C29 1_555 1_555
H32 C29 1_555 1_555
O2A C26A 1_555 1_555
C25A H24A 1_555 1_555
H25A C25A 1_555 1_555
O3A H26A 1_555 1_555
C26A C25A 1_555 1_555
C27A C25A 1_555 1_555
H27A C27A 1_555 1_555
H28A C27A 1_555 1_555
C28A C27A 1_555 1_555
H29A C28A 1_555 1_555
H30A C28A 1_555 1_555
C29A C29 1_555 1_555
H31A C29A 1_555 1_555
H32A C29A 1_555 1_555
C1 C10 1_555 1_555
C3 C11 1_555 1_555
C8 C9 1_555 1_555
C10 C13 1_555 1_555
C11 C12 1_555 1_555
C15 C20 1_555 1_555
C16 C17 1_555 1_555
C19 C24 1_555 1_555
C22 C23 1_555 1_555
O3 C26 1_555 1_555
O3A C26A 1_555 1_555
C28A C29A 1_555 1_555

#END
