
#######################################################################
#
#                 Cambridge Crystallographic Data Centre
#                                CCDC 
#
#######################################################################
#
# If this CIF has been generated from an entry in the Cambridge 
# Structural Database, then it will include bibliographic, chemical, 
# crystal, experimental, refinement or atomic coordinate data resulting 
# from the CCDC's data processing and validation procedures.
#
#######################################################################

data_JIFCIN
_chemical_formula_moiety         'C24 H24 N5 O1 1+,C7 H5 O3 1-'
_chemical_name_systematic        
'4-{[(3-{[4-(1-cyanocyclopentyl)phenyl]carbamoyl}pyridin-2-yl)amino]methyl}pyridin-1-ium 2-hydroxybenzoate'
_symmetry_cell_setting           monoclinic
_symmetry_space_group_name_H-M   'C 2/c'
_symmetry_Int_Tables_number      15
_space_group_name_Hall           '-C 2yn'
loop_
_symmetry_equiv_pos_site_id
_symmetry_equiv_pos_as_xyz
1 x,y,z
2 -x,y,1/2-z
3 1/2+x,1/2+y,z
4 1/2-x,1/2+y,1/2-z
5 -x,-y,-z
6 x,-y,1/2+z
7 1/2-x,1/2-y,-z
8 1/2+x,1/2-y,1/2+z
_cell_length_a                   17.657(4)
_cell_length_b                   8.5850(17)
_cell_length_c                   35.632(7)
_cell_angle_alpha                90
_cell_angle_beta                 100.651(5)
_cell_angle_gamma                90
_cell_volume                     5308.23
_exptl_crystal_colour            'light colorless'
_exptl_crystal_description       prism
_cell_formula_units_Z            8
loop_
_atom_site_label
_atom_site_type_symbol
_atom_site_fract_x
_atom_site_fract_y
_atom_site_fract_z
O1 O 0.20267(10) 0.72056(18) 0.38916(4)
N1 N 0.09148(12) 0.5074(2) 0.36568(5)
H1 H 0.1250 0.5687 0.3588
N2 N 0.19729(11) 0.8402(2) 0.44523(5)
H2 H 0.1793 0.8351 0.4660
N3 N 0.10303(12) -0.0446(2) 0.31616(6)
H3 H 0.1151 -0.1390 0.3117
N4 N 0.04118(12) 0.3850(2) 0.41240(6)
C1 C 0.33018(13) 1.2380(3) 0.43206(6)
C2 C 0.24200(12) 0.9719(3) 0.43975(6)
C3 C 0.13253(13) 0.5938(2) 0.43125(6)
C4 C 0.06462(12) 0.2563(3) 0.33057(6)
C5 C 0.18073(13) 0.7208(3) 0.41986(6)
C6 C 0.08853(13) 0.4951(2) 0.40317(6)
C7 C 0.34875(13) 1.0935(3) 0.41821(6)
H4 H 0.3906 1.0860 0.4058
C8 C 0.26612(13) 1.2460(3) 0.44948(6)
H5 H 0.2525 1.3410 0.4589
C9 C 0.30656(13) 0.9621(3) 0.42247(7)
H6 H 0.3211 0.8664 0.4138
C10 C 0.37713(13) 1.3821(3) 0.42654(6)
C11 C 0.01585(13) 0.1640(3) 0.30475(6)
H7 H -0.0305 0.2042 0.2917
N5 N 0.36143(15) 1.5905(3) 0.47840(7)
C12 C 0.22229(13) 1.1158(3) 0.45304(6)
H8 H 0.1792 1.1244 0.4644
C13 C 0.12735(14) 0.5663(3) 0.46901(6)
H9 H 0.1561 0.6266 0.4882
C14 C 0.04031(13) 0.4212(3) 0.33675(6)
H10 H 0.0356 0.4770 0.3128
H11 H -0.0103 0.4186 0.3436
C15 C 0.13301(14) 0.1921(3) 0.34879(7)
H12 H 0.1666 0.2502 0.3666
C16 C 0.08007(15) 0.4507(3) 0.47848(7)
H13 H 0.0771 0.4302 0.5038
C17 C 0.03603(15) 0.0134(3) 0.29853(7)
H14 H 0.0024 -0.0491 0.2818
C18 C 0.15157(15) 0.0423(3) 0.34065(7)
H15 H 0.1987 0.0008 0.3524
C19 C 0.36723(15) 1.4998(3) 0.45543(7)
C20 C 0.35215(15) 1.4543(3) 0.38615(7)
H16 H 0.3360 1.3737 0.3673
H17 H 0.3100 1.5271 0.3858
C21 C 0.03754(15) 0.3671(3) 0.44917(7)
H18 H 0.0037 0.2926 0.4554
C22 C 0.46607(14) 1.3566(3) 0.42953(8)
H19 H 0.4942 1.4046 0.4526
H20 H 0.4780 1.2462 0.4303
C23 C 0.42243(17) 1.5361(4) 0.37838(10)
H21 H 0.4280 1.6376 0.3905
H22 H 0.4204 1.5489 0.3512
C24 C 0.4877(2) 1.4291(5) 0.39556(12)
H23 H 0.4955 1.3498 0.3773
H24 H 0.5351 1.4878 0.4027
O2 O 0.12749(10) -0.32189(19) 0.29463(5)
O3 O 0.10251(11) -0.2132(2) 0.23674(5)
O4 O 0.12861(13) -0.3602(2) 0.17890(5)
H25 H 0.1104 -0.2912 0.1904
C25 C 0.14725(13) -0.4733(3) 0.24158(7)
C26 C 0.12391(13) -0.3260(3) 0.25856(7)
C27 C 0.16886(13) -0.6036(3) 0.26396(7)
H26 H 0.1692 -0.5980 0.2901
C28 C 0.14839(14) -0.4828(3) 0.20237(7)
C29 C 0.18986(14) -0.7412(3) 0.24876(8)
H27 H 0.2030 -0.8281 0.2642
C30 C 0.17088(14) -0.6208(3) 0.18707(8)
H28 H 0.1722 -0.6267 0.1611
C31 C 0.19096(14) -0.7473(3) 0.20988(8)
H29 H 0.2056 -0.8390 0.1993
loop_
_geom_bond_atom_site_label_1
_geom_bond_atom_site_label_2
_geom_bond_site_symmetry_1
_geom_bond_site_symmetry_2
O1 C5 1_555 1_555
N1 H1 1_555 1_555
N2 H2 1_555 1_555
N3 H3 1_555 1_555
N4 C6 1_555 1_555
C1 C7 1_555 1_555
C2 N2 1_555 1_555
C3 C5 1_555 1_555
C4 C11 1_555 1_555
C5 N2 1_555 1_555
C6 N1 1_555 1_555
C7 H4 1_555 1_555
C8 C1 1_555 1_555
H5 C8 1_555 1_555
C9 C2 1_555 1_555
H6 C9 1_555 1_555
C10 C1 1_555 1_555
C11 H7 1_555 1_555
N5 C19 1_555 1_555
C12 C2 1_555 1_555
H8 C12 1_555 1_555
C13 C3 1_555 1_555
H9 C13 1_555 1_555
C14 N1 1_555 1_555
H10 C14 1_555 1_555
H11 C14 1_555 1_555
C15 C4 1_555 1_555
H12 C15 1_555 1_555
C16 C13 1_555 1_555
H13 C16 1_555 1_555
C17 N3 1_555 1_555
H14 C17 1_555 1_555
C18 N3 1_555 1_555
H15 C18 1_555 1_555
C19 C10 1_555 1_555
C20 C10 1_555 1_555
H16 C20 1_555 1_555
H17 C20 1_555 1_555
C21 N4 1_555 1_555
H18 C21 1_555 1_555
C22 C10 1_555 1_555
H19 C22 1_555 1_555
H20 C22 1_555 1_555
C23 C20 1_555 1_555
H21 C23 1_555 1_555
H22 C23 1_555 1_555
C24 C22 1_555 1_555
H23 C24 1_555 1_555
H24 C24 1_555 1_555
O2 C26 1_555 1_555
O3 C26 1_555 1_555
O4 H25 1_555 1_555
C25 C26 1_555 1_555
C27 C25 1_555 1_555
H26 C27 1_555 1_555
C28 O4 1_555 1_555
C29 C27 1_555 1_555
H27 C29 1_555 1_555
C30 C28 1_555 1_555
H28 C30 1_555 1_555
C31 C29 1_555 1_555
H29 C31 1_555 1_555
C3 C6 1_555 1_555
C4 C14 1_555 1_555
C7 C9 1_555 1_555
C8 C12 1_555 1_555
C11 C17 1_555 1_555
C15 C18 1_555 1_555
C16 C21 1_555 1_555
C23 C24 1_555 1_555
C25 C28 1_555 1_555
C30 C31 1_555 1_555

#END
