
#######################################################################
#
#                 Cambridge Crystallographic Data Centre
#                                CCDC 
#
#######################################################################
#
# If this CIF has been generated from an entry in the Cambridge 
# Structural Database, then it will include bibliographic, chemical, 
# crystal, experimental, refinement or atomic coordinate data resulting 
# from the CCDC's data processing and validation procedures.
#
#######################################################################

data_JIFFIQ
_chemical_formula_moiety         'C18 H18 Cl1 N5'
_chemical_name_systematic        
5-(azidomethyl)-3-(4-chlorophenyl)-4,4-dimethyl-1-phenyl-4,5-dihydro-1H-pyrazole
_symmetry_cell_setting           orthorhombic
_symmetry_space_group_name_H-M   'P c a 21'
_symmetry_Int_Tables_number      29
_space_group_name_Hall           'P 2c -2ac'
loop_
_symmetry_equiv_pos_site_id
_symmetry_equiv_pos_as_xyz
1 x,y,z
2 -x,-y,1/2+z
3 1/2+x,-y,z
4 1/2-x,y,1/2+z
_cell_length_a                   6.915(2)
_cell_length_b                   15.043(5)
_cell_length_c                   16.653(6)
_cell_angle_alpha                90
_cell_angle_beta                 90
_cell_angle_gamma                90
_cell_volume                     1732.28
_exptl_crystal_colour            colorless
_exptl_crystal_description       block
_cell_formula_units_Z            4
loop_
_atom_site_label
_atom_site_type_symbol
_atom_site_fract_x
_atom_site_fract_y
_atom_site_fract_z
Cl1 Cl 1.29433(16) 0.87808(7) 1.03762(8)
C1 C 1.0385(5) 0.6162(3) 0.5662(3)
H1 H 1.100976 0.611304 0.615426
N1 N 0.9476(4) 0.7419(2) 0.68524(18)
C2 C 0.6833(4) 0.8382(2) 0.7001(2)
N2 N 0.8351(4) 0.7335(2) 0.61823(19)
C3 C 0.9643(5) 0.8168(2) 0.8103(2)
C4 C 0.8888(5) 0.6771(2) 0.5563(2)
C5 C 1.1939(5) 0.7745(2) 0.9127(2)
H2 H 1.280178 0.733199 0.933721
C6 C 0.8687(5) 0.7971(2) 0.7343(2)
C7 C 0.6427(5) 0.7718(2) 0.6307(2)
H3 H 0.605400 0.805294 0.582658
C8 C 1.1652(5) 0.8540(3) 0.9506(2)
C9 C 1.0938(5) 0.7560(2) 0.8429(2)
H4 H 1.113407 0.701828 0.817228
C10 C 0.9354(6) 0.8960(3) 0.8519(3)
H5 H 0.846539 0.937083 0.832415
C11 C 0.5172(6) 0.8467(3) 0.7594(3)
H6 H 0.407741 0.872885 0.732982
H7 H 0.482798 0.788790 0.779025
H8 H 0.556135 0.883610 0.803489
C12 C 0.8547(6) 0.6289(3) 0.4201(3)
H9 H 0.791421 0.632892 0.370962
C13 C 0.7983(6) 0.6824(3) 0.4821(3)
H10 H 0.698160 0.722774 0.474530
C14 C 1.0030(6) 0.5695(3) 0.4293(3)
H11 H 1.042001 0.533826 0.386672
C15 C 1.0362(6) 0.9148(3) 0.9218(3)
H12 H 1.016104 0.968189 0.948782
C16 C 0.4931(6) 0.6993(3) 0.6460(3)
H13 H 0.366440 0.726517 0.650922
H14 H 0.489890 0.659562 0.600207
N3 N 0.6383(7) 0.5848(3) 0.7104(3)
N4 N 0.5329(6) 0.6478(2) 0.7182(3)
C17 C 0.7309(6) 0.9285(2) 0.6623(3)
H15 H 0.835975 0.921681 0.625115
H16 H 0.619291 0.950578 0.634352
H17 H 0.767105 0.969732 0.703601
N5 N 0.7343(10) 0.5246(3) 0.7136(4)
C18 C 1.0937(6) 0.5635(3) 0.5030(3)
H18 H 1.193986 0.523027 0.509914
loop_
_geom_bond_atom_site_label_1
_geom_bond_atom_site_label_2
_geom_bond_site_symmetry_1
_geom_bond_site_symmetry_2
Cl1 C8 1_555 1_555
C1 H1 1_555 1_555
N1 N2 1_555 1_555
C2 C6 1_555 1_555
N2 C4 1_555 1_555
C3 C6 1_555 1_555
C4 C1 1_555 1_555
C5 H2 1_555 1_555
C6 N1 1_555 1_555
C7 C2 1_555 1_555
H3 C7 1_555 1_555
C8 C5 1_555 1_555
C9 C3 1_555 1_555
H4 C9 1_555 1_555
C10 C3 1_555 1_555
H5 C10 1_555 1_555
C11 C2 1_555 1_555
H6 C11 1_555 1_555
H7 C11 1_555 1_555
H8 C11 1_555 1_555
C12 H9 1_555 1_555
C13 C4 1_555 1_555
H10 C13 1_555 1_555
C14 C12 1_555 1_555
H11 C14 1_555 1_555
C15 C8 1_555 1_555
H12 C15 1_555 1_555
C16 C7 1_555 1_555
H13 C16 1_555 1_555
H14 C16 1_555 1_555
N3 N4 1_555 1_555
N4 C16 1_555 1_555
C17 C2 1_555 1_555
H15 C17 1_555 1_555
H16 C17 1_555 1_555
H17 C17 1_555 1_555
N5 N3 1_555 1_555
C18 C1 1_555 1_555
H18 C18 1_555 1_555
N2 C7 1_555 1_555
C5 C9 1_555 1_555
C10 C15 1_555 1_555
C12 C13 1_555 1_555
C14 C18 1_555 1_555

#END
