
#######################################################################
#
#                 Cambridge Crystallographic Data Centre
#                                CCDC 
#
#######################################################################
#
# If this CIF has been generated from an entry in the Cambridge 
# Structural Database, then it will include bibliographic, chemical, 
# crystal, experimental, refinement or atomic coordinate data resulting 
# from the CCDC's data processing and validation procedures.
#
#######################################################################

data_JIFROI
_chemical_formula_moiety         'C32 H27 N1 O2'
_chemical_name_systematic        
2-[2-(1-methyl-1H-indol-3-yl)-2-phenylethyl]-1,3-diphenylpropane-1,3-dione
_symmetry_cell_setting           orthorhombic
_symmetry_space_group_name_H-M   'P 21 21 21'
_symmetry_Int_Tables_number      19
_space_group_name_Hall           'P 2ac 2ab'
loop_
_symmetry_equiv_pos_site_id
_symmetry_equiv_pos_as_xyz
1 x,y,z
2 1/2-x,-y,1/2+z
3 -x,1/2+y,1/2-z
4 1/2+x,1/2-y,-z
_cell_length_a                   7.5996(2)
_cell_length_b                   17.2021(4)
_cell_length_c                   19.6489(5)
_cell_angle_alpha                90
_cell_angle_beta                 90
_cell_angle_gamma                90
_cell_volume                     2568.68
_exptl_crystal_colour            colorless
_exptl_crystal_description       block
_cell_formula_units_Z            4
_exptl_crystal_recrystallization_method 'Re-crystallisation from solvent'
loop_
_atom_site_label
_atom_site_type_symbol
_atom_site_fract_x
_atom_site_fract_y
_atom_site_fract_z
O1 O 0.4712(3) 0.54760(13) 0.46122(10)
N1 N 0.8260(4) 0.17828(12) 0.44870(12)
O2 O 0.9137(4) 0.51549(14) 0.48642(14)
C1 C 0.9874(3) 0.17149(14) 0.41840(12)
C2 C 0.5252(3) 0.53807(13) 0.40439(13)
C3 C 1.0254(3) 0.24238(13) 0.38590(12)
C4 C 0.8798(3) 0.29352(13) 0.39826(13)
C5 C 0.8466(3) 0.37929(14) 0.29588(13)
C6 C 1.1020(4) 0.10842(16) 0.41602(14)
H1 H 1.0752 0.0618 0.4377
C7 C 0.8652(3) 0.37557(13) 0.37283(12)
H2 H 0.9738 0.4029 0.3852
C8 C 0.7115(3) 0.50636(13) 0.39417(12)
H3 H 0.7486 0.5164 0.3472
C9 C 0.8471(4) 0.63594(15) 0.43571(15)
C10 C 0.7108(4) 0.41817(13) 0.40685(14)
H4 H 0.7150 0.4088 0.4555
H5 H 0.6013 0.3967 0.3899
C11 C 0.7644(4) 0.25244(15) 0.43651(15)
H6 H 0.6577 0.2717 0.4525
C12 C 0.4176(3) 0.55732(15) 0.34356(15)
C13 C 0.8334(4) 0.54974(16) 0.44265(14)
C14 C 0.7217(5) 0.33569(19) 0.26214(17)
H7 H 0.6520 0.3007 0.2861
C15 C 0.7810(5) 0.67661(17) 0.38042(19)
H8 H 0.7280 0.6500 0.3447
C16 C 0.4540(4) 0.5276(2) 0.27959(16)
H9 H 0.5453 0.4922 0.2738
C17 C 1.1835(4) 0.24985(17) 0.35080(18)
H10 H 1.2120 0.2964 0.3294
C18 C 0.9496(4) 0.42882(17) 0.25827(15)
H11 H 1.0370 0.4575 0.2799
C19 C 0.9269(5) 0.6771(2) 0.48837(19)
H12 H 0.9737 0.6503 0.5252
C20 C 0.7322(6) 0.11812(18) 0.48547(19)
H13 H 0.7602 0.0683 0.4663
H14 H 0.6079 0.1271 0.4819
H15 H 0.7665 0.1191 0.5325
C21 C 1.2558(5) 0.11763(19) 0.3805(2)
H16 H 1.3346 0.0764 0.3779
C22 C 0.2798(4) 0.6095(2) 0.3516(2)
H17 H 0.2518 0.6284 0.3946
C23 C 0.8010(6) 0.3953(3) 0.15604(18)
H18 H 0.7843 0.4015 0.1095
C24 C 0.9257(6) 0.4368(2) 0.18885(18)
H19 H 0.9962 0.4712 0.1645
C25 C 0.9374(6) 0.7567(2) 0.4867(3)
H20 H 0.9903 0.7837 0.5222
C26 C 0.3542(5) 0.5507(3) 0.2246(2)
H21 H 0.3764 0.5299 0.1817
C27 C 0.6998(6) 0.3441(2) 0.1919(2)
H22 H 0.6155 0.3146 0.1693
C28 C 0.7937(6) 0.7568(2) 0.3783(2)
H23 H 0.7516 0.7840 0.3408
C29 C 0.8692(6) 0.7963(2) 0.4321(3)
H24 H 0.8740 0.8503 0.4312
C30 C 1.2968(5) 0.1879(2) 0.3481(2)
H25 H 1.4023 0.1926 0.3245
C31 C 0.2226(6) 0.6042(3) 0.2329(3)
H26 H 0.1583 0.6210 0.1954
C32 C 0.1855(5) 0.6330(3) 0.2962(3)
H27 H 0.0950 0.6689 0.3016
loop_
_geom_bond_atom_site_label_1
_geom_bond_atom_site_label_2
_geom_bond_site_symmetry_1
_geom_bond_site_symmetry_2
O1 C2 1_555 1_555
N1 C1 1_555 1_555
O2 C13 1_555 1_555
C1 C3 1_555 1_555
C2 C8 1_555 1_555
C3 C4 1_555 1_555
C4 C7 1_555 1_555
C5 C7 1_555 1_555
C6 C1 1_555 1_555
H1 C6 1_555 1_555
C7 H2 1_555 1_555
C8 H3 1_555 1_555
C9 C13 1_555 1_555
C10 C7 1_555 1_555
H4 C10 1_555 1_555
H5 C10 1_555 1_555
C11 N1 1_555 1_555
H6 C11 1_555 1_555
C12 C2 1_555 1_555
C13 C8 1_555 1_555
C14 C5 1_555 1_555
H7 C14 1_555 1_555
C15 C9 1_555 1_555
H8 C15 1_555 1_555
C16 C12 1_555 1_555
H9 C16 1_555 1_555
C17 C3 1_555 1_555
H10 C17 1_555 1_555
C18 C5 1_555 1_555
H11 C18 1_555 1_555
C19 C9 1_555 1_555
H12 C19 1_555 1_555
C20 N1 1_555 1_555
H13 C20 1_555 1_555
H14 C20 1_555 1_555
H15 C20 1_555 1_555
C21 C6 1_555 1_555
H16 C21 1_555 1_555
C22 C12 1_555 1_555
H17 C22 1_555 1_555
C23 H18 1_555 1_555
C24 C18 1_555 1_555
H19 C24 1_555 1_555
C25 C19 1_555 1_555
H20 C25 1_555 1_555
C26 C16 1_555 1_555
H21 C26 1_555 1_555
C27 C14 1_555 1_555
H22 C27 1_555 1_555
C28 C15 1_555 1_555
H23 C28 1_555 1_555
C29 C25 1_555 1_555
H24 C29 1_555 1_555
C30 C17 1_555 1_555
H25 C30 1_555 1_555
C31 C26 1_555 1_555
H26 C31 1_555 1_555
C32 C22 1_555 1_555
H27 C32 1_555 1_555
C4 C11 1_555 1_555
C8 C10 1_555 1_555
C21 C30 1_555 1_555
C23 C24 1_555 1_555
C23 C27 1_555 1_555
C28 C29 1_555 1_555
C31 C32 1_555 1_555

#END
