
#######################################################################
#
#                 Cambridge Crystallographic Data Centre
#                                CCDC 
#
#######################################################################
#
# If this CIF has been generated from an entry in the Cambridge 
# Structural Database, then it will include bibliographic, chemical, 
# crystal, experimental, refinement or atomic coordinate data resulting 
# from the CCDC's data processing and validation procedures.
#
#######################################################################

data_JIFVEC
_chemical_formula_moiety         'C14 H10 F8 N4'
_chemical_name_systematic        
N^1^,N^2^-dimethyl-N^1^,N^2^-bis(2,3,5,6-tetrafluoropyridin-4-yl)ethane-1,2-diamine
_symmetry_cell_setting           monoclinic
_symmetry_space_group_name_H-M   'C 2/c'
_symmetry_Int_Tables_number      15
_space_group_name_Hall           '-C 2yn'
loop_
_symmetry_equiv_pos_site_id
_symmetry_equiv_pos_as_xyz
1 x,y,z
2 -x,y,1/2-z
3 1/2+x,1/2+y,z
4 1/2-x,1/2+y,1/2-z
5 -x,-y,-z
6 x,-y,1/2+z
7 1/2-x,1/2-y,-z
8 1/2+x,1/2-y,1/2+z
_cell_length_a                   8.0525(13)
_cell_length_b                   14.573(2)
_cell_length_c                   12.343(2)
_cell_angle_alpha                90
_cell_angle_beta                 93.776(4)
_cell_angle_gamma                90
_cell_volume                     1445.3
_exptl_crystal_colour            colorless
_exptl_crystal_description       platelet
_cell_formula_units_Z            4
loop_
_atom_site_label
_atom_site_type_symbol
_atom_site_fract_x
_atom_site_fract_y
_atom_site_fract_z
C1 C 0.66212(13) 0.24054(8) 0.36462(9)
C2 C 0.74118(13) 0.32408(7) 0.36486(9)
C3 C 0.91681(12) 0.32901(7) 0.37053(8)
C4 C 0.99392(12) 0.24235(7) 0.37653(9)
C5 C 0.90000(14) 0.16336(7) 0.37627(9)
C6 C 0.95319(13) 0.48694(7) 0.30207(9)
H1 H 0.975141 0.545451 0.341188
H2 H 0.832128 0.483277 0.282576
C7 C 1.16978(14) 0.41669(8) 0.42823(10)
H3 H 1.179873 0.373249 0.488910
H4 H 1.188826 0.479184 0.455625
H5 H 1.252546 0.401879 0.376145
F1 F 0.49551(8) 0.23922(5) 0.36325(6)
F2 F 0.64840(8) 0.40090(5) 0.36624(6)
F3 F 1.16066(8) 0.23468(5) 0.37733(6)
F4 F 0.97981(10) 0.08263(5) 0.37988(7)
N1 N 1.00205(11) 0.41034(6) 0.37426(8)
N2 N 0.73671(12) 0.16026(7) 0.37017(8)
C1A C 1.33788(13) 0.24054(8) 0.13538(9)
C2A C 1.25882(13) 0.32408(7) 0.13514(9)
C3A C 1.08319(12) 0.32901(7) 0.12947(8)
C4A C 1.00608(12) 0.24235(7) 0.12347(9)
C5A C 1.10000(14) 0.16336(7) 0.12373(9)
C6A C 1.04681(13) 0.48694(7) 0.19793(9)
H1A H 1.024859 0.545451 0.158812
H2A H 1.167872 0.483277 0.217424
C7A C 0.83022(14) 0.41669(8) 0.07177(10)
H3A H 0.820127 0.373249 0.011090
H4A H 0.811174 0.479184 0.044375
H5A H 0.747454 0.401879 0.123855
F1A F 1.50449(8) 0.23922(5) 0.13675(6)
F2A F 1.35160(8) 0.40090(5) 0.13376(6)
F3A F 0.83934(8) 0.23468(5) 0.12267(6)
F4A F 1.02019(10) 0.08263(5) 0.12012(7)
N1A N 0.99795(11) 0.41034(6) 0.12574(8)
N2A N 1.26329(12) 0.16026(7) 0.12983(8)
loop_
_geom_bond_atom_site_label_1
_geom_bond_atom_site_label_2
_geom_bond_site_symmetry_1
_geom_bond_site_symmetry_2
C1 C2 1_555 1_555
C2 C3 1_555 1_555
C3 C4 1_555 1_555
C4 C5 1_555 1_555
C5 F4 1_555 1_555
C6 H1 1_555 1_555
H2 C6 1_555 1_555
C7 H3 1_555 1_555
H4 C7 1_555 1_555
H5 C7 1_555 1_555
F1 C1 1_555 1_555
F2 C2 1_555 1_555
F3 C4 1_555 1_555
N1 C3 1_555 1_555
N2 C1 1_555 1_555
C1A C2A 1_555 1_555
C2A C3A 1_555 1_555
C3A C4A 1_555 1_555
C4A C5A 1_555 1_555
C5A F4A 1_555 1_555
C6A C6 1_555 1_555
H1A C6A 1_555 1_555
H2A C6A 1_555 1_555
C7A H3A 1_555 1_555
H4A C7A 1_555 1_555
H5A C7A 1_555 1_555
F1A C1A 1_555 1_555
F2A C2A 1_555 1_555
F3A C4A 1_555 1_555
N1A C3A 1_555 1_555
N2A C1A 1_555 1_555
C5 N2 1_555 1_555
C6 N1 1_555 1_555
C7 N1 1_555 1_555
C5A N2A 1_555 1_555
C6A N1A 1_555 1_555
C7A N1A 1_555 1_555

#END
