
#######################################################################
#
#                 Cambridge Crystallographic Data Centre
#                                CCDC 
#
#######################################################################
#
# If this CIF has been generated from an entry in the Cambridge 
# Structural Database, then it will include bibliographic, chemical, 
# crystal, experimental, refinement or atomic coordinate data resulting 
# from the CCDC's data processing and validation procedures.
#
#######################################################################

data_JIFYOM
_chemical_formula_moiety         '2(C20 H25 N2 O2 1+),C14 H8 O4 2-,H2 O1'
_chemical_name_systematic        
"Diquinine biphenyl-2,2'-dicarboxylic acid monohydrate"
_symmetry_cell_setting           orthorhombic
_symmetry_space_group_name_H-M   'P 21 21 21'
_symmetry_Int_Tables_number      19
_space_group_name_Hall           'P 2ac 2ab'
loop_
_symmetry_equiv_pos_site_id
_symmetry_equiv_pos_as_xyz
1 x,y,z
2 1/2+x,1/2-y,-z
3 -x,1/2+y,1/2-z
4 1/2-x,-y,1/2+z
_cell_length_a                   16.797(1)
_cell_length_b                   26.361(2)
_cell_length_c                   10.623(1)
_cell_angle_alpha                90
_cell_angle_beta                 90
_cell_angle_gamma                90
_cell_volume                     4703.71
_cell_formula_units_Z            4
loop_
_atom_site_label
_atom_site_type_symbol
_atom_site_fract_x
_atom_site_fract_y
_atom_site_fract_z
N1 N 0.5105(2) 0.9596(1) 0.6984(3)
C1 C 0.5582(3) 0.9882(2) 0.6012(5)
C2 C 0.5071(3) 1.0290(2) 0.5429(4)
C3 C 0.4216(3) 1.0230(2) 0.5928(5)
C4 C 0.3921(3) 0.9699(2) 0.5646(7)
C5 C 0.4455(3) 0.9319(2) 0.6314(5)
C6 C 0.4184(3) 1.0305(2) 0.7331(5)
C7 C 0.4816(2) 0.9966(1) 0.7962(4)
C8 C 0.4563(2) 0.9698(1) 0.9167(4)
C9 C 0.5341(5) 1.0810(2) 0.5524(8)
C10 C 0.5938(6) 1.1000(3) 0.6050(9)
O1 O 0.3816(2) 0.9456(1) 0.9035(3)
N2 N 0.4548(3) 1.0837(2) 1.2156(4)
C11 C 0.3881(4) 1.0670(2) 1.1639(5)
C12 C 0.3854(3) 1.0300(2) 1.0656(5)
C13 C 0.4547(3) 1.0085(2) 1.0246(4)
C14 C 0.5274(3) 1.0247(2) 1.0791(4)
C15 C 0.6025(3) 1.0054(2) 1.0460(4)
C16 C 0.6701(3) 1.0235(2) 1.1013(5)
C17 C 0.6665(3) 1.0616(2) 1.1933(5)
C18 C 0.5946(4) 1.0800(2) 1.2275(5)
C19 C 0.5226(3) 1.0632(2) 1.1753(4)
O2 O 0.7450(2) 1.0078(1) 1.0735(4)
C20 C 0.7545(3) 0.9758(2) 0.9648(6)
H1 H 0.541 0.939 0.742
H2 H 0.599 0.999 0.638
H3 H 0.587 0.962 0.539
H4 H 0.501 1.023 0.458
H5 H 0.387 1.042 0.544
H6 H 0.324 0.965 0.614
H7 H 0.384 0.956 0.488
H8 H 0.417 0.912 0.676
H9 H 0.477 0.906 0.578
H10 H 0.428 1.060 0.756
H11 H 0.361 1.027 0.768
H12 H 0.526 1.018 0.820
H13 H 0.499 0.943 0.942
H14 H 0.512 1.117 0.526
H15 H 0.599 1.104 0.706
H16 H 0.652 1.100 0.563
H17 H 0.389 0.914 0.911
H18 H 0.334 1.082 1.180
H19 H 0.334 1.017 1.031
H20 H 0.606 0.979 0.989
H21 H 0.719 1.077 1.230
H22 H 0.597 1.100 1.279
H23 H 0.737 0.989 0.902
H24 H 0.724 0.946 0.973
H25 H 0.812 0.976 0.938
N3 N 0.4685(2) 0.7523(1) 0.6581(3)
C21 C 0.3916(3) 0.7250(2) 0.6763(4)
C22 C 0.3645(3) 0.7006(2) 0.5521(4)
C23 C 0.4307(3) 0.7093(2) 0.4546(4)
C24 C 0.4386(3) 0.7662(2) 0.4329(4)
C25 C 0.4568(3) 0.7924(2) 0.5578(5)
C26 C 0.5106(3) 0.6891(2) 0.4993(4)
C27 C 0.5318(2) 0.7138(1) 0.6261(4)
C28 C 0.6160(2) 0.7363(1) 0.6354(4)
C29 C 0.3431(3) 0.6460(2) 0.5708(5)
C30 C 0.2730(4) 0.6284(3) 0.5710(6)
O3 O 0.6325(2) 0.7689(1) 0.5341(3)
N4 N 0.7837(2) 0.6109(2) 0.6431(5)
C31 C 0.7679(3) 0.6362(2) 0.5391(6)
C32 C 0.7146(3) 0.6777(2) 0.5329(5)
C33 C 0.6755(2) 0.6926(2) 0.6407(5)
C34 C 0.6906(2) 0.6665(2) 0.7559(5)
C35 C 0.6550(3) 0.6791(2) 0.8716(5)
C36 C 0.6761(3) 0.6529(2) 0.9785(5)
C37 C 0.7319(3) 0.6130(2) 0.9733(6)
C38 C 0.7648(3) 0.5995(2) 0.8644(6)
C39 C 0.7478(3) 0.6261(2) 0.7503(6)
O4 O 0.6468(2) 0.6622(1) 1.0950(3)
C40 C 0.5837(4) 0.6966(2) 1.1078(5)
H26 H 0.483 0.767 0.742
H27 H 0.355 0.752 0.701
H28 H 0.401 0.700 0.735
H29 H 0.318 0.723 0.517
H30 H 0.415 0.690 0.383
H31 H 0.493 0.774 0.381
H32 H 0.398 0.783 0.383
H33 H 0.411 0.818 0.594
H34 H 0.493 0.817 0.589
H35 H 0.555 0.697 0.437
H36 H 0.503 0.659 0.509
H37 H 0.533 0.687 0.675
H38 H 0.618 0.760 0.719
H39 H 0.393 0.629 0.575
H40 H 0.236 0.626 0.653
H41 H 0.238 0.622 0.488
H42 H 0.636 0.793 0.562
H43 H 0.795 0.626 0.468
H44 H 0.701 0.701 0.446
H45 H 0.616 0.711 0.872
H46 H 0.741 0.595 1.066
H47 H 0.811 0.571 0.847
H48 H 0.566 0.695 1.176
H49 H 0.602 0.732 1.094
H50 H 0.538 0.692 1.066
C41 C 0.6114(3) 0.8473(2) 1.0636(4)
C42 C 0.5294(2) 0.8458(1) 1.0410(4)
C43 C 0.4762(3) 0.8653(2) 1.1295(4)
C44 C 0.5020(3) 0.8880(2) 1.2397(5)
C45 C 0.5825(3) 0.8913(2) 1.2608(5)
C46 C 0.6360(3) 0.8711(2) 1.1749(5)
C47 C 0.4920(2) 0.8227(2) 0.9254(4)
O5 O 0.5214(2) 0.7825(1) 0.8802(3)
O6 O 0.4314(2) 0.8447(1) 0.8804(3)
C48 C 0.6759(2) 0.8245(1) 0.9852(4)
C49 C 0.6892(2) 0.8330(1) 0.8558(4)
C50 C 0.7540(2) 0.8093(2) 0.7962(4)
C51 C 0.8054(2) 0.7787(2) 0.8611(4)
C52 C 0.7929(3) 0.7707(2) 0.9856(5)
C53 C 0.7300(2) 0.7921(2) 1.0471(4)
C54 C 0.6380(2) 0.8680(2) 0.7775(4)
O7 O 0.6116(2) 0.9071(1) 0.8307(3)
O8 O 0.6254(2) 0.8572(1) 0.6640(3)
H51 H 0.416 0.861 1.113
H52 H 0.451 0.906 1.297
H53 H 0.601 0.905 1.344
H54 H 0.696 0.879 1.183
H55 H 0.758 0.818 0.720
H56 H 0.849 0.757 0.809
H57 H 0.820 0.752 1.018
H58 H 0.713 0.784 1.137
O9 O 0.7910(2) 0.6688(2) 1.2496(4)
H59 H 0.741 0.678 1.193
H60 H 0.809 0.672 1.159
loop_
_geom_bond_atom_site_label_1
_geom_bond_atom_site_label_2
_geom_bond_site_symmetry_1
_geom_bond_site_symmetry_2
N1 C1 1_555 1_555
C1 C2 1_555 1_555
C2 C3 1_555 1_555
C3 C4 1_555 1_555
C4 C5 1_555 1_555
C5 N1 1_555 1_555
C6 C3 1_555 1_555
C7 N1 1_555 1_555
C8 C7 1_555 1_555
C9 C2 1_555 1_555
C10 C9 1_555 1_555
O1 C8 1_555 1_555
N2 C11 1_555 1_555
C11 C12 1_555 1_555
C12 C13 1_555 1_555
C13 C8 1_555 1_555
C14 C13 1_555 1_555
C15 C14 1_555 1_555
C16 C15 1_555 1_555
C17 C16 1_555 1_555
C18 C17 1_555 1_555
C19 N2 1_555 1_555
O2 C16 1_555 1_555
C20 O2 1_555 1_555
N3 C21 1_555 1_555
C21 C22 1_555 1_555
C22 C23 1_555 1_555
C23 C24 1_555 1_555
C24 C25 1_555 1_555
C25 N3 1_555 1_555
C26 C23 1_555 1_555
C27 N3 1_555 1_555
C28 C27 1_555 1_555
C29 C22 1_555 1_555
C30 C29 1_555 1_555
O3 C28 1_555 1_555
N4 C31 1_555 1_555
C31 C32 1_555 1_555
C32 C33 1_555 1_555
C33 C28 1_555 1_555
C34 C33 1_555 1_555
C35 C34 1_555 1_555
C36 C35 1_555 1_555
C37 C36 1_555 1_555
C38 C37 1_555 1_555
C39 N4 1_555 1_555
O4 C36 1_555 1_555
C40 O4 1_555 1_555
C41 C42 1_555 1_555
C42 C43 1_555 1_555
C43 C44 1_555 1_555
C44 C45 1_555 1_555
C45 C46 1_555 1_555
C46 C41 1_555 1_555
C47 C42 1_555 1_555
O5 C47 1_555 1_555
O6 C47 1_555 1_555
C48 C41 1_555 1_555
C49 C48 1_555 1_555
C50 C49 1_555 1_555
C51 C50 1_555 1_555
C52 C51 1_555 1_555
C53 C48 1_555 1_555
C54 C49 1_555 1_555
O7 C54 1_555 1_555
O8 C54 1_555 1_555
O9 H59 1_555 1_555
H1 N1 1_555 1_555
H2 C1 1_555 1_555
H3 C1 1_555 1_555
H4 C2 1_555 1_555
H5 C3 1_555 1_555
H6 C4 1_555 1_555
H7 C4 1_555 1_555
H8 C5 1_555 1_555
H9 C5 1_555 1_555
H10 C6 1_555 1_555
H11 C6 1_555 1_555
H12 C7 1_555 1_555
H13 C8 1_555 1_555
H14 C9 1_555 1_555
H15 C10 1_555 1_555
H16 C10 1_555 1_555
H17 O1 1_555 1_555
H18 C11 1_555 1_555
H19 C12 1_555 1_555
H20 C15 1_555 1_555
H21 C17 1_555 1_555
H22 C18 1_555 1_555
H23 C20 1_555 1_555
H24 C20 1_555 1_555
H25 C20 1_555 1_555
H26 N3 1_555 1_555
H27 C21 1_555 1_555
H28 C21 1_555 1_555
H29 C22 1_555 1_555
H30 C23 1_555 1_555
H31 C24 1_555 1_555
H32 C24 1_555 1_555
H33 C25 1_555 1_555
H34 C25 1_555 1_555
H35 C26 1_555 1_555
H36 C26 1_555 1_555
H37 C27 1_555 1_555
H38 C28 1_555 1_555
H39 C29 1_555 1_555
H40 C30 1_555 1_555
H41 C30 1_555 1_555
H42 O3 1_555 1_555
H43 C31 1_555 1_555
H44 C32 1_555 1_555
H45 C35 1_555 1_555
H46 C37 1_555 1_555
H47 C38 1_555 1_555
H48 C40 1_555 1_555
H49 C40 1_555 1_555
H50 C40 1_555 1_555
H51 C43 1_555 1_555
H52 C44 1_555 1_555
H53 C45 1_555 1_555
H54 C46 1_555 1_555
H55 C50 1_555 1_555
H56 C51 1_555 1_555
H57 C52 1_555 1_555
H58 C53 1_555 1_555
H60 O9 1_555 1_555
C6 C7 1_555 1_555
C14 C19 1_555 1_555
C18 C19 1_555 1_555
C26 C27 1_555 1_555
C34 C39 1_555 1_555
C38 C39 1_555 1_555
C52 C53 1_555 1_555

#END
