
#######################################################################
#
#                 Cambridge Crystallographic Data Centre
#                                CCDC 
#
#######################################################################
#
# If this CIF has been generated from an entry in the Cambridge 
# Structural Database, then it will include bibliographic, chemical, 
# crystal, experimental, refinement or atomic coordinate data resulting 
# from the CCDC's data processing and validation procedures.
#
#######################################################################

data_JIGCEH
_chemical_formula_moiety         'C11 H8 N2 O1 S1'
_chemical_name_systematic        
2-Methylene-2,3-dihydro-5H-thiazolo(2,3-b)quinazolin-5-one
_symmetry_cell_setting           monoclinic
_symmetry_space_group_name_H-M   'P 21/c'
_symmetry_Int_Tables_number      14
_space_group_name_Hall           '-P 2ybc'
loop_
_symmetry_equiv_pos_site_id
_symmetry_equiv_pos_as_xyz
1 x,y,z
2 -x,1/2+y,1/2-z
3 -x,-y,-z
4 x,1/2-y,1/2+z
_cell_length_a                   14.082(7)
_cell_length_b                   5.175(1)
_cell_length_c                   13.759(5)
_cell_angle_alpha                90
_cell_angle_beta                 106.72(4)
_cell_angle_gamma                90
_cell_volume                     960.287
_chemical_melting_point          197-199deg.C
_cell_formula_units_Z            4
loop_
_atom_site_label
_atom_site_type_symbol
_atom_site_fract_x
_atom_site_fract_y
_atom_site_fract_z
C1 C 0.30833(17) 0.0277(5) 0.92662(17)
C2 C 0.21958(16) 0.1858(5) 0.90127(17)
C3 C 0.20460(18) 0.3720(5) 0.82498(18)
C4 C 0.12099(20) 0.5221(6) 0.80138(20)
C5 C 0.05101(20) 0.4883(5) 0.85364(22)
C6 C 0.06384(18) 0.3050(5) 0.92833(20)
C7 C 0.14923(17) 0.1527(5) 0.95421(17)
N1 N 0.16184(14) -0.0244(4) 1.03314(15)
C8 C 0.24107(17) -0.1600(5) 1.05240(17)
S1 S 0.27109(5) -0.38131(14) 1.15233(5)
C9 C 0.37750(17) -0.4873(5) 1.12104(17)
C10 C 0.39648(17) -0.3260(5) 1.03777(19)
N2 N 0.31200(13) -0.1501(4) 1.00249(14)
C11 C 0.43164(20) -0.6837(6) 1.16605(20)
O1 O 0.37597(12) 0.0409(4) 0.88796(13)
H1 H 0.257 0.396 0.787
H2 H 0.111 0.655 0.745
H3 H -0.010 0.605 0.837
H4 H 0.011 0.280 0.965
H5 H 0.457 -0.229 1.065
H6 H 0.406 -0.413 0.981
H7 H 0.496 -0.716 1.150
H8 H 0.413 -0.775 1.221
loop_
_geom_bond_atom_site_label_1
_geom_bond_atom_site_label_2
_geom_bond_site_symmetry_1
_geom_bond_site_symmetry_2
C1 C2 1_555 1_555
C2 C3 1_555 1_555
C3 C4 1_555 1_555
C4 C5 1_555 1_555
C5 C6 1_555 1_555
C6 C7 1_555 1_555
C7 C2 1_555 1_555
N1 C7 1_555 1_555
C8 N1 1_555 1_555
S1 C8 1_555 1_555
C9 S1 1_555 1_555
C10 C9 1_555 1_555
N2 C1 1_555 1_555
C11 C9 1_555 1_555
O1 C1 1_555 1_555
H1 C3 1_555 1_555
H2 C4 1_555 1_555
H3 C5 1_555 1_555
H4 C6 1_555 1_555
H5 C10 1_555 1_555
H6 C10 1_555 1_555
H7 C11 1_555 1_555
H8 C11 1_555 1_555
C8 N2 1_555 1_555
C10 N2 1_555 1_555

#END
