
#######################################################################
#
#                 Cambridge Crystallographic Data Centre
#                                CCDC 
#
#######################################################################
#
# If this CIF has been generated from an entry in the Cambridge 
# Structural Database, then it will include bibliographic, chemical, 
# crystal, experimental, refinement or atomic coordinate data resulting 
# from the CCDC's data processing and validation procedures.
#
#######################################################################

data_JIGYAC
_chemical_compound_source        'Xylopia vielana'
_chemical_name_common            'xyloplain E'
_chemical_formula_moiety         'C32 H40 O5'
_chemical_name_systematic        
'5,7,12,14-tetramethyl-3,6,10-trioxo-2,9-bis(propan-2-ylidene)-1,2,3,4,5,6,8,9,10,11,12,13-dodecahydro-5bH-5a,13-methanocyclohepta[5,6]benzo[1,2-c]azulen-15-yl acetate'
_symmetry_cell_setting           orthorhombic
_symmetry_space_group_name_H-M   'P 21 21 21'
_symmetry_Int_Tables_number      19
_space_group_name_Hall           'P 2ac 2ab'
loop_
_symmetry_equiv_pos_site_id
_symmetry_equiv_pos_as_xyz
1 x,y,z
2 1/2-x,-y,1/2+z
3 -x,1/2+y,1/2-z
4 1/2+x,1/2-y,-z
_cell_length_a                   14.1118(5)
_cell_length_b                   14.5427(5)
_cell_length_c                   15.5885(5)
_cell_angle_alpha                90
_cell_angle_beta                 90
_cell_angle_gamma                90
_cell_volume                     3199.13
_exptl_crystal_colour            colorless
_exptl_crystal_description       block
_cell_formula_units_Z            4
loop_
_atom_site_label
_atom_site_type_symbol
_atom_site_fract_x
_atom_site_fract_y
_atom_site_fract_z
C1 C 0.6965(5) 0.4871(4) 0.5029(4)
O1 O 0.7561(5) 0.5469(4) 0.5055(4)
C2 C 0.6568(4) 0.4551(5) 0.4181(4)
O2 O 0.3460(3) 0.1979(3) 0.4624(3)
C3 C 0.6489(4) 0.3506(4) 0.4107(3)
H1 H 0.6482 0.3338 0.3491
H2 H 0.7060 0.3225 0.4366
O3 O 0.6183(3) 0.1251(3) 0.7142(3)
C4 C 0.5593(4) 0.3002(4) 0.5490(3)
O4 O 0.5567(4) -0.1008(4) 0.6961(3)
C5 C 0.5637(4) 0.3103(3) 0.4523(4)
O5 O 0.7128(4) 0.2321(4) 0.7712(4)
C6 C 0.4202(4) 0.2372(4) 0.4769(4)
C7 C 0.4637(4) 0.2503(4) 0.5654(3)
H3 H 0.4214 0.2879 0.6031
C8 C 0.6650(4) 0.4413(4) 0.5865(4)
H4 H 0.6692 0.4883 0.6323
H5 H 0.7123 0.3933 0.6003
C9 C 0.5667(4) 0.3966(4) 0.5934(4)
H6 H 0.5561 0.3852 0.6559
C10 C 0.4857(4) 0.2764(4) 0.4126(4)
C11 C 0.6320(4) 0.2294(4) 0.5868(4)
H7 H 0.6963 0.2543 0.6008
C12 C 0.5724(4) 0.1957(4) 0.6637(4)
H8 H 0.5508 0.2481 0.7003
C13 C 0.4919(4) 0.1569(4) 0.6104(3)
C14 C 0.6300(4) 0.1440(4) 0.5300(3)
C15 C 0.5469(4) 0.1018(4) 0.5439(3)
C16 C 0.5059(4) 0.0194(4) 0.4998(4)
H9 H 0.5440 0.0063 0.4479
H10 H 0.4408 0.0346 0.4807
C17 C 0.5019(4) -0.0679(4) 0.5549(4)
C18 C 0.5050(4) -0.0538(4) 0.6501(4)
C19 C 0.4393(4) 0.0134(4) 0.6935(4)
H11 H 0.4686 0.0288 0.7494
H12 H 0.3803 -0.0208 0.7066
C20 C 0.4089(4) 0.1049(4) 0.6527(4)
H13 H 0.3623 0.0901 0.6063
C21 C 0.3565(5) 0.1620(5) 0.7202(4)
H14 H 0.4011 0.1814 0.7648
H15 H 0.3061 0.1248 0.7460
H16 H 0.3287 0.2165 0.6930
C22 C 0.4949(5) -0.1509(4) 0.5213(4)
C23 C 0.4929(8) -0.1641(5) 0.4252(5)
H17 H 0.4441 -0.1244 0.4002
H18 H 0.4786 -0.2285 0.4120
H19 H 0.5549 -0.1479 0.4012
C24 C 0.4855(7) -0.2403(5) 0.5706(5)
H20 H 0.4790 -0.2270 0.6319
H21 H 0.5420 -0.2781 0.5611
H22 H 0.4293 -0.2736 0.5505
C25 C 0.6878(4) 0.1542(5) 0.7665(4)
C26 C 0.7295(6) 0.0769(7) 0.8163(6)
H23 H 0.6847 0.0254 0.8176
H24 H 0.7426 0.0974 0.8750
H25 H 0.7886 0.0571 0.7891
C27 C 0.7066(5) 0.1204(4) 0.4673(4)
H26 H 0.7675 0.1169 0.4973
H27 H 0.7099 0.1680 0.4229
H28 H 0.6926 0.0610 0.4406
C28 C 0.6328(5) 0.5143(5) 0.3568(4)
C29 C 0.6330(8) 0.6185(6) 0.3688(6)
H29 H 0.6879 0.6449 0.3393
H30 H 0.6365 0.6330 0.4301
H31 H 0.5747 0.6444 0.3447
C30 C 0.5985(7) 0.4868(6) 0.2709(5)
H32 H 0.5975 0.4196 0.2668
H33 H 0.6409 0.5118 0.2269
H34 H 0.5343 0.5108 0.2621
C31 C 0.4603(5) 0.2719(6) 0.3197(4)
H35 H 0.4078 0.3141 0.3080
H36 H 0.4412 0.2090 0.3050
H37 H 0.5153 0.2895 0.2850
C32 C 0.4893(5) 0.4623(4) 0.5660(4)
H38 H 0.4905 0.5169 0.6029
H39 H 0.4276 0.4319 0.5712
H40 H 0.4997 0.4807 0.5063
loop_
_geom_bond_atom_site_label_1
_geom_bond_atom_site_label_2
_geom_bond_site_symmetry_1
_geom_bond_site_symmetry_2
C1 O1 1_555 1_555
C2 C1 1_555 1_555
O2 C6 1_555 1_555
C3 C2 1_555 1_555
H1 C3 1_555 1_555
H2 C3 1_555 1_555
O3 C12 1_555 1_555
C4 C5 1_555 1_555
O4 C18 1_555 1_555
C5 C3 1_555 1_555
O5 C25 1_555 1_555
C6 C7 1_555 1_555
C7 C4 1_555 1_555
H3 C7 1_555 1_555
C8 C1 1_555 1_555
H4 C8 1_555 1_555
H5 C8 1_555 1_555
C9 C4 1_555 1_555
H6 C9 1_555 1_555
C10 C5 1_555 1_555
C11 C4 1_555 1_555
H7 C11 1_555 1_555
C12 C11 1_555 1_555
H8 C12 1_555 1_555
C13 C7 1_555 1_555
C14 C11 1_555 1_555
C15 C13 1_555 1_555
C16 C15 1_555 1_555
H9 C16 1_555 1_555
H10 C16 1_555 1_555
C17 C16 1_555 1_555
C18 C17 1_555 1_555
C19 C18 1_555 1_555
H11 C19 1_555 1_555
H12 C19 1_555 1_555
C20 C13 1_555 1_555
H13 C20 1_555 1_555
C21 C20 1_555 1_555
H14 C21 1_555 1_555
H15 C21 1_555 1_555
H16 C21 1_555 1_555
C22 C17 1_555 1_555
C23 C22 1_555 1_555
H17 C23 1_555 1_555
H18 C23 1_555 1_555
H19 C23 1_555 1_555
C24 C22 1_555 1_555
H20 C24 1_555 1_555
H21 C24 1_555 1_555
H22 C24 1_555 1_555
C25 O3 1_555 1_555
C26 C25 1_555 1_555
H23 C26 1_555 1_555
H24 C26 1_555 1_555
H25 C26 1_555 1_555
C27 C14 1_555 1_555
H26 C27 1_555 1_555
H27 C27 1_555 1_555
H28 C27 1_555 1_555
C28 C2 1_555 1_555
C29 C28 1_555 1_555
H29 C29 1_555 1_555
H30 C29 1_555 1_555
H31 C29 1_555 1_555
C30 C28 1_555 1_555
H32 C30 1_555 1_555
H33 C30 1_555 1_555
H34 C30 1_555 1_555
C31 C10 1_555 1_555
H35 C31 1_555 1_555
H36 C31 1_555 1_555
H37 C31 1_555 1_555
C32 C9 1_555 1_555
H38 C32 1_555 1_555
H39 C32 1_555 1_555
H40 C32 1_555 1_555
C6 C10 1_555 1_555
C8 C9 1_555 1_555
C12 C13 1_555 1_555
C14 C15 1_555 1_555
C19 C20 1_555 1_555

#END
