
#######################################################################
#
#                 Cambridge Crystallographic Data Centre
#                                CCDC 
#
#######################################################################
#
# If this CIF has been generated from an entry in the Cambridge 
# Structural Database, then it will include bibliographic, chemical, 
# crystal, experimental, refinement or atomic coordinate data resulting 
# from the CCDC's data processing and validation procedures.
#
#######################################################################

data_JIGYEG
_chemical_compound_source        'Xylopia vielana'
_chemical_name_common            'xyloplain A'
_chemical_formula_moiety         'C30 H36 O4'
_chemical_name_systematic        
5,7,12,14-tetramethyl-2,9-bis(propan-2-ylidene)-1,4,5,8,9,11,12,13-octahydro-5bH-5a,13-methanocyclohepta[5,6]benzo[1,2-c]azulene-3,6,10,15(2H)-tetrone
_symmetry_cell_setting           orthorhombic
_symmetry_space_group_name_H-M   'P 21 21 21'
_symmetry_Int_Tables_number      19
_space_group_name_Hall           'P 2ac 2ab'
loop_
_symmetry_equiv_pos_site_id
_symmetry_equiv_pos_as_xyz
1 x,y,z
2 1/2-x,-y,1/2+z
3 -x,1/2+y,1/2-z
4 1/2+x,1/2-y,-z
_cell_length_a                   7.3802(2)
_cell_length_b                   14.7759(5)
_cell_length_c                   23.5281(7)
_cell_angle_alpha                90
_cell_angle_beta                 90
_cell_angle_gamma                90
_cell_volume                     2565.72
_exptl_crystal_colour            colorless
_exptl_crystal_description       block
_cell_formula_units_Z            4
loop_
_atom_site_label
_atom_site_type_symbol
_atom_site_fract_x
_atom_site_fract_y
_atom_site_fract_z
O1 O 0.9086(7) 0.4006(2) 0.51201(18)
C1 C 0.7543(5) 0.5468(3) 0.57006(14)
H1 H 0.7582 0.4808 0.5739
H2 H 0.6539 0.5708 0.5927
H3 H 0.8687 0.5726 0.5836
O2 O 0.0658(3) 0.48727(14) 0.34068(9)
C2 C 0.7269(4) 0.5715(2) 0.50863(12)
O3 O 0.5420(3) 0.22487(12) 0.27044(9)
C3 C 0.6811(6) 0.6701(2) 0.50187(16)
H4 H 0.6771 0.6854 0.4614
H5 H 0.7737 0.7069 0.5207
H6 H 0.5627 0.6822 0.5191
O4 O 0.3940(3) 0.30386(14) 0.11511(9)
C4 C 0.7387(4) 0.51337(18) 0.46448(12)
C5 C 0.8141(6) 0.4201(2) 0.47147(16)
C6 C 0.7820(4) 0.34932(19) 0.42691(13)
H7 H 0.8351 0.2918 0.4407
H8 H 0.8500 0.3671 0.3924
C7 C 0.5838(4) 0.33034(16) 0.40922(11)
H9 H 0.5817 0.2685 0.3919
C8 C 0.5157(3) 0.39679(15) 0.36314(10)
C9 C 0.5174(3) 0.49509(16) 0.38202(9)
C10 C 0.6895(3) 0.53893(16) 0.40344(11)
H10 H 0.6758 0.6055 0.4011
H11 H 0.7907 0.5214 0.3781
C11 C 0.4641(5) 0.3267(2) 0.46157(12)
H12 H 0.3453 0.3019 0.4513
H13 H 0.4489 0.3878 0.4769
H14 H 0.5206 0.2879 0.4903
C12 C 0.3552(3) 0.53574(16) 0.37585(10)
C13 C 0.2233(3) 0.47140(17) 0.35307(10)
C14 C 0.3003(4) 0.63132(18) 0.38762(13)
H15 H 0.2462 0.6577 0.3534
H16 H 0.4071 0.6666 0.3986
H17 H 0.2115 0.6323 0.4186
C15 C 0.3158(3) 0.38131(16) 0.34410(10)
H18 H 0.2569 0.3327 0.3672
C16 C 0.3239(3) 0.35463(16) 0.27967(10)
C17 C 0.5046(3) 0.30125(16) 0.28235(10)
C18 C 0.6230(3) 0.37854(15) 0.30598(10)
H19 H 0.7551 0.3651 0.3101
C19 C 0.5731(3) 0.44904(16) 0.26217(10)
C20 C 0.3996(3) 0.43613(15) 0.24765(9)
C21 C 0.2860(4) 0.48932(15) 0.20652(10)
H20 H 0.3401 0.5500 0.2011
H21 H 0.1629 0.4974 0.2224
C22 C 0.2728(3) 0.44152(17) 0.14930(10)
C23 C 0.2985(4) 0.34137(17) 0.14975(11)
C24 C 0.1967(4) 0.28090(19) 0.19184(12)
H22 H 0.2666 0.2240 0.1954
H23 H 0.0794 0.2649 0.1740
C25 C 0.1551(3) 0.31382(17) 0.25257(11)
H24 H 0.0624 0.3630 0.2496
C26 C 0.7026(4) 0.51913(18) 0.24158(12)
H25 H 0.6375 0.5638 0.2185
H26 H 0.7968 0.4903 0.2185
H27 H 0.7586 0.5494 0.2742
C27 C 0.2470(4) 0.48734(18) 0.10041(11)
C28 C 0.2173(5) 0.58836(19) 0.09943(12)
H28 H 0.3006 0.6162 0.0721
H29 H 0.2398 0.6133 0.1374
H30 H 0.0920 0.6012 0.0882
C29 C 0.2441(5) 0.4449(2) 0.04224(11)
H31 H 0.1347 0.4642 0.0220
H32 H 0.2442 0.3789 0.0459
H33 H 0.3515 0.4641 0.0209
C30 C 0.0715(4) 0.23690(19) 0.28706(13)
H34 H -0.0271 0.2092 0.2653
H35 H 0.0236 0.2609 0.3229
H36 H 0.1643 0.1913 0.2952
loop_
_geom_bond_atom_site_label_1
_geom_bond_atom_site_label_2
_geom_bond_site_symmetry_1
_geom_bond_site_symmetry_2
O1 C5 1_555 1_555
C1 H1 1_555 1_555
H2 C1 1_555 1_555
H3 C1 1_555 1_555
O2 C13 1_555 1_555
C2 C1 1_555 1_555
O3 C17 1_555 1_555
C3 C2 1_555 1_555
H4 C3 1_555 1_555
H5 C3 1_555 1_555
H6 C3 1_555 1_555
O4 C23 1_555 1_555
C4 C2 1_555 1_555
C5 C4 1_555 1_555
C6 C5 1_555 1_555
H7 C6 1_555 1_555
H8 C6 1_555 1_555
C7 C6 1_555 1_555
H9 C7 1_555 1_555
C8 C7 1_555 1_555
C9 C8 1_555 1_555
C10 C4 1_555 1_555
H10 C10 1_555 1_555
H11 C10 1_555 1_555
C11 C7 1_555 1_555
H12 C11 1_555 1_555
H13 C11 1_555 1_555
H14 C11 1_555 1_555
C12 C9 1_555 1_555
C13 C12 1_555 1_555
C14 C12 1_555 1_555
H15 C14 1_555 1_555
H16 C14 1_555 1_555
H17 C14 1_555 1_555
C15 C8 1_555 1_555
H18 C15 1_555 1_555
C16 C15 1_555 1_555
C17 C16 1_555 1_555
C18 C8 1_555 1_555
H19 C18 1_555 1_555
C19 C18 1_555 1_555
C20 C16 1_555 1_555
C21 C20 1_555 1_555
H20 C21 1_555 1_555
H21 C21 1_555 1_555
C22 C21 1_555 1_555
C23 C22 1_555 1_555
C24 C23 1_555 1_555
H22 C24 1_555 1_555
H23 C24 1_555 1_555
C25 C16 1_555 1_555
H24 C25 1_555 1_555
C26 C19 1_555 1_555
H25 C26 1_555 1_555
H26 C26 1_555 1_555
H27 C26 1_555 1_555
C27 C22 1_555 1_555
C28 C27 1_555 1_555
H28 C28 1_555 1_555
H29 C28 1_555 1_555
H30 C28 1_555 1_555
C29 C27 1_555 1_555
H31 C29 1_555 1_555
H32 C29 1_555 1_555
H33 C29 1_555 1_555
C30 C25 1_555 1_555
H34 C30 1_555 1_555
H35 C30 1_555 1_555
H36 C30 1_555 1_555
C9 C10 1_555 1_555
C13 C15 1_555 1_555
C17 C18 1_555 1_555
C19 C20 1_555 1_555
C24 C25 1_555 1_555

#END
