
#######################################################################
#
#                 Cambridge Crystallographic Data Centre
#                                CCDC 
#
#######################################################################
#
# If this CIF has been generated from an entry in the Cambridge 
# Structural Database, then it will include bibliographic, chemical, 
# crystal, experimental, refinement or atomic coordinate data resulting 
# from the CCDC's data processing and validation procedures.
#
#######################################################################

data_JIHGIT
_chemical_formula_moiety         'C34 H28 N6 O4,C2 H6 O2'
_chemical_name_systematic        
"2,2'-[1,4-phenylenebis(azanylylidenemethylylidene)]bis[6-methoxy-4-(phenyldiazenyl)phenol] ethylene glycol solvate"
_symmetry_cell_setting           monoclinic
_symmetry_space_group_name_H-M   'P 21/c'
_symmetry_Int_Tables_number      14
_space_group_name_Hall           '-P 2ybc'
loop_
_symmetry_equiv_pos_site_id
_symmetry_equiv_pos_as_xyz
1 x,y,z
2 -x,1/2+y,1/2-z
3 -x,-y,-z
4 x,1/2-y,1/2+z
_cell_length_a                   11.001(4)
_cell_length_b                   24.698(10)
_cell_length_c                   6.161(2)
_cell_angle_alpha                90
_cell_angle_beta                 92.192(12)
_cell_angle_gamma                90
_cell_volume                     1672.74
_exptl_crystal_colour            purple
_exptl_crystal_description       Plate
_cell_formula_units_Z            2
loop_
_atom_site_label
_atom_site_type_symbol
_atom_site_fract_x
_atom_site_fract_y
_atom_site_fract_z
O1 O 0.3799(4) 0.62555(16) 0.8651(6)
H1 H 0.404(7) 0.604(3) 0.987(13)
O2 O 0.3647(4) 0.68367(16) 0.5125(6)
N1 N 0.5032(4) 0.56344(18) 1.1232(6)
N2 N 0.7938(4) 0.64264(19) 0.3861(7)
N3 N 0.7886(4) 0.67195(19) 0.2191(7)
C1 C 0.3967(6) 0.5003(2) 1.6202(9)
H2 H 0.3252 0.5009 1.7019
C2 C 0.4027(5) 0.5310(2) 1.4336(8)
H3 H 0.3348 0.5524 1.3875
C3 C 0.5063(5) 0.5310(2) 1.3124(8)
C4 C 0.5976(6) 0.5721(2) 1.0095(8)
H4 H 0.6736 0.5566 1.0539
C5 C 0.5891(5) 0.6049(2) 0.8168(8)
C6 C 0.4809(5) 0.6307(2) 0.7512(8)
C7 C 0.4756(6) 0.6620(2) 0.5613(8)
C8 C 0.5767(5) 0.6678(2) 0.4404(8)
H5 H 0.5733 0.6896 0.3134
C9 C 0.6854(5) 0.6415(2) 0.5043(8)
C10 C 0.6915(5) 0.6106(2) 0.6900(8)
H6 H 0.7655 0.5930 0.7327
C11 C 0.3551(6) 0.7183(3) 0.3295(9)
H7 H 0.4177 0.7464 0.3423
H8 H 0.2744 0.7352 0.3223
H9 H 0.3665 0.6971 0.1971
C12 C 0.8994(6) 0.6712(2) 0.1041(9)
C13 C 0.8948(6) 0.6974(2) -0.0943(9)
H10 H 0.8227 0.7155 -0.1432
C14 C 0.9960(6) 0.6970(3) -0.2216(10)
H11 H 0.9927 0.7143 -0.3595
C15 C 1.1012(7) 0.6717(3) -0.1493(10)
H12 H 1.1705 0.6714 -0.2366
C16 C 1.1051(6) 0.6470(3) 0.0512(11)
H13 H 1.1783 0.6300 0.1021
C17 C 1.0057(6) 0.6463(3) 0.1788(10)
H14 H 1.0096 0.6290 0.3165
O1B O 0.6201(4) 0.37445(16) 2.1349(6)
H1B H 0.596(7) 0.396(3) 2.013(13)
O2B O 0.6353(4) 0.31633(16) 2.4875(6)
N1B N 0.4968(4) 0.43656(18) 1.8768(6)
N2B N 0.2062(4) 0.35736(19) 2.6139(7)
N3B N 0.2114(4) 0.32805(19) 2.7809(7)
C1B C 0.6033(6) 0.4997(2) 1.3798(9)
H2B H 0.6748 0.4991 1.2981
C2B C 0.5973(5) 0.4690(2) 1.5664(8)
H3B H 0.6652 0.4476 1.6125
C3B C 0.4937(5) 0.4690(2) 1.6876(8)
C4B C 0.4024(6) 0.4279(2) 1.9905(8)
H4B H 0.3264 0.4434 1.9461
C5B C 0.4109(5) 0.3951(2) 2.1832(8)
C6B C 0.5191(5) 0.3693(2) 2.2488(8)
C7B C 0.5244(6) 0.3380(2) 2.4387(8)
C8B C 0.4233(5) 0.3322(2) 2.5596(8)
H5B H 0.4267 0.3104 2.6866
C9B C 0.3146(5) 0.3585(2) 2.4957(8)
C10B C 0.3085(5) 0.3894(2) 2.3100(8)
H6B H 0.2345 0.4070 2.2673
C11B C 0.6449(6) 0.2817(3) 2.6705(9)
H7B H 0.5823 0.2536 2.6577
H8B H 0.7256 0.2648 2.6777
H9B H 0.6335 0.3029 2.8029
C12B C 0.1006(6) 0.3288(2) 2.8959(9)
C13B C 0.1052(6) 0.3026(2) 3.0943(9)
H10B H 0.1773 0.2845 3.1432
C14B C 0.0040(6) 0.3030(3) 3.2216(10)
H11B H 0.0073 0.2857 3.3595
C15B C -0.1012(7) 0.3283(3) 3.1493(10)
H12B H -0.1705 0.3286 3.2366
C16B C -0.1051(6) 0.3530(3) 2.9488(11)
H13B H -0.1783 0.3700 2.8979
C17B C -0.0057(6) 0.3537(3) 2.8212(10)
H14B H -0.0096 0.3710 2.6835
C18 C 1.064(3) 0.4959(14) 0.021(9)
O3 O 0.998(2) 0.4989(5) 0.285(4)
C18B C 0.936(3) 0.5041(14) -0.021(9)
O3B O 1.002(2) 0.5011(5) -0.285(4)
loop_
_geom_bond_atom_site_label_1
_geom_bond_atom_site_label_2
_geom_bond_site_symmetry_1
_geom_bond_site_symmetry_2
O1 H1 1_555 1_555
O2 C7 1_555 1_555
N1 C3 1_555 1_555
N2 N3 1_555 1_555
N3 C12 1_555 1_555
C1 H2 1_555 1_555
C2 C1 1_555 1_555
H3 C2 1_555 1_555
C3 C2 1_555 1_555
C4 N1 1_555 1_555
H4 C4 1_555 1_555
C5 C4 1_555 1_555
C6 O1 1_555 1_555
C7 C6 1_555 1_555
C8 C7 1_555 1_555
H5 C8 1_555 1_555
C9 N2 1_555 1_555
C10 C5 1_555 1_555
H6 C10 1_555 1_555
C11 O2 1_555 1_555
H7 C11 1_555 1_555
H8 C11 1_555 1_555
H9 C11 1_555 1_555
C12 C13 1_555 1_555
C13 H10 1_555 1_555
C14 C13 1_555 1_555
H11 C14 1_555 1_555
C15 C14 1_555 1_555
H12 C15 1_555 1_555
C16 C15 1_555 1_555
H13 C16 1_555 1_555
C17 C12 1_555 1_555
H14 C17 1_555 1_555
C18 O3 1_555 1_555
O1B H1B 1_555 1_555
O2B C7B 1_555 1_555
N1B C3B 1_555 1_555
N2B N3B 1_555 1_555
N3B C12B 1_555 1_555
C1B C3 1_555 1_555
H2B C1B 1_555 1_555
C2B C1B 1_555 1_555
H3B C2B 1_555 1_555
C3B C1 1_555 1_555
C4B N1B 1_555 1_555
H4B C4B 1_555 1_555
C5B C4B 1_555 1_555
C6B O1B 1_555 1_555
C7B C6B 1_555 1_555
C8B C7B 1_555 1_555
H5B C8B 1_555 1_555
C9B N2B 1_555 1_555
C10B C5B 1_555 1_555
H6B C10B 1_555 1_555
C11B O2B 1_555 1_555
H7B C11B 1_555 1_555
H8B C11B 1_555 1_555
H9B C11B 1_555 1_555
C12B C13B 1_555 1_555
C13B H10B 1_555 1_555
C14B C13B 1_555 1_555
H11B C14B 1_555 1_555
C15B C14B 1_555 1_555
H12B C15B 1_555 1_555
C16B C15B 1_555 1_555
H13B C16B 1_555 1_555
C17B C12B 1_555 1_555
H14B C17B 1_555 1_555
C18B C18 1_555 1_555
O3B C18B 1_555 1_555
C5 C6 1_555 1_555
C8 C9 1_555 1_555
C9 C10 1_555 1_555
C16 C17 1_555 1_555
C2B C3B 1_555 1_555
C5B C6B 1_555 1_555
C8B C9B 1_555 1_555
C9B C10B 1_555 1_555
C16B C17B 1_555 1_555

#END
