
#######################################################################
#
#                 Cambridge Crystallographic Data Centre
#                                CCDC 
#
#######################################################################
#
# If this CIF has been generated from an entry in the Cambridge 
# Structural Database, then it will include bibliographic, chemical, 
# crystal, experimental, refinement or atomic coordinate data resulting 
# from the CCDC's data processing and validation procedures.
#
#######################################################################

data_JIHJEP
_chemical_formula_moiety         'C56 H38 O6,C2 H3 N1'
_chemical_name_systematic        
'out,out-6,13,23,30,39,46-hexaoxaoctacyclo(16.16.16.2^2,5^.2^14,17^.2^19,22^.2^31,34^.2^35,38^.2^42,50^)dohexacontaoctadeca-2,4,14,16,19,21,31,33,35,37,47,49,51,53,55,57,59,61-enehexa-8,10,25,27,41,43-yne acetonitrile clathrate'
_symmetry_cell_setting           monoclinic
_symmetry_space_group_name_H-M   'P 21/c'
_symmetry_Int_Tables_number      14
_space_group_name_Hall           '-P 2ybc'
loop_
_symmetry_equiv_pos_site_id
_symmetry_equiv_pos_as_xyz
1 x,y,z
2 -x,1/2+y,1/2-z
3 -x,-y,-z
4 x,1/2-y,1/2+z
_cell_length_a                   11.546(7)
_cell_length_b                   19.135(8)
_cell_length_c                   23.492(18)
_cell_angle_alpha                90
_cell_angle_beta                 102.32(3)
_cell_angle_gamma                90
_cell_volume                     5070.63
_chemical_melting_point          270deg.C(dec.)
_cell_formula_units_Z            4
loop_
_atom_site_label
_atom_site_type_symbol
_atom_site_fract_x
_atom_site_fract_y
_atom_site_fract_z
C1 C 0.76252(37) 0.76669(23) 0.06026(19)
H1 H 0.79043(37) 0.79572(23) 0.02610(19)
C2 C 0.62706(19) 0.76367(11) 0.04416(9)
C3 C 0.56600(19) 0.81649(11) 0.00920(9)
C4 C 0.44242(19) 0.81837(11) -0.00225(9)
C5 C 0.37989(19) 0.76745(11) 0.02127(9)
C6 C 0.44095(19) 0.71464(11) 0.05623(9)
C7 C 0.56453(19) 0.71275(11) 0.06768(9)
H2 H 0.61440(19) 0.85591(11) -0.00900(9)
H3 H 0.39514(19) 0.85926(11) -0.02931(11)
H4 H 0.39255(19) 0.67521(11) 0.07443(9)
H5 H 0.61181(19) 0.67186(11) 0.09474(9)
O1 O 0.25753(28) 0.77444(20) 0.00836(15)
C8 C 0.19010(42) 0.72678(30) 0.03426(24)
H6 H 0.09838(42) 0.73070(30) 0.01186(24)
H7 H 0.22204(42) 0.67457(30) 0.02924(24)
C9 C 0.19761(39) 0.73974(28) 0.09633(27)
C10 C 0.19385(40) 0.74354(30) 0.14710(26)
C11 C 0.81769(21) 0.69257(12) 0.06229(11)
C12 C 0.77818(21) 0.64746(12) 0.01554(11)
C13 C 0.82532(21) 0.58027(12) 0.01623(11)
C14 C 0.91198(21) 0.55819(12) 0.06367(11)
C15 C 0.95149(21) 0.60330(12) 0.11042(11)
C16 C 0.90435(21) 0.67050(12) 0.10974(11)
H8 H 0.71109(21) 0.66455(12) -0.02119(11)
H9 H 0.79473(21) 0.54534(12) -0.01996(11)
H10 H 1.01858(21) 0.58621(12) 0.14715(11)
H11 H 0.93494(21) 0.70542(12) 0.14593(11)
O2 O 0.96593(31) 0.49320(19) 0.06738(16)
C17 C 0.90260(45) 0.43813(28) 0.03428(24)
H12 H 0.87131(45) 0.45613(28) -0.00990(24)
H13 H 0.96206(45) 0.39452(28) 0.03452(24)
C18 C 0.80294(48) 0.41498(29) 0.05643(23)
C19 C 0.71867(49) 0.39141(29) 0.07245(22)
C20 C 0.80894(20) 0.80668(12) 0.11719(9)
C21 C 0.75298(20) 0.79961(12) 0.16397(9)
C22 C 0.79730(20) 0.83473(12) 0.21610(9)
C23 C 0.89759(20) 0.87691(12) 0.22146(9)
C24 C 0.95355(20) 0.88398(12) 0.17469(9)
C25 C 0.90922(20) 0.84887(12) 0.12255(9)
H14 H 0.67534(20) 0.76696(12) 0.15982(9)
H15 H 0.75398(20) 0.82925(12) 0.25231(9)
H16 H 1.03119(20) 0.91664(12) 0.17884(9)
H17 H 0.95254(20) 0.85434(12) 0.08634(9)
O3 O 0.94458(32) 0.91495(19) 0.27001(16)
C26 C 0.88122(49) 0.91621(31) 0.31541(25)
H18 H 0.91338(49) 0.95898(31) 0.34450(25)
H19 H 0.78816(49) 0.92376(31) 0.29677(25)
C27 C 0.89664(45) 0.85007(34) 0.34879(24)
C28 C 0.91542(43) 0.79787(33) 0.37548(22)
C29 C 0.51154(39) 0.46578(24) 0.37519(18)
H20 H 0.48951(39) 0.43174(24) 0.40799(18)
C30 C 0.41704(22) 0.52287(13) 0.36268(10)
C31 C 0.30026(22) 0.50299(13) 0.36137(10)
C32 C 0.20933(22) 0.55223(13) 0.34854(10)
C33 C 0.23517(22) 0.62134(13) 0.33700(10)
C34 C 0.35195(22) 0.64122(13) 0.33831(10)
C35 C 0.44288(22) 0.59198(13) 0.35114(10)
H21 H 0.28025(22) 0.44949(13) 0.37030(10)
H22 H 0.11892(22) 0.53684(13) 0.34753(10)
H23 H 0.37196(22) 0.69473(13) 0.32938(10)
H24 H 0.53329(22) 0.60737(13) 0.35215(10)
O4 O 0.13916(36) 0.66555(21) 0.32672(19)
C36 C 0.15778(51) 0.73532(32) 0.31119(27)
H25 H 0.08099(51) 0.76560(32) 0.31520(27)
H26 H 0.23497(51) 0.75513(32) 0.34117(27)
C37 C 0.17598(46) 0.74378(30) 0.25300(29)
C38 C 0.18521(41) 0.74559(29) 0.20387(26)
C39 C 0.50901(20) 0.41991(12) 0.32147(9)
C40 C 0.53239(20) 0.34875(12) 0.33027(9)
C41 C 0.52339(20) 0.30409(12) 0.28260(9)
C42 C 0.49101(20) 0.33059(12) 0.22612(9)
C43 C 0.46763(20) 0.40174(12) 0.21731(9)
C44 C 0.47663(20) 0.44640(12) 0.26499(9)
H27 H 0.55746(20) 0.32823(12) 0.37400(9)
H28 H 0.54150(20) 0.24900(12) 0.28941(9)
H29 H 0.44255(20) 0.42226(12) 0.17358(9)
H30 H 0.45852(20) 0.50149(12) 0.25817(9)
O5 O 0.47685(32) 0.28045(18) 0.18337(14)
C45 C 0.44338(46) 0.30421(31) 0.12495(22)
H31 H 0.41400(46) 0.26004(31) 0.09697(22)
H32 H 0.37156(46) 0.34113(31) 0.12179(22)
C46 C 0.54070(50) 0.33788(30) 0.10582(22)
C47 C 0.62207(50) 0.36299(29) 0.09084(22)
C48 C 0.63361(22) 0.49393(13) 0.40292(10)
C49 C 0.71261(22) 0.51701(13) 0.36957(10)
C50 C 0.82031(22) 0.54711(13) 0.39669(10)
C51 C 0.84900(22) 0.55413(13) 0.45718(10)
C52 C 0.77000(22) 0.53106(13) 0.49053(10)
C53 C 0.66231(22) 0.50096(13) 0.46341(10)
H33 H 0.69040(22) 0.51157(13) 0.32274(10)
H34 H 0.88147(22) 0.56497(13) 0.37087(10)
H35 H 0.79221(22) 0.53649(13) 0.53736(10)
H36 H 0.60114(22) 0.48309(13) 0.48923(10)
O6 O 0.94957(30) 0.58458(20) 0.48845(16)
C54 C 1.02717(44) 0.61764(32) 0.45695(27)
H37 H 1.11007(44) 0.62896(32) 0.48671(27)
H38 H 1.04286(44) 0.58235(32) 0.42352(27)
C55 C 0.97835(41) 0.68252(34) 0.42956(23)
C56 C 0.94464(42) 0.73586(33) 0.40446(22)
N1 N 0.62971(75) 0.54263(71) 0.15127(65)
C57 C 0.65008(75) 0.58399(71) 0.18635(65)
C58 C 0.67609(75) 0.63682(71) 0.23114(65)
N2? N 0.87351(79) 0.53416(68) 0.24047(60)
C59? C 0.77818(79) 0.54679(68) 0.21974(60)
C60? C 0.65645(79) 0.56291(68) 0.19327(60)
loop_
_geom_bond_atom_site_label_1
_geom_bond_atom_site_label_2
_geom_bond_site_symmetry_1
_geom_bond_site_symmetry_2
C1 H1 1_555 1_555
C2 C1 1_555 1_555
C3 C2 1_555 1_555
C4 C3 1_555 1_555
C5 C4 1_555 1_555
C6 C5 1_555 1_555
C7 C2 1_555 1_555
H2 C3 1_555 1_555
H3 C4 1_555 1_555
H4 C6 1_555 1_555
H5 C7 1_555 1_555
O1 C5 1_555 1_555
C8 O1 1_555 1_555
H6 C8 1_555 1_555
H7 C8 1_555 1_555
C9 C8 1_555 1_555
C10 C9 1_555 1_555
C11 C1 1_555 1_555
C12 C11 1_555 1_555
C13 C12 1_555 1_555
C14 C13 1_555 1_555
C15 C14 1_555 1_555
C16 C11 1_555 1_555
H8 C12 1_555 1_555
H9 C13 1_555 1_555
H10 C15 1_555 1_555
H11 C16 1_555 1_555
O2 C14 1_555 1_555
C17 O2 1_555 1_555
H12 C17 1_555 1_555
H13 C17 1_555 1_555
C18 C17 1_555 1_555
C19 C18 1_555 1_555
C20 C1 1_555 1_555
C21 C20 1_555 1_555
C22 C21 1_555 1_555
C23 C22 1_555 1_555
C24 C23 1_555 1_555
C25 C20 1_555 1_555
H14 C21 1_555 1_555
H15 C22 1_555 1_555
H16 C24 1_555 1_555
H17 C25 1_555 1_555
O3 C23 1_555 1_555
C26 O3 1_555 1_555
H18 C26 1_555 1_555
H19 C26 1_555 1_555
C27 C26 1_555 1_555
C28 C27 1_555 1_555
C29 H20 1_555 1_555
C30 C29 1_555 1_555
C31 C30 1_555 1_555
C32 C31 1_555 1_555
C33 C32 1_555 1_555
C34 C33 1_555 1_555
C35 C30 1_555 1_555
H21 C31 1_555 1_555
H22 C32 1_555 1_555
H23 C34 1_555 1_555
H24 C35 1_555 1_555
O4 C33 1_555 1_555
C36 O4 1_555 1_555
H25 C36 1_555 1_555
H26 C36 1_555 1_555
C37 C36 1_555 1_555
C38 C10 1_555 1_555
C39 C29 1_555 1_555
C40 C39 1_555 1_555
C41 C40 1_555 1_555
C42 C41 1_555 1_555
C43 C42 1_555 1_555
C44 C39 1_555 1_555
H27 C40 1_555 1_555
H28 C41 1_555 1_555
H29 C43 1_555 1_555
H30 C44 1_555 1_555
O5 C42 1_555 1_555
C45 O5 1_555 1_555
H31 C45 1_555 1_555
H32 C45 1_555 1_555
C46 C45 1_555 1_555
C47 C19 1_555 1_555
C48 C29 1_555 1_555
C49 C48 1_555 1_555
C50 C49 1_555 1_555
C51 C50 1_555 1_555
C52 C51 1_555 1_555
C53 C48 1_555 1_555
H33 C49 1_555 1_555
H34 C50 1_555 1_555
H35 C52 1_555 1_555
H36 C53 1_555 1_555
O6 C51 1_555 1_555
C54 O6 1_555 1_555
H37 C54 1_555 1_555
H38 C54 1_555 1_555
C55 C54 1_555 1_555
C56 C28 1_555 1_555
N1 C57 1_555 1_555
C57 C58 1_555 1_555
C6 C7 1_555 1_555
C15 C16 1_555 1_555
C24 C25 1_555 1_555
C34 C35 1_555 1_555
C37 C38 1_555 1_555
C43 C44 1_555 1_555
C46 C47 1_555 1_555
C52 C53 1_555 1_555
C55 C56 1_555 1_555

#END
