
#######################################################################
#
#                 Cambridge Crystallographic Data Centre
#                                CCDC 
#
#######################################################################
#
# If this CIF has been generated from an entry in the Cambridge 
# Structural Database, then it will include bibliographic, chemical, 
# crystal, experimental, refinement or atomic coordinate data resulting 
# from the CCDC's data processing and validation procedures.
#
#######################################################################

data_JIHJOC
_chemical_formula_moiety         'C15 H16 Br1 N1 O3 S1'
_chemical_name_systematic        
N-[1-(4-bromophenyl)ethyl]-N-methoxybenzenesulfonamide
_symmetry_cell_setting           orthorhombic
_symmetry_space_group_name_H-M   'P 21 21 21'
_symmetry_Int_Tables_number      19
_space_group_name_Hall           'P 2ac 2ab'
loop_
_symmetry_equiv_pos_site_id
_symmetry_equiv_pos_as_xyz
1 x,y,z
2 1/2-x,-y,1/2+z
3 -x,1/2+y,1/2-z
4 1/2+x,1/2-y,-z
_cell_length_a                   7.3245(5)
_cell_length_b                   8.5070(5)
_cell_length_c                   26.1399(17)
_cell_angle_alpha                90
_cell_angle_beta                 90
_cell_angle_gamma                90
_cell_volume                     1628.76
_exptl_crystal_colour            colorless
_exptl_crystal_description       prismatic
_cell_formula_units_Z            4
loop_
_atom_site_label
_atom_site_type_symbol
_atom_site_fract_x
_atom_site_fract_y
_atom_site_fract_z
Br1 Br 0.72344(11) 0.34389(6) 0.47654(2)
S1 S 0.12710(14) 0.86653(12) 0.34731(4)
N1 N 0.3322(5) 0.9444(4) 0.33446(13)
O1 O 0.4052(4) 0.8685(4) 0.29077(10)
O2 O 0.0774(4) 0.9317(4) 0.39572(12)
O3 O 0.0194(4) 0.8993(4) 0.30325(12)
C1 C 0.4696(6) 0.9622(5) 0.37611(17)
H1 H 0.4100 1.0216 0.4035
C2 C 0.6240(7) 1.0660(5) 0.3558(3)
H2 H 0.6825 1.0145 0.3275
H3 H 0.7116 1.0839 0.3825
H4 H 0.5748 1.1648 0.3446
C3 C 0.5367(6) 0.8114(5) 0.39974(16)
C4 C 0.5050(7) 0.7838(6) 0.45144(17)
H5 H 0.4449 0.8595 0.4708
C5 C 0.5611(7) 0.6465(7) 0.47437(16)
H6 H 0.5400 0.6296 0.5090
C6 C 0.6484(7) 0.5351(5) 0.44568(17)
C7 C 0.6841(6) 0.5584(5) 0.39390(17)
H7 H 0.7434 0.4821 0.3746
C8 C 0.6290(6) 0.6973(5) 0.37228(15)
H8 H 0.6545 0.7154 0.3379
C9 C 0.3878(8) 0.9712(7) 0.24689(19)
H9 H 0.2611 0.9833 0.2384
H10 H 0.4518 0.9264 0.2183
H11 H 0.4391 1.0721 0.2549
C10 C 0.1437(5) 0.6603(4) 0.35256(15)
C11 C 0.1582(6) 0.5943(5) 0.40031(18)
H12 H 0.1630 0.6572 0.4294
C12 C 0.1656(8) 0.4327(6) 0.4043(3)
H13 H 0.1771 0.3855 0.4362
C13 C 0.1558(8) 0.3415(6) 0.3609(3)
H14 H 0.1605 0.2326 0.3639
C14 C 0.1393(9) 0.4079(6) 0.3140(3)
H15 H 0.1312 0.3445 0.2851
C15 C 0.1347(7) 0.5692(5) 0.30907(19)
H16 H 0.1258 0.6157 0.2770
loop_
_geom_bond_atom_site_label_1
_geom_bond_atom_site_label_2
_geom_bond_site_symmetry_1
_geom_bond_site_symmetry_2
Br1 C6 1_555 1_555
S1 N1 1_555 1_555
N1 O1 1_555 1_555
O1 C9 1_555 1_555
O2 S1 1_555 1_555
O3 S1 1_555 1_555
C1 N1 1_555 1_555
H1 C1 1_555 1_555
C2 C1 1_555 1_555
H2 C2 1_555 1_555
H3 C2 1_555 1_555
H4 C2 1_555 1_555
C3 C1 1_555 1_555
C4 C3 1_555 1_555
H5 C4 1_555 1_555
C5 C4 1_555 1_555
H6 C5 1_555 1_555
C6 C5 1_555 1_555
C7 C6 1_555 1_555
H7 C7 1_555 1_555
C8 C3 1_555 1_555
H8 C8 1_555 1_555
C9 H9 1_555 1_555
H10 C9 1_555 1_555
H11 C9 1_555 1_555
C10 S1 1_555 1_555
C11 C10 1_555 1_555
H12 C11 1_555 1_555
C12 C11 1_555 1_555
H13 C12 1_555 1_555
C13 C12 1_555 1_555
H14 C13 1_555 1_555
C14 C13 1_555 1_555
H15 C14 1_555 1_555
C15 C10 1_555 1_555
H16 C15 1_555 1_555
C7 C8 1_555 1_555
C14 C15 1_555 1_555

#END
