
#######################################################################
#
#                 Cambridge Crystallographic Data Centre
#                                CCDC 
#
#######################################################################
#
# If this CIF has been generated from an entry in the Cambridge 
# Structural Database, then it will include bibliographic, chemical, 
# crystal, experimental, refinement or atomic coordinate data resulting 
# from the CCDC's data processing and validation procedures.
#
#######################################################################

data_JIHKOD
_chemical_formula_moiety         'C17 H13 Br3 O5'
_chemical_name_systematic        
3,6,8-tribromo-5-hydroxy-2,7-dimethoxy-2-phenyl-2,3-dihydro-4H-1-benzopyran-4-one
_symmetry_cell_setting           orthorhombic
_symmetry_space_group_name_H-M   'P b c a'
_symmetry_Int_Tables_number      61
_space_group_name_Hall           '-P 2ac 2ab'
loop_
_symmetry_equiv_pos_site_id
_symmetry_equiv_pos_as_xyz
1 x,y,z
2 1/2-x,-y,1/2+z
3 -x,1/2+y,1/2-z
4 1/2+x,1/2-y,-z
5 -x,-y,-z
6 1/2+x,y,1/2-z
7 x,1/2-y,1/2+z
8 1/2-x,1/2+y,z
_cell_length_a                   9.4673(8)
_cell_length_b                   17.9938(15)
_cell_length_c                   21.2004(17)
_cell_angle_alpha                90
_cell_angle_beta                 90
_cell_angle_gamma                90
_cell_volume                     3611.55
_exptl_crystal_colour            yellow
_exptl_crystal_description       block
_cell_formula_units_Z            8
loop_
_atom_site_label
_atom_site_type_symbol
_atom_site_fract_x
_atom_site_fract_y
_atom_site_fract_z
Br1 Br 0.30857(7) 0.24066(3) 0.60734(3)
Br2 Br 0.30227(6) 0.06012(3) 0.37645(2)
Br3 Br 0.21270(8) 0.35027(3) 0.27796(3)
O1 O -0.0351(3) 0.14986(15) 0.52378(15)
O2 O 0.0638(4) 0.34347(18) 0.52745(17)
O3 O 0.1246(4) 0.37841(17) 0.41131(18)
H1 H 0.0831 0.3831 0.4450
O4 O 0.1999(3) 0.13269(15) 0.49344(13)
O5 O 0.3008(4) 0.18631(19) 0.28008(15)
C1 C 0.0313(6) 0.0693(3) 0.6370(2)
H2 H -0.0550 0.0939 0.6359
C2 C 0.0560(7) 0.0168(3) 0.6831(2)
H3 H -0.0132 0.0066 0.7130
C3 C 0.1821(7) -0.0201(3) 0.6850(3)
H4 H 0.1989 -0.0551 0.7163
C4 C 0.2835(6) -0.0054(3) 0.6408(3)
H5 H 0.3686 -0.0312 0.6416
C5 C 0.2596(6) 0.0477(3) 0.5950(3)
H6 H 0.3294 0.0582 0.5655
C6 C 0.1322(5) 0.0856(2) 0.5928(2)
C7 C 0.1043(5) 0.1462(2) 0.5449(2)
C8 C 0.1249(5) 0.2257(2) 0.5701(2)
H7 H 0.0523 0.2359 0.6019
C9 C 0.1103(5) 0.2808(3) 0.5174(2)
C10 C 0.1614(5) 0.2576(2) 0.4561(2)
C11 C 0.2028(5) 0.1838(2) 0.4462(2)
C12 C 0.2522(5) 0.1607(3) 0.3881(2)
C13 C 0.2582(5) 0.2110(3) 0.3383(2)
C14 C 0.2151(6) 0.2832(3) 0.3460(2)
C15 C 0.1664(5) 0.3070(3) 0.4044(3)
C16 C 0.4496(7) 0.1949(4) 0.2686(3)
H8 H 0.4737 0.2467 0.2695
H9 H 0.4726 0.1746 0.2280
H10 H 0.5018 0.1690 0.3006
C17 C -0.0870(5) 0.0865(3) 0.4901(2)
H11 H -0.0194 0.0720 0.4587
H12 H -0.1749 0.0988 0.4701
H13 H -0.1014 0.0461 0.5191
loop_
_geom_bond_atom_site_label_1
_geom_bond_atom_site_label_2
_geom_bond_site_symmetry_1
_geom_bond_site_symmetry_2
Br1 C8 1_555 1_555
Br2 C12 1_555 1_555
Br3 C14 1_555 1_555
O1 C7 1_555 1_555
O2 C9 1_555 1_555
O3 H1 1_555 1_555
O4 C7 1_555 1_555
O5 C13 1_555 1_555
C1 H2 1_555 1_555
C2 C1 1_555 1_555
H3 C2 1_555 1_555
C3 C2 1_555 1_555
H4 C3 1_555 1_555
C4 C3 1_555 1_555
H5 C4 1_555 1_555
C5 C4 1_555 1_555
H6 C5 1_555 1_555
C6 C1 1_555 1_555
C7 C6 1_555 1_555
C8 C7 1_555 1_555
H7 C8 1_555 1_555
C9 C8 1_555 1_555
C10 C9 1_555 1_555
C11 O4 1_555 1_555
C12 C11 1_555 1_555
C13 C12 1_555 1_555
C14 C13 1_555 1_555
C15 O3 1_555 1_555
C16 O5 1_555 1_555
H8 C16 1_555 1_555
H9 C16 1_555 1_555
H10 C16 1_555 1_555
C17 O1 1_555 1_555
H11 C17 1_555 1_555
H12 C17 1_555 1_555
H13 C17 1_555 1_555
C5 C6 1_555 1_555
C10 C11 1_555 1_555
C10 C15 1_555 1_555
C14 C15 1_555 1_555

#END
