
#######################################################################
#
#                 Cambridge Crystallographic Data Centre
#                                CCDC 
#
#######################################################################
#
# If this CIF has been generated from an entry in the Cambridge 
# Structural Database, then it will include bibliographic, chemical, 
# crystal, experimental, refinement or atomic coordinate data resulting 
# from the CCDC's data processing and validation procedures.
#
#######################################################################

data_JIHTIG
_chemical_formula_moiety         'C30 H25 Br1 N2 O4'
_chemical_name_systematic        
'ethyl 2-(benzoyl)-3-[(4-bromophenyl)(3-methyl-5-oxo-1-phenyl-1,5-dihydro-4H-pyrazol-4-ylidene)methyl]cyclopropane-1-carboxylate'
_symmetry_cell_setting           triclinic
_symmetry_space_group_name_H-M   'P -1'
_symmetry_Int_Tables_number      2
_space_group_name_Hall           '-P 1'
loop_
_symmetry_equiv_pos_site_id
_symmetry_equiv_pos_as_xyz
1 x,y,z
2 -x,-y,-z
_cell_length_a                   9.5568(4)
_cell_length_b                   10.0360(4)
_cell_length_c                   14.4770(7)
_cell_angle_alpha                94.050(4)
_cell_angle_beta                 107.367(4)
_cell_angle_gamma                104.279(4)
_cell_volume                     1268.56
_exptl_crystal_colour            yellow
_exptl_crystal_description       block
_cell_formula_units_Z            2
loop_
_atom_site_label
_atom_site_type_symbol
_atom_site_fract_x
_atom_site_fract_y
_atom_site_fract_z
Br1 Br 0.27272(4) 0.36811(4) 0.04902(2)
O1 O 0.82519(18) 0.43543(16) 0.49913(13)
O2 O 0.74110(19) 0.13231(19) 0.64180(13)
O3 O 0.8983(2) -0.02676(18) 0.38421(13)
O4 O 0.9141(2) 0.10025(19) 0.26493(13)
N1 N 0.5604(2) 0.2250(2) 0.67799(14)
N2 N 0.4243(2) 0.2530(2) 0.62536(15)
C1 C 0.8279(2) 0.1847(2) 0.38658(16)
H1 H 0.8117 0.2611 0.3474
C2 C 0.5905(3) 0.2151(2) 0.77828(17)
C3 C 0.7210(2) 0.1357(2) 0.44298(16)
H2 H 0.6996 0.0343 0.4480
C4 C 0.8850(2) 0.2210(2) 0.49829(16)
H3 H 0.9559 0.1703 0.5357
C5 C 0.5439(2) 0.2024(2) 0.51794(17)
C6 C 0.5902(2) 0.1944(2) 0.43827(17)
C7 C 0.5148(2) 0.2388(2) 0.34556(16)
C8 C 0.7403(3) 0.2367(3) 0.83917(18)
H4 H 0.8227 0.2622 0.8141
C9 C 0.4674(3) 0.1482(2) 0.25773(19)
H5 H 0.4854 0.0592 0.2583
C10 C 1.0058(3) 0.4165(2) 0.64620(17)
C11 C 0.4140(2) 0.2416(2) 0.53354(17)
C12 C 0.6314(2) 0.1794(2) 0.61623(17)
C13 C 0.8837(2) 0.0747(2) 0.34708(16)
C14 C 1.1341(3) 0.3718(3) 0.68740(18)
H6 H 1.1570 0.3031 0.6504
C15 C 0.4936(3) 0.3707(2) 0.34266(19)
H7 H 0.5286 0.4348 0.4017
C16 C 0.9024(2) 0.3652(2) 0.54331(16)
C17 C 0.4699(3) 0.1813(3) 0.81548(19)
H8 H 0.3680 0.1690 0.7742
C18 C 0.2723(3) 0.2547(3) 0.4601(2)
H9 H 0.1875 0.2320 0.4864
H10 H 0.2477 0.1904 0.3996
H11 H 0.2888 0.3503 0.4459
C19 C 0.3948(3) 0.1852(3) 0.16977(19)
H12 H 0.3612 0.1219 0.1104
C20 C 0.4997(3) 0.1657(3) 0.9130(2)
H13 H 0.4176 0.1426 0.9387
C21 C 0.7680(3) 0.2206(3) 0.9373(2)
H14 H 0.8699 0.2352 0.9793
C22 C 0.4224(3) 0.4099(3) 0.2552(2)
H15 H 0.4083 0.5003 0.2538
C23 C 0.3720(3) 0.3155(3) 0.16979(19)
C24 C 1.1941(4) 0.5250(3) 0.8369(2)
H16 H 1.2589 0.5624 0.9022
C25 C 1.2287(3) 0.4276(3) 0.7824(2)
H17 H 1.3177 0.3986 0.8100
C26 C 0.9698(3) -0.0054(3) 0.2231(2)
H18 H 0.8978 -0.0989 0.2136
H19 H 1.0709 -0.0059 0.2676
C27 C 0.9718(3) 0.5159(3) 0.7017(2)
H20 H 0.8846 0.5473 0.6740
C28 C 1.0658(4) 0.5687(3) 0.7975(2)
H21 H 1.0417 0.6349 0.8359
C29 C 0.6483(4) 0.1834(3) 0.9740(2)
H22 H 0.6674 0.1701 1.0404
C30 C 0.9818(4) 0.0313(4) 0.1272(2)
H23 H 0.8798 0.0247 0.0823
H24 H 1.0258 -0.0333 0.0993
H25 H 1.0475 0.1265 0.1371
loop_
_geom_bond_atom_site_label_1
_geom_bond_atom_site_label_2
_geom_bond_site_symmetry_1
_geom_bond_site_symmetry_2
Br1 C23 1_555 1_555
O1 C16 1_555 1_555
O2 C12 1_555 1_555
O3 C13 1_555 1_555
O4 C13 1_555 1_555
N1 N2 1_555 1_555
N2 C11 1_555 1_555
C1 H1 1_555 1_555
C2 N1 1_555 1_555
C3 C1 1_555 1_555
H2 C3 1_555 1_555
C4 C1 1_555 1_555
H3 C4 1_555 1_555
C5 C6 1_555 1_555
C6 C3 1_555 1_555
C7 C6 1_555 1_555
C8 C2 1_555 1_555
H4 C8 1_555 1_555
C9 C7 1_555 1_555
H5 C9 1_555 1_555
C10 C14 1_555 1_555
C11 C5 1_555 1_555
C12 N1 1_555 1_555
C13 C1 1_555 1_555
C14 H6 1_555 1_555
C15 C7 1_555 1_555
H7 C15 1_555 1_555
C16 C4 1_555 1_555
C17 C2 1_555 1_555
H8 C17 1_555 1_555
C18 C11 1_555 1_555
H9 C18 1_555 1_555
H10 C18 1_555 1_555
H11 C18 1_555 1_555
C19 C9 1_555 1_555
H12 C19 1_555 1_555
C20 C17 1_555 1_555
H13 C20 1_555 1_555
C21 C8 1_555 1_555
H14 C21 1_555 1_555
C22 C15 1_555 1_555
H15 C22 1_555 1_555
C23 C19 1_555 1_555
C24 H16 1_555 1_555
C25 C14 1_555 1_555
H17 C25 1_555 1_555
C26 O4 1_555 1_555
H18 C26 1_555 1_555
H19 C26 1_555 1_555
C27 C10 1_555 1_555
H20 C27 1_555 1_555
C28 C24 1_555 1_555
H21 C28 1_555 1_555
C29 C20 1_555 1_555
H22 C29 1_555 1_555
C30 C26 1_555 1_555
H23 C30 1_555 1_555
H24 C30 1_555 1_555
H25 C30 1_555 1_555
C3 C4 1_555 1_555
C5 C12 1_555 1_555
C10 C16 1_555 1_555
C21 C29 1_555 1_555
C22 C23 1_555 1_555
C24 C25 1_555 1_555
C27 C28 1_555 1_555

#END
