
#######################################################################
#
#                 Cambridge Crystallographic Data Centre
#                                CCDC 
#
#######################################################################
#
# If this CIF has been generated from an entry in the Cambridge 
# Structural Database, then it will include bibliographic, chemical, 
# crystal, experimental, refinement or atomic coordinate data resulting 
# from the CCDC's data processing and validation procedures.
#
#######################################################################

data_JIJHEP
_chemical_formula_moiety         'C40 H48 O4 S4'
_chemical_name_systematic        
5,11,17,23-tetrakis(Ethylthio)-25,26,27,28-tetramethoxycalix(4)arene
_symmetry_cell_setting           monoclinic
_symmetry_space_group_name_H-M   'P 21/c'
_symmetry_Int_Tables_number      14
_space_group_name_Hall           '-P 2ybc'
loop_
_symmetry_equiv_pos_site_id
_symmetry_equiv_pos_as_xyz
1 x,y,z
2 -x,1/2+y,1/2-z
3 -x,-y,-z
4 x,1/2-y,1/2+z
_cell_length_a                   20.577(9)
_cell_length_b                   10.722(5)
_cell_length_c                   20.315(9)
_cell_angle_alpha                90
_cell_angle_beta                 120.46(4)
_cell_angle_gamma                90
_cell_volume                     3863.43
_cell_formula_units_Z            4
loop_
_atom_site_label
_atom_site_type_symbol
_atom_site_fract_x
_atom_site_fract_y
_atom_site_fract_z
S1 S 0.1577(2) 0.0366(4) 0.2371(3)
S2 S 0.0770(3) -0.6851(5) 0.4919(3)
S3 S 0.3574(3) -0.3556(6) 0.2377(3)
S4 S 0.5215(3) 0.0585(6) 0.6036(3)
O1 O 0.1213(6) -0.227(1) 0.4725(7)
O2 O 0.1095(6) -0.410(1) 0.2596(8)
O3 O 0.3049(6) -0.593(1) 0.4690(7)
O4 O 0.2837(6) -0.327(1) 0.5028(6)
C1 C 0.133(1) -0.166(2) 0.419(1)
C2 C 0.1944(8) -0.083(2) 0.438(1)
C3 C 0.1991(9) -0.027(2) 0.380(1)
C4 C 0.146(1) -0.050(1) 0.3050(9)
C5 C 0.0887(8) -0.137(2) 0.289(1)
C6 C 0.082(1) -0.194(2) 0.345(1)
C7 C 0.0237(9) -0.300(2) 0.3187(9)
C8 C 0.078(1) -0.157(2) 0.495(1)
C9 C 0.1440(9) -0.080(2) 0.1703(9)
C10 C 0.197(1) -0.184(2) 0.198(1)
C11 C 0.104(1) -0.475(3) 0.315(1)
C12 C 0.060(1) -0.427(2) 0.345(2)
C13 C 0.0561(9) -0.491(3) 0.399(1)
C14 C 0.091(1) -0.608(3) 0.4226(8)
C15 C 0.134(1) -0.651(2) 0.394(1)
C16 C 0.142(1) -0.587(3) 0.342(1)
C17 C 0.1944(9) -0.633(2) 0.315(1)
C18 C 0.055(1) -0.437(2) 0.184(1)
C19 C 0.147(1) -0.782(2) 0.551(2)
C20 C 0.219(1) -0.740(2) 0.602(2)
C21 C 0.315(1) -0.531(2) 0.415(1)
C22 C 0.2631(9) -0.549(2) 0.338(1)
C23 C 0.278(1) -0.493(2) 0.285(1)
C24 C 0.340(1) -0.417(2) 0.309(1)
C25 C 0.386(1) -0.393(2) 0.385(1)
C26 C 0.373(1) -0.448(2) 0.440(1)
C27 C 0.4232(8) -0.409(2) 0.5239(9)
C28 C 0.348(1) -0.708(2) 0.496(1)
C29 C 0.4469(9) -0.410(2) 0.264(1)
C30 C 0.453(1) -0.547(2) 0.267(1)
C31 C 0.342(1) -0.244(2) 0.5285(8)
C32 C 0.412(1) -0.275(2) 0.537(8)
C33 C 0.4676(9) -0.187(2) 0.5629(8)
C34 C 0.456(1) -0.065(2) 0.5724(8)
C35 C 0.386(1) -0.033(2) 0.5636(9)
C36 C 0.328(1) -0.115(2) 0.5378(8)
C37 C 0.2514(9) -0.073(1) 0.5227(8)
C38 C 0.2772(9) -0.385(2) 0.563(1)
C39 C 0.603(1) -0.016(1) 0.636(1)
C40 C 0.631(1) -0.081(2) 0.711(1)
H1 H 0.243 0.030 0.394
H2 H 0.051 -0.154 0.234
H3 H -0.006 -0.285 0.344
H4 H -0.011 -0.300 0.262
H5 H 0.075 -0.203 0.536
H6 H 0.026 -0.144 0.451
H7 H 0.104 -0.075 0.515
H8 H 0.151 -0.043 0.129
H9 H 0.092 -0.116 0.147
H10 H 0.191 -0.251 0.161
H11 H 0.190 -0.221 0.239
H12 H 0.249 -0.147 0.221
H13 H 0.028 -0.458 0.423
H14 H 0.161 -0.732 0.415
H15 H 0.211 -0.720 0.333
H16 H 0.165 -0.632 0.258
H17 H 0.064 -0.386 0.148
H18 H 0.004 -0.416 0.177
H19 H 0.057 -0.528 0.174
H20 H 0.155 -0.838 0.516
H21 H 0.129 -0.834 0.579
H22 H 0.253 -0.812 0.629
H23 H 0.214 -0.687 0.639
H24 H 0.241 -0.690 0.576
H25 H 0.243 -0.508 0.229
H26 H 0.428 -0.331 0.401
H27 H 0.477 -0.422 0.541
H28 H 0.409 -0.462 0.555
H29 H 0.338 -0.749 0.534
H30 H 0.403 -0.688 0.521
H31 H 0.334 -0.766 0.452
H32 H 0.483 -0.380 0.317
H33 H 0.463 -0.378 0.229
H34 H 0.504 -0.579 0.283
H35 H 0.416 -0.576 0.214
H36 H 0.436 -0.579 0.302
H37 H 0.519 -0.212 0.574
H38 H 0.378 0.055 0.575
H39 H 0.236 -0.127 0.553
H40 H 0.254 0.016 0.539
H41 H 0.234 -0.444 0.539
H42 H 0.269 -0.321 0.593
H43 H 0.324 -0.433 0.597
H44 H 0.597 -0.078 0.597
H45 H 0.641 0.048 0.642
H46 H 0.680 -0.123 0.729
H47 H 0.592 -0.144 0.704
H48 H 0.636 -0.018 0.749
loop_
_geom_bond_atom_site_label_1
_geom_bond_atom_site_label_2
_geom_bond_site_symmetry_1
_geom_bond_site_symmetry_2
S1 C4 1_555 1_555
S2 C14 1_555 1_555
S3 C24 1_555 1_555
S4 C34 1_555 1_555
O1 C1 1_555 1_555
O2 C11 1_555 1_555
O3 C21 1_555 1_555
O4 C31 1_555 1_555
C1 C2 1_555 1_555
C2 C3 1_555 1_555
C3 C4 1_555 1_555
C4 C5 1_555 1_555
C5 C6 1_555 1_555
C6 C1 1_555 1_555
C7 C6 1_555 1_555
C8 O1 1_555 1_555
C9 S1 1_555 1_555
C10 C9 1_555 1_555
C11 C12 1_555 1_555
C12 C7 1_555 1_555
C13 C12 1_555 1_555
C14 C13 1_555 1_555
C15 C14 1_555 1_555
C16 C11 1_555 1_555
C17 C16 1_555 1_555
C18 O2 1_555 1_555
C19 S2 1_555 1_555
C20 C19 1_555 1_555
C21 C22 1_555 1_555
C22 C17 1_555 1_555
C23 C22 1_555 1_555
C24 C23 1_555 1_555
C25 C24 1_555 1_555
C26 C21 1_555 1_555
C27 C26 1_555 1_555
C28 O3 1_555 1_555
C29 S3 1_555 1_555
C30 C29 1_555 1_555
C31 C32 1_555 1_555
C32 C27 1_555 1_555
C33 C32 1_555 1_555
C34 C33 1_555 1_555
C35 C34 1_555 1_555
C36 C31 1_555 1_555
C37 C2 1_555 1_555
C38 O4 1_555 1_555
C39 S4 1_555 1_555
C40 C39 1_555 1_555
H1 C3 1_555 1_555
H2 C5 1_555 1_555
H3 C7 1_555 1_555
H4 C7 1_555 1_555
H5 C8 1_555 1_555
H6 C8 1_555 1_555
H7 C8 1_555 1_555
H8 C9 1_555 1_555
H9 C9 1_555 1_555
H10 C10 1_555 1_555
H11 C10 1_555 1_555
H12 C10 1_555 1_555
H13 C13 1_555 1_555
H14 C15 1_555 1_555
H15 C17 1_555 1_555
H16 C17 1_555 1_555
H17 C18 1_555 1_555
H18 C18 1_555 1_555
H19 C18 1_555 1_555
H20 C19 1_555 1_555
H21 C19 1_555 1_555
H22 C20 1_555 1_555
H23 C20 1_555 1_555
H24 C20 1_555 1_555
H25 C23 1_555 1_555
H26 C25 1_555 1_555
H27 C27 1_555 1_555
H28 C27 1_555 1_555
H29 C28 1_555 1_555
H30 C28 1_555 1_555
H31 C28 1_555 1_555
H32 C29 1_555 1_555
H33 C29 1_555 1_555
H34 C30 1_555 1_555
H35 C30 1_555 1_555
H36 C30 1_555 1_555
H37 C33 1_555 1_555
H38 C35 1_555 1_555
H39 C37 1_555 1_555
H40 C37 1_555 1_555
H41 C38 1_555 1_555
H42 C38 1_555 1_555
H43 C38 1_555 1_555
H44 C39 1_555 1_555
H45 C39 1_555 1_555
H46 C40 1_555 1_555
H47 C40 1_555 1_555
H48 C40 1_555 1_555
C15 C16 1_555 1_555
C25 C26 1_555 1_555
C35 C36 1_555 1_555
C36 C37 1_555 1_555

#END
