
#######################################################################
#
#                 Cambridge Crystallographic Data Centre
#                                CCDC 
#
#######################################################################
#
# If this CIF has been generated from an entry in the Cambridge 
# Structural Database, then it will include bibliographic, chemical, 
# crystal, experimental, refinement or atomic coordinate data resulting 
# from the CCDC's data processing and validation procedures.
#
#######################################################################

data_JIJHAL
_chemical_formula_moiety         'C32 H28 Br4 O4,C1 H1 Cl3'
_chemical_name_systematic        
'5,11,17,23-Tetrabromo-25,26,27,28-tetramethoxycalix(4)arene chloroform clathrate'
_symmetry_cell_setting           triclinic
_symmetry_space_group_name_H-M   'P -1'
_symmetry_Int_Tables_number      2
_space_group_name_Hall           '-P 1'
loop_
_symmetry_equiv_pos_site_id
_symmetry_equiv_pos_as_xyz
1 x,y,z
2 -x,-y,-z
_cell_length_a                   12.283(7)
_cell_length_b                   17.658(9)
_cell_length_c                   18.118(6)
_cell_angle_alpha                90.25(6)
_cell_angle_beta                 105.95(4)
_cell_angle_gamma                105.11(6)
_cell_volume                     3635.51
_exptl_crystal_colour            colorless
_cell_formula_units_Z            4
loop_
_atom_site_label
_atom_site_type_symbol
_atom_site_fract_x
_atom_site_fract_y
_atom_site_fract_z
Br1 Br 0.8832(4) -0.2267(2) 0.9333(2)
Br2 Br 0.3338(3) 0.0121(2) 0.5637(2)
Br3 Br 0.1113(4) 0.0173(2) 0.9277(2)
Br4 Br 0.1176(4) -0.2216(3) 0.5543(2)
O1 O 0.552(2) -0.181(1) 0.634(1)
O2 O 0.727(2) 0.013(1) 0.848(1)
O3 O 0.478(2) -0.1166(9) 0.8555(9)
O4 O 0.429(2) -0.311(1) 0.840(1)
C1 C 0.629(3) -0.190(2) 0.704(2)
C2 C 0.601(3) -0.262(2) 0.736(2)
C3 C 0.673(3) -0.273(2) 0.805(2)
C4 C 0.778(3) -0.211(2) 0.839(2)
C5 C 0.799(3) -0.139(2) 0.807(2)
C6 C 0.725(3) -0.129(2) 0.740(2)
C7 C 0.742(3) -0.049(2) 0.706(2)
C8 C 0.579(3) -0.199(2) 0.565(2)
C9 C 0.639(3) 0.013(2) 0.784(1)
C10 C 0.645(2) -0.012(2) 0.710(1)
C11 C 0.552(2) -0.009(1) 0.647(2)
C12 C 0.459(3) 0.014(2) 0.654(1)
C13 C 0.449(2) 0.034(1) 0.726(1)
C14 C 0.541(3) 0.034(2) 0.791(2)
C15 C 0.528(2) 0.050(2) 0.871(1)
C16 C 0.818(3) 0.086(2) 0.875(2)
C17 C 0.392(3) -0.088(2) 0.873(1)
C18 C 0.415(3) -0.003(2) 0.879(2)
C19 C 0.328(2) 0.026(2) 0.895(1)
C20 C 0.229(3) -0.024(3) 0.902(2)
C21 C 0.202(3) -0.108(2) 0.893(1)
C22 C 0.290(2) -0.136(1) 0.875(1)
C23 C 0.265(3) -0.226(2) 0.860(1)
C24 C 0.569(3) -0.130(2) 0.921(2)
C25 C 0.358(2) -0.286(1) 0.774(1)
C26 C 0.276(2) -0.248(1) 0.783(1)
C27 C 0.205(2) -0.229(1) 0.715(1)
C28 C 0.222(3) -0.243(2) 0.645(2)
C29 C 0.310(3) -0.278(2) 0.640(2)
C30 C 0.377(2) -0.300(2) 0.705(1)
C31 C 0.484(2) -0.325(2) 0.702(2)
C32 C 0.373(3) -0.391(2) 0.859(2)
H1 H 0.655(5) -0.322(2) 0.832(2)
H3 H 0.742(3) -0.056(2) 0.652(2)
H4 H 0.819(3) -0.013(2) 0.737(2)
H5 H 0.555(2) -0.022(1) 0.594(2)
H6 H 0.378(2) 0.049(1) 0.731(1)
H7 H 0.595(2) 0.038(2) 0.911(1)
H8 H 0.530(2) 0.106(2) 0.879(1)
H9 H 0.340(2) 0.084(2) 0.904(1)
H10 H 0.127(3) -0.142(2) 0.898(1)
H11 H 0.323(3) -0.245(2) 0.901(1)
H12 H 0.183(3) -0.251(2) 0.862(1)
H13 H 0.141(2) -0.204(1) 0.713(1)
H14 H 0.484(2) -0.374(2) 0.730(2)
H15 H 0.476(2) -0.338(2) 0.646(2)
Br5 Br 0.3612(4) 0.4914(2) 0.0820(2)
Br6 Br 0.8117(3) 0.7506(3) 0.4138(3)
Br7 Br 0.3059(4) 0.7191(2) 0.0517(2)
Br8 Br -0.1475(4) 0.5066(2) 0.4222(2)
O5 O 0.189(2) 0.422(1) 0.360(1)
O6 O 0.291(2) 0.6150(9) 0.3643(9)
O7 O 0.121(2) 0.734(1) 0.324(1)
O8 O -0.005(2) 0.520(1) 0.128(1)
C33 C 0.221(3) 0.436(2) 0.295(2)
C34 C 0.152(3) 0.421(2) 0.222(2)
C35 C 0.188(3) 0.437(2) 0.160(2)
C36 C 0.322(3) 0.474(2) 0.173(2)
C37 C 0.378(3) 0.491(2) 0.243(2)
C38 C 0.347(2) 0.476(2) 0.306(1)
C39 C 0.429(3) 0.506(2) 0.386(2)
C40 C 0.196(3) 0.345(2) 0.392(2)
C41 C 0.410(2) 0.643(1) 0.378(1)
C42 C 0.486(3) 0.596(2) 0.391(1)
C43 C 0.606(3) 0.629(2) 0.402(1)
C44 C 0.651(3) 0.706(2) 0.400(2)
C45 C 0.577(3) 0.753(2) 0.385(1)
C46 C 0.454(3) 0.726(2) 0.372(1)
C47 C 0.369(3) 0.777(2) 0.351(2)
C48 C 0.252(3) 0.609(2) 0.433(2)
C49 C 0.160(3) 0.730(2) 0.259(2)
C50 C 0.290(2) 0.753(1) 0.274(1)
C51 C 0.323(2) 0.745(1) 0.209(1)
C52 C 0.265(3) 0.722(2) 0.142(2)
C53 C 0.131(2) 0.694(1) 0.127(2)
C54 C 0.088(3) 0.695(2) 0.191(2)
C55 C -0.040(3) 0.660(2) 0.185(2)
C56 C 0.108(3) 0.813(2) 0.340(2)
C57 C -0.030(3) 0.518(2) 0.200(2)
C58 C -0.061(3) 0.585(2) 0.225(2)
C59 C -0.091(3) 0.582(2) 0.294(2)
C60 C -0.104(3) 0.511(2) 0.332(2)
C61 C -0.061(2) 0.450(2) 0.307(2)
C62 C -0.033(2) 0.449(2) 0.240(1)
C63 C 0.020(2) 0.391(2) 0.214(2)
C64 C -0.111(3) 0.490(2) 0.064(2)
H16 H 0.133(3) 0.426(2) 0.107(2)
H17 H 0.462(3) 0.522(2) 0.251(2)
H18 H 0.383(3) 0.494(2) 0.424(2)
H19 H 0.492(3) 0.478(2) 0.393(2)
H20 H 0.659(3) 0.594(2) 0.411(1)
H21 H 0.612(3) 0.811(2) 0.383(1)
H22 H 0.414(3) 0.834(2) 0.355(2)
H23 H 0.319(3) 0.770(2) 0.388(2)
H24 H 0.410(2) 0.760(1) 0.218(1)
H25 H 0.077(2) 0.674(1) 0.075(2)
H26 H -0.060(3) 0.700(2) 0.211(2)
H27 H -0.080(3) 0.650(2) 0.129(2)
H28 H -0.103(3) 0.629(2) 0.317(2)
H29 H 0.008(2) 0.345(2) 0.246(2)
H30 H -0.022(2) 0.373(2) 0.159(2)
C65 C 1.048(4) -0.033(3) 0.629(2)
Cl1 Cl 0.952(2) 0.033(1) 0.5795(9)
Cl2 Cl 1.108(1) 0.013(2) 0.7140(8)
Cl3 Cl 0.935(2) -0.116(1) 0.623(2)
H2? H 0.370(2) -0.096(2) 0.834(2)
C66? C 0.393(4) 0.314(2) 0.872(2)
Cl4? Cl 0.370(2) 0.305(1) 0.9503(9)
Cl5? Cl 0.236(1) 0.3792(9) 0.810(1)
Cl6? Cl 0.335(2) 0.322(1) 0.805(1)
Cl7? Cl 1.013(4) -0.084(2) 0.706(2)
Cl8? Cl 0.911(5) -0.066(2) 0.565(2)
Cl9? Cl 1.090(5) 0.058(4) 0.639(5)
Cl10? Cl 0.346(5) 0.456(3) 0.292(3)
Cl11? Cl 0.283(5) 0.239(3) 0.913(3)
Cl12? Cl 0.367(6) 0.305(3) 0.796(4)
loop_
_geom_bond_atom_site_label_1
_geom_bond_atom_site_label_2
_geom_bond_site_symmetry_1
_geom_bond_site_symmetry_2
Br1 C4 1_555 1_555
Br2 C12 1_555 1_555
Br3 C20 1_555 1_555
Br4 C28 1_555 1_555
Br5 C36 1_555 1_555
Br6 C44 1_555 1_555
Br7 C52 1_555 1_555
Br8 C60 1_555 1_555
O1 C1 1_555 1_555
O2 C9 1_555 1_555
O3 C17 1_555 1_555
O4 C25 1_555 1_555
O5 C33 1_555 1_555
O6 C41 1_555 1_555
O7 C49 1_555 1_555
O8 C57 1_555 1_555
C1 C2 1_555 1_555
C2 C3 1_555 1_555
C3 C4 1_555 1_555
C4 C5 1_555 1_555
C5 C6 1_555 1_555
C6 C1 1_555 1_555
C7 C6 1_555 1_555
C8 O1 1_555 1_555
C9 C10 1_555 1_555
C10 C7 1_555 1_555
C11 C10 1_555 1_555
C12 C11 1_555 1_555
C13 C12 1_555 1_555
C14 C9 1_555 1_555
C15 C14 1_555 1_555
C16 O2 1_555 1_555
C17 C18 1_555 1_555
C18 C15 1_555 1_555
C19 C18 1_555 1_555
C20 C19 1_555 1_555
C21 C20 1_555 1_555
C22 C17 1_555 1_555
C23 C22 1_555 1_555
C24 O3 1_555 1_555
C25 C26 1_555 1_555
C26 C23 1_555 1_555
C27 C26 1_555 1_555
C28 C27 1_555 1_555
C29 C28 1_555 1_555
C30 C25 1_555 1_555
C31 C2 1_555 1_555
C32 O4 1_555 1_555
C33 C34 1_555 1_555
C34 C35 1_555 1_555
C35 C36 1_555 1_555
C36 C37 1_555 1_555
C37 C38 1_555 1_555
C38 C33 1_555 1_555
C39 C38 1_555 1_555
C40 O5 1_555 1_555
C41 C42 1_555 1_555
C42 C39 1_555 1_555
C43 C42 1_555 1_555
C44 C43 1_555 1_555
C45 C44 1_555 1_555
C46 C41 1_555 1_555
C47 C46 1_555 1_555
C48 O6 1_555 1_555
C49 C50 1_555 1_555
C50 C47 1_555 1_555
C51 C50 1_555 1_555
C52 C51 1_555 1_555
C53 C52 1_555 1_555
C54 C49 1_555 1_555
C55 C54 1_555 1_555
C56 O7 1_555 1_555
C57 C58 1_555 1_555
C58 C55 1_555 1_555
C59 C58 1_555 1_555
C60 C59 1_555 1_555
C61 C60 1_555 1_555
C62 C57 1_555 1_555
C63 C34 1_555 1_555
C64 O8 1_555 1_555
H1 C3 1_555 1_555
H3 C7 1_555 1_555
H4 C7 1_555 1_555
H5 C11 1_555 1_555
H6 C13 1_555 1_555
H7 C15 1_555 1_555
H8 C15 1_555 1_555
H9 C19 1_555 1_555
H10 C21 1_555 1_555
H11 C23 1_555 1_555
H12 C23 1_555 1_555
H13 C27 1_555 1_555
H14 C31 1_555 1_555
H15 C31 1_555 1_555
H16 C35 1_555 1_555
H17 C37 1_555 1_555
H18 C39 1_555 1_555
H19 C39 1_555 1_555
H20 C43 1_555 1_555
H21 C45 1_555 1_555
H22 C47 1_555 1_555
H23 C47 1_555 1_555
H24 C51 1_555 1_555
H25 C53 1_555 1_555
H26 C55 1_555 1_555
H27 C55 1_555 1_555
H28 C59 1_555 1_555
H29 C63 1_555 1_555
H30 C63 1_555 1_555
C65 Cl1 1_555 1_555
Cl2 C65 1_555 1_555
Cl3 C65 1_555 1_555
C13 C14 1_555 1_555
C21 C22 1_555 1_555
C29 C30 1_555 1_555
C30 C31 1_555 1_555
C45 C46 1_555 1_555
C53 C54 1_555 1_555
C61 C62 1_555 1_555
C62 C63 1_555 1_555

#END
