
#######################################################################
#
#                 Cambridge Crystallographic Data Centre
#                                CCDC 
#
#######################################################################
#
# If this CIF has been generated from an entry in the Cambridge 
# Structural Database, then it will include bibliographic, chemical, 
# crystal, experimental, refinement or atomic coordinate data resulting 
# from the CCDC's data processing and validation procedures.
#
#######################################################################

data_JIJHIW
_chemical_formula_moiety         'C23 H23 Cl1 N2 O4'
_chemical_name_systematic        
't-butyl 4-chloro-3-(hydroxymethyl)-3-[(1H-indol-3-yl)methyl]-2-oxo-2,3-dihydro-1H-indole-1-carboxylate'
_symmetry_cell_setting           monoclinic
_symmetry_space_group_name_H-M   'P 21'
_symmetry_Int_Tables_number      4
_space_group_name_Hall           'P 2yb'
loop_
_symmetry_equiv_pos_site_id
_symmetry_equiv_pos_as_xyz
1 x,y,z
2 -x,1/2+y,-z
_cell_length_a                   8.8442(2)
_cell_length_b                   10.8918(2)
_cell_length_c                   11.5077(3)
_cell_angle_alpha                90
_cell_angle_beta                 90.266(3)
_cell_angle_gamma                90
_cell_volume                     1108.52
_exptl_crystal_colour            colorless
_exptl_crystal_description       prism
_cell_formula_units_Z            2
loop_
_atom_site_label
_atom_site_type_symbol
_atom_site_fract_x
_atom_site_fract_y
_atom_site_fract_z
C1 C 0.7559(4) 0.5197(4) 1.0203(4)
C2 C 0.8370(5) 0.4709(5) 1.1126(4)
H1 H 0.8751 0.5221 1.1704
C3 C 0.8608(5) 0.3471(5) 1.1180(4)
H2 H 0.9154 0.3149 1.1802
C4 C 0.8056(5) 0.2681(4) 1.0333(4)
H3 H 0.8227 0.1839 1.0374
C5 C 0.7241(4) 0.3192(3) 0.9425(3)
C6 C 0.6989(4) 0.4442(3) 0.9343(3)
C7 C 0.6204(4) 0.4737(3) 0.8204(3)
C8 C 0.5863(4) 0.3461(3) 0.7720(3)
C9 C 0.4704(5) 0.5419(3) 0.8307(4)
H4 H 0.4863 0.6196 0.8701
H5 H 0.4301 0.5588 0.7538
C10 C 0.7287(4) 0.5380(3) 0.7333(3)
H6 H 0.6790 0.5433 0.6582
H7 H 0.7477 0.6211 0.7600
C11 C 1.0008(5) 0.4887(4) 0.7866(4)
H8 H 1.0088 0.5462 0.8461
C12 C 0.8765(4) 0.4738(3) 0.7188(3)
C13 C 0.9142(4) 0.3780(3) 0.6392(3)
C14 C 1.0624(4) 0.3390(4) 0.6670(4)
C15 C 1.1359(6) 0.2443(5) 0.6086(5)
H9 H 1.2328 0.2194 0.6296
C16 C 1.0599(8) 0.1903(6) 0.5203(6)
H10 H 1.1056 0.1262 0.4801
C17 C 0.9153(8) 0.2277(6) 0.4875(5)
H11 H 0.8680 0.1896 0.4249
C18 C 0.8402(5) 0.3202(5) 0.5459(4)
H12 H 0.7431 0.3436 0.5239
C19 C 0.6677(4) 0.1325(3) 0.8231(3)
C20 C 0.6331(5) -0.0214(4) 0.6714(4)
C21 C 0.5225(8) -0.1005(5) 0.7362(6)
H13 H 0.5110 -0.1776 0.6966
H14 H 0.4264 -0.0597 0.7398
H15 H 0.5595 -0.1148 0.8136
C22 C 0.7936(6) -0.0677(6) 0.6777(5)
H16 H 0.8232 -0.0768 0.7576
H17 H 0.8596 -0.0101 0.6403
H18 H 0.8003 -0.1457 0.6392
C23 C 0.5833(7) -0.0004(5) 0.5464(5)
H19 H 0.6503 0.0572 0.5100
H20 H 0.4821 0.0316 0.5452
H21 H 0.5859 -0.0769 0.5048
Cl1 Cl 0.72673(17) 0.67801(10) 1.01526(13)
N1 N 0.6586(3) 0.2586(3) 0.8438(2)
N2 N 1.1118(4) 0.4096(4) 0.7569(3)
H22 H 1.1993 0.4047 0.7896
O1 O 0.5098(3) 0.3249(2) 0.6892(2)
O2 O 0.3660(3) 0.4700(3) 0.8939(2)
H23 H 0.3588 0.4970 0.9601
O3 O 0.7115(4) 0.0615(2) 0.8960(2)
O4 O 0.6270(3) 0.1058(2) 0.7175(2)
loop_
_geom_bond_atom_site_label_1
_geom_bond_atom_site_label_2
_geom_bond_site_symmetry_1
_geom_bond_site_symmetry_2
C1 C2 1_555 1_555
C2 H1 1_555 1_555
C3 C2 1_555 1_555
H2 C3 1_555 1_555
C4 C3 1_555 1_555
H3 C4 1_555 1_555
C5 C4 1_555 1_555
C6 C1 1_555 1_555
C7 C6 1_555 1_555
C8 C7 1_555 1_555
C9 C7 1_555 1_555
H4 C9 1_555 1_555
H5 C9 1_555 1_555
C10 C7 1_555 1_555
H6 C10 1_555 1_555
H7 C10 1_555 1_555
C11 H8 1_555 1_555
C12 C10 1_555 1_555
C13 C12 1_555 1_555
C14 C13 1_555 1_555
C15 C14 1_555 1_555
H9 C15 1_555 1_555
C16 C15 1_555 1_555
H10 C16 1_555 1_555
C17 C16 1_555 1_555
H11 C17 1_555 1_555
C18 C13 1_555 1_555
H12 C18 1_555 1_555
C19 N1 1_555 1_555
C20 C21 1_555 1_555
C21 H13 1_555 1_555
H14 C21 1_555 1_555
H15 C21 1_555 1_555
C22 C20 1_555 1_555
H16 C22 1_555 1_555
H17 C22 1_555 1_555
H18 C22 1_555 1_555
C23 C20 1_555 1_555
H19 C23 1_555 1_555
H20 C23 1_555 1_555
H21 C23 1_555 1_555
Cl1 C1 1_555 1_555
N1 C5 1_555 1_555
N2 C11 1_555 1_555
H22 N2 1_555 1_555
O1 C8 1_555 1_555
O2 C9 1_555 1_555
H23 O2 1_555 1_555
O3 C19 1_555 1_555
O4 C19 1_555 1_555
C5 C6 1_555 1_555
C8 N1 1_555 1_555
C11 C12 1_555 1_555
C14 N2 1_555 1_555
C17 C18 1_555 1_555
C20 O4 1_555 1_555

#END
