
#######################################################################
#
#                 Cambridge Crystallographic Data Centre
#                                CCDC 
#
#######################################################################
#
# If this CIF has been generated from an entry in the Cambridge 
# Structural Database, then it will include bibliographic, chemical, 
# crystal, experimental, refinement or atomic coordinate data resulting 
# from the CCDC's data processing and validation procedures.
#
#######################################################################

data_JIJHIT
_chemical_formula_moiety         'C31 H27 N1 O5,2(C2 H3 N1)'
_chemical_name_systematic        
'1,4,7,16,25-Pentaoxa(7)(2,3)naphthalino(2)(2,6)pyridino(2)(2,3)naphthalinophane diacetonitrile clathrate'
_symmetry_cell_setting           monoclinic
_symmetry_space_group_name_H-M   'P 21/c'
_symmetry_Int_Tables_number      14
_space_group_name_Hall           '-P 2ybc'
loop_
_symmetry_equiv_pos_site_id
_symmetry_equiv_pos_as_xyz
1 x,y,z
2 -x,1/2+y,1/2-z
3 -x,-y,-z
4 x,1/2-y,1/2+z
_cell_length_a                   12.178(5)
_cell_length_b                   8.186(1)
_cell_length_c                   30.873(1)
_cell_angle_alpha                90
_cell_angle_beta                 96.86(1)
_cell_angle_gamma                90
_cell_volume                     3055.67
_cell_formula_units_Z            4
loop_
_atom_site_label
_atom_site_type_symbol
_atom_site_fract_x
_atom_site_fract_y
_atom_site_fract_z
N1 N 1.0367(3) 0.2214(5) 0.0327(1)
C1 C 0.9612(3) 0.2148(6) -0.0027(1)
C2 C 0.8597(3) 0.1140(6) 0.0025(1)
O1 O 0.7920(2) 0.2093(4) 0.02858(9)
C3 C 0.7034(3) 0.1272(6) 0.0420(1)
C4 C 0.6492(3) 0.2155(6) 0.0733(1)
O2 O 0.6927(2) 0.3661(4) 0.08393(9)
C5 C 0.6487(4) 0.4512(7) 0.1186(1)
C6 C 0.7109(4) 0.6098(7) 0.1252(2)
O3 O 0.8189(2) 0.5742(3) 0.14619(9)
C7 C 0.8823(4) 0.7193(6) 0.1555(2)
C8 C 0.9903(4) 0.6708(7) 0.1811(1)
O4 O 1.0559(2) 0.5888(4) 0.15175(8)
C9 C 1.1542(3) 0.5232(6) 0.1706(1)
C10 C 1.2153(3) 0.4376(6) 0.1413(1)
O5 O 1.1656(2) 0.4315(4) 0.09921(8)
C11 C 1.2092(3) 0.3181(6) 0.0705(1)
C12 C 1.1289(3) 0.3119(6) 0.0299(1)
C13 C 1.1481(4) 0.3934(6) -0.0078(1)
C14 C 1.0696(4) 0.3829(7) -0.0441(1)
C15 C 0.9748(4) 0.2898(6) -0.0418(1)
C16 C 0.6674(3) -0.0218(6) 0.0281(1)
C17 C 0.5737(3) -0.0946(6) 0.0440(1)
C18 C 0.5329(4) -0.2482(6) 0.0294(2)
C19 C 0.4418(4) -0.3173(7) 0.0452(2)
C20 C 0.3904(4) -0.2329(7) 0.0770(2)
C21 C 0.4270(4) -0.0816(7) 0.0915(2)
C22 C 0.5202(3) -0.0093(6) 0.0755(1)
C23 C 0.5601(3) 0.1473(7) 0.0896(1)
C24 C 1.1932(4) 0.5357(6) 0.2137(1)
C25 C 1.2948(4) 0.4589(6) 0.2300(1)
C26 C 1.3342(4) 0.4645(7) 0.2751(1)
C27 C 1.4305(4) 0.3849(8) 0.2906(2)
C28 C 1.4918(4) 0.3021(8) 0.2618(2)
C29 C 1.4562(4) 0.2970(7) 0.2179(2)
C30 C 1.3563(4) 0.3756(6) 0.2010(1)
C31 C 1.3141(4) 0.3676(6) 0.1562(1)
H1 H 0.880(4) 0.008(7) 0.019(2)
H2 H 0.816(4) 0.083(7) -0.029(2)
H3 H 0.662(4) 0.379(7) 0.149(2)
H4 H 0.574(4) 0.469(7) 0.110(2)
H5 H 0.670(4) 0.706(7) 0.144(2)
H6 H 0.727(4) 0.660(7) 0.094(2)
H7 H 0.845(4) 0.813(7) 0.173(2)
H8 H 0.891(4) 0.769(7) 0.124(2)
H9 H 0.979(4) 0.608(7) 0.209(2)
H10 H 1.030(4) 0.766(7) 0.195(2)
H11 H 1.220(4) 0.204(7) 0.085(2)
H12 H 1.289(4) 0.370(7) 0.064(2)
H13 H 1.215(4) 0.462(7) -0.006(2)
H14 H 1.089(4) 0.435(7) -0.073(2)
H15 H 0.925(4) 0.268(7) -0.071(2)
H16 H 0.699(4) -0.082(7) 0.005(2)
H17 H 0.571(4) -0.308(7) 0.005(2)
H18 H 0.417(5) -0.433(8) 0.032(2)
H19 H 0.334(5) -0.287(8) 0.091(2)
H20 H 0.390(5) -0.010(8) 0.115(2)
H21 H 0.519(4) 0.211(7) 0.115(2)
H22 H 1.144(4) 0.602(7) 0.236(2)
H23 H 1.287(4) 0.518(8) 0.298(2)
H24 H 1.455(5) 0.387(8) 0.325(2)
H25 H 1.555(5) 0.239(8) 0.276(2)
H26 H 1.508(5) 0.229(8) 0.195(2)
H27 H 1.360(4) 0.303(7) 0.137(2)
N2 N 0.9528(6) 0.203(1) 0.2094(1)
C32 C 0.9477(5) 0.1969(8) 0.1729(2)
C33 C 0.9441(5) 0.1934(8) 0.1269(2)
H28 H 0.876(5) 0.175(9) 0.103(2)
H29 H 0.979(5) 0.310(8) 0.119(2)
H30 H 1.003(5) 0.098(8) 0.121(2)
N3 N 1.2152(5) -0.0435(8) 0.1564(2)
C34 C 1.2214(5) -0.0195(8) 0.1930(2)
C35 C 1.2283(6) 0.013(1) 0.2387(2)
H31 H 1.287(6) -0.031(1) 0.257(2)
H32 H 1.219(6) 0.12(1) 0.249(2)
H33 H 1.181(6) -0.04(1) 0.254(2)
loop_
_geom_bond_atom_site_label_1
_geom_bond_atom_site_label_2
_geom_bond_site_symmetry_1
_geom_bond_site_symmetry_2
N1 C1 1_555 1_555
C1 C2 1_555 1_555
C2 O1 1_555 1_555
O1 C3 1_555 1_555
C3 C4 1_555 1_555
C4 O2 1_555 1_555
O2 C5 1_555 1_555
C5 C6 1_555 1_555
C6 O3 1_555 1_555
O3 C7 1_555 1_555
C7 C8 1_555 1_555
C8 O4 1_555 1_555
O4 C9 1_555 1_555
C9 C10 1_555 1_555
C10 O5 1_555 1_555
O5 C11 1_555 1_555
C11 C12 1_555 1_555
C12 N1 1_555 1_555
C13 C12 1_555 1_555
C14 C13 1_555 1_555
C15 C1 1_555 1_555
C16 C3 1_555 1_555
C17 C16 1_555 1_555
C18 C17 1_555 1_555
C19 C18 1_555 1_555
C20 C19 1_555 1_555
C21 C20 1_555 1_555
C22 C17 1_555 1_555
C23 C4 1_555 1_555
C24 C9 1_555 1_555
C25 C24 1_555 1_555
C26 C25 1_555 1_555
C27 C26 1_555 1_555
C28 C27 1_555 1_555
C29 C28 1_555 1_555
C30 C25 1_555 1_555
C31 C10 1_555 1_555
N2 C32 1_555 1_555
C32 C33 1_555 1_555
C33 H28 1_555 1_555
N3 C34 1_555 1_555
C34 C35 1_555 1_555
C35 H31 1_555 1_555
H1 C2 1_555 1_555
H2 C2 1_555 1_555
H3 C5 1_555 1_555
H4 C5 1_555 1_555
H5 C6 1_555 1_555
H6 C6 1_555 1_555
H7 C7 1_555 1_555
H8 C7 1_555 1_555
H9 C8 1_555 1_555
H10 C8 1_555 1_555
H11 C11 1_555 1_555
H12 C11 1_555 1_555
H13 C13 1_555 1_555
H14 C14 1_555 1_555
H15 C15 1_555 1_555
H16 C16 1_555 1_555
H17 C18 1_555 1_555
H18 C19 1_555 1_555
H19 C20 1_555 1_555
H20 C21 1_555 1_555
H21 C23 1_555 1_555
H22 C24 1_555 1_555
H23 C26 1_555 1_555
H24 C27 1_555 1_555
H25 C28 1_555 1_555
H26 C29 1_555 1_555
H27 C31 1_555 1_555
H29 C33 1_555 1_555
H30 C33 1_555 1_555
H32 C35 1_555 1_555
H33 C35 1_555 1_555
C14 C15 1_555 1_555
C21 C22 1_555 1_555
C22 C23 1_555 1_555
C29 C30 1_555 1_555
C30 C31 1_555 1_555

#END
