
#######################################################################
#
#                 Cambridge Crystallographic Data Centre
#                                CCDC 
#
#######################################################################
#
# If this CIF has been generated from an entry in the Cambridge 
# Structural Database, then it will include bibliographic, chemical, 
# crystal, experimental, refinement or atomic coordinate data resulting 
# from the CCDC's data processing and validation procedures.
#
#######################################################################

data_JIJJUH
_chemical_formula_moiety         'C37 H44 O8 S1'
_chemical_name_systematic        
5-Menthyloxy-4-phenylthiolato(veratryl)methyl-3-(1-piperonyl)hydroxymethyl-furan-2-one
_symmetry_cell_setting           monoclinic
_symmetry_space_group_name_H-M   'P 21'
_symmetry_Int_Tables_number      4
_space_group_name_Hall           'P 2yb'
loop_
_symmetry_equiv_pos_site_id
_symmetry_equiv_pos_as_xyz
1 x,y,z
2 -x,1/2+y,-z
_cell_length_a                   12.689(4)
_cell_length_b                   5.807(3)
_cell_length_c                   23.274(6)
_cell_angle_alpha                90
_cell_angle_beta                 90.51(2)
_cell_angle_gamma                90
_cell_volume                     1714.88
_cell_formula_units_Z            2
loop_
_atom_site_label
_atom_site_type_symbol
_atom_site_fract_x
_atom_site_fract_y
_atom_site_fract_z
S1 S 0.0655(2) 0.6939 0.1852(1)
C1 C 0.2690(5) 0.8530(11) 0.1969(2)
C2 C 0.3723(5) 0.8373(11) 0.2176(2)
C3 C 0.4035(5) 0.6471(11) 0.2502(2)
C4 C 0.3314(5) 0.4726(11) 0.2621(2)
C5 C 0.2281(5) 0.4883(11) 0.2415(2)
C6 C 0.1969(5) 0.6785(11) 0.2089(2)
C7 C 0.0075(5) 0.8759(15) 0.2408(3)
C8 C 0.0303(5) 0.7837(13) 0.2998(3)
C9 C 0.1134(5) 0.8777(14) 0.3324(3)
C10 C 0.1446(5) 0.7843(13) 0.3837(3)
O1 O 0.2244(4) 0.8600(11) 0.4174(2)
C11 C 0.2900(6) 1.0322(18) 0.3954(4)
C12 C 0.0882(6) 0.5896(14) 0.4056(3)
O2 O 0.1243(5) 0.5103(11) 0.4572(2)
C13 C 0.0746(9) 0.3105(17) 0.4793(4)
C14 C 0.0061(6) 0.5051(14) 0.3751(3)
C15 C -0.0223(6) 0.5991(13) 0.3229(3)
C16 C -0.1104(5) 0.8999(14) 0.2255(2)
C17 C -0.1727(5) 1.0383(13) 0.2692(3)
C18 C -0.2655(5) 0.9200(14) 0.2979(3)
O3 O -0.3434(4) 0.8648(10) 0.2562(2)
C19 C -0.3118(5) 1.0626(14) 0.3466(3)
C20 C -0.2556(6) 1.0911(17) 0.3966(3)
C21 C -0.2911(6) 1.2286(19) 0.4413(3)
C22 C -0.3821(6) 1.3424(16) 0.4323(3)
O4 O -0.4339(5) 1.4869(12) 0.4689(2)
C23 C -0.5172(8) 1.5719(23) 0.4366(4)
O5 O -0.5295(5) 1.4415(13) 0.3865(2)
C24 C -0.4394(6) 1.3170(15) 0.3829(3)
C25 C -0.4067(6) 1.1766(16) 0.3383(3)
C26 C -0.2078(6) 1.2521(14) 0.2361(3)
O6 O -0.2580(5) 1.4112(10) 0.2535(2)
O7 O -0.1720(4) 1.2447(10) 0.1827(2)
C27 C -0.1263(5) 1.0197(13) 0.1684(3)
O8 O -0.1978(3) 0.9036(10) 0.1345(2)
C28 C -0.2085(5) 0.9908(14) 0.0769(3)
C29 C -0.1396(6) 0.8521(16) 0.0372(3)
C30 C -0.1470(7) 0.9219(17) -0.0252(3)
C31 C -0.0789(8) 0.7762(20) -0.0635(4)
C32 C -0.2609(7) 0.9292(18) -0.0441(3)
C33 C -0.3286(6) 1.0674(17) -0.0042(3)
C34 C -0.3224(5) 0.9886(13) 0.0577(3)
C35 C -0.3962(6) 1.1107(14) 0.0992(3)
C36 C -0.3839(8) 1.3707(17) 0.0995(4)
C37 C -0.5104(6) 1.0463(20) 0.0858(4)
H1 H 0.2476(5) 0.9839(11) 0.1745(2)
H2 H 0.4220(5) 0.9574(11) 0.2094(2)
H3 H 0.4746(5) 0.6364(11) 0.2644(2)
H4 H 0.3529(5) 0.3417(11) 0.2845(2)
H5 H 0.1785(5) 0.3682(11) 0.2497(2)
H6 H 0.0382(5) 1.0269(5) 0.2418(3)
H7 H 0.1498(5) 1.0107(14) 0.3182(3)
H8 H 0.3424(6) 1.0596(18) 0.4246(4)
H9 H 0.2536(6) 1.1732(18) 0.3869(4)
H10 H 0.3235(6) 0.9467(18) 0.3613(4)
H11 H 0.1132(9) 0.2684(17) 0.5134(4)
H12 H 0.0735(9) 0.1830(17) 0.4530(4)
H13 H 0.0037(9) 0.3505(17) 0.4893(4)
H14 H -0.0331(6) 0.3773(14) 0.3899(3)
H15 H -0.0809(6) 0.5343(13) 0.3022(3)
H16 H -0.1363(5) 0.7445(14) 0.2247(2)
H17 H -0.1282(5) 1.0666(13) 0.3020(3)
H18 H -0.2395(5) 0.7814(14) 0.3155(3)
H19 H -0.1886(6) 1.0158(17) 0.4005(3)
H20 H -0.2537(6) 1.2371(19) 0.4773(3)
H21 H -0.5807(8) 1.5623(23) 0.4585(4)
H22 H -0.5039(8) 1.7297(23) 0.4267(4)
H23 H -0.4474(6) 1.1585(16) 0.3036(3)
H24 H -0.0611(5) 1.0279(13) 0.1479(3)
H25 H -0.1857(5) 1.1484(14) 0.0759(3)
H26 H -0.1591(6) 0.6928(16) 0.0402(3)
H27 H -0.0678(6) 0.8710(16) 0.0496(3)
H28 H -0.1190(7) 1.0746(17) -0.0292(3)
H29 H -0.0843(9) 0.8191(20) -0.1033(4)
H30 H -0.1046(8) 0.6219(20) -0.0587(4)
H31 H -0.0066(8) 0.7838(20) -0.0513(4)
H32 H -0.2874(7) 0.7746(18) -0.0464(3)
H33 H -0.2646(7) 0.9997(18) -0.0814(3)
H34 H -0.3076(6) 1.2262(17) -0.0060(3)
H35 H -0.4004(6) 1.0524(17) -0.0171(3)
H36 H -0.3492(5) 0.8341(13) 0.0586(3)
H37 H -0.3765(6) 1.0580(14) 0.1369(3)
H38 H -0.3103(8) 1.3998(17) 0.1060(4)
H39 H -0.4234(8) 1.4228(17) 0.1320(4)
H40 H -0.4071(8) 1.4516(17) 0.0657(4)
H41 H -0.5256(6) 0.8845(20) 0.0873(4)
H42 H -0.5305(6) 1.1059(20) 0.0488(4)
H43 H -0.5491(6) 1.1246(20) 0.1152(4)
loop_
_geom_bond_atom_site_label_1
_geom_bond_atom_site_label_2
_geom_bond_site_symmetry_1
_geom_bond_site_symmetry_2
S1 C6 1_555 1_555
C1 C2 1_555 1_555
C2 C3 1_555 1_555
C3 C4 1_555 1_555
C4 C5 1_555 1_555
C5 C6 1_555 1_555
C6 C1 1_555 1_555
C7 S1 1_555 1_555
C8 C7 1_555 1_555
C9 C8 1_555 1_555
C10 C9 1_555 1_555
O1 C10 1_555 1_555
C11 O1 1_555 1_555
C12 C10 1_555 1_555
O2 C12 1_555 1_555
C13 O2 1_555 1_555
C14 C12 1_555 1_555
C15 C8 1_555 1_555
C16 C7 1_555 1_555
C17 C16 1_555 1_555
C18 C17 1_555 1_555
O3 C18 1_555 1_555
C19 C18 1_555 1_555
C20 C19 1_555 1_555
C21 C20 1_555 1_555
C22 C21 1_555 1_555
O4 C22 1_555 1_555
C23 O4 1_555 1_555
O5 C23 1_555 1_555
C24 C22 1_555 1_555
C25 C19 1_555 1_555
C26 C17 1_555 1_555
O6 C26 1_555 1_555
O7 C26 1_555 1_555
C27 C16 1_555 1_555
O8 C27 1_555 1_555
C28 O8 1_555 1_555
C29 C28 1_555 1_555
C30 C29 1_555 1_555
C31 C30 1_555 1_555
C32 C30 1_555 1_555
C33 C32 1_555 1_555
C34 C28 1_555 1_555
C35 C34 1_555 1_555
C36 C35 1_555 1_555
C37 C35 1_555 1_555
H1 C1 1_555 1_555
H2 C2 1_555 1_555
H3 C3 1_555 1_555
H4 C4 1_555 1_555
H5 C5 1_555 1_555
H6 C7 1_555 1_555
H7 C9 1_555 1_555
H8 C11 1_555 1_555
H9 C11 1_555 1_555
H10 C11 1_555 1_555
H11 C13 1_555 1_555
H12 C13 1_555 1_555
H13 C13 1_555 1_555
H14 C14 1_555 1_555
H15 C15 1_555 1_555
H16 C16 1_555 1_555
H17 C17 1_555 1_555
H18 C18 1_555 1_555
H19 C20 1_555 1_555
H20 C21 1_555 1_555
H21 C23 1_555 1_555
H22 C23 1_555 1_555
H23 C25 1_555 1_555
H24 C27 1_555 1_555
H25 C28 1_555 1_555
H26 C29 1_555 1_555
H27 C29 1_555 1_555
H28 C30 1_555 1_555
H29 C31 1_555 1_555
H30 C31 1_555 1_555
H31 C31 1_555 1_555
H32 C32 1_555 1_555
H33 C32 1_555 1_555
H34 C33 1_555 1_555
H35 C33 1_555 1_555
H36 C34 1_555 1_555
H37 C35 1_555 1_555
H38 C36 1_555 1_555
H39 C36 1_555 1_555
H40 C36 1_555 1_555
H41 C37 1_555 1_555
H42 C37 1_555 1_555
H43 C37 1_555 1_555
C14 C15 1_555 1_555
O5 C24 1_555 1_555
C24 C25 1_555 1_555
O7 C27 1_555 1_555
C33 C34 1_555 1_555

#END
