
#######################################################################
#
#                 Cambridge Crystallographic Data Centre
#                                CCDC 
#
#######################################################################
#
# If this CIF has been generated from an entry in the Cambridge 
# Structural Database, then it will include bibliographic, chemical, 
# crystal, experimental, refinement or atomic coordinate data resulting 
# from the CCDC's data processing and validation procedures.
#
#######################################################################

data_JIJKOF
_chemical_formula_moiety         'C20 H19 N1 O4'
_chemical_name_systematic        
'ethyl 6a-hydroxy-2,11b-dimethyl-6a,11b-dihydro[1]benzofuro[2,3-c]quinoline-6-carboxylate'
_symmetry_cell_setting           monoclinic
_symmetry_space_group_name_H-M   'P 21/n'
_symmetry_Int_Tables_number      14
_space_group_name_Hall           '-P 2yn'
loop_
_symmetry_equiv_pos_site_id
_symmetry_equiv_pos_as_xyz
1 x,y,z
2 1/2-x,1/2+y,1/2-z
3 -x,-y,-z
4 1/2+x,1/2-y,1/2+z
_cell_length_a                   10.194(2)
_cell_length_b                   14.232(3)
_cell_length_c                   12.523(3)
_cell_angle_alpha                90
_cell_angle_beta                 106.045(6)
_cell_angle_gamma                90
_cell_volume                     1746.07
_cell_formula_units_Z            4
loop_
_atom_site_label
_atom_site_type_symbol
_atom_site_fract_x
_atom_site_fract_y
_atom_site_fract_z
O1 O 0.30972(13) 0.21902(9) 0.53354(10)
C1 C -0.00618(17) 0.19893(12) 0.44107(13)
N1 N 0.09173(18) 0.08244(11) 0.58808(13)
C2 C 0.2019(2) 0.07790(13) 0.55900(15)
C3 C 0.10898(17) 0.18474(13) 0.38727(13)
C4 C -0.11308(18) 0.26033(13) 0.39524(15)
H1 H -0.1107 0.2949 0.3328
C5 C 0.17155(17) 0.27797(13) 0.37078(14)
C6 C 0.28369(18) 0.29393(14) 0.46091(15)
C7 C -0.0111(2) 0.14738(13) 0.53478(15)
O2 O 0.42065(19) 0.00565(13) 0.60195(16)
C8 C 0.23422(18) 0.13939(13) 0.47164(14)
C9 C -0.2223(2) 0.27197(15) 0.43871(18)
C10 C -0.1201(2) 0.15781(18) 0.57924(19)
H2 H -0.1234 0.1229 0.6412
C11 C 0.0559(2) 0.12730(16) 0.28077(16)
H3 H 0.0278 0.0664 0.2989
H4 H 0.1271 0.1204 0.2447
H5 H -0.0204 0.1591 0.2319
C12 C 0.1360(2) 0.34475(15) 0.28775(16)
H6 H 0.0627 0.3346 0.2255
O3 O 0.2776(2) -0.03511(13) 0.69988(15)
C13 C 0.3582(2) 0.37521(16) 0.47382(18)
H7 H 0.4318 0.3853 0.5359
C14 C 0.3121(3) 0.01172(15) 0.62146(18)
C15 C 0.3193(2) 0.44137(18) 0.3908(2)
H8 H 0.3677 0.4975 0.3974
C16 C 0.2110(2) 0.42686(17) 0.29847(19)
H9 H 0.1882 0.4724 0.2432
C17 C -0.2238(2) 0.21953(18) 0.5323(2)
H10 H -0.2961 0.2264 0.5635
C18 C -0.3358(3) 0.3392(2) 0.3857(2)
H11 H -0.3274 0.3581 0.3142
H12 H -0.3300 0.3936 0.4321
H13 H -0.4222 0.3089 0.3768
C19 C 0.3814(4) -0.0990(2) 0.7679(3)
H14 H 0.3420 -0.1606 0.7715
H15 H 0.4568 -0.1058 0.7353
C20 C 0.4299(6) -0.0589(5) 0.8796(4)
H16 H 0.4841 -0.0042 0.8773
H17 H 0.4843 -0.1045 0.9289
H18 H 0.3531 -0.0417 0.9057
O4 O 0.31227(16) 0.09631(12) 0.41108(12)
H19 H 0.3745 0.0669 0.4533
H20? H 0.3830 -0.1552 0.7245
H21? H 0.4697 -0.0689 0.7801
C21? C 0.3699(15) -0.1227(13) 0.8555(11)
H22? H 0.3595 -0.0683 0.8976
H23? H 0.4498 -0.1569 0.8949
H24? H 0.2910 -0.1623 0.8449
loop_
_geom_bond_atom_site_label_1
_geom_bond_atom_site_label_2
_geom_bond_site_symmetry_1
_geom_bond_site_symmetry_2
O1 C6 1_555 1_555
C1 C3 1_555 1_555
N1 C2 1_555 1_555
C2 C8 1_555 1_555
C3 C5 1_555 1_555
C4 C1 1_555 1_555
H1 C4 1_555 1_555
C5 C6 1_555 1_555
C6 C13 1_555 1_555
C7 C1 1_555 1_555
O2 C14 1_555 1_555
C8 O1 1_555 1_555
C9 C4 1_555 1_555
C10 C7 1_555 1_555
H2 C10 1_555 1_555
C11 C3 1_555 1_555
H3 C11 1_555 1_555
H4 C11 1_555 1_555
H5 C11 1_555 1_555
C12 C5 1_555 1_555
H6 C12 1_555 1_555
O3 C14 1_555 1_555
C13 H7 1_555 1_555
C14 C2 1_555 1_555
C15 C13 1_555 1_555
H8 C15 1_555 1_555
C16 C12 1_555 1_555
H9 C16 1_555 1_555
C17 C9 1_555 1_555
H10 C17 1_555 1_555
C18 C9 1_555 1_555
H11 C18 1_555 1_555
H12 C18 1_555 1_555
H13 C18 1_555 1_555
C19 O3 1_555 1_555
H14 C19 1_555 1_555
H15 C19 1_555 1_555
C20 C19 1_555 1_555
H16 C20 1_555 1_555
H17 C20 1_555 1_555
H18 C20 1_555 1_555
O4 C8 1_555 1_555
H19 O4 1_555 1_555
N1 C7 1_555 1_555
C3 C8 1_555 1_555
C10 C17 1_555 1_555
C15 C16 1_555 1_555

#END
