
#######################################################################
#
#                 Cambridge Crystallographic Data Centre
#                                CCDC 
#
#######################################################################
#
# If this CIF has been generated from an entry in the Cambridge 
# Structural Database, then it will include bibliographic, chemical, 
# crystal, experimental, refinement or atomic coordinate data resulting 
# from the CCDC's data processing and validation procedures.
#
#######################################################################

data_JIJKUL
_chemical_formula_moiety         'C20 H20 N2 O5'
_chemical_name_systematic        
6a-hydroxy-2,4-dimethoxy-N,11b-dimethyl-6a,11b-dihydro[1]benzofuro[2,3-c]quinoline-6-carboxamide
_symmetry_cell_setting           triclinic
_symmetry_space_group_name_H-M   'P -1'
_symmetry_Int_Tables_number      2
_space_group_name_Hall           '-P 1'
loop_
_symmetry_equiv_pos_site_id
_symmetry_equiv_pos_as_xyz
1 x,y,z
2 -x,-y,-z
_cell_length_a                   9.1376(8)
_cell_length_b                   9.5813(9)
_cell_length_c                   10.8392(10)
_cell_angle_alpha                105.957(3)
_cell_angle_beta                 95.789(3)
_cell_angle_gamma                98.506(3)
_cell_volume                     892.32
_cell_formula_units_Z            2
loop_
_atom_site_label
_atom_site_type_symbol
_atom_site_fract_x
_atom_site_fract_y
_atom_site_fract_z
O1 O 0.08483(11) 0.16067(11) 0.13650(9)
N1 N -0.10878(12) 0.29890(13) 0.34178(11)
O2 O -0.24049(11) 0.18552(12) 0.50932(11)
O3 O 0.16467(12) 0.40996(14) 0.15462(12)
H1 H 0.0981 0.4310 0.1102
C1 C 0.21892(16) 0.24130(17) 0.53908(13)
H2 H 0.3222 0.2509 0.5435
C2 C 0.21536(14) 0.32410(14) 0.33794(12)
O4 O -0.11160(14) 0.41586(19) 0.06327(14)
C3 C -0.01935(15) 0.25492(15) 0.43142(13)
O5 O 0.24214(13) 0.17894(16) 0.73178(10)
C4 C 0.13652(15) 0.26930(14) 0.43795(12)
C5 C -0.05395(15) 0.33179(15) 0.24711(13)
C6 C 0.30646(14) 0.21162(14) 0.27422(12)
C7 C -0.08911(15) 0.20518(15) 0.52578(13)
C8 C 0.44762(15) 0.18804(16) 0.31052(14)
H3 H 0.5088 0.2522 0.3840
C9 C -0.00521(17) 0.17793(16) 0.62738(14)
H4 H -0.0516 0.1461 0.6899
C10 C 0.14942(17) 0.19892(17) 0.63437(13)
C11 C 0.21871(15) 0.11750(16) 0.16258(13)
C12 C 0.10196(15) 0.31441(16) 0.21838(13)
N2 N -0.29092(15) 0.38967(18) 0.18568(15)
H5 H -0.3139 0.3638 0.2522
C13 C 0.49668(17) 0.06609(18) 0.23479(16)
H6 H 0.5918 0.0488 0.2573
C14 C -0.15501(16) 0.38399(17) 0.15704(15)
C15 C -0.3140(2) 0.1467(2) 0.6085(2)
H7 H -0.4201 0.1389 0.5871
H8 H -0.2786 0.2213 0.6899
H9 H -0.2929 0.0536 0.6152
C16 C 0.26336(19) -0.00536(18) 0.08813(15)
H10 H 0.2015 -0.0698 0.0151
C17 C 0.4046(2) -0.02895(19) 0.12662(16)
H11 H 0.4381 -0.1110 0.0782
C18 C 0.30416(18) 0.47965(17) 0.40320(17)
H12 H 0.2367 0.5452 0.4330
H13 H 0.3583 0.5128 0.3420
H14 H 0.3733 0.4788 0.4757
C19 C 0.1787(3) 0.1535(3) 0.84004(18)
H15 H 0.1109 0.0604 0.8128
H16 H 0.1254 0.2311 0.8748
H17 H 0.2569 0.1519 0.9055
C20 C -0.4038(2) 0.4371(2) 0.1112(2)
H18 H -0.3804 0.4252 0.0250
H19 H -0.4060 0.5391 0.1522
H20 H -0.4998 0.3783 0.1072
loop_
_geom_bond_atom_site_label_1
_geom_bond_atom_site_label_2
_geom_bond_site_symmetry_1
_geom_bond_site_symmetry_2
O1 C11 1_555 1_555
N1 C3 1_555 1_555
O2 C7 1_555 1_555
O3 H1 1_555 1_555
C1 H2 1_555 1_555
C2 C4 1_555 1_555
O4 C14 1_555 1_555
C3 C4 1_555 1_555
O5 C10 1_555 1_555
C4 C1 1_555 1_555
C5 N1 1_555 1_555
C6 C2 1_555 1_555
C7 C3 1_555 1_555
C8 C6 1_555 1_555
H3 C8 1_555 1_555
C9 C7 1_555 1_555
H4 C9 1_555 1_555
C10 C1 1_555 1_555
C11 C6 1_555 1_555
C12 O1 1_555 1_555
N2 H5 1_555 1_555
C13 C8 1_555 1_555
H6 C13 1_555 1_555
C14 C5 1_555 1_555
C15 O2 1_555 1_555
H7 C15 1_555 1_555
H8 C15 1_555 1_555
H9 C15 1_555 1_555
C16 C11 1_555 1_555
H10 C16 1_555 1_555
C17 C13 1_555 1_555
H11 C17 1_555 1_555
C18 C2 1_555 1_555
H12 C18 1_555 1_555
H13 C18 1_555 1_555
H14 C18 1_555 1_555
C19 O5 1_555 1_555
H15 C19 1_555 1_555
H16 C19 1_555 1_555
H17 C19 1_555 1_555
C20 N2 1_555 1_555
H18 C20 1_555 1_555
H19 C20 1_555 1_555
H20 C20 1_555 1_555
O3 C12 1_555 1_555
C2 C12 1_555 1_555
C5 C12 1_555 1_555
C9 C10 1_555 1_555
N2 C14 1_555 1_555
C16 C17 1_555 1_555

#END
