
#######################################################################
#
#                 Cambridge Crystallographic Data Centre
#                                CCDC 
#
#######################################################################
#
# If this CIF has been generated from an entry in the Cambridge 
# Structural Database, then it will include bibliographic, chemical, 
# crystal, experimental, refinement or atomic coordinate data resulting 
# from the CCDC's data processing and validation procedures.
#
#######################################################################

data_JIJLEW
_chemical_formula_moiety         'C22 H22 F1 N3 O3,C1 H4 O1'
_chemical_name_systematic        
't-butyl [(3-cyano-6-fluoro-2-oxo-1,2,3,4-tetrahydroquinolin-3-yl)(phenyl)methyl]carbamate methanol solvate'
_symmetry_cell_setting           monoclinic
_symmetry_space_group_name_H-M   'P 21/c'
_symmetry_Int_Tables_number      14
_space_group_name_Hall           '-P 2ybc'
loop_
_symmetry_equiv_pos_site_id
_symmetry_equiv_pos_as_xyz
1 x,y,z
2 -x,1/2+y,1/2-z
3 -x,-y,-z
4 x,1/2-y,1/2+z
_cell_length_a                   11.8968(11)
_cell_length_b                   18.4254(17)
_cell_length_c                   10.7033(8)
_cell_angle_alpha                90
_cell_angle_beta                 103.556(8)
_cell_angle_gamma                90
_cell_volume                     2280.84
_exptl_crystal_colour            white
_exptl_crystal_description       Needle
_cell_formula_units_Z            4
_exptl_crystal_recrystallization_method Dichloromethane/methanol
loop_
_atom_site_label
_atom_site_type_symbol
_atom_site_fract_x
_atom_site_fract_y
_atom_site_fract_z
O1 O 0.50752(14) 0.56035(11) 0.20378(16)
F1 F 1.02588(16) 0.58134(11) -0.03895(16)
O2 O 0.66731(17) 0.66901(10) 0.44002(17)
O3 O 0.41917(15) 0.53817(11) 0.36596(17)
N1 N 0.60594(16) 0.50796(11) 0.38424(18)
H1 H 0.6067 0.4881 0.4571
N2 N 0.73623(19) 0.67347(11) 0.2617(2)
C1 C 0.7144(2) 0.50689(13) 0.3440(2)
H2 H 0.6963 0.5153 0.2510
C2 C 0.7277(2) 0.64276(14) 0.3733(2)
C3 C 0.5040(2) 0.53654(14) 0.3205(2)
C4 C 0.7949(2) 0.57140(13) 0.4102(2)
C5 C 0.8970(2) 0.59840(14) 0.2339(2)
N3 N 0.8377(2) 0.55536(15) 0.6593(2)
C6 C 0.7741(2) 0.43312(14) 0.3690(2)
C7 C 0.8086(2) 0.64677(14) 0.1832(2)
C8 C 0.9124(2) 0.57482(15) 0.3714(2)
H3 H 0.9631 0.6087 0.4272
H4 H 0.9486 0.5273 0.3828
C9 C 0.8176(2) 0.56284(15) 0.5509(3)
C10 C 0.9702(2) 0.57595(15) 0.1574(3)
H5 H 1.0302 0.5437 0.1891
C11 C 0.7914(3) 0.67124(15) 0.0579(3)
H6 H 0.7307 0.7027 0.0246
C12 C 0.7678(2) 0.39092(15) 0.4742(3)
H7 H 0.7278 0.4078 0.5333
C13 C 0.9522(3) 0.60228(17) 0.0345(3)
C14 C 0.8646(3) 0.64886(16) -0.0180(3)
H8 H 0.8544 0.6651 -0.1022
C15 C 0.8355(2) 0.40682(15) 0.2838(3)
H9 H 0.8407 0.4346 0.2129
C16 C 0.8211(3) 0.32362(17) 0.4915(3)
H10 H 0.8159 0.2954 0.5619
C17 C 0.4024(3) 0.5929(2) 0.1203(3)
C18 C 0.8815(3) 0.29813(17) 0.4059(4)
H11 H 0.9168 0.2528 0.4180
C19 C 0.8892(3) 0.34002(18) 0.3024(4)
H12 H 0.9307 0.3234 0.2445
C20 C 0.4463(3) 0.6152(2) 0.0035(3)
H13 H 0.5049 0.6517 0.0279
H14 H 0.3833 0.6343 -0.0612
H15 H 0.4782 0.5737 -0.0300
C21 C 0.3083(3) 0.5355(3) 0.0844(3)
H16 H 0.3372 0.4949 0.0452
H17 H 0.2426 0.5557 0.0250
H18 H 0.2857 0.5196 0.1604
C22 C 0.3658(4) 0.6584(2) 0.1854(4)
H19 H 0.3297 0.6429 0.2522
H20 H 0.3120 0.6867 0.1235
H21 H 0.4325 0.6874 0.2220
O4 O 0.6206(3) 0.70138(14) 0.6713(3)
H22 H 0.6377 0.6822 0.6091
C23 C 0.5543(4) 0.6560(2) 0.7207(4)
H23 H 0.5915 0.6096 0.7362
H24 H 0.4807 0.6506 0.6612
H25 H 0.5432 0.6755 0.8002
loop_
_geom_bond_atom_site_label_1
_geom_bond_atom_site_label_2
_geom_bond_site_symmetry_1
_geom_bond_site_symmetry_2
O1 C3 1_555 1_555
F1 C13 1_555 1_555
O2 C2 1_555 1_555
O3 C3 1_555 1_555
N1 H1 1_555 1_555
N2 C2 1_555 1_555
C1 N1 1_555 1_555
H2 C1 1_555 1_555
C2 C4 1_555 1_555
C3 N1 1_555 1_555
C4 C1 1_555 1_555
C5 C7 1_555 1_555
N3 C9 1_555 1_555
C6 C1 1_555 1_555
C7 N2 1_555 1_555
C8 C4 1_555 1_555
H3 C8 1_555 1_555
H4 C8 1_555 1_555
C9 C4 1_555 1_555
C10 C5 1_555 1_555
H5 C10 1_555 1_555
C11 C7 1_555 1_555
H6 C11 1_555 1_555
C12 C6 1_555 1_555
H7 C12 1_555 1_555
C13 C10 1_555 1_555
C14 C11 1_555 1_555
H8 C14 1_555 1_555
C15 C6 1_555 1_555
H9 C15 1_555 1_555
C16 C12 1_555 1_555
H10 C16 1_555 1_555
C17 O1 1_555 1_555
C18 C16 1_555 1_555
H11 C18 1_555 1_555
C19 C15 1_555 1_555
H12 C19 1_555 1_555
C20 C17 1_555 1_555
H13 C20 1_555 1_555
H14 C20 1_555 1_555
H15 C20 1_555 1_555
C21 C17 1_555 1_555
H16 C21 1_555 1_555
H17 C21 1_555 1_555
H18 C21 1_555 1_555
C22 C17 1_555 1_555
H19 C22 1_555 1_555
H20 C22 1_555 1_555
H21 C22 1_555 1_555
O4 H22 1_555 1_555
C23 O4 1_555 1_555
H23 C23 1_555 1_555
H24 C23 1_555 1_555
H25 C23 1_555 1_555
C5 C8 1_555 1_555
C13 C14 1_555 1_555
C18 C19 1_555 1_555

#END
