
#######################################################################
#
#                 Cambridge Crystallographic Data Centre
#                                CCDC 
#
#######################################################################
#
# If this CIF has been generated from an entry in the Cambridge 
# Structural Database, then it will include bibliographic, chemical, 
# crystal, experimental, refinement or atomic coordinate data resulting 
# from the CCDC's data processing and validation procedures.
#
#######################################################################

data_JIJNEY
_chemical_formula_moiety         
'C36 H36 N24 O12,C18 H22 N2 O4 2+,2(Cl1 O4 1-),6(H2 O1)'
_chemical_name_systematic        
"1,1'-(hexane-1,6-diyl)bis(4-carboxypyridinium) diperchlorate cucurbit(6)uril hexahydrate"
_symmetry_cell_setting           triclinic
_symmetry_space_group_name_H-M   'P -1'
_symmetry_Int_Tables_number      2
_space_group_name_Hall           '-P 1'
loop_
_symmetry_equiv_pos_site_id
_symmetry_equiv_pos_as_xyz
1 x,y,z
2 -x,-y,-z
_cell_length_a                   12.1092(6)
_cell_length_b                   12.2000(7)
_cell_length_c                   12.8040(7)
_cell_angle_alpha                106.917(4)
_cell_angle_beta                 112.567(4)
_cell_angle_gamma                92.559(4)
_cell_volume                     1644.78
_exptl_crystal_colour            colorless
_exptl_crystal_description       block
_cell_formula_units_Z            1
loop_
_atom_site_label
_atom_site_type_symbol
_atom_site_fract_x
_atom_site_fract_y
_atom_site_fract_z
Cl1 Cl 0.34180(11) 0.67506(12) 0.00213(11)
O1 O 0.2195(3) 0.6219(4) -0.0331(3)
O2 O 0.3685(4) 0.6546(4) -0.1006(4)
O3 O 0.4238(4) 0.6318(5) 0.0845(4)
O4 O 0.3533(5) 0.7985(4) 0.0524(5)
O5 O 1.0950(3) 0.6237(3) 0.4874(3)
O6 O 1.3089(3) 0.8435(3) 0.7419(3)
O7 O 0.5946(3) 0.9240(3) 0.3053(3)
O8 O 0.9800(3) 0.6691(3) 0.1827(3)
O9 O 0.6933(3) 0.8734(3) 0.5946(3)
O10 O 0.9140(3) 1.0823(3) 0.8548(3)
N1 N 0.7274(3) 0.7150(3) 0.4673(3)
N2 N 0.8885(3) 0.6236(3) 0.4246(3)
N3 N 0.6513(3) 0.8432(3) 0.1507(3)
N4 N 1.1492(3) 0.8228(3) 0.7937(3)
N5 N 0.9963(3) 0.9147(3) 0.8499(3)
N6 N 1.0034(3) 0.6706(3) 0.6190(3)
N7 N 1.2821(3) 0.9884(3) 0.8868(3)
N8 N 0.8501(3) 0.7749(3) 0.6613(3)
N9 N 0.8153(3) 0.6487(3) 0.2298(3)
N10 N 0.6635(3) 0.7489(3) 0.2779(3)
N11 N 1.1210(3) 1.0849(3) 0.9266(3)
N12 N 0.8058(3) 0.7432(3) 0.1030(3)
C1 C 1.2515(4) 0.8808(4) 0.8010(4)
C2 C 0.6323(4) 0.8468(4) 0.2498(4)
C3 C 0.8785(4) 0.6858(4) 0.1732(4)
C4 C 1.0056(4) 0.6388(4) 0.5083(4)
C5 C 1.0007(4) 1.0325(4) 0.8739(4)
C6 C 0.8009(4) 0.6255(4) 0.4768(4)
H1 H 0.7498 0.5470 0.4474
C7 C 0.6914(4) 0.6682(4) 0.1872(4)
H2 H 0.6321 0.5933 0.1466
C8 C 1.1156(4) 0.8834(4) 0.8900(4)
H3 H 1.1268 0.8405 0.9480
C9 C 0.6265(4) 0.7122(4) 0.3592(4)
H4 H 0.5722 0.7635 0.3811
H5 H 0.5796 0.6319 0.3173
C10 C 0.8829(4) 0.6642(4) 0.6138(4)
H6 H 0.8663 0.6065 0.6499
C11 C 1.2038(4) 1.0027(4) 0.9494(4)
H7 H 1.2512 1.0193 1.0374
C12 C 0.6844(4) 0.7341(4) 0.0984(4)
H8 H 0.6220 0.6904 0.0156
C13 C 0.7509(4) 0.7959(4) 0.5765(4)
C14 C 0.8555(4) 0.5711(4) 0.2968(4)
H9 H 0.9266 0.5425 0.2853
H10 H 0.7899 0.5029 0.2640
C15 C 0.6167(4) 0.9261(4) 0.0887(4)
H11 H 0.5567 0.9669 0.1123
H12 H 0.5766 0.8836 0.0012
C16 C 0.8854(4) 0.8322(4) 0.7892(4)
H13 H 0.8193 0.8726 0.7997
H14 H 0.8932 0.7719 0.8279
C17 C 1.1110(4) 0.6990(4) 0.7282(4)
H15 H 1.1778 0.6682 0.7092
H16 H 1.0962 0.6597 0.7805
C18 C 0.8416(4) 0.7900(4) 0.0278(4)
H17 H 0.7726 0.7680 -0.0521
H18 H 0.9095 0.7535 0.0167
O5A O 0.9050(3) 1.3763(3) 0.5126(3)
O6A O 0.6911(3) 1.1565(3) 0.2581(3)
O7A O 1.4054(3) 1.0760(3) 0.6947(3)
O8A O 1.0200(3) 1.3309(3) 0.8173(3)
O9A O 1.3067(3) 1.1266(3) 0.4054(3)
O10A O 1.0860(3) 0.9177(3) 0.1452(3)
N1A N 1.2726(3) 1.2850(3) 0.5327(3)
N2A N 1.1115(3) 1.3764(3) 0.5754(3)
N3A N 1.3487(3) 1.1568(3) 0.8493(3)
N4A N 0.8508(3) 1.1772(3) 0.2063(3)
N5A N 1.0037(3) 1.0853(3) 0.1501(3)
N6A N 0.9966(3) 1.3294(3) 0.3810(3)
N7A N 0.7179(3) 1.0116(3) 0.1132(3)
N8A N 1.1499(3) 1.2251(3) 0.3387(3)
N9A N 1.1847(3) 1.3513(3) 0.7702(3)
N10A N 1.3365(3) 1.2511(3) 0.7221(3)
N11A N 0.8790(3) 0.9151(3) 0.0734(3)
N12A N 1.1942(3) 1.2568(3) 0.8970(3)
C1A C 0.7485(4) 1.1192(4) 0.1990(4)
C2A C 1.3677(4) 1.1532(4) 0.7502(4)
C3A C 1.1215(4) 1.3142(4) 0.8268(4)
C4A C 0.9944(4) 1.3612(4) 0.4917(4)
C5A C 0.9993(4) 0.9675(4) 0.1261(4)
C6A C 1.1991(4) 1.3745(4) 0.5232(4)
H1A H 1.2502 1.4530 0.5526
C7A C 1.3086(4) 1.3318(4) 0.8128(4)
H2A H 1.3679 1.4067 0.8534
C8A C 0.8844(4) 1.1166(4) 0.1100(4)
H3A H 0.8732 1.1595 0.0520
C9A C 1.3735(4) 1.2878(4) 0.6408(4)
H4A H 1.4278 1.2365 0.6189
H5A H 1.4204 1.3681 0.6827
C10A C 1.1171(4) 1.3358(4) 0.3862(4)
H6A H 1.1337 1.3935 0.3501
C11A C 0.7962(4) 0.9973(4) 0.0506(4)
H7A H 0.7488 0.9807 -0.0374
C12A C 1.3156(4) 1.2659(4) 0.9016(4)
H8A H 1.3780 1.3096 0.9844
C13A C 1.2491(4) 1.2041(4) 0.4235(4)
C14A C 1.1445(4) 1.4289(4) 0.7032(4)
H9A H 1.0734 1.4575 0.7147
H10A H 1.2101 1.4971 0.7360
C15A C 1.3833(4) 1.0739(4) 0.9113(4)
H11A H 1.4433 1.0331 0.8877
H12A H 1.4234 1.1164 0.9988
C16A C 1.1146(4) 1.1678(4) 0.2108(4)
H13A H 1.1807 1.1274 0.2003
H14A H 1.1068 1.2281 0.1721
C17A C 0.8890(4) 1.3010(4) 0.2718(4)
H15A H 0.8222 1.3318 0.2908
H16A H 0.9038 1.3403 0.2195
C18A C 1.1584(4) 1.2100(4) 0.9722(4)
H17A H 1.2274 1.2320 1.0521
H18A H 1.0905 1.2465 0.9833
O11 O 1.4781(3) 0.2500(3) 0.2049(3)
H19 H 1.5527 0.2479 0.2136
H20 H 1.4623 0.1986 0.2345
N13 N 1.2557(3) 0.7955(3) 0.3995(3)
O12 O 1.4133(4) 0.4467(4) 0.2476(4)
O13 O 1.3730(4) 0.4114(3) 0.3915(4)
C19 C 1.2432(4) 0.7373(4) 0.2876(4)
H21 H 1.2054 0.7678 0.2247
C20 C 1.3378(4) 0.5887(4) 0.3563(4)
C21 C 1.0495(4) 1.0027(4) 0.4780(4)
H22 H 1.0151 1.0156 0.3997
H23 H 1.1142 1.0703 0.5353
C22 C 1.2062(4) 0.9046(4) 0.4237(4)
H24 H 1.1749 0.9258 0.3499
H25 H 1.2726 0.9681 0.4866
C23 C 1.3114(4) 0.7556(4) 0.4896(4)
H26 H 1.3226 0.7998 0.5686
C24 C 1.3523(4) 0.6525(4) 0.4701(4)
H27 H 1.3908 0.6248 0.5350
C25 C 1.2851(4) 0.6336(4) 0.2639(4)
H28 H 1.2780 0.5933 0.1854
C26 C 1.1055(4) 0.8939(4) 0.4637(4)
H29 H 1.1382 0.8794 0.5412
H30 H 1.0419 0.8265 0.4040
C27 C 1.3765(4) 0.4720(5) 0.3333(5)
H31 H 1.417(8) 0.365(7) 0.239(7)
N13A N 0.7443(3) 1.2045(3) 0.6005(3)
O12A O 0.5867(4) 1.5533(4) 0.7524(4)
O13A O 0.6270(4) 1.5886(3) 0.6085(4)
C19A C 0.7568(4) 1.2627(4) 0.7124(4)
H21A H 0.7946 1.2322 0.7753
C20A C 0.6622(4) 1.4113(4) 0.6437(4)
C21A C 0.9505(4) 0.9973(4) 0.5220(4)
H22A H 0.9849 0.9844 0.6003
H23A H 0.8858 0.9297 0.4647
C22A C 0.7938(4) 1.0954(4) 0.5763(4)
H24A H 0.8251 1.0742 0.6501
H25A H 0.7274 1.0319 0.5134
C23A C 0.6886(4) 1.2444(4) 0.5104(4)
H26A H 0.6774 1.2002 0.4314
C24A C 0.6477(4) 1.3475(4) 0.5299(4)
H27A H 0.6092 1.3752 0.4650
C25A C 0.7149(4) 1.3664(4) 0.7361(4)
H28A H 0.7220 1.4067 0.8146
C26A C 0.8945(4) 1.1061(4) 0.5363(4)
H29A H 0.8618 1.1206 0.4588
H30A H 0.9581 1.1735 0.5960
C27A C 0.6235(4) 1.5280(5) 0.6667(5)
H31A H 0.583(8) 1.635(7) 0.761(7)
O14 O 1.4151(4) 0.0650(3) 0.2494(3)
H32 H 1.4073 0.0798 0.3167
H33 H 1.4621 0.0130 0.2508
O15 O -0.0443(4) 0.5684(4) -0.1300(4)
H34 H 0.0026 0.5976 -0.0537
H35 H -0.0378 0.4959 -0.1568
loop_
_geom_bond_atom_site_label_1
_geom_bond_atom_site_label_2
_geom_bond_site_symmetry_1
_geom_bond_site_symmetry_2
Cl1 O1 1_555 1_555
O2 Cl1 1_555 1_555
O3 Cl1 1_555 1_555
O4 Cl1 1_555 1_555
O5 C4 1_555 1_555
O6 C1 1_555 1_555
O7 C2 1_555 1_555
O8 C3 1_555 1_555
O9 C13 1_555 1_555
O10 C5 1_555 1_555
N1 C6 1_555 1_555
N2 C4 1_555 1_555
N3 C2 1_555 1_555
N4 C1 1_555 1_555
N5 C5 1_555 1_555
N6 C4 1_555 1_555
N7 C1 1_555 1_555
N8 C10 1_555 1_555
N9 C3 1_555 1_555
N10 C2 1_555 1_555
N11 C5 1_555 1_555
N12 C3 1_555 1_555
C6 N2 1_555 1_555
H1 C6 1_555 1_555
C7 N9 1_555 1_555
H2 C7 1_555 1_555
C8 N4 1_555 1_555
H3 C8 1_555 1_555
C9 N1 1_555 1_555
H4 C9 1_555 1_555
H5 C9 1_555 1_555
C10 N6 1_555 1_555
H6 C10 1_555 1_555
C11 N7 1_555 1_555
H7 C11 1_555 1_555
C12 N3 1_555 1_555
H8 C12 1_555 1_555
C13 N1 1_555 1_555
C14 N2 1_555 1_555
H9 C14 1_555 1_555
H10 C14 1_555 1_555
C15 N3 1_555 1_555
H11 C15 1_555 1_555
H12 C15 1_555 1_555
C16 N5 1_555 1_555
H13 C16 1_555 1_555
H14 C16 1_555 1_555
C17 N4 1_555 1_555
H15 C17 1_555 1_555
H16 C17 1_555 1_555
C18 N12 1_555 1_555
H17 C18 1_555 1_555
H18 C18 1_555 1_555
O11 H19 1_555 1_555
H20 O11 1_555 1_555
N13 C19 1_555 1_555
O12 C27 1_555 1_555
O13 C27 1_555 1_555
C19 H21 1_555 1_555
C20 C24 1_555 1_555
C21 H22 1_555 1_555
H23 C21 1_555 1_555
C22 N13 1_555 1_555
H24 C22 1_555 1_555
H25 C22 1_555 1_555
C23 N13 1_555 1_555
H26 C23 1_555 1_555
C24 C23 1_555 1_555
H27 C24 1_555 1_555
C25 C19 1_555 1_555
H28 C25 1_555 1_555
C26 C21 1_555 1_555
H29 C26 1_555 1_555
H30 C26 1_555 1_555
C27 C20 1_555 1_555
H31 O12 1_555 1_555
O14 H32 1_555 1_555
H33 O14 1_555 1_555
O15 H34 1_555 1_555
H35 O15 1_555 1_555
O5A C4A 1_555 1_555
O6A C1A 1_555 1_555
O7A C2A 1_555 1_555
O8A C3A 1_555 1_555
O9A C13A 1_555 1_555
O10A C5A 1_555 1_555
N1A C6A 1_555 1_555
N2A C4A 1_555 1_555
N3A C2A 1_555 1_555
N4A C1A 1_555 1_555
N5A C5A 1_555 1_555
N6A C4A 1_555 1_555
N7A C15 1_555 1_555
N8A C10A 1_555 1_555
N9A C3A 1_555 1_555
N10A C2A 1_555 1_555
N11A C18 1_555 1_555
N12A C3A 1_555 1_555
C1A N7A 1_555 1_555
C5A N11A 1_555 1_555
C6A N2A 1_555 1_555
H1A C6A 1_555 1_555
C7A N9A 1_555 1_555
H2A C7A 1_555 1_555
C8A N4A 1_555 1_555
H3A C8A 1_555 1_555
C9A N1A 1_555 1_555
H4A C9A 1_555 1_555
H5A C9A 1_555 1_555
C10A N6A 1_555 1_555
H6A C10A 1_555 1_555
C11A N7A 1_555 1_555
H7A C11A 1_555 1_555
C12A N3A 1_555 1_555
H8A C12A 1_555 1_555
C13A N1A 1_555 1_555
C14A N2A 1_555 1_555
H9A C14A 1_555 1_555
H10A C14A 1_555 1_555
C15A N7 1_555 1_555
H11A C15A 1_555 1_555
H12A C15A 1_555 1_555
C16A N5A 1_555 1_555
H13A C16A 1_555 1_555
H14A C16A 1_555 1_555
C17A N4A 1_555 1_555
H15A C17A 1_555 1_555
H16A C17A 1_555 1_555
C18A N11 1_555 1_555
H17A C18A 1_555 1_555
H18A C18A 1_555 1_555
N13A C19A 1_555 1_555
O12A C27A 1_555 1_555
O13A C27A 1_555 1_555
C19A H21A 1_555 1_555
C20A C24A 1_555 1_555
C21A C21 1_555 1_555
H22A C21A 1_555 1_555
H23A C21A 1_555 1_555
C22A N13A 1_555 1_555
H24A C22A 1_555 1_555
H25A C22A 1_555 1_555
C23A N13A 1_555 1_555
H26A C23A 1_555 1_555
C24A C23A 1_555 1_555
H27A C24A 1_555 1_555
C25A C19A 1_555 1_555
H28A C25A 1_555 1_555
C26A C21A 1_555 1_555
H29A C26A 1_555 1_555
H30A C26A 1_555 1_555
C27A C20A 1_555 1_555
H31A O12A 1_555 1_555
N5 C8 1_555 1_555
N6 C17 1_555 1_555
N8 C13 1_555 1_555
N8 C16 1_555 1_555
N9 C14 1_555 1_555
N10 C7 1_555 1_555
N10 C9 1_555 1_555
N11 C11 1_555 1_555
N12 C12 1_555 1_555
C6 C10 1_555 1_555
C7 C12 1_555 1_555
C8 C11 1_555 1_555
C20 C25 1_555 1_555
C22 C26 1_555 1_555
N3A C15A 1_555 1_555
N5A C8A 1_555 1_555
N6A C17A 1_555 1_555
N8A C13A 1_555 1_555
N8A C16A 1_555 1_555
N9A C14A 1_555 1_555
N10A C7A 1_555 1_555
N10A C9A 1_555 1_555
N11A C11A 1_555 1_555
N12A C12A 1_555 1_555
N12A C18A 1_555 1_555
C6A C10A 1_555 1_555
C7A C12A 1_555 1_555
C8A C11A 1_555 1_555
C20A C25A 1_555 1_555
C22A C26A 1_555 1_555

#END
