
#######################################################################
#
#                 Cambridge Crystallographic Data Centre
#                                CCDC 
#
#######################################################################
#
# If this CIF has been generated from an entry in the Cambridge 
# Structural Database, then it will include bibliographic, chemical, 
# crystal, experimental, refinement or atomic coordinate data resulting 
# from the CCDC's data processing and validation procedures.
#
#######################################################################

data_JIJNIC
_chemical_formula_moiety         
'2(C36 H36 N24 O12),2(C18 H22 N2 O4 2+),4(Cl1 O4 1-),14(H2 O1)'
_chemical_name_systematic        
"bis(1,1'-(hexane-1,6-diyl)bis(4-carboxypyridin-1-ium)) tetrakis(perchlorate) bis(cucurbit[6]uril) tetradecahydrate"
_symmetry_cell_setting           triclinic
_symmetry_space_group_name_H-M   'P -1'
_symmetry_Int_Tables_number      2
_space_group_name_Hall           '-P 1'
loop_
_symmetry_equiv_pos_site_id
_symmetry_equiv_pos_as_xyz
1 x,y,z
2 -x,-y,-z
_cell_length_a                   12.6870(12)
_cell_length_b                   15.9445(15)
_cell_length_c                   35.622(3)
_cell_angle_alpha                86.375(5)
_cell_angle_beta                 88.628(5)
_cell_angle_gamma                67.119(4)
_cell_volume                     6625.61
_exptl_crystal_colour            colorless
_exptl_crystal_description       block
_cell_formula_units_Z            2
loop_
_atom_site_label
_atom_site_type_symbol
_atom_site_fract_x
_atom_site_fract_y
_atom_site_fract_z
C1 C 0.9652(7) 0.3856(5) 0.7617(3)
H1 H 1.0471 0.3608 0.7698
C2 C 0.7055(7) 0.4608(5) 0.8776(3)
H2 H 0.7232 0.4607 0.9048
C3 C 0.9562(8) 0.3894(5) 0.7194(3)
H3 H 1.0336 0.3672 0.7074
C4 C 0.6602(7) 0.4669(5) 0.6139(3)
H4 H 0.6692 0.4660 0.5860
C5 C 0.1745(7) 0.7305(5) 0.7547(3)
C6 C 0.2366(7) 0.5884(5) 0.6473(3)
H5 H 0.1657 0.6096 0.6315
C7 C 0.0904(7) 0.6348(5) 0.7808(3)
H6 H 0.0120 0.6610 0.7919
C8 C 0.8635(8) 0.5239(6) 0.6713(3)
H7 H 0.8477 0.5898 0.6708
H8 H 0.9307 0.4949 0.6551
C9 C 0.3313(7) 0.6869(5) 0.6526(3)
C10 C 0.8139(8) 0.4285(5) 0.8533(2)
H9 H 0.8837 0.4066 0.8696
C11 C 0.7780(7) 0.4367(5) 0.6347(3)
H10 H 0.8419 0.4243 0.6161
C12 C 0.1567(8) 0.5018(5) 0.6938(3)
H11 H 0.1682 0.4367 0.6972
H12 H 0.0838 0.5342 0.6800
C13 C 0.3462(8) 0.5559(5) 0.6228(3)
H13 H 0.3275 0.5544 0.5958
C14 C 0.9052(8) 0.2937(5) 0.8139(3)
H14 H 0.9001 0.2332 0.8143
H15 H 0.9766 0.2862 0.8269
C15 C 0.1768(8) 0.5018(6) 0.8311(3)
H16 H 0.1876 0.4367 0.8323
H17 H 0.1115 0.5342 0.8476
C16 C 0.6938(8) 0.3344(5) 0.6532(3)
C17 C 0.5077(8) 0.4006(5) 0.6194(3)
H18 H 0.5092 0.3385 0.6250
H19 H 0.4955 0.4147 0.5920
C18 C 0.7065(8) 0.5823(5) 0.8372(3)
C19 C 0.3789(8) 0.4347(5) 0.8515(3)
C20 C 0.3588(8) 0.6861(5) 0.8481(3)
C21 C 0.1622(8) 0.7243(5) 0.8237(3)
H20 H 0.0935 0.7293 0.8386
H21 H 0.1629 0.7861 0.8198
C22 C 0.4936(7) 0.6246(5) 0.6086(3)
H22 H 0.4934 0.6867 0.6089
H23 H 0.4914 0.6106 0.5820
C23 C 0.3456(8) 0.4352(5) 0.6639(3)
C24 C 0.2721(8) 0.5844(5) 0.8670(3)
H24 H 0.2104 0.5979 0.8865
C25 C 0.1803(7) 0.4842(5) 0.7628(3)
C26 C 0.8805(8) 0.2884(5) 0.7464(3)
C27 C 0.5442(8) 0.6173(5) 0.8806(3)
H25 H 0.5564 0.6034 0.9080
H26 H 0.5432 0.6792 0.8749
C28 C 0.7236(8) 0.3302(5) 0.8471(2)
C29 C 0.0853(7) 0.6357(5) 0.7380(2)
H27 H 0.0046 0.6600 0.7286
C30 C 0.3919(8) 0.5515(6) 0.8851(3)
H28 H 0.3869 0.5487 0.9132
C31 C 0.8668(7) 0.5378(5) 0.7396(3)
C32 C 0.8881(7) 0.2971(5) 0.6761(3)
H29 H 0.9565 0.2921 0.6610
H30 H 0.8870 0.2354 0.6798
C33 C 0.6641(8) 0.5862(5) 0.6472(2)
C34 C 0.1494(8) 0.7252(5) 0.6864(3)
H31 H 0.0780 0.7323 0.6735
H32 H 0.1546 0.7856 0.6854
C35 C 0.8997(8) 0.5151(6) 0.8083(3)
H33 H 0.9725 0.4805 0.8218
H34 H 0.8904 0.5798 0.8055
C36 C 0.5536(7) 0.3936(5) 0.8885(3)
H35 H 0.5545 0.4058 0.9154
H36 H 0.5529 0.3320 0.8873
N1 N 0.9104(6) 0.3260(4) 0.7748(2)
N2 N 0.5998(7) 0.5585(4) 0.6263(2)
N3 N 0.8090(6) 0.3554(4) 0.8336(2)
N4 N 0.7883(6) 0.3552(4) 0.6560(2)
N5 N 0.1493(6) 0.5390(4) 0.7929(2)
N6 N 0.1550(6) 0.6907(4) 0.7877(2)
N7 N 0.7673(6) 0.5128(4) 0.6558(2)
N8 N 0.6168(6) 0.4006(5) 0.6289(2)
N9 N 0.2457(6) 0.6627(4) 0.6667(2)
N10 N 0.4114(6) 0.4649(4) 0.6390(2)
N11 N 0.2789(6) 0.5089(4) 0.8453(2)
N12 N 0.9066(7) 0.4807(4) 0.7713(2)
N13 N 0.4356(6) 0.6184(5) 0.8715(2)
N14 N 0.4490(6) 0.4606(4) 0.8711(2)
N15 N 0.2483(6) 0.5089(4) 0.6712(2)
N16 N 0.2639(6) 0.6656(4) 0.8446(2)
N17 N 0.8918(6) 0.4858(4) 0.7093(2)
N18 N 0.8966(6) 0.3300(4) 0.7124(2)
N19 N 0.6572(6) 0.3949(4) 0.8707(2)
N20 N 0.6403(6) 0.5531(4) 0.8612(2)
N21 N 0.1467(6) 0.5384(4) 0.7303(2)
N22 N 0.8068(6) 0.5084(4) 0.8304(2)
N23 N 0.3936(6) 0.6224(4) 0.6276(2)
N24 N 0.1434(6) 0.6950(4) 0.7258(2)
O1 O 0.8211(6) 0.6201(4) 0.7386(2)
O2 O 0.6854(5) 0.6607(3) 0.82493(18)
O3 O 0.3730(5) 0.7520(4) 0.83420(19)
O4 O 0.2157(6) 0.7892(4) 0.7520(2)
O5 O 0.3468(5) 0.7536(4) 0.65961(18)
O6 O 0.6382(6) 0.6632(4) 0.6581(2)
O7 O 0.8441(5) 0.2281(4) 0.74921(19)
O8 O 0.7080(5) 0.2629(4) 0.83939(18)
O9 O 0.3991(5) 0.3600(4) 0.8394(2)
O10 O 0.2233(5) 0.4018(4) 0.7647(2)
O11 O 0.3707(5) 0.3574(3) 0.67727(18)
O12 O 0.6796(5) 0.2687(4) 0.6674(2)
C37 C 1.0731(7) 0.2956(5) 0.9726(3)
H37 H 1.0975 0.3473 0.9659
C38 C 0.9499(8) 0.3291(5) 0.9887(3)
H38 H 0.9174 0.3962 0.9921
C39 C 1.0832(7) 0.2314(5) 1.0327(3)
C40 C 0.6760(8) 0.2195(5) 0.9825(3)
C41 C 0.7642(8) 0.3269(6) 0.9653(3)
H39 H 0.7355 0.3219 0.9403
H40 H 0.7259 0.3912 0.9719
C42 C 1.3820(8) -0.0103(5) 0.9396(3)
H41 H 1.4591 -0.0301 0.9274
C43 C 0.6412(8) 0.2329(6) 1.0456(3)
H42 H 0.5635 0.2713 1.0550
C44 C 0.7064(8) 0.2928(5) 1.0311(3)
H43 H 0.6581 0.3591 1.0329
C45 C 1.1485(8) 0.2178(5) 0.9107(3)
H44 H 1.1925 0.2573 0.9089
H45 H 1.1119 0.2223 0.8860
C46 C 0.6781(9) 0.1128(6) 1.0996(3)
H46 H 0.7207 0.1012 1.1235
H47 H 0.5955 0.1419 1.1054
C47 C 0.9501(9) 0.2618(5) 0.9330(3)
C48 C 1.4432(8) -0.1392(5) 0.9900(3)
H48 H 1.4679 -0.1442 1.0165
H49 H 1.5123 -0.1687 0.9745
C49 C 0.8051(8) 0.1952(6) 1.0828(3)
C50 C 1.3479(8) 0.0228(6) 1.0020(3)
C51 C 0.8874(7) 0.3033(5) 1.0561(3)
H50 H 0.9316 0.2849 1.0798
H51 H 0.8475 0.3705 1.0548
C52 C 1.3274(8) 0.0950(6) 0.9429(3)
H52 H 1.3810 0.1241 0.9338
C53 C 1.2191(9) 0.0520(7) 0.9017(3)
C54 C 1.2673(7) 0.1918(5) 0.9994(3)
H53 H 1.2971 0.1820 1.0254
H54 H 1.2981 0.2327 0.9852
N25 N 0.7319(6) 0.2699(4) 0.9927(2)
N26 N 0.9669(5) 0.2768(4) 1.0242(2)
N27 N 1.3895(6) -0.0440(5) 0.9777(2)
N28 N 0.7102(6) 0.1758(4) 1.0750(2)
N29 N 1.2999(7) -0.0273(4) 0.9164(2)
N30 N 1.1423(6) 0.2354(4) 1.0002(2)
N31 N 0.6336(6) 0.1878(4) 1.0130(3)
N32 N 1.2271(7) 0.1234(5) 0.9190(2)
N33 N 0.8862(7) 0.3046(5) 0.9626(3)
N34 N 1.0606(6) 0.2506(4) 0.9389(2)
N35 N 0.8035(6) 0.2632(5) 1.0568(2)
N36 N 1.3067(7) 0.1039(5) 0.9818(2)
O13 O 1.3505(6) 0.0121(4) 1.0364(2)
O14 O 1.1236(5) 0.1928(4) 1.0625(2)
O15 O 0.8730(6) 0.1620(4) 1.1081(2)
O16 O 1.1497(7) 0.0585(4) 0.8790(2)
O17 O 0.9152(6) 0.2394(4) 0.9054(2)
O18 O 0.6647(5) 0.2028(4) 0.9495(2)
C37A C 0.9269(7) -0.2956(5) 1.0274(3)
H37A H 0.9025 -0.3473 1.0341
C38A C 1.0501(8) -0.3291(5) 1.0113(3)
H38A H 1.0826 -0.3962 1.0079
C39A C 0.9168(7) -0.2314(5) 0.9673(3)
C40A C 1.3240(8) -0.2195(5) 1.0175(3)
C41A C 1.2358(8) -0.3269(6) 1.0347(3)
H39A H 1.2645 -0.3219 1.0597
H40A H 1.2741 -0.3912 1.0281
C42A C 0.6180(8) 0.0103(5) 1.0604(3)
H41A H 0.5409 0.0301 1.0726
C43A C 1.3588(8) -0.2329(6) 0.9544(3)
H42A H 1.4365 -0.2713 0.9450
C44A C 1.2936(8) -0.2928(5) 0.9689(3)
H43A H 1.3419 -0.3591 0.9671
C45A C 0.8515(8) -0.2178(5) 1.0893(3)
H44A H 0.8075 -0.2573 1.0911
H45A H 0.8881 -0.2223 1.1140
C46A C 1.3219(9) -0.1128(6) 0.9004(3)
H46A H 1.2793 -0.1012 0.8765
H47A H 1.4045 -0.1419 0.8946
C47A C 1.0499(9) -0.2618(5) 1.0670(3)
C48A C 0.5568(8) 0.1392(5) 1.0100(3)
H48A H 0.5321 0.1442 0.9835
H49A H 0.4877 0.1687 1.0255
C49A C 1.1949(8) -0.1952(6) 0.9172(3)
C50A C 0.6521(8) -0.0228(6) 0.9980(3)
C51A C 1.1126(7) -0.3033(5) 0.9439(3)
H50A H 1.0684 -0.2849 0.9202
H51A H 1.1525 -0.3705 0.9452
C52A C 0.6726(8) -0.0950(6) 1.0571(3)
H52A H 0.6190 -0.1241 1.0662
C53A C 0.7809(9) -0.0520(7) 1.0983(3)
C54A C 0.7327(7) -0.1918(5) 1.0006(3)
H53A H 0.7029 -0.1820 0.9746
H54A H 0.7019 -0.2327 1.0148
N25A N 1.2681(6) -0.2699(4) 1.0073(2)
N26A N 1.0331(5) -0.2768(4) 0.9758(2)
N27A N 0.6105(6) 0.0440(5) 1.0223(2)
N28A N 1.2898(6) -0.1758(4) 0.9250(2)
N29A N 0.7001(7) 0.0273(4) 1.0836(2)
N30A N 0.8577(6) -0.2354(4) 0.9998(2)
N31A N 1.3664(6) -0.1878(4) 0.9870(3)
N32A N 0.7729(7) -0.1234(5) 1.0810(2)
N33A N 1.1138(7) -0.3046(5) 1.0374(3)
N34A N 0.9394(6) -0.2506(4) 1.0611(2)
N35A N 1.1965(6) -0.2632(5) 0.9432(2)
N36A N 0.6933(7) -0.1039(5) 1.0182(2)
O13A O 0.6495(6) -0.0121(4) 0.9636(2)
O14A O 0.8764(5) -0.1928(4) 0.9375(2)
O15A O 1.1270(6) -0.1620(4) 0.8919(2)
O16A O 0.8503(7) -0.0585(4) 1.1210(2)
O17A O 1.0848(6) -0.2394(4) 1.0946(2)
O18A O 1.3353(5) -0.2028(4) 1.0505(2)
C55 C 0.8267(9) 0.2031(5) 0.5837(3)
C56 C 0.5642(7) 0.1306(5) 0.5253(3)
H55 H 0.5340 0.1320 0.4998
H56 H 0.4984 0.1593 0.5421
C57 C 0.6633(7) -0.0353(6) 0.5151(3)
C58 C 1.0477(8) 0.3014(5) 0.4581(3)
H57 H 1.0664 0.3531 0.4469
C59 C 0.7477(7) -0.2014(5) 0.5200(3)
H58 H 0.7066 -0.1924 0.4958
H59 H 0.7219 -0.2410 0.5371
C60 C 0.6520(8) 0.2316(5) 0.5549(3)
H60 H 0.5781 0.2676 0.5674
C61 C 0.7422(8) 0.3269(6) 0.4668(3)
H61 H 0.7065 0.3911 0.4737
H62 H 0.7041 0.3215 0.4436
C62 C 0.7158(9) 0.1133(5) 0.6095(3)
H63 H 0.7642 0.1051 0.6319
H64 H 0.6348 0.1408 0.6175
C63 C 0.7076(8) 0.2935(5) 0.5348(3)
H65 H 0.6570 0.3593 0.5366
C64 C 0.9332(8) 0.3359(5) 0.4806(3)
H66 H 0.9005 0.4036 0.4822
C65 C 0.6657(7) 0.2137(6) 0.4893(4)
C66 C 0.9166(9) 0.2585(6) 0.4281(4)
C67 C 1.1044(8) 0.2182(5) 0.3974(3)
H67 H 1.0578 0.2202 0.3752
H68 H 1.1437 0.2604 0.3917
C68 C 0.6509(8) 0.0054(5) 0.5783(3)
H69 H 0.5793 0.0256 0.5937
C69 C 1.0823(8) 0.2440(5) 0.5225(3)
C70 C 0.8212(8) -0.0523(6) 0.6097(3)
C71 C 0.7057(8) -0.1016(5) 0.5762(3)
H70 H 0.6561 -0.1312 0.5885
C72 C 0.8922(8) 0.3157(5) 0.5507(3)
H71 H 0.9423 0.3019 0.5730
H72 H 0.8480 0.3824 0.5485
N37 N 0.7223(6) 0.2696(4) 0.4965(2)
N38 N 0.6272(6) 0.0354(4) 0.5388(2)
N39 N 0.7383(7) 0.1761(4) 0.5816(2)
N40 N 0.8617(6) 0.3051(5) 0.4587(2)
N41 N 0.7381(6) 0.0247(4) 0.5953(2)
N42 N 0.8131(6) 0.2703(5) 0.5565(2)
N43 N 0.7166(6) -0.1136(4) 0.5361(2)
N44 N 1.0288(7) 0.2489(5) 0.4299(2)
N45 N 1.1297(7) 0.2480(4) 0.4867(3)
N46 N 0.9642(6) 0.2883(4) 0.5169(2)
N47 N 0.6363(6) 0.1830(4) 0.5240(2)
N48 N 0.8100(6) -0.1255(4) 0.5957(2)
O19 O 1.1294(5) 0.2076(4) 0.5501(2)
O20 O 0.9046(6) 0.1729(4) 0.60631(19)
O21 O 0.8963(6) -0.0558(4) 0.6317(2)
O22 O 0.8758(6) 0.2282(4) 0.4051(2)
O23 O 0.6518(6) 0.1922(4) 0.4588(2)
O24 O 0.6500(6) -0.0267(4) 0.4816(2)
C55A C 1.1733(9) -0.2031(5) 0.4163(3)
C56A C 1.4358(7) -0.1306(5) 0.4747(3)
H55A H 1.4660 -0.1320 0.5002
H56A H 1.5016 -0.1593 0.4579
C57A C 1.3367(7) 0.0353(6) 0.4849(3)
C58A C 0.9523(8) -0.3014(5) 0.5419(3)
H57A H 0.9336 -0.3531 0.5531
C59A C 1.2523(7) 0.2014(5) 0.4800(3)
H58A H 1.2934 0.1924 0.5042
H59A H 1.2781 0.2410 0.4629
C60A C 1.3480(8) -0.2316(5) 0.4451(3)
H60A H 1.4219 -0.2676 0.4326
C61A C 1.2578(8) -0.3269(6) 0.5332(3)
H61A H 1.2935 -0.3911 0.5263
H62A H 1.2959 -0.3215 0.5564
C62A C 1.2842(9) -0.1133(5) 0.3905(3)
H63A H 1.2358 -0.1051 0.3681
H64A H 1.3652 -0.1408 0.3825
C63A C 1.2924(8) -0.2935(5) 0.4652(3)
H65A H 1.3430 -0.3593 0.4634
C64A C 1.0668(8) -0.3359(5) 0.5194(3)
H66A H 1.0995 -0.4036 0.5178
C65A C 1.3343(7) -0.2137(6) 0.5107(4)
C66A C 1.0834(9) -0.2585(6) 0.5719(4)
C67A C 0.8956(8) -0.2182(5) 0.6026(3)
H67A H 0.9422 -0.2202 0.6248
H68A H 0.8563 -0.2604 0.6083
C68A C 1.3491(8) -0.0054(5) 0.4217(3)
H69A H 1.4207 -0.0256 0.4063
C69A C 0.9177(8) -0.2440(5) 0.4775(3)
C70A C 1.1788(8) 0.0523(6) 0.3903(3)
C71A C 1.2943(8) 0.1016(5) 0.4238(3)
H70A H 1.3439 0.1312 0.4115
C72A C 1.1078(8) -0.3157(5) 0.4493(3)
H71A H 1.0577 -0.3019 0.4270
H72A H 1.1520 -0.3824 0.4515
N37A N 1.2777(6) -0.2696(4) 0.5035(2)
N38A N 1.3728(6) -0.0354(4) 0.4612(2)
N39A N 1.2617(7) -0.1761(4) 0.4184(2)
N40A N 1.1383(6) -0.3051(5) 0.5413(2)
N41A N 1.2619(6) -0.0247(4) 0.4047(2)
N42A N 1.1869(6) -0.2703(5) 0.4435(2)
N43A N 1.2834(6) 0.1136(4) 0.4639(2)
N44A N 0.9712(7) -0.2489(5) 0.5701(2)
N45A N 0.8703(7) -0.2480(4) 0.5133(3)
N46A N 1.0358(6) -0.2883(4) 0.4831(2)
N47A N 1.3637(6) -0.1830(4) 0.4760(2)
N48A N 1.1900(6) 0.1255(4) 0.4043(2)
O19A O 0.8706(5) -0.2076(4) 0.4499(2)
O20A O 1.0954(6) -0.1729(4) 0.39369(19)
O21A O 1.1037(6) 0.0558(4) 0.3683(2)
O22A O 1.1242(6) -0.2282(4) 0.5949(2)
O23A O 1.3482(6) -0.1922(4) 0.5412(2)
O24A O 1.3500(6) 0.0267(4) 0.5184(2)
C73 C 0.9086(7) -0.0332(5) 0.8097(3)
C74 C 0.8823(9) -0.0847(6) 0.8380(3)
H73 H 0.8713 -0.1383 0.8326
C75 C 0.9284(9) 0.0408(6) 0.8185(3)
H74 H 0.9494 0.0756 0.7993
C76 C 0.9726(8) -0.0077(6) 0.9466(3)
H75 H 1.0422 -0.0008 0.9363
H76 H 0.9860 -0.0732 0.9475
C77 C 0.9100(8) -0.0568(6) 0.7687(3)
C78 C 0.8725(10) -0.0579(6) 0.8736(3)
H77 H 0.8521 -0.0922 0.8931
C79 C 0.9182(9) 0.0656(6) 0.8548(3)
H78 H 0.9305 0.1183 0.8609
C80 C 0.8730(9) 0.0449(6) 0.9214(3)
H79 H 0.8593 0.1104 0.9211
H80 H 0.8039 0.0376 0.9319
C81 C 0.9502(8) 0.0260(6) 0.9857(3)
H81 H 0.8794 0.0201 0.9954
H82 H 0.9367 0.0916 0.9844
N49 N 0.8905(7) 0.0151(4) 0.8819(2)
O25 O 0.9182(7) -0.0071(5) 0.7436(2)
O26 O 0.8997(6) -0.1347(4) 0.76528(19)
H83 H 0.8954 -0.1428 0.7424
C73A C 1.0914(7) 0.0332(5) 1.1903(3)
C74A C 1.1177(9) 0.0847(6) 1.1620(3)
H73A H 1.1287 0.1383 1.1674
C75A C 1.0716(9) -0.0408(6) 1.1815(3)
H74A H 1.0506 -0.0756 1.2007
C76A C 1.0274(8) 0.0077(6) 1.0534(3)
H75A H 0.9578 0.0008 1.0637
H76A H 1.0140 0.0732 1.0525
C77A C 1.0900(8) 0.0568(6) 1.2313(3)
C78A C 1.1275(10) 0.0579(6) 1.1264(3)
H77A H 1.1479 0.0922 1.1069
C79A C 1.0818(9) -0.0656(6) 1.1452(3)
H78A H 1.0695 -0.1183 1.1391
C80A C 1.1270(9) -0.0449(6) 1.0786(3)
H79A H 1.1407 -0.1104 1.0789
H80A H 1.1961 -0.0376 1.0681
C81A C 1.0498(8) -0.0260(6) 1.0143(3)
H81A H 1.1206 -0.0201 1.0046
H82A H 1.0633 -0.0916 1.0156
N49A N 1.1095(7) -0.0151(4) 1.1181(2)
O25A O 1.0818(7) 0.0071(5) 1.2564(2)
O26A O 1.1003(6) 0.1347(4) 1.23472(19)
H83A H 1.1046 0.1428 1.2576
C82 C 0.5269(9) 0.6353(5) 0.7584(3)
H84 H 0.4814 0.6463 0.7819
H85 H 0.6086 0.6136 0.7655
C83 C 0.5309(8) 0.0958(5) 0.7103(3)
C84 C 0.4494(8) 0.2295(6) 0.7441(3)
H86 H 0.3843 0.2754 0.7544
C85 C 0.6451(8) 0.1689(5) 0.7324(3)
H87 H 0.7176 0.1724 0.7349
C86 C 0.4944(9) 0.7235(6) 0.7353(3)
H88 H 0.4150 0.7424 0.7261
H89 H 0.5454 0.7144 0.7132
C87 C 0.4128(9) 0.9251(6) 0.7930(3)
H90 H 0.3454 0.9674 0.8038
C88 C 0.4372(8) 0.1606(6) 0.7264(3)
H91 H 0.3643 0.1572 0.7252
C89 C 0.5175(9) 1.0056(6) 0.8231(3)
C90 C 0.5231(9) 0.3969(6) 0.7425(3)
H92 H 0.4403 0.4163 0.7375
H93 H 0.5634 0.3872 0.7180
C91 C 0.5082(8) 0.5611(6) 0.7384(3)
H94 H 0.4262 0.5821 0.7318
H95 H 0.5525 0.5508 0.7147
C92 C 0.5150(8) 0.9311(6) 0.7987(3)
C93 C 0.5641(9) 0.3086(5) 0.7659(3)
H96 H 0.6455 0.2916 0.7723
H97 H 0.5202 0.3177 0.7897
C94 C 0.5236(8) 0.0220(5) 0.6876(3)
C95 C 0.4055(9) 0.8581(6) 0.7716(3)
H98 H 0.3340 0.8546 0.7669
C96 C 0.5430(9) 0.4722(5) 0.7614(3)
H99 H 0.5001 0.4832 0.7854
H100 H 0.6253 0.4509 0.7676
C97 C 0.6377(8) 0.0994(5) 0.7141(3)
H101 H 0.7041 0.0542 0.7041
C98 C 0.6035(9) 0.8024(6) 0.7626(3)
H102 H 0.6700 0.7587 0.7520
C99 C 0.6129(8) 0.8703(6) 0.7835(3)
H103 H 0.6848 0.8742 0.7869
N50 N 0.5524(7) 0.2327(4) 0.7471(2)
N51 N 0.5028(6) 0.7985(4) 0.7577(2)
O27 O 0.5960(6) -0.0171(4) 0.6653(2)
O28 O 0.4286(5) 0.0077(4) 0.6942(2)
H104 H 0.4327 -0.0392 0.6837
O29 O 0.6087(7) 1.0220(5) 0.8184(3)
O30 O 0.4393(7) 1.0422(5) 0.8444(3)
C100 C 1.1478(8) 0.1136(7) 0.7147(3)
C101 C 1.1484(8) 0.0746(6) 0.6783(3)
C102 C 1.1113(8) 0.0056(7) 0.6752(3)
H105 H 1.0850 -0.0188 0.6968
C103 C 1.0456(8) 0.0160(6) 0.5510(3)
H106 H 1.0312 0.0817 0.5475
H107 H 0.9809 0.0101 0.5653
C104 C 1.1530(8) -0.0322(6) 0.5723(3)
H108 H 1.2177 -0.0279 0.5573
H109 H 1.1659 -0.0975 0.5761
C105 C 1.0533(8) -0.0239(6) 0.5123(3)
H110 H 1.1203 -0.0200 0.4986
H111 H 1.0665 -0.0892 0.5162
C106 C 1.1881(9) 0.1096(6) 0.6471(3)
H112 H 1.2154 0.1568 0.6490
C107 C 1.1125(8) -0.0278(7) 0.6407(4)
H113 H 1.0859 -0.0752 0.6381
C108 C 1.1866(9) 0.0729(6) 0.6126(3)
H114 H 1.2114 0.0965 0.5905
N52 N 1.1513(6) 0.0065(4) 0.6104(2)
O31 O 1.1497(7) 0.0592(5) 0.7439(2)
O32 O 1.1507(6) 0.1895(5) 0.7168(2)
C100A C 0.8522(8) -0.1136(7) 0.2853(3)
C101A C 0.8516(8) -0.0746(6) 0.3217(3)
C102A C 0.8887(8) -0.0056(7) 0.3248(3)
H105A H 0.9150 0.0188 0.3032
C103A C 0.9544(8) -0.0160(6) 0.4490(3)
H106A H 0.9688 -0.0817 0.4525
H107A H 1.0191 -0.0101 0.4347
C104A C 0.8470(8) 0.0322(6) 0.4277(3)
H108A H 0.7823 0.0279 0.4427
H109A H 0.8341 0.0975 0.4239
C105A C 0.9467(8) 0.0239(6) 0.4877(3)
H110A H 0.8797 0.0200 0.5014
H111A H 0.9335 0.0892 0.4838
C106A C 0.8119(9) -0.1096(6) 0.3529(3)
H112A H 0.7846 -0.1568 0.3510
C107A C 0.8875(8) 0.0278(7) 0.3593(4)
H113A H 0.9141 0.0752 0.3619
C108A C 0.8134(9) -0.0729(6) 0.3874(3)
H114A H 0.7886 -0.0965 0.4095
N52A N 0.8487(6) -0.0065(4) 0.3896(2)
O31A O 0.8503(7) -0.0592(5) 0.2561(2)
O32A O 0.8493(6) -0.1895(5) 0.2832(2)
Cl1 Cl 0.3864(3) 0.41926(19) 0.99648(13)
O33 O 0.3689(16) 0.3435(9) 1.0090(6)
O34 O 0.4178(12) 0.4537(8) 1.0329(3)
O35 O 0.2983(8) 0.4922(5) 0.9782(4)
O36 O 0.4793(11) 0.3934(11) 0.9761(4)
Cl2 Cl 0.9514(3) 0.54240(17) 0.91726(9)
O37 O 0.9828(12) 0.5437(7) 0.9556(3)
O38 O 0.8340(8) 0.5651(7) 0.9145(3)
O39 O 0.9800(7) 0.6064(5) 0.8951(3)
O40 O 1.0159(8) 0.4530(5) 0.9020(3)
Cl3 Cl 0.6107(3) 0.58752(18) 0.50528(9)
O41 O 0.5235(12) 0.5613(10) 0.5239(4)
O42 O 0.5978(10) 0.6683(5) 0.5183(4)
O43 O 0.5846(9) 0.5988(8) 0.4659(3)
O44 O 0.7076(10) 0.5127(6) 0.5133(3)
O45 O 0.7993(17) 0.5832(13) 0.5749(6)
Cl4 Cl 0.0943(3) 0.45637(17) 0.59418(10)
O46 O 0.0351(7) 0.5463(4) 0.6068(2)
O47 O 0.0402(13) 0.4430(8) 0.5614(4)
O48 O 0.0939(8) 0.3915(5) 0.6237(3)
O49 O 0.2107(9) 0.4445(7) 0.5864(4)
O50 O 0.4626(6) 0.8977(5) 0.5752(2)
O51 O 0.4297(7) 0.8873(4) 0.6502(2)
O52 O 0.7106(6) 0.7967(4) 0.6721(3)
O53 O 0.7984(12) 0.7557(7) 0.8553(4)
O54 O 0.6299(15) 0.8728(17) 0.9017(6)
O56 O 0.2589(10) 0.3975(7) 0.9195(3)
O57 O 0.4593(9) 0.2251(6) 0.9150(3)
O58 O 0.6159(9) 0.1399(5) 0.8622(3)
O59 O 0.2786(13) 0.2368(7) 0.8291(4)
O60 O -0.1177(6) 0.8343(4) 0.69614(19)
O61 O 0.3178(6) 0.2498(5) 0.5674(2)
O62 O 0.4292(7) 0.1950(5) 0.6350(3)
O63 O 1.1545(7) 0.1326(5) 0.8065(2)
O55? O 0.6253(15) 0.7591(15) 0.9225(6)
loop_
_geom_bond_atom_site_label_1
_geom_bond_atom_site_label_2
_geom_bond_site_symmetry_1
_geom_bond_site_symmetry_2
C1 H1 1_555 1_555
C2 H2 1_555 1_555
C3 C1 1_555 1_555
H3 C3 1_555 1_555
C4 H4 1_555 1_555
C5 N6 1_555 1_555
C6 H5 1_555 1_555
C7 H6 1_555 1_555
C8 H7 1_555 1_555
H8 C8 1_555 1_555
C9 N9 1_555 1_555
C10 C2 1_555 1_555
H9 C10 1_555 1_555
C11 C4 1_555 1_555
H10 C11 1_555 1_555
C12 H11 1_555 1_555
H12 C12 1_555 1_555
C13 C6 1_555 1_555
H13 C13 1_555 1_555
C14 H14 1_555 1_555
H15 C14 1_555 1_555
C15 H16 1_555 1_555
H17 C15 1_555 1_555
C16 N4 1_555 1_555
C17 H18 1_555 1_555
H19 C17 1_555 1_555
C18 N20 1_555 1_555
C19 N11 1_555 1_555
C20 N13 1_555 1_555
C21 H20 1_555 1_555
H21 C21 1_555 1_555
C22 H22 1_555 1_555
H23 C22 1_555 1_555
C23 N10 1_555 1_555
C24 H24 1_555 1_555
C25 N5 1_555 1_555
C26 N1 1_555 1_555
C27 H25 1_555 1_555
H26 C27 1_555 1_555
C28 N3 1_555 1_555
C29 C7 1_555 1_555
H27 C29 1_555 1_555
C30 C24 1_555 1_555
H28 C30 1_555 1_555
C31 N12 1_555 1_555
C32 H29 1_555 1_555
H30 C32 1_555 1_555
C33 N2 1_555 1_555
C34 H31 1_555 1_555
H32 C34 1_555 1_555
C35 H33 1_555 1_555
H34 C35 1_555 1_555
C36 H35 1_555 1_555
H36 C36 1_555 1_555
N1 C1 1_555 1_555
N2 C4 1_555 1_555
N3 C10 1_555 1_555
N4 C11 1_555 1_555
N5 C7 1_555 1_555
N6 C7 1_555 1_555
N7 C8 1_555 1_555
N8 C4 1_555 1_555
N9 C6 1_555 1_555
N10 C13 1_555 1_555
N11 C15 1_555 1_555
N12 C1 1_555 1_555
N13 C27 1_555 1_555
N14 C19 1_555 1_555
N15 C6 1_555 1_555
N16 C20 1_555 1_555
N17 C3 1_555 1_555
N18 C3 1_555 1_555
N19 C2 1_555 1_555
N20 C2 1_555 1_555
N21 C12 1_555 1_555
N22 C10 1_555 1_555
N23 C9 1_555 1_555
N24 C5 1_555 1_555
O1 C31 1_555 1_555
O2 C18 1_555 1_555
O3 C20 1_555 1_555
O4 C5 1_555 1_555
O5 C9 1_555 1_555
O6 C33 1_555 1_555
O7 C26 1_555 1_555
O8 C28 1_555 1_555
O9 C19 1_555 1_555
O10 C25 1_555 1_555
O11 C23 1_555 1_555
O12 C16 1_555 1_555
C37 H37 1_555 1_555
C38 C37 1_555 1_555
H38 C38 1_555 1_555
C39 N26 1_555 1_555
C40 N25 1_555 1_555
C41 H39 1_555 1_555
H40 C41 1_555 1_555
C42 H41 1_555 1_555
C43 H42 1_555 1_555
C44 C43 1_555 1_555
H43 C44 1_555 1_555
C45 H44 1_555 1_555
H45 C45 1_555 1_555
C46 H46 1_555 1_555
H47 C46 1_555 1_555
C47 N33 1_555 1_555
C48 H48 1_555 1_555
H49 C48 1_555 1_555
C49 N28 1_555 1_555
C50 N27 1_555 1_555
C51 H50 1_555 1_555
H51 C51 1_555 1_555
C52 C42 1_555 1_555
H52 C52 1_555 1_555
C53 N29 1_555 1_555
C54 H53 1_555 1_555
H54 C54 1_555 1_555
N25 C41 1_555 1_555
N26 C38 1_555 1_555
N27 C42 1_555 1_555
N28 C43 1_555 1_555
N29 C42 1_555 1_555
N30 C37 1_555 1_555
N31 C40 1_555 1_555
N32 C45 1_555 1_555
N33 C38 1_555 1_555
N34 C37 1_555 1_555
N35 C44 1_555 1_555
N36 C50 1_555 1_555
O13 C50 1_555 1_555
O14 C39 1_555 1_555
O15 C49 1_555 1_555
O16 C53 1_555 1_555
O17 C47 1_555 1_555
O18 C40 1_555 1_555
C55 N39 1_555 1_555
C56 H55 1_555 1_555
H56 C56 1_555 1_555
C57 N38 1_555 1_555
C58 H57 1_555 1_555
C59 H58 1_555 1_555
H59 C59 1_555 1_555
C60 H60 1_555 1_555
C61 H61 1_555 1_555
H62 C61 1_555 1_555
C62 H63 1_555 1_555
H64 C62 1_555 1_555
C63 C60 1_555 1_555
H65 C63 1_555 1_555
C64 C58 1_555 1_555
H66 C64 1_555 1_555
C65 N37 1_555 1_555
C66 N40 1_555 1_555
C67 H67 1_555 1_555
H68 C67 1_555 1_555
C68 H69 1_555 1_555
C69 N45 1_555 1_555
C70 N41 1_555 1_555
C71 C68 1_555 1_555
H70 C71 1_555 1_555
C72 H71 1_555 1_555
H72 C72 1_555 1_555
N37 C61 1_555 1_555
N38 C56 1_555 1_555
N39 C60 1_555 1_555
N40 C61 1_555 1_555
N41 C62 1_555 1_555
N42 C55 1_555 1_555
N43 C57 1_555 1_555
N44 C58 1_555 1_555
N45 C58 1_555 1_555
N46 C64 1_555 1_555
N47 C56 1_555 1_555
N48 C70 1_555 1_555
O19 C69 1_555 1_555
O20 C55 1_555 1_555
O21 C70 1_555 1_555
O22 C66 1_555 1_555
O23 C65 1_555 1_555
O24 C57 1_555 1_555
C73 C74 1_555 1_555
C74 H73 1_555 1_555
C75 C73 1_555 1_555
H74 C75 1_555 1_555
C76 H75 1_555 1_555
H76 C76 1_555 1_555
C77 C73 1_555 1_555
C78 C74 1_555 1_555
H77 C78 1_555 1_555
C79 C75 1_555 1_555
H78 C79 1_555 1_555
C80 C76 1_555 1_555
H79 C80 1_555 1_555
H80 C80 1_555 1_555
C81 C76 1_555 1_555
H81 C81 1_555 1_555
H82 C81 1_555 1_555
N49 C78 1_555 1_555
O25 C77 1_555 1_555
O26 C77 1_555 1_555
H83 O26 1_555 1_555
C82 H84 1_555 1_555
H85 C82 1_555 1_555
C83 C88 1_555 1_555
C84 H86 1_555 1_555
C85 H87 1_555 1_555
C86 C82 1_555 1_555
H88 C86 1_555 1_555
H89 C86 1_555 1_555
C87 H90 1_555 1_555
C88 C84 1_555 1_555
H91 C88 1_555 1_555
C89 C92 1_555 1_555
C90 H92 1_555 1_555
H93 C90 1_555 1_555
C91 C82 1_555 1_555
H94 C91 1_555 1_555
H95 C91 1_555 1_555
C92 C87 1_555 1_555
C93 C90 1_555 1_555
H96 C93 1_555 1_555
H97 C93 1_555 1_555
C94 C83 1_555 1_555
C95 C87 1_555 1_555
H98 C95 1_555 1_555
C96 C90 1_555 1_555
H99 C96 1_555 1_555
H100 C96 1_555 1_555
C97 C83 1_555 1_555
H101 C97 1_555 1_555
C98 H102 1_555 1_555
C99 C92 1_555 1_555
H103 C99 1_555 1_555
N50 C84 1_555 1_555
N51 C86 1_555 1_555
O27 C94 1_555 1_555
O28 C94 1_555 1_555
H104 O28 1_555 1_555
O29 C89 1_555 1_555
O30 C89 1_555 1_555
C100 C101 1_555 1_555
C101 C102 1_555 1_555
C102 H105 1_555 1_555
C103 H106 1_555 1_555
H107 C103 1_555 1_555
C104 C103 1_555 1_555
H108 C104 1_555 1_555
H109 C104 1_555 1_555
C105 C103 1_555 1_555
H110 C105 1_555 1_555
H111 C105 1_555 1_555
C106 C101 1_555 1_555
H112 C106 1_555 1_555
C107 C102 1_555 1_555
H113 C107 1_555 1_555
C108 C106 1_555 1_555
H114 C108 1_555 1_555
N52 C104 1_555 1_555
O31 C100 1_555 1_555
O32 C100 1_555 1_555
Cl1 O33 1_555 1_555
O34 Cl1 1_555 1_555
O35 Cl1 1_555 1_555
O36 Cl1 1_555 1_555
Cl2 O37 1_555 1_555
O38 Cl2 1_555 1_555
O39 Cl2 1_555 1_555
O40 Cl2 1_555 1_555
Cl3 O41 1_555 1_555
O42 Cl3 1_555 1_555
O43 Cl3 1_555 1_555
O44 Cl3 1_555 1_555
Cl4 O46 1_555 1_555
O47 Cl4 1_555 1_555
O48 Cl4 1_555 1_555
O49 Cl4 1_555 1_555
C37A H37A 1_555 1_555
C38A C37A 1_555 1_555
H38A C38A 1_555 1_555
C39A N26A 1_555 1_555
C40A N25A 1_555 1_555
C41A H39A 1_555 1_555
H40A C41A 1_555 1_555
C42A H41A 1_555 1_555
C43A H42A 1_555 1_555
C44A C43A 1_555 1_555
H43A C44A 1_555 1_555
C45A H44A 1_555 1_555
H45A C45A 1_555 1_555
C46A N29 1_555 1_555
H46A C46A 1_555 1_555
H47A C46A 1_555 1_555
C47A N33A 1_555 1_555
C48A N31 1_555 1_555
H48A C48A 1_555 1_555
H49A C48A 1_555 1_555
C49A N28A 1_555 1_555
C50A N27A 1_555 1_555
C51A H50A 1_555 1_555
H51A C51A 1_555 1_555
C52A C42A 1_555 1_555
H52A C52A 1_555 1_555
C53A N29A 1_555 1_555
C54A H53A 1_555 1_555
H54A C54A 1_555 1_555
N25A C41A 1_555 1_555
N26A C38A 1_555 1_555
N27A C42A 1_555 1_555
N28A C43A 1_555 1_555
N29A C46 1_555 1_555
N30A C37A 1_555 1_555
N31A C48 1_555 1_555
N32A C45A 1_555 1_555
N33A C38A 1_555 1_555
N34A C37A 1_555 1_555
N35A C44A 1_555 1_555
N36A C50A 1_555 1_555
O13A C50A 1_555 1_555
O14A C39A 1_555 1_555
O15A C49A 1_555 1_555
O16A C53A 1_555 1_555
O17A C47A 1_555 1_555
O18A C40A 1_555 1_555
C55A N39A 1_555 1_555
C56A H55A 1_555 1_555
H56A C56A 1_555 1_555
C57A N38A 1_555 1_555
C58A H57A 1_555 1_555
C59A N45 1_555 1_555
H58A C59A 1_555 1_555
H59A C59A 1_555 1_555
C60A H60A 1_555 1_555
C61A H61A 1_555 1_555
H62A C61A 1_555 1_555
C62A H63A 1_555 1_555
H64A C62A 1_555 1_555
C63A C60A 1_555 1_555
H65A C63A 1_555 1_555
C64A C58A 1_555 1_555
H66A C64A 1_555 1_555
C65A N37A 1_555 1_555
C66A N40A 1_555 1_555
C67A N48 1_555 1_555
H67A C67A 1_555 1_555
H68A C67A 1_555 1_555
C68A H69A 1_555 1_555
C69A N45A 1_555 1_555
C70A N41A 1_555 1_555
C71A C68A 1_555 1_555
H70A C71A 1_555 1_555
C72A H71A 1_555 1_555
H72A C72A 1_555 1_555
N37A C61A 1_555 1_555
N38A C56A 1_555 1_555
N39A C60A 1_555 1_555
N40A C61A 1_555 1_555
N41A C62A 1_555 1_555
N42A C55A 1_555 1_555
N43A C57A 1_555 1_555
N44A C58A 1_555 1_555
N45A C59 1_555 1_555
N46A C64A 1_555 1_555
N47A C56A 1_555 1_555
N48A C67 1_555 1_555
O19A C69A 1_555 1_555
O20A C55A 1_555 1_555
O21A C70A 1_555 1_555
O22A C66A 1_555 1_555
O23A C65A 1_555 1_555
O24A C57A 1_555 1_555
C73A C74A 1_555 1_555
C74A H73A 1_555 1_555
C75A C73A 1_555 1_555
H74A C75A 1_555 1_555
C76A H75A 1_555 1_555
H76A C76A 1_555 1_555
C77A C73A 1_555 1_555
C78A C74A 1_555 1_555
H77A C78A 1_555 1_555
C79A C75A 1_555 1_555
H78A C79A 1_555 1_555
C80A C76A 1_555 1_555
H79A C80A 1_555 1_555
H80A C80A 1_555 1_555
C81A C81 1_555 1_555
H81A C81A 1_555 1_555
H82A C81A 1_555 1_555
N49A C78A 1_555 1_555
O25A C77A 1_555 1_555
O26A C77A 1_555 1_555
H83A O26A 1_555 1_555
C100A C101A 1_555 1_555
C101A C102A 1_555 1_555
C102A H105A 1_555 1_555
C103A H106A 1_555 1_555
H107A C103A 1_555 1_555
C104A C103A 1_555 1_555
H108A C104A 1_555 1_555
H109A C104A 1_555 1_555
C105A C105 1_555 1_555
H110A C105A 1_555 1_555
H111A C105A 1_555 1_555
C106A C101A 1_555 1_555
H112A C106A 1_555 1_555
C107A C102A 1_555 1_555
H113A C107A 1_555 1_555
C108A C106A 1_555 1_555
H114A C108A 1_555 1_555
N52A C104A 1_555 1_555
O31A C100A 1_555 1_555
O32A C100A 1_555 1_555
C8 N17 1_555 1_555
C11 N7 1_555 1_555
C12 N15 1_555 1_555
C13 N23 1_555 1_555
C14 N1 1_555 1_555
C14 N3 1_555 1_555
C15 N5 1_555 1_555
C16 N8 1_555 1_555
C17 N8 1_555 1_555
C17 N10 1_555 1_555
C18 N22 1_555 1_555
C21 N6 1_555 1_555
C21 N16 1_555 1_555
C22 N2 1_555 1_555
C22 N23 1_555 1_555
C23 N15 1_555 1_555
C24 N11 1_555 1_555
C24 N16 1_555 1_555
C25 N21 1_555 1_555
C26 N18 1_555 1_555
C27 N20 1_555 1_555
C28 N19 1_555 1_555
C29 N21 1_555 1_555
C29 N24 1_555 1_555
C30 N13 1_555 1_555
C30 N14 1_555 1_555
C31 N17 1_555 1_555
C32 N4 1_555 1_555
C32 N18 1_555 1_555
C33 N7 1_555 1_555
C34 N9 1_555 1_555
C34 N24 1_555 1_555
C35 N12 1_555 1_555
C35 N22 1_555 1_555
C36 N14 1_555 1_555
C36 N19 1_555 1_555
C39 N30 1_555 1_555
C41 N33 1_555 1_555
C43 N31 1_555 1_555
C44 N25 1_555 1_555
C45 N34 1_555 1_555
C46 N28 1_555 1_555
C47 N34 1_555 1_555
C48 N27 1_555 1_555
C49 N35 1_555 1_555
C51 N26 1_555 1_555
C51 N35 1_555 1_555
C52 N32 1_555 1_555
C52 N36 1_555 1_555
C53 N32 1_555 1_555
C54 N30 1_555 1_555
C54 N36 1_555 1_555
C59 N43 1_555 1_555
C60 N47 1_555 1_555
C62 N39 1_555 1_555
C63 N37 1_555 1_555
C63 N42 1_555 1_555
C64 N40 1_555 1_555
C65 N47 1_555 1_555
C66 N44 1_555 1_555
C67 N44 1_555 1_555
C68 N38 1_555 1_555
C68 N41 1_555 1_555
C69 N46 1_555 1_555
C71 N43 1_555 1_555
C71 N48 1_555 1_555
C72 N42 1_555 1_555
C72 N46 1_555 1_555
C79 N49 1_555 1_555
C80 N49 1_555 1_555
C85 C97 1_555 1_555
C85 N50 1_555 1_555
C91 C96 1_555 1_555
C93 N50 1_555 1_555
C95 N51 1_555 1_555
C98 C99 1_555 1_555
C98 N51 1_555 1_555
C107 N52 1_555 1_555
C108 N52 1_555 1_555
C39A N30A 1_555 1_555
C40A N31A 1_555 1_555
C41A N33A 1_555 1_555
C42A N29A 1_555 1_555
C43A N31A 1_555 1_555
C44A N25A 1_555 1_555
C45A N34A 1_555 1_555
C46A N28A 1_555 1_555
C47A N34A 1_555 1_555
C48A N27A 1_555 1_555
C49A N35A 1_555 1_555
C51A N26A 1_555 1_555
C51A N35A 1_555 1_555
C52A N32A 1_555 1_555
C52A N36A 1_555 1_555
C53A N32A 1_555 1_555
C54A N30A 1_555 1_555
C54A N36A 1_555 1_555
C58A N45A 1_555 1_555
C59A N43A 1_555 1_555
C60A N47A 1_555 1_555
C62A N39A 1_555 1_555
C63A N37A 1_555 1_555
C63A N42A 1_555 1_555
C64A N40A 1_555 1_555
C65A N47A 1_555 1_555
C66A N44A 1_555 1_555
C67A N44A 1_555 1_555
C68A N38A 1_555 1_555
C68A N41A 1_555 1_555
C69A N46A 1_555 1_555
C70A N48A 1_555 1_555
C71A N43A 1_555 1_555
C71A N48A 1_555 1_555
C72A N42A 1_555 1_555
C72A N46A 1_555 1_555
C76A C81A 1_555 1_555
C79A N49A 1_555 1_555
C80A N49A 1_555 1_555
C103A C105A 1_555 1_555
C107A N52A 1_555 1_555
C108A N52A 1_555 1_555

#END
