
#######################################################################
#
#                 Cambridge Crystallographic Data Centre
#                                CCDC 
#
#######################################################################
#
# If this CIF has been generated from an entry in the Cambridge 
# Structural Database, then it will include bibliographic, chemical, 
# crystal, experimental, refinement or atomic coordinate data resulting 
# from the CCDC's data processing and validation procedures.
#
#######################################################################

data_JIJPIE
_chemical_formula_moiety         'C43 H38 N2 O1'
_chemical_name_systematic        
5,5-dimethyl-3-(phenylamino)-2-(2,3,3-triphenyl-1,2,3,4-tetrahydrocyclopenta[b]indol-1-yl)cyclohex-2-en-1-one
_symmetry_cell_setting           orthorhombic
_symmetry_space_group_name_H-M   'P 21 21 21'
_symmetry_Int_Tables_number      19
_space_group_name_Hall           'P 2ac 2ab'
loop_
_symmetry_equiv_pos_site_id
_symmetry_equiv_pos_as_xyz
1 x,y,z
2 1/2-x,-y,1/2+z
3 -x,1/2+y,1/2-z
4 1/2+x,1/2-y,-z
_cell_length_a                   8.7773(4)
_cell_length_b                   16.6542(8)
_cell_length_c                   21.9525(10)
_cell_angle_alpha                90
_cell_angle_beta                 90
_cell_angle_gamma                90
_cell_volume                     3208.99
_exptl_crystal_colour            colorless
_exptl_crystal_description       block
_cell_formula_units_Z            4
loop_
_atom_site_label
_atom_site_type_symbol
_atom_site_fract_x
_atom_site_fract_y
_atom_site_fract_z
O1 O 0.63948(18) 0.40159(7) 0.29481(6)
N1 N 0.61755(19) 0.66532(9) 0.37217(8)
H1 H 0.596660 0.679663 0.334504
N2 N 0.34828(17) 0.73913(9) 0.23173(8)
H2 H 0.342139 0.783718 0.210366
C1 C 0.5624(2) 0.56050(10) 0.26797(8)
H3 H 0.526218 0.512159 0.245145
C2 C 0.6881(2) 0.60398(10) 0.22866(9)
H4 H 0.754433 0.631514 0.259256
C3 C 0.6072(2) 0.67658(10) 0.19155(8)
C4 C 0.4672(2) 0.68555(10) 0.23135(8)
C5 C 0.4370(2) 0.62194(10) 0.26820(8)
C6 C 0.2900(2) 0.63485(10) 0.29504(8)
C7 C 0.1956(2) 0.59290(12) 0.33555(9)
H5 H 0.225777 0.542275 0.351422
C8 C 0.0581(2) 0.62653(14) 0.35190(10)
H6 H -0.007528 0.597916 0.378600
C9 C 0.0127(2) 0.70199(13) 0.33007(10)
H7 H -0.081374 0.724198 0.343257
C10 C 0.1025(2) 0.74453(12) 0.28977(9)
H8 H 0.071417 0.795479 0.274787
C11 C 0.2402(2) 0.71023(11) 0.27176(9)
C12 C 0.6173(2) 0.53370(10) 0.33082(8)
C13 C 0.6489(2) 0.44911(11) 0.33818(9)
C14 C 0.6974(2) 0.41836(11) 0.39992(9)
H9 H 0.809877 0.420722 0.402775
H10 H 0.666647 0.361389 0.403738
C15 C 0.6289(2) 0.46577(11) 0.45275(9)
C16 C 0.6727(2) 0.55397(11) 0.44300(9)
H11 H 0.617727 0.587438 0.473108
H12 H 0.783199 0.560312 0.450615
C17 C 0.6367(2) 0.58433(10) 0.37958(9)
C18 C 0.4557(2) 0.45547(13) 0.45450(11)
H13 H 0.430811 0.399319 0.463382
H14 H 0.412528 0.470462 0.414926
H15 H 0.412839 0.490047 0.486296
C19 C 0.6949(3) 0.43553(13) 0.51294(9)
H16 H 0.675972 0.377757 0.516753
H17 H 0.646084 0.463833 0.546875
H18 H 0.804846 0.445620 0.513799
C20 C 0.6249(2) 0.73017(10) 0.41340(9)
C21 C 0.5242(2) 0.79358(11) 0.40334(10)
H19 H 0.451709 0.790357 0.371288
C22 C 0.5295(3) 0.86127(12) 0.44003(10)
H20 H 0.462224 0.904778 0.432342
C23 C 0.6318(3) 0.86599(12) 0.48758(10)
H21 H 0.633150 0.911851 0.513304
C24 C 0.7317(3) 0.80369(13) 0.49745(11)
H22 H 0.802072 0.806757 0.530265
C25 C 0.7312(3) 0.73640(12) 0.46009(10)
H23 H 0.803326 0.694707 0.466434
C26 C 0.7954(2) 0.54852(11) 0.19447(8)
C27 C 0.9507(2) 0.56719(12) 0.19274(10)
H24 H 0.985908 0.614706 0.212104
C28 C 1.0544(3) 0.51759(15) 0.16326(11)
H25 H 1.158934 0.532264 0.161756
C29 C 1.0068(3) 0.44726(15) 0.13619(10)
H26 H 1.077995 0.413275 0.116237
C30 C 0.8542(3) 0.42673(13) 0.13839(10)
H27 H 0.820485 0.378128 0.120181
C31 C 0.7501(2) 0.47678(11) 0.16708(9)
H28 H 0.645610 0.461878 0.168087
C32 C 0.5450(2) 0.65869(11) 0.12712(9)
C33 C 0.5545(2) 0.71446(12) 0.08004(9)
H29 H 0.611826 0.762249 0.085848
C34 C 0.4816(3) 0.70148(13) 0.02458(10)
H30 H 0.490443 0.740216 -0.006993
C35 C 0.3969(3) 0.63316(14) 0.01505(10)
H31 H 0.347523 0.624365 -0.022879
C36 C 0.3847(2) 0.57727(13) 0.06167(10)
H32 H 0.326035 0.529975 0.055740
C37 C 0.4576(2) 0.59006(12) 0.11693(9)
H33 H 0.447822 0.551285 0.148426
C38 C 0.7153(2) 0.74867(10) 0.19086(9)
C39 C 0.6904(2) 0.81610(11) 0.22701(10)
H34 H 0.604840 0.817631 0.253508
C40 C 0.7892(3) 0.88113(12) 0.22475(11)
H35 H 0.769892 0.927003 0.249279
C41 C 0.9155(3) 0.87976(13) 0.18714(11)
H36 H 0.982415 0.924563 0.185508
C42 C 0.9435(3) 0.81272(13) 0.15203(10)
H37 H 1.031420 0.810757 0.126831
C43 C 0.8437(2) 0.74804(12) 0.15334(9)
H38 H 0.863047 0.702651 0.128305
loop_
_geom_bond_atom_site_label_1
_geom_bond_atom_site_label_2
_geom_bond_site_symmetry_1
_geom_bond_site_symmetry_2
O1 C13 1_555 1_555
N1 H1 1_555 1_555
N2 H2 1_555 1_555
C1 H3 1_555 1_555
C2 C1 1_555 1_555
H4 C2 1_555 1_555
C3 C2 1_555 1_555
C4 N2 1_555 1_555
C5 C1 1_555 1_555
C6 C5 1_555 1_555
C7 C6 1_555 1_555
H5 C7 1_555 1_555
C8 C7 1_555 1_555
H6 C8 1_555 1_555
C9 C8 1_555 1_555
H7 C9 1_555 1_555
C10 C9 1_555 1_555
H8 C10 1_555 1_555
C11 N2 1_555 1_555
C12 C1 1_555 1_555
C13 C12 1_555 1_555
C14 C13 1_555 1_555
H9 C14 1_555 1_555
H10 C14 1_555 1_555
C15 C14 1_555 1_555
C16 C15 1_555 1_555
H11 C16 1_555 1_555
H12 C16 1_555 1_555
C17 N1 1_555 1_555
C18 C15 1_555 1_555
H13 C18 1_555 1_555
H14 C18 1_555 1_555
H15 C18 1_555 1_555
C19 C15 1_555 1_555
H16 C19 1_555 1_555
H17 C19 1_555 1_555
H18 C19 1_555 1_555
C20 N1 1_555 1_555
C21 C20 1_555 1_555
H19 C21 1_555 1_555
C22 C21 1_555 1_555
H20 C22 1_555 1_555
C23 C22 1_555 1_555
H21 C23 1_555 1_555
C24 C23 1_555 1_555
H22 C24 1_555 1_555
C25 C20 1_555 1_555
H23 C25 1_555 1_555
C26 C2 1_555 1_555
C27 C26 1_555 1_555
H24 C27 1_555 1_555
C28 C27 1_555 1_555
H25 C28 1_555 1_555
C29 C28 1_555 1_555
H26 C29 1_555 1_555
C30 C29 1_555 1_555
H27 C30 1_555 1_555
C31 C26 1_555 1_555
H28 C31 1_555 1_555
C32 C3 1_555 1_555
C33 C32 1_555 1_555
H29 C33 1_555 1_555
C34 C33 1_555 1_555
H30 C34 1_555 1_555
C35 C34 1_555 1_555
H31 C35 1_555 1_555
C36 C35 1_555 1_555
H32 C36 1_555 1_555
C37 C32 1_555 1_555
H33 C37 1_555 1_555
C38 C3 1_555 1_555
C39 C38 1_555 1_555
H34 C39 1_555 1_555
C40 C39 1_555 1_555
H35 C40 1_555 1_555
C41 C40 1_555 1_555
H36 C41 1_555 1_555
C42 C41 1_555 1_555
H37 C42 1_555 1_555
C43 C38 1_555 1_555
H38 C43 1_555 1_555
C3 C4 1_555 1_555
C4 C5 1_555 1_555
C6 C11 1_555 1_555
C10 C11 1_555 1_555
C12 C17 1_555 1_555
C16 C17 1_555 1_555
C24 C25 1_555 1_555
C30 C31 1_555 1_555
C36 C37 1_555 1_555
C42 C43 1_555 1_555

#END
