
#######################################################################
#
#                 Cambridge Crystallographic Data Centre
#                                CCDC 
#
#######################################################################
#
# If this CIF has been generated from an entry in the Cambridge 
# Structural Database, then it will include bibliographic, chemical, 
# crystal, experimental, refinement or atomic coordinate data resulting 
# from the CCDC's data processing and validation procedures.
#
#######################################################################

data_JIJRUP
_chemical_formula_moiety         'C18 H23 N2 O2 1+,N1 O3 1-'
_chemical_name_systematic        'Hydrogen-bis(o-methylacetanilide) nitrate'
_symmetry_cell_setting           monoclinic
_symmetry_space_group_name_H-M   'C 2/c'
_symmetry_Int_Tables_number      15
_space_group_name_Hall           '-C 2yn'
loop_
_symmetry_equiv_pos_site_id
_symmetry_equiv_pos_as_xyz
1 x,y,z
2 1/2+x,1/2+y,z
3 -x,y,1/2-z
4 1/2-x,1/2+y,1/2-z
5 -x,-y,-z
6 1/2-x,1/2-y,-z
7 x,-y,1/2+z
8 1/2+x,1/2-y,1/2+z
_cell_length_a                   16.502(4)
_cell_length_b                   7.723(2)
_cell_length_c                   16.289(4)
_cell_angle_alpha                90
_cell_angle_beta                 114.06(2)
_cell_angle_gamma                90
_cell_volume                     1895.59
_cell_formula_units_Z            4
loop_
_atom_site_label
_atom_site_type_symbol
_atom_site_fract_x
_atom_site_fract_y
_atom_site_fract_z
O1 O 0.0000 0.9925(3) 0.2500
O2 O 0.0170(2) 1.2301(3) 0.3217(2)
N2 N 0.0000 1.1548(4) 0.2500
O2B O -0.0170(2) 1.2301(3) 0.1783(2)
O3 O -0.0460(1) 0.6252(2) -0.0048(1)
N1 N -0.0688(1) 0.8545(3) 0.0666(1)
C1 C 0.0487(2) 0.6553(4) 0.1518(2)
C2 C -0.0244(2) 0.7133(3) 0.0667(2)
C3 C -0.1423(2) 0.9228(3) -0.0091(2)
C4 C -0.2157(2) 0.9814(3) 0.0047(2)
C5 C -0.2867(2) 1.0502(3) -0.0692(2)
C6 C -0.2846(2) 1.0602(4) -0.1527(2)
C7 C -0.2111(2) 1.0011(4) -0.1640(2)
C8 C -0.1388(2) 0.9342(4) -0.0921(2)
C9 C -0.2203(2) 0.9675(4) 0.0948(2)
H1 H 0.000 0.500 0.000
H2 H -0.051(2) 0.909(3) 0.121(2)
H3 H 0.057(2) 0.738(4) 0.208(2)
H4 H 0.098(2) 0.647(4) 0.142(2)
H5 H 0.037(3) 0.540(5) 0.174(3)
H6 H -0.092(2) 0.885(3) -0.104(2)
H7 H -0.216(2) 1.003(4) -0.221(2)
H8 H -0.338(2) 1.105(4) -0.205(2)
H9 H -0.340 1.106(4) -0.057(2)
H10 H -0.175(2) 1.040(4) 0.141(2)
H11 H -0.204(2) 0.842(4) 0.124(2)
H12 H -0.280(2) 0.985(4) 0.087(2)
O3D O 0.0460(1) 0.3748(2) 0.0048(1)
C2D C 0.0244(2) 0.2867(3) -0.0667(2)
N1D N 0.0688(1) 0.1455(3) -0.0666(1)
C1D C -0.0487(2) 0.3447(4) -0.1518(2)
C3D C 0.1423(2) 0.0772(3) 0.0091(2)
H2D H 0.051(2) 0.091(3) -0.121(2)
H3D H -0.057(2) 0.262(4) -0.208(2)
H4D H -0.098(2) 0.353(4) -0.142(2)
H5D H -0.037(3) 0.460(5) -0.174(3)
C4D C 0.2157(2) 0.0186(3) -0.0047(2)
C8D C 0.1388(2) 0.0658(4) 0.0921(2)
C5D C 0.2867(2) -0.0502(3) 0.0692(2)
C9D C 0.2203(2) 0.0325(4) -0.0948(2)
C7D C 0.2111(2) -0.0011(4) 0.1640(2)
H6D H 0.092(2) 0.115(3) 0.104(2)
C6D C 0.2846(2) -0.0602(4) 0.1527(2)
H9D H 0.340 -0.106(4) 0.057(2)
H10D H 0.175(2) -0.040(4) -0.141(2)
H11D H 0.204(2) 0.158(4) -0.124(2)
H12D H 0.280(2) 0.015(4) -0.087(2)
H7D H 0.216(2) -0.003(4) 0.221(2)
H8D H 0.338(2) -0.105(4) 0.205(2)
loop_
_geom_bond_atom_site_label_1
_geom_bond_atom_site_label_2
_geom_bond_site_symmetry_1
_geom_bond_site_symmetry_2
O1 N2 1_555 1_555
O2 N2 1_555 1_555
O3 C2 1_555 1_555
N1 C2 1_555 1_555
N2 O2B 1_555 1_555
C1 C2 1_555 1_555
C3 N1 1_555 1_555
C4 C3 1_555 1_555
C5 C4 1_555 1_555
C6 C5 1_555 1_555
C7 C6 1_555 1_555
C8 C3 1_555 1_555
C9 C4 1_555 1_555
H1 O3 1_555 1_555
H2 N1 1_555 1_555
H3 C1 1_555 1_555
H4 C1 1_555 1_555
H5 C1 1_555 1_555
H6 C8 1_555 1_555
H7 C7 1_555 1_555
H8 C6 1_555 1_555
H9 C5 1_555 1_555
H10 C9 1_555 1_555
H11 C9 1_555 1_555
H12 C9 1_555 1_555
O3D H1 1_555 1_555
C2D O3D 1_555 1_555
N1D C2D 1_555 1_555
C1D C2D 1_555 1_555
C3D N1D 1_555 1_555
H2D N1D 1_555 1_555
H3D C1D 1_555 1_555
H4D C1D 1_555 1_555
H5D C1D 1_555 1_555
C4D C3D 1_555 1_555
C8D C3D 1_555 1_555
C5D C4D 1_555 1_555
C9D C4D 1_555 1_555
C7D C8D 1_555 1_555
H6D C8D 1_555 1_555
C6D C5D 1_555 1_555
H9D C5D 1_555 1_555
H10D C9D 1_555 1_555
H11D C9D 1_555 1_555
H12D C9D 1_555 1_555
H7D C7D 1_555 1_555
H8D C6D 1_555 1_555
C7 C8 1_555 1_555
C7D C6D 1_555 1_555

#END
