
#######################################################################
#
#                 Cambridge Crystallographic Data Centre
#                                CCDC 
#
#######################################################################
#
# If this CIF has been generated from an entry in the Cambridge 
# Structural Database, then it will include bibliographic, chemical, 
# crystal, experimental, refinement or atomic coordinate data resulting 
# from the CCDC's data processing and validation procedures.
#
#######################################################################

data_JIJSIH
_chemical_formula_moiety         'C27 H21 O2 P1 S2'
_chemical_name_systematic        
'S-benzyl O,O-dinaphthalen-2-yl phosphorodithioate'
_symmetry_cell_setting           monoclinic
_symmetry_space_group_name_H-M   'P 21/c'
_symmetry_Int_Tables_number      14
_space_group_name_Hall           '-P 2ybc'
loop_
_symmetry_equiv_pos_site_id
_symmetry_equiv_pos_as_xyz
1 x,y,z
2 -x,1/2+y,1/2-z
3 -x,-y,-z
4 x,1/2-y,1/2+z
_cell_length_a                   23.5358(16)
_cell_length_b                   12.2682(8)
_cell_length_c                   8.1869(5)
_cell_angle_alpha                90
_cell_angle_beta                 95.396(6)
_cell_angle_gamma                90
_cell_volume                     2353.43
_exptl_crystal_colour            yellow
_exptl_crystal_description       block
_cell_formula_units_Z            4
loop_
_atom_site_label
_atom_site_type_symbol
_atom_site_fract_x
_atom_site_fract_y
_atom_site_fract_z
S1 S 0.28360(10) 0.1881(2) 0.7672(3)
S2 S 0.29655(11) -0.08253(19) 0.7010(3)
P1 P 0.29558(8) 0.06038(17) 0.6125(2)
O1 O 0.3511(2) 0.1001(5) 0.5308(6)
O2 O 0.2498(2) 0.0832(4) 0.4607(6)
C1 C 0.4070(16) 0.118(2) 0.610(6)
C2 C 0.4278(6) 0.2177(12) 0.5663(17)
H1 H 0.405308 0.264318 0.497916
C3 C 0.4814(6) 0.2472(13) 0.6247(18)
H2 H 0.496006 0.314103 0.595153
C4 C 0.5157(7) 0.1760(13) 0.7316(19)
C5 C 0.5726(6) 0.2060(14) 0.794(2)
H3 H 0.587717 0.273601 0.770336
C6 C 0.605(2) 0.129(4) 0.893(6)
H4 H 0.642969 0.143999 0.929799
C7 C 0.5809(7) 0.0314(15) 0.934(2)
H5 H 0.601885 -0.015376 1.006334
C8 C 0.5276(7) 0.0015(14) 0.8740(18)
H6 H 0.513782 -0.066947 0.898946
C9 C 0.4928(7) 0.0730(18) 0.774(2)
C10 C 0.4374(6) 0.0443(12) 0.7068(17)
H7 H 0.422061 -0.023459 0.728543
C11 C 0.2239(3) 0.0035(6) 0.3573(8)
C12 C 0.1666(3) 0.0084(5) 0.3264(8)
H8 H 0.146074 0.059904 0.379897
C13 C 0.1377(3) -0.0637(6) 0.2139(8)
C14 C 0.0790(4) -0.0615(7) 0.1750(10)
H9 H 0.057246 -0.009932 0.224528
C15 C 0.0525(5) -0.1338(11) 0.0649(13)
H10 H 0.013246 -0.129537 0.038342
C16 C 0.0841(6) -0.2140(10) -0.0074(12)
H11 H 0.065694 -0.264714 -0.078307
C17 C 0.1415(5) -0.2177(8) 0.0256(11)
H12 H 0.162206 -0.270023 -0.025601
C18 C 0.1705(4) -0.1440(6) 0.1357(9)
C19 C 0.2301(4) -0.1434(7) 0.1695(10)
H13 H 0.251853 -0.193744 0.117481
C20 C 0.2566(3) -0.0716(7) 0.2755(10)
H14 H 0.296175 -0.071573 0.294617
C21 C 0.2256(4) 0.1331(10) 0.8750(10)
H15 H 0.236205 0.060496 0.913581
H16 H 0.221586 0.177961 0.970873
C22 C 0.1676(4) 0.1263(8) 0.7754(10)
C23 C 0.1453(5) 0.2176(9) 0.6933(14)
H17 H 0.166062 0.282169 0.695145
C24 C 0.0916(5) 0.2114(10) 0.6082(15)
H18 H 0.076309 0.272362 0.552592
C25 C 0.0609(4) 0.1173(12) 0.6051(14)
H19 H 0.024358 0.114638 0.550950
C26 C 0.0843(5) 0.0262(10) 0.6824(13)
H20 H 0.063797 -0.038738 0.679082
C27 C 0.1371(4) 0.0308(8) 0.7635(11)
H21 H 0.152973 -0.032038 0.812104
C28? C 0.404(2) 0.094(3) 0.608(6)
C29? C 0.4350(7) 0.0034(12) 0.5757(19)
H22? H 0.417983 -0.049842 0.506506
C30? C 0.4897(8) -0.0112(13) 0.6415(19)
H23? H 0.509285 -0.074901 0.621391
C31? C 0.5161(9) 0.0707(17) 0.739(2)
C32? C 0.5719(8) 0.0564(15) 0.810(2)
H24? H 0.592514 -0.005628 0.787922
C33? C 0.596(2) 0.136(4) 0.914(7)
H25? H 0.631425 0.123288 0.969311
C34? C 0.5701(7) 0.2301(18) 0.938(2)
H26? H 0.589948 0.285553 0.995819
C35? C 0.5144(7) 0.2458(14) 0.8767(19)
H27? H 0.494916 0.308465 0.902316
C36? C 0.4866(8) 0.1627(16) 0.7713(19)
C37? C 0.4297(7) 0.1768(13) 0.7047(19)
H28? H 0.409734 0.240008 0.725003
loop_
_geom_bond_atom_site_label_1
_geom_bond_atom_site_label_2
_geom_bond_site_symmetry_1
_geom_bond_site_symmetry_2
S1 P1 1_555 1_555
S2 P1 1_555 1_555
P1 O1 1_555 1_555
O1 C1 1_555 1_555
O2 P1 1_555 1_555
C1 C2 1_555 1_555
C2 H1 1_555 1_555
C3 C2 1_555 1_555
H2 C3 1_555 1_555
C4 C3 1_555 1_555
C5 C4 1_555 1_555
H3 C5 1_555 1_555
C6 C5 1_555 1_555
H4 C6 1_555 1_555
C7 C6 1_555 1_555
H5 C7 1_555 1_555
C8 C7 1_555 1_555
H6 C8 1_555 1_555
C9 C4 1_555 1_555
C10 C1 1_555 1_555
H7 C10 1_555 1_555
C11 O2 1_555 1_555
C12 C11 1_555 1_555
H8 C12 1_555 1_555
C13 C12 1_555 1_555
C14 C13 1_555 1_555
H9 C14 1_555 1_555
C15 C14 1_555 1_555
H10 C15 1_555 1_555
C16 C15 1_555 1_555
H11 C16 1_555 1_555
C17 C16 1_555 1_555
H12 C17 1_555 1_555
C18 C13 1_555 1_555
C19 C18 1_555 1_555
H13 C19 1_555 1_555
C20 C11 1_555 1_555
H14 C20 1_555 1_555
C21 S1 1_555 1_555
H15 C21 1_555 1_555
H16 C21 1_555 1_555
C22 C21 1_555 1_555
C23 C22 1_555 1_555
H17 C23 1_555 1_555
C24 C23 1_555 1_555
H18 C24 1_555 1_555
C25 C24 1_555 1_555
H19 C25 1_555 1_555
C26 C25 1_555 1_555
H20 C26 1_555 1_555
C27 C22 1_555 1_555
H21 C27 1_555 1_555
C8 C9 1_555 1_555
C9 C10 1_555 1_555
C17 C18 1_555 1_555
C19 C20 1_555 1_555
C26 C27 1_555 1_555

#END
