
#######################################################################
#
#                 Cambridge Crystallographic Data Centre
#                                CCDC 
#
#######################################################################
#
# If this CIF has been generated from an entry in the Cambridge 
# Structural Database, then it will include bibliographic, chemical, 
# crystal, experimental, refinement or atomic coordinate data resulting 
# from the CCDC's data processing and validation procedures.
#
#######################################################################

data_JIJYUZ
_chemical_formula_moiety         'C19 H24 N2 O2'
_chemical_name_systematic        
1-ethyl-11a-hydroxy-2,3,10,11,11a,11b,13,13a-octahydro-9H-pyrido[1,2,3-lm]pyrrolo[2,3-d]carbazol-12(1H)-one
_symmetry_cell_setting           monoclinic
_symmetry_space_group_name_H-M   'P 21/c'
_symmetry_Int_Tables_number      14
_space_group_name_Hall           '-P 2ybc'
loop_
_symmetry_equiv_pos_site_id
_symmetry_equiv_pos_as_xyz
1 x,y,z
2 -x,1/2+y,1/2-z
3 -x,-y,-z
4 x,1/2-y,1/2+z
_cell_length_a                   8.3792(15)
_cell_length_b                   13.619(2)
_cell_length_c                   14.510(3)
_cell_angle_alpha                90
_cell_angle_beta                 99.121(3)
_cell_angle_gamma                90
_cell_volume                     1634.89
_cell_formula_units_Z            4
loop_
_atom_site_label
_atom_site_type_symbol
_atom_site_fract_x
_atom_site_fract_y
_atom_site_fract_z
N1 N 0.7708(2) 0.77990(12) 0.16704(11)
N2 N 0.3825(2) 0.57461(11) 0.16001(11)
O1 O 0.3284(2) 0.85910(12) 0.11911(12)
O2 O 0.42116(19) 0.68423(10) 0.00579(9)
H1 H 0.3911 0.6406 0.0380
C1 C 0.8657(2) 0.73474(15) 0.24370(14)
C2 C 1.0010(3) 0.77109(18) 0.30129(17)
H2 H 1.0443 0.8319 0.2898
C3 C 1.0696(3) 0.7142(2) 0.37636(17)
H3 H 1.1595 0.7377 0.4162
C4 C 1.0077(3) 0.6241(2) 0.39312(16)
H4 H 1.0562 0.5871 0.4438
C5 C 0.8733(3) 0.58744(16) 0.33509(15)
H5 H 0.8315 0.5262 0.3466
C6 C 0.8025(2) 0.64310(14) 0.26017(13)
C7 C 0.6562(2) 0.62241(13) 0.18758(13)
C8 C 0.6729(2) 0.70318(13) 0.11418(13)
H6 H 0.7335 0.6762 0.0675
C9 C 0.5207(3) 0.75180(14) 0.06407(13)
C10 C 0.5680(3) 0.83269(16) 0.00153(15)
H7 H 0.4714 0.8671 -0.0271
H8 H 0.6175 0.8034 -0.0480
C11 C 0.6853(3) 0.90617(17) 0.05464(18)
H9 H 0.7220 0.9513 0.0107
H10 H 0.6298 0.9440 0.0965
C12 C 0.8301(3) 0.85551(17) 0.11049(17)
H11 H 0.8966 0.8264 0.0688
H12 H 0.8952 0.9026 0.1502
C13 C 0.4213(3) 0.79102(15) 0.13677(14)
C14 C 0.4419(3) 0.74016(14) 0.22986(14)
H13 H 0.3401 0.7423 0.2537
H14 H 0.5213 0.7757 0.2733
C15 C 0.4954(2) 0.63405(13) 0.22583(13)
H15 H 0.5062 0.6050 0.2883
C16 C 0.6425(3) 0.51674(14) 0.14725(15)
H16 H 0.6615 0.5166 0.0830
H17 H 0.7207 0.4738 0.1836
C17 C 0.4720(3) 0.48330(15) 0.15288(15)
H18 H 0.4269 0.4468 0.0974
H19 H 0.4699 0.4422 0.2073
C18 C 0.2233(3) 0.55994(18) 0.18812(17)
H20 H 0.1843 0.6221 0.2083
H21 H 0.2339 0.5149 0.2405
C19 C 0.1034(3) 0.5199(3) 0.1102(2)
H22 H 0.0911 0.5649 0.0586
H23 H 0.0012 0.5112 0.1310
H24 H 0.1408 0.4577 0.0907
loop_
_geom_bond_atom_site_label_1
_geom_bond_atom_site_label_2
_geom_bond_site_symmetry_1
_geom_bond_site_symmetry_2
N1 C1 1_555 1_555
N2 C15 1_555 1_555
O1 C13 1_555 1_555
O2 H1 1_555 1_555
C1 C2 1_555 1_555
C2 H2 1_555 1_555
C3 C2 1_555 1_555
H3 C3 1_555 1_555
C4 C3 1_555 1_555
H4 C4 1_555 1_555
C5 C4 1_555 1_555
H5 C5 1_555 1_555
C6 C1 1_555 1_555
C7 C6 1_555 1_555
C8 N1 1_555 1_555
H6 C8 1_555 1_555
C9 O2 1_555 1_555
C10 C9 1_555 1_555
H7 C10 1_555 1_555
H8 C10 1_555 1_555
C11 C10 1_555 1_555
H9 C11 1_555 1_555
H10 C11 1_555 1_555
C12 N1 1_555 1_555
H11 C12 1_555 1_555
H12 C12 1_555 1_555
C13 C9 1_555 1_555
C14 C13 1_555 1_555
H13 C14 1_555 1_555
H14 C14 1_555 1_555
C15 C7 1_555 1_555
H15 C15 1_555 1_555
C16 C7 1_555 1_555
H16 C16 1_555 1_555
H17 C16 1_555 1_555
C17 N2 1_555 1_555
H18 C17 1_555 1_555
H19 C17 1_555 1_555
C18 N2 1_555 1_555
H20 C18 1_555 1_555
H21 C18 1_555 1_555
C19 C18 1_555 1_555
H22 C19 1_555 1_555
H23 C19 1_555 1_555
H24 C19 1_555 1_555
C5 C6 1_555 1_555
C7 C8 1_555 1_555
C8 C9 1_555 1_555
C11 C12 1_555 1_555
C14 C15 1_555 1_555
C16 C17 1_555 1_555

#END
