
#######################################################################
#
#                 Cambridge Crystallographic Data Centre
#                                CCDC 
#
#######################################################################
#
# If this CIF has been generated from an entry in the Cambridge 
# Structural Database, then it will include bibliographic, chemical, 
# crystal, experimental, refinement or atomic coordinate data resulting 
# from the CCDC's data processing and validation procedures.
#
#######################################################################

data_JIJZAG
_chemical_name_common            'nototrone A'
_chemical_formula_moiety         'C26 H44 O4'
_chemical_name_systematic        
3,12-dihydroxy-10-(2-hydroxybutan-2-yl)-4,4,6a,13b-tetramethyl-7-methylidenehexadecahydro-11H-cyclonona[a]naphthalen-11-one
_symmetry_cell_setting           orthorhombic
_symmetry_space_group_name_H-M   'P 21 21 21'
_symmetry_Int_Tables_number      19
_space_group_name_Hall           'P 2ac 2ab'
loop_
_symmetry_equiv_pos_site_id
_symmetry_equiv_pos_as_xyz
1 x,y,z
2 1/2-x,-y,1/2+z
3 1/2+x,1/2-y,-z
4 -x,1/2+y,1/2-z
_cell_length_a                   10.61438(13)
_cell_length_b                   17.8619(2)
_cell_length_c                   25.1750(3)
_cell_angle_alpha                90
_cell_angle_beta                 90
_cell_angle_gamma                90
_cell_volume                     4773
_cell_formula_units_Z            8
_exptl_crystal_recrystallization_method methanol/water
loop_
_atom_site_label
_atom_site_type_symbol
_atom_site_fract_x
_atom_site_fract_y
_atom_site_fract_z
O1 O 0.00993(15) -0.54165(9) -0.32589(6)
H1 H 0.0154 -0.5582 -0.2956
O2 O -0.80590(16) -0.69346(10) -0.36506(7)
O3 O -0.74229(15) -0.57438(9) -0.30865(6)
H2 H -0.8094 -0.5793 -0.3244
O4 O -0.51347(17) -0.86506(9) -0.34030(7)
H3 H -0.4494 -0.8545 -0.3237
C1 C -0.1109(2) -0.55982(12) -0.34738(9)
H4 H -0.1249 -0.6135 -0.3419
C2 C -0.4797(2) -0.57864(12) -0.41328(8)
H5 H -0.4600 -0.6296 -0.4015
C3 C -0.3817(2) -0.60376(15) -0.50502(9)
H6 H -0.3620 -0.6564 -0.5006
H7 H -0.3957 -0.5950 -0.5426
C4 C -0.3627(2) -0.53123(12) -0.39673(9)
C5 C -0.2682(2) -0.55765(14) -0.48728(9)
H8 H -0.2818 -0.5054 -0.4960
H9 H -0.1935 -0.5746 -0.5059
C6 C -0.3426(2) -0.54307(13) -0.33650(9)
H10 H -0.4066 -0.5155 -0.3172
H11 H -0.3531 -0.5958 -0.3283
C7 C -0.2483(2) -0.56573(12) -0.42722(9)
H12 H -0.2550 -0.6197 -0.4207
C8 C -0.5054(2) -0.58635(13) -0.47456(9)
C9 C -0.6936(2) -0.68557(13) -0.35874(9)
C10 C -0.2130(2) -0.51783(13) -0.31748(9)
H13 H -0.2036 -0.4644 -0.3233
H14 H -0.2049 -0.5273 -0.2797
C11 C -0.1136(2) -0.54481(13) -0.40757(9)
C12 C -0.5967(2) -0.65276(14) -0.48044(9)
C13 C -0.6168(2) -0.77782(13) -0.42744(10)
H15 H -0.5871 -0.8291 -0.4291
H16 H -0.7057 -0.7778 -0.4364
C14 C -0.6451(2) -0.61039(13) -0.33769(9)
H17 H -0.5738 -0.6197 -0.3138
C15 C -0.0168(2) -0.59710(13) -0.43389(9)
H18 H -0.0391 -0.6482 -0.4268
H19 H 0.0654 -0.5870 -0.4198
H20 H -0.0165 -0.5887 -0.4716
C16 C -0.6016(2) -0.55745(12) -0.38265(9)
H21 H -0.5895 -0.5081 -0.3675
H22 H -0.6696 -0.5536 -0.4082
C17 C -0.7346(2) -0.85456(14) -0.33240(12)
H23 H -0.7362 -0.8945 -0.3069
H24 H -0.7426 -0.8750 -0.3675
H25 H -0.8032 -0.8209 -0.3257
C18 C -0.0739(2) -0.46432(13) -0.42061(10)
H26 H 0.0123 -0.4569 -0.4103
H27 H -0.1268 -0.4299 -0.4016
H28 H -0.0823 -0.4558 -0.4581
C19 C -0.7157(2) -0.64491(16) -0.49523(9)
H29 H -0.7673 -0.6868 -0.4984
H30 H -0.7478 -0.5975 -0.5024
C20 C -0.6005(2) -0.74846(13) -0.37034(9)
H31 H -0.5156 -0.7272 -0.3677
C21 C -0.6104(2) -0.81235(13) -0.32789(10)
C22 C -0.5450(2) -0.73097(14) -0.46868(10)
H32 H -0.4586 -0.7257 -0.4567
H33 H -0.5431 -0.7589 -0.5017
C23 C -0.5909(3) -0.77951(14) -0.27219(10)
H34 H -0.5129 -0.7513 -0.2721
H35 H -0.6589 -0.7446 -0.2650
C24 C -0.5859(3) -0.83675(17) -0.22721(11)
H36 H -0.5695 -0.8115 -0.1943
H37 H -0.5200 -0.8722 -0.2341
H38 H -0.6652 -0.8625 -0.2250
C25 C -0.3810(2) -0.44599(12) -0.40643(10)
H39 H -0.4681 -0.4332 -0.4016
H40 H -0.3557 -0.4338 -0.4420
H41 H -0.3306 -0.4183 -0.3816
C26 C -0.5604(2) -0.51425(15) -0.49909(10)
H42 H -0.4973 -0.4757 -0.4990
H43 H -0.6317 -0.4981 -0.4786
H44 H -0.5863 -0.5240 -0.5350
loop_
_geom_bond_atom_site_label_1
_geom_bond_atom_site_label_2
_geom_bond_site_symmetry_1
_geom_bond_site_symmetry_2
O1 H1 1_555 1_555
O2 C9 1_555 1_555
O3 H2 1_555 1_555
O4 H3 1_555 1_555
C1 O1 1_555 1_555
H4 C1 1_555 1_555
C2 H5 1_555 1_555
C3 H6 1_555 1_555
H7 C3 1_555 1_555
C4 C2 1_555 1_555
C5 C3 1_555 1_555
H8 C5 1_555 1_555
H9 C5 1_555 1_555
C6 C4 1_555 1_555
H10 C6 1_555 1_555
H11 C6 1_555 1_555
C7 C4 1_555 1_555
H12 C7 1_555 1_555
C8 C2 1_555 1_555
C9 C14 1_555 1_555
C10 C1 1_555 1_555
H13 C10 1_555 1_555
H14 C10 1_555 1_555
C11 C1 1_555 1_555
C12 C8 1_555 1_555
C13 H15 1_555 1_555
H16 C13 1_555 1_555
C14 O3 1_555 1_555
H17 C14 1_555 1_555
C15 C11 1_555 1_555
H18 C15 1_555 1_555
H19 C15 1_555 1_555
H20 C15 1_555 1_555
C16 C2 1_555 1_555
H21 C16 1_555 1_555
H22 C16 1_555 1_555
C17 H23 1_555 1_555
H24 C17 1_555 1_555
H25 C17 1_555 1_555
C18 C11 1_555 1_555
H26 C18 1_555 1_555
H27 C18 1_555 1_555
H28 C18 1_555 1_555
C19 C12 1_555 1_555
H29 C19 1_555 1_555
H30 C19 1_555 1_555
C20 C9 1_555 1_555
H31 C20 1_555 1_555
C21 O4 1_555 1_555
C22 C12 1_555 1_555
H32 C22 1_555 1_555
H33 C22 1_555 1_555
C23 C21 1_555 1_555
H34 C23 1_555 1_555
H35 C23 1_555 1_555
C24 C23 1_555 1_555
H36 C24 1_555 1_555
H37 C24 1_555 1_555
H38 C24 1_555 1_555
C25 C4 1_555 1_555
H39 C25 1_555 1_555
H40 C25 1_555 1_555
H41 C25 1_555 1_555
C26 C8 1_555 1_555
H42 C26 1_555 1_555
H43 C26 1_555 1_555
H44 C26 1_555 1_555
C3 C8 1_555 1_555
C5 C7 1_555 1_555
C6 C10 1_555 1_555
C7 C11 1_555 1_555
C13 C20 1_555 1_555
C13 C22 1_555 1_555
C14 C16 1_555 1_555
C17 C21 1_555 1_555
C20 C21 1_555 1_555

#END
