
#######################################################################
#
#                 Cambridge Crystallographic Data Centre
#                                CCDC 
#
#######################################################################
#
# If this CIF has been generated from an entry in the Cambridge 
# Structural Database, then it will include bibliographic, chemical, 
# crystal, experimental, refinement or atomic coordinate data resulting 
# from the CCDC's data processing and validation procedures.
#
#######################################################################

data_JIKBOX
_chemical_formula_moiety         'C27 H29 N1 O4'
_chemical_name_systematic        
12-methoxy-16-methylidene-18-phenyl-1,2,3,4,8,9,10,10a-octahydro-6H-7,10a,7-(epoxymethanetriyloxymethano)cyclopenta[b][1,5]oxazonino[5,4-a]indole
_symmetry_cell_setting           orthorhombic
_symmetry_space_group_name_H-M   'P n a 21'
_symmetry_Int_Tables_number      33
_space_group_name_Hall           'P 2c -2n'
loop_
_symmetry_equiv_pos_site_id
_symmetry_equiv_pos_as_xyz
1 x,y,z
2 -x,-y,1/2+z
3 1/2+x,1/2-y,z
4 1/2-x,1/2+y,1/2+z
_cell_length_a                   20.624(4)
_cell_length_b                   14.886(2)
_cell_length_c                   7.1558(12)
_cell_angle_alpha                90
_cell_angle_beta                 90
_cell_angle_gamma                90
_cell_volume                     2196.89
_cell_formula_units_Z            4
loop_
_atom_site_label
_atom_site_type_symbol
_atom_site_fract_x
_atom_site_fract_y
_atom_site_fract_z
N1 N 0.91653(9) 0.82626(13) 0.3905(3)
O1 O 0.94649(8) 0.77018(10) 0.7802(2)
O2 O 0.97229(9) 0.62363(12) 0.7615(3)
O3 O 0.79167(9) 0.76220(12) 0.5463(3)
O4 O 1.16350(8) 0.97226(12) 0.3701(3)
C1 C 1.07673(13) 0.81012(18) 0.9008(4)
H1 H 1.0490 0.8587 0.8843
C2 C 1.13611(14) 0.8227(2) 0.9883(4)
H2 H 1.1484 0.8797 1.0280
C3 C 1.17684(14) 0.7507(2) 1.0165(5)
H3 H 1.2170 0.7592 1.0730
C4 C 1.15808(13) 0.6662(2) 0.9609(5)
H4 H 1.1849 0.6172 0.9838
C5 C 1.09945(13) 0.65378(18) 0.8712(4)
H5 H 1.0873 0.5965 0.8328
C6 C 1.05851(12) 0.72590(16) 0.8378(3)
C7 C 0.99820(11) 0.71326(15) 0.7280(4)
C8 C 0.89701(12) 0.72669(17) 0.6658(4)
C9 C 0.90647(14) 0.63208(19) 0.7341(5)
C10 C 0.86489(16) 0.5671(2) 0.7640(7)
H6 H 0.8794 0.5115 0.8061
H7 H 0.8209 0.5765 0.7432
C11 C 0.83267(13) 0.7721(2) 0.7046(4)
H8 H 0.8124 0.7452 0.8133
H9 H 0.8396 0.8354 0.7302
C12 C 0.75088(13) 0.8379(2) 0.5134(5)
H10 H 0.7261 0.8500 0.6257
H11 H 0.7204 0.8230 0.4148
C13 C 0.78703(15) 0.9219(2) 0.4588(5)
H12 H 0.7563 0.9712 0.4561
H13 H 0.8183 0.9350 0.5564
C14 C 0.82236(14) 0.9207(2) 0.2754(5)
H14 H 0.8470 0.9760 0.2648
H15 H 0.7904 0.9207 0.1759
C15 C 0.86862(14) 0.84195(19) 0.2425(4)
H16 H 0.8431 0.7878 0.2271
H17 H 0.8916 0.8523 0.1262
C16 C 0.92682(12) 0.73452(16) 0.4646(4)
C17 C 0.91417(15) 0.65784(19) 0.3256(5)
H18 H 0.8764 0.6235 0.3636
H19 H 0.9064 0.6818 0.2016
C18 C 0.97236(17) 0.6001(3) 0.3252(7)
H20 H 0.9645 0.5473 0.4013
H21 H 0.9813 0.5803 0.1986
C19 C 1.02840(14) 0.64895(17) 0.3984(5)
H22 H 1.0552 0.6709 0.2968
H23 H 1.0545 0.6101 0.4772
C20 C 1.00096(11) 0.72785(15) 0.5124(4)
C21 C 1.02676(11) 0.81888(15) 0.4548(3)
C22 C 0.97707(12) 0.86910(16) 0.3775(4)
C23 C 0.99048(13) 0.95200(17) 0.2966(4)
H24 H 0.9576 0.9856 0.2414
C24 C 1.05326(12) 0.98349(17) 0.2997(4)
H25 H 1.0625 1.0392 0.2474
C25 C 1.10281(12) 0.93399(16) 0.3788(4)
C26 C 1.09001(11) 0.85014(16) 0.4557(3)
H26 H 1.1232 0.8157 0.5068
C27 C 1.21697(12) 0.91878(19) 0.4262(5)
H27 H 1.2130 0.9046 0.5566
H28 H 1.2565 0.9513 0.4055
H29 H 1.2176 0.8643 0.3546
loop_
_geom_bond_atom_site_label_1
_geom_bond_atom_site_label_2
_geom_bond_site_symmetry_1
_geom_bond_site_symmetry_2
N1 C15 1_555 1_555
O1 C7 1_555 1_555
O2 C7 1_555 1_555
O3 C11 1_555 1_555
O4 C25 1_555 1_555
C1 H1 1_555 1_555
C2 C1 1_555 1_555
H2 C2 1_555 1_555
C3 C2 1_555 1_555
H3 C3 1_555 1_555
C4 C3 1_555 1_555
H4 C4 1_555 1_555
C5 C4 1_555 1_555
H5 C5 1_555 1_555
C6 C1 1_555 1_555
C7 C6 1_555 1_555
C8 O1 1_555 1_555
C9 O2 1_555 1_555
C10 C9 1_555 1_555
H6 C10 1_555 1_555
H7 C10 1_555 1_555
C11 C8 1_555 1_555
H8 C11 1_555 1_555
H9 C11 1_555 1_555
C12 O3 1_555 1_555
H10 C12 1_555 1_555
H11 C12 1_555 1_555
C13 C12 1_555 1_555
H12 C13 1_555 1_555
H13 C13 1_555 1_555
C14 C13 1_555 1_555
H14 C14 1_555 1_555
H15 C14 1_555 1_555
C15 C14 1_555 1_555
H16 C15 1_555 1_555
H17 C15 1_555 1_555
C16 N1 1_555 1_555
C17 C16 1_555 1_555
H18 C17 1_555 1_555
H19 C17 1_555 1_555
C18 C17 1_555 1_555
H20 C18 1_555 1_555
H21 C18 1_555 1_555
C19 C18 1_555 1_555
H22 C19 1_555 1_555
H23 C19 1_555 1_555
C20 C7 1_555 1_555
C21 C20 1_555 1_555
C22 N1 1_555 1_555
C23 C22 1_555 1_555
H24 C23 1_555 1_555
C24 C23 1_555 1_555
H25 C24 1_555 1_555
C25 C24 1_555 1_555
C26 C21 1_555 1_555
H26 C26 1_555 1_555
C27 O4 1_555 1_555
H27 C27 1_555 1_555
H28 C27 1_555 1_555
H29 C27 1_555 1_555
C5 C6 1_555 1_555
C8 C9 1_555 1_555
C8 C16 1_555 1_555
C16 C20 1_555 1_555
C19 C20 1_555 1_555
C21 C22 1_555 1_555
C25 C26 1_555 1_555

#END
