
#######################################################################
#
#                 Cambridge Crystallographic Data Centre
#                                CCDC 
#
#######################################################################
#
# If this CIF has been generated from an entry in the Cambridge 
# Structural Database, then it will include bibliographic, chemical, 
# crystal, experimental, refinement or atomic coordinate data resulting 
# from the CCDC's data processing and validation procedures.
#
#######################################################################

data_JIKCAK
_chemical_formula_moiety         'C26 H27 N1 O3'
_chemical_name_systematic        
11-methyl-15-methylidene-17-phenyl-2,3,7,8,9,9a-hexahydro-1H,5H-6,9a,6-(epoxymethanetriyloxymethano)cyclopenta[b][1,5]oxazocino[5,4-a]indole
_symmetry_cell_setting           monoclinic
_symmetry_space_group_name_H-M   'P 21/c'
_symmetry_Int_Tables_number      14
_space_group_name_Hall           '-P 2ybc'
loop_
_symmetry_equiv_pos_site_id
_symmetry_equiv_pos_as_xyz
1 x,y,z
2 -x,1/2+y,1/2-z
3 -x,-y,-z
4 x,1/2-y,1/2+z
_cell_length_a                   20.49(3)
_cell_length_b                   14.727(19)
_cell_length_c                   7.136(9)
_cell_angle_alpha                90
_cell_angle_beta                 98.99(3)
_cell_angle_gamma                90
_cell_volume                     2126.88
_cell_formula_units_Z            4
loop_
_atom_site_label
_atom_site_type_symbol
_atom_site_fract_x
_atom_site_fract_y
_atom_site_fract_z
N1 N 0.3083(4) 0.1020(6) 0.0267(14)
O1 O 0.4588(4) 0.0463(6) 0.2311(13)
O2 O 0.2977(3) -0.1289(4) 0.3682(10)
O3 O 0.3012(3) 0.0260(4) 0.4023(9)
C1 C 0.0309(5) 0.1585(8) -0.0243(16)
H1 H 0.021919 0.216002 0.029536
H2 H 0.014107 0.110531 0.045770
H3 H 0.009890 0.156129 -0.154260
C2 C 0.1038(5) 0.1473(7) -0.0151(15)
C3 C 0.1450(6) 0.2150(7) -0.0681(15)
H4 H 0.125418 0.269904 -0.109428
C4 C 0.2126(5) 0.2072(7) -0.0642(15)
H5 H 0.237152 0.254289 -0.105270
C5 C 0.2424(5) 0.1261(7) 0.0037(15)
C6 C 0.2026(5) 0.0550(7) 0.0564(15)
C7 C 0.1352(5) 0.0660(7) 0.0485(14)
H6 H 0.110216 0.018488 0.086037
C8 C 0.2459(5) -0.0272(7) 0.1155(15)
C9 C 0.3167(5) 0.0040(7) 0.0866(16)
C10 C 0.3366(5) -0.0630(7) -0.0676(15)
H7 H 0.332215 -0.033295 -0.190253
H8 H 0.382047 -0.082744 -0.032308
C11 C 0.2915(5) -0.1405(7) -0.0748(16)
H9 H 0.311428 -0.188222 0.008897
H10 H 0.282734 -0.164527 -0.202799
C12 C 0.2281(5) -0.1101(7) -0.0142(15)
H11 H 0.209632 -0.158155 0.054119
H12 H 0.196110 -0.093436 -0.123663
C13 C 0.3535(5) -0.0016(7) 0.2909(16)
C14 C 0.4138(5) 0.0617(7) 0.3525(17)
H13 H 0.399956 0.124775 0.345529
H14 H 0.433658 0.048519 0.482141
C15 C 0.4692(5) 0.1224(8) 0.1237(17)
H15 H 0.510437 0.113572 0.075444
H16 H 0.475338 0.174141 0.208891
C16 C 0.4201(5) 0.1463(8) -0.0326(16)
H17 H 0.434817 0.113119 -0.135654
H18 H 0.431194 0.209122 -0.053882
C17 C 0.3492(5) 0.1465(7) -0.0902(17)
H19 H 0.335076 0.209378 -0.103480
H20 H 0.340095 0.119320 -0.215307
C18 C 0.3624(5) -0.1012(7) 0.3532(15)
C19 C 0.4134(5) -0.1562(8) 0.3818(16)
H21 H 0.407661 -0.216599 0.413676
H22 H 0.455279 -0.134781 0.370257
C20 C 0.2572(5) -0.0463(7) 0.3310(15)
C21 C 0.1973(5) -0.0546(7) 0.4296(15)
C22 C 0.1650(5) -0.1381(7) 0.4288(15)
H23 H 0.182685 -0.189470 0.380186
C23 C 0.1053(5) -0.1436(8) 0.5022(15)
H24 H 0.083132 -0.198601 0.504318
C24 C 0.0807(5) -0.0664(8) 0.5701(16)
H25 H 0.041183 -0.070213 0.618566
C25 C 0.1109(5) 0.0161(8) 0.5707(15)
H26 H 0.092042 0.067614 0.615604
C26 C 0.1711(5) 0.0211(7) 0.5019(15)
H27 H 0.193521 0.076088 0.505080
loop_
_geom_bond_atom_site_label_1
_geom_bond_atom_site_label_2
_geom_bond_site_symmetry_1
_geom_bond_site_symmetry_2
N1 C5 1_555 1_555
O1 C14 1_555 1_555
O2 C18 1_555 1_555
O3 C13 1_555 1_555
C1 H1 1_555 1_555
H2 C1 1_555 1_555
H3 C1 1_555 1_555
C2 C1 1_555 1_555
C3 C2 1_555 1_555
H4 C3 1_555 1_555
C4 C3 1_555 1_555
H5 C4 1_555 1_555
C5 C4 1_555 1_555
C6 C5 1_555 1_555
C7 C2 1_555 1_555
H6 C7 1_555 1_555
C8 C6 1_555 1_555
C9 N1 1_555 1_555
C10 C9 1_555 1_555
H7 C10 1_555 1_555
H8 C10 1_555 1_555
C11 C10 1_555 1_555
H9 C11 1_555 1_555
H10 C11 1_555 1_555
C12 C8 1_555 1_555
H11 C12 1_555 1_555
H12 C12 1_555 1_555
C13 C9 1_555 1_555
C14 C13 1_555 1_555
H13 C14 1_555 1_555
H14 C14 1_555 1_555
C15 O1 1_555 1_555
H15 C15 1_555 1_555
H16 C15 1_555 1_555
C16 C15 1_555 1_555
H17 C16 1_555 1_555
H18 C16 1_555 1_555
C17 N1 1_555 1_555
H19 C17 1_555 1_555
H20 C17 1_555 1_555
C18 C13 1_555 1_555
C19 C18 1_555 1_555
H21 C19 1_555 1_555
H22 C19 1_555 1_555
C20 O2 1_555 1_555
C21 C20 1_555 1_555
C22 C21 1_555 1_555
H23 C22 1_555 1_555
C23 C22 1_555 1_555
H24 C23 1_555 1_555
C24 C23 1_555 1_555
H25 C24 1_555 1_555
C25 C24 1_555 1_555
H26 C25 1_555 1_555
C26 C21 1_555 1_555
H27 C26 1_555 1_555
O3 C20 1_555 1_555
C6 C7 1_555 1_555
C8 C9 1_555 1_555
C8 C20 1_555 1_555
C11 C12 1_555 1_555
C16 C17 1_555 1_555
C25 C26 1_555 1_555

#END
