
#######################################################################
#
#                 Cambridge Crystallographic Data Centre
#                                CCDC 
#
#######################################################################
#
# If this CIF has been generated from an entry in the Cambridge 
# Structural Database, then it will include bibliographic, chemical, 
# crystal, experimental, refinement or atomic coordinate data resulting 
# from the CCDC's data processing and validation procedures.
#
#######################################################################

data_JIKDOZ
_chemical_formula_moiety         'C31 H26 N2 O2'
_chemical_name_systematic        
2-(diphenylmethyl)-3'-ethoxy-1',3'-dihydro-1H,2'H-[3,3'-biindol]-2'-one
_symmetry_cell_setting           triclinic
_symmetry_space_group_name_H-M   'P -1'
_symmetry_Int_Tables_number      2
_space_group_name_Hall           '-P 1'
loop_
_symmetry_equiv_pos_site_id
_symmetry_equiv_pos_as_xyz
1 x,y,z
2 -x,-y,-z
_cell_length_a                   7.8829(5)
_cell_length_b                   12.3033(7)
_cell_length_c                   14.4379(9)
_cell_angle_alpha                105.356(3)
_cell_angle_beta                 104.665(4)
_cell_angle_gamma                97.178(3)
_cell_volume                     1278.33
_exptl_crystal_colour            colorless
_exptl_crystal_description       block
_cell_formula_units_Z            2
loop_
_atom_site_label
_atom_site_type_symbol
_atom_site_fract_x
_atom_site_fract_y
_atom_site_fract_z
O1 O 0.5510(4) 0.8569(2) 0.94715(17)
O2 O 0.7352(3) 0.79069(19) 0.79042(18)
N1 N 0.5469(4) 1.0131(2) 0.8895(2)
H1 H 0.520635 1.058982 0.937671
N2 N 0.2068(3) 0.5967(2) 0.67027(19)
H2 H 0.155729 0.527629 0.662657
C1 C 0.5613(4) 0.9051(3) 0.8836(2)
C2 C 0.5870(4) 0.8461(3) 0.7792(2)
C3 C 0.6095(4) 0.9484(3) 0.7406(3)
C4 C 0.6456(5) 0.9585(4) 0.6546(3)
H3 H 0.665000 0.895501 0.609137
C5 C 0.6526(7) 1.0631(4) 0.6367(4)
H4 H 0.680426 1.071727 0.579810
C6 C 0.6182(7) 1.1560(4) 0.7034(4)
H5 H 0.619394 1.225504 0.689235
C7 C 0.5824(6) 1.1472(3) 0.7900(4)
H6 H 0.560816 1.209668 0.834938
C8 C 0.5798(5) 1.0428(3) 0.8073(3)
C9 C 0.4182(4) 0.7572(3) 0.7198(2)
C10 C 0.2551(4) 0.7752(3) 0.6563(2)
C11 C 0.2027(5) 0.8646(3) 0.6214(3)
H7 H 0.283029 0.933998 0.638713
C12 C 0.0301(5) 0.8488(3) 0.5610(3)
H8 H -0.004581 0.908265 0.537175
C13 C -0.0949(5) 0.7458(3) 0.5342(3)
H9 H -0.210777 0.738359 0.493805
C14 C -0.0481(4) 0.6561(3) 0.5670(3)
H10 H -0.130095 0.587380 0.549758
C15 C 0.1275(4) 0.6715(3) 0.6274(2)
C16 C 0.3822(4) 0.6489(3) 0.7279(2)
C17 C 0.4956(4) 0.5834(3) 0.7840(2)
H11 H 0.587381 0.641379 0.840448
C18 C 0.5961(4) 0.5126(3) 0.7204(2)
C19 C 0.5243(4) 0.4593(3) 0.6181(2)
H12 H 0.412219 0.468757 0.584889
C20 C 0.6159(5) 0.3922(3) 0.5644(3)
H13 H 0.565133 0.356900 0.495474
C21 C 0.7826(5) 0.3769(3) 0.6121(3)
H14 H 0.843637 0.330660 0.576003
C22 C 0.8562(5) 0.4306(3) 0.7130(3)
H15 H 0.969616 0.422341 0.745557
C23 C 0.7642(4) 0.4971(3) 0.7675(3)
H16 H 0.815399 0.531922 0.836405
C24 C 0.3887(4) 0.5126(3) 0.8304(2)
C25 C 0.3419(5) 0.3944(3) 0.7976(3)
H17 H 0.374316 0.353558 0.742918
C26 C 0.2475(6) 0.3347(4) 0.8439(4)
H18 H 0.216597 0.254694 0.820541
C27 C 0.1996(6) 0.3955(5) 0.9256(4)
H19 H 0.138110 0.356301 0.958108
C28 C 0.2426(6) 0.5120(5) 0.9578(3)
H20 H 0.207430 0.552544 1.011497
C29 C 0.3368(5) 0.5709(4) 0.9127(3)
H21 H 0.367020 0.650948 0.936973
C30 C 0.9037(5) 0.8647(4) 0.8465(5)
H22 H 0.892629 0.915934 0.907596
H23 H 0.938572 0.911537 0.807312
C31 C 1.0415(6) 0.8017(5) 0.8728(4)
H24 H 1.020207 0.767791 0.922628
H25 H 1.156392 0.853247 0.899389
H26 H 1.039591 0.742070 0.813914
loop_
_geom_bond_atom_site_label_1
_geom_bond_atom_site_label_2
_geom_bond_site_symmetry_1
_geom_bond_site_symmetry_2
O1 C1 1_555 1_555
O2 C2 1_555 1_555
N1 H1 1_555 1_555
N2 H2 1_555 1_555
C1 N1 1_555 1_555
C2 C1 1_555 1_555
C3 C2 1_555 1_555
C4 C3 1_555 1_555
H3 C4 1_555 1_555
C5 C4 1_555 1_555
H4 C5 1_555 1_555
C6 C5 1_555 1_555
H5 C6 1_555 1_555
C7 C6 1_555 1_555
H6 C7 1_555 1_555
C8 N1 1_555 1_555
C9 C2 1_555 1_555
C10 C9 1_555 1_555
C11 C10 1_555 1_555
H7 C11 1_555 1_555
C12 C11 1_555 1_555
H8 C12 1_555 1_555
C13 C12 1_555 1_555
H9 C13 1_555 1_555
C14 C13 1_555 1_555
H10 C14 1_555 1_555
C15 N2 1_555 1_555
C16 N2 1_555 1_555
C17 C16 1_555 1_555
H11 C17 1_555 1_555
C18 C17 1_555 1_555
C19 C18 1_555 1_555
H12 C19 1_555 1_555
C20 C19 1_555 1_555
H13 C20 1_555 1_555
C21 C20 1_555 1_555
H14 C21 1_555 1_555
C22 C21 1_555 1_555
H15 C22 1_555 1_555
C23 C18 1_555 1_555
H16 C23 1_555 1_555
C24 C17 1_555 1_555
C25 C24 1_555 1_555
H17 C25 1_555 1_555
C26 C25 1_555 1_555
H18 C26 1_555 1_555
C27 C26 1_555 1_555
H19 C27 1_555 1_555
C28 C27 1_555 1_555
H20 C28 1_555 1_555
C29 C24 1_555 1_555
H21 C29 1_555 1_555
C30 O2 1_555 1_555
H22 C30 1_555 1_555
H23 C30 1_555 1_555
C31 C30 1_555 1_555
H24 C31 1_555 1_555
H25 C31 1_555 1_555
H26 C31 1_555 1_555
C3 C8 1_555 1_555
C7 C8 1_555 1_555
C9 C16 1_555 1_555
C10 C15 1_555 1_555
C14 C15 1_555 1_555
C22 C23 1_555 1_555
C28 C29 1_555 1_555

#END
