
#######################################################################
#
#                 Cambridge Crystallographic Data Centre
#                                CCDC 
#
#######################################################################
#
# If this CIF has been generated from an entry in the Cambridge 
# Structural Database, then it will include bibliographic, chemical, 
# crystal, experimental, refinement or atomic coordinate data resulting 
# from the CCDC's data processing and validation procedures.
#
#######################################################################

data_JIKJAO
_chemical_formula_moiety         'C21 H14 N2 O3'
_chemical_name_systematic        '3-Benzoyl-2-phenylquinoxaline 1,4-dioxide'
_symmetry_cell_setting           monoclinic
_symmetry_space_group_name_H-M   'P 21/c'
_symmetry_Int_Tables_number      14
_space_group_name_Hall           '-P 2ybc'
loop_
_symmetry_equiv_pos_site_id
_symmetry_equiv_pos_as_xyz
1 x,y,z
2 -x,1/2+y,1/2-z
3 -x,-y,-z
4 x,1/2-y,1/2+z
_cell_length_a                   7.520(3)
_cell_length_b                   36.048(7)
_cell_length_c                   12.801(3)
_cell_angle_alpha                90
_cell_angle_beta                 100.51(2)
_cell_angle_gamma                90
_cell_volume                     3411.89
_cell_formula_units_Z            8
loop_
_atom_site_label
_atom_site_type_symbol
_atom_site_fract_x
_atom_site_fract_y
_atom_site_fract_z
N1 N 0.0055(5) 0.13879(9) 0.2991(3)
N2 N 0.0510(5) 0.1986(1) 0.1701(3)
O1 O -0.0270(4) 0.11225(8) 0.3606(2)
O2 O 0.0633(5) 0.22682(8) 0.1096(3)
O3 O -0.2443(4) 0.1726(1) -0.0196(3)
C1 C 0.0861(5) 0.1716(1) 0.3443(3)
C2 C -0.0361(5) 0.1356(1) 0.1915(3)
C3 C -0.0158(5) 0.1662(1) 0.1294(3)
C4 C 0.1089(5) 0.2016(1) 0.2802(3)
C5 C 0.1859(6) 0.2346(1) 0.3243(4)
C6 C 0.2400(7) 0.2366(1) 0.4319(4)
C7 C 0.2191(7) 0.2065(1) 0.4958(4)
C8 C 0.1443(6) 0.1744(1) 0.4545(3)
C9 C -0.0964(6) 0.0991(1) 0.1474(3)
C10 C 0.0201(7) 0.0699(1) 0.1533(4)
C11 C -0.0304(9) 0.0355(1) 0.1161(5)
C12 C -0.204(1) 0.0295(2) 0.0673(5)
C13 C -0.3241(8) 0.0581(2) 0.0572(5)
C14 C -0.2737(7) 0.0929(2) 0.0970(4)
C15 C -0.0838(6) 0.1670(1) 0.0103(3)
C16 C 0.0449(6) 0.1626(1) -0.0619(3)
C17 C 0.2251(6) 0.1542(2) -0.0243(4)
C18 C 0.3419(7) 0.1523(2) -0.0946(4)
C19 C 0.2841(4) 0.1588(2) -0.2008(4)
C20 C 0.1056(7) 0.1664(1) -0.2387(3)
C21 C -0.0120(6) 0.1681(1) -0.1700(3)
H1 H 0.192 0.257 0.275
H2 H 0.289 0.260 0.463
H3 H 0.252 0.210 0.563
H4 H 0.124 0.153 0.494
H5 H 0.123 0.072 0.185
H6 H 0.045 0.011 0.127
H7 H -0.245 0.005 0.043
H8 H -0.425 0.056 0.030
H9 H -0.350 0.110 0.092
H10 H 0.261 0.147 0.048
H11 H 0.439 0.145 -0.075
H12 H 0.364 0.157 -0.245
H13 H 0.066 0.174 -0.312
H14 H -0.127 0.172 -0.193
O4 O 0.4323(4) 0.12693(8) 0.2188(2)
O5 O 0.7044(5) 0.18106(9) 0.6041(2)
O6 O 0.4549(4) 0.1087(1) 0.6316(3)
N3 N 0.5106(4) 0.13877(9) 0.3108(3)
N4 N 0.6517(5) 0.1670(1) 0.5102(3)
C22 C 0.5768(5) 0.1749(1) 0.3200(3)
C23 C 0.5292(5) 0.1167(1) 0.3978(3)
C24 C 0.5969(5) 0.1320(1) 0.4970(3)
C25 C 0.6502(5) 0.1896(1) 0.4205(3)
C26 C 0.7167(6) 0.2255(1) 0.4306(4)
C27 C 0.7100(7) 0.2464(1) 0.3420(4)
C28 C 0.6378(7) 0.2327(1) 0.2416(4)
C29 C 0.5717(6) 0.1974(1) 0.2306(3)
C30 C 0.4839(6) 0.0771(1) 0.3834(3)
C31 C 0.5948(8) 0.0543(1) 0.3407(4)
C32 C 0.557(1) 0.0177(2) 0.3276(5)
C33 C 0.410(1) 0.0025(2) 0.3546(6)
C34 C 0.2972(9) 0.0248(2) 0.3950(2)
C35 C 0.3303(7) 0.0617(2) 0.4110(4)
C36 C 0.5968(6) 0.1110(1) 0.5997(3)
C37 C 0.7674(6) 0.0948(1) 0.6569(3)
C38 C 0.9116(6) 0.0880(1) 0.6058(3)
C39 C 1.066(7) 0.0720(2) 0.6615(4)
C40 C 1.0783(7) 0.0636(2) 0.7667(4)
C41 C 0.9386(8) 0.0706(1) 0.8186(4)
C42 C 0.7812(7) 0.0856(1) 0.7634(3)
H15 H 0.758 0.235 0.501
H16 H 0.754 0.273 0.352
H17 H 0.648 0.247 0.179
H18 H 0.533 0.187 0.168
H19 H 0.686 0.064 0.320
H20 H 0.628 0.002 0.288
H21 H 0.373 -0.022 0.351
H22 H 0.193 0.018 0.419
H23 H 0.266 0.077 0.436
H24 H 0.903 0.093 0.533
H25 H 1.155 0.060 0.626
H26 H 1.177 0.051 0.804
H27 H 0.945 0.064 0.897
H28 H 0.688 0.089 0.795
loop_
_geom_bond_atom_site_label_1
_geom_bond_atom_site_label_2
_geom_bond_site_symmetry_1
_geom_bond_site_symmetry_2
N1 O1 1_555 1_555
N2 O2 1_555 1_555
O3 C15 1_555 1_555
C1 N1 1_555 1_555
C2 N1 1_555 1_555
C3 N2 1_555 1_555
C4 N2 1_555 1_555
C5 C4 1_555 1_555
C6 C5 1_555 1_555
C7 C6 1_555 1_555
C8 C1 1_555 1_555
C9 C2 1_555 1_555
C10 C9 1_555 1_555
C11 C10 1_555 1_555
C12 C11 1_555 1_555
C13 C12 1_555 1_555
C14 C9 1_555 1_555
C15 C3 1_555 1_555
C16 C15 1_555 1_555
C17 C16 1_555 1_555
C18 C17 1_555 1_555
C19 C18 1_555 1_555
C20 C19 1_555 1_555
C21 C16 1_555 1_555
O4 N3 1_555 1_555
O5 N4 1_555 1_555
O6 C36 1_555 1_555
N3 C22 1_555 1_555
N4 C24 1_555 1_555
C22 C25 1_555 1_555
C23 N3 1_555 1_555
C24 C23 1_555 1_555
C25 N4 1_555 1_555
C26 C25 1_555 1_555
C27 C26 1_555 1_555
C28 C27 1_555 1_555
C29 C22 1_555 1_555
C30 C23 1_555 1_555
C31 C30 1_555 1_555
C32 C31 1_555 1_555
C33 C32 1_555 1_555
C34 C33 1_555 1_555
C35 C30 1_555 1_555
C36 C24 1_555 1_555
C37 C36 1_555 1_555
C38 C37 1_555 1_555
C39 C38 1_555 1_555
C40 C39 1_555 1_555
C41 C40 1_555 1_555
C42 C37 1_555 1_555
H1 C5 1_555 1_555
H2 C6 1_555 1_555
H3 C7 1_555 1_555
H4 C8 1_555 1_555
H5 C10 1_555 1_555
H6 C11 1_555 1_555
H7 C12 1_555 1_555
H8 C13 1_555 1_555
H9 C14 1_555 1_555
H10 C17 1_555 1_555
H11 C18 1_555 1_555
H12 C19 1_555 1_555
H13 C20 1_555 1_555
H14 C21 1_555 1_555
H15 C26 1_555 1_555
H16 C27 1_555 1_555
H17 C28 1_555 1_555
H18 C29 1_555 1_555
H19 C31 1_555 1_555
H20 C32 1_555 1_555
H21 C33 1_555 1_555
H22 C34 1_555 1_555
H23 C35 1_555 1_555
H24 C38 1_555 1_555
H25 C39 1_555 1_555
H26 C40 1_555 1_555
H27 C41 1_555 1_555
H28 C42 1_555 1_555
C1 C4 1_555 1_555
C2 C3 1_555 1_555
C7 C8 1_555 1_555
C13 C14 1_555 1_555
C20 C21 1_555 1_555
C28 C29 1_555 1_555
C34 C35 1_555 1_555
C41 C42 1_555 1_555

#END
