
#######################################################################
#
#                 Cambridge Crystallographic Data Centre
#                                CCDC 
#
#######################################################################
#
# If this CIF has been generated from an entry in the Cambridge 
# Structural Database, then it will include bibliographic, chemical, 
# crystal, experimental, refinement or atomic coordinate data resulting 
# from the CCDC's data processing and validation procedures.
#
#######################################################################

data_JIKMOI
_chemical_formula_moiety         'C21 H19 N1 O2'
_chemical_name_systematic        
3-methylidene-1-phenyl-5,6,10b,10c-tetrahydro-1H,3H,4H-1,3a-epoxy-2-oxa-6a-azafluoranthene
_symmetry_cell_setting           monoclinic
_symmetry_space_group_name_H-M   'P 21/c'
_symmetry_Int_Tables_number      14
_space_group_name_Hall           '-P 2ybc'
loop_
_symmetry_equiv_pos_site_id
_symmetry_equiv_pos_as_xyz
1 x,y,z
2 -x,1/2+y,1/2-z
3 -x,-y,-z
4 x,1/2-y,1/2+z
_cell_length_a                   11.260(15)
_cell_length_b                   15.56(2)
_cell_length_c                   11.283(15)
_cell_angle_alpha                90
_cell_angle_beta                 115.64(2)
_cell_angle_gamma                90
_cell_volume                     1782.19
_cell_formula_units_Z            4
loop_
_atom_site_label
_atom_site_type_symbol
_atom_site_fract_x
_atom_site_fract_y
_atom_site_fract_z
N1 N 0.4812(3) 0.03482(15) 0.3462(2)
O1 O 0.52464(17) 0.21781(11) 0.28555(13)
O2 O 0.44728(18) 0.29932(11) 0.40475(14)
C1 C 0.7766(3) 0.29983(18) 0.4249(2)
H1 H 0.7578 0.2716 0.3462
C2 C 0.8948(3) 0.3457(2) 0.4880(3)
H2 H 0.9539 0.3478 0.4506
C3 C 0.9245(3) 0.3883(2) 0.6067(3)
H3 H 1.0025 0.4191 0.6478
C4 C 0.8360(3) 0.3840(2) 0.6630(3)
H4 H 0.8560 0.4114 0.7427
C5 C 0.7177(3) 0.33894(18) 0.6004(2)
H5 H 0.6588 0.3369 0.6380
C6 C 0.6872(3) 0.29646(16) 0.4801(2)
C7 C 0.5608(3) 0.24516(17) 0.41792(19)
C8 C 0.3938(3) 0.18350(18) 0.2615(2)
C9 C 0.3377(3) 0.26068(19) 0.3034(2)
C10 C 0.2144(3) 0.2898(2) 0.2625(3)
H6 H 0.1980 0.3381 0.3017
H7 H 0.1452 0.2618 0.1948
C11 C 0.5529(3) 0.15976(17) 0.4890(2)
H8 H 0.5404 0.1699 0.5686
C12 C 0.6662(3) 0.09858(17) 0.5109(2)
C13 C 0.7988(3) 0.1013(2) 0.6004(3)
H9 H 0.8297 0.1449 0.6628
C14 C 0.8859(4) 0.0375(2) 0.5957(3)
H10 H 0.9744 0.0389 0.6550
C15 C 0.8387(5) -0.0274(2) 0.5020(4)
H11 H 0.8970 -0.0688 0.4993
C16 C 0.7063(5) -0.0322(2) 0.4119(4)
H12 H 0.6766 -0.0759 0.3497
C17 C 0.6188(4) 0.03057(18) 0.4175(3)
C18 C 0.4309(3) 0.11560(17) 0.3757(2)
H13 H 0.3586 0.1057 0.4004
C19 C 0.4040(4) -0.0032(2) 0.2154(3)
H14 H 0.3193 -0.0220 0.2088
H15 H 0.4500 -0.0530 0.2044
C20 C 0.3827(4) 0.0630(2) 0.1050(3)
H16 H 0.4668 0.0765 0.1051
H17 H 0.3267 0.0377 0.0204
C21 C 0.3188(3) 0.1463(2) 0.1231(2)
H18 H 0.3170 0.1884 0.0590
H19 H 0.2286 0.1346 0.1074
loop_
_geom_bond_atom_site_label_1
_geom_bond_atom_site_label_2
_geom_bond_site_symmetry_1
_geom_bond_site_symmetry_2
N1 C17 1_555 1_555
O1 C7 1_555 1_555
O2 C7 1_555 1_555
C1 H1 1_555 1_555
C2 C1 1_555 1_555
H2 C2 1_555 1_555
C3 C2 1_555 1_555
H3 C3 1_555 1_555
C4 C3 1_555 1_555
H4 C4 1_555 1_555
C5 C4 1_555 1_555
H5 C5 1_555 1_555
C6 C1 1_555 1_555
C7 C6 1_555 1_555
C8 O1 1_555 1_555
C9 O2 1_555 1_555
C10 C9 1_555 1_555
H6 C10 1_555 1_555
H7 C10 1_555 1_555
C11 C7 1_555 1_555
H8 C11 1_555 1_555
C12 C11 1_555 1_555
C13 C12 1_555 1_555
H9 C13 1_555 1_555
C14 C13 1_555 1_555
H10 C14 1_555 1_555
C15 C14 1_555 1_555
H11 C15 1_555 1_555
C16 C15 1_555 1_555
H12 C16 1_555 1_555
C17 C12 1_555 1_555
C18 N1 1_555 1_555
H13 C18 1_555 1_555
C19 N1 1_555 1_555
H14 C19 1_555 1_555
H15 C19 1_555 1_555
C20 C19 1_555 1_555
H16 C20 1_555 1_555
H17 C20 1_555 1_555
C21 C8 1_555 1_555
H18 C21 1_555 1_555
H19 C21 1_555 1_555
C5 C6 1_555 1_555
C8 C9 1_555 1_555
C8 C18 1_555 1_555
C11 C18 1_555 1_555
C16 C17 1_555 1_555
C20 C21 1_555 1_555

#END
