
#######################################################################
#
#                 Cambridge Crystallographic Data Centre
#                                CCDC 
#
#######################################################################
#
# If this CIF has been generated from an entry in the Cambridge 
# Structural Database, then it will include bibliographic, chemical, 
# crystal, experimental, refinement or atomic coordinate data resulting 
# from the CCDC's data processing and validation procedures.
#
#######################################################################

data_JIKMEV
_chemical_formula_moiety         'C18 H27 N3 O5 Si1'
_chemical_name_systematic        
cis-4,5-Dimethyl-1-(o-nitrobenzyl)-2-(2-(trimethylsilyl)-ethoxycarbonyl)pyrazolidin-3-one
_symmetry_cell_setting           triclinic
_symmetry_space_group_name_H-M   'P -1'
_symmetry_Int_Tables_number      2
_space_group_name_Hall           '-P 1'
loop_
_symmetry_equiv_pos_site_id
_symmetry_equiv_pos_as_xyz
1 x,y,z
2 -x,-y,-z
_cell_length_a                   11.237(3)
_cell_length_b                   13.073(2)
_cell_length_c                   8.040(3)
_cell_angle_alpha                106.40(2)
_cell_angle_beta                 105.48(2)
_cell_angle_gamma                85.70(2)
_cell_volume                     1091.93
_exptl_crystal_colour            colorless
_chemical_melting_point          101-102.5deg.C
_cell_formula_units_Z            2
loop_
_atom_site_label
_atom_site_type_symbol
_atom_site_fract_x
_atom_site_fract_y
_atom_site_fract_z
Si1 Si 0.3079(2) 0.8937(1) 0.6181(3)
O1 O -0.0944(3) 0.3589(3) 0.0435(5)
O2 O -0.0246(3) 0.5651(3) 0.2711(5)
O3 O 0.1813(3) 0.5859(2) 0.3533(4)
O4 O 0.4829(4) 0.2412(4) -0.2762(6)
O5 O 0.3447(4) 0.2133(4) -0.1602(6)
N1 N 0.1025(3) 0.4277(3) 0.1838(5)
N2 N 0.2275(3) 0.3902(3) 0.2016(5)
N3 N 0.4350(4) 0.2619(4) -0.1530(6)
C1 C 0.0166(4) 0.3478(4) 0.0826(7)
C2 C 0.0894(4) 0.2470(4) 0.0363(7)
C3 C 0.2128(4) 0.2743(3) 0.1739(7)
C4 C 0.0193(9) 0.1485(5) 0.022(1)
C5 C 0.2178(5) 0.2533(4) 0.3505(9)
C6 C 0.0770(4) 0.5313(4) 0.2723(7)
C7 C 0.1690(5) 0.6981(4) 0.4440(8)
C8 C 0.2929(6) 0.7478(4) 0.4974(8)
C9 C 0.4763(8) 0.9273(6) 0.707(1)
C10 C 0.237(1) 0.9692(7) 0.464(2)
C11 C 0.247(1) 0.9246(7) 0.813(2)
C12 C 0.2752(4) 0.4144(3) 0.0620(6)
C13 C 0.4140(4) 0.4092(3) 0.1102(6)
C14 C 0.4882(4) 0.3447(3) 0.0090(6)
C15 C 0.6159(4) 0.3557(4) 0.0540(7)
C16 C 0.6729(4) 0.4304(5) 0.2078(7)
C17 C 0.6038(4) 0.4926(4) 0.3160(7)
C18 C 0.4768(4) 0.4833(4) 0.2645(6)
H1 H 0.1027 0.2401 -0.0782
H2 H 0.2770 0.2361 0.1260
H3 H 0.2916 0.2826 0.4360
H4 H 0.2163 0.1785 0.3350
H5 H 0.1485 0.2854 0.3917
H6 H -0.0658 0.1563 -0.0321
H7 H 0.0286 0.1404 0.1388
H8 H 0.0512 0.0874 -0.0488
H9 H 0.1401 0.7046 0.5472
H10 H 0.1126 0.7319 0.3650
H11 H 0.3468 0.7107 0.5735
H12 H 0.3194 0.7379 0.3912
H13 H 0.2353 0.9994 0.8528
H14 H 0.3040 0.9015 0.9066
H15 H 0.1705 0.8891 0.7836
H16 H 0.1747 1.0138 0.5067
H17 H 0.2009 0.9220 0.3499
H18 H 0.2975 1.0119 0.4524
H19 H 0.5130 0.8906 0.7945
H20 H 0.4858 1.0020 0.7602
H21 H 0.5154 0.9065 0.6114
H22 H 0.2432 0.3638 -0.0499
H23 H 0.2496 0.4840 0.0528
H24 H 0.4302 0.5295 0.3378
H25 H 0.6432 0.5419 0.4257
H26 H 0.7600 0.4391 0.2394
H27 H 0.6631 0.3119 -0.0209
loop_
_geom_bond_atom_site_label_1
_geom_bond_atom_site_label_2
_geom_bond_site_symmetry_1
_geom_bond_site_symmetry_2
Si1 C8 1_555 1_555
O1 C1 1_555 1_555
O2 C6 1_555 1_555
O3 C6 1_555 1_555
O4 N3 1_555 1_555
O5 N3 1_555 1_555
N1 N2 1_555 1_555
N2 C3 1_555 1_555
N3 C14 1_555 1_555
C1 N1 1_555 1_555
C2 C1 1_555 1_555
C3 C2 1_555 1_555
C4 C2 1_555 1_555
C5 C3 1_555 1_555
C6 N1 1_555 1_555
C7 O3 1_555 1_555
C8 C7 1_555 1_555
C9 Si1 1_555 1_555
C10 Si1 1_555 1_555
C11 Si1 1_555 1_555
C12 N2 1_555 1_555
C13 C12 1_555 1_555
C14 C13 1_555 1_555
C15 C14 1_555 1_555
C16 C15 1_555 1_555
C17 C16 1_555 1_555
C18 C13 1_555 1_555
H1 C2 1_555 1_555
H2 C3 1_555 1_555
H3 C5 1_555 1_555
H4 C5 1_555 1_555
H5 C5 1_555 1_555
H6 C4 1_555 1_555
H7 C4 1_555 1_555
H8 C4 1_555 1_555
H9 C7 1_555 1_555
H10 C7 1_555 1_555
H11 C8 1_555 1_555
H12 C8 1_555 1_555
H13 C11 1_555 1_555
H14 C11 1_555 1_555
H15 C11 1_555 1_555
H16 C10 1_555 1_555
H17 C10 1_555 1_555
H18 C10 1_555 1_555
H19 C9 1_555 1_555
H20 C9 1_555 1_555
H21 C9 1_555 1_555
H22 C12 1_555 1_555
H23 C12 1_555 1_555
H24 C18 1_555 1_555
H25 C17 1_555 1_555
H26 C16 1_555 1_555
H27 C15 1_555 1_555
C17 C18 1_555 1_555

#END
