
#######################################################################
#
#                 Cambridge Crystallographic Data Centre
#                                CCDC 
#
#######################################################################
#
# If this CIF has been generated from an entry in the Cambridge 
# Structural Database, then it will include bibliographic, chemical, 
# crystal, experimental, refinement or atomic coordinate data resulting 
# from the CCDC's data processing and validation procedures.
#
#######################################################################

data_JIKMUO
_chemical_formula_moiety         'C22 H20 Br1 N1 O3'
_chemical_name_systematic        
7-bromo-5-methoxy-3-methylidene-1-phenyl-5,6,10b,10c-tetrahydro-1H,3H,4H-1,3a-epoxy-2-oxa-6a-azafluoranthene
_symmetry_cell_setting           monoclinic
_symmetry_space_group_name_H-M   'P 21/n'
_symmetry_Int_Tables_number      14
_space_group_name_Hall           '-P 2yn'
loop_
_symmetry_equiv_pos_site_id
_symmetry_equiv_pos_as_xyz
1 x,y,z
2 1/2-x,1/2+y,1/2-z
3 -x,-y,-z
4 1/2+x,1/2-y,1/2+z
_cell_length_a                   9.306(3)
_cell_length_b                   10.036(4)
_cell_length_c                   20.455(7)
_cell_angle_alpha                90
_cell_angle_beta                 102.872(7)
_cell_angle_gamma                90
_cell_volume                     1862.39
_cell_formula_units_Z            4
loop_
_atom_site_label
_atom_site_type_symbol
_atom_site_fract_x
_atom_site_fract_y
_atom_site_fract_z
Br1 Br 1.14855(5) 0.23802(4) 1.103366(19)
N1 N 0.8603(3) 0.1734(3) 0.97017(14)
O1 O 0.7070(3) 0.4748(3) 1.03593(12)
O2 O 0.8255(2) 0.3513(2) 0.84955(11)
O3 O 0.6837(3) 0.2279(2) 0.76710(11)
C1 C 1.0067(4) 0.1629(3) 0.96556(17)
C2 C 1.1382(4) 0.1785(4) 1.01393(18)
C3 C 1.2718(4) 0.1497(4) 0.9976(2)
H1 H 1.3588 0.1614 1.0298
C4 C 1.2785(5) 0.1044(4) 0.9349(2)
H2 H 1.3689 0.0832 0.9253
C5 C 1.1493(4) 0.0904(4) 0.88598(19)
H3 H 1.1527 0.0599 0.8434
C6 C 1.0162(4) 0.1218(3) 0.90091(17)
C7 C 0.8633(4) 0.1223(3) 0.85549(16)
H4 H 0.8363 0.0368 0.8329
C8 C 0.7630(4) 0.1615(3) 0.90366(17)
H5 H 0.6843 0.0963 0.9030
C9 C 0.7015(4) 0.2983(3) 0.87529(17)
C10 C 0.6563(4) 0.3938(4) 0.92408(17)
H6 H 0.5607 0.3679 0.9314
H7 H 0.6474 0.4828 0.9051
C11 C 0.7683(4) 0.3950(4) 0.99081(18)
H8 H 0.8602 0.4356 0.9848
C12 C 0.7983(4) 0.2531(4) 1.01615(18)
H9 H 0.8662 0.2546 1.0596
H10 H 0.7069 0.2128 1.0217
C13 C 0.8145(5) 0.5240(4) 1.09069(19)
H11 H 0.8517 0.4520 1.1206
H12 H 0.7708 0.5900 1.1141
H13 H 0.8939 0.5633 1.0745
C14 C 0.5965(4) 0.2708(3) 0.80939(18)
C15 C 0.4515(4) 0.2797(4) 0.7910(2)
H14 H 0.4032 0.2564 0.7477
H15 H 0.3976 0.3092 0.8215
C16 C 0.8356(4) 0.2428(3) 0.80703(16)
C17 C 0.9343(4) 0.2673(4) 0.75977(16)
C18 C 0.9808(4) 0.3940(4) 0.74911(17)
H16 H 0.9535 0.4653 0.7727
C19 C 1.0679(4) 0.4159(4) 0.70338(19)
H17 H 1.0993 0.5018 0.6967
C20 C 1.1084(4) 0.3114(5) 0.6679(2)
H18 H 1.1675 0.3265 0.6374
C21 C 1.0614(4) 0.1851(5) 0.67751(19)
H19 H 1.0877 0.1144 0.6532
C22 C 0.9744(4) 0.1622(4) 0.72358(19)
H20 H 0.9430 0.0762 0.7301
loop_
_geom_bond_atom_site_label_1
_geom_bond_atom_site_label_2
_geom_bond_site_symmetry_1
_geom_bond_site_symmetry_2
Br1 C2 1_555 1_555
N1 C1 1_555 1_555
O1 C11 1_555 1_555
O2 C9 1_555 1_555
O3 C14 1_555 1_555
C1 C2 1_555 1_555
C2 C3 1_555 1_555
C3 H1 1_555 1_555
C4 C3 1_555 1_555
H2 C4 1_555 1_555
C5 C4 1_555 1_555
H3 C5 1_555 1_555
C6 C1 1_555 1_555
C7 C6 1_555 1_555
H4 C7 1_555 1_555
C8 N1 1_555 1_555
H5 C8 1_555 1_555
C9 C8 1_555 1_555
C10 C9 1_555 1_555
H6 C10 1_555 1_555
H7 C10 1_555 1_555
C11 C10 1_555 1_555
H8 C11 1_555 1_555
C12 N1 1_555 1_555
H9 C12 1_555 1_555
H10 C12 1_555 1_555
C13 O1 1_555 1_555
H11 C13 1_555 1_555
H12 C13 1_555 1_555
H13 C13 1_555 1_555
C14 C9 1_555 1_555
C15 C14 1_555 1_555
H14 C15 1_555 1_555
H15 C15 1_555 1_555
C16 O2 1_555 1_555
C17 C16 1_555 1_555
C18 C17 1_555 1_555
H16 C18 1_555 1_555
C19 C18 1_555 1_555
H17 C19 1_555 1_555
C20 C19 1_555 1_555
H18 C20 1_555 1_555
C21 C20 1_555 1_555
H19 C21 1_555 1_555
C22 C17 1_555 1_555
H20 C22 1_555 1_555
O3 C16 1_555 1_555
C5 C6 1_555 1_555
C7 C8 1_555 1_555
C7 C16 1_555 1_555
C11 C12 1_555 1_555
C21 C22 1_555 1_555

#END
