
#######################################################################
#
#                 Cambridge Crystallographic Data Centre
#                                CCDC 
#
#######################################################################
#
# If this CIF has been generated from an entry in the Cambridge 
# Structural Database, then it will include bibliographic, chemical, 
# crystal, experimental, refinement or atomic coordinate data resulting 
# from the CCDC's data processing and validation procedures.
#
#######################################################################

data_JIKNID
_chemical_formula_moiety         'C20 H19 F3 N2 O4 S1'
_chemical_name_systematic        
'methyl 2,2-dimethyl-3-{2-[3-(trifluoromethyl)phenoxy]pyridine-3-carbonyl}-1,3-thiazolidine-4-carboxylate'
_symmetry_cell_setting           orthorhombic
_symmetry_space_group_name_H-M   'P 21 21 21'
_symmetry_Int_Tables_number      19
_space_group_name_Hall           'P 2ac 2ab'
loop_
_symmetry_equiv_pos_site_id
_symmetry_equiv_pos_as_xyz
1 x,y,z
2 1/2-x,-y,1/2+z
3 -x,1/2+y,1/2-z
4 1/2+x,1/2-y,-z
_cell_length_a                   8.0896(3)
_cell_length_b                   12.0540(5)
_cell_length_c                   42.6668(14)
_cell_angle_alpha                90
_cell_angle_beta                 90
_cell_angle_gamma                90
_cell_volume                     4160.53
_exptl_crystal_colour            colorless
_exptl_crystal_description       block
_cell_formula_units_Z            8
loop_
_atom_site_label
_atom_site_type_symbol
_atom_site_fract_x
_atom_site_fract_y
_atom_site_fract_z
C1 C 0.8353(7) 0.9383(4) 0.85530(13)
C2 C 0.7810(5) 0.8206(3) 0.85368(9)
C3 C 0.7029(5) 0.7835(3) 0.82663(9)
H1 H 0.6867 0.8314 0.8092
C4 C 0.6497(4) 0.6753(3) 0.82584(7)
C5 C 0.6707(6) 0.6035(3) 0.85065(9)
H2 H 0.6332 0.5289 0.8495
C6 C 0.7480(7) 0.6433(4) 0.87742(10)
H3 H 0.7642 0.5952 0.8948
C7 C 0.8016(6) 0.7514(4) 0.87918(10)
H4 H 0.8524 0.7782 0.8978
C8 C 0.4130(5) 0.6300(3) 0.79526(8)
C9 C 0.3499(5) 0.5922(3) 0.76669(8)
C10 C 0.1800(5) 0.5852(4) 0.76448(10)
H5 H 0.1299 0.5584 0.7458
C11 C 0.0826(6) 0.6175(5) 0.78964(11)
H6 H -0.0346 0.6150 0.7883
C12 C 0.1594(6) 0.6531(5) 0.81644(11)
H7 H 0.0927 0.6734 0.8339
C13 C 0.4534(5) 0.5430(3) 0.74100(7)
C14 C 0.5852(5) 0.7251(3) 0.73080(8)
H8 H 0.5386 0.7471 0.7516
C15 C 0.7674(5) 0.7550(3) 0.73029(10)
H9 H 0.8188 0.7422 0.7510
H10 H 0.7834 0.8336 0.7243
C16 C 0.7010(5) 0.5523(3) 0.70754(9)
C17 C 0.6318(7) 0.5189(5) 0.67579(10)
H11 H 0.5671 0.5804 0.6671
H12 H 0.5607 0.4537 0.6782
H13 H 0.7231 0.5011 0.6615
C18 C 0.7863(6) 0.4556(4) 0.72412(13)
H14 H 0.7117 0.3915 0.7246
H15 H 0.8145 0.4773 0.7456
H16 H 0.8874 0.4358 0.7128
C19 C 0.4890(5) 0.7855(3) 0.70517(8)
C20 C 0.2437(7) 0.7872(6) 0.67489(17)
H17 H 0.3067 0.8001 0.6556
H18 H 0.2039 0.8582 0.6831
H19 H 0.1492 0.7390 0.6703
F1 F 0.8530(9) 0.9858(4) 0.82780(11)
F2 F 0.9722(6) 0.9516(4) 0.8699(2)
F3 F 0.7271(6) 1.0053(3) 0.86847(11)
N1 N 0.3244(4) 0.6607(3) 0.81929(7)
N2 N 0.5766(4) 0.6051(2) 0.72811(6)
O1 O 0.5824(3) 0.6352(2) 0.79766(5)
O2 O 0.4250(4) 0.4475(2) 0.73270(6)
O3 O 0.3506(4) 0.7336(3) 0.69829(9)
O4 O 0.5325(4) 0.8698(3) 0.69307(7)
S1 S 0.85421(13) 0.66298(9) 0.70104(3)
C21 C 0.9779(9) 0.2149(5) 0.52784(14)
C22 C 0.8671(6) 0.2463(4) 0.55395(10)
C23 C 0.8215(7) 0.1698(4) 0.57616(11)
H20 H 0.8600 0.0956 0.5746
C24 C 0.7200(7) 0.2002(4) 0.60064(12)
H21 H 0.6888 0.1468 0.6159
C25 C 0.6632(7) 0.3085(4) 0.60317(11)
H22 H 0.5931 0.3299 0.6200
C26 C 0.7105(6) 0.3839(3) 0.58093(10)
C27 C 0.8120(7) 0.3560(3) 0.55631(10)
H23 H 0.8440 0.4099 0.5413
C28 C 0.5470(6) 0.5322(3) 0.56262(9)
C29 C 0.5855(6) 0.6324(3) 0.54753(9)
C30 C 0.4663(6) 0.6736(4) 0.52747(11)
H24 H 0.4843 0.7408 0.5164
C31 C 0.3207(7) 0.6154(5) 0.52384(14)
H25 H 0.2359 0.6430 0.5106
C32 C 0.2999(7) 0.5179(5) 0.53950(13)
H26 H 0.2001 0.4780 0.5363
C33 C 0.7561(5) 0.6810(3) 0.55140(9)
C34 C 0.6407(6) 0.7881(3) 0.59555(9)
H27 H 0.5683 0.7223 0.5996
C35 C 0.7180(7) 0.8239(4) 0.62667(9)
H28 H 0.7455 0.7586 0.6398
H29 H 0.6423 0.8729 0.6385
C36 C 0.9430(5) 0.7973(4) 0.58373(10)
C37 C 1.0523(7) 0.7029(4) 0.59571(13)
H30 H 1.0578 0.6442 0.5799
H31 H 1.0053 0.6728 0.6151
H32 H 1.1637 0.7311 0.5999
C38 C 1.0239(6) 0.8608(4) 0.55708(11)
H33 H 1.0570 0.8088 0.5406
H34 H 1.1216 0.8999 0.5649
H35 H 0.9451 0.9146 0.5485
C39 C 0.5338(5) 0.8807(3) 0.58206(10)
C40 C 0.4853(8) 1.0021(5) 0.53986(14)
H36 H 0.5500 1.0382 0.5233
H37 H 0.4541 1.0570 0.5557
H38 H 0.3854 0.9694 0.5307
F4 F 0.9949(11) 0.2828(4) 0.50633(12)
F5 F 0.9456(12) 0.1217(5) 0.51559(14)
F6 F 1.1253(8) 0.1937(10) 0.53875(14)
N3 N 0.4107(6) 0.4755(3) 0.55900(10)
N4 N 0.7767(4) 0.7532(3) 0.57546(7)
O5 O 0.6620(5) 0.4952(2) 0.58437(8)
O6 O 0.8667(4) 0.6533(3) 0.53359(8)
O7 O 0.5835(4) 0.9157(3) 0.55432(7)
O8 O 0.4138(5) 0.9134(3) 0.59531(9)
S2 S 0.90141(18) 0.89690(10) 0.61522(3)
loop_
_geom_bond_atom_site_label_1
_geom_bond_atom_site_label_2
_geom_bond_site_symmetry_1
_geom_bond_site_symmetry_2
C1 C2 1_555 1_555
C2 C3 1_555 1_555
C3 H1 1_555 1_555
C4 C3 1_555 1_555
C5 C4 1_555 1_555
H2 C5 1_555 1_555
C6 C5 1_555 1_555
H3 C6 1_555 1_555
C7 C2 1_555 1_555
H4 C7 1_555 1_555
C8 C9 1_555 1_555
C9 C10 1_555 1_555
C10 H5 1_555 1_555
C11 C10 1_555 1_555
H6 C11 1_555 1_555
C12 C11 1_555 1_555
H7 C12 1_555 1_555
C13 C9 1_555 1_555
C14 H8 1_555 1_555
C15 C14 1_555 1_555
H9 C15 1_555 1_555
H10 C15 1_555 1_555
C16 C17 1_555 1_555
C17 H11 1_555 1_555
H12 C17 1_555 1_555
H13 C17 1_555 1_555
C18 C16 1_555 1_555
H14 C18 1_555 1_555
H15 C18 1_555 1_555
H16 C18 1_555 1_555
C19 C14 1_555 1_555
C20 H17 1_555 1_555
H18 C20 1_555 1_555
H19 C20 1_555 1_555
F1 C1 1_555 1_555
F2 C1 1_555 1_555
F3 C1 1_555 1_555
N1 C8 1_555 1_555
N2 C13 1_555 1_555
O1 C4 1_555 1_555
O2 C13 1_555 1_555
O3 C19 1_555 1_555
O4 C19 1_555 1_555
S1 C15 1_555 1_555
C21 C22 1_555 1_555
C22 C23 1_555 1_555
C23 H20 1_555 1_555
C24 C23 1_555 1_555
H21 C24 1_555 1_555
C25 C24 1_555 1_555
H22 C25 1_555 1_555
C26 C25 1_555 1_555
C27 C22 1_555 1_555
H23 C27 1_555 1_555
C28 C29 1_555 1_555
C29 C30 1_555 1_555
C30 H24 1_555 1_555
C31 C30 1_555 1_555
H25 C31 1_555 1_555
C32 C31 1_555 1_555
H26 C32 1_555 1_555
C33 C29 1_555 1_555
C34 H27 1_555 1_555
C35 C34 1_555 1_555
H28 C35 1_555 1_555
H29 C35 1_555 1_555
C36 C37 1_555 1_555
C37 H30 1_555 1_555
H31 C37 1_555 1_555
H32 C37 1_555 1_555
C38 C36 1_555 1_555
H33 C38 1_555 1_555
H34 C38 1_555 1_555
H35 C38 1_555 1_555
C39 C34 1_555 1_555
C40 H36 1_555 1_555
H37 C40 1_555 1_555
H38 C40 1_555 1_555
F4 C21 1_555 1_555
F5 C21 1_555 1_555
F6 C21 1_555 1_555
N3 C28 1_555 1_555
N4 C33 1_555 1_555
O5 C26 1_555 1_555
O6 C33 1_555 1_555
O7 C39 1_555 1_555
O8 C39 1_555 1_555
S2 C35 1_555 1_555
C6 C7 1_555 1_555
C8 O1 1_555 1_555
C12 N1 1_555 1_555
C14 N2 1_555 1_555
C16 N2 1_555 1_555
C16 S1 1_555 1_555
C20 O3 1_555 1_555
C26 C27 1_555 1_555
C28 O5 1_555 1_555
C32 N3 1_555 1_555
C34 N4 1_555 1_555
C36 N4 1_555 1_555
C36 S2 1_555 1_555
C40 O7 1_555 1_555

#END
