
#######################################################################
#
#                 Cambridge Crystallographic Data Centre
#                                CCDC 
#
#######################################################################
#
# If this CIF has been generated from an entry in the Cambridge 
# Structural Database, then it will include bibliographic, chemical, 
# crystal, experimental, refinement or atomic coordinate data resulting 
# from the CCDC's data processing and validation procedures.
#
#######################################################################

data_JIKNAV
_chemical_formula_moiety         'C29 H31 N1 O4'
_chemical_name_systematic        
12-methoxy-16-methylidene-18-phenyl-1,2,3,4,4a,8,9,10,10a,15a-decahydro-6H-7,10a,7-(epoxymethanetriyloxymethano)cyclopenta[2,3]indolo[2,1-d][1,5]benzoxazepine
_symmetry_cell_setting           triclinic
_symmetry_space_group_name_H-M   'P -1'
_symmetry_Int_Tables_number      2
_space_group_name_Hall           '-P 1'
loop_
_symmetry_equiv_pos_site_id
_symmetry_equiv_pos_as_xyz
1 x,y,z
2 -x,-y,-z
_cell_length_a                   7.376(4)
_cell_length_b                   9.987(6)
_cell_length_c                   16.960(9)
_cell_angle_alpha                87.396(12)
_cell_angle_beta                 88.069(11)
_cell_angle_gamma                70.169(10)
_cell_volume                     1173.82
_cell_formula_units_Z            2
loop_
_atom_site_label
_atom_site_type_symbol
_atom_site_fract_x
_atom_site_fract_y
_atom_site_fract_z
N1 N 0.2199(9) 0.5955(7) 0.2364(3)
O1 O 0.0210(9) 0.7224(7) 0.5478(3)
O2 O -0.1956(7) 0.7027(5) 0.2089(3)
O3 O -0.2778(7) 0.9336(6) 0.1689(3)
O4 O 0.1136(8) 0.4516(6) 0.1156(3)
C1 C 0.1190(14) 0.6369(12) 0.6107(5)
H1 H 0.0627 0.6783 0.6596
H2 H 0.2521 0.6299 0.6077
H3 H 0.1098 0.5436 0.6082
C2 C 0.0850(12) 0.6756(10) 0.4730(5)
C3 C 0.0006(11) 0.7747(9) 0.4122(4)
H4 H -0.0883 0.8633 0.4238
C4 C 0.0510(11) 0.7394(9) 0.3354(4)
C5 C 0.1912(11) 0.6045(9) 0.3180(5)
C6 C 0.2759(11) 0.5100(9) 0.3774(4)
H5 H 0.3700 0.4235 0.3661
C7 C 0.2201(12) 0.5444(9) 0.4550(5)
H6 H 0.2740 0.4785 0.4957
C8 C -0.0138(10) 0.8259(8) 0.2603(4)
C9 C 0.1100(11) 0.7259(9) 0.1931(4)
C10 C 0.2334(12) 0.8089(9) 0.1514(5)
H7 H 0.3644 0.7740 0.1704
H8 H 0.2367 0.7992 0.0947
C11 C 0.1317(13) 0.9653(9) 0.1730(5)
H9 H 0.2246 1.0143 0.1744
H10 H 0.0358 1.0138 0.1340
C12 C 0.0359(12) 0.9648(8) 0.2538(4)
H11 H -0.0800 1.0475 0.2583
H12 H 0.1230 0.9660 0.2951
C13 C -0.0591(11) 0.7083(9) 0.1455(4)
C14 C -0.1800(12) 0.8506(9) 0.1071(5)
C15 C -0.2223(12) 0.8375(9) 0.2389(5)
C16 C -0.3744(10) 0.8814(10) 0.3007(4)
C17 C -0.4184(12) 0.7810(10) 0.3486(5)
H13 H -0.3603 0.6852 0.3379
C18 C -0.5431(12) 0.8168(10) 0.4107(5)
H14 H -0.5646 0.7464 0.4436
C19 C -0.6382(14) 0.9590(12) 0.4250(5)
H15 H -0.7270 0.9842 0.4667
C20 C -0.6025(13) 1.0634(11) 0.3779(5)
H16 H -0.6678 1.1592 0.3867
C21 C -0.4670(13) 1.0227(10) 0.3171(5)
H17 H -0.4376 1.0925 0.2865
C22 C -0.2020(13) 0.8979(10) 0.0323(5)
H18 H -0.2851 0.9894 0.0199
H19 H -0.1344 0.8396 -0.0078
C23 C -0.0176(12) 0.5849(9) 0.0889(5)
H20 H -0.1388 0.5722 0.0778
H21 H 0.0324 0.6124 0.0395
C24 C 0.3070(11) 0.4522(9) 0.1187(5)
H22 H 0.3171 0.5322 0.0854
C25 C 0.4458(12) 0.3140(9) 0.0856(5)
H23 H 0.4316 0.2332 0.1159
H24 H 0.4141 0.3066 0.0313
C26 C 0.6532(11) 0.3100(10) 0.0892(5)
H25 H 0.6703 0.3848 0.0544
H26 H 0.7387 0.2194 0.0706
C27 C 0.7071(12) 0.3295(9) 0.1726(5)
H27 H 0.8364 0.3340 0.1724
H28 H 0.7050 0.2490 0.2065
C28 C 0.5615(11) 0.4692(9) 0.2049(5)
H29 H 0.5926 0.4790 0.2590
H30 H 0.5736 0.5498 0.1738
C29 C 0.3577(10) 0.4715(8) 0.2022(4)
H31 H 0.3512 0.3887 0.2339
loop_
_geom_bond_atom_site_label_1
_geom_bond_atom_site_label_2
_geom_bond_site_symmetry_1
_geom_bond_site_symmetry_2
N1 C5 1_555 1_555
O1 C1 1_555 1_555
O2 C13 1_555 1_555
O3 C14 1_555 1_555
O4 C23 1_555 1_555
C1 H1 1_555 1_555
H2 C1 1_555 1_555
H3 C1 1_555 1_555
C2 O1 1_555 1_555
C3 C2 1_555 1_555
H4 C3 1_555 1_555
C4 C3 1_555 1_555
C5 C4 1_555 1_555
C6 C5 1_555 1_555
H5 C6 1_555 1_555
C7 C2 1_555 1_555
H6 C7 1_555 1_555
C8 C4 1_555 1_555
C9 N1 1_555 1_555
C10 C9 1_555 1_555
H7 C10 1_555 1_555
H8 C10 1_555 1_555
C11 C10 1_555 1_555
H9 C11 1_555 1_555
H10 C11 1_555 1_555
C12 C8 1_555 1_555
H11 C12 1_555 1_555
H12 C12 1_555 1_555
C13 C9 1_555 1_555
C14 C13 1_555 1_555
C15 O2 1_555 1_555
C16 C15 1_555 1_555
C17 C16 1_555 1_555
H13 C17 1_555 1_555
C18 C17 1_555 1_555
H14 C18 1_555 1_555
C19 C18 1_555 1_555
H15 C19 1_555 1_555
C20 C19 1_555 1_555
H16 C20 1_555 1_555
C21 C16 1_555 1_555
H17 C21 1_555 1_555
C22 C14 1_555 1_555
H18 C22 1_555 1_555
H19 C22 1_555 1_555
C23 C13 1_555 1_555
H20 C23 1_555 1_555
H21 C23 1_555 1_555
C24 O4 1_555 1_555
H22 C24 1_555 1_555
C25 C24 1_555 1_555
H23 C25 1_555 1_555
H24 C25 1_555 1_555
C26 C25 1_555 1_555
H25 C26 1_555 1_555
H26 C26 1_555 1_555
C27 C26 1_555 1_555
H27 C27 1_555 1_555
H28 C27 1_555 1_555
C28 C27 1_555 1_555
H29 C28 1_555 1_555
H30 C28 1_555 1_555
C29 N1 1_555 1_555
H31 C29 1_555 1_555
O3 C15 1_555 1_555
C6 C7 1_555 1_555
C8 C9 1_555 1_555
C8 C15 1_555 1_555
C11 C12 1_555 1_555
C20 C21 1_555 1_555
C24 C29 1_555 1_555
C28 C29 1_555 1_555

#END
