
#######################################################################
#
#                 Cambridge Crystallographic Data Centre
#                                CCDC 
#
#######################################################################
#
# If this CIF has been generated from an entry in the Cambridge 
# Structural Database, then it will include bibliographic, chemical, 
# crystal, experimental, refinement or atomic coordinate data resulting 
# from the CCDC's data processing and validation procedures.
#
#######################################################################

data_JIKNEZ
_chemical_formula_moiety         'C30 H27 N1 O3'
_chemical_name_systematic        
14-methylidene-2,16-diphenyl-1,2,6,7,8,8a-hexahydro-4H-5,8a,5-(epoxymethanetriyloxymethano)cyclopenta[b][1,4]oxazepino[4,5-a]indole
_symmetry_cell_setting           monoclinic
_symmetry_space_group_name_H-M   'C 2'
_symmetry_Int_Tables_number      5
_space_group_name_Hall           'C 2y'
loop_
_symmetry_equiv_pos_site_id
_symmetry_equiv_pos_as_xyz
1 x,y,z
2 -x,y,-z
3 1/2+x,1/2+y,z
4 1/2-x,1/2+y,-z
_cell_length_a                   26.381(10)
_cell_length_b                   7.099(3)
_cell_length_c                   12.964(5)
_cell_angle_alpha                90
_cell_angle_beta                 106.277(9)
_cell_angle_gamma                90
_cell_volume                     2330.57
_cell_formula_units_Z            4
loop_
_atom_site_label
_atom_site_type_symbol
_atom_site_fract_x
_atom_site_fract_y
_atom_site_fract_z
N1 N 0.3524(2) 0.7114(7) 0.1166(4)
O1 O 0.41354(18) 0.9001(7) 0.0113(4)
O2 O 0.37878(15) 1.0843(6) 0.2021(3)
O3 O 0.42621(17) 1.0538(6) 0.3757(3)
C1 C 0.4379(3) 0.4675(15) -0.1139(7)
H1 H 0.4531 0.3966 -0.0526
C2 C 0.4383(4) 0.3965(19) -0.2137(9)
H2 H 0.4525 0.2780 -0.2188
C3 C 0.4182(5) 0.499(2) -0.3025(12)
H3 H 0.4206 0.4575 -0.3690
C4 C 0.3942(4) 0.6657(19) -0.2938(8)
H4 H 0.3780 0.7332 -0.3557
C5 C 0.3934(3) 0.7387(13) -0.1926(7)
H5 H 0.3776 0.8541 -0.1874
C6 C 0.4164(3) 0.6352(13) -0.1031(6)
C7 C 0.4137(3) 0.7016(11) 0.0066(5)
H6 H 0.4447 0.6543 0.0613
C8 C 0.3648(3) 0.6206(10) 0.0275(5)
H7 H 0.3353 0.6348 -0.0364
H8 H 0.3700 0.4870 0.0425
C9 C 0.3919(2) 0.7582(9) 0.2173(5)
C10 C 0.4200(3) 0.9466(9) 0.2035(5)
C11 C 0.4436(3) 0.9753(10) 0.1121(5)
H9 H 0.4482 1.1094 0.1036
H10 H 0.4784 0.9181 0.1310
C12 C 0.3015(3) 0.7157(9) 0.1295(5)
C13 C 0.2541(3) 0.6563(9) 0.0569(5)
H11 H 0.2542 0.5989 -0.0076
C14 C 0.2061(3) 0.6851(10) 0.0830(6)
H12 H 0.1743 0.6502 0.0346
C15 C 0.2065(3) 0.7645(10) 0.1798(6)
H13 H 0.1748 0.7842 0.1964
C16 C 0.2539(3) 0.8158(10) 0.2532(6)
H14 H 0.2539 0.8669 0.3192
C17 C 0.3010(3) 0.7909(9) 0.2281(5)
C18 C 0.3580(2) 0.8281(9) 0.2940(5)
C19 C 0.3775(3) 0.7033(10) 0.3955(5)
H15 H 0.3831 0.7798 0.4596
H16 H 0.3513 0.6080 0.3965
C20 C 0.4284(3) 0.6111(11) 0.3931(5)
H17 H 0.4317 0.4874 0.4262
H18 H 0.4584 0.6872 0.4309
C21 C 0.4253(3) 0.5955(10) 0.2733(5)
H19 H 0.4604 0.6022 0.2634
H20 H 0.4093 0.4767 0.2444
C22 C 0.3737(3) 1.0381(10) 0.3042(5)
C23 C 0.4574(3) 0.9981(10) 0.3111(5)
C24 C 0.5091(3) 0.9977(10) 0.3482(5)
H21 H 0.5252 1.0351 0.4185
H22 H 0.5297 0.9601 0.3041
C25 C 0.3370(3) 1.1615(9) 0.3442(6)
C26 C 0.2945(3) 1.2489(9) 0.2715(6)
H23 H 0.2911 1.2429 0.1982
C27 C 0.2564(3) 1.3467(11) 0.3091(8)
H24 H 0.2275 1.4022 0.2606
C28 C 0.2625(4) 1.3590(11) 0.4162(9)
H25 H 0.2374 1.4241 0.4400
C29 C 0.3049(4) 1.2781(11) 0.4918(7)
H26 H 0.3086 1.2887 0.5651
C30 C 0.3420(3) 1.1799(10) 0.4533(6)
H27 H 0.3708 1.1251 0.5025
loop_
_geom_bond_atom_site_label_1
_geom_bond_atom_site_label_2
_geom_bond_site_symmetry_1
_geom_bond_site_symmetry_2
N1 C8 1_555 1_555
O1 C7 1_555 1_555
O2 C10 1_555 1_555
O3 C22 1_555 1_555
C1 H1 1_555 1_555
C2 C1 1_555 1_555
H2 C2 1_555 1_555
C3 C2 1_555 1_555
H3 C3 1_555 1_555
C4 C3 1_555 1_555
H4 C4 1_555 1_555
C5 C4 1_555 1_555
H5 C5 1_555 1_555
C6 C1 1_555 1_555
C7 C6 1_555 1_555
H6 C7 1_555 1_555
C8 C7 1_555 1_555
H7 C8 1_555 1_555
H8 C8 1_555 1_555
C9 N1 1_555 1_555
C10 C9 1_555 1_555
C11 O1 1_555 1_555
H9 C11 1_555 1_555
H10 C11 1_555 1_555
C12 N1 1_555 1_555
C13 C12 1_555 1_555
H11 C13 1_555 1_555
C14 C13 1_555 1_555
H12 C14 1_555 1_555
C15 C14 1_555 1_555
H13 C15 1_555 1_555
C16 C15 1_555 1_555
H14 C16 1_555 1_555
C17 C12 1_555 1_555
C18 C9 1_555 1_555
C19 C18 1_555 1_555
H15 C19 1_555 1_555
H16 C19 1_555 1_555
C20 C19 1_555 1_555
H17 C20 1_555 1_555
H18 C20 1_555 1_555
C21 C9 1_555 1_555
H19 C21 1_555 1_555
H20 C21 1_555 1_555
C22 O2 1_555 1_555
C23 O3 1_555 1_555
C24 C23 1_555 1_555
H21 C24 1_555 1_555
H22 C24 1_555 1_555
C25 C22 1_555 1_555
C26 C25 1_555 1_555
H23 C26 1_555 1_555
C27 C26 1_555 1_555
H24 C27 1_555 1_555
C28 C27 1_555 1_555
H25 C28 1_555 1_555
C29 C28 1_555 1_555
H26 C29 1_555 1_555
C30 C25 1_555 1_555
H27 C30 1_555 1_555
C5 C6 1_555 1_555
C10 C11 1_555 1_555
C10 C23 1_555 1_555
C16 C17 1_555 1_555
C17 C18 1_555 1_555
C18 C22 1_555 1_555
C20 C21 1_555 1_555
C29 C30 1_555 1_555

#END
