
#######################################################################
#
#                 Cambridge Crystallographic Data Centre
#                                CCDC 
#
#######################################################################
#
# If this CIF has been generated from an entry in the Cambridge 
# Structural Database, then it will include bibliographic, chemical, 
# crystal, experimental, refinement or atomic coordinate data resulting 
# from the CCDC's data processing and validation procedures.
#
#######################################################################

data_JIKSUU
_chemical_formula_moiety         'C22 H25 N3 O6 S2,1.5(C1 H2 Cl2)'
_chemical_name_systematic        
'2-[2-(morpholin-4-yl)ethyl]-6-[(1-oxo-1\l^4^,4-thiazinan-4-yl)sulfonyl]-1H-benzo[de]isoquinoline-1,3(2H)-dione dichloromethane solvate'
_symmetry_cell_setting           triclinic
_symmetry_space_group_name_H-M   'P -1'
_symmetry_Int_Tables_number      2
_space_group_name_Hall           '-P 1'
loop_
_symmetry_equiv_pos_site_id
_symmetry_equiv_pos_as_xyz
1 x,y,z
2 -x,-y,-z
_cell_length_a                   8.139(3)
_cell_length_b                   13.440(4)
_cell_length_c                   13.650(5)
_cell_angle_alpha                102.732(5)
_cell_angle_beta                 104.959(5)
_cell_angle_gamma                107.249(5)
_cell_volume                     1304.38
_exptl_crystal_description       block
_cell_formula_units_Z            2
loop_
_atom_site_label
_atom_site_type_symbol
_atom_site_fract_x
_atom_site_fract_y
_atom_site_fract_z
C1 C 0.6410(7) 0.7744(4) 0.2409(4)
H1 H 0.7378 0.8476 0.2839
H2 H 0.6579 0.7221 0.2799
C2 C 0.4564(7) 0.7810(4) 0.2299(4)
H3 H 0.4490 0.8073 0.3017
H4 H 0.4387 0.8339 0.1918
C3 C 0.3319(7) 0.6354(4) 0.0644(4)
H5 H 0.3098 0.6857 0.0239
H6 H 0.2395 0.5606 0.0227
C4 C 0.5217(7) 0.6351(4) 0.0789(4)
H7 H 0.5396 0.5808 0.1150
H8 H 0.5327 0.6116 0.0077
C5 C 0.1293(7) 0.6729(4) 0.1536(4)
H9 H 0.0386 0.6014 0.1016
H10 H 0.1178 0.7308 0.1214
C6 C 0.0816(7) 0.6935(4) 0.2547(4)
H11 H 0.1716 0.7652 0.3068
H12 H -0.0410 0.6983 0.2370
C7 C 0.2283(7) 0.6297(4) 0.3976(4)
C8 C 0.2189(7) 0.5422(4) 0.4476(4)
C9 C 0.3589(7) 0.5630(4) 0.5403(4)
H13 H 0.4585 0.6322 0.5711
C10 C 0.3529(7) 0.4809(4) 0.5891(4)
H14 H 0.4477 0.4959 0.6543
C11 C 0.2144(7) 0.3803(4) 0.5450(4)
H15 H 0.2154 0.3261 0.5792
C12 C 0.0682(6) 0.3550(4) 0.4485(4)
C13 C -0.0858(7) 0.2528(4) 0.3967(4)
C14 C -0.2264(7) 0.2391(4) 0.3062(4)
H16 H -0.3283 0.1711 0.2737
C15 C -0.2210(7) 0.3229(4) 0.2624(4)
H17 H -0.3199 0.3124 0.2010
C16 C -0.0729(7) 0.4219(4) 0.3071(4)
C17 C -0.0726(7) 0.5096(4) 0.2595(4)
C18 C 0.0723(6) 0.4392(4) 0.4002(4)
C19 C 0.2267(6) 0.1322(4) 0.4377(4)
H18 H 0.2555 0.1518 0.5162
H19 H 0.2744 0.2008 0.4209
C20 C 0.3202(7) 0.0541(4) 0.4022(4)
H20 H 0.2682 -0.0157 0.4161
H21 H 0.4530 0.0878 0.4448
C21 C 0.0416(7) -0.0298(5) 0.2162(4)
H22 H -0.0072 -0.0502 0.1372
H23 H -0.0011 -0.0973 0.2355
C22 C -0.0334(7) 0.0523(4) 0.2649(4)
H24 H 0.0103 0.1203 0.2464
H25 H -0.1690 0.0208 0.2342
N1 N 0.3124(6) 0.6716(3) 0.1697(3)
N2 N 0.0808(6) 0.6073(3) 0.3052(3)
N3 N 0.0257(5) 0.0798(3) 0.3827(3)
O1 O 0.6610(5) 0.7397(3) 0.1400(3)
O2 O 0.3560(5) 0.7184(3) 0.4344(3)
O3 O -0.2000(5) 0.4987(3) 0.1821(3)
O4 O -0.0204(5) 0.1634(3) 0.5487(3)
O5 O -0.2864(4) 0.0574(3) 0.3829(3)
O6 O 0.3430(5) 0.1348(4) 0.2440(3)
S1 S -0.10070(16) 0.13298(9) 0.43554(9)
S2 S 0.28897(18) 0.02554(13) 0.26215(11)
C23 C 0.8159(8) 0.7436(5) 0.9134(5)
H26 H 0.7370 0.7667 0.8621
H27 H 0.7801 0.7513 0.9779
Cl1 Cl 1.0479(2) 0.83091(12) 0.94993(11)
Cl2 Cl 0.7790(2) 0.60454(12) 0.85466(12)
C24? C 0.4925(17) 0.9865(10) 0.9478(9)
H28? H 0.5903 1.0270 0.9246
H29? H 0.3839 0.9400 0.8830
Cl3? Cl 0.5649(5) 0.9192(3) 0.9711(3)
Cl4? Cl 0.5690(5) 0.9012(3) 1.0147(3)
loop_
_geom_bond_atom_site_label_1
_geom_bond_atom_site_label_2
_geom_bond_site_symmetry_1
_geom_bond_site_symmetry_2
C1 H1 1_555 1_555
H2 C1 1_555 1_555
C2 C1 1_555 1_555
H3 C2 1_555 1_555
H4 C2 1_555 1_555
C3 H5 1_555 1_555
H6 C3 1_555 1_555
C4 C3 1_555 1_555
H7 C4 1_555 1_555
H8 C4 1_555 1_555
C5 H9 1_555 1_555
H10 C5 1_555 1_555
C6 C5 1_555 1_555
H11 C6 1_555 1_555
H12 C6 1_555 1_555
C7 C8 1_555 1_555
C8 C9 1_555 1_555
C9 H13 1_555 1_555
C10 C9 1_555 1_555
H14 C10 1_555 1_555
C11 C10 1_555 1_555
H15 C11 1_555 1_555
C12 C11 1_555 1_555
C13 C12 1_555 1_555
C14 C13 1_555 1_555
H16 C14 1_555 1_555
C15 C14 1_555 1_555
H17 C15 1_555 1_555
C16 C15 1_555 1_555
C17 C16 1_555 1_555
C18 C8 1_555 1_555
C19 H18 1_555 1_555
H19 C19 1_555 1_555
C20 C19 1_555 1_555
H20 C20 1_555 1_555
H21 C20 1_555 1_555
C21 H22 1_555 1_555
H23 C21 1_555 1_555
C22 C21 1_555 1_555
H24 C22 1_555 1_555
H25 C22 1_555 1_555
N1 C2 1_555 1_555
N2 C6 1_555 1_555
N3 C19 1_555 1_555
O1 C1 1_555 1_555
O2 C7 1_555 1_555
O3 C17 1_555 1_555
O4 S1 1_555 1_555
O5 S1 1_555 1_555
O6 S2 1_555 1_555
S1 C13 1_555 1_555
S2 C20 1_555 1_555
C23 H26 1_555 1_555
H27 C23 1_555 1_555
Cl1 C23 1_555 1_555
Cl2 C23 1_555 1_555
C3 N1 1_555 1_555
C4 O1 1_555 1_555
C5 N1 1_555 1_555
C7 N2 1_555 1_555
C12 C18 1_555 1_555
C16 C18 1_555 1_555
C17 N2 1_555 1_555
C21 S2 1_555 1_555
C22 N3 1_555 1_555
N3 S1 1_555 1_555

#END
