
#######################################################################
#
#                 Cambridge Crystallographic Data Centre
#                                CCDC 
#
#######################################################################
#
# If this CIF has been generated from an entry in the Cambridge 
# Structural Database, then it will include bibliographic, chemical, 
# crystal, experimental, refinement or atomic coordinate data resulting 
# from the CCDC's data processing and validation procedures.
#
#######################################################################

data_JILBUE
_chemical_formula_moiety         'C22 H49 K1 Li4 O3'
_chemical_name_systematic        
tris(\m-2-methylpropan-2-olato)-bis(\m-2,2-dimethylpropyl)-tetra-lithium-potassium
_symmetry_cell_setting           monoclinic
_symmetry_space_group_name_H-M   'P 21/c'
_symmetry_Int_Tables_number      14
_space_group_name_Hall           '-P 2ybc'
loop_
_symmetry_equiv_pos_site_id
_symmetry_equiv_pos_as_xyz
1 x,y,z
2 -x,1/2+y,1/2-z
3 -x,-y,-z
4 x,1/2-y,1/2+z
_cell_length_a                   15.134(3)
_cell_length_b                   10.0764(19)
_cell_length_c                   20.955(4)
_cell_angle_alpha                90
_cell_angle_beta                 106.638(4)
_cell_angle_gamma                90
_cell_volume                     3061.77
_exptl_crystal_colour            colorless
_exptl_crystal_description       block
_cell_formula_units_Z            4
_chemical_properties_physical    Air-sensitive,Moisture-sensitive
_exptl_crystal_recrystallization_method n-hexane
loop_
_atom_site_label
_atom_site_type_symbol
_atom_site_fract_x
_atom_site_fract_y
_atom_site_fract_z
K1 K 0.63250(7) 0.39832(10) 0.50861(5)
Li1 Li 0.7200(4) 0.6847(6) 0.5547(3)
Li2 Li 0.6992(4) 0.5617(6) 0.6488(3)
Li3 Li 0.8045(5) 0.3901(7) 0.6347(3)
Li4 Li 0.8280(5) 0.5116(8) 0.5374(3)
C1 C 0.5884(3) 0.6749(4) 0.5788(2)
H1 H 0.566(2) 0.681(3) 0.5311(16)
H2 H 0.553(2) 0.610(3) 0.5937(17)
C2 C 0.5684(3) 0.8093(4) 0.60590(18)
C3 C 0.5972(3) 0.8036(4) 0.68196(19)
H3 H 0.6606 0.7770 0.6980
H4 H 0.5592 0.7407 0.6963
H5 H 0.5898 0.8897 0.6994
C4 C 0.4672(3) 0.8515(4) 0.5834(2)
H6 H 0.4607 0.9362 0.6025
H7 H 0.4305 0.7868 0.5979
H8 H 0.4470 0.8580 0.5357
C5 C 0.6254(3) 0.9155(4) 0.5835(2)
H9 H 0.6892 0.8902 0.5969
H10 H 0.6184 0.9989 0.6038
H11 H 0.6044 0.9242 0.5360
C6 C 0.6801(4) 0.3529(5) 0.6584(2)
H12 H 0.626(3) 0.375(5) 0.643(2)
H13 H 0.690(4) 0.267(6) 0.642(3)
C7 C 0.6871(3) 0.3132(4) 0.7288(2)
C8 C 0.6149(4) 0.2138(6) 0.7382(3)
H14 H 0.6258 0.1956 0.7848
H15 H 0.6194 0.1329 0.7151
H16 H 0.5544 0.2508 0.7206
C9 C 0.6764(5) 0.4336(6) 0.7683(3)
H17 H 0.6826 0.4083 0.8135
H18 H 0.6167 0.4721 0.7491
H19 H 0.7232 0.4974 0.7674
C10 C 0.7800(4) 0.2499(7) 0.7582(3)
H20 H 0.7867 0.2256 0.8037
H21 H 0.8276 0.3116 0.7566
H22 H 0.7850 0.1719 0.7331
O1 O 0.7356(2) 0.6067(3) 0.48003(12)
C11 C 0.7156(3) 0.6491(4) 0.41276(19)
C12 C 0.7508(15) 0.7915(11) 0.4157(7)
H23 H 0.8139 0.7947 0.4424
H24 H 0.7141 0.8476 0.4350
H25 H 0.7465 0.8217 0.3715
C13 C 0.7797(12) 0.5697(18) 0.3800(8)
H26 H 0.8430 0.5869 0.4038
H27 H 0.7683 0.5967 0.3345
H28 H 0.7674 0.4765 0.3817
C14 C 0.6195(8) 0.637(3) 0.3768(8)
H29 H 0.6012 0.5455 0.3762
H30 H 0.6098 0.6674 0.3319
H31 H 0.5833 0.6893 0.3982
O2 O 0.8234(3) 0.3304(4) 0.55345(19)
C15 C 0.8708(3) 0.2141(5) 0.5384(2)
C16 C 0.9352(10) 0.2832(17) 0.5000(8)
H32 H 0.9767 0.3434 0.5294
H33 H 0.8978 0.3312 0.4623
H34 H 0.9700 0.2166 0.4850
C17 C 0.9395(13) 0.1730(18) 0.6052(7)
H35 H 0.9642 0.2510 0.6303
H36 H 0.9888 0.1226 0.5968
H37 H 0.9083 0.1199 0.6300
C18 C 0.8377(19) 0.0963(17) 0.5010(12)
H38 H 0.8041 0.1199 0.4562
H39 H 0.7977 0.0491 0.5214
H40 H 0.8889 0.0408 0.5003
O3 O 0.81355(15) 0.5851(2) 0.62424(11)
C19 C 0.8964(3) 0.6454(4) 0.66450(19)
C20 C 0.9318(18) 0.747(3) 0.6270(8)
H41 H 0.8872 0.8166 0.6134
H42 H 0.9427 0.7067 0.5884
H43 H 0.9885 0.7827 0.6549
C21 C 0.9655(13) 0.5443(15) 0.6964(15)
H44 H 0.9856 0.4984 0.6629
H45 H 0.9385 0.4820 0.7200
H46 H 1.0174 0.5867 0.7270
C22 C 0.8691(11) 0.724(3) 0.7217(10)
H47 H 0.8179 0.7817 0.7022
H48 H 0.9207 0.7761 0.7465
H49 H 0.8521 0.6623 0.7510
K1B K 0.36750(7) 0.60168(10) 0.49139(5)
Li1B Li 0.2800(4) 0.3153(6) 0.4453(3)
Li2B Li 0.3008(4) 0.4383(6) 0.3512(3)
Li3B Li 0.1955(5) 0.6099(7) 0.3653(3)
Li4B Li 0.1720(5) 0.4884(8) 0.4626(3)
C1B C 0.4116(3) 0.3251(4) 0.4212(2)
H1B H 0.434(2) 0.319(3) 0.4689(16)
H2B H 0.447(2) 0.390(3) 0.4063(17)
C2B C 0.4316(3) 0.1907(4) 0.39410(18)
C3B C 0.4028(3) 0.1964(4) 0.31804(19)
H3B H 0.3394 0.2230 0.3020
H4B H 0.4408 0.2593 0.3037
H5B H 0.4102 0.1103 0.3006
C4B C 0.5328(3) 0.1485(4) 0.4166(2)
H6B H 0.5393 0.0638 0.3975
H7B H 0.5695 0.2132 0.4021
H8B H 0.5530 0.1420 0.4643
C5B C 0.3746(3) 0.0845(4) 0.4165(2)
H9B H 0.3108 0.1098 0.4031
H10B H 0.3816 0.0011 0.3962
H11B H 0.3956 0.0758 0.4640
C6B C 0.3199(4) 0.6471(5) 0.3416(2)
H12B H 0.374(3) 0.625(5) 0.357(2)
H13B H 0.310(4) 0.733(6) 0.358(3)
C7B C 0.3129(3) 0.6868(4) 0.2712(2)
C8B C 0.3851(4) 0.7862(6) 0.2618(3)
H14B H 0.3742 0.8044 0.2152
H15B H 0.3806 0.8671 0.2849
H16B H 0.4456 0.7492 0.2794
C9B C 0.3236(5) 0.5664(6) 0.2317(3)
H17B H 0.3174 0.5917 0.1865
H18B H 0.3833 0.5279 0.2509
H19B H 0.2768 0.5026 0.2326
C10B C 0.2200(4) 0.7501(7) 0.2418(3)
H20B H 0.2133 0.7744 0.1963
H21B H 0.1724 0.6884 0.2434
H22B H 0.2150 0.8281 0.2669
O1B O 0.2644(2) 0.3933(3) 0.51997(12)
C11B C 0.2844(3) 0.3509(4) 0.58724(19)
C12B C 0.2492(15) 0.2085(11) 0.5843(7)
H23B H 0.1861 0.2053 0.5576
H24B H 0.2859 0.1524 0.5650
H25B H 0.2535 0.1783 0.6285
C13B C 0.2203(12) 0.4303(18) 0.6200(8)
H26B H 0.1570 0.4131 0.5962
H27B H 0.2317 0.4033 0.6655
H28B H 0.2326 0.5235 0.6183
C14B C 0.3805(8) 0.363(3) 0.6232(8)
H29B H 0.3988 0.4545 0.6238
H30B H 0.3902 0.3326 0.6681
H31B H 0.4167 0.3107 0.6018
O2B O 0.1766(3) 0.6696(4) 0.44655(19)
C15B C 0.1292(3) 0.7859(5) 0.4616(2)
C16B C 0.0648(10) 0.7168(17) 0.5000(8)
H32B H 0.0233 0.6566 0.4706
H33B H 0.1022 0.6688 0.5377
H34B H 0.0300 0.7834 0.5150
C17B C 0.0605(13) 0.8270(18) 0.3948(7)
H35B H 0.0358 0.7490 0.3697
H36B H 0.0112 0.8774 0.4032
H37B H 0.0917 0.8801 0.3700
C18B C 0.1623(19) 0.9037(17) 0.4990(12)
H38B H 0.1959 0.8801 0.5438
H39B H 0.2023 0.9509 0.4786
H40B H 0.1111 0.9592 0.4997
O3B O 0.18645(15) 0.4149(2) 0.37576(11)
C19B C 0.1036(3) 0.3546(4) 0.33550(19)
C20B C 0.0682(18) 0.253(3) 0.3730(8)
H41B H 0.1128 0.1834 0.3866
H42B H 0.0573 0.2933 0.4116
H43B H 0.0115 0.2173 0.3451
C21B C 0.0345(13) 0.4557(15) 0.3036(15)
H44B H 0.0144 0.5016 0.3371
H45B H 0.0615 0.5180 0.2800
H46B H -0.0174 0.4133 0.2730
C22B C 0.1309(11) 0.276(3) 0.2783(10)
H47B H 0.1821 0.2183 0.2978
H48B H 0.0793 0.2239 0.2535
H49B H 0.1479 0.3377 0.2490
C23? C 0.7953(10) 0.619(3) 0.3866(9)
H50? H 0.8129 0.5275 0.3957
H51? H 0.8463 0.6750 0.4080
H52? H 0.7779 0.6337 0.3394
C24? C 0.6308(10) 0.5611(15) 0.3735(5)
H53? H 0.5806 0.5731 0.3925
H54? H 0.6486 0.4694 0.3767
H55? H 0.6116 0.5874 0.3276
C25? C 0.686(2) 0.7879(11) 0.4047(7)
H56? H 0.6333 0.7997 0.4205
H57? H 0.6712 0.8118 0.3585
H58? H 0.7356 0.8435 0.4299
C26? C 0.7968(10) 0.695(3) 0.3963(9)
H59? H 0.8218 0.7711 0.4232
H60? H 0.7805 0.7200 0.3501
H61? H 0.8421 0.6260 0.4045
C27? C 0.6466(14) 0.7687(16) 0.4012(8)
H62? H 0.5898 0.7403 0.4087
H63? H 0.6347 0.8001 0.3563
H64? H 0.6729 0.8390 0.4316
C28? C 0.6674(17) 0.5370(14) 0.3700(7)
H65? H 0.6158 0.5089 0.3846
H66? H 0.7094 0.4643 0.3734
H67? H 0.6460 0.5660 0.3245
C29? C 0.9579(17) 0.192(3) 0.5884(19)
H68? H 1.0022 0.2557 0.5830
H69? H 0.9796 0.1040 0.5833
H70? H 0.9496 0.2009 0.6319
C30? C 0.8015(17) 0.1037(16) 0.5420(18)
H71? H 0.7407 0.1294 0.5162
H72? H 0.8022 0.0905 0.5875
H73? H 0.8185 0.0227 0.5245
C31? C 0.875(3) 0.224(3) 0.4691(12)
H74? H 0.8138 0.2214 0.4393
H75? H 0.9102 0.1512 0.4597
H76? H 0.9041 0.3062 0.4633
C32? C 0.9330(18) 0.235(3) 0.4998(15)
H77? H 0.9753 0.3050 0.5195
H78? H 0.8989 0.2602 0.4553
H79? H 0.9666 0.1552 0.4984
C33? C 0.9098(19) 0.136(2) 0.6016(8)
H80? H 0.9624 0.1817 0.6295
H81? H 0.9280 0.0497 0.5908
H82? H 0.8637 0.1273 0.6247
C34? C 0.7865(11) 0.1347(16) 0.4967(10)
H83? H 0.7508 0.1045 0.5251
H84? H 0.8072 0.0597 0.4767
H85? H 0.7490 0.1907 0.4625
C35? C 0.9670(10) 0.255(2) 0.5437(16)
H86? H 0.9670 0.3145 0.5080
H87? H 1.0030 0.1777 0.5410
H88? H 0.9931 0.2985 0.5856
C36? C 0.864(3) 0.108(2) 0.5845(16)
H89? H 0.9089 0.1232 0.6268
H90? H 0.8760 0.0244 0.5669
H91? H 0.8035 0.1079 0.5901
C37? C 0.8181(19) 0.188(3) 0.4671(9)
H92? H 0.8292 0.2585 0.4395
H93? H 0.7534 0.1834 0.4630
H94? H 0.8380 0.1053 0.4530
C38? C 0.8775(10) 0.7613(17) 0.7007(11)
H95? H 0.8446 0.7339 0.7314
H96? H 0.8409 0.8239 0.6697
H97? H 0.9347 0.8021 0.7248
C39? C 0.9534(10) 0.686(3) 0.6187(6)
H98? H 0.9639 0.6099 0.5943
H99? H 1.0115 0.7211 0.6448
H100? H 0.9208 0.7524 0.5882
C40? C 0.9485(12) 0.5417(15) 0.7141(9)
H101? H 0.9626 0.4669 0.6905
H102? H 0.9110 0.5134 0.7416
H103? H 1.0047 0.5797 0.7417
C41? C 0.894(2) 0.7890(14) 0.662(2)
H104? H 0.8726 0.8171 0.6161
H105? H 0.9550 0.8233 0.6815
H106? H 0.8532 0.8216 0.6856
C42? C 0.9731(15) 0.596(5) 0.634(2)
H107? H 0.9759 0.5004 0.6364
H108? H 1.0315 0.6317 0.6595
H109? H 0.9594 0.6239 0.5889
C43? C 0.923(2) 0.593(5) 0.7336(10)
H110? H 0.9239 0.4977 0.7324
H111? H 0.8783 0.6216 0.7556
H112? H 0.9826 0.6257 0.7574
C44? C 0.886(3) 0.675(6) 0.7320(11)
H113? H 0.8685 0.5954 0.7505
H114? H 0.8399 0.7416 0.7283
H115? H 0.9440 0.7062 0.7606
C45? C 0.909(3) 0.776(3) 0.6326(18)
H116? H 0.9125 0.7608 0.5882
H117? H 0.9643 0.8185 0.6585
H118? H 0.8569 0.8329 0.6307
C46? C 0.9782(12) 0.560(3) 0.671(3)
H119? H 0.9645 0.4711 0.6823
H120? H 1.0293 0.5939 0.7058
H121? H 0.9936 0.5586 0.6299
loop_
_geom_bond_atom_site_label_1
_geom_bond_atom_site_label_2
_geom_bond_site_symmetry_1
_geom_bond_site_symmetry_2
K1 C1 1_555 1_555
Li1 C1 1_555 1_555
Li2 C1 1_555 1_555
Li3 C6 1_555 1_555
Li4 O1 1_555 1_555
C1 H1 1_555 1_555
H2 C1 1_555 1_555
C2 C1 1_555 1_555
C3 C2 1_555 1_555
H3 C3 1_555 1_555
H4 C3 1_555 1_555
H5 C3 1_555 1_555
C4 C2 1_555 1_555
H6 C4 1_555 1_555
H7 C4 1_555 1_555
H8 C4 1_555 1_555
C5 C2 1_555 1_555
H9 C5 1_555 1_555
H10 C5 1_555 1_555
H11 C5 1_555 1_555
C6 K1 1_555 1_555
H12 C6 1_555 1_555
H13 C6 1_555 1_555
C7 C6 1_555 1_555
C8 C7 1_555 1_555
H14 C8 1_555 1_555
H15 C8 1_555 1_555
H16 C8 1_555 1_555
C9 C7 1_555 1_555
H17 C9 1_555 1_555
H18 C9 1_555 1_555
H19 C9 1_555 1_555
C10 C7 1_555 1_555
H20 C10 1_555 1_555
H21 C10 1_555 1_555
H22 C10 1_555 1_555
O1 K1 1_555 1_555
C11 O1 1_555 1_555
C12 C11 1_555 1_555
H23 C12 1_555 1_555
H24 C12 1_555 1_555
H25 C12 1_555 1_555
C13 C11 1_555 1_555
H26 C13 1_555 1_555
H27 C13 1_555 1_555
H28 C13 1_555 1_555
C14 C11 1_555 1_555
H29 C14 1_555 1_555
H30 C14 1_555 1_555
H31 C14 1_555 1_555
O2 K1 1_555 1_555
C15 O2 1_555 1_555
C16 C15 1_555 1_555
H32 C16 1_555 1_555
H33 C16 1_555 1_555
H34 C16 1_555 1_555
C17 C15 1_555 1_555
H35 C17 1_555 1_555
H36 C17 1_555 1_555
H37 C17 1_555 1_555
C18 C15 1_555 1_555
H38 C18 1_555 1_555
H39 C18 1_555 1_555
H40 C18 1_555 1_555
O3 Li1 1_555 1_555
C19 O3 1_555 1_555
C20 C19 1_555 1_555
H41 C20 1_555 1_555
H42 C20 1_555 1_555
H43 C20 1_555 1_555
C21 C19 1_555 1_555
H44 C21 1_555 1_555
H45 C21 1_555 1_555
H46 C21 1_555 1_555
C22 C19 1_555 1_555
H47 C22 1_555 1_555
H48 C22 1_555 1_555
H49 C22 1_555 1_555
K1B C1B 1_555 1_555
Li1B C1B 1_555 1_555
Li2B C1B 1_555 1_555
Li3B C6B 1_555 1_555
Li4B O1B 1_555 1_555
C1B H1B 1_555 1_555
H2B C1B 1_555 1_555
C2B C1B 1_555 1_555
C3B C2B 1_555 1_555
H3B C3B 1_555 1_555
H4B C3B 1_555 1_555
H5B C3B 1_555 1_555
C4B C2B 1_555 1_555
H6B C4B 1_555 1_555
H7B C4B 1_555 1_555
H8B C4B 1_555 1_555
C5B C2B 1_555 1_555
H9B C5B 1_555 1_555
H10B C5B 1_555 1_555
H11B C5B 1_555 1_555
C6B K1B 1_555 1_555
H12B C6B 1_555 1_555
H13B C6B 1_555 1_555
C7B C6B 1_555 1_555
C8B C7B 1_555 1_555
H14B C8B 1_555 1_555
H15B C8B 1_555 1_555
H16B C8B 1_555 1_555
C9B C7B 1_555 1_555
H17B C9B 1_555 1_555
H18B C9B 1_555 1_555
H19B C9B 1_555 1_555
C10B C7B 1_555 1_555
H20B C10B 1_555 1_555
H21B C10B 1_555 1_555
H22B C10B 1_555 1_555
O1B K1B 1_555 1_555
C11B O1B 1_555 1_555
C12B C11B 1_555 1_555
H23B C12B 1_555 1_555
H24B C12B 1_555 1_555
H25B C12B 1_555 1_555
C13B C11B 1_555 1_555
H26B C13B 1_555 1_555
H27B C13B 1_555 1_555
H28B C13B 1_555 1_555
C14B C11B 1_555 1_555
H29B C14B 1_555 1_555
H30B C14B 1_555 1_555
H31B C14B 1_555 1_555
O2B K1B 1_555 1_555
C15B O2B 1_555 1_555
C16B C15B 1_555 1_555
H32B C16B 1_555 1_555
H33B C16B 1_555 1_555
H34B C16B 1_555 1_555
C17B C15B 1_555 1_555
H35B C17B 1_555 1_555
H36B C17B 1_555 1_555
H37B C17B 1_555 1_555
C18B C15B 1_555 1_555
H38B C18B 1_555 1_555
H39B C18B 1_555 1_555
H40B C18B 1_555 1_555
O3B Li1B 1_555 1_555
C19B O3B 1_555 1_555
C20B C19B 1_555 1_555
H41B C20B 1_555 1_555
H42B C20B 1_555 1_555
H43B C20B 1_555 1_555
C21B C19B 1_555 1_555
H44B C21B 1_555 1_555
H45B C21B 1_555 1_555
H46B C21B 1_555 1_555
C22B C19B 1_555 1_555
H47B C22B 1_555 1_555
H48B C22B 1_555 1_555
H49B C22B 1_555 1_555
Li1 O1 1_555 1_555
Li2 C6 1_555 1_555
Li2 O3 1_555 1_555
Li3 O2 1_555 1_555
Li3 O3 1_555 1_555
Li4 O2 1_555 1_555
Li4 O3 1_555 1_555
Li1B O1B 1_555 1_555
Li2B C6B 1_555 1_555
Li2B O3B 1_555 1_555
Li3B O2B 1_555 1_555
Li3B O3B 1_555 1_555
Li4B O2B 1_555 1_555
Li4B O3B 1_555 1_555

#END
