
#######################################################################
#
#                 Cambridge Crystallographic Data Centre
#                                CCDC 
#
#######################################################################
#
# If this CIF has been generated from an entry in the Cambridge 
# Structural Database, then it will include bibliographic, chemical, 
# crystal, experimental, refinement or atomic coordinate data resulting 
# from the CCDC's data processing and validation procedures.
#
#######################################################################

data_JILFUF
_chemical_formula_moiety         'C32 H40 B4 N12'
_chemical_name_systematic        
Cyclo-tetrakis(dimethyl(benzo-1,2,3-triazol-1,3-diyl)borane)
_symmetry_cell_setting           monoclinic
_symmetry_space_group_name_H-M   'P 21/c'
_symmetry_Int_Tables_number      14
_space_group_name_Hall           '-P 2ybc'
loop_
_symmetry_equiv_pos_site_id
_symmetry_equiv_pos_as_xyz
1 x,y,z
2 -x,1/2+y,1/2-z
3 -x,-y,-z
4 x,1/2-y,1/2+z
_cell_length_a                   9.2125(9)
_cell_length_b                   10.282(2)
_cell_length_c                   18.897(3)
_cell_angle_alpha                90
_cell_angle_beta                 93.39(1)
_cell_angle_gamma                90
_cell_volume                     1786.85
_exptl_crystal_colour            colorless
_cell_formula_units_Z            2
loop_
_atom_site_label
_atom_site_type_symbol
_atom_site_fract_x
_atom_site_fract_y
_atom_site_fract_z
N1 N 0.65052(17) 0.22286(16) 0.00808(8)
N2 N 0.51880(17) 0.24318(16) 0.03071(8)
N3 N 0.50676(16) 0.17518(16) 0.08935(8)
N4 N 0.67603(17) -0.03888(17) -0.14760(8)
N5 N 0.65947(17) 0.04587(17) -0.09586(9)
N6 N 0.71194(16) 0.16031(7) -0.11419(8)
C1 C 0.7256(2) 0.1381(2) 0.05295(10)
C2 C 0.6329(2) 0.1069(2) 0.10553(10)
C3 C 0.7431(2) 0.0215(2) -0.20179(10)
C4 C 0.7661(2) 0.1494(2) -0.18030(10)
C5 C 0.8516(3) 0.3572(3) -0.0511(2)
C6 C 0.5681(4) 0.3741(3) -0.09810(16)
C7 C 0.4100(4) 0.2635(3) 0.20531(16)
C8 C 0.2364(3) 0.2510(3) 0.08416(19)
C9 C 0.8637(2) 0.0826(2) 0.05187(13)
C10 C 0.9018(13) -0.0035(3) 0.10462(13)
C11 C 0.8082(13) -0.0343(3) 0.15776(14)
C12 C 0.6728(3) 0.0195(2) 0.15986(11)
C13 C 0.7877(3) -0.0224(3) -0.26732(13)
C14 C 0.8562(3) 0.0668(3) -0.30787(15)
C15 C 0.8777(3) 0.1949(3) -0.28604(15)
C16 C 0.8347(3) 0.2397(3) -0.22261(14)
B1 B 0.6964(3) 0.2866(2) -0.06417(13)
B2 B 0.3646(3) 0.1889(3) 0.13326(14)
H1 H 0.880(3) 0.407(3) -0.0912(16)
H2 H 0.935(4) 0.299(3) -0.0416(16)
H3 H 0.852(3) 0.417(3) -0.0142(15)
H4 H 0.557(3) 0.449(3) -0.0692(13)
H5 H 0.597(2) 0.406(2) -0.1430(12)
H6 H 0.473(3) 0.325(3) -0.1034(13)
H7 H 0.462(3) 0.351(3) 0.1949(13)
H8 H 0.324(3) 0.287(3) 0.2290(15)
H9 H 0.480(3) 0.210(3) 0.2386(15)
H10 H 0.149(3) 0.249(2) 0.1075(12)
H11 H 0.214(3) 0.201(3) 0.0354(16)
H12 H 0.256(3) 0.336(3) 0.0680(13)
H13 H 0.927(2) 0.108(2) 0.0170(10)
H14 H 0.998(3) -0.041(2) 0.1060(12)
H15 H 0.838(2) -0.097(2) 0.1929(12)
H16 H 0.609(2) 0.002(2) 0.1971(10)
H17 H 0.774(2) -0.112(2) -0.2825(11)
H18 H 0.886(2) 0.033(2) -0.3541(13)
H19 H 0.924(3) 0.253(3) -0.3155(13)
H20 H 0.849(2) 0.326(2) -0.2071(11)
B2B B 0.6354(3) -0.1889(3) -0.13326(14)
N4B N 0.32397(17) 0.03888(17) 0.14760(8)
N3B N 0.49324(16) -0.17518(16) -0.08935(8)
C7B C 0.5900(4) -0.2635(3) -0.20531(16)
C8B C 0.7636(3) -0.2510(3) -0.08416(19)
N5B N 0.34053(17) -0.04587(17) 0.09586(9)
C3B C 0.2569(2) -0.0215(2) 0.20179(10)
N2B N 0.48120(17) -0.24318(16) -0.03071(8)
C2B C 0.3671(2) -0.1069(2) -0.10553(10)
H7B H 0.538(3) -0.351(3) -0.1949(13)
H8B H 0.676(3) -0.287(3) -0.2290(15)
H9B H 0.520(3) -0.210(3) -0.2386(15)
H10B H 0.851(3) -0.249(2) -0.1075(12)
H11B H 0.786(3) -0.201(3) -0.0354(16)
H12B H 0.744(3) -0.336(3) -0.0680(13)
N6B N 0.28806(16) -0.16031(7) 0.11419(8)
C4B C 0.2339(2) -0.1494(2) 0.18030(10)
C13B C 0.2123(3) 0.0224(3) 0.26732(13)
N1B N 0.34948(17) -0.22286(16) -0.00808(8)
C1B C 0.2744(2) -0.1381(2) -0.05295(10)
C12B C 0.3272(3) -0.0195(2) -0.15986(11)
B1B B 0.3036(3) -0.2866(2) 0.06417(13)
C16B C 0.1653(3) -0.2397(3) 0.22261(14)
C14B C 0.1438(3) -0.0668(3) 0.30787(15)
H17B H 0.226(2) 0.112(2) 0.2825(11)
C9B C 0.1363(2) -0.0826(2) -0.05187(13)
C11B C 0.1918(13) 0.0343(3) -0.15776(14)
H16B H 0.391(2) -0.002(2) -0.1971(10)
C5B C 0.1484(3) -0.3572(3) 0.0511(2)
C6B C 0.4319(4) -0.3741(3) 0.09810(16)
C15B C 0.1223(3) -0.1949(3) 0.28604(15)
H20B H 0.151(2) -0.326(2) 0.2071(11)
H18B H 0.114(2) -0.033(2) 0.3541(13)
C10B C 0.0982(13) 0.0035(3) -0.10462(13)
H13B H 0.073(2) -0.108(2) -0.0170(10)
H15B H 0.162(2) 0.097(2) -0.1929(12)
H1B H 0.120(3) -0.407(3) 0.0912(16)
H2B H 0.065(4) -0.299(3) 0.0416(16)
H3B H 0.148(3) -0.417(3) 0.0142(15)
H4B H 0.443(3) -0.449(3) 0.0692(13)
H5B H 0.403(2) -0.406(2) 0.1430(12)
H6B H 0.527(3) -0.325(3) 0.1034(13)
H19B H 0.076(3) -0.253(3) 0.3155(13)
H14B H 0.002(3) 0.041(2) -0.1060(12)
loop_
_geom_bond_atom_site_label_1
_geom_bond_atom_site_label_2
_geom_bond_site_symmetry_1
_geom_bond_site_symmetry_2
N1 N2 1_555 1_555
N2 N3 1_555 1_555
N3 C2 1_555 1_555
N4 N5 1_555 1_555
N5 N6 1_555 1_555
N6 C4 1_555 1_555
C1 N1 1_555 1_555
C2 C1 1_555 1_555
C3 N4 1_555 1_555
C4 C3 1_555 1_555
C5 B1 1_555 1_555
C6 B1 1_555 1_555
C7 B2 1_555 1_555
C8 B2 1_555 1_555
C9 C1 1_555 1_555
C10 C9 1_555 1_555
C11 C10 1_555 1_555
C12 C2 1_555 1_555
C13 C3 1_555 1_555
C14 C13 1_555 1_555
C15 C14 1_555 1_555
C16 C4 1_555 1_555
B1 N1 1_555 1_555
B2 N3 1_555 1_555
H1 C5 1_555 1_555
H2 C5 1_555 1_555
H3 C5 1_555 1_555
H4 C6 1_555 1_555
H5 C6 1_555 1_555
H6 C6 1_555 1_555
H7 C7 1_555 1_555
H8 C7 1_555 1_555
H9 C7 1_555 1_555
H10 C8 1_555 1_555
H11 C8 1_555 1_555
H12 C8 1_555 1_555
H13 C9 1_555 1_555
H14 C10 1_555 1_555
H15 C11 1_555 1_555
H16 C12 1_555 1_555
H17 C13 1_555 1_555
H18 C14 1_555 1_555
H19 C15 1_555 1_555
H20 C16 1_555 1_555
B2B N4 1_555 1_555
N4B B2 1_555 1_555
N3B B2B 1_555 1_555
C7B B2B 1_555 1_555
C8B B2B 1_555 1_555
N5B N4B 1_555 1_555
C3B N4B 1_555 1_555
N2B N3B 1_555 1_555
C2B N3B 1_555 1_555
H7B C7B 1_555 1_555
H8B C7B 1_555 1_555
H9B C7B 1_555 1_555
H10B C8B 1_555 1_555
H11B C8B 1_555 1_555
H12B C8B 1_555 1_555
N6B N5B 1_555 1_555
C4B C3B 1_555 1_555
C13B C3B 1_555 1_555
N1B N2B 1_555 1_555
C1B C2B 1_555 1_555
C12B C2B 1_555 1_555
B1B N6B 1_555 1_555
C16B C4B 1_555 1_555
C14B C13B 1_555 1_555
H17B C13B 1_555 1_555
C9B C1B 1_555 1_555
C11B C12B 1_555 1_555
H16B C12B 1_555 1_555
C5B B1B 1_555 1_555
C6B B1B 1_555 1_555
C15B C16B 1_555 1_555
H20B C16B 1_555 1_555
H18B C14B 1_555 1_555
C10B C9B 1_555 1_555
H13B C9B 1_555 1_555
H15B C11B 1_555 1_555
H1B C5B 1_555 1_555
H2B C5B 1_555 1_555
H3B C5B 1_555 1_555
H4B C6B 1_555 1_555
H5B C6B 1_555 1_555
H6B C6B 1_555 1_555
H19B C15B 1_555 1_555
H14B C10B 1_555 1_555
N6 B1 1_555 1_555
C11 C12 1_555 1_555
C15 C16 1_555 1_555
N6B C4B 1_555 1_555
N1B C1B 1_555 1_555
N1B B1B 1_555 1_555
C14B C15B 1_555 1_555
C11B C10B 1_555 1_555

#END
