
#######################################################################
#
#                 Cambridge Crystallographic Data Centre
#                                CCDC 
#
#######################################################################
#
# If this CIF has been generated from an entry in the Cambridge 
# Structural Database, then it will include bibliographic, chemical, 
# crystal, experimental, refinement or atomic coordinate data resulting 
# from the CCDC's data processing and validation procedures.
#
#######################################################################

data_JILPUS
_chemical_formula_moiety         'C28 H18 F1 N1 O2'
_chemical_name_systematic        
'[1-(benzenecarbonyl)-2-phenylindolizin-3-yl](4-fluorophenyl)methanone'
_symmetry_cell_setting           monoclinic
_symmetry_space_group_name_H-M   'C 2/c'
_symmetry_Int_Tables_number      15
_space_group_name_Hall           '-C 2yn'
loop_
_symmetry_equiv_pos_site_id
_symmetry_equiv_pos_as_xyz
1 x,y,z
2 -x,y,1/2-z
3 1/2+x,1/2+y,z
4 1/2-x,1/2+y,1/2-z
5 -x,-y,-z
6 x,-y,1/2+z
7 1/2-x,1/2-y,-z
8 1/2+x,1/2-y,1/2+z
_cell_length_a                   22.728(3)
_cell_length_b                   11.113(2)
_cell_length_c                   20.914(4)
_cell_angle_alpha                90
_cell_angle_beta                 129.472(10)
_cell_angle_gamma                90
_cell_volume                     4077.66
_exptl_crystal_colour            'light yellow'
_exptl_crystal_description       block
_cell_formula_units_Z            8
loop_
_atom_site_label
_atom_site_type_symbol
_atom_site_fract_x
_atom_site_fract_y
_atom_site_fract_z
F1 F 0.72248(14) 1.0749(2) 0.54643(18)
O1 O 0.39537(8) 0.38222(13) 0.40322(9)
O2 O 0.63214(8) 0.61256(14) 0.33822(9)
C1 C 0.49019(11) 0.27691(18) 0.36833(12)
H1 H 0.4536 0.2449 0.3704
C2 C 0.53511(12) 0.20248(19) 0.36423(14)
H2 H 0.5302 0.1195 0.3649
C3 C 0.58922(12) 0.25087(19) 0.35897(14)
H3 H 0.6193 0.1996 0.3552
C4 C 0.59774(11) 0.37157(19) 0.35936(13)
H4 H 0.6333 0.4032 0.3555
C5 C 0.55345(10) 0.57406(17) 0.37159(11)
C6 C 0.49501(9) 0.60539(17) 0.37409(10)
C7 C 0.46102(10) 0.49819(16) 0.37262(11)
C8 C 0.39960(10) 0.47794(17) 0.37633(11)
C9 C 0.34139(10) 0.57299(17) 0.34809(11)
C10 C 0.32054(11) 0.59629(19) 0.39683(13)
H5 H 0.3412 0.5506 0.4441
C11 C 0.26942(12) 0.6868(2) 0.37507(15)
H6 H 0.2570 0.7046 0.4087
C12 C 0.23668(12) 0.7508(2) 0.30302(15)
H7 H 0.2020 0.8117 0.2884
C13 C 0.25448(11) 0.7263(2) 0.25220(13)
H8 H 0.2309 0.7684 0.2030
C14 C 0.30784(10) 0.63813(18) 0.27548(12)
H9 H 0.3213 0.6224 0.2426
C15 C 0.47165(9) 0.73018(16) 0.37435(11)
C16 C 0.46356(10) 0.76621(18) 0.43243(11)
H10 H 0.4762 0.7132 0.4739
C17 C 0.43704(11) 0.87977(18) 0.42870(13)
H11 H 0.4320 0.9029 0.4678
C18 C 0.41771(12) 0.96001(19) 0.36695(14)
H12 H 0.3988 1.0359 0.3638
C19 C 0.42708(11) 0.92534(18) 0.31025(13)
H13 H 0.4150 0.9787 0.2692
C20 C 0.45425(10) 0.81181(17) 0.31433(12)
H14 H 0.4609 0.7900 0.2764
C21 C 0.60929(10) 0.64736(18) 0.37508(11)
C22 C 0.63978(10) 0.75975(18) 0.42438(11)
C23 C 0.64206(10) 0.77988(18) 0.49151(12)
H15 H 0.6243 0.7211 0.5072
C24 C 0.67062(11) 0.8870(2) 0.53509(14)
H16 H 0.6721 0.9009 0.5799
C25 C 0.69688(12) 0.9726(2) 0.51095(16)
C26 C 0.69792(12) 0.9531(2) 0.44679(16)
H17 H 0.7172 1.0112 0.4325
C27 C 0.66999(11) 0.8463(2) 0.40399(13)
H18 H 0.6712 0.8315 0.3611
N1 N 0.55293(9) 0.44809(16) 0.36559(10)
C28 C 0.49895(9) 0.40201(16) 0.36942(10)
F2? F 0.19028(18) 0.8373(3) 0.2873(2)
H19? H 0.7144 1.0457 0.5389
N2? N 0.49895(9) 0.40201(16) 0.36942(10)
C29? C 0.55293(9) 0.44809(16) 0.36559(10)
loop_
_geom_bond_atom_site_label_1
_geom_bond_atom_site_label_2
_geom_bond_site_symmetry_1
_geom_bond_site_symmetry_2
F1 C25 1_555 1_555
O1 C8 1_555 1_555
O2 C21 1_555 1_555
C1 H1 1_555 1_555
C2 C1 1_555 1_555
H2 C2 1_555 1_555
C3 C2 1_555 1_555
H3 C3 1_555 1_555
C4 C3 1_555 1_555
H4 C4 1_555 1_555
C5 C6 1_555 1_555
C6 C7 1_555 1_555
C7 C8 1_555 1_555
C8 C9 1_555 1_555
C9 C10 1_555 1_555
C10 H5 1_555 1_555
C11 C10 1_555 1_555
H6 C11 1_555 1_555
C12 C11 1_555 1_555
H7 C12 1_555 1_555
C13 C12 1_555 1_555
H8 C13 1_555 1_555
C14 C9 1_555 1_555
H9 C14 1_555 1_555
C15 C6 1_555 1_555
C16 C15 1_555 1_555
H10 C16 1_555 1_555
C17 C16 1_555 1_555
H11 C17 1_555 1_555
C18 C17 1_555 1_555
H12 C18 1_555 1_555
C19 C18 1_555 1_555
H13 C19 1_555 1_555
C20 C15 1_555 1_555
H14 C20 1_555 1_555
C21 C5 1_555 1_555
C22 C21 1_555 1_555
C23 C22 1_555 1_555
H15 C23 1_555 1_555
C24 C23 1_555 1_555
H16 C24 1_555 1_555
C25 C24 1_555 1_555
C26 C25 1_555 1_555
H17 C26 1_555 1_555
C27 C22 1_555 1_555
H18 C27 1_555 1_555
N1 C4 1_555 1_555
C28 C1 1_555 1_555
C5 N1 1_555 1_555
C7 C28 1_555 1_555
C13 C14 1_555 1_555
C19 C20 1_555 1_555
C26 C27 1_555 1_555
N1 C28 1_555 1_555

#END
