
#######################################################################
#
#                 Cambridge Crystallographic Data Centre
#                                CCDC 
#
#######################################################################
#
# If this CIF has been generated from an entry in the Cambridge 
# Structural Database, then it will include bibliographic, chemical, 
# crystal, experimental, refinement or atomic coordinate data resulting 
# from the CCDC's data processing and validation procedures.
#
#######################################################################

data_JILPIG
_chemical_formula_moiety         'C29 H24 N2 O1,C1 H1 Cl3'
_chemical_name_systematic        
'8,14-diphenyl-5,7,8,9-tetrahydro-6H-dibenzo[d,h][1,3]diazacycloundecin-6-one chloroform solvate'
_symmetry_cell_setting           triclinic
_symmetry_space_group_name_H-M   'P -1'
_symmetry_Int_Tables_number      2
_space_group_name_Hall           '-P 1'
loop_
_symmetry_equiv_pos_site_id
_symmetry_equiv_pos_as_xyz
1 x,y,z
2 -x,-y,-z
_cell_length_a                   9.7515(3)
_cell_length_b                   10.4670(3)
_cell_length_c                   13.3967(4)
_cell_angle_alpha                88.7235(16)
_cell_angle_beta                 87.0479(16)
_cell_angle_gamma                73.4928(15)
_cell_volume                     1309.25
_exptl_crystal_colour            colorless
_exptl_crystal_description       block
_cell_formula_units_Z            2
loop_
_atom_site_label
_atom_site_type_symbol
_atom_site_fract_x
_atom_site_fract_y
_atom_site_fract_z
O1 O 0.56607(12) 0.14365(12) 0.01690(8)
N1 N 0.58562(15) -0.03491(14) 0.12044(10)
N2 N 0.72450(16) 0.10763(15) 0.14058(11)
C1 C 0.62231(17) 0.07643(16) 0.08961(12)
C2 C 0.74538(18) 0.23990(17) 0.13746(12)
H1 H 0.6900 0.2901 0.0811
C3 C 0.68081(17) 0.31388(17) 0.23526(12)
H2 H 0.7002 0.4018 0.2341
H3 H 0.5756 0.3301 0.2371
C4 C 0.73767(17) 0.24066(16) 0.33007(12)
C5 C 0.65654(17) 0.17590(16) 0.39124(12)
C6 C 0.51277(17) 0.16900(16) 0.36112(11)
C7 C 0.49748(17) 0.05887(16) 0.31882(12)
H4 H 0.4044 0.0635 0.2983
C8 C 0.60986(17) -0.06938(15) 0.30055(12)
C9 C 0.64736(17) -0.11630(16) 0.20267(12)
C10 C 0.90155(18) 0.23551(18) 0.11679(12)
C11 C 1.0121(2) 0.11816(19) 0.11577(13)
H5 H 0.9911 0.0353 0.1246
C12 C 1.1539(2) 0.1207(2) 0.10183(15)
H6 H 1.2289 0.0396 0.1011
C13 C 1.1860(2) 0.2406(2) 0.08907(15)
H7 H 1.2828 0.2421 0.0810
C14 C 1.0761(2) 0.3587(2) 0.08808(15)
H8 H 1.0975 0.4412 0.0783
C15 C 0.9349(2) 0.35595(19) 0.10143(13)
H9 H 0.8599 0.4370 0.1001
C16 C 0.87314(18) 0.24060(18) 0.36005(13)
H10 H 0.9307 0.2810 0.3181
C17 C 0.92504(19) 0.18272(18) 0.44974(14)
H11 H 1.0180 0.1822 0.4681
C18 C 0.8412(2) 0.12568(17) 0.51240(13)
H12 H 0.8745 0.0894 0.5753
C19 C 0.70843(19) 0.12171(17) 0.48296(13)
H13 H 0.6516 0.0815 0.5258
C20 C 0.67206(19) -0.15194(17) 0.37927(13)
H14 H 0.6492 -0.1217 0.4461
C21 C 0.7665(2) -0.27709(18) 0.36178(14)
H15 H 0.8074 -0.3320 0.4162
C22 C 0.8009(2) -0.32167(18) 0.26466(15)
H16 H 0.8648 -0.4077 0.2525
C23 C 0.74246(18) -0.24133(17) 0.18510(13)
H17 H 0.7674 -0.2717 0.1185
C24 C 0.3948(2) 0.2915(2) 0.37730(19)
C25 C 0.2751(3) 0.3134(2) 0.32017(18)
H18 H 0.2704 0.2495 0.2722
C26 C 0.1624(2) 0.4287(3) 0.33322(19)
H19 H 0.0806 0.4437 0.2942
C27 C 0.1694(3) 0.5223(2) 0.4034(2)
H20 H 0.0923 0.6011 0.4123
C28 C 0.2890(3) 0.5004(3) 0.46053(18)
H21 H 0.2938 0.5644 0.5085
C29 C 0.4017(3) 0.3851(3) 0.44748(18)
H22 H 0.4835 0.3701 0.4865
H23 H 0.540(2) -0.0689(19) 0.0767(15)
H24 H 0.751(2) 0.061(2) 0.1916(17)
Cl1 Cl 0.36913(6) 0.53679(5) 0.10827(5)
Cl2 Cl 0.37817(17) 0.73771(14) 0.25286(12)
Cl3 Cl 0.11085(7) 0.73835(6) 0.17018(4)
C36 C 0.2976(2) 0.7024(2) 0.14734(15)
H30 H 0.3153 0.7618 0.0917
C30? C 0.3833(2) 0.2947(2) 0.3762(2)
C31? C 0.4113(2) 0.4069(3) 0.4139(2)
H25? H 0.5063 0.4043 0.4289
C32? C 0.3005(3) 0.5231(2) 0.4295(2)
H26? H 0.3196 0.5998 0.4552
C33? C 0.1616(3) 0.5271(2) 0.4074(2)
H27? H 0.0858 0.6065 0.4181
C34? C 0.1336(2) 0.4148(3) 0.3698(2)
H28? H 0.0386 0.4175 0.3547
C35? C 0.2444(3) 0.2987(2) 0.3542(2)
H29? H 0.2252 0.2219 0.3285
H31? H 0.3093 0.7575 0.0873
H32? H 0.3214 0.7658 0.0970
Cl4? Cl 0.3518(5) 0.7771(3) 0.2447(3)
Cl5? Cl 0.4067(3) 0.6879(2) 0.2596(2)
loop_
_geom_bond_atom_site_label_1
_geom_bond_atom_site_label_2
_geom_bond_site_symmetry_1
_geom_bond_site_symmetry_2
O1 C1 1_555 1_555
N1 C1 1_555 1_555
N2 C1 1_555 1_555
C2 N2 1_555 1_555
H1 C2 1_555 1_555
C3 C2 1_555 1_555
H2 C3 1_555 1_555
H3 C3 1_555 1_555
C4 C3 1_555 1_555
C5 C4 1_555 1_555
C6 C5 1_555 1_555
C7 C6 1_555 1_555
H4 C7 1_555 1_555
C8 C7 1_555 1_555
C9 N1 1_555 1_555
C10 C2 1_555 1_555
C11 C10 1_555 1_555
H5 C11 1_555 1_555
C12 C11 1_555 1_555
H6 C12 1_555 1_555
C13 C12 1_555 1_555
H7 C13 1_555 1_555
C14 C13 1_555 1_555
H8 C14 1_555 1_555
C15 C10 1_555 1_555
H9 C15 1_555 1_555
C16 C4 1_555 1_555
H10 C16 1_555 1_555
C17 C16 1_555 1_555
H11 C17 1_555 1_555
C18 C17 1_555 1_555
H12 C18 1_555 1_555
C19 C5 1_555 1_555
H13 C19 1_555 1_555
C20 C8 1_555 1_555
H14 C20 1_555 1_555
C21 C20 1_555 1_555
H15 C21 1_555 1_555
C22 C21 1_555 1_555
H16 C22 1_555 1_555
C23 C9 1_555 1_555
H17 C23 1_555 1_555
C24 C6 1_555 1_555
C25 C24 1_555 1_555
H18 C25 1_555 1_555
C26 C25 1_555 1_555
H19 C26 1_555 1_555
C27 C26 1_555 1_555
H20 C27 1_555 1_555
C28 C27 1_555 1_555
H21 C28 1_555 1_555
C29 C24 1_555 1_555
H22 C29 1_555 1_555
H23 N1 1_555 1_555
H24 N2 1_555 1_555
Cl1 C36 1_555 1_555
Cl2 C36 1_555 1_555
Cl3 C36 1_555 1_555
C36 H30 1_555 1_555
C8 C9 1_555 1_555
C14 C15 1_555 1_555
C18 C19 1_555 1_555
C22 C23 1_555 1_555
C28 C29 1_555 1_555

#END
