
#######################################################################
#
#                 Cambridge Crystallographic Data Centre
#                                CCDC 
#
#######################################################################
#
# If this CIF has been generated from an entry in the Cambridge 
# Structural Database, then it will include bibliographic, chemical, 
# crystal, experimental, refinement or atomic coordinate data resulting 
# from the CCDC's data processing and validation procedures.
#
#######################################################################

data_JILQED
_chemical_formula_moiety         'C20 H21 N1 O4 S1'
_chemical_name_systematic        
4-[(4-methylphenyl)sulfonyl]-3-phenyl-6-(prop-1-en-2-yl)morpholin-2-one
_symmetry_cell_setting           monoclinic
_symmetry_space_group_name_H-M   'P 21/c'
_symmetry_Int_Tables_number      14
_space_group_name_Hall           '-P 2ybc'
loop_
_symmetry_equiv_pos_site_id
_symmetry_equiv_pos_as_xyz
1 x,y,z
2 -x,1/2+y,1/2-z
3 -x,-y,-z
4 x,1/2-y,1/2+z
_cell_length_a                   17.4085(10)
_cell_length_b                   6.2355(3)
_cell_length_c                   17.4828(11)
_cell_angle_alpha                90
_cell_angle_beta                 99.565(6)
_cell_angle_gamma                90
_cell_volume                     1871.39
_exptl_crystal_colour            colorless
_exptl_crystal_description       plate
_cell_formula_units_Z            4
loop_
_atom_site_label
_atom_site_type_symbol
_atom_site_fract_x
_atom_site_fract_y
_atom_site_fract_z
S1 S 0.17257(3) 0.68070(9) 0.42474(3)
O1 O 0.35277(11) 0.0711(3) 0.48383(11)
O2 O 0.40426(10) 0.3639(3) 0.44654(10)
O3 O 0.13006(10) 0.5830(3) 0.47883(10)
O4 O 0.17853(10) 0.9089(3) 0.42035(10)
N1 N 0.26208(10) 0.5876(3) 0.44592(9)
C1 C 0.30854(14) 0.5847(4) 0.61181(13)
H1 H 0.3200 0.7042 0.5839
C2 C 0.31926(18) 0.5911(5) 0.69232(15)
H2 H 0.3385 0.7148 0.7184
C3 C 0.30156(18) 0.4158(5) 0.73354(15)
H3 H 0.3094 0.4207 0.7874
C4 C 0.27247(18) 0.2340(5) 0.69562(16)
H4 H 0.2591 0.1167 0.7235
C5 C 0.26299(15) 0.2256(4) 0.61565(14)
H5 H 0.2444 0.1007 0.5899
C6 C 0.28087(12) 0.4004(3) 0.57357(12)
C7 C 0.27345(13) 0.3785(3) 0.48579(11)
H6 H 0.2280 0.2885 0.4673
C8 C 0.34591(14) 0.2599(4) 0.47092(12)
C9 C 0.39812(13) 0.5917(3) 0.43051(12)
H7 H 0.4111 0.6712 0.4793
C10 C 0.31602(12) 0.6442(4) 0.39354(11)
H8 H 0.3119 0.7962 0.3818
H9 H 0.3027 0.5654 0.3453
C11 C 0.45669(13) 0.6454(4) 0.37870(12)
C12 C 0.48793(18) 0.8514(5) 0.38352(17)
H10 H 0.5226 0.8919 0.3510
H11 H 0.4741 0.9486 0.4192
C13 C 0.4748(2) 0.4912(6) 0.32654(19)
H12 H 0.4900 0.3604 0.3539
H13 H 0.5169 0.5421 0.3023
H14 H 0.4300 0.4652 0.2876
C14 C 0.13519(13) 0.5900(4) 0.33051(13)
C15 C 0.10175(14) 0.3892(4) 0.31879(15)
H15 H 0.0977 0.3008 0.3608
C16 C 0.07440(16) 0.3208(4) 0.24387(17)
H16 H 0.0518 0.1857 0.2361
C17 C 0.07973(16) 0.4478(5) 0.18047(16)
C18 C 0.11279(16) 0.6474(5) 0.19311(16)
H17 H 0.1165 0.7353 0.1509
C19 C 0.14070(14) 0.7206(4) 0.26747(15)
H18 H 0.1629 0.8562 0.2750
C20 C 0.0500(2) 0.3704(7) 0.09849(19)
H19 H -0.0027 0.4178 0.0827
H20 H 0.0517 0.2165 0.0971
H21 H 0.0822 0.4278 0.0639
loop_
_geom_bond_atom_site_label_1
_geom_bond_atom_site_label_2
_geom_bond_site_symmetry_1
_geom_bond_site_symmetry_2
S1 O3 1_555 1_555
O1 C8 1_555 1_555
O2 C8 1_555 1_555
O4 S1 1_555 1_555
N1 S1 1_555 1_555
C1 H1 1_555 1_555
C2 C1 1_555 1_555
H2 C2 1_555 1_555
C3 C2 1_555 1_555
H3 C3 1_555 1_555
C4 C3 1_555 1_555
H4 C4 1_555 1_555
C5 C4 1_555 1_555
H5 C5 1_555 1_555
C6 C1 1_555 1_555
C7 N1 1_555 1_555
H6 C7 1_555 1_555
C8 C7 1_555 1_555
C9 O2 1_555 1_555
H7 C9 1_555 1_555
C10 N1 1_555 1_555
H8 C10 1_555 1_555
H9 C10 1_555 1_555
C11 C9 1_555 1_555
C12 C11 1_555 1_555
H10 C12 1_555 1_555
H11 C12 1_555 1_555
C13 C11 1_555 1_555
H12 C13 1_555 1_555
H13 C13 1_555 1_555
H14 C13 1_555 1_555
C14 S1 1_555 1_555
C15 C14 1_555 1_555
H15 C15 1_555 1_555
C16 C15 1_555 1_555
H16 C16 1_555 1_555
C17 C16 1_555 1_555
C18 C17 1_555 1_555
H17 C18 1_555 1_555
C19 C14 1_555 1_555
H18 C19 1_555 1_555
C20 C17 1_555 1_555
H19 C20 1_555 1_555
H20 C20 1_555 1_555
H21 C20 1_555 1_555
C5 C6 1_555 1_555
C6 C7 1_555 1_555
C9 C10 1_555 1_555
C18 C19 1_555 1_555

#END
