
#######################################################################
#
#                 Cambridge Crystallographic Data Centre
#                                CCDC 
#
#######################################################################
#
# If this CIF has been generated from an entry in the Cambridge 
# Structural Database, then it will include bibliographic, chemical, 
# crystal, experimental, refinement or atomic coordinate data resulting 
# from the CCDC's data processing and validation procedures.
#
#######################################################################

data_JILRII
_chemical_formula_moiety         'C15 H21 N1 O3 S1'
_chemical_name_systematic        
2-methyl-4-[(4-methylphenyl)sulfonyl]-5-(prop-1-en-2-yl)morpholine
_symmetry_cell_setting           monoclinic
_symmetry_space_group_name_H-M   'P 21/c'
_symmetry_Int_Tables_number      14
_space_group_name_Hall           '-P 2ybc'
loop_
_symmetry_equiv_pos_site_id
_symmetry_equiv_pos_as_xyz
1 x,y,z
2 -x,1/2+y,1/2-z
3 -x,-y,-z
4 x,1/2-y,1/2+z
_cell_length_a                   9.1241(2)
_cell_length_b                   13.2825(2)
_cell_length_c                   25.2487(5)
_cell_angle_alpha                90
_cell_angle_beta                 94.1180(10)
_cell_angle_gamma                90
_cell_volume                     3052.01
_exptl_crystal_colour            colorless
_exptl_crystal_description       block
_cell_formula_units_Z            8
loop_
_atom_site_label
_atom_site_type_symbol
_atom_site_fract_x
_atom_site_fract_y
_atom_site_fract_z
S1 S 0.57058(4) 0.42788(3) 0.29190(2)
O1 O 0.60133(13) 0.52934(9) 0.27728(5)
N1 N 0.54920(14) 0.42735(10) 0.35679(5)
C1 C 0.39959(18) 0.39252(13) 0.26024(6)
O2 O 0.67491(13) 0.35021(10) 0.28285(5)
C2 C 0.29838(19) 0.46666(13) 0.24427(7)
H1 H 0.3233 0.5359 0.2480
C3 C 0.1607(2) 0.43822(15) 0.22285(7)
H2 H 0.0917 0.4886 0.2113
O3 O 0.41626(12) 0.38776(9) 0.45368(4)
C4 C 0.1215(2) 0.33731(15) 0.21798(7)
C5 C 0.2267(2) 0.26456(14) 0.23268(7)
H3 H 0.2028 0.1953 0.2281
C6 C 0.36547(19) 0.29144(13) 0.25381(6)
H4 H 0.4363 0.2412 0.2638
C7 C -0.0317(2) 0.30783(19) 0.19714(9)
H5 H -0.0765 0.3633 0.1761
H6 H -0.0912 0.2932 0.2270
H7 H -0.0269 0.2479 0.1747
C8 C 0.6178(2) 0.65036(14) 0.38293(8)
H8 H 0.6942 0.6067 0.3701
H9 H 0.6278 0.6529 0.4218
H10 H 0.6282 0.7183 0.3686
C9 C 0.46907(19) 0.60919(13) 0.36490(7)
C10 C 0.43822(17) 0.49919(12) 0.37610(6)
H11 H 0.3389 0.4813 0.3595
C11 C 0.4374(2) 0.48808(13) 0.43640(7)
H12 H 0.5320 0.5133 0.4530
H13 H 0.3583 0.5309 0.4491
C12 C 0.53274(17) 0.32520(13) 0.43780(6)
H14 H 0.6291 0.3526 0.4527
C13 C 0.52953(18) 0.32384(12) 0.37781(6)
H15 H 0.6089 0.2797 0.3665
H16 H 0.4345 0.2961 0.3631
C14 C 0.5097(2) 0.22150(14) 0.46022(7)
H17 H 0.4157 0.1943 0.4453
H18 H 0.5086 0.2257 0.4989
H19 H 0.5897 0.1771 0.4510
C15 C 0.3613(2) 0.66670(15) 0.34455(8)
H20 H 0.3761 0.7371 0.3408
H21 H 0.2688 0.6377 0.3336
S2 S -0.08551(4) 0.13990(3) 0.40581(2)
N2 N -0.05347(14) 0.25984(10) 0.42087(5)
O4 O -0.17001(14) 0.13993(9) 0.35570(5)
O5 O -0.14570(12) 0.09368(9) 0.45049(5)
O6 O 0.07855(13) 0.45428(9) 0.42961(5)
C16 C 0.1579(2) 0.10007(13) 0.35140(7)
H22 H 0.1120 0.1390 0.3233
C17 C 0.2960(2) 0.05934(14) 0.34684(7)
H23 H 0.3445 0.0706 0.3153
C18 C 0.36548(19) 0.00217(13) 0.38747(7)
C19 C 0.2912(2) -0.01459(13) 0.43298(7)
H24 H 0.3363 -0.0542 0.4609
C20 C 0.15278(19) 0.02534(12) 0.43834(7)
H25 H 0.1035 0.0131 0.4696
C21 C 0.5179(2) -0.03959(17) 0.38297(9)
H26 H 0.5175 -0.0847 0.3522
H27 H 0.5485 -0.0771 0.4153
H28 H 0.5867 0.0159 0.3784
C22 C -0.03055(18) 0.32457(12) 0.37410(6)
H29 H -0.1073 0.3102 0.3454
H30 H 0.0664 0.3098 0.3606
C23 C -0.03769(18) 0.43383(12) 0.38997(7)
H31 H -0.1343 0.4474 0.4049
C24 C -0.0189(2) 0.50420(14) 0.34399(8)
H32 H 0.0742 0.4895 0.3285
H33 H -0.0181 0.5740 0.3566
H34 H -0.1004 0.4949 0.3170
C25 C 0.0601(2) 0.39516(13) 0.47546(7)
H35 H -0.0333 0.4148 0.4903
H36 H 0.1408 0.4110 0.5025
C26 C 0.05806(17) 0.28135(12) 0.46590(6)
H37 H 0.1570 0.2596 0.4556
C27 C 0.02807(19) 0.23213(12) 0.51811(6)
C28 C -0.1166(2) 0.25370(14) 0.54122(7)
H38 H -0.1968 0.2454 0.5136
H39 H -0.1165 0.3229 0.5547
H40 H -0.1304 0.2068 0.5704
C29 C 0.08690(18) 0.08338(12) 0.39763(6)
C30 C 0.1327(2) 0.17908(14) 0.54413(8)
H41 H 0.1180 0.1533 0.5784
H42 H 0.2227 0.1668 0.5285
loop_
_geom_bond_atom_site_label_1
_geom_bond_atom_site_label_2
_geom_bond_site_symmetry_1
_geom_bond_site_symmetry_2
S1 O1 1_555 1_555
N1 S1 1_555 1_555
C1 S1 1_555 1_555
O2 S1 1_555 1_555
C2 C1 1_555 1_555
H1 C2 1_555 1_555
C3 C2 1_555 1_555
H2 C3 1_555 1_555
O3 C11 1_555 1_555
C4 C3 1_555 1_555
C5 C4 1_555 1_555
H3 C5 1_555 1_555
C6 C1 1_555 1_555
H4 C6 1_555 1_555
C7 C4 1_555 1_555
H5 C7 1_555 1_555
H6 C7 1_555 1_555
H7 C7 1_555 1_555
C8 H8 1_555 1_555
H9 C8 1_555 1_555
H10 C8 1_555 1_555
C9 C8 1_555 1_555
C10 N1 1_555 1_555
H11 C10 1_555 1_555
C11 C10 1_555 1_555
H12 C11 1_555 1_555
H13 C11 1_555 1_555
C12 O3 1_555 1_555
H14 C12 1_555 1_555
C13 N1 1_555 1_555
H15 C13 1_555 1_555
H16 C13 1_555 1_555
C14 C12 1_555 1_555
H17 C14 1_555 1_555
H18 C14 1_555 1_555
H19 C14 1_555 1_555
C15 C9 1_555 1_555
H20 C15 1_555 1_555
H21 C15 1_555 1_555
S2 N2 1_555 1_555
N2 C22 1_555 1_555
O4 S2 1_555 1_555
O5 S2 1_555 1_555
O6 C23 1_555 1_555
C16 H22 1_555 1_555
C17 C16 1_555 1_555
H23 C17 1_555 1_555
C18 C17 1_555 1_555
C19 C18 1_555 1_555
H24 C19 1_555 1_555
C20 C19 1_555 1_555
H25 C20 1_555 1_555
C21 C18 1_555 1_555
H26 C21 1_555 1_555
H27 C21 1_555 1_555
H28 C21 1_555 1_555
C22 H29 1_555 1_555
H30 C22 1_555 1_555
C23 C22 1_555 1_555
H31 C23 1_555 1_555
C24 C23 1_555 1_555
H32 C24 1_555 1_555
H33 C24 1_555 1_555
H34 C24 1_555 1_555
C25 O6 1_555 1_555
H35 C25 1_555 1_555
H36 C25 1_555 1_555
C26 N2 1_555 1_555
H37 C26 1_555 1_555
C27 C26 1_555 1_555
C28 C27 1_555 1_555
H38 C28 1_555 1_555
H39 C28 1_555 1_555
H40 C28 1_555 1_555
C29 S2 1_555 1_555
C30 C27 1_555 1_555
H41 C30 1_555 1_555
H42 C30 1_555 1_555
C5 C6 1_555 1_555
C9 C10 1_555 1_555
C12 C13 1_555 1_555
C16 C29 1_555 1_555
C20 C29 1_555 1_555
C25 C26 1_555 1_555

#END
