
#######################################################################
#
#                 Cambridge Crystallographic Data Centre
#                                CCDC 
#
#######################################################################
#
# If this CIF has been generated from an entry in the Cambridge 
# Structural Database, then it will include bibliographic, chemical, 
# crystal, experimental, refinement or atomic coordinate data resulting 
# from the CCDC's data processing and validation procedures.
#
#######################################################################

data_JILREE
_chemical_formula_moiety         'C26 H18 N2 O7'
_chemical_name_systematic        
'methyl 4-{2-[(4-nitrobenzoyl)oxy]benzoyl}-3-phenyl-1H-pyrrole-2-carboxylate'
_symmetry_cell_setting           triclinic
_symmetry_space_group_name_H-M   'P -1'
_symmetry_Int_Tables_number      2
_space_group_name_Hall           '-P 1'
loop_
_symmetry_equiv_pos_site_id
_symmetry_equiv_pos_as_xyz
1 x,y,z
2 -x,-y,-z
_cell_length_a                   7.4307(5)
_cell_length_b                   10.8091(7)
_cell_length_c                   14.3220(8)
_cell_angle_alpha                88.506(5)
_cell_angle_beta                 89.846(5)
_cell_angle_gamma                83.022(5)
_cell_volume                     1141.42
_exptl_crystal_colour            colorless
_exptl_crystal_description       Block
_cell_formula_units_Z            2
loop_
_atom_site_label
_atom_site_type_symbol
_atom_site_fract_x
_atom_site_fract_y
_atom_site_fract_z
O1 O 0.13065(18) 0.91415(13) 0.69841(9)
O2 O 0.3519(2) 0.42718(14) 0.74216(10)
O3 O 0.2576(2) 1.04877(14) 0.60308(10)
O4 O 0.6448(2) 0.97293(16) 0.73775(12)
N1 N 0.5300(2) 0.65468(16) 0.59539(12)
H1 H 0.5535 0.6193 0.5429
O5 O 0.4189(3) 0.41885(16) 0.59107(12)
O6 O 0.0569(3) 0.5124(2) 0.34825(14)
C1 C 0.5070(3) 0.79452(18) 0.70589(13)
N2 N 0.1213(3) 0.6077(2) 0.32841(15)
C2 C 0.4273(3) 0.68898(18) 0.74029(13)
C3 C 0.3569(3) 0.97298(17) 0.80526(13)
C4 C 0.1771(3) 0.97523(18) 0.77868(13)
C5 C 0.4453(3) 0.60323(18) 0.67006(13)
O7 O 0.1824(4) 0.6313(2) 0.25224(14)
C6 C 0.1552(3) 0.86771(19) 0.53963(13)
C7 C 0.5699(3) 0.7676(2) 0.61674(15)
H2 H 0.6301 0.8196 0.5781
C8 C 0.3498(3) 0.67258(18) 0.83461(14)
C9 C 0.3903(3) 1.0342(2) 0.88679(14)
H3 H 0.5093 1.0374 0.9055
C10 C 0.1870(3) 0.95579(19) 0.61419(14)
C11 C 0.5143(3) 0.91551(19) 0.74916(14)
C12 C 0.1270(3) 0.7019(2) 0.40135(14)
C13 C 0.4045(3) 0.4757(2) 0.66249(14)
C14 C 0.0624(3) 0.7656(2) 0.55607(15)
H4 H 0.0101 0.7534 0.6141
C15 C 0.2147(3) 0.8036(2) 0.38220(15)
H5 H 0.2637 0.8162 0.3234
C16 C 0.0365(3) 1.0316(2) 0.83071(16)
H6 H -0.0827 1.0314 0.8112
C17 C 0.0478(3) 0.6821(2) 0.48622(15)
H7 H -0.0147 0.6135 0.4964
C18 C 0.2288(3) 0.8874(2) 0.45216(15)
H8 H 0.2879 0.9573 0.4406
C19 C 0.2498(4) 1.0901(2) 0.94022(16)
H9 H 0.2746 1.1289 0.9951
C20 C 0.0741(4) 1.0884(2) 0.91243(16)
H10 H -0.0203 1.1257 0.9487
C21 C 0.1716(4) 0.6496(2) 0.84667(17)
H11 H 0.0973 0.6466 0.7948
C22 C 0.3167(4) 0.2988(2) 0.74183(19)
H12 H 0.2638 0.2820 0.6831
H13 H 0.2344 0.2839 0.7915
H14 H 0.4284 0.2450 0.7506
C23 C 0.4566(4) 0.6780(2) 0.91274(16)
H15 H 0.5759 0.6947 0.9062
C24 C 0.1033(5) 0.6310(3) 0.9353(2)
H16 H -0.0166 0.6161 0.9428
C25 C 0.2110(7) 0.6346(3) 1.0114(2)
H17 H 0.1652 0.6206 1.0707
C26 C 0.3858(7) 0.6587(3) 1.0012(2)
H18 H 0.4583 0.6622 1.0536
loop_
_geom_bond_atom_site_label_1
_geom_bond_atom_site_label_2
_geom_bond_site_symmetry_1
_geom_bond_site_symmetry_2
O1 C4 1_555 1_555
O2 C13 1_555 1_555
O3 C10 1_555 1_555
O4 C11 1_555 1_555
N1 H1 1_555 1_555
O5 C13 1_555 1_555
O6 N2 1_555 1_555
C1 C2 1_555 1_555
N2 O7 1_555 1_555
C2 C5 1_555 1_555
C3 C4 1_555 1_555
C4 C16 1_555 1_555
C5 N1 1_555 1_555
C6 C10 1_555 1_555
C7 N1 1_555 1_555
H2 C7 1_555 1_555
C8 C2 1_555 1_555
C9 C3 1_555 1_555
H3 C9 1_555 1_555
C10 O1 1_555 1_555
C11 C1 1_555 1_555
C12 N2 1_555 1_555
C13 C5 1_555 1_555
C14 C6 1_555 1_555
H4 C14 1_555 1_555
C15 C12 1_555 1_555
H5 C15 1_555 1_555
C16 H6 1_555 1_555
C17 C12 1_555 1_555
H7 C17 1_555 1_555
C18 C6 1_555 1_555
H8 C18 1_555 1_555
C19 C9 1_555 1_555
H9 C19 1_555 1_555
C20 C16 1_555 1_555
H10 C20 1_555 1_555
C21 C8 1_555 1_555
H11 C21 1_555 1_555
C22 O2 1_555 1_555
H12 C22 1_555 1_555
H13 C22 1_555 1_555
H14 C22 1_555 1_555
C23 C8 1_555 1_555
H15 C23 1_555 1_555
C24 C21 1_555 1_555
H16 C24 1_555 1_555
C25 C24 1_555 1_555
H17 C25 1_555 1_555
C26 C23 1_555 1_555
H18 C26 1_555 1_555
C1 C7 1_555 1_555
C3 C11 1_555 1_555
C14 C17 1_555 1_555
C15 C18 1_555 1_555
C19 C20 1_555 1_555
C25 C26 1_555 1_555

#END
