
#######################################################################
#
#                 Cambridge Crystallographic Data Centre
#                                CCDC 
#
#######################################################################
#
# If this CIF has been generated from an entry in the Cambridge 
# Structural Database, then it will include bibliographic, chemical, 
# crystal, experimental, refinement or atomic coordinate data resulting 
# from the CCDC's data processing and validation procedures.
#
#######################################################################

data_JILSOP
_chemical_formula_moiety         'C13 H15 N1 O4 S1'
_chemical_name_systematic        
6-ethenyl-4-[(4-methylphenyl)sulfonyl]morpholin-2-one
_symmetry_cell_setting           monoclinic
_symmetry_space_group_name_H-M   'P 21'
_symmetry_Int_Tables_number      4
_space_group_name_Hall           'P 2yb'
loop_
_symmetry_equiv_pos_site_id
_symmetry_equiv_pos_as_xyz
1 x,y,z
2 -x,1/2+y,-z
_cell_length_a                   10.8106(10)
_cell_length_b                   5.4540(5)
_cell_length_c                   11.7245(10)
_cell_angle_alpha                90
_cell_angle_beta                 104.012(5)
_cell_angle_gamma                90
_cell_volume                     670.719
_exptl_crystal_colour            colorless
_exptl_crystal_description       block
_cell_formula_units_Z            2
loop_
_atom_site_label
_atom_site_type_symbol
_atom_site_fract_x
_atom_site_fract_y
_atom_site_fract_z
S1 S 0.43161(13) 0.7388(3) 0.69824(12)
C1 C 0.5568(6) 0.5532(12) 0.7743(5)
N1 N 0.3066(5) 0.5646(10) 0.6585(4)
O1 O 0.4604(4) 0.8218(8) 0.5920(4)
O2 O 0.4018(5) 0.9113(9) 0.7789(4)
C2 C 0.6147(6) 0.3943(14) 0.7134(5)
H1 H 0.5889 0.3878 0.6309
O3 O 0.1103(5) 0.1802(11) 0.7942(4)
C3 C 0.7541(5) 0.2520(17) 0.8943(5)
O4 O 0.1161(4) 0.2006(13) 0.6098(4)
C4 C 0.7113(5) 0.2431(19) 0.7735(5)
H2 H 0.7488 0.1312 0.7310
C5 C 0.3004(6) 0.3933(14) 0.5627(5)
H3 H 0.3519 0.2478 0.5910
H4 H 0.3337 0.4700 0.5007
C6 C 0.8609(7) 0.093(2) 0.9577(7)
H5 H 0.8270 -0.0405 0.9958
H6 H 0.9196 0.1890 1.0164
H7 H 0.9054 0.0262 0.9020
C7 C 0.5961(7) 0.5627(15) 0.8956(5)
H8 H 0.5554 0.6688 0.9381
C8 C 0.6942(7) 0.4177(17) 0.9533(6)
H9 H 0.7221 0.4303 1.0355
C9 C 0.1635(6) 0.3219(15) 0.5154(6)
H10 H 0.1121 0.4705 0.4886
C10 C 0.1425(7) 0.1422(17) 0.4194(6)
H11 H 0.1769 -0.0158 0.4361
C11 C 0.0784(6) 0.1894(18) 0.3117(6)
H12 H 0.0429 0.3457 0.2924
H13 H 0.0680 0.0669 0.2537
C12 C 0.1575(6) 0.2675(17) 0.7218(6)
C13 C 0.2608(6) 0.4567(14) 0.7559(6)
H14 H 0.2293 0.5895 0.7976
H15 H 0.3336 0.3815 0.8113
loop_
_geom_bond_atom_site_label_1
_geom_bond_atom_site_label_2
_geom_bond_site_symmetry_1
_geom_bond_site_symmetry_2
S1 C1 1_555 1_555
C1 C2 1_555 1_555
N1 S1 1_555 1_555
O1 S1 1_555 1_555
O2 S1 1_555 1_555
C2 H1 1_555 1_555
O3 C12 1_555 1_555
C3 C4 1_555 1_555
O4 C9 1_555 1_555
C4 C2 1_555 1_555
H2 C4 1_555 1_555
C5 N1 1_555 1_555
H3 C5 1_555 1_555
H4 C5 1_555 1_555
C6 C3 1_555 1_555
H5 C6 1_555 1_555
H6 C6 1_555 1_555
H7 C6 1_555 1_555
C7 C1 1_555 1_555
H8 C7 1_555 1_555
C8 C3 1_555 1_555
H9 C8 1_555 1_555
C9 C5 1_555 1_555
H10 C9 1_555 1_555
C10 C9 1_555 1_555
H11 C10 1_555 1_555
C11 C10 1_555 1_555
H12 C11 1_555 1_555
H13 C11 1_555 1_555
C12 O4 1_555 1_555
C13 N1 1_555 1_555
H14 C13 1_555 1_555
H15 C13 1_555 1_555
C7 C8 1_555 1_555
C12 C13 1_555 1_555

#END
