
#######################################################################
#
#                 Cambridge Crystallographic Data Centre
#                                CCDC 
#
#######################################################################
#
# If this CIF has been generated from an entry in the Cambridge 
# Structural Database, then it will include bibliographic, chemical, 
# crystal, experimental, refinement or atomic coordinate data resulting 
# from the CCDC's data processing and validation procedures.
#
#######################################################################

data_JILWOT
_chemical_formula_moiety         'C24 H23 N1 O2'
_chemical_name_systematic        
3-(5-t-butyl-2-hydroxyphenyl)-3-phenyl-1,3-dihydro-2H-indol-2-one
_symmetry_cell_setting           orthorhombic
_symmetry_space_group_name_H-M   'P 21 21 21'
_symmetry_Int_Tables_number      19
_space_group_name_Hall           'P 2ac 2ab'
loop_
_symmetry_equiv_pos_site_id
_symmetry_equiv_pos_as_xyz
1 x,y,z
2 1/2-x,-y,1/2+z
3 -x,1/2+y,1/2-z
4 1/2+x,1/2-y,-z
_cell_length_a                   8.6057(6)
_cell_length_b                   11.5407(8)
_cell_length_c                   18.9819(12)
_cell_angle_alpha                90
_cell_angle_beta                 90
_cell_angle_gamma                90
_cell_volume                     1885.2
_exptl_crystal_colour            colorless
_exptl_crystal_description       cube
_cell_formula_units_Z            4
loop_
_atom_site_label
_atom_site_type_symbol
_atom_site_fract_x
_atom_site_fract_y
_atom_site_fract_z
O1 O 0.8597(2) 0.42430(14) 0.27455(8)
H1 H 0.8639 0.4905 0.2589
O2 O 0.9105(2) 0.63522(15) 0.24223(8)
N1 N 0.9509(3) 0.78576(18) 0.31783(10)
H2 H 1.0138 0.8249 0.2919
C1 C 0.8861(3) 0.4263(2) 0.34618(11)
C2 C 0.6186(3) 0.6212(2) 0.33537(11)
C3 C 0.8003(3) 0.7381(2) 0.41227(12)
C4 C 0.7881(3) 0.63637(19) 0.36088(11)
C5 C 0.8893(3) 0.6832(2) 0.29938(12)
C6 C 0.5384(3) 0.5170(2) 0.34070(13)
H3 H 0.5871 0.4525 0.3600
C7 C 0.8580(3) 0.5225(2) 0.38938(12)
C8 C 0.9332(3) 0.4058(2) 0.49206(12)
C9 C 0.8852(3) 0.5095(2) 0.46166(12)
H4 H 0.8705 0.5734 0.4908
C10 C 0.8998(3) 0.8211(2) 0.38483(12)
C11 C 0.7286(3) 0.7588(2) 0.47638(12)
H5 H 0.6572 0.7063 0.4946
C12 C 0.5426(3) 0.7167(2) 0.30636(13)
H6 H 0.5951 0.7868 0.3020
C13 C 0.9360(3) 0.3227(2) 0.37537(12)
H7 H 0.9551 0.2594 0.3463
C14 C 0.9577(3) 0.3126(2) 0.44704(13)
H8 H 0.9894 0.2419 0.4657
C15 C 0.9523(3) 0.3903(2) 0.57180(13)
C16 C 0.9359(3) 0.9229(2) 0.41961(14)
H9 H 1.0023 0.9778 0.4000
C17 C 0.7652(3) 0.8595(2) 0.51317(13)
H10 H 0.7200 0.8731 0.5569
C18 C 0.8679(4) 0.9392(2) 0.48550(14)
H11 H 0.8922 1.0052 0.5114
C19 C 0.3853(3) 0.5089(3) 0.31729(14)
H12 H 0.3326 0.4388 0.3209
C20 C 0.3115(3) 0.6042(3) 0.28882(14)
H13 H 0.2095 0.5983 0.2730
C21 C 1.1072(3) 0.3312(3) 0.58773(14)
H14 H 1.1091 0.2560 0.5661
H15 H 1.1192 0.3231 0.6378
H16 H 1.1907 0.3773 0.5693
C22 C 0.3897(3) 0.7083(3) 0.28387(14)
H17 H 0.3397 0.7730 0.2654
C23 C 0.9479(4) 0.5050(2) 0.61166(14)
H18 H 1.0274 0.5555 0.5938
H19 H 0.9655 0.4911 0.6609
H20 H 0.8481 0.5408 0.6054
C24 C 0.8202(3) 0.3134(3) 0.59882(14)
H21 H 0.7224 0.3507 0.5901
H22 H 0.8325 0.3011 0.6485
H23 H 0.8228 0.2402 0.5748
loop_
_geom_bond_atom_site_label_1
_geom_bond_atom_site_label_2
_geom_bond_site_symmetry_1
_geom_bond_site_symmetry_2
O1 H1 1_555 1_555
O2 C5 1_555 1_555
N1 H2 1_555 1_555
C1 O1 1_555 1_555
C2 C4 1_555 1_555
C3 C4 1_555 1_555
C4 C5 1_555 1_555
C5 N1 1_555 1_555
C6 C2 1_555 1_555
H3 C6 1_555 1_555
C7 C1 1_555 1_555
C8 C9 1_555 1_555
C9 C7 1_555 1_555
H4 C9 1_555 1_555
C10 N1 1_555 1_555
C11 C3 1_555 1_555
H5 C11 1_555 1_555
C12 C2 1_555 1_555
H6 C12 1_555 1_555
C13 C1 1_555 1_555
H7 C13 1_555 1_555
C14 C8 1_555 1_555
H8 C14 1_555 1_555
C15 C8 1_555 1_555
C16 C10 1_555 1_555
H9 C16 1_555 1_555
C17 C11 1_555 1_555
H10 C17 1_555 1_555
C18 C16 1_555 1_555
H11 C18 1_555 1_555
C19 C6 1_555 1_555
H12 C19 1_555 1_555
C20 C19 1_555 1_555
H13 C20 1_555 1_555
C21 C15 1_555 1_555
H14 C21 1_555 1_555
H15 C21 1_555 1_555
H16 C21 1_555 1_555
C22 C12 1_555 1_555
H17 C22 1_555 1_555
C23 C15 1_555 1_555
H18 C23 1_555 1_555
H19 C23 1_555 1_555
H20 C23 1_555 1_555
C24 C15 1_555 1_555
H21 C24 1_555 1_555
H22 C24 1_555 1_555
H23 C24 1_555 1_555
C3 C10 1_555 1_555
C4 C7 1_555 1_555
C13 C14 1_555 1_555
C17 C18 1_555 1_555
C20 C22 1_555 1_555

#END
