
#######################################################################
#
#                 Cambridge Crystallographic Data Centre
#                                CCDC 
#
#######################################################################
#
# If this CIF has been generated from an entry in the Cambridge 
# Structural Database, then it will include bibliographic, chemical, 
# crystal, experimental, refinement or atomic coordinate data resulting 
# from the CCDC's data processing and validation procedures.
#
#######################################################################

data_JILZUA
_chemical_formula_moiety         'C38 H18 F12 N4'
_chemical_name_systematic        
5,15-Diphenyl-2,20:10,12-bis(hexafluoropropanediyl)porphyrin
_symmetry_cell_setting           monoclinic
_symmetry_space_group_name_H-M   'P 21/c'
_symmetry_Int_Tables_number      14
_space_group_name_Hall           '-P 2ybc'
loop_
_symmetry_equiv_pos_site_id
_symmetry_equiv_pos_as_xyz
1 x,y,z
2 -x,1/2+y,1/2-z
3 -x,-y,-z
4 x,1/2-y,1/2+z
_cell_length_a                   14.531(2)
_cell_length_b                   10.9219(18)
_cell_length_c                   10.1624(17)
_cell_angle_alpha                90
_cell_angle_beta                 95.964(4)
_cell_angle_gamma                90
_cell_volume                     1604.11
_exptl_crystal_colour            black
_exptl_crystal_description       prismatic
_cell_formula_units_Z            2
loop_
_atom_site_label
_atom_site_type_symbol
_atom_site_fract_x
_atom_site_fract_y
_atom_site_fract_z
F1 F 0.1384(2) 0.7902(3) 0.4199(3)
F2 F 0.07636(18) 0.6513(4) 0.5294(2)
F3 F 0.25845(16) 0.6842(3) 0.5902(2)
F4 F 0.21167(18) 0.4986(3) 0.5244(3)
F5 F 0.32025(19) 0.7263(2) 0.3618(3)
F6 F 0.36840(14) 0.5507(2) 0.4315(2)
N1 N 0.12479(14) 0.50374(19) 0.1051(2)
N2 N 0.05633(16) 0.4101(2) -0.1565(3)
C1 C 0.14690(19) 0.5567(3) 0.2248(3)
C2 C 0.2462(2) 0.5514(3) 0.2614(3)
C3 C 0.2832(2) 0.4953(3) 0.1628(3)
H1 H 0.3455 0.4785 0.1580
C4 C 0.20693(18) 0.4659(2) 0.0649(3)
C5 C 0.21848(18) 0.4054(3) -0.0533(3)
C6 C 0.14801(19) 0.3763(3) -0.1518(3)
C7 C 0.1560(2) 0.3051(3) -0.2665(4)
H2 H 0.2100 0.2687 -0.2891
C8 C 0.0729(2) 0.2988(3) -0.3372(4)
H3 H 0.0596 0.2572 -0.4167
C9 C -0.0080(2) 0.6330(3) 0.2694(3)
C10 C 0.0866(2) 0.6148(3) 0.3043(3)
C11 C 0.1294(2) 0.6681(4) 0.4308(4)
C12 C 0.2237(3) 0.6200(5) 0.4822(4)
C13 C 0.2907(2) 0.6074(3) 0.3841(4)
C14 C 0.3141(2) 0.3716(3) -0.0818(3)
C15 C 0.3594(3) 0.2711(4) -0.0272(5)
H4 H 0.3302 0.2214 0.0301
C16 C 0.4484(3) 0.2420(4) -0.0558(6)
H5 H 0.4779 0.1730 -0.0181
C17 C 0.4919(3) 0.3134(5) -0.1380(5)
H6 H 0.5515 0.2943 -0.1569
C18 C 0.4474(3) 0.4142(5) -0.1934(5)
H7 H 0.4773 0.4637 -0.2501
C19 C 0.3600(2) 0.4435(4) -0.1668(4)
H8 H 0.3309 0.5122 -0.2059
H9 H 0.0331(19) 0.454(2) -0.098(3)
F1B F -0.1384(2) 0.2098(3) -0.4199(3)
F2B F -0.07636(18) 0.3487(4) -0.5294(2)
F3B F -0.25845(16) 0.3158(3) -0.5902(2)
F4B F -0.21167(18) 0.5014(3) -0.5244(3)
F5B F -0.32025(19) 0.2737(2) -0.3618(3)
F6B F -0.36840(14) 0.4493(2) -0.4315(2)
N1B N -0.12479(14) 0.49626(19) -0.1051(2)
N2B N -0.05633(16) 0.5899(2) 0.1565(3)
C1B C -0.14690(19) 0.4433(3) -0.2248(3)
C2B C -0.2462(2) 0.4486(3) -0.2614(3)
C3B C -0.2832(2) 0.5047(3) -0.1628(3)
H1B H -0.3455 0.5215 -0.1580
C4B C -0.20693(18) 0.5341(2) -0.0649(3)
C5B C -0.21848(18) 0.5946(3) 0.0533(3)
C6B C -0.14801(19) 0.6237(3) 0.1518(3)
C7B C -0.1560(2) 0.6949(3) 0.2665(4)
H2B H -0.2100 0.7313 0.2891
C8B C -0.0729(2) 0.7012(3) 0.3372(4)
H3B H -0.0596 0.7428 0.4167
C9B C 0.0080(2) 0.3670(3) -0.2694(3)
C10B C -0.0866(2) 0.3852(3) -0.3043(3)
C11B C -0.1294(2) 0.3319(4) -0.4308(4)
C12B C -0.2237(3) 0.3800(5) -0.4822(4)
C13B C -0.2907(2) 0.3926(3) -0.3841(4)
C14B C -0.3141(2) 0.6284(3) 0.0818(3)
C15B C -0.3594(3) 0.7289(4) 0.0272(5)
H4B H -0.3302 0.7786 -0.0301
C16B C -0.4484(3) 0.7580(4) 0.0558(6)
H5B H -0.4779 0.8270 0.0181
C17B C -0.4919(3) 0.6866(5) 0.1380(5)
H6B H -0.5515 0.7057 0.1569
C18B C -0.4474(3) 0.5858(5) 0.1934(5)
H7B H -0.4773 0.5363 0.2501
C19B C -0.3600(2) 0.5565(4) 0.1668(4)
H8B H -0.3309 0.4878 0.2059
H9B H -0.0331(19) 0.546(2) 0.098(3)
loop_
_geom_bond_atom_site_label_1
_geom_bond_atom_site_label_2
_geom_bond_site_symmetry_1
_geom_bond_site_symmetry_2
F1 C11 1_555 1_555
F2 C11 1_555 1_555
F3 C12 1_555 1_555
F4 C12 1_555 1_555
F5 C13 1_555 1_555
F6 C13 1_555 1_555
N1 C1 1_555 1_555
N2 C6 1_555 1_555
C1 C2 1_555 1_555
C2 C3 1_555 1_555
C3 H1 1_555 1_555
C4 N1 1_555 1_555
C5 C4 1_555 1_555
C6 C5 1_555 1_555
C7 C6 1_555 1_555
H2 C7 1_555 1_555
C8 C7 1_555 1_555
H3 C8 1_555 1_555
C9 C10 1_555 1_555
C10 C1 1_555 1_555
C11 C10 1_555 1_555
C12 C11 1_555 1_555
C13 C2 1_555 1_555
C14 C5 1_555 1_555
C15 C14 1_555 1_555
H4 C15 1_555 1_555
C16 C15 1_555 1_555
H5 C16 1_555 1_555
C17 C16 1_555 1_555
H6 C17 1_555 1_555
C18 C17 1_555 1_555
H7 C18 1_555 1_555
C19 C14 1_555 1_555
H8 C19 1_555 1_555
H9 N2 1_555 1_555
F1B C11B 1_555 1_555
F2B C11B 1_555 1_555
F3B C12B 1_555 1_555
F4B C12B 1_555 1_555
F5B C13B 1_555 1_555
F6B C13B 1_555 1_555
N1B C1B 1_555 1_555
N2B C9 1_555 1_555
C1B C2B 1_555 1_555
C2B C3B 1_555 1_555
C3B H1B 1_555 1_555
C4B N1B 1_555 1_555
C5B C4B 1_555 1_555
C6B N2B 1_555 1_555
C7B C6B 1_555 1_555
H2B C7B 1_555 1_555
C8B C9 1_555 1_555
H3B C8B 1_555 1_555
C9B N2 1_555 1_555
C10B C1B 1_555 1_555
C11B C10B 1_555 1_555
C12B C11B 1_555 1_555
C13B C2B 1_555 1_555
C14B C5B 1_555 1_555
C15B C14B 1_555 1_555
H4B C15B 1_555 1_555
C16B C15B 1_555 1_555
H5B C16B 1_555 1_555
C17B C16B 1_555 1_555
H6B C17B 1_555 1_555
C18B C17B 1_555 1_555
H7B C18B 1_555 1_555
C19B C14B 1_555 1_555
H8B C19B 1_555 1_555
H9B N2B 1_555 1_555
C3 C4 1_555 1_555
C8 C9B 1_555 1_555
C12 C13 1_555 1_555
C18 C19 1_555 1_555
C3B C4B 1_555 1_555
C5B C6B 1_555 1_555
C7B C8B 1_555 1_555
C9B C10B 1_555 1_555
C12B C13B 1_555 1_555
C18B C19B 1_555 1_555

#END
