
#######################################################################
#
#                 Cambridge Crystallographic Data Centre
#                                CCDC 
#
#######################################################################
#
# If this CIF has been generated from an entry in the Cambridge 
# Structural Database, then it will include bibliographic, chemical, 
# crystal, experimental, refinement or atomic coordinate data resulting 
# from the CCDC's data processing and validation procedures.
#
#######################################################################

data_JILZOU01
_chemical_formula_moiety         'C8 H8 O3,C6 H6 N2 O1'
_chemical_name_systematic        'Hydroxy(phenyl)acetic acid nicotinamide'
_symmetry_cell_setting           monoclinic
_symmetry_space_group_name_H-M   'P 21'
_symmetry_Int_Tables_number      4
_space_group_name_Hall           'P 2yb'
loop_
_symmetry_equiv_pos_site_id
_symmetry_equiv_pos_as_xyz
1 x,y,z
2 -x,1/2+y,-z
_cell_length_a                   5.2406(3)
_cell_length_b                   10.0477(6)
_cell_length_c                   12.6006(7)
_cell_angle_alpha                90
_cell_angle_beta                 95.678(4)
_cell_angle_gamma                90
_cell_volume                     660.242
_exptl_crystal_colour            colorless
_exptl_crystal_description       block
_cell_formula_units_Z            2
loop_
_atom_site_label
_atom_site_type_symbol
_atom_site_fract_x
_atom_site_fract_y
_atom_site_fract_z
O1 O 0.2081(5) 0.4587(3) 0.5454(2)
N1 N 0.2106(6) 0.2357(3) 0.5223(2)
H1 H 0.1124 0.2221 0.5741
H2 H 0.2646 0.1678 0.4866
N2 N 0.5641(6) 0.5243(3) 0.2736(2)
C1 C 0.2773(7) 0.3588(4) 0.4983(3)
C2 C 0.4465(7) 0.3754(3) 0.4097(3)
C3 C 0.4226(7) 0.4946(4) 0.3528(3)
H3 H 0.2995 0.5577 0.3713
C4 C 0.7377(7) 0.4343(4) 0.2488(3)
H4 H 0.8393 0.4539 0.1923
C5 C 0.7757(7) 0.3137(4) 0.3018(3)
H5 H 0.9030 0.2533 0.2828
C6 C 0.6253(7) 0.2826(4) 0.3829(3)
H6 H 0.6443 0.1998 0.4193
O2 O 0.8192(5) 0.2755(3) 0.6779(2)
O3 O 0.4861(5) 0.2833(3) 0.7762(2)
H7 H 0.4804 0.2011 0.7641
O4 O 0.8132(5) 0.5426(3) 0.6517(2)
H8 H 0.9188 0.4860 0.6338
C7 C 0.6671(7) 0.3375(4) 0.7255(3)
C8 C 0.6728(7) 0.4884(4) 0.7317(3)
H9 H 0.4923 0.5212 0.7187
C9 C 0.7803(7) 0.5349(4) 0.8424(3)
C10 C 1.0115(8) 0.4864(4) 0.8902(3)
H10 H 1.1029 0.4216 0.8542
C11 C 1.1110(8) 0.5314(4) 0.9900(3)
H11 H 1.2670 0.4957 1.0229
C12 C 0.9806(9) 0.6297(4) 1.0417(3)
H12 H 1.0497 0.6634 1.1089
C13 C 0.7517(9) 0.6770(4) 0.9942(3)
H13 H 0.6610 0.7423 1.0300
C14 C 0.6501(8) 0.6314(4) 0.8954(3)
H14 H 0.4918 0.6659 0.8637
loop_
_geom_bond_atom_site_label_1
_geom_bond_atom_site_label_2
_geom_bond_site_symmetry_1
_geom_bond_site_symmetry_2
O1 C1 1_555 1_555
N1 H1 1_555 1_555
H2 N1 1_555 1_555
N2 C3 1_555 1_555
C1 N1 1_555 1_555
C2 C1 1_555 1_555
C3 C2 1_555 1_555
H3 C3 1_555 1_555
C4 N2 1_555 1_555
H4 C4 1_555 1_555
C5 C4 1_555 1_555
H5 C5 1_555 1_555
C6 C2 1_555 1_555
H6 C6 1_555 1_555
O2 C7 1_555 1_555
O3 H7 1_555 1_555
O4 H8 1_555 1_555
C7 O3 1_555 1_555
C8 O4 1_555 1_555
H9 C8 1_555 1_555
C9 C8 1_555 1_555
C10 C9 1_555 1_555
H10 C10 1_555 1_555
C11 C10 1_555 1_555
H11 C11 1_555 1_555
C12 C11 1_555 1_555
H12 C12 1_555 1_555
C13 C12 1_555 1_555
H13 C13 1_555 1_555
C14 C9 1_555 1_555
H14 C14 1_555 1_555
C5 C6 1_555 1_555
C7 C8 1_555 1_555
C13 C14 1_555 1_555

#END
