
#######################################################################
#
#                 Cambridge Crystallographic Data Centre
#                                CCDC 
#
#######################################################################
#
# If this CIF has been generated from an entry in the Cambridge 
# Structural Database, then it will include bibliographic, chemical, 
# crystal, experimental, refinement or atomic coordinate data resulting 
# from the CCDC's data processing and validation procedures.
#
#######################################################################

data_JIMBIT
_chemical_formula_moiety         'C25 H20 Br2 N2 O3'
_chemical_name_systematic        
1,3-bis(4-bromobenzoyl)-4-methyl-6-phenyltetrahydropyrimidin-2(1H)-one
_symmetry_cell_setting           monoclinic
_symmetry_space_group_name_H-M   'P 21'
_symmetry_Int_Tables_number      4
_space_group_name_Hall           'P 2yb'
loop_
_symmetry_equiv_pos_site_id
_symmetry_equiv_pos_as_xyz
1 x,y,z
2 -x,1/2+y,-z
_cell_length_a                   11.002(2)
_cell_length_b                   5.4756(10)
_cell_length_c                   19.064(4)
_cell_angle_alpha                90
_cell_angle_beta                 103.949(4)
_cell_angle_gamma                90
_cell_volume                     1114.6
_exptl_crystal_colour            colorless
_exptl_crystal_description       prismatic
_cell_formula_units_Z            2
loop_
_atom_site_label
_atom_site_type_symbol
_atom_site_fract_x
_atom_site_fract_y
_atom_site_fract_z
Br1 Br 0.38068(8) 0.31424(17) 0.55465(4)
Br2 Br 0.96127(7) 0.3458(2) 0.41650(4)
N1 N 0.2659(4) -0.1417(12) 0.2048(2)
N2 N 0.4531(4) -0.1335(11) 0.1655(2)
O1 O 0.4492(4) -0.2821(9) 0.2756(2)
O2 O 0.6160(5) -0.3431(11) 0.1409(3)
O3 O 0.1159(5) -0.3239(10) 0.2504(3)
C1 C 0.3937(5) -0.1895(15) 0.2191(3)
C2 C 0.3887(5) -0.1012(13) 0.0881(3)
H1 H 0.3818 -0.2594 0.0634
C3 C 0.2589(6) -0.0020(13) 0.0848(3)
H2 H 0.2665 0.1666 0.1009
H3 H 0.2112 -0.0031 0.0349
C4 C 0.1866(5) -0.1416(13) 0.1298(3)
H4 H 0.1751 -0.3103 0.1122
C5 C 0.0607(6) -0.0263(12) 0.1228(3)
C6 C -0.0418(6) -0.1205(14) 0.0750(4)
H5 H -0.0333 -0.2607 0.0490
C7 C -0.1581(7) -0.0099(16) 0.0649(4)
H6 H -0.2274 -0.0775 0.0330
C8 C -0.1705(7) 0.1996(15) 0.1020(4)
H7 H -0.2480 0.2764 0.0946
C9 C -0.0692(6) 0.2944(16) 0.1495(4)
H8 H -0.0780 0.4353 0.1751
C10 C 0.0467(6) 0.1841(14) 0.1602(4)
H9 H 0.1154 0.2513 0.1927
C11 C 0.4610(7) 0.0733(15) 0.0527(4)
H10 H 0.4693 0.2270 0.0776
H11 H 0.4173 0.0969 0.0032
H12 H 0.5426 0.0073 0.0548
C12 C 0.2070(5) -0.1957(14) 0.2622(3)
C13 C 0.2552(5) -0.0710(12) 0.3318(3)
C14 C 0.2268(5) -0.1679(16) 0.3934(3)
H13 H 0.1806 -0.3116 0.3898
C15 C 0.2655(6) -0.0558(14) 0.4595(4)
H14 H 0.2487 -0.1250 0.5007
C16 C 0.3291(6) 0.1586(15) 0.4634(4)
C17 C 0.3588(6) 0.2613(13) 0.4037(4)
H15 H 0.4032 0.4071 0.4078
C18 C 0.3223(6) 0.1469(13) 0.3386(4)
H16 H 0.3425 0.2151 0.2982
C19 C 0.5849(6) -0.1979(17) 0.1803(3)
C20 C 0.6699(6) -0.0677(13) 0.2390(3)
C21 C 0.6383(7) 0.1455(14) 0.2690(4)
H17 H 0.5573 0.2063 0.2536
C22 C 0.7240(6) 0.2697(15) 0.3212(4)
H18 H 0.7014 0.4132 0.3409
C23 C 0.8425(6) 0.1795(15) 0.3437(4)
C24 C 0.8783(7) -0.0288(17) 0.3145(4)
H19 H 0.9596 -0.0873 0.3302
C25 C 0.7924(6) -0.1505(18) 0.2618(3)
H20 H 0.8167 -0.2903 0.2411
loop_
_geom_bond_atom_site_label_1
_geom_bond_atom_site_label_2
_geom_bond_site_symmetry_1
_geom_bond_site_symmetry_2
Br1 C16 1_555 1_555
Br2 C23 1_555 1_555
N1 C1 1_555 1_555
N2 C1 1_555 1_555
O1 C1 1_555 1_555
O2 C19 1_555 1_555
O3 C12 1_555 1_555
C2 N2 1_555 1_555
H1 C2 1_555 1_555
C3 C2 1_555 1_555
H2 C3 1_555 1_555
H3 C3 1_555 1_555
C4 N1 1_555 1_555
H4 C4 1_555 1_555
C5 C4 1_555 1_555
C6 C5 1_555 1_555
H5 C6 1_555 1_555
C7 C6 1_555 1_555
H6 C7 1_555 1_555
C8 C7 1_555 1_555
H7 C8 1_555 1_555
C9 C8 1_555 1_555
H8 C9 1_555 1_555
C10 C5 1_555 1_555
H9 C10 1_555 1_555
C11 C2 1_555 1_555
H10 C11 1_555 1_555
H11 C11 1_555 1_555
H12 C11 1_555 1_555
C12 N1 1_555 1_555
C13 C12 1_555 1_555
C14 C13 1_555 1_555
H13 C14 1_555 1_555
C15 C14 1_555 1_555
H14 C15 1_555 1_555
C16 C15 1_555 1_555
C17 C16 1_555 1_555
H15 C17 1_555 1_555
C18 C13 1_555 1_555
H16 C18 1_555 1_555
C19 N2 1_555 1_555
C20 C19 1_555 1_555
C21 C20 1_555 1_555
H17 C21 1_555 1_555
C22 C21 1_555 1_555
H18 C22 1_555 1_555
C23 C22 1_555 1_555
C24 C23 1_555 1_555
H19 C24 1_555 1_555
C25 C20 1_555 1_555
H20 C25 1_555 1_555
C3 C4 1_555 1_555
C9 C10 1_555 1_555
C17 C18 1_555 1_555
C24 C25 1_555 1_555

#END
