
#######################################################################
#
#                 Cambridge Crystallographic Data Centre
#                                CCDC 
#
#######################################################################
#
# If this CIF has been generated from an entry in the Cambridge 
# Structural Database, then it will include bibliographic, chemical, 
# crystal, experimental, refinement or atomic coordinate data resulting 
# from the CCDC's data processing and validation procedures.
#
#######################################################################

data_JIMFOA
_chemical_formula_moiety         'C16 H20 Cl1 N3 S1'
_chemical_name_systematic        
(+)-(S)-4,5,6,7-Tetrahydro-9-chloro-5-methyl-6-(3-methyl-2-butenyl)imidazo(4,5,1-jk)(1,4)benzoazepine-2(1H)-thione
_chemical_properties_biological  
'possible inhibitory agent for reverse transcriptase of HIV-1'
_symmetry_cell_setting           monoclinic
_symmetry_space_group_name_H-M   'C 2'
_symmetry_Int_Tables_number      5
_space_group_name_Hall           'C 2y'
loop_
_symmetry_equiv_pos_site_id
_symmetry_equiv_pos_as_xyz
1 x,y,z
2 1/2+x,1/2+y,z
3 -x,y,-z
4 1/2-x,1/2+y,-z
_cell_length_a                   30.938(6)
_cell_length_b                   10.653(3)
_cell_length_c                   9.880(5)
_cell_angle_alpha                90
_cell_angle_beta                 93.22(3)
_cell_angle_gamma                90
_cell_volume                     3251.13
_cell_formula_units_Z            8
loop_
_atom_site_label
_atom_site_type_symbol
_atom_site_fract_x
_atom_site_fract_y
_atom_site_fract_z
S1 S 0.99821(5) 0.40535(25) 0.72640(17)
Cl1 Cl 0.85426(5) 0.80030 1.19410(17)
N1 N 0.95781(16) 0.5837(6) 0.8703(5)
C1 C 0.96565(19) 0.4593(7) 0.8450(6)
N2 N 0.94212(15) 0.3889(6) 0.9287(5)
C2 C 0.93725(20) 0.2543(7) 0.9119(6)
C3 C 0.92577(16) 0.1830(5) 1.0393(5)
N3 N 0.88294(13) 0.2106(4) 1.0899(4)
C4 C 0.88271(17) 0.3220(6) 1.1748(5)
C5 C 0.86952(20) 0.5537(8) 1.1617(6)
C6 C 0.87885(20) 0.6749(7) 1.1190(6)
C7 C 0.90867(20) 0.6975(7) 1.0217(6)
C8 C 0.92740(20) 0.5929(7) 0.9690(6)
C9 C 0.91740(18) 0.4695(7) 1.0067(6)
C10 C 0.88913(19) 0.4481(7) 1.1099(8)
C11 C 0.92958(21) 0.0426(8) 1.0072(7)
C12 C 0.84614(18) 0.2047(6) 0.9889(6)
C13 C 0.80466(16) 0.1825(6) 1.0607(5)
C14 C 0.76986(20) 0.2527(8) 1.0509(7)
C15 C 0.72978(20) 0.2178(8) 1.1270(7)
C16 C 0.76412(19) 0.3728(7) 0.9690(7)
H1 H 0.972 0.657 0.824
H2 H 0.913 0.239 0.839
H3 H 0.965 0.219 0.881
H4 H 0.948 0.204 1.113
H5 H 0.854 0.324 1.218
H6 H 0.907 0.311 1.248
H7 H 0.847 0.542 1.233
H8 H 0.916 0.786 0.992
H9 H 0.922 -0.004 1.093
H10 H 0.961 0.027 0.989
H11 H 0.909 0.028 0.927
H12 H 0.844 0.288 0.937
H13 H 0.851 0.133 0.923
H14 H 0.804 0.107 1.122
H15 H 0.727 0.281 1.201
H16 H 0.736 0.130 1.169
H17 H 0.705 0.216 1.055
H18 H 0.749 0.433 1.029
H19 H 0.745 0.349 0.886
H20 H 0.795 0.397 0.948
S2 S 0.50105(5) 0.34271(25) 0.23898(15)
Cl2 Cl 0.35409(5) -0.03982(17) 0.71007(17)
N4 N 0.45656(16) 0.1681(6) 0.3752(5)
C17 C 0.46550(18) 0.2883(7) 0.3480(6)
N5 N 0.43956(16) 0.3587(6) 0.4265(5)
C18 C 0.44303(22) 0.4939(7) 0.4463(7)
C19 C 0.40320(21) 0.5700(6) 0.4376(7)
N6 N 0.36497(17) 0.5064(5) 0.4895(5)
C20 C 0.37422(21) 0.4449(8) 0.6245(7)
C21 C 0.36735(19) 0.2071(8) 0.6625(7)
C22 C 0.37914(19) 0.0851(7) 0.6282(6)
C23 C 0.40843(21) 0.0548(7) 0.5324(6)
C24 C 0.42644(21) 0.1588(7) 0.4722(6)
C25 C 0.41578(19) 0.2800(7) 0.5052(6)
C26 C 0.38578(20) 0.3086(8) 0.5995(6)
C27 C 0.41517(25) 0.7001(8) 0.5034(7)
C28 C 0.32642(24) 0.5791(7) 0.4806(7)
C29 C 0.28664(24) 0.5027(8) 0.4982(8)
C30 C 0.25677(23) 0.5119(8) 0.5796(7)
C31 C 0.21940(23) 0.4273(10) 0.5872(8)
C32 C 0.2537(3) 0.6175(11) 0.6813(10)
H21 H 0.470 0.093 0.330
H22 H 0.457 0.509 0.541
H23 H 0.463 0.528 0.376
H24 H 0.396 0.587 0.336
H25 H 0.399 0.489 0.674
H26 H 0.347 0.450 0.679
H27 H 0.345 0.221 0.733
H28 H 0.416 -0.034 0.508
H29 H 0.418 0.688 0.604
H30 H 0.389 0.760 0.479
H31 H 0.442 0.726 0.460
H32 H 0.328 0.646 0.555
H33 H 0.324 0.623 0.388
H34 H 0.283 0.429 0.429
H35 H 0.218 0.394 0.685
H36 H 0.224 0.352 0.525
H37 H 0.193 0.478 0.558
H38 H 0.278 0.686 0.671
H39 H 0.255 0.590 0.780
H40 H 0.225 0.659 0.656
loop_
_geom_bond_atom_site_label_1
_geom_bond_atom_site_label_2
_geom_bond_site_symmetry_1
_geom_bond_site_symmetry_2
S1 C1 1_555 1_555
Cl1 C6 1_555 1_555
N1 C1 1_555 1_555
C1 N2 1_555 1_555
N2 C2 1_555 1_555
C2 C3 1_555 1_555
C3 N3 1_555 1_555
N3 C4 1_555 1_555
C4 C10 1_555 1_555
C5 C6 1_555 1_555
C6 C7 1_555 1_555
C7 C8 1_555 1_555
C8 N1 1_555 1_555
C9 N2 1_555 1_555
C10 C5 1_555 1_555
C11 C3 1_555 1_555
C12 N3 1_555 1_555
C13 C12 1_555 1_555
C14 C13 1_555 1_555
C15 C14 1_555 1_555
C16 C14 1_555 1_555
S2 C17 1_555 1_555
Cl2 C22 1_555 1_555
N4 C17 1_555 1_555
C17 N5 1_555 1_555
N5 C18 1_555 1_555
C18 C19 1_555 1_555
C19 N6 1_555 1_555
N6 C20 1_555 1_555
C20 C26 1_555 1_555
C21 C22 1_555 1_555
C22 C23 1_555 1_555
C23 C24 1_555 1_555
C24 N4 1_555 1_555
C25 N5 1_555 1_555
C26 C21 1_555 1_555
C27 C19 1_555 1_555
C28 N6 1_555 1_555
C29 C28 1_555 1_555
C30 C29 1_555 1_555
C31 C30 1_555 1_555
C32 C30 1_555 1_555
H1 N1 1_555 1_555
H2 C2 1_555 1_555
H3 C2 1_555 1_555
H4 C3 1_555 1_555
H5 C4 1_555 1_555
H6 C4 1_555 1_555
H7 C5 1_555 1_555
H8 C7 1_555 1_555
H9 C11 1_555 1_555
H10 C11 1_555 1_555
H11 C11 1_555 1_555
H12 C12 1_555 1_555
H13 C12 1_555 1_555
H14 C13 1_555 1_555
H15 C15 1_555 1_555
H16 C15 1_555 1_555
H17 C15 1_555 1_555
H18 C16 1_555 1_555
H19 C16 1_555 1_555
H20 C16 1_555 1_555
H21 N4 1_555 1_555
H22 C18 1_555 1_555
H23 C18 1_555 1_555
H24 C19 1_555 1_555
H25 C20 1_555 1_555
H26 C20 1_555 1_555
H27 C21 1_555 1_555
H28 C23 1_555 1_555
H29 C27 1_555 1_555
H30 C27 1_555 1_555
H31 C27 1_555 1_555
H32 C28 1_555 1_555
H33 C28 1_555 1_555
H34 C29 1_555 1_555
H35 C31 1_555 1_555
H36 C31 1_555 1_555
H37 C31 1_555 1_555
H38 C32 1_555 1_555
H39 C32 1_555 1_555
H40 C32 1_555 1_555
C8 C9 1_555 1_555
C9 C10 1_555 1_555
C24 C25 1_555 1_555
C25 C26 1_555 1_555

#END
