
#######################################################################
#
#                 Cambridge Crystallographic Data Centre
#                                CCDC 
#
#######################################################################
#
# If this CIF has been generated from an entry in the Cambridge 
# Structural Database, then it will include bibliographic, chemical, 
# crystal, experimental, refinement or atomic coordinate data resulting 
# from the CCDC's data processing and validation procedures.
#
#######################################################################

data_JIMFIX
_chemical_formula_moiety         'C31 H31 Cl1 O1 Si2'
_chemical_name_systematic        
3-(2-chlorophenyl)-2,3-bis[dimethyl(phenyl)silyl]-1-phenylprop-2-en-1-one
_symmetry_cell_setting           triclinic
_symmetry_space_group_name_H-M   'P -1'
_symmetry_Int_Tables_number      2
_space_group_name_Hall           '-P 1'
loop_
_symmetry_equiv_pos_site_id
_symmetry_equiv_pos_as_xyz
1 x,y,z
2 -x,-y,-z
_cell_length_a                   10.0770(4)
_cell_length_b                   10.2382(3)
_cell_length_c                   14.0776(5)
_cell_angle_alpha                81.805(3)
_cell_angle_beta                 82.704(3)
_cell_angle_gamma                70.449(3)
_cell_volume                     1349.77
_exptl_crystal_colour            yellow
_exptl_crystal_description       block
_cell_formula_units_Z            2
loop_
_atom_site_label
_atom_site_type_symbol
_atom_site_fract_x
_atom_site_fract_y
_atom_site_fract_z
Si1 Si 0.99673(9) 0.34606(9) 0.20741(6)
Si2 Si 0.52137(10) 0.36006(9) 0.28652(7)
Cl1 Cl 0.77766(12) 0.32041(9) 0.00763(6)
O1 O 0.7406(3) 0.5388(3) 0.36489(18)
C1 C 1.0791(3) 0.2757(3) 0.3238(2)
C2 C 0.3800(4) 0.5241(4) 0.3183(3)
C3 C 0.6929(4) 0.5373(3) 0.2896(2)
C4 C 0.6170(4) 0.6695(4) 0.2319(3)
C5 C 0.3367(4) 0.5515(4) 0.4129(3)
C6 C 0.8424(4) 0.0615(4) 0.2512(3)
C7 C 0.8116(4) 0.0497(4) 0.0587(3)
C8 C 0.3078(4) 0.6206(4) 0.2444(3)
C9 C 0.8205(4) 0.1820(4) 0.1866(3)
C10 C 0.5284(4) 0.7976(4) 0.0838(3)
C11 C 0.6022(4) 0.6742(4) 0.1342(3)
C12 C 0.5559(4) 0.7905(4) 0.2786(3)
C13 C 0.6972(4) 0.4010(4) 0.2565(2)
C14 C 0.8182(4) 0.3175(4) 0.2190(3)
C15 C 1.0875(4) 0.3640(4) 0.3893(2)
C16 C 1.2006(4) 0.1665(4) 0.4989(3)
C17 C 0.1968(4) 0.7389(4) 0.2668(3)
C18 C 0.8491(4) -0.0650(4) 0.2195(3)
C19 C 1.1334(4) 0.1318(4) 0.3497(3)
C20 C 0.8059(4) 0.1722(4) 0.0908(3)
C21 C 0.2242(4) 0.6694(4) 0.4365(3)
C22 C 1.1489(4) 0.3097(4) 0.4761(3)
C23 C 0.8342(4) -0.0712(4) 0.1240(3)
C24 C 0.4656(4) 0.9185(4) 0.1303(3)
C25 C 0.4806(4) 0.9141(4) 0.2276(3)
C26 C 0.9885(4) 0.5316(4) 0.1725(3)
C27 C 0.5410(4) 0.2273(4) 0.3943(3)
C28 C 0.1540(4) 0.7626(4) 0.3627(3)
C29 C 1.1941(4) 0.0767(4) 0.4363(3)
C30 C 1.1111(4) 0.2388(4) 0.1111(3)
C31 C 0.4658(5) 0.2995(4) 0.1839(3)
loop_
_geom_bond_atom_site_label_1
_geom_bond_atom_site_label_2
_geom_bond_site_symmetry_1
_geom_bond_site_symmetry_2
Si1 C1 1_555 1_555
Si2 C2 1_555 1_555
Cl1 C20 1_555 1_555
O1 C3 1_555 1_555
C1 C15 1_555 1_555
C2 C5 1_555 1_555
C3 C4 1_555 1_555
C4 C11 1_555 1_555
C5 C21 1_555 1_555
C6 C9 1_555 1_555
C7 C20 1_555 1_555
C8 C2 1_555 1_555
C9 C14 1_555 1_555
C10 C11 1_555 1_555
C12 C4 1_555 1_555
C13 Si2 1_555 1_555
C14 Si1 1_555 1_555
C15 C22 1_555 1_555
C16 C22 1_555 1_555
C17 C8 1_555 1_555
C18 C6 1_555 1_555
C19 C1 1_555 1_555
C20 C9 1_555 1_555
C21 C28 1_555 1_555
C23 C7 1_555 1_555
C24 C10 1_555 1_555
C25 C12 1_555 1_555
C26 Si1 1_555 1_555
C27 Si2 1_555 1_555
C28 C17 1_555 1_555
C29 C16 1_555 1_555
C30 Si1 1_555 1_555
C31 Si2 1_555 1_555
C3 C13 1_555 1_555
C13 C14 1_555 1_555
C18 C23 1_555 1_555
C19 C29 1_555 1_555
C24 C25 1_555 1_555

#END
