
#######################################################################
#
#                 Cambridge Crystallographic Data Centre
#                                CCDC 
#
#######################################################################
#
# If this CIF has been generated from an entry in the Cambridge 
# Structural Database, then it will include bibliographic, chemical, 
# crystal, experimental, refinement or atomic coordinate data resulting 
# from the CCDC's data processing and validation procedures.
#
#######################################################################

data_JIMFOD
_chemical_formula_moiety         'C31 H32 O1 Si2'
_chemical_name_systematic        
2,3-bis[dimethyl(phenyl)silyl]-1,3-diphenylprop-2-en-1-one
_symmetry_cell_setting           monoclinic
_symmetry_space_group_name_H-M   'P 21/n'
_symmetry_Int_Tables_number      14
_space_group_name_Hall           '-P 2yn'
loop_
_symmetry_equiv_pos_site_id
_symmetry_equiv_pos_as_xyz
1 x,y,z
2 1/2-x,1/2+y,1/2-z
3 -x,-y,-z
4 1/2+x,1/2-y,1/2+z
_cell_length_a                   13.0743(5)
_cell_length_b                   12.4743(7)
_cell_length_c                   16.5297(8)
_cell_angle_alpha                90
_cell_angle_beta                 91.350(4)
_cell_angle_gamma                90
_cell_volume                     2695.13
_exptl_crystal_colour            colorless
_exptl_crystal_description       plate
_cell_formula_units_Z            4
loop_
_atom_site_label
_atom_site_type_symbol
_atom_site_fract_x
_atom_site_fract_y
_atom_site_fract_z
Si1 Si 0.56619(6) 0.70936(7) 0.19538(5)
Si2 Si 0.76664(6) 0.72380(7) 0.43965(5)
O1 O 0.80896(15) 0.56430(17) 0.27331(12)
C1 C 0.7938(2) 0.6610(3) 0.27489(17)
C2 C 0.8585(2) 0.7366(2) 0.22895(16)
C3 C 0.4817(2) 0.7118(3) 0.40660(17)
H1 H 0.4904 0.6378 0.4060
C4 C 0.5428(2) 0.7766(3) 0.35950(17)
C5 C 0.9095(2) 0.7172(3) 0.43266(16)
C6 C 0.8342(2) 0.8448(3) 0.22105(17)
H2 H 0.7764 0.8719 0.2456
C7 C 0.6195(2) 0.7291(2) 0.30281(17)
C8 C 0.5271(2) 0.8872(3) 0.36007(17)
H3 H 0.5666 0.9315 0.3281
C9 C 0.9468(2) 0.6990(3) 0.19319(17)
H4 H 0.9644 0.6270 0.1983
C10 C 0.7145(2) 0.7075(2) 0.33052(17)
C11 C 0.8958(2) 0.9124(3) 0.17677(18)
H5 H 0.8779 0.9841 0.1703
C12 C 0.9594(2) 0.6190(3) 0.42496(17)
H6 H 0.9214 0.5560 0.4254
C13 C 0.4318(2) 0.6589(3) 0.20661(18)
C14 C 0.4528(2) 0.9309(3) 0.40808(19)
H7 H 0.4428 1.0048 0.4084
C15 C 1.0083(2) 0.7670(3) 0.15037(19)
H8 H 1.0672 0.7408 0.1267
C16 C 0.9830(2) 0.8739(3) 0.14247(18)
H9 H 1.0250 0.9198 0.1139
C17 C 0.9698(2) 0.8090(3) 0.43287(18)
H10 H 0.9391 0.8757 0.4385
C18 C 0.6379(2) 0.6107(3) 0.13379(18)
H11 H 0.7040 0.6393 0.1218
H12 H 0.6006 0.5968 0.0842
H13 H 0.6461 0.5451 0.1637
C19 C 0.3517(2) 0.7296(3) 0.22237(19)
H14 H 0.3649 0.8027 0.2253
C20 C 0.4076(2) 0.7572(3) 0.45438(19)
H15 H 0.3672 0.7135 0.4861
C21 C 0.4076(2) 0.5512(3) 0.20189(19)
H16 H 0.4590 0.5021 0.1912
C22 C 1.0645(2) 0.6137(4) 0.41670(19)
H17 H 1.0960 0.5474 0.4109
C23 C 0.7214(2) 0.6075(3) 0.50017(19)
H18 H 0.7426 0.5420 0.4752
H19 H 0.6481 0.6092 0.5024
H20 H 0.7502 0.6116 0.5540
C24 C 0.5628(3) 0.8413(3) 0.14393(18)
H21 H 0.5308 0.8931 0.1781
H22 H 0.5246 0.8354 0.0939
H23 H 0.6314 0.8639 0.1332
C25 C 1.1221(3) 0.7051(4) 0.41698(19)
H24 H 1.1927 0.7010 0.4119
C26 C 0.2534(3) 0.6930(4) 0.2337(2)
H25 H 0.2014 0.7415 0.2445
C27 C 0.2321(3) 0.5860(4) 0.2291(2)
H26 H 0.1659 0.5616 0.2371
C28 C 0.7309(2) 0.8528(3) 0.48753(19)
H27 H 0.7694 0.8617 0.5373
H28 H 0.6592 0.8525 0.4985
H29 H 0.7458 0.9109 0.4516
C29 C 0.3935(2) 0.8666(3) 0.45529(19)
H30 H 0.3440 0.8967 0.4878
C30 C 1.0758(3) 0.8027(4) 0.4248(2)
H31 H 1.1149 0.8650 0.4248
C31 C 0.3089(3) 0.5145(3) 0.2126(2)
H32 H 0.2946 0.4416 0.2087
loop_
_geom_bond_atom_site_label_1
_geom_bond_atom_site_label_2
_geom_bond_site_symmetry_1
_geom_bond_site_symmetry_2
Si1 C7 1_555 1_555
Si2 C5 1_555 1_555
O1 C1 1_555 1_555
C1 C2 1_555 1_555
C2 C6 1_555 1_555
C3 H1 1_555 1_555
C4 C3 1_555 1_555
C5 C12 1_555 1_555
C6 H2 1_555 1_555
C7 C4 1_555 1_555
C8 C4 1_555 1_555
H3 C8 1_555 1_555
C9 C2 1_555 1_555
H4 C9 1_555 1_555
C10 Si2 1_555 1_555
C11 C6 1_555 1_555
H5 C11 1_555 1_555
C12 H6 1_555 1_555
C13 Si1 1_555 1_555
C14 C8 1_555 1_555
H7 C14 1_555 1_555
C15 C9 1_555 1_555
H8 C15 1_555 1_555
C16 C11 1_555 1_555
H9 C16 1_555 1_555
C17 C5 1_555 1_555
H10 C17 1_555 1_555
C18 Si1 1_555 1_555
H11 C18 1_555 1_555
H12 C18 1_555 1_555
H13 C18 1_555 1_555
C19 C13 1_555 1_555
H14 C19 1_555 1_555
C20 C3 1_555 1_555
H15 C20 1_555 1_555
C21 C13 1_555 1_555
H16 C21 1_555 1_555
C22 C12 1_555 1_555
H17 C22 1_555 1_555
C23 Si2 1_555 1_555
H18 C23 1_555 1_555
H19 C23 1_555 1_555
H20 C23 1_555 1_555
C24 Si1 1_555 1_555
H21 C24 1_555 1_555
H22 C24 1_555 1_555
H23 C24 1_555 1_555
C25 C22 1_555 1_555
H24 C25 1_555 1_555
C26 C19 1_555 1_555
H25 C26 1_555 1_555
C27 C26 1_555 1_555
H26 C27 1_555 1_555
C28 Si2 1_555 1_555
H27 C28 1_555 1_555
H28 C28 1_555 1_555
H29 C28 1_555 1_555
C29 C14 1_555 1_555
H30 C29 1_555 1_555
C30 C17 1_555 1_555
H31 C30 1_555 1_555
C31 C21 1_555 1_555
H32 C31 1_555 1_555
C1 C10 1_555 1_555
C7 C10 1_555 1_555
C15 C16 1_555 1_555
C20 C29 1_555 1_555
C25 C30 1_555 1_555
C27 C31 1_555 1_555

#END
