
#######################################################################
#
#                 Cambridge Crystallographic Data Centre
#                                CCDC 
#
#######################################################################
#
# If this CIF has been generated from an entry in the Cambridge 
# Structural Database, then it will include bibliographic, chemical, 
# crystal, experimental, refinement or atomic coordinate data resulting 
# from the CCDC's data processing and validation procedures.
#
#######################################################################

data_JIMHUL
_chemical_formula_moiety         'C9 H12 N2 O2,2(H2 O1)'
_chemical_name_systematic        
'2,6-dimethyl-2,6-diazabicyclo[5.2.0]non-1(7)-ene-8,9-dione dihydrate'
_symmetry_cell_setting           orthorhombic
_symmetry_space_group_name_H-M   'P c a 21'
_symmetry_Int_Tables_number      29
_space_group_name_Hall           'P 2c -2ac'
loop_
_symmetry_equiv_pos_site_id
_symmetry_equiv_pos_as_xyz
1 x,y,z
2 -x,-y,1/2+z
3 1/2+x,-y,z
4 1/2-x,y,1/2+z
_cell_length_a                   18.2312(6)
_cell_length_b                   7.7893(3)
_cell_length_c                   7.4334(3)
_cell_angle_alpha                90
_cell_angle_beta                 90
_cell_angle_gamma                90
_cell_volume                     1055.6
_exptl_crystal_colour            colorless
_exptl_crystal_description       block
_cell_formula_units_Z            4
loop_
_atom_site_label
_atom_site_type_symbol
_atom_site_fract_x
_atom_site_fract_y
_atom_site_fract_z
O1 O 0.70075(9) 0.7406(2) 0.6234(3)
O2 O 0.63713(9) 0.3907(2) 0.4408(3)
N1 N 0.86792(10) 0.6060(2) 0.5660(4)
N2 N 0.80590(11) 0.2493(3) 0.3907(4)
C1 C 0.80184(12) 0.5438(3) 0.5321(5)
C2 C 0.77447(13) 0.3895(3) 0.4553(4)
C3 C 0.72716(13) 0.6090(3) 0.5585(4)
C4 C 0.69889(13) 0.4489(3) 0.4757(4)
C5 C 0.93468(13) 0.5026(3) 0.5403(5)
H1 H 0.9436 0.4363 0.6485
H2 H 0.9760 0.5793 0.5235
C6 C 0.87626(14) 0.7646(3) 0.6693(5)
H3 H 0.8302 0.8242 0.6732
H4 H 0.9125 0.8363 0.6130
H5 H 0.8916 0.7375 0.7895
C7 C 0.93055(14) 0.3813(3) 0.3813(5)
H6 H 0.9801 0.3471 0.3498
H7 H 0.9106 0.4438 0.2796
C8 C 0.76146(17) 0.1044(3) 0.3284(5)
H8 H 0.7641 0.0129 0.4146
H9 H 0.7797 0.0650 0.2145
H10 H 0.7114 0.1404 0.3152
C9 C 0.88493(13) 0.2198(3) 0.4086(6)
H11 H 0.8999 0.1343 0.3211
H12 H 0.8949 0.1739 0.5274
O3 O 0.55331(9) -0.1619(2) 0.6526(3)
H13 H 0.5510 -0.0850 0.5717
H14 H 0.5970 -0.1995 0.6598
O4 O 0.54886(11) 0.1013(2) 0.4108(4)
H15 H 0.5167 0.1258 0.3322
H16 H 0.5757 0.1886 0.4300
loop_
_geom_bond_atom_site_label_1
_geom_bond_atom_site_label_2
_geom_bond_site_symmetry_1
_geom_bond_site_symmetry_2
O1 C3 1_555 1_555
O2 C4 1_555 1_555
N1 C1 1_555 1_555
N2 C2 1_555 1_555
C1 C2 1_555 1_555
C2 C4 1_555 1_555
C3 C1 1_555 1_555
C4 C3 1_555 1_555
C5 N1 1_555 1_555
H1 C5 1_555 1_555
H2 C5 1_555 1_555
C6 N1 1_555 1_555
H3 C6 1_555 1_555
H4 C6 1_555 1_555
H5 C6 1_555 1_555
C7 C5 1_555 1_555
H6 C7 1_555 1_555
H7 C7 1_555 1_555
C8 N2 1_555 1_555
H8 C8 1_555 1_555
H9 C8 1_555 1_555
H10 C8 1_555 1_555
C9 N2 1_555 1_555
H11 C9 1_555 1_555
H12 C9 1_555 1_555
O3 H13 1_555 1_555
H14 O3 1_555 1_555
O4 H15 1_555 1_555
H16 O4 1_555 1_555
C7 C9 1_555 1_555

#END
