
#######################################################################
#
#                 Cambridge Crystallographic Data Centre
#                                CCDC 
#
#######################################################################
#
# If this CIF has been generated from an entry in the Cambridge 
# Structural Database, then it will include bibliographic, chemical, 
# crystal, experimental, refinement or atomic coordinate data resulting 
# from the CCDC's data processing and validation procedures.
#
#######################################################################

data_JIMNID
_chemical_formula_moiety         'C2 H8 N1 1+,C18 H11 N6 O12 S2 1-,C3 H7 N1 O1'
_chemical_name_systematic        
'Dimethylammonium 1,2-bis(p-nitrophenylsulfonamido)-4,5-dinitrobenzene dimethylformamide solvate'
_symmetry_cell_setting           triclinic
_symmetry_space_group_name_H-M   'P -1'
_symmetry_Int_Tables_number      2
_space_group_name_Hall           '-P 1'
loop_
_symmetry_equiv_pos_site_id
_symmetry_equiv_pos_as_xyz
1 x,y,z
2 -x,-y,-z
_cell_length_a                   10.346(4)
_cell_length_b                   12.210(5)
_cell_length_c                   12.976(5)
_cell_angle_alpha                108.220(8)
_cell_angle_beta                 99.482(4)
_cell_angle_gamma                95.490(4)
_cell_volume                     1516.66
_exptl_crystal_colour            'pale yellow'
_exptl_crystal_description       prism
_chemical_melting_point          259-260deg.C
_cell_formula_units_Z            2
loop_
_atom_site_label
_atom_site_type_symbol
_atom_site_fract_x
_atom_site_fract_y
_atom_site_fract_z
S1 S 0.37653(5) 0.30583(4) 0.25337(4)
S2 S -0.16895(5) 0.16777(5) 0.20199(5)
O1 O 0.5260(2) 0.34350(18) -0.21381(15)
O2 O 0.4085(3) 0.17179(19) -0.27822(16)
O3 O -0.1564(3) -0.0366(3) -0.32935(19)
O4 O -0.3533(3) 0.0054(2) -0.34441(17)
O5 O 0.44776(15) 0.41793(13) 0.32522(12)
O6 O 0.41886(15) 0.20562(13) 0.27747(13)
O7 O -0.27133(15) 0.23375(15) 0.23391(13)
O8 O -0.15615(17) 0.06560(14) 0.23218(14)
O9 O 0.1858(2) 0.63967(16) 0.06941(16)
O10 O 0.1830(2) 0.73975(16) 0.23679(16)
O11 O -0.0887(2) 0.6671(2) 0.1147(2)
O12 O -0.23722(18) 0.57377(17) 0.16647(19)
N1 N 0.4612(2) 0.26123(19) -0.20181(17)
N2 N -0.2477(3) 0.0016(2) -0.2905(2)
N3 N 0.22190(16) 0.29168(15) 0.24405(14)
N4 N -0.02612(18) 0.25017(15) 0.25262(15)
H1 H 0.0403(16) 0.2096(16) 0.2606(17)
N5 N 0.15980(19) 0.64970(16) 0.15932(17)
N6 N -0.1247(2) 0.59198(17) 0.15147(18)
C1 C 0.4423(2) 0.27077(19) -0.08932(18)
C2 C 0.3474(2) 0.19037(19) -0.07769(18)
H2 H 0.2978 0.1303 -0.1392
C3 C 0.3285(2) 0.20155(18) 0.02707(18)
H3 H 0.2652 0.1486 0.0372
C4 C 0.40355(19) 0.29160(17) 0.11812(17)
C5 C 0.4996(2) 0.37012(18) 0.10419(18)
H4 H 0.5507 0.4296 0.1654
C6 C 0.5188(2) 0.35952(19) -0.00092(19)
H5 H 0.5825 0.4117 -0.0116
C7 C -0.2286(3) 0.04624(19) -0.16814(18)
C8 C -0.3381(3) 0.0597(2) -0.1207(2)
H6 H -0.4232 0.0411 -0.1645
C9 C -0.3188(2) 0.10114(19) -0.00718(19)
H7 H -0.3911 0.1114 0.0270
C10 C -0.1912(2) 0.12765(17) 0.05622(17)
C11 C -0.0823(2) 0.11560(19) 0.00627(19)
H8 H 0.0031 0.1355 0.0495
C12 C -0.1013(3) 0.0739(2) -0.1078(2)
H9 H -0.0295 0.0649 -0.1427
C13 C 0.14889(19) 0.37344(17) 0.22426(15)
C14 C 0.01215(19) 0.35162(17) 0.22589(16)
C15 C -0.0751(2) 0.42360(18) 0.20483(17)
H10 H -0.1639 0.4075 0.2078
C16 C -0.0301(2) 0.52043(18) 0.17915(17)
C17 C 0.1038(2) 0.54434(17) 0.17809(17)
C18 C 0.1923(2) 0.47407(17) 0.20068(17)
H11 H 0.2815 0.4930 0.2004
C19 C 0.7501(4) 0.6735(5) 0.4527(4)
H12 H 0.7299 0.5976 0.4586
H13 H 0.6990 0.6756 0.3847
H14 H 0.7286 0.7314 0.5142
C20 C 0.9330(6) 0.8006(5) 0.4312(4)
H15 H 0.9637 0.8640 0.4999
H16 H 0.8616 0.8204 0.3863
H17 H 1.0044 0.7867 0.3925
C21 C 0.9740(4) 0.6347(4) 0.4758(3)
H18 H 0.9407 0.5674 0.4881
N7 N 0.8867(3) 0.6971(4) 0.4535(2)
O13 O 1.0915(2) 0.6507(3) 0.4828(2)
C22 C 0.3365(4) 0.8801(3) 0.5462(3)
H19 H 0.4189 0.9317 0.5816
H20 H 0.2676 0.9095 0.5832
H21 H 0.3145 0.8756 0.4700
C23 C 0.4031(4) 0.6868(4) 0.4636(3)
H22 H 0.3467 0.6751 0.3932
H23 H 0.4072 0.6129 0.4746
H24 H 0.4906 0.7221 0.4648
N8 N 0.3495(2) 0.7631(2) 0.55184(17)
H25 H 0.405(2) 0.769(2) 0.6161(13)
H26 H 0.2651(17) 0.740(3) 0.556(3)
loop_
_geom_bond_atom_site_label_1
_geom_bond_atom_site_label_2
_geom_bond_site_symmetry_1
_geom_bond_site_symmetry_2
S1 O5 1_555 1_555
S2 O7 1_555 1_555
O1 N1 1_555 1_555
O2 N1 1_555 1_555
O3 N2 1_555 1_555
O4 N2 1_555 1_555
O6 S1 1_555 1_555
O8 S2 1_555 1_555
O9 N5 1_555 1_555
O10 N5 1_555 1_555
O11 N6 1_555 1_555
O12 N6 1_555 1_555
N1 C1 1_555 1_555
N2 C7 1_555 1_555
N3 S1 1_555 1_555
N4 S2 1_555 1_555
H1 N4 1_555 1_555
N5 C17 1_555 1_555
N6 C16 1_555 1_555
C1 C2 1_555 1_555
C2 H2 1_555 1_555
C3 C2 1_555 1_555
H3 C3 1_555 1_555
C4 S1 1_555 1_555
C5 C4 1_555 1_555
H4 C5 1_555 1_555
C6 C1 1_555 1_555
H5 C6 1_555 1_555
C7 C8 1_555 1_555
C8 H6 1_555 1_555
C9 C8 1_555 1_555
H7 C9 1_555 1_555
C10 S2 1_555 1_555
C11 C10 1_555 1_555
H8 C11 1_555 1_555
C12 C7 1_555 1_555
H9 C12 1_555 1_555
C13 N3 1_555 1_555
C14 N4 1_555 1_555
C15 C14 1_555 1_555
H10 C15 1_555 1_555
C16 C15 1_555 1_555
C17 C16 1_555 1_555
C18 C13 1_555 1_555
H11 C18 1_555 1_555
C19 H12 1_555 1_555
H13 C19 1_555 1_555
H14 C19 1_555 1_555
C20 H15 1_555 1_555
H16 C20 1_555 1_555
H17 C20 1_555 1_555
C21 H18 1_555 1_555
N7 C19 1_555 1_555
O13 C21 1_555 1_555
C22 H19 1_555 1_555
H20 C22 1_555 1_555
H21 C22 1_555 1_555
C23 H22 1_555 1_555
H23 C23 1_555 1_555
H24 C23 1_555 1_555
N8 C22 1_555 1_555
H25 N8 1_555 1_555
H26 N8 1_555 1_555
C3 C4 1_555 1_555
C5 C6 1_555 1_555
C9 C10 1_555 1_555
C11 C12 1_555 1_555
C13 C14 1_555 1_555
C17 C18 1_555 1_555
C20 N7 1_555 1_555
C21 N7 1_555 1_555
C23 N8 1_555 1_555

#END
