
#######################################################################
#
#                 Cambridge Crystallographic Data Centre
#                                CCDC 
#
#######################################################################
#
# If this CIF has been generated from an entry in the Cambridge 
# Structural Database, then it will include bibliographic, chemical, 
# crystal, experimental, refinement or atomic coordinate data resulting 
# from the CCDC's data processing and validation procedures.
#
#######################################################################

data_JIMNEZ
_chemical_formula_moiety         'C32 H49 N1 O4'
_chemical_name_systematic        '(E)-Ethyl 3-keto-18\b-glycyrrhetinate 3-oxime'
_symmetry_cell_setting           monoclinic
_symmetry_space_group_name_H-M   'P 21'
_symmetry_Int_Tables_number      4
_space_group_name_Hall           'P 2yb'
loop_
_symmetry_equiv_pos_site_id
_symmetry_equiv_pos_as_xyz
1 x,y,z
2 -x,1/2+y,-z
_cell_length_a                   12.4897(12)
_cell_length_b                   7.3190(7)
_cell_length_c                   15.9944(14)
_cell_angle_alpha                90
_cell_angle_beta                 94.833(2)
_cell_angle_gamma                90
_cell_volume                     1456.88
_exptl_crystal_colour            colorless
_exptl_crystal_description       block
_chemical_melting_point          247-249deg.C
_cell_formula_units_Z            2
loop_
_atom_site_label
_atom_site_type_symbol
_atom_site_fract_x
_atom_site_fract_y
_atom_site_fract_z
O1 O 1.03357(18) 0.8382(4) 0.18490(14)
H1 H 1.0785 0.7847 0.1594
O2 O 0.8189(2) 1.1654(3) 0.51858(14)
O3 O 0.7730(2) 0.9887(4) 1.01118(12)
O4 O 0.82267(18) 1.1401(3) 0.90106(13)
N1 N 0.9460(2) 0.7187(4) 0.19591(15)
C1 C 0.7632(2) 0.6912(4) 0.35003(16)
H2 H 0.8256 0.6248 0.3760
C2 C 0.7769(2) 0.6813(5) 0.25347(18)
C3 C 0.8757(2) 0.7942(5) 0.23676(17)
C4 C 0.8827(2) 0.9810(4) 0.27370(17)
H3 H 0.8248 1.0559 0.2480
H4 H 0.9503 1.0368 0.2621
C5 C 0.8750(2) 0.9736(4) 0.36850(16)
H5 H 0.8789 1.0968 0.3908
H6 H 0.9360 0.9059 0.3942
C6 C 0.7709(2) 0.8832(4) 0.39226(16)
C7 C 0.7792(2) 0.8479(4) 0.48911(15)
H7 H 0.8475 0.7826 0.5002
C8 C 0.69451(19) 0.7183(4) 0.52447(15)
C9 C 0.6813(2) 0.5449(4) 0.47058(16)
H8 H 0.7442 0.4682 0.4822
H9 H 0.6194 0.4774 0.4865
C10 C 0.6669(2) 0.5845(4) 0.37663(17)
H10 H 0.6601 0.4705 0.3457
H11 H 0.6018 0.6548 0.3638
C11 C 0.7920(2) 1.0171(4) 0.54477(17)
C12 C 0.7743(2) 0.9969(4) 0.63363(17)
H12 H 0.7830 1.1003 0.6673
C13 C 0.7467(2) 0.8421(4) 0.67012(16)
C14 C 0.73577(19) 0.6660(4) 0.61838(16)
C15 C 0.6595(2) 0.5263(4) 0.65464(17)
H13 H 0.5860 0.5578 0.6356
H14 H 0.6741 0.4062 0.6327
C16 C 0.6698(2) 0.5175(5) 0.75072(18)
H15 H 0.7408 0.4728 0.7698
H16 H 0.6176 0.4314 0.7690
C17 C 0.8499(2) 0.8139(5) 0.81084(16)
H17 H 0.8798 0.6994 0.7931
H18 H 0.8966 0.9115 0.7950
C18 C 0.7372(2) 0.8405(4) 0.76413(15)
H19 H 0.7127 0.9625 0.7791
C19 C 0.6523(2) 0.7038(5) 0.79116(17)
C20 C 0.6608(2) 0.6861(5) 0.88785(18)
H20 H 0.6306 0.7953 0.9109
H21 H 0.6170 0.5835 0.9026
C21 C 0.7731(3) 0.6596(5) 0.92923(18)
H22 H 0.8010 0.5431 0.9120
H23 H 0.7705 0.6569 0.9897
C22 C 0.8486(2) 0.8125(5) 0.90598(17)
C23 C 0.7938(4) 0.4810(5) 0.2296(2)
H24 H 0.8020 0.4727 0.1705
H25 H 0.7328 0.4101 0.2427
H26 H 0.8573 0.4347 0.2605
C24 C 0.6791(3) 0.7529(6) 0.19775(18)
H27 H 0.6930 0.7427 0.1398
H28 H 0.6666 0.8786 0.2110
H29 H 0.6168 0.6819 0.2077
C25 C 0.6751(2) 1.0113(5) 0.36551(18)
H30 H 0.6717 1.0309 0.3060
H31 H 0.6850 1.1263 0.3940
H32 H 0.6095 0.9560 0.3799
C26 C 0.5843(2) 0.8149(5) 0.52282(17)
H33 H 0.5601 0.8458 0.4660
H34 H 0.5912 0.9242 0.5560
H35 H 0.5332 0.7346 0.5454
C27 C 0.8485(2) 0.5767(4) 0.62417(17)
H36 H 0.8702 0.5475 0.6816
H37 H 0.8992 0.6602 0.6033
H38 H 0.8460 0.4669 0.5912
C28 C 0.5404(2) 0.7772(6) 0.7642(2)
H39 H 0.5323 0.7897 0.7042
H40 H 0.5312 0.8942 0.7897
H41 H 0.4873 0.6938 0.7816
C29 C 0.9633(3) 0.7808(6) 0.94666(19)
H42 H 0.9894 0.6651 0.9286
H43 H 0.9624 0.7809 1.0066
H44 H 1.0096 0.8766 0.9301
C30 C 0.8133(2) 0.9976(5) 0.93712(17)
C31 C 0.7383(4) 1.1592(6) 1.0463(2)
H45 H 0.7839 1.2578 1.0297
H46 H 0.7458 1.1516 1.1071
C32 C 0.6266(4) 1.1992(9) 1.0179(4)
H47 H 0.6056 1.3122 1.0421
H48 H 0.5814 1.1024 1.0350
H49 H 0.6195 1.2091 0.9578
loop_
_geom_bond_atom_site_label_1
_geom_bond_atom_site_label_2
_geom_bond_site_symmetry_1
_geom_bond_site_symmetry_2
O1 H1 1_555 1_555
O2 C11 1_555 1_555
O3 C30 1_555 1_555
O4 C30 1_555 1_555
N1 O1 1_555 1_555
C1 H2 1_555 1_555
C2 C1 1_555 1_555
C3 N1 1_555 1_555
C4 C3 1_555 1_555
H3 C4 1_555 1_555
H4 C4 1_555 1_555
C5 C4 1_555 1_555
H5 C5 1_555 1_555
H6 C5 1_555 1_555
C6 C1 1_555 1_555
C7 C6 1_555 1_555
H7 C7 1_555 1_555
C8 C7 1_555 1_555
C9 C8 1_555 1_555
H8 C9 1_555 1_555
H9 C9 1_555 1_555
C10 C1 1_555 1_555
H10 C10 1_555 1_555
H11 C10 1_555 1_555
C11 C7 1_555 1_555
C12 C11 1_555 1_555
H12 C12 1_555 1_555
C13 C12 1_555 1_555
C14 C8 1_555 1_555
C15 C14 1_555 1_555
H13 C15 1_555 1_555
H14 C15 1_555 1_555
C16 C15 1_555 1_555
H15 C16 1_555 1_555
H16 C16 1_555 1_555
C17 H17 1_555 1_555
H18 C17 1_555 1_555
C18 C13 1_555 1_555
H19 C18 1_555 1_555
C19 C16 1_555 1_555
C20 C19 1_555 1_555
H20 C20 1_555 1_555
H21 C20 1_555 1_555
C21 C20 1_555 1_555
H22 C21 1_555 1_555
H23 C21 1_555 1_555
C22 C17 1_555 1_555
C23 C2 1_555 1_555
H24 C23 1_555 1_555
H25 C23 1_555 1_555
H26 C23 1_555 1_555
C24 C2 1_555 1_555
H27 C24 1_555 1_555
H28 C24 1_555 1_555
H29 C24 1_555 1_555
C25 C6 1_555 1_555
H30 C25 1_555 1_555
H31 C25 1_555 1_555
H32 C25 1_555 1_555
C26 C8 1_555 1_555
H33 C26 1_555 1_555
H34 C26 1_555 1_555
H35 C26 1_555 1_555
C27 C14 1_555 1_555
H36 C27 1_555 1_555
H37 C27 1_555 1_555
H38 C27 1_555 1_555
C28 C19 1_555 1_555
H39 C28 1_555 1_555
H40 C28 1_555 1_555
H41 C28 1_555 1_555
C29 C22 1_555 1_555
H42 C29 1_555 1_555
H43 C29 1_555 1_555
H44 C29 1_555 1_555
C30 C22 1_555 1_555
C31 O3 1_555 1_555
H45 C31 1_555 1_555
H46 C31 1_555 1_555
C32 C31 1_555 1_555
H47 C32 1_555 1_555
H48 C32 1_555 1_555
H49 C32 1_555 1_555
C2 C3 1_555 1_555
C5 C6 1_555 1_555
C9 C10 1_555 1_555
C13 C14 1_555 1_555
C17 C18 1_555 1_555
C18 C19 1_555 1_555
C21 C22 1_555 1_555

#END
