
#######################################################################
#
#                 Cambridge Crystallographic Data Centre
#                                CCDC 
#
#######################################################################
#
# If this CIF has been generated from an entry in the Cambridge 
# Structural Database, then it will include bibliographic, chemical, 
# crystal, experimental, refinement or atomic coordinate data resulting 
# from the CCDC's data processing and validation procedures.
#
#######################################################################

data_JIMTEF
_chemical_formula_moiety         'C10 H4 F5 N3'
_chemical_name_systematic        
5-(Perfluorophenyl)-4,5-dihydro-1H-pyrazole-3-carbonitrile
_symmetry_cell_setting           monoclinic
_symmetry_space_group_name_H-M   'P 21/c'
_symmetry_Int_Tables_number      14
_space_group_name_Hall           '-P 2ybc'
loop_
_symmetry_equiv_pos_site_id
_symmetry_equiv_pos_as_xyz
1 x,y,z
2 -x,1/2+y,1/2-z
3 -x,-y,-z
4 x,1/2-y,1/2+z
_cell_length_a                   15.2700(19)
_cell_length_b                   5.2118(6)
_cell_length_c                   39.706(5)
_cell_angle_alpha                90
_cell_angle_beta                 102.178(4)
_cell_angle_gamma                90
_cell_volume                     3088.86
_exptl_crystal_colour            colorless
_cell_formula_units_Z            12
loop_
_atom_site_label
_atom_site_type_symbol
_atom_site_fract_x
_atom_site_fract_y
_atom_site_fract_z
F1 F 0.68986(11) 0.9256(3) 0.94162(4)
F2 F 0.69222(13) 0.9770(4) 0.87492(5)
F3 F 0.59521(14) 0.6512(4) 0.82764(4)
F4 F 0.50830(11) 0.2509(3) 0.84914(4)
F5 F 0.50490(11) 0.1976(3) 0.91548(4)
N1 N 0.55464(15) 0.7667(5) 0.98074(6)
H1 H 0.5033 0.8083 0.9746
N2 N 0.60381(15) 0.8658(4) 1.00959(6)
N3 N 0.7973(2) 0.8388(6) 1.07179(8)
C1 C 0.59727(17) 0.5597(5) 0.93116(7)
C2 C 0.64381(17) 0.7551(5) 0.91910(7)
C3 C 0.6451(2) 0.7841(6) 0.88502(8)
C4 C 0.5974(2) 0.6191(6) 0.86113(7)
C5 C 0.55224(19) 0.4208(6) 0.87216(7)
C6 C 0.55191(18) 0.3954(5) 0.90640(7)
C7 C 0.59336(19) 0.5342(6) 0.96862(7)
H2 H 0.5564 0.3856 0.9715
C8 C 0.68399(19) 0.5156(6) 0.99446(7)
H3 H 0.6901 0.3533 1.0067
H4 H 0.7339 0.5372 0.9831
C9 C 0.67705(19) 0.7351(6) 1.01796(7)
C10 C 0.7431(2) 0.8016(6) 1.04763(8)
F6 F 0.36388(14) 0.5547(4) 0.81553(5)
F7 F 0.42351(18) 0.4187(5) 0.75945(7)
F8 F 0.3611(2) 0.6582(5) 0.69875(6)
F9 F 0.24089(17) 1.0468(5) 0.69524(5)
F10 F 0.18677(13) 1.1951(4) 0.75152(5)
N4 N 0.18121(16) 0.7484(5) 0.82670(6)
H5 H 0.1441 0.6713 0.8139
N5 N 0.21818(15) 0.6400(4) 0.85715(6)
N6 N 0.38350(17) 0.6675(5) 0.93039(7)
C11 C 0.27434(19) 0.8824(6) 0.78567(7)
C12 C 0.3341(2) 0.6853(7) 0.78611(9)
C13 C 0.3648(2) 0.6128(7) 0.75760(11)
C14 C 0.3331(3) 0.7334(8) 0.72696(10)
C15 C 0.2734(3) 0.9281(8) 0.72521(9)
C16 C 0.2458(2) 1.0008(6) 0.75441(8)
C17 C 0.23577(19) 0.9544(6) 0.81640(7)
H6 H 0.1984 1.1078 0.8107
C18 C 0.3039(2) 1.0019(6) 0.85028(7)
H7 H 0.3648 1.0021 0.8467
H8 H 0.2923 1.1626 0.8609
C19 C 0.28698(18) 0.7768(5) 0.87135(7)
C20 C 0.33826(19) 0.7108(6) 0.90424(8)
F11 F 1.05287(13) -0.3322(3) 0.92622(4)
F12 F 0.97255(14) -0.2808(4) 0.97960(5)
F13 F 0.85410(13) 0.1017(5) 0.98065(5)
F14 F 0.81230(13) 0.4268(4) 0.92660(6)
F15 F 0.88865(12) 0.3724(4) 0.87227(5)
N7 N 1.06212(16) 0.2318(5) 0.86009(6)
H9 H 1.1121 0.2674 0.8704
N8 N 1.04742(15) 0.2870(5) 0.82622(6)
N9 N 0.92748(18) 0.1736(5) 0.74474(7)
C21 C 0.97406(18) 0.0193(6) 0.89724(7)
C22 C 0.9930(2) -0.1424(6) 0.92525(7)
C23 C 0.9528(2) -0.1151(7) 0.95305(8)
C24 C 0.8930(2) 0.0749(8) 0.95344(9)
C25 C 0.8722(2) 0.2381(7) 0.92645(9)
C26 C 0.9120(2) 0.2088(6) 0.89881(8)
C27 C 1.01928(19) -0.0105(6) 0.86703(7)
H10 H 1.0647 -0.1460 0.8721
C28 C 0.9558(2) -0.0653(6) 0.83199(7)
H11 H 0.9637 -0.2378 0.8240
H12 H 0.8936 -0.0397 0.8331
C29 C 0.98722(18) 0.1326(5) 0.80989(7)
C30 C 0.95528(19) 0.1606(5) 0.77364(8)
loop_
_geom_bond_atom_site_label_1
_geom_bond_atom_site_label_2
_geom_bond_site_symmetry_1
_geom_bond_site_symmetry_2
F1 C2 1_555 1_555
F2 C3 1_555 1_555
F3 C4 1_555 1_555
F4 C5 1_555 1_555
F5 C6 1_555 1_555
N1 H1 1_555 1_555
N2 N1 1_555 1_555
N3 C10 1_555 1_555
C1 C2 1_555 1_555
C2 C3 1_555 1_555
C3 C4 1_555 1_555
C4 C5 1_555 1_555
C5 C6 1_555 1_555
C6 C1 1_555 1_555
C7 N1 1_555 1_555
H2 C7 1_555 1_555
C8 C7 1_555 1_555
H3 C8 1_555 1_555
H4 C8 1_555 1_555
C9 N2 1_555 1_555
C10 C9 1_555 1_555
F6 C12 1_555 1_555
F7 C13 1_555 1_555
F8 C14 1_555 1_555
F9 C15 1_555 1_555
F10 C16 1_555 1_555
N4 H5 1_555 1_555
N5 N4 1_555 1_555
N6 C20 1_555 1_555
C11 C12 1_555 1_555
C12 C13 1_555 1_555
C13 C14 1_555 1_555
C14 C15 1_555 1_555
C15 C16 1_555 1_555
C16 C11 1_555 1_555
C17 N4 1_555 1_555
H6 C17 1_555 1_555
C18 C17 1_555 1_555
H7 C18 1_555 1_555
H8 C18 1_555 1_555
C19 N5 1_555 1_555
C20 C19 1_555 1_555
F11 C22 1_555 1_555
F12 C23 1_555 1_555
F13 C24 1_555 1_555
F14 C25 1_555 1_555
F15 C26 1_555 1_555
N7 H9 1_555 1_555
N8 N7 1_555 1_555
N9 C30 1_555 1_555
C21 C22 1_555 1_555
C22 C23 1_555 1_555
C23 C24 1_555 1_555
C24 C25 1_555 1_555
C25 C26 1_555 1_555
C26 C21 1_555 1_555
C27 N7 1_555 1_555
H10 C27 1_555 1_555
C28 C27 1_555 1_555
H11 C28 1_555 1_555
H12 C28 1_555 1_555
C29 N8 1_555 1_555
C30 C29 1_555 1_555
C1 C7 1_555 1_555
C8 C9 1_555 1_555
C11 C17 1_555 1_555
C18 C19 1_555 1_555
C21 C27 1_555 1_555
C28 C29 1_555 1_555

#END
