
#######################################################################
#
#                 Cambridge Crystallographic Data Centre
#                                CCDC 
#
#######################################################################
#
# If this CIF has been generated from an entry in the Cambridge 
# Structural Database, then it will include bibliographic, chemical, 
# crystal, experimental, refinement or atomic coordinate data resulting 
# from the CCDC's data processing and validation procedures.
#
#######################################################################

data_JIMTUU
_chemical_formula_moiety         'C20 H10 Cl2 O3'
_chemical_name_systematic        3,6-Dichlorofluoran
_chemical_properties_biological  
'agent inhibiting growth and destroying murine leukaemia cells'
_symmetry_cell_setting           triclinic
_symmetry_space_group_name_H-M   'P -1'
_symmetry_Int_Tables_number      2
_space_group_name_Hall           '-P 1'
loop_
_symmetry_equiv_pos_site_id
_symmetry_equiv_pos_as_xyz
1 x,y,z
2 -x,-y,-z
_cell_length_a                   7.558
_cell_length_b                   7.891
_cell_length_c                   15.698
_cell_angle_alpha                74.51
_cell_angle_beta                 77.64
_cell_angle_gamma                64.11
_cell_volume                     806.529
_exptl_crystal_colour            colorless
_chemical_melting_point          262.5-263.6deg.C
_cell_formula_units_Z            2
loop_
_atom_site_label
_atom_site_type_symbol
_atom_site_fract_x
_atom_site_fract_y
_atom_site_fract_z
Cl1 Cl -0.0788(3) 0.1947(3) 0.4010(1)
Cl2 Cl 1.3736(3) -0.5335(3) 0.4296(1)
O1 O 0.6636(6) -0.1263(6) 0.3777(2)
O2 O 0.7406(6) -0.044(5) 0.1302(2)
O3 O 0.7685(7) 0.0396(6) -0.0189(3)
C1 C 0.4993(8) -0.0741(7) 0.3362(3)
C2 C 0.5112(8) -0.1109(7) 0.2526(3)
C3 C 0.7099(8) -0.2007(7) 0.2008(3)
C4 C 0.8749(8) -0.2864(7) 0.2584(3)
C5 C 0.8437(8) -0.2438(8) 0.3421(4)
C6 C 0.9964(8) -0.3196(8) 0.3966(4)
C7 C 1.1807(8) -0.4386(8) 0.3641(4)
C8 C 1.2206(9) -0.4882(9) 0.2810(4)
C9 C 1.0645(9) -0.4090(8) 0.2287(4)
C10 C 0.3360(8) -0.0556(8) 0.2170(4)
C11 C 0.1523(9) 0.0369(8) 0.2624(4)
C12 C 0.1506(9) 0.0741(8) 0.3451(4)
C13 C 0.3197(9) 0.0187(8) 0.3838(4)
C14 C 0.7155(8) -0.3352(7) 0.1466(3)
C15 C 0.7018(9) -0.5125(8) 0.1770(4)
C16 C 0.7113(9) -0.6099(8) 0.1117(4)
C17 C 0.7302(9) -0.5297(8) 0.0202(4)
C18 C 0.7446(9) -0.3527(8) -0.0088(4)
C19 C 0.7369(8) -0.2579(7) 0.0570(3)
C20 C 0.7518(9) -0.0758(8) 0.0469(9)
loop_
_geom_bond_atom_site_label_1
_geom_bond_atom_site_label_2
_geom_bond_site_symmetry_1
_geom_bond_site_symmetry_2
Cl1 C12 1_555 1_555
Cl2 C7 1_555 1_555
O1 C1 1_555 1_555
O2 C3 1_555 1_555
O3 C20 1_555 1_555
C1 C2 1_555 1_555
C2 C3 1_555 1_555
C3 C4 1_555 1_555
C4 C5 1_555 1_555
C5 O1 1_555 1_555
C6 C5 1_555 1_555
C7 C6 1_555 1_555
C8 C7 1_555 1_555
C9 C4 1_555 1_555
C10 C2 1_555 1_555
C11 C10 1_555 1_555
C12 C11 1_555 1_555
C13 C1 1_555 1_555
C14 C3 1_555 1_555
C15 C14 1_555 1_555
C16 C15 1_555 1_555
C17 C16 1_555 1_555
C18 C17 1_555 1_555
C19 C14 1_555 1_555
C20 O2 1_555 1_555
C8 C9 1_555 1_555
C12 C13 1_555 1_555
C18 C19 1_555 1_555
C19 C20 1_555 1_555

#END
