
#######################################################################
#
#                 Cambridge Crystallographic Data Centre
#                                CCDC 
#
#######################################################################
#
# If this CIF has been generated from an entry in the Cambridge 
# Structural Database, then it will include bibliographic, chemical, 
# crystal, experimental, refinement or atomic coordinate data resulting 
# from the CCDC's data processing and validation procedures.
#
#######################################################################

data_JIMTIJ
_chemical_formula_moiety         'C11 H7 F5 N2 O2'
_chemical_name_systematic        
'Methyl 5-(perfluorophenyl)-4,5-dihydro-1H-pyrazole-3-carboxylate'
_symmetry_cell_setting           monoclinic
_symmetry_space_group_name_H-M   'P 21/c'
_symmetry_Int_Tables_number      14
_space_group_name_Hall           '-P 2ybc'
loop_
_symmetry_equiv_pos_site_id
_symmetry_equiv_pos_as_xyz
1 x,y,z
2 -x,1/2+y,1/2-z
3 -x,-y,-z
4 x,1/2-y,1/2+z
_cell_length_a                   12.4056(18)
_cell_length_b                   7.5033(11)
_cell_length_c                   13.628(2)
_cell_angle_alpha                90
_cell_angle_beta                 115.458(3)
_cell_angle_gamma                90
_cell_volume                     1145.36
_exptl_crystal_colour            colorless
_cell_formula_units_Z            4
loop_
_atom_site_label
_atom_site_type_symbol
_atom_site_fract_x
_atom_site_fract_y
_atom_site_fract_z
F1 F 0.24240(11) -0.13711(15) 0.11676(12)
F2 F 0.04555(12) -0.21741(16) 0.14431(12)
F3 F -0.10146(11) 0.04314(19) 0.14909(12)
F4 F -0.04707(12) 0.39127(18) 0.13291(11)
F5 F 0.15218(11) 0.47380(15) 0.11178(11)
N1 N 0.39707(16) 0.3277(3) 0.19810(16)
N2 N 0.43378(14) 0.4788(2) 0.16931(14)
O1 O 0.46934(13) 0.7801(2) 0.06899(12)
O2 O 0.33508(12) 0.6701(2) -0.08890(12)
C1 C 0.17436(18) -0.0018(3) 0.12381(18)
C2 C 0.07364(18) -0.0468(3) 0.13756(17)
C3 C -0.00067(18) 0.0857(3) 0.14001(17)
C4 C 0.02611(18) 0.2608(3) 0.13210(17)
C5 C 0.12854(18) 0.3024(3) 0.12020(16)
C6 C 0.20586(16) 0.1721(3) 0.11547(15)
C7 C 0.31844(17) 0.2194(3) 0.10398(17)
C8 C 0.30157(19) 0.3431(3) 0.00703(17)
C9 C 0.38033(16) 0.4981(2) 0.06519(16)
C10 C 0.40138(16) 0.6627(3) 0.01848(16)
C11 C 0.3500(3) 0.8289(4) -0.1424(2)
H1 H 0.3562(16) 0.109(2) 0.1002(15)
H2 H 0.3278(18) 0.288(3) -0.0452(18)
H3 H 0.2197(19) 0.385(2) -0.0319(17)
H4 H 0.4237(19) 0.842(4) -0.144(3)
H5 H 0.343(3) 0.937(3) -0.106(3)
H6 H 0.285(3) 0.838(4) -0.210(3)
H7 H 0.4412(17) 0.272(3) 0.2596(15)
loop_
_geom_bond_atom_site_label_1
_geom_bond_atom_site_label_2
_geom_bond_site_symmetry_1
_geom_bond_site_symmetry_2
F1 C1 1_555 1_555
F2 C2 1_555 1_555
F3 C3 1_555 1_555
F4 C4 1_555 1_555
F5 C5 1_555 1_555
N1 N2 1_555 1_555
N2 C9 1_555 1_555
O1 C10 1_555 1_555
O2 C10 1_555 1_555
C1 C2 1_555 1_555
C2 C3 1_555 1_555
C3 C4 1_555 1_555
C4 C5 1_555 1_555
C5 C6 1_555 1_555
C6 C1 1_555 1_555
C7 N1 1_555 1_555
C8 C7 1_555 1_555
C9 C8 1_555 1_555
C10 C9 1_555 1_555
C11 O2 1_555 1_555
H1 C7 1_555 1_555
H2 C8 1_555 1_555
H3 C8 1_555 1_555
H4 C11 1_555 1_555
H5 C11 1_555 1_555
H6 C11 1_555 1_555
H7 N1 1_555 1_555
C6 C7 1_555 1_555

#END
