
#######################################################################
#
#                 Cambridge Crystallographic Data Centre
#                                CCDC 
#
#######################################################################
#
# If this CIF has been generated from an entry in the Cambridge 
# Structural Database, then it will include bibliographic, chemical, 
# crystal, experimental, refinement or atomic coordinate data resulting 
# from the CCDC's data processing and validation procedures.
#
#######################################################################

data_JIMVUW02
_chemical_formula_moiety         'C8 H8 O4'
_chemical_name_systematic        3-acetyl-4-hydroxy-6-methyl-2H-pyran-2-one
_symmetry_cell_setting           monoclinic
_symmetry_space_group_name_H-M   'P 21/c'
_symmetry_Int_Tables_number      14
_space_group_name_Hall           '-P 2ybc'
loop_
_symmetry_equiv_pos_site_id
_symmetry_equiv_pos_as_xyz
1 x,y,z
2 -x,1/2+y,1/2-z
3 -x,-y,-z
4 x,1/2-y,1/2+z
_cell_length_a                   17.935(8)
_cell_length_b                   11.378(4)
_cell_length_c                   7.261(3)
_cell_angle_alpha                90
_cell_angle_beta                 91.322(18)
_cell_angle_gamma                90
_cell_volume                     1481.32
_exptl_crystal_colour            colorless
_exptl_crystal_description       lath
_cell_formula_units_Z            8
loop_
_atom_site_label
_atom_site_type_symbol
_atom_site_fract_x
_atom_site_fract_y
_atom_site_fract_z
O1 O 0.76621(12) 0.50460(18) 0.4473(3)
O2 O 0.87483(12) 0.40259(17) 0.5913(3)
H1 H 0.827(2) 0.411(3) 0.526(5)
O3 O 0.87919(11) 0.82036(18) 0.5853(3)
O4 O 0.97217(11) 0.71677(17) 0.7070(3)
C1 C 0.79384(17) 0.6041(3) 0.4807(4)
C2 C 0.86672(15) 0.6107(2) 0.5754(4)
C3 C 0.90331(16) 0.5064(2) 0.6266(4)
C4 C 0.97358(16) 0.5102(3) 0.7189(4)
H2 H 0.9980 0.4393 0.7541
C5 C 1.00539(16) 0.6135(2) 0.7561(4)
C6 C 0.90204(16) 0.7212(3) 0.6173(4)
C7 C 0.75012(17) 0.7100(3) 0.4246(4)
H3 H 0.7073 0.6860 0.3472
H4 H 0.7819 0.7633 0.3550
H5 H 0.7324 0.7502 0.5346
C8 C 1.07887(17) 0.6315(3) 0.8506(4)
H6 H 1.1012 0.5551 0.8805
H7 H 1.0720 0.6763 0.9643
H8 H 1.1118 0.6752 0.7694
O5 O 0.74081(11) 0.25827(17) -0.0192(3)
O6 O 0.63516(12) 0.14758(17) 0.1093(3)
H9 H 0.6888(18) 0.177(3) 0.044(4)
O7 O 0.61899(11) 0.56408(18) 0.1074(3)
O8 O 0.52985(10) 0.45412(17) 0.2210(3)
C9 C 0.70966(16) 0.3549(3) 0.0114(4)
C10 C 0.63799(15) 0.3564(2) 0.0990(4)
C11 C 0.60391(16) 0.2502(2) 0.1435(4)
C12 C 0.53273(16) 0.2483(3) 0.2265(4)
H10 H 0.5097 0.1756 0.2552
C13 C 0.49856(16) 0.3493(2) 0.2638(4)
C14 C 0.59977(16) 0.4644(3) 0.1376(4)
C15 C 0.74840(16) 0.4650(3) -0.0448(4)
H11 H 0.7948 0.4448 -0.1062
H12 H 0.7599 0.5127 0.0646
H13 H 0.7159 0.5097 -0.1296
C16 C 0.42479(17) 0.3632(3) 0.3483(4)
H14 H 0.4054 0.2858 0.3818
H15 H 0.3903 0.4010 0.2600
H16 H 0.4299 0.4121 0.4590
loop_
_geom_bond_atom_site_label_1
_geom_bond_atom_site_label_2
_geom_bond_site_symmetry_1
_geom_bond_site_symmetry_2
O1 C1 1_555 1_555
O2 H1 1_555 1_555
O3 C6 1_555 1_555
O4 C5 1_555 1_555
C1 C2 1_555 1_555
C2 C3 1_555 1_555
C3 O2 1_555 1_555
C4 C3 1_555 1_555
H2 C4 1_555 1_555
C5 C4 1_555 1_555
C6 O4 1_555 1_555
C7 C1 1_555 1_555
H3 C7 1_555 1_555
H4 C7 1_555 1_555
H5 C7 1_555 1_555
C8 C5 1_555 1_555
H6 C8 1_555 1_555
H7 C8 1_555 1_555
H8 C8 1_555 1_555
O5 C9 1_555 1_555
O6 H9 1_555 1_555
O7 C14 1_555 1_555
O8 C13 1_555 1_555
C9 C10 1_555 1_555
C10 C11 1_555 1_555
C11 O6 1_555 1_555
C12 C11 1_555 1_555
H10 C12 1_555 1_555
C13 C12 1_555 1_555
C14 O8 1_555 1_555
C15 C9 1_555 1_555
H11 C15 1_555 1_555
H12 C15 1_555 1_555
H13 C15 1_555 1_555
C16 C13 1_555 1_555
H14 C16 1_555 1_555
H15 C16 1_555 1_555
H16 C16 1_555 1_555
C2 C6 1_555 1_555
C10 C14 1_555 1_555

#END
