
#######################################################################
#
#                 Cambridge Crystallographic Data Centre
#                                CCDC 
#
#######################################################################
#
# If this CIF has been generated from an entry in the Cambridge 
# Structural Database, then it will include bibliographic, chemical, 
# crystal, experimental, refinement or atomic coordinate data resulting 
# from the CCDC's data processing and validation procedures.
#
#######################################################################

data_JIMWEH
_chemical_formula_moiety         'C16 H13 N4 O2 1+,Cl1 O4 1-'
_chemical_name_systematic        
'Hydro-bis(1,8-naphthyridine-N-oxide) perchlorate'
_symmetry_cell_setting           monoclinic
_symmetry_space_group_name_H-M   'P 21/c'
_symmetry_Int_Tables_number      14
_space_group_name_Hall           '-P 2ybc'
loop_
_symmetry_equiv_pos_site_id
_symmetry_equiv_pos_as_xyz
1 x,y,z
2 -x,1/2+y,1/2-z
3 -x,-y,-z
4 x,1/2-y,1/2+z
_cell_length_a                   15.602(2)
_cell_length_b                   13.027(1)
_cell_length_c                   8.231(2)
_cell_angle_alpha                90
_cell_angle_beta                 96.47(1)
_cell_angle_gamma                90
_cell_volume                     1662.27
_chemical_melting_point          179deg.C
_cell_formula_units_Z            4
loop_
_atom_site_label
_atom_site_type_symbol
_atom_site_fract_x
_atom_site_fract_y
_atom_site_fract_z
C2 C 0.1693(4) 0.2829(4) 0.5654(7)
C4 C 0.0814(4) 0.2840(5) 0.5829(7)
C6 C 0.0427(3) 0.1954(5) 0.6221(7)
C8 C 0.0918(3) 0.1044(4) 0.6430(6)
C10 C 0.0593(3) 0.0086(5) 0.6814(7)
C12 C 0.1115(4) -0.0747(5) 0.6936(6)
C14 C 0.1979(3) -0.0646(4) 0.6723(6)
C16 C 0.1790(3) 0.1138(4) 0.6188(5)
N2 N 0.2192(3) 0.2004(3) 0.5818(5)
N4 N 0.2303(2) 0.0255(3) 0.6381(5)
O2 O 0.3142(2) 0.0304(3) 0.6130(4)
O3 O 0.7666(3) 0.0500(4) 0.9360(6)
O4 O 0.8331(4) 0.0214(6) 0.7085(6)
O5 O 0.9057(6) 0.0914(7) 0.9151(6)
O6 O 0.8021(6) 0.1749(6) 0.7740(1)
Cl1 Cl 0.8272(1) 0.0879(1) 0.8364(2)
C1 C 0.5971(4) 0.1743(4) 0.5721(7)
C3 C 0.6322(3) 0.2704(4) 0.5415(6)
C5 C 0.5904(3) 0.3553(4) 0.5848(6)
C7 C 0.5149(3) 0.3458(3) 0.6600(6)
C9 C 0.4663(4) 0.4291(4) 0.7062(6)
C11 C 0.3946(4) 0.4114(4) 0.7786(7)
C13 C 0.3700(3) 0.3124(5) 0.8143(6)
C15 C 0.4879(3) 0.2446(4) 0.6894(5)
N1 N 0.5272(3) 0.1594(3) 0.6455(5)
N3 N 0.4155(3) 0.2322(3) 0.7709(5)
O1 O 0.3935(2) 0.1367(3) 0.8173(4)
loop_
_geom_bond_atom_site_label_1
_geom_bond_atom_site_label_2
_geom_bond_site_symmetry_1
_geom_bond_site_symmetry_2
C1 C3 1_555 1_555
C2 C4 1_555 1_555
C3 C5 1_555 1_555
C4 C6 1_555 1_555
C5 C7 1_555 1_555
C6 C8 1_555 1_555
C7 C9 1_555 1_555
C8 C10 1_555 1_555
C9 C11 1_555 1_555
C10 C12 1_555 1_555
C11 C13 1_555 1_555
C12 C14 1_555 1_555
C13 N3 1_555 1_555
C14 N4 1_555 1_555
C15 C7 1_555 1_555
C16 C8 1_555 1_555
N1 C1 1_555 1_555
N2 C2 1_555 1_555
N3 C15 1_555 1_555
N4 C16 1_555 1_555
O1 N3 1_555 1_555
O2 N4 1_555 1_555
O3 Cl1 1_555 1_555
O4 Cl1 1_555 1_555
O5 Cl1 1_555 1_555
O6 Cl1 1_555 1_555
C15 N1 1_555 1_555
C16 N2 1_555 1_555

#END
