
#######################################################################
#
#                 Cambridge Crystallographic Data Centre
#                                CCDC 
#
#######################################################################
#
# If this CIF has been generated from an entry in the Cambridge 
# Structural Database, then it will include bibliographic, chemical, 
# crystal, experimental, refinement or atomic coordinate data resulting 
# from the CCDC's data processing and validation procedures.
#
#######################################################################

data_JIMWOR
_chemical_formula_moiety         'C22 H28 O4'
_chemical_name_systematic        
'2-Acetyl-estra-1,3,5(10)-triene-3,17-diol 17-acetate'
_symmetry_cell_setting           orthorhombic
_symmetry_space_group_name_H-M   'P 21 21 21'
_symmetry_Int_Tables_number      19
_space_group_name_Hall           'P 2ac 2ab'
loop_
_symmetry_equiv_pos_site_id
_symmetry_equiv_pos_as_xyz
1 x,y,z
2 1/2+x,1/2-y,-z
3 -x,1/2+y,1/2-z
4 1/2-x,-y,1/2+z
_cell_length_a                   7.2312(21)
_cell_length_b                   12.9008(50)
_cell_length_c                   20.6798(75)
_cell_angle_alpha                90
_cell_angle_beta                 90
_cell_angle_gamma                90
_cell_volume                     1929.18
_cell_formula_units_Z            4
loop_
_atom_site_label
_atom_site_type_symbol
_atom_site_fract_x
_atom_site_fract_y
_atom_site_fract_z
O1 O 1.0785(4) 0.3551(2) 0.2144(1)
O2 O 0.7530(4) 0.3782(2) 0.1745(1)
O3 O 0.9300(4) -0.2868(2) -0.1475(1)
O4 O 0.7794(5) -0.4380(2) -0.1443(1)
C1 C 0.9134(5) 0.1277(2) 0.1116(2)
C2 C 0.9155(5) 0.2197(3) 0.1483(2)
C3 C 0.7645(5) 0.2872(3) 0.1418(2)
C4 C 0.6194(5) 0.2615(3) 0.1016(2)
C5 C 0.6214(5) 0.1707(3) 0.0651(2)
C6 C 0.4612(5) 0.1524(3) 0.0192(2)
C7 C 0.4554(5) 0.0444(3) -0.0096(2)
C8 C 0.6493(5) 0.0085(3) -0.0294(2)
C9 C 0.7727(5) 0.0015(2) 0.0312(1)
C10 C 0.7717(5) 0.1026(2) 0.0699(2)
C11 C 0.9681(5) -0.0374(3) 0.0140(2)
C12 C 0.9615(5) -0.1414(3) -0.0223(2)
C13 C 0.8397(4) -0.1356(2) -0.0820(2)
C14 C 0.6460(5) -0.0978(3) -0.0615(2)
C15 C 0.5271(6) -0.1156(4) -0.1220(2)
C16 C 0.6102(5) -0.2165(3) -0.1517(2)
C17 C 0.7818(5) -0.2406(3) -0.1101(2)
C18 C 0.9299(6) -0.0687(3) -0.1347(2)
C19 C 1.0722(6) 0.2480(3) 0.1902(2)
C20 C 1.2200(6) 0.1726(3) 0.2058(2)
C21 C 0.9088(6) -0.3887(3) -0.1617(2)
C22 C 1.0673(7) -0.4295(3) -0.2008(2)
loop_
_geom_bond_atom_site_label_1
_geom_bond_atom_site_label_2
_geom_bond_site_symmetry_1
_geom_bond_site_symmetry_2
O1 C19 1_555 1_555
O2 C3 1_555 1_555
O3 C17 1_555 1_555
O4 C21 1_555 1_555
C1 C2 1_555 1_555
C2 C3 1_555 1_555
C3 C4 1_555 1_555
C4 C5 1_555 1_555
C5 C6 1_555 1_555
C6 C7 1_555 1_555
C7 C8 1_555 1_555
C8 C9 1_555 1_555
C9 C10 1_555 1_555
C10 C1 1_555 1_555
C11 C9 1_555 1_555
C12 C11 1_555 1_555
C13 C12 1_555 1_555
C14 C8 1_555 1_555
C15 C14 1_555 1_555
C16 C15 1_555 1_555
C17 C13 1_555 1_555
C18 C13 1_555 1_555
C19 C2 1_555 1_555
C20 C19 1_555 1_555
C21 O3 1_555 1_555
C22 C21 1_555 1_555
C5 C10 1_555 1_555
C13 C14 1_555 1_555
C16 C17 1_555 1_555

#END
