
#######################################################################
#
#                 Cambridge Crystallographic Data Centre
#                                CCDC 
#
#######################################################################
#
# If this CIF has been generated from an entry in the Cambridge 
# Structural Database, then it will include bibliographic, chemical, 
# crystal, experimental, refinement or atomic coordinate data resulting 
# from the CCDC's data processing and validation procedures.
#
#######################################################################

data_JIMWIL
_chemical_formula_moiety         'C20 H24 O3'
_chemical_name_systematic        
2-Acetyl-3-hydroxyestra-1,3,5(10)-trien-17-one
_symmetry_cell_setting           orthorhombic
_symmetry_space_group_name_H-M   'C 2 2 21'
_symmetry_Int_Tables_number      20
_space_group_name_Hall           'C 2n 2'
loop_
_symmetry_equiv_pos_site_id
_symmetry_equiv_pos_as_xyz
1 x,y,z
2 1/2+x,1/2+y,z
3 x,-y,-z
4 1/2+x,1/2-y,-z
5 -x,y,1/2-z
6 1/2-x,1/2+y,1/2-z
7 -x,-y,1/2+z
8 1/2-x,1/2-y,1/2+z
_cell_length_a                   10.4361(29)
_cell_length_b                   11.6299(36)
_cell_length_c                   29.220(11)
_cell_angle_alpha                90
_cell_angle_beta                 90
_cell_angle_gamma                90
_cell_volume                     3546.45
_cell_formula_units_Z            8
loop_
_atom_site_label
_atom_site_type_symbol
_atom_site_fract_x
_atom_site_fract_y
_atom_site_fract_z
O1 O 0.7455(1) 0.1893(3) 0.5180(1)
O2 O 0.8777(3) 0.0376(4) 0.5563(1)
O3 O -0.0262(4) -0.2918(4) 0.6811(1)
C1 C 0.5377(5) -0.0050(5) 0.5776(2)
C2 C 0.6476(5) 0.0458(5) 0.5601(2)
C3 C 0.7675(5) -0.0052(5) 0.5712(2)
C4 C 0.7685(5) -0.1014(5) 0.5992(2)
C5 C 0.6569(5) -0.1511(4) 0.6155(2)
C6 C 0.6659(5) -0.2553(5) 0.6472(2)
C7 C 0.5424(5) -0.3209(2) 0.6522(2)
C8 C 0.4299(5) -0.2397(4) 0.6606(1)
C9 C 0.4120(4) -0.1611(4) 0.6182(1)
C10 C 0.5368(5) -0.1019(4) 0.6039(2)
C11 C 0.2985(4) -0.0790(5) 0.6253(2)
C12 C 0.1729(5) -0.1415(4) 0.6367(2)
C13 C 0.1930(5) -0.2192(4) 0.6782(2)
C14 C 0.3040(5) -0.3012(4) 0.6693(2)
C15 C 0.2931(6) -0.3916(4) 0.7075(2)
C16 C 0.1452(6) -0.4117(5) 0.7099(2)
C17 C 0.0866(5) -0.3049(4) 0.6880(2)
C18 C 0.2058(6) -0.1478(4) 0.7227(2)
C19 C 0.6445(6) 0.1479(5) 0.5319(2)
C20 C 0.5198(7) 0.2047(6) 0.5195(2)
loop_
_geom_bond_atom_site_label_1
_geom_bond_atom_site_label_2
_geom_bond_site_symmetry_1
_geom_bond_site_symmetry_2
O1 C19 1_555 1_555
O2 C3 1_555 1_555
O3 C17 1_555 1_555
C1 C2 1_555 1_555
C2 C3 1_555 1_555
C3 C4 1_555 1_555
C4 C5 1_555 1_555
C5 C6 1_555 1_555
C6 C7 1_555 1_555
C7 C8 1_555 1_555
C8 C9 1_555 1_555
C9 C10 1_555 1_555
C10 C1 1_555 1_555
C11 C9 1_555 1_555
C12 C11 1_555 1_555
C13 C12 1_555 1_555
C14 C8 1_555 1_555
C15 C14 1_555 1_555
C16 C15 1_555 1_555
C17 C13 1_555 1_555
C18 C13 1_555 1_555
C19 C2 1_555 1_555
C20 C19 1_555 1_555
C5 C10 1_555 1_555
C13 C14 1_555 1_555
C16 C17 1_555 1_555

#END
