
#######################################################################
#
#                 Cambridge Crystallographic Data Centre
#                                CCDC 
#
#######################################################################
#
# If this CIF has been generated from an entry in the Cambridge 
# Structural Database, then it will include bibliographic, chemical, 
# crystal, experimental, refinement or atomic coordinate data resulting 
# from the CCDC's data processing and validation procedures.
#
#######################################################################

data_JIMZUD
_chemical_formula_moiety         'C35 H24 F3 N1 O2 S1'
_chemical_name_systematic        
1,1,1-trifluoro-N-(1,2,3,4-tetraphenylspiro[4.5]deca-1,3,7,9-tetraen-6-ylidene)methanesulfonamide
_symmetry_cell_setting           monoclinic
_symmetry_space_group_name_H-M   'P 21/n'
_symmetry_Int_Tables_number      14
_space_group_name_Hall           '-P 2yn'
loop_
_symmetry_equiv_pos_site_id
_symmetry_equiv_pos_as_xyz
1 x,y,z
2 1/2-x,1/2+y,1/2-z
3 -x,-y,-z
4 1/2+x,1/2-y,1/2+z
_cell_length_a                   9.1091(2)
_cell_length_b                   14.3255(3)
_cell_length_c                   22.0866(5)
_cell_angle_alpha                90
_cell_angle_beta                 101.388(2)
_cell_angle_gamma                90
_cell_volume                     2825.39
_exptl_crystal_colour            red
_exptl_crystal_description       plate
_cell_formula_units_Z            4
loop_
_atom_site_label
_atom_site_type_symbol
_atom_site_fract_x
_atom_site_fract_y
_atom_site_fract_z
S1 S 0.41991(3) 0.69928(2) 0.57467(2)
F1 F 0.45590(11) 0.85128(6) 0.64190(5)
F2 F 0.49156(11) 0.72514(7) 0.69533(4)
O1 O 0.35841(12) 0.76057(8) 0.52519(5)
F3 F 0.26868(11) 0.76507(9) 0.65191(6)
O2 O 0.34848(12) 0.61164(8) 0.58054(6)
N1 N 0.59872(12) 0.69059(8) 0.58802(5)
C1 C 0.92654(14) 0.68064(9) 0.68006(6)
C2 C 0.87980(14) 0.76939(9) 0.59076(6)
C3 C 0.89808(14) 0.51370(9) 0.64012(6)
C4 C 0.88928(13) 0.61626(9) 0.63485(6)
C5 C 0.96184(15) 0.66526(9) 0.74779(6)
C6 C 0.67724(14) 0.66238(9) 0.54830(6)
C7 C 0.84705(14) 0.66644(9) 0.57259(6)
C8 C 0.84500(14) 0.84685(9) 0.54609(6)
C9 C 0.92053(14) 0.77525(9) 0.65283(6)
C10 C 0.91233(15) 0.85362(10) 0.49448(6)
H1 H 0.9795 0.8080 0.4873
C11 C 0.95960(14) 0.86091(9) 0.68984(6)
C12 C 0.62129(15) 0.63177(10) 0.48638(6)
H2 H 0.5187 0.6316 0.4708
C13 C 1.06348(15) 0.92348(10) 0.67412(6)
H3 H 1.0994 0.9142 0.6380
C14 C 0.93838(15) 0.63136(9) 0.52781(6)
H4 H 1.0421 0.6304 0.5399
C15 C 1.09401(16) 0.69988(10) 0.78375(6)
H5 H 1.1654 0.7277 0.7648
C16 C 0.87686(16) 0.60149(10) 0.47125(6)
H6 H 0.9377 0.5795 0.4452
C17 C 0.74371(15) 0.91626(10) 0.55561(6)
H7 H 0.6978 0.9125 0.5896
C18 C 0.85696(17) 0.62301(10) 0.77694(7)
H8 H 0.7691 0.5989 0.7534
C19 C 0.79824(15) 0.45432(10) 0.60214(7)
H9 H 0.7227 0.4797 0.5721
C20 C 0.87898(16) 0.92823(10) 0.45400(6)
H10 H 0.9242 0.9324 0.4199
C21 C 1.01321(16) 0.47244(10) 0.68321(6)
H11 H 1.0828 0.5103 0.7083
C22 C 0.90207(16) 0.87883(10) 0.74300(6)
H12 H 0.8293 0.8398 0.7534
C23 C 0.77878(16) 0.99651(10) 0.46410(7)
H13 H 0.7569 1.0463 0.4368
C24 C 0.71114(16) 0.99047(10) 0.51501(7)
H14 H 0.6439 1.0363 0.5219
C25 C 0.81018(17) 0.35784(10) 0.60862(7)
H15 H 0.7418 0.3195 0.5833
C26 C 0.71637(17) 0.60312(10) 0.45032(6)
H16 H 0.6767 0.5836 0.4103
C27 C 1.11399(18) 0.99922(10) 0.71151(7)
H17 H 1.1834 1.0402 0.7005
C28 C 0.92290(17) 0.31857(10) 0.65231(7)
H18 H 0.9299 0.2541 0.6570
C29 C 1.02550(17) 0.37657(11) 0.68915(7)
H19 H 1.1031 0.3508 0.7180
C30 C 0.95355(19) 0.95482(11) 0.78022(7)
H20 H 0.9154 0.9661 0.8156
C31 C 1.11948(18) 0.69310(11) 0.84759(7)
H21 H 1.2081 0.7160 0.8712
C32 C 0.41046(17) 0.76427(11) 0.64536(7)
C33 C 1.0135(2) 0.65246(12) 0.87635(7)
H22 H 1.0299 0.6491 0.9192
C34 C 0.8827(2) 0.61671(12) 0.84095(7)
H23 H 0.8121 0.5884 0.8601
C35 C 1.06105(19) 1.01381(11) 0.76518(7)
H24 H 1.0976 1.0632 0.7912
loop_
_geom_bond_atom_site_label_1
_geom_bond_atom_site_label_2
_geom_bond_site_symmetry_1
_geom_bond_site_symmetry_2
S1 O1 1_555 1_555
F1 C32 1_555 1_555
F2 C32 1_555 1_555
F3 C32 1_555 1_555
O2 S1 1_555 1_555
N1 S1 1_555 1_555
C1 C4 1_555 1_555
C2 C7 1_555 1_555
C3 C4 1_555 1_555
C4 C7 1_555 1_555
C5 C1 1_555 1_555
C6 N1 1_555 1_555
C7 C6 1_555 1_555
C8 C2 1_555 1_555
C9 C1 1_555 1_555
C10 C8 1_555 1_555
H1 C10 1_555 1_555
C11 C9 1_555 1_555
C12 C6 1_555 1_555
H2 C12 1_555 1_555
C13 C11 1_555 1_555
H3 C13 1_555 1_555
C14 C7 1_555 1_555
H4 C14 1_555 1_555
C15 C5 1_555 1_555
H5 C15 1_555 1_555
C16 C14 1_555 1_555
H6 C16 1_555 1_555
C17 C8 1_555 1_555
H7 C17 1_555 1_555
C18 C5 1_555 1_555
H8 C18 1_555 1_555
C19 C3 1_555 1_555
H9 C19 1_555 1_555
C20 C10 1_555 1_555
H10 C20 1_555 1_555
C21 C3 1_555 1_555
H11 C21 1_555 1_555
C22 C11 1_555 1_555
H12 C22 1_555 1_555
C23 C20 1_555 1_555
H13 C23 1_555 1_555
C24 C17 1_555 1_555
H14 C24 1_555 1_555
C25 C19 1_555 1_555
H15 C25 1_555 1_555
C26 C12 1_555 1_555
H16 C26 1_555 1_555
C27 C13 1_555 1_555
H17 C27 1_555 1_555
C28 C25 1_555 1_555
H18 C28 1_555 1_555
C29 C21 1_555 1_555
H19 C29 1_555 1_555
C30 C22 1_555 1_555
H20 C30 1_555 1_555
C31 C15 1_555 1_555
H21 C31 1_555 1_555
C32 S1 1_555 1_555
C33 C31 1_555 1_555
H22 C33 1_555 1_555
C34 C18 1_555 1_555
H23 C34 1_555 1_555
C35 C27 1_555 1_555
H24 C35 1_555 1_555
C2 C9 1_555 1_555
C16 C26 1_555 1_555
C23 C24 1_555 1_555
C28 C29 1_555 1_555
C30 C35 1_555 1_555
C33 C34 1_555 1_555

#END
