
#######################################################################
#
#                 Cambridge Crystallographic Data Centre
#                                CCDC 
#
#######################################################################
#
# If this CIF has been generated from an entry in the Cambridge 
# Structural Database, then it will include bibliographic, chemical, 
# crystal, experimental, refinement or atomic coordinate data resulting 
# from the CCDC's data processing and validation procedures.
#
#######################################################################

data_JIMZAJ
_chemical_formula_moiety         'C26 H18 F6 S2,H2 O1'
_chemical_name_systematic        
'3-{3,3,4,4,5,5-hexafluoro-2-[2-methyl-5-(naphthalen-2-yl)thiophen-3-yl]cyclopent-1-en-1-yl}-2,5-dimethylthiophene monohydrate'
_symmetry_cell_setting           triclinic
_symmetry_space_group_name_H-M   'P -1'
_symmetry_Int_Tables_number      2
_space_group_name_Hall           '-P 1'
loop_
_symmetry_equiv_pos_site_id
_symmetry_equiv_pos_as_xyz
1 x,y,z
2 -x,-y,-z
_cell_length_a                   9.941(7)
_cell_length_b                   10.897(8)
_cell_length_c                   13.011(9)
_cell_angle_alpha                109.119(9)
_cell_angle_beta                 94.034(9)
_cell_angle_gamma                112.459(9)
_cell_volume                     1199.46
_exptl_crystal_colour            colorless
_exptl_crystal_description       block
_cell_formula_units_Z            2
loop_
_atom_site_label
_atom_site_type_symbol
_atom_site_fract_x
_atom_site_fract_y
_atom_site_fract_z
S1 S 0.53590(10) 0.79414(11) 0.36530(8)
S2 S 0.60225(13) 0.62598(12) 0.74186(9)
C1 C 0.4971(4) 0.8319(4) 0.4954(3)
C2 C 0.4350(4) 0.7488(4) 0.7244(3)
C3 C 0.2625(4) 0.6841(4) 0.3734(3)
H1 H 0.1590 0.6335 0.3535
C4 C 0.3436(4) 0.7647(4) 0.4867(3)
F1 F 0.1287(3) 0.8923(4) 0.5338(3)
C5 C 0.3496(4) 0.6877(4) 0.2969(3)
C6 C 0.1729(4) 0.4970(4) 0.1216(3)
H2 H 0.1058 0.4673 0.1644
C7 C 0.6220(4) 0.9307(4) 0.5969(3)
H3 H 0.7155 0.9587 0.5746
H4 H 0.6071 1.0148 0.6348
H5 H 0.6230 0.8818 0.6461
C8 C 0.3076(4) 0.6140(4) 0.1745(3)
C9 C 0.2716(4) 0.7787(4) 0.5828(3)
C10 C 0.4483(4) 0.6243(4) 0.6718(3)
F2 F 0.0144(3) 0.6681(4) 0.5008(3)
C11 C 0.3126(4) 0.7779(4) 0.6828(3)
C12 C 0.1319(5) 0.4195(4) 0.0047(3)
C13 C 0.1277(4) 0.7925(5) 0.5727(4)
C14 C 0.5505(4) 0.8436(5) 0.8223(3)
H6 H 0.5562 0.9320 0.8683
C15 C 0.6513(5) 0.7941(5) 0.8428(3)
C16 C 0.3457(5) 0.4950(5) 0.5700(4)
H7 H 0.3844 0.4240 0.5526
H8 H 0.2482 0.4551 0.5844
H9 H 0.3392 0.5233 0.5080
C17 C 0.2069(6) 0.8020(8) 0.7545(5)
F3 F -0.0261(11) 0.813(2) 0.7069(8)
C18 C 0.7901(6) 0.8662(6) 0.9342(4)
H10 H 0.8383 0.8033 0.9264
H11 H 0.8569 0.9539 0.9292
H12 H 0.7636 0.8873 1.0054
C19 C 0.2333(6) 0.4659(5) -0.0601(4)
C20 C -0.0032(6) 0.2977(5) -0.0502(4)
H13 H -0.0719 0.2665 -0.0089
F4 F 0.257(2) 0.874(3) 0.8592(7)
F5 F 0.1111(13) 0.6520(18) 0.7499(16)
C21 C 0.0636(8) 0.2677(7) -0.2250(4)
H14 H 0.0414 0.2152 -0.3015
C22 C 0.3672(7) 0.5876(7) -0.0052(4)
H15 H 0.4327 0.6213 -0.0476
C23 C 0.4069(5) 0.6600(6) 0.1082(4)
H16 H 0.4989 0.7392 0.1414
C24 C 0.0968(6) 0.8232(8) 0.6895(5)
F6 F 0.1433(9) 0.9708(7) 0.7355(4)
C25 C 0.1930(8) 0.3859(7) -0.1765(4)
H17 H 0.2578 0.4160 -0.2205
C26 C -0.0363(7) 0.2239(6) -0.1622(4)
H18 H -0.1269 0.1434 -0.1966
F7? F -0.0401(14) 0.699(3) 0.6728(13)
F8? F 0.2948(14) 0.9662(16) 0.8347(14)
F9? F 0.185(2) 0.753(3) 0.8230(15)
O1? O 0.5774(2) 1.0302(2) 0.89288(16)
loop_
_geom_bond_atom_site_label_1
_geom_bond_atom_site_label_2
_geom_bond_site_symmetry_1
_geom_bond_site_symmetry_2
S1 C1 1_555 1_555
S2 C10 1_555 1_555
C1 C4 1_555 1_555
C2 C10 1_555 1_555
C3 H1 1_555 1_555
C4 C3 1_555 1_555
F1 C13 1_555 1_555
C5 S1 1_555 1_555
C6 H2 1_555 1_555
C7 C1 1_555 1_555
H3 C7 1_555 1_555
H4 C7 1_555 1_555
H5 C7 1_555 1_555
C8 C5 1_555 1_555
C9 C4 1_555 1_555
C10 C16 1_555 1_555
F2 C13 1_555 1_555
C11 C2 1_555 1_555
C12 C6 1_555 1_555
C13 C9 1_555 1_555
C14 C2 1_555 1_555
H6 C14 1_555 1_555
C15 S2 1_555 1_555
C16 H7 1_555 1_555
H8 C16 1_555 1_555
H9 C16 1_555 1_555
C17 C11 1_555 1_555
F3 C24 1_555 1_555
C18 C15 1_555 1_555
H10 C18 1_555 1_555
H11 C18 1_555 1_555
H12 C18 1_555 1_555
C19 C12 1_555 1_555
C20 C12 1_555 1_555
H13 C20 1_555 1_555
F4 C17 1_555 1_555
F5 C17 1_555 1_555
C21 H14 1_555 1_555
C22 C19 1_555 1_555
H15 C22 1_555 1_555
C23 C8 1_555 1_555
H16 C23 1_555 1_555
C24 C13 1_555 1_555
F6 C24 1_555 1_555
C25 C19 1_555 1_555
H17 C25 1_555 1_555
C26 C20 1_555 1_555
H18 C26 1_555 1_555
C3 C5 1_555 1_555
C6 C8 1_555 1_555
C9 C11 1_555 1_555
C14 C15 1_555 1_555
C17 C24 1_555 1_555
C21 C25 1_555 1_555
C21 C26 1_555 1_555
C22 C23 1_555 1_555

#END
