
#######################################################################
#
#                 Cambridge Crystallographic Data Centre
#                                CCDC 
#
#######################################################################
#
# If this CIF has been generated from an entry in the Cambridge 
# Structural Database, then it will include bibliographic, chemical, 
# crystal, experimental, refinement or atomic coordinate data resulting 
# from the CCDC's data processing and validation procedures.
#
#######################################################################

data_JIMZIR
_chemical_formula_moiety         'C29 H18 F6 O1 S1'
_chemical_name_systematic        
3-{3,3,4,4,5,5-hexafluoro-2-[2-methyl-5-(naphthalen-2-yl)thiophen-3-yl]cyclopent-1-en-1-yl}-2-methyl-1-benzofuran
_symmetry_cell_setting           orthorhombic
_symmetry_space_group_name_H-M   'P 21 21 21'
_symmetry_Int_Tables_number      19
_space_group_name_Hall           'P 2ac 2ab'
loop_
_symmetry_equiv_pos_site_id
_symmetry_equiv_pos_as_xyz
1 x,y,z
2 1/2-x,-y,1/2+z
3 -x,1/2+y,1/2-z
4 1/2+x,1/2-y,-z
_cell_length_a                   7.0824(4)
_cell_length_b                   9.0257(4)
_cell_length_c                   37.8748(17)
_cell_angle_alpha                90
_cell_angle_beta                 90
_cell_angle_gamma                90
_cell_volume                     2421.09
_cell_formula_units_Z            4
loop_
_atom_site_label
_atom_site_type_symbol
_atom_site_fract_x
_atom_site_fract_y
_atom_site_fract_z
S1 S 0.7888(2) 0.5078(2) 0.20527(4)
F1 F 1.1942(8) 0.8036(6) 0.11091(13)
F2 F 0.9287(9) 0.9107(4) 0.11380(11)
F3 F 0.9731(8) 0.9370(4) 0.04733(11)
F4 F 1.1767(8) 0.7628(6) 0.04597(13)
F5 F 0.9041(8) 0.6211(5) 0.01852(9)
F6 F 0.6928(7) 0.7581(5) 0.04297(12)
C1 C 0.7518(8) 0.5453(7) 0.16136(13)
C2 C 0.9095(8) 0.6058(5) 0.14599(13)
C3 C 1.0600(9) 0.6218(6) 0.17088(14)
H1 H 1.1773 0.6612 0.1650
C4 C 1.0152(9) 0.5738(6) 0.20394(14)
C5 C 1.1306(9) 0.5649(7) 0.23714(17)
C6 C 1.2865(11) 0.6444(7) 0.23899(17)
H2 H 1.3211 0.7052 0.2202
C7 C 1.4102(10) 0.6365(7) 0.27197(18)
C8 C 1.5694(12) 0.7167(9) 0.2737(2)
H3 H 1.6060 0.7805 0.2556
C9 C 1.6771(12) 0.6980(10) 0.3043(2)
H4 H 1.7894 0.7506 0.3065
C10 C 1.6225(15) 0.6021(12) 0.3324(2)
H5 H 1.6995 0.5915 0.3522
C11 C 1.4611(13) 0.5282(12) 0.3302(2)
H6 H 1.4225 0.4666 0.3486
C12 C 1.3420(10) 0.5452(7) 0.29791(18)
C13 C 1.1764(12) 0.4642(9) 0.29554(18)
H7 H 1.1379 0.4026 0.3139
C14 C 1.0721(11) 0.4775(9) 0.26560(16)
H8 H 0.9580 0.4268 0.2640
C15 C 0.5573(8) 0.5167(10) 0.14676(17)
H9 H 0.5250 0.5934 0.1303
H10 H 0.4674 0.5160 0.1657
H11 H 0.5557 0.4225 0.1350
C16 C 0.9198(8) 0.6506(5) 0.10892(14)
C17 C 1.0164(11) 0.7954(8) 0.09967(17)
C18 C 1.0051(11) 0.8030(7) 0.05931(16)
C19 C 0.8619(10) 0.6877(7) 0.04850(16)
C20 C 0.8457(8) 0.5855(6) 0.07985(14)
C21 C 0.7669(8) 0.4365(6) 0.07622(13)
C22 C 0.8462(9) 0.3128(6) 0.09012(15)
C23 C 1.0183(10) 0.2829(8) 0.11054(18)
H12 H 1.1025 0.3659 0.1087
H13 H 1.0791 0.1959 0.1014
H14 H 0.9858 0.2674 0.1349
O1 O 0.7394(7) 0.1895(4) 0.08233(11)
C24 C 0.5880(10) 0.2390(7) 0.06261(16)
C25 C 0.4459(13) 0.1494(8) 0.0489(2)
H15 H 0.4454 0.0473 0.0522
C26 C 0.3066(13) 0.2201(11) 0.0302(2)
H16 H 0.2078 0.1653 0.0206
C27 C 0.3116(11) 0.3719(11) 0.02531(19)
H17 H 0.2159 0.4168 0.0124
C28 C 0.4527(9) 0.4584(8) 0.03893(15)
H18 H 0.4519 0.5604 0.0356
C29 C 0.5960(10) 0.3910(7) 0.05768(14)
loop_
_geom_bond_atom_site_label_1
_geom_bond_atom_site_label_2
_geom_bond_site_symmetry_1
_geom_bond_site_symmetry_2
S1 C1 1_555 1_555
F1 C17 1_555 1_555
F2 C17 1_555 1_555
F3 C18 1_555 1_555
F4 C18 1_555 1_555
F5 C19 1_555 1_555
F6 C19 1_555 1_555
C1 C2 1_555 1_555
C2 C3 1_555 1_555
C3 H1 1_555 1_555
C4 S1 1_555 1_555
C5 C4 1_555 1_555
C6 C5 1_555 1_555
H2 C6 1_555 1_555
C7 C6 1_555 1_555
C8 C7 1_555 1_555
H3 C8 1_555 1_555
C9 C8 1_555 1_555
H4 C9 1_555 1_555
C10 C9 1_555 1_555
H5 C10 1_555 1_555
C11 C10 1_555 1_555
H6 C11 1_555 1_555
C12 C7 1_555 1_555
C13 C12 1_555 1_555
H7 C13 1_555 1_555
C14 C5 1_555 1_555
H8 C14 1_555 1_555
C15 C1 1_555 1_555
H9 C15 1_555 1_555
H10 C15 1_555 1_555
H11 C15 1_555 1_555
C16 C2 1_555 1_555
C17 C16 1_555 1_555
C18 C17 1_555 1_555
C19 C18 1_555 1_555
C20 C16 1_555 1_555
C21 C20 1_555 1_555
C22 C21 1_555 1_555
C23 C22 1_555 1_555
H12 C23 1_555 1_555
H13 C23 1_555 1_555
H14 C23 1_555 1_555
O1 C22 1_555 1_555
C24 O1 1_555 1_555
C25 C24 1_555 1_555
H15 C25 1_555 1_555
C26 C25 1_555 1_555
H16 C26 1_555 1_555
C27 C26 1_555 1_555
H17 C27 1_555 1_555
C28 C27 1_555 1_555
H18 C28 1_555 1_555
C29 C21 1_555 1_555
C3 C4 1_555 1_555
C11 C12 1_555 1_555
C13 C14 1_555 1_555
C19 C20 1_555 1_555
C24 C29 1_555 1_555
C28 C29 1_555 1_555

#END
