
#######################################################################
#
#                 Cambridge Crystallographic Data Centre
#                                CCDC 
#
#######################################################################
#
# If this CIF has been generated from an entry in the Cambridge 
# Structural Database, then it will include bibliographic, chemical, 
# crystal, experimental, refinement or atomic coordinate data resulting 
# from the CCDC's data processing and validation procedures.
#
#######################################################################

data_JINFIY
_chemical_formula_moiety         'C38 H28 B1 F10 O1 P1'
_chemical_name_systematic        
1,1-dimesityl-3,3-bis(pentafluorophenyl)-5-phenyl-2-oxa-1-phosphonia-3-boratacyclopent-4-ene
_symmetry_cell_setting           triclinic
_symmetry_space_group_name_H-M   'P -1'
_symmetry_Int_Tables_number      2
_space_group_name_Hall           '-P 1'
loop_
_symmetry_equiv_pos_site_id
_symmetry_equiv_pos_as_xyz
1 x,y,z
2 -x,-y,-z
_cell_length_a                   13.951(2)
_cell_length_b                   15.282(2)
_cell_length_c                   16.319(2)
_cell_angle_alpha                82.719(2)
_cell_angle_beta                 79.714(2)
_cell_angle_gamma                89.784(2)
_cell_volume                     3395.04
_exptl_crystal_colour            colorless
_exptl_crystal_description       block
_cell_formula_units_Z            4
loop_
_atom_site_label
_atom_site_type_symbol
_atom_site_fract_x
_atom_site_fract_y
_atom_site_fract_z
B1 B 0.0661(4) 0.7363(3) 0.3124(4)
C1 C 0.1651(3) 0.7542(3) 0.2453(3)
H1 H 0.2039 0.7079 0.2281
C2 C 0.1898(3) 0.8373(3) 0.2152(3)
C3 C 0.2845(3) 0.8670(3) 0.1617(3)
C4 C 0.3415(3) 0.9314(3) 0.1837(3)
H2 H 0.3175 0.9614 0.2290
C5 C 0.4340(4) 0.9510(4) 0.1382(4)
H3 H 0.4718 0.9938 0.1539
C6 C 0.4707(4) 0.9098(4) 0.0720(4)
H4 H 0.5327 0.9243 0.0416
C7 C 0.4142(4) 0.8448(4) 0.0494(3)
H5 H 0.4395 0.8150 0.0043
C8 C 0.3218(3) 0.8242(4) 0.0929(3)
H6 H 0.2843 0.7817 0.0765
C9 C 0.1257(4) 0.9253(3) 0.4493(3)
H7 H 0.1442 0.9412 0.4995
H8 H 0.1660 0.8784 0.4298
H9 H 0.0587 0.9061 0.4612
C10 C 0.2032(5) 1.2479(4) 0.3764(4)
H10 H 0.2631 1.2716 0.3425
H11 H 0.2104 1.2382 0.4342
H12 H 0.1519 1.2889 0.3701
C11 C 0.1425(4) 1.0791(3) 0.1473(3)
H13 H 0.0759 1.0746 0.1403
H14 H 0.1782 1.0304 0.1261
H15 H 0.1711 1.1335 0.1170
C12 C 0.1288(3) 0.9998(3) 0.2976(3)
C13 C 0.1389(3) 1.0047(3) 0.3821(3)
C14 C 0.1632(3) 1.0849(3) 0.4047(3)
H16 H 0.1697 1.0878 0.4600
C15 C 0.1779(3) 1.1604(3) 0.3482(4)
C16 C 0.1704(4) 1.1550(3) 0.2668(4)
H17 H 0.1818 1.2057 0.2283
C17 C 0.1464(3) 1.0772(3) 0.2388(3)
C18 C -0.1047(4) 0.9724(4) 0.3416(3)
H18 H -0.1714 0.9840 0.3634
H19 H -0.0654 1.0242 0.3399
H20 H -0.0824 0.9247 0.3772
C19 C -0.2783(4) 0.9202(5) 0.1082(5)
H21 H -0.2689 0.8881 0.0606
H22 H -0.2990 0.9789 0.0919
H23 H -0.3272 0.8907 0.1518
C20 C 0.0814(4) 0.8810(4) 0.0647(3)
H24 H 0.0841 0.8182 0.0652
H25 H 0.1384 0.9018 0.0823
H26 H 0.0789 0.9085 0.0089
C21 C -0.0081(3) 0.9227(3) 0.2060(3)
C22 C -0.0969(3) 0.9478(3) 0.2551(3)
C23 C -0.1813(4) 0.9472(3) 0.2206(3)
H27 H -0.2397 0.9623 0.2525
C24 C -0.1820(4) 0.9251(4) 0.1409(4)
C25 C -0.0960(4) 0.9061(3) 0.0945(3)
H28 H -0.0955 0.8938 0.0400
C26 C -0.0080(3) 0.9038(3) 0.1237(3)
C27 C 0.0802(3) 0.6652(3) 0.3928(3)
C28 C 0.0558(4) 0.6760(3) 0.4767(4)
C29 C 0.0689(4) 0.6123(4) 0.5420(4)
C30 C 0.1066(4) 0.5349(4) 0.5254(5)
C31 C 0.1321(4) 0.5182(3) 0.4427(6)
C32 C 0.1188(4) 0.5835(3) 0.3797(4)
C33 C -0.0277(3) 0.7076(3) 0.2740(3)
C34 C -0.1217(4) 0.7154(3) 0.3159(3)
C35 C -0.2035(4) 0.7001(3) 0.2810(4)
C36 C -0.1935(5) 0.6731(4) 0.2041(5)
C37 C -0.1032(5) 0.6611(4) 0.1614(4)
C38 C -0.0226(4) 0.6764(3) 0.1957(4)
F1 F 0.1417(3) 0.5643(2) 0.3000(2)
F2 F 0.1684(3) 0.4410(2) 0.4230(3)
F3 F 0.1194(3) 0.4718(2) 0.5873(3)
F4 F 0.0406(3) 0.6276(3) 0.6229(2)
F5 F 0.0137(2) 0.75172(18) 0.50076(17)
F6 F 0.0640(3) 0.6624(2) 0.1489(2)
F7 F -0.0929(4) 0.6369(3) 0.0850(3)
F8 F -0.2731(3) 0.6615(3) 0.1723(3)
F9 F -0.2930(2) 0.7116(3) 0.3262(3)
F10 F -0.1363(2) 0.7421(2) 0.3918(2)
O1 O 0.0465(2) 0.83021(18) 0.33678(18)
P1 P 0.09090(8) 0.90106(7) 0.26330(7)
B2 B 0.5144(4) 0.2380(3) 0.3162(3)
C39 C 0.4460(3) 0.2563(3) 0.2475(3)
H29 H 0.4161 0.2094 0.2301
C40 C 0.4320(3) 0.3381(3) 0.2155(3)
C41 C 0.3632(3) 0.3700(3) 0.1603(3)
C42 C 0.2987(4) 0.4356(3) 0.1762(4)
H30 H 0.3029 0.4670 0.2207
C43 C 0.2273(4) 0.4573(4) 0.1289(4)
H31 H 0.1842 0.5021 0.1419
C44 C 0.2207(5) 0.4128(5) 0.0632(4)
H32 H 0.1727 0.4272 0.0311
C45 C 0.2835(4) 0.3473(5) 0.0440(4)
H33 H 0.2794 0.3181 -0.0019
C46 C 0.3540(4) 0.3236(4) 0.0929(3)
H34 H 0.3951 0.2770 0.0809
C47 C 0.3942(4) 0.4294(3) 0.4487(3)
H35 H 0.4555 0.4113 0.4635
H36 H 0.3649 0.3816 0.4285
H37 H 0.3518 0.4457 0.4972
C48 C 0.3496(5) 0.7521(3) 0.3754(4)
H38 H 0.4026 0.7944 0.3637
H39 H 0.3243 0.7439 0.4346
H40 H 0.2991 0.7732 0.3455
C49 C 0.5075(4) 0.5808(4) 0.1456(3)
H41 H 0.4912 0.6347 0.1144
H42 H 0.4802 0.5316 0.1259
H43 H 0.5770 0.5759 0.1380
C50 C 0.4568(3) 0.5030(3) 0.2974(3)
C51 C 0.4105(3) 0.5073(3) 0.3810(3)
C52 C 0.3782(3) 0.5883(3) 0.4025(3)
H44 H 0.3492 0.5909 0.4581
C53 C 0.3857(4) 0.6655(3) 0.3481(4)
C54 C 0.4294(4) 0.6584(3) 0.2659(4)
H45 H 0.4342 0.7087 0.2267
C55 C 0.4659(3) 0.5814(3) 0.2391(3)
C56 C 0.6741(4) 0.4751(4) 0.3420(3)
H46 H 0.7323 0.4850 0.3636
H47 H 0.6350 0.4295 0.3786
H48 H 0.6379 0.5286 0.3388
C57 C 0.9431(4) 0.4110(5) 0.1144(5)
H49 H 0.9790 0.4438 0.1457
H50 H 0.9585 0.4339 0.0560
H51 H 0.9603 0.3500 0.1218
C58 C 0.6025(4) 0.3833(4) 0.0646(3)
H52 H 0.6310 0.4084 0.0086
H53 H 0.5402 0.4090 0.0806
H54 H 0.5943 0.3207 0.0662
C59 C 0.6336(3) 0.4228(3) 0.2069(3)
C60 C 0.7011(3) 0.4474(3) 0.2558(3)
C61 C 0.8008(3) 0.4438(3) 0.2235(4)
H55 H 0.8453 0.4584 0.2559
C62 C 0.8353(4) 0.4194(4) 0.1456(4)
C63 C 0.7677(4) 0.4007(3) 0.0970(3)
H56 H 0.7908 0.3869 0.0431
C64 C 0.6678(3) 0.4014(3) 0.1240(3)
C65 C 0.6251(3) 0.2093(3) 0.2807(3)
C66 C 0.6999(4) 0.2177(3) 0.3242(4)
C67 C 0.7953(4) 0.2002(4) 0.2920(5)
C68 C 0.8190(5) 0.1759(4) 0.2139(6)
C69 C 0.7468(6) 0.1630(4) 0.1704(4)
C70 C 0.6539(5) 0.1791(4) 0.2046(4)
C71 C 0.4640(3) 0.1683(3) 0.3964(3)
C72 C 0.4535(4) 0.1796(3) 0.4799(3)
C73 C 0.4117(4) 0.1154(4) 0.5444(4)
C74 C 0.3819(4) 0.0378(4) 0.5280(5)
C75 C 0.3946(4) 0.0238(3) 0.4469(5)
C76 C 0.4329(4) 0.0866(3) 0.3831(4)
F11 F 0.6783(2) 0.2423(2) 0.4016(2)
F12 F 0.8629(3) 0.2107(3) 0.3396(4)
F13 F 0.9135(3) 0.1625(3) 0.1827(4)
F14 F 0.7719(4) 0.1395(3) 0.0941(3)
F15 F 0.5883(3) 0.1663(3) 0.1554(2)
F16 F 0.4465(3) 0.0678(2) 0.3050(2)
F17 F 0.3655(3) -0.0545(2) 0.4293(3)
F18 F 0.3453(3) -0.0238(2) 0.5911(3)
F19 F 0.4059(3) 0.1320(3) 0.6261(2)
F20 F 0.4830(2) 0.25633(19) 0.50462(17)
O2 O 0.5225(2) 0.33303(18) 0.33854(18)
P2 P 0.51010(8) 0.40350(7) 0.26392(7)
loop_
_geom_bond_atom_site_label_1
_geom_bond_atom_site_label_2
_geom_bond_site_symmetry_1
_geom_bond_site_symmetry_2
B1 C1 1_555 1_555
C1 H1 1_555 1_555
C2 C1 1_555 1_555
C3 C2 1_555 1_555
C4 C3 1_555 1_555
H2 C4 1_555 1_555
C5 C4 1_555 1_555
H3 C5 1_555 1_555
C6 C5 1_555 1_555
H4 C6 1_555 1_555
C7 C6 1_555 1_555
H5 C7 1_555 1_555
C8 C3 1_555 1_555
H6 C8 1_555 1_555
C9 H7 1_555 1_555
H8 C9 1_555 1_555
H9 C9 1_555 1_555
C10 H10 1_555 1_555
H11 C10 1_555 1_555
H12 C10 1_555 1_555
C11 H13 1_555 1_555
H14 C11 1_555 1_555
H15 C11 1_555 1_555
C12 C13 1_555 1_555
C13 C9 1_555 1_555
C14 C13 1_555 1_555
H16 C14 1_555 1_555
C15 C10 1_555 1_555
C16 C15 1_555 1_555
H17 C16 1_555 1_555
C17 C11 1_555 1_555
C18 H18 1_555 1_555
H19 C18 1_555 1_555
H20 C18 1_555 1_555
C19 H21 1_555 1_555
H22 C19 1_555 1_555
H23 C19 1_555 1_555
C20 H24 1_555 1_555
H25 C20 1_555 1_555
H26 C20 1_555 1_555
C21 C22 1_555 1_555
C22 C18 1_555 1_555
C23 C22 1_555 1_555
H27 C23 1_555 1_555
C24 C19 1_555 1_555
C25 C24 1_555 1_555
H28 C25 1_555 1_555
C26 C20 1_555 1_555
C27 B1 1_555 1_555
C28 C27 1_555 1_555
C29 C28 1_555 1_555
C30 C29 1_555 1_555
C31 C30 1_555 1_555
C32 C27 1_555 1_555
C33 B1 1_555 1_555
C34 C33 1_555 1_555
C35 C34 1_555 1_555
C36 C35 1_555 1_555
C37 C36 1_555 1_555
C38 C33 1_555 1_555
F1 C32 1_555 1_555
F2 C31 1_555 1_555
F3 C30 1_555 1_555
F4 C29 1_555 1_555
F5 C28 1_555 1_555
F6 C38 1_555 1_555
F7 C37 1_555 1_555
F8 C36 1_555 1_555
F9 C35 1_555 1_555
F10 C34 1_555 1_555
O1 B1 1_555 1_555
P1 C2 1_555 1_555
B2 C39 1_555 1_555
C39 H29 1_555 1_555
C40 C39 1_555 1_555
C41 C40 1_555 1_555
C42 C41 1_555 1_555
H30 C42 1_555 1_555
C43 C42 1_555 1_555
H31 C43 1_555 1_555
C44 C43 1_555 1_555
H32 C44 1_555 1_555
C45 C44 1_555 1_555
H33 C45 1_555 1_555
C46 C41 1_555 1_555
H34 C46 1_555 1_555
C47 H35 1_555 1_555
H36 C47 1_555 1_555
H37 C47 1_555 1_555
C48 H38 1_555 1_555
H39 C48 1_555 1_555
H40 C48 1_555 1_555
C49 H41 1_555 1_555
H42 C49 1_555 1_555
H43 C49 1_555 1_555
C50 C51 1_555 1_555
C51 C47 1_555 1_555
C52 C51 1_555 1_555
H44 C52 1_555 1_555
C53 C48 1_555 1_555
C54 C53 1_555 1_555
H45 C54 1_555 1_555
C55 C49 1_555 1_555
C56 H46 1_555 1_555
H47 C56 1_555 1_555
H48 C56 1_555 1_555
C57 H49 1_555 1_555
H50 C57 1_555 1_555
H51 C57 1_555 1_555
C58 H52 1_555 1_555
H53 C58 1_555 1_555
H54 C58 1_555 1_555
C59 C60 1_555 1_555
C60 C56 1_555 1_555
C61 C60 1_555 1_555
H55 C61 1_555 1_555
C62 C57 1_555 1_555
C63 C62 1_555 1_555
H56 C63 1_555 1_555
C64 C58 1_555 1_555
C65 B2 1_555 1_555
C66 C65 1_555 1_555
C67 C66 1_555 1_555
C68 C67 1_555 1_555
C69 C68 1_555 1_555
C70 C65 1_555 1_555
C71 B2 1_555 1_555
C72 C71 1_555 1_555
C73 C72 1_555 1_555
C74 C73 1_555 1_555
C75 C74 1_555 1_555
C76 C71 1_555 1_555
F11 C66 1_555 1_555
F12 C67 1_555 1_555
F13 C68 1_555 1_555
F14 C69 1_555 1_555
F15 C70 1_555 1_555
F16 C76 1_555 1_555
F17 C75 1_555 1_555
F18 C74 1_555 1_555
F19 C73 1_555 1_555
F20 C72 1_555 1_555
O2 B2 1_555 1_555
P2 C40 1_555 1_555
C7 C8 1_555 1_555
C12 C17 1_555 1_555
C12 P1 1_555 1_555
C14 C15 1_555 1_555
C16 C17 1_555 1_555
C21 C26 1_555 1_555
C21 P1 1_555 1_555
C23 C24 1_555 1_555
C25 C26 1_555 1_555
C31 C32 1_555 1_555
C37 C38 1_555 1_555
O1 P1 1_555 1_555
C45 C46 1_555 1_555
C50 C55 1_555 1_555
C50 P2 1_555 1_555
C52 C53 1_555 1_555
C54 C55 1_555 1_555
C59 C64 1_555 1_555
C59 P2 1_555 1_555
C61 C62 1_555 1_555
C63 C64 1_555 1_555
C69 C70 1_555 1_555
C75 C76 1_555 1_555
O2 P2 1_555 1_555

#END
