
#######################################################################
#
#                 Cambridge Crystallographic Data Centre
#                                CCDC 
#
#######################################################################
#
# If this CIF has been generated from an entry in the Cambridge 
# Structural Database, then it will include bibliographic, chemical, 
# crystal, experimental, refinement or atomic coordinate data resulting 
# from the CCDC's data processing and validation procedures.
#
#######################################################################

data_JINHAS
_chemical_compound_source        
'sponge-derived fungus Aspergillus flocculosus 16D-1'
_chemical_name_common            'aperflosterol methanol unknown solvate'
_chemical_formula_moiety         'C28 H42 O7,C1 H4 O1'
_chemical_name_systematic        
'3,5,12,14,23-pentahydroxy-24-methylfurosta-6,8-dien-11-one methanol unknown solvate'
_chemical_properties_biological  
'tested for cytotoxic activity against A549, HepG2 and THP-1 cell lines'
_symmetry_cell_setting           orthorhombic
_symmetry_space_group_name_H-M   'P 21 21 21'
_symmetry_Int_Tables_number      19
_space_group_name_Hall           'P 2ac 2ab'
loop_
_symmetry_equiv_pos_site_id
_symmetry_equiv_pos_as_xyz
1 x,y,z
2 1/2-x,-y,1/2+z
3 -x,1/2+y,1/2-z
4 1/2+x,1/2-y,-z
_cell_length_a                   7.4626(2)
_cell_length_b                   12.3602(4)
_cell_length_c                   32.4461(11)
_cell_angle_alpha                90
_cell_angle_beta                 90
_cell_angle_gamma                90
_cell_volume                     2992.8
_exptl_crystal_colour            colorless
_exptl_crystal_description       plate
_cell_formula_units_Z            4
_exptl_crystal_recrystallization_method 
'Re-crystallisation from solvent: methanol'
loop_
_atom_site_label
_atom_site_type_symbol
_atom_site_fract_x
_atom_site_fract_y
_atom_site_fract_z
O1 O 0.2344(7) 0.2078(3) 0.60152(13)
H1 H 0.338883 0.189504 0.608199
O2 O 0.0807(5) 0.5792(3) 0.57677(11)
H2 H 0.119783 0.589163 0.600740
O3 O -0.1063(5) 0.4822(3) 0.43711(11)
O4 O -0.0823(5) 0.6467(3) 0.38570(10)
H3 H -0.017909 0.632585 0.365147
O5 O 0.3514(5) 0.7733(3) 0.46737(11)
H4 H 0.432271 0.810573 0.456275
O6 O 0.6007(5) 0.5316(3) 0.36879(10)
O7 O 0.4422(6) 0.3328(3) 0.35022(12)
H5 H 0.340733 0.354642 0.357766
C1 C 0.1374(8) 0.3503(4) 0.50157(15)
H6 H 0.061728 0.329737 0.477759
H7 H 0.262424 0.356686 0.491678
C2 C 0.1277(9) 0.2604(4) 0.53422(17)
H8 H 0.002250 0.250598 0.543430
H9 H 0.170015 0.191201 0.522309
C3 C 0.2427(9) 0.2912(4) 0.56998(16)
H10 H 0.369387 0.301052 0.560648
C4 C 0.1744(8) 0.3950(3) 0.58917(16)
H11 H 0.250555 0.414066 0.613070
H12 H 0.050730 0.383592 0.599344
C5 C 0.1752(7) 0.4898(4) 0.55797(15)
C6 C 0.3638(8) 0.5269(4) 0.55077(15)
H13 H 0.453006 0.512531 0.570926
C7 C 0.4078(7) 0.5798(4) 0.51639(15)
H14 H 0.525107 0.608785 0.513653
C8 C 0.2799(8) 0.5941(4) 0.48308(15)
C9 C 0.1212(7) 0.5424(3) 0.48325(14)
C10 C 0.0747(7) 0.4622(3) 0.51798(15)
C11 C 0.0070(7) 0.5503(4) 0.44725(15)
C12 C 0.0244(7) 0.6516(4) 0.42094(15)
H15 H -0.013128 0.715542 0.437722
C13 C 0.2228(7) 0.6649(4) 0.40911(15)
C14 C 0.3429(7) 0.6707(4) 0.44800(16)
C15 C 0.5259(7) 0.6354(4) 0.43104(15)
H16 H 0.583038 0.694881 0.415399
H17 H 0.606841 0.613145 0.453680
C16 C 0.4836(7) 0.5397(4) 0.40278(15)
H18 H 0.484182 0.470719 0.418885
C17 C 0.2914(7) 0.5628(4) 0.38558(15)
H19 H 0.211926 0.500103 0.392383
C18 C 0.2399(9) 0.7706(4) 0.38473(17)
H20 H 0.198284 0.831079 0.401738
H21 H 0.166715 0.766079 0.359703
H22 H 0.365541 0.782100 0.377146
C19 C -0.1274(7) 0.4587(4) 0.52651(16)
H23 H -0.150795 0.411953 0.550298
H24 H -0.189944 0.430075 0.502298
H25 H -0.170663 0.531995 0.532391
C20 C 0.3163(8) 0.5680(4) 0.33883(17)
H26 H 0.323027 0.646239 0.331156
C21 C 0.1633(9) 0.5194(6) 0.31475(18)
H27 H 0.194432 0.517557 0.285409
H28 H 0.055475 0.563422 0.318666
H29 H 0.140736 0.445617 0.324514
C22 C 0.5024(7) 0.5195(4) 0.33139(15)
H30 H 0.563092 0.564051 0.309791
C23 C 0.5065(8) 0.3999(4) 0.31701(16)
H31 H 0.420130 0.392611 0.293602
C24 C 0.6918(9) 0.3629(5) 0.30137(17)
H32 H 0.782143 0.384062 0.322670
C25 C 0.7016(11) 0.2377(5) 0.2964(2)
H33 H 0.670857 0.205467 0.323739
C26 C 0.8921(12) 0.2013(7) 0.2859(3)
H34 H 0.930327 0.235386 0.260116
H35 H 0.894507 0.122421 0.282765
H36 H 0.973485 0.222610 0.308184
C27 C 0.5663(14) 0.1939(6) 0.2653(2)
H37 H 0.447563 0.223915 0.271302
H38 H 0.561783 0.114838 0.267302
H39 H 0.602641 0.214831 0.237412
C28 C 0.7393(11) 0.4222(6) 0.26195(19)
H40 H 0.645068 0.410236 0.241407
H41 H 0.853578 0.394822 0.251325
H42 H 0.749941 0.499794 0.267617
O8 O 0.2522(9) 0.6699(4) 0.64252(14)
H43 H 0.354344 0.680934 0.632497
C29 C 0.267(2) 0.6468(10) 0.6820(3)
H44 H 0.379235 0.607092 0.686666
H45 H 0.165631 0.602083 0.690598
H46 H 0.268657 0.713963 0.697999
loop_
_geom_bond_atom_site_label_1
_geom_bond_atom_site_label_2
_geom_bond_site_symmetry_1
_geom_bond_site_symmetry_2
O1 H1 1_555 1_555
O2 H2 1_555 1_555
O3 C11 1_555 1_555
O4 H3 1_555 1_555
O5 H4 1_555 1_555
O6 C16 1_555 1_555
O7 H5 1_555 1_555
C1 H6 1_555 1_555
H7 C1 1_555 1_555
C2 C1 1_555 1_555
H8 C2 1_555 1_555
H9 C2 1_555 1_555
C3 O1 1_555 1_555
H10 C3 1_555 1_555
C4 C3 1_555 1_555
H11 C4 1_555 1_555
H12 C4 1_555 1_555
C5 O2 1_555 1_555
C6 C5 1_555 1_555
H13 C6 1_555 1_555
C7 C6 1_555 1_555
H14 C7 1_555 1_555
C8 C7 1_555 1_555
C9 C8 1_555 1_555
C10 C1 1_555 1_555
C11 C9 1_555 1_555
C12 O4 1_555 1_555
H15 C12 1_555 1_555
C13 C12 1_555 1_555
C14 O5 1_555 1_555
C15 C14 1_555 1_555
H16 C15 1_555 1_555
H17 C15 1_555 1_555
C16 C15 1_555 1_555
H18 C16 1_555 1_555
C17 C13 1_555 1_555
H19 C17 1_555 1_555
C18 C13 1_555 1_555
H20 C18 1_555 1_555
H21 C18 1_555 1_555
H22 C18 1_555 1_555
C19 C10 1_555 1_555
H23 C19 1_555 1_555
H24 C19 1_555 1_555
H25 C19 1_555 1_555
C20 C17 1_555 1_555
H26 C20 1_555 1_555
C21 C20 1_555 1_555
H27 C21 1_555 1_555
H28 C21 1_555 1_555
H29 C21 1_555 1_555
C22 O6 1_555 1_555
H30 C22 1_555 1_555
C23 O7 1_555 1_555
H31 C23 1_555 1_555
C24 C23 1_555 1_555
H32 C24 1_555 1_555
C25 C24 1_555 1_555
H33 C25 1_555 1_555
C26 C25 1_555 1_555
H34 C26 1_555 1_555
H35 C26 1_555 1_555
H36 C26 1_555 1_555
C27 C25 1_555 1_555
H37 C27 1_555 1_555
H38 C27 1_555 1_555
H39 C27 1_555 1_555
C28 C24 1_555 1_555
H40 C28 1_555 1_555
H41 C28 1_555 1_555
H42 C28 1_555 1_555
O8 H43 1_555 1_555
C29 O8 1_555 1_555
H44 C29 1_555 1_555
H45 C29 1_555 1_555
H46 C29 1_555 1_555
C2 C3 1_555 1_555
C4 C5 1_555 1_555
C5 C10 1_555 1_555
C8 C14 1_555 1_555
C9 C10 1_555 1_555
C11 C12 1_555 1_555
C13 C14 1_555 1_555
C16 C17 1_555 1_555
C20 C22 1_555 1_555
C22 C23 1_555 1_555

#END
