
#######################################################################
#
#                 Cambridge Crystallographic Data Centre
#                                CCDC 
#
#######################################################################
#
# If this CIF has been generated from an entry in the Cambridge 
# Structural Database, then it will include bibliographic, chemical, 
# crystal, experimental, refinement or atomic coordinate data resulting 
# from the CCDC's data processing and validation procedures.
#
#######################################################################

data_JINSUX
_chemical_formula_moiety         'C29 H29 F1 N2 O6 S1'
_chemical_name_systematic        
'Ethyl-(S)-3-((S)-2-(t-butoxy)-1-((diphenylmethylene)amino)-2-oxoethyl)-7-fluoro-2,3-dihydrobenzo[d]isothiazole-3-carboxylate 1,1-dioxide'
_symmetry_cell_setting           orthorhombic
_symmetry_space_group_name_H-M   'P 21 21 21'
_symmetry_Int_Tables_number      19
_space_group_name_Hall           'P 2ac 2ab'
loop_
_symmetry_equiv_pos_site_id
_symmetry_equiv_pos_as_xyz
1 x,y,z
2 1/2-x,-y,1/2+z
3 -x,1/2+y,1/2-z
4 1/2+x,1/2-y,-z
_cell_length_a                   10.7806(5)
_cell_length_b                   12.6094(5)
_cell_length_c                   20.3982(9)
_cell_angle_alpha                90
_cell_angle_beta                 90
_cell_angle_gamma                90
_cell_volume                     2772.87
_exptl_crystal_colour            colorless
_exptl_crystal_description       block
_chemical_melting_point          '400 K'
_cell_formula_units_Z            4
_exptl_crystal_recrystallization_method 'petroleum ether/ethyl ether'
loop_
_atom_site_label
_atom_site_type_symbol
_atom_site_fract_x
_atom_site_fract_y
_atom_site_fract_z
S1 S 0.61323(6) 0.94965(4) 0.58854(3)
F1 F 0.76886(18) 1.13755(13) 0.64414(11)
O1 O 0.64856(15) 0.69311(15) 0.69553(9)
N1 N 0.66782(19) 0.61081(15) 0.57411(10)
C1 C 0.5679(2) 0.44350(19) 0.56648(12)
O2 O 0.85462(17) 0.72292(17) 0.70251(10)
N2 N 0.62928(18) 0.82678(15) 0.56707(11)
H1 H 0.5642 0.7862 0.5601
C2 C 0.4512(3) 0.48775(19) 0.55735(13)
H2 H 0.4404 0.5620 0.5630
O3 O 0.53716(19) 0.95785(17) 0.64541(11)
C3 C 0.3505(3) 0.4258(2) 0.54015(14)
H3 H 0.2709 0.4570 0.5346
O4 O 0.57998(18) 1.01684(14) 0.53463(10)
C4 C 0.3671(3) 0.3172(2) 0.53101(14)
H4 H 0.2988 0.2741 0.5184
O5 O 0.71832(17) 0.81089(14) 0.44472(9)
C5 C 0.4817(3) 0.2722(2) 0.54008(15)
H5 H 0.4923 0.1981 0.5337
C6 C 0.5822(3) 0.33404(18) 0.55852(13)
H6 H 0.6608 0.3020 0.5658
O6 O 0.87825(19) 0.70819(16) 0.47451(10)
C7 C 0.7797(2) 0.45807(18) 0.62060(13)
C8 C 0.7632(3) 0.4235(2) 0.68473(15)
H7 H 0.6857 0.4334 0.7061
C9 C 0.8606(3) 0.3746(2) 0.71747(17)
H8 H 0.8504 0.3529 0.7617
C10 C 0.9720(3) 0.3573(2) 0.6859(2)
H9 H 1.0379 0.3227 0.7082
C11 C 0.9875(3) 0.3903(2) 0.62243(19)
H10 H 1.0642 0.3780 0.6008
C12 C 0.8922(2) 0.4415(2) 0.58942(15)
H11 H 0.9041 0.4650 0.5456
C13 C 0.6743(2) 0.51114(18) 0.58608(12)
C14 C 0.4817(3) 0.6994(3) 0.76839(16)
H12 H 0.4404 0.7489 0.7384
H13 H 0.4520 0.7115 0.8132
H14 H 0.4628 0.6264 0.7553
C15 C 0.6204(3) 0.7169(2) 0.76570(13)
C16 C 0.6517(3) 0.8321(2) 0.78087(16)
H15 H 0.7419 0.8418 0.7795
H16 H 0.6210 0.8503 0.8247
H17 H 0.6125 0.8783 0.7483
C17 C 0.6881(3) 0.6388(3) 0.80982(15)
H18 H 0.6681 0.5662 0.7963
H19 H 0.6621 0.6496 0.8554
H20 H 0.7778 0.6502 0.8062
C18 C 0.7629(2) 0.70059(18) 0.67219(13)
C19 C 0.7674(2) 0.67940(17) 0.59808(13)
H21 H 0.8491 0.6464 0.5869
C20 C 0.7540(2) 0.78582(17) 0.55971(13)
C21 C 0.7900(2) 0.76217(18) 0.48797(13)
C22 C 0.7532(3) 0.7959(2) 0.37574(13)
H22 H 0.7407 0.7210 0.3627
H23 H 0.8417 0.8141 0.3693
C23 C 0.6731(3) 0.8668(3) 0.33533(16)
H24 H 0.6940 0.8580 0.2889
H25 H 0.6868 0.9407 0.3483
H26 H 0.5858 0.8482 0.3422
C24 C 0.8378(2) 0.87381(18) 0.58484(13)
C25 C 0.9662(2) 0.8735(2) 0.58733(15)
H27 H 1.0120 0.8133 0.5732
C26 C 1.0264(3) 0.9627(2) 0.61076(16)
H28 H 1.1145 0.9629 0.6130
C27 C 0.9613(3) 1.0521(2) 0.63108(18)
H29 H 1.0039 1.1126 0.6474
C28 C 0.8347(3) 1.0511(2) 0.62707(16)
C29 C 0.7728(2) 0.96258(19) 0.60431(13)
loop_
_geom_bond_atom_site_label_1
_geom_bond_atom_site_label_2
_geom_bond_site_symmetry_1
_geom_bond_site_symmetry_2
S1 N2 1_555 1_555
F1 C28 1_555 1_555
O1 C15 1_555 1_555
N1 C13 1_555 1_555
C1 C2 1_555 1_555
O2 C18 1_555 1_555
N2 H1 1_555 1_555
C2 H2 1_555 1_555
O3 S1 1_555 1_555
C3 C2 1_555 1_555
H3 C3 1_555 1_555
O4 S1 1_555 1_555
C4 C3 1_555 1_555
H4 C4 1_555 1_555
O5 C21 1_555 1_555
C5 C4 1_555 1_555
H5 C5 1_555 1_555
C6 C1 1_555 1_555
H6 C6 1_555 1_555
O6 C21 1_555 1_555
C7 C8 1_555 1_555
C8 H7 1_555 1_555
C9 C8 1_555 1_555
H8 C9 1_555 1_555
C10 C9 1_555 1_555
H9 C10 1_555 1_555
C11 C10 1_555 1_555
H10 C11 1_555 1_555
C12 C7 1_555 1_555
H11 C12 1_555 1_555
C13 C1 1_555 1_555
C14 H12 1_555 1_555
H13 C14 1_555 1_555
H14 C14 1_555 1_555
C15 C14 1_555 1_555
C16 C15 1_555 1_555
H15 C16 1_555 1_555
H16 C16 1_555 1_555
H17 C16 1_555 1_555
C17 C15 1_555 1_555
H18 C17 1_555 1_555
H19 C17 1_555 1_555
H20 C17 1_555 1_555
C18 O1 1_555 1_555
C19 N1 1_555 1_555
H21 C19 1_555 1_555
C20 N2 1_555 1_555
C21 C20 1_555 1_555
C22 O5 1_555 1_555
H22 C22 1_555 1_555
H23 C22 1_555 1_555
C23 C22 1_555 1_555
H24 C23 1_555 1_555
H25 C23 1_555 1_555
H26 C23 1_555 1_555
C24 C20 1_555 1_555
C25 C24 1_555 1_555
H27 C25 1_555 1_555
C26 C25 1_555 1_555
H28 C26 1_555 1_555
C27 C26 1_555 1_555
H29 C27 1_555 1_555
C28 C27 1_555 1_555
C29 S1 1_555 1_555
C5 C6 1_555 1_555
C7 C13 1_555 1_555
C11 C12 1_555 1_555
C18 C19 1_555 1_555
C19 C20 1_555 1_555
C24 C29 1_555 1_555
C28 C29 1_555 1_555

#END
