
#######################################################################
#
#                 Cambridge Crystallographic Data Centre
#                                CCDC 
#
#######################################################################
#
# If this CIF has been generated from an entry in the Cambridge 
# Structural Database, then it will include bibliographic, chemical, 
# crystal, experimental, refinement or atomic coordinate data resulting 
# from the CCDC's data processing and validation procedures.
#
#######################################################################

data_JINTOP
_chemical_formula_moiety         'C14 H11 F4 N1 O6 S1'
_chemical_name_systematic        
exo-2-Ethoxysulfonyl-anti-8-nitro-3,4-(tetrafluorobenzo)bicyclo(3.2.1)octa-3,6-diene
_symmetry_cell_setting           triclinic
_symmetry_space_group_name_H-M   'P -1'
_symmetry_Int_Tables_number      2
_space_group_name_Hall           '-P 1'
loop_
_symmetry_equiv_pos_site_id
_symmetry_equiv_pos_as_xyz
1 x,y,z
2 -x,-y,-z
_cell_length_a                   9.162(2)
_cell_length_b                   9.2364(7)
_cell_length_c                   9.8887(8)
_cell_angle_alpha                92.374(7)
_cell_angle_beta                 97.474(9)
_cell_angle_gamma                94.231(9)
_cell_volume                     826.347
_cell_formula_units_Z            2
loop_
_atom_site_label
_atom_site_type_symbol
_atom_site_fract_x
_atom_site_fract_y
_atom_site_fract_z
C1 C -0.1484(2) 0.7306(2) 0.2077(2)
C2 C -0.0177(2) 0.6476(2) 0.1795(2)
C3 C 0.1221(2) 0.7465(2) 0.1822(2)
C4 C 0.1285(2) 0.8923(2) 0.2264(2)
C5 C -0.0108(3) 0.9550(2) 0.2619(2)
C6 C -0.1126(3) 0.9629(2) 0.1282(2)
C7 C -0.1859(3) 0.8356(2) 0.0962(2)
C8 C -0.0953(3) 0.8365(2) 0.3301(2)
C9 C 0.2450(3) 0.6922(3) 0.1376(3)
C10 C 0.3732(3) 0.7803(3) 0.1374(3)
C11 C 0.3792(3) 0.9221(3) 0.1774(3)
C12 C 0.2580(3) 0.9783(2) 0.2236(2)
C13 C -0.2686(5) 0.3935(5) 0.3931(5)
C14 C -0.4290(9) 0.3680(12) 0.3564(17)
F1 F 0.2425(2) 0.5507(2) 0.0952(2)
F2 F 0.4891(2) 0.7244(2) 0.0876(2)
F3 F 0.5025(2) 1.0091(2) 0.1723(2)
F4 F 0.2680(2) 1.1205(1) 0.2629(2)
N1 N -0.2230(2) 0.8942(2) 0.3919(2)
O1 O 0.0136(2) 0.5477(1) 0.2915(1)
O2 O -0.2070(2) 0.3777(2) 0.2640(2)
O3 O -0.0150(3) 0.3304(2) 0.1375(2)
O4 O 0.0272(2) 0.3195(2) 0.3860(2)
O5 O -0.3330(2) 0.8117(2) 0.3930(2)
O6 O -0.2077(2) 1.0172(2) 0.4419(2)
S1 S -0.0386(1) 0.3825(1) 0.2688(1)
loop_
_geom_bond_atom_site_label_1
_geom_bond_atom_site_label_2
_geom_bond_site_symmetry_1
_geom_bond_site_symmetry_2
C1 C2 1_555 1_555
C2 C3 1_555 1_555
C3 C4 1_555 1_555
C4 C5 1_555 1_555
C5 C6 1_555 1_555
C6 C7 1_555 1_555
C7 C1 1_555 1_555
C8 C1 1_555 1_555
C9 C3 1_555 1_555
C10 C9 1_555 1_555
C11 C10 1_555 1_555
C12 C4 1_555 1_555
C13 C14 1_555 1_555
F1 C9 1_555 1_555
F2 C10 1_555 1_555
F3 C11 1_555 1_555
F4 C12 1_555 1_555
N1 C8 1_555 1_555
O1 C2 1_555 1_555
O2 C13 1_555 1_555
O3 S1 1_555 1_555
O4 S1 1_555 1_555
O5 N1 1_555 1_555
O6 N1 1_555 1_555
S1 O1 1_555 1_555
C5 C8 1_555 1_555
C11 C12 1_555 1_555
O2 S1 1_555 1_555

#END
