
#######################################################################
#
#                 Cambridge Crystallographic Data Centre
#                                CCDC 
#
#######################################################################
#
# If this CIF has been generated from an entry in the Cambridge 
# Structural Database, then it will include bibliographic, chemical, 
# crystal, experimental, refinement or atomic coordinate data resulting 
# from the CCDC's data processing and validation procedures.
#
#######################################################################

data_JINVEK
_chemical_formula_moiety         'C21 H17 N1 O3 S1'
_chemical_name_systematic        
2-amino-1,3-diphenyl-3-(phenylsulfonyl)prop-2-en-1-one
_symmetry_cell_setting           monoclinic
_symmetry_space_group_name_H-M   'P 21/n'
_symmetry_Int_Tables_number      14
_space_group_name_Hall           '-P 2yn'
loop_
_symmetry_equiv_pos_site_id
_symmetry_equiv_pos_as_xyz
1 x,y,z
2 1/2-x,1/2+y,1/2-z
3 -x,-y,-z
4 1/2+x,1/2-y,1/2+z
_cell_length_a                   8.68339(11)
_cell_length_b                   24.2615(3)
_cell_length_c                   8.88445(11)
_cell_angle_alpha                90
_cell_angle_beta                 94.7096(11)
_cell_angle_gamma                90
_cell_volume                     1865.39
_exptl_crystal_colour            colorless
_exptl_crystal_description       block
_cell_formula_units_Z            4
_exptl_crystal_recrystallization_method 'ethyl acetate/ petroleum ether'
loop_
_atom_site_label
_atom_site_type_symbol
_atom_site_fract_x
_atom_site_fract_y
_atom_site_fract_z
S1 S 0.64749(6) 0.35311(2) 0.18628(6)
O1 O 0.73403(19) 0.30208(7) 0.1923(2)
O2 O 0.7177(2) 0.40005(8) 0.1206(2)
O3 O 0.6289(2) 0.24444(8) -0.1043(2)
N1 N 0.3022(3) 0.28629(9) -0.0720(3)
H1 H 0.310089 0.257502 -0.127701
C1 C 0.5460(3) 0.24634(9) -0.0012(2)
C2 C 0.4669(2) 0.34153(9) 0.0934(2)
C3 C 0.4370(3) 0.29514(9) 0.0107(2)
C4 C 0.3482(3) 0.38500(9) 0.1110(2)
C5 C 0.5316(3) 0.20044(9) 0.1081(3)
C6 C 0.3612(3) 0.43843(9) 0.0566(3)
H2 H 0.445380 0.448004 0.003876
C7 C 0.2207(3) 0.37176(10) 0.1889(3)
H3 H 0.210322 0.336199 0.225857
C8 C 0.4300(3) 0.20382(11) 0.2204(3)
H4 H 0.368286 0.234882 0.227381
C9 C 0.1245(4) 0.46367(12) 0.1587(3)
H5 H 0.050276 0.490107 0.175467
C10 C 0.2492(4) 0.47749(10) 0.0806(4)
H6 H 0.258447 0.513118 0.043826
C11 C 0.1090(3) 0.41093(13) 0.2121(3)
H7 H 0.023806 0.401589 0.263717
C12 C 0.6144(9) 0.3724(2) 0.3675(4)
C13 C 0.6509(7) 0.4267(2) 0.4057(4)
H8 H 0.685759 0.450425 0.333670
C14 C 0.6353(6) 0.44545(19) 0.5515(5)
H9 H 0.659682 0.481771 0.576966
C15 C 0.5832(6) 0.4099(2) 0.6591(3)
H10 H 0.572734 0.422512 0.756613
C16 C 0.5467(6) 0.3557(2) 0.6209(4)
H11 H 0.511863 0.331905 0.692964
C17 C 0.5623(8) 0.3369(2) 0.4752(5)
H12 H 0.537940 0.300557 0.449668
C18 C 0.6205(4) 0.15344(11) 0.0960(3)
H13 H 0.687707 0.150545 0.020074
C19 C 0.6081(5) 0.11069(11) 0.1983(4)
H14 H 0.667140 0.078994 0.190560
C20 C 0.4206(4) 0.16074(13) 0.3225(4)
H15 H 0.353816 0.163216 0.398851
C21 C 0.5095(4) 0.11487(12) 0.3104(4)
H16 H 0.503200 0.086157 0.379013
H17 H 0.239(4) 0.3079(13) -0.082(4)
C22? C 0.6072(10) 0.3695(3) 0.3753(4)
C23? C 0.6315(8) 0.4205(2) 0.4442(5)
H18? H 0.668910 0.449818 0.390291
C24? C 0.5998(7) 0.4278(2) 0.5937(5)
H19? H 0.616043 0.461997 0.639881
C25? C 0.5439(7) 0.3841(3) 0.6743(3)
H20? H 0.522707 0.388979 0.774391
C26? C 0.5197(7) 0.3331(2) 0.6054(5)
H21? H 0.482238 0.303781 0.659313
C27? C 0.5513(9) 0.3258(2) 0.4559(6)
H22? H 0.535103 0.291601 0.409723
loop_
_geom_bond_atom_site_label_1
_geom_bond_atom_site_label_2
_geom_bond_site_symmetry_1
_geom_bond_site_symmetry_2
S1 O1 1_555 1_555
O2 S1 1_555 1_555
O3 C1 1_555 1_555
N1 H1 1_555 1_555
C1 C3 1_555 1_555
C2 S1 1_555 1_555
C3 N1 1_555 1_555
C4 C2 1_555 1_555
C5 C1 1_555 1_555
C6 C4 1_555 1_555
H2 C6 1_555 1_555
C7 C4 1_555 1_555
H3 C7 1_555 1_555
C8 C5 1_555 1_555
H4 C8 1_555 1_555
C9 H5 1_555 1_555
C10 C6 1_555 1_555
H6 C10 1_555 1_555
C11 C7 1_555 1_555
H7 C11 1_555 1_555
C12 S1 1_555 1_555
C13 C12 1_555 1_555
H8 C13 1_555 1_555
C14 C13 1_555 1_555
H9 C14 1_555 1_555
C15 C14 1_555 1_555
H10 C15 1_555 1_555
C16 C15 1_555 1_555
H11 C16 1_555 1_555
C17 C12 1_555 1_555
H12 C17 1_555 1_555
C18 C5 1_555 1_555
H13 C18 1_555 1_555
C19 C18 1_555 1_555
H14 C19 1_555 1_555
C20 C8 1_555 1_555
H15 C20 1_555 1_555
C21 C19 1_555 1_555
H16 C21 1_555 1_555
H17 N1 1_555 1_555
C2 C3 1_555 1_555
C9 C10 1_555 1_555
C9 C11 1_555 1_555
C16 C17 1_555 1_555
C20 C21 1_555 1_555

#END
