
#######################################################################
#
#                 Cambridge Crystallographic Data Centre
#                                CCDC 
#
#######################################################################
#
# If this CIF has been generated from an entry in the Cambridge 
# Structural Database, then it will include bibliographic, chemical, 
# crystal, experimental, refinement or atomic coordinate data resulting 
# from the CCDC's data processing and validation procedures.
#
#######################################################################

data_JINZOY
_chemical_formula_moiety         'C21 H16 O3 S1'
_chemical_name_systematic        
(Z)-1,3-diphenyl-3-(phenylsulfonyl)prop-2-en-1-one
_symmetry_cell_setting           monoclinic
_symmetry_space_group_name_H-M   'C 2/c'
_symmetry_Int_Tables_number      15
_space_group_name_Hall           '-C 2yn'
loop_
_symmetry_equiv_pos_site_id
_symmetry_equiv_pos_as_xyz
1 x,y,z
2 -x,y,1/2-z
3 1/2+x,1/2+y,z
4 1/2-x,1/2+y,1/2-z
5 -x,-y,-z
6 x,-y,1/2+z
7 1/2-x,1/2-y,-z
8 1/2+x,1/2-y,1/2+z
_cell_length_a                   21.2388(6)
_cell_length_b                   12.9911(3)
_cell_length_c                   15.8801(3)
_cell_angle_alpha                90
_cell_angle_beta                 126.378(3)
_cell_angle_gamma                90
_cell_volume                     3527.69
_exptl_crystal_colour            colorless
_exptl_crystal_description       block
_cell_formula_units_Z            8
_exptl_crystal_recrystallization_method 
'Re-crystallisation from solvent: dichloromethane/ethyl acetate'
loop_
_atom_site_label
_atom_site_type_symbol
_atom_site_fract_x
_atom_site_fract_y
_atom_site_fract_z
S1 S 0.21256(2) 0.02891(3) 0.13703(3)
O1 O 0.41086(7) -0.10395(10) 0.26270(10)
O2 O 0.27590(8) 0.06377(10) 0.13542(10)
O3 O 0.14991(9) 0.10099(10) 0.11312(11)
C1 C 0.46490(11) 0.13704(14) 0.39933(14)
H1 H 0.4189 0.1476 0.3929
C2 C 0.52569(12) 0.21445(14) 0.44775(14)
H2 H 0.5166 0.2750 0.4703
C3 C 0.59855(12) 0.20359(14) 0.46306(14)
H3 H 0.6365 0.2548 0.4955
C4 C 0.61017(11) 0.11585(15) 0.42853(14)
H4 H 0.6569 0.1047 0.4372
C5 C 0.54852(11) 0.03940(14) 0.37777(14)
H5 H 0.5569 -0.0199 0.3529
C6 C 0.47554(10) 0.04892(13) 0.36337(13)
C7 C 0.41126(10) -0.03503(13) 0.31057(13)
C8 C 0.35110(11) -0.04186(13) 0.32838(14)
H6 H 0.3793(12) -0.0663(17) 0.3974(18)
C9 C 0.26737(10) -0.02392(12) 0.26280(13)
C10 C 0.21360(10) -0.04764(14) 0.28675(13)
C11 C 0.18097(13) 0.03006(15) 0.30545(16)
H7 H 0.1918 0.0984 0.3011
C12 C 0.13284(14) 0.0060(2) 0.33028(18)
H8 H 0.1102 0.0580 0.3445
C13 C 0.11653(12) -0.09556(19) 0.33499(16)
H9 H 0.0823 -0.1109 0.3516
C14 C 0.14862(13) -0.17334(18) 0.31621(17)
H10 H 0.1371 -0.2415 0.3199
C15 C 0.19739(12) -0.14974(15) 0.29209(15)
H11 H 0.2205 -0.2019 0.2789
C16 C 0.15735(10) -0.07759(14) 0.05239(13)
C17 C 0.06851(11) -0.07710(17) -0.02412(15)
H12 H 0.0412 -0.0200 -0.0261
C18 C 0.02638(11) -0.15983(18) -0.09173(16)
H13 H -0.0279 -0.1599 -0.1388
C19 C 0.07210(13) -0.24151(18) -0.08281(17)
H14 H 0.0474 -0.2982 -0.1262
C20 C 0.16069(13) -0.24233(18) -0.00520(18)
H15 H 0.1876 -0.3002 -0.0027
C21 C 0.20426(11) -0.16008(16) 0.06310(16)
H16 H 0.2585 -0.1604 0.1104
loop_
_geom_bond_atom_site_label_1
_geom_bond_atom_site_label_2
_geom_bond_site_symmetry_1
_geom_bond_site_symmetry_2
S1 O2 1_555 1_555
O1 C7 1_555 1_555
O3 S1 1_555 1_555
C1 H1 1_555 1_555
C2 C1 1_555 1_555
H2 C2 1_555 1_555
C3 C2 1_555 1_555
H3 C3 1_555 1_555
C4 C3 1_555 1_555
H4 C4 1_555 1_555
C5 C4 1_555 1_555
H5 C5 1_555 1_555
C6 C1 1_555 1_555
C7 C6 1_555 1_555
C8 C7 1_555 1_555
H6 C8 1_555 1_555
C9 S1 1_555 1_555
C10 C9 1_555 1_555
C11 C10 1_555 1_555
H7 C11 1_555 1_555
C12 C11 1_555 1_555
H8 C12 1_555 1_555
C13 C12 1_555 1_555
H9 C13 1_555 1_555
C14 C13 1_555 1_555
H10 C14 1_555 1_555
C15 C10 1_555 1_555
H11 C15 1_555 1_555
C16 S1 1_555 1_555
C17 C16 1_555 1_555
H12 C17 1_555 1_555
C18 C17 1_555 1_555
H13 C18 1_555 1_555
C19 C18 1_555 1_555
H14 C19 1_555 1_555
C20 C19 1_555 1_555
H15 C20 1_555 1_555
C21 C16 1_555 1_555
H16 C21 1_555 1_555
C5 C6 1_555 1_555
C8 C9 1_555 1_555
C14 C15 1_555 1_555
C20 C21 1_555 1_555

#END
