
#######################################################################
#
#                 Cambridge Crystallographic Data Centre
#                                CCDC 
#
#######################################################################
#
# If this CIF has been generated from an entry in the Cambridge 
# Structural Database, then it will include bibliographic, chemical, 
# crystal, experimental, refinement or atomic coordinate data resulting 
# from the CCDC's data processing and validation procedures.
#
#######################################################################

data_JIPDEU
_chemical_formula_moiety         'C26 H18 N2 O2'
_chemical_name_systematic        
11-methyl-9-(4-methylphenyl)-1H-benzo[c][1,2,4]oxadiazolo[4,3-f]phenanthridin-1-one
_symmetry_cell_setting           monoclinic
_symmetry_space_group_name_H-M   'P 21/c'
_symmetry_Int_Tables_number      14
_space_group_name_Hall           '-P 2ybc'
loop_
_symmetry_equiv_pos_site_id
_symmetry_equiv_pos_as_xyz
1 x,y,z
2 -x,1/2+y,1/2-z
3 -x,-y,-z
4 x,1/2-y,1/2+z
_cell_length_a                   16.054(3)
_cell_length_b                   8.9498(18)
_cell_length_c                   13.748(3)
_cell_angle_alpha                90
_cell_angle_beta                 99.77(3)
_cell_angle_gamma                90
_cell_volume                     1946.67
_exptl_crystal_colour            colorless
_exptl_crystal_description       BLOCK
_cell_formula_units_Z            4
loop_
_atom_site_label
_atom_site_type_symbol
_atom_site_fract_x
_atom_site_fract_y
_atom_site_fract_z
N1 N 0.54855(9) 0.81117(15) 0.40082(10)
N2 N 0.41625(11) 0.89569(18) 0.39052(13)
O1 O 0.47395(10) 1.01695(14) 0.38953(11)
O2 O 0.61037(10) 1.04481(15) 0.37510(11)
C1 C 0.34918(12) 0.5915(2) 0.38180(14)
H1 H 0.3115 0.6658 0.3931
C2 C 0.32131(12) 0.4474(2) 0.36356(15)
H2 H 0.2647 0.4240 0.3621
C3 C 0.37797(12) 0.3372(2) 0.34731(14)
H3 H 0.3591 0.2396 0.3352
C4 C 0.46169(11) 0.37056(19) 0.34894(13)
H4 H 0.4988 0.2949 0.3385
C5 C 0.49211(10) 0.51641(18) 0.36609(11)
C6 C 0.43374(11) 0.62590(19) 0.38326(12)
C7 C 0.46384(12) 0.77820(19) 0.39503(12)
C8 C 0.55358(14) 0.9659(2) 0.38776(13)
C9 C 0.87855(12) 0.1536(2) 0.24172(15)
C10 C 0.83311(12) 0.1169(2) 0.31442(15)
H5 H 0.8346 0.0191 0.3374
C11 C 0.78515(11) 0.2217(2) 0.35440(14)
H6 H 0.7553 0.1933 0.4037
C12 C 0.78121(10) 0.36784(19) 0.32187(13)
C13 C 0.82769(14) 0.4051(2) 0.24887(16)
H7 H 0.8270 0.5030 0.2262
C14 C 0.87459(14) 0.3001(3) 0.20974(17)
H8 H 0.9045 0.3282 0.1604
C15 C 0.72496(11) 0.47917(18) 0.35791(12)
C16 C 0.64095(11) 0.44907(18) 0.35002(12)
H9 H 0.6218 0.3540 0.3301
C17 C 0.58131(11) 0.55601(17) 0.37071(11)
C18 C 0.61059(11) 0.69900(18) 0.39731(12)
C19 C 0.69866(11) 0.72744(18) 0.42506(12)
C20 C 0.73244(13) 0.8514(2) 0.48360(13)
H10 H 0.6962 0.9233 0.5017
C21 C 0.81737(14) 0.8657(2) 0.51332(14)
H11 H 0.8376 0.9471 0.5523
C22 C 0.87567(13) 0.7623(2) 0.48735(15)
C23 C 0.84429(12) 0.6411(2) 0.43257(14)
H12 H 0.8820 0.5717 0.4144
C24 C 0.75655(11) 0.61755(18) 0.40245(12)
C25 C 0.92966(16) 0.0381(3) 0.1975(2)
H13 H 0.9569 0.0842 0.1482
H14 H 0.9717 -0.0033 0.2484
H15 H 0.8929 -0.0401 0.1678
C26 C 0.96928(14) 0.7819(3) 0.5223(2)
H16 H 0.9791 0.8729 0.5594
H17 H 0.9905 0.6989 0.5634
H18 H 0.9977 0.7862 0.4664
loop_
_geom_bond_atom_site_label_1
_geom_bond_atom_site_label_2
_geom_bond_site_symmetry_1
_geom_bond_site_symmetry_2
N1 C7 1_555 1_555
N2 O1 1_555 1_555
O1 C8 1_555 1_555
O2 C8 1_555 1_555
C1 H1 1_555 1_555
C2 C1 1_555 1_555
H2 C2 1_555 1_555
C3 C2 1_555 1_555
H3 C3 1_555 1_555
C4 C3 1_555 1_555
H4 C4 1_555 1_555
C5 C4 1_555 1_555
C6 C1 1_555 1_555
C7 N2 1_555 1_555
C8 N1 1_555 1_555
C9 C10 1_555 1_555
C10 H5 1_555 1_555
C11 C10 1_555 1_555
H6 C11 1_555 1_555
C12 C11 1_555 1_555
C13 C12 1_555 1_555
H7 C13 1_555 1_555
C14 C9 1_555 1_555
H8 C14 1_555 1_555
C15 C12 1_555 1_555
C16 C15 1_555 1_555
H9 C16 1_555 1_555
C17 C5 1_555 1_555
C18 N1 1_555 1_555
C19 C18 1_555 1_555
C20 C19 1_555 1_555
H10 C20 1_555 1_555
C21 C20 1_555 1_555
H11 C21 1_555 1_555
C22 C21 1_555 1_555
C23 C22 1_555 1_555
H12 C23 1_555 1_555
C24 C15 1_555 1_555
C25 C9 1_555 1_555
H13 C25 1_555 1_555
H14 C25 1_555 1_555
H15 C25 1_555 1_555
C26 C22 1_555 1_555
H16 C26 1_555 1_555
H17 C26 1_555 1_555
H18 C26 1_555 1_555
C5 C6 1_555 1_555
C6 C7 1_555 1_555
C13 C14 1_555 1_555
C16 C17 1_555 1_555
C17 C18 1_555 1_555
C19 C24 1_555 1_555
C23 C24 1_555 1_555

#END
