
#######################################################################
#
#                 Cambridge Crystallographic Data Centre
#                                CCDC 
#
#######################################################################
#
# If this CIF has been generated from an entry in the Cambridge 
# Structural Database, then it will include bibliographic, chemical, 
# crystal, experimental, refinement or atomic coordinate data resulting 
# from the CCDC's data processing and validation procedures.
#
#######################################################################

data_JIPKIF
_chemical_formula_moiety         'C18 H18 Br1 N1 O3'
_chemical_name_systematic        
'benzyl 5-amino-3-(2-bromophenyl)-5-oxopentanoate'
_symmetry_cell_setting           orthorhombic
_symmetry_space_group_name_H-M   'P 21 21 21'
_symmetry_Int_Tables_number      19
_space_group_name_Hall           'P 2ac 2ab'
loop_
_symmetry_equiv_pos_site_id
_symmetry_equiv_pos_as_xyz
1 x,y,z
2 1/2-x,-y,1/2+z
3 -x,1/2+y,1/2-z
4 1/2+x,1/2-y,-z
_cell_length_a                   5.0093(13)
_cell_length_b                   19.234(5)
_cell_length_c                   34.999(9)
_cell_angle_alpha                90
_cell_angle_beta                 90
_cell_angle_gamma                90
_cell_volume                     3372.11
_exptl_crystal_colour            colorless
_exptl_crystal_description       needle
_cell_formula_units_Z            8
loop_
_atom_site_label
_atom_site_type_symbol
_atom_site_fract_x
_atom_site_fract_y
_atom_site_fract_z
Br1 Br 0.72656(11) 0.57488(3) 0.44161(2)
O1 O 0.5504(7) 0.5919(2) 0.32222(10)
N1 N 0.1526(9) 0.5537(3) 0.30089(12)
H1 H 0.186868 0.566735 0.277295
H2 H -0.000682 0.533681 0.306382
C1 C 0.4172(9) 0.4774(2) 0.38276(12)
H3 H 0.610705 0.489703 0.380846
C2 C 0.3503(9) 0.4664(2) 0.42473(12)
O2 O 0.7325(8) 0.43834(19) 0.31642(10)
O3 O 0.4344(7) 0.35496(19) 0.30109(9)
C3 C 0.4689(9) 0.5054(2) 0.45338(13)
C4 C 0.4051(11) 0.4968(3) 0.49190(13)
H4 H 0.491940 0.523887 0.510911
C5 C 0.2139(12) 0.4484(3) 0.50202(13)
H5 H 0.170088 0.441629 0.528169
C6 C 0.0871(11) 0.4101(3) 0.47430(13)
H6 H -0.046726 0.377440 0.481266
C7 C 0.1546(10) 0.4189(2) 0.43608(13)
H7 H 0.065384 0.392077 0.417217
C8 C 0.2528(10) 0.5398(2) 0.36786(13)
H8 H 0.061733 0.526647 0.367533
H9 H 0.273405 0.579046 0.385915
C9 C 0.3321(9) 0.5641(2) 0.32819(13)
C10 C 0.3692(9) 0.4112(2) 0.35922(11)
H10 H 0.406601 0.370375 0.375591
H11 H 0.178231 0.409323 0.352017
C11 C 0.5345(9) 0.4054(2) 0.32351(13)
C12 C 0.5655(11) 0.3424(3) 0.26446(13)
H12 H 0.631600 0.293951 0.263136
H13 H 0.718903 0.374302 0.261208
C13 C 0.3587(11) 0.3552(3) 0.23356(12)
C14 C 0.2572(15) 0.3012(3) 0.21239(15)
H14 H 0.321639 0.255237 0.216080
C15 C 0.0553(15) 0.3147(4) 0.18496(18)
H15 H -0.016813 0.277874 0.170068
C16 C -0.0357(13) 0.3823(4) 0.18014(17)
H16 H -0.173146 0.391567 0.162142
C17 C 0.0702(13) 0.4357(4) 0.20097(18)
H17 H 0.008671 0.481857 0.197153
C18 C 0.2663(13) 0.4222(3) 0.22752(16)
H18 H 0.339439 0.459479 0.241933
C19 C 0.4434(9) 0.6222(2) 0.14586(12)
H19 H 0.247126 0.625812 0.150688
N2 N 0.6911(8) 0.6250(2) 0.24393(11)
H20 H 0.650152 0.611207 0.267189
H21 H 0.858278 0.633844 0.237957
O4 O 0.2613(7) 0.6204(2) 0.22482(9)
Br2 Br 0.11806(9) 0.76334(2) 0.13261(2)
C20 C 0.5046(9) 0.6607(2) 0.10888(12)
O5 O 0.1514(7) 0.51927(18) 0.10299(11)
C21 C 0.3816(9) 0.7237(2) 0.09967(12)
O6 O 0.4779(7) 0.44132(17) 0.11120(10)
C22 C 0.4428(9) 0.7607(3) 0.06699(12)
H22 H 0.352023 0.802806 0.061375
C23 C 0.6382(10) 0.7357(3) 0.04243(13)
H23 H 0.684262 0.761163 0.020113
C24 C 0.7647(10) 0.6741(2) 0.05057(12)
H24 H 0.898031 0.656848 0.033755
C25 C 0.6988(9) 0.6368(2) 0.08325(12)
H25 H 0.787524 0.594147 0.088331
C26 C 0.5893(9) 0.6579(2) 0.17924(11)
H26 H 0.783570 0.649806 0.176522
H27 H 0.558152 0.708633 0.177738
C27 C 0.5009(9) 0.6323(2) 0.21791(13)
C28 C 0.5175(9) 0.5453(2) 0.14524(13)
H28 H 0.709413 0.541052 0.138898
H29 H 0.491500 0.525949 0.171184
C29 C 0.3603(10) 0.5026(2) 0.11747(12)
C30 C 0.3361(11) 0.3920(3) 0.08640(15)
H30 H 0.263458 0.416099 0.063665
H31 H 0.186760 0.369914 0.100385
C31 C 0.5374(10) 0.3388(2) 0.07481(14)
C32 C 0.6707(11) 0.3452(3) 0.04039(16)
H32 H 0.623476 0.382374 0.023814
C33 C 0.8673(13) 0.3005(3) 0.02923(18)
H33 H 0.957608 0.306770 0.005612
C34 C 0.9305(14) 0.2468(3) 0.05261(19)
H34 H 1.065954 0.215278 0.044835
C35 C 0.8066(15) 0.2363(3) 0.0871(2)
H35 H 0.856954 0.198512 0.103059
C36 C 0.6003(15) 0.2832(3) 0.09862(17)
H36 H 0.508008 0.276604 0.122052
loop_
_geom_bond_atom_site_label_1
_geom_bond_atom_site_label_2
_geom_bond_site_symmetry_1
_geom_bond_site_symmetry_2
Br1 C3 1_555 1_555
O1 C9 1_555 1_555
N1 H1 1_555 1_555
H2 N1 1_555 1_555
C1 H3 1_555 1_555
C2 C1 1_555 1_555
O2 C11 1_555 1_555
O3 C11 1_555 1_555
C3 C2 1_555 1_555
C4 C3 1_555 1_555
H4 C4 1_555 1_555
C5 C4 1_555 1_555
H5 C5 1_555 1_555
C6 C5 1_555 1_555
H6 C6 1_555 1_555
C7 C2 1_555 1_555
H7 C7 1_555 1_555
C8 C1 1_555 1_555
H8 C8 1_555 1_555
H9 C8 1_555 1_555
C9 N1 1_555 1_555
C10 C1 1_555 1_555
H10 C10 1_555 1_555
H11 C10 1_555 1_555
C11 C10 1_555 1_555
C12 O3 1_555 1_555
H12 C12 1_555 1_555
H13 C12 1_555 1_555
C13 C12 1_555 1_555
C14 C13 1_555 1_555
H14 C14 1_555 1_555
C15 C14 1_555 1_555
H15 C15 1_555 1_555
C16 C15 1_555 1_555
H16 C16 1_555 1_555
C17 C16 1_555 1_555
H17 C17 1_555 1_555
C18 C13 1_555 1_555
H18 C18 1_555 1_555
C19 H19 1_555 1_555
N2 H20 1_555 1_555
H21 N2 1_555 1_555
O4 C27 1_555 1_555
Br2 C21 1_555 1_555
C20 C19 1_555 1_555
O5 C29 1_555 1_555
C21 C20 1_555 1_555
O6 C29 1_555 1_555
C22 C21 1_555 1_555
H22 C22 1_555 1_555
C23 C22 1_555 1_555
H23 C23 1_555 1_555
C24 C23 1_555 1_555
H24 C24 1_555 1_555
C25 C20 1_555 1_555
H25 C25 1_555 1_555
C26 C19 1_555 1_555
H26 C26 1_555 1_555
H27 C26 1_555 1_555
C27 N2 1_555 1_555
C28 C19 1_555 1_555
H28 C28 1_555 1_555
H29 C28 1_555 1_555
C29 C28 1_555 1_555
C30 O6 1_555 1_555
H30 C30 1_555 1_555
H31 C30 1_555 1_555
C31 C30 1_555 1_555
C32 C31 1_555 1_555
H32 C32 1_555 1_555
C33 C32 1_555 1_555
H33 C33 1_555 1_555
C34 C33 1_555 1_555
H34 C34 1_555 1_555
C35 C34 1_555 1_555
H35 C35 1_555 1_555
C36 C31 1_555 1_555
H36 C36 1_555 1_555
C6 C7 1_555 1_555
C8 C9 1_555 1_555
C17 C18 1_555 1_555
C24 C25 1_555 1_555
C26 C27 1_555 1_555
C35 C36 1_555 1_555

#END
