
#######################################################################
#
#                 Cambridge Crystallographic Data Centre
#                                CCDC 
#
#######################################################################
#
# If this CIF has been generated from an entry in the Cambridge 
# Structural Database, then it will include bibliographic, chemical, 
# crystal, experimental, refinement or atomic coordinate data resulting 
# from the CCDC's data processing and validation procedures.
#
#######################################################################

data_JIPQOR
_chemical_formula_moiety         'C16 H12 Cl1 N1 O2'
_chemical_name_systematic        
4-chloro-2-(2-methyl-4-phenyl-1,3-oxazol-5-yl)phenol
_symmetry_cell_setting           monoclinic
_symmetry_space_group_name_H-M   'P 21/c'
_symmetry_Int_Tables_number      14
_space_group_name_Hall           '-P 2ybc'
loop_
_symmetry_equiv_pos_site_id
_symmetry_equiv_pos_as_xyz
1 x,y,z
2 -x,1/2+y,1/2-z
3 -x,-y,-z
4 x,1/2-y,1/2+z
_cell_length_a                   11.2941(6)
_cell_length_b                   6.8936(2)
_cell_length_c                   18.1087(12)
_cell_angle_alpha                90
_cell_angle_beta                 105.199(7)
_cell_angle_gamma                90
_cell_volume                     1360.57
_exptl_crystal_colour            colorless
_exptl_crystal_description       needle
_cell_formula_units_Z            4
loop_
_atom_site_label
_atom_site_type_symbol
_atom_site_fract_x
_atom_site_fract_y
_atom_site_fract_z
C1 C 0.4189(3) 0.3952(3) 0.14509(17)
C2 C 0.6163(2) 0.3481(3) 0.18903(16)
C3 C 0.5673(3) 0.3813(3) 0.24846(17)
C4 C 0.3022(3) 0.4134(4) 0.08584(17)
H1 H 0.313209 0.500277 0.045331
H2 H 0.239473 0.466644 0.108616
H3 H 0.276208 0.285277 0.064084
C5 C 0.7407(2) 0.3160(4) 0.17913(15)
C6 C 0.7923(3) 0.4645(4) 0.14432(16)
H4 H 0.747891 0.581198 0.129119
C7 C 0.9057(3) 0.4421(4) 0.13223(16)
C8 C 0.9730(3) 0.2742(4) 0.15471(16)
H5 H 1.052566 0.260569 0.146920
C9 C 0.9232(3) 0.1274(4) 0.18845(18)
H6 H 0.968730 0.011690 0.203548
C10 C 0.8066(3) 0.1457(4) 0.20091(16)
C11 C 0.6254(3) 0.3924(4) 0.33099(16)
C12 C 0.7511(3) 0.4212(4) 0.35929(17)
H7 H 0.801000 0.436003 0.324816
C13 C 0.8040(3) 0.4285(4) 0.43764(18)
H8 H 0.889826 0.448846 0.456306
C14 C 0.7331(3) 0.4065(4) 0.48874(18)
H9 H 0.769635 0.413228 0.542280
C15 C 0.6080(4) 0.3746(4) 0.46094(19)
H10 H 0.558990 0.356936 0.495799
C16 C 0.5536(3) 0.3681(4) 0.38275(18)
H11 H 0.467766 0.347245 0.364358
Cl1 Cl 0.96935(7) 0.62882(11) 0.08977(5)
N1 N 0.4398(2) 0.4115(3) 0.21868(13)
O1 O 0.52161(17) 0.3578(2) 0.12179(11)
O2 O 0.76603(18) -0.0094(3) 0.23320(13)
H12 H 0.698081 0.017220 0.241506
loop_
_geom_bond_atom_site_label_1
_geom_bond_atom_site_label_2
_geom_bond_site_symmetry_1
_geom_bond_site_symmetry_2
C1 C4 1_555 1_555
C2 C3 1_555 1_555
C3 C11 1_555 1_555
C4 H1 1_555 1_555
H2 C4 1_555 1_555
H3 C4 1_555 1_555
C5 C2 1_555 1_555
C6 C5 1_555 1_555
H4 C6 1_555 1_555
C7 C6 1_555 1_555
C8 C7 1_555 1_555
H5 C8 1_555 1_555
C9 C8 1_555 1_555
H6 C9 1_555 1_555
C10 C5 1_555 1_555
C11 C12 1_555 1_555
C12 H7 1_555 1_555
C13 C12 1_555 1_555
H8 C13 1_555 1_555
C14 C13 1_555 1_555
H9 C14 1_555 1_555
C15 C14 1_555 1_555
H10 C15 1_555 1_555
C16 C11 1_555 1_555
H11 C16 1_555 1_555
Cl1 C7 1_555 1_555
N1 C1 1_555 1_555
O1 C1 1_555 1_555
O2 C10 1_555 1_555
H12 O2 1_555 1_555
C2 O1 1_555 1_555
C3 N1 1_555 1_555
C9 C10 1_555 1_555
C15 C16 1_555 1_555

#END
