
#######################################################################
#
#                 Cambridge Crystallographic Data Centre
#                                CCDC 
#
#######################################################################
#
# If this CIF has been generated from an entry in the Cambridge 
# Structural Database, then it will include bibliographic, chemical, 
# crystal, experimental, refinement or atomic coordinate data resulting 
# from the CCDC's data processing and validation procedures.
#
#######################################################################

data_JIPROQ
_chemical_formula_moiety         'C27 H28 N2 O4 S1'
_chemical_name_systematic        
'anti-Methyl 2-(3,3-dimethyl-1-(p-tosyl)aziridin-2-yl)-2-(diphenylmethyleneamino)acetate'
_symmetry_cell_setting           monoclinic
_symmetry_space_group_name_H-M   'P 21/c'
_symmetry_Int_Tables_number      14
_space_group_name_Hall           '-P 2ybc'
loop_
_symmetry_equiv_pos_site_id
_symmetry_equiv_pos_as_xyz
1 x,y,z
2 -x,1/2+y,1/2-z
3 -x,-y,-z
4 x,1/2-y,1/2+z
_cell_length_a                   10.8141(6)
_cell_length_b                   25.3685(15)
_cell_length_c                   9.6924(3)
_cell_angle_alpha                90
_cell_angle_beta                 107.649(3)
_cell_angle_gamma                90
_cell_volume                     2533.83
_exptl_crystal_colour            colorless
_exptl_crystal_description       block
_cell_formula_units_Z            4
_exptl_crystal_recrystallization_method 'hexane/ethyl acetate'
loop_
_atom_site_label
_atom_site_type_symbol
_atom_site_fract_x
_atom_site_fract_y
_atom_site_fract_z
S1 S 0.08877(9) -0.13987(4) -0.87741(11)
O1 O 0.3458(3) -0.02378(11) -0.5957(3)
O2 O 0.4804(3) -0.05057(10) -0.7168(3)
O3 O 0.0263(2) -0.11194(11) -0.7873(3)
O4 O 0.0297(3) -0.18698(11) -0.9500(3)
N1 N 0.4518(3) -0.11414(11) -0.4160(3)
N2 N 0.2419(3) -0.15436(11) -0.7855(3)
C1 C 0.4102(3) -0.05714(14) -0.6270(4)
C2 C 0.4212(3) -0.11410(13) -0.5744(3)
H1 H 0.4886 -0.1336 -0.6053
C3 C 0.2907(3) -0.14104(15) -0.6291(4)
H2 H 0.2231 -0.1265 -0.5883
C4 C 0.2721(4) -0.19742(16) -0.6718(4)
C5 C 0.5586(3) -0.13319(13) -0.3350(4)
C6 C 0.6676(3) -0.15407(14) -0.3845(3)
C7 C 0.7338(3) -0.12214(15) -0.4546(4)
H3 H 0.7117 -0.0859 -0.4704
C8 C 0.8326(4) -0.14330(18) -0.5018(4)
H4 H 0.8771 -0.1216 -0.5511
C9 C 0.8656(4) -0.19516(19) -0.4774(4)
H5 H 0.9326 -0.2094 -0.5107
C10 C 0.8035(4) -0.22665(17) -0.4058(5)
H6 H 0.8287 -0.2625 -0.3871
C11 C 0.7043(4) -0.20649(15) -0.3606(5)
H7 H 0.6602 -0.2288 -0.3123
C12 C 0.5751(3) -0.13445(13) -0.1764(3)
C13 C 0.6972(3) -0.13796(14) -0.0752(4)
H8 H 0.7721 -0.1405 -0.1067
C14 C 0.7102(3) -0.13780(15) 0.0716(4)
H9 H 0.7940 -0.1401 0.1404
C15 C 0.6025(4) -0.13431(15) 0.1176(4)
H10 H 0.6119 -0.1345 0.2183
C16 C 0.4801(3) -0.13057(15) 0.0184(4)
H11 H 0.4057 -0.1281 0.0507
C17 C 0.4667(3) -0.13050(13) -0.1285(4)
H12 H 0.3828 -0.1277 -0.1969
C18 C 0.1108(3) -0.09571(14) -1.0080(4)
C19 C 0.0989(4) -0.11419(16) -1.1448(4)
H13 H 0.0786 -0.1501 -1.1689
C20 C 0.1172(4) -0.07910(17) -1.2470(5)
H14 H 0.1097 -0.0916 -1.3416
C21 C 0.1457(4) -0.02672(17) -1.2156(5)
C22 C 0.1564(4) -0.00952(16) -1.0769(5)
H15 H 0.1760 0.0265 -1.0528
C23 C 0.1390(4) -0.04339(16) -0.9726(4)
H16 H 0.1464 -0.0309 -0.8780
C24 C 0.1622(5) 0.01147(19) -1.3282(5)
H17 H 0.1817 -0.0081 -1.4063
H18 H 0.2337 0.0357 -1.2836
H19 H 0.0818 0.0316 -1.3679
C25 C 0.4788(5) 0.00142(15) -0.7804(4)
H20 H 0.3895 0.0147 -0.8132
H21 H 0.5129 -0.0009 -0.8630
H22 H 0.5329 0.0255 -0.7078
C26 C 0.1618(5) -0.2264(2) -0.6399(5)
H23 H 0.1941 -0.2442 -0.5460
H24 H 0.1260 -0.2526 -0.7158
H25 H 0.0939 -0.2012 -0.6371
C27 C 0.3843(5) -0.23094(17) -0.6781(5)
H26 H 0.4456 -0.2095 -0.7105
H27 H 0.3527 -0.2600 -0.7462
H28 H 0.4280 -0.2452 -0.5817
loop_
_geom_bond_atom_site_label_1
_geom_bond_atom_site_label_2
_geom_bond_site_symmetry_1
_geom_bond_site_symmetry_2
S1 O3 1_555 1_555
O1 C1 1_555 1_555
O2 C1 1_555 1_555
O4 S1 1_555 1_555
N1 C2 1_555 1_555
N2 S1 1_555 1_555
C1 C2 1_555 1_555
C2 H1 1_555 1_555
C3 N2 1_555 1_555
H2 C3 1_555 1_555
C4 N2 1_555 1_555
C5 N1 1_555 1_555
C6 C5 1_555 1_555
C7 C6 1_555 1_555
H3 C7 1_555 1_555
C8 C7 1_555 1_555
H4 C8 1_555 1_555
C9 C8 1_555 1_555
H5 C9 1_555 1_555
C10 C9 1_555 1_555
H6 C10 1_555 1_555
C11 C6 1_555 1_555
H7 C11 1_555 1_555
C12 C5 1_555 1_555
C13 C12 1_555 1_555
H8 C13 1_555 1_555
C14 C13 1_555 1_555
H9 C14 1_555 1_555
C15 C14 1_555 1_555
H10 C15 1_555 1_555
C16 C15 1_555 1_555
H11 C16 1_555 1_555
C17 C12 1_555 1_555
H12 C17 1_555 1_555
C18 S1 1_555 1_555
C19 C18 1_555 1_555
H13 C19 1_555 1_555
C20 C19 1_555 1_555
H14 C20 1_555 1_555
C21 C20 1_555 1_555
C22 C21 1_555 1_555
H15 C22 1_555 1_555
C23 C18 1_555 1_555
H16 C23 1_555 1_555
C24 C21 1_555 1_555
H17 C24 1_555 1_555
H18 C24 1_555 1_555
H19 C24 1_555 1_555
C25 O2 1_555 1_555
H20 C25 1_555 1_555
H21 C25 1_555 1_555
H22 C25 1_555 1_555
C26 C4 1_555 1_555
H23 C26 1_555 1_555
H24 C26 1_555 1_555
H25 C26 1_555 1_555
C27 C4 1_555 1_555
H26 C27 1_555 1_555
H27 C27 1_555 1_555
H28 C27 1_555 1_555
C2 C3 1_555 1_555
C3 C4 1_555 1_555
C10 C11 1_555 1_555
C16 C17 1_555 1_555
C22 C23 1_555 1_555

#END
