
#######################################################################
#
#                 Cambridge Crystallographic Data Centre
#                                CCDC 
#
#######################################################################
#
# If this CIF has been generated from an entry in the Cambridge 
# Structural Database, then it will include bibliographic, chemical, 
# crystal, experimental, refinement or atomic coordinate data resulting 
# from the CCDC's data processing and validation procedures.
#
#######################################################################

data_JIPRUW
_chemical_formula_moiety         'C30 H34 N2 O4 S1'
_chemical_name_systematic        
'anti-t-Butyl 2-(3,3-dimethyl-1-(p-tosyl)aziridin-2-yl)-2-(diphenylmethyleneamino)acetate'
_symmetry_cell_setting           triclinic
_symmetry_space_group_name_H-M   'P -1'
_symmetry_Int_Tables_number      2
_space_group_name_Hall           '-P 1'
loop_
_symmetry_equiv_pos_site_id
_symmetry_equiv_pos_as_xyz
1 x,y,z
2 -x,-y,-z
_cell_length_a                   9.7446(4)
_cell_length_b                   10.6546(3)
_cell_length_c                   14.6097(5)
_cell_angle_alpha                75.349(2)
_cell_angle_beta                 74.192(2)
_cell_angle_gamma                80.609(2)
_cell_volume                     1404.77
_exptl_crystal_colour            colorless
_exptl_crystal_description       block
_cell_formula_units_Z            2
_exptl_crystal_recrystallization_method 'hexane/ethyl acetate'
loop_
_atom_site_label
_atom_site_type_symbol
_atom_site_fract_x
_atom_site_fract_y
_atom_site_fract_z
S1 S 0.05113(7) 0.47619(6) 0.78689(5)
O1 O 0.2788(2) 0.30049(18) 0.58634(13)
O2 O 0.26606(19) 0.08449(17) 0.60561(12)
O3 O 0.1616(2) 0.54564(17) 0.71522(14)
O4 O -0.0107(2) 0.52027(18) 0.87624(14)
N1 N 0.4503(2) 0.11901(19) 0.73442(14)
N2 N 0.1042(2) 0.31770(19) 0.81548(14)
C1 C 0.2797(3) 0.1910(3) 0.63394(18)
C2 C 0.2967(3) 0.1530(2) 0.73902(17)
H1 H 0.2392 0.0796 0.7791
C3 C 0.2581(3) 0.2710(2) 0.78375(17)
H2 H 0.3221 0.3422 0.7511
C4 C 0.1939(3) 0.2649(3) 0.88943(18)
C5 C 0.4973(3) 0.0108(2) 0.78376(17)
C6 C 0.4104(3) -0.0997(2) 0.84282(18)
C7 C 0.3371(3) -0.1611(2) 0.7997(2)
H3 H 0.3434 -0.1342 0.7316
C8 C 0.2551(3) -0.2613(3) 0.8555(2)
H4 H 0.2060 -0.3033 0.8255
C9 C 0.2448(3) -0.3001(3) 0.9545(2)
H5 H 0.1878 -0.3680 0.9929
C10 C 0.3178(4) -0.2400(3) 0.9979(2)
H6 H 0.3099 -0.2661 1.0661
C11 C 0.4021(3) -0.1418(3) 0.9421(2)
H7 H 0.4546 -0.1031 0.9719
C12 C 0.6524(3) -0.0061(2) 0.78310(17)
C13 C 0.7286(3) -0.1293(2) 0.79539(18)
H8 H 0.6797 -0.2046 0.8087
C14 C 0.8745(3) -0.1436(3) 0.7885(2)
H9 H 0.9259 -0.2279 0.7951
C15 C 0.9451(3) -0.0347(3) 0.7720(2)
H10 H 1.0453 -0.0441 0.7673
C16 C 0.8705(3) 0.0880(3) 0.7623(2)
H11 H 0.9191 0.1625 0.7524
C17 C 0.7252(3) 0.1024(3) 0.76699(19)
H12 H 0.6748 0.1871 0.7592
C18 C -0.0898(3) 0.4740(2) 0.73355(19)
C19 C -0.2297(3) 0.5075(3) 0.7817(2)
H13 H -0.2492 0.5306 0.8430
C20 C -0.3402(3) 0.5069(3) 0.7393(2)
H14 H -0.4359 0.5310 0.7718
C21 C -0.3146(3) 0.4721(3) 0.6506(2)
C22 C -0.1727(4) 0.4382(3) 0.6040(2)
H15 H -0.1532 0.4130 0.5434
C23 C -0.0602(3) 0.4404(3) 0.6441(2)
H16 H 0.0358 0.4192 0.6109
C24 C -0.4347(4) 0.4696(4) 0.6043(3)
H17 H -0.4500 0.3789 0.6101
H18 H -0.4091 0.5132 0.5352
H19 H -0.5228 0.5149 0.6374
C25 C 0.2461(3) 0.0959(3) 0.50547(19)
C26 C 0.1120(3) 0.1848(4) 0.4918(2)
H20 H 0.0319 0.1585 0.5475
H21 H 0.0897 0.1786 0.4317
H22 H 0.1276 0.2750 0.4874
C27 C 0.3789(3) 0.1443(3) 0.4300(2)
H23 H 0.3924 0.2306 0.4362
H24 H 0.3671 0.1501 0.3645
H25 H 0.4630 0.0834 0.4405
C28 C 0.2315(4) -0.0439(3) 0.5065(2)
H26 H 0.3177 -0.0994 0.5197
H27 H 0.2198 -0.0489 0.4431
H28 H 0.1475 -0.0738 0.5576
C29 C 0.2439(3) 0.3559(3) 0.9354(2)
H29 H 0.3242 0.3112 0.9633
H30 H 0.1648 0.3821 0.9871
H31 H 0.2749 0.4335 0.8857
C30 C 0.1422(3) 0.1416(3) 0.9590(2)
H32 H 0.1093 0.0896 0.9241
H33 H 0.0629 0.1639 1.0119
H34 H 0.2210 0.0910 0.9862
loop_
_geom_bond_atom_site_label_1
_geom_bond_atom_site_label_2
_geom_bond_site_symmetry_1
_geom_bond_site_symmetry_2
S1 O3 1_555 1_555
O1 C1 1_555 1_555
O2 C1 1_555 1_555
O4 S1 1_555 1_555
N1 C2 1_555 1_555
N2 S1 1_555 1_555
C1 C2 1_555 1_555
C2 H1 1_555 1_555
C3 N2 1_555 1_555
H2 C3 1_555 1_555
C4 N2 1_555 1_555
C5 N1 1_555 1_555
C6 C5 1_555 1_555
C7 C6 1_555 1_555
H3 C7 1_555 1_555
C8 C7 1_555 1_555
H4 C8 1_555 1_555
C9 C8 1_555 1_555
H5 C9 1_555 1_555
C10 C9 1_555 1_555
H6 C10 1_555 1_555
C11 C6 1_555 1_555
H7 C11 1_555 1_555
C12 C5 1_555 1_555
C13 C12 1_555 1_555
H8 C13 1_555 1_555
C14 C13 1_555 1_555
H9 C14 1_555 1_555
C15 C14 1_555 1_555
H10 C15 1_555 1_555
C16 C15 1_555 1_555
H11 C16 1_555 1_555
C17 C12 1_555 1_555
H12 C17 1_555 1_555
C18 S1 1_555 1_555
C19 C18 1_555 1_555
H13 C19 1_555 1_555
C20 C19 1_555 1_555
H14 C20 1_555 1_555
C21 C20 1_555 1_555
C22 C21 1_555 1_555
H15 C22 1_555 1_555
C23 C18 1_555 1_555
H16 C23 1_555 1_555
C24 C21 1_555 1_555
H17 C24 1_555 1_555
H18 C24 1_555 1_555
H19 C24 1_555 1_555
C25 O2 1_555 1_555
C26 C25 1_555 1_555
H20 C26 1_555 1_555
H21 C26 1_555 1_555
H22 C26 1_555 1_555
C27 C25 1_555 1_555
H23 C27 1_555 1_555
H24 C27 1_555 1_555
H25 C27 1_555 1_555
C28 C25 1_555 1_555
H26 C28 1_555 1_555
H27 C28 1_555 1_555
H28 C28 1_555 1_555
C29 C4 1_555 1_555
H29 C29 1_555 1_555
H30 C29 1_555 1_555
H31 C29 1_555 1_555
C30 C4 1_555 1_555
H32 C30 1_555 1_555
H33 C30 1_555 1_555
H34 C30 1_555 1_555
C2 C3 1_555 1_555
C3 C4 1_555 1_555
C10 C11 1_555 1_555
C16 C17 1_555 1_555
C22 C23 1_555 1_555

#END
