
#######################################################################
#
#                 Cambridge Crystallographic Data Centre
#                                CCDC 
#
#######################################################################
#
# If this CIF has been generated from an entry in the Cambridge 
# Structural Database, then it will include bibliographic, chemical, 
# crystal, experimental, refinement or atomic coordinate data resulting 
# from the CCDC's data processing and validation procedures.
#
#######################################################################

data_JIPSAF
_chemical_formula_moiety         'C5 H2 N10 O3'
_chemical_name_systematic        
N-(4-nitro-1,2,5-oxadiazol-3-yl)[1,2,4]triazolo[4,3-b][1,2,4,5]tetrazin-6-amine
_symmetry_cell_setting           monoclinic
_symmetry_space_group_name_H-M   'P 21/c'
_symmetry_Int_Tables_number      14
_space_group_name_Hall           '-P 2ybc'
loop_
_symmetry_equiv_pos_site_id
_symmetry_equiv_pos_as_xyz
1 x,y,z
2 -x,1/2+y,1/2-z
3 -x,-y,-z
4 x,1/2-y,1/2+z
_cell_length_a                   14.8302(7)
_cell_length_b                   12.5963(6)
_cell_length_c                   9.9227(5)
_cell_angle_alpha                90
_cell_angle_beta                 92.502(2)
_cell_angle_gamma                90
_cell_volume                     1851.85
_cell_formula_units_Z            8
loop_
_atom_site_label
_atom_site_type_symbol
_atom_site_fract_x
_atom_site_fract_y
_atom_site_fract_z
C1 C 0.80611(10) 0.68199(12) 0.52170(15)
C2 C 0.73051(9) 0.63233(11) 0.45467(14)
C3 C 0.60139(9) 0.62023(11) 0.29614(14)
C4 C 0.46227(10) 0.54212(12) 0.16571(15)
C5 C 0.44581(10) 0.41224(12) 0.30445(17)
H1 H 0.4537 0.3659 0.3770
N1 N 0.84415(9) 0.78533(11) 0.49798(15)
N2 N 0.72280(9) 0.53733(11) 0.50573(15)
N3 N 0.84386(9) 0.61896(13) 0.61001(15)
N4 N 0.67525(8) 0.67274(9) 0.35343(12)
H2 H 0.6873 0.7350 0.3234
N5 N 0.57061(9) 0.66867(10) 0.17569(12)
N6 N 0.50061(9) 0.62907(10) 0.11184(13)
N7 N 0.49714(8) 0.49749(9) 0.28192(12)
N8 N 0.56980(8) 0.53674(9) 0.35418(12)
N9 N 0.39186(9) 0.48665(12) 0.11870(15)
N10 N 0.38236(9) 0.40426(11) 0.20763(15)
O1 O 0.90348(9) 0.81850(11) 0.57463(16)
O2 O 0.81406(10) 0.83155(10) 0.39894(14)
O3 O 0.79371(8) 0.52915(11) 0.60180(13)
C6 C 0.97768(9) 0.41576(12) 0.70457(15)
C7 C 0.90167(9) 0.38081(11) 0.77496(14)
C8 C 0.79909(9) 0.39209(11) 0.96109(14)
C9 C 0.67593(9) 0.34516(12) 1.12592(14)
C10 C 0.63985(10) 0.19705(12) 1.02787(15)
H3 H 0.6377 0.1396 0.9689
N11 N 1.03530(9) 0.50592(12) 0.73284(14)
N12 N 0.86892(9) 0.29657(11) 0.71329(14)
N13 N 0.99223(10) 0.35474(12) 0.60345(15)
N14 N 0.86825(8) 0.42830(10) 0.88549(12)
H4 H 0.8930 0.4872 0.9107
N15 N 0.78339(8) 0.46158(10) 1.06798(13)
N16 N 0.72126(9) 0.43766(10) 1.14928(13)
N17 N 0.69503(7) 0.28114(9) 1.01969(11)
N18 N 0.75899(8) 0.30346(9) 0.92944(12)
N19 N 0.61131(9) 0.30280(11) 1.19590(13)
N20 N 0.58915(9) 0.20898(10) 1.13300(14)
O4 O 1.01677(8) 0.55900(10) 0.83091(13)
O5 O 1.09731(9) 0.52270(14) 0.66011(15)
O6 O 0.92599(9) 0.28085(10) 0.60576(13)
loop_
_geom_bond_atom_site_label_1
_geom_bond_atom_site_label_2
_geom_bond_site_symmetry_1
_geom_bond_site_symmetry_2
C1 C2 1_555 1_555
C2 N2 1_555 1_555
C3 N4 1_555 1_555
C4 N6 1_555 1_555
C5 H1 1_555 1_555
N1 C1 1_555 1_555
N2 O3 1_555 1_555
N3 C1 1_555 1_555
N4 C2 1_555 1_555
H2 N4 1_555 1_555
N5 C3 1_555 1_555
N6 N5 1_555 1_555
N7 C4 1_555 1_555
N8 C3 1_555 1_555
N9 C4 1_555 1_555
N10 C5 1_555 1_555
O1 N1 1_555 1_555
O2 N1 1_555 1_555
O3 N3 1_555 1_555
C6 C7 1_555 1_555
C7 N12 1_555 1_555
C8 N14 1_555 1_555
C9 N16 1_555 1_555
C10 H3 1_555 1_555
N11 C6 1_555 1_555
N12 O6 1_555 1_555
N13 C6 1_555 1_555
N14 C7 1_555 1_555
H4 N14 1_555 1_555
N15 C8 1_555 1_555
N16 N15 1_555 1_555
N17 C9 1_555 1_555
N18 C8 1_555 1_555
N19 C9 1_555 1_555
N20 C10 1_555 1_555
O4 N11 1_555 1_555
O5 N11 1_555 1_555
O6 N13 1_555 1_555
C5 N7 1_555 1_555
N7 N8 1_555 1_555
N9 N10 1_555 1_555
C10 N17 1_555 1_555
N17 N18 1_555 1_555
N19 N20 1_555 1_555

#END
