
#######################################################################
#
#                 Cambridge Crystallographic Data Centre
#                                CCDC 
#
#######################################################################
#
# If this CIF has been generated from an entry in the Cambridge 
# Structural Database, then it will include bibliographic, chemical, 
# crystal, experimental, refinement or atomic coordinate data resulting 
# from the CCDC's data processing and validation procedures.
#
#######################################################################

data_JIPSAD
_chemical_formula_moiety         'C30 H34 N2 O4 S1'
_chemical_name_systematic        
'anti-Ethyl 2-(3,3-diethyl-1-(p-tosyl)aziridin-2-yl)-2-(diphenylmethyleneamino)acetate'
_symmetry_cell_setting           monoclinic
_symmetry_space_group_name_H-M   'P 21/c'
_symmetry_Int_Tables_number      14
_space_group_name_Hall           '-P 2ybc'
loop_
_symmetry_equiv_pos_site_id
_symmetry_equiv_pos_as_xyz
1 x,y,z
2 -x,1/2+y,1/2-z
3 -x,-y,-z
4 x,1/2-y,1/2+z
_cell_length_a                   10.8515(3)
_cell_length_b                   12.6958(5)
_cell_length_c                   20.1106(6)
_cell_angle_alpha                90
_cell_angle_beta                 93.351(2)
_cell_angle_gamma                90
_cell_volume                     2765.87
_exptl_crystal_colour            colorless
_exptl_crystal_description       block
_cell_formula_units_Z            4
_exptl_crystal_recrystallization_method 'hexane/ethyl acetate'
loop_
_atom_site_label
_atom_site_type_symbol
_atom_site_fract_x
_atom_site_fract_y
_atom_site_fract_z
S1 S 0.19243(8) -0.35731(7) 0.33335(4)
O1 O 0.4637(2) -0.1404(2) 0.44024(12)
O2 O 0.3101(2) -0.1067(2) 0.50660(10)
O3 O 0.3065(2) -0.36574(19) 0.30071(12)
O4 O 0.0819(2) -0.40069(19) 0.30207(12)
N1 N 0.3297(2) 0.0224(2) 0.36023(12)
N2 N 0.1599(2) -0.23330(19) 0.35168(12)
C1 C 0.3618(3) -0.1088(2) 0.44886(15)
C2 C 0.2722(3) -0.0668(2) 0.39383(14)
H1 H 0.1924 -0.0452 0.4122
C3 C 0.2515(3) -0.1487(2) 0.34037(14)
H2 H 0.3281 -0.1732 0.3198
C4 C 0.1368(3) -0.1540(2) 0.29543(14)
C5 C 0.2926(3) 0.1163(2) 0.37135(14)
C6 C 0.1989(3) 0.1445(2) 0.42005(14)
C7 C 0.2278(3) 0.1401(3) 0.48795(15)
H3 H 0.3088 0.1219 0.5043
C8 C 0.1371(4) 0.1627(3) 0.53216(18)
H4 H 0.1565 0.1594 0.5788
C9 C 0.0195(4) 0.1898(3) 0.5088(2)
H5 H -0.0422 0.2039 0.5392
C10 C -0.0086(3) 0.1964(3) 0.4413(2)
H6 H -0.0893 0.2161 0.4252
C11 C 0.0811(3) 0.1741(3) 0.39685(18)
H7 H 0.0617 0.1793 0.3503
C12 C 0.3447(3) 0.2029(2) 0.33177(15)
C13 C 0.3533(3) 0.3052(3) 0.35690(17)
H8 H 0.3239 0.3202 0.3994
C14 C 0.4046(3) 0.3854(3) 0.32047(18)
H9 H 0.4118 0.4544 0.3385
C15 C 0.4452(3) 0.3644(3) 0.25754(17)
H10 H 0.4796 0.4190 0.2322
C16 C 0.4352(3) 0.2638(3) 0.23208(16)
H11 H 0.4622 0.2495 0.1889
C17 C 0.3862(3) 0.1833(3) 0.26876(15)
H12 H 0.3808 0.1142 0.2508
C18 C 0.2183(3) -0.4154(2) 0.41255(15)
C19 C 0.1391(3) -0.4918(3) 0.43306(17)
H13 H 0.0641 -0.5060 0.4080
C20 C 0.1699(3) -0.5478(3) 0.49068(18)
H14 H 0.1149 -0.6003 0.5048
C21 C 0.2780(3) -0.5295(3) 0.52802(16)
C22 C 0.3537(3) -0.4482(3) 0.50809(18)
H15 H 0.4258 -0.4309 0.5349
C23 C 0.3265(3) -0.3921(3) 0.45046(18)
H16 H 0.3805 -0.3384 0.4368
C24 C 0.3171(4) -0.5973(3) 0.58735(18)
H17 H 0.2446 -0.6151 0.6119
H18 H 0.3766 -0.5586 0.6166
H19 H 0.3554 -0.6621 0.5720
C25 C 0.3847(4) -0.1416(4) 0.56570(17)
H20 H 0.4730 -0.1257 0.5606
H21 H 0.3757 -0.2185 0.5719
C26 C 0.3393(4) -0.0838(4) 0.62393(18)
H22 H 0.3560 -0.0084 0.6192
H23 H 0.3819 -0.1100 0.6650
H24 H 0.2503 -0.0950 0.6260
C27 C 0.1547(3) -0.1855(3) 0.22389(15)
H25 H 0.0792 -0.2206 0.2050
H26 H 0.2239 -0.2361 0.2227
C28 C 0.1822(4) -0.0894(3) 0.18200(16)
H27 H 0.1118 -0.0410 0.1813
H28 H 0.1965 -0.1117 0.1364
H29 H 0.2560 -0.0537 0.2013
C29 C 0.0264(3) -0.0850(3) 0.30695(16)
H30 H 0.0363 -0.0168 0.2840
H31 H 0.0237 -0.0706 0.3552
C30 C -0.0958(3) -0.1354(3) 0.28171(19)
H32 H -0.0993 -0.1391 0.2330
H33 H -0.1648 -0.0928 0.2960
H34 H -0.1015 -0.2067 0.3000
loop_
_geom_bond_atom_site_label_1
_geom_bond_atom_site_label_2
_geom_bond_site_symmetry_1
_geom_bond_site_symmetry_2
S1 O3 1_555 1_555
O1 C1 1_555 1_555
O2 C1 1_555 1_555
O4 S1 1_555 1_555
N1 C2 1_555 1_555
N2 S1 1_555 1_555
C1 C2 1_555 1_555
C2 H1 1_555 1_555
C3 N2 1_555 1_555
H2 C3 1_555 1_555
C4 N2 1_555 1_555
C5 N1 1_555 1_555
C6 C5 1_555 1_555
C7 C6 1_555 1_555
H3 C7 1_555 1_555
C8 C7 1_555 1_555
H4 C8 1_555 1_555
C9 C8 1_555 1_555
H5 C9 1_555 1_555
C10 C9 1_555 1_555
H6 C10 1_555 1_555
C11 C6 1_555 1_555
H7 C11 1_555 1_555
C12 C5 1_555 1_555
C13 C12 1_555 1_555
H8 C13 1_555 1_555
C14 C13 1_555 1_555
H9 C14 1_555 1_555
C15 C14 1_555 1_555
H10 C15 1_555 1_555
C16 C15 1_555 1_555
H11 C16 1_555 1_555
C17 C12 1_555 1_555
H12 C17 1_555 1_555
C18 S1 1_555 1_555
C19 C18 1_555 1_555
H13 C19 1_555 1_555
C20 C19 1_555 1_555
H14 C20 1_555 1_555
C21 C20 1_555 1_555
C22 C21 1_555 1_555
H15 C22 1_555 1_555
C23 C18 1_555 1_555
H16 C23 1_555 1_555
C24 C21 1_555 1_555
H17 C24 1_555 1_555
H18 C24 1_555 1_555
H19 C24 1_555 1_555
C25 O2 1_555 1_555
H20 C25 1_555 1_555
H21 C25 1_555 1_555
C26 C25 1_555 1_555
H22 C26 1_555 1_555
H23 C26 1_555 1_555
H24 C26 1_555 1_555
C27 C4 1_555 1_555
H25 C27 1_555 1_555
H26 C27 1_555 1_555
C28 C27 1_555 1_555
H27 C28 1_555 1_555
H28 C28 1_555 1_555
H29 C28 1_555 1_555
C29 C4 1_555 1_555
H30 C29 1_555 1_555
H31 C29 1_555 1_555
C30 C29 1_555 1_555
H32 C30 1_555 1_555
H33 C30 1_555 1_555
H34 C30 1_555 1_555
C2 C3 1_555 1_555
C3 C4 1_555 1_555
C10 C11 1_555 1_555
C16 C17 1_555 1_555
C22 C23 1_555 1_555

#END
