
#######################################################################
#
#                 Cambridge Crystallographic Data Centre
#                                CCDC 
#
#######################################################################
#
# If this CIF has been generated from an entry in the Cambridge 
# Structural Database, then it will include bibliographic, chemical, 
# crystal, experimental, refinement or atomic coordinate data resulting 
# from the CCDC's data processing and validation procedures.
#
#######################################################################

data_JIPVEM
_chemical_formula_moiety         'C37 H45 N1 O5'
_chemical_name_systematic        
7a'-methyl-6,6'',9,9''-tetramethylidenehexacosahydro-2H,2''H-dispiro[azuleno[4,5-b]furan-3,2'-pyrrolo[2,1,5-cd]indolizine-5',3''-azuleno[4,5-b]furan]-2,2'',7'(6'H)-trione
_symmetry_cell_setting           orthorhombic
_symmetry_space_group_name_H-M   'P 21 21 21'
_symmetry_Int_Tables_number      19
_space_group_name_Hall           'P 2ac 2ab'
loop_
_symmetry_equiv_pos_site_id
_symmetry_equiv_pos_as_xyz
1 x,y,z
2 1/2-x,-y,1/2+z
3 -x,1/2+y,1/2-z
4 1/2+x,1/2-y,-z
_cell_length_a                   33.7659(8)
_cell_length_b                   7.8197(2)
_cell_length_c                   12.0660(3)
_cell_angle_alpha                90
_cell_angle_beta                 90
_cell_angle_gamma                90
_cell_volume                     3185.9
_exptl_crystal_colour            colorless
_exptl_crystal_description       block
_cell_formula_units_Z            4
loop_
_atom_site_label
_atom_site_type_symbol
_atom_site_fract_x
_atom_site_fract_y
_atom_site_fract_z
O1 O 0.66772(11) 0.3956(5) 0.6466(4)
O2 O 0.72504(9) 0.5186(5) 0.6847(3)
O3 O 0.59999(10) 0.8623(5) 0.4479(3)
O4 O 0.50054(8) 0.6775(4) 0.7880(2)
O5 O 0.47184(6) 0.5867(3) 0.63450(19)
C1 C 0.81255(15) 0.5973(11) 0.7223(7)
C2 C 0.54500(10) 0.7930(5) 0.5647(3)
H1 H 0.529997 0.793055 0.496130
H2 H 0.534049 0.880831 0.612501
C3 C 0.41486(10) 0.4326(6) 0.4568(3)
C4 C 0.8482(2) 0.639(2) 0.7883(9)
H3 H 0.860428 0.533873 0.814098
H4 H 0.867153 0.698805 0.742197
C5 C 0.58761(11) 0.8345(5) 0.5399(3)
C6 C 0.39921(13) 0.2977(7) 0.3792(4)
H5 H 0.395322 0.345186 0.305727
H6 H 0.374049 0.254122 0.405814
C7 C 0.8379(3) 0.741(2) 0.8791(9)
H7 H 0.851839 0.849085 0.874788
H8 H 0.845722 0.684183 0.947211
C8 C 0.61350(10) 0.8458(5) 0.6434(3)
C9 C 0.42963(12) 0.1565(6) 0.3759(4)
H9 H 0.433033 0.115632 0.300586
H10 H 0.421247 0.061486 0.421907
C10 C 0.7925(2) 0.7729(17) 0.8797(6)
H11 H 0.782084 0.742757 0.952999
N1 N 0.59731(7) 0.7297(4) 0.7282(2)
C11 C 0.46879(11) 0.2322(5) 0.4199(3)
H12 H 0.482952 0.143380 0.461228
C12 C 0.77678(14) 0.6364(10) 0.7920(5)
H13 H 0.771161 0.532094 0.834181
C13 C 0.57938(9) 0.5740(4) 0.6827(3)
H14 H 0.597873 0.525514 0.628611
C14 C 0.45422(9) 0.3713(5) 0.5029(3)
H15 H 0.448697 0.313594 0.573319
C15 C 0.73984(12) 0.6781(8) 0.7313(5)
H16 H 0.746260 0.756420 0.670475
C16 C 0.57859(10) 0.4564(5) 0.7830(3)
H17 H 0.577717 0.337373 0.760534
H18 H 0.555927 0.480664 0.829801
C17 C 0.48324(9) 0.5151(4) 0.5271(3)
H19 H 0.480440 0.603632 0.470111
C18 C 0.70460(11) 0.7496(7) 0.7950(5)
H20 H 0.703874 0.694483 0.867919
C19 C 0.61732(11) 0.4974(6) 0.8428(3)
H21 H 0.637159 0.411035 0.827055
H22 H 0.613187 0.502576 0.922270
C20 C 0.52741(9) 0.4730(4) 0.5417(3)
H23 H 0.529553 0.362848 0.580042
C21 C 0.70658(17) 0.9433(8) 0.8127(7)
H24 H 0.681721 0.982065 0.844229
H25 H 0.709890 0.999078 0.741540
C22 C 0.63042(9) 0.6730(5) 0.7977(3)
H26 H 0.632984 0.752214 0.860245
C23 C 0.55049(10) 0.4613(5) 0.4330(3)
H27 H 0.578562 0.456117 0.449806
H28 H 0.545832 0.564537 0.390464
C24 C 0.7411(2) 0.9973(13) 0.8906(9)
H29 H 0.740191 1.120458 0.899725
H30 H 0.736573 0.946571 0.962909
C25 C 0.65679(11) 0.7881(6) 0.6230(4)
H31 H 0.673959 0.886575 0.614028
H32 H 0.658475 0.718160 0.556774
C26 C 0.53947(11) 0.3066(5) 0.3620(3)
H33 H 0.555095 0.308480 0.294511
H34 H 0.546062 0.202859 0.402001
C27 C 0.7807(2) 0.9502(15) 0.8540(9)
C28 C 0.61079(13) 1.0316(5) 0.6837(4)
H35 H 0.583496 1.065553 0.687176
H36 H 0.624712 1.104686 0.633009
H37 H 0.622458 1.040692 0.755975
C29 C 0.49596(11) 0.3028(5) 0.3318(3)
C30 C 0.68519(13) 0.5165(7) 0.6834(4)
C31 C 0.50382(9) 0.6299(4) 0.6944(3)
C32 C 0.66899(10) 0.6833(6) 0.7267(4)
C33 C 0.54065(9) 0.6150(4) 0.6223(3)
C34 C 0.8131(2) 0.5615(15) 0.6139(8)
H38 H 0.837006 0.561734 0.575444
H39 H 0.789665 0.536454 0.576962
C35 C 0.39778(14) 0.5756(8) 0.4804(5)
H40 H 0.373539 0.602848 0.448315
H41 H 0.409699 0.651522 0.529481
C36 C 0.8033(4) 1.056(2) 0.8000(15)
H42 H 0.794285 1.165630 0.783714
H43 H 0.828463 1.022225 0.777629
C37 C 0.48392(14) 0.3628(6) 0.2353(3)
H44 H 0.457077 0.363386 0.218063
H45 H 0.502266 0.404535 0.184615
loop_
_geom_bond_atom_site_label_1
_geom_bond_atom_site_label_2
_geom_bond_site_symmetry_1
_geom_bond_site_symmetry_2
O1 C30 1_555 1_555
O2 C15 1_555 1_555
O3 C5 1_555 1_555
O4 C31 1_555 1_555
O5 C17 1_555 1_555
C1 C4 1_555 1_555
C2 H1 1_555 1_555
H2 C2 1_555 1_555
C3 C6 1_555 1_555
C4 H3 1_555 1_555
H4 C4 1_555 1_555
C5 C2 1_555 1_555
C6 H5 1_555 1_555
H6 C6 1_555 1_555
C7 C4 1_555 1_555
H7 C7 1_555 1_555
H8 C7 1_555 1_555
C8 C5 1_555 1_555
C9 C6 1_555 1_555
H9 C9 1_555 1_555
H10 C9 1_555 1_555
C10 C7 1_555 1_555
H11 C10 1_555 1_555
N1 C8 1_555 1_555
C11 C9 1_555 1_555
H12 C11 1_555 1_555
C12 C1 1_555 1_555
H13 C12 1_555 1_555
C13 N1 1_555 1_555
H14 C13 1_555 1_555
C14 C3 1_555 1_555
H15 C14 1_555 1_555
C15 C12 1_555 1_555
H16 C15 1_555 1_555
C16 C13 1_555 1_555
H17 C16 1_555 1_555
H18 C16 1_555 1_555
C17 C14 1_555 1_555
H19 C17 1_555 1_555
C18 C15 1_555 1_555
H20 C18 1_555 1_555
C19 C16 1_555 1_555
H21 C19 1_555 1_555
H22 C19 1_555 1_555
C20 C17 1_555 1_555
H23 C20 1_555 1_555
C21 C18 1_555 1_555
H24 C21 1_555 1_555
H25 C21 1_555 1_555
C22 N1 1_555 1_555
H26 C22 1_555 1_555
C23 C20 1_555 1_555
H27 C23 1_555 1_555
H28 C23 1_555 1_555
C24 C21 1_555 1_555
H29 C24 1_555 1_555
H30 C24 1_555 1_555
C25 C8 1_555 1_555
H31 C25 1_555 1_555
H32 C25 1_555 1_555
C26 C23 1_555 1_555
H33 C26 1_555 1_555
H34 C26 1_555 1_555
C27 C10 1_555 1_555
C28 C8 1_555 1_555
H35 C28 1_555 1_555
H36 C28 1_555 1_555
H37 C28 1_555 1_555
C29 C11 1_555 1_555
C30 O2 1_555 1_555
C31 O5 1_555 1_555
C32 C18 1_555 1_555
C33 C2 1_555 1_555
C34 C1 1_555 1_555
H38 C34 1_555 1_555
H39 C34 1_555 1_555
C35 C3 1_555 1_555
H40 C35 1_555 1_555
H41 C35 1_555 1_555
C36 C27 1_555 1_555
H42 C36 1_555 1_555
H43 C36 1_555 1_555
C37 C29 1_555 1_555
H44 C37 1_555 1_555
H45 C37 1_555 1_555
C10 C12 1_555 1_555
C11 C14 1_555 1_555
C13 C33 1_555 1_555
C19 C22 1_555 1_555
C20 C33 1_555 1_555
C22 C32 1_555 1_555
C24 C27 1_555 1_555
C25 C32 1_555 1_555
C26 C29 1_555 1_555
C30 C32 1_555 1_555
C31 C33 1_555 1_555

#END
