
#######################################################################
#
#                 Cambridge Crystallographic Data Centre
#                                CCDC 
#
#######################################################################
#
# If this CIF has been generated from an entry in the Cambridge 
# Structural Database, then it will include bibliographic, chemical, 
# crystal, experimental, refinement or atomic coordinate data resulting 
# from the CCDC's data processing and validation procedures.
#
#######################################################################

data_JIQHOJ
_chemical_formula_moiety         'C35 H29 Cl1 N2 O4,H2 O1'
_chemical_name_systematic        
'5-(3-chloro-2-{1,2-diphenyl-2-[(pyridine-2-carbonyl)amino]ethoxy}naphthalen-1-yl)pent-2-enoic acid monohydrate'
_symmetry_cell_setting           monoclinic
_symmetry_space_group_name_H-M   'P 21'
_symmetry_Int_Tables_number      4
_space_group_name_Hall           'P 2yb'
loop_
_symmetry_equiv_pos_site_id
_symmetry_equiv_pos_as_xyz
1 x,y,z
2 -x,1/2+y,-z
_cell_length_a                   13.0073(9)
_cell_length_b                   8.9736(5)
_cell_length_c                   14.0563(11)
_cell_angle_alpha                90
_cell_angle_beta                 110.321(8)
_cell_angle_gamma                90
_cell_volume                     1538.57
_exptl_crystal_colour            colorless
_exptl_crystal_description       block
_cell_formula_units_Z            2
loop_
_atom_site_label
_atom_site_type_symbol
_atom_site_fract_x
_atom_site_fract_y
_atom_site_fract_z
Cl1 Cl -0.55133(13) -0.3131(2) -0.32251(11)
O1 O -0.3772(2) -0.4266(3) -0.1425(2)
O2 O -0.0949(4) -0.3861(6) 0.4023(3)
O3 O -0.1502(4) -0.6154(6) 0.4133(3)
O4 O -0.0838(3) -0.4469(4) -0.2743(3)
N1 N -0.2195(3) -0.3843(4) -0.2170(3)
H1 H -0.2669 -0.3173 -0.2176
N2 N -0.2505(3) -0.1254(5) -0.3112(3)
C1 C -0.4920(3) -0.4796(5) -0.0455(3)
C2 C -0.4806(3) -0.4363(5) -0.1346(3)
C3 C -0.5718(4) -0.3904(6) -0.2177(3)
C4 C -0.6748(4) -0.3977(6) -0.2148(4)
H2 H -0.7343 -0.3698 -0.2712
C5 C -0.6913(4) -0.4473(5) -0.1267(4)
C6 C -0.8000(4) -0.4559(6) -0.1220(6)
H3 H -0.8606 -0.4359 -0.1795
C7 C -0.8142(6) -0.4930(7) -0.0341(7)
H4 H -0.8847 -0.4987 -0.0320
C8 C -0.7250(6) -0.5228(7) 0.0532(6)
H5 H -0.7361 -0.5446 0.1136
C9 C -0.6208(5) -0.5200(6) 0.0503(4)
H6 H -0.5621 -0.5434 0.1086
C10 C -0.6001(4) -0.4820(5) -0.0401(4)
C11 C -0.3927(4) -0.5096(5) 0.0470(3)
H7 H -0.3372 -0.5595 0.0270
H8 H -0.4127 -0.5752 0.0926
C12 C -0.3459(4) -0.3649(6) 0.1019(4)
H9 H -0.3129 -0.3102 0.0604
H10 H -0.4065 -0.3054 0.1060
C13 C -0.2631(5) -0.3772(7) 0.2061(4)
H11 H -0.2271 -0.2896 0.2342
C14 C -0.2358(5) -0.4928(7) 0.2607(4)
H12 H -0.2683 -0.5830 0.2340
C15 C -0.1544(5) -0.4911(8) 0.3651(5)
C16 C -0.3308(3) -0.5643(5) -0.1670(3)
H13 H -0.3256 -0.6372 -0.1137
C17 C -0.4003(4) -0.6314(5) -0.2672(3)
C18 C -0.3911(5) -0.5973(7) -0.3595(4)
H14 H -0.3373 -0.5304 -0.3615
C19 C -0.4589(6) -0.6588(7) -0.4484(4)
H15 H -0.4507 -0.6326 -0.5094
C20 C -0.5371(5) -0.7566(8) -0.4486(5)
H16 H -0.5836 -0.7971 -0.5091
C21 C -0.5472(5) -0.7957(9) -0.3583(5)
H17 H -0.6006 -0.8639 -0.3574
C22 C -0.4783(4) -0.7343(7) -0.2681(4)
H18 H -0.4853 -0.7637 -0.2071
C23 C -0.2139(3) -0.5162(5) -0.1561(3)
H19 H -0.1814 -0.5962 -0.1839
C24 C -0.1418(3) -0.4942(6) -0.0457(4)
C25 C -0.1030(4) -0.3574(6) -0.0052(4)
H20 H -0.1195 -0.2732 -0.0463
C26 C -0.0397(4) -0.3442(7) 0.0963(4)
H21 H -0.0141 -0.2508 0.1227
C27 C -0.0139(4) -0.4661(7) 0.1586(4)
H22 H 0.0281 -0.4559 0.2270
C28 C -0.0507(4) -0.6032(8) 0.1189(5)
H23 H -0.0330 -0.6872 0.1602
C29 C -0.1143(4) -0.6174(6) 0.0171(4)
H24 H -0.1388 -0.7112 -0.0092
C30 C -0.1563(3) -0.3595(6) -0.2722(3)
C31 C -0.1798(4) -0.2176(6) -0.3309(3)
C32 C -0.1313(4) -0.1860(7) -0.4018(4)
H25 H -0.0826 -0.2527 -0.4140
C33 C -0.1568(5) -0.0533(9) -0.4541(4)
H26 H -0.1258 -0.0295 -0.5026
C34 C -0.2275(5) 0.0421(8) -0.4343(5)
H27 H -0.2452 0.1328 -0.4681
C35 C -0.2725(4) 0.0011(7) -0.3626(4)
H28 H -0.3214 0.0666 -0.3497
O5 O -0.0123(5) -0.6203(6) -0.4019(4)
H29 H -0.0788 -0.6397 -0.4103
H30 H 0.0258 -0.6993 -0.3852
loop_
_geom_bond_atom_site_label_1
_geom_bond_atom_site_label_2
_geom_bond_site_symmetry_1
_geom_bond_site_symmetry_2
Cl1 C3 1_555 1_555
O1 C2 1_555 1_555
O2 C15 1_555 1_555
O3 C15 1_555 1_555
O4 C30 1_555 1_555
N1 H1 1_555 1_555
N2 C31 1_555 1_555
C1 C2 1_555 1_555
C2 C3 1_555 1_555
C3 C4 1_555 1_555
C4 H2 1_555 1_555
C5 C4 1_555 1_555
C6 C5 1_555 1_555
H3 C6 1_555 1_555
C7 C6 1_555 1_555
H4 C7 1_555 1_555
C8 C7 1_555 1_555
H5 C8 1_555 1_555
C9 C8 1_555 1_555
H6 C9 1_555 1_555
C10 C1 1_555 1_555
C11 C1 1_555 1_555
H7 C11 1_555 1_555
H8 C11 1_555 1_555
C12 C11 1_555 1_555
H9 C12 1_555 1_555
H10 C12 1_555 1_555
C13 C12 1_555 1_555
H11 C13 1_555 1_555
C14 C13 1_555 1_555
H12 C14 1_555 1_555
C15 C14 1_555 1_555
C16 O1 1_555 1_555
H13 C16 1_555 1_555
C17 C16 1_555 1_555
C18 C17 1_555 1_555
H14 C18 1_555 1_555
C19 C18 1_555 1_555
H15 C19 1_555 1_555
C20 C19 1_555 1_555
H16 C20 1_555 1_555
C21 C20 1_555 1_555
H17 C21 1_555 1_555
C22 C17 1_555 1_555
H18 C22 1_555 1_555
C23 N1 1_555 1_555
H19 C23 1_555 1_555
C24 C23 1_555 1_555
C25 C24 1_555 1_555
H20 C25 1_555 1_555
C26 C25 1_555 1_555
H21 C26 1_555 1_555
C27 C26 1_555 1_555
H22 C27 1_555 1_555
C28 C27 1_555 1_555
H23 C28 1_555 1_555
C29 C24 1_555 1_555
H24 C29 1_555 1_555
C30 N1 1_555 1_555
C31 C30 1_555 1_555
C32 C31 1_555 1_555
H25 C32 1_555 1_555
C33 C32 1_555 1_555
H26 C33 1_555 1_555
C34 C33 1_555 1_555
H27 C34 1_555 1_555
C35 N2 1_555 1_555
H28 C35 1_555 1_555
O5 H29 1_555 1_555
H30 O5 1_555 1_555
C5 C10 1_555 1_555
C9 C10 1_555 1_555
C16 C23 1_555 1_555
C21 C22 1_555 1_555
C28 C29 1_555 1_555
C34 C35 1_555 1_555

#END
