
#######################################################################
#
#                 Cambridge Crystallographic Data Centre
#                                CCDC 
#
#######################################################################
#
# If this CIF has been generated from an entry in the Cambridge 
# Structural Database, then it will include bibliographic, chemical, 
# crystal, experimental, refinement or atomic coordinate data resulting 
# from the CCDC's data processing and validation procedures.
#
#######################################################################

data_JIQMII
_chemical_formula_moiety         'C3 H4 N8 O2,2(H2 O1)'
_chemical_name_systematic        'bis(1H-tetrazol-5-yl)methanediol dihydrate'
_symmetry_cell_setting           monoclinic
_symmetry_space_group_name_H-M   'C 2/c'
_symmetry_Int_Tables_number      15
_space_group_name_Hall           '-C 2yn'
loop_
_symmetry_equiv_pos_site_id
_symmetry_equiv_pos_as_xyz
1 x,y,z
2 -x,y,1/2-z
3 1/2+x,1/2+y,z
4 1/2-x,1/2+y,1/2-z
5 -x,-y,-z
6 x,-y,1/2+z
7 1/2-x,1/2-y,-z
8 1/2+x,1/2-y,1/2+z
_cell_length_a                   11.752(2)
_cell_length_b                   8.3925(17)
_cell_length_c                   9.0193(18)
_cell_angle_alpha                90
_cell_angle_beta                 92.41(3)
_cell_angle_gamma                90
_cell_volume                     888.775
_exptl_crystal_colour            colorless
_exptl_crystal_description       block
_cell_formula_units_Z            4
loop_
_atom_site_label
_atom_site_type_symbol
_atom_site_fract_x
_atom_site_fract_y
_atom_site_fract_z
O1 O 0.31385(11) 0.37068(17) 0.37242(15)
H1 H 0.2782 0.4281 0.4310
H2 H 0.2615 0.3440 0.3112
O2 O 0.58330(12) 0.44348(17) 0.82545(15)
H3 H 0.6190 0.4893 0.7589
N1 N 0.57683(14) 0.1306(2) 0.42179(19)
N2 N 0.64739(13) 0.1698(2) 0.64706(18)
N3 N 0.50697(14) 0.22712(19) 0.49499(18)
H4 H 0.4405 0.2602 0.4554
N4 N 0.66076(14) 0.0962(2) 0.5148(2)
C1 C 0.55117(16) 0.2501(2) 0.6315(2)
C2 C 0.5000 0.3534(3) 0.7500
O2A O 0.41670(12) 0.44348(17) 0.67455(15)
H3A H 0.3810 0.4893 0.7411
N1A N 0.42317(14) 0.1306(2) 1.07821(19)
N2A N 0.35261(13) 0.1698(2) 0.85294(18)
N3A N 0.49303(14) 0.22712(19) 1.00501(18)
H4A H 0.5595 0.2602 1.0446
N4A N 0.33924(14) 0.0962(2) 0.9852(2)
C1A C 0.44883(16) 0.2501(2) 0.8685(2)
loop_
_geom_bond_atom_site_label_1
_geom_bond_atom_site_label_2
_geom_bond_site_symmetry_1
_geom_bond_site_symmetry_2
O1 H1 1_555 1_555
H2 O1 1_555 1_555
O2 H3 1_555 1_555
N1 N3 1_555 1_555
N2 N4 1_555 1_555
N3 H4 1_555 1_555
N4 N1 1_555 1_555
C1 N2 1_555 1_555
C2 O2 1_555 1_555
O2A C2 1_555 1_555
H3A O2A 1_555 1_555
N1A N3A 1_555 1_555
N2A N4A 1_555 1_555
N3A H4A 1_555 1_555
N4A N1A 1_555 1_555
C1A C2 1_555 1_555
N3 C1 1_555 1_555
C1 C2 1_555 1_555
N2A C1A 1_555 1_555
N3A C1A 1_555 1_555

#END
