
#######################################################################
#
#                 Cambridge Crystallographic Data Centre
#                                CCDC 
#
#######################################################################
#
# If this CIF has been generated from an entry in the Cambridge 
# Structural Database, then it will include bibliographic, chemical, 
# crystal, experimental, refinement or atomic coordinate data resulting 
# from the CCDC's data processing and validation procedures.
#
#######################################################################

data_JIQMEE
_chemical_formula_moiety         'C3 H2 N8 O1'
_chemical_name_systematic        bis(1H-tetrazol-5-yl)methanone
_symmetry_cell_setting           triclinic
_symmetry_space_group_name_H-M   'P -1'
_symmetry_Int_Tables_number      2
_space_group_name_Hall           '-P 1'
loop_
_symmetry_equiv_pos_site_id
_symmetry_equiv_pos_as_xyz
1 x,y,z
2 -x,-y,-z
_cell_length_a                   6.9602(14)
_cell_length_b                   9.6833(19)
_cell_length_c                   9.754(2)
_cell_angle_alpha                104.42(3)
_cell_angle_beta                 90.03(3)
_cell_angle_gamma                92.03(3)
_cell_volume                     636.258
_exptl_crystal_colour            colorless
_exptl_crystal_description       block
_cell_formula_units_Z            4
loop_
_atom_site_label
_atom_site_type_symbol
_atom_site_fract_x
_atom_site_fract_y
_atom_site_fract_z
O1 O 0.3714(6) 0.4474(4) 0.1542(4)
N1 N 0.2043(7) 0.2994(5) 0.3440(5)
N2 N 0.1444(7) 0.1901(5) 0.3896(5)
N3 N 0.2459(6) 0.0782(5) 0.3217(5)
N4 N 0.3703(6) 0.1121(5) 0.2331(5)
H1 H 0.4514 0.0569 0.1777
N5 N 0.7506(7) 0.2000(5) 0.1262(5)
N6 N 0.9158(7) 0.2168(6) 0.0557(5)
N7 N 0.9027(7) 0.3245(6) 0.0014(6)
N8 N 0.7318(7) 0.3792(5) 0.0366(5)
H2 H 0.6870 0.4539 0.0129
C1 C 0.3444(7) 0.2478(6) 0.2474(5)
C2 C 0.4430(8) 0.3396(6) 0.1705(5)
C3 C 0.6385(8) 0.3031(6) 0.1140(5)
O2 O -0.1331(6) 0.5423(4) 0.3253(4)
N9 N 0.2328(7) 0.6089(5) 0.4360(5)
H3 H 0.1909 0.5244 0.4438
N10 N 0.4042(7) 0.6696(6) 0.4781(5)
N11 N 0.4102(7) 0.7922(6) 0.4487(5)
N12 N 0.2416(6) 0.8132(5) 0.3852(5)
N13 N -0.1289(6) 0.8946(5) 0.2793(5)
N14 N -0.2557(6) 0.9324(5) 0.1972(5)
N15 N -0.3697(7) 0.8252(5) 0.1259(5)
N16 N -0.3111(7) 0.7113(5) 0.1641(5)
H4 H -0.3599 0.6237 0.1353
C4 C 0.1334(8) 0.6977(6) 0.3774(5)
C5 C -0.0623(8) 0.6573(6) 0.3217(5)
C6 C -0.1636(7) 0.7568(6) 0.2559(5)
loop_
_geom_bond_atom_site_label_1
_geom_bond_atom_site_label_2
_geom_bond_site_symmetry_1
_geom_bond_site_symmetry_2
O1 C2 1_555 1_555
N1 N2 1_555 1_555
N2 N3 1_555 1_555
N3 N4 1_555 1_555
N4 H1 1_555 1_555
N5 N6 1_555 1_555
N6 N7 1_555 1_555
N7 N8 1_555 1_555
N8 H2 1_555 1_555
C1 N1 1_555 1_555
C2 C1 1_555 1_555
C3 N5 1_555 1_555
O2 C5 1_555 1_555
N9 H3 1_555 1_555
N10 N9 1_555 1_555
N11 N10 1_555 1_555
N12 N11 1_555 1_555
N13 N14 1_555 1_555
N14 N15 1_555 1_555
N15 N16 1_555 1_555
N16 H4 1_555 1_555
C4 N9 1_555 1_555
C5 C4 1_555 1_555
C6 N13 1_555 1_555
N4 C1 1_555 1_555
N8 C3 1_555 1_555
C2 C3 1_555 1_555
N12 C4 1_555 1_555
N16 C6 1_555 1_555
C5 C6 1_555 1_555

#END
