
#######################################################################
#
#                 Cambridge Crystallographic Data Centre
#                                CCDC 
#
#######################################################################
#
# If this CIF has been generated from an entry in the Cambridge 
# Structural Database, then it will include bibliographic, chemical, 
# crystal, experimental, refinement or atomic coordinate data resulting 
# from the CCDC's data processing and validation procedures.
#
#######################################################################

data_JIQMEC
_chemical_formula_moiety         'C16 H36 N1 1+,C18 H13 O4 1-,H3 B1 O3'
_chemical_name_systematic        
'tetra-n-butylammonium trans-9,10-dihydro-11-carboxy-9,10-ethanoanthracene-12-carboxylate boric acid'
_symmetry_cell_setting           monoclinic
_symmetry_space_group_name_H-M   'P 21/c'
_symmetry_Int_Tables_number      14
_space_group_name_Hall           '-P 2ybc'
loop_
_symmetry_equiv_pos_site_id
_symmetry_equiv_pos_as_xyz
1 x,y,z
2 -x,1/2+y,1/2-z
3 -x,-y,-z
4 x,1/2-y,1/2+z
_cell_length_a                   15.6990(10)
_cell_length_b                   9.9546(6)
_cell_length_c                   22.9330(14)
_cell_angle_alpha                90
_cell_angle_beta                 109.962(3)
_cell_angle_gamma                90
_cell_volume                     3368.58
_exptl_crystal_colour            colorless
_exptl_crystal_description       block
_cell_formula_units_Z            4
loop_
_atom_site_label
_atom_site_type_symbol
_atom_site_fract_x
_atom_site_fract_y
_atom_site_fract_z
B1 B 0.03125(10) -0.18157(15) 0.47040(7)
O1 O -0.01856(7) -0.17997(10) 0.50857(5)
H1 H -0.0294(12) -0.0985(17) 0.5194(8)
O2 O 0.04948(6) -0.30461(8) 0.45215(4)
H2 H 0.0912(11) -0.3035(15) 0.4323(7)
O3 O 0.05898(6) -0.06331(9) 0.45223(4)
H3 H 0.0925(10) -0.0744(14) 0.4288(7)
O4 O 0.23624(6) 0.05568(8) 0.31836(4)
H4 H 0.2040(11) 0.0013(16) 0.3445(7)
O5 O 0.37437(6) 0.06191(9) 0.31266(4)
O6 O 0.16390(6) -0.09705(8) 0.38001(4)
O7 O 0.17432(6) -0.31690(9) 0.40114(4)
C1 C 0.52371(9) -0.21679(13) 0.32832(6)
H5 H 0.5620 -0.1400 0.3374
C2 C 0.53117(9) -0.31159(15) 0.28593(6)
H6 H 0.5740 -0.2992 0.2655
C3 C 0.47631(10) -0.42394(15) 0.27355(6)
H7 H 0.4824 -0.4894 0.2451
C4 C 0.41225(9) -0.44214(13) 0.30234(6)
H8 H 0.3741 -0.5190 0.2932
C5 C 0.50978(8) -0.20525(13) 0.52254(6)
H9 H 0.5495 -0.1301 0.5320
C6 C 0.50721(9) -0.29176(14) 0.56948(6)
H10 H 0.5452 -0.2758 0.6111
C7 C 0.44949(9) -0.40090(14) 0.55570(6)
H11 H 0.4482 -0.4603 0.5878
C8 C 0.39338(9) -0.42412(13) 0.49521(6)
H12 H 0.3534 -0.4989 0.4860
C9 C 0.44596(8) -0.14301(12) 0.40585(5)
H13 H 0.4892 -0.0657 0.4161
C10 C 0.33946(8) -0.34999(12) 0.38018(5)
H14 H 0.3009 -0.4326 0.3710
C11 C 0.28202(8) -0.21977(11) 0.36139(6)
H15 H 0.2579 -0.2169 0.3150
C12 C 0.34560(8) -0.09587(12) 0.38356(5)
H16 H 0.3341 -0.0587 0.4207
C13 C 0.46047(8) -0.23444(12) 0.35732(5)
C14 C 0.40450(8) -0.34701(12) 0.34462(5)
C15 C 0.45465(8) -0.22869(12) 0.46219(6)
C16 C 0.39565(8) -0.33860(12) 0.44839(6)
C17 C 0.32233(9) 0.01395(12) 0.33518(6)
C18 C 0.20085(9) -0.21241(13) 0.38311(6)
N1 N 0.82133(7) 0.49461(10) 0.38096(4)
C19 C 0.78311(9) 0.60635(12) 0.33472(6)
H17 H 0.7253 0.6362 0.3389
H18 H 0.7687 0.5687 0.2925
C20 C 0.84253(9) 0.72879(13) 0.33994(6)
H19 H 0.8965 0.7042 0.3293
H20 H 0.8634 0.7627 0.3831
C21 C 0.78904(10) 0.83746(13) 0.29608(6)
H21 H 0.7694 0.8029 0.2530
H22 H 0.7340 0.8586 0.3061
C22 C 0.84345(10) 0.96544(14) 0.29995(7)
H23 H 0.8064 1.0315 0.2704
H24 H 0.8979 0.9453 0.2899
H25 H 0.8611 1.0021 0.3421
C23 C 0.74708(9) 0.38959(12) 0.36796(6)
H26 H 0.6918 0.4335 0.3705
H27 H 0.7330 0.3574 0.3248
C24 C 0.76801(9) 0.26872(13) 0.41065(6)
H28 H 0.7730 0.2974 0.4530
H29 H 0.8270 0.2299 0.4126
C25 C 0.69453(9) 0.16214(13) 0.38804(6)
H30 H 0.6346 0.2036 0.3811
H31 H 0.6948 0.1252 0.3480
C26 C 0.70954(11) 0.04891(15) 0.43498(7)
H32 H 0.6611 -0.0177 0.4196
H33 H 0.7090 0.0853 0.4746
H34 H 0.7682 0.0062 0.4410
C27 C 0.84786(8) 0.54648(12) 0.44703(5)
H35 H 0.8639 0.4683 0.4754
H36 H 0.9032 0.6017 0.4556
C28 C 0.77820(8) 0.62899(12) 0.46314(6)
H37 H 0.7188 0.5827 0.4488
H38 H 0.7710 0.7178 0.4426
C29 C 0.81096(9) 0.64660(13) 0.53347(6)
H39 H 0.8067 0.5592 0.5529
H40 H 0.8756 0.6734 0.5480
C30 C 0.75741(10) 0.75069(14) 0.55501(7)
H41 H 0.7812 0.7565 0.6004
H42 H 0.6934 0.7243 0.5413
H43 H 0.7631 0.8384 0.5372
C31 C 0.90783(8) 0.43665(12) 0.37544(6)
H44 H 0.9525 0.5104 0.3822
H45 H 0.9328 0.3709 0.4094
C32 C 0.89990(9) 0.36788(13) 0.31472(6)
H46 H 0.8789 0.4332 0.2802
H47 H 0.8549 0.2943 0.3065
C33 C 0.99169(9) 0.31141(14) 0.31851(6)
H48 H 1.0363 0.3856 0.3276
H49 H 1.0120 0.2468 0.3534
C34 C 0.99041(10) 0.24128(15) 0.25936(6)
H50 H 1.0514 0.2090 0.2643
H51 H 0.9704 0.3046 0.2246
H52 H 0.9485 0.1650 0.2510
loop_
_geom_bond_atom_site_label_1
_geom_bond_atom_site_label_2
_geom_bond_site_symmetry_1
_geom_bond_site_symmetry_2
B1 O1 1_555 1_555
O1 H1 1_555 1_555
O2 B1 1_555 1_555
H2 O2 1_555 1_555
O3 B1 1_555 1_555
H3 O3 1_555 1_555
O4 H4 1_555 1_555
O5 C17 1_555 1_555
O6 C18 1_555 1_555
O7 C18 1_555 1_555
C1 H5 1_555 1_555
C2 C1 1_555 1_555
H6 C2 1_555 1_555
C3 C2 1_555 1_555
H7 C3 1_555 1_555
C4 C3 1_555 1_555
H8 C4 1_555 1_555
C5 H9 1_555 1_555
C6 C5 1_555 1_555
H10 C6 1_555 1_555
C7 C6 1_555 1_555
H11 C7 1_555 1_555
C8 C7 1_555 1_555
H12 C8 1_555 1_555
C9 H13 1_555 1_555
C10 H14 1_555 1_555
C11 C10 1_555 1_555
H15 C11 1_555 1_555
C12 C9 1_555 1_555
H16 C12 1_555 1_555
C13 C1 1_555 1_555
C14 C4 1_555 1_555
C15 C5 1_555 1_555
C16 C8 1_555 1_555
C17 O4 1_555 1_555
C18 C11 1_555 1_555
N1 C19 1_555 1_555
C19 H17 1_555 1_555
H18 C19 1_555 1_555
C20 C19 1_555 1_555
H19 C20 1_555 1_555
H20 C20 1_555 1_555
C21 C20 1_555 1_555
H21 C21 1_555 1_555
H22 C21 1_555 1_555
C22 C21 1_555 1_555
H23 C22 1_555 1_555
H24 C22 1_555 1_555
H25 C22 1_555 1_555
C23 N1 1_555 1_555
H26 C23 1_555 1_555
H27 C23 1_555 1_555
C24 C23 1_555 1_555
H28 C24 1_555 1_555
H29 C24 1_555 1_555
C25 C24 1_555 1_555
H30 C25 1_555 1_555
H31 C25 1_555 1_555
C26 C25 1_555 1_555
H32 C26 1_555 1_555
H33 C26 1_555 1_555
H34 C26 1_555 1_555
C27 N1 1_555 1_555
H35 C27 1_555 1_555
H36 C27 1_555 1_555
C28 C27 1_555 1_555
H37 C28 1_555 1_555
H38 C28 1_555 1_555
C29 C28 1_555 1_555
H39 C29 1_555 1_555
H40 C29 1_555 1_555
C30 C29 1_555 1_555
H41 C30 1_555 1_555
H42 C30 1_555 1_555
H43 C30 1_555 1_555
C31 N1 1_555 1_555
H44 C31 1_555 1_555
H45 C31 1_555 1_555
C32 C31 1_555 1_555
H46 C32 1_555 1_555
H47 C32 1_555 1_555
C33 C32 1_555 1_555
H48 C33 1_555 1_555
H49 C33 1_555 1_555
C34 C33 1_555 1_555
H50 C34 1_555 1_555
H51 C34 1_555 1_555
H52 C34 1_555 1_555
C9 C13 1_555 1_555
C9 C15 1_555 1_555
C10 C14 1_555 1_555
C10 C16 1_555 1_555
C11 C12 1_555 1_555
C12 C17 1_555 1_555
C13 C14 1_555 1_555
C15 C16 1_555 1_555

#END
