
#######################################################################
#
#                 Cambridge Crystallographic Data Centre
#                                CCDC 
#
#######################################################################
#
# If this CIF has been generated from an entry in the Cambridge 
# Structural Database, then it will include bibliographic, chemical, 
# crystal, experimental, refinement or atomic coordinate data resulting 
# from the CCDC's data processing and validation procedures.
#
#######################################################################

data_JIQNOP
_chemical_formula_moiety         'C18 H27 N3 O1 S1'
_chemical_name_systematic        
4-[5-(undecylsulfanyl)-1,3,4-oxadiazol-2-yl]pyridine
_symmetry_cell_setting           monoclinic
_symmetry_space_group_name_H-M   'P 21/c'
_symmetry_Int_Tables_number      14
_space_group_name_Hall           '-P 2ybc'
loop_
_symmetry_equiv_pos_site_id
_symmetry_equiv_pos_as_xyz
1 x,y,z
2 -x,1/2+y,1/2-z
3 -x,-y,-z
4 x,1/2-y,1/2+z
_cell_length_a                   24.453(17)
_cell_length_b                   10.604(7)
_cell_length_c                   7.095(5)
_cell_angle_alpha                90
_cell_angle_beta                 91.60(2)
_cell_angle_gamma                90
_cell_volume                     1839.01
_exptl_crystal_colour            colorless
_exptl_crystal_description       Prism
_cell_formula_units_Z            4
loop_
_atom_site_label
_atom_site_type_symbol
_atom_site_fract_x
_atom_site_fract_y
_atom_site_fract_z
S1 S 0.16307(4) 0.04976(10) -0.14789(15)
O1 O 0.05573(11) 0.0685(3) -0.1926(4)
N1 N -0.14971(14) 0.0892(4) -0.3246(5)
N2 N 0.03264(13) 0.2296(3) -0.0116(5)
N3 N 0.08990(13) 0.2129(3) 0.0069(5)
C1 C -0.08192(17) 0.2108(4) -0.1533(6)
H1 H -0.0733 0.2834 -0.0799
C2 C -0.13499(17) 0.1891(4) -0.2188(6)
H2 H -0.1625 0.2482 -0.1871
C3 C -0.10981(17) 0.0077(4) -0.3671(6)
H3 H -0.1193 -0.0631 -0.4432
C4 C -0.05598(16) 0.0202(4) -0.3072(6)
H4 H -0.0295 -0.0408 -0.3404
C5 C -0.04124(16) 0.1237(4) -0.1975(5)
C6 C 0.01493(16) 0.1443(4) -0.1286(6)
C7 C 0.10078(15) 0.1186(4) -0.1036(5)
C8 C 0.20608(16) 0.1375(4) 0.0197(6)
H5 H 0.2064 0.2281 -0.0138
H6 H 0.1921 0.1287 0.1486
C9 C 0.26304(16) 0.0832(4) 0.0108(6)
H7 H 0.2756 0.0900 -0.1203
H8 H 0.2617 -0.0075 0.0434
C10 C 0.30446(16) 0.1480(4) 0.1417(6)
H9 H 0.2930 0.1383 0.2737
H10 H 0.3053 0.2392 0.1123
C11 C 0.36162(17) 0.0931(4) 0.1223(7)
H11 H 0.3603 0.0022 0.1535
H12 H 0.3720 0.1004 -0.0112
C12 C 0.40608(17) 0.1548(4) 0.2452(6)
H13 H 0.3963 0.1469 0.3792
H14 H 0.4078 0.2457 0.2146
C13 C 0.46243(18) 0.0961(4) 0.2186(7)
H15 H 0.4606 0.0053 0.2503
H16 H 0.4717 0.1028 0.0840
C14 C 0.50791(18) 0.1563(5) 0.3372(6)
H17 H 0.4991 0.1486 0.4720
H18 H 0.5097 0.2472 0.3065
C15 C 0.56392(16) 0.0967(4) 0.3065(6)
H19 H 0.5617 0.0056 0.3355
H20 H 0.5727 0.1050 0.1717
C16 C 0.61029(17) 0.1541(4) 0.4247(6)
H21 H 0.6125 0.2453 0.3962
H22 H 0.6018 0.1454 0.5597
C17 C 0.66551(17) 0.0946(5) 0.3919(7)
H23 H 0.6743 0.1041 0.2573
H24 H 0.6633 0.0032 0.4194
C18 C 0.71156(19) 0.1517(5) 0.5120(8)
H25 H 0.7156 0.2411 0.4801
H26 H 0.7458 0.1072 0.4878
H27 H 0.7030 0.1436 0.6456
loop_
_geom_bond_atom_site_label_1
_geom_bond_atom_site_label_2
_geom_bond_site_symmetry_1
_geom_bond_site_symmetry_2
S1 C7 1_555 1_555
O1 C6 1_555 1_555
N1 C2 1_555 1_555
N2 N3 1_555 1_555
N3 C7 1_555 1_555
C1 H1 1_555 1_555
C2 C1 1_555 1_555
H2 C2 1_555 1_555
C3 N1 1_555 1_555
H3 C3 1_555 1_555
C4 C3 1_555 1_555
H4 C4 1_555 1_555
C5 C1 1_555 1_555
C6 N2 1_555 1_555
C7 O1 1_555 1_555
C8 S1 1_555 1_555
H5 C8 1_555 1_555
H6 C8 1_555 1_555
C9 C8 1_555 1_555
H7 C9 1_555 1_555
H8 C9 1_555 1_555
C10 C9 1_555 1_555
H9 C10 1_555 1_555
H10 C10 1_555 1_555
C11 C10 1_555 1_555
H11 C11 1_555 1_555
H12 C11 1_555 1_555
C12 C11 1_555 1_555
H13 C12 1_555 1_555
H14 C12 1_555 1_555
C13 C12 1_555 1_555
H15 C13 1_555 1_555
H16 C13 1_555 1_555
C14 C13 1_555 1_555
H17 C14 1_555 1_555
H18 C14 1_555 1_555
C15 C14 1_555 1_555
H19 C15 1_555 1_555
H20 C15 1_555 1_555
C16 C15 1_555 1_555
H21 C16 1_555 1_555
H22 C16 1_555 1_555
C17 C16 1_555 1_555
H23 C17 1_555 1_555
H24 C17 1_555 1_555
C18 C17 1_555 1_555
H25 C18 1_555 1_555
H26 C18 1_555 1_555
H27 C18 1_555 1_555
C4 C5 1_555 1_555
C5 C6 1_555 1_555

#END
