
#######################################################################
#
#                 Cambridge Crystallographic Data Centre
#                                CCDC 
#
#######################################################################
#
# If this CIF has been generated from an entry in the Cambridge 
# Structural Database, then it will include bibliographic, chemical, 
# crystal, experimental, refinement or atomic coordinate data resulting 
# from the CCDC's data processing and validation procedures.
#
#######################################################################

data_JIQSEK
_chemical_formula_moiety         'C24 H20 Cl1 N4 O1 1+,Cl1 1-'
_chemical_name_systematic        
'6-acetyl-2-(4-chlorophenyl)-1-phenyl-1,4,5,6-tetrahydro[1,2,4]triazolo[1,5-a][1,5]benzodiazepin-11-ium chloride'
_symmetry_cell_setting           monoclinic
_symmetry_space_group_name_H-M   'C 2/c'
_symmetry_Int_Tables_number      15
_space_group_name_Hall           '-C 2yn'
loop_
_symmetry_equiv_pos_site_id
_symmetry_equiv_pos_as_xyz
1 x,y,z
2 -x,y,1/2-z
3 1/2+x,1/2+y,z
4 1/2-x,1/2+y,1/2-z
5 -x,-y,-z
6 x,-y,1/2+z
7 1/2-x,1/2-y,-z
8 1/2+x,1/2-y,1/2+z
_cell_length_a                   22.048(11)
_cell_length_b                   11.951(6)
_cell_length_c                   19.498(10)
_cell_angle_alpha                90
_cell_angle_beta                 106.792(7)
_cell_angle_gamma                90
_cell_volume                     4918.57
_exptl_crystal_colour            colorless
_exptl_crystal_description       block
_cell_formula_units_Z            8
loop_
_atom_site_label
_atom_site_type_symbol
_atom_site_fract_x
_atom_site_fract_y
_atom_site_fract_z
Cl1 Cl 0.54166(14) 0.1192(2) 0.04502(15)
N1 N 0.7045(3) 0.4092(4) 0.5528(3)
N2 N 0.6342(2) 0.4623(4) 0.4168(3)
N3 N 0.6355(2) 0.4464(4) 0.3481(3)
N4 N 0.5811(3) 0.3096(4) 0.3760(3)
O1 O 0.7698(3) 0.2617(4) 0.5873(3)
C1 C 0.6952(3) 0.5243(5) 0.5329(3)
C2 C 0.7170(3) 0.6087(6) 0.5828(4)
H1 H 0.7401 0.5910 0.6295
C3 C 0.7043(4) 0.7189(6) 0.5629(4)
H2 H 0.7190 0.7750 0.5967
C4 C 0.6707(3) 0.7477(6) 0.4946(4)
H3 H 0.6634 0.8225 0.4819
C5 C 0.6474(3) 0.6628(6) 0.4436(4)
H4 H 0.6234 0.6807 0.3973
C6 C 0.6608(3) 0.5528(5) 0.4638(3)
C7 C 0.6026(3) 0.3524(5) 0.3269(4)
C8 C 0.6006(3) 0.3786(6) 0.4314(4)
C9 C 0.5899(3) 0.3708(7) 0.5033(4)
H5 H 0.5596 0.3116 0.5025
H6 H 0.5717 0.4405 0.5135
C10 C 0.6497(4) 0.3476(7) 0.5623(4)
H7 H 0.6434 0.3684 0.6079
H8 H 0.6586 0.2680 0.5638
C11 C 0.7630(3) 0.3552(6) 0.5631(4)
C12 C 0.8139(3) 0.4207(6) 0.5468(4)
H9 H 0.8298 0.4752 0.5838
H10 H 0.7973 0.4581 0.5016
H11 H 0.8476 0.3715 0.5443
C13 C 0.6782(4) 0.5063(6) 0.3174(4)
C14 C 0.7368(4) 0.4596(6) 0.3214(4)
H12 H 0.7489 0.3921 0.3451
C15 C 0.7760(5) 0.5135(8) 0.2904(5)
H13 H 0.8147 0.4819 0.2912
C16 C 0.7583(6) 0.6161(8) 0.2575(5)
H14 H 0.7860 0.6533 0.2372
C17 C 0.7032(5) 0.6621(7) 0.2543(4)
H15 H 0.6924 0.7314 0.2324
C18 C 0.6615(4) 0.6065(6) 0.2837(4)
H16 H 0.6220 0.6374 0.2805
C19 C 0.5918(3) 0.2973(5) 0.2558(4)
C20 C 0.5901(3) 0.3544(6) 0.1933(4)
H17 H 0.5990 0.4306 0.1950
C21 C 0.5753(3) 0.2986(6) 0.1286(4)
H18 H 0.5749 0.3357 0.0865
C22 C 0.5614(4) 0.1876(7) 0.1283(5)
C23 C 0.5640(4) 0.1279(6) 0.1881(5)
H19 H 0.5565 0.0512 0.1856
C24 C 0.5780(4) 0.1834(6) 0.2531(4)
H20 H 0.5783 0.1449 0.2947
Cl2 Cl 0.39030(11) 0.88716(18) 0.19394(13)
loop_
_geom_bond_atom_site_label_1
_geom_bond_atom_site_label_2
_geom_bond_site_symmetry_1
_geom_bond_site_symmetry_2
Cl1 C22 1_555 1_555
N1 C1 1_555 1_555
N2 N3 1_555 1_555
N3 C7 1_555 1_555
N4 C7 1_555 1_555
O1 C11 1_555 1_555
C1 C2 1_555 1_555
C2 H1 1_555 1_555
C3 C2 1_555 1_555
H2 C3 1_555 1_555
C4 C3 1_555 1_555
H3 C4 1_555 1_555
C5 C4 1_555 1_555
H4 C5 1_555 1_555
C6 N2 1_555 1_555
C7 C19 1_555 1_555
C8 N2 1_555 1_555
C9 C8 1_555 1_555
H5 C9 1_555 1_555
H6 C9 1_555 1_555
C10 N1 1_555 1_555
H7 C10 1_555 1_555
H8 C10 1_555 1_555
C11 N1 1_555 1_555
C12 C11 1_555 1_555
H9 C12 1_555 1_555
H10 C12 1_555 1_555
H11 C12 1_555 1_555
C13 N3 1_555 1_555
C14 C13 1_555 1_555
H12 C14 1_555 1_555
C15 C14 1_555 1_555
H13 C15 1_555 1_555
C16 C15 1_555 1_555
H14 C16 1_555 1_555
C17 C16 1_555 1_555
H15 C17 1_555 1_555
C18 C13 1_555 1_555
H16 C18 1_555 1_555
C19 C20 1_555 1_555
C20 H17 1_555 1_555
C21 C20 1_555 1_555
H18 C21 1_555 1_555
C22 C21 1_555 1_555
C23 C22 1_555 1_555
H19 C23 1_555 1_555
C24 C19 1_555 1_555
H20 C24 1_555 1_555
N4 C8 1_555 1_555
C1 C6 1_555 1_555
C5 C6 1_555 1_555
C9 C10 1_555 1_555
C17 C18 1_555 1_555
C23 C24 1_555 1_555

#END
