
#######################################################################
#
#                 Cambridge Crystallographic Data Centre
#                                CCDC 
#
#######################################################################
#
# If this CIF has been generated from an entry in the Cambridge 
# Structural Database, then it will include bibliographic, chemical, 
# crystal, experimental, refinement or atomic coordinate data resulting 
# from the CCDC's data processing and validation procedures.
#
#######################################################################

data_JIQSAG
_chemical_formula_moiety         'C18 H15 Cl1 N4 O1'
_chemical_name_systematic        
1-(2-(4-chlorophenyl)-4,5-dihydro-6H-[1,2,4]triazolo[1,5-a][1,5]benzodiazepin-6-yl)ethanone
_symmetry_cell_setting           monoclinic
_symmetry_space_group_name_H-M   'P 21/c'
_symmetry_Int_Tables_number      14
_space_group_name_Hall           '-P 2ybc'
loop_
_symmetry_equiv_pos_site_id
_symmetry_equiv_pos_as_xyz
1 x,y,z
2 -x,1/2+y,1/2-z
3 -x,-y,-z
4 x,1/2-y,1/2+z
_cell_length_a                   10.752(5)
_cell_length_b                   24.068(11)
_cell_length_c                   12.529(6)
_cell_angle_alpha                90
_cell_angle_beta                 100.772(6)
_cell_angle_gamma                90
_cell_volume                     3185.11
_exptl_crystal_colour            colorless
_exptl_crystal_description       prism
_cell_formula_units_Z            8
loop_
_atom_site_label
_atom_site_type_symbol
_atom_site_fract_x
_atom_site_fract_y
_atom_site_fract_z
Cl1 Cl 1.06084(6) 0.72404(3) 0.14490(6)
O1 O 0.25465(15) 0.75373(7) 0.48843(14)
N1 N 0.37228(15) 0.70349(7) 0.61930(14)
N2 N 0.60332(14) 0.67179(6) 0.56624(13)
N3 N 0.71682(14) 0.68362(7) 0.53630(13)
N4 N 0.57421(15) 0.65455(7) 0.39211(13)
C1 C 0.48056(19) 0.69742(7) 0.70379(16)
C2 C 0.4750(2) 0.70569(9) 0.81144(18)
H1 H 0.3993 0.7168 0.8306
C3 C 0.5802(2) 0.69771(9) 0.89097(18)
H2 H 0.5761 0.7042 0.9634
C4 C 0.6918(2) 0.68002(9) 0.86307(18)
H3 H 0.7628 0.6743 0.9170
C5 C 0.6988(2) 0.67084(9) 0.75697(17)
H4 H 0.7744 0.6589 0.7387
C6 C 0.59351(18) 0.67929(7) 0.67652(15)
C7 C 0.69381(18) 0.67271(7) 0.43203(16)
C8 C 0.52020(18) 0.65439(8) 0.47748(17)
C9 C 0.3861(2) 0.63723(11) 0.4718(2)
H5 H 0.3817 0.5972 0.4625
H6 H 0.3362 0.6536 0.4069
C10 C 0.3245(2) 0.65166(9) 0.56527(18)
H7 H 0.2339 0.6551 0.5396
H8 H 0.3383 0.6216 0.6178
C11 C 0.33246(18) 0.75285(9) 0.57256(18)
C12 C 0.3849(2) 0.80500(9) 0.6276(2)
H9 H 0.3385 0.8363 0.5932
H10 H 0.4725 0.8085 0.6224
H11 H 0.3774 0.8037 0.7027
C13 C 0.78692(18) 0.68209(8) 0.36220(16)
C14 C 0.91165(19) 0.69471(9) 0.40627(18)
H12 H 0.9387 0.6947 0.4812
C15 C 0.9954(2) 0.70729(9) 0.33931(19)
H13 H 1.0791 0.7159 0.3690
C16 C 0.9560(2) 0.70718(8) 0.23001(18)
C17 C 0.8343(2) 0.69333(10) 0.18424(18)
H14 H 0.8087 0.6924 0.1091
C18 C 0.7505(2) 0.68084(9) 0.25141(17)
H15 H 0.6676 0.6714 0.2210
Cl2 Cl 0.43673(8) 0.49201(3) 1.34072(6)
O2 O 0.85099(16) 0.45113(6) 0.53425(13)
N5 N 0.94677(16) 0.49713(6) 0.68169(15)
N6 N 0.86606(15) 0.51669(6) 0.88695(13)
N7 N 0.80865(16) 0.53608(7) 0.96900(14)
N8 N 0.75353(17) 0.44735(6) 0.92999(14)
C19 C 0.98282(19) 0.54596(8) 0.74408(17)
C20 C 1.0621(2) 0.58403(9) 0.7080(2)
H16 H 1.0885 0.5780 0.6424
C21 C 1.1023(2) 0.63064(10) 0.7681(2)
H17 H 1.1536 0.6566 0.7423
C22 C 1.0663(2) 0.63863(9) 0.8661(2)
H18 H 1.0938 0.6701 0.9069
C23 C 0.9902(2) 0.60083(8) 0.90500(18)
H19 H 0.9674 0.6064 0.9723
C24 C 0.94692(18) 0.55404(8) 0.84340(16)
C25 C 0.74279(19) 0.49304(8) 0.99136(17)
C26 C 0.8304(2) 0.46296(8) 0.86646(17)
C27 C 0.8730(2) 0.42423(8) 0.78788(18)
H20 H 0.8019 0.4167 0.7297
H21 H 0.8975 0.3894 0.8247
C28 C 0.9814(2) 0.44464(8) 0.73859(19)
H22 H 1.0553 0.4501 0.7951
H23 H 1.0021 0.4172 0.6880
C29 C 0.8759(2) 0.49567(9) 0.57987(19)
C30 C 0.8275(2) 0.54882(10) 0.5264(2)
H24 H 0.8930 0.5662 0.4957
H25 H 0.8022 0.5731 0.5792
H26 H 0.7560 0.5413 0.4699
C31 C 0.66678(19) 0.49369(8) 1.07635(18)
C32 C 0.6554(2) 0.54081(9) 1.1370(2)
H27 H 0.6963 0.5732 1.1226
C33 C 0.5855(2) 0.54085(10) 1.2175(2)
H28 H 0.5794 0.5728 1.2580
C34 C 0.5245(2) 0.49310(10) 1.2377(2)
C35 C 0.5327(2) 0.44616(9) 1.1786(2)
H29 H 0.4907 0.4140 1.1928
C36 C 0.6032(2) 0.44666(9) 1.09801(19)
H30 H 0.6081 0.4147 1.0573
loop_
_geom_bond_atom_site_label_1
_geom_bond_atom_site_label_2
_geom_bond_site_symmetry_1
_geom_bond_site_symmetry_2
Cl1 C16 1_555 1_555
O1 C11 1_555 1_555
N1 C1 1_555 1_555
N2 N3 1_555 1_555
N3 C7 1_555 1_555
N4 C7 1_555 1_555
C1 C2 1_555 1_555
C2 H1 1_555 1_555
C3 C2 1_555 1_555
H2 C3 1_555 1_555
C4 C3 1_555 1_555
H3 C4 1_555 1_555
C5 C4 1_555 1_555
H4 C5 1_555 1_555
C6 N2 1_555 1_555
C7 C13 1_555 1_555
C8 N2 1_555 1_555
C9 C8 1_555 1_555
H5 C9 1_555 1_555
H6 C9 1_555 1_555
C10 N1 1_555 1_555
H7 C10 1_555 1_555
H8 C10 1_555 1_555
C11 N1 1_555 1_555
C12 C11 1_555 1_555
H9 C12 1_555 1_555
H10 C12 1_555 1_555
H11 C12 1_555 1_555
C13 C14 1_555 1_555
C14 H12 1_555 1_555
C15 C14 1_555 1_555
H13 C15 1_555 1_555
C16 C15 1_555 1_555
C17 C16 1_555 1_555
H14 C17 1_555 1_555
C18 C13 1_555 1_555
H15 C18 1_555 1_555
Cl2 C34 1_555 1_555
O2 C29 1_555 1_555
N5 C19 1_555 1_555
N6 N7 1_555 1_555
N7 C25 1_555 1_555
N8 C25 1_555 1_555
C19 C20 1_555 1_555
C20 H16 1_555 1_555
C21 C20 1_555 1_555
H17 C21 1_555 1_555
C22 C21 1_555 1_555
H18 C22 1_555 1_555
C23 C22 1_555 1_555
H19 C23 1_555 1_555
C24 N6 1_555 1_555
C25 C31 1_555 1_555
C26 N6 1_555 1_555
C27 C26 1_555 1_555
H20 C27 1_555 1_555
H21 C27 1_555 1_555
C28 N5 1_555 1_555
H22 C28 1_555 1_555
H23 C28 1_555 1_555
C29 N5 1_555 1_555
C30 C29 1_555 1_555
H24 C30 1_555 1_555
H25 C30 1_555 1_555
H26 C30 1_555 1_555
C31 C32 1_555 1_555
C32 H27 1_555 1_555
C33 C32 1_555 1_555
H28 C33 1_555 1_555
C34 C33 1_555 1_555
C35 C34 1_555 1_555
H29 C35 1_555 1_555
C36 C31 1_555 1_555
H30 C36 1_555 1_555
N4 C8 1_555 1_555
C1 C6 1_555 1_555
C5 C6 1_555 1_555
C9 C10 1_555 1_555
C17 C18 1_555 1_555
N8 C26 1_555 1_555
C19 C24 1_555 1_555
C23 C24 1_555 1_555
C27 C28 1_555 1_555
C35 C36 1_555 1_555

#END
