
#######################################################################
#
#                 Cambridge Crystallographic Data Centre
#                                CCDC 
#
#######################################################################
#
# If this CIF has been generated from an entry in the Cambridge 
# Structural Database, then it will include bibliographic, chemical, 
# crystal, experimental, refinement or atomic coordinate data resulting 
# from the CCDC's data processing and validation procedures.
#
#######################################################################

data_JIRLUU
_chemical_formula_moiety         'C16 H15 N1 O4 S1'
_chemical_name_systematic        
N-acetyl-N-[(4-methylphenyl)sulfonyl]benzamide
_symmetry_cell_setting           monoclinic
_symmetry_space_group_name_H-M   'P 21/n'
_symmetry_Int_Tables_number      14
_space_group_name_Hall           '-P 2yn'
loop_
_symmetry_equiv_pos_site_id
_symmetry_equiv_pos_as_xyz
1 x,y,z
2 1/2-x,1/2+y,1/2-z
3 -x,-y,-z
4 1/2+x,1/2-y,1/2+z
_cell_length_a                   7.6777(4)
_cell_length_b                   15.0221(8)
_cell_length_c                   13.1271(8)
_cell_angle_alpha                90
_cell_angle_beta                 95.618(4)
_cell_angle_gamma                90
_cell_volume                     1506.74
_exptl_crystal_colour            colorless
_exptl_crystal_description       block
_cell_formula_units_Z            4
loop_
_atom_site_label
_atom_site_type_symbol
_atom_site_fract_x
_atom_site_fract_y
_atom_site_fract_z
S1 S 0.59624(5) 0.50193(2) 0.80549(3)
O1 O 0.28028(17) 0.64334(8) 0.70342(9)
O2 O 0.29718(14) 0.41196(7) 0.87229(8)
O3 O 0.68352(14) 0.57493(7) 0.76138(9)
O4 O 0.67397(14) 0.46190(7) 0.89748(8)
N1 N 0.40128(16) 0.54570(8) 0.82605(9)
C1 C 0.3631(2) 0.63638(10) 0.78551(12)
C2 C 0.2683(2) 0.49002(10) 0.85622(11)
C3 C 0.0964(2) 0.53415(12) 0.86677(14)
H1 H 0.0186 0.4924 0.8974
H2 H 0.0432 0.5523 0.7991
H3 H 0.1149 0.5867 0.9107
C4 C 0.42801(19) 0.71047(10) 0.85183(12)
C5 C 0.4157(2) 0.79677(10) 0.81167(12)
H4 H 0.3663 0.8065 0.7434
C6 C 0.4759(2) 0.86768(11) 0.87192(13)
H5 H 0.4700 0.9263 0.8446
C7 C 0.5452(2) 0.85376(11) 0.97236(13)
H6 H 0.5863 0.9029 1.0135
C8 C 0.5547(2) 0.76837(11) 1.01290(12)
H7 H 0.6002 0.7592 1.0820
C9 C 0.49761(19) 0.69654(10) 0.95243(12)
H8 H 0.5060 0.6379 0.9796
C10 C 0.54798(19) 0.42000(10) 0.71153(12)
C11 C 0.4582(2) 0.44503(11) 0.61871(12)
H9 H 0.4154 0.5040 0.6088
C12 C 0.4323(2) 0.38299(11) 0.54117(12)
H10 H 0.3694 0.3995 0.4781
C13 C 0.4969(2) 0.29649(11) 0.55385(12)
C14 C 0.5843(2) 0.27276(11) 0.64803(13)
H11 H 0.6275 0.2138 0.6580
C15 C 0.6091(2) 0.33374(10) 0.72730(13)
H12 H 0.6671 0.3167 0.7916
C16 C 0.4710(2) 0.23140(12) 0.46658(13)
H13 H 0.3584 0.2010 0.4686
H14 H 0.5658 0.1875 0.4727
H15 H 0.4719 0.2634 0.4015
loop_
_geom_bond_atom_site_label_1
_geom_bond_atom_site_label_2
_geom_bond_site_symmetry_1
_geom_bond_site_symmetry_2
S1 O3 1_555 1_555
O1 C1 1_555 1_555
O2 C2 1_555 1_555
O4 S1 1_555 1_555
N1 S1 1_555 1_555
C1 N1 1_555 1_555
C2 N1 1_555 1_555
C3 C2 1_555 1_555
H1 C3 1_555 1_555
H2 C3 1_555 1_555
H3 C3 1_555 1_555
C4 C1 1_555 1_555
C5 C4 1_555 1_555
H4 C5 1_555 1_555
C6 C5 1_555 1_555
H5 C6 1_555 1_555
C7 C6 1_555 1_555
H6 C7 1_555 1_555
C8 C7 1_555 1_555
H7 C8 1_555 1_555
C9 C4 1_555 1_555
H8 C9 1_555 1_555
C10 S1 1_555 1_555
C11 C10 1_555 1_555
H9 C11 1_555 1_555
C12 C11 1_555 1_555
H10 C12 1_555 1_555
C13 C12 1_555 1_555
C14 C13 1_555 1_555
H11 C14 1_555 1_555
C15 C10 1_555 1_555
H12 C15 1_555 1_555
C16 C13 1_555 1_555
H13 C16 1_555 1_555
H14 C16 1_555 1_555
H15 C16 1_555 1_555
C8 C9 1_555 1_555
C14 C15 1_555 1_555

#END
