
#######################################################################
#
#                 Cambridge Crystallographic Data Centre
#                                CCDC 
#
#######################################################################
#
# If this CIF has been generated from an entry in the Cambridge 
# Structural Database, then it will include bibliographic, chemical, 
# crystal, experimental, refinement or atomic coordinate data resulting 
# from the CCDC's data processing and validation procedures.
#
#######################################################################

data_JIRXOA
_chemical_formula_moiety         'C20 H14 N4 S2'
_chemical_name_systematic        4,4'-disulfanediylbis(2,2'-bipyridine)
_symmetry_cell_setting           monoclinic
_symmetry_space_group_name_H-M   'C 2/c'
_symmetry_Int_Tables_number      15
_space_group_name_Hall           '-C 2yn'
loop_
_symmetry_equiv_pos_site_id
_symmetry_equiv_pos_as_xyz
1 x,y,z
2 -x,y,1/2-z
3 1/2+x,1/2+y,z
4 1/2-x,1/2+y,1/2-z
5 -x,-y,-z
6 x,-y,1/2+z
7 1/2-x,1/2-y,-z
8 1/2+x,1/2-y,1/2+z
_cell_length_a                   22.281(3)
_cell_length_b                   5.7408(8)
_cell_length_c                   13.5967(17)
_cell_angle_alpha                90
_cell_angle_beta                 100.602(4)
_cell_angle_gamma                90
_cell_volume                     1709.47
_exptl_crystal_colour            colorless
_exptl_crystal_description       rectangular
_cell_formula_units_Z            4
loop_
_atom_site_label
_atom_site_type_symbol
_atom_site_fract_x
_atom_site_fract_y
_atom_site_fract_z
S1 S 0.00437(3) 0.12970(13) 0.67702(5)
N1 N -0.13416(10) 0.8635(4) 0.75187(15)
N2 N -0.13605(11) 0.6313(5) 0.50523(16)
C1 C -0.07789(12) 0.5041(5) 0.66314(19)
H1 H -0.0679 0.5237 0.7321
C2 C -0.12029(11) 0.6501(5) 0.60510(18)
C3 C -0.15058(12) 0.8400(5) 0.65223(19)
C4 C -0.05096(12) 0.3295(5) 0.61610(19)
C5 C -0.15943(13) 1.0378(5) 0.7953(2)
H2 H -0.1483 1.0554 0.8642
C6 C -0.21848(13) 1.1649(6) 0.6413(2)
H3 H -0.2469 1.2648 0.6044
C7 C -0.19288(13) 0.9862(5) 0.5949(2)
H4 H -0.2038 0.9640 0.5262
C8 C -0.06658(13) 0.3080(5) 0.5125(2)
H5 H -0.0491 0.1930 0.4786
C9 C -0.20103(13) 1.1928(5) 0.7439(2)
H6 H -0.2170 1.3128 0.7772
C10 C -0.10878(14) 0.4622(6) 0.4615(2)
H7 H -0.1189 0.4479 0.3923
S1A S -0.00437(3) 0.12970(13) 0.82298(5)
N1A N 0.13416(10) 0.8635(4) 0.74813(15)
N2A N 0.13605(11) 0.6313(5) 0.99477(16)
C1A C 0.07789(12) 0.5041(5) 0.83686(19)
H1A H 0.0679 0.5237 0.7679
C2A C 0.12029(11) 0.6501(5) 0.89490(18)
C3A C 0.15058(12) 0.8400(5) 0.84777(19)
C4A C 0.05096(12) 0.3295(5) 0.88390(19)
C5A C 0.15943(13) 1.0378(5) 0.7047(2)
H2A H 0.1483 1.0554 0.6358
C6A C 0.21848(13) 1.1649(6) 0.8587(2)
H3A H 0.2469 1.2648 0.8956
C7A C 0.19288(13) 0.9862(5) 0.9051(2)
H4A H 0.2038 0.9640 0.9738
C8A C 0.06658(13) 0.3080(5) 0.9875(2)
H5A H 0.0491 0.1930 1.0214
C9A C 0.20103(13) 1.1928(5) 0.7561(2)
H6A H 0.2170 1.3128 0.7228
C10A C 0.10878(14) 0.4622(6) 1.0385(2)
H7A H 0.1189 0.4479 1.1077
loop_
_geom_bond_atom_site_label_1
_geom_bond_atom_site_label_2
_geom_bond_site_symmetry_1
_geom_bond_site_symmetry_2
S1 C4 1_555 1_555
N1 C3 1_555 1_555
N2 C2 1_555 1_555
C1 H1 1_555 1_555
C2 C1 1_555 1_555
C3 C2 1_555 1_555
C4 C1 1_555 1_555
C5 N1 1_555 1_555
H2 C5 1_555 1_555
C6 H3 1_555 1_555
C7 C3 1_555 1_555
H4 C7 1_555 1_555
C8 C4 1_555 1_555
H5 C8 1_555 1_555
C9 C5 1_555 1_555
H6 C9 1_555 1_555
C10 N2 1_555 1_555
H7 C10 1_555 1_555
S1A S1 1_555 1_555
N1A C3A 1_555 1_555
N2A C2A 1_555 1_555
C1A H1A 1_555 1_555
C2A C1A 1_555 1_555
C3A C2A 1_555 1_555
C4A S1A 1_555 1_555
C5A N1A 1_555 1_555
H2A C5A 1_555 1_555
C6A H3A 1_555 1_555
C7A C3A 1_555 1_555
H4A C7A 1_555 1_555
C8A C4A 1_555 1_555
H5A C8A 1_555 1_555
C9A C5A 1_555 1_555
H6A C9A 1_555 1_555
C10A N2A 1_555 1_555
H7A C10A 1_555 1_555
C6 C7 1_555 1_555
C6 C9 1_555 1_555
C8 C10 1_555 1_555
C1A C4A 1_555 1_555
C6A C7A 1_555 1_555
C6A C9A 1_555 1_555
C8A C10A 1_555 1_555

#END
