
#######################################################################
#
#                 Cambridge Crystallographic Data Centre
#                                CCDC 
#
#######################################################################
#
# If this CIF has been generated from an entry in the Cambridge 
# Structural Database, then it will include bibliographic, chemical, 
# crystal, experimental, refinement or atomic coordinate data resulting 
# from the CCDC's data processing and validation procedures.
#
#######################################################################

data_JISCIX
_chemical_formula_moiety         'C14 H14 N2 O2,4(H2 O1)'
_chemical_name_systematic        
'7,15-Dihydroxy(2.2)(2,6)pyridinophane tetrahydrate'
_symmetry_cell_setting           monoclinic
_symmetry_space_group_name_H-M   'P 21/c'
_symmetry_Int_Tables_number      14
_space_group_name_Hall           '-P 2ybc'
loop_
_symmetry_equiv_pos_site_id
_symmetry_equiv_pos_as_xyz
1 x,y,z
2 -x,1/2+y,1/2-z
3 -x,-y,-z
4 x,1/2-y,1/2+z
_cell_length_a                   8.413(6)
_cell_length_b                   12.628(6)
_cell_length_c                   8.208(4)
_cell_angle_alpha                90
_cell_angle_beta                 118.70(4)
_cell_angle_gamma                90
_cell_volume                     764.883
_exptl_crystal_colour            colorless
_chemical_melting_point          300deg.C(dec.)
_cell_formula_units_Z            2
loop_
_atom_site_label
_atom_site_type_symbol
_atom_site_fract_x
_atom_site_fract_y
_atom_site_fract_z
N1 N 0.4707(3) 0.0567(2) -0.3821(3)
C1 C 0.3053(5) -0.1064(3) -0.4116(4)
C2 C 0.4580(4) -0.0325(2) -0.2952(4)
C3 C 0.5918(4) -0.0530(3) -0.1212(4)
C4 C 0.7456(4) 0.0131(2) -0.0301(4)
C5 C 0.7633(4) 0.0929(3) -0.1447(4)
C6 C 0.6277(4) 0.1117(2) -0.3185(4)
C7 C 0.3522(5) -0.1766(2) -0.5391(4)
O1 O 0.8651(3) -0.0002(2) 0.1385(3)
H1 H 0.3736(30) 0.0772(29) -0.4886(27)
H2 H 0.1990 -0.0655 -0.4883
H3 H 0.2793 -0.1502 -0.3318
H4 H 0.5820 -0.1145 -0.0578
H5 H 0.8731 0.1334 -0.0974
H6 H 0.2584 -0.2281 -0.6019
H7 H 0.4633 -0.2136 -0.4632
C7B C 0.6478(5) 0.1766(2) -0.4609(4)
C6B C 0.3723(4) -0.1117(2) -0.6815(4)
C1B C 0.6947(5) 0.1064(3) -0.5884(4)
H6B H 0.7416 0.2281 -0.3981
H7B H 0.5367 0.2136 -0.5368
N1B N 0.5293(3) -0.0567(2) -0.6179(3)
C5B C 0.2367(4) -0.0929(3) -0.8553(4)
C2B C 0.5420(4) 0.0325(2) -0.7048(4)
H2B H 0.8010 0.0655 -0.5117
H3B H 0.7207 0.1502 -0.6682
H1B H 0.6264(30) -0.0772(29) -0.5114(27)
C4B C 0.2544(4) -0.0131(2) -0.9699(4)
H5B H 0.1269 -0.1334 -0.9026
C3B C 0.4082(4) 0.0530(3) -0.8788(4)
O1B O 0.1349(3) 0.0002(2) -1.1385(3)
H4B H 0.4180 0.1145 -0.9422
O2 O 0.8543(5) -0.1830(2) 0.3139(4)
H8 H 0.8633(64) -0.1267(20) 0.2624(55)
H9 H 0.8598(60) -0.1829(34) 0.4198(30)
O3 O 1.1366(3) 0.1347(2) 0.3456(3)
H10 H 1.0534(41) 0.0920(26) 0.2755(48)
H11 H 1.1392(61) 0.1869(22) 0.2819(52)
loop_
_geom_bond_atom_site_label_1
_geom_bond_atom_site_label_2
_geom_bond_site_symmetry_1
_geom_bond_site_symmetry_2
N1 C2 1_555 1_555
C1 C2 1_555 1_555
C2 C3 1_555 1_555
C3 C4 1_555 1_555
C4 C5 1_555 1_555
C5 C6 1_555 1_555
C6 N1 1_555 1_555
C7 C1 1_555 1_555
O1 C4 1_555 1_555
H1 N1 1_555 1_555
H2 C1 1_555 1_555
H3 C1 1_555 1_555
H4 C3 1_555 1_555
H5 C5 1_555 1_555
H6 C7 1_555 1_555
H7 C7 1_555 1_555
O2 H8 1_555 1_555
H9 O2 1_555 1_555
O3 H10 1_555 1_555
H11 O3 1_555 1_555
C7B C6 1_555 1_555
C6B C7 1_555 1_555
C1B C7B 1_555 1_555
H6B C7B 1_555 1_555
H7B C7B 1_555 1_555
N1B C6B 1_555 1_555
C5B C6B 1_555 1_555
C2B C1B 1_555 1_555
H2B C1B 1_555 1_555
H3B C1B 1_555 1_555
H1B N1B 1_555 1_555
C4B C5B 1_555 1_555
H5B C5B 1_555 1_555
C3B C2B 1_555 1_555
O1B C4B 1_555 1_555
H4B C3B 1_555 1_555
N1B C2B 1_555 1_555
C4B C3B 1_555 1_555

#END
