
#######################################################################
#
#                 Cambridge Crystallographic Data Centre
#                                CCDC 
#
#######################################################################
#
# If this CIF has been generated from an entry in the Cambridge 
# Structural Database, then it will include bibliographic, chemical, 
# crystal, experimental, refinement or atomic coordinate data resulting 
# from the CCDC's data processing and validation procedures.
#
#######################################################################

data_JISKAA
_chemical_formula_moiety         'C35 H47 N2 O1 1+,I1 1-'
_chemical_name_systematic        
'1-dodecyl-4-{2-[9-(2-ethoxyethyl)-9H-carbazol-3-yl]ethenyl}pyridin-1-ium iodide'
_symmetry_cell_setting           monoclinic
_symmetry_space_group_name_H-M   'P 21/c'
_symmetry_Int_Tables_number      14
_space_group_name_Hall           '-P 2ybc'
loop_
_symmetry_equiv_pos_site_id
_symmetry_equiv_pos_as_xyz
1 x,y,z
2 -x,1/2+y,1/2-z
3 -x,-y,-z
4 x,1/2-y,1/2+z
_cell_length_a                   6.9216(2)
_cell_length_b                   59.8833(15)
_cell_length_c                   7.8371(4)
_cell_angle_alpha                90
_cell_angle_beta                 94.192(3)
_cell_angle_gamma                90
_cell_volume                     3239.7
_exptl_crystal_colour            red
_exptl_crystal_description       block
_cell_formula_units_Z            4
loop_
_atom_site_label
_atom_site_type_symbol
_atom_site_fract_x
_atom_site_fract_y
_atom_site_fract_z
I1 I 0.68465(12) 0.61771(2) 0.96776(12)
O1 O -0.8059(13) 0.74231(14) 0.3539(13)
N1 N 0.3963(13) 0.60628(17) 0.4643(13)
N2 N -0.9283(13) 0.69842(16) 0.4596(13)
C1 C -0.6812(16) 0.6763(2) 0.5717(14)
C2 C -0.7521(16) 0.68836(19) 0.4294(15)
C3 C -0.5082(17) 0.6639(2) 0.563(2)
H1 H -0.4585 0.6556 0.6562
C4 C -0.8233(17) 0.6787(2) 0.6997(16)
C5 C -0.4116(17) 0.6644(2) 0.4096(17)
C6 C 0.5919(17) 0.5960(2) 0.459(2)
H2 H 0.6544 0.5960 0.5741
H3 H 0.6694 0.6053 0.3888
C7 C 0.1390(17) 0.6182(2) 0.6242(19)
H4 H 0.0819 0.6185 0.7279
C8 C 1.0281(17) 0.5319(2) 0.360(2)
H5 H 1.1242 0.5435 0.3481
H6 H 1.0367 0.5273 0.4789
C9 C 0.3109(17) 0.6155(2) 0.3223(17)
H7 H 0.3705 0.6146 0.2199
C10 C -0.8295(19) 0.6700(2) 0.8612(16)
H8 H -0.7303 0.6611 0.9099
C11 C -0.9689(16) 0.69244(19) 0.6258(16)
C12 C -0.4892(17) 0.6767(2) 0.2739(15)
H9 H -0.4254 0.6764 0.1735
C13 C 1.5297(16) 0.4735(2) 0.224(2)
H10 H 1.5347 0.4679 0.3403
H11 H 1.6251 0.4853 0.2204
C14 C -1.1320(17) 0.6978(2) 0.7131(18)
H12 H -1.2304 0.7068 0.6644
C15 C 0.0454(17) 0.6287(2) 0.4848(19)
C16 C 0.1341(18) 0.6264(2) 0.3267(19)
H13 H 0.0733 0.6321 0.2266
C17 C 0.8273(17) 0.5418(2) 0.3153(18)
H14 H 0.8120 0.5447 0.1933
H15 H 0.7300 0.5309 0.3422
C18 C -0.6544(19) 0.6893(2) 0.275(2)
H16 H -0.6998 0.6979 0.1822
C19 C -0.2314(19) 0.6518(2) 0.392(2)
H17 H -0.1854 0.6514 0.2830
C20 C -0.9989(17) 0.7377(2) 0.394(2)
H18 H -1.0888 0.7472 0.3264
H19 H -1.0132 0.7407 0.5140
C21 C 0.3117(17) 0.6075(2) 0.6164(17)
H20 H 0.3717 0.6010 0.7142
C22 C -1.0408(16) 0.7138(2) 0.3550(18)
H21 H -1.1769 0.7110 0.3685
H22 H -1.0180 0.7110 0.2362
C23 C -1.139(2) 0.6890(3) 0.874(2)
H23 H -1.2451 0.6923 0.9365
C24 C -0.9926(19) 0.6752(2) 0.9486(17)
H24 H -1.0039 0.6694 1.0576
C25 C -0.1296(19) 0.6412(2) 0.513(2)
H25 H -0.1714 0.6416 0.6229
C26 C 1.2753(17) 0.5025(2) 0.2923(18)
H26 H 1.2829 0.4973 0.4100
H27 H 1.3702 0.5143 0.2847
C27 C 0.5886(18) 0.5726(2) 0.391(2)
H28 H 0.5424 0.5726 0.2707
H29 H 0.5022 0.5635 0.4528
C28 C 0.7940(19) 0.5633(2) 0.4115(19)
H30 H 0.8823 0.5745 0.3736
H31 H 0.8272 0.5607 0.5323
C29 C 1.7850(17) 0.4453(2) 0.152(2)
H32 H 1.7882 0.4389 0.2663
H33 H 1.8789 0.4573 0.1545
C30 C 1.5855(18) 0.4547(2) 0.106(2)
H34 H 1.4911 0.4428 0.1103
H35 H 1.5803 0.4602 -0.0102
C31 C -0.738(3) 0.7632(3) 0.411(3)
H36 H -0.7288 0.7636 0.5348
H37 H -0.8278 0.7747 0.3689
C32 C 1.844(2) 0.4273(3) 0.027(2)
H38 H 1.8293 0.4331 -0.0875
H39 H 1.7620 0.4145 0.0357
H40 H 1.9762 0.4231 0.0544
C33 C 1.0769(17) 0.5122(2) 0.250(2)
H41 H 0.9813 0.5006 0.2629
H42 H 1.0671 0.5168 0.1313
C34 C 1.3299(17) 0.4833(2) 0.179(2)
H43 H 1.3238 0.4885 0.0619
H44 H 1.2345 0.4716 0.1862
C35 C -0.546(3) 0.7671(3) 0.346(3)
H45 H -0.4512 0.7580 0.4093
H46 H -0.5116 0.7825 0.3607
H47 H -0.5495 0.7632 0.2272
loop_
_geom_bond_atom_site_label_1
_geom_bond_atom_site_label_2
_geom_bond_site_symmetry_1
_geom_bond_site_symmetry_2
O1 C20 1_555 1_555
N1 C6 1_555 1_555
N2 C2 1_555 1_555
C1 C2 1_555 1_555
C2 C18 1_555 1_555
C3 C1 1_555 1_555
H1 C3 1_555 1_555
C4 C1 1_555 1_555
C5 C3 1_555 1_555
C6 H2 1_555 1_555
H3 C6 1_555 1_555
C7 H4 1_555 1_555
C8 H5 1_555 1_555
H6 C8 1_555 1_555
C9 N1 1_555 1_555
H7 C9 1_555 1_555
C10 C4 1_555 1_555
H8 C10 1_555 1_555
C11 N2 1_555 1_555
C12 C5 1_555 1_555
H9 C12 1_555 1_555
C13 H10 1_555 1_555
H11 C13 1_555 1_555
C14 C11 1_555 1_555
H12 C14 1_555 1_555
C15 C7 1_555 1_555
C16 C9 1_555 1_555
H13 C16 1_555 1_555
C17 C8 1_555 1_555
H14 C17 1_555 1_555
H15 C17 1_555 1_555
C18 C12 1_555 1_555
H16 C18 1_555 1_555
C19 C5 1_555 1_555
H17 C19 1_555 1_555
C20 H18 1_555 1_555
H19 C20 1_555 1_555
C21 N1 1_555 1_555
H20 C21 1_555 1_555
C22 N2 1_555 1_555
H21 C22 1_555 1_555
H22 C22 1_555 1_555
C23 C14 1_555 1_555
H23 C23 1_555 1_555
C24 C10 1_555 1_555
H24 C24 1_555 1_555
C25 C15 1_555 1_555
H25 C25 1_555 1_555
C26 H26 1_555 1_555
H27 C26 1_555 1_555
C27 C6 1_555 1_555
H28 C27 1_555 1_555
H29 C27 1_555 1_555
C28 C17 1_555 1_555
H30 C28 1_555 1_555
H31 C28 1_555 1_555
C29 H32 1_555 1_555
H33 C29 1_555 1_555
C30 C13 1_555 1_555
H34 C30 1_555 1_555
H35 C30 1_555 1_555
C31 O1 1_555 1_555
H36 C31 1_555 1_555
H37 C31 1_555 1_555
C32 C29 1_555 1_555
H38 C32 1_555 1_555
H39 C32 1_555 1_555
H40 C32 1_555 1_555
C33 C8 1_555 1_555
H41 C33 1_555 1_555
H42 C33 1_555 1_555
C34 C13 1_555 1_555
H43 C34 1_555 1_555
H44 C34 1_555 1_555
C35 C31 1_555 1_555
H45 C35 1_555 1_555
H46 C35 1_555 1_555
H47 C35 1_555 1_555
C4 C11 1_555 1_555
C7 C21 1_555 1_555
C15 C16 1_555 1_555
C19 C25 1_555 1_555
C20 C22 1_555 1_555
C23 C24 1_555 1_555
C26 C33 1_555 1_555
C26 C34 1_555 1_555
C27 C28 1_555 1_555
C29 C30 1_555 1_555

#END
