
#######################################################################
#
#                 Cambridge Crystallographic Data Centre
#                                CCDC 
#
#######################################################################
#
# If this CIF has been generated from an entry in the Cambridge 
# Structural Database, then it will include bibliographic, chemical, 
# crystal, experimental, refinement or atomic coordinate data resulting 
# from the CCDC's data processing and validation procedures.
#
#######################################################################

data_JISPAF
_chemical_name_common            
'1,3-alt-tetra-O-isopropoxy-tri-p-carboxylatocalix[4]arene methanol solvate'
_chemical_formula_moiety         'C44 H48 O12,C1 H4 O1'
_chemical_name_systematic        
'25,26,27,28-tetrakis[(propan-2-yl)oxy]pentacyclo[19.3.1.1^3,7^.1^9,13^.1^15,19^]octacosa-1(25),3(28),4,6,9(27),10,12,15(26),16,18,21,23-dodecaene-5,11,17,23-tetracarboxylic acid methanol solvate'
_symmetry_cell_setting           orthorhombic
_symmetry_space_group_name_H-M   'F d d d'
_symmetry_Int_Tables_number      70
_space_group_name_Hall           '-F 2uv 2vw'
loop_
_symmetry_equiv_pos_site_id
_symmetry_equiv_pos_as_xyz
1 x,y,z
2 3/4-x,3/4-y,z
3 3/4-x,y,3/4-z
4 x,3/4-y,3/4-z
5 x,1/2+y,1/2+z
6 3/4-x,1/4-y,1/2+z
7 3/4-x,1/2+y,1/4-z
8 x,1/4-y,1/4-z
9 1/2+x,y,1/2+z
10 1/4-x,3/4-y,1/2+z
11 1/4-x,y,1/4-z
12 1/2+x,3/4-y,1/4-z
13 1/2+x,1/2+y,z
14 1/4-x,1/4-y,z
15 1/4-x,1/2+y,3/4-z
16 1/2+x,1/4-y,3/4-z
17 -x,-y,-z
18 1/4+x,1/4+y,-z
19 1/4+x,-y,1/4+z
20 -x,1/4+y,1/4+z
21 -x,1/2-y,1/2-z
22 1/4+x,3/4+y,1/2-z
23 1/4+x,1/2-y,3/4+z
24 -x,3/4+y,3/4+z
25 1/2-x,-y,1/2-z
26 3/4+x,1/4+y,1/2-z
27 3/4+x,-y,3/4+z
28 1/2-x,1/4+y,3/4+z
29 1/2-x,1/2-y,-z
30 3/4+x,3/4+y,-z
31 3/4+x,1/2-y,1/4+z
32 1/2-x,3/4+y,1/4+z
_cell_length_a                   22.73(2)
_cell_length_b                   26.88(2)
_cell_length_c                   28.36(4)
_cell_angle_alpha                90
_cell_angle_beta                 90
_cell_angle_gamma                90
_cell_volume                     17327.5
_exptl_crystal_colour            colorless
_exptl_crystal_description       block
_cell_formula_units_Z            16
loop_
_atom_site_label
_atom_site_type_symbol
_atom_site_fract_x
_atom_site_fract_y
_atom_site_fract_z
C1 C 1.00264(15) 0.10325(13) 0.30183(14)
H1 H 1.0346 0.0795 0.3043
H2 H 1.0118 0.1260 0.2763
C2 C 0.94622(15) 0.07590(12) 0.29060(13)
C3 C 0.94298(16) 0.02483(13) 0.29522(13)
H3 H 0.9771 0.0068 0.3013
C4 C 0.88948(15) -0.00016(12) 0.29098(14)
C5 C 0.83875(16) 0.02704(13) 0.28251(14)
H4 H 0.8030 0.0104 0.2804
C6 C 0.83977(15) 0.07771(12) 0.27717(12)
C7 C 0.89454(15) 0.10192(12) 0.27946(12)
C8 C 0.78335(15) 0.10631(13) 0.27229(13)
H5 H 0.7517 0.0836 0.2641
H6 H 0.7872 0.1304 0.2470
C9 C 0.9119(4) 0.17362(18) 0.2298(2)
H7 H 0.9547 0.1736 0.2345
C10 C 0.9030(3) 0.2264(2) 0.2310(2)
H8 H 0.9076 0.2406 0.2002
H9 H 0.9315 0.2406 0.2520
H10 H 0.8642 0.2332 0.2425
C11 C 0.9103(6) 0.1438(3) 0.1880(2)
H11 H 0.8711 0.1316 0.1832
H12 H 0.9369 0.1162 0.1914
H13 H 0.9219 0.1636 0.1614
C12 C 0.88487(18) -0.05474(14) 0.29676(16)
C13 C 0.99509(13) 0.10742(12) 0.39086(13)
C14 C 0.98164(14) 0.13292(12) 0.43236(14)
C15 C 0.97607(17) 0.18403(14) 0.43004(16)
H14 H 0.9683 0.2017 0.4575
C16 C 0.98155(18) 0.20909(14) 0.38889(17)
C17 C 0.99115(18) 0.18325(15) 0.34768(18)
H15 H 0.9933 0.2006 0.3194
C18 C 0.99769(14) 0.13210(13) 0.34739(14)
C19 C 0.9719(4) 0.2670(2) 0.3885(3)
C20 C 1.0482(3) -0.02032(19) 0.3985(2)
H16 H 1.0606 -0.0268 0.3667
H17 H 1.0084 -0.0313 0.4026
H18 H 1.0734 -0.0378 0.4200
C21 C 1.0518(3) 0.0332(2) 0.4078(3)
H19 H 1.0459 0.0346 0.4421
C22 C 1.1059(3) 0.0562(3) 0.4025(4)
H20 H 1.1152 0.0587 0.3696
H21 H 1.1356 0.0369 0.4181
H22 H 1.1044 0.0888 0.4161
O1 O 0.89595(11) 0.15275(8) 0.27354(9)
O2 O 0.83651(14) -0.07530(10) 0.29662(15)
O3 O 0.93371(13) -0.07823(9) 0.30092(14)
H23 H 0.9272 -0.1082 0.3025
O4 O 0.9696(3) 0.28656(19) 0.3533(2)
O5 O 0.9602(3) 0.28450(18) 0.4306(2)
H24 H 0.9325 0.3004 0.4288
O6 O 1.00137(10) 0.05656(9) 0.39097(9)
C1B C 0.74736(15) 0.10325(13) 0.44817(14)
H1B H 0.7154 0.0795 0.4457
H2B H 0.7382 0.1260 0.4737
C2B C 0.80378(15) 0.07590(12) 0.45940(13)
C3B C 0.80702(16) 0.02483(13) 0.45478(13)
H3B H 0.7729 0.0068 0.4487
C4B C 0.86052(15) -0.00016(12) 0.45902(14)
C5B C 0.91125(16) 0.02704(13) 0.46749(14)
H4B H 0.9470 0.0104 0.4696
C6B C 0.91023(15) 0.07771(12) 0.47283(12)
C7B C 0.85546(15) 0.10192(12) 0.47054(12)
C8B C 0.96665(15) 0.10631(13) 0.47771(13)
H5B H 0.9983 0.0836 0.4859
H6B H 0.9628 0.1304 0.5030
C9B C 0.8381(4) 0.17362(18) 0.5202(2)
H7B H 0.7953 0.1736 0.5155
C10B C 0.8470(3) 0.2264(2) 0.5190(2)
H8B H 0.8424 0.2406 0.5498
H9B H 0.8185 0.2406 0.4980
H10B H 0.8858 0.2332 0.5075
C11B C 0.8397(6) 0.1438(3) 0.5620(2)
H11B H 0.8789 0.1316 0.5668
H12B H 0.8131 0.1162 0.5586
H13B H 0.8281 0.1636 0.5886
C12B C 0.86513(18) -0.05474(14) 0.45324(16)
C13B C 0.75491(13) 0.10742(12) 0.35914(13)
C14B C 0.76836(14) 0.13292(12) 0.31764(14)
C15B C 0.77393(17) 0.18403(14) 0.31996(16)
H14B H 0.7817 0.2017 0.2925
C16B C 0.76845(18) 0.20909(14) 0.36111(17)
C17B C 0.75885(18) 0.18325(15) 0.40232(18)
H15B H 0.7567 0.2006 0.4306
C18B C 0.75231(14) 0.13210(13) 0.40261(14)
C19B C 0.7781(4) 0.2670(2) 0.3615(3)
C20B C 0.7018(3) -0.02032(19) 0.3515(2)
H16B H 0.6894 -0.0268 0.3833
H17B H 0.7416 -0.0313 0.3474
H18B H 0.6766 -0.0378 0.3300
C21B C 0.6982(3) 0.0332(2) 0.3422(3)
H19B H 0.7041 0.0346 0.3079
C22B C 0.6441(3) 0.0562(3) 0.3475(4)
H20B H 0.6348 0.0587 0.3804
H21B H 0.6144 0.0369 0.3319
H22B H 0.6456 0.0888 0.3339
O1B O 0.85405(11) 0.15275(8) 0.47646(9)
O2B O 0.91349(14) -0.07530(10) 0.45338(15)
O3B O 0.81629(13) -0.07823(9) 0.44908(14)
H23B H 0.8228 -0.1082 0.4475
O4B O 0.7804(3) 0.28656(19) 0.3967(2)
O5B O 0.7898(3) 0.28450(18) 0.3194(2)
H24B H 0.8175 0.3004 0.3212
O6B O 0.74863(10) 0.05656(9) 0.35903(9)
H25? H 0.8770 0.4040 0.2747
C23? C 0.8750 0.3750 0.2957(7)
H26? H 0.8760 0.4030 0.2747
H27? H 0.8440 0.3764 0.3187
O7? O 0.9274(4) 0.3729(2) 0.3155(3)
H28? H 0.9353 0.3390 0.3241
H29? H 0.9788 0.2436 0.3884
loop_
_geom_bond_atom_site_label_1
_geom_bond_atom_site_label_2
_geom_bond_site_symmetry_1
_geom_bond_site_symmetry_2
C1 H1 1_555 1_555
H2 C1 1_555 1_555
C2 C1 1_555 1_555
C3 C2 1_555 1_555
H3 C3 1_555 1_555
C4 C3 1_555 1_555
C5 C4 1_555 1_555
H4 C5 1_555 1_555
C6 C5 1_555 1_555
C7 C2 1_555 1_555
C8 C6 1_555 1_555
H5 C8 1_555 1_555
H6 C8 1_555 1_555
C9 H7 1_555 1_555
C10 C9 1_555 1_555
H8 C10 1_555 1_555
H9 C10 1_555 1_555
H10 C10 1_555 1_555
C11 C9 1_555 1_555
H11 C11 1_555 1_555
H12 C11 1_555 1_555
H13 C11 1_555 1_555
C12 C4 1_555 1_555
C13 C14 1_555 1_555
C14 C15 1_555 1_555
C15 H14 1_555 1_555
C16 C15 1_555 1_555
C17 C16 1_555 1_555
H15 C17 1_555 1_555
C18 C1 1_555 1_555
C19 C16 1_555 1_555
C20 H16 1_555 1_555
H17 C20 1_555 1_555
H18 C20 1_555 1_555
C21 C20 1_555 1_555
H19 C21 1_555 1_555
C22 C21 1_555 1_555
H20 C22 1_555 1_555
H21 C22 1_555 1_555
H22 C22 1_555 1_555
O1 C7 1_555 1_555
O2 C12 1_555 1_555
O3 C12 1_555 1_555
H23 O3 1_555 1_555
O4 C19 1_555 1_555
O5 C19 1_555 1_555
H24 O5 1_555 1_555
O6 C13 1_555 1_555
C1B H1B 1_555 1_555
H2B C1B 1_555 1_555
C2B C1B 1_555 1_555
C3B C2B 1_555 1_555
H3B C3B 1_555 1_555
C4B C3B 1_555 1_555
C5B C4B 1_555 1_555
H4B C5B 1_555 1_555
C6B C5B 1_555 1_555
C7B C2B 1_555 1_555
C8B C14 1_555 1_555
H5B C8B 1_555 1_555
H6B C8B 1_555 1_555
C9B H7B 1_555 1_555
C10B C9B 1_555 1_555
H8B C10B 1_555 1_555
H9B C10B 1_555 1_555
H10B C10B 1_555 1_555
C11B C9B 1_555 1_555
H11B C11B 1_555 1_555
H12B C11B 1_555 1_555
H13B C11B 1_555 1_555
C12B C4B 1_555 1_555
C13B C14B 1_555 1_555
C14B C8 1_555 1_555
C15B C14B 1_555 1_555
H14B C15B 1_555 1_555
C16B C15B 1_555 1_555
C17B C16B 1_555 1_555
H15B C17B 1_555 1_555
C18B C1B 1_555 1_555
C19B C16B 1_555 1_555
C20B H16B 1_555 1_555
H17B C20B 1_555 1_555
H18B C20B 1_555 1_555
C21B C20B 1_555 1_555
H19B C21B 1_555 1_555
C22B C21B 1_555 1_555
H20B C22B 1_555 1_555
H21B C22B 1_555 1_555
H22B C22B 1_555 1_555
O1B C7B 1_555 1_555
O2B C12B 1_555 1_555
O3B C12B 1_555 1_555
H23B O3B 1_555 1_555
O4B C19B 1_555 1_555
O5B C19B 1_555 1_555
H24B O5B 1_555 1_555
O6B C13B 1_555 1_555
C6 C7 1_555 1_555
C9 O1 1_555 1_555
C13 C18 1_555 1_555
C17 C18 1_555 1_555
C21 O6 1_555 1_555
C6B C7B 1_555 1_555
C6B C8B 1_555 1_555
C9B O1B 1_555 1_555
C13B C18B 1_555 1_555
C17B C18B 1_555 1_555
C21B O6B 1_555 1_555

#END
