
#######################################################################
#
#                 Cambridge Crystallographic Data Centre
#                                CCDC 
#
#######################################################################
#
# If this CIF has been generated from an entry in the Cambridge 
# Structural Database, then it will include bibliographic, chemical, 
# crystal, experimental, refinement or atomic coordinate data resulting 
# from the CCDC's data processing and validation procedures.
#
#######################################################################

data_JISWIU
_chemical_name_common            
'26,28-dihydroxy-25,27-diisopropoxypentacyclo[19.3.1.1$3,7!.1$9,13!.1$15,19!]octacosa-1(25),3(28),4,6,9(27),10,12,15(26),16,18,21,23-dodecaene-5,11,17-tricarboxylic acid tetrahydrofuran solvate'
_chemical_formula_moiety         'C37 H36 O10,2(C4 H8 O1)'
_chemical_name_systematic        
'5,11,17-tricarboxy-26,28-dihydroxy-25,27-diisopropoxycalix(4)arene tetrahydrofuran solvate'
_symmetry_cell_setting           monoclinic
_symmetry_space_group_name_H-M   'P 21/n'
_symmetry_Int_Tables_number      14
_space_group_name_Hall           '-P 2yn'
loop_
_symmetry_equiv_pos_site_id
_symmetry_equiv_pos_as_xyz
1 x,y,z
2 1/2-x,1/2+y,1/2-z
3 -x,-y,-z
4 1/2+x,1/2-y,1/2+z
_cell_length_a                   10.6822(18)
_cell_length_b                   17.951(3)
_cell_length_c                   23.180(4)
_cell_angle_alpha                90
_cell_angle_beta                 95.295(3)
_cell_angle_gamma                90
_cell_volume                     4425.94
_exptl_crystal_colour            colorless
_exptl_crystal_description       plate
_cell_formula_units_Z            4
loop_
_atom_site_label
_atom_site_type_symbol
_atom_site_fract_x
_atom_site_fract_y
_atom_site_fract_z
C1 C 0.9161(3) 0.5145(2) 0.38023(16)
C2 C 0.8836(4) 0.4770(2) 0.42994(16)
C3 C 0.9320(4) 0.4077(3) 0.44093(19)
H1 H 0.9139 0.3830 0.4745
C4 C 1.0071(4) 0.3731(2) 0.4035(2)
C5 C 1.0298(4) 0.4084(2) 0.35245(19)
H2 H 1.0764 0.3840 0.3262
C6 C 0.9850(3) 0.4787(2) 0.33979(17)
C7 C 0.9340(4) 0.6461(2) 0.4021(2)
H3 H 0.9353 0.6333 0.4432
C8 C 0.8467(6) 0.7112(3) 0.3896(3)
H4 H 0.8420 0.7229 0.3490
H5 H 0.8780 0.7536 0.4117
H6 H 0.7645 0.6986 0.4001
C9 C 1.0639(5) 0.6584(3) 0.3879(3)
H7 H 1.1084 0.6119 0.3897
H8 H 1.1052 0.6926 0.4153
H9 H 1.0630 0.6788 0.3496
C10 C 1.0608(5) 0.2989(3) 0.4187(3)
C11 C 1.0061(4) 0.5142(3) 0.28243(17)
H10 H 1.0906 0.5026 0.2730
H11 H 1.0001 0.5679 0.2861
C12 C 0.9126(4) 0.4884(2) 0.23286(16)
C13 C 0.9481(4) 0.4364(2) 0.19381(17)
H12 H 1.0289 0.4167 0.1984
C14 C 0.8660(4) 0.4129(2) 0.14792(16)
C15 C 0.7450(4) 0.4424(2) 0.14128(17)
H13 H 0.6899 0.4272 0.1101
C16 C 0.7055(4) 0.4933(2) 0.17943(17)
C17 C 0.7901(4) 0.5163(2) 0.22587(16)
C18 C 0.9055(5) 0.3575(3) 0.1067(2)
C19 C 0.5732(4) 0.5255(3) 0.17281(18)
H14 H 0.5767 0.5775 0.1841
H15 H 0.5409 0.5232 0.1323
C20 C 0.4835(4) 0.4850(3) 0.20872(18)
C21 C 0.4394(5) 0.4150(3) 0.1909(2)
H16 H 0.4588 0.3963 0.1553
C22 C 0.3684(5) 0.3735(3) 0.2244(3)
H17 H 0.3376 0.3276 0.2109
C23 C 0.3411(4) 0.3982(3) 0.2785(2)
H18 H 0.2957 0.3681 0.3017
C24 C 0.3812(4) 0.4675(2) 0.29773(18)
C25 C 0.4474(4) 0.5116(2) 0.26152(18)
C26 C 0.4210(5) 0.6461(3) 0.2526(2)
H19 H 0.4095 0.6371 0.2107
C27 C 0.5103(8) 0.7088(4) 0.2640(4)
H20 H 0.5200 0.7193 0.3047
H21 H 0.4783 0.7522 0.2433
H22 H 0.5903 0.6956 0.2512
C28 C 0.2974(7) 0.6585(4) 0.2737(4)
H23 H 0.2500 0.6130 0.2709
H24 H 0.2531 0.6963 0.2507
H25 H 0.3082 0.6743 0.3135
C29 C 0.3594(4) 0.4921(3) 0.35865(18)
H26 H 0.3589 0.5461 0.3600
H27 H 0.2773 0.4749 0.3675
C30 C 0.4570(4) 0.4635(2) 0.40444(17)
C31 C 0.4312(4) 0.4016(2) 0.43691(18)
H28 H 0.3540 0.3779 0.4298
C32 C 0.5182(4) 0.3744(2) 0.47978(17)
C33 C 0.6323(4) 0.4105(2) 0.49025(16)
H29 H 0.6900 0.3927 0.5195
C34 C 0.6634(4) 0.4710(2) 0.45926(16)
C35 C 0.5732(4) 0.4975(2) 0.41548(16)
C36 C 0.4896(4) 0.3083(3) 0.5141(2)
C37 C 0.7893(4) 0.5097(3) 0.46935(16)
H30 H 0.8218 0.5039 0.5096
H31 H 0.7787 0.5626 0.4615
O1 O 0.8741(2) 0.58534(15) 0.36753(11)
O2 O 1.1345(5) 0.2730(2) 0.3810(2)
H32 H 1.1613 0.2319 0.3916
O3 O 1.0380(5) 0.2659(3) 0.4623(2)
O4 O 0.7476(3) 0.56730(17) 0.26172(12)
H33 H 0.8034 0.5776 0.2872
O5 O 1.0144(3) 0.3292(2) 0.11633(15)
H34 H 1.0259 0.2991 0.0908
O6 O 0.8303(3) 0.3405(2) 0.06322(15)
O7 O 0.4846(3) 0.58190(16) 0.28069(12)
O8 O 0.6063(3) 0.55948(16) 0.38702(13)
H35 H 0.5482 0.5720 0.3635
O9 O 0.5667(3) 0.2872(2) 0.55392(16)
O10 O 0.3827(3) 0.2781(2) 0.50194(14)
H36 H 0.3752 0.2424 0.5235
C38 C 0.2408(14) 0.0776(9) 0.4271(8)
H37 H 0.1745 0.0468 0.4083
H38 H 0.2230 0.0867 0.4668
C39 C 0.3650(17) 0.0415(12) 0.4252(10)
H39 H 0.3995 0.0285 0.4641
H40 H 0.3563 -0.0038 0.4024
C40 C 0.447(2) 0.0928(12) 0.3995(11)
H41 H 0.4864 0.0684 0.3684
H42 H 0.5135 0.1089 0.4284
C41 C 0.3736(18) 0.1581(12) 0.3766(10)
H43 H 0.4098 0.2043 0.3920
H44 H 0.3681 0.1596 0.3346
O11 O 0.2511(10) 0.1444(5) 0.3974(5)
C42 C 0.6312(14) 0.2361(7) 0.2719(4)
H45 H 0.5492 0.2394 0.2503
H46 H 0.6765 0.1948 0.2565
C43 C 0.7014(15) 0.3062(8) 0.2658(5)
H47 H 0.7889 0.2962 0.2608
H48 H 0.6650 0.3349 0.2329
C44 C 0.6894 0.3447 0.3188
H49 H 0.7662 0.3715 0.3310
H50 H 0.6205 0.3801 0.3142
C45 C 0.6659(15) 0.2907(6) 0.3595(5)
H51 H 0.6059 0.3100 0.3847
H52 H 0.7432 0.2795 0.3832
O12 O 0.6171 0.2237 0.3322
C46? C 0.800(2) 0.1443(13) 0.5478(9)
H53? H 0.8072 0.1860 0.5746
H54? H 0.7416 0.1083 0.5616
C47? C 0.756(2) 0.1697(13) 0.4894(8)
H55? H 0.6662 0.1617 0.4811
H56? H 0.7745 0.2220 0.4842
C48? C 0.826(2) 0.1241(13) 0.4544(9)
H57? H 0.8554 0.1540 0.4236
H58? H 0.7712 0.0856 0.4367
C49? C 0.932(2) 0.0897(16) 0.4875(9)
H59? H 0.9290 0.0359 0.4838
H60? H 1.0108 0.1076 0.4749
O13? O 0.9189(17) 0.1111(11) 0.5430(7)
loop_
_geom_bond_atom_site_label_1
_geom_bond_atom_site_label_2
_geom_bond_site_symmetry_1
_geom_bond_site_symmetry_2
C1 C2 1_555 1_555
C2 C3 1_555 1_555
C3 H1 1_555 1_555
C4 C3 1_555 1_555
C5 C4 1_555 1_555
H2 C5 1_555 1_555
C6 C1 1_555 1_555
C7 H3 1_555 1_555
C8 C7 1_555 1_555
H4 C8 1_555 1_555
H5 C8 1_555 1_555
H6 C8 1_555 1_555
C9 C7 1_555 1_555
H7 C9 1_555 1_555
H8 C9 1_555 1_555
H9 C9 1_555 1_555
C10 C4 1_555 1_555
C11 C6 1_555 1_555
H10 C11 1_555 1_555
H11 C11 1_555 1_555
C12 C11 1_555 1_555
C13 C12 1_555 1_555
H12 C13 1_555 1_555
C14 C13 1_555 1_555
C15 C14 1_555 1_555
H13 C15 1_555 1_555
C16 C15 1_555 1_555
C17 C12 1_555 1_555
C18 C14 1_555 1_555
C19 C16 1_555 1_555
H14 C19 1_555 1_555
H15 C19 1_555 1_555
C20 C19 1_555 1_555
C21 C20 1_555 1_555
H16 C21 1_555 1_555
C22 C21 1_555 1_555
H17 C22 1_555 1_555
C23 C22 1_555 1_555
H18 C23 1_555 1_555
C24 C23 1_555 1_555
C25 C20 1_555 1_555
C26 H19 1_555 1_555
C27 C26 1_555 1_555
H20 C27 1_555 1_555
H21 C27 1_555 1_555
H22 C27 1_555 1_555
C28 C26 1_555 1_555
H23 C28 1_555 1_555
H24 C28 1_555 1_555
H25 C28 1_555 1_555
C29 C24 1_555 1_555
H26 C29 1_555 1_555
H27 C29 1_555 1_555
C30 C29 1_555 1_555
C31 C30 1_555 1_555
H28 C31 1_555 1_555
C32 C31 1_555 1_555
C33 C32 1_555 1_555
H29 C33 1_555 1_555
C34 C33 1_555 1_555
C35 C30 1_555 1_555
C36 C32 1_555 1_555
C37 C2 1_555 1_555
H30 C37 1_555 1_555
H31 C37 1_555 1_555
O1 C1 1_555 1_555
O2 C10 1_555 1_555
H32 O2 1_555 1_555
O3 C10 1_555 1_555
O4 C17 1_555 1_555
H33 O4 1_555 1_555
O5 C18 1_555 1_555
H34 O5 1_555 1_555
O6 C18 1_555 1_555
O7 C25 1_555 1_555
O8 C35 1_555 1_555
H35 O8 1_555 1_555
O9 C36 1_555 1_555
O10 C36 1_555 1_555
H36 O10 1_555 1_555
C38 H37 1_555 1_555
H38 C38 1_555 1_555
C39 C38 1_555 1_555
H39 C39 1_555 1_555
H40 C39 1_555 1_555
C40 C39 1_555 1_555
H41 C40 1_555 1_555
H42 C40 1_555 1_555
C41 C40 1_555 1_555
H43 C41 1_555 1_555
H44 C41 1_555 1_555
O11 C38 1_555 1_555
C42 H45 1_555 1_555
H46 C42 1_555 1_555
C43 C42 1_555 1_555
H47 C43 1_555 1_555
H48 C43 1_555 1_555
C44 C43 1_555 1_555
H49 C44 1_555 1_555
H50 C44 1_555 1_555
C45 C44 1_555 1_555
H51 C45 1_555 1_555
H52 C45 1_555 1_555
O12 C42 1_555 1_555
C5 C6 1_555 1_555
C7 O1 1_555 1_555
C16 C17 1_555 1_555
C24 C25 1_555 1_555
C26 O7 1_555 1_555
C34 C35 1_555 1_555
C34 C37 1_555 1_555
C41 O11 1_555 1_555
C45 O12 1_555 1_555

#END
