
#######################################################################
#
#                 Cambridge Crystallographic Data Centre
#                                CCDC 
#
#######################################################################
#
# If this CIF has been generated from an entry in the Cambridge 
# Structural Database, then it will include bibliographic, chemical, 
# crystal, experimental, refinement or atomic coordinate data resulting 
# from the CCDC's data processing and validation procedures.
#
#######################################################################

data_JISWEQ
_chemical_name_common            
'25,26,27,28-tetrapropoxypentacyclo[19.3.1.1$3,7!.1$9,13!.1$15,19!]octacosa-1(25),3(28),4,6,9(27),10,12,15(26),16,18,21,23-dodecaene-5,11,17,23-tetracarboxylic acid tetrahydrofuran solvate'
_chemical_formula_moiety         'C44 H48 O12,C4 H8 O1'
_chemical_name_systematic        
'5,11,17,23-tetracarboxy-25,26,27,28-tetrapropoxycalix(4)arene tetrahydrofuran solvate'
_symmetry_cell_setting           monoclinic
_symmetry_space_group_name_H-M   'P 21/c'
_symmetry_Int_Tables_number      14
_space_group_name_Hall           '-P 2ybc'
loop_
_symmetry_equiv_pos_site_id
_symmetry_equiv_pos_as_xyz
1 x,y,z
2 -x,1/2+y,1/2-z
3 -x,-y,-z
4 x,1/2-y,1/2+z
_cell_length_a                   12.990(3)
_cell_length_b                   17.916(4)
_cell_length_c                   20.699(5)
_cell_angle_alpha                90
_cell_angle_beta                 106.068(3)
_cell_angle_gamma                90
_cell_volume                     4629.06
_exptl_crystal_colour            colorless
_exptl_crystal_description       block
_cell_formula_units_Z            4
loop_
_atom_site_label
_atom_site_type_symbol
_atom_site_fract_x
_atom_site_fract_y
_atom_site_fract_z
C1 C 0.0136(3) 0.9371(2) 0.83928(18)
C2 C 0.0141(3) 0.8604(2) 0.83019(18)
H1 H -0.0117 0.8295 0.8582
C3 C 0.0527(3) 0.8286(2) 0.77986(17)
C4 C 0.0880(3) 0.8772(2) 0.73690(17)
C5 C 0.0937(3) 0.9537(2) 0.74736(17)
C6 C 0.0567(3) 0.9838(2) 0.79849(18)
H2 H 0.0603 1.0350 0.8059
C7 C -0.0351(3) 0.9712(2) 0.88876(19)
C8 C 0.0313(3) 0.8276(2) 0.62703(17)
H3 H 0.0030 0.8723 0.6020
H4 H -0.0256 0.8047 0.6422
C9 C 0.0696(4) 0.7739(3) 0.5823(2)
H5 H 0.1020 0.7307 0.6084
H6 H 0.1237 0.7980 0.5654
C10 C -0.0227(5) 0.7486(3) 0.5236(2)
H7 H -0.0771 0.7259 0.5404
H8 H 0.0031 0.7130 0.4971
H9 H -0.0522 0.7909 0.4963
C11 C 0.0550(3) 0.7445(2) 0.77202(18)
H10 H -0.0177 0.7256 0.7600
H11 H 0.0860 0.7325 0.7357
C12 C 0.1191(3) 0.7068(2) 0.83553(17)
C13 C 0.0686(3) 0.6626(2) 0.87350(18)
H12 H -0.0052 0.6556 0.8591
C14 C 0.1279(3) 0.6291(2) 0.93246(18)
C15 C 0.2379(3) 0.6443(2) 0.95797(18)
H13 H 0.2762 0.6239 0.9989
C16 C 0.2899(3) 0.6898(2) 0.92235(19)
C17 C 0.2303(3) 0.7151(2) 0.85864(18)
C18 C 0.0722(3) 0.5766(2) 0.96656(19)
C19 C 0.3437(18) 0.7158(15) 0.7891(12)
H14 H 0.3956 0.6886 0.8238
H15 H 0.3834 0.7514 0.7700
C20 C 0.2902(8) 0.6595(8) 0.7330(5)
H16 H 0.2450 0.6264 0.7503
H17 H 0.2440 0.6871 0.6958
C21 C 0.3666(11) 0.6109(10) 0.7052(5)
H18 H 0.4352 0.6349 0.7141
H19 H 0.3372 0.6048 0.6575
H20 H 0.3748 0.5629 0.7266
C22 C 0.4005(3) 0.7199(2) 0.9538(2)
H21 H 0.4476 0.7064 0.9266
H22 H 0.4292 0.6986 0.9983
C23 C 0.3945(3) 0.8039(2) 0.95884(18)
C24 C 0.3198(3) 0.8350(2) 0.98760(17)
H23 H 0.2823 0.8040 1.0092
C25 C 0.2997(3) 0.9115(2) 0.98494(17)
C26 C 0.3578(3) 0.9575(2) 0.95249(17)
H24 H 0.3440 1.0085 0.9496
C27 C 0.4360(3) 0.9284(2) 0.92446(17)
C28 C 0.4537(3) 0.8523(2) 0.92868(17)
C29 C 0.635(2) 0.8333(14) 0.9391(13)
H25 H 0.6461 0.8142 0.9844
H26 H 0.6541 0.8858 0.9412
C30 C 0.703(2) 0.7845(12) 0.8967(13)
H27 H 0.6938 0.8111 0.8546
H28 H 0.7777 0.7904 0.9214
C31 C 0.6915(12) 0.7117(10) 0.8798(9)
H29 H 0.7501 0.6839 0.9079
H30 H 0.6909 0.7059 0.8336
H31 H 0.6252 0.6935 0.8858
C32 C 0.2198(3) 0.9427(2) 1.01468(18)
C33 C 0.4924(3) 0.9797(2) 0.8859(2)
H32 H 0.5471 1.0087 0.9173
H33 H 0.5267 0.9502 0.8585
C34 C 0.4093(3) 1.0319(2) 0.84128(18)
C35 C 0.4013(3) 1.1046(2) 0.8599(2)
H34 H 0.4543 1.1246 0.8955
C36 C 0.3142(4) 1.1495(2) 0.8261(2)
C37 C 0.2344(3) 1.1172(2) 0.7740(2)
H35 H 0.1755 1.1458 0.7519
C38 C 0.2403(3) 1.0448(2) 0.75464(18)
C39 C 0.3321(3) 1.0030(2) 0.78697(18)
C40 C 0.4207(11) 0.9075(12) 0.7396(7)
H36 H 0.4342 0.8544 0.7461
H37 H 0.4864 0.9345 0.7601
C41 C 0.3757(9) 0.9278(7) 0.6586(5)
H38 H 0.4158 0.8963 0.6361
H39 H 0.3024 0.9099 0.6446
C42 C 0.3737(11) 1.0022(8) 0.6285(6)
H40 H 0.3213 1.0326 0.6407
H41 H 0.3556 0.9976 0.5804
H42 H 0.4431 1.0249 0.6445
C43 C 0.3082(4) 1.2274(3) 0.8490(3)
C44 C 0.1463(3) 1.0052(2) 0.70700(18)
H43 H 0.1709 0.9763 0.6745
H44 H 0.0947 1.0416 0.6827
O1 O -0.0450(3) 1.04158(17) 0.88884(17)
O2 O -0.0690(3) 0.92894(17) 0.92704(15)
H45 H -0.0905 0.9543 0.9536
O3 O -0.0253(2) 0.56637(16) 0.94597(14)
O4 O 0.1345(2) 0.54058(16) 1.01764(14)
H46 H 0.0983 0.5121 1.0334
O5 O 0.1706(3) 0.89952(17) 1.04442(15)
H47 H 0.1137 0.9187 1.0452
O6 O 0.1998(3) 1.01257(17) 1.00849(16)
O7 O 0.3757(4) 1.2546(2) 0.8951(2)
O8 O 0.2243(3) 1.2639(2) 0.8144(2)
H48 H 0.2254 1.3063 0.8294
O9 O 0.1191(2) 0.84673(15) 0.68393(11)
O10 O 0.2801(2) 0.75565(17) 0.81979(13)
O11 O 0.5265(2) 0.82118(17) 0.89859(13)
O12 O 0.3364(2) 0.93075(16) 0.76749(13)
O13 O 0.7900(6) 0.8986(4) 0.6360(4)
C54 C 0.7849(12) 0.9623(9) 0.6768(9)
H70 H 0.8331 1.0015 0.6710
H71 H 0.8009 0.9492 0.7240
C55 C 0.6739(11) 0.9834(9) 0.6495(7)
H72 H 0.6314 0.9629 0.6771
H73 H 0.6673 1.0373 0.6493
C56 C 0.6355(10) 0.9552(8) 0.5820(6)
H74 H 0.6163 0.9963 0.5504
H75 H 0.5724 0.9246 0.5778
C57 C 0.7220(11) 0.9101(7) 0.5672(6)
H76 H 0.6953 0.8633 0.5453
H77 H 0.7592 0.9374 0.5399
C45? C 0.362(2) 0.7107(19) 0.7934(14)
H49? H 0.4323 0.7333 0.8064
H50? H 0.3664 0.6592 0.8083
C46? C 0.3081(12) 0.7177(13) 0.7170(7)
H51? H 0.2946 0.7693 0.7032
H52? H 0.2418 0.6896 0.7031
C47? C 0.3973(16) 0.6826(14) 0.6901(8)
H53? H 0.4283 0.6408 0.7178
H54? H 0.4518 0.7192 0.6912
H55? H 0.3671 0.6660 0.6447
C48? C 0.638(3) 0.8140(16) 0.9384(18)
H56? H 0.6562 0.8554 0.9697
H57? H 0.6464 0.7682 0.9643
C49? C 0.7088(19) 0.8131(9) 0.8976(11)
H58? H 0.7123 0.7612 0.8850
H59? H 0.7785 0.8246 0.9279
C50? C 0.7045(11) 0.8556(10) 0.8359(7)
H60? H 0.6326 0.8551 0.8069
H61? H 0.7517 0.8331 0.8131
H62? H 0.7263 0.9062 0.8474
C51? C 0.4070(19) 0.9238(15) 0.7252(11)
H63? H 0.4798 0.9155 0.7525
H64? H 0.4055 0.9692 0.6995
C52? C 0.3694(13) 0.8574(10) 0.6774(7)
H65? H 0.3433 0.8189 0.7019
H66? H 0.3090 0.8739 0.6411
C53? C 0.4478(15) 0.8236(10) 0.6478(8)
H67? H 0.4959 0.8613 0.6406
H68? H 0.4115 0.8009 0.6057
H69? H 0.4877 0.7863 0.6778
C58? C 0.787(2) 1.0330(15) 0.7097(15)
H78? H 0.8548 1.0469 0.7410
H79? H 0.7562 1.0769 0.6842
C59? C 0.806(3) 0.963(2) 0.6563(19)
H80? H 0.7750 0.9756 0.6093
H81? H 0.8811 0.9500 0.6642
C60? C 0.713(2) 1.0026(15) 0.7467(16)
H82? H 0.7322 1.0205 0.7927
H83? H 0.6395 1.0172 0.7249
O14? O 0.746(2) 0.9076(13) 0.6803(12)
C61? C 0.724(3) 0.9224(16) 0.7449(14)
H84? H 0.6593 0.8975 0.7474
H85? H 0.7834 0.9054 0.7819
loop_
_geom_bond_atom_site_label_1
_geom_bond_atom_site_label_2
_geom_bond_site_symmetry_1
_geom_bond_site_symmetry_2
C1 C2 1_555 1_555
C2 H1 1_555 1_555
C3 C2 1_555 1_555
C4 C3 1_555 1_555
C5 C4 1_555 1_555
C6 C1 1_555 1_555
H2 C6 1_555 1_555
C7 C1 1_555 1_555
C8 H3 1_555 1_555
H4 C8 1_555 1_555
C9 C8 1_555 1_555
H5 C9 1_555 1_555
H6 C9 1_555 1_555
C10 C9 1_555 1_555
H7 C10 1_555 1_555
H8 C10 1_555 1_555
H9 C10 1_555 1_555
C11 C3 1_555 1_555
H10 C11 1_555 1_555
H11 C11 1_555 1_555
C12 C11 1_555 1_555
C13 C12 1_555 1_555
H12 C13 1_555 1_555
C14 C13 1_555 1_555
C15 C14 1_555 1_555
H13 C15 1_555 1_555
C16 C15 1_555 1_555
C17 C12 1_555 1_555
C18 C14 1_555 1_555
C19 H14 1_555 1_555
H15 C19 1_555 1_555
C20 C19 1_555 1_555
H16 C20 1_555 1_555
H17 C20 1_555 1_555
C21 C20 1_555 1_555
H18 C21 1_555 1_555
H19 C21 1_555 1_555
H20 C21 1_555 1_555
C22 C16 1_555 1_555
H21 C22 1_555 1_555
H22 C22 1_555 1_555
C23 C22 1_555 1_555
C24 C23 1_555 1_555
H23 C24 1_555 1_555
C25 C24 1_555 1_555
C26 C25 1_555 1_555
H24 C26 1_555 1_555
C27 C26 1_555 1_555
C28 C23 1_555 1_555
C29 H25 1_555 1_555
H26 C29 1_555 1_555
C30 C29 1_555 1_555
H27 C30 1_555 1_555
H28 C30 1_555 1_555
C31 C30 1_555 1_555
H29 C31 1_555 1_555
H30 C31 1_555 1_555
H31 C31 1_555 1_555
C32 C25 1_555 1_555
C33 C27 1_555 1_555
H32 C33 1_555 1_555
H33 C33 1_555 1_555
C34 C33 1_555 1_555
C35 C34 1_555 1_555
H34 C35 1_555 1_555
C36 C35 1_555 1_555
C37 C36 1_555 1_555
H35 C37 1_555 1_555
C38 C37 1_555 1_555
C39 C34 1_555 1_555
C40 H36 1_555 1_555
H37 C40 1_555 1_555
C41 C40 1_555 1_555
H38 C41 1_555 1_555
H39 C41 1_555 1_555
C42 C41 1_555 1_555
H40 C42 1_555 1_555
H41 C42 1_555 1_555
H42 C42 1_555 1_555
C43 C36 1_555 1_555
C44 C5 1_555 1_555
H43 C44 1_555 1_555
H44 C44 1_555 1_555
O1 C7 1_555 1_555
O2 C7 1_555 1_555
H45 O2 1_555 1_555
O3 C18 1_555 1_555
O4 C18 1_555 1_555
H46 O4 1_555 1_555
O5 C32 1_555 1_555
H47 O5 1_555 1_555
O6 C32 1_555 1_555
O7 C43 1_555 1_555
O8 C43 1_555 1_555
H48 O8 1_555 1_555
O9 C4 1_555 1_555
O10 C17 1_555 1_555
O11 C28 1_555 1_555
O12 C39 1_555 1_555
O13 C54 1_555 1_555
C54 H70 1_555 1_555
H71 C54 1_555 1_555
C55 C54 1_555 1_555
H72 C55 1_555 1_555
H73 C55 1_555 1_555
C56 C55 1_555 1_555
H74 C56 1_555 1_555
H75 C56 1_555 1_555
C57 O13 1_555 1_555
H76 C57 1_555 1_555
H77 C57 1_555 1_555
C5 C6 1_555 1_555
C8 O9 1_555 1_555
C16 C17 1_555 1_555
C19 O10 1_555 1_555
C27 C28 1_555 1_555
C29 O11 1_555 1_555
C38 C39 1_555 1_555
C38 C44 1_555 1_555
C40 O12 1_555 1_555
C56 C57 1_555 1_555

#END
