
#######################################################################
#
#                 Cambridge Crystallographic Data Centre
#                                CCDC 
#
#######################################################################
#
# If this CIF has been generated from an entry in the Cambridge 
# Structural Database, then it will include bibliographic, chemical, 
# crystal, experimental, refinement or atomic coordinate data resulting 
# from the CCDC's data processing and validation procedures.
#
#######################################################################

data_JISWUG
_chemical_name_common            
'25,27-bis(benzoyloxy)-17-(dihydroxymethylene)-26,28-dihydroxypentacyclo[19.3.1.1$3,7!.1$9,13!.1$15,19!]octacosa-1(25),3(28),4,6,9(27),10,12,15,18,21,23-undecaene-5-carboxylic acid unknown solvate'
_chemical_formula_moiety         'C44 H32 O10'
_chemical_name_systematic        
'5,17-dicarboxy-25,27-bis(benzoyloxy)-26,28-dihydroxycalix[4]arene unknown solvate'
_symmetry_cell_setting           orthorhombic
_symmetry_space_group_name_H-M   'P n m a'
_symmetry_Int_Tables_number      62
_space_group_name_Hall           '-P 2ac 2n'
loop_
_symmetry_equiv_pos_site_id
_symmetry_equiv_pos_as_xyz
1 x,y,z
2 1/2-x,-y,1/2+z
3 -x,1/2+y,-z
4 1/2+x,1/2-y,1/2-z
5 -x,-y,-z
6 1/2+x,y,1/2-z
7 x,1/2-y,z
8 1/2-x,1/2+y,1/2+z
_cell_length_a                   27.040(6)
_cell_length_b                   17.777(4)
_cell_length_c                   8.1345(17)
_cell_angle_alpha                90
_cell_angle_beta                 90
_cell_angle_gamma                90
_cell_volume                     3910.17
_exptl_crystal_colour            colorless
_exptl_crystal_description       rhombus
_cell_formula_units_Z            4
loop_
_atom_site_label
_atom_site_type_symbol
_atom_site_fract_x
_atom_site_fract_y
_atom_site_fract_z
O1 O 0.0807(3) 0.1873(5) 0.9483(14)
O2 O 0.2874(4) 0.2500 0.6185(14)
O3 O 0.2926(5) 0.2500 0.0417(16)
O4 O 0.4949(4) 0.1870(6) 0.4004(16)
O5 O 0.3302(3) 0.1086(4) 0.4800(9)
O6 O 0.3541(3) -0.0077(5) 0.4061(11)
C1 C 0.1012(6) 0.2500 0.916(2)
C2 C 0.1496(6) 0.2500 0.8368(19)
C3 C 0.1729(4) 0.1822(6) 0.7966(13)
H1 H 0.1570 0.1365 0.8207
C4 C 0.2188(4) 0.1809(6) 0.7221(12)
C5 C 0.2417(5) 0.2500 0.6872(17)
C6 C 0.2429(4) 0.1073(6) 0.6718(14)
H2 H 0.2770 0.1061 0.7120
H3 H 0.2249 0.0654 0.7224
C7 C 0.2427(4) 0.0980(6) 0.4863(14)
C8 C 0.1982(5) 0.0908(7) 0.4035(16)
H4 H 0.1686 0.0881 0.4637
C9 C 0.1966(5) 0.0876(7) 0.2338(16)
H5 H 0.1661 0.0825 0.1794
C10 C 0.2402(4) 0.0919(7) 0.1436(15)
H6 H 0.2388 0.0900 0.0282
C11 C 0.2857(4) 0.0990(6) 0.2209(13)
C12 C 0.3328(4) 0.1076(6) 0.1223(14)
H7 H 0.3549 0.0656 0.1477
H8 H 0.3247 0.1051 0.0049
C13 C 0.3594(4) 0.1809(6) 0.1568(13)
C14 C 0.3370(6) 0.2500 0.1198(18)
C15 C 0.4052(4) 0.1824(7) 0.2339(15)
H9 H 0.4211 0.1368 0.2591
C16 C 0.4281(6) 0.2500 0.274(2)
C17 C 0.4754(6) 0.2500 0.364(2)
C18 C 0.2856(4) 0.1002(6) 0.3929(13)
C19 C 0.3608(4) 0.0478(6) 0.4862(14)
C20 C 0.4019(4) 0.0585(7) 0.6032(15)
C21 C 0.4065(6) 0.1228(9) 0.7003(18)
H10 H 0.3835 0.1620 0.6904
C22 C 0.4450(7) 0.1288(12) 0.811(2)
H11 H 0.4479 0.1715 0.8785
C23 C 0.4793(7) 0.0708(13) 0.821(2)
H12 H 0.5059 0.0750 0.8950
C24 C 0.4751(6) 0.0077(12) 0.726(2)
H13 H 0.4988 -0.0309 0.7338
C25 C 0.4362(5) 0.0008(9) 0.6176(19)
H14 H 0.4329 -0.0429 0.5536
O1F O 0.0807(3) 0.3127(5) 0.9483(14)
O4F O 0.4949(4) 0.3130(6) 0.4004(16)
O5F O 0.3302(3) 0.3914(4) 0.4800(9)
O6F O 0.3541(3) 0.5077(5) 0.4061(11)
C3F C 0.1729(4) 0.3178(6) 0.7966(13)
H1F H 0.1570 0.3635 0.8207
C4F C 0.2188(4) 0.3191(6) 0.7221(12)
C6F C 0.2429(4) 0.3927(6) 0.6718(14)
H2F H 0.2770 0.3939 0.7120
H3F H 0.2249 0.4346 0.7224
C7F C 0.2427(4) 0.4020(6) 0.4863(14)
C8F C 0.1982(5) 0.4092(7) 0.4035(16)
H4F H 0.1686 0.4119 0.4637
C9F C 0.1966(5) 0.4124(7) 0.2338(16)
H5F H 0.1661 0.4175 0.1794
C10F C 0.2402(4) 0.4081(7) 0.1436(15)
H6F H 0.2388 0.4100 0.0282
C11F C 0.2857(4) 0.4010(6) 0.2209(13)
C12F C 0.3328(4) 0.3924(6) 0.1223(14)
H7F H 0.3549 0.4344 0.1477
H8F H 0.3247 0.3949 0.0049
C13F C 0.3594(4) 0.3191(6) 0.1568(13)
C15F C 0.4052(4) 0.3176(7) 0.2339(15)
H9F H 0.4211 0.3632 0.2591
C18F C 0.2856(4) 0.3998(6) 0.3929(13)
C19F C 0.3608(4) 0.4522(6) 0.4862(14)
C20F C 0.4019(4) 0.4415(7) 0.6032(15)
C21F C 0.4065(6) 0.3772(9) 0.7003(18)
H10F H 0.3835 0.3380 0.6904
C22F C 0.4450(7) 0.3712(12) 0.811(2)
H11F H 0.4479 0.3285 0.8785
C23F C 0.4793(7) 0.4292(13) 0.821(2)
H12F H 0.5059 0.4250 0.8950
C24F C 0.4751(6) 0.4923(12) 0.726(2)
H13F H 0.4988 0.5309 0.7338
C25F C 0.4362(5) 0.4992(9) 0.6176(19)
H14F H 0.4329 0.5429 0.5536
H15? H 0.5213 0.1942 0.4503
H16? H 0.3000 0.2081 0.5985
H17? H 0.0568 0.1943 1.0105
H18? H 0.2818 0.1986 0.0247
loop_
_geom_bond_atom_site_label_1
_geom_bond_atom_site_label_2
_geom_bond_site_symmetry_1
_geom_bond_site_symmetry_2
O1 C1 1_555 1_555
O2 C5 1_555 1_555
O3 C14 1_555 1_555
O4 C17 1_555 1_555
O5 C18 1_555 1_555
O6 C19 1_555 1_555
C1 C2 1_555 1_555
C2 C3 1_555 1_555
C3 H1 1_555 1_555
C4 C3 1_555 1_555
C5 C4 1_555 1_555
C6 C4 1_555 1_555
H2 C6 1_555 1_555
H3 C6 1_555 1_555
C7 C6 1_555 1_555
C8 C7 1_555 1_555
H4 C8 1_555 1_555
C9 C8 1_555 1_555
H5 C9 1_555 1_555
C10 C9 1_555 1_555
H6 C10 1_555 1_555
C11 C10 1_555 1_555
C12 C11 1_555 1_555
H7 C12 1_555 1_555
H8 C12 1_555 1_555
C13 C12 1_555 1_555
C14 C13 1_555 1_555
C15 C13 1_555 1_555
H9 C15 1_555 1_555
C16 C15 1_555 1_555
C17 C16 1_555 1_555
C18 C7 1_555 1_555
C19 O5 1_555 1_555
C20 C19 1_555 1_555
C21 C20 1_555 1_555
H10 C21 1_555 1_555
C22 C21 1_555 1_555
H11 C22 1_555 1_555
C23 C22 1_555 1_555
H12 C23 1_555 1_555
C24 C23 1_555 1_555
H13 C24 1_555 1_555
C25 C20 1_555 1_555
H14 C25 1_555 1_555
O1F C1 1_555 1_555
O4F C17 1_555 1_555
O5F C18F 1_555 1_555
O6F C19F 1_555 1_555
C3F C2 1_555 1_555
H1F C3F 1_555 1_555
C4F C5 1_555 1_555
C6F C4F 1_555 1_555
H2F C6F 1_555 1_555
H3F C6F 1_555 1_555
C7F C6F 1_555 1_555
C8F C7F 1_555 1_555
H4F C8F 1_555 1_555
C9F C8F 1_555 1_555
H5F C9F 1_555 1_555
C10F C9F 1_555 1_555
H6F C10F 1_555 1_555
C11F C10F 1_555 1_555
C12F C11F 1_555 1_555
H7F C12F 1_555 1_555
H8F C12F 1_555 1_555
C13F C14 1_555 1_555
C15F C16 1_555 1_555
H9F C15F 1_555 1_555
C18F C7F 1_555 1_555
C19F O5F 1_555 1_555
C20F C19F 1_555 1_555
C21F C20F 1_555 1_555
H10F C21F 1_555 1_555
C22F C21F 1_555 1_555
H11F C22F 1_555 1_555
C23F C22F 1_555 1_555
H12F C23F 1_555 1_555
C24F C23F 1_555 1_555
H13F C24F 1_555 1_555
C25F C20F 1_555 1_555
H14F C25F 1_555 1_555
C11 C18 1_555 1_555
C24 C25 1_555 1_555
C3F C4F 1_555 1_555
C11F C18F 1_555 1_555
C12F C13F 1_555 1_555
C13F C15F 1_555 1_555
C24F C25F 1_555 1_555

#END
