
#######################################################################
#
#                 Cambridge Crystallographic Data Centre
#                                CCDC 
#
#######################################################################
#
# If this CIF has been generated from an entry in the Cambridge 
# Structural Database, then it will include bibliographic, chemical, 
# crystal, experimental, refinement or atomic coordinate data resulting 
# from the CCDC's data processing and validation procedures.
#
#######################################################################

data_JITFEA
_chemical_formula_moiety         'C52 H40 N4 4+,4(F6 P1 1-),2(C2 H3 N1)'
_chemical_name_systematic        
'5,18,25,38-tetra-azonianonacyclo[36.2.2.2^2,5^.2^7,10^.2^13,16^.2^18,21^.2^22,25^.2^27,30^.2^33,36^]hexapentaconta-1,3,7,9,13,15,19,21,23,27,29,33,35,39,41,43,45,47,49,51,53,55-docosaene-11,31-diyne tetrakis(hexafluorophosphate) acetonitrile solvate'
_symmetry_cell_setting           triclinic
_symmetry_space_group_name_H-M   'P -1'
_symmetry_Int_Tables_number      2
_space_group_name_Hall           '-P 1'
loop_
_symmetry_equiv_pos_site_id
_symmetry_equiv_pos_as_xyz
1 x,y,z
2 -x,-y,-z
_cell_length_a                   19.2326(12)
_cell_length_b                   19.9012(12)
_cell_length_c                   21.5267(13)
_cell_angle_alpha                65.728(3)
_cell_angle_beta                 69.007(3)
_cell_angle_gamma                70.594(4)
_cell_volume                     6844.85
_exptl_crystal_colour            yellow
_exptl_crystal_description       block
_cell_formula_units_Z            4
loop_
_atom_site_label
_atom_site_type_symbol
_atom_site_fract_x
_atom_site_fract_y
_atom_site_fract_z
P1 P 0.90694(9) 1.16214(9) 0.45060(8)
F1 F 0.9568(2) 1.0777(2) 0.47626(19)
F2 F 0.8570(2) 1.24473(19) 0.42569(18)
F3 F 0.8603(3) 1.1314(3) 0.4247(3)
F4 F 0.9635(3) 1.1766(3) 0.3745(2)
F5 F 0.9525(5) 1.1916(3) 0.4763(5)
F6 F 0.8489(5) 1.1456(3) 0.5254(2)
P2 P -0.07196(9) 0.67266(9) 0.95873(7)
F7 F -0.0349(2) 0.5840(2) 0.9792(2)
F8 F -0.1104(2) 0.7598(2) 0.9384(2)
F9 F -0.0224(3) 0.6861(3) 0.8807(2)
F10 F -0.1335(4) 0.6598(3) 0.9355(4)
F11 F -0.1226(4) 0.6587(4) 1.0355(3)
F12 F -0.0066(4) 0.6850(3) 0.9778(4)
P3 P 0.39898(9) 0.87067(9) 1.19465(8)
F13 F 0.3995(2) 0.9173(2) 1.23987(19)
F14 F 0.3979(2) 0.8226(2) 1.1506(2)
F15 F 0.4439(3) 0.7978(2) 1.2424(3)
F16 F 0.3513(4) 0.9431(3) 1.1483(3)
F17 F 0.4755(3) 0.8911(4) 1.1423(3)
F18 F 0.3216(3) 0.8490(4) 1.2474(3)
N1 N 0.6149(3) 0.7573(3) 1.0337(2)
N2 N 0.1833(3) 0.5764(3) 0.8159(2)
C1 C 0.3027(3) 0.6854(3) 0.6097(3)
C2 C 0.2604(3) 0.6465(3) 0.6815(3)
C3 C 0.7035(3) 0.8233(3) 0.9024(3)
C4 C 0.8214(3) 0.8200(3) 0.8028(3)
H1 H 0.8434 0.7713 0.8302
C5 C 0.3000(3) 0.7626(3) 0.5874(3)
H2 H 0.2709 0.7911 0.6181
N3 N 0.8298(3) 0.9225(3) 0.6956(2)
C6 C 0.1534(3) 0.6482(3) 0.7824(3)
H3 H 0.1063 0.6738 0.8053
C7 C 0.3851(3) 0.6832(3) 0.4959(3)
H4 H 0.4146 0.6563 0.4639
C8 C 0.8595(3) 0.8532(3) 0.7350(3)
H5 H 0.9080 0.8268 0.7152
N4 N 0.3804(3) 0.7578(3) 0.4754(2)
C9 C 0.1911(3) 0.6850(3) 0.7145(3)
H6 H 0.1702 0.7360 0.6906
C10 C 0.7208(3) 0.9312(3) 0.7906(3)
H7 H 0.6727 0.9594 0.8090
C11 C 0.5659(3) 0.7191(4) 1.1030(3)
H8 H 0.5346 0.7563 1.1274
H9 H 0.5984 0.6793 1.1333
C12 C 0.7495(3) 0.8588(3) 0.8312(3)
C13 C 0.3475(3) 0.6456(3) 0.5627(3)
H10 H 0.3517 0.5927 0.5772
C14 C 0.6537(3) 0.8658(3) 0.9450(3)
H11 H 0.6493 0.9188 0.9286
C15 C 0.1844(4) 0.6180(3) 0.9385(3)
H12 H 0.1465 0.6596 0.9209
C16 C 0.4874(4) 0.8201(4) 0.4186(3)
C17 C 0.1917(3) 0.5485(3) 0.9344(3)
C18 C 0.3407(3) 0.7968(3) 0.5197(3)
H13 H 0.3403 0.8490 0.5044
C19 C 0.1472(3) 0.5408(3) 0.8928(3)
H14 H 0.1496 0.4869 0.9034
H15 H 0.0931 0.5667 0.9053
C20 C 0.7615(4) 0.9925(4) 0.5597(3)
H16 H 0.7518 1.0415 0.5621
C21 C 0.5147(3) 0.6847(3) 1.0914(3)
C22 C 0.4250(3) 0.6235(4) 1.0612(3)
C23 C 0.6604(4) 0.7149(3) 0.9930(3)
H17 H 0.6606 0.6627 1.0092
C24 C 0.7632(4) 0.9614(4) 0.7230(3)
H18 H 0.7443 1.0114 0.6954
C25 C 0.5163(3) 0.6085(4) 1.1216(3)
H19 H 0.5482 0.5769 1.1524
C26 C 0.6109(3) 0.8314(3) 1.0106(3)
H20 H 0.5781 0.8607 1.0397
C27 C 0.2319(4) 0.6273(3) 0.9680(3)
H21 H 0.2268 0.6756 0.9700
C28 C 0.5377(4) 0.7643(4) 0.4555(3)
H22 H 0.5388 0.7127 0.4659
C29 C 0.4672(3) 0.7305(3) 1.0474(3)
H23 H 0.4649 0.7833 1.0278
C30 C 0.4231(3) 0.7004(4) 1.0318(3)
H24 H 0.3915 0.7322 1.0009
C31 C 0.2871(4) 0.5669(4) 0.9949(3)
C32 C 0.2888(3) 0.5720(3) 0.7181(3)
H25 H 0.3359 0.5449 0.6968
C33 C 0.3369(4) 0.5791(4) 1.0227(3)
C34 C 0.4292(4) 0.7962(4) 0.4051(3)
H26 H 0.4550 0.7610 0.3778
H27 H 0.3973 0.8408 0.3777
C35 C 0.7067(3) 0.7464(3) 0.9279(3)
H28 H 0.7405 0.7155 0.9007
C36 C 0.4884(4) 0.8947(4) 0.4004(3)
H29 H 0.4554 0.9330 0.3733
C37 C 0.8232(4) 0.9371(4) 0.5807(3)
C38 C 0.2486(3) 0.5375(3) 0.7852(3)
H30 H 0.2672 0.4860 0.8098
C39 C 0.3782(4) 0.5949(4) 1.0432(4)
C40 C 0.2940(4) 0.4960(4) 0.9915(5)
H31 H 0.3313 0.4538 1.0095
C41 C 0.8665(4) 0.9524(4) 0.6183(3)
H32 H 0.9209 0.9264 0.6075
H33 H 0.8634 1.0072 0.6032
C42 C 0.7930(5) 0.8514(4) 0.5484(3)
H34 H 0.8044 0.8034 0.5433
C43 C 0.6353(5) 0.8764(5) 0.4837(4)
C44 C 0.8396(4) 0.8668(4) 0.5743(3)
H35 H 0.8827 0.8296 0.5875
C45 C 0.7283(5) 0.9057(5) 0.5294(3)
C46 C 0.2447(5) 0.4883(4) 0.9610(4)
H36 H 0.2485 0.4404 0.9591
C47 C 0.4704(4) 0.5778(4) 1.1066(3)
H37 H 0.4707 0.5254 1.1278
C48 C 0.5866(4) 0.7823(4) 0.4777(4)
H38 H 0.6199 0.7437 0.5044
C49 C 0.5369(4) 0.9143(4) 0.4210(3)
H39 H 0.5368 0.9660 0.4085
C50 C 0.5856(4) 0.8588(5) 0.4599(3)
C51 C 0.7147(4) 0.9755(5) 0.5353(4)
H40 H 0.6718 1.0129 0.5222
C52 C 0.6777(5) 0.8895(5) 0.5046(4)
C53 C 0.1628(3) 0.5695(3) 0.6267(3)
N5 N -0.1088(3) 0.4659(4) 0.8773(2)
C54 C 0.3425(4) 0.6329(4) 0.3591(3)
C55 C 0.1124(4) 0.5518(4) 0.6957(3)
C56 C 0.3208(4) 0.5496(4) 0.4792(3)
H41 H 0.3365 0.5041 0.5144
C57 C -0.3047(3) 0.3169(3) 0.7997(3)
H42 H -0.3124 0.2672 0.8157
C58 C 0.2761(4) 0.6832(4) 0.3767(3)
H43 H 0.2614 0.7290 0.3414
C59 C -0.1986(3) 0.4250(4) 0.8308(3)
C60 C 0.2530(3) 0.5995(3) 0.4968(3)
C61 C 0.2039(3) 0.5829(4) 0.5682(3)
C62 C -0.1394(4) 0.3740(4) 0.8558(3)
H44 H -0.1289 0.3232 0.8577
C63 C -0.2481(3) 0.4049(3) 0.8037(3)
C64 C -0.3282(4) 0.4420(4) 0.7269(4)
H45 H -0.3520 0.4795 0.6915
C65 C -0.2587(4) 0.3318(4) 0.8269(3)
H46 H -0.2345 0.2925 0.8611
C66 C 0.3657(4) 0.5660(3) 0.4106(3)
H47 H 0.4121 0.5318 0.3986
C67 C -0.3849(3) 0.3547(4) 0.7180(3)
H48 H -0.4361 0.3889 0.7219
H49 H -0.3914 0.3019 0.7420
C68 C 0.0474(4) 0.6059(4) 0.7119(3)
H50 H 0.0392 0.6552 0.6785
C69 C 0.2302(4) 0.6681(4) 0.4454(3)
H51 H 0.1846 0.7031 0.4574
C70 C -0.0936(4) 0.3960(5) 0.8789(3)
H52 H -0.0516 0.3604 0.8956
C71 C 0.1256(4) 0.4805(4) 0.7459(4)
H53 H 0.1702 0.4437 0.7356
C72 C 0.0072(4) 0.5152(4) 0.8264(3)
C73 C -0.2833(4) 0.4610(4) 0.7526(4)
H54 H -0.2767 0.5113 0.7356
C74 C -0.0539(4) 0.4920(5) 0.8940(3)
H55 H -0.0812 0.5353 0.9113
H56 H -0.0308 0.4506 0.9309
C75 C 0.0735(4) 0.4641(5) 0.8103(3)
H57 H 0.0834 0.4159 0.8448
C76 C -0.1685(4) 0.5181(4) 0.8550(3)
H58 H -0.1790 0.5681 0.8554
C77 C -0.2142(4) 0.4978(4) 0.8315(4)
H59 H -0.2565 0.5340 0.8157
C78 C -0.0057(4) 0.5874(4) 0.7777(4)
H60 H -0.0502 0.6239 0.7890
N6 N -0.3382(3) 0.3712(3) 0.7515(2)
C53A C -0.1628(3) 0.4305(3) 0.3733(3)
N5A N 0.1088(3) 0.5341(4) 0.1227(2)
C54A C -0.3425(4) 0.3671(4) 0.6409(3)
C55A C -0.1124(4) 0.4482(4) 0.3043(3)
C56A C -0.3208(4) 0.4504(4) 0.5208(3)
H41A H -0.3365 0.4959 0.4856
C57A C 0.3047(3) 0.6831(3) 0.2003(3)
H42A H 0.3124 0.7328 0.1843
C58A C -0.2761(4) 0.3168(4) 0.6233(3)
H43A H -0.2614 0.2710 0.6586
C59A C 0.1986(3) 0.5750(4) 0.1692(3)
C60A C -0.2530(3) 0.4005(3) 0.5032(3)
C61A C -0.2039(3) 0.4171(4) 0.4318(3)
C62A C 0.1394(4) 0.6260(4) 0.1442(3)
H44A H 0.1289 0.6768 0.1423
C63A C 0.2481(3) 0.5951(3) 0.1963(3)
C64A C 0.3282(4) 0.5580(4) 0.2731(4)
H45A H 0.3520 0.5205 0.3085
C65A C 0.2587(4) 0.6682(4) 0.1731(3)
H46A H 0.2345 0.7075 0.1389
C66A C -0.3657(4) 0.4340(3) 0.5894(3)
H47A H -0.4121 0.4682 0.6014
C67A C 0.3849(3) 0.6453(4) 0.2820(3)
H48A H 0.4361 0.6111 0.2781
H49A H 0.3914 0.6981 0.2580
C68A C -0.0474(4) 0.3941(4) 0.2881(3)
H50A H -0.0392 0.3448 0.3215
C69A C -0.2302(4) 0.3319(4) 0.5546(3)
H51A H -0.1846 0.2969 0.5426
C70A C 0.0936(4) 0.6040(5) 0.1211(3)
H52A H 0.0516 0.6396 0.1044
C71A C -0.1256(4) 0.5195(4) 0.2541(4)
H53A H -0.1702 0.5563 0.2644
C72A C -0.0072(4) 0.4848(4) 0.1736(3)
C73A C 0.2833(4) 0.5390(4) 0.2474(4)
H54A H 0.2767 0.4887 0.2644
C74A C 0.0539(4) 0.5080(5) 0.1060(3)
H55A H 0.0812 0.4647 0.0887
H56A H 0.0308 0.5494 0.0691
C75A C -0.0735(4) 0.5359(5) 0.1897(3)
H57A H -0.0834 0.5841 0.1552
C76A C 0.1685(4) 0.4819(4) 0.1450(3)
H58A H 0.1790 0.4319 0.1446
C77A C 0.2142(4) 0.5022(4) 0.1685(4)
H59A H 0.2565 0.4660 0.1843
C78A C 0.0057(4) 0.4126(4) 0.2223(4)
H60A H 0.0502 0.3761 0.2110
N6A N 0.3382(3) 0.6288(3) 0.2485(2)
P4 P 1.18574(11) 0.83142(9) 0.79770(8)
F19 F 1.2407(2) 0.7518(2) 0.7986(2)
F20 F 1.1139(2) 0.7969(2) 0.8172(2)
F21 F 1.1934(2) 0.8516(2) 0.71521(19)
F22 F 1.1306(3) 0.9126(2) 0.7951(2)
F23 F 1.1783(3) 0.8110(2) 0.8792(2)
F24 F 1.2582(3) 0.8668(3) 0.7763(2)
P5 P 1.39554(10) 1.37412(10) 0.68245(10)
F25 F 1.4118(3) 1.4025(3) 0.7340(2)
F26 F 1.4843(3) 1.3482(3) 0.6506(3)
F27 F 1.3080(3) 1.4013(4) 0.7141(4)
F28 F 1.3972(5) 1.4540(3) 0.6246(3)
F29 F 1.3937(4) 1.2948(3) 0.7416(4)
F30 F 1.3762(4) 1.3443(4) 0.6344(4)
P6 P -0.49425(13) 0.61402(11) 0.67394(10)
F31 F -0.4111(3) 0.5936(2) 0.6249(2)
F32 F -0.5787(4) 0.6339(4) 0.7223(4)
F33 F -0.5230(7) 0.6893(7) 0.6160(5)
F34 F -0.4845(7) 0.5355(8) 0.7320(8)
F35 F -0.5327(5) 0.5712(7) 0.6441(7)
F36 F -0.4718(7) 0.6528(10) 0.7075(7)
P7 P 1.53089(12) 0.87139(12) 0.81164(12)
F37 F 1.4415(3) 0.8834(3) 0.8493(3)
F38 F 1.6197(3) 0.8597(4) 0.7745(4)
F39 F 1.5261(4) 0.8101(3) 0.7861(4)
F40 F 1.5488(3) 0.8069(4) 0.8819(3)
F41 F 1.5119(4) 0.9366(4) 0.7427(4)
F42 F 1.5378(3) 0.9316(4) 0.8373(4)
N7 N 1.3549(3) 1.1085(3) 0.7438(2)
N8 N 1.0968(3) 1.0648(3) 0.6123(2)
C79 C 1.1576(3) 1.0099(4) 0.6221(3)
H61 H 1.1639 0.9644 0.6141
C80 C 0.9460(3) 0.9306(4) 0.7860(3)
H62 H 0.9586 0.8816 0.8184
C81 C 1.2983(3) 1.0309(3) 0.7270(3)
H63 H 1.2921 0.9821 0.7360
C82 C 0.8794(3) 0.9813(4) 0.8058(3)
C83 C 1.2026(3) 1.0857(3) 0.6557(3)
C84 C 0.9944(3) 0.9525(4) 0.7178(3)
H64 H 1.0399 0.9180 0.7045
C85 C 1.1396(4) 1.1430(4) 0.6413(3)
H65 H 1.1332 1.1902 0.6461
C86 C 0.6445(4) 0.8996(4) 1.1405(3)
C87 C 1.3465(3) 1.0393(3) 0.7560(3)
H66 H 1.3741 0.9960 0.7849
C88 C 1.3182(3) 1.1705(3) 0.7019(3)
H67 H 1.3264 1.2187 0.6927
C89 C 1.2585(3) 1.0946(3) 0.6842(3)
C90 C 0.6275(3) 0.9666(4) 1.0887(3)
H68 H 0.5826 1.0030 1.0995
C91 C 0.8313(3) 0.9619(4) 0.8756(3)
C92 C 0.7899(3) 0.9468(4) 0.9347(3)
C93 C 0.9769(3) 1.0235(4) 0.6698(3)
C94 C 1.0869(4) 1.1313(4) 0.6199(3)
H69 H 1.0433 1.1701 0.6105
C95 C 0.7094(4) 0.8462(4) 1.1238(3)
H70 H 0.7207 0.7988 1.1589
C96 C 0.6744(3) 0.9819(4) 1.0215(3)
H71 H 0.6613 1.0286 0.9863
C97 C 0.7412(3) 0.9296(4) 1.0041(3)
C98 C 1.0322(3) 1.0483(5) 0.5994(3)
H72 H 1.0068 1.0941 0.5671
H73 H 1.0523 1.0079 0.5779
C99 C 0.7582(4) 0.8613(4) 1.0559(3)
H74 H 0.8031 0.8248 1.0453
C100 C 0.8610(4) 1.0537(4) 0.7563(3)
H75 H 0.8153 1.0884 0.7688
C101 C 1.2119(3) 1.0195(3) 0.6440(3)
H76 H 1.2559 0.9804 0.6511
C102 C 0.9097(4) 1.0736(5) 0.6895(4)
H77 H 0.8972 1.1223 0.6565
C103 C 1.2700(4) 1.1650(3) 0.6726(3)
H78 H 1.2435 1.2094 0.6437
C104 C 1.4020(3) 1.1143(4) 0.7843(3)
H79 H 1.4507 1.0762 0.7817
H80 H 1.4137 1.1650 0.7640
N7A N 0.6451(3) 0.8915(3) 1.2562(2)
N8A N 0.9032(3) 0.9352(3) 1.3877(2)
C79A C 0.8424(3) 0.9901(4) 1.3779(3)
H61A H 0.8361 1.0356 1.3859
C80A C 1.0540(3) 1.0694(4) 1.2140(3)
H62A H 1.0414 1.1184 1.1816
C81A C 0.7017(3) 0.9691(3) 1.2730(3)
H63A H 0.7079 1.0179 1.2640
C82A C 1.1206(3) 1.0187(4) 1.1942(3)
C83A C 0.7974(3) 0.9143(3) 1.3443(3)
C84A C 1.0056(3) 1.0475(4) 1.2822(3)
H64A H 0.9601 1.0820 1.2955
C85A C 0.8604(4) 0.8570(4) 1.3587(3)
H65A H 0.8668 0.8098 1.3539
C86A C 1.3555(4) 1.1004(4) 0.8595(3)
C87A C 0.6535(3) 0.9607(3) 1.2440(3)
H66A H 0.6259 1.0040 1.2151
C88A C 0.6818(3) 0.8295(3) 1.2981(3)
H67A H 0.6736 0.7813 1.3073
C89A C 0.7415(3) 0.9054(3) 1.3158(3)
C90A C 1.3725(3) 1.0334(4) 0.9113(3)
H68A H 1.4174 0.9970 0.9005
C91A C 1.1687(3) 1.0381(4) 1.1244(3)
C92A C 1.2101(3) 1.0532(4) 1.0653(3)
C93A C 1.0231(3) 0.9765(4) 1.3302(3)
C94A C 0.9131(4) 0.8687(4) 1.3801(3)
H69A H 0.9567 0.8299 1.3895
C95A C 1.2906(4) 1.1538(4) 0.8762(3)
H70A H 1.2793 1.2012 0.8411
C96A C 1.3256(3) 1.0181(4) 0.9785(3)
H71A H 1.3387 0.9714 1.0137
C97A C 1.2588(3) 1.0704(4) 0.9959(3)
C98A C 0.9678(3) 0.9517(5) 1.4006(3)
H72A H 0.9932 0.9059 1.4329
H73A H 0.9477 0.9921 1.4221
C99A C 1.2418(4) 1.1387(4) 0.9441(3)
H74A H 1.1969 1.1752 0.9547
C100A C 1.1390(4) 0.9463(4) 1.2437(3)
H75A H 1.1847 0.9116 1.2312
C101A C 0.7881(3) 0.9805(3) 1.3560(3)
H76A H 0.7441 1.0196 1.3489
C102A C 1.0903(4) 0.9264(5) 1.3105(4)
H77A H 1.1028 0.8777 1.3435
C103A C 0.7300(4) 0.8350(3) 1.3274(3)
H78A H 0.7565 0.7906 1.3563
C104A C 0.5980(3) 0.8857(4) 1.2157(3)
H79A H 0.5493 0.9238 1.2183
H80A H 0.5863 0.8350 1.2360
N9 N -0.2098(6) 0.6943(6) 0.7727(7)
C105 C -0.2542(7) 0.7101(6) 0.7349(7)
C106 C -0.3116(7) 0.7229(8) 0.6977(7)
H81 H -0.2918 0.6912 0.6677
H82 H -0.3222 0.7762 0.6685
H83 H -0.3588 0.7098 0.7325
C107 C -0.2058(9) 0.0692(6) 1.0677(6)
H84 H -0.2103 0.0820 1.1085
H85 H -0.1572 0.0336 1.0581
H86 H -0.2480 0.0459 1.0777
C108 C -0.2086(7) 0.1342(7) 1.0093(6)
N10 N -0.2133(12) 0.1876(10) 0.9620(8)
N11 N 1.0066(7) 1.1437(7) 1.0272(6)
C109 C 0.9699(11) 1.2250(10) 0.9213(8)
C110 C 0.9910(11) 1.1852(9) 0.9687(9)
C111 C 0.9866(8) 1.0923(8) 0.8294(6)
N12 N 1.1277(10) 1.1008(9) 0.8260(8)
C112 C 1.0688(13) 1.0965(9) 0.8292(8)
P8 P 0.92690(19) 1.3229(2) 0.65196(18)
F43 F 0.9346(5) 1.2731(5) 0.6064(5)
F44 F 0.9206(6) 1.3648(9) 0.7015(8)
F45 F 0.9866(8) 1.2527(8) 0.6885(9)
F46 F 0.9885(10) 1.3641(12) 0.6001(13)
F47 F 0.8646(10) 1.2725(11) 0.7062(12)
F48 F 0.8559(7) 1.3816(8) 0.6350(9)
F49? F -0.4447(9) 0.5978(10) 0.7311(6)
F50? F -0.4718(11) 0.6990(6) 0.6425(9)
F51? F -0.5238(10) 0.6299(16) 0.6156(9)
F52? F -0.4963(9) 0.5323(9) 0.7008(9)
C113? C 1.0027(13) 1.0842(13) 1.0109(11)
C114? C 0.9976(14) 1.0313(12) 1.0013(13)
F53? F 1.0993(9) 1.2704(9) 0.8544(8)
P9? P 1.0882(3) 1.2601(5) 0.7891(5)
F54? F 1.1554(10) 1.2889(7) 0.7604(12)
F55? F 1.1311(9) 1.1703(8) 0.8195(11)
F56? F 1.0115(8) 1.2337(9) 0.8404(9)
F57? F 1.0473(6) 1.3393(8) 0.7624(6)
F58? F 1.0794(9) 1.2457(11) 0.7269(9)
C115? C 0.930(2) 1.1570(18) 0.793(2)
N13? N 0.902(3) 1.220(2) 0.748(2)
loop_
_geom_bond_atom_site_label_1
_geom_bond_atom_site_label_2
_geom_bond_site_symmetry_1
_geom_bond_site_symmetry_2
P1 F1 1_555 1_555
F2 P1 1_555 1_555
F3 P1 1_555 1_555
F4 P1 1_555 1_555
F5 P1 1_555 1_555
F6 P1 1_555 1_555
P2 F7 1_555 1_555
F8 P2 1_555 1_555
F9 P2 1_555 1_555
F10 P2 1_555 1_555
F11 P2 1_555 1_555
F12 P2 1_555 1_555
P3 F13 1_555 1_555
F14 P3 1_555 1_555
F15 P3 1_555 1_555
F16 P3 1_555 1_555
F17 P3 1_555 1_555
F18 P3 1_555 1_555
N1 C11 1_555 1_555
N2 C6 1_555 1_555
C1 C2 1_555 1_555
C2 C9 1_555 1_555
C3 C12 1_555 1_555
C4 H1 1_555 1_555
C5 C1 1_555 1_555
H2 C5 1_555 1_555
N3 C8 1_555 1_555
C6 H3 1_555 1_555
C7 H4 1_555 1_555
C8 C4 1_555 1_555
H5 C8 1_555 1_555
N4 C7 1_555 1_555
C9 C6 1_555 1_555
H6 C9 1_555 1_555
C10 H7 1_555 1_555
C11 H8 1_555 1_555
H9 C11 1_555 1_555
C12 C4 1_555 1_555
C13 C1 1_555 1_555
H10 C13 1_555 1_555
C14 C3 1_555 1_555
H11 C14 1_555 1_555
C15 H12 1_555 1_555
C16 C28 1_555 1_555
C17 C15 1_555 1_555
C18 C5 1_555 1_555
H13 C18 1_555 1_555
C19 N2 1_555 1_555
H14 C19 1_555 1_555
H15 C19 1_555 1_555
C20 H16 1_555 1_555
C21 C11 1_555 1_555
C22 C30 1_555 1_555
C23 N1 1_555 1_555
H17 C23 1_555 1_555
C24 N3 1_555 1_555
H18 C24 1_555 1_555
C25 C21 1_555 1_555
H19 C25 1_555 1_555
C26 N1 1_555 1_555
H20 C26 1_555 1_555
C27 C15 1_555 1_555
H21 C27 1_555 1_555
C28 H22 1_555 1_555
C29 C21 1_555 1_555
H23 C29 1_555 1_555
C30 C29 1_555 1_555
H24 C30 1_555 1_555
C31 C27 1_555 1_555
C32 C2 1_555 1_555
H25 C32 1_555 1_555
C33 C31 1_555 1_555
C34 N4 1_555 1_555
H26 C34 1_555 1_555
H27 C34 1_555 1_555
C35 C3 1_555 1_555
H28 C35 1_555 1_555
C36 C16 1_555 1_555
H29 C36 1_555 1_555
C37 C20 1_555 1_555
C38 N2 1_555 1_555
H30 C38 1_555 1_555
C39 C22 1_555 1_555
C40 C31 1_555 1_555
H31 C40 1_555 1_555
C41 N3 1_555 1_555
H32 C41 1_555 1_555
H33 C41 1_555 1_555
C42 H34 1_555 1_555
C43 C50 1_555 1_555
C44 C37 1_555 1_555
H35 C44 1_555 1_555
C45 C42 1_555 1_555
C46 C17 1_555 1_555
H36 C46 1_555 1_555
C47 C22 1_555 1_555
H37 C47 1_555 1_555
C48 C28 1_555 1_555
H38 C48 1_555 1_555
C49 C36 1_555 1_555
H39 C49 1_555 1_555
C50 C48 1_555 1_555
C51 C20 1_555 1_555
H40 C51 1_555 1_555
C52 C43 1_555 1_555
C53 C55 1_555 1_555
N5 C70 1_555 1_555
C54 C58 1_555 1_555
C55 C68 1_555 1_555
C56 H41 1_555 1_555
C57 H42 1_555 1_555
C58 H43 1_555 1_555
C59 C62 1_555 1_555
C60 C56 1_555 1_555
C61 C53 1_555 1_555
C62 H44 1_555 1_555
C63 C59 1_555 1_555
C64 H45 1_555 1_555
C65 C57 1_555 1_555
H46 C65 1_555 1_555
C66 C54 1_555 1_555
H47 C66 1_555 1_555
C67 H48 1_555 1_555
H49 C67 1_555 1_555
C68 H50 1_555 1_555
C69 C58 1_555 1_555
H51 C69 1_555 1_555
C70 C62 1_555 1_555
H52 C70 1_555 1_555
C71 C55 1_555 1_555
H53 C71 1_555 1_555
C72 C74 1_555 1_555
C73 C63 1_555 1_555
H54 C73 1_555 1_555
C74 N5 1_555 1_555
H55 C74 1_555 1_555
H56 C74 1_555 1_555
C75 C71 1_555 1_555
H57 C75 1_555 1_555
C76 N5 1_555 1_555
H58 C76 1_555 1_555
C77 C59 1_555 1_555
H59 C77 1_555 1_555
C78 C68 1_555 1_555
H60 C78 1_555 1_555
N6 C57 1_555 1_555
P4 F19 1_555 1_555
F20 P4 1_555 1_555
F21 P4 1_555 1_555
F22 P4 1_555 1_555
F23 P4 1_555 1_555
F24 P4 1_555 1_555
P5 F25 1_555 1_555
F26 P5 1_555 1_555
F27 P5 1_555 1_555
F28 P5 1_555 1_555
F29 P5 1_555 1_555
F30 P5 1_555 1_555
P6 F31 1_555 1_555
F32 P6 1_555 1_555
F33 P6 1_555 1_555
F34 P6 1_555 1_555
F35 P6 1_555 1_555
F36 P6 1_555 1_555
P7 F37 1_555 1_555
F38 P7 1_555 1_555
F39 P7 1_555 1_555
F40 P7 1_555 1_555
F41 P7 1_555 1_555
F42 P7 1_555 1_555
N7 C87 1_555 1_555
N8 C79 1_555 1_555
C79 H61 1_555 1_555
C80 H62 1_555 1_555
C81 H63 1_555 1_555
C82 C80 1_555 1_555
C83 C85 1_555 1_555
C84 C80 1_555 1_555
H64 C84 1_555 1_555
C85 H65 1_555 1_555
C86 C90 1_555 1_555
C87 C81 1_555 1_555
H66 C87 1_555 1_555
C88 N7 1_555 1_555
H67 C88 1_555 1_555
C89 C81 1_555 1_555
C90 H68 1_555 1_555
C91 C82 1_555 1_555
C92 C91 1_555 1_555
C93 C84 1_555 1_555
C94 N8 1_555 1_555
H69 C94 1_555 1_555
C95 C86 1_555 1_555
H70 C95 1_555 1_555
C96 C90 1_555 1_555
H71 C96 1_555 1_555
C97 C92 1_555 1_555
C98 N8 1_555 1_555
H72 C98 1_555 1_555
H73 C98 1_555 1_555
C99 C95 1_555 1_555
H74 C99 1_555 1_555
C100 C82 1_555 1_555
H75 C100 1_555 1_555
C101 C79 1_555 1_555
H76 C101 1_555 1_555
C102 C93 1_555 1_555
H77 C102 1_555 1_555
C103 C88 1_555 1_555
H78 C103 1_555 1_555
C104 N7 1_555 1_555
H79 C104 1_555 1_555
H80 C104 1_555 1_555
N9 C105 1_555 1_555
C105 C106 1_555 1_555
C106 H81 1_555 1_555
H82 C106 1_555 1_555
H83 C106 1_555 1_555
C107 H84 1_555 1_555
H85 C107 1_555 1_555
H86 C107 1_555 1_555
C108 C107 1_555 1_555
N10 C108 1_555 1_555
N11 C110 1_555 1_555
C109 C110 1_555 1_555
C111 C112 1_555 1_555
N12 C112 1_555 1_555
P8 F43 1_555 1_555
F44 P8 1_555 1_555
F45 P8 1_555 1_555
F46 P8 1_555 1_555
F47 P8 1_555 1_555
F48 P8 1_555 1_555
C53A C55A 1_555 1_555
N5A C70A 1_555 1_555
C54A C67 1_555 1_555
C55A C68A 1_555 1_555
C56A H41A 1_555 1_555
C57A H42A 1_555 1_555
C58A C54A 1_555 1_555
H43A C58A 1_555 1_555
C59A C62A 1_555 1_555
C60A C56A 1_555 1_555
C61A C53A 1_555 1_555
C62A H44A 1_555 1_555
C63A C59A 1_555 1_555
C64A H45A 1_555 1_555
C65A C57A 1_555 1_555
H46A C65A 1_555 1_555
C66A C54A 1_555 1_555
H47A C66A 1_555 1_555
C67A C54 1_555 1_555
H48A C67A 1_555 1_555
H49A C67A 1_555 1_555
C68A H50A 1_555 1_555
C69A C58A 1_555 1_555
H51A C69A 1_555 1_555
C70A C62A 1_555 1_555
H52A C70A 1_555 1_555
C71A C55A 1_555 1_555
H53A C71A 1_555 1_555
C72A C74A 1_555 1_555
C73A C63A 1_555 1_555
H54A C73A 1_555 1_555
C74A N5A 1_555 1_555
H55A C74A 1_555 1_555
H56A C74A 1_555 1_555
C75A C71A 1_555 1_555
H57A C75A 1_555 1_555
C76A N5A 1_555 1_555
H58A C76A 1_555 1_555
C77A C59A 1_555 1_555
H59A C77A 1_555 1_555
C78A C68A 1_555 1_555
H60A C78A 1_555 1_555
N6A C57A 1_555 1_555
N7A C87A 1_555 1_555
N8A C79A 1_555 1_555
C79A H61A 1_555 1_555
C80A H62A 1_555 1_555
C81A H63A 1_555 1_555
C82A C80A 1_555 1_555
C83A C85A 1_555 1_555
C84A C80A 1_555 1_555
H64A C84A 1_555 1_555
C85A H65A 1_555 1_555
C86A C104 1_555 1_555
C87A C81A 1_555 1_555
H66A C87A 1_555 1_555
C88A N7A 1_555 1_555
H67A C88A 1_555 1_555
C89A C81A 1_555 1_555
C90A C86A 1_555 1_555
H68A C90A 1_555 1_555
C91A C82A 1_555 1_555
C92A C91A 1_555 1_555
C93A C84A 1_555 1_555
C94A N8A 1_555 1_555
H69A C94A 1_555 1_555
C95A C86A 1_555 1_555
H70A C95A 1_555 1_555
C96A C90A 1_555 1_555
H71A C96A 1_555 1_555
C97A C92A 1_555 1_555
C98A N8A 1_555 1_555
H72A C98A 1_555 1_555
H73A C98A 1_555 1_555
C99A C95A 1_555 1_555
H74A C99A 1_555 1_555
C100A C82A 1_555 1_555
H75A C100A 1_555 1_555
C101A C79A 1_555 1_555
H76A C101A 1_555 1_555
C102A C93A 1_555 1_555
H77A C102A 1_555 1_555
C103A C88A 1_555 1_555
H78A C103A 1_555 1_555
C104A C86 1_555 1_555
H79A C104A 1_555 1_555
H80A C104A 1_555 1_555
C7 C13 1_555 1_555
N4 C18 1_555 1_555
C10 C12 1_555 1_555
C10 C24 1_555 1_555
C14 C26 1_555 1_555
C16 C34 1_555 1_555
C17 C19 1_555 1_555
C23 C35 1_555 1_555
C25 C47 1_555 1_555
C32 C38 1_555 1_555
C33 C39 1_555 1_555
C37 C41 1_555 1_555
C40 C46 1_555 1_555
C42 C44 1_555 1_555
C45 C51 1_555 1_555
C45 C52 1_555 1_555
C49 C50 1_555 1_555
C56 C66 1_555 1_555
C60 C61 1_555 1_555
C60 C69 1_555 1_555
C63 C65 1_555 1_555
C64 C73 1_555 1_555
C64 N6 1_555 1_555
C67 N6 1_555 1_555
C72 C75 1_555 1_555
C72 C78 1_555 1_555
C76 C77 1_555 1_555
C83 C89 1_555 1_555
C83 C101 1_555 1_555
C85 C94 1_555 1_555
C89 C103 1_555 1_555
C93 C98 1_555 1_555
C96 C97 1_555 1_555
C97 C99 1_555 1_555
C100 C102 1_555 1_555
C56A C66A 1_555 1_555
C60A C61A 1_555 1_555
C60A C69A 1_555 1_555
C63A C65A 1_555 1_555
C64A C73A 1_555 1_555
C64A N6A 1_555 1_555
C67A N6A 1_555 1_555
C72A C75A 1_555 1_555
C72A C78A 1_555 1_555
C76A C77A 1_555 1_555
N7A C104A 1_555 1_555
C83A C89A 1_555 1_555
C83A C101A 1_555 1_555
C85A C94A 1_555 1_555
C89A C103A 1_555 1_555
C93A C98A 1_555 1_555
C96A C97A 1_555 1_555
C97A C99A 1_555 1_555
C100A C102A 1_555 1_555

#END
