
#######################################################################
#
#                 Cambridge Crystallographic Data Centre
#                                CCDC 
#
#######################################################################
#
# If this CIF has been generated from an entry in the Cambridge 
# Structural Database, then it will include bibliographic, chemical, 
# crystal, experimental, refinement or atomic coordinate data resulting 
# from the CCDC's data processing and validation procedures.
#
#######################################################################

data_JITFUQ
_chemical_formula_moiety         
'C52 H40 N4 2+,C36 H32 N4 2+,4(F6 P1 1-),C6 H4 Br2,C2 H3 N1'
_chemical_name_systematic        
'5,25-diazonia-18,38-diazanonacyclo[36.2.2.2^2,5^.2^7,10^.2^13,16^.2^18,21^.2^22,25^.2^27,30^.2^33,36^]hexapentaconta-1,3,7,9,13,15,19,21,23,27,29,33,35,39,41,43,45,47,49,51,53,55-docosaene-11,31-diyne diradical 5,12,19,26-tetra-azaheptacyclo[24.2.2.2^2,5^.2^7,10^.2^12,15^.2^16,19^.2^21,24^]tetraconta-1(28),2,4,7,9,12,14,16,18,21,23,26,29,31,33,35,37,39-octadecaene-5,19-di-ium diradical tetrakis(hexafluorophosphate) acetonitrile 1,4-dibromobenzene unknown solvate'
_symmetry_cell_setting           orthorhombic
_symmetry_space_group_name_H-M   'C c c m'
_symmetry_Int_Tables_number      66
_space_group_name_Hall           '-C 2 2n'
loop_
_symmetry_equiv_pos_site_id
_symmetry_equiv_pos_as_xyz
1 x,y,z
2 -x,-y,z
3 -x,y,1/2-z
4 x,-y,1/2-z
5 1/2+x,1/2+y,z
6 1/2-x,1/2-y,z
7 1/2-x,1/2+y,1/2-z
8 1/2+x,1/2-y,1/2-z
9 -x,-y,-z
10 x,y,-z
11 x,-y,1/2+z
12 -x,y,1/2+z
13 1/2-x,1/2-y,-z
14 1/2+x,1/2+y,-z
15 1/2+x,1/2-y,1/2+z
16 1/2-x,1/2+y,1/2+z
_cell_length_a                   22.9893(11)
_cell_length_b                   27.1658(13)
_cell_length_c                   33.4104(16)
_cell_angle_alpha                90
_cell_angle_beta                 90
_cell_angle_gamma                90
_cell_volume                     20865.6
_exptl_crystal_colour            purple
_exptl_crystal_description       needle
_cell_formula_units_Z            8
loop_
_atom_site_label
_atom_site_type_symbol
_atom_site_fract_x
_atom_site_fract_y
_atom_site_fract_z
N2 N 0.3627(3) 0.3385(3) 0.59900(19)
C14 C 0.3794(4) 0.4131(3) 0.5210(2)
H11 H 0.358433 0.437666 0.535189
C15 C 0.4100(4) 0.3772(3) 0.5419(2)
C16 C 0.4406(4) 0.3423(4) 0.5207(2)
H12 H 0.462074 0.317840 0.534698
C17 C 0.4069(4) 0.3741(3) 0.5871(2)
H13 H 0.445199 0.364023 0.597935
H14 H 0.397240 0.406890 0.598318
C18 C 0.3064(4) 0.3521(3) 0.6010(2)
H15 H 0.297194 0.386136 0.599120
C19 C 0.2619(4) 0.3192(3) 0.6055(2)
H16 H 0.223029 0.330858 0.607687
C20 C 0.2729(4) 0.2675(3) 0.6070(2)
C21 C 0.3322(4) 0.2547(3) 0.6061(2)
H17 H 0.342670 0.220990 0.608112
C22 C 0.3755(4) 0.2892(3) 0.6026(2)
H18 H 0.414970 0.278846 0.602604
N2E N 0.1373(3) 0.1615(3) 0.59900(19)
C14E C 0.1206(4) 0.0869(3) 0.5210(2)
H11E H 0.141567 0.062334 0.535189
C15E C 0.0900(4) 0.1228(3) 0.5419(2)
C16E C 0.0594(4) 0.1577(4) 0.5207(2)
H12E H 0.037926 0.182160 0.534698
C17E C 0.0931(4) 0.1259(3) 0.5871(2)
H13E H 0.054801 0.135977 0.597935
H14E H 0.102760 0.093110 0.598318
C18E C 0.1936(4) 0.1479(3) 0.6010(2)
H15E H 0.202806 0.113864 0.599120
C19E C 0.2381(4) 0.1808(3) 0.6055(2)
H16E H 0.276971 0.169142 0.607687
C20E C 0.2271(4) 0.2325(3) 0.6070(2)
C21E C 0.1678(4) 0.2453(3) 0.6061(2)
H17E H 0.157330 0.279010 0.608112
C22E C 0.1245(4) 0.2108(3) 0.6026(2)
H18E H 0.085030 0.221154 0.602604
N2I N 0.3627(3) 0.3385(3) 0.40100(19)
C14I C 0.3794(4) 0.4131(3) 0.4790(2)
H11I H 0.358433 0.437666 0.464811
C15I C 0.4100(4) 0.3772(3) 0.4581(2)
C16I C 0.4406(4) 0.3423(4) 0.4793(2)
H12I H 0.462074 0.317840 0.465302
C17I C 0.4069(4) 0.3741(3) 0.4129(2)
H13I H 0.445199 0.364023 0.402065
H14I H 0.397240 0.406890 0.401682
C18I C 0.3064(4) 0.3521(3) 0.3990(2)
H15I H 0.297194 0.386136 0.400880
C19I C 0.2619(4) 0.3192(3) 0.3945(2)
H16I H 0.223029 0.330858 0.392313
C20I C 0.2729(4) 0.2675(3) 0.3930(2)
C21I C 0.3322(4) 0.2547(3) 0.3939(2)
H17I H 0.342670 0.220990 0.391888
C22I C 0.3755(4) 0.2892(3) 0.3974(2)
H18I H 0.414970 0.278846 0.397396
N2L N 0.1373(3) 0.1615(3) 0.40100(19)
C14L C 0.1206(4) 0.0869(3) 0.4790(2)
H11L H 0.141567 0.062334 0.464811
C15L C 0.0900(4) 0.1228(3) 0.4581(2)
C16L C 0.0594(4) 0.1577(4) 0.4793(2)
H12L H 0.037926 0.182160 0.465302
C17L C 0.0931(4) 0.1259(3) 0.4129(2)
H13L H 0.054801 0.135977 0.402065
H14L H 0.102760 0.093110 0.401682
C18L C 0.1936(4) 0.1479(3) 0.3990(2)
H15L H 0.202806 0.113864 0.400880
C19L C 0.2381(4) 0.1808(3) 0.3945(2)
H16L H 0.276971 0.169142 0.392313
C20L C 0.2271(4) 0.2325(3) 0.3930(2)
C21L C 0.1678(4) 0.2453(3) 0.3939(2)
H17L H 0.157330 0.279010 0.391888
C22L C 0.1245(4) 0.2108(3) 0.3974(2)
H18L H 0.085030 0.221154 0.397396
Br1 Br 0.38466(6) 0.21146(5) 0.500000
C23 C 0.3057(5) 0.2352(5) 0.500000
C24 C 0.2953(6) 0.2837(5) 0.500000
H19 H 0.326613 0.306507 0.500000
C25 C 0.2378(6) 0.3005(5) 0.500000
H20 H 0.228846 0.334630 0.500000
Br1E Br 0.11534(6) 0.28854(5) 0.500000
C23E C 0.1943(5) 0.2648(5) 0.500000
C24E C 0.2047(6) 0.2163(5) 0.500000
H19E H 0.173387 0.193493 0.500000
C25E C 0.2622(6) 0.1995(5) 0.500000
H20E H 0.271154 0.165370 0.500000
N3 N 0.4041(5) 0.7526(4) 0.6999(2)
C26 C 0.4658(4) 0.7730(4) 0.5173(3)
C27 C 0.4671(4) 0.7691(4) 0.5613(3)
C28 C 0.4559(4) 0.7242(4) 0.5783(3)
H21 H 0.446987 0.696964 0.561536
C29 C 0.4571(4) 0.7176(4) 0.6196(3)
H22 H 0.449199 0.686297 0.631079
C30 C 0.4706(5) 0.7588(4) 0.6441(3)
C31 C 0.4802(5) 0.8042(4) 0.6264(3)
H23 H 0.486941 0.832198 0.642794
C32 C 0.4801(5) 0.8096(4) 0.5849(3)
H24 H 0.488750 0.840517 0.573013
C33 C 0.4658(6) 0.7535(5) 0.6883(3)
H25 H 0.484939 0.722701 0.696929
H26 H 0.485528 0.781468 0.701567
C34 C 0.3733(5) 0.7076(4) 0.7017(3)
H27 H 0.394568 0.677578 0.702614
C35 C 0.3153(5) 0.7061(4) 0.7022(2)
H28 H 0.296499 0.674969 0.703740
C36 C 0.2796(5) 0.7505(3) 0.7004(2)
C37 C 0.3128(5) 0.7960(4) 0.6997(2)
H29 H 0.292970 0.826702 0.699886
C38 C 0.3712(5) 0.7953(4) 0.6990(3)
H30 H 0.391146 0.825925 0.697785
N3E N 0.0959(5) 0.7474(4) 0.6999(2)
C26E C 0.0342(4) 0.7270(4) 0.5173(3)
C27E C 0.0329(4) 0.7309(4) 0.5613(3)
C28E C 0.0441(4) 0.7758(4) 0.5783(3)
H21E H 0.053013 0.803036 0.561536
C29E C 0.0429(4) 0.7824(4) 0.6196(3)
H22E H 0.050801 0.813703 0.631079
C30E C 0.0294(5) 0.7412(4) 0.6441(3)
C31E C 0.0198(5) 0.6958(4) 0.6264(3)
H23E H 0.013059 0.667802 0.642794
C32E C 0.0199(5) 0.6904(4) 0.5849(3)
H24E H 0.011250 0.659483 0.573013
C33E C 0.0342(6) 0.7465(5) 0.6883(3)
H25E H 0.015061 0.777299 0.696929
H26E H 0.014472 0.718532 0.701567
C34E C 0.1267(5) 0.7924(4) 0.7017(3)
H27E H 0.105432 0.822422 0.702614
C35E C 0.1847(5) 0.7939(4) 0.7022(2)
H28E H 0.203501 0.825031 0.703740
C36E C 0.2204(5) 0.7495(3) 0.7004(2)
C37E C 0.1872(5) 0.7040(4) 0.6997(2)
H29E H 0.207030 0.673298 0.699886
C38E C 0.1288(5) 0.7047(4) 0.6990(3)
H30E H 0.108854 0.674075 0.697785
N3I N 0.4041(5) 0.7526(4) 0.3001(2)
C26I C 0.4658(4) 0.7730(4) 0.4827(3)
C27I C 0.4671(4) 0.7691(4) 0.4387(3)
C28I C 0.4559(4) 0.7242(4) 0.4217(3)
H21I H 0.446987 0.696964 0.438464
C29I C 0.4571(4) 0.7176(4) 0.3804(3)
H22I H 0.449199 0.686297 0.368921
C30I C 0.4706(5) 0.7588(4) 0.3559(3)
C31I C 0.4802(5) 0.8042(4) 0.3736(3)
H23I H 0.486941 0.832198 0.357206
C32I C 0.4801(5) 0.8096(4) 0.4151(3)
H24I H 0.488750 0.840517 0.426987
C33I C 0.4658(6) 0.7535(5) 0.3117(3)
H25I H 0.484939 0.722701 0.303071
H26I H 0.485528 0.781468 0.298433
C34I C 0.3733(5) 0.7076(4) 0.2983(3)
H27I H 0.394568 0.677578 0.297386
C35I C 0.3153(5) 0.7061(4) 0.2978(2)
H28I H 0.296499 0.674969 0.296260
C36I C 0.2796(5) 0.7505(3) 0.2996(2)
C37I C 0.3128(5) 0.7960(4) 0.3003(2)
H29I H 0.292970 0.826702 0.300114
C38I C 0.3712(5) 0.7953(4) 0.3010(3)
H30I H 0.391146 0.825925 0.302215
N3L N 0.0959(5) 0.7474(4) 0.3001(2)
C26L C 0.0342(4) 0.7270(4) 0.4827(3)
C27L C 0.0329(4) 0.7309(4) 0.4387(3)
C28L C 0.0441(4) 0.7758(4) 0.4217(3)
H21L H 0.053013 0.803036 0.438464
C29L C 0.0429(4) 0.7824(4) 0.3804(3)
H22L H 0.050801 0.813703 0.368921
C30L C 0.0294(5) 0.7412(4) 0.3559(3)
C31L C 0.0198(5) 0.6958(4) 0.3736(3)
H23L H 0.013059 0.667802 0.357206
C32L C 0.0199(5) 0.6904(4) 0.4151(3)
H24L H 0.011250 0.659483 0.426987
C33L C 0.0342(6) 0.7465(5) 0.3117(3)
H25L H 0.015061 0.777299 0.303071
H26L H 0.014472 0.718532 0.298433
C34L C 0.1267(5) 0.7924(4) 0.2983(3)
H27L H 0.105432 0.822422 0.297386
C35L C 0.1847(5) 0.7939(4) 0.2978(2)
H28L H 0.203501 0.825031 0.296260
C36L C 0.2204(5) 0.7495(3) 0.2996(2)
C37L C 0.1872(5) 0.7040(4) 0.3003(2)
H29L H 0.207030 0.673298 0.300114
C38L C 0.1288(5) 0.7047(4) 0.3010(3)
H30L H 0.108854 0.674075 0.302215
N4 N 0.2746(3) 0.8773(3) 0.59848(18)
C39 C 0.2349(5) 0.9437(3) 0.5210(2)
H31 H 0.200051 0.950298 0.535253
C40 C 0.2869(4) 0.9338(3) 0.5418(2)
C41 C 0.3376(4) 0.9264(3) 0.5200(2)
H32 H 0.373137 0.921146 0.533850
C42 C 0.2852(5) 0.9289(3) 0.5871(2)
H33 H 0.322628 0.940068 0.598602
H34 H 0.253883 0.949985 0.598104
C43 C 0.2198(4) 0.8594(3) 0.6019(2)
H35 H 0.188079 0.881752 0.601045
C44 C 0.2088(4) 0.8113(3) 0.6064(2)
H36 H 0.169661 0.800379 0.608701
C45 C 0.2554(4) 0.7762(3) 0.6077(2)
C46 C 0.3122(4) 0.7965(3) 0.6059(2)
H37 H 0.344981 0.775340 0.607924
C47 C 0.3205(4) 0.8450(3) 0.6016(2)
H38 H 0.359105 0.857437 0.600559
N4E N 0.2254(3) 0.6227(3) 0.59848(18)
C39E C 0.2651(5) 0.5563(3) 0.5210(2)
H31E H 0.299949 0.549702 0.535253
C40E C 0.2131(4) 0.5662(3) 0.5418(2)
C41E C 0.1624(4) 0.5736(3) 0.5200(2)
H32E H 0.126863 0.578854 0.533850
C42E C 0.2148(5) 0.5711(3) 0.5871(2)
H33E H 0.177372 0.559932 0.598602
H34E H 0.246117 0.550015 0.598104
C43E C 0.2802(4) 0.6406(3) 0.6019(2)
H35E H 0.311921 0.618248 0.601045
C44E C 0.2912(4) 0.6887(3) 0.6064(2)
H36E H 0.330339 0.699621 0.608701
C45E C 0.2446(4) 0.7238(3) 0.6077(2)
C46E C 0.1878(4) 0.7035(3) 0.6059(2)
H37E H 0.155019 0.724660 0.607924
C47E C 0.1795(4) 0.6550(3) 0.6016(2)
H38E H 0.140895 0.642563 0.600559
N4I N 0.2746(3) 0.8773(3) 0.40152(18)
C39I C 0.2349(5) 0.9437(3) 0.4790(2)
H31I H 0.200051 0.950298 0.464747
C40I C 0.2869(4) 0.9338(3) 0.4582(2)
C41I C 0.3376(4) 0.9264(3) 0.4800(2)
H32I H 0.373137 0.921146 0.466150
C42I C 0.2852(5) 0.9289(3) 0.4129(2)
H33I H 0.322628 0.940068 0.401398
H34I H 0.253883 0.949985 0.401896
C43I C 0.2198(4) 0.8594(3) 0.3981(2)
H35I H 0.188079 0.881752 0.398955
C44I C 0.2088(4) 0.8113(3) 0.3936(2)
H36I H 0.169661 0.800379 0.391299
C45I C 0.2554(4) 0.7762(3) 0.3923(2)
C46I C 0.3122(4) 0.7965(3) 0.3941(2)
H37I H 0.344981 0.775340 0.392076
C47I C 0.3205(4) 0.8450(3) 0.3984(2)
H38I H 0.359105 0.857437 0.399441
N4L N 0.2254(3) 0.6227(3) 0.40152(18)
C39L C 0.2651(5) 0.5563(3) 0.4790(2)
H31L H 0.299949 0.549702 0.464747
C40L C 0.2131(4) 0.5662(3) 0.4582(2)
C41L C 0.1624(4) 0.5736(3) 0.4800(2)
H32L H 0.126863 0.578854 0.466150
C42L C 0.2148(5) 0.5711(3) 0.4129(2)
H33L H 0.177372 0.559932 0.401398
H34L H 0.246117 0.550015 0.401896
C43L C 0.2802(4) 0.6406(3) 0.3981(2)
H35L H 0.311921 0.618248 0.398955
C44L C 0.2912(4) 0.6887(3) 0.3936(2)
H36L H 0.330339 0.699621 0.391299
C45L C 0.2446(4) 0.7238(3) 0.3923(2)
C46L C 0.1878(4) 0.7035(3) 0.3941(2)
H37L H 0.155019 0.724660 0.392076
C47L C 0.1795(4) 0.6550(3) 0.3984(2)
H38L H 0.140895 0.642563 0.399441
Br2 Br 0.35343(7) 0.66769(6) 0.500000
C48 C 0.2933(6) 0.7152(5) 0.500000
C49 C 0.2369(7) 0.6993(5) 0.500000
H39 H 0.227787 0.665240 0.500000
C50 C 0.1927(6) 0.7352(5) 0.500000
H40 H 0.153049 0.725373 0.500000
Br2E Br 0.14657(7) 0.83231(6) 0.500000
C48E C 0.2067(6) 0.7848(5) 0.500000
C49E C 0.2631(7) 0.8007(5) 0.500000
H39E H 0.272213 0.834760 0.500000
C50E C 0.3073(6) 0.7648(5) 0.500000
H40E H 0.346951 0.774627 0.500000
P1 P 0.4414(2) 0.37549(18) 0.70803(16)
F1 F 0.3952(7) 0.3808(5) 0.7415(4)
F2 F 0.4794(6) 0.3674(6) 0.6704(3)
F3 F 0.4909(6) 0.3528(5) 0.7340(3)
F4 F 0.4171(6) 0.3246(4) 0.6968(4)
F5 F 0.3922(5) 0.3946(5) 0.6805(4)
F6 F 0.4627(7) 0.4289(3) 0.7141(4)
P2 P 0.2519(5) 0.5440(2) 0.71061(18)
F7 F 0.2082(9) 0.5370(6) 0.6757(4)
F8 F 0.2931(10) 0.5509(6) 0.7468(4)
F9 F 0.2098(9) 0.5129(5) 0.7368(5)
F10 F 0.2206(10) 0.5924(4) 0.7223(4)
F11 F 0.2932(10) 0.5739(5) 0.6842(4)
F12 F 0.2839(9) 0.4955(4) 0.6987(5)
P3 P 0.4240(2) 0.54544(18) 0.59876(15)
F13 F 0.3590(4) 0.5382(5) 0.6100(4)
F14 F 0.4885(4) 0.5536(5) 0.5865(4)
F15 F 0.4292(9) 0.5885(6) 0.6291(5)
F16 F 0.4412(8) 0.5089(7) 0.6323(5)
F17 F 0.4198(7) 0.5024(7) 0.5688(6)
F18 F 0.4055(6) 0.5830(8) 0.5660(5)
N1 N 0.1848(4) 0.3677(3) 0.6979(2)
C1 C 0.1566(5) 0.4306(3) 0.5179(3)
C2 C 0.1564(5) 0.4286(4) 0.5608(3)
C3 C 0.2044(5) 0.4478(3) 0.5827(3)
H1 H 0.236492 0.462489 0.569306
C4 C 0.2030(5) 0.4444(3) 0.6240(3)
H2 H 0.234289 0.457706 0.639144
C5 C 0.1572(5) 0.4223(4) 0.6438(3)
C6 C 0.1101(6) 0.4047(4) 0.6222(3)
H3 H 0.077684 0.390812 0.635661
C7 C 0.1106(6) 0.4074(4) 0.5803(3)
H4 H 0.078828 0.394514 0.565371
C8 C 0.1591(6) 0.4154(3) 0.6888(3)
H5 H 0.182632 0.441905 0.701186
H6 H 0.119270 0.417159 0.699993
C9 C 0.2443(5) 0.3629(4) 0.6991(2)
H7 H 0.267882 0.391644 0.699619
C10 C 0.2699(5) 0.3179(4) 0.6996(2)
H8 H 0.311127 0.315830 0.700799
C11 C 0.2363(4) 0.2734(3) 0.6984(2)
C12 C 0.1759(5) 0.2801(3) 0.6982(2)
H9 H 0.151232 0.252011 0.698942
C13 C 0.1512(5) 0.3263(3) 0.6972(2)
H10 H 0.110116 0.329376 0.695903
N1E N 0.3152(4) 0.1323(3) 0.6979(2)
C1E C 0.3434(5) 0.0694(3) 0.5179(3)
C2E C 0.3436(5) 0.0714(4) 0.5608(3)
C3E C 0.2956(5) 0.0522(3) 0.5827(3)
H1E H 0.263508 0.037511 0.569306
C4E C 0.2970(5) 0.0556(3) 0.6240(3)
H2E H 0.265711 0.042294 0.639144
C5E C 0.3428(5) 0.0777(4) 0.6438(3)
C6E C 0.3899(6) 0.0953(4) 0.6222(3)
H3E H 0.422316 0.109188 0.635661
C7E C 0.3894(6) 0.0926(4) 0.5803(3)
H4E H 0.421172 0.105486 0.565371
C8E C 0.3409(6) 0.0846(3) 0.6888(3)
H5E H 0.317368 0.058095 0.701186
H6E H 0.380730 0.082841 0.699993
C9E C 0.2557(5) 0.1371(4) 0.6991(2)
H7E H 0.232118 0.108356 0.699619
C10E C 0.2301(5) 0.1821(4) 0.6996(2)
H8E H 0.188873 0.184170 0.700799
C11E C 0.2637(4) 0.2266(3) 0.6984(2)
C12E C 0.3241(5) 0.2199(3) 0.6982(2)
H9E H 0.348768 0.247989 0.698942
C13E C 0.3488(5) 0.1737(3) 0.6972(2)
H10E H 0.389884 0.170624 0.695903
N1I N 0.1848(4) 0.3677(3) 0.3021(2)
C1I C 0.1566(5) 0.4306(3) 0.4821(3)
C2I C 0.1564(5) 0.4286(4) 0.4392(3)
C3I C 0.2044(5) 0.4478(3) 0.4173(3)
H1I H 0.236492 0.462489 0.430694
C4I C 0.2030(5) 0.4444(3) 0.3760(3)
H2I H 0.234289 0.457706 0.360856
C5I C 0.1572(5) 0.4223(4) 0.3562(3)
C6I C 0.1101(6) 0.4047(4) 0.3778(3)
H3I H 0.077684 0.390812 0.364339
C7I C 0.1106(6) 0.4074(4) 0.4197(3)
H4I H 0.078828 0.394514 0.434629
C8I C 0.1591(6) 0.4154(3) 0.3112(3)
H5I H 0.182632 0.441905 0.298814
H6I H 0.119270 0.417159 0.300007
C9I C 0.2443(5) 0.3629(4) 0.3009(2)
H7I H 0.267882 0.391644 0.300381
C10I C 0.2699(5) 0.3179(4) 0.3004(2)
H8I H 0.311127 0.315830 0.299201
C11I C 0.2363(4) 0.2734(3) 0.3016(2)
C12I C 0.1759(5) 0.2801(3) 0.3018(2)
H9I H 0.151232 0.252011 0.301058
C13I C 0.1512(5) 0.3263(3) 0.3028(2)
H10I H 0.110116 0.329376 0.304097
N1L N 0.3152(4) 0.1323(3) 0.3021(2)
C1L C 0.3434(5) 0.0694(3) 0.4821(3)
C2L C 0.3436(5) 0.0714(4) 0.4392(3)
C3L C 0.2956(5) 0.0522(3) 0.4173(3)
H1L H 0.263508 0.037511 0.430694
C4L C 0.2970(5) 0.0556(3) 0.3760(3)
H2L H 0.265711 0.042294 0.360856
C5L C 0.3428(5) 0.0777(4) 0.3562(3)
C6L C 0.3899(6) 0.0953(4) 0.3778(3)
H3L H 0.422316 0.109188 0.364339
C7L C 0.3894(6) 0.0926(4) 0.4197(3)
H4L H 0.421172 0.105486 0.434629
C8L C 0.3409(6) 0.0846(3) 0.3112(3)
H5L H 0.317368 0.058095 0.298814
H6L H 0.380730 0.082841 0.300007
C9L C 0.2557(5) 0.1371(4) 0.3009(2)
H7L H 0.232118 0.108356 0.300381
C10L C 0.2301(5) 0.1821(4) 0.3004(2)
H8L H 0.188873 0.184170 0.299201
C11L C 0.2637(4) 0.2266(3) 0.3016(2)
C12L C 0.3241(5) 0.2199(3) 0.3018(2)
H9L H 0.348768 0.247989 0.301058
C13L C 0.3488(5) 0.1737(3) 0.3028(2)
H10L H 0.389884 0.170624 0.304097
F19? F 0.4378(16) 0.5379(16) 0.6462(9)
F20? F 0.4400(16) 0.4906(10) 0.6006(13)
F21? F 0.4051(14) 0.542(2) 0.5526(10)
F22? F 0.4246(13) 0.6039(7) 0.5821(10)
N5? N 0.3468(8) 0.4950(6) 0.6026(5)
C51? C 0.3748(11) 0.5076(9) 0.6281(7)
C52? C 0.405(3) 0.5200(18) 0.6629(16)
H41? H 0.432370 0.553210 0.659030
H42? H 0.434540 0.497480 0.674470
H43? H 0.381360 0.532310 0.686850
F23? F 0.4441(15) 0.1253(11) 0.7599(6)
F24? F 0.4809(8) 0.0547(4) 0.7409(4)
P4? P 0.500000 0.10694(15) 0.750000
F25? F 0.4887(4) 0.1071(5) 0.7046(2)
F26? F 0.4713(8) 0.1611(6) 0.7436(4)
F27? F 0.4311(8) 0.095(3) 0.7618(5)
loop_
_geom_bond_atom_site_label_1
_geom_bond_atom_site_label_2
_geom_bond_site_symmetry_1
_geom_bond_site_symmetry_2
N1 C8 1_555 1_555
C1 C2 1_555 1_555
C2 C3 1_555 1_555
C3 H1 1_555 1_555
C4 C3 1_555 1_555
H2 C4 1_555 1_555
C5 C4 1_555 1_555
C6 C5 1_555 1_555
H3 C6 1_555 1_555
C7 C2 1_555 1_555
H4 C7 1_555 1_555
C8 C5 1_555 1_555
H5 C8 1_555 1_555
H6 C8 1_555 1_555
C9 N1 1_555 1_555
H7 C9 1_555 1_555
C10 C9 1_555 1_555
H8 C10 1_555 1_555
C11 C10 1_555 1_555
C12 C11 1_555 1_555
H9 C12 1_555 1_555
C13 N1 1_555 1_555
H10 C13 1_555 1_555
N2 C17 1_555 1_555
C14 H11 1_555 1_555
C15 C14 1_555 1_555
C16 C15 1_555 1_555
H12 C16 1_555 1_555
C17 C15 1_555 1_555
H13 C17 1_555 1_555
H14 C17 1_555 1_555
C18 N2 1_555 1_555
H15 C18 1_555 1_555
C19 C18 1_555 1_555
H16 C19 1_555 1_555
C20 C19 1_555 1_555
C21 C20 1_555 1_555
H17 C21 1_555 1_555
C22 N2 1_555 1_555
H18 C22 1_555 1_555
Br1 C23 1_555 1_555
C23 C24 1_555 1_555
C24 H19 1_555 1_555
C25 C24 1_555 1_555
H20 C25 1_555 1_555
N3 C33 1_555 1_555
C26 C27 1_555 1_555
C27 C28 1_555 1_555
C28 H21 1_555 1_555
C29 C28 1_555 1_555
H22 C29 1_555 1_555
C30 C29 1_555 1_555
C31 C30 1_555 1_555
H23 C31 1_555 1_555
C32 C27 1_555 1_555
H24 C32 1_555 1_555
C33 C30 1_555 1_555
H25 C33 1_555 1_555
H26 C33 1_555 1_555
C34 N3 1_555 1_555
H27 C34 1_555 1_555
C35 C34 1_555 1_555
H28 C35 1_555 1_555
C36 C35 1_555 1_555
C37 C36 1_555 1_555
H29 C37 1_555 1_555
C38 N3 1_555 1_555
H30 C38 1_555 1_555
N4 C42 1_555 1_555
C39 H31 1_555 1_555
C40 C39 1_555 1_555
C41 C40 1_555 1_555
H32 C41 1_555 1_555
C42 C40 1_555 1_555
H33 C42 1_555 1_555
H34 C42 1_555 1_555
C43 N4 1_555 1_555
H35 C43 1_555 1_555
C44 C43 1_555 1_555
H36 C44 1_555 1_555
C45 C44 1_555 1_555
C46 C45 1_555 1_555
H37 C46 1_555 1_555
C47 N4 1_555 1_555
H38 C47 1_555 1_555
Br2 C48 1_555 1_555
C48 C49 1_555 1_555
C49 H39 1_555 1_555
C50 C49 1_555 1_555
H40 C50 1_555 1_555
P1 F1 1_555 1_555
F2 P1 1_555 1_555
F3 P1 1_555 1_555
F4 P1 1_555 1_555
F5 P1 1_555 1_555
F6 P1 1_555 1_555
P2 F7 1_555 1_555
F8 P2 1_555 1_555
F9 P2 1_555 1_555
F10 P2 1_555 1_555
F11 P2 1_555 1_555
F12 P2 1_555 1_555
P3 F13 1_555 1_555
F14 P3 1_555 1_555
F15 P3 1_555 1_555
F16 P3 1_555 1_555
F17 P3 1_555 1_555
F18 P3 1_555 1_555
N1E C8E 1_555 1_555
C1E C2E 1_555 1_555
C2E C3E 1_555 1_555
C3E H1E 1_555 1_555
C4E C3E 1_555 1_555
H2E C4E 1_555 1_555
C5E C4E 1_555 1_555
C6E C5E 1_555 1_555
H3E C6E 1_555 1_555
C7E C2E 1_555 1_555
H4E C7E 1_555 1_555
C8E C5E 1_555 1_555
H5E C8E 1_555 1_555
H6E C8E 1_555 1_555
C9E N1E 1_555 1_555
H7E C9E 1_555 1_555
C10E C9E 1_555 1_555
H8E C10E 1_555 1_555
C11E C11 1_555 1_555
C12E C11E 1_555 1_555
H9E C12E 1_555 1_555
C13E N1E 1_555 1_555
H10E C13E 1_555 1_555
N1I C8I 1_555 1_555
C1I C1 1_555 1_555
C2I C1I 1_555 1_555
C3I C2I 1_555 1_555
H1I C3I 1_555 1_555
C4I C3I 1_555 1_555
H2I C4I 1_555 1_555
C5I C4I 1_555 1_555
C6I C5I 1_555 1_555
H3I C6I 1_555 1_555
C7I C2I 1_555 1_555
H4I C7I 1_555 1_555
C8I C5I 1_555 1_555
H5I C8I 1_555 1_555
H6I C8I 1_555 1_555
C9I N1I 1_555 1_555
H7I C9I 1_555 1_555
C10I C9I 1_555 1_555
H8I C10I 1_555 1_555
C11I C10I 1_555 1_555
C12I C11I 1_555 1_555
H9I C12I 1_555 1_555
C13I N1I 1_555 1_555
H10I C13I 1_555 1_555
N1L C8L 1_555 1_555
C1L C1E 1_555 1_555
C2L C1L 1_555 1_555
C3L C2L 1_555 1_555
H1L C3L 1_555 1_555
C4L C3L 1_555 1_555
H2L C4L 1_555 1_555
C5L C4L 1_555 1_555
C6L C5L 1_555 1_555
H3L C6L 1_555 1_555
C7L C2L 1_555 1_555
H4L C7L 1_555 1_555
C8L C5L 1_555 1_555
H5L C8L 1_555 1_555
H6L C8L 1_555 1_555
C9L N1L 1_555 1_555
H7L C9L 1_555 1_555
C10L C9L 1_555 1_555
H8L C10L 1_555 1_555
C11L C11I 1_555 1_555
C12L C11L 1_555 1_555
H9L C12L 1_555 1_555
C13L N1L 1_555 1_555
H10L C13L 1_555 1_555
N2E C17E 1_555 1_555
C14E H11E 1_555 1_555
C15E C14E 1_555 1_555
C16E C15E 1_555 1_555
H12E C16E 1_555 1_555
C17E C15E 1_555 1_555
H13E C17E 1_555 1_555
H14E C17E 1_555 1_555
C18E N2E 1_555 1_555
H15E C18E 1_555 1_555
C19E C18E 1_555 1_555
H16E C19E 1_555 1_555
C20E C20 1_555 1_555
C21E C20E 1_555 1_555
H17E C21E 1_555 1_555
C22E N2E 1_555 1_555
H18E C22E 1_555 1_555
N2I C17I 1_555 1_555
C14I C14 1_555 1_555
H11I C14I 1_555 1_555
C15I C14I 1_555 1_555
C16I C16 1_555 1_555
H12I C16I 1_555 1_555
C17I C15I 1_555 1_555
H13I C17I 1_555 1_555
H14I C17I 1_555 1_555
C18I N2I 1_555 1_555
H15I C18I 1_555 1_555
C19I C18I 1_555 1_555
H16I C19I 1_555 1_555
C20I C19I 1_555 1_555
C21I C20I 1_555 1_555
H17I C21I 1_555 1_555
C22I N2I 1_555 1_555
H18I C22I 1_555 1_555
N2L C17L 1_555 1_555
C14L C14E 1_555 1_555
H11L C14L 1_555 1_555
C15L C14L 1_555 1_555
C16L C16E 1_555 1_555
H12L C16L 1_555 1_555
C17L C15L 1_555 1_555
H13L C17L 1_555 1_555
H14L C17L 1_555 1_555
C18L N2L 1_555 1_555
H15L C18L 1_555 1_555
C19L C18L 1_555 1_555
H16L C19L 1_555 1_555
C20L C20I 1_555 1_555
C21L C20L 1_555 1_555
H17L C21L 1_555 1_555
C22L N2L 1_555 1_555
H18L C22L 1_555 1_555
Br1E C23E 1_555 1_555
C23E C25 1_555 1_555
C24E C23E 1_555 1_555
H19E C24E 1_555 1_555
C25E C23 1_555 1_555
H20E C25E 1_555 1_555
N3E C33E 1_555 1_555
C26E C27E 1_555 1_555
C27E C28E 1_555 1_555
C28E H21E 1_555 1_555
C29E C28E 1_555 1_555
H22E C29E 1_555 1_555
C30E C29E 1_555 1_555
C31E C30E 1_555 1_555
H23E C31E 1_555 1_555
C32E C27E 1_555 1_555
H24E C32E 1_555 1_555
C33E C30E 1_555 1_555
H25E C33E 1_555 1_555
H26E C33E 1_555 1_555
C34E N3E 1_555 1_555
H27E C34E 1_555 1_555
C35E C34E 1_555 1_555
H28E C35E 1_555 1_555
C36E C36 1_555 1_555
C37E C36E 1_555 1_555
H29E C37E 1_555 1_555
C38E N3E 1_555 1_555
H30E C38E 1_555 1_555
N3I C33I 1_555 1_555
C26I C26 1_555 1_555
C27I C26I 1_555 1_555
C28I C27I 1_555 1_555
H21I C28I 1_555 1_555
C29I C28I 1_555 1_555
H22I C29I 1_555 1_555
C30I C29I 1_555 1_555
C31I C30I 1_555 1_555
H23I C31I 1_555 1_555
C32I C27I 1_555 1_555
H24I C32I 1_555 1_555
C33I C30I 1_555 1_555
H25I C33I 1_555 1_555
H26I C33I 1_555 1_555
C34I N3I 1_555 1_555
H27I C34I 1_555 1_555
C35I C34I 1_555 1_555
H28I C35I 1_555 1_555
C36I C35I 1_555 1_555
C37I C36I 1_555 1_555
H29I C37I 1_555 1_555
C38I N3I 1_555 1_555
H30I C38I 1_555 1_555
N3L C33L 1_555 1_555
C26L C26E 1_555 1_555
C27L C26L 1_555 1_555
C28L C27L 1_555 1_555
H21L C28L 1_555 1_555
C29L C28L 1_555 1_555
H22L C29L 1_555 1_555
C30L C29L 1_555 1_555
C31L C30L 1_555 1_555
H23L C31L 1_555 1_555
C32L C27L 1_555 1_555
H24L C32L 1_555 1_555
C33L C30L 1_555 1_555
H25L C33L 1_555 1_555
H26L C33L 1_555 1_555
C34L N3L 1_555 1_555
H27L C34L 1_555 1_555
C35L C34L 1_555 1_555
H28L C35L 1_555 1_555
C36L C36I 1_555 1_555
C37L C36L 1_555 1_555
H29L C37L 1_555 1_555
C38L N3L 1_555 1_555
H30L C38L 1_555 1_555
N4E C42E 1_555 1_555
C39E H31E 1_555 1_555
C40E C39E 1_555 1_555
C41E C40E 1_555 1_555
H32E C41E 1_555 1_555
C42E C40E 1_555 1_555
H33E C42E 1_555 1_555
H34E C42E 1_555 1_555
C43E N4E 1_555 1_555
H35E C43E 1_555 1_555
C44E C43E 1_555 1_555
H36E C44E 1_555 1_555
C45E C45 1_555 1_555
C46E C45E 1_555 1_555
H37E C46E 1_555 1_555
C47E N4E 1_555 1_555
H38E C47E 1_555 1_555
N4I C42I 1_555 1_555
C39I C39 1_555 1_555
H31I C39I 1_555 1_555
C40I C39I 1_555 1_555
C41I C41 1_555 1_555
H32I C41I 1_555 1_555
C42I C40I 1_555 1_555
H33I C42I 1_555 1_555
H34I C42I 1_555 1_555
C43I N4I 1_555 1_555
H35I C43I 1_555 1_555
C44I C43I 1_555 1_555
H36I C44I 1_555 1_555
C45I C44I 1_555 1_555
C46I C45I 1_555 1_555
H37I C46I 1_555 1_555
C47I N4I 1_555 1_555
H38I C47I 1_555 1_555
N4L C42L 1_555 1_555
C39L C39E 1_555 1_555
H31L C39L 1_555 1_555
C40L C39L 1_555 1_555
C41L C41E 1_555 1_555
H32L C41L 1_555 1_555
C42L C40L 1_555 1_555
H33L C42L 1_555 1_555
H34L C42L 1_555 1_555
C43L N4L 1_555 1_555
H35L C43L 1_555 1_555
C44L C43L 1_555 1_555
H36L C44L 1_555 1_555
C45L C45I 1_555 1_555
C46L C45L 1_555 1_555
H37L C46L 1_555 1_555
C47L N4L 1_555 1_555
H38L C47L 1_555 1_555
Br2E C48E 1_555 1_555
C48E C50 1_555 1_555
C49E C48E 1_555 1_555
H39E C49E 1_555 1_555
C50E C48 1_555 1_555
H40E C50E 1_555 1_555
C6 C7 1_555 1_555
C12 C13 1_555 1_555
C21 C22 1_555 1_555
C31 C32 1_555 1_555
C37 C38 1_555 1_555
C46 C47 1_555 1_555
C6E C7E 1_555 1_555
C10E C11E 1_555 1_555
C12E C13E 1_555 1_555
C6I C7I 1_555 1_555
C12I C13I 1_555 1_555
C6L C7L 1_555 1_555
C10L C11L 1_555 1_555
C12L C13L 1_555 1_555
C19E C20E 1_555 1_555
C21E C22E 1_555 1_555
C15I C16I 1_555 1_555
C21I C22I 1_555 1_555
C15L C16L 1_555 1_555
C19L C20L 1_555 1_555
C21L C22L 1_555 1_555
C24E C25E 1_555 1_555
C31E C32E 1_555 1_555
C35E C36E 1_555 1_555
C37E C38E 1_555 1_555
C31I C32I 1_555 1_555
C37I C38I 1_555 1_555
C31L C32L 1_555 1_555
C35L C36L 1_555 1_555
C37L C38L 1_555 1_555
C44E C45E 1_555 1_555
C46E C47E 1_555 1_555
C40I C41I 1_555 1_555
C46I C47I 1_555 1_555
C40L C41L 1_555 1_555
C44L C45L 1_555 1_555
C46L C47L 1_555 1_555
C49E C50E 1_555 1_555

#END
