
#######################################################################
#
#                 Cambridge Crystallographic Data Centre
#                                CCDC 
#
#######################################################################
#
# If this CIF has been generated from an entry in the Cambridge 
# Structural Database, then it will include bibliographic, chemical, 
# crystal, experimental, refinement or atomic coordinate data resulting 
# from the CCDC's data processing and validation procedures.
#
#######################################################################

data_JITFIE
_chemical_formula_moiety         
'C52 H40 N4 2+,C36 H32 N4 2+,4(F6 P1 1-),6(C2 H3 N1)'
_chemical_name_systematic        
'5,25-diazonia-18,38-diazanonacyclo[36.2.2.2^2,5^.2^7,10^.2^13,16^.2^18,21^.2^22,25^.2^27,30^.2^33,36^]hexapentaconta-1,3,7,9,13,15,19,21,23,27,29,33,35,39,41,43,45,47,49,51,53,55-docosaene-11,31-diyne diradical 5,12,19,26-tetra-azaheptacyclo[24.2.2.2^2,5^.2^7,10^.2^12,15^.2^16,19^.2^21,24^]tetraconta-1(28),2,4,7,9,12,14,16,18,21,23,26,29,31,33,35,37,39-octadecaene-5,19-di-ium diradical tetrakis(hexafluorophosphate) acetonitrile unknown solvate'
_symmetry_cell_setting           orthorhombic
_symmetry_space_group_name_H-M   'C c c m'
_symmetry_Int_Tables_number      66
_space_group_name_Hall           '-C 2 2n'
loop_
_symmetry_equiv_pos_site_id
_symmetry_equiv_pos_as_xyz
1 x,y,z
2 -x,-y,z
3 -x,y,1/2-z
4 x,-y,1/2-z
5 1/2+x,1/2+y,z
6 1/2-x,1/2-y,z
7 1/2-x,1/2+y,1/2-z
8 1/2+x,1/2-y,1/2-z
9 -x,-y,-z
10 x,y,-z
11 x,-y,1/2+z
12 -x,y,1/2+z
13 1/2-x,1/2-y,-z
14 1/2+x,1/2+y,-z
15 1/2+x,1/2-y,1/2+z
16 1/2-x,1/2+y,1/2+z
_cell_length_a                   25.154(3)
_cell_length_b                   28.375(3)
_cell_length_c                   16.7256(13)
_cell_angle_alpha                90
_cell_angle_beta                 90
_cell_angle_gamma                90
_cell_volume                     11937.8
_exptl_crystal_colour            purple
_exptl_crystal_description       block
_cell_formula_units_Z            4
loop_
_atom_site_label
_atom_site_type_symbol
_atom_site_fract_x
_atom_site_fract_y
_atom_site_fract_z
P1 P 0.78949(10) 0.5000 0.2500
F1 F 0.78902(17) 0.46445(17) 0.3228(2)
F2 F 0.78855(19) 0.54326(17) 0.3084(3)
F3 F 0.8527(2) 0.5000 0.2500
F4 F 0.7270(2) 0.5000 0.2500
F1C F 0.78902(17) 0.53555(17) 0.1772(2)
F2C F 0.78855(19) 0.45674(17) 0.1916(3)
P2 P 1.0000 0.83229(10) 0.2500
F5 F 1.0268(2) 0.79360(18) 0.3056(3)
F6 F 0.94932(17) 0.8305(3) 0.3049(2)
F7 F 0.97296(19) 0.87050(19) 0.1960(3)
F5B F 0.9732(2) 0.79360(18) 0.1944(3)
F6B F 1.05068(17) 0.8305(3) 0.1951(2)
F7B F 1.02704(19) 0.87050(19) 0.3040(3)
N1 N 0.6865(2) 0.63981(19) 0.1979(2)
C1 C 0.73753(19) 0.7279(2) 0.2149(2)
C2 C 0.7663(2) 0.6847(2) 0.2138(3)
H1 H 0.8039 0.6854 0.2195
C3 C 0.6810(2) 0.7225(2) 0.2116(3)
H2 H 0.6591 0.7496 0.2156
C4 C 0.7421(3) 0.6430(3) 0.2050(3)
H3 H 0.7628 0.6150 0.2036
C5 C 0.6582(2) 0.6798(3) 0.2028(3)
H4 H 0.6205 0.6780 0.2000
C6 C 0.6598(3) 0.5921(2) 0.0838(4)
C7 C 0.6617(3) 0.5947(3) 0.1729(4)
H5 H 0.6252 0.5926 0.1949
H6 H 0.6825 0.5679 0.1942
C8 C 0.6161(3) 0.6037(4) 0.0404(4)
H7 H 0.5844 0.6120 0.0678
C9 C 0.7049(3) 0.5787(3) 0.0401(4)
H8 H 0.7361 0.5694 0.0678
N1E N 0.8135(2) 0.86019(19) 0.1979(2)
C1E C 0.76247(19) 0.7721(2) 0.2149(2)
C2E C 0.7337(2) 0.8153(2) 0.2138(3)
H1E H 0.6961 0.8146 0.2195
C3E C 0.8190(2) 0.7775(2) 0.2116(3)
H2E H 0.8409 0.7504 0.2156
C4E C 0.7579(3) 0.8570(3) 0.2050(3)
H3E H 0.7372 0.8850 0.2036
C5E C 0.8418(2) 0.8202(3) 0.2028(3)
H4E H 0.8795 0.8220 0.2000
C6E C 0.8402(3) 0.9079(2) 0.0838(4)
C7E C 0.8383(3) 0.9053(3) 0.1729(4)
H5E H 0.8748 0.9074 0.1949
H6E H 0.8175 0.9321 0.1942
C8E C 0.8839(3) 0.8963(4) 0.0404(4)
H7E H 0.9156 0.8880 0.0678
C9E C 0.7951(3) 0.9213(3) 0.0401(4)
H8E H 0.7639 0.9306 0.0678
N1I N 0.6865(2) 0.63981(19) -0.1979(2)
C1I C 0.73753(19) 0.7279(2) -0.2149(2)
C2I C 0.7663(2) 0.6847(2) -0.2138(3)
H1I H 0.8039 0.6854 -0.2195
C3I C 0.6810(2) 0.7225(2) -0.2116(3)
H2I H 0.6591 0.7496 -0.2156
C4I C 0.7421(3) 0.6430(3) -0.2050(3)
H3I H 0.7628 0.6150 -0.2036
C5I C 0.6582(2) 0.6798(3) -0.2028(3)
H4I H 0.6205 0.6780 -0.2000
C6I C 0.6598(3) 0.5921(2) -0.0838(4)
C7I C 0.6617(3) 0.5947(3) -0.1729(4)
H5I H 0.6252 0.5926 -0.1949
H6I H 0.6825 0.5679 -0.1942
C8I C 0.6161(3) 0.6037(4) -0.0404(4)
H7I H 0.5844 0.6120 -0.0678
C9I C 0.7049(3) 0.5787(3) -0.0401(4)
H8I H 0.7361 0.5694 -0.0678
N1L N 0.8135(2) 0.86019(19) -0.1979(2)
C1L C 0.76247(19) 0.7721(2) -0.2149(2)
C2L C 0.7337(2) 0.8153(2) -0.2138(3)
H1L H 0.6961 0.8146 -0.2195
C3L C 0.8190(2) 0.7775(2) -0.2116(3)
H2L H 0.8409 0.7504 -0.2156
C4L C 0.7579(3) 0.8570(3) -0.2050(3)
H3L H 0.7372 0.8850 -0.2036
C5L C 0.8418(2) 0.8202(3) -0.2028(3)
H4L H 0.8795 0.8220 -0.2000
C6L C 0.8402(3) 0.9079(2) -0.0838(4)
C7L C 0.8383(3) 0.9053(3) -0.1729(4)
H5L H 0.8748 0.9074 -0.1949
H6L H 0.8175 0.9321 -0.1942
C8L C 0.8839(3) 0.8963(4) -0.0404(4)
H7L H 0.9156 0.8880 -0.0678
C9L C 0.7951(3) 0.9213(3) -0.0401(4)
H8L H 0.7639 0.9306 -0.0678
N2 N 0.8694(2) 0.6846(3) 0.3953(2)
C10 C 0.9343(2) 0.6830(2) 0.1554(3)
H9 H 0.9441 0.7088 0.1223
C11 C 0.9200(2) 0.6495(3) 0.2868(3)
C12 C 0.8703(3) 0.7325(4) 0.3952(3)
H10 H 0.9037 0.7481 0.3940
C13 C 0.9185(2) 0.6407(2) 0.1215(3)
C14 C 0.9355(2) 0.6875(3) 0.2386(3)
H11 H 0.9468 0.7162 0.2623
C15 C 0.8253(3) 0.7589(3) 0.3967(3)
H12 H 0.8279 0.7923 0.3982
C16 C 0.9174(3) 0.6366(2) 0.0351(3)
C17 C 0.9042(3) 0.6084(3) 0.2523(3)
H13 H 0.8946 0.5823 0.2851
C18 C 0.7746(2) 0.7373(4) 0.3959(3)
C19 C 0.9180(2) 0.6569(3) 0.3766(3)
H14 H 0.9169 0.6261 0.4044
H15 H 0.9500 0.6742 0.3946
C20 C 0.8214(3) 0.6622(3) 0.3959(3)
H16 H 0.8202 0.6288 0.3958
C21 C 0.7748(3) 0.6872(4) 0.3968(3)
H17 H 0.7420 0.6707 0.3980
C22 C 0.9019(3) 0.6041(3) 0.1709(3)
H18 H 0.8888 0.5758 0.1477
N2E N 0.6306(2) 0.8154(3) 0.3953(2)
C10E C 0.5657(2) 0.8170(2) 0.1554(3)
H9E H 0.5559 0.7912 0.1223
C11E C 0.5800(2) 0.8505(3) 0.2868(3)
C12E C 0.6297(3) 0.7675(4) 0.3952(3)
H10E H 0.5963 0.7519 0.3940
C13E C 0.5815(2) 0.8593(2) 0.1215(3)
C14E C 0.5645(2) 0.8125(3) 0.2386(3)
H11E H 0.5532 0.7838 0.2623
C15E C 0.6747(3) 0.7411(3) 0.3967(3)
H12E H 0.6721 0.7077 0.3982
C16E C 0.5826(3) 0.8634(2) 0.0351(3)
C17E C 0.5958(3) 0.8916(3) 0.2523(3)
H13E H 0.6054 0.9177 0.2851
C18E C 0.7254(2) 0.7627(4) 0.3959(3)
C19E C 0.5820(2) 0.8431(3) 0.3766(3)
H14E H 0.5831 0.8739 0.4044
H15E H 0.5500 0.8258 0.3946
C20E C 0.6786(3) 0.8378(3) 0.3959(3)
H16E H 0.6798 0.8712 0.3958
C21E C 0.7252(3) 0.8128(4) 0.3968(3)
H17E H 0.7580 0.8293 0.3980
C22E C 0.5981(3) 0.8959(3) 0.1709(3)
H18E H 0.6112 0.9242 0.1477
N2I N 0.8694(2) 0.6846(3) -0.3953(2)
C10I C 0.9343(2) 0.6830(2) -0.1554(3)
H9I H 0.9441 0.7088 -0.1223
C11I C 0.9200(2) 0.6495(3) -0.2868(3)
C12I C 0.8703(3) 0.7325(4) -0.3952(3)
H10I H 0.9037 0.7481 -0.3940
C13I C 0.9185(2) 0.6407(2) -0.1215(3)
C14I C 0.9355(2) 0.6875(3) -0.2386(3)
H11I H 0.9468 0.7162 -0.2623
C15I C 0.8253(3) 0.7589(3) -0.3967(3)
H12I H 0.8279 0.7923 -0.3982
C16I C 0.9174(3) 0.6366(2) -0.0351(3)
C17I C 0.9042(3) 0.6084(3) -0.2523(3)
H13I H 0.8946 0.5823 -0.2851
C18I C 0.7746(2) 0.7373(4) -0.3959(3)
C19I C 0.9180(2) 0.6569(3) -0.3766(3)
H14I H 0.9169 0.6261 -0.4044
H15I H 0.9500 0.6742 -0.3946
C20I C 0.8214(3) 0.6622(3) -0.3959(3)
H16I H 0.8202 0.6288 -0.3958
C21I C 0.7748(3) 0.6872(4) -0.3968(3)
H17I H 0.7420 0.6707 -0.3980
C22I C 0.9019(3) 0.6041(3) -0.1709(3)
H18I H 0.8888 0.5758 -0.1477
N2L N 0.6306(2) 0.8154(3) -0.3953(2)
C10L C 0.5657(2) 0.8170(2) -0.1554(3)
H9L H 0.5559 0.7912 -0.1223
C11L C 0.5800(2) 0.8505(3) -0.2868(3)
C12L C 0.6297(3) 0.7675(4) -0.3952(3)
H10L H 0.5963 0.7519 -0.3940
C13L C 0.5815(2) 0.8593(2) -0.1215(3)
C14L C 0.5645(2) 0.8125(3) -0.2386(3)
H11L H 0.5532 0.7838 -0.2623
C15L C 0.6747(3) 0.7411(3) -0.3967(3)
H12L H 0.6721 0.7077 -0.3982
C16L C 0.5826(3) 0.8634(2) -0.0351(3)
C17L C 0.5958(3) 0.8916(3) -0.2523(3)
H13L H 0.6054 0.9177 -0.2851
C18L C 0.7254(2) 0.7627(4) -0.3959(3)
C19L C 0.5820(2) 0.8431(3) -0.3766(3)
H14L H 0.5831 0.8739 -0.4044
H15L H 0.5500 0.8258 -0.3946
C20L C 0.6786(3) 0.8378(3) -0.3959(3)
H16L H 0.6798 0.8712 -0.3958
C21L C 0.7252(3) 0.8128(4) -0.3968(3)
H17L H 0.7580 0.8293 -0.3980
C22L C 0.5981(3) 0.8959(3) -0.1709(3)
H18L H 0.6112 0.9242 -0.1477
N3 N 0.8676(6) 0.4290(5) 0.0000
C23 C 0.8540(6) 0.4669(7) 0.0000
C24 C 0.8381(6) 0.5164(6) 0.0000
N4 N 0.9889(3) 0.7440(4) 0.5000
C25 C 0.9891(5) 0.7802(5) 0.5000
C26 C 0.9773(11) 0.8407(11) 0.5000
N5? N 1.0000 0.5000 0.2981(17)
C27? C 1.0000 0.5000 0.458(2)
C28? C 1.0000 0.5000 0.382(3)
H19? H 0.8678 0.5359 -0.0190
H20? H 0.8075 0.5207 -0.0355
H21? H 0.8285 0.5260 0.0544
loop_
_geom_bond_atom_site_label_1
_geom_bond_atom_site_label_2
_geom_bond_site_symmetry_1
_geom_bond_site_symmetry_2
P1 F1 1_555 1_555
F2 P1 1_555 1_555
F3 P1 1_555 1_555
F4 P1 1_555 1_555
P2 F5 1_555 1_555
F6 P2 1_555 1_555
F7 P2 1_555 1_555
N1 C4 1_555 1_555
C1 C2 1_555 1_555
C2 H1 1_555 1_555
C3 C1 1_555 1_555
H2 C3 1_555 1_555
C4 C2 1_555 1_555
H3 C4 1_555 1_555
C5 N1 1_555 1_555
H4 C5 1_555 1_555
C6 C7 1_555 1_555
C7 N1 1_555 1_555
H5 C7 1_555 1_555
H6 C7 1_555 1_555
C8 C6 1_555 1_555
H7 C8 1_555 1_555
C9 C6 1_555 1_555
H8 C9 1_555 1_555
N2 C12 1_555 1_555
C10 H9 1_555 1_555
C11 C14 1_555 1_555
C12 H10 1_555 1_555
C13 C10 1_555 1_555
C14 C10 1_555 1_555
H11 C14 1_555 1_555
C15 C12 1_555 1_555
H12 C15 1_555 1_555
C16 C13 1_555 1_555
C17 C11 1_555 1_555
H13 C17 1_555 1_555
C18 C15 1_555 1_555
C19 N2 1_555 1_555
H14 C19 1_555 1_555
H15 C19 1_555 1_555
C20 N2 1_555 1_555
H16 C20 1_555 1_555
C21 C18 1_555 1_555
H17 C21 1_555 1_555
C22 C13 1_555 1_555
H18 C22 1_555 1_555
N3 C23 1_555 1_555
C23 C24 1_555 1_555
N4 C25 1_555 1_555
C25 C26 1_555 1_555
F1C P1 1_555 1_555
F2C P1 1_555 1_555
F5B P2 1_555 1_555
F6B P2 1_555 1_555
F7B P2 1_555 1_555
N1E C4E 1_555 1_555
C1E C1 1_555 1_555
C2E C1E 1_555 1_555
H1E C2E 1_555 1_555
C3E C1E 1_555 1_555
H2E C3E 1_555 1_555
C4E C2E 1_555 1_555
H3E C4E 1_555 1_555
C5E N1E 1_555 1_555
H4E C5E 1_555 1_555
C6E C7E 1_555 1_555
C7E N1E 1_555 1_555
H5E C7E 1_555 1_555
H6E C7E 1_555 1_555
C8E C6E 1_555 1_555
H7E C8E 1_555 1_555
C9E C6E 1_555 1_555
H8E C9E 1_555 1_555
N1I C4I 1_555 1_555
C1I C2I 1_555 1_555
C2I H1I 1_555 1_555
C3I C1I 1_555 1_555
H2I C3I 1_555 1_555
C4I C2I 1_555 1_555
H3I C4I 1_555 1_555
C5I N1I 1_555 1_555
H4I C5I 1_555 1_555
C6I C7I 1_555 1_555
C7I N1I 1_555 1_555
H5I C7I 1_555 1_555
H6I C7I 1_555 1_555
C8I C8 1_555 1_555
H7I C8I 1_555 1_555
C9I C9 1_555 1_555
H8I C9I 1_555 1_555
N1L C4L 1_555 1_555
C1L C1I 1_555 1_555
C2L C1L 1_555 1_555
H1L C2L 1_555 1_555
C3L C1L 1_555 1_555
H2L C3L 1_555 1_555
C4L C2L 1_555 1_555
H3L C4L 1_555 1_555
C5L N1L 1_555 1_555
H4L C5L 1_555 1_555
C6L C7L 1_555 1_555
C7L N1L 1_555 1_555
H5L C7L 1_555 1_555
H6L C7L 1_555 1_555
C8L C8E 1_555 1_555
H7L C8L 1_555 1_555
C9L C9E 1_555 1_555
H8L C9L 1_555 1_555
N2E C12E 1_555 1_555
C10E H9E 1_555 1_555
C11E C14E 1_555 1_555
C12E H10E 1_555 1_555
C13E C10E 1_555 1_555
C14E C10E 1_555 1_555
H11E C14E 1_555 1_555
C15E C12E 1_555 1_555
H12E C15E 1_555 1_555
C16E C13E 1_555 1_555
C17E C11E 1_555 1_555
H13E C17E 1_555 1_555
C18E C18 1_555 1_555
C19E N2E 1_555 1_555
H14E C19E 1_555 1_555
H15E C19E 1_555 1_555
C20E N2E 1_555 1_555
H16E C20E 1_555 1_555
C21E C18E 1_555 1_555
H17E C21E 1_555 1_555
C22E C13E 1_555 1_555
H18E C22E 1_555 1_555
N2I C12I 1_555 1_555
C10I H9I 1_555 1_555
C11I C14I 1_555 1_555
C12I H10I 1_555 1_555
C13I C10I 1_555 1_555
C14I C10I 1_555 1_555
H11I C14I 1_555 1_555
C15I C12I 1_555 1_555
H12I C15I 1_555 1_555
C16I C16 1_555 1_555
C17I C11I 1_555 1_555
H13I C17I 1_555 1_555
C18I C15I 1_555 1_555
C19I N2I 1_555 1_555
H14I C19I 1_555 1_555
H15I C19I 1_555 1_555
C20I N2I 1_555 1_555
H16I C20I 1_555 1_555
C21I C18I 1_555 1_555
H17I C21I 1_555 1_555
C22I C13I 1_555 1_555
H18I C22I 1_555 1_555
N2L C12L 1_555 1_555
C10L H9L 1_555 1_555
C11L C14L 1_555 1_555
C12L H10L 1_555 1_555
C13L C10L 1_555 1_555
C14L C10L 1_555 1_555
H11L C14L 1_555 1_555
C15L C12L 1_555 1_555
H12L C15L 1_555 1_555
C16L C16E 1_555 1_555
C17L C11L 1_555 1_555
H13L C17L 1_555 1_555
C18L C18I 1_555 1_555
C19L N2L 1_555 1_555
H14L C19L 1_555 1_555
H15L C19L 1_555 1_555
C20L N2L 1_555 1_555
H16L C20L 1_555 1_555
C21L C18L 1_555 1_555
H17L C21L 1_555 1_555
C22L C13L 1_555 1_555
H18L C22L 1_555 1_555
C3 C5 1_555 1_555
C11 C19 1_555 1_555
C17 C22 1_555 1_555
C20 C21 1_555 1_555
C3E C5E 1_555 1_555
C3I C5I 1_555 1_555
C6I C8I 1_555 1_555
C6I C9I 1_555 1_555
C3L C5L 1_555 1_555
C6L C8L 1_555 1_555
C6L C9L 1_555 1_555
C11E C19E 1_555 1_555
C15E C18E 1_555 1_555
C17E C22E 1_555 1_555
C20E C21E 1_555 1_555
C11I C19I 1_555 1_555
C13I C16I 1_555 1_555
C17I C22I 1_555 1_555
C20I C21I 1_555 1_555
C11L C19L 1_555 1_555
C13L C16L 1_555 1_555
C15L C18L 1_555 1_555
C17L C22L 1_555 1_555
C20L C21L 1_555 1_555

#END
