
#######################################################################
#
#                 Cambridge Crystallographic Data Centre
#                                CCDC 
#
#######################################################################
#
# If this CIF has been generated from an entry in the Cambridge 
# Structural Database, then it will include bibliographic, chemical, 
# crystal, experimental, refinement or atomic coordinate data resulting 
# from the CCDC's data processing and validation procedures.
#
#######################################################################

data_JITGIF
_chemical_formula_moiety         
'C52 H40 N4 2+,C36 H32 N4 2+,4(F6 P1 1-),C12 H14 O2,4(C2 H3 N1)'
_chemical_name_systematic        
'5,25-diazonia-18,38-diazanonacyclo[36.2.2.2^2,5^.2^7,10^.2^13,16^.2^18,21^.2^22,25^.2^27,30^.2^33,36^]hexapentaconta-1,3,7,9,13,15,19,21,23,27,29,33,35,39,41,43,45,47,49,51,53,55-docosaene-11,31-diyne diradical 5,12,19,26-tetra-azaheptacyclo[24.2.2.2^2,5^.2^7,10^.2^12,15^.2^16,19^.2^21,24^]tetraconta-1(28),2,4,7,9,12,14,16,18,21,23,26,29,31,33,35,37,39-octadecaene-5,19-di-ium diradical tetrakis(hexafluorophosphate) 1,4-bis[(prop-2-en-1-yl)oxy]benzene acetonitrile solvate'
_symmetry_cell_setting           triclinic
_symmetry_space_group_name_H-M   'P -1'
_symmetry_Int_Tables_number      2
_space_group_name_Hall           '-P 1'
loop_
_symmetry_equiv_pos_site_id
_symmetry_equiv_pos_as_xyz
1 x,y,z
2 -x,-y,-z
_cell_length_a                   13.1492(8)
_cell_length_b                   13.3934(9)
_cell_length_c                   16.8873(11)
_cell_angle_alpha                90.192(4)
_cell_angle_beta                 102.626(3)
_cell_angle_gamma                119.188(3)
_cell_volume                     2512.45
_exptl_crystal_colour            purple
_exptl_crystal_description       prism
_cell_formula_units_Z            1
loop_
_atom_site_label
_atom_site_type_symbol
_atom_site_fract_x
_atom_site_fract_y
_atom_site_fract_z
N1 N 0.10499(13) -0.31231(12) 0.08400(9)
N2 N 0.67142(12) 0.18319(12) 0.11393(9)
C1 C -0.00653(15) -0.41077(16) 0.09700(11)
H1 H -0.0102 -0.4842 0.0820
H2 H -0.0778 -0.4113 0.0619
C2 C 0.20360(16) -0.32264(15) 0.08628(11)
H3 H 0.1961 -0.3969 0.0858
C3 C 0.31280(15) -0.22857(15) 0.08919(10)
H4 H 0.3795 -0.2388 0.0896
C4 C 0.32933(15) -0.11486(15) 0.09169(10)
C5 C 0.22266(15) -0.10956(15) 0.08618(10)
H5 H 0.2262 -0.0371 0.0844
C6 C 0.11578(15) -0.20599(15) 0.08342(11)
H6 H 0.0467 -0.1990 0.0810
C7 C 0.44428(15) -0.01437(15) 0.09899(10)
C8 C 0.55016(15) -0.02052(15) 0.10172(10)
H7 H 0.5446 -0.0939 0.0981
C9 C 0.65873(15) 0.07594(15) 0.10940(10)
H8 H 0.7275 0.0685 0.1117
C10 C 0.57258(15) 0.19350(15) 0.11192(10)
H9 H 0.5816 0.2683 0.1165
C11 C 0.46166(15) 0.09965(15) 0.10354(10)
H10 H 0.3945 0.1100 0.1007
C12 C 0.79358(15) 0.28559(15) 0.13859(11)
H11 H 0.7905 0.3551 0.1221
H12 H 0.8476 0.2757 0.1108
C13 C 0.84190(15) 0.30078(14) 0.23018(11)
C14 C 0.92396(15) 0.26602(15) 0.26487(11)
H13 H 0.9542 0.2367 0.2304
C15 C 0.96221(16) 0.27377(16) 0.34935(11)
H14 H 1.0187 0.2503 0.3722
C16 C 0.91812(16) 0.31576(16) 0.40064(11)
C17 C 0.83552(17) 0.35104(16) 0.36565(12)
H15 H 0.8047 0.3798 0.4000
C18 C 0.79874(16) 0.34414(15) 0.28157(12)
H16 H 0.7436 0.3691 0.2586
C19 C 0.95408(17) 0.32557(17) 0.48830(12)
C20 C 0.97617(17) 0.33857(17) 0.56171(12)
C21 C 0.98993(16) 0.35912(15) 0.64769(11)
C22 C 1.07256(17) 0.34518(16) 0.70722(12)
H17 H 1.1237 0.3221 0.6912
C23 C 1.08038(16) 0.36481(15) 0.78965(11)
H18 H 1.1363 0.3543 0.8297
C24 C 1.00730(15) 0.39966(14) 0.81404(11)
C25 C 0.92724(15) 0.41756(15) 0.75447(11)
H19 H 0.8789 0.4442 0.7707
C26 C 0.91807(16) 0.39681(15) 0.67251(11)
H20 H 0.8627 0.4082 0.6326
N1A N 0.89501(13) 0.31231(12) 0.91600(9)
N2A N 0.32858(12) -0.18319(12) 0.88607(9)
C1A C 1.00653(15) 0.41077(16) 0.90300(11)
H1A H 1.0102 0.4842 0.9180
H2A H 1.0778 0.4113 0.9381
C2A C 0.79640(16) 0.32264(15) 0.91372(11)
H3A H 0.8039 0.3969 0.9142
C3A C 0.68720(15) 0.22857(15) 0.91081(10)
H4A H 0.6205 0.2388 0.9104
C4A C 0.67067(15) 0.11486(15) 0.90831(10)
C5A C 0.77734(15) 0.10956(15) 0.91382(10)
H5A H 0.7738 0.0371 0.9156
C6A C 0.88422(15) 0.20599(15) 0.91658(11)
H6A H 0.9533 0.1990 0.9190
C7A C 0.55572(15) 0.01437(15) 0.90101(10)
C8A C 0.44984(15) 0.02052(15) 0.89828(10)
H7A H 0.4554 0.0939 0.9019
C9A C 0.34127(15) -0.07594(15) 0.89060(10)
H8A H 0.2725 -0.0685 0.8883
C10A C 0.42742(15) -0.19350(15) 0.88808(10)
H9A H 0.4184 -0.2683 0.8835
C11A C 0.53834(15) -0.09965(15) 0.89646(10)
H10A H 0.6055 -0.1100 0.8993
C12A C 0.20642(15) -0.28559(15) 0.86141(11)
H11A H 0.2095 -0.3551 0.8779
H12A H 0.1524 -0.2757 0.8892
C13A C 0.15810(15) -0.30078(14) 0.76982(11)
C14A C 0.07604(15) -0.26602(15) 0.73513(11)
H13A H 0.0458 -0.2367 0.7696
C15A C 0.03779(16) -0.27377(16) 0.65065(11)
H14A H -0.0187 -0.2503 0.6278
C16A C 0.08188(16) -0.31576(16) 0.59936(11)
C17A C 0.16448(17) -0.35104(16) 0.63435(12)
H15A H 0.1953 -0.3798 0.6000
C18A C 0.20126(16) -0.34414(15) 0.71843(12)
H16A H 0.2564 -0.3691 0.7414
C19A C 0.04592(17) -0.32557(17) 0.51170(12)
C20A C 0.02383(17) -0.33857(17) 0.43829(12)
C21A C 0.01007(16) -0.35912(15) 0.35231(11)
C22A C -0.07256(17) -0.34518(16) 0.29278(12)
H17A H -0.1237 -0.3221 0.3088
C23A C -0.08038(16) -0.36481(15) 0.21035(11)
H18A H -0.1363 -0.3543 0.1703
C24A C -0.00730(15) -0.39966(14) 0.18596(11)
C25A C 0.07276(15) -0.41756(15) 0.24553(11)
H19A H 0.1211 -0.4442 0.2293
C26A C 0.08193(16) -0.39681(15) 0.32749(11)
H20A H 0.1373 -0.4082 0.3674
N3 N 0.24245(14) 0.05693(14) 0.28758(9)
N4 N 0.65851(14) -0.13266(14) 0.30706(9)
C27 C 0.16524(18) 0.10082(19) 0.30555(12)
H21 H 0.0800 0.0453 0.2785
H22 H 0.1870 0.1750 0.2835
C28 C 0.20282(16) -0.05804(17) 0.27861(11)
H23 H 0.1204 -0.1111 0.2748
C29 C 0.27848(16) -0.09871(16) 0.27496(11)
H24 H 0.2479 -0.1796 0.2690
C30 C 0.40255(15) -0.02257(15) 0.27995(10)
C31 C 0.43848(16) 0.09682(15) 0.28646(11)
H25 H 0.5194 0.1522 0.2879
C32 C 0.35975(17) 0.13284(17) 0.29068(11)
H26 H 0.3870 0.2131 0.2959
C33 C 0.48632(15) -0.06120(15) 0.28237(10)
C34 C 0.45451(16) -0.17956(15) 0.28160(11)
H27 H 0.3721 -0.2370 0.2721
C35 C 0.53905(17) -0.21178(16) 0.29406(11)
H28 H 0.5147 -0.2913 0.2938
C36 C 0.69173(16) -0.02014(16) 0.30161(11)
H29 H 0.7741 0.0343 0.3063
C37 C 0.61075(16) 0.01673(16) 0.28970(11)
H30 H 0.6376 0.0961 0.2862
C38 C 0.75097(18) -0.16462(19) 0.34031(12)
H31 H 0.8247 -0.1153 0.3220
H32 H 0.7209 -0.2459 0.3197
C39 C 0.77999(16) -0.14928(17) 0.43283(12)
C40 C 0.72843(18) -0.24322(17) 0.47487(12)
H33 H 0.6800 -0.3188 0.4458
C41 C 0.74740(18) -0.22714(18) 0.55941(13)
H34 H 0.7105 -0.2918 0.5874
C42 C 0.81936(16) -0.11804(17) 0.60318(12)
C43 C 0.87317(16) -0.02434(18) 0.56156(13)
H35 H 0.9241 0.0508 0.5910
C44 C 0.85301(16) -0.03979(18) 0.47699(12)
H36 H 0.8895 0.0251 0.4491
N3A N 0.75755(14) -0.05693(14) 0.71242(9)
N4A N 0.34149(14) 0.13266(14) 0.69294(9)
C27A C 0.83476(18) -0.10082(19) 0.69445(12)
H21A H 0.9200 -0.0453 0.7215
H22A H 0.8130 -0.1750 0.7165
C28A C 0.79718(16) 0.05804(17) 0.72139(11)
H23A H 0.8796 0.1111 0.7252
C29A C 0.72152(16) 0.09871(16) 0.72504(11)
H24A H 0.7521 0.1796 0.7310
C30A C 0.59745(15) 0.02257(15) 0.72005(10)
C31A C 0.56152(16) -0.09682(15) 0.71354(11)
H25A H 0.4806 -0.1522 0.7121
C32A C 0.64025(17) -0.13284(17) 0.70932(11)
H26A H 0.6130 -0.2131 0.7041
C33A C 0.51368(15) 0.06120(15) 0.71763(10)
C34A C 0.54549(16) 0.17956(15) 0.71840(11)
H27A H 0.6279 0.2370 0.7279
C35A C 0.46095(17) 0.21178(16) 0.70594(11)
H28A H 0.4853 0.2913 0.7062
C36A C 0.30827(16) 0.02014(16) 0.69839(11)
H29A H 0.2259 -0.0343 0.6937
C37A C 0.38925(16) -0.01673(16) 0.71030(11)
H30A H 0.3624 -0.0961 0.7138
C38A C 0.24903(18) 0.16462(19) 0.65969(12)
H31A H 0.1753 0.1153 0.6780
H32A H 0.2791 0.2459 0.6803
C39A C 0.22001(16) 0.14928(17) 0.56717(12)
C40A C 0.27157(18) 0.24322(17) 0.52513(12)
H33A H 0.3200 0.3188 0.5542
C41A C 0.25260(18) 0.22714(18) 0.44059(13)
H34A H 0.2895 0.2918 0.4126
C42A C 0.18064(16) 0.11804(17) 0.39682(12)
C43A C 0.12683(16) 0.02434(18) 0.43844(13)
H35A H 0.0759 -0.0508 0.4090
C44A C 0.14699(16) 0.03979(18) 0.52301(12)
H36A H 0.1105 -0.0251 0.5509
O1 O 0.63121(14) 0.23710(15) 0.50906(11)
C45 C 0.6957(3) 0.4898(3) 0.5969(3)
H37 H 0.6514 0.4571 0.6365
H38 H 0.7583 0.5681 0.6070
C46 C 0.6705(3) 0.4264(3) 0.5279(2)
H39 H 0.7157 0.4604 0.4889
C47 C 0.5746(2) 0.3048(2) 0.50918(16)
H40 H 0.5278 0.2838 0.5510
H41 H 0.5192 0.2913 0.4550
C48 C 0.56211(19) 0.1198(2) 0.50410(13)
C49 C 0.43878(19) 0.0613(2) 0.49813(13)
H42 H 0.3969 0.1026 0.4971
C50 C 0.37778(18) -0.0583(2) 0.49375(13)
H43 H 0.2936 -0.0985 0.4892
O1A O 0.36879(14) -0.23710(15) 0.49094(11)
C45A C 0.3043(3) -0.4898(3) 0.4031(3)
H37A H 0.3486 -0.4571 0.3635
H38A H 0.2417 -0.5681 0.3930
C46A C 0.3295(3) -0.4264(3) 0.4721(2)
H39A H 0.2843 -0.4604 0.5111
C47A C 0.4254(2) -0.3048(2) 0.49082(16)
H40A H 0.4722 -0.2838 0.4490
H41A H 0.4808 -0.2913 0.5450
C48A C 0.43789(19) -0.1198(2) 0.49590(13)
C49A C 0.56122(19) -0.0613(2) 0.50187(13)
H42A H 0.6031 -0.1026 0.5029
C50A C 0.62222(18) 0.0583(2) 0.50625(13)
H43A H 0.7064 0.0985 0.5108
P1 P 0.86097(4) -0.08945(4) 0.12431(3)
F1 F 0.80900(13) -0.06431(12) 0.03784(8)
F2 F 0.91126(10) -0.11777(11) 0.21223(7)
F3 F 0.91278(11) 0.04038(11) 0.16341(9)
F4 F 0.73723(10) -0.12574(11) 0.14801(8)
F5 F 0.81034(10) -0.21935(10) 0.08731(7)
F6 F 0.98620(11) -0.05225(11) 0.10379(8)
P2 P 0.51317(5) 0.45718(5) 0.24394(4)
F7 F 0.46355(14) 0.36170(16) 0.16823(10)
F8 F 0.55948(16) 0.55043(12) 0.32107(10)
F9 F 0.45102(13) 0.52130(14) 0.19189(9)
F10 F 0.39127(12) 0.38102(11) 0.27200(9)
F11 F 0.57302(12) 0.39213(12) 0.29720(9)
F12 F 0.63268(13) 0.53322(17) 0.21609(12)
N5 N 1.07862(17) 0.37780(16) 0.10806(12)
C51 C 1.11763(17) 0.31875(18) 0.10406(12)
C52 C 1.1655(2) 0.2428(2) 0.09764(14)
H44 H 1.2310 0.2607 0.1462
H45 H 1.1965 0.2538 0.0487
H46 H 1.1016 0.1625 0.0937
N6 N 0.69604(16) 0.46466(16) 0.01426(12)
C53 C 0.59468(18) 0.41999(17) -0.00705(13)
C54 C 0.46309(18) 0.35890(19) -0.03308(16)
H47 H 0.4311 0.3665 0.0124
H48 H 0.4328 0.2771 -0.0496
H49 H 0.4372 0.3921 -0.0794
loop_
_geom_bond_atom_site_label_1
_geom_bond_atom_site_label_2
_geom_bond_site_symmetry_1
_geom_bond_site_symmetry_2
N1 C1 1_555 1_555
N2 C9 1_555 1_555
C1 H1 1_555 1_555
H2 C1 1_555 1_555
C2 N1 1_555 1_555
H3 C2 1_555 1_555
C3 C2 1_555 1_555
H4 C3 1_555 1_555
C4 C3 1_555 1_555
C5 C4 1_555 1_555
H5 C5 1_555 1_555
C6 N1 1_555 1_555
H6 C6 1_555 1_555
C7 C4 1_555 1_555
C8 C7 1_555 1_555
H7 C8 1_555 1_555
C9 C8 1_555 1_555
H8 C9 1_555 1_555
C10 N2 1_555 1_555
H9 C10 1_555 1_555
C11 C7 1_555 1_555
H10 C11 1_555 1_555
C12 N2 1_555 1_555
H11 C12 1_555 1_555
H12 C12 1_555 1_555
C13 C12 1_555 1_555
C14 C13 1_555 1_555
H13 C14 1_555 1_555
C15 C14 1_555 1_555
H14 C15 1_555 1_555
C16 C15 1_555 1_555
C17 C16 1_555 1_555
H15 C17 1_555 1_555
C18 C13 1_555 1_555
H16 C18 1_555 1_555
C19 C16 1_555 1_555
C20 C19 1_555 1_555
C21 C20 1_555 1_555
C22 C21 1_555 1_555
H17 C22 1_555 1_555
C23 C22 1_555 1_555
H18 C23 1_555 1_555
C24 C23 1_555 1_555
C25 C24 1_555 1_555
H19 C25 1_555 1_555
C26 C21 1_555 1_555
H20 C26 1_555 1_555
N3 C27 1_555 1_555
N4 C35 1_555 1_555
C27 H21 1_555 1_555
H22 C27 1_555 1_555
C28 N3 1_555 1_555
H23 C28 1_555 1_555
C29 C28 1_555 1_555
H24 C29 1_555 1_555
C30 C29 1_555 1_555
C31 C30 1_555 1_555
H25 C31 1_555 1_555
C32 N3 1_555 1_555
H26 C32 1_555 1_555
C33 C30 1_555 1_555
C34 C33 1_555 1_555
H27 C34 1_555 1_555
C35 C34 1_555 1_555
H28 C35 1_555 1_555
C36 N4 1_555 1_555
H29 C36 1_555 1_555
C37 C33 1_555 1_555
H30 C37 1_555 1_555
C38 N4 1_555 1_555
H31 C38 1_555 1_555
H32 C38 1_555 1_555
C39 C38 1_555 1_555
C40 C39 1_555 1_555
H33 C40 1_555 1_555
C41 C40 1_555 1_555
H34 C41 1_555 1_555
C42 C41 1_555 1_555
C43 C42 1_555 1_555
H35 C43 1_555 1_555
C44 C39 1_555 1_555
H36 C44 1_555 1_555
O1 C47 1_555 1_555
C45 H37 1_555 1_555
H38 C45 1_555 1_555
C46 C45 1_555 1_555
H39 C46 1_555 1_555
C47 C46 1_555 1_555
H40 C47 1_555 1_555
H41 C47 1_555 1_555
C48 O1 1_555 1_555
C49 C48 1_555 1_555
H42 C49 1_555 1_555
C50 C49 1_555 1_555
H43 C50 1_555 1_555
P1 F1 1_555 1_555
F2 P1 1_555 1_555
F3 P1 1_555 1_555
F4 P1 1_555 1_555
F5 P1 1_555 1_555
F6 P1 1_555 1_555
P2 F7 1_555 1_555
F8 P2 1_555 1_555
F9 P2 1_555 1_555
F10 P2 1_555 1_555
F11 P2 1_555 1_555
F12 P2 1_555 1_555
N5 C51 1_555 1_555
C51 C52 1_555 1_555
C52 H44 1_555 1_555
H45 C52 1_555 1_555
H46 C52 1_555 1_555
N6 C53 1_555 1_555
C53 C54 1_555 1_555
C54 H47 1_555 1_555
H48 C54 1_555 1_555
H49 C54 1_555 1_555
N1A C1A 1_555 1_555
N2A C9A 1_555 1_555
C1A C24 1_555 1_555
H1A C1A 1_555 1_555
H2A C1A 1_555 1_555
C2A N1A 1_555 1_555
H3A C2A 1_555 1_555
C3A C2A 1_555 1_555
H4A C3A 1_555 1_555
C4A C3A 1_555 1_555
C5A C4A 1_555 1_555
H5A C5A 1_555 1_555
C6A N1A 1_555 1_555
H6A C6A 1_555 1_555
C7A C4A 1_555 1_555
C8A C7A 1_555 1_555
H7A C8A 1_555 1_555
C9A C8A 1_555 1_555
H8A C9A 1_555 1_555
C10A N2A 1_555 1_555
H9A C10A 1_555 1_555
C11A C7A 1_555 1_555
H10A C11A 1_555 1_555
C12A N2A 1_555 1_555
H11A C12A 1_555 1_555
H12A C12A 1_555 1_555
C13A C12A 1_555 1_555
C14A C13A 1_555 1_555
H13A C14A 1_555 1_555
C15A C14A 1_555 1_555
H14A C15A 1_555 1_555
C16A C15A 1_555 1_555
C17A C16A 1_555 1_555
H15A C17A 1_555 1_555
C18A C13A 1_555 1_555
H16A C18A 1_555 1_555
C19A C16A 1_555 1_555
C20A C19A 1_555 1_555
C21A C20A 1_555 1_555
C22A C21A 1_555 1_555
H17A C22A 1_555 1_555
C23A C22A 1_555 1_555
H18A C23A 1_555 1_555
C24A C1 1_555 1_555
C25A C24A 1_555 1_555
H19A C25A 1_555 1_555
C26A C21A 1_555 1_555
H20A C26A 1_555 1_555
N3A C27A 1_555 1_555
N4A C35A 1_555 1_555
C27A C42 1_555 1_555
H21A C27A 1_555 1_555
H22A C27A 1_555 1_555
C28A N3A 1_555 1_555
H23A C28A 1_555 1_555
C29A C28A 1_555 1_555
H24A C29A 1_555 1_555
C30A C29A 1_555 1_555
C31A C30A 1_555 1_555
H25A C31A 1_555 1_555
C32A N3A 1_555 1_555
H26A C32A 1_555 1_555
C33A C30A 1_555 1_555
C34A C33A 1_555 1_555
H27A C34A 1_555 1_555
C35A C34A 1_555 1_555
H28A C35A 1_555 1_555
C36A N4A 1_555 1_555
H29A C36A 1_555 1_555
C37A C33A 1_555 1_555
H30A C37A 1_555 1_555
C38A N4A 1_555 1_555
H31A C38A 1_555 1_555
H32A C38A 1_555 1_555
C39A C38A 1_555 1_555
C40A C39A 1_555 1_555
H33A C40A 1_555 1_555
C41A C40A 1_555 1_555
H34A C41A 1_555 1_555
C42A C27 1_555 1_555
C43A C42A 1_555 1_555
H35A C43A 1_555 1_555
C44A C39A 1_555 1_555
H36A C44A 1_555 1_555
O1A C47A 1_555 1_555
C45A H37A 1_555 1_555
H38A C45A 1_555 1_555
C46A C45A 1_555 1_555
H39A C46A 1_555 1_555
C47A C46A 1_555 1_555
H40A C47A 1_555 1_555
H41A C47A 1_555 1_555
C48A C50 1_555 1_555
C49A C48A 1_555 1_555
H42A C49A 1_555 1_555
C50A C48 1_555 1_555
H43A C50A 1_555 1_555
C5 C6 1_555 1_555
C10 C11 1_555 1_555
C17 C18 1_555 1_555
C25 C26 1_555 1_555
C31 C32 1_555 1_555
C36 C37 1_555 1_555
C43 C44 1_555 1_555
C5A C6A 1_555 1_555
C10A C11A 1_555 1_555
C17A C18A 1_555 1_555
C23A C24A 1_555 1_555
C25A C26A 1_555 1_555
C31A C32A 1_555 1_555
C36A C37A 1_555 1_555
C41A C42A 1_555 1_555
C43A C44A 1_555 1_555
O1A C48A 1_555 1_555
C49A C50A 1_555 1_555

#END
