
#######################################################################
#
#                 Cambridge Crystallographic Data Centre
#                                CCDC 
#
#######################################################################
#
# If this CIF has been generated from an entry in the Cambridge 
# Structural Database, then it will include bibliographic, chemical, 
# crystal, experimental, refinement or atomic coordinate data resulting 
# from the CCDC's data processing and validation procedures.
#
#######################################################################

data_JITGAX
_chemical_formula_moiety         
'C52 H40 N4 2+,C36 H32 N4 2+,4(F6 P1 1-),C10 H10 O4,4(C2 H3 N1)'
_chemical_name_systematic        
'5,25-diazonia-18,38-diazanonacyclo[36.2.2.2^2,5^.2^7,10^.2^13,16^.2^18,21^.2^22,25^.2^27,30^.2^33,36^]hexapentaconta-1,3,7,9,13,15,19,21,23,27,29,33,35,39,41,43,45,47,49,51,53,55-docosaene-11,31-diyne diradical 5,12,19,26-tetra-azaheptacyclo[24.2.2.2^2,5^.2^7,10^.2^12,15^.2^16,19^.2^21,24^]tetraconta-1(28),2,4,7,9,12,14,16,18,21,23,26,29,31,33,35,37,39-octadecaene-5,19-di-ium diradical tetrakis(hexafluorophosphate) dimethyl benzene-1,4-dicarboxylate acetonitrile solvate'
_symmetry_cell_setting           triclinic
_symmetry_space_group_name_H-M   'P -1'
_symmetry_Int_Tables_number      2
_space_group_name_Hall           '-P 1'
loop_
_symmetry_equiv_pos_site_id
_symmetry_equiv_pos_as_xyz
1 x,y,z
2 -x,-y,-z
_cell_length_a                   13.1693(7)
_cell_length_b                   13.2133(7)
_cell_length_c                   16.9227(7)
_cell_angle_alpha                101.344(3)
_cell_angle_beta                 92.167(3)
_cell_angle_gamma                118.552(3)
_cell_volume                     2506.17
_exptl_crystal_colour            purple
_exptl_crystal_description       plate
_cell_formula_units_Z            1
loop_
_atom_site_label
_atom_site_type_symbol
_atom_site_fract_x
_atom_site_fract_y
_atom_site_fract_z
N1 N 0.6844(7) 1.1571(8) 0.6141(5)
N2 N 0.1974(8) 0.5920(9) 0.5898(5)
C1 C 0.7886(10) 1.2776(10) 0.6361(7)
H1 H 0.839248 1.314836 0.599733
C2 C 0.5725(9) 1.1416(10) 0.6070(6)
H2 H 0.560816 1.207328 0.607537
C3 C 0.4777(9) 1.0292(9) 0.5991(5)
H3 H 0.401319 1.019435 0.592474
C4 C 0.4885(8) 0.9307(9) 0.6003(5)
C5 C 0.6057(8) 0.9517(9) 0.6081(6)
H4 H 0.618710 0.886899 0.607819
C6 C 0.6988(9) 1.0613(9) 0.6158(6)
H5 H 0.775536 1.071978 0.622599
C7 C 0.3913(9) 0.8148(10) 0.5948(6)
C8 C 0.2750(9) 0.7947(11) 0.5886(6)
H6 H 0.261191 0.858217 0.585550
C9 C 0.1812(10) 0.6837(11) 0.5870(6)
H7 H 0.104276 0.672795 0.583823
C10 C 0.3044(10) 0.6055(10) 0.5926(7)
H8 H 0.313572 0.538666 0.593648
C11 C 0.4021(9) 0.7117(10) 0.5939(6)
H9 H 0.476541 0.716804 0.594222
C12 C 0.0978(10) 0.4797(11) 0.5999(7)
H10 H 0.101067 0.410693 0.567218
H11 H 0.022865 0.473966 0.580725
C13 C 0.1058(10) 0.4794(11) 0.6893(7)
C14 C 0.0853(9) 0.5613(10) 0.7450(6)
H12 H 0.060816 0.610235 0.725786
C15 C 0.1020(9) 0.5685(11) 0.8285(6)
H13 H 0.088504 0.622838 0.866116
C16 C 0.1375(10) 0.4985(11) 0.8570(7)
C17 C 0.1536(10) 0.4167(11) 0.8039(7)
H14 H 0.175921 0.367491 0.825013
C18 C 0.1387(10) 0.4034(11) 0.7210(7)
H15 H 0.149670 0.345553 0.685170
C19 C 0.1568(10) 0.5133(11) 0.9441(7)
C20 C 0.1647(9) 0.5398(11) 1.0177(6)
C21 C 0.1779(9) 0.5802(10) 1.1054(6)
C22 C 0.1446(9) 0.6661(10) 1.1336(6)
H16 H 0.114192 0.693294 1.096012
C23 C 0.1569(9) 0.7104(9) 1.2168(6)
H17 H 0.136988 0.770139 1.236225
C24 C 0.1985(9) 0.6677(9) 1.2728(6)
C25 C 0.2288(9) 0.5821(10) 1.2436(7)
H18 H 0.255541 0.551211 1.280528
C26 C 0.2199(9) 0.5413(11) 1.1598(7)
H19 H 0.243976 0.484835 1.140301
N1A N 0.3156(7) 0.8429(8) 1.3859(5)
N2A N 0.8026(8) 1.4080(9) 1.4102(5)
C1A C 0.2114(10) 0.7224(10) 1.3639(7)
H1A H 0.160752 0.685164 1.400267
C2A C 0.4275(9) 0.8584(10) 1.3930(6)
H2A H 0.439184 0.792672 1.392463
C3A C 0.5223(9) 0.9708(9) 1.4009(5)
H3A H 0.598681 0.980565 1.407526
C4A C 0.5115(8) 1.0693(9) 1.3997(5)
C5A C 0.3943(8) 1.0483(9) 1.3919(6)
H4A H 0.381290 1.113101 1.392181
C6A C 0.3012(9) 0.9387(9) 1.3842(6)
H5A H 0.224464 0.928022 1.377401
C7A C 0.6087(9) 1.1852(10) 1.4052(6)
C8A C 0.7250(9) 1.2053(11) 1.4114(6)
H6A H 0.738809 1.141783 1.414450
C9A C 0.8188(10) 1.3163(11) 1.4130(6)
H7A H 0.895724 1.327205 1.416177
C10A C 0.6956(10) 1.3945(10) 1.4074(7)
H8A H 0.686428 1.461334 1.406352
C11A C 0.5979(9) 1.2883(10) 1.4061(6)
H9A H 0.523459 1.283196 1.405778
C12A C 0.9022(10) 1.5203(11) 1.4001(7)
H10A H 0.898933 1.589307 1.432782
H11A H 0.977135 1.526034 1.419275
C13A C 0.8942(10) 1.5206(11) 1.3107(7)
C14A C 0.9147(9) 1.4387(10) 1.2550(6)
H12A H 0.939184 1.389765 1.274214
C15A C 0.8980(9) 1.4315(11) 1.1715(6)
H13A H 0.911496 1.377162 1.133884
C16A C 0.8625(10) 1.5015(11) 1.1430(7)
C17A C 0.8464(10) 1.5833(11) 1.1961(7)
H14A H 0.824079 1.632509 1.174987
C18A C 0.8613(10) 1.5966(11) 1.2790(7)
H15A H 0.850330 1.654447 1.314830
C19A C 0.8432(10) 1.4867(11) 1.0559(7)
C20A C 0.8353(9) 1.4602(11) 0.9823(6)
C21A C 0.8221(9) 1.4198(10) 0.8946(6)
C22A C 0.8554(9) 1.3339(10) 0.8664(6)
H16A H 0.885808 1.306706 0.903988
C23A C 0.8431(9) 1.2896(9) 0.7832(6)
H17A H 0.863012 1.229861 0.763775
C24A C 0.8015(9) 1.3323(9) 0.7272(6)
C25A C 0.7712(9) 1.4179(10) 0.7564(7)
H18A H 0.744459 1.448789 0.719472
C26A C 0.7801(9) 1.4587(11) 0.8402(7)
H19A H 0.756024 1.515165 0.859699
N3 N 0.3802(8) 1.1566(8) 0.7992(5)
N4 N 0.5429(9) 0.7205(9) 0.8004(6)
C27 C 0.3576(11) 1.2545(11) 0.8255(7)
H20 H 0.276274 1.229279 0.803077
H21 H 0.410855 1.322026 0.803470
C28 C 0.4936(10) 1.1813(10) 0.7926(6)
H22 H 0.550607 1.259890 0.791866
C29 C 0.5258(9) 1.0994(9) 0.7872(6)
H23 H 0.605883 1.121717 0.786723
C30 C 0.4424(9) 0.9787(9) 0.7821(6)
C31 C 0.3241(9) 0.9537(10) 0.7790(6)
H24 H 0.263214 0.873559 0.769555
C32 C 0.2970(10) 1.0396(10) 0.7890(6)
H25 H 0.217439 1.019462 0.789034
C33 C 0.4776(9) 0.8893(9) 0.7826(6)
C34 C 0.5977(9) 0.9158(10) 0.7901(6)
H26 H 0.657665 0.992490 0.788028
C35 C 0.6261(11) 0.8329(10) 0.8000(7)
H27 H 0.706121 0.853482 0.806814
C36 C 0.4288(11) 0.6902(11) 0.7885(7)
H28 H 0.371487 0.610322 0.785815
C37 C 0.3921(10) 0.7678(9) 0.7802(6)
H29 H 0.310923 0.742640 0.772933
C38 C 0.5827(13) 0.6450(12) 0.8204(8)
H30 H 0.660109 0.667208 0.803224
H31 H 0.527366 0.561685 0.791050
C39 C 0.5923(12) 0.6561(11) 0.9135(7)
C40 C 0.7077(12) 0.7165(11) 0.9573(7)
H32 H 0.774069 0.740313 0.930002
C41 C 0.7193(12) 0.7397(12) 1.0433(7)
H33 H 0.795479 0.780636 1.074197
C42 C 0.6254(11) 0.7053(10) 1.0830(7)
C43 C 0.5132(12) 0.6421(11) 1.0407(8)
H34 H 0.447001 0.614099 1.068155
C44 C 0.5002(12) 0.6205(11) 0.9538(8)
H35 H 0.423671 0.579351 0.923429
N3A N 0.6198(8) 0.8434(8) 1.2008(5)
N4A N 0.4571(9) 1.2795(9) 1.1996(6)
C27A C 0.6424(11) 0.7455(11) 1.1745(7)
H20A H 0.723726 0.770721 1.196923
H21A H 0.589145 0.677974 1.196530
C28A C 0.5064(10) 0.8187(10) 1.2074(6)
H22A H 0.449393 0.740110 1.208134
C29A C 0.4742(9) 0.9006(9) 1.2128(6)
H23A H 0.394117 0.878283 1.213277
C30A C 0.5576(9) 1.0213(9) 1.2179(6)
C31A C 0.6759(9) 1.0463(10) 1.2210(6)
H24A H 0.736786 1.126441 1.230445
C32A C 0.7030(10) 0.9604(10) 1.2110(6)
H25A H 0.782561 0.980538 1.210966
C33A C 0.5224(9) 1.1107(9) 1.2174(6)
C34A C 0.4023(9) 1.0842(10) 1.2099(6)
H26A H 0.342335 1.007510 1.211972
C35A C 0.3739(11) 1.1671(10) 1.2000(7)
H27A H 0.293879 1.146518 1.193186
C36A C 0.5712(11) 1.3098(11) 1.2115(7)
H28A H 0.628513 1.389678 1.214185
C37A C 0.6079(10) 1.2322(9) 1.2198(6)
H29A H 0.689077 1.257360 1.227067
C38A C 0.4173(13) 1.3550(12) 1.1796(8)
H30A H 0.339891 1.332792 1.196776
H31A H 0.472634 1.438315 1.208950
C39A C 0.4077(12) 1.3439(11) 1.0865(7)
C40A C 0.2923(12) 1.2835(11) 1.0427(7)
H32A H 0.225931 1.259687 1.069998
C41A C 0.2807(12) 1.2603(12) 0.9567(7)
H33A H 0.204521 1.219364 0.925803
C42A C 0.3746(11) 1.2947(10) 0.9170(7)
C43A C 0.4868(12) 1.3579(11) 0.9593(8)
H34A H 0.552999 1.385901 0.931845
C44A C 0.4998(12) 1.3795(11) 1.0462(8)
H35A H 0.576329 1.420649 1.076571
O1 O 0.174(2) 0.8105(14) 0.9675(13)
O2 O 0.233(2) 0.9989(14) 0.9945(10)
C45 C 0.535(3) 0.9130(17) 1.0002(11)
H36 H 0.562179 0.858076 1.001058
C46 C 0.405(3) 0.8693(19) 0.9940(11)
H37 H 0.347565 0.789139 0.989886
C47 C 0.380(3) 0.9633(18) 0.9951(12)
C48 C 0.259(3) 0.909(2) 0.9918(14)
C49 C 0.094(3) 0.944(2) 0.9878(19)
H38 H 0.074922 1.007868 0.989614
H39 H 0.055652 0.884099 0.936164
H40 H 0.066666 0.907834 1.033373
O1A O 0.826(2) 1.1895(14) 1.0325(13)
O2A O 0.767(2) 1.0011(14) 1.0055(10)
C45A C 0.465(3) 1.0870(17) 0.9998(11)
H36A H 0.437821 1.141924 0.998942
C46A C 0.595(3) 1.1307(19) 1.0060(11)
H37A H 0.652435 1.210861 1.010114
C47A C 0.620(3) 1.0367(18) 1.0049(12)
C48A C 0.741(3) 1.091(2) 1.0082(14)
C49A C 0.906(3) 1.056(2) 1.0122(19)
H38A H 0.925078 0.992132 1.010386
H39A H 0.944348 1.115901 1.063836
H40A H 0.933334 1.092166 0.966627
P1 P 0.0476(3) 0.9935(4) 0.2554(2)
F1 F -0.0214(7) 1.0497(8) 0.3040(5)
F2 F 0.1153(7) 0.9383(8) 0.2051(5)
F3 F 0.1506(9) 1.0557(9) 0.3278(6)
F4 F 0.1063(8) 1.1090(9) 0.2200(6)
F5 F -0.0544(9) 0.9327(11) 0.1794(6)
F6 F -0.0147(10) 0.8790(9) 0.2896(7)
P2 P 0.4052(7) 0.3555(6) 0.6182(4)
F7 F 0.4319(14) 0.2926(13) 0.5346(8)
F8 F 0.3772(12) 0.4132(13) 0.7038(9)
F9 F 0.2789(10) 0.3084(10) 0.5781(7)
F10 F 0.3695(13) 0.2378(11) 0.6452(7)
F11 F 0.5414(14) 0.4101(14) 0.6592(11)
F12 F 0.4480(12) 0.4687(13) 0.5833(10)
N5 N 0.0466(10) 0.8142(10) 0.4920(7)
C50 C 0.0868(11) 0.9141(12) 0.5153(9)
C51 C 0.1408(13) 1.0411(13) 0.5387(11)
H41 H 0.120403 1.069273 0.494425
H42 H 0.225929 1.075955 0.549534
H43 H 0.112977 1.064978 0.587980
N6 N 0.1155(11) 0.4438(11) 0.4015(7)
C52 C 0.1663(14) 0.3953(12) 0.4000(8)
C53 C 0.2381(17) 0.3389(15) 0.3980(11)
H44 H 0.268911 0.346995 0.453865
H45 H 0.303220 0.377376 0.368409
H46 H 0.190508 0.254510 0.370346
P3? P 0.4591(10) 0.3722(8) 0.6163(5)
F13? F 0.3921(17) 0.3188(18) 0.5249(11)
F14? F 0.5324(14) 0.4140(15) 0.7050(11)
F15? F 0.3534(16) 0.3652(16) 0.6587(13)
F16? F 0.4218(15) 0.2389(13) 0.6192(11)
F17? F 0.5752(12) 0.3820(12) 0.5849(9)
F18? F 0.5004(19) 0.5091(15) 0.6203(12)
loop_
_geom_bond_atom_site_label_1
_geom_bond_atom_site_label_2
_geom_bond_site_symmetry_1
_geom_bond_site_symmetry_2
N1 C1 1_555 1_555
N2 C9 1_555 1_555
C1 H1 1_555 1_555
C2 N1 1_555 1_555
H2 C2 1_555 1_555
C3 C2 1_555 1_555
H3 C3 1_555 1_555
C4 C3 1_555 1_555
C5 C4 1_555 1_555
H4 C5 1_555 1_555
C6 N1 1_555 1_555
H5 C6 1_555 1_555
C7 C4 1_555 1_555
C8 C7 1_555 1_555
H6 C8 1_555 1_555
C9 C8 1_555 1_555
H7 C9 1_555 1_555
C10 N2 1_555 1_555
H8 C10 1_555 1_555
C11 C7 1_555 1_555
H9 C11 1_555 1_555
C12 N2 1_555 1_555
H10 C12 1_555 1_555
H11 C12 1_555 1_555
C13 C12 1_555 1_555
C14 C13 1_555 1_555
H12 C14 1_555 1_555
C15 C14 1_555 1_555
H13 C15 1_555 1_555
C16 C15 1_555 1_555
C17 C16 1_555 1_555
H14 C17 1_555 1_555
C18 C13 1_555 1_555
H15 C18 1_555 1_555
C19 C16 1_555 1_555
C20 C19 1_555 1_555
C21 C20 1_555 1_555
C22 C21 1_555 1_555
H16 C22 1_555 1_555
C23 C22 1_555 1_555
H17 C23 1_555 1_555
C24 C23 1_555 1_555
C25 C24 1_555 1_555
H18 C25 1_555 1_555
C26 C21 1_555 1_555
H19 C26 1_555 1_555
N3 C27 1_555 1_555
N4 C35 1_555 1_555
C27 H20 1_555 1_555
H21 C27 1_555 1_555
C28 N3 1_555 1_555
H22 C28 1_555 1_555
C29 C28 1_555 1_555
H23 C29 1_555 1_555
C30 C29 1_555 1_555
C31 C30 1_555 1_555
H24 C31 1_555 1_555
C32 N3 1_555 1_555
H25 C32 1_555 1_555
C33 C30 1_555 1_555
C34 C33 1_555 1_555
H26 C34 1_555 1_555
C35 C34 1_555 1_555
H27 C35 1_555 1_555
C36 N4 1_555 1_555
H28 C36 1_555 1_555
C37 C33 1_555 1_555
H29 C37 1_555 1_555
C38 N4 1_555 1_555
H30 C38 1_555 1_555
H31 C38 1_555 1_555
C39 C38 1_555 1_555
C40 C39 1_555 1_555
H32 C40 1_555 1_555
C41 C40 1_555 1_555
H33 C41 1_555 1_555
C42 C41 1_555 1_555
C43 C42 1_555 1_555
H34 C43 1_555 1_555
C44 C39 1_555 1_555
H35 C44 1_555 1_555
O1 C48 1_555 1_555
O2 C48 1_555 1_555
C45 H36 1_555 1_555
C46 C45 1_555 1_555
H37 C46 1_555 1_555
C47 C46 1_555 1_555
C48 C47 1_555 1_555
C49 O2 1_555 1_555
H38 C49 1_555 1_555
H39 C49 1_555 1_555
H40 C49 1_555 1_555
P1 F1 1_555 1_555
F2 P1 1_555 1_555
F3 P1 1_555 1_555
F4 P1 1_555 1_555
F5 P1 1_555 1_555
F6 P1 1_555 1_555
P2 F7 1_555 1_555
F8 P2 1_555 1_555
F9 P2 1_555 1_555
F10 P2 1_555 1_555
F11 P2 1_555 1_555
F12 P2 1_555 1_555
N5 C50 1_555 1_555
C50 C51 1_555 1_555
C51 H41 1_555 1_555
H42 C51 1_555 1_555
H43 C51 1_555 1_555
N6 C52 1_555 1_555
C52 C53 1_555 1_555
C53 H44 1_555 1_555
H45 C53 1_555 1_555
H46 C53 1_555 1_555
N1A C1A 1_555 1_555
N2A C9A 1_555 1_555
C1A C24 1_555 1_555
H1A C1A 1_555 1_555
C2A N1A 1_555 1_555
H2A C2A 1_555 1_555
C3A C2A 1_555 1_555
H3A C3A 1_555 1_555
C4A C3A 1_555 1_555
C5A C4A 1_555 1_555
H4A C5A 1_555 1_555
C6A N1A 1_555 1_555
H5A C6A 1_555 1_555
C7A C4A 1_555 1_555
C8A C7A 1_555 1_555
H6A C8A 1_555 1_555
C9A C8A 1_555 1_555
H7A C9A 1_555 1_555
C10A N2A 1_555 1_555
H8A C10A 1_555 1_555
C11A C7A 1_555 1_555
H9A C11A 1_555 1_555
C12A N2A 1_555 1_555
H10A C12A 1_555 1_555
H11A C12A 1_555 1_555
C13A C12A 1_555 1_555
C14A C13A 1_555 1_555
H12A C14A 1_555 1_555
C15A C14A 1_555 1_555
H13A C15A 1_555 1_555
C16A C15A 1_555 1_555
C17A C16A 1_555 1_555
H14A C17A 1_555 1_555
C18A C13A 1_555 1_555
H15A C18A 1_555 1_555
C19A C16A 1_555 1_555
C20A C19A 1_555 1_555
C21A C20A 1_555 1_555
C22A C21A 1_555 1_555
H16A C22A 1_555 1_555
C23A C22A 1_555 1_555
H17A C23A 1_555 1_555
C24A C1 1_555 1_555
C25A C24A 1_555 1_555
H18A C25A 1_555 1_555
C26A C21A 1_555 1_555
H19A C26A 1_555 1_555
N3A C27A 1_555 1_555
N4A C35A 1_555 1_555
C27A C42 1_555 1_555
H20A C27A 1_555 1_555
H21A C27A 1_555 1_555
C28A N3A 1_555 1_555
H22A C28A 1_555 1_555
C29A C28A 1_555 1_555
H23A C29A 1_555 1_555
C30A C29A 1_555 1_555
C31A C30A 1_555 1_555
H24A C31A 1_555 1_555
C32A N3A 1_555 1_555
H25A C32A 1_555 1_555
C33A C30A 1_555 1_555
C34A C33A 1_555 1_555
H26A C34A 1_555 1_555
C35A C34A 1_555 1_555
H27A C35A 1_555 1_555
C36A N4A 1_555 1_555
H28A C36A 1_555 1_555
C37A C33A 1_555 1_555
H29A C37A 1_555 1_555
C38A N4A 1_555 1_555
H30A C38A 1_555 1_555
H31A C38A 1_555 1_555
C39A C38A 1_555 1_555
C40A C39A 1_555 1_555
H32A C40A 1_555 1_555
C41A C40A 1_555 1_555
H33A C41A 1_555 1_555
C42A C27 1_555 1_555
C43A C42A 1_555 1_555
H34A C43A 1_555 1_555
C44A C39A 1_555 1_555
H35A C44A 1_555 1_555
O1A C48A 1_555 1_555
O2A C48A 1_555 1_555
C45A C47 1_555 1_555
H36A C45A 1_555 1_555
C46A C45A 1_555 1_555
H37A C46A 1_555 1_555
C47A C45 1_555 1_555
C48A C47A 1_555 1_555
C49A O2A 1_555 1_555
H38A C49A 1_555 1_555
H39A C49A 1_555 1_555
H40A C49A 1_555 1_555
C5 C6 1_555 1_555
C10 C11 1_555 1_555
C17 C18 1_555 1_555
C25 C26 1_555 1_555
C31 C32 1_555 1_555
C36 C37 1_555 1_555
C43 C44 1_555 1_555
C5A C6A 1_555 1_555
C10A C11A 1_555 1_555
C17A C18A 1_555 1_555
C23A C24A 1_555 1_555
C25A C26A 1_555 1_555
C31A C32A 1_555 1_555
C36A C37A 1_555 1_555
C41A C42A 1_555 1_555
C43A C44A 1_555 1_555
C46A C47A 1_555 1_555

#END
