
#######################################################################
#
#                 Cambridge Crystallographic Data Centre
#                                CCDC 
#
#######################################################################
#
# If this CIF has been generated from an entry in the Cambridge 
# Structural Database, then it will include bibliographic, chemical, 
# crystal, experimental, refinement or atomic coordinate data resulting 
# from the CCDC's data processing and validation procedures.
#
#######################################################################

data_JITNUY
_chemical_formula_moiety         'C30 H22,C30 H22'
_chemical_name_systematic        
"2,3'-dimethyl-9,9'-bianthracene 3,3'-dimethyl-9,9'-bianthracene"
_symmetry_cell_setting           triclinic
_symmetry_space_group_name_H-M   'P -1'
_symmetry_Int_Tables_number      2
_space_group_name_Hall           '-P 1'
loop_
_symmetry_equiv_pos_site_id
_symmetry_equiv_pos_as_xyz
1 x,y,z
2 -x,-y,-z
_cell_length_a                   12.552(9)
_cell_length_b                   13.432(5)
_cell_length_c                   15.079(5)
_cell_angle_alpha                115.095(6)
_cell_angle_beta                 101.146(8)
_cell_angle_gamma                100.697(9)
_cell_volume                     2154.01
_cell_formula_units_Z            2
loop_
_atom_site_label
_atom_site_type_symbol
_atom_site_fract_x
_atom_site_fract_y
_atom_site_fract_z
C1 C 0.9249(8) 0.4420(8) 0.2373(6)
C2 C 1.0237(6) 0.5060(7) 0.2276(9)
C3 C 1.0494(9) 0.4664(7) 0.1353(7)
H1 H 1.0014 0.3987 0.0780
C4 C 1.1469(10) 0.5279(11) 0.1287(9)
H2 H 1.1641 0.5014 0.0670
C5 C 1.2186(7) 0.6290(10) 0.2143(12)
H3 H 1.2839 0.6702 0.2099
C6 C 1.1929(8) 0.6686(6) 0.3066(9)
H4 H 1.2409 0.7363 0.3639
C7 C 1.0954(9) 0.6071(8) 0.3132(7)
C8 C 1.0674(16) 0.6498(12) 0.4061(12)
H5 H 1.1118 0.7198 0.4629
C9 C 0.9758(8) 0.5864(8) 0.4091(9)
C10 C 0.9563(10) 0.6325(6) 0.5040(7)
H6 H 1.0058 0.7022 0.5578
C11 C 0.8630(11) 0.5746(10) 0.5185(5)
H7 H 0.8500 0.6054 0.5820
C12 C 0.7891(9) 0.4704(10) 0.4381(8)
C13 C 0.8086(7) 0.4243(6) 0.3431(6)
H8 H 0.7591 0.3546 0.2893
C14 C 0.9019(8) 0.4823(8) 0.3286(6)
C15 C 0.6981(13) 0.4211(17) 0.4594(14)
H9 H 0.6931 0.4755 0.5239
H10 H 0.7084 0.3539 0.4634
H11 H 0.6293 0.3995 0.4058
C16 C 0.8461(7) 0.3229(9) 0.1472(6)
C17 C 0.8639(7) 0.2169(5) 0.1291(6)
C18 C 0.9579(6) 0.2222(6) 0.1990(4)
H12 H 1.0039 0.2930 0.2536
C19 C 0.9832(5) 0.1217(9) 0.1871(6)
H13 H 1.0461 0.1253 0.2339
C20 C 0.9144(7) 0.0158(7) 0.1055(7)
H14 H 0.9313 -0.0515 0.0976
C21 C 0.8203(6) 0.0105(5) 0.0356(5)
H15 H 0.7743 -0.0604 -0.0191
C22 C 0.7951(5) 0.1110(7) 0.0474(5)
C23 C 0.7014(10) 0.1184(9) -0.0165(7)
H16 H 0.6506 0.0494 -0.0701
C24 C 0.6783(9) 0.2189(6) -0.0064(7)
C25 C 0.5878(7) 0.2192(8) -0.0758(5)
H17 H 0.5391 0.1500 -0.1308
C26 C 0.5700(6) 0.3229(12) -0.0630(7)
C27 C 0.6428(10) 0.4264(8) 0.0193(9)
H18 H 0.6309 0.4958 0.0279
C28 C 0.7333(8) 0.4261(6) 0.0887(6)
H19 H 0.7819 0.4953 0.1438
C29 C 0.7510(6) 0.3223(10) 0.0759(6)
C30 C 0.4650(16) 0.3065(15) -0.1454(11)
H20 H 0.4725 0.2640 -0.2124
H21 H 0.4589 0.3805 -0.1354
H22 H 0.3978 0.2647 -0.1400
C31 C 0.3328(7) 0.1436(7) 0.3864(6)
C32 C 0.3563(6) 0.2364(5) 0.4864(4)
C33 C 0.4535(5) 0.3304(6) 0.5288(6)
H23 H 0.5048 0.3322 0.4921
C34 C 0.4740(5) 0.4217(5) 0.6261(6)
H24 H 0.5390 0.4846 0.6544
C35 C 0.3973(8) 0.4190(6) 0.6809(4)
H25 H 0.4110 0.4801 0.7460
C36 C 0.3001(7) 0.3251(7) 0.6385(5)
H26 H 0.2488 0.3233 0.6752
C37 C 0.2796(4) 0.2338(5) 0.5413(6)
C38 C 0.1816(8) 0.1366(8) 0.4962(6)
H27 H 0.1305 0.1340 0.5330
C39 C 0.1594(6) 0.0451(5) 0.3988(4)
C40 C 0.0620(5) -0.0484(7) 0.3575(6)
H28 H 0.0116 -0.0498 0.3951
C41 C 0.0399(5) -0.1399(5) 0.2599(6)
C42 C 0.1151(7) -0.1378(5) 0.2037(4)
H29 H 0.1003 -0.1990 0.1384
C43 C 0.2125(6) -0.0443(6) 0.2450(5)
H30 H 0.2628 -0.0429 0.2073
C44 C 0.2346(5) 0.0472(5) 0.3425(5)
C45 C -0.0643(9) -0.2459(9) 0.2089(9)
H31 H -0.0510 -0.2985 0.2343
H32 H -0.0784 -0.2830 0.1358
H33 H -0.1293 -0.2230 0.2245
C46 C 0.4108(8) 0.1521(7) 0.3217(6)
C47 C 0.3874(8) 0.2061(5) 0.2575(4)
C48 C 0.2974(6) 0.2528(6) 0.2568(5)
H34 H 0.2508 0.2488 0.2970
C49 C 0.2769(6) 0.3053(6) 0.1959(7)
H35 H 0.2167 0.3365 0.1954
C50 C 0.3465(9) 0.3112(5) 0.1357(5)
H36 H 0.3328 0.3463 0.0950
C51 C 0.4365(8) 0.2646(6) 0.1365(4)
H37 H 0.4830 0.2685 0.0963
C52 C 0.4570(5) 0.2120(5) 0.1974(6)
C53 C 0.5417(10) 0.1637(10) 0.1982(9)
H38 H 0.5851 0.1641 0.1548
C54 C 0.5694(9) 0.1121(7) 0.2613(6)
C55 C 0.6626(8) 0.0701(8) 0.2628(7)
H39 H 0.7074 0.0745 0.2213
C56 C 0.6888(7) 0.0216(8) 0.3262(9)
C57 C 0.6218(10) 0.0151(7) 0.3881(7)
H40 H 0.6393 -0.0173 0.4305
C58 C 0.5286(8) 0.0571(8) 0.3866(6)
H41 H 0.4838 0.0528 0.4280
C59 C 0.5024(6) 0.1056(7) 0.3232(8)
C60 C 0.7879(14) -0.0191(18) 0.3215(17)
H42 H 0.8038 -0.0443 0.3721
H43 H 0.8522 0.0424 0.3350
H44 H 0.7732 -0.0823 0.2543
loop_
_geom_bond_atom_site_label_1
_geom_bond_atom_site_label_2
_geom_bond_site_symmetry_1
_geom_bond_site_symmetry_2
C1 C2 1_555 1_555
C2 C3 1_555 1_555
C3 H1 1_555 1_555
C4 C3 1_555 1_555
H2 C4 1_555 1_555
C5 C4 1_555 1_555
H3 C5 1_555 1_555
C6 C5 1_555 1_555
H4 C6 1_555 1_555
C7 C2 1_555 1_555
C8 C7 1_555 1_555
H5 C8 1_555 1_555
C9 C8 1_555 1_555
C10 C9 1_555 1_555
H6 C10 1_555 1_555
C11 C10 1_555 1_555
H7 C11 1_555 1_555
C12 C11 1_555 1_555
C13 C12 1_555 1_555
H8 C13 1_555 1_555
C14 C1 1_555 1_555
C15 C12 1_555 1_555
H9 C15 1_555 1_555
H10 C15 1_555 1_555
H11 C15 1_555 1_555
C16 C1 1_555 1_555
C17 C16 1_555 1_555
C18 C17 1_555 1_555
H12 C18 1_555 1_555
C19 C18 1_555 1_555
H13 C19 1_555 1_555
C20 C19 1_555 1_555
H14 C20 1_555 1_555
C21 C20 1_555 1_555
H15 C21 1_555 1_555
C22 C17 1_555 1_555
C23 C22 1_555 1_555
H16 C23 1_555 1_555
C24 C23 1_555 1_555
C25 C24 1_555 1_555
H17 C25 1_555 1_555
C26 C25 1_555 1_555
C27 C26 1_555 1_555
H18 C27 1_555 1_555
C28 C27 1_555 1_555
H19 C28 1_555 1_555
C29 C16 1_555 1_555
C30 C26 1_555 1_555
H20 C30 1_555 1_555
H21 C30 1_555 1_555
H22 C30 1_555 1_555
C31 C32 1_555 1_555
C32 C33 1_555 1_555
C33 H23 1_555 1_555
C34 C33 1_555 1_555
H24 C34 1_555 1_555
C35 C34 1_555 1_555
H25 C35 1_555 1_555
C36 C35 1_555 1_555
H26 C36 1_555 1_555
C37 C32 1_555 1_555
C38 C37 1_555 1_555
H27 C38 1_555 1_555
C39 C38 1_555 1_555
C40 C39 1_555 1_555
H28 C40 1_555 1_555
C41 C40 1_555 1_555
C42 C41 1_555 1_555
H29 C42 1_555 1_555
C43 C42 1_555 1_555
H30 C43 1_555 1_555
C44 C31 1_555 1_555
C45 C41 1_555 1_555
H31 C45 1_555 1_555
H32 C45 1_555 1_555
H33 C45 1_555 1_555
C46 C31 1_555 1_555
C47 C46 1_555 1_555
C48 C47 1_555 1_555
H34 C48 1_555 1_555
C49 C48 1_555 1_555
H35 C49 1_555 1_555
C50 C49 1_555 1_555
H36 C50 1_555 1_555
C51 C50 1_555 1_555
H37 C51 1_555 1_555
C52 C47 1_555 1_555
C53 C52 1_555 1_555
H38 C53 1_555 1_555
C54 C53 1_555 1_555
C55 C54 1_555 1_555
H39 C55 1_555 1_555
C56 C55 1_555 1_555
C57 C56 1_555 1_555
H40 C57 1_555 1_555
C58 C57 1_555 1_555
H41 C58 1_555 1_555
C59 C46 1_555 1_555
C60 C56 1_555 1_555
H42 C60 1_555 1_555
H43 C60 1_555 1_555
H44 C60 1_555 1_555
C6 C7 1_555 1_555
C9 C14 1_555 1_555
C13 C14 1_555 1_555
C21 C22 1_555 1_555
C24 C29 1_555 1_555
C28 C29 1_555 1_555
C36 C37 1_555 1_555
C39 C44 1_555 1_555
C43 C44 1_555 1_555
C51 C52 1_555 1_555
C54 C59 1_555 1_555
C58 C59 1_555 1_555

#END
