
#######################################################################
#
#                 Cambridge Crystallographic Data Centre
#                                CCDC 
#
#######################################################################
#
# If this CIF has been generated from an entry in the Cambridge 
# Structural Database, then it will include bibliographic, chemical, 
# crystal, experimental, refinement or atomic coordinate data resulting 
# from the CCDC's data processing and validation procedures.
#
#######################################################################

data_JIVDIC
_chemical_formula_moiety         'C69 H14 Br1 N1 O8,3(C1 D1 Cl3),0.83(H2 O1)'
_chemical_name_systematic        
'epoxy-(4-bromophenylimino)-(t-butylperoxy)-(hydroxy)-(open-cage)-C59fullerene-tetraone hydrate clathrate deuterochloroform solvate'
_symmetry_cell_setting           triclinic
_symmetry_space_group_name_H-M   'P -1'
_symmetry_Int_Tables_number      2
_space_group_name_Hall           '-P 1'
loop_
_symmetry_equiv_pos_site_id
_symmetry_equiv_pos_as_xyz
1 x,y,z
2 -x,-y,-z
_cell_length_a                   14.3254(2)
_cell_length_b                   14.6236(2)
_cell_length_c                   15.6704(3)
_cell_angle_alpha                78.9479(9)
_cell_angle_beta                 67.0876(9)
_cell_angle_gamma                62.6231(7)
_cell_volume                     2684.79
_exptl_crystal_colour            'deep red'
_exptl_crystal_description       block
_cell_formula_units_Z            2
_exptl_crystal_recrystallization_method deuterochloroform
loop_
_atom_site_label
_atom_site_type_symbol
_atom_site_fract_x
_atom_site_fract_y
_atom_site_fract_z
Br1 Br -0.21589(3) 1.63159(2) -0.11468(2)
O1 O -0.01670(14) 1.27244(13) 0.19932(11)
O2 O -0.04805(15) 1.26953(13) 0.35200(12)
O3 O 0.31674(15) 1.13274(14) 0.03156(12)
H1 H 0.2779 1.1637 -0.0024
O4 O 0.04317(16) 1.06597(15) 0.06546(14)
O5 O -0.13540(17) 1.02406(16) 0.21628(14)
O6 O -0.07064(15) 1.07859(14) 0.35169(13)
O7 O 0.17714(15) 1.14186(13) 0.37235(11)
O8 O 0.24565(16) 1.19650(14) 0.31230(12)
N1 N 0.08788(18) 1.24846(16) 0.03988(14)
C1 C 0.0736(2) 1.21939(19) 0.12326(17)
C2 C 0.0096(2) 1.22862(19) 0.27963(18)
C3 C 0.1180(2) 1.13560(18) 0.24907(16)
C4 C 0.1547(2) 1.13091(19) 0.15702(16)
C5 C 0.2726(2) 1.06646(19) 0.09501(16)
C6 C 0.3019(2) 0.97273(19) 0.03913(15)
C7 C 0.2394(2) 0.9402(2) 0.01569(16)
C8 C 0.1129(2) 0.9796(2) 0.04840(17)
C9 C 0.0941(2) 0.8828(2) 0.06427(18)
C10 C 0.0157(2) 0.8632(2) 0.14080(19)
C11 C -0.0698(2) 0.9361(2) 0.2194(2)
C12 C -0.0513(2) 0.8710(2) 0.30487(19)
C13 C -0.0324(2) 0.8966(2) 0.37460(17)
C14 C -0.0193(2) 0.9929(2) 0.37675(16)
C15 C 0.0807(2) 0.95599(19) 0.40705(15)
C16 C 0.1653(2) 0.98747(19) 0.37746(16)
C17 C 0.1859(2) 1.07497(19) 0.31075(16)
C18 C 0.3067(2) 1.01444(19) 0.24956(17)
C19 C 0.3443(2) 1.01064(19) 0.15578(17)
C20 C 0.4379(2) 0.9202(2) 0.10959(17)
C21 C 0.4141(2) 0.8987(2) 0.03626(16)
C22 C 0.4606(2) 0.7973(2) 0.00888(16)
C23 C 0.3951(2) 0.7636(2) -0.01673(16)
C24 C 0.2869(2) 0.8337(2) -0.01061(16)
C25 C 0.1991(2) 0.7991(2) 0.02109(17)
C26 C 0.2228(2) 0.6977(2) 0.05019(19)
C27 C 0.1424(2) 0.6782(2) 0.1333(2)
C28 C 0.0442(2) 0.7602(2) 0.17769(19)
C29 C 0.0030(2) 0.7644(2) 0.2783(2)
C30 C 0.0623(2) 0.6866(2) 0.32782(19)
C31 C 0.0774(2) 0.7128(2) 0.40363(18)
C32 C 0.0356(2) 0.8164(2) 0.42182(17)
C33 C 0.1015(2) 0.8525(2) 0.44356(16)
C34 C 0.2043(2) 0.7830(2) 0.45083(16)
C35 C 0.2944(2) 0.8139(2) 0.41768(16)
C36 C 0.2744(2) 0.91288(19) 0.38127(16)
C37 C 0.3607(2) 0.92813(19) 0.30107(17)
C38 C 0.4580(2) 0.8437(2) 0.25736(18)
C39 C 0.4985(2) 0.8397(2) 0.15760(18)
C40 C 0.5420(2) 0.7347(2) 0.13186(19)
C41 C 0.5243(2) 0.7139(2) 0.05808(18)
C42 C 0.4976(2) 0.6288(2) 0.06320(18)
C43 C 0.4188(2) 0.6584(2) 0.01627(18)
C44 C 0.3342(2) 0.6263(2) 0.04951(19)
C45 C 0.3225(2) 0.5632(2) 0.13351(19)
C46 C 0.2041(2) 0.5952(2) 0.1846(2)
C47 C 0.1646(2) 0.5994(2) 0.2810(2)
C48 C 0.2419(3) 0.5715(2) 0.32941(19)
C49 C 0.1877(2) 0.6416(2) 0.40586(18)
C50 C 0.2493(2) 0.6760(2) 0.43001(17)
C51 C 0.3683(2) 0.6410(2) 0.38005(18)
C52 C 0.3968(2) 0.7256(2) 0.37319(18)
C53 C 0.4763(2) 0.7408(2) 0.29314(19)
C54 C 0.5290(2) 0.6725(2) 0.21582(19)
C55 C 0.5025(2) 0.5913(2) 0.22201(19)
C56 C 0.4864(2) 0.5679(2) 0.14462(19)
C57 C 0.3968(2) 0.5353(2) 0.17988(19)
C58 C 0.3562(2) 0.5393(2) 0.28002(19)
C59 C 0.4208(2) 0.5744(2) 0.30615(19)
C60 C 0.0097(2) 1.33811(19) 0.01015(17)
C61 C -0.1058(2) 1.3825(2) 0.05547(17)
H2 H -0.1382 1.3524 0.1115
C62 C -0.1733(2) 1.4699(2) 0.01958(17)
H3 H -0.2520 1.5006 0.0511
C63 C -0.1257(2) 1.51249(19) -0.06267(18)
C64 C -0.0120(2) 1.4692(2) -0.10906(18)
H4 H 0.0198 1.4993 -0.1654
C65 C 0.0553(2) 1.3819(2) -0.07308(17)
H5 H 0.1339 1.3511 -0.1054
C66 C 0.2442(2) 1.2609(2) 0.37336(19)
C67 C 0.3346(3) 1.2955(2) 0.3084(2)
H6 H 0.3118 1.3357 0.2566
H7 H 0.4055 1.2348 0.2846
H8 H 0.3444 1.3381 0.3426
C68 C 0.2763(3) 1.1984(3) 0.4543(2)
H9 H 0.3506 1.1413 0.4313
H10 H 0.2213 1.1710 0.4908
H11 H 0.2777 1.2424 0.4933
C69 C 0.1294(3) 1.3522(2) 0.4017(2)
H12 H 0.1138 1.3891 0.3462
H13 H 0.1287 1.3988 0.4396
H14 H 0.0720 1.3274 0.4377
O9 O 0.2460(2) 0.8009(2) 0.21830(18)
C70 C -0.2247(3) 1.5184(3) 0.3799(2)
D1 D -0.1934 1.4429 0.3947
Cl1 Cl -0.24520(7) 1.53599(8) 0.27398(6)
Cl2 Cl -0.35289(8) 1.57984(8) 0.46837(6)
Cl3 Cl -0.12896(9) 1.56431(11) 0.37242(8)
C71 C -0.3185(3) 1.2333(2) 0.3248(2)
D2 D -0.2366 1.1877 0.3085
Cl4 Cl -0.34996(9) 1.34207(7) 0.38008(7)
Cl5 Cl -0.39310(10) 1.16599(9) 0.39947(8)
Cl6 Cl -0.35079(11) 1.26845(11) 0.22359(7)
C72 C -0.3447(3) 0.9612(3) 0.2594(3)
D3 D -0.3092 1.0039 0.2648
Cl7 Cl -0.44899(19) 1.0413(2) 0.2099(2)
Cl8 Cl -0.3852(7) 0.9103(7) 0.3623(5)
Cl9 Cl -0.2405(4) 0.8651(3) 0.1738(2)
Cl10? Cl -0.4397(5) 1.0346(5) 0.2152(4)
Cl11? Cl -0.4264(7) 0.9332(5) 0.3803(4)
Cl12? Cl -0.2513(5) 0.8413(5) 0.2141(5)
loop_
_geom_bond_atom_site_label_1
_geom_bond_atom_site_label_2
_geom_bond_site_symmetry_1
_geom_bond_site_symmetry_2
Br1 C63 1_555 1_555
O1 C1 1_555 1_555
O2 C2 1_555 1_555
O3 H1 1_555 1_555
O4 C8 1_555 1_555
O5 C11 1_555 1_555
O6 C14 1_555 1_555
O7 O8 1_555 1_555
O8 C66 1_555 1_555
N1 C1 1_555 1_555
C1 C4 1_555 1_555
C2 O1 1_555 1_555
C3 C2 1_555 1_555
C4 C3 1_555 1_555
C5 O3 1_555 1_555
C6 C5 1_555 1_555
C7 C6 1_555 1_555
C8 C7 1_555 1_555
C9 C8 1_555 1_555
C10 C9 1_555 1_555
C11 C10 1_555 1_555
C12 C11 1_555 1_555
C13 C12 1_555 1_555
C14 C13 1_555 1_555
C15 C14 1_555 1_555
C16 C15 1_555 1_555
C17 O7 1_555 1_555
C18 C17 1_555 1_555
C19 C5 1_555 1_555
C20 C19 1_555 1_555
C21 C6 1_555 1_555
C22 C21 1_555 1_555
C23 C22 1_555 1_555
C24 C7 1_555 1_555
C25 C9 1_555 1_555
C26 C25 1_555 1_555
C27 C26 1_555 1_555
C28 C10 1_555 1_555
C29 C12 1_555 1_555
C30 C29 1_555 1_555
C31 C30 1_555 1_555
C32 C13 1_555 1_555
C33 C15 1_555 1_555
C34 C33 1_555 1_555
C35 C34 1_555 1_555
C36 C16 1_555 1_555
C37 C18 1_555 1_555
C38 C37 1_555 1_555
C39 C20 1_555 1_555
C40 C39 1_555 1_555
C41 C22 1_555 1_555
C42 C41 1_555 1_555
C43 C23 1_555 1_555
C44 C26 1_555 1_555
C45 C44 1_555 1_555
C46 C27 1_555 1_555
C47 C30 1_555 1_555
C48 C47 1_555 1_555
C49 C31 1_555 1_555
C50 C34 1_555 1_555
C51 C50 1_555 1_555
C52 C35 1_555 1_555
C53 C38 1_555 1_555
C54 C40 1_555 1_555
C55 C54 1_555 1_555
C56 C42 1_555 1_555
C57 C45 1_555 1_555
C58 C48 1_555 1_555
C59 C51 1_555 1_555
C60 N1 1_555 1_555
C61 C60 1_555 1_555
H2 C61 1_555 1_555
C62 C61 1_555 1_555
H3 C62 1_555 1_555
C63 C62 1_555 1_555
C64 C63 1_555 1_555
H4 C64 1_555 1_555
C65 C60 1_555 1_555
H5 C65 1_555 1_555
C66 C67 1_555 1_555
C67 H6 1_555 1_555
H7 C67 1_555 1_555
H8 C67 1_555 1_555
C68 C66 1_555 1_555
H9 C68 1_555 1_555
H10 C68 1_555 1_555
H11 C68 1_555 1_555
C69 C66 1_555 1_555
H12 C69 1_555 1_555
H13 C69 1_555 1_555
H14 C69 1_555 1_555
C70 D1 1_555 1_555
Cl1 C70 1_555 1_555
Cl2 C70 1_555 1_555
Cl3 C70 1_555 1_555
C71 D2 1_555 1_555
Cl4 C71 1_555 1_555
Cl5 C71 1_555 1_555
Cl6 C71 1_555 1_555
C72 D3 1_555 1_555
Cl7 C72 1_555 1_555
Cl8 C72 1_555 1_555
Cl9 C72 1_555 1_555
C3 C17 1_555 1_555
C4 C5 1_555 1_555
C16 C17 1_555 1_555
C18 C19 1_555 1_555
C20 C21 1_555 1_555
C23 C24 1_555 1_555
C24 C25 1_555 1_555
C27 C28 1_555 1_555
C28 C29 1_555 1_555
C31 C32 1_555 1_555
C32 C33 1_555 1_555
C35 C36 1_555 1_555
C36 C37 1_555 1_555
C38 C39 1_555 1_555
C40 C41 1_555 1_555
C42 C43 1_555 1_555
C43 C44 1_555 1_555
C45 C46 1_555 1_555
C46 C47 1_555 1_555
C48 C49 1_555 1_555
C49 C50 1_555 1_555
C51 C52 1_555 1_555
C52 C53 1_555 1_555
C53 C54 1_555 1_555
C55 C56 1_555 1_555
C55 C59 1_555 1_555
C56 C57 1_555 1_555
C57 C58 1_555 1_555
C58 C59 1_555 1_555
C64 C65 1_555 1_555

#END
