
#######################################################################
#
#                 Cambridge Crystallographic Data Centre
#                                CCDC 
#
#######################################################################
#
# If this CIF has been generated from an entry in the Cambridge 
# Structural Database, then it will include bibliographic, chemical, 
# crystal, experimental, refinement or atomic coordinate data resulting 
# from the CCDC's data processing and validation procedures.
#
#######################################################################

data_JIVTUE
_chemical_formula_moiety         'C25 H17 B1 N2 S4'
_chemical_name_systematic        
3,4,4-tris(2-Thienyl)-8-(3-thienyl)-4-bora-3a,4a-diaza-s-indacene
_symmetry_cell_setting           monoclinic
_symmetry_space_group_name_H-M   'P 21/n'
_symmetry_Int_Tables_number      14
_space_group_name_Hall           '-P 2yn'
loop_
_symmetry_equiv_pos_site_id
_symmetry_equiv_pos_as_xyz
1 x,y,z
2 1/2-x,1/2+y,1/2-z
3 -x,-y,-z
4 1/2+x,1/2-y,1/2+z
_cell_length_a                   8.388(2)
_cell_length_b                   9.059(2)
_cell_length_c                   29.546(8)
_cell_angle_alpha                90
_cell_angle_beta                 93.666(4)
_cell_angle_gamma                90
_cell_volume                     2240.51
_chemical_melting_point          166deg.C
_cell_formula_units_Z            4
_exptl_crystal_recrystallization_method hexane/dichloromethane
_exptl_crystal_preparation       fluorescent
loop_
_atom_site_label
_atom_site_type_symbol
_atom_site_fract_x
_atom_site_fract_y
_atom_site_fract_z
B1 B 0.1005(9) 0.7128(7) 0.1179(2)
N1 N 0.0856(6) 0.5399(5) 0.11871(15)
N2 N -0.0689(6) 0.7699(5) 0.12812(15)
C1 C -0.1577(8) 0.5417(6) 0.15950(18)
C2 C 0.1914(8) 0.4345(6) 0.10603(18)
C3 C 0.1364(9) 0.2936(6) 0.1195(2)
H1 H 0.1838 0.2022 0.1135
C4 C 0.0037(9) 0.3145(6) 0.1424(2)
H2 H -0.0545 0.2404 0.1563
C5 C -0.0322(8) 0.4669(6) 0.14184(19)
C6 C -0.1296(9) 0.9035(7) 0.1200(2)
H3 H -0.0799 0.9776 0.1037
C7 C -0.2771(9) 0.9193(7) 0.1390(2)
H4 H -0.3427 1.0034 0.1378
C8 C -0.3071(8) 0.7859(6) 0.1598(2)
H5 H -0.3973 0.7630 0.1757
C9 C -0.1803(8) 0.6926(6) 0.15285(19)
C10 C -0.3649(8) 0.3443(7) 0.1679(2)
H6 H -0.3543 0.3044 0.1388
C11 C -0.2759(8) 0.4610(6) 0.1854(2)
C12 C -0.3157(9) 0.4935(7) 0.2300(2)
H7 H -0.2670 0.5696 0.2475
C13 C -0.4380(8) 0.3991(6) 0.24615(18)
H8 H -0.4784 0.4031 0.2751
S1 S -0.4959(3) 0.2811(2) 0.20476(7)
C14 C 0.1380(8) 0.7741(6) 0.06875(19)
S2 S 0.0273(7) 0.7111(7) 0.0221(3)
C15 C 0.242(3) 0.880(2) 0.0564(12)
H9 H 0.3150 0.9274 0.0769
C16 C 0.227(5) 0.912(5) 0.0072(17)
H10 H 0.2894 0.9817 -0.0072
C17 C 0.110(6) 0.828(6) -0.0148(11)
H11 H 0.0793 0.8339 -0.0459
C18 C 0.2193(8) 0.7607(6) 0.16065(19)
C19 C 0.2733(8) 0.6742(6) 0.19667(18)
H12 H 0.2573 0.5716 0.1976
C20 C 0.3558(8) 0.7543(7) 0.2326(2)
H13 H 0.3999 0.7101 0.2593
C21 C 0.3636(8) 0.8995(7) 0.2241(2)
H14 H 0.4129 0.9690 0.2440
S3 S 0.2735(2) 0.94122(16) 0.17277(6)
C22 C 0.3392(8) 0.4603(7) 0.0850(2)
C23 C 0.4427(8) 0.5763(7) 0.08672(19)
H15 H 0.4227 0.6658 0.1014
C24 C 0.5853(9) 0.5483(8) 0.0639(2)
H16 H 0.6697 0.6162 0.0624
C25 C 0.5843(10) 0.4107(8) 0.0443(2)
H17 H 0.6672 0.3737 0.0276
S4 S 0.4154(3) 0.3150(2) 0.05389(6)
S5? S 0.258(2) 0.9233(15) 0.0583(6)
C26? C 0.071(5) 0.742(5) 0.0274(17)
H18? H -0.0008 0.6628 0.0233
C27? C 0.107(12) 0.825(12) -0.008(2)
H19? H 0.0673 0.8085 -0.0377
C28? C 0.200(10) 0.926(12) 0.004(4)
H20? H 0.2339 0.9982 -0.0161
loop_
_geom_bond_atom_site_label_1
_geom_bond_atom_site_label_2
_geom_bond_site_symmetry_1
_geom_bond_site_symmetry_2
B1 N1 1_555 1_555
N1 C2 1_555 1_555
N2 B1 1_555 1_555
C1 C5 1_555 1_555
C2 C3 1_555 1_555
C3 H1 1_555 1_555
C4 C3 1_555 1_555
H2 C4 1_555 1_555
C5 N1 1_555 1_555
C6 N2 1_555 1_555
H3 C6 1_555 1_555
C7 C6 1_555 1_555
H4 C7 1_555 1_555
C8 C7 1_555 1_555
H5 C8 1_555 1_555
C9 N2 1_555 1_555
C10 H6 1_555 1_555
C11 C1 1_555 1_555
C12 C11 1_555 1_555
H7 C12 1_555 1_555
C13 C12 1_555 1_555
H8 C13 1_555 1_555
S1 C10 1_555 1_555
C14 B1 1_555 1_555
S2 C14 1_555 1_555
C15 C14 1_555 1_555
H9 C15 1_555 1_555
C16 C15 1_555 1_555
H10 C16 1_555 1_555
C17 S2 1_555 1_555
H11 C17 1_555 1_555
C18 B1 1_555 1_555
C19 C18 1_555 1_555
H12 C19 1_555 1_555
C20 C19 1_555 1_555
H13 C20 1_555 1_555
C21 C20 1_555 1_555
H14 C21 1_555 1_555
S3 C18 1_555 1_555
C22 C2 1_555 1_555
C23 C22 1_555 1_555
H15 C23 1_555 1_555
C24 C23 1_555 1_555
H16 C24 1_555 1_555
C25 C24 1_555 1_555
H17 C25 1_555 1_555
S4 C22 1_555 1_555
C1 C9 1_555 1_555
C4 C5 1_555 1_555
C8 C9 1_555 1_555
C10 C11 1_555 1_555
C13 S1 1_555 1_555
C16 C17 1_555 1_555
C21 S3 1_555 1_555
C25 S4 1_555 1_555

#END
