
#######################################################################
#
#                 Cambridge Crystallographic Data Centre
#                                CCDC 
#
#######################################################################
#
# If this CIF has been generated from an entry in the Cambridge 
# Structural Database, then it will include bibliographic, chemical, 
# crystal, experimental, refinement or atomic coordinate data resulting 
# from the CCDC's data processing and validation procedures.
#
#######################################################################

data_JIVVUI
_chemical_formula_moiety         'C54 H54 N8 O3,2(C1 H1 Cl3)'
_chemical_name_systematic        
'10,28,45-trioxa-1,4,16,19,22,34,39,51-octaazaoctacyclo[17.17.17.2^6,9^.2^11,14^.2^24,27^.2^29,32^.2^41,44^.2^46,49^]pentahexaconta-4,6,8,11,13,15,22,24,26,29,31,33,39,41,43,46,48,50,54,56,58,60,62,64-tetracosaene chloroform solvate'
_symmetry_cell_setting           triclinic
_symmetry_space_group_name_H-M   'P -1'
_symmetry_Int_Tables_number      2
_space_group_name_Hall           '-P 1'
loop_
_symmetry_equiv_pos_site_id
_symmetry_equiv_pos_as_xyz
1 x,y,z
2 -x,-y,-z
_cell_length_a                   11.0189(7)
_cell_length_b                   13.6198(9)
_cell_length_c                   19.9453(13)
_cell_angle_alpha                107.462(2)
_cell_angle_beta                 94.4290(10)
_cell_angle_gamma                102.7690(10)
_cell_volume                     2751.39
_exptl_crystal_colour            colorless
_exptl_crystal_description       plate
_cell_formula_units_Z            2
loop_
_atom_site_label
_atom_site_type_symbol
_atom_site_fract_x
_atom_site_fract_y
_atom_site_fract_z
C1 C 0.6451(3) -0.1645(3) 0.57655(16)
H1 H 0.6314 -0.2315 0.5363
H2 H 0.6278 -0.1093 0.5571
C2 C 0.5544(3) -0.1814(3) 0.62787(17)
H3 H 0.4710 -0.2252 0.6008
H4 H 0.5856 -0.2203 0.6573
C3 C 0.5808(3) -0.0513(2) 0.73944(17)
H5 H 0.6208 -0.0957 0.7569
C4 C 0.5673(3) 0.0481(2) 0.79014(15)
C5 C 0.5269(3) 0.1249(3) 0.76784(16)
H6 H 0.5129 0.1156 0.7185
C6 C 0.5069(3) 0.2141(3) 0.81623(17)
H7 H 0.4792 0.2656 0.8002
C7 C 0.5275(3) 0.2280(2) 0.88789(16)
C8 C 0.5689(3) 0.1537(3) 0.91128(17)
H8 H 0.5835 0.1637 0.9607
C9 C 0.5890(3) 0.0649(3) 0.86260(16)
H9 H 0.6183 0.0143 0.8790
C10 C 0.5726(3) 0.3689(2) 1.00004(16)
C11 C 0.5135(3) 0.4201(2) 1.05388(16)
H10 H 0.4256 0.4137 1.0456
C12 C 0.5832(3) 0.4804(2) 1.11951(17)
H11 H 0.5425 0.5150 1.1565
C13 C 0.7132(3) 0.4914(2) 1.13260(16)
C14 C 0.7695(3) 0.4388(3) 1.07774(17)
H12 H 0.8573 0.4447 1.0857
C15 C 0.7004(3) 0.3782(3) 1.01170(16)
H13 H 0.7406 0.3431 0.9746
C16 C 0.7918(3) 0.5595(2) 1.20080(17)
H14 H 0.8797 0.5651 1.2055
C17 C 0.8413(4) 0.6809(3) 1.31548(17)
H15 H 0.8399 0.7558 1.3227
H16 H 0.9268 0.6739 1.3070
C18 C 0.8125(3) 0.6536(3) 1.38192(16)
H17 H 0.8577 0.7142 1.4244
H18 H 0.7211 0.6429 1.3836
C19 C 0.8247(3) -0.2224(3) 0.61451(17)
H19 H 0.8611 -0.2492 0.5709
H20 H 0.7542 -0.2804 0.6163
C20 C 0.9243(3) -0.1922(3) 0.67897(17)
H21 H 0.9760 -0.2444 0.6710
H22 H 0.9805 -0.1212 0.6859
C21 C 0.8930(3) -0.1045(3) 0.79340(17)
H23 H 0.9478 -0.0439 0.7878
C22 C 0.8440(3) -0.0922(3) 0.86126(16)
C23 C 0.7572(3) -0.1755(3) 0.87210(18)
H24 H 0.7257 -0.2409 0.8343
C24 C 0.7164(3) -0.1639(3) 0.93700(18)
H25 H 0.6572 -0.2211 0.9438
C25 C 0.7617(3) -0.0692(3) 0.99203(16)
C26 C 0.8468(3) 0.0139(3) 0.98261(18)
H26 H 0.8781 0.0790 1.0207
C27 C 0.8869(3) 0.0021(3) 0.91715(18)
H27 H 0.9450 0.0601 0.9106
C28 C 0.7121(3) 0.0297(2) 1.10329(16)
C29 C 0.6537(3) 0.0958(3) 1.07973(18)
H28 H 0.6261 0.0792 1.0304
C30 C 0.6358(3) 0.1856(3) 1.12790(18)
H29 H 0.5965 0.2311 1.1113
C31 C 0.6739(3) 0.2110(2) 1.20011(16)
C32 C 0.7322(3) 0.1429(3) 1.22290(16)
H30 H 0.7590 0.1588 1.2723
C33 C 0.7516(3) 0.0533(3) 1.17509(17)
H31 H 0.7919 0.0079 1.1913
C34 C 0.6506(3) 0.3058(3) 1.25151(18)
H32 H 0.6121 0.3507 1.2337
C35 C 0.6473(3) 0.4231(3) 1.36366(19)
H33 H 0.5789 0.4000 1.3893
H34 H 0.6167 0.4626 1.3345
C36 C 0.7611(3) 0.4955(3) 1.41685(17)
H35 H 0.7329 0.5444 1.4566
H36 H 0.8050 0.4519 1.4367
C37 C 0.8569(3) -0.0659(2) 0.57770(15)
H37 H 0.8251 -0.0904 0.5261
H38 H 0.9435 -0.0746 0.5837
C38 C 0.8599(3) 0.0513(3) 0.60963(16)
H39 H 0.8949 0.0904 0.5780
H40 H 0.7731 0.0587 0.6136
C39 C 0.8900(3) 0.1463(2) 0.73081(16)
H41 H 0.8048 0.1488 0.7228
C40 C 0.9625(3) 0.2003(2) 0.80252(16)
C41 C 0.9127(3) 0.2653(3) 0.85533(17)
H42 H 0.8293 0.2710 0.8454
C42 C 0.9826(3) 0.3218(3) 0.92204(17)
H43 H 0.9484 0.3674 0.9572
C43 C 1.1026(3) 0.3110(2) 0.93675(15)
C44 C 1.1543(3) 0.2467(2) 0.88575(16)
H44 H 1.2370 0.2399 0.8964
C45 C 1.0849(3) 0.1925(2) 0.81915(15)
H45 H 1.1210 0.1490 0.7838
C46 C 1.1302(3) 0.3801(2) 1.06408(16)
C47 C 1.0372(3) 0.3014(3) 1.07341(17)
H46 H 0.9990 0.2384 1.0347
C48 C 0.9997(3) 0.3145(3) 1.13940(17)
H47 H 0.9357 0.2600 1.1456
C49 C 1.0538(3) 0.4060(3) 1.19667(16)
C50 C 1.1455(3) 0.4855(3) 1.18544(17)
H48 H 1.1821 0.5496 1.2236
C51 C 1.1840(3) 0.4730(3) 1.11991(16)
H49 H 1.2472 0.5277 1.1132
C52 C 1.0169(3) 0.4152(3) 1.26719(17)
H50 H 0.9444 0.3655 1.2709
C53 C 1.0369(3) 0.4886(3) 1.39108(17)
H51 H 1.1097 0.4952 1.4260
H52 H 0.9742 0.4209 1.3850
C54 C 0.9786(3) 0.5817(3) 1.41899(17)
H53 H 0.9804 0.5984 1.4710
H54 H 1.0294 0.6453 1.4105
N1 N 0.7766(2) -0.13162(19) 0.61129(12)
N2 N 0.8488(2) 0.5580(2) 1.38453(13)
N3 N 0.5415(2) -0.0795(2) 0.67406(13)
N4 N 0.7494(3) 0.6108(2) 1.25327(14)
N5 N 0.8664(3) -0.1901(2) 0.74269(15)
N6 N 0.6792(2) 0.3300(2) 1.31748(15)
N7 N 0.9368(2) 0.0970(2) 0.67976(13)
N8 N 1.0784(3) 0.4870(2) 1.32285(14)
O1 O 0.4986(2) 0.31554(18) 0.93401(11)
O2 O 0.7246(2) -0.06578(18) 1.05747(12)
O3 O 1.17963(18) 0.36948(17) 1.00138(11)
C55 C 0.7077(3) 0.0544(3) 0.39534(17)
H55 H 0.6464 0.0629 0.3592
Cl1 Cl 0.81327(10) 0.17983(9) 0.44071(6)
Cl2 Cl 0.79341(9) -0.03262(9) 0.35122(6)
Cl3 Cl 0.62438(10) 0.00520(10) 0.45423(6)
C56 C 0.6394(4) 0.3821(3) 0.6335(2)
H56 H 0.7218 0.4312 0.6604
Cl4 Cl 0.59114(11) 0.42538(13) 0.56347(6)
Cl5 Cl 0.65842(19) 0.25439(13) 0.59975(12)
Cl6 Cl 0.52841(10) 0.38449(11) 0.69111(6)
loop_
_geom_bond_atom_site_label_1
_geom_bond_atom_site_label_2
_geom_bond_site_symmetry_1
_geom_bond_site_symmetry_2
C1 H1 1_555 1_555
H2 C1 1_555 1_555
C2 C1 1_555 1_555
H3 C2 1_555 1_555
H4 C2 1_555 1_555
C3 H5 1_555 1_555
C4 C3 1_555 1_555
C5 C4 1_555 1_555
H6 C5 1_555 1_555
C6 C5 1_555 1_555
H7 C6 1_555 1_555
C7 C6 1_555 1_555
C8 C7 1_555 1_555
H8 C8 1_555 1_555
C9 C4 1_555 1_555
H9 C9 1_555 1_555
C10 C11 1_555 1_555
C11 H10 1_555 1_555
C12 C11 1_555 1_555
H11 C12 1_555 1_555
C13 C12 1_555 1_555
C14 C13 1_555 1_555
H12 C14 1_555 1_555
C15 C10 1_555 1_555
H13 C15 1_555 1_555
C16 C13 1_555 1_555
H14 C16 1_555 1_555
C17 H15 1_555 1_555
H16 C17 1_555 1_555
C18 C17 1_555 1_555
H17 C18 1_555 1_555
H18 C18 1_555 1_555
C19 H19 1_555 1_555
H20 C19 1_555 1_555
C20 C19 1_555 1_555
H21 C20 1_555 1_555
H22 C20 1_555 1_555
C21 H23 1_555 1_555
C22 C21 1_555 1_555
C23 C22 1_555 1_555
H24 C23 1_555 1_555
C24 C23 1_555 1_555
H25 C24 1_555 1_555
C25 C24 1_555 1_555
C26 C25 1_555 1_555
H26 C26 1_555 1_555
C27 C22 1_555 1_555
H27 C27 1_555 1_555
C28 C29 1_555 1_555
C29 H28 1_555 1_555
C30 C29 1_555 1_555
H29 C30 1_555 1_555
C31 C30 1_555 1_555
C32 C31 1_555 1_555
H30 C32 1_555 1_555
C33 C28 1_555 1_555
H31 C33 1_555 1_555
C34 C31 1_555 1_555
H32 C34 1_555 1_555
C35 H33 1_555 1_555
H34 C35 1_555 1_555
C36 C35 1_555 1_555
H35 C36 1_555 1_555
H36 C36 1_555 1_555
C37 H37 1_555 1_555
H38 C37 1_555 1_555
C38 C37 1_555 1_555
H39 C38 1_555 1_555
H40 C38 1_555 1_555
C39 H41 1_555 1_555
C40 C39 1_555 1_555
C41 C40 1_555 1_555
H42 C41 1_555 1_555
C42 C41 1_555 1_555
H43 C42 1_555 1_555
C43 C42 1_555 1_555
C44 C43 1_555 1_555
H44 C44 1_555 1_555
C45 C40 1_555 1_555
H45 C45 1_555 1_555
C46 C47 1_555 1_555
C47 H46 1_555 1_555
C48 C47 1_555 1_555
H47 C48 1_555 1_555
C49 C48 1_555 1_555
C50 C49 1_555 1_555
H48 C50 1_555 1_555
C51 C46 1_555 1_555
H49 C51 1_555 1_555
C52 C49 1_555 1_555
H50 C52 1_555 1_555
C53 H51 1_555 1_555
H52 C53 1_555 1_555
C54 C53 1_555 1_555
H53 C54 1_555 1_555
H54 C54 1_555 1_555
N1 C1 1_555 1_555
N2 C18 1_555 1_555
N3 C2 1_555 1_555
N4 C16 1_555 1_555
N5 C20 1_555 1_555
N6 C34 1_555 1_555
N7 C38 1_555 1_555
N8 C52 1_555 1_555
O1 C7 1_555 1_555
O2 C25 1_555 1_555
O3 C43 1_555 1_555
C55 H55 1_555 1_555
Cl1 C55 1_555 1_555
Cl2 C55 1_555 1_555
Cl3 C55 1_555 1_555
C56 H56 1_555 1_555
Cl4 C56 1_555 1_555
Cl5 C56 1_555 1_555
Cl6 C56 1_555 1_555
C3 N3 1_555 1_555
C8 C9 1_555 1_555
C10 O1 1_555 1_555
C14 C15 1_555 1_555
C17 N4 1_555 1_555
C19 N1 1_555 1_555
C21 N5 1_555 1_555
C26 C27 1_555 1_555
C28 O2 1_555 1_555
C32 C33 1_555 1_555
C35 N6 1_555 1_555
C36 N2 1_555 1_555
C37 N1 1_555 1_555
C39 N7 1_555 1_555
C44 C45 1_555 1_555
C46 O3 1_555 1_555
C50 C51 1_555 1_555
C53 N8 1_555 1_555
C54 N2 1_555 1_555

#END
