
#######################################################################
#
#                 Cambridge Crystallographic Data Centre
#                                CCDC 
#
#######################################################################
#
# If this CIF has been generated from an entry in the Cambridge 
# Structural Database, then it will include bibliographic, chemical, 
# crystal, experimental, refinement or atomic coordinate data resulting 
# from the CCDC's data processing and validation procedures.
#
#######################################################################

data_JIVWAP
_chemical_formula_moiety         'C54 H54 N8,2(C1 H1 Cl3),0.5(C4 H10 O1)'
_chemical_name_systematic        
'1,4,15,18,21,32,37,48-octaazaoctacyclo[16.16.16.2^6,9^.2^10,13^.2^23,26^.2^27,30^.2^39,42^.2^43,46^]dohexaconta-4,6,8,10,12,14,21,23,25,27,29,31,37,39,41,43,45,47,51,53,55,57,59,61-tetracosaene chloroform diethyl ether solvate'
_symmetry_cell_setting           triclinic
_symmetry_space_group_name_H-M   'P -1'
_symmetry_Int_Tables_number      2
_space_group_name_Hall           '-P 1'
loop_
_symmetry_equiv_pos_site_id
_symmetry_equiv_pos_as_xyz
1 x,y,z
2 -x,-y,-z
_cell_length_a                   13.0425(10)
_cell_length_b                   13.2880(10)
_cell_length_c                   19.2843(15)
_cell_angle_alpha                98.778(2)
_cell_angle_beta                 100.254(2)
_cell_angle_gamma                118.655(2)
_cell_volume                     2774.21
_exptl_crystal_colour            yellow
_exptl_crystal_description       prism
_cell_formula_units_Z            2
loop_
_atom_site_label
_atom_site_type_symbol
_atom_site_fract_x
_atom_site_fract_y
_atom_site_fract_z
C55 C 0.9534(5) 0.3374(4) 0.3076(3)
H55 H 0.8966 0.2567 0.2722
Cl1 Cl 1.10357(17) 0.3827(2) 0.30476(10)
Cl2 Cl 0.93851(18) 0.32733(18) 0.39267(10)
Cl3 Cl 0.91332(11) 0.43491(13) 0.28107(10)
C56 C 0.6937(4) 0.2738(4) 0.5829(2)
H56 H 0.6684 0.3252 0.6090
Cl4 Cl 0.7686(2) 0.34407(19) 0.52389(11)
Cl5 Cl 0.56442(16) 0.13702(16) 0.53656(14)
Cl6 Cl 0.78976(14) 0.25529(16) 0.64836(9)
C1 C 0.7333(2) 0.9010(2) -0.29828(15)
H1 H 0.7921 0.9865 -0.2731
H2 H 0.7172 0.8917 -0.3517
C2 C 0.7920(3) 0.8301(3) -0.27809(15)
H3 H 0.7344 0.7445 -0.3036
H4 H 0.8661 0.8566 -0.2948
C3 C 0.7858(2) 0.7520(3) -0.17871(16)
H5 H 0.7366 0.6777 -0.2153
C4 C 0.8109(2) 0.7498(2) -0.10167(16)
C5 C 0.7907(3) 0.6436(2) -0.08581(15)
H6 H 0.7620 0.5749 -0.1249
C6 C 0.8118(3) 0.6369(2) -0.01470(16)
H7 H 0.7991 0.5643 -0.0053
C7 C 0.8517(2) 0.7357(2) 0.04407(15)
C8 C 0.8715(2) 0.8425(2) 0.02827(16)
H8 H 0.8985 0.9107 0.0673
C9 C 0.8524(2) 0.8495(2) -0.04297(16)
H9 H 0.8676 0.9227 -0.0525
C10 C 0.8682(2) 0.7263(2) 0.12085(15)
C11 C 0.7955(3) 0.6200(2) 0.13623(16)
H10 H 0.7370 0.5517 0.0968
C12 C 0.8059(3) 0.6106(2) 0.20708(16)
H11 H 0.7545 0.5367 0.2159
C13 C 0.8920(3) 0.7099(2) 0.26616(16)
C14 C 0.9683(3) 0.8148(2) 0.25078(16)
H12 H 1.0300 0.8817 0.2900
C15 C 0.9571(3) 0.8245(2) 0.17999(16)
H13 H 1.0098 0.8980 0.1712
C16 C 0.9041(3) 0.7048(3) 0.34244(16)
H14 H 0.9732 0.7697 0.3794
C17 C 0.8577(3) 0.6265(3) 0.43995(17)
H15 H 0.9352 0.7021 0.4666
H16 H 0.8693 0.5598 0.4466
C18 C 0.7573(3) 0.6202(3) 0.47226(17)
H17 H 0.6807 0.5438 0.4454
H18 H 0.7786 0.6189 0.5239
C19 C 0.5857(3) 0.9556(2) -0.28590(16)
H19 H 0.5000 0.9220 -0.2850
H20 H 0.5901 0.9725 -0.3339
C20 C 0.6662(3) 1.0727(3) -0.22547(16)
H21 H 0.7526 1.1049 -0.2244
H22 H 0.6441 1.1314 -0.2364
C21 C 0.7485(3) 1.0927(2) -0.10341(16)
H23 H 0.8245 1.1301 -0.1141
C22 C 0.7497(2) 1.0803(2) -0.02878(15)
C23 C 0.8591(3) 1.1384(3) 0.02702(17)
H24 H 0.9329 1.1889 0.0170
C24 C 0.8627(2) 1.1245(3) 0.09606(17)
H25 H 0.9388 1.1656 0.1331
C25 C 0.7554(2) 1.0505(2) 0.11304(16)
C26 C 0.6451(2) 0.9946(2) 0.05704(17)
H26 H 0.5708 0.9452 0.0671
C27 C 0.6422(2) 1.0096(2) -0.01181(16)
H27 H 0.5661 0.9715 -0.0485
C28 C 0.7585(2) 1.0300(2) 0.18620(16)
C29 C 0.8562(3) 1.0278(3) 0.22773(17)
H28 H 0.9228 1.0415 0.2088
C30 C 0.8587(3) 1.0063(3) 0.29549(18)
H29 H 0.9266 1.0052 0.3223
C31 C 0.7630(3) 0.9861(3) 0.32506(17)
C32 C 0.6661(3) 0.9895(3) 0.28483(19)
H30 H 0.6006 0.9772 0.3046
C33 C 0.6625(3) 1.0103(3) 0.21651(18)
H31 H 0.5945 1.0112 0.1899
C34 C 0.7635(3) 0.9644(3) 0.39779(18)
H32 H 0.6969 0.9542 0.4158
C35 C 0.8377(3) 0.9407(3) 0.50936(17)
H33 H 0.7607 0.9327 0.5157
H34 H 0.9064 1.0115 0.5479
C36 C 0.8400(3) 0.8303(3) 0.51843(16)
H35 H 0.9146 0.8368 0.5087
H36 H 0.8454 0.8284 0.5700
C37 C 0.5213(3) 0.7482(2) -0.32608(15)
H37 H 0.5519 0.6928 -0.3278
H38 H 0.4989 0.7538 -0.3766
C38 C 0.4081(3) 0.6968(3) -0.30031(16)
H39 H 0.3751 0.7501 -0.3002
H40 H 0.3450 0.6181 -0.3347
C39 C 0.3989(2) 0.7248(2) -0.17984(16)
H41 H 0.3582 0.7651 -0.1932
C40 C 0.4179(2) 0.7122(2) -0.10512(15)
C41 C 0.5093(3) 0.6924(3) -0.07436(16)
H42 H 0.5619 0.6888 -0.1017
C42 C 0.5245(3) 0.6779(3) -0.00448(17)
H43 H 0.5889 0.6666 0.0159
C43 C 0.4469(2) 0.6793(2) 0.03707(15)
C44 C 0.3574(2) 0.7025(2) 0.00582(16)
H44 H 0.3047 0.7064 0.0330
C45 C 0.3438(2) 0.7196(2) -0.06311(16)
H45 H 0.2833 0.7366 -0.0822
C46 C 0.4606(2) 0.6581(2) 0.10975(15)
C47 C 0.5073(3) 0.5871(3) 0.12659(18)
H46 H 0.5313 0.5530 0.0906
C48 C 0.5196(3) 0.5650(3) 0.19428(18)
H47 H 0.5512 0.5157 0.2039
C49 C 0.4865(3) 0.6135(3) 0.24832(16)
C50 C 0.4367(3) 0.6828(3) 0.23185(18)
H48 H 0.4112 0.7153 0.2676
C51 C 0.4246(3) 0.7040(3) 0.16404(17)
H49 H 0.3907 0.7514 0.1540
C52 C 0.5046(3) 0.5893(3) 0.31991(18)
H50 H 0.5414 0.5433 0.3265
C53 C 0.5048(3) 0.5925(3) 0.43996(18)
H51 H 0.5091 0.5199 0.4270
H52 H 0.4387 0.5740 0.4635
C54 C 0.6259(3) 0.6927(3) 0.49428(16)
H53 H 0.6230 0.7665 0.5038
H54 H 0.6346 0.6717 0.5412
N1 N 0.61955(19) 0.86604(18) -0.27964(12)
N2 N 0.7339(2) 0.7176(2) 0.47057(13)
N3 N 0.8250(2) 0.8458(2) -0.19951(13)
N4 N 0.8285(2) 0.6198(2) 0.36180(14)
N5 N 0.6527(2) 1.0568(2) -0.15423(13)
N6 N 0.8473(2) 0.9587(2) 0.43716(14)
N7 N 0.4354(2) 0.6834(2) -0.22725(13)
N8 N 0.4754(2) 0.6245(2) 0.37299(14)
loop_
_geom_bond_atom_site_label_1
_geom_bond_atom_site_label_2
_geom_bond_site_symmetry_1
_geom_bond_site_symmetry_2
C1 H1 1_555 1_555
H2 C1 1_555 1_555
C2 C1 1_555 1_555
H3 C2 1_555 1_555
H4 C2 1_555 1_555
C3 H5 1_555 1_555
C4 C3 1_555 1_555
C5 C4 1_555 1_555
H6 C5 1_555 1_555
C6 C5 1_555 1_555
H7 C6 1_555 1_555
C7 C6 1_555 1_555
C8 C7 1_555 1_555
H8 C8 1_555 1_555
C9 C4 1_555 1_555
H9 C9 1_555 1_555
C10 C7 1_555 1_555
C11 C10 1_555 1_555
H10 C11 1_555 1_555
C12 C11 1_555 1_555
H11 C12 1_555 1_555
C13 C12 1_555 1_555
C14 C13 1_555 1_555
H12 C14 1_555 1_555
C15 C10 1_555 1_555
H13 C15 1_555 1_555
C16 C13 1_555 1_555
H14 C16 1_555 1_555
C17 H15 1_555 1_555
H16 C17 1_555 1_555
C18 C17 1_555 1_555
H17 C18 1_555 1_555
H18 C18 1_555 1_555
C19 H19 1_555 1_555
H20 C19 1_555 1_555
C20 C19 1_555 1_555
H21 C20 1_555 1_555
H22 C20 1_555 1_555
C21 H23 1_555 1_555
C22 C21 1_555 1_555
C23 C22 1_555 1_555
H24 C23 1_555 1_555
C24 C23 1_555 1_555
H25 C24 1_555 1_555
C25 C24 1_555 1_555
C26 C25 1_555 1_555
H26 C26 1_555 1_555
C27 C22 1_555 1_555
H27 C27 1_555 1_555
C28 C25 1_555 1_555
C29 C28 1_555 1_555
H28 C29 1_555 1_555
C30 C29 1_555 1_555
H29 C30 1_555 1_555
C31 C30 1_555 1_555
C32 C31 1_555 1_555
H30 C32 1_555 1_555
C33 C28 1_555 1_555
H31 C33 1_555 1_555
C34 C31 1_555 1_555
H32 C34 1_555 1_555
C35 H33 1_555 1_555
H34 C35 1_555 1_555
C36 C35 1_555 1_555
H35 C36 1_555 1_555
H36 C36 1_555 1_555
C37 H37 1_555 1_555
H38 C37 1_555 1_555
C38 C37 1_555 1_555
H39 C38 1_555 1_555
H40 C38 1_555 1_555
C39 H41 1_555 1_555
C40 C39 1_555 1_555
C41 C40 1_555 1_555
H42 C41 1_555 1_555
C42 C41 1_555 1_555
H43 C42 1_555 1_555
C43 C42 1_555 1_555
C44 C43 1_555 1_555
H44 C44 1_555 1_555
C45 C40 1_555 1_555
H45 C45 1_555 1_555
C46 C43 1_555 1_555
C47 C46 1_555 1_555
H46 C47 1_555 1_555
C48 C47 1_555 1_555
H47 C48 1_555 1_555
C49 C48 1_555 1_555
C50 C49 1_555 1_555
H48 C50 1_555 1_555
C51 C46 1_555 1_555
H49 C51 1_555 1_555
C52 C49 1_555 1_555
H50 C52 1_555 1_555
C53 H51 1_555 1_555
H52 C53 1_555 1_555
C54 C53 1_555 1_555
H53 C54 1_555 1_555
H54 C54 1_555 1_555
N1 C1 1_555 1_555
N2 C18 1_555 1_555
N3 C2 1_555 1_555
N4 C16 1_555 1_555
N5 C20 1_555 1_555
N6 C34 1_555 1_555
N7 C38 1_555 1_555
N8 C52 1_555 1_555
C55 H55 1_555 1_555
Cl1 C55 1_555 1_555
Cl2 C55 1_555 1_555
Cl3 C55 1_555 1_555
C56 H56 1_555 1_555
Cl4 C56 1_555 1_555
Cl5 C56 1_555 1_555
Cl6 C56 1_555 1_555
C3 N3 1_555 1_555
C8 C9 1_555 1_555
C14 C15 1_555 1_555
C17 N4 1_555 1_555
C19 N1 1_555 1_555
C21 N5 1_555 1_555
C26 C27 1_555 1_555
C32 C33 1_555 1_555
C35 N6 1_555 1_555
C36 N2 1_555 1_555
C37 N1 1_555 1_555
C39 N7 1_555 1_555
C44 C45 1_555 1_555
C50 C51 1_555 1_555
C53 N8 1_555 1_555
C54 N2 1_555 1_555

#END
