
#######################################################################
#
#                 Cambridge Crystallographic Data Centre
#                                CCDC 
#
#######################################################################
#
# If this CIF has been generated from an entry in the Cambridge 
# Structural Database, then it will include bibliographic, chemical, 
# crystal, experimental, refinement or atomic coordinate data resulting 
# from the CCDC's data processing and validation procedures.
#
#######################################################################

data_JIVWOD
_chemical_formula_moiety         'C64 H96 B2 N4 Si4'
_chemical_name_systematic        
4,4',9,9'-tetrakis{[triisopropylsilyl]ethynyl}-1,1',3,3'-tetrahydro-2,2'-binaphtho[2,3-d][1,3,2]diazaborole
_symmetry_cell_setting           triclinic
_symmetry_space_group_name_H-M   'P -1'
_symmetry_Int_Tables_number      2
_space_group_name_Hall           '-P 1'
loop_
_symmetry_equiv_pos_site_id
_symmetry_equiv_pos_as_xyz
1 x,y,z
2 -x,-y,-z
_cell_length_a                   14.598(2)
_cell_length_b                   14.930(2)
_cell_length_c                   31.428(5)
_cell_angle_alpha                81.090(5)
_cell_angle_beta                 82.566(5)
_cell_angle_gamma                89.760(5)
_cell_volume                     6709.26
_exptl_crystal_colour            'pale yellow'
_exptl_crystal_description       block
_cell_formula_units_Z            4
_chemical_properties_physical    Air-sensitive
_exptl_crystal_preparation       Luminescent
loop_
_atom_site_label
_atom_site_type_symbol
_atom_site_fract_x
_atom_site_fract_y
_atom_site_fract_z
Si1 Si 0.9869(2) 0.2792(2) 0.39415(9)
Si2 Si 0.57883(14) 0.95918(13) 0.35791(9)
C1 C 0.6726(10) 0.7781(7) 0.3790(4)
C2 C 0.6348(5) 0.8502(5) 0.3706(3)
C3 C 0.6332(8) 1.0400(6) 0.3872(4)
H1 H 0.626258 1.009128 0.418018
C4 C 0.7388(9) 1.0512(12) 0.3742(7)
H2 H 0.751585 1.087797 0.345276
H3 H 0.766418 0.99141 0.37361
H4 H 0.765303 1.081581 0.395346
C5 C 0.5793(11) 1.1271(8) 0.3889(6)
H5 H 0.606603 1.163767 0.407497
H6 H 0.514816 1.112244 0.400862
H7 H 0.581761 1.161376 0.359555
C6 C 0.4524(6) 0.9409(6) 0.3772(3)
H8 H 0.422857 1.001637 0.373781
C7 C 0.4068(6) 0.8827(7) 0.3491(4)
H9 H 0.423865 0.819137 0.356498
H10 H 0.428099 0.903997 0.31829
H11 H 0.33953 0.887836 0.35449
C8 C 0.4377(8) 0.9012(9) 0.4266(4)
H12 H 0.371401 0.893066 0.436572
H13 H 0.464263 0.943132 0.442931
H14 H 0.46814 0.842522 0.431195
C9 C 0.5967(6) 0.9904(6) 0.2959(3)
H15 H 0.560794 0.94404 0.284759
C10 C 0.5558(9) 1.0816(8) 0.2800(4)
H16 H 0.583053 1.129057 0.292972
H17 H 0.488751 1.079224 0.288434
H18 H 0.56936 1.095355 0.248251
C11 C 0.6960(7) 0.9859(7) 0.2740(3)
H19 H 0.695904 0.986251 0.242759
H20 H 0.724315 0.930109 0.286611
H21 H 0.731374 1.038496 0.278471
B1 B 0.8267(5) 0.6513(4) 0.2779(2)
B2 B 0.8504(5) 0.6697(4) 0.2239(2)
C12 C 0.8217(4) 0.5900(3) 0.35010(16)
C13 C 0.8334(3) 0.5378(3) 0.38940(16)
C14 C 0.7889(3) 0.5648(3) 0.42832(16)
C15 C 0.7991(4) 0.5146(4) 0.46965(17)
H22 H 0.836297 0.462171 0.471496
C16 C 0.7557(4) 0.5411(4) 0.50684(18)
H23 H 0.763403 0.507309 0.534311
C17 C 0.6998(4) 0.6179(4) 0.50453(19)
H24 H 0.669385 0.635563 0.530463
C18 C 0.6888(4) 0.6679(4) 0.46500(18)
H25 H 0.650706 0.719702 0.463951
C19 C 0.7331(3) 0.6434(3) 0.42598(17)
C20 C 0.7221(4) 0.6964(3) 0.38471(18)
C21 C 0.7665(4) 0.6674(3) 0.34815(17)
C22 C 0.8891(13) 0.4589(8) 0.3903(7)
C23 C 0.9334(9) 0.3905(6) 0.3892(4)
C24 C 0.9403(6) 0.2127(6) 0.3555(3)
H26 H 0.881017 0.184275 0.371208
C25 C 0.9163(10) 0.2660(8) 0.3139(4)
H27 H 0.972931 0.290825 0.295849
H28 H 0.875599 0.315812 0.320567
H29 H 0.884593 0.22621 0.298304
C26 C 1.0016(8) 0.1341(7) 0.3441(4)
H30 H 0.974069 0.10345 0.323302
H31 H 1.006768 0.090994 0.370514
H32 H 1.06315 0.157683 0.33115
C27 C 0.9522(6) 0.2282(6) 0.4531(3)
H33 H 0.973631 0.271855 0.470976
C28 C 0.9984(7) 0.1391(7) 0.4661(4)
H34 H 0.986614 0.121747 0.497739
H35 H 1.065097 0.145734 0.457013
H36 H 0.973296 0.092139 0.452086
C29 C 0.8483(6) 0.2194(6) 0.4644(3)
H37 H 0.825007 0.172344 0.449825
H38 H 0.819998 0.277436 0.454692
H39 H 0.832594 0.202896 0.495874
C30 C 1.1160(7) 0.2981(9) 0.3828(4)
H40 H 1.145212 0.237054 0.385507
C31 C 1.1456(10) 0.3465(12) 0.3365(4)
H41 H 1.115842 0.405605 0.332379
H42 H 1.127106 0.309676 0.315705
H43 H 1.212893 0.355248 0.331727
C32 C 1.1513(8) 0.3486(8) 0.4161(4)
H44 H 1.218023 0.359463 0.408675
H45 H 1.138621 0.312239 0.445038
H46 H 1.119914 0.406817 0.416051
C33 C 0.9172(4) 0.6659(3) 0.15388(17)
C34 C 0.9708(4) 0.6492(3) 0.11679(17)
C35 C 0.9430(3) 0.6870(3) 0.07565(16)
C36 C 0.9947(4) 0.6709(4) 0.03638(18)
H47 H 1.04846 0.634854 0.037109
C37 C 0.9674(4) 0.7072(4) -0.00295(18)
H48 H 1.002091 0.695549 -0.029189
C38 C 0.8892(4) 0.7611(4) -0.00455(18)
H49 H 0.87128 0.785934 -0.031881
C39 C 0.8381(3) 0.7783(3) 0.03273(17)
H50 H 0.785475 0.815717 0.030959
C40 C 0.8622(3) 0.7415(3) 0.07397(16)
C41 C 0.8070(3) 0.7569(3) 0.11299(16)
C42 C 0.8353(3) 0.7189(3) 0.15185(16)
C43 C 1.0512(4) 0.5942(3) 0.12073(17)
C44 C 1.1175(4) 0.5473(4) 0.12608(19)
C45 C 1.1711(5) 0.3644(4) 0.1700(3)
H51 H 1.226004 0.326748 0.176296
C46 C 1.1134(6) 0.3102(5) 0.1473(3)
H52 H 1.093314 0.253592 0.166435
H53 H 1.149692 0.296271 0.120736
H54 H 1.059111 0.345047 0.139839
C47 C 1.1196(7) 0.3782(7) 0.2139(3)
H55 H 1.065761 0.416206 0.209384
H56 H 1.160855 0.407945 0.229854
H57 H 1.099091 0.319214 0.230719
C48 C 1.2952(5) 0.5362(5) 0.1656(2)
H58 H 1.330347 0.582092 0.142903
C49 C 1.3681(5) 0.4750(6) 0.1855(3)
H59 H 1.412791 0.512112 0.196054
H60 H 1.400111 0.442232 0.163364
H61 H 1.337928 0.431376 0.20975
C50 C 1.2466(6) 0.5904(6) 0.1999(3)
H62 H 1.215737 0.548239 0.224558
H63 H 1.200687 0.630143 0.1869
H64 H 1.292455 0.627076 0.209939
C51 C 1.2814(5) 0.4493(5) 0.0831(2)
H65 H 1.311406 0.389386 0.090103
C52 C 1.3587(6) 0.5163(8) 0.0637(3)
H66 H 1.383355 0.504025 0.034659
H67 H 1.407928 0.510271 0.082295
H68 H 1.334747 0.578052 0.061451
C53 C 1.2166(7) 0.4370(7) 0.0503(3)
H69 H 1.179878 0.491694 0.04495
H70 H 1.175327 0.384819 0.061808
H71 H 1.252727 0.426485 0.02307
C54 C 0.7232(4) 0.8082(3) 0.11375(16)
C55 C 0.6534(4) 0.8493(4) 0.11787(19)
C56 C 0.4603(5) 0.8689(5) 0.0929(3)
H72 H 0.496392 0.865528 0.063958
C57 C 0.4269(6) 0.7715(5) 0.1110(4)
H73 H 0.387898 0.770638 0.138887
H74 H 0.480327 0.732713 0.115163
H75 H 0.391086 0.748928 0.090428
C58 C 0.3814(6) 0.9329(6) 0.0836(4)
H76 H 0.343625 0.908081 0.064445
H77 H 0.406667 0.992327 0.069415
H78 H 0.343136 0.939363 0.11093
C59 C 0.5722(4) 1.0351(4) 0.1041(2)
H79 H 0.51268 1.068373 0.106947
C60 C 0.6372(6) 1.0779(5) 0.1300(3)
H80 H 0.69398 1.042741 0.130809
H81 H 0.606855 1.077968 0.15968
H82 H 0.652461 1.140342 0.116091
C61 C 0.6102(6) 1.0496(5) 0.0554(3)
H83 H 0.620993 1.114476 0.045038
H84 H 0.565255 1.026123 0.039111
H85 H 0.668447 1.017311 0.051181
C62 C 0.5118(6) 0.8986(5) 0.1865(3)
H86 H 0.560214 0.931304 0.198227
C63 C 0.4191(8) 0.9463(8) 0.1979(3)
H87 H 0.368794 0.914525 0.188302
H88 H 0.422997 1.009318 0.183214
H89 H 0.407054 0.945191 0.229392
C64 C 0.5076(8) 0.8010(6) 0.2107(3)
H90 H 0.501428 0.801858 0.242097
H91 H 0.564374 0.769845 0.201778
H92 H 0.454263 0.769018 0.203824
N1 N 0.8576(3) 0.5794(3) 0.30845(14)
H93 H 0.89396 0.535248 0.301591
N2 N 0.7689(3) 0.7049(3) 0.30468(15)
H94 H 0.739631 0.754012 0.294967
N3 N 0.9256(3) 0.6377(3) 0.19729(15)
H95 H 0.970899 0.604793 0.206946
N4 N 0.7949(3) 0.7202(3) 0.19384(14)
H96 H 0.743145 0.747581 0.20124
Si3 Si 1.21797(10) 0.47566(10) 0.13650(5)
Si4 Si 0.54487(11) 0.91315(10) 0.12581(6)
B3 B 0.3097(4) 0.1557(4) 0.27774(19)
B4 B 0.3313(4) 0.1733(4) 0.22346(19)
C87 C 0.2625(3) 0.0919(3) 0.34904(16)
C88 C 0.2254(3) 0.0377(3) 0.38711(16)
C89 C 0.2452(3) 0.0622(3) 0.42702(16)
C90 C 0.2097(4) 0.0097(4) 0.46741(18)
H139 H 0.172386 -0.042445 0.467715
C91 C 0.2282(5) 0.0329(4) 0.50559(19)
H140 H 0.202416 -0.002036 0.532305
C92 C 0.2858(5) 0.1090(4) 0.5057(2)
H141 H 0.300133 0.123852 0.532439
C93 C 0.3210(5) 0.1611(4) 0.46729(18)
H142 H 0.359149 0.212276 0.467718
C94 C 0.3016(4) 0.1401(3) 0.42729(16)
C95 C 0.3384(3) 0.1953(3) 0.38695(16)
C96 C 0.3176(3) 0.1699(3) 0.34933(16)
C97 C 0.1740(4) -0.0420(3) 0.38462(17)
C98 C 0.1349(4) -0.1093(4) 0.37995(18)
C99 C 0.1455(5) -0.2617(5) 0.3274(3)
H143 H 0.20385 -0.289037 0.336613
C100 C 0.0909(7) -0.3396(7) 0.3142(4)
H144 H 0.044975 -0.313908 0.295752
H145 H 0.059492 -0.377008 0.340324
H146 H 0.133614 -0.377044 0.298091
C101 C 0.1754(8) -0.1874(7) 0.2882(3)
H147 H 0.217695 -0.213059 0.266535
H148 H 0.206639 -0.137786 0.2979
H149 H 0.120738 -0.164264 0.275192
C102 C -0.0438(4) -0.2029(4) 0.3734(2)
H150 H -0.071595 -0.263578 0.37258
C103 C -0.0647(5) -0.1401(5) 0.3330(3)
H151 H -0.131714 -0.133807 0.333737
H152 H -0.039657 -0.165603 0.307048
H153 H -0.03618 -0.080405 0.332092
C104 C -0.0904(5) -0.1696(5) 0.4147(3)
H154 H -0.065191 -0.109741 0.416382
H155 H -0.078518 -0.212456 0.440263
H156 H -0.157117 -0.165544 0.413752
C105 C 0.1033(5) -0.2945(4) 0.4282(3)
H157 H 0.078999 -0.261183 0.452427
C106 C 0.2064(5) -0.3092(6) 0.4314(3)
H158 H 0.21421 -0.339303 0.460661
H159 H 0.239038 -0.250426 0.425468
H160 H 0.231939 -0.347134 0.410053
C107 C 0.0508(6) -0.3853(5) 0.4364(4)
H161 H 0.070905 -0.41975 0.412783
H162 H -0.015643 -0.374455 0.437557
H163 H 0.063618 -0.41997 0.464048
C108 C 0.3927(4) 0.2755(3) 0.38407(16)
C109 C 0.4387(4) 0.3444(4) 0.37663(18)
C110 C 0.5874(6) 0.4278(6) 0.3072(3)
H164 H 0.599145 0.489901 0.290084
C111 C 0.6816(7) 0.3910(11) 0.3129(4)
H165 H 0.691743 0.33776 0.298272
H166 H 0.686077 0.373693 0.34393
H167 H 0.728626 0.437636 0.300236
C112 C 0.5388(7) 0.3764(8) 0.2785(3)
H168 H 0.5763 0.379801 0.250079
H169 H 0.478479 0.403342 0.274839
H170 H 0.530259 0.312852 0.292088
C113 C 0.5837(5) 0.4600(5) 0.4034(2)
H171 H 0.635591 0.502987 0.390066
C114 C 0.6259(8) 0.3752(6) 0.4230(4)
H172 H 0.667874 0.389685 0.443012
H173 H 0.660506 0.34654 0.400006
H174 H 0.577109 0.333515 0.438958
C115 C 0.5264(8) 0.5044(10) 0.4388(4)
H175 H 0.470787 0.467453 0.450294
H176 H 0.508482 0.565222 0.42628
H177 H 0.563342 0.508926 0.462265
C116 C 0.4351(7) 0.5449(6) 0.3468(5)
H178 H 0.397461 0.553713 0.374724
C117 C 0.4967(11) 0.6339(7) 0.3303(7)
H179 H 0.546134 0.621871 0.307747
H180 H 0.523962 0.651878 0.354681
H181 H 0.458205 0.682904 0.318278
C118 C 0.3687(9) 0.5354(8) 0.3149(6)
H182 H 0.331919 0.590433 0.310803
H183 H 0.327578 0.483017 0.326087
H184 H 0.403294 0.526674 0.287018
C119 C 0.3257(3) 0.1715(3) 0.15074(16)
C120 C 0.3025(3) 0.1571(3) 0.11145(16)
C121 C 0.3607(3) 0.1978(3) 0.07309(16)
C122 C 0.3416(4) 0.1859(4) 0.03116(17)
H185 H 0.291282 0.148017 0.028373
C123 C 0.3952(4) 0.2286(4) -0.00539(18)
H186 H 0.380312 0.221932 -0.033288
C124 C 0.4720(4) 0.2819(5) -0.00182(19)
H187 H 0.50883 0.310647 -0.027394
C125 C 0.4943(4) 0.2931(4) 0.03779(17)
H188 H 0.546743 0.32922 0.039557
C126 C 0.4399(3) 0.2512(3) 0.07656(16)
C127 C 0.4632(3) 0.2622(3) 0.11851(16)
C128 C 0.4048(3) 0.2227(3) 0.15459(16)
C129 C 0.2213(3) 0.1053(3) 0.11024(16)
C130 C 0.1505(4) 0.0614(4) 0.11321(17)
C131 C 0.0056(11) -0.0283(10) 0.1802(5)
H189 H 0.045286 -0.075571 0.194421
C132 C -0.0003(11) 0.0550(11) 0.2036(5)
H190 H -0.054956 0.090015 0.196809
H191 H 0.055285 0.093062 0.193859
H192 H -0.005023 0.035167 0.235022
C133 C -0.1018(12) -0.0631(13) 0.1874(8)
H193 H -0.126873 -0.066138 0.218092
H194 H -0.105183 -0.123394 0.17902
H195 H -0.137913 -0.020615 0.169502
C134 C 0.0742(17) -0.1211(14) 0.1004(6)
H196 H 0.015585 -0.156652 0.102071
C135 C 0.119(2) -0.105(2) 0.0529(6)
H197 H 0.178183 -0.073554 0.050595
H198 H 0.07787 -0.06855 0.035057
H199 H 0.128572 -0.163844 0.042711
C136 C 0.1376(16) -0.1780(16) 0.1292(6)
H200 H 0.158987 -0.230643 0.115692
H201 H 0.10328 -0.198753 0.157903
H202 H 0.190944 -0.140968 0.132176
C137 C -0.0345(13) 0.0542(12) 0.0848(6)
H203 H 0.00877 0.080399 0.058529
C138 C -0.1077(15) 0.0009(13) 0.0649(6)
H204 H -0.15953 -0.01938 0.087363
H205 H -0.078517 -0.051908 0.054079
H206 H -0.130463 0.040876 0.040857
C139 C -0.075(2) 0.1386(14) 0.1018(8)
H207 H -0.105072 0.175339 0.079265
H208 H -0.024552 0.174302 0.109385
H209 H -0.11952 0.120298 0.127622
C140 C 0.5438(3) 0.3115(3) 0.12334(16)
C141 C 0.6130(4) 0.3503(3) 0.12834(17)
C142 C 0.7624(4) 0.3603(4) 0.18485(19)
H210 H 0.713995 0.376978 0.207716
C143 C 0.8532(5) 0.4047(5) 0.1914(2)
H211 H 0.866816 0.384244 0.221064
H212 H 0.847233 0.470818 0.186736
H213 H 0.903607 0.387477 0.170611
C144 C 0.7683(7) 0.2579(5) 0.1929(3)
H214 H 0.8177 0.238543 0.172243
H215 H 0.709295 0.231194 0.188979
H216 H 0.781584 0.237784 0.222597
C145 C 0.8102(4) 0.3803(4) 0.08454(19)
H217 H 0.845439 0.326656 0.096532
C146 C 0.8813(4) 0.4574(4) 0.0682(2)
H218 H 0.927394 0.438999 0.045798
H219 H 0.912026 0.470913 0.092489
H220 H 0.849896 0.511644 0.05593
C147 C 0.7662(4) 0.3528(4) 0.0470(2)
H221 H 0.736031 0.405272 0.032286
H222 H 0.72019 0.304395 0.058251
H223 H 0.813996 0.3309 0.026395
C148 C 0.7008(4) 0.5321(3) 0.12670(19)
H224 H 0.761617 0.564431 0.124029
C149 C 0.6414(5) 0.5540(5) 0.1680(2)
H225 H 0.628093 0.618952 0.164374
H226 H 0.675132 0.537958 0.19304
H227 H 0.583313 0.5191 0.172774
C150 C 0.6549(5) 0.5683(4) 0.0864(2)
H228 H 0.594961 0.537692 0.088231
H229 H 0.694598 0.556554 0.060318
H230 H 0.645873 0.633687 0.085004
N5 N 0.2572(3) 0.0835(3) 0.30598(14)
H231 H 0.226529 0.040537 0.297308
N6 N 0.3450(3) 0.2084(3) 0.30649(13)
H232 H 0.379116 0.258058 0.298219
N7 N 0.2814(3) 0.1419(3) 0.19236(13)
H233 H 0.230319 0.108738 0.198607
N8 N 0.4091(3) 0.2236(3) 0.19817(13)
H234 H 0.452443 0.250705 0.208799
Si7 Si 0.08298(11) -0.21954(10) 0.37600(6)
Si8 Si 0.51265(12) 0.44635(11) 0.35943(6)
Si9 Si 0.04190(11) -0.00594(10) 0.11950(5)
Si10 Si 0.72392(9) 0.40705(9) 0.13084(5)
Si5? Si 0.9947(16) 0.2800(16) 0.3813(6)
Si6? Si 0.5470(7) 0.9467(6) 0.3873(4)
C65? C 0.664(5) 0.775(4) 0.387(2)
C66? C 0.614(2) 0.8428(16) 0.3861(12)
C67? C 0.622(2) 1.037(2) 0.3998(14)
H97? H 0.640624 1.007765 0.428182
C68? C 0.564(4) 1.117(3) 0.414(2)
H98? H 0.509439 1.123581 0.398676
H99? H 0.601701 1.173043 0.406233
H100? H 0.545367 1.105326 0.445201
C69? C 0.715(3) 1.057(4) 0.373(3)
H101? H 0.709497 1.10534 0.34884
H102? H 0.737831 1.002006 0.361825
H103? H 0.758756 1.075778 0.391363
C70? C 0.4532(19) 0.924(3) 0.4354(9)
H104? H 0.454079 0.857368 0.446156
C71? C 0.475(3) 0.971(4) 0.4728(12)
H105? H 0.420801 1.003619 0.483652
H106? H 0.5266 1.014796 0.462358
H107? H 0.492994 0.926165 0.496275
C72? C 0.356(2) 0.944(4) 0.4209(17)
H108? H 0.348129 0.910632 0.396939
H109? H 0.308231 0.92392 0.445399
H110? H 0.350668 1.008877 0.411175
C73? C 0.491(2) 0.971(2) 0.3351(7)
H111? H 0.436992 0.928735 0.338862
C74? C 0.453(4) 1.068(3) 0.3280(16)
H112? H 0.413638 1.078523 0.354467
H113? H 0.503986 1.111741 0.321309
H114? H 0.415894 1.073875 0.30381
C75? C 0.552(4) 0.956(4) 0.2934(10)
H115? H 0.61103 0.930025 0.30063
H116? H 0.56353 1.013507 0.273859
H117? H 0.520509 0.913417 0.278927
C76? C 0.881(7) 0.454(4) 0.387(4)
C77? C 0.927(5) 0.387(3) 0.3840(19)
C78? C 0.955(3) 0.220(3) 0.3410(12)
H118? H 0.899134 0.183452 0.354944
C79? C 1.023(4) 0.157(3) 0.3207(17)
H119? H 0.989819 0.117614 0.305356
H120? H 1.052289 0.119732 0.343459
H121? H 1.07009 0.19271 0.300118
C80? C 0.927(5) 0.290(4) 0.305(2)
H122? H 0.883098 0.331843 0.317468
H123? H 0.98176 0.324307 0.289504
H124? H 0.897832 0.259688 0.284573
C81? C 0.939(3) 0.213(2) 0.4419(12)
H125? H 0.962682 0.242899 0.464577
C82? C 0.979(3) 0.118(3) 0.4446(17)
H126? H 0.940637 0.076684 0.467289
H127? H 1.041962 0.119519 0.451626
H128? H 0.978717 0.096758 0.416599
C83? C 0.835(3) 0.208(4) 0.451(2)
H129? H 0.809542 0.182745 0.427871
H130? H 0.810664 0.269186 0.452225
H131? H 0.815709 0.169304 0.478932
C84? C 1.112(3) 0.299(4) 0.3844(17)
H132? H 1.140356 0.238 0.384106
C85? C 1.161(6) 0.357(6) 0.3433(16)
H133? H 1.130004 0.414938 0.338196
H134? H 1.158453 0.324705 0.318429
H135? H 1.225549 0.366985 0.34684
C86? C 1.137(5) 0.328(4) 0.4259(15)
H136? H 1.202534 0.315905 0.428065
H137? H 1.099146 0.292854 0.450976
H138? H 1.125526 0.392459 0.425377
C151? C -0.0226(11) 0.0016(10) 0.1754(4)
H235? H -0.061884 0.056676 0.17471
C152? C 0.0443(14) -0.0007(16) 0.2096(6)
H236? H 0.008901 -0.006424 0.23859
H237? H 0.081299 0.055497 0.20384
H238? H 0.085196 -0.052609 0.208015
C153? C -0.0838(16) -0.0896(15) 0.1933(10)
H239? H -0.051387 -0.141643 0.183297
H240? H -0.143714 -0.083618 0.182218
H241? H -0.093592 -0.098808 0.225089
C154? C 0.067(2) -0.1193(17) 0.1105(7)
H242? H 0.006856 -0.152578 0.113467
C155? C 0.115(2) -0.1207(19) 0.0640(7)
H243? H 0.17205 -0.084379 0.059092
H244? H 0.073462 -0.095232 0.043173
H245? H 0.129225 -0.183301 0.060105
C156? C 0.1249(19) -0.1719(19) 0.1436(7)
H246? H 0.131408 -0.234786 0.138314
H247? H 0.093849 -0.171139 0.1731
H248? H 0.186256 -0.143319 0.140418
C157? C -0.0326(15) 0.0558(14) 0.0750(7)
H249? H 0.004714 0.067777 0.045642
C158? C -0.1145(19) -0.0138(16) 0.0761(8)
H250? H -0.134985 -0.041182 0.106226
H251? H -0.093203 -0.061338 0.059076
H252? H -0.166081 0.01806 0.063712
C159? C -0.075(2) 0.1433(15) 0.0883(8)
H253? H -0.099063 0.179039 0.063396
H254? H -0.027721 0.178888 0.098019
H255? H -0.125686 0.127906 0.112073
loop_
_geom_bond_atom_site_label_1
_geom_bond_atom_site_label_2
_geom_bond_site_symmetry_1
_geom_bond_site_symmetry_2
Si1 C23 1_555 1_555
Si2 C2 1_555 1_555
C1 C2 1_555 1_555
C3 Si2 1_555 1_555
H1 C3 1_555 1_555
C4 C3 1_555 1_555
H2 C4 1_555 1_555
H3 C4 1_555 1_555
H4 C4 1_555 1_555
C5 C3 1_555 1_555
H5 C5 1_555 1_555
H6 C5 1_555 1_555
H7 C5 1_555 1_555
C6 Si2 1_555 1_555
H8 C6 1_555 1_555
C7 C6 1_555 1_555
H9 C7 1_555 1_555
H10 C7 1_555 1_555
H11 C7 1_555 1_555
C8 C6 1_555 1_555
H12 C8 1_555 1_555
H13 C8 1_555 1_555
H14 C8 1_555 1_555
C9 Si2 1_555 1_555
H15 C9 1_555 1_555
C10 C9 1_555 1_555
H16 C10 1_555 1_555
H17 C10 1_555 1_555
H18 C10 1_555 1_555
C11 C9 1_555 1_555
H19 C11 1_555 1_555
H20 C11 1_555 1_555
H21 C11 1_555 1_555
B1 B2 1_555 1_555
B2 N3 1_555 1_555
C12 C13 1_555 1_555
C13 C14 1_555 1_555
C14 C15 1_555 1_555
C15 H22 1_555 1_555
C16 C15 1_555 1_555
H23 C16 1_555 1_555
C17 C16 1_555 1_555
H24 C17 1_555 1_555
C18 C17 1_555 1_555
H25 C18 1_555 1_555
C19 C14 1_555 1_555
C20 C1 1_555 1_555
C21 C12 1_555 1_555
C22 C13 1_555 1_555
C23 C22 1_555 1_555
C24 Si1 1_555 1_555
H26 C24 1_555 1_555
C25 C24 1_555 1_555
H27 C25 1_555 1_555
H28 C25 1_555 1_555
H29 C25 1_555 1_555
C26 C24 1_555 1_555
H30 C26 1_555 1_555
H31 C26 1_555 1_555
H32 C26 1_555 1_555
C27 Si1 1_555 1_555
H33 C27 1_555 1_555
C28 C27 1_555 1_555
H34 C28 1_555 1_555
H35 C28 1_555 1_555
H36 C28 1_555 1_555
C29 C27 1_555 1_555
H37 C29 1_555 1_555
H38 C29 1_555 1_555
H39 C29 1_555 1_555
C30 Si1 1_555 1_555
H40 C30 1_555 1_555
C31 C30 1_555 1_555
H41 C31 1_555 1_555
H42 C31 1_555 1_555
H43 C31 1_555 1_555
C32 C30 1_555 1_555
H44 C32 1_555 1_555
H45 C32 1_555 1_555
H46 C32 1_555 1_555
C33 C34 1_555 1_555
C34 C35 1_555 1_555
C35 C36 1_555 1_555
C36 H47 1_555 1_555
C37 C36 1_555 1_555
H48 C37 1_555 1_555
C38 C37 1_555 1_555
H49 C38 1_555 1_555
C39 C38 1_555 1_555
H50 C39 1_555 1_555
C40 C35 1_555 1_555
C41 C40 1_555 1_555
C42 C33 1_555 1_555
C43 C34 1_555 1_555
C44 C43 1_555 1_555
C45 H51 1_555 1_555
C46 C45 1_555 1_555
H52 C46 1_555 1_555
H53 C46 1_555 1_555
H54 C46 1_555 1_555
C47 C45 1_555 1_555
H55 C47 1_555 1_555
H56 C47 1_555 1_555
H57 C47 1_555 1_555
C48 H58 1_555 1_555
C49 C48 1_555 1_555
H59 C49 1_555 1_555
H60 C49 1_555 1_555
H61 C49 1_555 1_555
C50 C48 1_555 1_555
H62 C50 1_555 1_555
H63 C50 1_555 1_555
H64 C50 1_555 1_555
C51 H65 1_555 1_555
C52 C51 1_555 1_555
H66 C52 1_555 1_555
H67 C52 1_555 1_555
H68 C52 1_555 1_555
C53 C51 1_555 1_555
H69 C53 1_555 1_555
H70 C53 1_555 1_555
H71 C53 1_555 1_555
C54 C41 1_555 1_555
C55 C54 1_555 1_555
C56 H72 1_555 1_555
C57 C56 1_555 1_555
H73 C57 1_555 1_555
H74 C57 1_555 1_555
H75 C57 1_555 1_555
C58 C56 1_555 1_555
H76 C58 1_555 1_555
H77 C58 1_555 1_555
H78 C58 1_555 1_555
C59 H79 1_555 1_555
C60 C59 1_555 1_555
H80 C60 1_555 1_555
H81 C60 1_555 1_555
H82 C60 1_555 1_555
C61 C59 1_555 1_555
H83 C61 1_555 1_555
H84 C61 1_555 1_555
H85 C61 1_555 1_555
C62 H86 1_555 1_555
C63 C62 1_555 1_555
H87 C63 1_555 1_555
H88 C63 1_555 1_555
H89 C63 1_555 1_555
C64 C62 1_555 1_555
H90 C64 1_555 1_555
H91 C64 1_555 1_555
H92 C64 1_555 1_555
N1 B1 1_555 1_555
H93 N1 1_555 1_555
N2 B1 1_555 1_555
H94 N2 1_555 1_555
N3 C33 1_555 1_555
H95 N3 1_555 1_555
N4 B2 1_555 1_555
H96 N4 1_555 1_555
Si3 C44 1_555 1_555
Si4 C55 1_555 1_555
B3 B4 1_555 1_555
B4 N7 1_555 1_555
C87 C88 1_555 1_555
C88 C89 1_555 1_555
C89 C90 1_555 1_555
C90 H139 1_555 1_555
C91 C90 1_555 1_555
H140 C91 1_555 1_555
C92 C91 1_555 1_555
H141 C92 1_555 1_555
C93 C92 1_555 1_555
H142 C93 1_555 1_555
C94 C89 1_555 1_555
C95 C94 1_555 1_555
C96 C87 1_555 1_555
C97 C88 1_555 1_555
C98 C97 1_555 1_555
C99 H143 1_555 1_555
C100 C99 1_555 1_555
H144 C100 1_555 1_555
H145 C100 1_555 1_555
H146 C100 1_555 1_555
C101 C99 1_555 1_555
H147 C101 1_555 1_555
H148 C101 1_555 1_555
H149 C101 1_555 1_555
C102 H150 1_555 1_555
C103 C102 1_555 1_555
H151 C103 1_555 1_555
H152 C103 1_555 1_555
H153 C103 1_555 1_555
C104 C102 1_555 1_555
H154 C104 1_555 1_555
H155 C104 1_555 1_555
H156 C104 1_555 1_555
C105 H157 1_555 1_555
C106 C105 1_555 1_555
H158 C106 1_555 1_555
H159 C106 1_555 1_555
H160 C106 1_555 1_555
C107 C105 1_555 1_555
H161 C107 1_555 1_555
H162 C107 1_555 1_555
H163 C107 1_555 1_555
C108 C95 1_555 1_555
C109 C108 1_555 1_555
C110 H164 1_555 1_555
C111 C110 1_555 1_555
H165 C111 1_555 1_555
H166 C111 1_555 1_555
H167 C111 1_555 1_555
C112 C110 1_555 1_555
H168 C112 1_555 1_555
H169 C112 1_555 1_555
H170 C112 1_555 1_555
C113 H171 1_555 1_555
C114 C113 1_555 1_555
H172 C114 1_555 1_555
H173 C114 1_555 1_555
H174 C114 1_555 1_555
C115 C113 1_555 1_555
H175 C115 1_555 1_555
H176 C115 1_555 1_555
H177 C115 1_555 1_555
C116 H178 1_555 1_555
C117 C116 1_555 1_555
H179 C117 1_555 1_555
H180 C117 1_555 1_555
H181 C117 1_555 1_555
C118 C116 1_555 1_555
H182 C118 1_555 1_555
H183 C118 1_555 1_555
H184 C118 1_555 1_555
C119 C120 1_555 1_555
C120 C121 1_555 1_555
C121 C122 1_555 1_555
C122 H185 1_555 1_555
C123 C122 1_555 1_555
H186 C123 1_555 1_555
C124 C123 1_555 1_555
H187 C124 1_555 1_555
C125 C124 1_555 1_555
H188 C125 1_555 1_555
C126 C121 1_555 1_555
C127 C126 1_555 1_555
C128 C119 1_555 1_555
C129 C120 1_555 1_555
C130 C129 1_555 1_555
C131 H189 1_555 1_555
C132 C131 1_555 1_555
H190 C132 1_555 1_555
H191 C132 1_555 1_555
H192 C132 1_555 1_555
C133 C131 1_555 1_555
H193 C133 1_555 1_555
H194 C133 1_555 1_555
H195 C133 1_555 1_555
C134 H196 1_555 1_555
C135 C134 1_555 1_555
H197 C135 1_555 1_555
H198 C135 1_555 1_555
H199 C135 1_555 1_555
C136 C134 1_555 1_555
H200 C136 1_555 1_555
H201 C136 1_555 1_555
H202 C136 1_555 1_555
C137 H203 1_555 1_555
C138 C137 1_555 1_555
H204 C138 1_555 1_555
H205 C138 1_555 1_555
H206 C138 1_555 1_555
C139 C137 1_555 1_555
H207 C139 1_555 1_555
H208 C139 1_555 1_555
H209 C139 1_555 1_555
C140 C127 1_555 1_555
C141 C140 1_555 1_555
C142 H210 1_555 1_555
C143 C142 1_555 1_555
H211 C143 1_555 1_555
H212 C143 1_555 1_555
H213 C143 1_555 1_555
C144 C142 1_555 1_555
H214 C144 1_555 1_555
H215 C144 1_555 1_555
H216 C144 1_555 1_555
C145 H217 1_555 1_555
C146 C145 1_555 1_555
H218 C146 1_555 1_555
H219 C146 1_555 1_555
H220 C146 1_555 1_555
C147 C145 1_555 1_555
H221 C147 1_555 1_555
H222 C147 1_555 1_555
H223 C147 1_555 1_555
C148 H224 1_555 1_555
C149 C148 1_555 1_555
H225 C149 1_555 1_555
H226 C149 1_555 1_555
H227 C149 1_555 1_555
C150 C148 1_555 1_555
H228 C150 1_555 1_555
H229 C150 1_555 1_555
H230 C150 1_555 1_555
N5 B3 1_555 1_555
H231 N5 1_555 1_555
N6 B3 1_555 1_555
H232 N6 1_555 1_555
N7 C119 1_555 1_555
H233 N7 1_555 1_555
N8 B4 1_555 1_555
H234 N8 1_555 1_555
Si7 C98 1_555 1_555
Si8 C109 1_555 1_555
Si9 C130 1_555 1_555
Si10 C141 1_555 1_555
C12 N1 1_555 1_555
C18 C19 1_555 1_555
C19 C20 1_555 1_555
C20 C21 1_555 1_555
C21 N2 1_555 1_555
C39 C40 1_555 1_555
C41 C42 1_555 1_555
C42 N4 1_555 1_555
C45 Si3 1_555 1_555
C48 Si3 1_555 1_555
C51 Si3 1_555 1_555
C56 Si4 1_555 1_555
C59 Si4 1_555 1_555
C62 Si4 1_555 1_555
C87 N5 1_555 1_555
C93 C94 1_555 1_555
C95 C96 1_555 1_555
C96 N6 1_555 1_555
C99 Si7 1_555 1_555
C102 Si7 1_555 1_555
C105 Si7 1_555 1_555
C110 Si8 1_555 1_555
C113 Si8 1_555 1_555
C116 Si8 1_555 1_555
C125 C126 1_555 1_555
C127 C128 1_555 1_555
C128 N8 1_555 1_555
C131 Si9 1_555 1_555
C134 Si9 1_555 1_555
C137 Si9 1_555 1_555
C142 Si10 1_555 1_555
C145 Si10 1_555 1_555
C148 Si10 1_555 1_555

#END
