
#######################################################################
#
#                 Cambridge Crystallographic Data Centre
#                                CCDC 
#
#######################################################################
#
# If this CIF has been generated from an entry in the Cambridge 
# Structural Database, then it will include bibliographic, chemical, 
# crystal, experimental, refinement or atomic coordinate data resulting 
# from the CCDC's data processing and validation procedures.
#
#######################################################################

data_JIWHUV
_chemical_name_common            'Stanozolol 2,6-dihydroxybenzoic acid'
_chemical_formula_moiety         'C21 H33 N2 O1 1+,C7 H5 O4 1-'
_chemical_name_systematic        
'1-hydroxy-1,10a,12a-trimethyl-1,2,3,3a,3b,4,5,5a,6,8,10,10a,10b,11,12,12a-hexadecahydrocyclopenta[5,6]naphtho[1,2-f]indazol-7-ium 2,6-dihydroxybenzoate'
_symmetry_cell_setting           monoclinic
_symmetry_space_group_name_H-M   'P 21'
_symmetry_Int_Tables_number      4
_space_group_name_Hall           'P 2yb'
loop_
_symmetry_equiv_pos_site_id
_symmetry_equiv_pos_as_xyz
1 x,y,z
2 -x,1/2+y,-z
_cell_length_a                   8.8708(18)
_cell_length_b                   15.609(3)
_cell_length_c                   18.593(4)
_cell_angle_alpha                90
_cell_angle_beta                 90.01(3)
_cell_angle_gamma                90
_cell_volume                     2574.47
_exptl_crystal_colour            colorless
_exptl_crystal_description       Block
_cell_formula_units_Z            4
loop_
_atom_site_label
_atom_site_type_symbol
_atom_site_fract_x
_atom_site_fract_y
_atom_site_fract_z
O1 O 0.6687(3) 0.62401(15) 0.92622(11)
H1 H 0.755(2) 0.607(2) 0.9391(17)
N1 N -0.2110(3) 0.96159(18) 0.60275(15)
H2 H -0.293(3) 0.9911(19) 0.5914(17)
N2 N -0.1153(3) 0.93224(18) 0.55215(14)
H3 H -0.137(5) 0.936(3) 0.5056(9)
C1 C -0.1515(4) 0.9481(2) 0.66767(18)
H4 H -0.196895 0.962823 0.712279
C2 C -0.0122(4) 0.9091(2) 0.65899(17)
C3 C 0.0076(4) 0.89968(19) 0.58542(17)
C4 C 0.1397(4) 0.8585(2) 0.55027(17)
H5 H 0.176867 0.895294 0.510723
H6 H 0.109356 0.802648 0.529526
C5 C 0.2670(4) 0.8446(2) 0.60633(17)
H7 H 0.314668 0.901797 0.614909
C6 C 0.2090(3) 0.81207(19) 0.68033(15)
C7 C 0.1041(4) 0.8809(2) 0.71290(17)
H8 H 0.053164 0.857332 0.755925
H9 H 0.164842 0.930931 0.728168
C8 C 0.1202(4) 0.7282(2) 0.67156(17)
H10 H 0.093857 0.705549 0.719096
H11 H 0.182232 0.686191 0.645850
H12 H 0.027869 0.739215 0.644132
C9 C 0.3889(4) 0.7867(2) 0.57430(17)
H13 H 0.343186 0.731007 0.561131
H14 H 0.428097 0.813331 0.529747
C10 C 0.5200(4) 0.7710(2) 0.62595(17)
H15 H 0.575817 0.825170 0.633392
H16 H 0.590241 0.728912 0.604377
C11 C 0.4646(4) 0.7371(2) 0.69893(16)
H17 H 0.413500 0.680745 0.690988
C12 C 0.3480(4) 0.8007(2) 0.73048(16)
H18 H 0.399477 0.857723 0.731670
C13 C 0.3038(4) 0.7808(2) 0.80929(16)
H19 H 0.244768 0.829302 0.828804
H20 H 0.238604 0.729297 0.810143
C14 C 0.4415(4) 0.7652(2) 0.85777(16)
H21 H 0.499589 0.819045 0.862642
H22 H 0.407173 0.747819 0.906286
C15 C 0.5423(3) 0.69604(19) 0.82683(16)
C16 C 0.5947(4) 0.7238(2) 0.75167(16)
H23 H 0.646854 0.780191 0.757177
C17 C 0.4551(4) 0.6108(2) 0.82416(18)
H24 H 0.416248 0.597270 0.872180
H25 H 0.522730 0.564912 0.808242
H26 H 0.370779 0.615919 0.790364
C18 C 0.7154(4) 0.6575(2) 0.73227(18)
H27 H 0.790129 0.681918 0.698459
H28 H 0.669417 0.606038 0.710182
C19 C 0.7906(4) 0.6350(2) 0.80602(17)
H29 H 0.791547 0.572253 0.813494
H30 H 0.895757 0.656220 0.807334
C20 C 0.6948(4) 0.67961(19) 0.86520(17)
C21 C 0.7730(4) 0.7607(2) 0.8922(2)
H31 H 0.713787 0.785960 0.931345
H32 H 0.781569 0.802013 0.852733
H33 H 0.873911 0.746211 0.909952
O2 O -0.2494(3) 0.97206(15) 0.42609(11)
H34 H -0.338(3) 0.983(4) 0.439(3)
N3 N 0.6435(3) 0.63986(17) 0.10186(14)
H35 H 0.732(2) 0.617(2) 0.0975(19)
N4 N 0.5446(3) 0.66584(17) 0.05196(14)
H36 H 0.563(4) 0.654(2) 0.0065(9)
C22 C 0.5916(4) 0.6604(2) 0.16716(17)
H37 H 0.640407 0.648764 0.211575
C23 C 0.4546(3) 0.7015(2) 0.15889(15)
C24 C 0.4262(3) 0.7031(2) 0.08497(16)
C25 C 0.2883(4) 0.7385(2) 0.05163(15)
H38 H 0.250804 0.698600 0.014291
H39 H 0.311611 0.793924 0.028304
C26 C 0.1666(3) 0.75148(19) 0.10953(16)
H40 H 0.133015 0.693155 0.124970
C27 C 0.2292(3) 0.79750(19) 0.17806(15)
C28 C 0.3464(3) 0.7372(2) 0.21321(16)
H41 H 0.403304 0.769215 0.250296
H42 H 0.293214 0.689405 0.237335
C29 C 0.3040(3) 0.8828(2) 0.15743(16)
H43 H 0.390314 0.871719 0.125924
H44 H 0.338447 0.912174 0.201036
H45 H 0.230808 0.919029 0.132189
C30 C 0.0975(3) 0.81059(19) 0.23233(15)
H46 H 0.062968 0.751680 0.245576
C31 C -0.0411(3) 0.85513(19) 0.19936(16)
H47 H -0.011863 0.914449 0.184609
C32 C -0.0960(4) 0.8068(2) 0.13328(16)
H48 H -0.181307 0.838390 0.111398
H49 H -0.133131 0.749652 0.147990
C33 C 0.0291(4) 0.7961(2) 0.07740(17)
H50 H -0.009365 0.762010 0.036420
H51 H 0.059056 0.853103 0.058953
C34 C 0.1501(3) 0.8524(2) 0.30365(16)
H52 H 0.230501 0.816725 0.325191
H53 H 0.193618 0.909442 0.293034
C35 C 0.0220(4) 0.8629(2) 0.35840(16)
H54 H -0.010266 0.805760 0.375584
H55 H 0.059055 0.895823 0.400345
C36 C -0.1130(3) 0.90943(19) 0.32512(16)
C37 C -0.1630(3) 0.86110(19) 0.25710(15)
H56 H -0.185566 0.801024 0.272371
C38 C -0.0704(4) 1.00242(19) 0.30767(16)
H57 H -0.039218 1.031700 0.351869
H58 H -0.157674 1.031931 0.286936
H59 H 0.012940 1.003007 0.273078
C39 C -0.3151(3) 0.9026(2) 0.23819(16)
H60 H -0.383369 0.860559 0.215244
H61 H -0.300793 0.951664 0.205103
C40 C -0.3798(4) 0.9332(2) 0.31153(17)
H62 H -0.396590 0.995860 0.310972
H63 H -0.476867 0.904354 0.321693
C41 C -0.2614(4) 0.9092(2) 0.36898(16)
C42 C -0.3015(4) 0.8239(2) 0.40417(18)
H64 H -0.220093 0.806603 0.436687
H65 H -0.315015 0.780187 0.366920
H66 H -0.395297 0.830263 0.431518
O3 O 0.5250(3) 0.52638(18) 0.52724(13)
O4 O 0.4695(3) 0.53909(17) 0.41085(14)
O5 O 0.7837(3) 0.5708(2) 0.57406(14)
H67 H 0.694(3) 0.551(3) 0.571(2)
O6 O 0.6685(3) 0.58542(19) 0.32187(14)
H68 H 0.585(3) 0.567(3) 0.339(2)
C43 C 0.5609(4) 0.5461(2) 0.46400(19)
C44 C 0.7156(4) 0.5776(2) 0.44889(17)
C45 C 0.8197(4) 0.5887(2) 0.50516(18)
C46 C 0.9649(4) 0.6178(2) 0.4912(2)
H69 H 1.034026 0.626538 0.529556
C47 C 1.0071(4) 0.6338(2) 0.4219(2)
H70 H 1.106729 0.653129 0.412524
C48 C 0.9097(4) 0.6227(2) 0.3654(2)
H71 H 0.941859 0.634023 0.317602
C49 C 0.7638(4) 0.5949(2) 0.37861(19)
O7 O -0.0723(3) 0.55539(17) -0.02636(13)
O8 O -0.0952(3) 0.55864(16) 0.09242(13)
O9 O 0.1273(3) 0.52087(17) 0.17341(13)
H72 H 0.042(3) 0.540(3) 0.159(2)
O10 O 0.1732(3) 0.51093(17) -0.08403(13)
H73 H 0.081(2) 0.521(3) -0.077(3)
C50 C -0.0195(4) 0.5454(2) 0.03603(18)
C51 C 0.1396(4) 0.51712(19) 0.04349(17)
C52 C 0.2073(4) 0.5070(2) 0.11211(18)
C53 C 0.3570(4) 0.4838(2) 0.1184(2)
H74 H 0.402305 0.478609 0.164542
C54 C 0.4403(4) 0.4682(2) 0.0568(2)
H75 H 0.543038 0.451919 0.061169
C55 C 0.3782(4) 0.4758(2) -0.0102(2)
H76 H 0.437003 0.463508 -0.051694
C56 C 0.2294(4) 0.5013(2) -0.01755(17)
loop_
_geom_bond_atom_site_label_1
_geom_bond_atom_site_label_2
_geom_bond_site_symmetry_1
_geom_bond_site_symmetry_2
O1 H1 1_555 1_555
N1 H2 1_555 1_555
N2 N1 1_555 1_555
H3 N2 1_555 1_555
C1 N1 1_555 1_555
H4 C1 1_555 1_555
C2 C1 1_555 1_555
C3 N2 1_555 1_555
C4 C3 1_555 1_555
H5 C4 1_555 1_555
H6 C4 1_555 1_555
C5 C4 1_555 1_555
H7 C5 1_555 1_555
C6 C5 1_555 1_555
C7 C2 1_555 1_555
H8 C7 1_555 1_555
H9 C7 1_555 1_555
C8 C6 1_555 1_555
H10 C8 1_555 1_555
H11 C8 1_555 1_555
H12 C8 1_555 1_555
C9 C5 1_555 1_555
H13 C9 1_555 1_555
H14 C9 1_555 1_555
C10 C9 1_555 1_555
H15 C10 1_555 1_555
H16 C10 1_555 1_555
C11 C10 1_555 1_555
H17 C11 1_555 1_555
C12 C6 1_555 1_555
H18 C12 1_555 1_555
C13 C12 1_555 1_555
H19 C13 1_555 1_555
H20 C13 1_555 1_555
C14 C13 1_555 1_555
H21 C14 1_555 1_555
H22 C14 1_555 1_555
C15 C14 1_555 1_555
C16 C11 1_555 1_555
H23 C16 1_555 1_555
C17 C15 1_555 1_555
H24 C17 1_555 1_555
H25 C17 1_555 1_555
H26 C17 1_555 1_555
C18 C16 1_555 1_555
H27 C18 1_555 1_555
H28 C18 1_555 1_555
C19 C18 1_555 1_555
H29 C19 1_555 1_555
H30 C19 1_555 1_555
C20 O1 1_555 1_555
C21 C20 1_555 1_555
H31 C21 1_555 1_555
H32 C21 1_555 1_555
H33 C21 1_555 1_555
O2 H34 1_555 1_555
N3 H35 1_555 1_555
N4 N3 1_555 1_555
H36 N4 1_555 1_555
C22 N3 1_555 1_555
H37 C22 1_555 1_555
C23 C22 1_555 1_555
C24 N4 1_555 1_555
C25 C24 1_555 1_555
H38 C25 1_555 1_555
H39 C25 1_555 1_555
C26 C25 1_555 1_555
H40 C26 1_555 1_555
C27 C26 1_555 1_555
C28 C23 1_555 1_555
H41 C28 1_555 1_555
H42 C28 1_555 1_555
C29 C27 1_555 1_555
H43 C29 1_555 1_555
H44 C29 1_555 1_555
H45 C29 1_555 1_555
C30 C27 1_555 1_555
H46 C30 1_555 1_555
C31 C30 1_555 1_555
H47 C31 1_555 1_555
C32 C31 1_555 1_555
H48 C32 1_555 1_555
H49 C32 1_555 1_555
C33 C26 1_555 1_555
H50 C33 1_555 1_555
H51 C33 1_555 1_555
C34 C30 1_555 1_555
H52 C34 1_555 1_555
H53 C34 1_555 1_555
C35 C34 1_555 1_555
H54 C35 1_555 1_555
H55 C35 1_555 1_555
C36 C35 1_555 1_555
C37 C31 1_555 1_555
H56 C37 1_555 1_555
C38 C36 1_555 1_555
H57 C38 1_555 1_555
H58 C38 1_555 1_555
H59 C38 1_555 1_555
C39 C37 1_555 1_555
H60 C39 1_555 1_555
H61 C39 1_555 1_555
C40 C39 1_555 1_555
H62 C40 1_555 1_555
H63 C40 1_555 1_555
C41 O2 1_555 1_555
C42 C41 1_555 1_555
H64 C42 1_555 1_555
H65 C42 1_555 1_555
H66 C42 1_555 1_555
O3 C43 1_555 1_555
O4 C43 1_555 1_555
O5 H67 1_555 1_555
O6 H68 1_555 1_555
C43 C44 1_555 1_555
C44 C45 1_555 1_555
C45 O5 1_555 1_555
C46 C45 1_555 1_555
H69 C46 1_555 1_555
C47 C46 1_555 1_555
H70 C47 1_555 1_555
C48 C47 1_555 1_555
H71 C48 1_555 1_555
C49 O6 1_555 1_555
O7 C50 1_555 1_555
O8 C50 1_555 1_555
O9 H72 1_555 1_555
O10 H73 1_555 1_555
C50 C51 1_555 1_555
C51 C52 1_555 1_555
C52 O9 1_555 1_555
C53 C52 1_555 1_555
H74 C53 1_555 1_555
C54 C53 1_555 1_555
H75 C54 1_555 1_555
C55 C54 1_555 1_555
H76 C55 1_555 1_555
C56 O10 1_555 1_555
C2 C3 1_555 1_555
C6 C7 1_555 1_555
C11 C12 1_555 1_555
C15 C16 1_555 1_555
C15 C20 1_555 1_555
C19 C20 1_555 1_555
C23 C24 1_555 1_555
C27 C28 1_555 1_555
C32 C33 1_555 1_555
C36 C37 1_555 1_555
C36 C41 1_555 1_555
C40 C41 1_555 1_555
C44 C49 1_555 1_555
C48 C49 1_555 1_555
C51 C56 1_555 1_555
C55 C56 1_555 1_555

#END
