
#######################################################################
#
#                 Cambridge Crystallographic Data Centre
#                                CCDC 
#
#######################################################################
#
# If this CIF has been generated from an entry in the Cambridge 
# Structural Database, then it will include bibliographic, chemical, 
# crystal, experimental, refinement or atomic coordinate data resulting 
# from the CCDC's data processing and validation procedures.
#
#######################################################################

data_JIWJIL
_chemical_name_common            'Stanozolol  1,2-benzenedicarboxylic acid'
_chemical_formula_moiety         'C21 H32 N2 O1,C8 H6 O4'
_chemical_name_systematic        
'1,10a,12a-trimethyl-1,2,3,3a,3b,4,5,5a,6,7,10,10a,10b,11,12,12a-hexadecahydrocyclopenta[5,6]naphtho[1,2-f]indazol-1-ol benzene-1,2-dicarboxylic acid'
_symmetry_cell_setting           monoclinic
_symmetry_space_group_name_H-M   'P 21'
_symmetry_Int_Tables_number      4
_space_group_name_Hall           'P 2yb'
loop_
_symmetry_equiv_pos_site_id
_symmetry_equiv_pos_as_xyz
1 x,y,z
2 -x,1/2+y,-z
_cell_length_a                   7.8660(5)
_cell_length_b                   11.3879(8)
_cell_length_c                   29.2351(17)
_cell_angle_alpha                90
_cell_angle_beta                 95.638(2)
_cell_angle_gamma                90
_cell_volume                     2606.13
_exptl_crystal_colour            colorless
_exptl_crystal_description       block
_cell_formula_units_Z            4
loop_
_atom_site_label
_atom_site_type_symbol
_atom_site_fract_x
_atom_site_fract_y
_atom_site_fract_z
O1 O 0.9766(4) 0.8513(3) 0.16498(10)
H1 H 1.042(5) 0.873(5) 0.1881(11)
N1 N 0.0152(4) 0.8553(4) -0.14844(12)
N2 N 0.1518(4) 0.9138(4) -0.16145(12)
H2 H 0.148(5) 0.938(4) -0.1900(7)
C1 C 0.0527(5) 0.8335(4) -0.10383(14)
H3 H -0.018837 0.793234 -0.085736
C2 C 0.2108(5) 0.8782(4) -0.08767(14)
C3 C 0.2720(5) 0.9304(4) -0.12558(13)
C4 C 0.4429(5) 0.9832(4) -0.12648(14)
H4 H 0.432907 1.058200 -0.142255
H5 H 0.513952 0.932229 -0.143159
C5 C 0.5263(5) 1.0011(4) -0.07715(13)
H6 H 0.470207 1.068801 -0.064427
C6 C 0.5011(5) 0.8942(4) -0.04475(13)
C7 C 0.3086(5) 0.8795(5) -0.04085(14)
H7 H 0.288735 0.806671 -0.025025
H8 H 0.268265 0.943677 -0.022949
C8 C 0.5712(5) 0.7802(4) -0.06353(14)
H9 H 0.563883 0.718412 -0.041474
H10 H 0.688281 0.791404 -0.069130
H11 H 0.505129 0.759449 -0.091735
C9 C 0.5895(5) 0.9256(4) 0.00389(13)
H12 H 0.537925 0.999892 0.012315
C10 C 0.7814(5) 0.9517(4) 0.00286(13)
H13 H 0.837599 0.881464 -0.007822
C11 C 0.8061(5) 1.0525(4) -0.03029(14)
H14 H 0.927272 1.062339 -0.032861
H15 H 0.764262 1.124435 -0.017631
C12 C 0.7143(5) 1.0333(4) -0.07840(14)
H16 H 0.722188 1.104397 -0.096319
H17 H 0.771242 0.970958 -0.093587
C13 C 0.5527(5) 0.8381(4) 0.04157(13)
H18 H 0.430205 0.833420 0.043058
H19 H 0.592398 0.760902 0.033512
C14 C 0.6388(5) 0.8724(4) 0.08895(14)
H20 H 0.617209 0.812163 0.111098
H21 H 0.590008 0.945405 0.098721
C15 C 0.8322(5) 0.8875(4) 0.08783(13)
C16 C 0.8595(5) 0.9810(4) 0.05145(13)
H22 H 0.801416 1.052088 0.060700
C17 C 0.9128(5) 0.7690(4) 0.07725(15)
H23 H 0.876375 0.746644 0.046162
H24 H 0.877316 0.710385 0.097916
H25 H 1.034968 0.775896 0.081052
C18 C 1.0519(5) 1.0066(5) 0.05933(14)
H26 H 1.076614 1.086026 0.050043
H27 H 1.116023 0.952011 0.042196
C19 C 1.0960(5) 0.9904(5) 0.11153(14)
H28 H 1.129067 1.064857 0.125859
H29 H 1.189965 0.935544 0.117473
C20 C 0.9329(5) 0.9420(4) 0.13101(14)
C21 C 0.8393(5) 1.0383(4) 0.15382(14)
H30 H 0.914216 1.073076 0.177982
H31 H 0.741476 1.005756 0.166454
H32 H 0.802719 1.097184 0.131492
O2 O 0.0991(4) 0.7716(3) 0.32100(9)
H33 H 0.003(3) 0.759(4) 0.3060(12)
N3 N 0.9826(4) 0.8221(4) 0.64958(12)
N4 N 0.8439(5) 0.7618(4) 0.66050(12)
H34 H 0.839(5) 0.740(4) 0.6889(7)
C22 C 0.9475(5) 0.8518(4) 0.60582(14)
H35 H 1.021015 0.893588 0.588791
C23 C 0.7860(5) 0.8123(4) 0.58870(14)
C24 C 0.7235(5) 0.7558(4) 0.62478(13)
C25 C 0.5553(5) 0.6933(5) 0.62271(13)
H36 H 0.497434 0.713581 0.649434
H37 H 0.573951 0.609107 0.622939
C26 C 0.4435(5) 0.7287(4) 0.57856(13)
H38 H 0.401636 0.808351 0.583447
C27 C 0.5422(5) 0.7329(4) 0.53457(12)
C28 C 0.6862(5) 0.8259(4) 0.54251(14)
H39 H 0.762966 0.818426 0.518669
H40 H 0.636189 0.903838 0.540212
C29 C 0.6249(5) 0.6135(4) 0.52634(13)
H41 H 0.674162 0.615200 0.497580
H42 H 0.539614 0.553068 0.525515
H43 H 0.712551 0.597750 0.550782
C30 C 0.4147(5) 0.7690(4) 0.49376(13)
H44 H 0.369761 0.845451 0.502158
C31 C 0.2587(5) 0.6883(4) 0.48586(13)
H45 H 0.297074 0.609565 0.478065
C32 C 0.1680(5) 0.6806(5) 0.52969(13)
H46 H 0.114682 0.755676 0.534849
H47 H 0.078194 0.622137 0.525405
C33 C 0.2871(5) 0.6489(4) 0.57194(14)
H48 H 0.324660 0.568287 0.569189
H49 H 0.224877 0.653977 0.598912
C34 C 0.4984(5) 0.7904(4) 0.44871(13)
H50 H 0.588149 0.848489 0.454453
H51 H 0.550892 0.717986 0.439764
C35 C 0.3720(5) 0.8328(4) 0.40878(14)
H52 H 0.329331 0.909958 0.415831
H53 H 0.430108 0.839169 0.381112
C36 C 0.2221(5) 0.7469(4) 0.40053(13)
C37 C 0.1400(5) 0.7349(4) 0.44606(13)
H54 H 0.108051 0.814485 0.454695
C38 C 0.2856(5) 0.6311(4) 0.38282(14)
H55 H 0.365182 0.596178 0.405898
H56 H 0.341225 0.644844 0.355516
H57 H 0.190641 0.578987 0.375859
C39 C -0.0282(5) 0.6695(5) 0.43219(14)
H58 H -0.115824 0.693063 0.451462
H59 H -0.011951 0.585285 0.434768
C40 C -0.0777(5) 0.7055(5) 0.38172(15)
H60 H -0.084838 0.636774 0.361998
H61 H -0.187483 0.744894 0.378674
C41 C 0.0636(5) 0.7889(5) 0.36843(14)
C42 C 0.0159(6) 0.9164(5) 0.37383(16)
H62 H -0.088157 0.932839 0.354901
H63 H 0.105615 0.965557 0.364610
H64 H -0.000207 0.931812 0.405399
O3 O 0.8343(3) 0.7092(3) 0.75409(9)
O4 O 0.7277(4) 0.7642(3) 0.81841(10)
H65 H 0.823(4) 0.801(5) 0.824(2)
O5 O 0.7890(4) 0.4574(3) 0.76947(10)
O6 O 0.6676(4) 0.4145(4) 0.69974(11)
H66 H 0.757(5) 0.375(5) 0.696(2)
C43 C 0.7185(5) 0.7114(4) 0.77867(14)
C44 C 0.5475(5) 0.6598(4) 0.76457(13)
C45 C 0.5285(5) 0.5524(4) 0.74174(13)
C46 C 0.6769(5) 0.4708(4) 0.73887(14)
C47 C 0.3664(5) 0.5145(4) 0.72406(14)
H67 H 0.353340 0.442961 0.708749
C48 C 0.2248(5) 0.5842(5) 0.72947(15)
H68 H 0.116747 0.559212 0.717638
C49 C 0.2431(5) 0.6893(4) 0.75209(14)
H69 H 0.147841 0.735824 0.755389
C50 C 0.4034(5) 0.7264(4) 0.77003(14)
H70 H 0.414675 0.797073 0.785988
O7 O 0.1933(4) 0.2399(3) 0.73720(10)
O8 O 0.2781(4) 0.2266(3) 0.81184(10)
H71 H 0.190(5) 0.263(5) 0.818(2)
O9 O 0.1615(3) -0.0204(3) 0.74418(9)
O10 O 0.2723(4) -0.0778(3) 0.68061(10)
H72 H 0.169(3) -0.101(5) 0.6745(16)
C51 C 0.2931(5) 0.2051(4) 0.76819(14)
C52 C 0.4510(5) 0.1380(4) 0.76113(14)
C53 C 0.4447(5) 0.0381(4) 0.73365(14)
C54 C 0.2781(5) -0.0213(4) 0.71954(13)
C55 C 0.5961(5) -0.0159(5) 0.72376(15)
H73 H 0.592217 -0.081774 0.704885
C56 C 0.7512(6) 0.0281(5) 0.74185(17)
H74 H 0.851837 -0.007645 0.734956
C57 C 0.7576(6) 0.1246(5) 0.77001(19)
H75 H 0.862694 0.152869 0.782707
C58 C 0.6086(5) 0.1802(5) 0.77971(16)
H76 H 0.614109 0.245926 0.798684
loop_
_geom_bond_atom_site_label_1
_geom_bond_atom_site_label_2
_geom_bond_site_symmetry_1
_geom_bond_site_symmetry_2
O1 H1 1_555 1_555
N1 N2 1_555 1_555
N2 H2 1_555 1_555
C1 N1 1_555 1_555
H3 C1 1_555 1_555
C2 C1 1_555 1_555
C3 N2 1_555 1_555
C4 C3 1_555 1_555
H4 C4 1_555 1_555
H5 C4 1_555 1_555
C5 C4 1_555 1_555
H6 C5 1_555 1_555
C6 C5 1_555 1_555
C7 C2 1_555 1_555
H7 C7 1_555 1_555
H8 C7 1_555 1_555
C8 C6 1_555 1_555
H9 C8 1_555 1_555
H10 C8 1_555 1_555
H11 C8 1_555 1_555
C9 C6 1_555 1_555
H12 C9 1_555 1_555
C10 C9 1_555 1_555
H13 C10 1_555 1_555
C11 C10 1_555 1_555
H14 C11 1_555 1_555
H15 C11 1_555 1_555
C12 C5 1_555 1_555
H16 C12 1_555 1_555
H17 C12 1_555 1_555
C13 C9 1_555 1_555
H18 C13 1_555 1_555
H19 C13 1_555 1_555
C14 C13 1_555 1_555
H20 C14 1_555 1_555
H21 C14 1_555 1_555
C15 C14 1_555 1_555
C16 C10 1_555 1_555
H22 C16 1_555 1_555
C17 C15 1_555 1_555
H23 C17 1_555 1_555
H24 C17 1_555 1_555
H25 C17 1_555 1_555
C18 C16 1_555 1_555
H26 C18 1_555 1_555
H27 C18 1_555 1_555
C19 C18 1_555 1_555
H28 C19 1_555 1_555
H29 C19 1_555 1_555
C20 O1 1_555 1_555
C21 C20 1_555 1_555
H30 C21 1_555 1_555
H31 C21 1_555 1_555
H32 C21 1_555 1_555
O2 H33 1_555 1_555
N3 N4 1_555 1_555
N4 H34 1_555 1_555
C22 N3 1_555 1_555
H35 C22 1_555 1_555
C23 C22 1_555 1_555
C24 N4 1_555 1_555
C25 C24 1_555 1_555
H36 C25 1_555 1_555
H37 C25 1_555 1_555
C26 C25 1_555 1_555
H38 C26 1_555 1_555
C27 C26 1_555 1_555
C28 C23 1_555 1_555
H39 C28 1_555 1_555
H40 C28 1_555 1_555
C29 C27 1_555 1_555
H41 C29 1_555 1_555
H42 C29 1_555 1_555
H43 C29 1_555 1_555
C30 C27 1_555 1_555
H44 C30 1_555 1_555
C31 C30 1_555 1_555
H45 C31 1_555 1_555
C32 C31 1_555 1_555
H46 C32 1_555 1_555
H47 C32 1_555 1_555
C33 C26 1_555 1_555
H48 C33 1_555 1_555
H49 C33 1_555 1_555
C34 C30 1_555 1_555
H50 C34 1_555 1_555
H51 C34 1_555 1_555
C35 C34 1_555 1_555
H52 C35 1_555 1_555
H53 C35 1_555 1_555
C36 C35 1_555 1_555
C37 C31 1_555 1_555
H54 C37 1_555 1_555
C38 C36 1_555 1_555
H55 C38 1_555 1_555
H56 C38 1_555 1_555
H57 C38 1_555 1_555
C39 C37 1_555 1_555
H58 C39 1_555 1_555
H59 C39 1_555 1_555
C40 C39 1_555 1_555
H60 C40 1_555 1_555
H61 C40 1_555 1_555
C41 O2 1_555 1_555
C42 C41 1_555 1_555
H62 C42 1_555 1_555
H63 C42 1_555 1_555
H64 C42 1_555 1_555
O3 C43 1_555 1_555
O4 H65 1_555 1_555
O5 C46 1_555 1_555
O6 H66 1_555 1_555
C43 O4 1_555 1_555
C44 C43 1_555 1_555
C45 C44 1_555 1_555
C46 O6 1_555 1_555
C47 C45 1_555 1_555
H67 C47 1_555 1_555
C48 C47 1_555 1_555
H68 C48 1_555 1_555
C49 C48 1_555 1_555
H69 C49 1_555 1_555
C50 C44 1_555 1_555
H70 C50 1_555 1_555
O7 C51 1_555 1_555
O8 H71 1_555 1_555
O9 C54 1_555 1_555
O10 H72 1_555 1_555
C51 O8 1_555 1_555
C52 C51 1_555 1_555
C53 C52 1_555 1_555
C54 O10 1_555 1_555
C55 C53 1_555 1_555
H73 C55 1_555 1_555
C56 C55 1_555 1_555
H74 C56 1_555 1_555
C57 C56 1_555 1_555
H75 C57 1_555 1_555
C58 C52 1_555 1_555
H76 C58 1_555 1_555
C2 C3 1_555 1_555
C6 C7 1_555 1_555
C11 C12 1_555 1_555
C15 C16 1_555 1_555
C15 C20 1_555 1_555
C19 C20 1_555 1_555
C23 C24 1_555 1_555
C27 C28 1_555 1_555
C32 C33 1_555 1_555
C36 C37 1_555 1_555
C36 C41 1_555 1_555
C40 C41 1_555 1_555
C45 C46 1_555 1_555
C49 C50 1_555 1_555
C53 C54 1_555 1_555
C57 C58 1_555 1_555

#END
