
#######################################################################
#
#                 Cambridge Crystallographic Data Centre
#                                CCDC 
#
#######################################################################
#
# If this CIF has been generated from an entry in the Cambridge 
# Structural Database, then it will include bibliographic, chemical, 
# crystal, experimental, refinement or atomic coordinate data resulting 
# from the CCDC's data processing and validation procedures.
#
#######################################################################

data_JIWJIJ
_chemical_formula_moiety         'C14 H17 N3 O1 2+,2(Cl1 1-)'
_chemical_name_systematic        
'4-Hydroxy-2-(2-pyridiniomethyl)-1,2,3,4-tetrahydropyrido(1,2-a)pyrazin-5-ylium dichloride'
_symmetry_cell_setting           monoclinic
_symmetry_space_group_name_H-M   'P 21/n'
_symmetry_Int_Tables_number      14
_space_group_name_Hall           '-P 2yn'
loop_
_symmetry_equiv_pos_site_id
_symmetry_equiv_pos_as_xyz
1 x,y,z
2 1/2-x,1/2+y,1/2-z
3 -x,-y,-z
4 1/2+x,1/2-y,1/2+z
_cell_length_a                   9.3529(6)
_cell_length_b                   12.6172(8)
_cell_length_c                   13.3481(9)
_cell_angle_alpha                90
_cell_angle_beta                 109.7010(10)
_cell_angle_gamma                90
_cell_volume                     1482.97
_exptl_crystal_colour            colorless
_exptl_crystal_description       Block
_cell_formula_units_Z            4
loop_
_atom_site_label
_atom_site_type_symbol
_atom_site_fract_x
_atom_site_fract_y
_atom_site_fract_z
Cl1 Cl 0.91150(5) 0.76773(4) 0.35291(4)
Cl2 Cl 0.21304(5) 0.50544(4) 0.24360(4)
O1 O 0.5710(2) 0.71355(19) 0.25085(15)
H1 H 0.650(4) 0.724(3) 0.265(3)
N1 N 0.65254(19) 0.53946(14) 0.30359(13)
N2 N 0.73266(17) 0.59948(13) 0.13016(12)
N3 N 0.97564(18) 0.71988(12) 0.14317(12)
H3 H 0.928(3) 0.7196(18) 0.1869(19)
C1 C 0.6157(3) 0.5268(2) 0.3926(2)
H4 H 0.527(3) 0.565(2) 0.393(2)
C2 C 0.7063(3) 0.4670(2) 0.47574(19)
H5 H 0.682(3) 0.464(2) 0.540(2)
C3 C 0.8335(3) 0.41867(19) 0.46628(18)
H6 H 0.891(3) 0.383(2) 0.517(2)
C4 C 0.8677(3) 0.43204(17) 0.37435(18)
H7 H 0.948(3) 0.401(2) 0.367(2)
C5 C 0.7770(2) 0.49497(15) 0.29265(16)
C6 C 0.8132(2) 0.50998(16) 0.19286(16)
H8 H 0.786(3) 0.445(2) 0.1545(19)
H9 H 0.921(3) 0.5198(17) 0.2105(18)
C7 C 0.5719(2) 0.5897(2) 0.11538(18)
H10 H 0.516(3) 0.6414(19) 0.0662(19)
H11 H 0.535(3) 0.519(2) 0.096(2)
C8 C 0.5450(4) 0.6086(3) 0.2154(3)
H12 H 0.446(3) 0.5893(18) 0.2101(18)
C10 C 0.7665(2) 0.61106(18) 0.03193(16)
H14 H 0.767(3) 0.541(2) -0.0061(19)
H15 H 0.691(3) 0.6523(19) -0.014(2)
C11 C 0.9173(2) 0.66502(15) 0.05239(14)
C12 C 0.9964(3) 0.66334(18) -0.01858(16)
H16 H 0.951(3) 0.626(2) -0.083(2)
C13 C 1.1330(3) 0.71659(19) 0.00671(19)
H17 H 1.182(3) 0.717(2) -0.042(2)
C14 C 1.1895(3) 0.77153(18) 0.10167(19)
H18 H 1.276(3) 0.808(2) 0.120(2)
C15 C 1.1081(2) 0.77186(16) 0.16967(17)
H19 H 1.141(3) 0.8041(18) 0.2329(18)
O2? O 0.4498(12) 0.6609(11) 0.2629(9)
H2? H 0.3930 0.6064 0.2508
C9? C 0.581(2) 0.638(2) 0.2427(14)
H13? H 0.6519 0.6976 0.2636
loop_
_geom_bond_atom_site_label_1
_geom_bond_atom_site_label_2
_geom_bond_site_symmetry_1
_geom_bond_site_symmetry_2
O1 H1 1_555 1_555
N1 C1 1_555 1_555
N2 C6 1_555 1_555
N3 H3 1_555 1_555
C1 H4 1_555 1_555
C2 C1 1_555 1_555
H5 C2 1_555 1_555
C3 C2 1_555 1_555
H6 C3 1_555 1_555
C4 C3 1_555 1_555
H7 C4 1_555 1_555
C5 N1 1_555 1_555
C6 C5 1_555 1_555
H8 C6 1_555 1_555
H9 C6 1_555 1_555
C7 N2 1_555 1_555
H10 C7 1_555 1_555
H11 C7 1_555 1_555
C8 O1 1_555 1_555
H12 C8 1_555 1_555
C10 N2 1_555 1_555
H14 C10 1_555 1_555
H15 C10 1_555 1_555
C11 N3 1_555 1_555
C12 C11 1_555 1_555
H16 C12 1_555 1_555
C13 C12 1_555 1_555
H17 C13 1_555 1_555
C14 C13 1_555 1_555
H18 C14 1_555 1_555
C15 N3 1_555 1_555
H19 C15 1_555 1_555
N1 C8 1_555 1_555
C4 C5 1_555 1_555
C7 C8 1_555 1_555
C10 C11 1_555 1_555
C14 C15 1_555 1_555

#END
