
#######################################################################
#
#                 Cambridge Crystallographic Data Centre
#                                CCDC 
#
#######################################################################
#
# If this CIF has been generated from an entry in the Cambridge 
# Structural Database, then it will include bibliographic, chemical, 
# crystal, experimental, refinement or atomic coordinate data resulting 
# from the CCDC's data processing and validation procedures.
#
#######################################################################

data_JIWPOU01
_chemical_formula_moiety         'C6 H7 N3 O1'
_chemical_name_systematic        N'-Hydroxypyridine-2-carboximidamide
_symmetry_cell_setting           monoclinic
_symmetry_space_group_name_H-M   'C 2/c'
_symmetry_Int_Tables_number      15
_space_group_name_Hall           '-C 2yn'
loop_
_symmetry_equiv_pos_site_id
_symmetry_equiv_pos_as_xyz
1 x,y,z
2 -x,y,1/2-z
3 1/2+x,1/2+y,z
4 1/2-x,1/2+y,1/2-z
5 -x,-y,-z
6 x,-y,1/2+z
7 1/2-x,1/2-y,-z
8 1/2+x,1/2-y,1/2+z
_cell_length_a                   21.367(5)
_cell_length_b                   4.6382(11)
_cell_length_c                   13.003(3)
_cell_angle_alpha                90
_cell_angle_beta                 105.468(12)
_cell_angle_gamma                90
_cell_volume                     1241.98
_exptl_crystal_colour            colorless
_exptl_crystal_description       Prism
_cell_formula_units_Z            8
loop_
_atom_site_label
_atom_site_type_symbol
_atom_site_fract_x
_atom_site_fract_y
_atom_site_fract_z
O1 O 0.19134(4) 0.1826(2) 0.26040(7)
H1 H 0.0896(7) 0.225(3) 0.1797(12)
H2 H 0.0456(6) 0.081(3) 0.0861(11)
H3 H 0.2316(9) 0.260(4) 0.2779(14)
C1 C 0.12315(6) -0.2716(3) 0.03188(9)
C2 C 0.17439(6) -0.4236(3) 0.01036(10)
H4 H 0.2167 -0.3964 0.0520
C3 C 0.16144(6) -0.6149(3) -0.07361(10)
H5 H 0.1949 -0.7164 -0.0904
C4 C 0.09770(6) -0.6536(3) -0.13259(10)
H6 H 0.0874 -0.7834 -0.1891
C5 C 0.05004(6) -0.4948(3) -0.10538(10)
H7 H 0.0073 -0.5229 -0.1449
C6 C 0.13390(5) -0.0595(3) 0.12070(9)
N1 N 0.06133(5) -0.3023(2) -0.02561(8)
N2 N 0.08163(5) 0.0824(2) 0.13540(9)
N3 N 0.19228(5) -0.0259(2) 0.18081(8)
loop_
_geom_bond_atom_site_label_1
_geom_bond_atom_site_label_2
_geom_bond_site_symmetry_1
_geom_bond_site_symmetry_2
O1 H3 1_555 1_555
H1 N2 1_555 1_555
H2 N2 1_555 1_555
C1 C2 1_555 1_555
C2 H4 1_555 1_555
C3 C2 1_555 1_555
H5 C3 1_555 1_555
C4 C3 1_555 1_555
H6 C4 1_555 1_555
C5 C4 1_555 1_555
H7 C5 1_555 1_555
C6 C1 1_555 1_555
N1 C1 1_555 1_555
N2 C6 1_555 1_555
N3 O1 1_555 1_555
C5 N1 1_555 1_555
C6 N3 1_555 1_555

#END
