
#######################################################################
#
#                 Cambridge Crystallographic Data Centre
#                                CCDC 
#
#######################################################################
#
# If this CIF has been generated from an entry in the Cambridge 
# Structural Database, then it will include bibliographic, chemical, 
# crystal, experimental, refinement or atomic coordinate data resulting 
# from the CCDC's data processing and validation procedures.
#
#######################################################################

data_JIWQIQ
_chemical_name_common            
'2,4,6-Triamino-1,3,5-triazin-1-ium 3-carboxybenzoate dihydrate'
_chemical_formula_moiety         'C3 H7 N6 1+,C8 H5 O4 1-,2(H2 O1)'
_chemical_name_systematic        'Melaminium isophthalate dihydrate'
_symmetry_cell_setting           triclinic
_symmetry_space_group_name_H-M   'P -1'
_symmetry_Int_Tables_number      2
_space_group_name_Hall           '-P 1'
loop_
_symmetry_equiv_pos_site_id
_symmetry_equiv_pos_as_xyz
1 x,y,z
2 -x,-y,-z
_cell_length_a                   7.0228(6)
_cell_length_b                   9.1706(8)
_cell_length_c                   12.1697(11)
_cell_angle_alpha                95.337(2)
_cell_angle_beta                 105.247(2)
_cell_angle_gamma                97.813(2)
_cell_volume                     742.333
_exptl_crystal_colour            colorless
_cell_formula_units_Z            2
loop_
_atom_site_label
_atom_site_type_symbol
_atom_site_fract_x
_atom_site_fract_y
_atom_site_fract_z
O1 O 1.25611(17) -0.52540(10) 1.52743(8)
O2 O 1.15247(15) -0.73796(10) 1.58233(7)
O3 O 1.12562(18) -0.73281(11) 0.99233(8)
O4 O 1.23665(16) -0.52448(10) 1.11473(8)
H1 H 1.255(3) -0.484(2) 1.0537(17)
C1 C 1.15589(18) -0.74185(14) 1.38834(10)
C2 C 1.0958(2) -0.89466(15) 1.36815(11)
H2 H 1.0800 -0.9460 1.4284
C3 C 1.0592(2) -0.97149(15) 1.25965(12)
H3 H 1.0205 -1.0741 1.2473
C4 C 1.0799(2) -0.89587(15) 1.16944(11)
H4 H 1.0533 -0.9474 1.0961
C5 C 1.14051(18) -0.74302(13) 1.18807(10)
C6 C 1.17968(18) -0.66593(13) 1.29742(10)
H5 H 1.2218 -0.5636 1.3101
C7 C 1.19130(19) -0.66166(14) 1.50744(10)
C8 C 1.16543(19) -0.66712(14) 1.08826(10)
N1 N 1.21058(19) -0.59594(12) 0.80597(9)
H6 H 1.1860 -0.6468 0.8580
H7 H 1.1912 -0.6389 0.7371
N2 N 1.31358(15) -0.37679(11) 0.74607(8)
H8 H 1.292(2) -0.4266(17) 0.6749(14)
N3 N 1.40487(17) -0.15513(12) 0.68445(9)
H9 H 1.4468 -0.0609 0.6969
H10 H 1.3799 -0.2024 0.6164
N4 N 1.41683(16) -0.15573(11) 0.87459(9)
N5 N 1.41682(19) -0.16846(13) 1.06016(9)
H11 H 1.4618 -0.0746 1.0745
H12 H 1.3957 -0.2167 1.1143
N6 N 1.30823(16) -0.38536(11) 0.93733(8)
C9 C 1.27747(18) -0.45333(13) 0.83149(10)
C10 C 1.37894(17) -0.22713(13) 0.76950(10)
C11 C 1.38040(19) -0.23808(13) 0.95564(10)
O5 O 1.2568(2) -0.26738(14) 0.43880(9)
H13 H 1.261(3) -0.361(3) 0.4504(18)
H14 H 1.141(3) -0.255(2) 0.4325(18)
O6 O 1.5084(2) -0.83978(12) 1.69611(9)
H15 H 1.587(3) -0.807(2) 1.6602(17)
H16 H 1.399(3) -0.808(2) 1.6635(18)
loop_
_geom_bond_atom_site_label_1
_geom_bond_atom_site_label_2
_geom_bond_site_symmetry_1
_geom_bond_site_symmetry_2
O1 C7 1_555 1_555
O2 C7 1_555 1_555
O3 C8 1_555 1_555
O4 H1 1_555 1_555
C1 C2 1_555 1_555
C2 H2 1_555 1_555
C3 C2 1_555 1_555
H3 C3 1_555 1_555
C4 C3 1_555 1_555
H4 C4 1_555 1_555
C5 C4 1_555 1_555
C6 C1 1_555 1_555
H5 C6 1_555 1_555
C7 C1 1_555 1_555
C8 O4 1_555 1_555
N1 H6 1_555 1_555
H7 N1 1_555 1_555
N2 H8 1_555 1_555
N3 H9 1_555 1_555
H10 N3 1_555 1_555
N4 C10 1_555 1_555
N5 H11 1_555 1_555
H12 N5 1_555 1_555
N6 C9 1_555 1_555
C9 N1 1_555 1_555
C10 N2 1_555 1_555
C11 N4 1_555 1_555
O5 H13 1_555 1_555
H14 O5 1_555 1_555
O6 H15 1_555 1_555
H16 O6 1_555 1_555
C5 C6 1_555 1_555
C5 C8 1_555 1_555
N2 C9 1_555 1_555
N3 C10 1_555 1_555
N5 C11 1_555 1_555
N6 C11 1_555 1_555

#END
