
#######################################################################
#
#                 Cambridge Crystallographic Data Centre
#                                CCDC 
#
#######################################################################
#
# If this CIF has been generated from an entry in the Cambridge 
# Structural Database, then it will include bibliographic, chemical, 
# crystal, experimental, refinement or atomic coordinate data resulting 
# from the CCDC's data processing and validation procedures.
#
#######################################################################

data_JIWVAP
_chemical_name_common            5-bromo-2,1,3-benzothiadiazole
_chemical_formula_moiety         'C6 H3 Br1 N2 S1'
_chemical_name_systematic        5-Bromobenzo[c][1,2,5]thiadiazole
_symmetry_cell_setting           monoclinic
_symmetry_space_group_name_H-M   'P 21/c'
_symmetry_Int_Tables_number      14
_space_group_name_Hall           '-P 2ybc'
loop_
_symmetry_equiv_pos_site_id
_symmetry_equiv_pos_as_xyz
1 x,y,z
2 -x,1/2+y,1/2-z
3 -x,-y,-z
4 x,1/2-y,1/2+z
_cell_length_a                   9.8560(11)
_cell_length_b                   3.8407(4)
_cell_length_c                   18.626(2)
_cell_angle_alpha                90
_cell_angle_beta                 102.777(4)
_cell_angle_gamma                90
_cell_volume                     687.609
_exptl_crystal_colour            colorless
_exptl_crystal_description       block
_chemical_melting_point          '332 K'
_cell_formula_units_Z            4
loop_
_atom_site_label
_atom_site_type_symbol
_atom_site_fract_x
_atom_site_fract_y
_atom_site_fract_z
Br1 Br 0.78106(3) 0.26260(6) 0.80925(2)
S1 S 0.82209(7) 0.71262(15) 0.47828(3)
N1 N 0.6771(3) 0.8005(5) 0.49993(13)
N2 N 0.9075(2) 0.5302(5) 0.55408(12)
C1 C 0.7481(3) 0.4302(6) 0.71119(14)
C2 C 0.6876(3) 0.6861(6) 0.56934(14)
C3 C 0.8504(3) 0.4019(6) 0.67358(14)
H1 H 0.9377 0.2995 0.6950
C4 C 0.6151(3) 0.5792(6) 0.68110(15)
H2 H 0.5473 0.5893 0.7102
C5 C 0.5844(3) 0.7065(6) 0.61160(16)
H3 H 0.4960 0.8069 0.5916
C6 C 0.8205(3) 0.5330(6) 0.60063(13)
loop_
_geom_bond_atom_site_label_1
_geom_bond_atom_site_label_2
_geom_bond_site_symmetry_1
_geom_bond_site_symmetry_2
Br1 C1 1_555 1_555
S1 N1 1_555 1_555
N1 C2 1_555 1_555
N2 S1 1_555 1_555
C1 C3 1_555 1_555
C2 C5 1_555 1_555
C3 H1 1_555 1_555
C4 C1 1_555 1_555
H2 C4 1_555 1_555
C5 C4 1_555 1_555
H3 C5 1_555 1_555
C6 N2 1_555 1_555
C2 C6 1_555 1_555
C3 C6 1_555 1_555

#END
