
#######################################################################
#
#                 Cambridge Crystallographic Data Centre
#                                CCDC 
#
#######################################################################
#
# If this CIF has been generated from an entry in the Cambridge 
# Structural Database, then it will include bibliographic, chemical, 
# crystal, experimental, refinement or atomic coordinate data resulting 
# from the CCDC's data processing and validation procedures.
#
#######################################################################

data_JIWVUJ
_chemical_name_common            5,6-dichloro-2,1,3-benzothiadiazole
_chemical_formula_moiety         'C6 H2 Cl2 N2 S1'
_chemical_name_systematic        5,6-Dichlorobenzo[c][1,2,5]thiadiazole
_symmetry_cell_setting           monoclinic
_symmetry_space_group_name_H-M   'P 21/c'
_symmetry_Int_Tables_number      14
_space_group_name_Hall           '-P 2ybc'
loop_
_symmetry_equiv_pos_site_id
_symmetry_equiv_pos_as_xyz
1 x,y,z
2 -x,1/2+y,1/2-z
3 -x,-y,-z
4 x,1/2-y,1/2+z
_cell_length_a                   3.7744(12)
_cell_length_b                   18.321(6)
_cell_length_c                   11.010(4)
_cell_angle_alpha                90
_cell_angle_beta                 99.413(8)
_cell_angle_gamma                90
_cell_volume                     751.099
_exptl_crystal_colour            colorless
_exptl_crystal_description       block
_cell_formula_units_Z            4
loop_
_atom_site_label
_atom_site_type_symbol
_atom_site_fract_x
_atom_site_fract_y
_atom_site_fract_z
Cl1 Cl 0.0314(2) 0.29368(4) 0.15372(7)
Cl2 Cl 0.4461(2) 0.29577(4) 0.42555(7)
S1 S 0.6294(2) 0.61769(4) 0.22975(7)
N1 N 0.3974(8) 0.56287(15) 0.1322(2)
N2 N 0.7425(8) 0.56375(14) 0.3459(2)
C1 C 0.2423(8) 0.37312(15) 0.2124(3)
C2 C 0.4389(8) 0.37366(16) 0.3362(3)
C3 C 0.6153(8) 0.43430(16) 0.3861(2)
H1 H 0.7473 0.4338 0.4674
C4 C 0.3952(8) 0.49776(16) 0.1894(3)
C5 C 0.5942(8) 0.49822(16) 0.3121(3)
C6 C 0.2209(8) 0.43329(16) 0.1392(3)
H2 H 0.0937 0.4322 0.0573
loop_
_geom_bond_atom_site_label_1
_geom_bond_atom_site_label_2
_geom_bond_site_symmetry_1
_geom_bond_site_symmetry_2
Cl1 C1 1_555 1_555
Cl2 C2 1_555 1_555
S1 N1 1_555 1_555
N1 C4 1_555 1_555
N2 S1 1_555 1_555
C1 C2 1_555 1_555
C2 C3 1_555 1_555
C3 H1 1_555 1_555
C4 C5 1_555 1_555
C5 N2 1_555 1_555
C6 C1 1_555 1_555
H2 C6 1_555 1_555
C3 C5 1_555 1_555
C4 C6 1_555 1_555

#END
