
#######################################################################
#
#                 Cambridge Crystallographic Data Centre
#                                CCDC 
#
#######################################################################
#
# If this CIF has been generated from an entry in the Cambridge 
# Structural Database, then it will include bibliographic, chemical, 
# crystal, experimental, refinement or atomic coordinate data resulting 
# from the CCDC's data processing and validation procedures.
#
#######################################################################

data_JIXDOM
_chemical_formula_moiety         'C18 H18 N3 O1 P1'
_chemical_name_systematic        
6-(diphenylphosphoryl)-N,N-dimethylpyrazin-2-amine
_symmetry_cell_setting           triclinic
_symmetry_space_group_name_H-M   'P -1'
_symmetry_Int_Tables_number      2
_space_group_name_Hall           '-P 1'
loop_
_symmetry_equiv_pos_site_id
_symmetry_equiv_pos_as_xyz
1 x,y,z
2 -x,-y,-z
_cell_length_a                   8.6113(12)
_cell_length_b                   8.9472(13)
_cell_length_c                   11.0690(16)
_cell_angle_alpha                74.420(2)
_cell_angle_beta                 86.549(2)
_cell_angle_gamma                86.805(2)
_cell_volume                     819.313
_exptl_crystal_colour            white
_exptl_crystal_description       block
_cell_formula_units_Z            2
loop_
_atom_site_label
_atom_site_type_symbol
_atom_site_fract_x
_atom_site_fract_y
_atom_site_fract_z
C1 C 0.19984(19) 0.71881(19) 0.97136(15)
C2 C 0.0849(2) 0.7648(2) 1.04812(18)
H1 H 0.0359 0.8626 1.0222
C3 C 0.0426(3) 0.6663(3) 1.1630(2)
H2 H -0.0342 0.6981 1.2145
C4 C 0.1139(3) 0.5218(3) 1.2011(2)
H3 H 0.0837 0.4546 1.2776
C5 C 0.2303(3) 0.4759(2) 1.1260(2)
H4 H 0.2797 0.3784 1.1530
C6 C 0.2739(3) 0.5735(2) 1.01120(18)
H5 H 0.3525 0.5421 0.9608
C7 C 0.45562(19) 0.87362(19) 0.81228(16)
C8 C 0.5350(2) 0.8712(2) 0.91754(18)
H6 H 0.4848 0.8416 0.9966
C9 C 0.6887(2) 0.9123(3) 0.9063(2)
H7 H 0.7408 0.9115 0.9776
C10 C 0.7643(2) 0.9543(3) 0.7906(2)
H8 H 0.8671 0.9837 0.7831
C11 C 0.6878(3) 0.9527(3) 0.6855(2)
H9 H 0.7400 0.9784 0.6071
C12 C 0.5338(2) 0.9131(2) 0.69553(18)
H10 H 0.4826 0.9129 0.6240
C13 C 0.21333(19) 0.7579(2) 0.70181(16)
C14 C 0.1124(2) 0.8261(2) 0.60960(17)
H11 H 0.0595 0.9192 0.6108
C15 C 0.1655(3) 0.6271(3) 0.52145(19)
H12 H 0.1524 0.5797 0.4578
C16 C 0.2674(2) 0.5525(2) 0.61866(17)
C17 C 0.3171(4) 0.3247(3) 0.5367(3)
H13 H 0.2079 0.3090 0.5352
H14 H 0.3722 0.2259 0.5621
H15 H 0.3552 0.3800 0.4545
C18 C 0.4345(4) 0.3382(3) 0.7303(3)
H16 H 0.5359 0.3807 0.7176
H17 H 0.4442 0.2288 0.7371
H18 H 0.3852 0.3545 0.8061
N1 N 0.29168(18) 0.62258(18) 0.70800(14)
N2 N 0.0899(2) 0.7587(2) 0.51750(16)
N3 N 0.3412(3) 0.4142(2) 0.62506(18)
O1 O 0.15934(15) 1.00365(14) 0.80450(13)
P1 P 0.24790(5) 0.85319(5) 0.82290(4)
loop_
_geom_bond_atom_site_label_1
_geom_bond_atom_site_label_2
_geom_bond_site_symmetry_1
_geom_bond_site_symmetry_2
C1 C2 1_555 1_555
C2 H1 1_555 1_555
C3 C2 1_555 1_555
H2 C3 1_555 1_555
C4 C3 1_555 1_555
H3 C4 1_555 1_555
C5 C4 1_555 1_555
H4 C5 1_555 1_555
C6 C1 1_555 1_555
H5 C6 1_555 1_555
C7 C8 1_555 1_555
C8 H6 1_555 1_555
C9 C8 1_555 1_555
H7 C9 1_555 1_555
C10 C9 1_555 1_555
H8 C10 1_555 1_555
C11 C10 1_555 1_555
H9 C11 1_555 1_555
C12 C7 1_555 1_555
H10 C12 1_555 1_555
C13 C14 1_555 1_555
C14 H11 1_555 1_555
C15 H12 1_555 1_555
C16 C15 1_555 1_555
C17 H13 1_555 1_555
H14 C17 1_555 1_555
H15 C17 1_555 1_555
C18 H16 1_555 1_555
H17 C18 1_555 1_555
H18 C18 1_555 1_555
N1 C13 1_555 1_555
N2 C14 1_555 1_555
N3 C16 1_555 1_555
O1 P1 1_555 1_555
P1 C1 1_555 1_555
C5 C6 1_555 1_555
C7 P1 1_555 1_555
C11 C12 1_555 1_555
C13 P1 1_555 1_555
C15 N2 1_555 1_555
C16 N1 1_555 1_555
C17 N3 1_555 1_555
C18 N3 1_555 1_555

#END
