
#######################################################################
#
#                 Cambridge Crystallographic Data Centre
#                                CCDC 
#
#######################################################################
#
# If this CIF has been generated from an entry in the Cambridge 
# Structural Database, then it will include bibliographic, chemical, 
# crystal, experimental, refinement or atomic coordinate data resulting 
# from the CCDC's data processing and validation procedures.
#
#######################################################################

data_JIXMOS
_chemical_formula_moiety         'C37 H40 N2 O8 S2'
_chemical_name_systematic        
2,3-bis(Methoxycarbonyl)-5(E)-((1,2-bis(methoxycarbonyl)vinyl)thio)-7,7-dimethyl-7,8-dihydro-1',3'-dibenzylbenzo(b)thiopyran-4-spiro-2'-imidazolidine
_symmetry_cell_setting           triclinic
_symmetry_space_group_name_H-M   'P -1'
_symmetry_Int_Tables_number      2
_space_group_name_Hall           '-P 1'
loop_
_symmetry_equiv_pos_site_id
_symmetry_equiv_pos_as_xyz
1 x,y,z
2 -x,-y,-z
_cell_length_a                   10.798(2)
_cell_length_b                   11.715(3)
_cell_length_c                   15.572(6)
_cell_angle_alpha                101.21(3)
_cell_angle_beta                 92.72(3)
_cell_angle_gamma                108.60(2)
_cell_volume                     1818.59
_exptl_crystal_colour            'pale yellow'
_chemical_melting_point          107-108deg.C
_cell_formula_units_Z            2
loop_
_atom_site_label
_atom_site_type_symbol
_atom_site_fract_x
_atom_site_fract_y
_atom_site_fract_z
S1 S 0.2466(1) 0.6834(1) 0.3830(1)
S2 S 0.5615(1) 0.9864(1) 0.1870(1)
N1 N 0.3173(4) 0.7994(4) 0.1277(2)
N2 N 0.2789(4) 0.9437(4) 0.2309(3)
O1 O 0.0095(4) 0.6283(4) 0.0971(3)
O2 O -0.0230(4) 0.7879(4) 0.1833(3)
O3 O -0.1028(4) 0.5755(4) 0.2622(3)
O4 O -0.0126(3) 0.5727(3) 0.3923(2)
O5 O 0.8619(3) 1.1083(3) 0.3528(2)
O6 O 0.7005(4) 1.1883(4) 0.3714(3)
O7 O 0.9494(4) 1.3117(4) 0.2641(3)
O8 O 0.9806(4) 1.2597(4) 0.1234(3)
C1 C 0.1266(5) 0.6758(5) 0.3013(3)
C2 C 0.1512(4) 0.7280(4) 0.2318(3)
C3 C 0.2836(5) 0.8188(4) 0.2178(3)
C4 C 0.3993(4) 0.8201(4) 0.2777(3)
C5 C 0.3901(5) 0.7676(5) 0.3477(3)
C6 C 0.5107(5) 0.7783(5) 0.4048(3)
C7 C 0.6219(5) 0.7670(5) 0.3517(4)
C8 C 0.6359(5) 0.8524(5) 0.2889(3)
C9 C 0.5344(5) 0.8794(5) 0.2569(3)
C10 C 0.5924(7) 0.6368(6) 0.2987(5)
C11 C 0.7499(6) 0.8054(7) 0.4121(4)
C12 C 0.2647(5) 0.8693(5) 0.0775(3)
C13 C 0.2470(6) 0.9719(5) 0.1473(3)
C14 C 0.7208(5) 1.0879(5) 0.2279(3)
C15 C 0.7964(5) 1.1344(6) 0.1689(4)
C16 C -0.1302(7) 0.7747(9) 0.1194(5)
C17 C 0.0385(5) 0.7060(6) 0.1634(4)
C18 C -0.1387(5) 0.5015(6) 0.4124(4)
C19 C -0.0090(5) 0.6020(5) 0.3141(4)
C20 C 0.9096(6) 1.1574(6) 0.4438(4)
C21 C 0.7575(5) 1.1345(5) 0.3246(3)
C22 C 1.0940(7) 1.3705(6) 0.1353(5)
C23 C 0.9154(5) 1.2431(5) 0.1927(4)
C24 C 0.3102(6) 0.6740(5) 0.0842(3)
C25 C 0.3230(6) 0.6416(6) -0.0785(4)
C26 C 0.3957(8) 0.6466(7) -0.1493(4)
C27 C 0.5275(8) 0.6866(7) -0.1382(4)
C28 C 0.5912(7) 0.7216(9) -0.0565(5)
C29 C 0.5208(6) 0.7164(8) 0.0163(4)
C30 C 0.3862(5) 0.6762(5) 0.0057(3)
C31 C 0.2263(5) 0.9927(5) 0.3082(3)
C32 C 0.1913(6) 1.1982(6) 0.3316(3)
C33 C 0.2368(6) 1.3245(6) 0.3604(4)
C34 C 0.3669(7) 1.3851(6) 0.3886(4)
C35 C 0.4524(6) 1.3210(6) 0.3864(4)
C36 C 0.4079(5) 1.1943(5) 0.3593(3)
C37 C 0.2754(5) 1.1303(5) 0.3325(3)
H1 H 0.4896 0.7158 0.4387
H2 H 0.5395 0.8574 0.4451
H3 H 0.7210 0.8876 0.2708
H4 H 0.5822 0.5817 0.3381
H5 H 0.5130 0.6124 0.2591
H6 H 0.6614 0.6338 0.2655
H7 H 0.7411 0.7522 0.4528
H8 H 0.8196 0.7996 0.3773
H9 H 0.7700 0.8891 0.4441
H10 H 0.1820 0.8186 0.0439
H11 H 0.3252 0.9027 0.0382
H12 H 0.3060 1.0510 0.1429
H13 H 0.1584 0.9726 0.1413
H14 H 0.7717 1.0939 0.1078
H15 H -0.1679 0.8376 0.1396
H16 H -0.0974 0.7842 0.0640
H17 H -0.1962 0.6948 0.1120
H18 H -0.1295 0.4864 0.4704
H19 H -0.1991 0.5461 0.4101
H20 H -0.1717 0.4242 0.3700
H21 H 0.9838 1.1335 0.4583
H22 H 0.9359 1.2459 0.4554
H23 H 0.8412 1.1266 0.4791
H24 H 1.1353 1.3742 0.0822
H25 H 1.0644 1.4401 0.1509
H26 H 1.1560 1.3721 0.1821
H27 H 0.2200 0.6233 0.0662
H28 H 0.3467 0.6390 0.1257
H29 H 0.2285 0.6115 -0.0878
H30 H 0.3497 0.6220 -0.2077
H31 H 0.5752 0.6919 -0.1886
H32 H 0.6855 0.7473 -0.0477
H33 H 0.5664 0.7418 0.0749
H34 H 0.2515 0.9625 0.3569
H35 H 0.1319 0.9631 0.2977
H36 H 0.0998 1.1559 0.3107
H37 H 0.1770 1.3701 0.3607
H38 H 0.3987 1.4730 0.4105
H39 H 0.5448 1.3640 0.4035
H40 H 0.4685 1.1496 0.3593
loop_
_geom_bond_atom_site_label_1
_geom_bond_atom_site_label_2
_geom_bond_site_symmetry_1
_geom_bond_site_symmetry_2
S1 C1 1_555 1_555
S2 C9 1_555 1_555
N1 C3 1_555 1_555
N2 C3 1_555 1_555
O1 C17 1_555 1_555
O2 C16 1_555 1_555
O3 C19 1_555 1_555
O4 C18 1_555 1_555
O5 C20 1_555 1_555
O6 C21 1_555 1_555
O7 C23 1_555 1_555
O8 C22 1_555 1_555
C1 C2 1_555 1_555
C2 C3 1_555 1_555
C3 C4 1_555 1_555
C4 C5 1_555 1_555
C5 S1 1_555 1_555
C6 C5 1_555 1_555
C7 C6 1_555 1_555
C8 C7 1_555 1_555
C9 C4 1_555 1_555
C10 C7 1_555 1_555
C11 C7 1_555 1_555
C12 N1 1_555 1_555
C13 N2 1_555 1_555
C14 S2 1_555 1_555
C15 C14 1_555 1_555
C16 H15 1_555 1_555
C17 O2 1_555 1_555
C18 H18 1_555 1_555
C19 O4 1_555 1_555
C20 H21 1_555 1_555
C21 O5 1_555 1_555
C22 H24 1_555 1_555
C23 O8 1_555 1_555
C24 N1 1_555 1_555
C25 C26 1_555 1_555
C26 C27 1_555 1_555
C27 C28 1_555 1_555
C28 C29 1_555 1_555
C29 C30 1_555 1_555
C30 C24 1_555 1_555
C31 N2 1_555 1_555
C32 C33 1_555 1_555
C33 C34 1_555 1_555
C34 C35 1_555 1_555
C35 C36 1_555 1_555
C36 C37 1_555 1_555
C37 C31 1_555 1_555
H1 C6 1_555 1_555
H2 C6 1_555 1_555
H3 C8 1_555 1_555
H4 C10 1_555 1_555
H5 C10 1_555 1_555
H6 C10 1_555 1_555
H7 C11 1_555 1_555
H8 C11 1_555 1_555
H9 C11 1_555 1_555
H10 C12 1_555 1_555
H11 C12 1_555 1_555
H12 C13 1_555 1_555
H13 C13 1_555 1_555
H14 C15 1_555 1_555
H16 C16 1_555 1_555
H17 C16 1_555 1_555
H19 C18 1_555 1_555
H20 C18 1_555 1_555
H22 C20 1_555 1_555
H23 C20 1_555 1_555
H25 C22 1_555 1_555
H26 C22 1_555 1_555
H27 C24 1_555 1_555
H28 C24 1_555 1_555
H29 C25 1_555 1_555
H30 C26 1_555 1_555
H31 C27 1_555 1_555
H32 C28 1_555 1_555
H33 C29 1_555 1_555
H34 C31 1_555 1_555
H35 C31 1_555 1_555
H36 C32 1_555 1_555
H37 C33 1_555 1_555
H38 C34 1_555 1_555
H39 C35 1_555 1_555
H40 C36 1_555 1_555
C1 C19 1_555 1_555
C2 C17 1_555 1_555
C8 C9 1_555 1_555
C12 C13 1_555 1_555
C14 C21 1_555 1_555
C15 C23 1_555 1_555
C25 C30 1_555 1_555
C32 C37 1_555 1_555

#END
