
#######################################################################
#
#                 Cambridge Crystallographic Data Centre
#                                CCDC 
#
#######################################################################
#
# If this CIF has been generated from an entry in the Cambridge 
# Structural Database, then it will include bibliographic, chemical, 
# crystal, experimental, refinement or atomic coordinate data resulting 
# from the CCDC's data processing and validation procedures.
#
#######################################################################

data_JIYDUT
_chemical_formula_moiety         'C26 H5 B1 F15 1-,C6 H13 N2 1+,C6 H12 N2'
_chemical_name_systematic        
'1,4-diazabicyclo[2.2.2]octan-1-ium tris(pentafluorophenyl)(phenylethynyl)borate hemikis(1,4-diazabicyclo[2.2.2]octane)'
_symmetry_cell_setting           triclinic
_symmetry_space_group_name_H-M   'P -1'
_symmetry_Int_Tables_number      2
_space_group_name_Hall           '-P 1'
loop_
_symmetry_equiv_pos_site_id
_symmetry_equiv_pos_as_xyz
1 x,y,z
2 -x,-y,-z
_cell_length_a                   9.0385(6)
_cell_length_b                   11.8818(8)
_cell_length_c                   17.9049(11)
_cell_angle_alpha                92.998(2)
_cell_angle_beta                 101.805(2)
_cell_angle_gamma                106.192(2)
_cell_volume                     1795.27
_exptl_crystal_colour            colorless
_exptl_crystal_description       plate
_cell_formula_units_Z            2
_chemical_properties_physical    Moisture-sensitive
_exptl_crystal_recrystallization_method 
'Re-crystallisation from solvent: Acetonitrile/Hexane'
loop_
_atom_site_label
_atom_site_type_symbol
_atom_site_fract_x
_atom_site_fract_y
_atom_site_fract_z
C1 C 0.2633(3) 0.5928(2) 0.78652(15)
C2 C 0.2544(3) 0.4978(2) 0.80824(15)
C3 C 0.2382(3) 0.3781(2) 0.82466(16)
C4 C 0.1985(3) 0.2887(2) 0.76345(19)
H1 H 0.182376 0.307826 0.712128
C5 C 0.1826(4) 0.1734(3) 0.7771(2)
H2 H 0.154648 0.113110 0.735274
C6 C 0.2071(4) 0.1459(3) 0.8507(3)
H3 H 0.198646 0.066468 0.859702
C7 C 0.2440(4) 0.2315(3) 0.9124(2)
H4 H 0.258515 0.210903 0.963350
C8 C 0.2596(3) 0.3485(3) 0.89923(18)
H5 H 0.285023 0.407928 0.941327
C9 C 0.1445(3) 0.7179(2) 0.68034(15)
C10 C 0.0482(3) 0.6189(2) 0.63072(16)
C11 C -0.0442(3) 0.6237(3) 0.56020(16)
C12 C -0.0436(3) 0.7301(3) 0.53454(16)
C13 C 0.0477(3) 0.8314(3) 0.58130(17)
C14 C 0.1371(3) 0.8225(2) 0.65122(16)
C15 C 0.4448(3) 0.7874(2) 0.74704(14)
C16 C 0.5121(3) 0.7282(2) 0.70100(15)
C17 C 0.6557(3) 0.7757(2) 0.68299(15)
C18 C 0.7401(3) 0.8914(3) 0.70971(17)
C19 C 0.6801(3) 0.9545(2) 0.75504(16)
C20 C 0.5361(3) 0.9040(2) 0.77217(15)
C21 C 0.2305(3) 0.7859(2) 0.83696(15)
C22 C 0.0862(3) 0.8008(2) 0.84090(16)
C23 C 0.0534(3) 0.8476(2) 0.90578(18)
C24 C 0.1689(4) 0.8805(2) 0.97248(17)
C25 C 0.3133(4) 0.8650(2) 0.97287(16)
C26 C 0.3418(3) 0.8180(2) 0.90727(16)
B1 B 0.2686(3) 0.7209(3) 0.76279(17)
F1 F 0.0382(2) 0.50880(13) 0.65030(10)
F2 F -0.1377(2) 0.52285(16) 0.51577(10)
F3 F -0.1315(2) 0.73581(19) 0.46500(10)
F4 F 0.0481(2) 0.93719(16) 0.55786(11)
F5 F 0.22341(19) 0.92660(13) 0.69445(9)
F6 F 0.43218(17) 0.61513(13) 0.66932(9)
F7 F 0.71382(18) 0.71024(15) 0.63972(9)
F8 F 0.87886(19) 0.94042(15) 0.69133(11)
F9 F 0.76310(19) 1.06742(14) 0.78307(11)
F10 F 0.48558(18) 0.97586(13) 0.81509(9)
F11 F -0.03779(18) 0.76445(14) 0.77891(9)
F12 F -0.0915(2) 0.85933(16) 0.90372(11)
F13 F 0.1395(3) 0.92429(17) 1.03642(11)
F14 F 0.4281(2) 0.89364(16) 1.03832(10)
F15 F 0.48528(18) 0.80154(15) 0.91329(9)
C27 C 0.8786(3) 0.4259(3) 0.81819(16)
H6 H 0.922872 0.470979 0.778784
H7 H 0.915971 0.355241 0.822115
C28 C 0.9325(3) 0.5030(3) 0.89614(16)
H8 H 1.007476 0.472591 0.931753
H9 H 0.988623 0.584771 0.889206
C29 C 0.6373(3) 0.3133(2) 0.85242(16)
H10 H 0.665119 0.238617 0.849098
H11 H 0.520533 0.294246 0.840885
C30 C 0.7091(4) 0.3805(3) 0.93352(16)
H12 H 0.623490 0.379002 0.960533
H13 H 0.780967 0.340897 0.963159
C31 C 0.6473(3) 0.4975(2) 0.79651(16)
H14 H 0.531221 0.475359 0.776785
H15 H 0.698232 0.552430 0.763135
C32 C 0.6928(4) 0.5570(3) 0.87965(17)
H16 H 0.746868 0.642144 0.880858
H17 H 0.595785 0.549260 0.898986
N1 N 0.7022(2) 0.39014(19) 0.79638(13)
H18 H 0.664438 0.345483 0.743785
N2 N 0.7975(3) 0.50349(19) 0.92975(13)
C33 C 0.5705(5) 0.3532(4) 0.59789(19)
H19 H 0.660968 0.424512 0.600920
H20 H 0.480404 0.378542 0.608236
C34 C 0.5241(5) 0.2838(5) 0.5173(2)
H21 H 0.414156 0.280323 0.492670
H22 H 0.594246 0.326024 0.485421
C35 C 0.4765(4) 0.1701(3) 0.6488(2)
H23 H 0.385637 0.193523 0.659945
H24 H 0.504153 0.117249 0.686677
C36 C 0.4314(5) 0.1052(5) 0.5670(2)
H25 H 0.437557 0.023542 0.569696
H26 H 0.320870 0.100790 0.542757
C37 C 0.7474(4) 0.2394(3) 0.63757(19)
H27 H 0.780277 0.189634 0.676492
H28 H 0.838760 0.309730 0.639648
C38 C 0.6978(5) 0.1696(5) 0.5574(2)
H29 H 0.771112 0.207557 0.525658
H30 H 0.704601 0.088439 0.561949
N3 N 0.6140(3) 0.2767(2) 0.65496(13)
N4 N 0.5358(4) 0.1650(4) 0.51998(18)
loop_
_geom_bond_atom_site_label_1
_geom_bond_atom_site_label_2
_geom_bond_site_symmetry_1
_geom_bond_site_symmetry_2
C1 C2 1_555 1_555
C2 C3 1_555 1_555
C3 C4 1_555 1_555
C4 H1 1_555 1_555
C5 C4 1_555 1_555
H2 C5 1_555 1_555
C6 C5 1_555 1_555
H3 C6 1_555 1_555
C7 C6 1_555 1_555
H4 C7 1_555 1_555
C8 C3 1_555 1_555
H5 C8 1_555 1_555
C9 C10 1_555 1_555
C10 C11 1_555 1_555
C11 C12 1_555 1_555
C12 C13 1_555 1_555
C13 C14 1_555 1_555
C14 C9 1_555 1_555
C15 C16 1_555 1_555
C16 C17 1_555 1_555
C17 C18 1_555 1_555
C18 C19 1_555 1_555
C19 C20 1_555 1_555
C20 C15 1_555 1_555
C21 C22 1_555 1_555
C22 C23 1_555 1_555
C23 C24 1_555 1_555
C24 C25 1_555 1_555
C25 C26 1_555 1_555
C26 C21 1_555 1_555
B1 C1 1_555 1_555
F1 C10 1_555 1_555
F2 C11 1_555 1_555
F3 C12 1_555 1_555
F4 C13 1_555 1_555
F5 C14 1_555 1_555
F6 C16 1_555 1_555
F7 C17 1_555 1_555
F8 C18 1_555 1_555
F9 C19 1_555 1_555
F10 C20 1_555 1_555
F11 C22 1_555 1_555
F12 C23 1_555 1_555
F13 C24 1_555 1_555
F14 C25 1_555 1_555
F15 C26 1_555 1_555
C27 H6 1_555 1_555
H7 C27 1_555 1_555
C28 C27 1_555 1_555
H8 C28 1_555 1_555
H9 C28 1_555 1_555
C29 H10 1_555 1_555
H11 C29 1_555 1_555
C30 C29 1_555 1_555
H12 C30 1_555 1_555
H13 C30 1_555 1_555
C31 H14 1_555 1_555
H15 C31 1_555 1_555
C32 C31 1_555 1_555
H16 C32 1_555 1_555
H17 C32 1_555 1_555
N1 C27 1_555 1_555
H18 N1 1_555 1_555
N2 C28 1_555 1_555
C33 H19 1_555 1_555
H20 C33 1_555 1_555
C34 C33 1_555 1_555
H21 C34 1_555 1_555
H22 C34 1_555 1_555
C35 H23 1_555 1_555
H24 C35 1_555 1_555
C36 C35 1_555 1_555
H25 C36 1_555 1_555
H26 C36 1_555 1_555
C37 H27 1_555 1_555
H28 C37 1_555 1_555
C38 C37 1_555 1_555
H29 C38 1_555 1_555
H30 C38 1_555 1_555
N3 C33 1_555 1_555
N4 C34 1_555 1_555
C7 C8 1_555 1_555
C9 B1 1_555 1_555
C15 B1 1_555 1_555
C21 B1 1_555 1_555
C29 N1 1_555 1_555
C30 N2 1_555 1_555
C31 N1 1_555 1_555
C32 N2 1_555 1_555
C35 N3 1_555 1_555
C36 N4 1_555 1_555
C37 N3 1_555 1_555
C38 N4 1_555 1_555

#END
