
#######################################################################
#
#                 Cambridge Crystallographic Data Centre
#                                CCDC 
#
#######################################################################
#
# If this CIF has been generated from an entry in the Cambridge 
# Structural Database, then it will include bibliographic, chemical, 
# crystal, experimental, refinement or atomic coordinate data resulting 
# from the CCDC's data processing and validation procedures.
#
#######################################################################

data_JIYDON
_chemical_formula_moiety         
'C26 H5 B1 F15 1-,C6 H13 N2 1+,0.5(C6 H12 N2),C2 H3 N1'
_chemical_name_systematic        
'1,4-diazabicyclo[2.2.2]octan-1-ium tris(pentafluorophenyl)(phenylethynyl)borate hemikis(1,4-diazabicyclo[2.2.2]octane) acetonitrile solvate'
_symmetry_cell_setting           monoclinic
_symmetry_space_group_name_H-M   'C 2/c'
_symmetry_Int_Tables_number      15
_space_group_name_Hall           '-C 2yn'
loop_
_symmetry_equiv_pos_site_id
_symmetry_equiv_pos_as_xyz
1 x,y,z
2 -x,y,1/2-z
3 1/2+x,1/2+y,z
4 1/2-x,1/2+y,1/2-z
5 -x,-y,-z
6 x,-y,1/2+z
7 1/2-x,1/2-y,-z
8 1/2+x,1/2-y,1/2+z
_cell_length_a                   34.1949(11)
_cell_length_b                   12.4459(4)
_cell_length_c                   17.2975(6)
_cell_angle_alpha                90
_cell_angle_beta                 107.6330(10)
_cell_angle_gamma                90
_cell_volume                     7015.71
_exptl_crystal_colour            colorless
_exptl_crystal_description       block
_cell_formula_units_Z            8
_chemical_properties_physical    Moisture-sensitive
_exptl_crystal_recrystallization_method 
'Re-crystallisation from solvent: acetonitrile, hexane'
loop_
_atom_site_label
_atom_site_type_symbol
_atom_site_fract_x
_atom_site_fract_y
_atom_site_fract_z
B1 B 0.12087(6) 0.80845(16) 0.31043(12)
F1 F 0.05220(3) 0.96330(9) 0.21546(6)
F2 F 0.05778(3) 1.09870(9) 0.10220(7)
F3 F 0.12769(4) 1.10970(9) 0.05688(6)
F4 F 0.19318(3) 0.98599(9) 0.13480(7)
F5 F 0.18924(3) 0.85160(9) 0.25156(7)
F6 F 0.17931(3) 1.00020(8) 0.37361(7)
F7 F 0.23862(3) 1.00601(10) 0.51251(7)
F8 F 0.25447(3) 0.83420(10) 0.61450(7)
F9 F 0.20776(4) 0.65332(9) 0.57255(7)
F10 F 0.14627(3) 0.64647(8) 0.43351(6)
F11 F 0.09556(3) 0.99352(8) 0.38410(7)
F12 F 0.03327(4) 1.01102(10) 0.44426(7)
F13 F -0.01795(4) 0.83948(11) 0.43906(8)
F14 F -0.00396(4) 0.65241(11) 0.37038(8)
F15 F 0.05748(4) 0.63234(9) 0.31144(8)
C1 C 0.12277(5) 0.69938(14) 0.26387(11)
C2 C 0.12062(6) 0.62226(15) 0.22100(12)
C3 C 0.11229(6) 0.53023(14) 0.16782(11)
C4 C 0.13716(6) 0.43903(15) 0.18345(11)
H1 H 0.160943 0.437432 0.229425
C5 C 0.12738(6) 0.35051(15) 0.13226(12)
H2 H 0.144539 0.288810 0.143414
C6 C 0.09278(7) 0.35171(16) 0.06508(12)
H3 H 0.086077 0.290874 0.030401
C7 C 0.06811(6) 0.44176(17) 0.04881(12)
H4 H 0.044445 0.442998 0.002576
C8 C 0.07765(6) 0.53030(16) 0.09948(12)
H5 H 0.060441 0.591874 0.087645
C9 C 0.12097(5) 0.90096(13) 0.24196(10)
C10 C 0.08881(5) 0.96574(14) 0.19985(10)
C11 C 0.09040(6) 1.03656(15) 0.13918(11)
C12 C 0.12542(6) 1.04309(14) 0.11642(10)
C13 C 0.15849(6) 0.98008(15) 0.15581(11)
C14 C 0.15555(5) 0.91131(14) 0.21621(11)
C15 C 0.16008(5) 0.82081(14) 0.39435(10)
C16 C 0.18475(5) 0.91009(14) 0.41988(11)
C17 C 0.21597(5) 0.91595(15) 0.49236(11)
C18 C 0.22384(5) 0.82965(16) 0.54425(11)
C19 C 0.20022(6) 0.73923(15) 0.52285(11)
C20 C 0.16925(5) 0.73705(14) 0.44983(11)
C21 C 0.07999(5) 0.81331(14) 0.34236(10)
C22 C 0.07126(5) 0.90600(14) 0.37884(10)
C23 C 0.03924(6) 0.91755(16) 0.41055(11)
C24 C 0.01336(6) 0.83198(18) 0.40761(12)
C25 C 0.02041(6) 0.73829(16) 0.37266(11)
C26 C 0.05317(6) 0.73011(15) 0.34172(11)
N1 N 0.11417(5) 0.30143(13) 0.40530(10)
N2 N 0.18401(5) 0.31750(13) 0.50938(10)
C27 C 0.11346(7) 0.24856(18) 0.48229(13)
H6 H 0.104132 0.173179 0.471695
H7 H 0.094328 0.286875 0.505710
C28 C 0.15709(8) 0.2520(2) 0.54135(14)
H8 H 0.156337 0.282072 0.593877
H9 H 0.168143 0.178076 0.551119
C29 C 0.18780(7) 0.26729(19) 0.43552(14)
H10 H 0.202443 0.197963 0.449428
H11 H 0.204185 0.314342 0.411038
C30 C 0.14527(6) 0.24772(17) 0.37349(12)
H12 H 0.144323 0.278250 0.320102
H13 H 0.139611 0.169704 0.366804
C31 C 0.12505(6) 0.41774(15) 0.42056(12)
H14 H 0.103277 0.455899 0.436486
H15 H 0.127892 0.451770 0.370804
C32 C 0.16587(6) 0.42395(16) 0.48918(13)
H16 H 0.185185 0.470823 0.472219
H17 H 0.161097 0.456238 0.537848
H18 H 0.0865(8) 0.297(2) 0.3669(15)
N3 N 0.03608(5) 0.30073(13) 0.30045(10)
C33 C 0.03582(8) 0.3570(3) 0.22607(18)
H19 H 0.054726 0.320640 0.201020
H20 H 0.045539 0.431663 0.239206
C34 C 0.00800(8) 0.3582(3) 0.33448(18)
H21 H 0.017370 0.433369 0.346355
H22 H 0.007811 0.323835 0.385984
C35 C 0.02167(9) 0.1926(2) 0.2806(2)
H23 H 0.021191 0.154602 0.330605
H24 H 0.040702 0.153773 0.257244
N3A N -0.03608(5) 0.30073(13) 0.19955(10)
C33A C -0.03582(8) 0.3570(3) 0.27393(18)
H19A H -0.054726 0.320640 0.298980
H20A H -0.045539 0.431663 0.260794
C34A C -0.00800(8) 0.3582(3) 0.16552(18)
H21A H -0.017370 0.433369 0.153645
H22A H -0.007811 0.323835 0.114016
C35A C -0.02167(9) 0.1926(2) 0.2194(2)
H23A H -0.021191 0.154602 0.169395
H24A H -0.040702 0.153773 0.242756
N4 N 0.20496(9) 0.7815(3) 0.76208(16)
C36 C 0.23127(8) 0.8404(2) 0.77782(14)
C37 C 0.26447(8) 0.9157(3) 0.79763(16)
H25 H 0.273861 0.927467 0.856408
H26 H 0.255146 0.983939 0.769932
H27 H 0.287134 0.887175 0.780132
loop_
_geom_bond_atom_site_label_1
_geom_bond_atom_site_label_2
_geom_bond_site_symmetry_1
_geom_bond_site_symmetry_2
B1 C1 1_555 1_555
F1 C10 1_555 1_555
F2 C11 1_555 1_555
F3 C12 1_555 1_555
F4 C13 1_555 1_555
F5 C14 1_555 1_555
F6 C16 1_555 1_555
F7 C17 1_555 1_555
F8 C18 1_555 1_555
F9 C19 1_555 1_555
F10 C20 1_555 1_555
F11 C22 1_555 1_555
F12 C23 1_555 1_555
F13 C24 1_555 1_555
F14 C25 1_555 1_555
F15 C26 1_555 1_555
C1 C2 1_555 1_555
C2 C3 1_555 1_555
C3 C4 1_555 1_555
C4 H1 1_555 1_555
C5 C4 1_555 1_555
H2 C5 1_555 1_555
C6 C5 1_555 1_555
H3 C6 1_555 1_555
C7 C6 1_555 1_555
H4 C7 1_555 1_555
C8 C3 1_555 1_555
H5 C8 1_555 1_555
C9 B1 1_555 1_555
C10 C9 1_555 1_555
C11 C10 1_555 1_555
C12 C11 1_555 1_555
C13 C12 1_555 1_555
C14 C9 1_555 1_555
C15 B1 1_555 1_555
C16 C15 1_555 1_555
C17 C16 1_555 1_555
C18 C17 1_555 1_555
C19 C18 1_555 1_555
C20 C15 1_555 1_555
C21 B1 1_555 1_555
C22 C21 1_555 1_555
C23 C22 1_555 1_555
C24 C23 1_555 1_555
C25 C24 1_555 1_555
C26 C21 1_555 1_555
N1 C27 1_555 1_555
N2 C28 1_555 1_555
C27 H6 1_555 1_555
H7 C27 1_555 1_555
C28 C27 1_555 1_555
H8 C28 1_555 1_555
H9 C28 1_555 1_555
C29 N2 1_555 1_555
H10 C29 1_555 1_555
H11 C29 1_555 1_555
C30 N1 1_555 1_555
H12 C30 1_555 1_555
H13 C30 1_555 1_555
C31 N1 1_555 1_555
H14 C31 1_555 1_555
H15 C31 1_555 1_555
C32 N2 1_555 1_555
H16 C32 1_555 1_555
H17 C32 1_555 1_555
H18 N1 1_555 1_555
N3 C33 1_555 1_555
C33 H19 1_555 1_555
H20 C33 1_555 1_555
C34 N3 1_555 1_555
H21 C34 1_555 1_555
H22 C34 1_555 1_555
C35 N3 1_555 1_555
H23 C35 1_555 1_555
H24 C35 1_555 1_555
N4 C36 1_555 1_555
C36 C37 1_555 1_555
C37 H25 1_555 1_555
H26 C37 1_555 1_555
H27 C37 1_555 1_555
N3A C33A 1_555 1_555
C33A C34 1_555 1_555
H19A C33A 1_555 1_555
H20A C33A 1_555 1_555
C34A C33 1_555 1_555
H21A C34A 1_555 1_555
H22A C34A 1_555 1_555
C35A C35 1_555 1_555
H23A C35A 1_555 1_555
H24A C35A 1_555 1_555
C7 C8 1_555 1_555
C13 C14 1_555 1_555
C19 C20 1_555 1_555
C25 C26 1_555 1_555
C29 C30 1_555 1_555
C31 C32 1_555 1_555
N3A C34A 1_555 1_555
N3A C35A 1_555 1_555

#END
