
#######################################################################
#
#                 Cambridge Crystallographic Data Centre
#                                CCDC 
#
#######################################################################
#
# If this CIF has been generated from an entry in the Cambridge 
# Structural Database, then it will include bibliographic, chemical, 
# crystal, experimental, refinement or atomic coordinate data resulting 
# from the CCDC's data processing and validation procedures.
#
#######################################################################

data_JIYJIK
_chemical_compound_source        'Bile salt'
_chemical_formula_moiety         
'C26 H42 N1 O6 1-,0.25(C3 H6 O1),Na1 1+,3.375(H2 O1)'
_chemical_name_systematic        'Sodium glycocholate acetone hydrate clathrate'
_symmetry_cell_setting           tetragonal
_symmetry_space_group_name_H-M   'I 4'
_symmetry_Int_Tables_number      79
_space_group_name_Hall           'I 4'
loop_
_symmetry_equiv_pos_site_id
_symmetry_equiv_pos_as_xyz
1 x,y,z
2 1/2+x,1/2+y,1/2+z
3 -y,x,z
4 1/2-y,1/2+x,1/2+z
5 -x,-y,z
6 1/2-x,1/2-y,1/2+z
7 y,-x,z
8 1/2+y,1/2-x,1/2+z
_cell_length_a                   27.793(4)
_cell_length_b                   27.793(4)
_cell_length_c                   7.937(1)
_cell_angle_alpha                90
_cell_angle_beta                 90
_cell_angle_gamma                90
_cell_volume                     6130.94
_exptl_crystal_colour            colorless
_chemical_melting_point          473-475K
_cell_formula_units_Z            8
loop_
_atom_site_label
_atom_site_type_symbol
_atom_site_fract_x
_atom_site_fract_y
_atom_site_fract_z
O1 O 0.4240 0.4380 1.0136
O2 O 0.1135(8) 0.1635(5) 0.2812(29)
O3 O 0.1079 0.0102 0.2980
O4 O 0.0000 0.0000 0.4843(96)
C1 C 0.5384(3) 0.2052(4) 0.5716(20)
C2 C 0.5436(3) 0.2586(5) 0.5433(17)
C3 C 0.5712(3) 0.2810(4) 0.6860(20)
C4 C 0.5468(3) 0.2712(4) 0.8519(18)
C5 C 0.5399(3) 0.2167(4) 0.8838(17)
C6 C 0.5161(3) 0.2074(4) 1.0529(19)
C7 C 0.4611(3) 0.2170(3) 1.0568(16)
C8 C 0.4361(3) 0.1913(3) 0.9077(16)
C9 C 0.4595(3) 0.2067(3) 0.7396(15)
C10 C 0.5133(3) 0.1911(3) 0.7374(17)
C11 C 0.4310(3) 0.1894(3) 0.5866(16)
C12 C 0.3771(3) 0.1990(3) 0.5948(15)
C13 C 0.3558(3) 0.1785(2) 0.7551
C14 C 0.3818(3) 0.2012(3) 0.9060(14)
C15 C 0.3520(3) 0.1855(3) 1.0583(16)
C16 C 0.3002(3) 0.1841(3) 0.9930(16)
C17 C 0.3025(3) 0.1919(3) 0.7986(16)
C18 C 0.3614(3) 0.1229(3) 0.7533(17)
C19 C 0.5197(4) 0.1365(4) 0.7565(24)
C20 C 0.2616(3) 0.1661(3) 0.7016(16)
C21 C 0.2627(4) 0.1785(4) 0.5148(17)
C22 C 0.2124(3) 0.1800(3) 0.7771(16)
C23 C 0.1714(3) 0.1485(3) 0.7125(18)
C24 C 0.1232(3) 0.1635(3) 0.7822(15)
O5 O 0.5759(3) 0.3328(3) 0.6668(17)
O6 O 0.4528(2) 0.2676(2) 1.0529(13)
O7 O 0.3668(2) 0.2493(2) 0.5866(13)
O8 O 0.1124(2) 0.2065(2) 0.7902(13)
N1 N 0.0945(2) 0.1293(3) 0.8407(16)
C25 C 0.0483(4) 0.1394(6) 0.9194(24)
C26 C 0.0046(4) 0.1215(4) 0.8281(22)
O9 O 0.0097(4) 0.1035(7) 0.6907(20)
O10 O -0.0344(3) 0.1261(4) 0.8984(22)
Na1 Na 0.4464(3) 0.3609(3) 0.9492(17)
O11? O 0.1488(9) 0.1677(7) 0.2701(31)
C27? C 0.5000 0.0000 -0.0568
C28? C 0.4504 0.0000 -0.1491
C29? C 0.5496 0.0000 -0.1491
O12? O 0.5000 0.0000 0.0984
O13? O 0.5200 -0.0250 0.4350
C30? C 0.4900 0.0000 0.8319
C31? C 0.4611 -0.0127 0.9981
C32? C 0.5460 0.0008 0.8219
O14? O 0.4671 0.0099 0.7026
loop_
_geom_bond_atom_site_label_1
_geom_bond_atom_site_label_2
_geom_bond_site_symmetry_1
_geom_bond_site_symmetry_2
C1 C2 1_555 1_555
C2 C3 1_555 1_555
C3 C4 1_555 1_555
C4 C5 1_555 1_555
C5 C6 1_555 1_555
C6 C7 1_555 1_555
C7 C8 1_555 1_555
C8 C9 1_555 1_555
C9 C10 1_555 1_555
C10 C1 1_555 1_555
C11 C9 1_555 1_555
C12 C11 1_555 1_555
C13 C12 1_555 1_555
C14 C8 1_555 1_555
C15 C14 1_555 1_555
C16 C15 1_555 1_555
C17 C13 1_555 1_555
C18 C13 1_555 1_555
C19 C10 1_555 1_555
C20 C17 1_555 1_555
C21 C20 1_555 1_555
C22 C20 1_555 1_555
C23 C22 1_555 1_555
C24 C23 1_555 1_555
O5 C3 1_555 1_555
O6 C7 1_555 1_555
O7 C12 1_555 1_555
O8 C24 1_555 1_555
N1 C24 1_555 1_555
C25 N1 1_555 1_555
C26 C25 1_555 1_555
O9 C26 1_555 1_555
O10 C26 1_555 1_555
C5 C10 1_555 1_555
C13 C14 1_555 1_555
C16 C17 1_555 1_555

#END
