
#######################################################################
#
#                 Cambridge Crystallographic Data Centre
#                                CCDC 
#
#######################################################################
#
# If this CIF has been generated from an entry in the Cambridge 
# Structural Database, then it will include bibliographic, chemical, 
# crystal, experimental, refinement or atomic coordinate data resulting 
# from the CCDC's data processing and validation procedures.
#
#######################################################################

data_JIYMUC
_chemical_formula_moiety         'C32 H18 F8 N1 O2 P1'
_chemical_name_systematic        
N-[2'-(diphenylphosphoryl)-5-(trifluoromethyl)[1,1'-biphenyl]-2-yl]-2,3,4,5,6-pentafluorobenzamide
_symmetry_cell_setting           triclinic
_symmetry_space_group_name_H-M   'P -1'
_symmetry_Int_Tables_number      2
_space_group_name_Hall           '-P 1'
loop_
_symmetry_equiv_pos_site_id
_symmetry_equiv_pos_as_xyz
1 x,y,z
2 -x,-y,-z
_cell_length_a                   8.7465(14)
_cell_length_b                   11.8499(17)
_cell_length_c                   14.005(2)
_cell_angle_alpha                93.861(5)
_cell_angle_beta                 98.432(6)
_cell_angle_gamma                109.367(5)
_cell_volume                     1344.11
_exptl_crystal_colour            colorless
_exptl_crystal_description       parallelepiped
_cell_formula_units_Z            2
loop_
_atom_site_label
_atom_site_type_symbol
_atom_site_fract_x
_atom_site_fract_y
_atom_site_fract_z
P1 P 0.24828(4) 0.14678(3) 0.82195(2)
F1 F 0.47646(18) 0.34383(10) 0.46129(8)
F2 F 0.23736(16) 0.25409(12) 0.37287(10)
F3 F 0.44337(15) 0.20786(11) 0.34400(8)
F4 F 0.35341(14) -0.21977(9) 0.83604(8)
F5 F 0.26554(18) -0.38851(11) 0.95621(8)
F6 F -0.01801(17) -0.58084(10) 0.90317(9)
F7 F -0.20863(14) -0.60661(10) 0.72669(10)
F8 F -0.11671(13) -0.44468(9) 0.60242(8)
O1 O 0.10399(12) 0.03331(9) 0.78782(8)
O2 O 0.19315(15) -0.28186(10) 0.56310(8)
N1 N 0.20463(16) -0.12327(11) 0.66936(9)
H1 H 0.177(2) -0.1024(16) 0.7217(14)
C1 C 0.25455(17) 0.26464(12) 0.74611(10)
C2 C 0.10945(18) 0.26091(13) 0.68706(10)
H2 H 0.0093 0.1971 0.6876
C3 C 0.1112(2) 0.35052(15) 0.62741(11)
H3 H 0.0126 0.3472 0.5866
C4 C 0.2567(2) 0.44457(15) 0.62750(12)
H4 H 0.2576 0.5059 0.5870
C5 C 0.4010(2) 0.44915(14) 0.68670(12)
H5 H 0.5004 0.5141 0.6871
C6 C 0.40046(18) 0.35914(13) 0.74529(11)
H6 H 0.4999 0.3620 0.7849
C7 C 0.24605(17) 0.20948(13) 0.94290(10)
C8 C 0.3014(2) 0.33267(15) 0.97331(12)
H7 H 0.3446 0.3883 0.9299
C9 C 0.2939(3) 0.37463(17) 1.06686(14)
H8 H 0.3323 0.4589 1.0872
C10 C 0.2310(2) 0.29485(17) 1.13036(12)
H9 H 0.2275 0.3242 1.1945
C11 C 0.1732(3) 0.17277(17) 1.10099(13)
H10 H 0.1282 0.1177 1.1444
C12 C 0.1811(2) 0.13025(15) 1.00738(12)
H11 H 0.1416 0.0459 0.9873
C13 C 0.44375(17) 0.12463(12) 0.82518(10)
C14 C 0.55002(19) 0.14172(14) 0.91407(11)
H12 H 0.5169 0.1616 0.9727
C15 C 0.7035(2) 0.12989(16) 0.91748(12)
H13 H 0.7747 0.1416 0.9782
C16 C 0.7525(2) 0.10112(16) 0.83259(13)
H14 H 0.8580 0.0940 0.8347
C17 C 0.64714(19) 0.08257(14) 0.74397(12)
H15 H 0.6815 0.0623 0.6859
C18 C 0.49250(17) 0.09307(12) 0.73852(10)
C19 C 0.38748(18) 0.07249(13) 0.63952(10)
C20 C 0.42927(19) 0.15936(13) 0.57580(11)
H16 H 0.5229 0.2305 0.5957
C21 C 0.3350(2) 0.14244(14) 0.48371(11)
C22 C 0.19951(19) 0.03775(14) 0.45217(11)
H17 H 0.1348 0.0269 0.3893
C23 C 0.16018(19) -0.05036(14) 0.51334(11)
H18 H 0.0698 -0.1231 0.4918
C24 C 0.25254(18) -0.03299(13) 0.60651(11)
C25 C 0.17562(18) -0.24115(13) 0.64125(11)
C26 C 0.11938(19) -0.32480(13) 0.71588(11)
C27 C 0.2130(2) -0.31388(14) 0.80723(12)
C28 C 0.1693(2) -0.39942(16) 0.87001(13)
C29 C 0.0263(2) -0.49751(15) 0.84320(14)
C30 C -0.0704(2) -0.51073(15) 0.75333(14)
C31 C -0.0225(2) -0.42608(14) 0.69038(13)
C32 C 0.3740(2) 0.23733(16) 0.41664(12)
loop_
_geom_bond_atom_site_label_1
_geom_bond_atom_site_label_2
_geom_bond_site_symmetry_1
_geom_bond_site_symmetry_2
P1 O1 1_555 1_555
F1 C32 1_555 1_555
F2 C32 1_555 1_555
F3 C32 1_555 1_555
F4 C27 1_555 1_555
F5 C28 1_555 1_555
F6 C29 1_555 1_555
F7 C30 1_555 1_555
F8 C31 1_555 1_555
O2 C25 1_555 1_555
N1 H1 1_555 1_555
C1 P1 1_555 1_555
C2 C1 1_555 1_555
H2 C2 1_555 1_555
C3 C2 1_555 1_555
H3 C3 1_555 1_555
C4 C3 1_555 1_555
H4 C4 1_555 1_555
C5 C4 1_555 1_555
H5 C5 1_555 1_555
C6 C1 1_555 1_555
H6 C6 1_555 1_555
C7 P1 1_555 1_555
C8 C7 1_555 1_555
H7 C8 1_555 1_555
C9 C8 1_555 1_555
H8 C9 1_555 1_555
C10 C9 1_555 1_555
H9 C10 1_555 1_555
C11 C10 1_555 1_555
H10 C11 1_555 1_555
C12 C7 1_555 1_555
H11 C12 1_555 1_555
C13 P1 1_555 1_555
C14 C13 1_555 1_555
H12 C14 1_555 1_555
C15 C14 1_555 1_555
H13 C15 1_555 1_555
C16 C15 1_555 1_555
H14 C16 1_555 1_555
C17 C16 1_555 1_555
H15 C17 1_555 1_555
C18 C13 1_555 1_555
C19 C18 1_555 1_555
C20 C19 1_555 1_555
H16 C20 1_555 1_555
C21 C20 1_555 1_555
C22 C21 1_555 1_555
H17 C22 1_555 1_555
C23 C22 1_555 1_555
H18 C23 1_555 1_555
C24 N1 1_555 1_555
C25 N1 1_555 1_555
C26 C25 1_555 1_555
C27 C26 1_555 1_555
C28 C27 1_555 1_555
C29 C28 1_555 1_555
C30 C29 1_555 1_555
C31 C26 1_555 1_555
C32 C21 1_555 1_555
C5 C6 1_555 1_555
C11 C12 1_555 1_555
C17 C18 1_555 1_555
C19 C24 1_555 1_555
C23 C24 1_555 1_555
C30 C31 1_555 1_555

#END
