
#######################################################################
#
#                 Cambridge Crystallographic Data Centre
#                                CCDC 
#
#######################################################################
#
# If this CIF has been generated from an entry in the Cambridge 
# Structural Database, then it will include bibliographic, chemical, 
# crystal, experimental, refinement or atomic coordinate data resulting 
# from the CCDC's data processing and validation procedures.
#
#######################################################################

data_JIYNEN
_chemical_formula_moiety         'C33 H23 F5 N1 O4 P1'
_chemical_name_systematic        
N-[2'-(diphenylphosphoryl)-4',5-dimethoxy[1,1'-biphenyl]-2-yl]-2,3,4,5,6-pentafluorobenzamide
_symmetry_cell_setting           monoclinic
_symmetry_space_group_name_H-M   'P 21/c'
_symmetry_Int_Tables_number      14
_space_group_name_Hall           '-P 2ybc'
loop_
_symmetry_equiv_pos_site_id
_symmetry_equiv_pos_as_xyz
1 x,y,z
2 -x,1/2+y,1/2-z
3 -x,-y,-z
4 x,1/2-y,1/2+z
_cell_length_a                   14.751(2)
_cell_length_b                   20.068(3)
_cell_length_c                   9.8995(13)
_cell_angle_alpha                90
_cell_angle_beta                 90.456(6)
_cell_angle_gamma                90
_cell_volume                     2930.39
_exptl_crystal_colour            colorless
_exptl_crystal_description       parallelepiped
_cell_formula_units_Z            4
loop_
_atom_site_label
_atom_site_type_symbol
_atom_site_fract_x
_atom_site_fract_y
_atom_site_fract_z
P1 P 0.35612(3) 0.07687(2) 0.25949(5)
F1 F 0.18059(9) -0.23271(6) 0.53184(12)
F2 F 0.26648(9) -0.25962(6) 0.76429(12)
F3 F 0.34894(10) -0.16030(7) 0.90746(12)
F4 F 0.34635(11) -0.03402(7) 0.81099(14)
F5 F 0.26306(10) -0.00561(6) 0.57602(12)
O1 O 0.37421(9) 0.00416(6) 0.27831(14)
O2 O 0.15673(10) 0.22035(8) 0.56189(16)
O3 O 0.09759(10) -0.00592(7) -0.19954(13)
O4 O 0.09645(9) -0.13063(7) 0.38792(14)
N1 N 0.21502(11) -0.06594(8) 0.32426(15)
H1 H 0.2668(16) -0.0495(11) 0.344(2)
C1 C 0.43323(14) 0.07776(10) 0.0081(2)
H2 H 0.4761 0.0484 0.0484
C2 C 0.44049(16) 0.09403(11) -0.1276(2)
H3 H 0.4879 0.0756 -0.1802
C3 C 0.37844(16) 0.13725(11) -0.1861(2)
H4 H 0.3825 0.1475 -0.2796
C4 C 0.31053(15) 0.16562(11) -0.1092(2)
H5 H 0.2691 0.1961 -0.1494
C5 C 0.30293(13) 0.14943(10) 0.0274(2)
H6 H 0.2567 0.1692 0.0804
C6 C 0.36323(13) 0.10430(9) 0.08588(18)
C7 C 0.43794(12) 0.12547(9) 0.35428(18)
C8 C 0.45983(13) 0.19124(10) 0.3217(2)
H7 H 0.4327 0.2120 0.2453
C9 C 0.52132(14) 0.22603(11) 0.4014(2)
H8 H 0.5356 0.2710 0.3801
C10 C 0.56221(14) 0.19560(11) 0.5123(2)
H9 H 0.6040 0.2199 0.5667
C11 C 0.54236(14) 0.13020(12) 0.5436(2)
H10 H 0.5715 0.1091 0.6180
C12 C 0.47957(13) 0.09547(10) 0.4657(2)
H11 H 0.4648 0.0508 0.4885
C13 C 0.24516(12) 0.10182(9) 0.31813(17)
C14 C 0.23830(13) 0.15142(9) 0.41641(18)
H12 H 0.2918 0.1719 0.4507
C15 C 0.15400(13) 0.17148(9) 0.46517(19)
C16 C 0.07544(13) 0.14178(9) 0.41564(18)
H13 H 0.0178 0.1551 0.4481
C17 C 0.08236(12) 0.09216(9) 0.31753(18)
H14 H 0.0284 0.0719 0.2841
C18 C 0.16554(12) 0.07115(8) 0.26683(17)
C19 C 0.16300(11) 0.01737(9) 0.16112(17)
C20 C 0.13372(12) 0.03317(9) 0.02912(18)
H15 H 0.1220 0.0783 0.0056
C21 C 0.12186(12) -0.01679(10) -0.06710(18)
C22 C 0.13514(13) -0.08320(9) -0.03125(19)
H16 H 0.1237 -0.1176 -0.0952
C23 C 0.16498(13) -0.09900(9) 0.09765(19)
H17 H 0.1753 -0.1443 0.1213
C24 C 0.18003(12) -0.04903(9) 0.19314(17)
C25 C 0.17004(12) -0.10505(9) 0.41132(18)
C26 C 0.21855(12) -0.11776(9) 0.54481(17)
C27 C 0.21954(13) -0.18191(9) 0.59858(18)
C28 C 0.26348(14) -0.19655(10) 0.71905(19)
C29 C 0.30672(14) -0.14665(11) 0.79009(19)
C30 C 0.30595(14) -0.08277(10) 0.7409(2)
C31 C 0.26256(13) -0.06914(9) 0.61935(19)
C32 C 0.07185(16) 0.24638(13) 0.6061(3)
H18 H 0.0825 0.2807 0.6748
H19 H 0.0393 0.2659 0.5291
H20 H 0.0355 0.2103 0.6448
C33 C 0.08328(17) 0.06113(12) -0.2421(2)
H21 H 0.0664 0.0617 -0.3380
H22 H 0.0344 0.0810 -0.1890
H23 H 0.1391 0.0868 -0.2285
loop_
_geom_bond_atom_site_label_1
_geom_bond_atom_site_label_2
_geom_bond_site_symmetry_1
_geom_bond_site_symmetry_2
P1 O1 1_555 1_555
F1 C27 1_555 1_555
F2 C28 1_555 1_555
F3 C29 1_555 1_555
F4 C30 1_555 1_555
F5 C31 1_555 1_555
O2 C15 1_555 1_555
O3 C21 1_555 1_555
O4 C25 1_555 1_555
N1 H1 1_555 1_555
C1 H2 1_555 1_555
C2 C1 1_555 1_555
H3 C2 1_555 1_555
C3 C2 1_555 1_555
H4 C3 1_555 1_555
C4 C3 1_555 1_555
H5 C4 1_555 1_555
C5 C4 1_555 1_555
H6 C5 1_555 1_555
C6 P1 1_555 1_555
C7 P1 1_555 1_555
C8 C7 1_555 1_555
H7 C8 1_555 1_555
C9 C8 1_555 1_555
H8 C9 1_555 1_555
C10 C9 1_555 1_555
H9 C10 1_555 1_555
C11 C10 1_555 1_555
H10 C11 1_555 1_555
C12 C7 1_555 1_555
H11 C12 1_555 1_555
C13 P1 1_555 1_555
C14 C13 1_555 1_555
H12 C14 1_555 1_555
C15 C14 1_555 1_555
C16 C15 1_555 1_555
H13 C16 1_555 1_555
C17 C16 1_555 1_555
H14 C17 1_555 1_555
C18 C13 1_555 1_555
C19 C18 1_555 1_555
C20 C19 1_555 1_555
H15 C20 1_555 1_555
C21 C20 1_555 1_555
C22 C21 1_555 1_555
H16 C22 1_555 1_555
C23 C22 1_555 1_555
H17 C23 1_555 1_555
C24 N1 1_555 1_555
C25 N1 1_555 1_555
C26 C25 1_555 1_555
C27 C26 1_555 1_555
C28 C27 1_555 1_555
C29 C28 1_555 1_555
C30 C29 1_555 1_555
C31 C26 1_555 1_555
C32 O2 1_555 1_555
H18 C32 1_555 1_555
H19 C32 1_555 1_555
H20 C32 1_555 1_555
C33 O3 1_555 1_555
H21 C33 1_555 1_555
H22 C33 1_555 1_555
H23 C33 1_555 1_555
C1 C6 1_555 1_555
C5 C6 1_555 1_555
C11 C12 1_555 1_555
C17 C18 1_555 1_555
C19 C24 1_555 1_555
C23 C24 1_555 1_555
C30 C31 1_555 1_555

#END
