
#######################################################################
#
#                 Cambridge Crystallographic Data Centre
#                                CCDC 
#
#######################################################################
#
# If this CIF has been generated from an entry in the Cambridge 
# Structural Database, then it will include bibliographic, chemical, 
# crystal, experimental, refinement or atomic coordinate data resulting 
# from the CCDC's data processing and validation procedures.
#
#######################################################################

data_JIYNUD
_chemical_formula_moiety         'C21 H9 F8 N1 O2'
_chemical_name_systematic        
'[2-methoxy-6-(trifluoromethyl)-9H-carbazol-9-yl](pentafluorophenyl)methanone'
_symmetry_cell_setting           monoclinic
_symmetry_space_group_name_H-M   'P 21/c'
_symmetry_Int_Tables_number      14
_space_group_name_Hall           '-P 2ybc'
loop_
_symmetry_equiv_pos_site_id
_symmetry_equiv_pos_as_xyz
1 x,y,z
2 -x,1/2+y,1/2-z
3 -x,-y,-z
4 x,1/2-y,1/2+z
_cell_length_a                   13.2239(7)
_cell_length_b                   7.8286(4)
_cell_length_c                   17.0550(8)
_cell_angle_alpha                90
_cell_angle_beta                 96.434(2)
_cell_angle_gamma                90
_cell_volume                     1754.49
_exptl_crystal_colour            colorless
_exptl_crystal_description       parallelepiped
_cell_formula_units_Z            4
loop_
_atom_site_label
_atom_site_type_symbol
_atom_site_fract_x
_atom_site_fract_y
_atom_site_fract_z
F1 F 0.33377(8) 0.09577(14) 0.66445(7)
F2 F 0.14252(9) 0.06984(17) 0.70301(8)
F3 F 0.03200(9) 0.3576(2) 0.72244(8)
F4 F 0.11382(10) 0.66917(18) 0.70169(8)
F5 F 0.30791(9) 0.69668(14) 0.67032(7)
F6 F 0.88372(9) 0.08064(19) 0.48053(8)
F7 F 0.93889(10) 0.1174(2) 0.60155(10)
F8 F 0.93234(14) 0.3275(2) 0.52147(17)
O1 O 0.49030(10) 0.4860(2) 0.71180(7)
O2 O 0.19642(10) 0.21395(19) 0.38318(7)
N1 N 0.47761(10) 0.34868(19) 0.59347(8)
C1 C 0.28068(13) 0.2388(2) 0.67315(10)
C2 C 0.18205(14) 0.2238(3) 0.69242(10)
C3 C 0.12629(13) 0.3695(3) 0.70242(11)
C4 C 0.16822(14) 0.5282(3) 0.69286(10)
C5 C 0.26776(13) 0.5406(2) 0.67574(9)
C6 C 0.32564(12) 0.3969(2) 0.66454(9)
C7 C 0.43807(13) 0.4163(2) 0.65847(10)
C8 C 0.42560(13) 0.2877(2) 0.52052(9)
C9 C 0.32228(13) 0.2938(2) 0.49210(10)
H1 H 0.2736 0.3452 0.5217
C10 C 0.29413(13) 0.2211(2) 0.41848(10)
C11 C 0.36608(14) 0.1473(2) 0.37411(10)
H2 H 0.3442 0.0959 0.3246
C12 C 0.46763(14) 0.1485(2) 0.40154(10)
H3 H 0.5164 0.1018 0.3707
C13 C 0.49828(13) 0.2199(2) 0.47570(9)
C14 C 0.59710(13) 0.2402(2) 0.51963(10)
C15 C 0.58386(12) 0.3209(2) 0.59123(10)
C16 C 0.66571(13) 0.3563(2) 0.64758(10)
H4 H 0.6560 0.4098 0.6962
C17 C 0.76199(14) 0.3105(2) 0.62992(11)
H5 H 0.8194 0.3339 0.6670
C18 C 0.77612(14) 0.2305(2) 0.55848(12)
C19 C 0.69406(13) 0.1939(2) 0.50314(11)
H6 H 0.7038 0.1383 0.4550
C20 C 0.11781(14) 0.2839(3) 0.42473(12)
H7 H 0.0519 0.2703 0.3928
H8 H 0.1166 0.2237 0.4750
H9 H 0.1311 0.4055 0.4348
C21 C 0.88152(16) 0.1891(3) 0.54050(15)
loop_
_geom_bond_atom_site_label_1
_geom_bond_atom_site_label_2
_geom_bond_site_symmetry_1
_geom_bond_site_symmetry_2
F1 C1 1_555 1_555
F2 C2 1_555 1_555
F3 C3 1_555 1_555
F4 C4 1_555 1_555
F5 C5 1_555 1_555
F6 C21 1_555 1_555
F7 C21 1_555 1_555
F8 C21 1_555 1_555
O1 C7 1_555 1_555
O2 C10 1_555 1_555
N1 C7 1_555 1_555
C1 C2 1_555 1_555
C2 C3 1_555 1_555
C3 C4 1_555 1_555
C4 C5 1_555 1_555
C5 C6 1_555 1_555
C6 C1 1_555 1_555
C7 C6 1_555 1_555
C8 N1 1_555 1_555
C9 C8 1_555 1_555
H1 C9 1_555 1_555
C10 C9 1_555 1_555
C11 C10 1_555 1_555
H2 C11 1_555 1_555
C12 C11 1_555 1_555
H3 C12 1_555 1_555
C13 C8 1_555 1_555
C14 C13 1_555 1_555
C15 N1 1_555 1_555
C16 C15 1_555 1_555
H4 C16 1_555 1_555
C17 C16 1_555 1_555
H5 C17 1_555 1_555
C18 C17 1_555 1_555
C19 C14 1_555 1_555
H6 C19 1_555 1_555
C20 O2 1_555 1_555
H7 C20 1_555 1_555
H8 C20 1_555 1_555
H9 C20 1_555 1_555
C21 C18 1_555 1_555
C12 C13 1_555 1_555
C14 C15 1_555 1_555
C18 C19 1_555 1_555

#END
