
#######################################################################
#
#                 Cambridge Crystallographic Data Centre
#                                CCDC 
#
#######################################################################
#
# If this CIF has been generated from an entry in the Cambridge 
# Structural Database, then it will include bibliographic, chemical, 
# crystal, experimental, refinement or atomic coordinate data resulting 
# from the CCDC's data processing and validation procedures.
#
#######################################################################

data_JIYWOF
_chemical_formula_moiety         'C11 H14 Cl1 F2 N1 O3'
_chemical_name_systematic        
'(3R,3aS)-3-(Chloro(difluoro)methyl)-3a-(ethoxycarbonyl)-2,3,3a,4,5,6-hexahydrocyclopenta(b)pyrrole 1-oxide'
_symmetry_cell_setting           orthorhombic
_symmetry_space_group_name_H-M   'P 21 21 21'
_symmetry_Int_Tables_number      19
_space_group_name_Hall           'P 2ac 2ab'
loop_
_symmetry_equiv_pos_site_id
_symmetry_equiv_pos_as_xyz
1 x,y,z
2 1/2-x,-y,1/2+z
3 -x,1/2+y,1/2-z
4 1/2+x,1/2-y,-z
_cell_length_a                   6.0582(8)
_cell_length_b                   14.5133(19)
_cell_length_c                   14.5133(19)
_cell_angle_alpha                90
_cell_angle_beta                 90
_cell_angle_gamma                90
_cell_volume                     1276.07
_exptl_crystal_colour            colorless
_exptl_crystal_description       prismatic
_cell_formula_units_Z            4
loop_
_atom_site_label
_atom_site_type_symbol
_atom_site_fract_x
_atom_site_fract_y
_atom_site_fract_z
Cl1 Cl 0.89335(17) 0.09498(6) 0.73538(7)
F1 F 0.6899(3) 0.21285(14) 0.82888(10)
F2 F 0.9974(3) 0.25823(15) 0.76941(14)
N1 N 0.3508(3) 0.27447(14) 0.59938(12)
O1 O 0.1817(3) 0.25367(15) 0.54909(11)
O2 O 0.7212(4) 0.43805(18) 0.80975(15)
O3 O 0.3938(3) 0.37127(14) 0.79538(13)
C1 C 0.4710(5) 0.20249(19) 0.6501(2)
H1 H 0.4893 0.1476 0.6128
H2 H 0.3951 0.1863 0.7066
C2 C 0.6930(4) 0.24799(17) 0.67017(16)
H3 H 0.7876 0.2363 0.6166
C3 C 0.6405(4) 0.35289(18) 0.67024(17)
C4 C 0.4399(4) 0.35429(19) 0.61098(17)
C5 C 0.4164(5) 0.4401(2) 0.5572(2)
H4 H 0.2916 0.4762 0.5784
H5 H 0.3988 0.4272 0.4920
C6 C 0.6354(6) 0.4896(2) 0.5765(3)
H6 H 0.6956 0.5150 0.5200
H7 H 0.6134 0.5394 0.6201
C7 C 0.7916(5) 0.4175(2) 0.6164(2)
H8 H 0.8997 0.4459 0.6568
H9 H 0.8682 0.3846 0.5678
C8 C 0.8119(5) 0.2106(2) 0.75246(19)
C9 C 0.5934(5) 0.39287(19) 0.76686(18)
C10 C 0.3274(8) 0.4022(3) 0.8863(2)
H10 H 0.4130 0.4562 0.9029
H11 H 0.1731 0.4199 0.8847
C11 C 0.3570(15) 0.3353(4) 0.9520(3)
H12 H 0.2732 0.2816 0.9357
H13 H 0.3078 0.3579 1.0107
H14 H 0.5107 0.3195 0.9557
loop_
_geom_bond_atom_site_label_1
_geom_bond_atom_site_label_2
_geom_bond_site_symmetry_1
_geom_bond_site_symmetry_2
Cl1 C8 1_555 1_555
F1 C8 1_555 1_555
F2 C8 1_555 1_555
N1 O1 1_555 1_555
O2 C9 1_555 1_555
O3 C9 1_555 1_555
C1 N1 1_555 1_555
H1 C1 1_555 1_555
H2 C1 1_555 1_555
C2 C1 1_555 1_555
H3 C2 1_555 1_555
C3 C2 1_555 1_555
C4 N1 1_555 1_555
C5 C4 1_555 1_555
H4 C5 1_555 1_555
H5 C5 1_555 1_555
C6 C5 1_555 1_555
H6 C6 1_555 1_555
H7 C6 1_555 1_555
C7 C3 1_555 1_555
H8 C7 1_555 1_555
H9 C7 1_555 1_555
C8 C2 1_555 1_555
C9 C3 1_555 1_555
C10 O3 1_555 1_555
H10 C10 1_555 1_555
H11 C10 1_555 1_555
C11 C10 1_555 1_555
H12 C11 1_555 1_555
H13 C11 1_555 1_555
H14 C11 1_555 1_555
C3 C4 1_555 1_555
C6 C7 1_555 1_555

#END
