
#######################################################################
#
#                 Cambridge Crystallographic Data Centre
#                                CCDC 
#
#######################################################################
#
# If this CIF has been generated from an entry in the Cambridge 
# Structural Database, then it will include bibliographic, chemical, 
# crystal, experimental, refinement or atomic coordinate data resulting 
# from the CCDC's data processing and validation procedures.
#
#######################################################################

data_JIYYUN
_chemical_formula_moiety         'C18 H14 F3 N1 O4 S1'
_chemical_name_systematic        
'methyl (1,1-dioxido-2-(2,4,5-trifluorobenzyl)-2,3-dihydro-4H-1,2-benzothiazin-4-ylidene)acetate'
_symmetry_cell_setting           triclinic
_symmetry_space_group_name_H-M   'P -1'
_symmetry_Int_Tables_number      2
_space_group_name_Hall           '-P 1'
loop_
_symmetry_equiv_pos_site_id
_symmetry_equiv_pos_as_xyz
1 x,y,z
2 -x,-y,-z
_cell_length_a                   9.1171(13)
_cell_length_b                   9.6587(18)
_cell_length_c                   11.5594(18)
_cell_angle_alpha                98.125(13)
_cell_angle_beta                 103.944(10)
_cell_angle_gamma                117.147(8)
_cell_volume                     841.052
_exptl_crystal_colour            colorless
_exptl_crystal_description       Block
_cell_formula_units_Z            2
_exptl_crystal_recrystallization_method Ethanol
loop_
_atom_site_label
_atom_site_type_symbol
_atom_site_fract_x
_atom_site_fract_y
_atom_site_fract_z
S1 S 0.50611(5) 0.97873(4) 0.80279(3)
F1 F 0.45104(14) 0.40368(12) 0.74994(9)
F2 F 0.06816(12) 0.15385(10) 0.96028(9)
F3 F 0.10050(13) 0.43896(12) 1.05981(9)
O1 O 0.37483(15) 1.02120(13) 0.76308(11)
O2 O 0.63154(15) 1.05887(12) 0.92673(10)
O3 O 0.20502(15) 0.34502(12) 0.31661(10)
O4 O 0.10989(15) 0.36454(13) 0.47595(11)
N1 N 0.40479(15) 0.78256(13) 0.78106(10)
C1 C 0.62023(18) 1.00622(15) 0.69707(12)
C2 C 0.76171(19) 1.16182(16) 0.72053(13)
H1 H 0.7918 1.2469 0.7904
C3 C 0.85786(19) 1.19184(16) 0.64200(14)
H2 H 0.9537 1.2978 0.6569
C4 C 0.8134(2) 1.06591(17) 0.54096(14)
H3 H 0.8806 1.0857 0.4875
C5 C 0.67175(19) 0.91162(17) 0.51735(13)
H4 H 0.6429 0.8276 0.4471
C6 C 0.56993(17) 0.87621(15) 0.59435(12)
C7 C 0.41397(17) 0.71117(15) 0.56705(12)
C8 C 0.30225(17) 0.69084(15) 0.64867(12)
H5 H 0.2186 0.7269 0.6170
H6 H 0.2327 0.5740 0.6418
C9 C 0.50547(19) 0.71652(16) 0.84863(13)
H7 H 0.5938 0.7988 0.9283
H8 H 0.5683 0.6910 0.7981
C10 C 0.38258(18) 0.56457(16) 0.87404(12)
C11 C 0.36220(19) 0.41484(17) 0.82581(13)
C12 C 0.25753(19) 0.27434(16) 0.85178(13)
H9 H 0.2468 0.1737 0.8166
C13 C 0.17015(18) 0.28626(16) 0.93022(13)
C14 C 0.18600(19) 0.43303(17) 0.98052(13)
C15 C 0.28903(19) 0.57061(16) 0.95232(13)
H10 H 0.2967 0.6702 0.9861
C16 C 0.37103(19) 0.59038(16) 0.46911(13)
H11 H 0.4481 0.6136 0.4228
C17 C 0.21529(19) 0.42415(16) 0.42581(13)
C18 C 0.0521(2) 0.18413(18) 0.25671(16)
H12 H 0.0452 0.1172 0.3138
H13 H 0.0613 0.1341 0.1810
H14 H -0.0540 0.1921 0.2348
loop_
_geom_bond_atom_site_label_1
_geom_bond_atom_site_label_2
_geom_bond_site_symmetry_1
_geom_bond_site_symmetry_2
S1 O1 1_555 1_555
F1 C11 1_555 1_555
F2 C13 1_555 1_555
F3 C14 1_555 1_555
O2 S1 1_555 1_555
O3 C17 1_555 1_555
O4 C17 1_555 1_555
N1 S1 1_555 1_555
C1 S1 1_555 1_555
C2 C1 1_555 1_555
H1 C2 1_555 1_555
C3 C2 1_555 1_555
H2 C3 1_555 1_555
C4 C3 1_555 1_555
H3 C4 1_555 1_555
C5 C4 1_555 1_555
H4 C5 1_555 1_555
C6 C1 1_555 1_555
C7 C6 1_555 1_555
C8 N1 1_555 1_555
H5 C8 1_555 1_555
H6 C8 1_555 1_555
C9 N1 1_555 1_555
H7 C9 1_555 1_555
H8 C9 1_555 1_555
C10 C9 1_555 1_555
C11 C10 1_555 1_555
C12 C11 1_555 1_555
H9 C12 1_555 1_555
C13 C12 1_555 1_555
C14 C13 1_555 1_555
C15 C10 1_555 1_555
H10 C15 1_555 1_555
C16 C7 1_555 1_555
H11 C16 1_555 1_555
C17 C16 1_555 1_555
C18 O3 1_555 1_555
H12 C18 1_555 1_555
H13 C18 1_555 1_555
H14 C18 1_555 1_555
C5 C6 1_555 1_555
C7 C8 1_555 1_555
C14 C15 1_555 1_555

#END
