
#######################################################################
#
#                 Cambridge Crystallographic Data Centre
#                                CCDC 
#
#######################################################################
#
# If this CIF has been generated from an entry in the Cambridge 
# Structural Database, then it will include bibliographic, chemical, 
# crystal, experimental, refinement or atomic coordinate data resulting 
# from the CCDC's data processing and validation procedures.
#
#######################################################################

data_JIZHOP01
_chemical_name_common            
9-hydroxy-6,9-dimethyl-3-methylene-3a,4,5,7,8,9,9a,9b-octahydroazuleno[4,5-b]furan-2(3H)-one
_chemical_formula_moiety         'C15 H20 O3'
_chemical_name_systematic        micheliolide
_symmetry_cell_setting           orthorhombic
_symmetry_space_group_name_H-M   'C 2 2 21'
_symmetry_Int_Tables_number      20
_space_group_name_Hall           'C 2n 2'
loop_
_symmetry_equiv_pos_site_id
_symmetry_equiv_pos_as_xyz
1 x,y,z
2 -x,-y,1/2+z
3 -x,y,1/2-z
4 x,-y,-z
5 1/2+x,1/2+y,z
6 1/2-x,1/2-y,1/2+z
7 1/2-x,1/2+y,1/2-z
8 1/2+x,1/2-y,-z
_cell_length_a                   7.4777(9)
_cell_length_b                   15.4839(18)
_cell_length_c                   22.319(3)
_cell_angle_alpha                90
_cell_angle_beta                 90
_cell_angle_gamma                90
_cell_volume                     2584.18
_exptl_crystal_colour            colorless
_exptl_crystal_description       needle
_cell_formula_units_Z            8
loop_
_atom_site_label
_atom_site_type_symbol
_atom_site_fract_x
_atom_site_fract_y
_atom_site_fract_z
C1 C 0.2832(3) 0.12928(14) 0.31110(8)
C2 C 0.2644(4) 0.04031(15) 0.28281(9)
H1 H 0.3322 0.0371 0.2448
H2 H 0.1372 0.0270 0.2746
C3 C 0.3409(4) -0.02235(15) 0.32880(9)
H3 H 0.4718 -0.0286 0.3238
H4 H 0.2844 -0.0799 0.3251
C4 C 0.2964(3) 0.01888(14) 0.38910(9)
C5 C 0.3338(3) 0.11579(13) 0.37689(8)
H5 H 0.4657 0.1250 0.3805
C6 C 0.2429(3) 0.17820(13) 0.41880(8)
H6 H 0.1111 0.1767 0.4113
C7 C 0.3078(3) 0.27116(13) 0.41475(9)
H7 H 0.4397 0.2704 0.4075
C8 C 0.2203(4) 0.32098(14) 0.36425(9)
H8 H 0.2423 0.3835 0.3701
H9 H 0.0894 0.3114 0.3656
C9 C 0.2909(4) 0.29405(15) 0.30270(10)
H10 H 0.2367 0.3333 0.2728
H11 H 0.4212 0.3053 0.3024
C10 C 0.2634(3) 0.20272(16) 0.28040(9)
C11 C 0.2755(3) 0.30207(14) 0.47761(10)
C12 C 0.2813(3) 0.22418(14) 0.51623(9)
C13 C 0.2389(3) 0.37958(16) 0.49889(12)
H12 H 0.2149 0.3870 0.5404
H13 H 0.2364 0.4280 0.4727
C14 C 0.2190(4) 0.19907(18) 0.21409(10)
H14 H 0.1645 0.1431 0.2047
H15 H 0.3288 0.2062 0.1906
H16 H 0.1351 0.2455 0.2042
C15 C 0.1045(4) 0.00081(17) 0.40719(11)
H17 H 0.0795 0.0286 0.4458
H18 H 0.0867 -0.0617 0.4109
H19 H 0.0234 0.0238 0.3766
O1 O 0.4187(3) -0.01124(11) 0.43349(7)
H20 H 0.3735 -0.0532 0.4519
O2 O 0.2776(2) 0.15307(9) 0.48134(6)
O3 O 0.2878(3) 0.21923(11) 0.57003(7)
loop_
_geom_bond_atom_site_label_1
_geom_bond_atom_site_label_2
_geom_bond_site_symmetry_1
_geom_bond_site_symmetry_2
C1 C2 1_555 1_555
C2 H1 1_555 1_555
H2 C2 1_555 1_555
C3 C2 1_555 1_555
H3 C3 1_555 1_555
H4 C3 1_555 1_555
C4 C3 1_555 1_555
C5 C1 1_555 1_555
H5 C5 1_555 1_555
C6 C5 1_555 1_555
H6 C6 1_555 1_555
C7 C6 1_555 1_555
H7 C7 1_555 1_555
C8 C7 1_555 1_555
H8 C8 1_555 1_555
H9 C8 1_555 1_555
C9 C8 1_555 1_555
H10 C9 1_555 1_555
H11 C9 1_555 1_555
C10 C1 1_555 1_555
C11 C7 1_555 1_555
C12 C11 1_555 1_555
C13 C11 1_555 1_555
H12 C13 1_555 1_555
H13 C13 1_555 1_555
C14 C10 1_555 1_555
H14 C14 1_555 1_555
H15 C14 1_555 1_555
H16 C14 1_555 1_555
C15 C4 1_555 1_555
H17 C15 1_555 1_555
H18 C15 1_555 1_555
H19 C15 1_555 1_555
O1 C4 1_555 1_555
H20 O1 1_555 1_555
O2 C6 1_555 1_555
O3 C12 1_555 1_555
C4 C5 1_555 1_555
C9 C10 1_555 1_555
C12 O2 1_555 1_555

#END
