
#######################################################################
#
#                 Cambridge Crystallographic Data Centre
#                                CCDC 
#
#######################################################################
#
# If this CIF has been generated from an entry in the Cambridge 
# Structural Database, then it will include bibliographic, chemical, 
# crystal, experimental, refinement or atomic coordinate data resulting 
# from the CCDC's data processing and validation procedures.
#
#######################################################################

data_JIZHOR
_chemical_formula_moiety         'C16 H24 F2 N2 O2 S1'
_chemical_name_systematic        
N^2^-(t-butylsulfinyl)-N-(3,4-difluorophenyl)-N^2^-methylvalinamide
_symmetry_cell_setting           monoclinic
_symmetry_space_group_name_H-M   'P 21'
_symmetry_Int_Tables_number      4
_space_group_name_Hall           'P 2yb'
loop_
_symmetry_equiv_pos_site_id
_symmetry_equiv_pos_as_xyz
1 x,y,z
2 -x,1/2+y,-z
_cell_length_a                   10.7360(3)
_cell_length_b                   15.9895(3)
_cell_length_c                   11.2155(3)
_cell_angle_alpha                90
_cell_angle_beta                 107.652(1)
_cell_angle_gamma                90
_cell_volume                     1834.64
_exptl_crystal_colour            colorless
_exptl_crystal_description       plate
_cell_formula_units_Z            4
loop_
_atom_site_label
_atom_site_type_symbol
_atom_site_fract_x
_atom_site_fract_y
_atom_site_fract_z
S1 S 0.56280(3) 0.23555(2) 0.62770(3)
F1 F 0.00737(14) 0.34799(12) -0.01006(12)
F2 F -0.17036(11) 0.40933(9) 0.08938(12)
O1 O 0.44491(13) 0.31573(10) 0.25321(11)
O2 O 0.45849(10) 0.17091(8) 0.57966(11)
N1 N 0.34048(12) 0.36795(8) 0.38705(11)
N2 N 0.62464(12) 0.26528(8) 0.51614(12)
C1 C 0.17375(17) 0.35472(11) 0.18144(15)
H1 H 0.2352 0.3326 0.1442
C2 C 0.04511(18) 0.36703(13) 0.11159(16)
C3 C -0.04455(16) 0.39905(11) 0.16249(18)
C4 C -0.00947(17) 0.41954(12) 0.28701(17)
H2 H -0.0724 0.4412 0.3228
C5 C 0.11899(15) 0.40825(10) 0.35995(15)
H3 H 0.1445 0.4229 0.4461
C6 C 0.21118(14) 0.37556(9) 0.30769(13)
C7 C 0.44696(15) 0.34150(10) 0.35613(13)
C8 C 0.57536(14) 0.34841(9) 0.46446(13)
H4 H 0.5561 0.3810 0.5329
C9 C 0.67866(16) 0.39733(10) 0.42399(15)
H5 H 0.7021 0.3649 0.3576
C10 C 0.6226(2) 0.48190(13) 0.37049(19)
H6 H 0.6899 0.5141 0.3480
H7 H 0.5944 0.5127 0.4333
H8 H 0.5477 0.4732 0.2958
C11 C 0.80111(17) 0.40899(12) 0.53545(18)
H9 H 0.8426 0.3546 0.5610
H10 H 0.7770 0.4338 0.6052
H11 H 0.8623 0.4461 0.5117
C12 C 0.65247(19) 0.20299(12) 0.43112(17)
H12 H 0.6258 0.2251 0.3456
H13 H 0.6038 0.1515 0.4339
H14 H 0.7463 0.1908 0.4572
C13 C 0.69563(14) 0.17883(10) 0.74210(15)
C14 C 0.81000(17) 0.23952(14) 0.78749(17)
H15 H 0.8768 0.2150 0.8588
H16 H 0.7790 0.2921 0.8132
H17 H 0.8477 0.2504 0.7196
C15 C 0.63574(18) 0.16086(14) 0.84667(18)
H18 H 0.7011 0.1340 0.9168
H19 H 0.5604 0.1236 0.8153
H20 H 0.6073 0.2135 0.8750
C16 C 0.7342(2) 0.09781(13) 0.6930(2)
H21 H 0.7882 0.0645 0.7630
H22 H 0.7839 0.1102 0.6349
H23 H 0.6553 0.0662 0.6492
H24 H 0.3505(19) 0.3843(13) 0.4618(11)
S2 S 0.38886(3) 0.38256(2) 0.74923(3)
F3 F -0.18220(11) 0.20240(10) 0.16554(12)
F4 F -0.05524(13) 0.10235(9) 0.05026(10)
O3 O 0.02360(12) 0.25327(10) 0.59987(12)
O4 O 0.35153(13) 0.42718(9) 0.62609(10)
N3 N 0.19269(12) 0.20853(8) 0.53385(12)
N4 N 0.25869(12) 0.34461(8) 0.78002(12)
C17 C -0.00380(15) 0.20612(11) 0.34970(16)
H25 H -0.0515 0.2395 0.3908
C18 C -0.06081(17) 0.17890(11) 0.22853(16)
C19 C 0.00554(19) 0.12979(12) 0.16815(15)
C20 C 0.1342(2) 0.10800(12) 0.22777(16)
H26 H 0.1811 0.0745 0.1860
C21 C 0.19371(16) 0.13533(11) 0.34836(14)
H27 H 0.2823 0.1210 0.3894
C22 C 0.12512(14) 0.18362(9) 0.41025(13)
C23 C 0.13968(14) 0.23966(10) 0.61990(14)
C24 C 0.23763(14) 0.25415(9) 0.75055(14)
H28 H 0.3233 0.2297 0.7503
C25 C 0.19473(17) 0.20905(10) 0.85246(16)
H29 H 0.1165 0.2386 0.8626
C26 C 0.1570(2) 0.11812(12) 0.8164(2)
H30 H 0.1252 0.0920 0.8808
H31 H 0.2336 0.0875 0.8096
H32 H 0.0879 0.1166 0.7358
C27 C 0.3028(2) 0.21238(12) 0.97631(16)
H33 H 0.3278 0.2707 0.9976
H34 H 0.3787 0.1810 0.9694
H35 H 0.2717 0.1876 1.0420
C28 C 0.14330(17) 0.39770(10) 0.76661(17)
H36 H 0.0663 0.3623 0.7565
H37 H 0.1293 0.4336 0.6929
H38 H 0.1574 0.4325 0.8415
C29 C 0.44893(17) 0.46783(11) 0.86359(14)
C30 C 0.4670(3) 0.43406(15) 0.99412(17)
H39 H 0.5145 0.4751 1.0562
H40 H 0.5168 0.3818 1.0054
H41 H 0.3812 0.4235 1.0051
C31 C 0.5823(2) 0.48658(15) 0.8450(2)
H42 H 0.6290 0.5280 0.9069
H43 H 0.5691 0.5087 0.7606
H44 H 0.6338 0.4350 0.8558
C32 C 0.3632(2) 0.54562(12) 0.8340(2)
H45 H 0.4134 0.5941 0.8762
H46 H 0.2868 0.5377 0.8634
H47 H 0.3342 0.5551 0.7434
H48 H 0.2762(10) 0.2027(14) 0.554(2)
loop_
_geom_bond_atom_site_label_1
_geom_bond_atom_site_label_2
_geom_bond_site_symmetry_1
_geom_bond_site_symmetry_2
S1 O2 1_555 1_555
F1 C2 1_555 1_555
F2 C3 1_555 1_555
O1 C7 1_555 1_555
N1 C6 1_555 1_555
N2 S1 1_555 1_555
C1 H1 1_555 1_555
C2 C1 1_555 1_555
C3 C2 1_555 1_555
C4 C3 1_555 1_555
H2 C4 1_555 1_555
C5 C4 1_555 1_555
H3 C5 1_555 1_555
C6 C1 1_555 1_555
C7 N1 1_555 1_555
C8 N2 1_555 1_555
H4 C8 1_555 1_555
C9 C8 1_555 1_555
H5 C9 1_555 1_555
C10 C9 1_555 1_555
H6 C10 1_555 1_555
H7 C10 1_555 1_555
H8 C10 1_555 1_555
C11 C9 1_555 1_555
H9 C11 1_555 1_555
H10 C11 1_555 1_555
H11 C11 1_555 1_555
C12 N2 1_555 1_555
H12 C12 1_555 1_555
H13 C12 1_555 1_555
H14 C12 1_555 1_555
C13 S1 1_555 1_555
C14 C13 1_555 1_555
H15 C14 1_555 1_555
H16 C14 1_555 1_555
H17 C14 1_555 1_555
C15 C13 1_555 1_555
H18 C15 1_555 1_555
H19 C15 1_555 1_555
H20 C15 1_555 1_555
C16 C13 1_555 1_555
H21 C16 1_555 1_555
H22 C16 1_555 1_555
H23 C16 1_555 1_555
H24 N1 1_555 1_555
S2 O4 1_555 1_555
F3 C18 1_555 1_555
F4 C19 1_555 1_555
O3 C23 1_555 1_555
N3 C22 1_555 1_555
N4 S2 1_555 1_555
C17 H25 1_555 1_555
C18 C17 1_555 1_555
C19 C18 1_555 1_555
C20 C19 1_555 1_555
H26 C20 1_555 1_555
C21 C20 1_555 1_555
H27 C21 1_555 1_555
C22 C17 1_555 1_555
C23 N3 1_555 1_555
C24 N4 1_555 1_555
H28 C24 1_555 1_555
C25 C24 1_555 1_555
H29 C25 1_555 1_555
C26 C25 1_555 1_555
H30 C26 1_555 1_555
H31 C26 1_555 1_555
H32 C26 1_555 1_555
C27 C25 1_555 1_555
H33 C27 1_555 1_555
H34 C27 1_555 1_555
H35 C27 1_555 1_555
C28 N4 1_555 1_555
H36 C28 1_555 1_555
H37 C28 1_555 1_555
H38 C28 1_555 1_555
C29 S2 1_555 1_555
C30 C29 1_555 1_555
H39 C30 1_555 1_555
H40 C30 1_555 1_555
H41 C30 1_555 1_555
C31 C29 1_555 1_555
H42 C31 1_555 1_555
H43 C31 1_555 1_555
H44 C31 1_555 1_555
C32 C29 1_555 1_555
H45 C32 1_555 1_555
H46 C32 1_555 1_555
H47 C32 1_555 1_555
H48 N3 1_555 1_555
C5 C6 1_555 1_555
C7 C8 1_555 1_555
C21 C22 1_555 1_555
C23 C24 1_555 1_555

#END
