
#######################################################################
#
#                 Cambridge Crystallographic Data Centre
#                                CCDC 
#
#######################################################################
#
# If this CIF has been generated from an entry in the Cambridge 
# Structural Database, then it will include bibliographic, chemical, 
# crystal, experimental, refinement or atomic coordinate data resulting 
# from the CCDC's data processing and validation procedures.
#
#######################################################################

data_JIZHOR02
_chemical_formula_moiety         'C16 H24 F2 N2 O2 S1'
_chemical_name_systematic        
N^2^-(t-butylsulfinyl)-N-(3,4-difluorophenyl)-N^2^-methylvalinamide
_symmetry_cell_setting           monoclinic
_symmetry_space_group_name_H-M   'P 21'
_symmetry_Int_Tables_number      4
_space_group_name_Hall           'P 2yb'
loop_
_symmetry_equiv_pos_site_id
_symmetry_equiv_pos_as_xyz
1 x,y,z
2 -x,1/2+y,-z
_cell_length_a                   9.3912(5)
_cell_length_b                   10.6576(4)
_cell_length_c                   18.9928(8)
_cell_angle_alpha                90
_cell_angle_beta                 94.820(2)
_cell_angle_gamma                90
_cell_volume                     1894.22
_exptl_crystal_colour            colorless
_exptl_crystal_description       Plate
_cell_formula_units_Z            4
loop_
_atom_site_label
_atom_site_type_symbol
_atom_site_fract_x
_atom_site_fract_y
_atom_site_fract_z
S1 S 0.50909(3) 0.46742(4) 0.984265(17)
F1 F 0.31707(14) -0.12521(13) 0.74559(7)
F2 F 0.06354(14) -0.09191(12) 0.67001(6)
O1 O 0.06636(14) 0.36193(13) 0.89348(8)
O2 O 0.54794(13) 0.59569(13) 1.01235(7)
N1 N 0.21333(14) 0.19294(12) 0.90800(7)
N2 N 0.33669(11) 0.46782(13) 0.95873(6)
C1 C 0.26376(18) 0.03179(16) 0.82607(10)
H1 H 0.3534 0.0189 0.8521
C2 C 0.22549(19) -0.03833(18) 0.76731(9)
C3 C 0.09674(19) -0.02115(18) 0.72883(8)
C4 C 0.00204(18) 0.06638(17) 0.74945(9)
H2 H -0.0878 0.0770 0.7232
C5 C 0.03784(16) 0.13971(15) 0.80894(9)
H3 H -0.0271 0.2011 0.8233
C6 C 0.16918(15) 0.12267(16) 0.84732(8)
C7 C 0.16533(15) 0.30755(15) 0.92553(9)
C8 C 0.25154(15) 0.36895(15) 0.98872(8)
H4 H 0.3190 0.3046 1.0106
C9 C 0.15716(19) 0.4145(2) 1.04566(11)
H5 H 0.0913 0.4810 1.0248
C10 C 0.0681(3) 0.3064(3) 1.07012(15)
H6 H 0.1307 0.2457 1.0962
H7 H 0.0184 0.2653 1.0290
H8 H -0.0021 0.3386 1.1010
C11 C 0.2513(3) 0.4712(3) 1.10719(11)
H9 H 0.3186 0.4077 1.1270
H10 H 0.1911 0.4997 1.1438
H11 H 0.3045 0.5426 1.0902
C12 C 0.2670(2) 0.58427(17) 0.93329(12)
H12 H 0.2227 0.5716 0.8852
H13 H 0.3383 0.6514 0.9331
H14 H 0.1935 0.6076 0.9645
C13 C 0.59714(18) 0.4554(2) 0.90159(9)
C14 C 0.5439(3) 0.3334(2) 0.86607(11)
H15 H 0.4429 0.3424 0.8491
H16 H 0.5545 0.2645 0.9003
H17 H 0.6001 0.3151 0.8261
C15 C 0.5710(3) 0.5694(3) 0.85550(13)
H18 H 0.6384 0.5698 0.8188
H19 H 0.5845 0.6453 0.8844
H20 H 0.4730 0.5672 0.8333
C16 C 0.7553(2) 0.4453(3) 0.92779(16)
H21 H 0.7687 0.3756 0.9613
H22 H 0.7866 0.5237 0.9512
H23 H 0.8119 0.4301 0.8876
H24 H 0.293(2) 0.1654(17) 0.9301(10)
S2 S 0.39593(4) 0.61787(4) 0.517469(19)
O3 O 0.30548(13) 0.70702(12) 0.29526(6)
O4 O 0.44109(15) 0.49559(14) 0.55082(7)
N3 N 0.40324(17) 0.60456(13) 0.43202(7)
F3 F 0.20227(18) 1.30047(12) 0.28646(10)
F4 F -0.0438(3) 1.2111(3) 0.2175(2)
N4 N 0.3461(3) 0.89006(19) 0.35664(19)
H25 H 0.4000 0.9248 0.3915
C17 C 0.2708(3) 1.0960(2) 0.32078(17)
H26 H 0.3550 1.1280 0.3456
C18 C 0.1734(3) 1.1757(2) 0.2861(2)
C19 C 0.0497(2) 1.1306(2) 0.25093(13)
C20 C 0.0228(2) 1.0050(2) 0.24975(12)
H27 H -0.0631 0.9739 0.2260
C21 C 0.1205(3) 0.9227(3) 0.2831(2)
H28 H 0.1023 0.8350 0.2813
C22 C 0.2437(2) 0.9669(2) 0.31896(13)
C23 C 0.36792(17) 0.76679(13) 0.34334(8)
C24 C 0.47780(17) 0.70498(15) 0.39657(8)
H29 H 0.5088 0.7693 0.4330
C25 C 0.6107(2) 0.6602(2) 0.36294(9)
H30 H 0.5822 0.5937 0.3274
C26 C 0.6786(2) 0.7687(2) 0.32545(11)
H31 H 0.6090 0.8034 0.2893
H32 H 0.7623 0.7382 0.3031
H33 H 0.7081 0.8341 0.3599
C27 C 0.7164(3) 0.6043(3) 0.41968(12)
H34 H 0.8041 0.5802 0.3986
H35 H 0.6740 0.5300 0.4400
H36 H 0.7390 0.6666 0.4569
C28 C 0.3690(3) 0.48566(18) 0.39604(10)
H37 H 0.2893 0.4982 0.3600
H38 H 0.3421 0.4234 0.4305
H39 H 0.4528 0.4557 0.3735
C29 C 0.2016(4) 0.6252(8) 0.5256(6)
C30 C 0.1397(11) 0.7326(10) 0.4793(9)
H40 H 0.1468 0.7117 0.4294
H41 H 0.1935 0.8096 0.4910
H42 H 0.0392 0.7451 0.4877
C31 C 0.1267(9) 0.5030(9) 0.5080(6)
H43 H 0.0329 0.5032 0.5271
H44 H 0.1841 0.4335 0.5289
H45 H 0.1143 0.4926 0.4566
C32 C 0.1966(12) 0.6561(13) 0.6037(7)
H46 H 0.2494 0.7339 0.6147
H47 H 0.2402 0.5875 0.6324
H48 H 0.0970 0.6667 0.6144
F5? F -0.1139(4) 0.9646(4) 0.2364(5)
F6? F -0.0594(15) 1.2144(11) 0.2283(12)
N5? N 0.3438(13) 0.8902(5) 0.3535(9)
H49? H 0.4025 0.9231 0.3871
C33? C 0.1139(7) 0.9301(7) 0.2945(5)
H50? H 0.0941 0.8429 0.2972
C34? C 0.0138(5) 1.0112(7) 0.2633(5)
C35? C 0.0415(10) 1.1378(7) 0.2592(9)
C36? C 0.1696(12) 1.1845(8) 0.2864(12)
H51? H 0.1886 1.2718 0.2836
C37? C 0.2721(11) 1.1046(8) 0.3180(11)
H52? H 0.3614 1.1373 0.3369
C38? C 0.2455(9) 0.9780(7) 0.3222(7)
C39? C 0.2098(7) 0.6299(10) 0.5405(10)
C40? C 0.157(2) 0.7510(14) 0.5042(13)
H53? H 0.1616 0.7430 0.4531
H54? H 0.2169 0.8212 0.5220
H55? H 0.0577 0.7665 0.5144
C41? C 0.1196(17) 0.5186(15) 0.5171(13)
H56? H 0.0248 0.5270 0.5346
H57? H 0.1652 0.4416 0.5362
H58? H 0.1099 0.5145 0.4654
C42? C 0.221(2) 0.6430(16) 0.6206(10)
H59? H 0.3135 0.6807 0.6366
H60? H 0.2137 0.5600 0.6422
H61? H 0.1437 0.6968 0.6346
loop_
_geom_bond_atom_site_label_1
_geom_bond_atom_site_label_2
_geom_bond_site_symmetry_1
_geom_bond_site_symmetry_2
S1 O2 1_555 1_555
F1 C2 1_555 1_555
F2 C3 1_555 1_555
O1 C7 1_555 1_555
N1 C6 1_555 1_555
N2 S1 1_555 1_555
C1 H1 1_555 1_555
C2 C1 1_555 1_555
C3 C2 1_555 1_555
C4 C3 1_555 1_555
H2 C4 1_555 1_555
C5 C4 1_555 1_555
H3 C5 1_555 1_555
C6 C1 1_555 1_555
C7 N1 1_555 1_555
C8 N2 1_555 1_555
H4 C8 1_555 1_555
C9 C8 1_555 1_555
H5 C9 1_555 1_555
C10 C9 1_555 1_555
H6 C10 1_555 1_555
H7 C10 1_555 1_555
H8 C10 1_555 1_555
C11 C9 1_555 1_555
H9 C11 1_555 1_555
H10 C11 1_555 1_555
H11 C11 1_555 1_555
C12 N2 1_555 1_555
H12 C12 1_555 1_555
H13 C12 1_555 1_555
H14 C12 1_555 1_555
C13 S1 1_555 1_555
C14 C13 1_555 1_555
H15 C14 1_555 1_555
H16 C14 1_555 1_555
H17 C14 1_555 1_555
C15 C13 1_555 1_555
H18 C15 1_555 1_555
H19 C15 1_555 1_555
H20 C15 1_555 1_555
C16 C13 1_555 1_555
H21 C16 1_555 1_555
H22 C16 1_555 1_555
H23 C16 1_555 1_555
H24 N1 1_555 1_555
S2 O4 1_555 1_555
O3 C23 1_555 1_555
N3 S2 1_555 1_555
F3 C18 1_555 1_555
F4 C19 1_555 1_555
N4 H25 1_555 1_555
C17 H26 1_555 1_555
C18 C17 1_555 1_555
C19 C18 1_555 1_555
C20 C19 1_555 1_555
H27 C20 1_555 1_555
C21 C20 1_555 1_555
H28 C21 1_555 1_555
C22 N4 1_555 1_555
C23 N4 1_555 1_555
C24 N3 1_555 1_555
H29 C24 1_555 1_555
C25 C24 1_555 1_555
H30 C25 1_555 1_555
C26 C25 1_555 1_555
H31 C26 1_555 1_555
H32 C26 1_555 1_555
H33 C26 1_555 1_555
C27 C25 1_555 1_555
H34 C27 1_555 1_555
H35 C27 1_555 1_555
H36 C27 1_555 1_555
C28 N3 1_555 1_555
H37 C28 1_555 1_555
H38 C28 1_555 1_555
H39 C28 1_555 1_555
C29 S2 1_555 1_555
C30 C29 1_555 1_555
H40 C30 1_555 1_555
H41 C30 1_555 1_555
H42 C30 1_555 1_555
C31 C29 1_555 1_555
H43 C31 1_555 1_555
H44 C31 1_555 1_555
H45 C31 1_555 1_555
C32 C29 1_555 1_555
H46 C32 1_555 1_555
H47 C32 1_555 1_555
H48 C32 1_555 1_555
C5 C6 1_555 1_555
C7 C8 1_555 1_555
C17 C22 1_555 1_555
C21 C22 1_555 1_555
C23 C24 1_555 1_555

#END
