
#######################################################################
#
#                 Cambridge Crystallographic Data Centre
#                                CCDC 
#
#######################################################################
#
# If this CIF has been generated from an entry in the Cambridge 
# Structural Database, then it will include bibliographic, chemical, 
# crystal, experimental, refinement or atomic coordinate data resulting 
# from the CCDC's data processing and validation procedures.
#
#######################################################################

data_JIZWOF
_chemical_formula_moiety         'C21 H16 Br1 N3 O2'
_chemical_name_systematic        
5-Methyl-2-phenyl-4-((p-bromophenylamino)(2-furyl)methylene)pyrazol-3(2H)-one
_symmetry_cell_setting           triclinic
_symmetry_space_group_name_H-M   'P -1'
_symmetry_Int_Tables_number      2
_space_group_name_Hall           '-P 1'
loop_
_symmetry_equiv_pos_site_id
_symmetry_equiv_pos_as_xyz
1 x,y,z
2 -x,-y,-z
_cell_length_a                   9.0936(3)
_cell_length_b                   9.8067(4)
_cell_length_c                   11.6863(4)
_cell_angle_alpha                102.512(10)
_cell_angle_beta                 90.9630(10)
_cell_angle_gamma                114.327(10)
_cell_volume                     920.464
_exptl_crystal_colour            yellow
_exptl_crystal_description       block
_cell_formula_units_Z            2
loop_
_atom_site_label
_atom_site_type_symbol
_atom_site_fract_x
_atom_site_fract_y
_atom_site_fract_z
Br1 Br 0.83749(5) 0.20971(5) 0.37213(3)
O1 O 0.4866(2) 0.2310(2) 1.01037(17)
N1 N 0.5561(3) 0.3839(2) 1.20447(19)
N2 N 0.6548(3) 0.5386(2) 1.2622(2)
N3 N 0.6704(3) 0.3967(3) 0.8644(2)
C1 C 0.8904(3) 0.6506(3) 0.9489(2)
C2 C 0.7487(3) 0.5125(3) 0.9606(2)
C3 C 0.7893(4) 0.2734(3) 0.5264(3)
C4 C 0.5671(3) 0.3538(3) 1.0851(2)
O2 O 1.0362(3) 0.6749(3) 1.0057(2)
C5 C 0.7177(3) 0.3644(3) 0.7512(2)
C6 C 0.4478(3) 0.2870(3) 1.2689(2)
C7 C 0.7336(3) 0.6043(3) 1.1826(2)
C8 C 0.6916(3) 0.4977(3) 1.0684(2)
C9 C 0.2294(4) 0.0990(4) 1.3920(3)
H1 H 0.1549 0.0357 1.4328
C10 C 0.5938(3) 0.2690(3) 0.6601(2)
H2 H 0.4860 0.2357 0.6750
C11 C 0.3929(3) 0.3523(3) 1.3667(2)
H3 H 0.4290 0.4588 1.3907
C12 C 0.6299(4) 0.2233(3) 0.5473(3)
H4 H 0.5469 0.1594 0.4866
C13 C 0.8787(3) 0.4129(3) 0.7285(2)
H5 H 0.9624 0.4750 0.7891
C14 C 0.9144(4) 0.3689(3) 0.6155(3)
H6 H 1.0219 0.4032 0.5996
C15 C 0.3957(3) 0.1285(3) 1.2342(2)
H7 H 0.4344 0.0848 1.1700
C16 C 0.2850(4) 0.0357(3) 1.2963(3)
H8 H 0.2482 -0.0709 1.2725
C17 C 0.2840(4) 0.2575(4) 1.4280(3)
H9 H 0.2474 0.3005 1.4938
C18 C 0.8419(4) 0.7732(3) 1.2164(3)
H10 H 0.8338 0.8153 1.2970
H11 H 0.8092 0.8237 1.1660
H12 H 0.9522 0.7893 1.2079
C19 C 1.1502(5) 0.8036(4) 0.9862(4)
H13 H 1.2601 0.8436 1.0132
C20 C 1.0887(4) 0.8645(3) 0.9257(3)
H14 H 1.1444 0.9580 0.9058
C21 C 0.9058(6) 0.7571(5) 0.8904(4)
H15 H 0.8286 0.7647 0.8422
H16 H 0.580(5) 0.330(4) 0.880(3)
loop_
_geom_bond_atom_site_label_1
_geom_bond_atom_site_label_2
_geom_bond_site_symmetry_1
_geom_bond_site_symmetry_2
Br1 C3 1_555 1_555
O1 C4 1_555 1_555
N1 N2 1_555 1_555
N2 C7 1_555 1_555
N3 C2 1_555 1_555
C1 C2 1_555 1_555
C2 C8 1_555 1_555
C3 C12 1_555 1_555
C4 N1 1_555 1_555
O2 C1 1_555 1_555
C5 N3 1_555 1_555
C6 N1 1_555 1_555
C7 C8 1_555 1_555
C8 C4 1_555 1_555
C9 H1 1_555 1_555
C10 C5 1_555 1_555
H2 C10 1_555 1_555
C11 C6 1_555 1_555
H3 C11 1_555 1_555
C12 C10 1_555 1_555
H4 C12 1_555 1_555
C13 C5 1_555 1_555
H5 C13 1_555 1_555
C14 C3 1_555 1_555
H6 C14 1_555 1_555
C15 C6 1_555 1_555
H7 C15 1_555 1_555
C16 C9 1_555 1_555
H8 C16 1_555 1_555
C17 C9 1_555 1_555
H9 C17 1_555 1_555
C18 C7 1_555 1_555
H10 C18 1_555 1_555
H11 C18 1_555 1_555
H12 C18 1_555 1_555
C19 O2 1_555 1_555
H13 C19 1_555 1_555
C20 C19 1_555 1_555
H14 C20 1_555 1_555
C21 C1 1_555 1_555
H15 C21 1_555 1_555
H16 N3 1_555 1_555
C11 C17 1_555 1_555
C13 C14 1_555 1_555
C15 C16 1_555 1_555
C20 C21 1_555 1_555

#END
