
#######################################################################
#
#                 Cambridge Crystallographic Data Centre
#                                CCDC 
#
#######################################################################
#
# If this CIF has been generated from an entry in the Cambridge 
# Structural Database, then it will include bibliographic, chemical, 
# crystal, experimental, refinement or atomic coordinate data resulting 
# from the CCDC's data processing and validation procedures.
#
#######################################################################

data_JIZZUO
_chemical_formula_moiety         'C21 H20 N8'
_chemical_name_systematic        
N,N'-bis((2-Phenyl-2H-1,2,3-triazol-4-yl)methylene)-1,3-propanediamine
_symmetry_cell_setting           monoclinic
_symmetry_space_group_name_H-M   'P 21/c'
_symmetry_Int_Tables_number      14
_space_group_name_Hall           '-P 2ybc'
loop_
_symmetry_equiv_pos_site_id
_symmetry_equiv_pos_as_xyz
1 x,y,z
2 -x,1/2+y,1/2-z
3 -x,-y,-z
4 x,1/2-y,1/2+z
_cell_length_a                   16.314(3)
_cell_length_b                   5.7168(11)
_cell_length_c                   21.316(4)
_cell_angle_alpha                90
_cell_angle_beta                 105.30(3)
_cell_angle_gamma                90
_cell_volume                     1917.55
_exptl_crystal_colour            colorless
_chemical_melting_point          '112-113 deg.C'
_cell_formula_units_Z            4
loop_
_atom_site_label
_atom_site_type_symbol
_atom_site_fract_x
_atom_site_fract_y
_atom_site_fract_z
N1 N 0.25725(10) 0.3619(3) 0.07373(8)
N2 N 0.20226(9) 0.3245(3) 0.10951(7)
N3 N 0.20852(10) 0.4709(3) 0.15916(7)
N4 N 0.36395(10) 0.9236(3) 0.20458(7)
N5 N 0.49613(10) 0.7957(3) 0.40855(7)
N6 N 0.66001(10) 0.4432(3) 0.50911(7)
N7 N 0.69481(10) 0.4894(3) 0.57205(7)
N8 N 0.66262(10) 0.6768(3) 0.59529(7)
C1 C 0.14736(12) -0.0258(3) 0.04888(9)
H1 H 0.1898 -0.0133 0.0260
C2 C 0.08932(12) -0.2085(4) 0.03610(10)
H2 H 0.0921 -0.3220 0.0042
C3 C 0.02756(13) -0.2268(4) 0.06943(10)
H3 H -0.0118 -0.3528 0.0606
C4 C 0.02318(13) -0.0612(4) 0.11558(10)
H4 H -0.0196 -0.0735 0.1382
C5 C 0.08050(12) 0.1230(4) 0.12928(9)
H5 H 0.0775 0.2366 0.1611
C6 C 0.14233(11) 0.1378(3) 0.09557(8)
C7 C 0.30194(12) 0.5438(3) 0.10242(9)
H6 H 0.3472 0.6157 0.0892
C8 C 0.27194(11) 0.6136(3) 0.15540(8)
C9 C 0.29699(11) 0.8075(3) 0.20096(8)
H7 H 0.2620 0.8475 0.2286
C10 C 0.38302(12) 1.1079(3) 0.25408(9)
H8 H 0.3326 1.1358 0.2706
H9 H 0.3963 1.2551 0.2344
C11 C 0.45792(11) 1.0387(3) 0.31009(9)
H10 H 0.4688 1.1646 0.3432
H11 H 0.5092 1.0232 0.2938
C12 C 0.44320(12) 0.8097(3) 0.34196(8)
H12 H 0.3826 0.7980 0.3419
H13 H 0.4565 0.6768 0.3165
C13 C 0.54934(11) 0.6297(3) 0.42372(8)
H14 H 0.5547 0.5182 0.3920
C14 C 0.60231(11) 0.6118(3) 0.49048(8)
C15 C 0.60392(12) 0.7552(4) 0.54388(9)
H15 H 0.5686 0.8877 0.5435
C16 C 0.76228(11) 0.3551(3) 0.61148(9)
C17 C 0.78613(13) 0.1496(4) 0.58665(10)
H16 H 0.7584 0.1000 0.5438
C18 C 0.85127(14) 0.0179(4) 0.62567(11)
H17 H 0.8682 -0.1236 0.6093
C19 C 0.89195(13) 0.0897(4) 0.68801(11)
H18 H 0.9365 -0.0023 0.7143
C20 C 0.86774(12) 0.2956(4) 0.71211(10)
H19 H 0.8959 0.3457 0.7549
C21 C 0.80225(12) 0.4295(4) 0.67388(9)
H20 H 0.7851 0.5704 0.6904
loop_
_geom_bond_atom_site_label_1
_geom_bond_atom_site_label_2
_geom_bond_site_symmetry_1
_geom_bond_site_symmetry_2
N1 N2 1_555 1_555
N2 N3 1_555 1_555
N3 C8 1_555 1_555
N4 C9 1_555 1_555
N5 C12 1_555 1_555
N6 N7 1_555 1_555
N7 N8 1_555 1_555
N8 C15 1_555 1_555
C1 H1 1_555 1_555
C2 C1 1_555 1_555
H2 C2 1_555 1_555
C3 C2 1_555 1_555
H3 C3 1_555 1_555
C4 C3 1_555 1_555
H4 C4 1_555 1_555
C5 C4 1_555 1_555
H5 C5 1_555 1_555
C6 N2 1_555 1_555
C7 N1 1_555 1_555
H6 C7 1_555 1_555
C8 C7 1_555 1_555
C9 C8 1_555 1_555
H7 C9 1_555 1_555
C10 N4 1_555 1_555
H8 C10 1_555 1_555
H9 C10 1_555 1_555
C11 C10 1_555 1_555
H10 C11 1_555 1_555
H11 C11 1_555 1_555
C12 C11 1_555 1_555
H12 C12 1_555 1_555
H13 C12 1_555 1_555
C13 N5 1_555 1_555
H14 C13 1_555 1_555
C14 N6 1_555 1_555
C15 C14 1_555 1_555
H15 C15 1_555 1_555
C16 N7 1_555 1_555
C17 C16 1_555 1_555
H16 C17 1_555 1_555
C18 C17 1_555 1_555
H17 C18 1_555 1_555
C19 C18 1_555 1_555
H18 C19 1_555 1_555
C20 C19 1_555 1_555
H19 C20 1_555 1_555
C21 C16 1_555 1_555
H20 C21 1_555 1_555
C1 C6 1_555 1_555
C5 C6 1_555 1_555
C13 C14 1_555 1_555
C20 C21 1_555 1_555

#END
