
#######################################################################
#
#                 Cambridge Crystallographic Data Centre
#                                CCDC 
#
#######################################################################
#
# If this CIF has been generated from an entry in the Cambridge 
# Structural Database, then it will include bibliographic, chemical, 
# crystal, experimental, refinement or atomic coordinate data resulting 
# from the CCDC's data processing and validation procedures.
#
#######################################################################

data_JIZZOI
_chemical_formula_moiety         'C22 H22 N8'
_chemical_name_systematic        
N,N'-bis((2-Phenyl-2H-1,2,3-triazol-4-yl)methylene)-1,4-butanediamine
_symmetry_cell_setting           monoclinic
_symmetry_space_group_name_H-M   'P 21/c'
_symmetry_Int_Tables_number      14
_space_group_name_Hall           '-P 2ybc'
loop_
_symmetry_equiv_pos_site_id
_symmetry_equiv_pos_as_xyz
1 x,y,z
2 -x,1/2+y,1/2-z
3 -x,-y,-z
4 x,1/2-y,1/2+z
_cell_length_a                   8.6156(17)
_cell_length_b                   5.2964(11)
_cell_length_c                   22.665(5)
_cell_angle_alpha                90
_cell_angle_beta                 100.54(3)
_cell_angle_gamma                90
_cell_volume                     1016.79
_exptl_crystal_colour            yellow
_exptl_crystal_description       chunk
_chemical_melting_point          '99-100 deg.C'
_cell_formula_units_Z            2
loop_
_atom_site_label
_atom_site_type_symbol
_atom_site_fract_x
_atom_site_fract_y
_atom_site_fract_z
C1 C 0.19149(13) 0.9338(2) 0.35737(5)
H1 H 0.1691 0.9033 0.3963
C2 C 0.11958(14) 1.1310(2) 0.32285(5)
H2 H 0.0471 1.2364 0.3382
C3 C 0.15170(14) 1.1767(2) 0.26628(5)
H3 H 0.1018 1.3129 0.2429
C4 C 0.25720(14) 1.0225(2) 0.24394(5)
H4 H 0.2793 1.0535 0.2050
C5 C 0.33093(14) 0.8235(2) 0.27767(5)
H5 H 0.4034 0.7182 0.2623
C6 C 0.29672(12) 0.78132(19) 0.33436(4)
C7 C 0.42960(13) 0.3243(2) 0.44140(5)
H6 H 0.4317 0.2311 0.4773
C8 C 0.53072(12) 0.2875(2) 0.40031(4)
C9 C 0.66233(12) 0.1147(2) 0.40113(5)
H7 H 0.7170 0.1153 0.3683
C10 C 0.84536(13) -0.1895(2) 0.44241(5)
H8 H 0.8864 -0.1514 0.4053
H9 H 0.8162 -0.3704 0.4416
C11 C 0.97422(13) -0.1377(2) 0.49716(5)
H10 H 0.9348 -0.1875 0.5339
H11 H 1.0672 -0.2442 0.4945
N1 N 0.33048(11) 0.51037(18) 0.42202(4)
N2 N 0.37334(10) 0.58174(17) 0.37037(4)
N3 N 0.49259(10) 0.45295(17) 0.35553(4)
N4 N 0.70611(11) -0.03612(18) 0.44414(4)
C1B C 1.80851(13) -0.9338(2) 0.64263(5)
H1B H 1.8309 -0.9033 0.6037
C2B C 1.88042(14) -1.1310(2) 0.67715(5)
H2B H 1.9529 -1.2364 0.6618
C3B C 1.84830(14) -1.1767(2) 0.73372(5)
H3B H 1.8982 -1.3129 0.7571
C4B C 1.74280(14) -1.0225(2) 0.75606(5)
H4B H 1.7207 -1.0535 0.7950
C5B C 1.66907(14) -0.8235(2) 0.72233(5)
H5B H 1.5966 -0.7182 0.7377
C6B C 1.70328(12) -0.78132(19) 0.66564(4)
C7B C 1.57040(13) -0.3243(2) 0.55860(5)
H6B H 1.5683 -0.2311 0.5227
C8B C 1.46928(12) -0.2875(2) 0.59969(4)
C9B C 1.33767(12) -0.1147(2) 0.59887(5)
H7B H 1.2830 -0.1153 0.6317
C10B C 1.15464(13) 0.1895(2) 0.55759(5)
H8B H 1.1136 0.1514 0.5947
H9B H 1.1838 0.3704 0.5584
C11B C 1.02578(13) 0.1377(2) 0.50284(5)
H10B H 1.0652 0.1875 0.4661
H11B H 0.9328 0.2442 0.5055
N1B N 1.66952(11) -0.51037(18) 0.57798(4)
N2B N 1.62666(10) -0.58174(17) 0.62963(4)
N3B N 1.50741(10) -0.45295(17) 0.64447(4)
N4B N 1.29389(11) 0.03612(18) 0.55586(4)
loop_
_geom_bond_atom_site_label_1
_geom_bond_atom_site_label_2
_geom_bond_site_symmetry_1
_geom_bond_site_symmetry_2
C1 H1 1_555 1_555
C2 C1 1_555 1_555
H2 C2 1_555 1_555
C3 C2 1_555 1_555
H3 C3 1_555 1_555
C4 C3 1_555 1_555
H4 C4 1_555 1_555
C5 C4 1_555 1_555
H5 C5 1_555 1_555
C6 C1 1_555 1_555
C7 H6 1_555 1_555
C8 C7 1_555 1_555
C9 C8 1_555 1_555
H7 C9 1_555 1_555
C10 H8 1_555 1_555
H9 C10 1_555 1_555
C11 C10 1_555 1_555
H10 C11 1_555 1_555
H11 C11 1_555 1_555
N1 C7 1_555 1_555
N2 C6 1_555 1_555
N3 C8 1_555 1_555
N4 C9 1_555 1_555
C1B H1B 1_555 1_555
C2B C1B 1_555 1_555
H2B C2B 1_555 1_555
C3B C2B 1_555 1_555
H3B C3B 1_555 1_555
C4B C3B 1_555 1_555
H4B C4B 1_555 1_555
C5B C4B 1_555 1_555
H5B C5B 1_555 1_555
C6B C1B 1_555 1_555
C7B H6B 1_555 1_555
C8B C7B 1_555 1_555
C9B C8B 1_555 1_555
H7B C9B 1_555 1_555
C10B H8B 1_555 1_555
H9B C10B 1_555 1_555
C11B C11 1_555 1_555
H10B C11B 1_555 1_555
H11B C11B 1_555 1_555
N1B C7B 1_555 1_555
N2B C6B 1_555 1_555
N3B C8B 1_555 1_555
N4B C9B 1_555 1_555
C5 C6 1_555 1_555
C10 N4 1_555 1_555
N1 N2 1_555 1_555
N2 N3 1_555 1_555
C5B C6B 1_555 1_555
C10B C11B 1_555 1_555
C10B N4B 1_555 1_555
N1B N2B 1_555 1_555
N2B N3B 1_555 1_555

#END
