
#######################################################################
#
#                 Cambridge Crystallographic Data Centre
#                                CCDC 
#
#######################################################################
#
# If this CIF has been generated from an entry in the Cambridge 
# Structural Database, then it will include bibliographic, chemical, 
# crystal, experimental, refinement or atomic coordinate data resulting 
# from the CCDC's data processing and validation procedures.
#
#######################################################################

data_JOBGAJ
_chemical_compound_source        'endophytic fungus Eupenicillium sp'
_chemical_formula_moiety         'C21 H22 N2 O9,2(H2 O1)'
_chemical_name_systematic        'Trichodermamide C dihydrate'
_chemical_properties_biological  
'activity against cancer cell lines HCT116 and A549'
_symmetry_cell_setting           monoclinic
_symmetry_space_group_name_H-M   'P 21'
_symmetry_Int_Tables_number      4
_space_group_name_Hall           'P 2yb'
loop_
_symmetry_equiv_pos_site_id
_symmetry_equiv_pos_as_xyz
1 x,y,z
2 -x,1/2+y,-z
_cell_length_a                   13.324(6)
_cell_length_b                   14.643(6)
_cell_length_c                   12.305(2)
_cell_angle_alpha                90
_cell_angle_beta                 103.45(3)
_cell_angle_gamma                90
_cell_volume                     2334.9
_exptl_crystal_colour            colorless
_exptl_crystal_description       plate
_cell_formula_units_Z            4
_exptl_crystal_recrystallization_method methanol/water
loop_
_atom_site_label
_atom_site_type_symbol
_atom_site_fract_x
_atom_site_fract_y
_atom_site_fract_z
O1 O 0.7117(5) 0.6116(4) 0.4438(4)
O2 O 0.6522(4) 0.6547(3) 0.7267(4)
O3 O 0.6499(3) 0.3270(3) 0.5205(3)
O4 O 0.4229(3) 0.3735(4) 0.4654(4)
O5 O 0.9640(4) 0.7139(4) 1.2538(4)
O6 O 0.6491(3) 0.4120(3) 0.8943(3)
O7 O 0.7768(3) 0.6814(3) 1.1130(4)
O8 O 0.7601(3) 0.3974(3) 0.7215(3)
O9 O 0.7581(3) 0.6733(3) 0.8914(3)
N1 N 0.8099(5) 0.6595(4) 0.6102(4)
N2 N 0.7816(4) 0.4793(4) 0.6709(4)
C1 C 0.8473(9) 0.7338(6) 0.5504(7)
C2 C 0.7422(5) 0.5997(5) 0.5448(6)
C3 C 0.7404(5) 0.6643(4) 0.7792(5)
C4 C 0.7105(4) 0.5158(4) 0.5958(4)
C5 C 0.8290(5) 0.6654(4) 0.7285(5)
C6 C 0.6051(4) 0.4792(5) 0.5486(4)
C7 C 0.9222(5) 0.6828(4) 0.7912(6)
C8 C 0.5967(4) 0.3815(5) 0.5850(4)
C9 C 0.9386(5) 0.6960(4) 0.9106(6)
C10 C 0.4849(4) 0.3477(5) 0.5709(5)
C11 C 1.0354(5) 0.7128(5) 0.9833(6)
C12 C 0.4363(5) 0.3843(6) 0.6585(6)
C13 C 1.0467(5) 0.7195(5) 1.0976(6)
C14 C 0.4888(5) 0.4215(5) 0.7528(5)
C15 C 0.9606(5) 0.7110(4) 1.1424(6)
C16 C 0.6014(5) 0.4344(4) 0.7818(4)
C17 C 0.8636(4) 0.6977(4) 1.0729(5)
C18 C 0.6533(4) 0.3759(4) 0.7082(4)
C19 C 0.8537(5) 0.6908(4) 0.9581(5)
C20 C 1.0643(6) 0.7109(7) 1.3280(7)
C21 C 0.7411(6) 0.7530(7) 1.1740(7)
H1 H 0.82150 0.79030 0.57010
H2 H 0.92060 0.73480 0.57030
H3 H 0.82430 0.72430 0.47230
H4 H 0.97920 0.68670 0.75720
H5 H 0.55600 0.51540 0.57400
H6 H 0.59130 0.48140 0.46940
H7 H 0.67030 0.27340 0.55930
H8 H 1.09440 0.71960 0.95300
H9 H 0.43460 0.33330 0.41160
H10 H 0.48580 0.28290 0.57580
H11 H 0.36340 0.38080 0.64650
H12 H 1.11280 0.72980 1.14520
H13 H 0.45110 0.44170 0.80510
H14 H 0.65370 0.44640 0.95560
H15 H 0.61560 0.49670 0.76960
H16 H 0.64940 0.31430 0.73100
H17 H 1.05890 0.68650 1.39770
H18 H 1.10850 0.67400 1.29630
H19 H 1.09140 0.77130 1.33860
H20 H 0.67780 0.73540 1.19040
H21 H 0.73140 0.80710 1.13030
H22 H 0.79110 0.76370 1.24160
O10 O 0.7785(4) 0.0504(3) 0.4455(4)
O11 O 0.6971(3) -0.0022(3) 0.1278(4)
O12 O 0.7114(3) 0.3338(3) 0.3250(3)
O13 O 0.4834(3) 0.2944(3) 0.2849(3)
O14 O 0.9937(3) -0.0271(4) -0.2605(3)
O15 O 0.6931(3) 0.2408(3) -0.0481(3)
O16 O 0.8112(3) -0.0068(3) -0.2046(3)
O17 O 0.8116(3) 0.2579(3) 0.1814(3)
O18 O 0.7988(3) -0.0117(3) 0.0108(3)
N3 N 0.8624(4) -0.0025(4) 0.3196(4)
N4 N 0.8350(4) 0.1778(3) 0.2433(4)
C22 C 0.9123(7) -0.0738(6) 0.3979(6)
C23 C 0.8001(5) 0.0596(5) 0.3551(5)
C24 C 0.7862(5) -0.0073(4) 0.1178(5)
C25 C 0.7638(4) 0.1418(4) 0.2849(4)
C26 C 0.8773(4) -0.0076(4) 0.2077(5)
C27 C 0.6593(4) 0.1784(4) 0.2809(4)
C28 C 0.9716(4) -0.0226(4) 0.1870(4)
C29 C 0.6530(4) 0.2775(4) 0.2431(4)
C30 C 0.9829(4) -0.0313(4) 0.0743(4)
C31 C 0.5420(4) 0.3121(4) 0.2034(5)
C32 C 1.0775(4) -0.0420(4) 0.0460(5)
C33 C 0.4886(5) 0.2779(6) 0.0905(5)
C34 C 1.0833(4) -0.0425(5) -0.0647(5)
C35 C 0.5356(5) 0.2393(5) 0.0207(5)
C36 C 0.9953(5) -0.0317(4) -0.1485(5)
C37 C 0.6515(5) 0.2232(4) 0.0477(5)
C38 C 0.8994(4) -0.0230(4) -0.1229(5)
C39 C 0.7042(4) 0.2818(4) 0.1445(4)
C40 C 0.8951(4) -0.0230(4) -0.0114(5)
C41 C 1.0897(6) -0.0245(7) -0.2921(6)
C42 C 0.7675(8) -0.0822(8) -0.2686(10)
H23 H 0.89040 -0.06850 0.46560
H24 H 0.89390 -0.13220 0.36580
H25 H 0.98520 -0.06660 0.41250
H26 H 1.03050 -0.02750 0.24760
H27 H 0.64540 0.17470 0.35310
H28 H 0.60940 0.14350 0.22970
H29 H 0.68400 0.33400 0.38710
H30 H 1.13850 -0.04870 0.10340
H31 H 0.41800 0.27470 0.24720
H32 H 0.54620 0.37680 0.19780
H33 H 0.41550 0.28490 0.06760
H34 H 1.14830 -0.05010 -0.08320
H35 H 0.49580 0.21990 -0.05020
H36 H 0.69570 0.18660 -0.08530
H37 H 0.66410 0.16110 0.06800
H38 H 0.70080 0.34340 0.11940
H39 H 1.07770 -0.01770 -0.37090
H40 H 1.12950 0.02510 -0.25620
H41 H 1.12600 -0.08020 -0.27050
H42 H 0.79660 -0.08830 -0.33150
H43 H 0.78060 -0.13600 -0.22420
H44 H 0.69480 -0.07370 -0.29300
O19 O 0.6548(6) 0.1479(5) -0.4308(5)
H45 H 0.64880 0.09640 -0.47780
H46 H 0.65520 0.13010 -0.36130
O20 O 0.6465(4) 0.1136(4) -0.2098(4)
H47 H 0.57730 0.10630 -0.24820
H48 H 0.67570 0.05620 -0.19490
O21 O 0.5628(5) 0.5672(5) 1.2336(5)
H49 H 0.61900 0.59270 1.28490
H50 H 0.57170 0.50280 1.23700
O22 O 0.6397(5) 0.5314(4) 1.0485(5)
H51 H 0.68270 0.58130 1.05070
H52 H 0.62820 0.52230 1.11940
loop_
_geom_bond_atom_site_label_1
_geom_bond_atom_site_label_2
_geom_bond_site_symmetry_1
_geom_bond_site_symmetry_2
O1 C2 1_555 1_555
O2 C3 1_555 1_555
O3 C8 1_555 1_555
O4 C10 1_555 1_555
O5 C15 1_555 1_555
O6 C16 1_555 1_555
O7 C17 1_555 1_555
O8 N2 1_555 1_555
O9 C3 1_555 1_555
N1 C1 1_555 1_555
N2 C4 1_555 1_555
C1 H1 1_555 1_555
C2 N1 1_555 1_555
C3 C5 1_555 1_555
C4 C2 1_555 1_555
C5 N1 1_555 1_555
C6 C4 1_555 1_555
C7 C5 1_555 1_555
C8 C6 1_555 1_555
C9 C7 1_555 1_555
C10 C8 1_555 1_555
C11 C9 1_555 1_555
C12 C10 1_555 1_555
C13 C11 1_555 1_555
C14 C12 1_555 1_555
C15 C13 1_555 1_555
C16 C14 1_555 1_555
C17 C15 1_555 1_555
C18 O8 1_555 1_555
C19 O9 1_555 1_555
C20 O5 1_555 1_555
C21 O7 1_555 1_555
O10 C23 1_555 1_555
O11 C24 1_555 1_555
O12 C29 1_555 1_555
O13 C31 1_555 1_555
O14 C36 1_555 1_555
O15 C37 1_555 1_555
O16 C38 1_555 1_555
O17 N4 1_555 1_555
O18 C24 1_555 1_555
N3 C22 1_555 1_555
N4 C25 1_555 1_555
C22 H23 1_555 1_555
C23 N3 1_555 1_555
C24 C26 1_555 1_555
C25 C23 1_555 1_555
C26 N3 1_555 1_555
C27 C25 1_555 1_555
C28 C26 1_555 1_555
C29 C27 1_555 1_555
C30 C28 1_555 1_555
C31 C29 1_555 1_555
C32 C30 1_555 1_555
C33 C31 1_555 1_555
C34 C32 1_555 1_555
C35 C33 1_555 1_555
C36 C34 1_555 1_555
C37 C35 1_555 1_555
C38 C36 1_555 1_555
C39 O17 1_555 1_555
C40 O18 1_555 1_555
C41 O14 1_555 1_555
C42 O16 1_555 1_555
O19 H45 1_555 1_555
O20 H47 1_555 1_555
O21 H49 1_555 1_555
O22 H51 1_555 1_555
H2 C1 1_555 1_555
H3 C1 1_555 1_555
H4 C7 1_555 1_555
H5 C6 1_555 1_555
H6 C6 1_555 1_555
H7 O3 1_555 1_555
H8 C11 1_555 1_555
H9 O4 1_555 1_555
H10 C10 1_555 1_555
H11 C12 1_555 1_555
H12 C13 1_555 1_555
H13 C14 1_555 1_555
H14 O6 1_555 1_555
H15 C16 1_555 1_555
H16 C18 1_555 1_555
H17 C20 1_555 1_555
H18 C20 1_555 1_555
H19 C20 1_555 1_555
H20 C21 1_555 1_555
H21 C21 1_555 1_555
H22 C21 1_555 1_555
H24 C22 1_555 1_555
H25 C22 1_555 1_555
H26 C28 1_555 1_555
H27 C27 1_555 1_555
H28 C27 1_555 1_555
H29 O12 1_555 1_555
H30 C32 1_555 1_555
H31 O13 1_555 1_555
H32 C31 1_555 1_555
H33 C33 1_555 1_555
H34 C34 1_555 1_555
H35 C35 1_555 1_555
H36 O15 1_555 1_555
H37 C37 1_555 1_555
H38 C39 1_555 1_555
H39 C41 1_555 1_555
H40 C41 1_555 1_555
H41 C41 1_555 1_555
H42 C42 1_555 1_555
H43 C42 1_555 1_555
H44 C42 1_555 1_555
H46 O19 1_555 1_555
H48 O20 1_555 1_555
H50 O21 1_555 1_555
H52 O22 1_555 1_555
C8 C18 1_555 1_555
C9 C19 1_555 1_555
C16 C18 1_555 1_555
C17 C19 1_555 1_555
C29 C39 1_555 1_555
C30 C40 1_555 1_555
C37 C39 1_555 1_555
C38 C40 1_555 1_555

#END
