
#######################################################################
#
#                 Cambridge Crystallographic Data Centre
#                                CCDC 
#
#######################################################################
#
# If this CIF has been generated from an entry in the Cambridge 
# Structural Database, then it will include bibliographic, chemical, 
# crystal, experimental, refinement or atomic coordinate data resulting 
# from the CCDC's data processing and validation procedures.
#
#######################################################################

data_JOBHIS
_chemical_name_common            SB-3CT
_chemical_formula_moiety         'C15 H14 O3 S2'
_chemical_name_systematic        2-(4-Phenoxybenzenesulfonylmethyl)thiirane
_chemical_properties_biological  
'potent and selective gelatinase inhibitor both in vitro and in vivo'
_symmetry_cell_setting           monoclinic
_symmetry_space_group_name_H-M   'P 21/c'
_symmetry_Int_Tables_number      14
_space_group_name_Hall           '-P 2ybc'
loop_
_symmetry_equiv_pos_site_id
_symmetry_equiv_pos_as_xyz
1 x,y,z
2 -x,1/2+y,1/2-z
3 -x,-y,-z
4 x,1/2-y,1/2+z
_cell_length_a                   5.40350(10)
_cell_length_b                   28.1118(6)
_cell_length_c                   9.3269(2)
_cell_angle_alpha                90
_cell_angle_beta                 95.7320(10)
_cell_angle_gamma                90
_cell_volume                     1409.69
_exptl_crystal_description       block
_cell_formula_units_Z            4
_exptl_crystal_recrystallization_method 'ethyl acetate/hexane'
loop_
_atom_site_label
_atom_site_type_symbol
_atom_site_fract_x
_atom_site_fract_y
_atom_site_fract_z
S1 S 0.81010(9) 0.444237(17) 0.87821(5)
S2 S 0.65494(11) 0.57244(2) 0.61309(6)
O1 O 0.5727(3) 0.28873(5) 0.46374(14)
O2 O 1.0718(3) 0.45435(5) 0.87674(17)
O3 O 0.7156(3) 0.43243(5) 1.01242(16)
C1 C 0.4185(4) 0.25088(7) 0.4959(2)
C2 C 0.5027(4) 0.21787(8) 0.5993(2)
H1 H 0.6590 0.2219 0.6542
C3 C 0.3550(5) 0.17865(8) 0.6214(2)
H2 H 0.4108 0.1555 0.6914
C4 C 0.1257(5) 0.17325(8) 0.5413(2)
H3 H 0.0248 0.1464 0.5567
C5 C 0.0445(4) 0.20684(9) 0.4393(2)
H4 H -0.1126 0.2030 0.3850
C6 C 0.1905(4) 0.24614(8) 0.4155(2)
H5 H 0.1351 0.2693 0.3453
C7 C 0.6213(4) 0.32372(7) 0.5653(2)
C8 C 0.4711(3) 0.33211(7) 0.6754(2)
H6 H 0.3305 0.3125 0.6852
C9 C 0.5283(3) 0.36926(7) 0.7706(2)
H7 H 0.4265 0.3755 0.8458
C10 C 0.7361(3) 0.39734(7) 0.7553(2)
C11 C 0.8853(4) 0.38903(7) 0.6446(2)
H8 H 1.0262 0.4085 0.6349
C12 C 0.8274(4) 0.35236(7) 0.5491(2)
H9 H 0.9274 0.3466 0.4726
C13 C 0.6423(10) 0.49499(19) 0.8177(5)
H10 H 0.4618 0.4880 0.8077
H11 H 0.6740 0.5212 0.8882
C14 C 0.7244(6) 0.50990(10) 0.6717(3)
H12 H 0.7064 0.4852 0.5940
C15 C 0.9476(5) 0.54217(10) 0.6721(3)
H13 H 1.0628 0.5362 0.5979
H14 H 1.0317 0.5513 0.7672
C16? C 0.620(2) 0.4913(5) 0.7604(12)
H15? H 0.6030 0.4808 0.6586
H16? H 0.4515 0.4940 0.7923
C17? C 0.7422(14) 0.5376(3) 0.7714(8)
H17? H 0.7630 0.5539 0.8672
loop_
_geom_bond_atom_site_label_1
_geom_bond_atom_site_label_2
_geom_bond_site_symmetry_1
_geom_bond_site_symmetry_2
S1 O2 1_555 1_555
S2 C14 1_555 1_555
O1 C1 1_555 1_555
O3 S1 1_555 1_555
C1 C2 1_555 1_555
C2 H1 1_555 1_555
C3 C2 1_555 1_555
H2 C3 1_555 1_555
C4 C3 1_555 1_555
H3 C4 1_555 1_555
C5 C4 1_555 1_555
H4 C5 1_555 1_555
C6 C1 1_555 1_555
H5 C6 1_555 1_555
C7 O1 1_555 1_555
C8 C7 1_555 1_555
H6 C8 1_555 1_555
C9 C8 1_555 1_555
H7 C9 1_555 1_555
C10 S1 1_555 1_555
C11 C10 1_555 1_555
H8 C11 1_555 1_555
C12 C7 1_555 1_555
H9 C12 1_555 1_555
C13 S1 1_555 1_555
H10 C13 1_555 1_555
H11 C13 1_555 1_555
C14 C13 1_555 1_555
H12 C14 1_555 1_555
C15 S2 1_555 1_555
H13 C15 1_555 1_555
H14 C15 1_555 1_555
C5 C6 1_555 1_555
C9 C10 1_555 1_555
C11 C12 1_555 1_555
C14 C15 1_555 1_555

#END
