
#######################################################################
#
#                 Cambridge Crystallographic Data Centre
#                                CCDC 
#
#######################################################################
#
# If this CIF has been generated from an entry in the Cambridge 
# Structural Database, then it will include bibliographic, chemical, 
# crystal, experimental, refinement or atomic coordinate data resulting 
# from the CCDC's data processing and validation procedures.
#
#######################################################################

data_JOBNUJ
_chemical_formula_moiety         'C16 H10 Se4'
_chemical_name_systematic        
8,9-Dimethylanthra(1,9-c,d:4,10-c',d')diselenole
_symmetry_cell_setting           monoclinic
_symmetry_space_group_name_H-M   'P 21/c'
_symmetry_Int_Tables_number      14
_space_group_name_Hall           '-P 2ybc'
loop_
_symmetry_equiv_pos_site_id
_symmetry_equiv_pos_as_xyz
1 x,y,z
2 -x,1/2+y,1/2-z
3 -x,-y,-z
4 x,1/2-y,1/2+z
_cell_length_a                   7.509(1)
_cell_length_b                   22.028(2)
_cell_length_c                   9.471(1)
_cell_angle_alpha                90
_cell_angle_beta                 111.41(1)
_cell_angle_gamma                90
_cell_volume                     1458.48
_exptl_crystal_colour            black
_chemical_melting_point          'above 300deg.C'
_cell_formula_units_Z            4
loop_
_atom_site_label
_atom_site_type_symbol
_atom_site_fract_x
_atom_site_fract_y
_atom_site_fract_z
Se1 Se 0.9631(1) 0.56908(4) 0.37616(8)
Se2 Se 0.8528(1) 0.66880(4) 0.37238(9)
C1 C 0.7204(10) 0.66667(30) 0.15740(73)
C2 C 0.6347(10) 0.71671(33) 0.07959(80)
C3 C 0.5261(11) 0.71195(34) -0.08052(80)
C4 C 0.5118(10) 0.65717(31) -0.15092(71)
Se3 Se 0.3681(1) 0.64744(4) -0.36111(8)
Se4 Se 0.4635(1) 0.54619(4) -0.35679(8)
C5 C 0.6031(9) 0.54953(32) -0.14466(68)
C6 C 0.7020(9) 0.49733(28) -0.06581(71)
C7 C 0.6995(10) 0.44097(31) -0.13791(78)
C8 C 0.7989(10) 0.39156(31) -0.06003(83)
C9 C 0.9087(10) 0.39572(31) 0.09784(83)
C10 C 0.9148(10) 0.45112(31) 0.17160(78)
C11 C 0.8121(9) 0.50227(28) 0.09277(71)
C12 C 0.8148(9) 0.55829(30) 0.16622(69)
C13 C 0.7163(9) 0.60889(28) 0.08778(67)
C14 C 0.6086(9) 0.60378(29) -0.07197(69)
C15 C 0.7916(12) 0.33171(34) -0.1433(10)
C16 C 1.0208(12) 0.34212(33) 0.18615(99)
loop_
_geom_bond_atom_site_label_1
_geom_bond_atom_site_label_2
_geom_bond_site_symmetry_1
_geom_bond_site_symmetry_2
Se1 Se2 1_555 1_555
Se2 C1 1_555 1_555
C1 C2 1_555 1_555
C2 C3 1_555 1_555
C3 C4 1_555 1_555
C4 Se3 1_555 1_555
Se3 Se4 1_555 1_555
Se4 C5 1_555 1_555
C5 C6 1_555 1_555
C6 C7 1_555 1_555
C7 C8 1_555 1_555
C8 C9 1_555 1_555
C9 C10 1_555 1_555
C10 C11 1_555 1_555
C11 C6 1_555 1_555
C12 Se1 1_555 1_555
C13 C1 1_555 1_555
C14 C4 1_555 1_555
C15 C8 1_555 1_555
C16 C9 1_555 1_555
C5 C14 1_555 1_555
C11 C12 1_555 1_555
C12 C13 1_555 1_555
C13 C14 1_555 1_555

#END
