
#######################################################################
#
#                 Cambridge Crystallographic Data Centre
#                                CCDC 
#
#######################################################################
#
# If this CIF has been generated from an entry in the Cambridge 
# Structural Database, then it will include bibliographic, chemical, 
# crystal, experimental, refinement or atomic coordinate data resulting 
# from the CCDC's data processing and validation procedures.
#
#######################################################################

data_JOBQIC01
_chemical_formula_moiety         'C18 H24 O2'
_chemical_name_systematic        
1-cyclohexyl-6,7-dimethoxy-1,4-dihydronaphthalene
_symmetry_cell_setting           monoclinic
_symmetry_space_group_name_H-M   'P 21'
_symmetry_Int_Tables_number      4
_space_group_name_Hall           'P 2yb'
loop_
_symmetry_equiv_pos_site_id
_symmetry_equiv_pos_as_xyz
1 x,y,z
2 -x,1/2+y,-z
_cell_length_a                   9.0555(5)
_cell_length_b                   6.3985(3)
_cell_length_c                   13.9809(9)
_cell_angle_alpha                90
_cell_angle_beta                 104.282(6)
_cell_angle_gamma                90
_cell_volume                     785.039
_exptl_crystal_colour            colorless
_exptl_crystal_description       platelet
_cell_formula_units_Z            2
loop_
_atom_site_label
_atom_site_type_symbol
_atom_site_fract_x
_atom_site_fract_y
_atom_site_fract_z
O1 O 0.3242(2) 0.6601(3) 1.03853(13)
O2 O 0.1651(2) 0.9887(3) 0.97807(16)
C1 C 0.5403(5) 0.2548(6) 0.6525(3)
H1 H 0.5020 0.1220 0.6697
H2 H 0.4996 0.2771 0.5823
C2 C 0.7135(6) 0.2471(8) 0.6754(4)
H3 H 0.7537 0.2109 0.7443
H4 H 0.7446 0.1393 0.6356
C3 C 0.7782(7) 0.4522(8) 0.6549(5)
H5 H 0.7491 0.4791 0.5845
H6 H 0.8886 0.4455 0.6752
C4 C 0.7233(5) 0.6291(9) 0.7084(5)
H7 H 0.7610 0.7605 0.6892
H8 H 0.7639 0.6120 0.7789
C5 C 0.5487(4) 0.6359(6) 0.6851(3)
H9 H 0.5169 0.7467 0.7229
H10 H 0.5082 0.6662 0.6155
C6 C 0.4863(4) 0.4299(5) 0.7099(2)
H11 H 0.5333 0.4039 0.7799
C7 C 0.3117(3) 0.4329(5) 0.6988(2)
H12 H 0.2836 0.2935 0.7174
C8 C 0.2221(4) 0.4696(7) 0.5937(2)
H13 H 0.2255 0.3673 0.5471
C9 C 0.1392(4) 0.6387(8) 0.5640(2)
H14 H 0.0902 0.6495 0.4974
C10 C 0.1200(4) 0.8084(7) 0.6290(2)
H15 H 0.0125 0.8427 0.6158
H16 H 0.1728 0.9307 0.6133
C11 C 0.1775(3) 0.7620(4) 0.7369(2)
C12 C 0.2665(3) 0.5854(4) 0.76875(19)
C13 C 0.3143(3) 0.5493(4) 0.87089(19)
H17 H 0.3712 0.4302 0.8933
C14 C 0.2802(3) 0.6832(4) 0.93817(18)
C15 C 0.1908(3) 0.8610(4) 0.9053(2)
C16 C 0.1425(3) 0.8970(4) 0.8063(2)
H18 H 0.0845 1.0155 0.7844
C17 C 0.4187(4) 0.4880(6) 1.0748(2)
H19 H 0.4434 0.4888 1.1457
H20 H 0.5107 0.4973 1.0527
H21 H 0.3663 0.3607 1.0509
C18 C 0.0570(4) 1.1517(5) 0.9505(3)
H22 H 0.0474 1.2257 1.0084
H23 H -0.0399 1.0935 0.9176
H24 H 0.0903 1.2464 0.9068
loop_
_geom_bond_atom_site_label_1
_geom_bond_atom_site_label_2
_geom_bond_site_symmetry_1
_geom_bond_site_symmetry_2
O1 C14 1_555 1_555
O2 C15 1_555 1_555
C1 H1 1_555 1_555
H2 C1 1_555 1_555
C2 C1 1_555 1_555
H3 C2 1_555 1_555
H4 C2 1_555 1_555
C3 C2 1_555 1_555
H5 C3 1_555 1_555
H6 C3 1_555 1_555
C4 C3 1_555 1_555
H7 C4 1_555 1_555
H8 C4 1_555 1_555
C5 C4 1_555 1_555
H9 C5 1_555 1_555
H10 C5 1_555 1_555
C6 C1 1_555 1_555
H11 C6 1_555 1_555
C7 C6 1_555 1_555
H12 C7 1_555 1_555
C8 C7 1_555 1_555
H13 C8 1_555 1_555
C9 C8 1_555 1_555
H14 C9 1_555 1_555
C10 C9 1_555 1_555
H15 C10 1_555 1_555
H16 C10 1_555 1_555
C11 C10 1_555 1_555
C12 C7 1_555 1_555
C13 C12 1_555 1_555
H17 C13 1_555 1_555
C14 C13 1_555 1_555
C15 C14 1_555 1_555
C16 C11 1_555 1_555
H18 C16 1_555 1_555
C17 O1 1_555 1_555
H19 C17 1_555 1_555
H20 C17 1_555 1_555
H21 C17 1_555 1_555
C18 O2 1_555 1_555
H22 C18 1_555 1_555
H23 C18 1_555 1_555
H24 C18 1_555 1_555
C5 C6 1_555 1_555
C11 C12 1_555 1_555
C15 C16 1_555 1_555

#END
