
#######################################################################
#
#                 Cambridge Crystallographic Data Centre
#                                CCDC 
#
#######################################################################
#
# If this CIF has been generated from an entry in the Cambridge 
# Structural Database, then it will include bibliographic, chemical, 
# crystal, experimental, refinement or atomic coordinate data resulting 
# from the CCDC's data processing and validation procedures.
#
#######################################################################

data_JOBQIC
_chemical_formula_moiety         'C18 H24 O2'
_chemical_name_systematic        
1-cyclohexyl-6,7-dimethoxy-1,4-dihydronaphthalene
_symmetry_cell_setting           monoclinic
_symmetry_space_group_name_H-M   'P 21'
_symmetry_Int_Tables_number      4
_space_group_name_Hall           'P 2yb'
loop_
_symmetry_equiv_pos_site_id
_symmetry_equiv_pos_as_xyz
1 x,y,z
2 -x,1/2+y,-z
_cell_length_a                   9.0635(4)
_cell_length_b                   6.3973(3)
_cell_length_c                   13.9872(7)
_cell_angle_alpha                90
_cell_angle_beta                 104.241(5)
_cell_angle_gamma                90
_cell_volume                     786.082
_exptl_crystal_colour            colorless
_exptl_crystal_description       needle
_chemical_melting_point          '423 K'
_cell_formula_units_Z            2
_exptl_crystal_recrystallization_method hexane
loop_
_atom_site_label
_atom_site_type_symbol
_atom_site_fract_x
_atom_site_fract_y
_atom_site_fract_z
O1 O 0.67571(16) 0.5524(2) 0.46174(9)
O2 O 0.83494(17) 0.8807(2) 0.52180(12)
C1 C 0.2221(5) 0.3458(6) 0.8467(4)
H1 H 0.2527 0.3728 0.9170
H2 H 0.1118 0.3393 0.8273
C2 C 0.2869(5) 0.1400(6) 0.8249(3)
H3 H 0.2463 0.1053 0.7559
H4 H 0.2559 0.0314 0.8642
C3 C 0.4597(4) 0.1463(4) 0.8472(2)
H5 H 0.4972 0.0133 0.8296
H6 H 0.5010 0.1678 0.9173
C4 C 0.5140(3) 0.3217(3) 0.78985(15)
H7 H 0.4671 0.2958 0.7199
C5 C 0.4514(3) 0.5281(4) 0.8149(2)
H8 H 0.4832 0.6389 0.7771
H9 H 0.4921 0.5582 0.8843
C6 C 0.2766(4) 0.5223(6) 0.7919(3)
H10 H 0.2393 0.6543 0.8107
H11 H 0.2357 0.5039 0.7215
C7 C 0.6876(3) 0.3242(3) 0.80090(15)
H12 H 0.7156 0.1848 0.7823
C8 C 0.7775(3) 0.3614(5) 0.90618(18)
H13 H 0.7745 0.2588 0.9528
C9 C 0.8597(3) 0.5300(6) 0.93588(19)
H14 H 0.9077 0.5409 1.0026
C10 C 0.8806(3) 0.7015(5) 0.87079(18)
H15 H 0.9882 0.7343 0.8837
H16 H 0.8287 0.8247 0.8865
C11 C 0.8579(2) 0.7884(3) 0.69386(17)
H17 H 0.9169 0.9059 0.7159
C12 C 0.8086(2) 0.7530(3) 0.59475(15)
C13 C 0.72044(19) 0.5754(3) 0.56185(13)
C14 C 0.6851(2) 0.4408(3) 0.62918(14)
H18 H 0.6274 0.3224 0.6068
C15 C 0.7338(2) 0.4775(3) 0.73125(14)
C16 C 0.8218(2) 0.6528(3) 0.76285(14)
C17 C 0.5812(3) 0.3808(4) 0.42523(17)
H19 H 0.5560 0.3826 0.3544
H20 H 0.4896 0.3895 0.4478
H21 H 0.6336 0.2532 0.4485
C18 C 0.9424(3) 1.0441(4) 0.5498(2)
H22 H 0.9578 1.1121 0.4919
H23 H 1.0373 0.9872 0.5870
H24 H 0.9051 1.1436 0.5896
loop_
_geom_bond_atom_site_label_1
_geom_bond_atom_site_label_2
_geom_bond_site_symmetry_1
_geom_bond_site_symmetry_2
O1 C13 1_555 1_555
O2 C12 1_555 1_555
C1 H1 1_555 1_555
H2 C1 1_555 1_555
C2 C1 1_555 1_555
H3 C2 1_555 1_555
H4 C2 1_555 1_555
C3 C2 1_555 1_555
H5 C3 1_555 1_555
H6 C3 1_555 1_555
C4 C3 1_555 1_555
H7 C4 1_555 1_555
C5 C4 1_555 1_555
H8 C5 1_555 1_555
H9 C5 1_555 1_555
C6 C1 1_555 1_555
H10 C6 1_555 1_555
H11 C6 1_555 1_555
C7 C4 1_555 1_555
H12 C7 1_555 1_555
C8 C7 1_555 1_555
H13 C8 1_555 1_555
C9 C8 1_555 1_555
H14 C9 1_555 1_555
C10 C9 1_555 1_555
H15 C10 1_555 1_555
H16 C10 1_555 1_555
C11 H17 1_555 1_555
C12 C11 1_555 1_555
C13 C12 1_555 1_555
C14 C13 1_555 1_555
H18 C14 1_555 1_555
C15 C7 1_555 1_555
C16 C10 1_555 1_555
C17 O1 1_555 1_555
H19 C17 1_555 1_555
H20 C17 1_555 1_555
H21 C17 1_555 1_555
C18 O2 1_555 1_555
H22 C18 1_555 1_555
H23 C18 1_555 1_555
H24 C18 1_555 1_555
C5 C6 1_555 1_555
C11 C16 1_555 1_555
C14 C15 1_555 1_555
C15 C16 1_555 1_555

#END
