
#######################################################################
#
#                 Cambridge Crystallographic Data Centre
#                                CCDC 
#
#######################################################################
#
# If this CIF has been generated from an entry in the Cambridge 
# Structural Database, then it will include bibliographic, chemical, 
# crystal, experimental, refinement or atomic coordinate data resulting 
# from the CCDC's data processing and validation procedures.
#
#######################################################################

data_JOBWUU
_chemical_compound_source        'Isolated from the seeds of Caesalpinia crista'
_chemical_name_common            1-deacetoxy-1-oxocaesalmin
_chemical_formula_moiety         'C24 H30 O7'
_chemical_name_systematic        
'4a-hydroxy-4,4,11b-trimethyl-7-methylene-1-oxo-1,2,3,4,4a,5,6,6a,7,11,11a,11b-dodecahydrophenanthro[3,2-b]furan-5,6-diyl diacetate'
_symmetry_cell_setting           orthorhombic
_symmetry_space_group_name_H-M   'P 21 21 21'
_symmetry_Int_Tables_number      19
_space_group_name_Hall           'P 2ac 2ab'
loop_
_symmetry_equiv_pos_site_id
_symmetry_equiv_pos_as_xyz
1 x,y,z
2 1/2-x,-y,1/2+z
3 -x,1/2+y,1/2-z
4 1/2+x,1/2-y,-z
_cell_length_a                   6.7744(1)
_cell_length_b                   17.2209(4)
_cell_length_c                   19.1592(5)
_cell_angle_alpha                90
_cell_angle_beta                 90
_cell_angle_gamma                90
_cell_volume                     2235.14
_exptl_crystal_colour            colorless
_exptl_crystal_description       block
_cell_formula_units_Z            4
_exptl_crystal_recrystallization_method methanol
loop_
_atom_site_label
_atom_site_type_symbol
_atom_site_fract_x
_atom_site_fract_y
_atom_site_fract_z
O1 O 0.6154(2) 0.74496(9) 0.53183(8)
O2 O 1.00500(18) 0.62367(8) 0.54535(7)
H1 H 1.0035 0.6603 0.5180
O3 O 1.0530(2) 0.45663(8) 0.55179(7)
O4 O 0.8847(3) 0.34413(10) 0.55089(12)
O5 O 0.9459(2) 0.45522(8) 0.69152(7)
O6 O 1.2768(3) 0.46401(12) 0.69992(11)
O7 O 0.3966(3) 0.73518(10) 0.77457(10)
C1 C 1.2248(5) 0.34629(16) 0.51680(16)
H2 H 1.2095 0.2916 0.5087
H3 H 1.3250 0.3545 0.5515
H4 H 1.2627 0.3714 0.4741
C2 C 1.0337(4) 0.37944(13) 0.54191(13)
C3 C 1.1107(5) 0.35621(16) 0.75089(14)
H5 H 1.2374 0.3313 0.7524
H6 H 1.0176 0.3228 0.7279
H7 H 1.0666 0.3665 0.7976
C4 C 1.1270(4) 0.43059(14) 0.71173(12)
C5 C 0.6091(3) 0.67845(13) 0.51015(11)
C6 C 0.5798(4) 0.66072(14) 0.43471(11)
H8 H 0.5468 0.7076 0.4092
H9 H 0.4736 0.6236 0.4287
C7 C 0.7740(3) 0.62687(14) 0.40805(11)
H10 H 0.8746 0.6669 0.4107
H11 H 0.7578 0.6134 0.3592
C8 C 0.8484(3) 0.55493(12) 0.44730(10)
C9 C 0.8484(3) 0.57154(11) 0.52880(10)
C10 C 0.8845(3) 0.50065(11) 0.57584(11)
H12 H 0.7671 0.4674 0.5758
C11 C 0.9308(3) 0.52595(11) 0.65015(10)
H13 H 1.0560 0.5544 0.6514
C12 C 0.7674(3) 0.57465(12) 0.68305(11)
H14 H 0.6597 0.5390 0.6949
C13 C 0.6799(3) 0.63698(12) 0.63335(10)
H15 H 0.7733 0.6804 0.6320
C14 C 0.6501(3) 0.60885(11) 0.55740(11)
C15 C 0.4861(3) 0.66772(15) 0.66522(12)
H16 H 0.4424 0.7135 0.6401
H17 H 0.3839 0.6284 0.6618
C16 C 0.5223(4) 0.68734(13) 0.73927(12)
C17 C 0.6726(4) 0.66413(12) 0.77927(12)
C18 C 0.8301(3) 0.61460(12) 0.75107(11)
C19 C 0.6410(5) 0.70010(16) 0.84602(14)
H18 H 0.7208 0.6954 0.8853
C20 C 0.4758(5) 0.74136(17) 0.84077(15)
H19 H 0.4211 0.7705 0.8768
C21 C 1.0046(4) 0.60919(15) 0.78090(12)
H20 H 1.0315 0.6373 0.8212
H21 H 1.1010 0.5773 0.7616
C22 C 0.7257(4) 0.48423(14) 0.42442(13)
H22 H 0.5886 0.4983 0.4227
H23 H 0.7438 0.4427 0.4573
H24 H 0.7680 0.4676 0.3790
C23 C 1.0596(3) 0.54143(16) 0.41966(12)
H25 H 1.0580 0.5410 0.3696
H26 H 1.1079 0.4925 0.4365
H27 H 1.1443 0.5824 0.4358
C24 C 0.4714(3) 0.55316(14) 0.55402(12)
H28 H 0.3513 0.5828 0.5540
H29 H 0.4731 0.5194 0.5939
H30 H 0.4786 0.5227 0.5121
loop_
_geom_bond_atom_site_label_1
_geom_bond_atom_site_label_2
_geom_bond_site_symmetry_1
_geom_bond_site_symmetry_2
O1 C5 1_555 1_555
O2 H1 1_555 1_555
O3 C2 1_555 1_555
O4 C2 1_555 1_555
O5 C4 1_555 1_555
O6 C4 1_555 1_555
O7 C16 1_555 1_555
C1 H2 1_555 1_555
H3 C1 1_555 1_555
H4 C1 1_555 1_555
C2 C1 1_555 1_555
C3 H5 1_555 1_555
H6 C3 1_555 1_555
H7 C3 1_555 1_555
C4 C3 1_555 1_555
C5 C6 1_555 1_555
C6 H8 1_555 1_555
H9 C6 1_555 1_555
C7 C6 1_555 1_555
H10 C7 1_555 1_555
H11 C7 1_555 1_555
C8 C7 1_555 1_555
C9 O2 1_555 1_555
C10 O3 1_555 1_555
H12 C10 1_555 1_555
C11 O5 1_555 1_555
H13 C11 1_555 1_555
C12 C11 1_555 1_555
H14 C12 1_555 1_555
C13 C12 1_555 1_555
H15 C13 1_555 1_555
C14 C5 1_555 1_555
C15 C13 1_555 1_555
H16 C15 1_555 1_555
H17 C15 1_555 1_555
C16 C15 1_555 1_555
C17 C16 1_555 1_555
C18 C12 1_555 1_555
C19 C17 1_555 1_555
H18 C19 1_555 1_555
C20 O7 1_555 1_555
H19 C20 1_555 1_555
C21 C18 1_555 1_555
H20 C21 1_555 1_555
H21 C21 1_555 1_555
C22 C8 1_555 1_555
H22 C22 1_555 1_555
H23 C22 1_555 1_555
H24 C22 1_555 1_555
C23 C8 1_555 1_555
H25 C23 1_555 1_555
H26 C23 1_555 1_555
H27 C23 1_555 1_555
C24 C14 1_555 1_555
H28 C24 1_555 1_555
H29 C24 1_555 1_555
H30 C24 1_555 1_555
C8 C9 1_555 1_555
C9 C10 1_555 1_555
C9 C14 1_555 1_555
C10 C11 1_555 1_555
C13 C14 1_555 1_555
C17 C18 1_555 1_555
C19 C20 1_555 1_555

#END
