
#######################################################################
#
#                 Cambridge Crystallographic Data Centre
#                                CCDC 
#
#######################################################################
#
# If this CIF has been generated from an entry in the Cambridge 
# Structural Database, then it will include bibliographic, chemical, 
# crystal, experimental, refinement or atomic coordinate data resulting 
# from the CCDC's data processing and validation procedures.
#
#######################################################################

data_JOCLOE
_chemical_compound_source        'Capparis spinosa'
_chemical_name_common            
'N-(30-maleimidy1)-5-hydroxymethyl-2-pyrrole formaldehyde'
_chemical_formula_moiety         'C10 H10 N2 O4'
_chemical_name_systematic        
1-(2,5-dioxopyrrolidin-3-yl)-5-(hydroxymethyl)-1H-pyrrole-2-carbaldehyde
_symmetry_cell_setting           monoclinic
_symmetry_space_group_name_H-M   'P 21/c'
_symmetry_Int_Tables_number      14
_space_group_name_Hall           '-P 2ybc'
loop_
_symmetry_equiv_pos_site_id
_symmetry_equiv_pos_as_xyz
1 x,y,z
2 -x,1/2+y,1/2-z
3 -x,-y,-z
4 x,1/2-y,1/2+z
_cell_length_a                   10.4339(10)
_cell_length_b                   12.1926(12)
_cell_length_c                   7.7228(7)
_cell_angle_alpha                90
_cell_angle_beta                 90.031(2)
_cell_angle_gamma                90
_cell_volume                     982.466
_exptl_crystal_colour            colorless
_exptl_crystal_description       prismatic
_cell_formula_units_Z            4
_exptl_crystal_recrystallization_method methanol
loop_
_atom_site_label
_atom_site_type_symbol
_atom_site_fract_x
_atom_site_fract_y
_atom_site_fract_z
N1 N 0.11513(12) 0.12535(10) 0.08746(15)
N2 N 0.29913(11) -0.05600(10) 0.34841(15)
O1 O 0.07341(11) 0.28030(8) 0.24604(12)
O2 O 0.19011(11) -0.04196(9) -0.00448(13)
O3 O 0.39536(13) 0.11870(12) 0.12164(17)
O4 O 0.12106(12) -0.08662(10) 0.64636(15)
C1 C 0.11527(13) 0.18778(12) 0.23529(16)
C2 C 0.17851(15) 0.12251(12) 0.37633(17)
H1 H 0.1273 0.1234 0.4812
H2 H 0.2631 0.1512 0.4022
C3 C 0.18703(13) 0.00753(12) 0.30224(16)
H3 H 0.1121 -0.0330 0.3442
C4 C 0.16907(14) 0.02381(12) 0.10788(17)
C5 C 0.29825(16) -0.14157(12) 0.46253(19)
C6 C 0.41971(19) -0.18401(15) 0.4712(2)
H4 H 0.4458 -0.2434 0.5380
C7 C 0.49661(17) -0.12220(17) 0.3622(2)
H5 H 0.5836 -0.1334 0.3427
C8 C 0.42266(15) -0.04154(14) 0.2877(2)
C9 C 0.46339(17) 0.04695(17) 0.1798(2)
H6 H 0.5500 0.0498 0.1516
C10 C 0.18036(18) -0.17519(13) 0.5578(2)
H7 H 0.1197 -0.2064 0.4763
H8 H 0.2025 -0.2318 0.6409
H9 H 0.091(2) 0.1522(16) -0.002(3)
H10 H 0.163(2) -0.0730(19) 0.739(3)
loop_
_geom_bond_atom_site_label_1
_geom_bond_atom_site_label_2
_geom_bond_site_symmetry_1
_geom_bond_site_symmetry_2
N1 C1 1_555 1_555
N2 C3 1_555 1_555
O1 C1 1_555 1_555
O2 C4 1_555 1_555
O3 C9 1_555 1_555
O4 C10 1_555 1_555
C1 C2 1_555 1_555
C2 H1 1_555 1_555
H2 C2 1_555 1_555
C3 C2 1_555 1_555
H3 C3 1_555 1_555
C4 N1 1_555 1_555
C5 N2 1_555 1_555
C6 C5 1_555 1_555
H4 C6 1_555 1_555
C7 C6 1_555 1_555
H5 C7 1_555 1_555
C8 N2 1_555 1_555
C9 C8 1_555 1_555
H6 C9 1_555 1_555
C10 C5 1_555 1_555
H7 C10 1_555 1_555
H8 C10 1_555 1_555
H9 N1 1_555 1_555
H10 O4 1_555 1_555
C3 C4 1_555 1_555
C7 C8 1_555 1_555

#END
