
#######################################################################
#
#                 Cambridge Crystallographic Data Centre
#                                CCDC 
#
#######################################################################
#
# If this CIF has been generated from an entry in the Cambridge 
# Structural Database, then it will include bibliographic, chemical, 
# crystal, experimental, refinement or atomic coordinate data resulting 
# from the CCDC's data processing and validation procedures.
#
#######################################################################

data_JOCMOF
_chemical_formula_moiety         'C27 H18 O8'
_chemical_name_systematic        
3,3'-(3-(2-hydroxyphenyl)-3-oxopropane-1,1-diyl)bis(4-hydroxy-2H-chromen-2-one)
_symmetry_cell_setting           monoclinic
_symmetry_space_group_name_H-M   'P 21/n'
_symmetry_Int_Tables_number      14
_space_group_name_Hall           '-P 2yn'
loop_
_symmetry_equiv_pos_site_id
_symmetry_equiv_pos_as_xyz
1 x,y,z
2 1/2-x,1/2+y,1/2-z
3 -x,-y,-z
4 1/2+x,1/2-y,1/2+z
_cell_length_a                   11.1193(13)
_cell_length_b                   14.1801(16)
_cell_length_c                   14.4024(14)
_cell_angle_alpha                90
_cell_angle_beta                 112.559(7)
_cell_angle_gamma                90
_cell_volume                     2097.11
_exptl_crystal_colour            colorless
_exptl_crystal_description       block
_cell_formula_units_Z            4
loop_
_atom_site_label
_atom_site_type_symbol
_atom_site_fract_x
_atom_site_fract_y
_atom_site_fract_z
C1 C 0.8245(4) 0.4693(3) 0.2418(3)
H1 H 0.8046 0.4260 0.1829
C2 C 0.8063(4) 0.4079(3) 0.3230(3)
H2 H 0.8844 0.3679 0.3550
H3 H 0.7971 0.4489 0.3756
C3 C 0.6870(4) 0.3458(3) 0.2787(3)
C4 C 0.6392(4) 0.2936(3) 0.3452(3)
C5 C 0.7114(4) 0.2880(3) 0.4493(3)
H4 H 0.7960 0.3150 0.4770
C6 C 0.6609(5) 0.2440(3) 0.5118(3)
H5 H 0.7109 0.2400 0.5819
C7 C 0.5378(5) 0.2058(3) 0.4721(4)
H6 H 0.5029 0.1766 0.5157
C8 C 0.4645(5) 0.2091(3) 0.3709(4)
H7 H 0.3791 0.1834 0.3449
C9 C 0.5158(4) 0.2502(3) 0.3062(3)
C10 C 0.6694(4) 0.5558(3) 0.0894(4)
C11 C 0.7261(4) 0.5485(3) 0.2028(3)
C12 C 0.6862(5) 0.6098(3) 0.2557(3)
C13 C 0.5726(4) 0.6704(3) 0.2064(4)
C14 C 0.5158(5) 0.6659(3) 0.1026(4)
C15 C 0.4034(5) 0.7160(4) 0.0491(4)
H8 H 0.3668 0.7141 -0.0223
C16 C 0.3466(5) 0.7678(4) 0.1003(4)
H9 H 0.2693 0.8020 0.0640
C17 C 0.3983(5) 0.7717(4) 0.2032(4)
H10 H 0.3561 0.8075 0.2376
C18 C 0.5116(5) 0.7238(4) 0.2569(4)
H11 H 0.5481 0.7273 0.3283
C19 C 1.0373(5) 0.5405(3) 0.3687(4)
C20 C 0.9642(4) 0.4990(3) 0.2669(3)
C21 C 1.0245(5) 0.4889(3) 0.2033(4)
C22 C 1.1672(4) 0.4990(3) 0.2372(4)
C23 C 1.2315(5) 0.5236(3) 0.3367(4)
C24 C 1.3665(5) 0.5305(4) 0.3797(4)
H12 H 1.4107 0.5492 0.4477
C25 C 1.4342(5) 0.5088(4) 0.3188(5)
H13 H 1.5267 0.5105 0.3465
C26 C 1.3699(6) 0.4850(4) 0.2197(5)
H14 H 1.4179 0.4712 0.1792
C27 C 1.2390(6) 0.4811(3) 0.1795(4)
H15 H 1.1954 0.4658 0.1104
O1 O 0.6287(3) 0.3421(3) 0.1868(2)
O2 O 0.4424(3) 0.2471(3) 0.2064(2)
H16 H 0.497(5) 0.276(4) 0.178(4)
O3 O 0.7144(3) 0.5150(3) 0.0365(2)
O4 O 0.5690(3) 0.6141(3) 0.0462(2)
O5 O 0.7406(3) 0.6183(2) 0.3544(2)
H17 H 0.828(2) 0.598(4) 0.395(4)
O6 O 0.9870(3) 0.5721(3) 0.4236(2)
O7 O 1.1675(3) 0.5468(2) 0.4001(2)
O8 O 0.9640(3) 0.4634(2) 0.1093(2)
H18 H 0.8723(15) 0.470(4) 0.071(4)
loop_
_geom_bond_atom_site_label_1
_geom_bond_atom_site_label_2
_geom_bond_site_symmetry_1
_geom_bond_site_symmetry_2
C1 H1 1_555 1_555
C2 C1 1_555 1_555
H2 C2 1_555 1_555
H3 C2 1_555 1_555
C3 C2 1_555 1_555
C4 C3 1_555 1_555
C5 C4 1_555 1_555
H4 C5 1_555 1_555
C6 C5 1_555 1_555
H5 C6 1_555 1_555
C7 C6 1_555 1_555
H6 C7 1_555 1_555
C8 C7 1_555 1_555
H7 C8 1_555 1_555
C9 C4 1_555 1_555
C10 C11 1_555 1_555
C11 C1 1_555 1_555
C12 C11 1_555 1_555
C13 C12 1_555 1_555
C14 C13 1_555 1_555
C15 C14 1_555 1_555
H8 C15 1_555 1_555
C16 C15 1_555 1_555
H9 C16 1_555 1_555
C17 C16 1_555 1_555
H10 C17 1_555 1_555
C18 C13 1_555 1_555
H11 C18 1_555 1_555
C19 C20 1_555 1_555
C20 C1 1_555 1_555
C21 C20 1_555 1_555
C22 C21 1_555 1_555
C23 C22 1_555 1_555
C24 C23 1_555 1_555
H12 C24 1_555 1_555
C25 C24 1_555 1_555
H13 C25 1_555 1_555
C26 C25 1_555 1_555
H14 C26 1_555 1_555
C27 C22 1_555 1_555
H15 C27 1_555 1_555
O1 C3 1_555 1_555
O2 C9 1_555 1_555
H16 O2 1_555 1_555
O3 C10 1_555 1_555
O4 C10 1_555 1_555
O5 C12 1_555 1_555
H17 O5 1_555 1_555
O6 C19 1_555 1_555
O7 C19 1_555 1_555
O8 C21 1_555 1_555
H18 O8 1_555 1_555
C8 C9 1_555 1_555
C14 O4 1_555 1_555
C17 C18 1_555 1_555
C23 O7 1_555 1_555
C26 C27 1_555 1_555

#END
