
#######################################################################
#
#                 Cambridge Crystallographic Data Centre
#                                CCDC 
#
#######################################################################
#
# If this CIF has been generated from an entry in the Cambridge 
# Structural Database, then it will include bibliographic, chemical, 
# crystal, experimental, refinement or atomic coordinate data resulting 
# from the CCDC's data processing and validation procedures.
#
#######################################################################

data_JOCNAS
_chemical_formula_moiety         'C22 H17 N3 O1 S1'
_chemical_name_systematic        
2-(5-(2-naphthyl)-3-phenyl-4,5-dihydro-1H-pyrazol-1-yl)-1,3-thiazol-4(5H)-one
_symmetry_cell_setting           monoclinic
_symmetry_space_group_name_H-M   'P 21/n'
_symmetry_Int_Tables_number      14
_space_group_name_Hall           '-P 2yn'
loop_
_symmetry_equiv_pos_site_id
_symmetry_equiv_pos_as_xyz
1 x,y,z
2 1/2-x,1/2+y,1/2-z
3 -x,-y,-z
4 1/2+x,1/2-y,1/2+z
_cell_length_a                   11.9624(8)
_cell_length_b                   8.9920(6)
_cell_length_c                   18.2136(13)
_cell_angle_alpha                90
_cell_angle_beta                 109.171(2)
_cell_angle_gamma                90
_cell_volume                     1850.51
_cell_formula_units_Z            4
loop_
_atom_site_label
_atom_site_type_symbol
_atom_site_fract_x
_atom_site_fract_y
_atom_site_fract_z
S1 S 0.41661(9) 0.38998(12) 0.16585(6)
N1 N 0.5868(3) 0.5554(4) 0.26137(18)
N2 N 0.6163(3) 0.4835(4) 0.14747(17)
N3 N 0.5126(3) 0.5600(4) 0.30614(18)
O1 O 0.6026(3) 0.3814(3) 0.02969(16)
C1 C 0.5518(3) 0.4835(4) 0.1930(2)
C2 C 0.5614(3) 0.4006(4) 0.0812(2)
C3 C 0.8813(3) 0.5830(4) 0.2693(2)
C4 C 0.6920(3) 0.6549(5) 0.2902(2)
C5 C 0.9864(3) 0.4988(4) 0.2865(2)
C6 C 0.9372(4) 0.3812(5) 0.3921(3)
C7 C 0.4994(3) 0.6832(5) 0.4191(2)
C8 C 0.8058(3) 0.5651(4) 0.3111(2)
C9 C 1.0143(3) 0.3968(4) 0.3489(2)
C10 C 0.6677(3) 0.7289(5) 0.3591(2)
C11 C 0.5562(3) 0.6542(4) 0.3608(2)
C12 C 0.8348(4) 0.4633(5) 0.3742(2)
C13 C 0.4449(4) 0.3307(5) 0.0792(2)
C14 C 1.0632(4) 0.5141(6) 0.2419(3)
C15 C 0.3950(4) 0.6111(5) 0.4164(3)
C16 C 1.1190(4) 0.3073(5) 0.3655(3)
C17 C 0.5509(5) 0.7866(6) 0.4786(3)
C18 C 0.3905(6) 0.7419(7) 0.5296(3)
C19 C 0.4951(6) 0.8147(7) 0.5329(3)
C20 C 1.1624(4) 0.4246(7) 0.2584(3)
C21 C 1.1897(4) 0.3208(7) 0.3201(4)
C22 C 0.3417(5) 0.6423(7) 0.4723(3)
loop_
_geom_bond_atom_site_label_1
_geom_bond_atom_site_label_2
_geom_bond_site_symmetry_1
_geom_bond_site_symmetry_2
S1 C1 1_555 1_555
N1 N3 1_555 1_555
N2 C1 1_555 1_555
N3 C11 1_555 1_555
O1 C2 1_555 1_555
C1 N1 1_555 1_555
C2 N2 1_555 1_555
C3 C5 1_555 1_555
C4 N1 1_555 1_555
C5 C9 1_555 1_555
C6 C9 1_555 1_555
C7 C11 1_555 1_555
C8 C3 1_555 1_555
C9 C16 1_555 1_555
C10 C4 1_555 1_555
C11 C10 1_555 1_555
C12 C6 1_555 1_555
C13 S1 1_555 1_555
C14 C5 1_555 1_555
C15 C7 1_555 1_555
C16 C21 1_555 1_555
C17 C7 1_555 1_555
C18 C19 1_555 1_555
C19 C17 1_555 1_555
C20 C14 1_555 1_555
C21 C20 1_555 1_555
C22 C15 1_555 1_555
C2 C13 1_555 1_555
C4 C8 1_555 1_555
C8 C12 1_555 1_555
C18 C22 1_555 1_555

#END
