
#######################################################################
#
#                 Cambridge Crystallographic Data Centre
#                                CCDC 
#
#######################################################################
#
# If this CIF has been generated from an entry in the Cambridge 
# Structural Database, then it will include bibliographic, chemical, 
# crystal, experimental, refinement or atomic coordinate data resulting 
# from the CCDC's data processing and validation procedures.
#
#######################################################################

data_JODDIR
_chemical_formula_moiety         'C28 H26 N4 O8,1.5(H2 O1)'
_chemical_name_systematic        
'4-((4-nitrophenyl)carbonohydrazonoyl)-5-(3,4,5-trimethoxyphenyl)-3,3a,4,5-tetrahydro[1,3]dioxolo[6,7]naphtho[1,2-c][1,2]oxazole sesquihydrate'
_symmetry_cell_setting           tetragonal
_symmetry_space_group_name_H-M   'P 41 21 2'
_symmetry_Int_Tables_number      92
_space_group_name_Hall           'P 4abw 2nw'
loop_
_symmetry_equiv_pos_site_id
_symmetry_equiv_pos_as_xyz
1 x,y,z
2 1/2-y,1/2+x,1/4+z
3 -x,-y,1/2+z
4 1/2+y,1/2-x,3/4+z
5 1/2+x,1/2-y,3/4-z
6 1/2-x,1/2+y,1/4-z
7 y,x,-z
8 -y,-x,1/2-z
_cell_length_a                   14.2401(6)
_cell_length_b                   14.2401(6)
_cell_length_c                   27.5478(14)
_cell_angle_alpha                90
_cell_angle_beta                 90
_cell_angle_gamma                90
_cell_volume                     5586.16
_exptl_crystal_colour            'light yellow'
_exptl_crystal_description       block
_cell_formula_units_Z            8
loop_
_atom_site_label
_atom_site_type_symbol
_atom_site_fract_x
_atom_site_fract_y
_atom_site_fract_z
O1 O -1.0192(3) -0.0914(3) -0.58125(16)
O2 O -0.5630(3) -0.0067(3) -0.54358(16)
O3 O -0.4919(3) -0.1545(3) -0.54153(12)
O4 O -0.7991(2) -0.5752(2) -0.42266(11)
O5 O -0.8560(2) -0.4545(2) -0.35568(10)
O6 O -0.8897(2) -0.2749(2) -0.37674(10)
O7 O -1.5106(3) -0.4425(3) -0.55137(15)
O8 O -1.4999(3) -0.5899(3) -0.5657(2)
N1 N -0.9256(4) -0.0679(3) -0.56925(17)
N2 N -1.0292(3) -0.4012(3) -0.57874(13)
N3 N -1.0762(3) -0.4853(3) -0.58390(13)
H1 H -1.0452 -0.5357 -0.5902
N4 N -1.4640(3) -0.5126(4) -0.56106(17)
C1 C -0.8790(4) -0.1441(3) -0.56021(17)
C2 C -0.7787(3) -0.1476(3) -0.55217(15)
C3 C -0.7227(4) -0.0658(3) -0.55063(16)
H2 H -0.7497 -0.0064 -0.5526
C4 C -0.6302(4) -0.0763(4) -0.54626(17)
C5 C -0.4757(5) -0.0546(5) -0.5417(2)
H3 H -0.4418 -0.0366 -0.5126
H4 H -0.4379 -0.0377 -0.5697
C6 C -0.5871(4) -0.1637(4) -0.54374(15)
C7 C -0.6388(4) -0.2450(3) -0.54471(15)
H5 H -0.6101 -0.3035 -0.5427
C8 C -0.7367(3) -0.2365(3) -0.54879(14)
C9 C -0.7948(3) -0.3261(3) -0.54909(13)
H6 H -0.7565 -0.3746 -0.5647
C10 C -0.8848(3) -0.3149(3) -0.58022(15)
H7 H -0.8640 -0.3004 -0.6133
C11 C -0.9401(3) -0.2308(3) -0.56285(17)
H8 H -0.9649 -0.2441 -0.5304
C12 C -1.0193(4) -0.1901(4) -0.5943(2)
H9 H -1.0062 -0.1986 -0.6285
H10 H -1.0791 -0.2192 -0.5866
C13 C -0.8142(3) -0.3600(3) -0.49691(14)
C14 C -0.7991(3) -0.4542(3) -0.48580(15)
H11 H -0.7804 -0.4963 -0.5097
C15 C -0.8126(3) -0.4844(3) -0.43807(15)
C16 C -0.8415(3) -0.4223(3) -0.40250(14)
C17 C -0.8575(3) -0.3286(3) -0.41406(14)
C18 C -0.8423(3) -0.2983(3) -0.46112(13)
H12 H -0.8511 -0.2353 -0.4688
C19 C -0.7724(5) -0.6433(4) -0.4581(2)
H13 H -0.8180 -0.6443 -0.4838
H14 H -0.7693 -0.7042 -0.4432
H15 H -0.7120 -0.6273 -0.4712
C20 C -0.7743(4) -0.4488(4) -0.32490(18)
H16 H -0.7262 -0.4895 -0.3372
H17 H -0.7908 -0.4676 -0.2925
H18 H -0.7516 -0.3853 -0.3244
C21 C -0.9160(5) -0.1809(4) -0.3869(2)
H19 H -0.9633 -0.1804 -0.4117
H20 H -0.8620 -0.1465 -0.3979
H21 H -0.9403 -0.1522 -0.3580
C22 C -0.9404(4) -0.4033(3) -0.58323(14)
H22 H -0.9100 -0.4603 -0.5884
C23 C -1.1705(4) -0.4890(3) -0.57909(15)
C24 C -1.2253(4) -0.4109(3) -0.56814(18)
H23 H -1.1968 -0.3525 -0.5649
C25 C -1.3204(4) -0.4185(4) -0.56208(18)
H24 H -1.3564 -0.3661 -0.5543
C26 C -1.3617(4) -0.5051(3) -0.56770(17)
C27 C -1.3115(4) -0.5840(3) -0.57877(17)
H25 H -1.3410 -0.6419 -0.5822
C28 C -1.2163(4) -0.5750(3) -0.58468(17)
H26 H -1.1812 -0.6278 -0.5927
O9 O -0.3988(5) -0.6012(5) -0.7500
H27 H -0.4062 -0.5542 -0.7697
H27G H -0.4458 -0.5938 -0.7303
O10 O -0.1478(7) -0.2373(9) -0.4682(4)
H28 H -0.1491 -0.2163 -0.4393
H29 H -0.1058 -0.2795 -0.4705
H30? H -0.9031 -0.0119 -0.5681
loop_
_geom_bond_atom_site_label_1
_geom_bond_atom_site_label_2
_geom_bond_site_symmetry_1
_geom_bond_site_symmetry_2
O1 N1 1_555 1_555
O2 C4 1_555 1_555
O3 C5 1_555 1_555
O4 C15 1_555 1_555
O5 C16 1_555 1_555
O6 C17 1_555 1_555
O7 N4 1_555 1_555
O8 N4 1_555 1_555
N1 C1 1_555 1_555
N2 N3 1_555 1_555
N3 H1 1_555 1_555
N4 C26 1_555 1_555
C1 C2 1_555 1_555
C2 C3 1_555 1_555
C3 H2 1_555 1_555
C4 C3 1_555 1_555
C5 O2 1_555 1_555
H3 C5 1_555 1_555
H4 C5 1_555 1_555
C6 O3 1_555 1_555
C7 C6 1_555 1_555
H5 C7 1_555 1_555
C8 C2 1_555 1_555
C9 C8 1_555 1_555
H6 C9 1_555 1_555
C10 C9 1_555 1_555
H7 C10 1_555 1_555
C11 C1 1_555 1_555
H8 C11 1_555 1_555
C12 O1 1_555 1_555
H9 C12 1_555 1_555
H10 C12 1_555 1_555
C13 C9 1_555 1_555
C14 C13 1_555 1_555
H11 C14 1_555 1_555
C15 C14 1_555 1_555
C16 C15 1_555 1_555
C17 C16 1_555 1_555
C18 C13 1_555 1_555
H12 C18 1_555 1_555
C19 O4 1_555 1_555
H13 C19 1_555 1_555
H14 C19 1_555 1_555
H15 C19 1_555 1_555
C20 O5 1_555 1_555
H16 C20 1_555 1_555
H17 C20 1_555 1_555
H18 C20 1_555 1_555
C21 O6 1_555 1_555
H19 C21 1_555 1_555
H20 C21 1_555 1_555
H21 C21 1_555 1_555
C22 N2 1_555 1_555
H22 C22 1_555 1_555
C23 N3 1_555 1_555
C24 C23 1_555 1_555
H23 C24 1_555 1_555
C25 C24 1_555 1_555
H24 C25 1_555 1_555
C26 C25 1_555 1_555
C27 C26 1_555 1_555
H25 C27 1_555 1_555
C28 C23 1_555 1_555
H26 C28 1_555 1_555
O9 H27 1_555 1_555
O10 H28 1_555 1_555
H29 O10 1_555 1_555
H27G O9 1_555 1_555
C4 C6 1_555 1_555
C7 C8 1_555 1_555
C10 C11 1_555 1_555
C10 C22 1_555 1_555
C11 C12 1_555 1_555
C17 C18 1_555 1_555
C27 C28 1_555 1_555

#END
