
#######################################################################
#
#                 Cambridge Crystallographic Data Centre
#                                CCDC 
#
#######################################################################
#
# If this CIF has been generated from an entry in the Cambridge 
# Structural Database, then it will include bibliographic, chemical, 
# crystal, experimental, refinement or atomic coordinate data resulting 
# from the CCDC's data processing and validation procedures.
#
#######################################################################

data_JODHOB
_chemical_formula_moiety         'C10 H13 Cl2 N1 O1'
_chemical_name_systematic        
1-(2,5-dichloro-1-methyl-1H-pyrrol-3-yl)-2,2-dimethylpropan-1-one
_symmetry_cell_setting           monoclinic
_symmetry_space_group_name_H-M   'P c'
_symmetry_Int_Tables_number      7
_space_group_name_Hall           'P -2yc'
loop_
_symmetry_equiv_pos_site_id
_symmetry_equiv_pos_as_xyz
1 x,y,z
2 x,-y,1/2+z
_cell_length_a                   9.4966(7)
_cell_length_b                   10.2364(9)
_cell_length_c                   12.0587(11)
_cell_angle_alpha                90
_cell_angle_beta                 104.097(3)
_cell_angle_gamma                90
_cell_volume                     1136.94
_exptl_crystal_colour            colorless
_exptl_crystal_description       block
_cell_formula_units_Z            4
loop_
_atom_site_label
_atom_site_type_symbol
_atom_site_fract_x
_atom_site_fract_y
_atom_site_fract_z
Cl1 Cl 0.46150(7) 0.89261(7) -0.01780(6)
Cl2 Cl 0.40632(6) 0.77518(6) 0.40009(5)
O1 O 0.5423(2) 0.51301(17) 0.39929(15)
N1 N 0.4269(2) 0.8437(2) 0.19204(17)
C1 C 0.3560(3) 0.9702(2) 0.1973(2)
H1 H 0.2905 0.9635 0.2486
H2 H 0.3003 0.9948 0.1206
H3 H 0.4299 1.0369 0.2264
C2 C 0.4787(3) 0.7993(2) 0.1023(2)
C3 C 0.5398(3) 0.6795(2) 0.1271(2)
H4 H 0.5827 0.6276 0.0788
C4 C 0.5274(2) 0.6460(2) 0.23937(19)
C5 C 0.4565(2) 0.7503(2) 0.2749(2)
C6 C 0.5799(3) 0.5299(2) 0.31008(19)
C7 C 0.6807(3) 0.4302(2) 0.2729(2)
C8 C 0.7340(3) 0.3347(3) 0.3716(2)
H5 H 0.8003 0.2712 0.3505
H6 H 0.6508 0.2886 0.3879
H7 H 0.7851 0.3829 0.4398
C9 C 0.5938(3) 0.3548(2) 0.1688(2)
H8 H 0.6551 0.2864 0.1482
H9 H 0.5623 0.4149 0.1043
H10 H 0.5086 0.3148 0.1873
C10 C 0.8123(3) 0.4971(3) 0.2459(3)
H11 H 0.8746 0.4313 0.2229
H12 H 0.8672 0.5432 0.3140
H13 H 0.7795 0.5597 0.1834
Cl3 Cl 1.19870(7) 0.32288(6) 0.21178(5)
Cl4 Cl 1.09482(6) 0.31430(6) 0.62732(5)
O2 O 0.98498(19) 0.03981(17) 0.60050(14)
N2 N 1.1544(2) 0.33003(17) 0.4236(2)
C11 C 1.2150(3) 0.4614(2) 0.4461(2)
H14 H 1.2643 0.4694 0.5272
H15 H 1.1366 0.5258 0.4265
H16 H 1.2848 0.4769 0.3996
C12 C 1.1379(2) 0.2601(2) 0.3236(2)
C13 C 1.0737(2) 0.1435(2) 0.3317(2)
H17 H 1.0501 0.0785 0.2739
C14 C 1.0483(2) 0.1367(2) 0.4439(2)
C15 C 1.1003(2) 0.2539(2) 0.4968(2)
C16 C 0.9790(2) 0.0338(2) 0.4978(2)
C17 C 0.9025(2) -0.0824(2) 0.42747(19)
C18 C 1.0171(3) -0.1664(2) 0.3916(2)
H18 H 1.0912 -0.1928 0.4596
H19 H 1.0627 -0.1158 0.3407
H20 H 0.9709 -0.2443 0.3513
C19 C 0.8268(3) -0.1644(3) 0.5025(2)
H21 H 0.8989 -0.1953 0.5700
H22 H 0.7789 -0.2396 0.4586
H23 H 0.7542 -0.1108 0.5267
C20 C 0.7869(3) -0.0364(3) 0.3216(2)
H24 H 0.7137 0.0163 0.3460
H25 H 0.7401 -0.1126 0.2788
H26 H 0.8332 0.0162 0.2726
loop_
_geom_bond_atom_site_label_1
_geom_bond_atom_site_label_2
_geom_bond_site_symmetry_1
_geom_bond_site_symmetry_2
Cl1 C2 1_555 1_555
Cl2 C5 1_555 1_555
O1 C6 1_555 1_555
N1 C1 1_555 1_555
C1 H1 1_555 1_555
H2 C1 1_555 1_555
H3 C1 1_555 1_555
C2 N1 1_555 1_555
C3 C2 1_555 1_555
H4 C3 1_555 1_555
C4 C3 1_555 1_555
C5 N1 1_555 1_555
C6 C4 1_555 1_555
C7 C6 1_555 1_555
C8 C7 1_555 1_555
H5 C8 1_555 1_555
H6 C8 1_555 1_555
H7 C8 1_555 1_555
C9 C7 1_555 1_555
H8 C9 1_555 1_555
H9 C9 1_555 1_555
H10 C9 1_555 1_555
C10 C7 1_555 1_555
H11 C10 1_555 1_555
H12 C10 1_555 1_555
H13 C10 1_555 1_555
Cl3 C12 1_555 1_555
Cl4 C15 1_555 1_555
O2 C16 1_555 1_555
N2 C11 1_555 1_555
C11 H14 1_555 1_555
H15 C11 1_555 1_555
H16 C11 1_555 1_555
C12 N2 1_555 1_555
C13 C12 1_555 1_555
H17 C13 1_555 1_555
C14 C13 1_555 1_555
C15 N2 1_555 1_555
C16 C14 1_555 1_555
C17 C16 1_555 1_555
C18 C17 1_555 1_555
H18 C18 1_555 1_555
H19 C18 1_555 1_555
H20 C18 1_555 1_555
C19 C17 1_555 1_555
H21 C19 1_555 1_555
H22 C19 1_555 1_555
H23 C19 1_555 1_555
C20 C17 1_555 1_555
H24 C20 1_555 1_555
H25 C20 1_555 1_555
H26 C20 1_555 1_555
C4 C5 1_555 1_555
C14 C15 1_555 1_555

#END
