
#######################################################################
#
#                 Cambridge Crystallographic Data Centre
#                                CCDC 
#
#######################################################################
#
# If this CIF has been generated from an entry in the Cambridge 
# Structural Database, then it will include bibliographic, chemical, 
# crystal, experimental, refinement or atomic coordinate data resulting 
# from the CCDC's data processing and validation procedures.
#
#######################################################################

data_JODHER
_chemical_formula_moiety         'C6 H3 Cl4 N1 O1'
_chemical_name_systematic        
2,2,2-trichloro-1-(4-chloro-1H-pyrrol-2-yl)ethanone
_symmetry_cell_setting           triclinic
_symmetry_space_group_name_H-M   'P -1'
_symmetry_Int_Tables_number      2
_space_group_name_Hall           '-P 1'
loop_
_symmetry_equiv_pos_site_id
_symmetry_equiv_pos_as_xyz
1 x,y,z
2 -x,-y,-z
_cell_length_a                   6.0733(10)
_cell_length_b                   8.6732(14)
_cell_length_c                   9.2019(16)
_cell_angle_alpha                90.852(5)
_cell_angle_beta                 108.997(5)
_cell_angle_gamma                94.179(5)
_cell_volume                     456.709
_exptl_crystal_colour            colorless
_exptl_crystal_description       block
_cell_formula_units_Z            2
loop_
_atom_site_label
_atom_site_type_symbol
_atom_site_fract_x
_atom_site_fract_y
_atom_site_fract_z
Cl1 Cl 0.33456(9) 0.69878(6) 0.82458(6)
Cl2 Cl 1.01872(9) 0.02468(6) 0.70272(6)
Cl3 Cl 0.59263(9) 0.09649(6) 0.74922(7)
Cl4 Cl 1.04034(10) 0.22120(7) 0.96379(6)
O1 O 0.9956(3) 0.32396(17) 0.58786(17)
N1 N 0.7559(3) 0.57427(19) 0.61542(18)
H1 H 0.842(3) 0.591(3) 0.559(2)
C1 C 0.6210(4) 0.6771(2) 0.6466(2)
H2 H 0.5962 0.7763 0.6047
C2 C 0.5243(3) 0.6123(2) 0.7511(2)
C3 C 0.6042(4) 0.4662(2) 0.7847(2)
H3 H 0.5671 0.3961 0.8533
C4 C 0.7501(3) 0.4435(2) 0.6973(2)
C5 C 0.8807(3) 0.3186(2) 0.6750(2)
C6 C 0.8812(3) 0.1702(2) 0.7679(2)
loop_
_geom_bond_atom_site_label_1
_geom_bond_atom_site_label_2
_geom_bond_site_symmetry_1
_geom_bond_site_symmetry_2
Cl1 C2 1_555 1_555
Cl2 C6 1_555 1_555
Cl3 C6 1_555 1_555
Cl4 C6 1_555 1_555
O1 C5 1_555 1_555
N1 H1 1_555 1_555
C1 N1 1_555 1_555
H2 C1 1_555 1_555
C2 C1 1_555 1_555
C3 C2 1_555 1_555
H3 C3 1_555 1_555
C4 N1 1_555 1_555
C5 C4 1_555 1_555
C6 C5 1_555 1_555
C3 C4 1_555 1_555

#END
