
#######################################################################
#
#                 Cambridge Crystallographic Data Centre
#                                CCDC 
#
#######################################################################
#
# If this CIF has been generated from an entry in the Cambridge 
# Structural Database, then it will include bibliographic, chemical, 
# crystal, experimental, refinement or atomic coordinate data resulting 
# from the CCDC's data processing and validation procedures.
#
#######################################################################

data_JODJOD
_chemical_formula_moiety         'C22 H16 Cl2 N2'
_chemical_name_systematic        
4-chloro-1-((2-chlorophenyl)(diphenyl)methyl)-1H-imidazole
_symmetry_cell_setting           monoclinic
_symmetry_space_group_name_H-M   'P 21/c'
_symmetry_Int_Tables_number      14
_space_group_name_Hall           '-P 2ybc'
loop_
_symmetry_equiv_pos_site_id
_symmetry_equiv_pos_as_xyz
1 x,y,z
2 -x,1/2+y,1/2-z
3 -x,-y,-z
4 x,1/2-y,1/2+z
_cell_length_a                   10.3899(12)
_cell_length_b                   20.390(2)
_cell_length_c                   8.7813(10)
_cell_angle_alpha                90
_cell_angle_beta                 97.789(4)
_cell_angle_gamma                90
_cell_volume                     1843.16
_exptl_crystal_colour            colorless
_exptl_crystal_description       block
_cell_formula_units_Z            4
loop_
_atom_site_label
_atom_site_type_symbol
_atom_site_fract_x
_atom_site_fract_y
_atom_site_fract_z
Cl1 Cl 0.56580(8) 0.25993(4) 1.00168(10)
Cl2 Cl 0.31876(8) 0.46993(4) 0.97984(8)
N1 N 0.3534(2) 0.37613(11) 0.7276(2)
N2 N 0.5657(2) 0.36166(13) 0.8061(3)
C1 C 0.4767(3) 0.39682(15) 0.7213(3)
H1 H 0.4970 0.4332 0.6614
C2 C 0.4926(3) 0.31573(14) 0.8725(3)
C3 C 0.3635(3) 0.32321(13) 0.8267(3)
H2 H 0.2947 0.2975 0.8563
C4 C 0.2347(3) 0.40880(14) 0.6482(3)
C5 C 0.2598(3) 0.48320(14) 0.6650(3)
C6 C 0.2986(3) 0.51374(15) 0.8074(3)
C7 C 0.3207(3) 0.58019(15) 0.8209(4)
H3 H 0.3450 0.5993 0.9192
C8 C 0.3072(3) 0.61897(16) 0.6899(4)
H4 H 0.3226 0.6648 0.6981
C9 C 0.2717(3) 0.59115(15) 0.5493(4)
H5 H 0.2628 0.6177 0.4595
C10 C 0.2486(3) 0.52449(15) 0.5369(3)
H6 H 0.2243 0.5061 0.4377
C11 C 0.1145(3) 0.38715(14) 0.7198(3)
C12 C 0.0745(3) 0.32145(15) 0.7053(3)
H7 H 0.1229 0.2913 0.6533
C13 C -0.0340(3) 0.29996(18) 0.7654(4)
H8 H -0.0570 0.2549 0.7589
C14 C -0.1090(3) 0.3433(2) 0.8345(4)
H9 H -0.1832 0.3283 0.8765
C15 C -0.0764(3) 0.40801(19) 0.8425(4)
H10 H -0.1303 0.4383 0.8864
C16 C 0.0353(3) 0.43033(16) 0.7870(3)
H11 H 0.0575 0.4755 0.7952
C17 C 0.2125(3) 0.38863(13) 0.4770(3)
C18 C 0.0902(3) 0.39764(15) 0.3935(3)
H12 H 0.0220 0.4152 0.4429
C19 C 0.0666(3) 0.38119(16) 0.2387(3)
H13 H -0.0175 0.3878 0.1833
C20 C 0.1639(3) 0.35540(16) 0.1647(3)
H14 H 0.1472 0.3437 0.0591
C21 C 0.2852(3) 0.34681(16) 0.2458(4)
H15 H 0.3532 0.3296 0.1955
C22 C 0.3094(3) 0.36314(15) 0.4015(3)
H16 H 0.3938 0.3566 0.4562
loop_
_geom_bond_atom_site_label_1
_geom_bond_atom_site_label_2
_geom_bond_site_symmetry_1
_geom_bond_site_symmetry_2
Cl1 C2 1_555 1_555
Cl2 C6 1_555 1_555
N1 C1 1_555 1_555
N2 C1 1_555 1_555
C1 H1 1_555 1_555
C2 N2 1_555 1_555
C3 N1 1_555 1_555
H2 C3 1_555 1_555
C4 N1 1_555 1_555
C5 C4 1_555 1_555
C6 C5 1_555 1_555
C7 C6 1_555 1_555
H3 C7 1_555 1_555
C8 C7 1_555 1_555
H4 C8 1_555 1_555
C9 C8 1_555 1_555
H5 C9 1_555 1_555
C10 C5 1_555 1_555
H6 C10 1_555 1_555
C11 C4 1_555 1_555
C12 C11 1_555 1_555
H7 C12 1_555 1_555
C13 C12 1_555 1_555
H8 C13 1_555 1_555
C14 C13 1_555 1_555
H9 C14 1_555 1_555
C15 C14 1_555 1_555
H10 C15 1_555 1_555
C16 C11 1_555 1_555
H11 C16 1_555 1_555
C17 C4 1_555 1_555
C18 C17 1_555 1_555
H12 C18 1_555 1_555
C19 C18 1_555 1_555
H13 C19 1_555 1_555
C20 C19 1_555 1_555
H14 C20 1_555 1_555
C21 C20 1_555 1_555
H15 C21 1_555 1_555
C22 C17 1_555 1_555
H16 C22 1_555 1_555
C2 C3 1_555 1_555
C9 C10 1_555 1_555
C15 C16 1_555 1_555
C21 C22 1_555 1_555

#END
