
#######################################################################
#
#                 Cambridge Crystallographic Data Centre
#                                CCDC 
#
#######################################################################
#
# If this CIF has been generated from an entry in the Cambridge 
# Structural Database, then it will include bibliographic, chemical, 
# crystal, experimental, refinement or atomic coordinate data resulting 
# from the CCDC's data processing and validation procedures.
#
#######################################################################

data_JODJUJ
_chemical_formula_moiety         'C11 H9 Cl2 N1 O2 S1'
_chemical_name_systematic        
2,5-dichloro-1-((4-methylphenyl)sulfonyl)-1H-pyrrole
_symmetry_cell_setting           orthorhombic
_symmetry_space_group_name_H-M   'P n a 21'
_symmetry_Int_Tables_number      33
_space_group_name_Hall           'P 2c -2n'
loop_
_symmetry_equiv_pos_site_id
_symmetry_equiv_pos_as_xyz
1 x,y,z
2 -x,-y,1/2+z
3 1/2+x,1/2-y,z
4 1/2-x,1/2+y,1/2+z
_cell_length_a                   7.4599(4)
_cell_length_b                   15.6717(8)
_cell_length_c                   10.2844(5)
_cell_angle_alpha                90
_cell_angle_beta                 90
_cell_angle_gamma                90
_cell_volume                     1202.34
_exptl_crystal_colour            colorless
_exptl_crystal_description       block
_cell_formula_units_Z            4
loop_
_atom_site_label
_atom_site_type_symbol
_atom_site_fract_x
_atom_site_fract_y
_atom_site_fract_z
S1 S 0.90134(7) 0.08742(3) 0.71464(5)
Cl1 Cl 1.09025(8) 0.19382(4) 0.97246(6)
Cl2 Cl 1.22427(7) -0.02452(4) 0.56987(6)
O1 O 0.8546(2) 0.00346(10) 0.67497(16)
O2 O 0.8050(2) 0.12859(11) 0.81631(16)
N1 N 1.1173(2) 0.08120(11) 0.76750(18)
C1 C 1.1989(3) 0.12375(14) 0.8737(2)
C2 C 1.3724(3) 0.10156(15) 0.8793(2)
H1 H 1.4568 0.1206 0.9422
C3 C 1.4081(3) 0.04449(14) 0.7746(3)
H2 H 1.5203 0.0188 0.7549
C4 C 1.2549(3) 0.03359(13) 0.7090(2)
C5 C 0.9139(3) 0.15460(14) 0.5792(2)
C6 C 0.9264(3) 0.24230(15) 0.5985(2)
H3 H 0.9320 0.2653 0.6839
C7 C 0.9307(3) 0.29524(14) 0.4912(2)
H4 H 0.9382 0.3552 0.5032
C8 C 0.9241(3) 0.26217(15) 0.3655(2)
C9 C 0.9142(3) 0.17368(16) 0.3492(2)
H5 H 0.9116 0.1503 0.2640
C10 C 0.9080(3) 0.11963(13) 0.4560(2)
H6 H 0.8999 0.0596 0.4445
C11 C 0.9249(3) 0.32028(15) 0.2487(2)
H7 H 0.8911 0.2877 0.1711
H8 H 1.0452 0.3442 0.2369
H9 H 0.8389 0.3667 0.2622
loop_
_geom_bond_atom_site_label_1
_geom_bond_atom_site_label_2
_geom_bond_site_symmetry_1
_geom_bond_site_symmetry_2
S1 O1 1_555 1_555
Cl1 C1 1_555 1_555
Cl2 C4 1_555 1_555
O2 S1 1_555 1_555
N1 S1 1_555 1_555
C1 N1 1_555 1_555
C2 C1 1_555 1_555
H1 C2 1_555 1_555
C3 C2 1_555 1_555
H2 C3 1_555 1_555
C4 N1 1_555 1_555
C5 S1 1_555 1_555
C6 C5 1_555 1_555
H3 C6 1_555 1_555
C7 C6 1_555 1_555
H4 C7 1_555 1_555
C8 C7 1_555 1_555
C9 C8 1_555 1_555
H5 C9 1_555 1_555
C10 C5 1_555 1_555
H6 C10 1_555 1_555
C11 C8 1_555 1_555
H7 C11 1_555 1_555
H8 C11 1_555 1_555
H9 C11 1_555 1_555
C3 C4 1_555 1_555
C9 C10 1_555 1_555

#END
