
#######################################################################
#
#                 Cambridge Crystallographic Data Centre
#                                CCDC 
#
#######################################################################
#
# If this CIF has been generated from an entry in the Cambridge 
# Structural Database, then it will include bibliographic, chemical, 
# crystal, experimental, refinement or atomic coordinate data resulting 
# from the CCDC's data processing and validation procedures.
#
#######################################################################

data_JODJIX
_chemical_formula_moiety         'C6 H6 Cl2 O2'
_chemical_name_systematic        2,6-dichloro-3-hydroxycyclohex-2-en-1-one
_symmetry_cell_setting           orthorhombic
_symmetry_space_group_name_H-M   'P n a 21'
_symmetry_Int_Tables_number      33
_space_group_name_Hall           'P 2c -2n'
loop_
_symmetry_equiv_pos_site_id
_symmetry_equiv_pos_as_xyz
1 x,y,z
2 -x,-y,1/2+z
3 1/2-x,1/2+y,1/2+z
4 1/2+x,1/2-y,z
_cell_length_a                   10.9621(11)
_cell_length_b                   6.8681(6)
_cell_length_c                   9.7070(10)
_cell_angle_alpha                90
_cell_angle_beta                 90
_cell_angle_gamma                90
_cell_volume                     730.828
_exptl_crystal_colour            colorless
_exptl_crystal_description       block
_cell_formula_units_Z            4
loop_
_atom_site_label
_atom_site_type_symbol
_atom_site_fract_x
_atom_site_fract_y
_atom_site_fract_z
Cl1 Cl 0.57572(9) 0.70953(15) 0.41749(13)
Cl2 Cl 0.20285(8) 0.26609(12) 0.60936(10)
O1 O 0.1740(2) 0.5756(3) 0.8058(3)
H1 H 0.170(4) 0.675(4) 0.857(3)
O2 O 0.4130(2) 0.3788(4) 0.4345(3)
C1 C 0.4819(5) 0.6590(7) 0.5661(5)
H2 H 0.5359 0.6092 0.6413
C2 C 0.4196(4) 0.8306(6) 0.6165(5)
H3 H 0.3719 0.8878 0.5400
H4 H 0.4815 0.9278 0.6447
C3 C 0.3367(3) 0.7951(5) 0.7339(4)
H5 H 0.2793 0.9058 0.7418
H6 H 0.3854 0.7901 0.8198
C4 C 0.2646(3) 0.6087(5) 0.7208(4)
C5 C 0.2912(3) 0.4758(4) 0.6211(4)
C6 C 0.3899(4) 0.4940(6) 0.5269(4)
C7? C 0.4310(12) 0.721(2) 0.5009(15)
H7? H 0.3725 0.7757 0.4320
H8? H 0.4004 0.9637 0.5839
H9? H 0.5025 0.8375 0.6567
loop_
_geom_bond_atom_site_label_1
_geom_bond_atom_site_label_2
_geom_bond_site_symmetry_1
_geom_bond_site_symmetry_2
Cl1 C1 1_555 1_555
Cl2 C5 1_555 1_555
O1 H1 1_555 1_555
O2 C6 1_555 1_555
C1 H2 1_555 1_555
C2 C1 1_555 1_555
H3 C2 1_555 1_555
H4 C2 1_555 1_555
C3 C2 1_555 1_555
H5 C3 1_555 1_555
H6 C3 1_555 1_555
C4 O1 1_555 1_555
C5 C4 1_555 1_555
C6 C1 1_555 1_555
C3 C4 1_555 1_555
C5 C6 1_555 1_555

#END
