
#######################################################################
#
#                 Cambridge Crystallographic Data Centre
#                                CCDC 
#
#######################################################################
#
# If this CIF has been generated from an entry in the Cambridge 
# Structural Database, then it will include bibliographic, chemical, 
# crystal, experimental, refinement or atomic coordinate data resulting 
# from the CCDC's data processing and validation procedures.
#
#######################################################################

data_JODKAQ
_chemical_formula_moiety         'C11 H20 Cl1 N3 O2'
_chemical_name_systematic        
N,N'-(chlorocarbonimidoyl)bis(2,2-dimethylpropanamide)
_symmetry_cell_setting           monoclinic
_symmetry_space_group_name_H-M   'P 21/m'
_symmetry_Int_Tables_number      11
_space_group_name_Hall           '-P 2yb'
loop_
_symmetry_equiv_pos_site_id
_symmetry_equiv_pos_as_xyz
1 x,y,z
2 -x,1/2+y,-z
3 -x,-y,-z
4 x,1/2-y,z
_cell_length_a                   10.1255(18)
_cell_length_b                   6.6412(10)
_cell_length_c                   10.6229(17)
_cell_angle_alpha                90
_cell_angle_beta                 92.713(9)
_cell_angle_gamma                90
_cell_volume                     713.541
_exptl_crystal_colour            colorless
_exptl_crystal_description       rod
_cell_formula_units_Z            2
loop_
_atom_site_label
_atom_site_type_symbol
_atom_site_fract_x
_atom_site_fract_y
_atom_site_fract_z
Cl1 Cl 0.67173(11) 0.7500 0.96444(12)
O1 O 0.3249(4) 0.721(6) 0.6985(3)
O2 O 0.2180(4) 0.779(6) 1.1378(3)
N1 N 0.2942(3) 0.7500 0.9054(3)
H1 H 0.234(5) 0.7500 0.965(5)
N2 N 0.4324(4) 0.7500 1.0866(3)
H2 H 0.510(4) 0.7500 1.116(4)
N3 N 0.5191(3) 0.7500 0.8826(3)
C1 C 0.0242(8) 0.6589(18) 0.8500(8)
H3 H -0.0681 0.6599 0.8177
H4 H 0.0356 0.7566 0.9188
H5 H 0.0473 0.5241 0.8814
C2 C 0.0776(11) 1.003(2) 0.7740(13)
H6 H -0.0179 1.0268 0.7751
H7 H 0.1137 1.0781 0.7039
H8 H 0.1201 1.0493 0.8537
C3 C 0.0610(7) 0.7024(18) 0.6278(6)
H9 H 0.0791 0.5689 0.5933
H10 H 0.1096 0.8045 0.5821
H11 H -0.0340 0.7302 0.6185
C4 C 0.1022(6) 0.792(2) 0.7583(6)
C5 C 0.2508(4) 0.7500 0.7807(4)
C6 C 0.4221(4) 0.7500 0.9558(4)
C7 C 0.3338(4) 0.7500 1.1709(4)
C8 C 0.3788(5) 0.7500 1.3103(4)
C9 C 0.5298(6) 0.7500 1.3322(5)
C10 C 0.3234(5) 0.5624(7) 1.3681(3)
H12 H 0.2278 0.5565 1.3493
H13 H 0.3409 0.5655 1.4596
H14 H 0.3655 0.4435 1.3329
O1C O 0.3249(4) 0.779(6) 0.6985(3)
O2C O 0.2180(4) 0.721(6) 1.1378(3)
C1C C 0.0242(8) 0.8411(18) 0.8500(8)
H3C H -0.0681 0.8401 0.8177
H4C H 0.0356 0.7434 0.9188
H5C H 0.0473 0.9759 0.8814
C2C C 0.0776(11) 0.497(2) 0.7740(13)
H6C H -0.0179 0.4732 0.7751
H7C H 0.1137 0.4219 0.7039
H8C H 0.1201 0.4507 0.8537
C3C C 0.0610(7) 0.7976(18) 0.6278(6)
H9C H 0.0791 0.9311 0.5933
H10C H 0.1096 0.6955 0.5821
H11C H -0.0340 0.7698 0.6185
C4C C 0.1022(6) 0.708(2) 0.7583(6)
C10C C 0.3234(5) 0.9376(7) 1.3681(3)
H12C H 0.2278 0.9435 1.3493
H13C H 0.3409 0.9345 1.4596
H14C H 0.3655 1.0565 1.3329
H15? H 0.5528 0.7117 1.4196
H16? H 0.5642 0.8850 1.3160
H17? H 0.5687 0.6534 1.2749
loop_
_geom_bond_atom_site_label_1
_geom_bond_atom_site_label_2
_geom_bond_site_symmetry_1
_geom_bond_site_symmetry_2
Cl1 N3 1_555 1_555
O1 C5 1_555 1_555
O2 C7 1_555 1_555
N1 H1 1_555 1_555
N2 H2 1_555 1_555
N3 C6 1_555 1_555
C1 H3 1_555 1_555
H4 C1 1_555 1_555
H5 C1 1_555 1_555
C2 H6 1_555 1_555
H7 C2 1_555 1_555
H8 C2 1_555 1_555
C3 H9 1_555 1_555
H10 C3 1_555 1_555
H11 C3 1_555 1_555
C4 C1 1_555 1_555
C5 N1 1_555 1_555
C6 N1 1_555 1_555
C7 N2 1_555 1_555
C8 C7 1_555 1_555
C9 C8 1_555 1_555
C10 C8 1_555 1_555
H12 C10 1_555 1_555
H13 C10 1_555 1_555
H14 C10 1_555 1_555
O1C C5 1_555 1_555
O2C C7 1_555 1_555
C1C C1 1_555 1_555
H3C C1C 1_555 1_555
H4C C1 1_555 1_555
H5C C2 1_555 1_555
C2C C1 1_555 1_555
H6C C2C 1_555 1_555
H7C C2C 1_555 1_555
H8C C2C 1_555 1_555
C3C C3 1_555 1_555
H9C C3C 1_555 1_555
H10C C3 1_555 1_555
H11C C3 1_555 1_555
C4C C1 1_555 1_555
C10C C8 1_555 1_555
H12C C10C 1_555 1_555
H13C C10C 1_555 1_555
H14C C10C 1_555 1_555
N2 C6 1_555 1_555
H4 C1C 1_555 1_555
H5 C2C 1_555 1_555
C2 C4 1_555 1_555
C2 C1C 1_555 1_555
C3 C4 1_555 1_555
C3 C4C 1_555 1_555
H10 C3C 1_555 1_555
H11 C3C 1_555 1_555
C4 C5 1_555 1_555
C4 C1C 1_555 1_555
C4 C3C 1_555 1_555
C4 C4C 1_555 1_555
C5 C4C 1_555 1_555
C1C H4C 1_555 1_555
C1C H5C 1_555 1_555
C1C C4C 1_555 1_555
C2C C4C 1_555 1_555
C3C H10C 1_555 1_555
C3C H11C 1_555 1_555
C3C C4C 1_555 1_555

#END
