
#######################################################################
#
#                 Cambridge Crystallographic Data Centre
#                                CCDC 
#
#######################################################################
#
# If this CIF has been generated from an entry in the Cambridge 
# Structural Database, then it will include bibliographic, chemical, 
# crystal, experimental, refinement or atomic coordinate data resulting 
# from the CCDC's data processing and validation procedures.
#
#######################################################################

data_JODNIA
_chemical_formula_moiety         'C29 H35 N3 O4'
_chemical_name_systematic        
'(1S,3S,4S)-t-Butyl N-(1-benzyl-3-hydroxy-5-phenyl-4-((2-pyridinylcarbonyl)amino)pentyl)carbamate'
_symmetry_cell_setting           monoclinic
_symmetry_space_group_name_H-M   'P 21'
_symmetry_Int_Tables_number      4
_space_group_name_Hall           'P 2yb'
loop_
_symmetry_equiv_pos_site_id
_symmetry_equiv_pos_as_xyz
1 x,y,z
2 -x,1/2+y,-z
_cell_length_a                   11.7573(12)
_cell_length_b                   15.9783(18)
_cell_length_c                   15.0881(15)
_cell_angle_alpha                90
_cell_angle_beta                 103.787(9)
_cell_angle_gamma                90
_cell_volume                     2752.81
_exptl_crystal_colour            colorless
_exptl_crystal_description       needle
_cell_formula_units_Z            4
_exptl_crystal_recrystallization_method 'ethyl acetate/dichloromethane'
loop_
_atom_site_label
_atom_site_type_symbol
_atom_site_fract_x
_atom_site_fract_y
_atom_site_fract_z
N1 N 0.2331(3) -0.0359(3) 0.0924(2)
H1 H 0.2848 -0.0193 0.0625
O1 O 0.4696(3) -0.0739(2) 0.1582(3)
H2 H 0.5143 -0.0352 0.1500
C1 C 0.2764(4) -0.0785(3) 0.1767(3)
H3 H 0.2258 -0.0636 0.2191
N3 N 0.3736(3) 0.0516(3) 0.3814(2)
H7 H 0.4495 0.0452 0.4030
O3 O 0.0392(3) -0.0395(3) 0.0893(2)
C3 C 0.4011(4) -0.0460(3) 0.2178(3)
H8 H 0.4313 -0.0723 0.2790
N5 N 0.1977(3) 0.0567(3) -0.0578(3)
O5 O 0.1966(3) 0.0426(3) 0.4110(2)
C5 C 0.4070(4) 0.0499(3) 0.2284(3)
H11 H 0.4892 0.0665 0.2549
H12 H 0.3823 0.0759 0.1673
O7 O 0.3605(3) 0.0011(2) 0.5138(2)
C7 C 0.3306(4) 0.0835(3) 0.2884(3)
H15 H 0.2496 0.0612 0.2644
C9 C 0.3234(5) 0.1790(3) 0.2860(3)
H17 H 0.4037 0.2019 0.2959
H18 H 0.2905 0.1982 0.3371
C11 C 0.2490(4) 0.2143(3) 0.1971(3)
C13 C 0.1329(5) 0.1966(4) 0.1733(4)
H21 H 0.0993 0.1623 0.2117
C15 C 0.0632(5) 0.2281(4) 0.0934(4)
H23 H -0.0184 0.2166 0.0776
C17 C 0.1127(6) 0.2765(5) 0.0365(4)
H25 H 0.0665 0.2961 -0.0201
C19 C 0.2263(6) 0.2954(5) 0.0624(5)
H27 H 0.2591 0.3319 0.0254
C21 C 0.2988(5) 0.2629(4) 0.1423(4)
H29 H 0.3804 0.2744 0.1580
C23 C 0.2726(5) -0.1747(3) 0.1633(4)
H31 H 0.1924 -0.1911 0.1304
H32 H 0.3264 -0.1902 0.1246
C25 C 0.3058(5) -0.2229(3) 0.2508(4)
C27 C 0.4198(5) -0.2501(4) 0.2874(4)
H35 H 0.4793 -0.2360 0.2571
C29 C 0.4486(5) -0.2965(4) 0.3657(5)
H37 H 0.5267 -0.3153 0.3886
C31 C 0.3615(6) -0.3159(4) 0.4118(4)
H39 H 0.3802 -0.3473 0.4669
C33 C 0.2508(6) -0.2896(5) 0.3770(5)
H41 H 0.1912 -0.3029 0.4075
C35 C 0.2234(5) -0.2434(4) 0.2970(4)
H43 H 0.1449 -0.2255 0.2737
C37 C 0.1186(4) -0.0190(3) 0.0544(3)
C39 C 0.1030(5) 0.0318(3) -0.0288(3)
C41 C -0.0087(5) 0.0509(4) -0.0795(4)
H45 H -0.0755 0.0336 -0.0592
C43 C -0.0218(6) 0.0954(5) -0.1598(4)
H47 H -0.0976 0.1086 -0.1958
C45 C 0.0758(6) 0.1200(4) -0.1864(4)
H49 H 0.0693 0.1503 -0.2416
C47 C 0.1823(6) 0.1005(4) -0.1331(4)
H51 H 0.2498 0.1198 -0.1513
C49 C 0.3027(4) 0.0322(3) 0.4336(3)
C51 C 0.2951(5) -0.0291(4) 0.5801(3)
C53 C 0.2377(7) 0.0439(5) 0.6154(5)
H53 H 0.1756 0.0666 0.5660
H54 H 0.2963 0.0875 0.6376
H55 H 0.2040 0.0252 0.6655
C55 C 0.2088(6) -0.0947(5) 0.5389(5)
H59 H 0.1457 -0.0694 0.4922
H60 H 0.1759 -0.1200 0.5865
H61 H 0.2479 -0.1379 0.5109
C57 C 0.3931(6) -0.0683(5) 0.6525(4)
H65 H 0.4270 -0.1153 0.6258
H66 H 0.3615 -0.0886 0.7031
H67 H 0.4538 -0.0263 0.6752
N2 N 0.8118(3) 0.0620(3) 0.4204(3)
H4 H 0.8836 0.0580 0.4545
O2 O 0.9973(3) 0.1330(2) 0.3547(2)
H5 H 1.0551 0.1006 0.3687
C2 C 0.7958(4) 0.1055(3) 0.3347(3)
H6 H 0.7262 0.0810 0.2911
N4 N 0.8151(3) -0.0182(3) 0.1264(2)
H9 H 0.8743 -0.0222 0.1003
O4 O 0.6237(3) 0.0297(3) 0.4112(2)
C4 C 0.9034(4) 0.0912(3) 0.2963(3)
H10 H 0.8886 0.1187 0.2350
N6 N 0.8810(4) -0.0150(3) 0.5801(3)
O6 O 0.6284(3) 0.0286(3) 0.1105(2)
C6 C 0.9265(4) -0.0007(3) 0.2838(3)
H13 H 0.9978 -0.0057 0.2602
H14 H 0.9429 -0.0281 0.3444
O8 O 0.7190(3) 0.0316(2) -0.0065(2)
C8 C 0.8286(4) -0.0475(3) 0.2206(3)
H16 H 0.7543 -0.0348 0.2392
C10 C 0.8470(5) -0.1415(3) 0.2263(4)
H19 H 0.7871 -0.1687 0.1774
H20 H 0.9248 -0.1547 0.2154
C12 C 0.8397(5) -0.1770(3) 0.3158(4)
C14 C 0.7332(5) -0.1716(4) 0.3433(4)
H22 H 0.6661 -0.1476 0.3036
C16 C 0.7267(5) -0.2011(4) 0.4276(4)
H24 H 0.6547 -0.1977 0.4456
C18 C 0.8228(6) -0.2352(4) 0.4859(4)
H26 H 0.8184 -0.2546 0.5445
C20 C 0.9243(6) -0.2409(4) 0.4588(4)
H28 H 0.9900 -0.2675 0.4975
C22 C 0.9343(5) -0.2095(4) 0.3775(4)
H30 H 1.0086 -0.2101 0.3629
C24 C 0.7716(5) 0.1984(3) 0.3468(3)
H33 H 0.7017 0.2037 0.3721
H34 H 0.8389 0.2228 0.3916
C26 C 0.7517(5) 0.2480(3) 0.2595(3)
C28 C 0.8367(5) 0.2968(4) 0.2404(4)
H36 H 0.9105 0.2989 0.2831
C30 C 0.8209(6) 0.3437(4) 0.1615(5)
H38 H 0.8827 0.3767 0.1495
C32 C 0.7146(6) 0.3412(4) 0.1015(4)
H40 H 0.7023 0.3738 0.0474
C34 C 0.6229(6) 0.2924(4) 0.1168(4)
H42 H 0.5490 0.2915 0.0742
C36 C 0.6428(5) 0.2452(3) 0.1963(3)
H44 H 0.5822 0.2106 0.2079
C38 C 0.7258(4) 0.0274(3) 0.4519(3)
C40 C 0.7662(4) -0.0140(3) 0.5421(3)
C42 C 0.6835(5) -0.0504(4) 0.5833(3)
H46 H 0.6021 -0.0469 0.5558
C44 C 0.7245(5) -0.0917(4) 0.6658(4)
H48 H 0.6712 -0.1186 0.6949
C46 C 0.8396(6) -0.0934(4) 0.7039(4)
H50 H 0.8689 -0.1212 0.7604
C48 C 0.9165(5) -0.0533(4) 0.6590(4)
H52 H 0.9979 -0.0539 0.6870
C50 C 0.7128(5) 0.0147(3) 0.0796(3)
C52 C 0.6116(4) 0.0549(3) -0.0752(3)
C54 C 0.5242(6) -0.0143(5) -0.0854(4)
H56 H 0.4934 -0.0173 -0.0305
H57 H 0.5620 -0.0674 -0.0935
H58 H 0.4597 -0.0035 -0.1387
C56 C 0.6612(6) 0.0607(4) -0.1606(4)
H62 H 0.7183 0.1064 -0.1530
H63 H 0.5972 0.0716 -0.2142
H64 H 0.6995 0.0078 -0.1689
C58 C 0.5680(6) 0.1377(4) -0.0535(4)
H68 H 0.5368 0.1329 0.0010
H69 H 0.5058 0.1568 -0.1050
H70 H 0.6324 0.1782 -0.0421
loop_
_geom_bond_atom_site_label_1
_geom_bond_atom_site_label_2
_geom_bond_site_symmetry_1
_geom_bond_site_symmetry_2
N1 H1 1_555 1_555
O1 H2 1_555 1_555
C1 N1 1_555 1_555
H3 C1 1_555 1_555
N2 H4 1_555 1_555
O2 H5 1_555 1_555
C2 N2 1_555 1_555
H6 C2 1_555 1_555
N3 H7 1_555 1_555
O3 C37 1_555 1_555
C3 O1 1_555 1_555
H8 C3 1_555 1_555
N4 H9 1_555 1_555
O4 C38 1_555 1_555
C4 O2 1_555 1_555
H10 C4 1_555 1_555
N5 C39 1_555 1_555
O5 C49 1_555 1_555
C5 C3 1_555 1_555
H11 C5 1_555 1_555
H12 C5 1_555 1_555
N6 C40 1_555 1_555
O6 C50 1_555 1_555
C6 C4 1_555 1_555
H13 C6 1_555 1_555
H14 C6 1_555 1_555
O7 C49 1_555 1_555
C7 N3 1_555 1_555
H15 C7 1_555 1_555
O8 C50 1_555 1_555
C8 N4 1_555 1_555
H16 C8 1_555 1_555
C9 C7 1_555 1_555
H17 C9 1_555 1_555
H18 C9 1_555 1_555
C10 C8 1_555 1_555
H19 C10 1_555 1_555
H20 C10 1_555 1_555
C11 C9 1_555 1_555
C12 C10 1_555 1_555
C13 C11 1_555 1_555
H21 C13 1_555 1_555
C14 C12 1_555 1_555
H22 C14 1_555 1_555
C15 C13 1_555 1_555
H23 C15 1_555 1_555
C16 C14 1_555 1_555
H24 C16 1_555 1_555
C17 C15 1_555 1_555
H25 C17 1_555 1_555
C18 C16 1_555 1_555
H26 C18 1_555 1_555
C19 C17 1_555 1_555
H27 C19 1_555 1_555
C20 C18 1_555 1_555
H28 C20 1_555 1_555
C21 C11 1_555 1_555
H29 C21 1_555 1_555
C22 C12 1_555 1_555
H30 C22 1_555 1_555
C23 C1 1_555 1_555
H31 C23 1_555 1_555
H32 C23 1_555 1_555
C24 C2 1_555 1_555
H33 C24 1_555 1_555
H34 C24 1_555 1_555
C25 C23 1_555 1_555
C26 C24 1_555 1_555
C27 C25 1_555 1_555
H35 C27 1_555 1_555
C28 C26 1_555 1_555
H36 C28 1_555 1_555
C29 C27 1_555 1_555
H37 C29 1_555 1_555
C30 C28 1_555 1_555
H38 C30 1_555 1_555
C31 C29 1_555 1_555
H39 C31 1_555 1_555
C32 C30 1_555 1_555
H40 C32 1_555 1_555
C33 C31 1_555 1_555
H41 C33 1_555 1_555
C34 C32 1_555 1_555
H42 C34 1_555 1_555
C35 C25 1_555 1_555
H43 C35 1_555 1_555
C36 C26 1_555 1_555
H44 C36 1_555 1_555
C37 N1 1_555 1_555
C38 N2 1_555 1_555
C39 C37 1_555 1_555
C40 C38 1_555 1_555
C41 C39 1_555 1_555
H45 C41 1_555 1_555
C42 C40 1_555 1_555
H46 C42 1_555 1_555
C43 C41 1_555 1_555
H47 C43 1_555 1_555
C44 C42 1_555 1_555
H48 C44 1_555 1_555
C45 C43 1_555 1_555
H49 C45 1_555 1_555
C46 C44 1_555 1_555
H50 C46 1_555 1_555
C47 N5 1_555 1_555
H51 C47 1_555 1_555
C48 N6 1_555 1_555
H52 C48 1_555 1_555
C49 N3 1_555 1_555
C50 N4 1_555 1_555
C51 O7 1_555 1_555
C52 O8 1_555 1_555
C53 C51 1_555 1_555
H53 C53 1_555 1_555
H54 C53 1_555 1_555
H55 C53 1_555 1_555
C54 C52 1_555 1_555
H56 C54 1_555 1_555
H57 C54 1_555 1_555
H58 C54 1_555 1_555
C55 C51 1_555 1_555
H59 C55 1_555 1_555
H60 C55 1_555 1_555
H61 C55 1_555 1_555
C56 C52 1_555 1_555
H62 C56 1_555 1_555
H63 C56 1_555 1_555
H64 C56 1_555 1_555
C57 C51 1_555 1_555
H65 C57 1_555 1_555
H66 C57 1_555 1_555
H67 C57 1_555 1_555
C58 C52 1_555 1_555
H68 C58 1_555 1_555
H69 C58 1_555 1_555
H70 C58 1_555 1_555
C1 C3 1_555 1_555
C2 C4 1_555 1_555
C5 C7 1_555 1_555
C6 C8 1_555 1_555
C19 C21 1_555 1_555
C20 C22 1_555 1_555
C33 C35 1_555 1_555
C34 C36 1_555 1_555
C45 C47 1_555 1_555
C46 C48 1_555 1_555

#END
