
#######################################################################
#
#                 Cambridge Crystallographic Data Centre
#                                CCDC 
#
#######################################################################
#
# If this CIF has been generated from an entry in the Cambridge 
# Structural Database, then it will include bibliographic, chemical, 
# crystal, experimental, refinement or atomic coordinate data resulting 
# from the CCDC's data processing and validation procedures.
#
#######################################################################

data_JODQAV
_chemical_compound_source        
'endophytic fungus no. 2090 from a mangrove tree'
_chemical_formula_moiety         'C12 H12 O5'
_chemical_name_systematic        
3-(Hydroxymethyl)-6,8-dimethoxy-2H-chromen-2-one
_symmetry_cell_setting           monoclinic
_symmetry_space_group_name_H-M   'P 21/c'
_symmetry_Int_Tables_number      14
_space_group_name_Hall           '-P 2ybc'
loop_
_symmetry_equiv_pos_site_id
_symmetry_equiv_pos_as_xyz
1 x,y,z
2 -x,1/2+y,1/2-z
3 -x,-y,-z
4 x,1/2-y,1/2+z
_cell_length_a                   14.6979(16)
_cell_length_b                   12.2246(14)
_cell_length_c                   23.896(3)
_cell_angle_alpha                90
_cell_angle_beta                 95.035(2)
_cell_angle_gamma                90
_cell_volume                     4276.97
_exptl_crystal_colour            yellow
_exptl_crystal_description       block
_cell_formula_units_Z            16
_exptl_crystal_recrystallization_method methanol
loop_
_atom_site_label
_atom_site_type_symbol
_atom_site_fract_x
_atom_site_fract_y
_atom_site_fract_z
O1 O 0.34046(10) 0.06130(12) 0.46126(6)
O2 O 0.23122(10) -0.02976(13) 0.49764(7)
O3 O 0.39758(10) 0.25128(12) 0.43110(7)
O4 O 0.66666(11) 0.07960(14) 0.36495(7)
O5 O 0.36461(10) -0.32898(13) 0.47854(8)
H1 H 0.3374 -0.3868 0.4863
C1 C 0.45277(14) 0.16623(18) 0.42108(9)
C2 C 0.53456(15) 0.17311(19) 0.39616(9)
H5 H 0.5560 0.2420 0.3844
C3 C 0.58498(14) 0.07853(19) 0.38857(10)
C4 C 0.55564(15) -0.0224(2) 0.40567(10)
H6 H 0.5914 -0.0859 0.4009
C5 C 0.47303(14) -0.03036(19) 0.43007(9)
C6 C 0.43561(15) -0.13227(19) 0.44780(9)
H7 H 0.4687 -0.1981 0.4437
C7 C 0.35488(15) -0.13599(18) 0.47000(9)
C8 C 0.30436(15) -0.03491(18) 0.47759(9)
C9 C 0.42242(14) 0.06384(18) 0.43726(9)
C10 C 0.43098(16) 0.35850(18) 0.42034(11)
H8 H 0.4897 0.3699 0.4423
H9 H 0.3870 0.4132 0.4311
H10 H 0.4392 0.3659 0.3803
C11 C 0.69700(16) 0.1788(2) 0.34201(11)
H11 H 0.6495 0.2072 0.3145
H12 H 0.7529 0.1652 0.3236
H13 H 0.7095 0.2324 0.3722
C12 C 0.30893(15) -0.23834(18) 0.48782(10)
H14 H 0.2987 -0.2337 0.5281
H15 H 0.2489 -0.2467 0.4660
O6 O 0.40867(10) 0.01426(12) 0.28271(6)
O7 O 0.51833(10) 0.10466(13) 0.24619(7)
O8 O 0.34984(10) -0.17613(12) 0.31126(7)
O9 O 0.08454(10) -0.00244(14) 0.38154(7)
O10 O 0.38760(11) 0.40517(13) 0.26800(8)
H2 H 0.4159 0.4627 0.2612
C13 C 0.29574(15) -0.09025(19) 0.32277(9)
C14 C 0.21541(14) -0.09679(19) 0.34822(9)
H16 H 0.1940 -0.1658 0.3598
C15 C 0.16535(15) -0.00206(19) 0.35712(9)
C16 C 0.19569(15) 0.09855(19) 0.34029(9)
H17 H 0.1607 0.1624 0.3457
C17 C 0.27796(14) 0.10636(18) 0.31530(9)
C18 C 0.31568(15) 0.20840(18) 0.29729(9)
H18 H 0.2832 0.2745 0.3019
C19 C 0.39549(14) 0.21186(18) 0.27420(9)
C20 C 0.44543(15) 0.11029(18) 0.26644(9)
C21 C 0.32695(14) 0.01213(18) 0.30696(9)
C22 C 0.31769(17) -0.28333(18) 0.32396(11)
H19 H 0.3139 -0.2900 0.3646
H20 H 0.3601 -0.3384 0.3117
H21 H 0.2571 -0.2949 0.3043
C23 C 0.05554(16) -0.1015(2) 0.40576(10)
H22 H 0.0453 -0.1572 0.3764
H23 H -0.0014 -0.0886 0.4232
H24 H 0.1027 -0.1268 0.4343
C24 C 0.44016(15) 0.31340(18) 0.25490(10)
H25 H 0.5026 0.3198 0.2738
H26 H 0.4447 0.3099 0.2138
O11 O 0.07893(9) 0.13556(12) 0.21061(6)
O12 O -0.02891(10) 0.04463(13) 0.24848(7)
O13 O 0.13692(10) 0.32770(12) 0.18371(7)
O14 O 0.40080(10) 0.17646(13) 0.11225(7)
O15 O 0.10756(10) -0.25362(13) 0.22829(8)
H3 H 0.0815 -0.3121 0.2362
C25 C 0.19106(14) 0.24339(18) 0.17149(9)
C26 C 0.27178(14) 0.25041(18) 0.14697(9)
H27 H 0.2938 0.3199 0.1366
C27 C 0.32196(14) 0.15630(19) 0.13717(9)
C28 C 0.29236(15) 0.05458(19) 0.15189(9)
H28 H 0.3272 -0.0088 0.1451
C29 C 0.20983(14) 0.04547(18) 0.17709(9)
C30 C 0.17217(15) -0.05651(19) 0.19477(9)
H29 H 0.2044 -0.1225 0.1894
C31 C 0.09317(15) -0.06079(18) 0.21847(9)
C32 C 0.04357(15) 0.03915(18) 0.22739(9)
C33 C 0.16038(14) 0.13937(18) 0.18639(9)
C34 C 0.17076(17) 0.43486(18) 0.17191(11)
H30 H 0.2298 0.4464 0.1935
H31 H 0.1272 0.4902 0.1825
H32 H 0.1784 0.4410 0.1317
C35 C 0.45447(15) 0.0838(2) 0.09976(11)
H33 H 0.4754 0.0460 0.1347
H34 H 0.5075 0.1080 0.0808
H35 H 0.4174 0.0337 0.0752
C36 C 0.05020(15) -0.16391(18) 0.23784(10)
H36 H 0.0415 -0.1585 0.2784
H37 H -0.0104 -0.1746 0.2170
O16 O 0.16996(10) -0.06143(12) 0.03306(6)
O17 O 0.27877(10) 0.02844(13) -0.00470(7)
O18 O 0.10944(10) -0.25392(12) 0.05812(7)
O19 O -0.15022(10) -0.09995(13) 0.13372(7)
O20 O 0.14506(11) 0.32841(13) 0.01782(8)
H4 H 0.1698 0.3864 0.0079
C37 C 0.05696(15) -0.16841(19) 0.07157(9)
C38 C -0.02323(14) -0.17498(18) 0.09693(9)
H38 H -0.0458 -0.2445 0.1070
C39 C -0.07202(15) -0.08039(19) 0.10811(9)
C40 C -0.04122(14) 0.02177(19) 0.09371(9)
H39 H -0.0749 0.0857 0.1011
C41 C 0.04095(15) 0.02945(18) 0.06786(9)
C42 C 0.07907(15) 0.13177(18) 0.05071(9)
H40 H 0.0479 0.1981 0.0571
C43 C 0.15768(15) 0.13529(18) 0.02582(9)
C44 C 0.20614(15) 0.03467(18) 0.01684(9)
C45 C 0.08888(14) -0.06456(18) 0.05764(9)
C46 C 0.07568(17) -0.36016(19) 0.07114(11)
H41 H 0.0718 -0.3661 0.1118
H42 H 0.1173 -0.4163 0.0590
H43 H 0.0149 -0.3707 0.0516
C47 C -0.20234(15) -0.0070(2) 0.14792(10)
H44 H -0.1643 0.0410 0.1732
H45 H -0.2555 -0.0312 0.1667
H46 H -0.2230 0.0332 0.1136
C48 C 0.19980(15) 0.23813(18) 0.00552(10)
H47 H 0.2621 0.2472 0.0243
H48 H 0.2044 0.2336 -0.0355
loop_
_geom_bond_atom_site_label_1
_geom_bond_atom_site_label_2
_geom_bond_site_symmetry_1
_geom_bond_site_symmetry_2
O1 C8 1_555 1_555
O2 C8 1_555 1_555
O3 C1 1_555 1_555
O4 C3 1_555 1_555
O5 H1 1_555 1_555
O6 C20 1_555 1_555
O7 C20 1_555 1_555
O8 C13 1_555 1_555
O9 C15 1_555 1_555
O10 H2 1_555 1_555
O11 C32 1_555 1_555
O12 C32 1_555 1_555
O13 C25 1_555 1_555
O14 C27 1_555 1_555
O15 H3 1_555 1_555
O16 C44 1_555 1_555
O17 C44 1_555 1_555
O18 C37 1_555 1_555
O19 C39 1_555 1_555
O20 H4 1_555 1_555
C1 C2 1_555 1_555
C2 H5 1_555 1_555
C3 C2 1_555 1_555
C4 C3 1_555 1_555
H6 C4 1_555 1_555
C5 C4 1_555 1_555
C6 C5 1_555 1_555
H7 C6 1_555 1_555
C7 C6 1_555 1_555
C8 C7 1_555 1_555
C9 O1 1_555 1_555
C10 O3 1_555 1_555
H8 C10 1_555 1_555
H9 C10 1_555 1_555
H10 C10 1_555 1_555
C11 O4 1_555 1_555
H11 C11 1_555 1_555
H12 C11 1_555 1_555
H13 C11 1_555 1_555
C12 O5 1_555 1_555
H14 C12 1_555 1_555
H15 C12 1_555 1_555
C13 C14 1_555 1_555
C14 H16 1_555 1_555
C15 C14 1_555 1_555
C16 C15 1_555 1_555
H17 C16 1_555 1_555
C17 C16 1_555 1_555
C18 C17 1_555 1_555
H18 C18 1_555 1_555
C19 C18 1_555 1_555
C20 C19 1_555 1_555
C21 O6 1_555 1_555
C22 O8 1_555 1_555
H19 C22 1_555 1_555
H20 C22 1_555 1_555
H21 C22 1_555 1_555
C23 O9 1_555 1_555
H22 C23 1_555 1_555
H23 C23 1_555 1_555
H24 C23 1_555 1_555
C24 O10 1_555 1_555
H25 C24 1_555 1_555
H26 C24 1_555 1_555
C25 C26 1_555 1_555
C26 H27 1_555 1_555
C27 C26 1_555 1_555
C28 C27 1_555 1_555
H28 C28 1_555 1_555
C29 C28 1_555 1_555
C30 C29 1_555 1_555
H29 C30 1_555 1_555
C31 C30 1_555 1_555
C32 C31 1_555 1_555
C33 O11 1_555 1_555
C34 O13 1_555 1_555
H30 C34 1_555 1_555
H31 C34 1_555 1_555
H32 C34 1_555 1_555
C35 O14 1_555 1_555
H33 C35 1_555 1_555
H34 C35 1_555 1_555
H35 C35 1_555 1_555
C36 O15 1_555 1_555
H36 C36 1_555 1_555
H37 C36 1_555 1_555
C37 C38 1_555 1_555
C38 H38 1_555 1_555
C39 C38 1_555 1_555
C40 C39 1_555 1_555
H39 C40 1_555 1_555
C41 C40 1_555 1_555
C42 C41 1_555 1_555
H40 C42 1_555 1_555
C43 C42 1_555 1_555
C44 C43 1_555 1_555
C45 O16 1_555 1_555
C46 O18 1_555 1_555
H41 C46 1_555 1_555
H42 C46 1_555 1_555
H43 C46 1_555 1_555
C47 O19 1_555 1_555
H44 C47 1_555 1_555
H45 C47 1_555 1_555
H46 C47 1_555 1_555
C48 O20 1_555 1_555
H47 C48 1_555 1_555
H48 C48 1_555 1_555
C1 C9 1_555 1_555
C5 C9 1_555 1_555
C7 C12 1_555 1_555
C13 C21 1_555 1_555
C17 C21 1_555 1_555
C19 C24 1_555 1_555
C25 C33 1_555 1_555
C29 C33 1_555 1_555
C31 C36 1_555 1_555
C37 C45 1_555 1_555
C41 C45 1_555 1_555
C43 C48 1_555 1_555

#END
