
#######################################################################
#
#                 Cambridge Crystallographic Data Centre
#                                CCDC 
#
#######################################################################
#
# If this CIF has been generated from an entry in the Cambridge 
# Structural Database, then it will include bibliographic, chemical, 
# crystal, experimental, refinement or atomic coordinate data resulting 
# from the CCDC's data processing and validation procedures.
#
#######################################################################

data_JODQID
_chemical_formula_moiety         'C21 H18 O6'
_chemical_name_systematic        
't-Butyl 6-benzoyl-5-hydroxy-2-oxo-2H-chromene-4-carboxylate'
_symmetry_cell_setting           monoclinic
_symmetry_space_group_name_H-M   'C 2/c'
_symmetry_Int_Tables_number      15
_space_group_name_Hall           '-C 2yn'
loop_
_symmetry_equiv_pos_site_id
_symmetry_equiv_pos_as_xyz
1 x,y,z
2 1/2+x,1/2+y,z
3 -x,y,1/2-z
4 1/2-x,1/2+y,1/2-z
5 -x,-y,-z
6 1/2-x,1/2-y,-z
7 x,-y,1/2+z
8 1/2+x,1/2-y,1/2+z
_cell_length_a                   22.1263(12)
_cell_length_b                   7.3012(4)
_cell_length_c                   22.5428(12)
_cell_angle_alpha                90
_cell_angle_beta                 103.118(5)
_cell_angle_gamma                90
_cell_volume                     3546.72
_exptl_crystal_colour            yellow
_exptl_crystal_description       prism
_cell_formula_units_Z            8
loop_
_atom_site_label
_atom_site_type_symbol
_atom_site_fract_x
_atom_site_fract_y
_atom_site_fract_z
O1 O 0.27083(5) 0.49509(14) -0.00338(4)
O2 O 0.31516(5) 0.40901(17) -0.07737(5)
O3 O 0.37885(4) 0.81605(14) 0.17284(5)
H1 H 0.3736 0.8608 0.2104
O4 O 0.47858(5) 0.59637(15) 0.13012(5)
O5 O 0.45958(5) 0.87074(14) 0.08203(5)
O6 O 0.32210(5) 0.86656(15) 0.25741(5)
C1 C 0.32191(7) 0.4839(2) -0.02871(7)
C2 C 0.37934(7) 0.5618(2) 0.00649(7)
H2 H 0.4157 0.5540 -0.0091
C3 C 0.38259(7) 0.6445(2) 0.06039(7)
C4 C 0.32758(6) 0.66005(19) 0.08451(6)
C5 C 0.32623(6) 0.74176(19) 0.14099(6)
C6 C 0.27130(7) 0.74050(19) 0.16279(6)
C7 C 0.21878(7) 0.6537(2) 0.12773(7)
H3 H 0.1820 0.6489 0.1428
C8 C 0.21862(7) 0.5753(2) 0.07237(7)
H4 H 0.1822 0.5194 0.0489
C9 C 0.27314(7) 0.57971(19) 0.05135(6)
C10 C 0.44592(7) 0.7019(2) 0.09627(6)
C11 C 0.52015(7) 0.9548(2) 0.11350(7)
C12 C 0.51638(9) 1.1439(2) 0.08531(8)
H5 H 0.5134 1.1328 0.0414
H6 H 0.5537 1.2136 0.1039
H7 H 0.4796 1.2075 0.0923
C13 C 0.52297(8) 0.9669(2) 0.18124(7)
H8 H 0.5250 0.8432 0.1985
H9 H 0.4858 1.0292 0.1877
H10 H 0.5600 1.0360 0.2013
C14 C 0.57332(7) 0.8450(3) 0.09914(8)
H11 H 0.5722 0.7199 0.1146
H12 H 0.6128 0.9028 0.1186
H13 H 0.5692 0.8415 0.0549
C15 C 0.27236(7) 0.81611(19) 0.22348(7)
C16 C 0.21450(7) 0.82855(19) 0.24640(6)
C17 C 0.15998(7) 0.9054(2) 0.21202(7)
H14 H 0.1586 0.9490 0.1720
C18 C 0.10785(7) 0.9184(2) 0.23601(7)
H15 H 0.0711 0.9734 0.2129
C19 C 0.10947(8) 0.8505(2) 0.29417(8)
H16 H 0.0734 0.8566 0.3103
C20 C 0.16345(8) 0.7745(2) 0.32831(7)
H17 H 0.1642 0.7276 0.3678
C21 C 0.21615(7) 0.7663(2) 0.30550(7)
H18 H 0.2536 0.7184 0.3299
loop_
_geom_bond_atom_site_label_1
_geom_bond_atom_site_label_2
_geom_bond_site_symmetry_1
_geom_bond_site_symmetry_2
O1 C1 1_555 1_555
O2 C1 1_555 1_555
O3 H1 1_555 1_555
O4 C10 1_555 1_555
O5 C10 1_555 1_555
O6 C15 1_555 1_555
C1 C2 1_555 1_555
C2 H2 1_555 1_555
C3 C2 1_555 1_555
C4 C3 1_555 1_555
C5 O3 1_555 1_555
C6 C5 1_555 1_555
C7 C6 1_555 1_555
H3 C7 1_555 1_555
C8 C7 1_555 1_555
H4 C8 1_555 1_555
C9 O1 1_555 1_555
C10 C3 1_555 1_555
C11 O5 1_555 1_555
C12 C11 1_555 1_555
H5 C12 1_555 1_555
H6 C12 1_555 1_555
H7 C12 1_555 1_555
C13 C11 1_555 1_555
H8 C13 1_555 1_555
H9 C13 1_555 1_555
H10 C13 1_555 1_555
C14 C11 1_555 1_555
H11 C14 1_555 1_555
H12 C14 1_555 1_555
H13 C14 1_555 1_555
C15 C6 1_555 1_555
C16 C15 1_555 1_555
C17 C16 1_555 1_555
H14 C17 1_555 1_555
C18 C17 1_555 1_555
H15 C18 1_555 1_555
C19 C18 1_555 1_555
H16 C19 1_555 1_555
C20 C19 1_555 1_555
H17 C20 1_555 1_555
C21 C16 1_555 1_555
H18 C21 1_555 1_555
C4 C5 1_555 1_555
C4 C9 1_555 1_555
C8 C9 1_555 1_555
C20 C21 1_555 1_555

#END
