
#######################################################################
#
#                 Cambridge Crystallographic Data Centre
#                                CCDC 
#
#######################################################################
#
# If this CIF has been generated from an entry in the Cambridge 
# Structural Database, then it will include bibliographic, chemical, 
# crystal, experimental, refinement or atomic coordinate data resulting 
# from the CCDC's data processing and validation procedures.
#
#######################################################################

data_JODREA01
_chemical_formula_moiety         'C30 H36 N4 O3'
_chemical_name_systematic        
3',6'-bis(Diethylamino)-2-((2-hydroxyethyl)amino)spiro[isoindole-1,9'-xanthen]-3(2H)-one
_symmetry_cell_setting           monoclinic
_symmetry_space_group_name_H-M   'P 21/c'
_symmetry_Int_Tables_number      14
_space_group_name_Hall           '-P 2ybc'
loop_
_symmetry_equiv_pos_site_id
_symmetry_equiv_pos_as_xyz
1 x,y,z
2 -x,1/2+y,1/2-z
3 -x,-y,-z
4 x,1/2-y,1/2+z
_cell_length_a                   12.269(4)
_cell_length_b                   12.203(4)
_cell_length_c                   18.458(6)
_cell_angle_alpha                90
_cell_angle_beta                 108.127(5)
_cell_angle_gamma                90
_cell_volume                     2626.35
_exptl_crystal_colour            white
_exptl_crystal_description       block
_cell_formula_units_Z            4
loop_
_atom_site_label
_atom_site_type_symbol
_atom_site_fract_x
_atom_site_fract_y
_atom_site_fract_z
O1 O 0.02779(11) 0.63551(12) 0.15665(9)
O2 O -0.40178(12) 0.91274(15) 0.13067(9)
O3 O -0.34132(15) 0.9162(2) 0.28884(13)
H1 H -0.370(3) 0.915(3) 0.232(2)
N1 N 0.31949(16) 0.86643(19) 0.30367(13)
N2 N -0.19898(16) 0.38340(17) -0.02009(11)
N3 N -0.22666(13) 0.83188(15) 0.15192(9)
N4 N -0.23247(17) 0.76085(17) 0.20976(11)
H2 H -0.313(2) 0.749(2) 0.2013(14)
C1 C 0.05554(16) 0.74041(19) 0.18219(11)
C2 C 0.16682(17) 0.7528(2) 0.22812(12)
H3 H 0.2155 0.6925 0.2386
C3 C 0.20776(17) 0.8541(2) 0.25922(13)
C4 C 0.13007(17) 0.94070(19) 0.24316(12)
H4 H 0.1530 1.0093 0.2643
C5 C 0.02040(17) 0.92561(18) 0.19652(12)
H5 H -0.0292 0.9853 0.1863
C6 C -0.02056(15) 0.82580(18) 0.16369(11)
C7 C -0.14135(15) 0.81057(17) 0.11196(11)
C8 C -0.15672(16) 0.69727(18) 0.07841(11)
C9 C -0.25529(17) 0.6667(2) 0.02086(13)
H6 H -0.3130 0.7186 0.0030
C10 C -0.27173(19) 0.5653(2) -0.01066(13)
H7 H -0.3398 0.5491 -0.0487
C11 C -0.18663(17) 0.48494(19) 0.01373(12)
C12 C -0.08854(17) 0.51411(19) 0.07132(12)
H8 H -0.0307 0.4626 0.0898
C13 C -0.07482(16) 0.61794(18) 0.10178(11)
C14 C 0.4083(4) 0.7842(6) 0.2970(4)
H9 H 0.3815 0.7481 0.2478
H10 H 0.4792 0.8221 0.3002
C15 C 0.4301(7) 0.7010(7) 0.3586(4)
H11 H 0.4863 0.6496 0.3533
H12 H 0.3601 0.6631 0.3550
H13 H 0.4580 0.7367 0.4072
C16 C 0.3656(2) 0.9732(2) 0.33183(16)
H14 H 0.4332 0.9633 0.3757
H15 H 0.3092 1.0128 0.3485
C17 C 0.3969(2) 1.0400(3) 0.27363(18)
H16 H 0.4269 1.1094 0.2953
H17 H 0.3299 1.0517 0.2305
H18 H 0.4539 1.0020 0.2576
C18 C -0.3044(2) 0.3522(2) -0.07672(14)
H19 H -0.2890 0.2907 -0.1054
H20 H -0.3301 0.4127 -0.1120
C19 C -0.3997(2) 0.3211(3) -0.04619(17)
H21 H -0.4665 0.3023 -0.0877
H22 H -0.4170 0.3817 -0.0185
H23 H -0.3766 0.2592 -0.0127
C20 C -0.1110(2) 0.2997(2) 0.00744(14)
H24 H -0.0363 0.3339 0.0183
H25 H -0.1183 0.2465 -0.0328
C21 C -0.1165(2) 0.2407(2) 0.07736(15)
H26 H -0.0561 0.1874 0.0921
H27 H -0.1893 0.2047 0.0668
H28 H -0.1075 0.2924 0.1180
C22 C -0.34216(19) 1.0120(2) -0.00789(14)
H29 H -0.4118 1.0420 -0.0078
C23 C -0.2949(2) 1.0373(2) -0.06426(14)
H30 H -0.3340 1.0832 -0.1041
C24 C -0.1899(2) 0.9951(2) -0.06186(14)
H31 H -0.1574 1.0154 -0.0991
C25 C -0.13217(19) 0.9237(2) -0.00578(13)
H32 H -0.0617 0.8949 -0.0051
C26 C -0.18049(16) 0.89571(18) 0.04935(12)
C27 C -0.28307(16) 0.94066(18) 0.04841(12)
C28 C -0.31390(17) 0.89661(19) 0.11342(12)
C29 C -0.1807(2) 0.8051(3) 0.28589(13)
H33 H -0.0986 0.8101 0.2953
H34 H -0.1933 0.7534 0.3224
C30 C -0.2233(2) 0.9153(3) 0.30112(16)
H35 H -0.1842 0.9361 0.3535
H36 H -0.2048 0.9693 0.2682
C31? C 0.3796(13) 0.7676(16) 0.3463(9)
H37? H 0.4289 0.7869 0.3969
H38? H 0.3254 0.7120 0.3505
C32? C 0.4469(17) 0.731(2) 0.2969(13)
H39? H 0.4904 0.6668 0.3187
H40? H 0.4983 0.7881 0.2928
H41? H 0.3959 0.7135 0.2472
loop_
_geom_bond_atom_site_label_1
_geom_bond_atom_site_label_2
_geom_bond_site_symmetry_1
_geom_bond_site_symmetry_2
O1 C1 1_555 1_555
O2 C28 1_555 1_555
O3 H1 1_555 1_555
N1 C3 1_555 1_555
N2 C11 1_555 1_555
N3 N4 1_555 1_555
N4 H2 1_555 1_555
C1 C2 1_555 1_555
C2 H3 1_555 1_555
C3 C2 1_555 1_555
C4 C3 1_555 1_555
H4 C4 1_555 1_555
C5 C4 1_555 1_555
H5 C5 1_555 1_555
C6 C1 1_555 1_555
C7 N3 1_555 1_555
C8 C7 1_555 1_555
C9 C8 1_555 1_555
H6 C9 1_555 1_555
C10 C9 1_555 1_555
H7 C10 1_555 1_555
C11 C10 1_555 1_555
C12 C11 1_555 1_555
H8 C12 1_555 1_555
C13 O1 1_555 1_555
C14 N1 1_555 1_555
H9 C14 1_555 1_555
H10 C14 1_555 1_555
C15 C14 1_555 1_555
H11 C15 1_555 1_555
H12 C15 1_555 1_555
H13 C15 1_555 1_555
C16 N1 1_555 1_555
H14 C16 1_555 1_555
H15 C16 1_555 1_555
C17 C16 1_555 1_555
H16 C17 1_555 1_555
H17 C17 1_555 1_555
H18 C17 1_555 1_555
C18 N2 1_555 1_555
H19 C18 1_555 1_555
H20 C18 1_555 1_555
C19 C18 1_555 1_555
H21 C19 1_555 1_555
H22 C19 1_555 1_555
H23 C19 1_555 1_555
C20 N2 1_555 1_555
H24 C20 1_555 1_555
H25 C20 1_555 1_555
C21 C20 1_555 1_555
H26 C21 1_555 1_555
H27 C21 1_555 1_555
H28 C21 1_555 1_555
C22 H29 1_555 1_555
C23 C22 1_555 1_555
H30 C23 1_555 1_555
C24 C23 1_555 1_555
H31 C24 1_555 1_555
C25 C24 1_555 1_555
H32 C25 1_555 1_555
C26 C7 1_555 1_555
C27 C22 1_555 1_555
C28 N3 1_555 1_555
C29 N4 1_555 1_555
H33 C29 1_555 1_555
H34 C29 1_555 1_555
C30 O3 1_555 1_555
H35 C30 1_555 1_555
H36 C30 1_555 1_555
C5 C6 1_555 1_555
C6 C7 1_555 1_555
C8 C13 1_555 1_555
C12 C13 1_555 1_555
C25 C26 1_555 1_555
C26 C27 1_555 1_555
C27 C28 1_555 1_555
C29 C30 1_555 1_555

#END
