
#######################################################################
#
#                 Cambridge Crystallographic Data Centre
#                                CCDC 
#
#######################################################################
#
# If this CIF has been generated from an entry in the Cambridge 
# Structural Database, then it will include bibliographic, chemical, 
# crystal, experimental, refinement or atomic coordinate data resulting 
# from the CCDC's data processing and validation procedures.
#
#######################################################################

data_JODSEB
_chemical_formula_moiety         'C21 H17 N1 O1'
_chemical_name_systematic        (Z)-3-Anilino-1,3-diphenylprop-2-en-1-one
_symmetry_cell_setting           monoclinic
_symmetry_space_group_name_H-M   'P 21/c'
_symmetry_Int_Tables_number      14
_space_group_name_Hall           '-P 2ybc'
loop_
_symmetry_equiv_pos_site_id
_symmetry_equiv_pos_as_xyz
1 x,y,z
2 -x,1/2+y,1/2-z
3 -x,-y,-z
4 x,1/2-y,1/2+z
_cell_length_a                   15.880(7)
_cell_length_b                   6.034(3)
_cell_length_c                   18.401(8)
_cell_angle_alpha                90
_cell_angle_beta                 114.433(7)
_cell_angle_gamma                90
_cell_volume                     1605.28
_exptl_crystal_colour            yellow
_exptl_crystal_description       block
_cell_formula_units_Z            4
_exptl_crystal_recrystallization_method 'ethyl acetate/cyclohexane'
loop_
_atom_site_label
_atom_site_type_symbol
_atom_site_fract_x
_atom_site_fract_y
_atom_site_fract_z
O1 O 0.2315(2) 0.0638(5) 0.19524(16)
N1 N 0.3124(2) -0.1522(6) 0.11657(19)
H1 H 0.3021 -0.1332 0.1585
C1 C 0.1066(3) 0.5369(7) 0.0895(2)
H2 H 0.1389 0.5646 0.0582
C2 C 0.0442(3) 0.6921(8) 0.0932(3)
H3 H 0.0358 0.8249 0.0654
C3 C -0.0053(3) 0.6511(10) 0.1376(3)
H4 H -0.0474 0.7553 0.1396
C4 C 0.0075(4) 0.4553(11) 0.1792(3)
H5 H -0.0267 0.4262 0.2087
C5 C 0.0711(3) 0.3018(9) 0.1771(3)
H6 H 0.0804 0.1709 0.2061
C6 C 0.1212(3) 0.3424(7) 0.1318(2)
C7 C 0.1904(3) 0.1718(7) 0.1323(2)
C8 C 0.2038(3) 0.1350(7) 0.0618(2)
H7 H 0.1709 0.2233 0.0177
C9 C 0.2619(3) -0.0218(7) 0.0543(2)
C10 C 0.2628(3) -0.0622(7) -0.0250(2)
C11 C 0.2382(3) -0.2677(8) -0.0616(2)
H8 H 0.2253 -0.3840 -0.0346
C12 C 0.2325(3) -0.3011(8) -0.1375(2)
H9 H 0.2151 -0.4388 -0.1619
C13 C 0.2526(3) -0.1323(9) -0.1769(3)
H10 H 0.2491 -0.1554 -0.2281
C14 C 0.2776(4) 0.0702(9) -0.1418(3)
H11 H 0.2913 0.1846 -0.1690
C15 C 0.2828(3) 0.1064(8) -0.0654(3)
H12 H 0.2997 0.2450 -0.0418
C16 C 0.3797(3) -0.3154(7) 0.1242(2)
C17 C 0.3834(3) -0.5000(7) 0.1687(2)
H13 H 0.3408 -0.5166 0.1910
C18 C 0.4486(4) -0.6602(8) 0.1808(3)
H14 H 0.4510 -0.7834 0.2120
C19 C 0.5104(4) -0.6391(10) 0.1473(3)
H15 H 0.5539 -0.7497 0.1544
C20 C 0.5083(3) -0.4551(12) 0.1031(3)
H16 H 0.5509 -0.4409 0.0807
C21 C 0.4432(3) -0.2894(9) 0.0914(3)
H17 H 0.4424 -0.1633 0.0620
loop_
_geom_bond_atom_site_label_1
_geom_bond_atom_site_label_2
_geom_bond_site_symmetry_1
_geom_bond_site_symmetry_2
O1 C7 1_555 1_555
N1 H1 1_555 1_555
C1 H2 1_555 1_555
C2 C1 1_555 1_555
H3 C2 1_555 1_555
C3 C2 1_555 1_555
H4 C3 1_555 1_555
C4 C3 1_555 1_555
H5 C4 1_555 1_555
C5 C4 1_555 1_555
H6 C5 1_555 1_555
C6 C1 1_555 1_555
C7 C6 1_555 1_555
C8 C7 1_555 1_555
H7 C8 1_555 1_555
C9 N1 1_555 1_555
C10 C9 1_555 1_555
C11 C10 1_555 1_555
H8 C11 1_555 1_555
C12 C11 1_555 1_555
H9 C12 1_555 1_555
C13 C12 1_555 1_555
H10 C13 1_555 1_555
C14 C13 1_555 1_555
H11 C14 1_555 1_555
C15 C10 1_555 1_555
H12 C15 1_555 1_555
C16 N1 1_555 1_555
C17 C16 1_555 1_555
H13 C17 1_555 1_555
C18 C17 1_555 1_555
H14 C18 1_555 1_555
C19 C18 1_555 1_555
H15 C19 1_555 1_555
C20 C19 1_555 1_555
H16 C20 1_555 1_555
C21 C16 1_555 1_555
H17 C21 1_555 1_555
C5 C6 1_555 1_555
C8 C9 1_555 1_555
C14 C15 1_555 1_555
C20 C21 1_555 1_555

#END
