
#######################################################################
#
#                 Cambridge Crystallographic Data Centre
#                                CCDC 
#
#######################################################################
#
# If this CIF has been generated from an entry in the Cambridge 
# Structural Database, then it will include bibliographic, chemical, 
# crystal, experimental, refinement or atomic coordinate data resulting 
# from the CCDC's data processing and validation procedures.
#
#######################################################################

data_JODTUT
_chemical_formula_moiety         'C21 H17 I3 O3'
_chemical_name_systematic        
3,4,4'-triiodo-3'-(4-methoxyphenyl)-5,5-dimethyl-5H-spiro[furan-2,1'-isochromene]
_symmetry_cell_setting           triclinic
_symmetry_space_group_name_H-M   'P -1'
_symmetry_Int_Tables_number      2
_space_group_name_Hall           '-P 1'
loop_
_symmetry_equiv_pos_site_id
_symmetry_equiv_pos_as_xyz
1 x,y,z
2 -x,-y,-z
_cell_length_a                   9.5417(5)
_cell_length_b                   10.2550(7)
_cell_length_c                   12.6145(8)
_cell_angle_alpha                73.414(6)
_cell_angle_beta                 84.654(5)
_cell_angle_gamma                68.761(5)
_cell_volume                     1102.55
_exptl_crystal_colour            'light colorless'
_exptl_crystal_description       block
_cell_formula_units_Z            2
loop_
_atom_site_label
_atom_site_type_symbol
_atom_site_fract_x
_atom_site_fract_y
_atom_site_fract_z
I1 I 0.52928(4) 0.61276(5) 0.16627(3)
I2 I 1.33747(4) 0.27581(4) 0.17428(3)
I3 I 0.42847(5) 0.82241(5) 0.38473(4)
O1 O 0.8822(4) 0.5235(4) 0.3922(3)
C1 C 0.6676(6) 0.5984(5) 0.2882(4)
O2 O 0.8956(4) 0.5864(3) 0.1998(3)
C2 C 1.0883(6) 0.7514(5) 0.1449(4)
H1 H 1.0397 0.7598 0.2114
C3 C 0.8322(6) 0.5110(5) 0.2953(4)
O3 O 1.2785(6) 0.9424(5) -0.0792(4)
C4 C 1.1447(7) 0.8583(6) 0.0849(5)
H2 H 1.1347 0.9371 0.1114
C5 C 1.0212(6) 0.2851(5) 0.2597(4)
C6 C 1.1036(5) 0.6328(5) 0.1068(4)
C7 C 0.7655(6) 0.6271(5) 0.4396(4)
C8 C 0.8824(6) 0.3523(5) 0.3007(4)
C9 C 0.8425(8) 0.1249(6) 0.3639(5)
H3 H 0.7818 0.0716 0.3974
C10 C 0.7920(7) 0.2728(6) 0.3521(4)
H4 H 0.6979 0.3189 0.3784
C11 C 1.2153(6) 0.8462(6) -0.0135(4)
C12 C 0.6326(6) 0.6689(5) 0.3646(4)
C13 C 1.0443(6) 0.5209(5) 0.1719(4)
C14 C 0.9823(8) 0.0563(6) 0.3264(5)
H5 H 1.0169 -0.0437 0.3368
C15 C 1.0714(7) 0.1345(5) 0.2737(4)
H6 H 1.1649 0.0875 0.2472
C16 C 1.1084(5) 0.3764(5) 0.2030(4)
C17 C 1.1722(7) 0.6252(6) 0.0066(4)
H7 H 1.1809 0.5479 -0.0212
C18 C 0.7410(8) 0.5481(7) 0.5572(5)
H8 H 0.7245 0.4611 0.5574
H9 H 0.6549 0.6099 0.5872
H10 H 0.8283 0.5232 0.6015
C19 C 1.2282(7) 0.7305(6) -0.0531(4)
H11 H 1.2748 0.7234 -0.1204
C20 C 0.8150(8) 0.7535(6) 0.4356(6)
H12 H 0.9145 0.7169 0.4666
H13 H 0.7467 0.8143 0.4775
H14 H 0.8151 0.8093 0.3602
C21 C 1.2852(9) 1.0531(7) -0.0342(7)
H15 H 1.3416 1.1064 -0.0826
H16 H 1.3333 1.0093 0.0372
H17 H 1.1851 1.1182 -0.0271
loop_
_geom_bond_atom_site_label_1
_geom_bond_atom_site_label_2
_geom_bond_site_symmetry_1
_geom_bond_site_symmetry_2
I1 C1 1_555 1_555
I2 C16 1_555 1_555
I3 C12 1_555 1_555
O1 C3 1_555 1_555
C1 C3 1_555 1_555
O2 C3 1_555 1_555
C2 H1 1_555 1_555
C3 C8 1_555 1_555
O3 C11 1_555 1_555
C4 C2 1_555 1_555
H2 C4 1_555 1_555
C5 C8 1_555 1_555
C6 C2 1_555 1_555
C7 O1 1_555 1_555
C8 C10 1_555 1_555
C9 H3 1_555 1_555
C10 C9 1_555 1_555
H4 C10 1_555 1_555
C11 C4 1_555 1_555
C12 C1 1_555 1_555
C13 O2 1_555 1_555
C14 C9 1_555 1_555
H5 C14 1_555 1_555
C15 C5 1_555 1_555
H6 C15 1_555 1_555
C16 C5 1_555 1_555
C17 C6 1_555 1_555
H7 C17 1_555 1_555
C18 C7 1_555 1_555
H8 C18 1_555 1_555
H9 C18 1_555 1_555
H10 C18 1_555 1_555
C19 C11 1_555 1_555
H11 C19 1_555 1_555
C20 C7 1_555 1_555
H12 C20 1_555 1_555
H13 C20 1_555 1_555
H14 C20 1_555 1_555
C21 O3 1_555 1_555
H15 C21 1_555 1_555
H16 C21 1_555 1_555
H17 C21 1_555 1_555
C6 C13 1_555 1_555
C7 C12 1_555 1_555
C13 C16 1_555 1_555
C14 C15 1_555 1_555
C17 C19 1_555 1_555

#END
