
#######################################################################
#
#                 Cambridge Crystallographic Data Centre
#                                CCDC 
#
#######################################################################
#
# If this CIF has been generated from an entry in the Cambridge 
# Structural Database, then it will include bibliographic, chemical, 
# crystal, experimental, refinement or atomic coordinate data resulting 
# from the CCDC's data processing and validation procedures.
#
#######################################################################

data_JODVAB
_chemical_formula_moiety         'C21 H17 Cl1 I2 O3'
_chemical_name_systematic        
4-chloro-3,4'-diiodo-3'-(4-methoxyphenyl)-5,5-dimethyl-5H-spiro[furan-2,1'-isochromene]
_symmetry_cell_setting           triclinic
_symmetry_space_group_name_H-M   'P -1'
_symmetry_Int_Tables_number      2
_space_group_name_Hall           '-P 1'
loop_
_symmetry_equiv_pos_site_id
_symmetry_equiv_pos_as_xyz
1 x,y,z
2 -x,-y,-z
_cell_length_a                   9.6504(11)
_cell_length_b                   10.0633(12)
_cell_length_c                   12.6865(12)
_cell_angle_alpha                73.782(10)
_cell_angle_beta                 80.037(9)
_cell_angle_gamma                62.461(12)
_cell_volume                     1047.59
_exptl_crystal_colour            'light colorless'
_exptl_crystal_description       block
_cell_formula_units_Z            2
loop_
_atom_site_label
_atom_site_type_symbol
_atom_site_fract_x
_atom_site_fract_y
_atom_site_fract_z
I1 I 0.01162(5) 1.14185(5) 0.19242(3)
I2 I 0.86767(5) 0.74742(5) 0.16353(3)
Cl1 Cl -0.0620(2) 1.3168(2) 0.41885(13)
O1 O 0.3937(5) 1.0911(4) 0.2045(3)
O2 O 0.3847(5) 1.0279(5) 0.3951(3)
O3 O 0.7738(5) 1.4366(5) -0.0853(3)
C1 C 0.3353(6) 1.0146(7) 0.3017(4)
C2 C 0.3915(7) 0.8480(7) 0.3048(4)
C3 C 0.3083(8) 0.7675(7) 0.3603(4)
H1 H 0.2090 0.8203 0.3905
C4 C 0.3673(8) 0.6110(7) 0.3725(5)
H2 H 0.3073 0.5596 0.4085
C5 C 0.5174(8) 0.5308(7) 0.3307(5)
H3 H 0.5598 0.4246 0.3401
C6 C 0.6043(7) 0.6099(6) 0.2746(4)
H4 H 0.7043 0.5555 0.2459
C7 C 0.5452(7) 0.7680(7) 0.2603(4)
C8 C 0.6264(7) 0.8602(7) 0.2004(4)
C9 C 0.5494(7) 1.0138(6) 0.1725(4)
C10 C 0.1594(7) 1.1139(7) 0.3052(4)
C11 C 0.1203(7) 1.1850(7) 0.3856(4)
C12 C 0.2564(7) 1.1375(7) 0.4524(5)
C13 C 0.2948(8) 1.2683(7) 0.4494(6)
H5 H 0.3918 1.2281 0.4837
H6 H 0.2128 1.3397 0.4882
H7 H 0.3043 1.3201 0.3745
C14 C 0.2389(8) 1.0496(8) 0.5687(5)
H8 H 0.2111 0.9705 0.5661
H9 H 0.1583 1.1192 0.6095
H10 H 0.3361 1.0037 0.6039
C15 C 0.6080(7) 1.1248(7) 0.1053(4)
C16 C 0.5901(6) 1.2471(7) 0.1440(4)
H11 H 0.5410 1.2579 0.2130
C17 C 0.6424(7) 1.3541(7) 0.0842(5)
H12 H 0.6301 1.4346 0.1130
C18 C 0.7138(7) 1.3399(6) -0.0197(5)
C19 C 0.7270(7) 1.2225(7) -0.0624(5)
H13 H 0.7709 1.2155 -0.1331
C20 C 0.6758(8) 1.1152(7) -0.0012(5)
H14 H 0.6862 1.0360 -0.0307
C21 C 0.7786(8) 1.5479(7) -0.0388(5)
H15 H 0.8216 1.6090 -0.0929
H16 H 0.8430 1.4964 0.0234
H17 H 0.6746 1.6133 -0.0158
loop_
_geom_bond_atom_site_label_1
_geom_bond_atom_site_label_2
_geom_bond_site_symmetry_1
_geom_bond_site_symmetry_2
I1 C10 1_555 1_555
I2 C8 1_555 1_555
Cl1 C11 1_555 1_555
O1 C1 1_555 1_555
O2 C1 1_555 1_555
O3 C18 1_555 1_555
C1 C2 1_555 1_555
C2 C3 1_555 1_555
C3 H1 1_555 1_555
C4 C3 1_555 1_555
H2 C4 1_555 1_555
C5 C4 1_555 1_555
H3 C5 1_555 1_555
C6 C5 1_555 1_555
H4 C6 1_555 1_555
C7 C2 1_555 1_555
C8 C7 1_555 1_555
C9 O1 1_555 1_555
C10 C1 1_555 1_555
C11 C10 1_555 1_555
C12 O2 1_555 1_555
C13 C12 1_555 1_555
H5 C13 1_555 1_555
H6 C13 1_555 1_555
H7 C13 1_555 1_555
C14 C12 1_555 1_555
H8 C14 1_555 1_555
H9 C14 1_555 1_555
H10 C14 1_555 1_555
C15 C9 1_555 1_555
C16 C15 1_555 1_555
H11 C16 1_555 1_555
C17 C16 1_555 1_555
H12 C17 1_555 1_555
C18 C17 1_555 1_555
C19 C18 1_555 1_555
H13 C19 1_555 1_555
C20 C15 1_555 1_555
H14 C20 1_555 1_555
C21 O3 1_555 1_555
H15 C21 1_555 1_555
H16 C21 1_555 1_555
H17 C21 1_555 1_555
C6 C7 1_555 1_555
C8 C9 1_555 1_555
C11 C12 1_555 1_555
C19 C20 1_555 1_555

#END
