
#######################################################################
#
#                 Cambridge Crystallographic Data Centre
#                                CCDC 
#
#######################################################################
#
# If this CIF has been generated from an entry in the Cambridge 
# Structural Database, then it will include bibliographic, chemical, 
# crystal, experimental, refinement or atomic coordinate data resulting 
# from the CCDC's data processing and validation procedures.
#
#######################################################################

data_JOFFUG
_chemical_formula_moiety         'C29 H27 Cl2 N5 O2,C4 H8 O1'
_chemical_name_systematic        
'3,5-bis(1-Acetyl-5-(4-chlorophenyl)-4,5-dihydro-1H-pyrazol-3-yl)-2,6-dimethylpyridine tetrahydrofuran solvate'
_symmetry_cell_setting           monoclinic
_symmetry_space_group_name_H-M   'P 21/c'
_symmetry_Int_Tables_number      14
_space_group_name_Hall           '-P 2ybc'
loop_
_symmetry_equiv_pos_site_id
_symmetry_equiv_pos_as_xyz
1 x,y,z
2 -x,1/2+y,1/2-z
3 -x,-y,-z
4 x,1/2-y,1/2+z
_cell_length_a                   16.888(3)
_cell_length_b                   11.180(2)
_cell_length_c                   17.313(4)
_cell_angle_alpha                90
_cell_angle_beta                 98.69(3)
_cell_angle_gamma                90
_cell_volume                     3231.3
_exptl_crystal_colour            colorless
_exptl_crystal_description       prism
_chemical_melting_point          '489-491 K'
_cell_formula_units_Z            4
_exptl_crystal_recrystallization_method tetrahydrofuran
loop_
_atom_site_label
_atom_site_type_symbol
_atom_site_fract_x
_atom_site_fract_y
_atom_site_fract_z
C1 C 0.60818(16) 0.4491(2) 0.07953(16)
C2 C 0.61080(17) 0.4038(2) 0.00456(17)
C3 C 0.5585(2) 0.3053(3) -0.03305(18)
H1 H 0.5763 0.2822 -0.0810
H2 H 0.5041 0.3327 -0.0438
H3 H 0.5617 0.2378 0.0015
N1 N 0.66326(15) 0.4459(2) -0.03987(13)
C4 C 0.71460(17) 0.5337(3) -0.01436(16)
C5 C 0.7692(2) 0.5687(3) -0.07116(18)
H4 H 0.7591 0.5185 -0.1165
H5 H 0.8239 0.5594 -0.0470
H6 H 0.7597 0.6507 -0.0863
C6 C 0.71516(16) 0.5856(2) 0.05992(16)
C7 C 0.55499(17) 0.4029(3) 0.13232(16)
C8 C 0.56623(19) 0.4295(3) 0.21808(17)
H7 H 0.5641 0.5149 0.2275
H8 H 0.6170 0.3986 0.2440
C9 C 0.49590(18) 0.3651(3) 0.24637(16)
H9 H 0.5166 0.3034 0.2843
C10 C 0.43991(17) 0.4448(3) 0.28162(16)
C11 C 0.4319(2) 0.4375(3) 0.35906(19)
H10 H 0.4622 0.3818 0.3906
C12 C 0.3796(2) 0.5111(3) 0.3915(2)
H11 H 0.3751 0.5048 0.4442
C13 C 0.3353(2) 0.5921(3) 0.3460(2)
C14 C 0.3422(2) 0.6030(3) 0.2690(2)
H12 H 0.3123 0.6597 0.2380
C15 C 0.3946(2) 0.5282(3) 0.23771(19)
H13 H 0.3989 0.5352 0.1850
C16 C 0.40085(19) 0.2213(3) 0.1693(2)
C17 C 0.3759(2) 0.1615(3) 0.0924(2)
H14 H 0.4167 0.1062 0.0826
H15 H 0.3683 0.2206 0.0517
H16 H 0.3266 0.1191 0.0934
C18 C 0.76779(17) 0.6835(2) 0.09060(17)
C19 C 0.82785(18) 0.8467(3) 0.16815(18)
H17 H 0.7995 0.9234 0.1628
C20 C 0.7666(2) 0.7438(3) 0.16844(18)
H18 H 0.7830 0.6890 0.2113
H19 H 0.7137 0.7746 0.1726
C21 C 0.9101(2) 0.8921(3) 0.0629(2)
C22 C 0.9350(3) 0.8490(4) -0.0120(2)
H20 H 0.9754 0.9012 -0.0265
H21 H 0.8894 0.8489 -0.0526
H22 H 0.9560 0.7693 -0.0049
C23 C 0.89355(19) 0.8516(3) 0.23768(18)
C24 C 0.9417(2) 0.7542(3) 0.2596(2)
H23 H 0.9321 0.6827 0.2324
C25 C 1.0037(3) 0.7608(4) 0.3210(2)
H24 H 1.0359 0.6945 0.3353
C26 C 1.0171(3) 0.8655(5) 0.3602(2)
C27 C 0.9697(3) 0.9627(4) 0.3417(2)
H25 H 0.9789 1.0331 0.3703
C28 C 0.9079(2) 0.9559(3) 0.2799(2)
H26 H 0.8755 1.0223 0.2667
Cl1 Cl 1.09785(9) 0.87718(15) 0.43586(8)
Cl2 Cl 0.26751(7) 0.68157(10) 0.38565(7)
C33 C 0.66139(16) 0.5401(2) 0.10563(15)
H35 H 0.6610 0.5716 0.1553
N2 N 0.49515(14) 0.3347(2) 0.10922(13)
N3 N 0.45775(15) 0.3068(2) 0.17305(14)
N4 N 0.82032(15) 0.7275(2) 0.05271(14)
N5 N 0.85993(15) 0.8201(2) 0.09521(14)
O1 O 0.37297(14) 0.19533(19) 0.22848(14)
O2 O 0.93475(17) 0.9838(2) 0.09668(14)
C29 C 0.7975(7) 0.4446(8) 0.3062(6)
H27 H 0.7778 0.4645 0.2521
H28 H 0.8069 0.5180 0.3359
C30 C 0.8602(6) 0.3835(13) 0.3112(7)
H29 H 0.9071 0.4317 0.3291
H30 H 0.8659 0.3474 0.2614
C31 C 0.8479(8) 0.2933(8) 0.3685(10)
H31 H 0.8321 0.2176 0.3435
H32 H 0.8961 0.2815 0.4060
C32 C 0.7871(7) 0.3404(12) 0.4042(4)
H33 H 0.7612 0.2811 0.4327
H34 H 0.8041 0.4083 0.4374
O3 O 0.7430(3) 0.3717(6) 0.3371(5)
loop_
_geom_bond_atom_site_label_1
_geom_bond_atom_site_label_2
_geom_bond_site_symmetry_1
_geom_bond_site_symmetry_2
C1 C2 1_555 1_555
C2 C3 1_555 1_555
C3 H1 1_555 1_555
H2 C3 1_555 1_555
H3 C3 1_555 1_555
N1 C2 1_555 1_555
C4 N1 1_555 1_555
C5 C4 1_555 1_555
H4 C5 1_555 1_555
H5 C5 1_555 1_555
H6 C5 1_555 1_555
C6 C4 1_555 1_555
C7 C1 1_555 1_555
C8 C7 1_555 1_555
H7 C8 1_555 1_555
H8 C8 1_555 1_555
C9 C8 1_555 1_555
H9 C9 1_555 1_555
C10 C9 1_555 1_555
C11 C10 1_555 1_555
H10 C11 1_555 1_555
C12 C11 1_555 1_555
H11 C12 1_555 1_555
C13 C12 1_555 1_555
C14 C13 1_555 1_555
H12 C14 1_555 1_555
C15 C10 1_555 1_555
H13 C15 1_555 1_555
C16 C17 1_555 1_555
C17 H14 1_555 1_555
H15 C17 1_555 1_555
H16 C17 1_555 1_555
C18 C6 1_555 1_555
C19 H17 1_555 1_555
C20 C18 1_555 1_555
H18 C20 1_555 1_555
H19 C20 1_555 1_555
C21 C22 1_555 1_555
C22 H20 1_555 1_555
H21 C22 1_555 1_555
H22 C22 1_555 1_555
C23 C19 1_555 1_555
C24 C23 1_555 1_555
H23 C24 1_555 1_555
C25 C24 1_555 1_555
H24 C25 1_555 1_555
C26 C25 1_555 1_555
C27 C26 1_555 1_555
H25 C27 1_555 1_555
C28 C23 1_555 1_555
H26 C28 1_555 1_555
C29 H27 1_555 1_555
H28 C29 1_555 1_555
C30 C29 1_555 1_555
H29 C30 1_555 1_555
H30 C30 1_555 1_555
C31 C30 1_555 1_555
H31 C31 1_555 1_555
H32 C31 1_555 1_555
C32 C31 1_555 1_555
H33 C32 1_555 1_555
H34 C32 1_555 1_555
Cl1 C26 1_555 1_555
Cl2 C13 1_555 1_555
C33 C1 1_555 1_555
H35 C33 1_555 1_555
N2 C7 1_555 1_555
N3 C9 1_555 1_555
N4 C18 1_555 1_555
N5 C19 1_555 1_555
O1 C16 1_555 1_555
O2 C21 1_555 1_555
O3 C29 1_555 1_555
C6 C33 1_555 1_555
C14 C15 1_555 1_555
C16 N3 1_555 1_555
C19 C20 1_555 1_555
C21 N5 1_555 1_555
C27 C28 1_555 1_555
C32 O3 1_555 1_555
N2 N3 1_555 1_555
N4 N5 1_555 1_555

#END
