
#######################################################################
#
#                 Cambridge Crystallographic Data Centre
#                                CCDC 
#
#######################################################################
#
# If this CIF has been generated from an entry in the Cambridge 
# Structural Database, then it will include bibliographic, chemical, 
# crystal, experimental, refinement or atomic coordinate data resulting 
# from the CCDC's data processing and validation procedures.
#
#######################################################################

data_JOFFER
_chemical_formula_moiety         'C20 H16 Cl1 N3'
_chemical_name_systematic        
2-(5-(4-chlorophenyl)-1-phenyl-4,5-dihydro-1H-pyrazol-3-yl)pyridine
_symmetry_cell_setting           monoclinic
_symmetry_space_group_name_H-M   'P 21/n'
_symmetry_Int_Tables_number      14
_space_group_name_Hall           '-P 2yn'
loop_
_symmetry_equiv_pos_site_id
_symmetry_equiv_pos_as_xyz
1 x,y,z
2 1/2-x,1/2+y,1/2-z
3 -x,-y,-z
4 1/2+x,1/2-y,1/2+z
_cell_length_a                   10.9925(12)
_cell_length_b                   11.0378(12)
_cell_length_c                   14.2751(18)
_cell_angle_alpha                90
_cell_angle_beta                 98.074(11)
_cell_angle_gamma                90
_cell_volume                     1714.87
_exptl_crystal_colour            yellow
_exptl_crystal_description       block
_cell_formula_units_Z            4
loop_
_atom_site_label
_atom_site_type_symbol
_atom_site_fract_x
_atom_site_fract_y
_atom_site_fract_z
Cl1 Cl 0.93976(6) 0.82483(5) 0.16411(4)
N1 N 1.12073(13) 1.55606(16) 0.42384(11)
N2 N 0.91666(13) 1.51678(13) 0.20911(10)
N3 N 0.92882(13) 1.43490(14) 0.13838(10)
C1 C 1.1308(2) 1.6195(2) 0.50529(14)
H1 H 1.2001 1.6062 0.5495
C2 C 1.0469(2) 1.7014(2) 0.52759(15)
H2 H 1.0591 1.7424 0.5851
C3 C 0.9438(2) 1.7221(2) 0.46314(15)
H3 H 0.8843 1.7770 0.4763
C4 C 0.93061(18) 1.65985(18) 0.37876(14)
H4 H 0.8623 1.6731 0.3336
C5 C 1.01952(15) 1.57759(16) 0.36165(12)
C6 C 1.00868(15) 1.50466(15) 0.27496(12)
C7 C 1.09794(16) 1.40901(17) 0.25546(13)
H5 H 1.1040 1.3456 0.3029
H6 H 1.1789 1.4430 0.2533
C8 C 1.04087(15) 1.36069(16) 0.15738(12)
H7 H 1.0955 1.3785 0.1105
C9 C 1.01320(14) 1.22628(16) 0.15748(11)
C10 C 0.91339(16) 1.18172(17) 0.19647(13)
H8 H 0.8612 1.2354 0.2214
C11 C 0.89047(16) 1.05868(18) 0.19879(13)
H9 H 0.8236 1.0294 0.2252
C12 C 0.96848(17) 0.97986(17) 0.16122(13)
C13 C 1.06792(18) 1.02146(18) 0.12207(13)
H10 H 1.1197 0.9675 0.0969
C14 C 1.08994(17) 1.14505(18) 0.12067(13)
H11 H 1.1573 1.1738 0.0946
C15 C 0.85120(15) 1.43961(15) 0.05304(12)
C16 C 0.87246(18) 1.36424(16) -0.02180(13)
H12 H 0.9405 1.3133 -0.0150
C17 C 0.79264(19) 1.36516(18) -0.10602(13)
H13 H 0.8075 1.3145 -0.1552
C18 C 0.69216(18) 1.43985(19) -0.11767(14)
H14 H 0.6378 1.4388 -0.1738
C19 C 0.67262(18) 1.51680(19) -0.04478(15)
H15 H 0.6057 1.5692 -0.0530
C20 C 0.75085(17) 1.51744(17) 0.04034(14)
H16 H 0.7363 1.5697 0.0887
loop_
_geom_bond_atom_site_label_1
_geom_bond_atom_site_label_2
_geom_bond_site_symmetry_1
_geom_bond_site_symmetry_2
Cl1 C12 1_555 1_555
N1 C1 1_555 1_555
N2 N3 1_555 1_555
N3 C8 1_555 1_555
C1 H1 1_555 1_555
C2 C1 1_555 1_555
H2 C2 1_555 1_555
C3 C2 1_555 1_555
H3 C3 1_555 1_555
C4 C3 1_555 1_555
H4 C4 1_555 1_555
C5 N1 1_555 1_555
C6 N2 1_555 1_555
C7 C6 1_555 1_555
H5 C7 1_555 1_555
H6 C7 1_555 1_555
C8 C7 1_555 1_555
H7 C8 1_555 1_555
C9 C8 1_555 1_555
C10 C9 1_555 1_555
H8 C10 1_555 1_555
C11 C10 1_555 1_555
H9 C11 1_555 1_555
C12 C11 1_555 1_555
C13 C12 1_555 1_555
H10 C13 1_555 1_555
C14 C9 1_555 1_555
H11 C14 1_555 1_555
C15 N3 1_555 1_555
C16 C15 1_555 1_555
H12 C16 1_555 1_555
C17 C16 1_555 1_555
H13 C17 1_555 1_555
C18 C17 1_555 1_555
H14 C18 1_555 1_555
C19 C18 1_555 1_555
H15 C19 1_555 1_555
C20 C15 1_555 1_555
H16 C20 1_555 1_555
C4 C5 1_555 1_555
C5 C6 1_555 1_555
C13 C14 1_555 1_555
C19 C20 1_555 1_555

#END
