
#######################################################################
#
#                 Cambridge Crystallographic Data Centre
#                                CCDC 
#
#######################################################################
#
# If this CIF has been generated from an entry in the Cambridge 
# Structural Database, then it will include bibliographic, chemical, 
# crystal, experimental, refinement or atomic coordinate data resulting 
# from the CCDC's data processing and validation procedures.
#
#######################################################################

data_JOFGES
_chemical_formula_moiety         'C52 H68 N16 O12,4(H2 O1)'
_chemical_name_systematic        
'tetraethyl 9,14,33,38-tetraoxo-1,6,8,10,13,15,17,22,25,30,32,34,37,39,41,46-hexadecaazaundecacyclo[44.2.2.2^22,25^.1^6,13^.1^10,17^.1^30,37^.1^34,41^.0^8,12^.0^11,15^.0^32,36^.0^35,39^]hexapentaconta-3,19,27,43-tetrayne-11,12,35,36-tetracarboxylate hydrate'
_symmetry_cell_setting           triclinic
_symmetry_space_group_name_H-M   'P -1'
_symmetry_Int_Tables_number      2
_space_group_name_Hall           '-P 1'
loop_
_symmetry_equiv_pos_site_id
_symmetry_equiv_pos_as_xyz
1 x,y,z
2 -x,-y,-z
_cell_length_a                   10.077(3)
_cell_length_b                   10.642(3)
_cell_length_c                   15.324(5)
_cell_angle_alpha                96.704(5)
_cell_angle_beta                 102.304(5)
_cell_angle_gamma                104.546(5)
_cell_volume                     1528.73
_cell_formula_units_Z            1
loop_
_atom_site_label
_atom_site_type_symbol
_atom_site_fract_x
_atom_site_fract_y
_atom_site_fract_z
C1 C 0.7941(4) 0.6121(3) 0.0628(3)
H1 H 0.7592 0.5711 -0.0008
H2 H 0.7462 0.5540 0.0978
C2 C 0.9497(4) 0.6307(4) 0.0922(3)
H3 H 0.9839 0.6685 0.1563
H4 H 0.9684 0.5456 0.0834
C3 C 0.9916(4) 0.8427(4) 0.0507(3)
H5 H 1.0378 0.8985 0.0138
H6 H 1.0281 0.8870 0.1136
C4 C 0.8365(4) 0.8239(4) 0.0228(3)
H7 H 0.8178 0.9090 0.0314
H8 H 0.8010 0.7853 -0.0412
C5 C 0.6112(4) 0.7219(4) 0.0494(3)
H9 H 0.5951 0.8080 0.0490
H10 H 0.5722 0.6712 -0.0117
C6 C 0.5385(4) 0.6558(4) 0.1103(3)
C7 C 0.4840(4) 0.6016(4) 0.1625(3)
C8 C 0.4210(4) 0.5338(4) 0.2271(3)
H11 H 0.3211 0.4910 0.1999
H12 H 0.4293 0.5972 0.2803
C9 C 0.4158(4) 0.3556(4) 0.3080(3)
H13 H 0.4155 0.4111 0.3628
H14 H 0.3183 0.3149 0.2737
C10 C 0.6383(4) 0.4987(4) 0.3069(3)
H15 H 0.6894 0.5540 0.2718
H16 H 0.6386 0.5541 0.3620
C11 C 0.6333(4) 0.2962(4) 0.3728(2)
C12 C 0.6656(4) 0.3523(5) 0.4744(3)
C13 C 0.6832(4) 0.1774(4) 0.3444(2)
C14 C 0.7534(6) 0.1161(6) 0.4213(3)
C15 C 0.4466(4) 0.1364(4) 0.2707(3)
C16 C 0.7787(3) 0.3483(3) 0.2746(2)
C17 C 0.5762(5) -0.0138(4) 0.2184(3)
H17 H 0.6186 -0.0757 0.2473
H18 H 0.4841 -0.0633 0.1794
C18 C 0.7992(4) 0.1285(4) 0.2219(3)
H19 H 0.8561 0.1732 0.1849
H20 H 0.8490 0.0718 0.2514
C19 C 1.4051(3) 0.8790(3) -0.1029(2)
H21 H 1.4182 0.8036 -0.1385
H22 H 1.4980 0.9354 -0.0694
C20 C 1.3243(3) 0.8335(3) -0.0393(2)
C21 C 1.2569(4) 0.7920(4) 0.0109(3)
C22 C 1.1784(4) 0.7352(4) 0.0728(3)
H23 H 1.2136 0.7925 0.1318
H24 H 1.1946 0.6505 0.0801
N1 N 0.7627(3) 0.7381(3) 0.0757(2)
N2 N 1.0252(3) 0.7168(3) 0.0409(2)
N3 N 0.4923(3) 0.4349(3) 0.2540(2)
N4 N 1.3358(3) 0.9517(3) -0.1638(2)
N5 N 0.4822(3) 0.2548(3) 0.3315(2)
N6 N 0.7065(3) 0.3983(3) 0.32967(19)
N7 N 0.5576(3) 0.0809(3) 0.2877(2)
N8 N 0.7835(3) 0.2271(3) 0.29126(19)
O1 O 0.3358(3) 0.0875(3) 0.2155(2)
O2 O 0.8336(2) 0.4075(2) 0.22284(16)
O3 O 0.5803(9) 0.3779(11) 0.5125(7)
O4 O 0.8050(6) 0.3721(10) 0.5102(5)
C23 C 0.864(5) 0.4538(13) 0.6000(8)
H25 H 0.9575 0.4451 0.6256
H26 H 0.8041 0.4253 0.6399
C24 C 0.8750(8) 0.5982(9) 0.5923(5)
H27 H 0.9537 0.6331 0.5678
H28 H 0.8890 0.6486 0.6514
H29 H 0.7893 0.6032 0.5530
O5 O 0.8812(11) 0.136(2) 0.4397(19)
O6 O 0.6664(17) 0.0541(18) 0.4663(12)
C25 C 0.722(5) -0.012(3) 0.5368(12)
H30 H 0.6609 -0.0226 0.5783
H31 H 0.8155 0.0418 0.5709
C26 C 0.729(3) -0.144(2) 0.4956(16)
H32 H 0.6574 -0.1772 0.4394
H33 H 0.7133 -0.2049 0.5368
H34 H 0.8206 -0.1361 0.4844
C1A C 1.2059(4) 0.3879(3) -0.0628(3)
H1A H 1.2408 0.4289 0.0008
H2A H 1.2538 0.4460 -0.0978
C2A C 1.0503(4) 0.3693(4) -0.0922(3)
H3A H 1.0161 0.3315 -0.1563
H4A H 1.0316 0.4544 -0.0834
C3A C 1.0084(4) 0.1573(4) -0.0507(3)
H5A H 0.9622 0.1015 -0.0138
H6A H 0.9719 0.1130 -0.1136
C4A C 1.1635(4) 0.1761(4) -0.0228(3)
H7A H 1.1822 0.0910 -0.0314
H8A H 1.1990 0.2147 0.0412
C5A C 1.3888(4) 0.2781(4) -0.0494(3)
H9A H 1.4049 0.1920 -0.0490
H10A H 1.4278 0.3288 0.0117
C6A C 1.4615(4) 0.3442(4) -0.1103(3)
C7A C 1.5160(4) 0.3984(4) -0.1625(3)
C8A C 1.5790(4) 0.4662(4) -0.2271(3)
H11A H 1.6789 0.5090 -0.1999
H12A H 1.5707 0.4028 -0.2803
C9A C 1.5842(4) 0.6444(4) -0.3080(3)
H13A H 1.5845 0.5889 -0.3628
H14A H 1.6817 0.6851 -0.2737
C10A C 1.3617(4) 0.5013(4) -0.3069(3)
H15A H 1.3106 0.4460 -0.2718
H16A H 1.3614 0.4459 -0.3620
C11A C 1.3667(4) 0.7038(4) -0.3728(2)
C12A C 1.3344(4) 0.6477(5) -0.4744(3)
C13A C 1.3168(4) 0.8226(4) -0.3444(2)
C14A C 1.2466(6) 0.8839(6) -0.4213(3)
C15A C 1.5534(4) 0.8636(4) -0.2707(3)
C16A C 1.2213(3) 0.6517(3) -0.2746(2)
C17A C 1.4238(5) 1.0138(4) -0.2184(3)
H17A H 1.3814 1.0757 -0.2473
H18A H 1.5159 1.0633 -0.1794
C18A C 1.2008(4) 0.8715(4) -0.2219(3)
H19A H 1.1439 0.8268 -0.1849
H20A H 1.1510 0.9282 -0.2514
C19A C 0.5949(3) 0.1210(3) 0.1029(2)
H21A H 0.5818 0.1964 0.1385
H22A H 0.5020 0.0646 0.0694
C20A C 0.6757(3) 0.1665(3) 0.0393(2)
C21A C 0.7431(4) 0.2080(4) -0.0109(3)
C22A C 0.8216(4) 0.2648(4) -0.0728(3)
H23A H 0.7864 0.2075 -0.1318
H24A H 0.8054 0.3495 -0.0801
N1A N 1.2373(3) 0.2619(3) -0.0757(2)
N2A N 0.9748(3) 0.2832(3) -0.0409(2)
N3A N 1.5077(3) 0.5651(3) -0.2540(2)
N4A N 0.6642(3) 0.0483(3) 0.1638(2)
N5A N 1.5178(3) 0.7452(3) -0.3315(2)
N6A N 1.2935(3) 0.6017(3) -0.32967(19)
N7A N 1.4424(3) 0.9191(3) -0.2877(2)
N8A N 1.2165(3) 0.7729(3) -0.29126(19)
O1A O 1.6642(3) 0.9125(3) -0.2155(2)
O2A O 1.1664(2) 0.5925(2) -0.22284(16)
O3A O 1.4197(9) 0.6221(11) -0.5125(7)
O4A O 1.1950(6) 0.6279(10) -0.5102(5)
C23A C 1.136(5) 0.5462(13) -0.6000(8)
H25A H 1.0425 0.5549 -0.6256
H26A H 1.1959 0.5747 -0.6399
C24A C 1.1250(8) 0.4018(9) -0.5923(5)
H27A H 1.0463 0.3669 -0.5678
H28A H 1.1110 0.3514 -0.6514
H29A H 1.2107 0.3968 -0.5530
O5A O 1.1188(11) 0.864(2) -0.4397(19)
O6A O 1.3336(17) 0.9459(18) -0.4663(12)
C25A C 1.278(5) 1.012(3) -0.5368(12)
H30A H 1.3391 1.0226 -0.5783
H31A H 1.1845 0.9582 -0.5709
C26A C 1.271(3) 1.144(2) -0.4956(16)
H32A H 1.3426 1.1772 -0.4394
H33A H 1.2867 1.2049 -0.5368
H34A H 1.1794 1.1361 -0.4844
O11 O 0.9294(3) 0.6374(3) -0.1573(2)
H45 H 0.853(9) 0.654(17) -0.171(9)
H46 H 0.961(14) 0.656(15) -0.1018(14)
O12 O 0.8657(13) 0.8389(10) 0.2709(5)
H47 H 0.895(19) 0.835(18) 0.224(7)
H48 H 0.89(2) 0.784(13) 0.300(9)
O7? O 0.8620(16) 0.084(2) 0.4231(17)
O8? O 0.671(2) 0.102(2) 0.4748(13)
C27? C 0.703(7) 0.038(3) 0.5509(15)
H35? H 0.7806 0.0006 0.5460
H36? H 0.6211 -0.0345 0.5490
C28? C 0.743(2) 0.129(2) 0.6397(12)
H37? H 0.8444 0.1638 0.6594
H38? H 0.7088 0.0826 0.6840
H39? H 0.7019 0.2009 0.6327
O9? O 0.581(2) 0.325(2) 0.5184(16)
O10? O 0.7991(12) 0.4270(19) 0.5039(14)
C29? C 0.849(10) 0.479(3) 0.5998(17)
H40? H 0.7798 0.5167 0.6201
H41? H 0.9373 0.5480 0.6121
C30? C 0.870(4) 0.368(3) 0.6507(19)
H42? H 0.7826 0.2985 0.6361
H43? H 0.8968 0.4027 0.7146
H44? H 0.9427 0.3340 0.6345
loop_
_geom_bond_atom_site_label_1
_geom_bond_atom_site_label_2
_geom_bond_site_symmetry_1
_geom_bond_site_symmetry_2
C1 H1 1_555 1_555
H2 C1 1_555 1_555
C2 C1 1_555 1_555
H3 C2 1_555 1_555
H4 C2 1_555 1_555
C3 H5 1_555 1_555
H6 C3 1_555 1_555
C4 C3 1_555 1_555
H7 C4 1_555 1_555
H8 C4 1_555 1_555
C5 H9 1_555 1_555
H10 C5 1_555 1_555
C6 C5 1_555 1_555
C7 C6 1_555 1_555
C8 C7 1_555 1_555
H11 C8 1_555 1_555
H12 C8 1_555 1_555
C9 H13 1_555 1_555
H14 C9 1_555 1_555
C10 H15 1_555 1_555
H16 C10 1_555 1_555
C11 C12 1_555 1_555
C12 O3 1_555 1_555
C13 C11 1_555 1_555
C14 C13 1_555 1_555
C15 N5 1_555 1_555
C16 N6 1_555 1_555
C17 H17 1_555 1_555
H18 C17 1_555 1_555
C18 H19 1_555 1_555
H20 C18 1_555 1_555
C19 H21 1_555 1_555
H22 C19 1_555 1_555
C20 C19 1_555 1_555
C21 C20 1_555 1_555
C22 C21 1_555 1_555
H23 C22 1_555 1_555
H24 C22 1_555 1_555
N1 C1 1_555 1_555
N2 C2 1_555 1_555
N3 C8 1_555 1_555
N4 C19 1_555 1_555
N5 C9 1_555 1_555
N6 C10 1_555 1_555
N7 C13 1_555 1_555
N8 C13 1_555 1_555
O1 C15 1_555 1_555
O2 C16 1_555 1_555
O4 C12 1_555 1_555
C23 O4 1_555 1_555
H25 C23 1_555 1_555
H26 C23 1_555 1_555
C24 C23 1_555 1_555
H27 C24 1_555 1_555
H28 C24 1_555 1_555
H29 C24 1_555 1_555
O5 C14 1_555 1_555
O6 C14 1_555 1_555
C25 O6 1_555 1_555
H30 C25 1_555 1_555
H31 C25 1_555 1_555
C26 C25 1_555 1_555
H32 C26 1_555 1_555
H33 C26 1_555 1_555
H34 C26 1_555 1_555
O11 H45 1_555 1_555
H46 O11 1_555 1_555
O12 H47 1_555 1_555
H48 O12 1_555 1_555
C1A H1A 1_555 1_555
H2A C1A 1_555 1_555
C2A C1A 1_555 1_555
H3A C2A 1_555 1_555
H4A C2A 1_555 1_555
C3A H5A 1_555 1_555
H6A C3A 1_555 1_555
C4A C3A 1_555 1_555
H7A C4A 1_555 1_555
H8A C4A 1_555 1_555
C5A H9A 1_555 1_555
H10A C5A 1_555 1_555
C6A C5A 1_555 1_555
C7A C6A 1_555 1_555
C8A C7A 1_555 1_555
H11A C8A 1_555 1_555
H12A C8A 1_555 1_555
C9A H13A 1_555 1_555
H14A C9A 1_555 1_555
C10A H15A 1_555 1_555
H16A C10A 1_555 1_555
C11A C12A 1_555 1_555
C12A O3A 1_555 1_555
C13A C11A 1_555 1_555
C14A C13A 1_555 1_555
C15A N5A 1_555 1_555
C16A N6A 1_555 1_555
C17A N4 1_555 1_555
H17A C17A 1_555 1_555
H18A C17A 1_555 1_555
C18A N4 1_555 1_555
H19A C18A 1_555 1_555
H20A C18A 1_555 1_555
C19A H21A 1_555 1_555
H22A C19A 1_555 1_555
C20A C19A 1_555 1_555
C21A C20A 1_555 1_555
C22A C21A 1_555 1_555
H23A C22A 1_555 1_555
H24A C22A 1_555 1_555
N1A C1A 1_555 1_555
N2A C2A 1_555 1_555
N3A C8A 1_555 1_555
N4A C17 1_555 1_555
N5A C9A 1_555 1_555
N6A C10A 1_555 1_555
N7A C13A 1_555 1_555
N8A C13A 1_555 1_555
O1A C15A 1_555 1_555
O2A C16A 1_555 1_555
O4A C12A 1_555 1_555
C23A O4A 1_555 1_555
H25A C23A 1_555 1_555
H26A C23A 1_555 1_555
C24A C23A 1_555 1_555
H27A C24A 1_555 1_555
H28A C24A 1_555 1_555
H29A C24A 1_555 1_555
O5A C14A 1_555 1_555
O6A C14A 1_555 1_555
C25A O6A 1_555 1_555
H30A C25A 1_555 1_555
H31A C25A 1_555 1_555
C26A C25A 1_555 1_555
H32A C26A 1_555 1_555
H33A C26A 1_555 1_555
H34A C26A 1_555 1_555
C3 N2 1_555 1_555
C4 N1 1_555 1_555
C5 N1 1_555 1_555
C9 N3 1_555 1_555
C10 N3 1_555 1_555
C11 N5 1_555 1_555
C11 N6 1_555 1_555
C15 N7 1_555 1_555
C16 N8 1_555 1_555
C17 N7 1_555 1_555
C18 N8 1_555 1_555
C18 N4A 1_555 1_555
C22 N2 1_555 1_555
C3A N2A 1_555 1_555
C4A N1A 1_555 1_555
C5A N1A 1_555 1_555
C9A N3A 1_555 1_555
C10A N3A 1_555 1_555
C11A N5A 1_555 1_555
C11A N6A 1_555 1_555
C15A N7A 1_555 1_555
C16A N8A 1_555 1_555
C17A N7A 1_555 1_555
C18A N8A 1_555 1_555
C19A N4A 1_555 1_555
C22A N2A 1_555 1_555

#END
