
#######################################################################
#
#                 Cambridge Crystallographic Data Centre
#                                CCDC 
#
#######################################################################
#
# If this CIF has been generated from an entry in the Cambridge 
# Structural Database, then it will include bibliographic, chemical, 
# crystal, experimental, refinement or atomic coordinate data resulting 
# from the CCDC's data processing and validation procedures.
#
#######################################################################

data_JOFGUH
_chemical_formula_moiety         'C15 H15 N3 O3'
_chemical_name_systematic        
'(E)-1-(3-Methoxyphenyl)ethanone 4-nitrophenylhydrazone'
_symmetry_cell_setting           monoclinic
_symmetry_space_group_name_H-M   'P 21/c'
_symmetry_Int_Tables_number      14
_space_group_name_Hall           '-P 2ybc'
loop_
_symmetry_equiv_pos_site_id
_symmetry_equiv_pos_as_xyz
1 x,y,z
2 -x,1/2+y,1/2-z
3 -x,-y,-z
4 x,1/2-y,1/2+z
_cell_length_a                   4.2977(17)
_cell_length_b                   24.709(9)
_cell_length_c                   13.132(5)
_cell_angle_alpha                90
_cell_angle_beta                 96.332(11)
_cell_angle_gamma                90
_cell_volume                     1386
_exptl_crystal_colour            red
_exptl_crystal_description       prism
_cell_formula_units_Z            4
_exptl_crystal_recrystallization_method ethanol
loop_
_atom_site_label
_atom_site_type_symbol
_atom_site_fract_x
_atom_site_fract_y
_atom_site_fract_z
N1 N 0.2858(3) 0.59466(6) 0.29114(11)
N2 N 0.4535(3) 0.63991(6) 0.27160(11)
H1 H 0.4405 0.6533 0.2109
N3 N 1.2264(4) 0.73954(7) 0.58666(13)
O1 O -0.4958(3) 0.41329(6) 0.10899(10)
O2 O 1.2533(4) 0.71902(6) 0.67268(11)
O3 O 1.3617(4) 0.78225(6) 0.56823(11)
C1 C -0.0634(4) 0.52365(7) 0.24122(12)
C2 C -0.2090(4) 0.48991(7) 0.16601(13)
H2 H -0.2011 0.4985 0.0974
C3 C -0.3663(4) 0.44357(8) 0.19125(13)
C4 C -0.3852(5) 0.43034(8) 0.29148(15)
H3 H -0.4900 0.3993 0.3087
C5 C -0.2442(5) 0.46436(9) 0.36672(14)
H4 H -0.2576 0.4560 0.4351
C6 C -0.0856(5) 0.51000(8) 0.34328(14)
H5 H 0.0075 0.5319 0.3955
C7 C 0.1106(4) 0.57271(7) 0.21575(13)
C8 C 0.0787(5) 0.59459(9) 0.10844(15)
H6 H 0.0396 0.6328 0.1099
H7 H -0.0926 0.5769 0.0686
H8 H 0.2686 0.5880 0.0782
C9 C -0.6460(5) 0.36382(8) 0.13053(16)
H9 H -0.5045 0.3419 0.1746
H10 H -0.7058 0.3448 0.0677
H11 H -0.8290 0.3715 0.1638
C10 C 0.6430(4) 0.66358(7) 0.35048(13)
C11 C 0.6824(4) 0.64122(7) 0.44883(14)
H12 H 0.5794 0.6094 0.4625
C12 C 0.8742(4) 0.66645(8) 0.52547(14)
H13 H 0.8993 0.6518 0.5911
C13 C 1.0288(4) 0.71338(7) 0.50517(13)
C14 C 0.9974(4) 0.73569(7) 0.40765(14)
H14 H 1.1054 0.7670 0.3942
C15 C 0.8043(4) 0.71083(7) 0.33116(14)
H15 H 0.7809 0.7257 0.2657
loop_
_geom_bond_atom_site_label_1
_geom_bond_atom_site_label_2
_geom_bond_site_symmetry_1
_geom_bond_site_symmetry_2
N1 N2 1_555 1_555
N2 H1 1_555 1_555
N3 O2 1_555 1_555
O1 C3 1_555 1_555
O3 N3 1_555 1_555
C1 C2 1_555 1_555
C2 H2 1_555 1_555
C3 C2 1_555 1_555
C4 C3 1_555 1_555
H3 C4 1_555 1_555
C5 C4 1_555 1_555
H4 C5 1_555 1_555
C6 C1 1_555 1_555
H5 C6 1_555 1_555
C7 N1 1_555 1_555
C8 C7 1_555 1_555
H6 C8 1_555 1_555
H7 C8 1_555 1_555
H8 C8 1_555 1_555
C9 O1 1_555 1_555
H9 C9 1_555 1_555
H10 C9 1_555 1_555
H11 C9 1_555 1_555
C10 N2 1_555 1_555
C11 C10 1_555 1_555
H12 C11 1_555 1_555
C12 C11 1_555 1_555
H13 C12 1_555 1_555
C13 N3 1_555 1_555
C14 C13 1_555 1_555
H14 C14 1_555 1_555
C15 C10 1_555 1_555
H15 C15 1_555 1_555
C1 C7 1_555 1_555
C5 C6 1_555 1_555
C12 C13 1_555 1_555
C14 C15 1_555 1_555

#END
