
#######################################################################
#
#                 Cambridge Crystallographic Data Centre
#                                CCDC 
#
#######################################################################
#
# If this CIF has been generated from an entry in the Cambridge 
# Structural Database, then it will include bibliographic, chemical, 
# crystal, experimental, refinement or atomic coordinate data resulting 
# from the CCDC's data processing and validation procedures.
#
#######################################################################

data_JOFHET
_chemical_formula_moiety         'C35 H48 O9'
_chemical_name_systematic        
16-Acetoxy-3-((8-methoxy-8-oxooctanoyl)oxy)-14,15-epoxybufa-20,22-dienolide
_symmetry_cell_setting           orthorhombic
_symmetry_space_group_name_H-M   'P 21 21 21'
_symmetry_Int_Tables_number      19
_space_group_name_Hall           'P 2ac 2ab'
loop_
_symmetry_equiv_pos_site_id
_symmetry_equiv_pos_as_xyz
1 x,y,z
2 1/2-x,-y,1/2+z
3 -x,1/2+y,1/2-z
4 1/2+x,1/2-y,-z
_cell_length_a                   8.9338(3)
_cell_length_b                   16.2970(4)
_cell_length_c                   22.4019(6)
_cell_angle_alpha                90
_cell_angle_beta                 90
_cell_angle_gamma                90
_cell_volume                     3261.59
_exptl_crystal_colour            colorless
_exptl_crystal_description       block
_cell_formula_units_Z            4
loop_
_atom_site_label
_atom_site_type_symbol
_atom_site_fract_x
_atom_site_fract_y
_atom_site_fract_z
O1 O 0.5483(2) 0.06375(11) 0.32542(7)
O2 O 0.70568(17) 0.08912(10) -0.02220(7)
O3 O 0.56195(18) -0.05527(9) -0.09045(7)
O4 O 0.3311(2) -0.10180(11) -0.11238(8)
O5 O 0.5396(2) 0.15533(13) -0.30187(7)
O6 O 0.38293(19) 0.12336(11) -0.22856(7)
O7 O 0.4604(2) -0.04150(10) 0.37958(7)
O8 O 0.0002(3) 0.08607(14) 0.59846(12)
O9 O 0.0120(2) 0.21493(12) 0.62766(10)
C1 C 0.3866(3) 0.14745(16) 0.22834(11)
H1 H 0.4032 0.1785 0.2647
H2 H 0.2934 0.1665 0.2110
C2 C 0.3692(3) 0.05668(16) 0.24470(11)
H3 H 0.2909 0.0509 0.2744
H4 H 0.3395 0.0260 0.2095
C3 C 0.5138(3) 0.02167(15) 0.26904(10)
H5 H 0.5028 -0.0374 0.2760
C4 C 0.6435(3) 0.03749(14) 0.22724(10)
H6 H 0.6294 0.0054 0.1912
H7 H 0.7351 0.0190 0.2461
C5 C 0.6610(3) 0.12856(14) 0.20994(10)
H8 H 0.6851 0.1587 0.2465
C6 C 0.7949(3) 0.13862(15) 0.16737(10)
H9 H 0.8186 0.1964 0.1633
H10 H 0.8817 0.1113 0.1842
C7 C 0.7617(3) 0.10278(14) 0.10607(9)
H11 H 0.7493 0.0438 0.1095
H12 H 0.8459 0.1131 0.0798
C8 C 0.6197(2) 0.14020(13) 0.07887(9)
H13 H 0.6380 0.1990 0.0735
C9 C 0.4829(2) 0.13106(13) 0.12079(10)
H14 H 0.4646 0.0721 0.1256
C10 C 0.5153(3) 0.16641(14) 0.18426(10)
C11 C 0.3437(3) 0.16750(14) 0.09084(10)
H15 H 0.3581 0.2260 0.0853
H16 H 0.2579 0.1598 0.1168
C12 C 0.3119(3) 0.12748(14) 0.03014(10)
H17 H 0.2237 0.1528 0.0128
H18 H 0.2901 0.0698 0.0362
C13 C 0.4434(2) 0.13548(13) -0.01413(9)
C14 C 0.5824(2) 0.10501(13) 0.01875(10)
C15 C 0.6154(3) 0.02090(13) -0.00077(10)
H19 H 0.6584 -0.0184 0.0276
C16 C 0.4964(3) -0.00641(13) -0.04307(9)
H20 H 0.4232 -0.0399 -0.0214
C17 C 0.4185(2) 0.07236(13) -0.06617(9)
H21 H 0.3109 0.0607 -0.0675
C18 C 0.4601(3) 0.22359(14) -0.03600(10)
H22 H 0.4757 0.2593 -0.0025
H23 H 0.3709 0.2398 -0.0568
H24 H 0.5443 0.2272 -0.0625
C19 C 0.5325(3) 0.26052(14) 0.18183(11)
H25 H 0.5526 0.2811 0.2212
H26 H 0.4417 0.2845 0.1670
H27 H 0.6139 0.2745 0.1558
C20 C 0.4646(3) 0.09724(13) -0.12863(9)
C21 C 0.3571(3) 0.10264(14) -0.17041(10)
H28 H 0.2590 0.0916 -0.1590
C22 C 0.6144(3) 0.11352(16) -0.14855(10)
H29 H 0.6933 0.1106 -0.1216
C23 C 0.6415(3) 0.13293(15) -0.20561(10)
H30 H 0.7398 0.1428 -0.2173
C24 C 0.5256(3) 0.13911(15) -0.24932(11)
C25 C 0.4637(3) -0.09966(14) -0.12330(10)
C26 C 0.5395(4) -0.14119(17) -0.17369(12)
H31 H 0.4676 -0.1724 -0.1960
H32 H 0.6155 -0.1773 -0.1585
H33 H 0.5847 -0.1009 -0.1992
C27 C 0.5120(3) 0.02662(14) 0.37703(10)
C28 C 0.5472(3) 0.08065(15) 0.42899(10)
H34 H 0.5042 0.1344 0.4218
H35 H 0.6549 0.0873 0.4315
C29 C 0.4901(3) 0.04884(14) 0.48828(9)
H36 H 0.5286 -0.0061 0.4947
H37 H 0.3817 0.0453 0.4867
C30 C 0.5355(3) 0.10321(17) 0.54121(10)
H38 H 0.5102 0.0746 0.5778
H39 H 0.6434 0.1098 0.5405
C31 C 0.4643(3) 0.18805(17) 0.54318(11)
H40 H 0.4919 0.2173 0.5071
H41 H 0.5063 0.2179 0.5767
C32 C 0.2941(3) 0.18915(16) 0.54875(11)
H42 H 0.2507 0.1609 0.5148
H43 H 0.2594 0.2455 0.5479
C33 C 0.2396(3) 0.1480(2) 0.60655(13)
H44 H 0.2780 0.0924 0.6083
H45 H 0.2788 0.1778 0.6406
C34 C 0.0728(3) 0.14594(16) 0.61012(11)
C35 C -0.1493(3) 0.2166(2) 0.62767(17)
H46 H -0.1832 0.2696 0.6407
H47 H -0.1865 0.1753 0.6543
H48 H -0.1855 0.2062 0.5880
loop_
_geom_bond_atom_site_label_1
_geom_bond_atom_site_label_2
_geom_bond_site_symmetry_1
_geom_bond_site_symmetry_2
O1 C3 1_555 1_555
O2 C14 1_555 1_555
O3 C16 1_555 1_555
O4 C25 1_555 1_555
O5 C24 1_555 1_555
O6 C21 1_555 1_555
O7 C27 1_555 1_555
O8 C34 1_555 1_555
O9 C34 1_555 1_555
C1 H1 1_555 1_555
H2 C1 1_555 1_555
C2 C1 1_555 1_555
H3 C2 1_555 1_555
H4 C2 1_555 1_555
C3 C2 1_555 1_555
H5 C3 1_555 1_555
C4 C3 1_555 1_555
H6 C4 1_555 1_555
H7 C4 1_555 1_555
C5 C4 1_555 1_555
H8 C5 1_555 1_555
C6 C5 1_555 1_555
H9 C6 1_555 1_555
H10 C6 1_555 1_555
C7 C6 1_555 1_555
H11 C7 1_555 1_555
H12 C7 1_555 1_555
C8 C7 1_555 1_555
H13 C8 1_555 1_555
C9 C8 1_555 1_555
H14 C9 1_555 1_555
C10 C1 1_555 1_555
C11 C9 1_555 1_555
H15 C11 1_555 1_555
H16 C11 1_555 1_555
C12 C11 1_555 1_555
H17 C12 1_555 1_555
H18 C12 1_555 1_555
C13 C12 1_555 1_555
C14 C8 1_555 1_555
C15 O2 1_555 1_555
H19 C15 1_555 1_555
C16 C15 1_555 1_555
H20 C16 1_555 1_555
C17 C13 1_555 1_555
H21 C17 1_555 1_555
C18 C13 1_555 1_555
H22 C18 1_555 1_555
H23 C18 1_555 1_555
H24 C18 1_555 1_555
C19 C10 1_555 1_555
H25 C19 1_555 1_555
H26 C19 1_555 1_555
H27 C19 1_555 1_555
C20 C17 1_555 1_555
C21 C20 1_555 1_555
H28 C21 1_555 1_555
C22 C20 1_555 1_555
H29 C22 1_555 1_555
C23 C22 1_555 1_555
H30 C23 1_555 1_555
C24 O6 1_555 1_555
C25 O3 1_555 1_555
C26 C25 1_555 1_555
H31 C26 1_555 1_555
H32 C26 1_555 1_555
H33 C26 1_555 1_555
C27 O1 1_555 1_555
C28 C27 1_555 1_555
H34 C28 1_555 1_555
H35 C28 1_555 1_555
C29 C28 1_555 1_555
H36 C29 1_555 1_555
H37 C29 1_555 1_555
C30 C29 1_555 1_555
H38 C30 1_555 1_555
H39 C30 1_555 1_555
C31 C30 1_555 1_555
H40 C31 1_555 1_555
H41 C31 1_555 1_555
C32 C31 1_555 1_555
H42 C32 1_555 1_555
H43 C32 1_555 1_555
C33 C32 1_555 1_555
H44 C33 1_555 1_555
H45 C33 1_555 1_555
C34 C33 1_555 1_555
C35 O9 1_555 1_555
H46 C35 1_555 1_555
H47 C35 1_555 1_555
H48 C35 1_555 1_555
C5 C10 1_555 1_555
C9 C10 1_555 1_555
C13 C14 1_555 1_555
C14 C15 1_555 1_555
C16 C17 1_555 1_555
C23 C24 1_555 1_555

#END
