
#######################################################################
#
#                 Cambridge Crystallographic Data Centre
#                                CCDC 
#
#######################################################################
#
# If this CIF has been generated from an entry in the Cambridge 
# Structural Database, then it will include bibliographic, chemical, 
# crystal, experimental, refinement or atomic coordinate data resulting 
# from the CCDC's data processing and validation procedures.
#
#######################################################################

data_JOFNAV
_chemical_formula_moiety         'C54 H38 N8 O6,H2 O1'
_chemical_name_systematic        
'diethyl 6,13-dioxo-2,3,9,10-tetrakis(pyridin-3-ylethynyl)-5,7,12,14-tetrahydro-5a,6a,12a,13a-tetraazabenzo[5,6]azuleno[2,1,8-ija]benzo[f]azulene-13b,13c-dicarboxylate monohydrate'
_symmetry_cell_setting           triclinic
_symmetry_space_group_name_H-M   'P -1'
_symmetry_Int_Tables_number      2
_space_group_name_Hall           '-P 1'
loop_
_symmetry_equiv_pos_site_id
_symmetry_equiv_pos_as_xyz
1 x,y,z
2 -x,-y,-z
_cell_length_a                   13.128(7)
_cell_length_b                   13.245(7)
_cell_length_c                   14.016(8)
_cell_angle_alpha                98.805(10)
_cell_angle_beta                 102.036(9)
_cell_angle_gamma                101.470(10)
_cell_volume                     2287.31
_exptl_crystal_colour            yellow
_exptl_crystal_description       plate
_cell_formula_units_Z            2
loop_
_atom_site_label
_atom_site_type_symbol
_atom_site_fract_x
_atom_site_fract_y
_atom_site_fract_z
C1 C 0.6206(2) -0.3119(2) 0.5404(2)
H1 H 0.5796 -0.3687 0.5578
C2 C 0.6153(2) -0.2139(2) 0.5802(2)
H2 H 0.5719 -0.2043 0.6238
C3 C 0.6749(2) -0.1289(2) 0.55539(19)
H3 H 0.6721 -0.0609 0.5818
C4 C 0.73879(17) -0.14537(16) 0.49094(17)
C5 C 0.73925(19) -0.24813(18) 0.45447(18)
H4 H 0.7825 -0.2600 0.4111
C6 C 0.80207(18) -0.06100(17) 0.45951(17)
C7 C 0.85368(17) 0.00674(16) 0.43118(16)
C8 C 0.91665(16) 0.08102(15) 0.38834(15)
C9 C 0.95717(16) 0.18712(15) 0.43521(14)
H5 H 0.9426 0.2108 0.4957
C10 C 1.01837(15) 0.25757(14) 0.39374(13)
C11 C 1.04497(15) 0.22080(14) 0.30537(14)
C12 C 1.00348(16) 0.11684(15) 0.25796(15)
H6 H 1.0206 0.0928 0.1988
C13 C 0.93659(16) 0.04683(14) 0.29633(15)
C14 C 0.88272(17) -0.05616(16) 0.23868(16)
C15 C 0.83011(18) -0.13778(16) 0.18758(16)
C16 C 0.76377(16) -0.23377(15) 0.12423(15)
C17 C 0.67014(18) -0.28486(17) 0.14566(17)
H7 H 0.6534 -0.2559 0.2035
C18 C 0.6287(2) -0.41124(18) 0.00610(19)
H8 H 0.5829 -0.4720 -0.0354
C19 C 0.7188(2) -0.36680(18) -0.02133(18)
H9 H 0.7329 -0.3969 -0.0801
C20 C 0.78787(18) -0.27764(16) 0.03856(17)
H10 H 0.8501 -0.2472 0.0217
C21 C 1.05278(16) 0.37269(14) 0.44246(13)
H11 H 1.0262 0.3830 0.5019
H12 H 1.1305 0.3935 0.4629
C22 C 1.11689(15) 0.29389(15) 0.26033(15)
H13 H 1.1852 0.3234 0.3085
H14 H 1.1304 0.2533 0.2026
C23 C 0.90442(16) 0.43375(13) 0.34793(13)
C24 C 1.01837(14) 0.37760(14) 0.13505(14)
C25 C 1.06634(14) 0.46866(13) 0.30073(13)
C26 C 1.17493(17) 0.54895(17) 0.34650(15)
C27 C 1.3554(3) 0.6058(4) 0.3422(5)
H15 H 1.3888 0.6049 0.4105
H16 H 1.3443 0.6756 0.3391
C28 C 1.4242(3) 0.5773(5) 0.2751(3)
H17 H 1.4345 0.5082 0.2790
H18 H 1.4925 0.6272 0.2952
H19 H 1.3899 0.5782 0.2077
C29 C 0.98221(15) 0.51626(13) 0.23555(13)
C30 C 1.00793(17) 0.63720(16) 0.25133(15)
C31 C 1.0989(2) 0.78725(17) 0.20599(19)
H20 H 1.0342 0.8111 0.2088
H21 H 1.1187 0.8018 0.1457
C32 C 1.1861(3) 0.8467(2) 0.2935(2)
H22 H 1.1614 0.8441 0.3531
H23 H 1.2066 0.9187 0.2872
H24 H 1.2468 0.8160 0.2970
C33 C 0.78123(15) 0.48981(15) 0.21724(14)
H25 H 0.7876 0.5580 0.1987
H26 H 0.7343 0.4856 0.2623
C34 C 0.88957(14) 0.46796(15) 0.05163(13)
H27 H 0.9098 0.4487 -0.0101
H28 H 0.8810 0.5395 0.0566
C35 C 0.73195(15) 0.40493(14) 0.12538(13)
C36 C 0.78217(15) 0.39570(14) 0.04652(13)
C37 C 0.73151(15) 0.31909(15) -0.03797(14)
H29 H 0.7635 0.3143 -0.0913
C38 C 0.63471(16) 0.24913(15) -0.04625(15)
C39 C 0.58697(15) 0.25567(15) 0.03497(15)
C40 C 0.63640(15) 0.33476(16) 0.11838(15)
H30 H 0.6041 0.3407 0.1714
C41 C 0.48930(17) 0.18280(17) 0.03294(16)
C42 C 0.40918(17) 0.12515(17) 0.03627(16)
C43 C 0.30889(17) 0.06015(17) 0.03908(16)
C44 C 0.2621(2) -0.03439(19) -0.02482(19)
H31 H 0.2967 -0.0610 -0.0709
C45 C 0.1642(2) -0.0895(2) -0.0206(2)
H32 H 0.1322 -0.1548 -0.0622
C46 C 0.1150(2) -0.0477(3) 0.0447(3)
H33 H 0.0473 -0.0847 0.0457
C47 C 0.2531(2) 0.0932(2) 0.1040(2)
H34 H 0.2848 0.1562 0.1496
C48 C 0.58271(16) 0.16825(17) -0.13376(16)
C49 C 0.53350(17) 0.09855(17) -0.20096(16)
C50 C 0.46930(16) 0.00985(16) -0.27637(15)
C51 C 0.4055(2) -0.07313(19) -0.25131(17)
H35 H 0.4054 -0.0728 -0.1849
C52 C 0.3419(2) -0.15651(18) -0.32481(19)
H36 H 0.2981 -0.2128 -0.3093
C53 C 0.3455(2) -0.15360(19) -0.42067(19)
H37 H 0.3028 -0.2097 -0.4704
C54 C 0.46626(18) 0.00367(18) -0.37548(16)
H38 H 0.5092 0.0587 -0.3936
N1 N 0.68131(18) -0.33170(15) 0.47771(18)
N2 N 1.01409(12) 0.44080(11) 0.37705(10)
N3 N 1.07179(12) 0.37963(11) 0.23036(11)
N4 N 0.88690(12) 0.48099(12) 0.26864(11)
N5 N 0.97721(11) 0.46544(11) 0.13517(10)
N6 N 0.1570(2) 0.0425(3) 0.1071(3)
N7 N 0.60298(15) -0.37257(15) 0.08865(16)
N8 N 0.40568(17) -0.07622(17) -0.44748(14)
O1 O 0.83702(11) 0.39453(10) 0.38768(9)
O2 O 1.01072(11) 0.31111(10) 0.06202(9)
O3 O 1.18332(12) 0.62512(12) 0.40749(11)
O4 O 1.25167(12) 0.52556(13) 0.30604(12)
O5 O 0.96617(14) 0.68935(11) 0.30203(12)
O6 O 1.07662(12) 0.67268(10) 0.20149(10)
O7 O 0.62420(15) 0.43888(14) 0.40234(15)
H44 H 0.6386 0.5041 0.4080
H45 H 0.6800 0.4165 0.4092
C55? C 1.3675(10) 0.567(2) 0.346(3)
H39? H 1.4056 0.5128 0.3348
H40? H 1.3840 0.5957 0.4171
C56? C 1.3989(15) 0.6542(19) 0.2902(17)
H41? H 1.4042 0.6234 0.2254
H42? H 1.4668 0.6996 0.3268
H43? H 1.3453 0.6943 0.2833
loop_
_geom_bond_atom_site_label_1
_geom_bond_atom_site_label_2
_geom_bond_site_symmetry_1
_geom_bond_site_symmetry_2
C1 H1 1_555 1_555
C2 C1 1_555 1_555
H2 C2 1_555 1_555
C3 C2 1_555 1_555
H3 C3 1_555 1_555
C4 C3 1_555 1_555
C5 C4 1_555 1_555
H4 C5 1_555 1_555
C6 C4 1_555 1_555
C7 C6 1_555 1_555
C8 C7 1_555 1_555
C9 C8 1_555 1_555
H5 C9 1_555 1_555
C10 C9 1_555 1_555
C11 C10 1_555 1_555
C12 C11 1_555 1_555
H6 C12 1_555 1_555
C13 C8 1_555 1_555
C14 C13 1_555 1_555
C15 C14 1_555 1_555
C16 C15 1_555 1_555
C17 C16 1_555 1_555
H7 C17 1_555 1_555
C18 H8 1_555 1_555
C19 C18 1_555 1_555
H9 C19 1_555 1_555
C20 C16 1_555 1_555
H10 C20 1_555 1_555
C21 C10 1_555 1_555
H11 C21 1_555 1_555
H12 C21 1_555 1_555
C22 C11 1_555 1_555
H13 C22 1_555 1_555
H14 C22 1_555 1_555
C23 N2 1_555 1_555
C24 N3 1_555 1_555
C25 C26 1_555 1_555
C26 O3 1_555 1_555
C27 H15 1_555 1_555
H16 C27 1_555 1_555
C28 C27 1_555 1_555
H17 C28 1_555 1_555
H18 C28 1_555 1_555
H19 C28 1_555 1_555
C29 C25 1_555 1_555
C30 C29 1_555 1_555
C31 H20 1_555 1_555
H21 C31 1_555 1_555
C32 C31 1_555 1_555
H22 C32 1_555 1_555
H23 C32 1_555 1_555
H24 C32 1_555 1_555
C33 H25 1_555 1_555
H26 C33 1_555 1_555
C34 H27 1_555 1_555
H28 C34 1_555 1_555
C35 C33 1_555 1_555
C36 C34 1_555 1_555
C37 C36 1_555 1_555
H29 C37 1_555 1_555
C38 C37 1_555 1_555
C39 C38 1_555 1_555
C40 C35 1_555 1_555
H30 C40 1_555 1_555
C41 C39 1_555 1_555
C42 C41 1_555 1_555
C43 C42 1_555 1_555
C44 C43 1_555 1_555
H31 C44 1_555 1_555
C45 C44 1_555 1_555
H32 C45 1_555 1_555
C46 C45 1_555 1_555
H33 C46 1_555 1_555
C47 C43 1_555 1_555
H34 C47 1_555 1_555
C48 C38 1_555 1_555
C49 C48 1_555 1_555
C50 C49 1_555 1_555
C51 C50 1_555 1_555
H35 C51 1_555 1_555
C52 C51 1_555 1_555
H36 C52 1_555 1_555
C53 C52 1_555 1_555
H37 C53 1_555 1_555
C54 C50 1_555 1_555
H38 C54 1_555 1_555
N1 C1 1_555 1_555
N2 C21 1_555 1_555
N3 C22 1_555 1_555
N4 C23 1_555 1_555
N5 C24 1_555 1_555
N6 C46 1_555 1_555
N7 C17 1_555 1_555
N8 C53 1_555 1_555
O1 C23 1_555 1_555
O2 C24 1_555 1_555
O4 C26 1_555 1_555
O5 C30 1_555 1_555
O6 C30 1_555 1_555
O7 H44 1_555 1_555
H45 O7 1_555 1_555
C5 N1 1_555 1_555
C12 C13 1_555 1_555
C18 N7 1_555 1_555
C19 C20 1_555 1_555
C25 N2 1_555 1_555
C25 N3 1_555 1_555
C27 O4 1_555 1_555
C29 N4 1_555 1_555
C29 N5 1_555 1_555
C31 O6 1_555 1_555
C33 N4 1_555 1_555
C34 N5 1_555 1_555
C35 C36 1_555 1_555
C39 C40 1_555 1_555
C47 N6 1_555 1_555
C54 N8 1_555 1_555

#END
