
#######################################################################
#
#                 Cambridge Crystallographic Data Centre
#                                CCDC 
#
#######################################################################
#
# If this CIF has been generated from an entry in the Cambridge 
# Structural Database, then it will include bibliographic, chemical, 
# crystal, experimental, refinement or atomic coordinate data resulting 
# from the CCDC's data processing and validation procedures.
#
#######################################################################

data_JOFNUP
_chemical_formula_moiety         'C19 H12 F1 N5 O2 S1'
_chemical_name_systematic        
2-(1,2-benzothiazol-3-yloxy)-N-(3-cyano-1-(4-fluorophenyl)-1H-pyrazol-5-yl)acetamide
_symmetry_cell_setting           triclinic
_symmetry_space_group_name_H-M   'P -1'
_symmetry_Int_Tables_number      2
_space_group_name_Hall           '-P 1'
loop_
_symmetry_equiv_pos_site_id
_symmetry_equiv_pos_as_xyz
1 x,y,z
2 -x,-y,-z
_cell_length_a                   7.5620(15)
_cell_length_b                   9.4440(19)
_cell_length_c                   13.165(3)
_cell_angle_alpha                98.10(3)
_cell_angle_beta                 90.96(3)
_cell_angle_gamma                105.68(3)
_cell_volume                     894.683
_exptl_crystal_colour            colorless
_exptl_crystal_description       block
_cell_formula_units_Z            2
loop_
_atom_site_label
_atom_site_type_symbol
_atom_site_fract_x
_atom_site_fract_y
_atom_site_fract_z
S1 S 0.45604(12) 0.04492(9) 0.73788(6)
F1 F 0.3489(4) 0.3451(2) 0.15688(19)
O1 O 0.0568(3) -0.5099(2) 0.35984(16)
N1 N -0.0200(3) -0.2495(2) 0.13839(18)
C1 C 0.1877(4) -0.0483(3) 0.0663(2)
H1 H 0.2027 -0.1176 0.0119
O2 O 0.2249(3) -0.1355(2) 0.47813(15)
N2 N -0.1201(3) -0.3243(3) 0.05067(19)
C2 C 0.2811(5) 0.1008(4) 0.0708(3)
H2 H 0.3601 0.1327 0.0202
N3 N -0.3752(4) -0.6709(3) -0.0678(2)
C3 C 0.2543(5) 0.1996(3) 0.1513(3)
N4 N 0.0854(3) -0.2881(2) 0.30253(18)
H3 H 0.1340 -0.1936 0.3170
C4 C 0.1358(6) 0.1583(4) 0.2266(3)
H4 H 0.1180 0.2288 0.2794
C5 C 0.0426(5) 0.0080(3) 0.2220(2)
H5 H -0.0385 -0.0231 0.2719
N5 N 0.3654(4) -0.0978(3) 0.64266(19)
C6 C 0.0716(4) -0.0938(3) 0.1432(2)
C7 C -0.0115(4) -0.3437(3) 0.2075(2)
C8 C -0.1095(4) -0.4845(3) 0.1651(2)
H6 H -0.1288 -0.5721 0.1932
C9 C -0.1738(4) -0.4647(3) 0.0689(2)
C10 C -0.2865(4) -0.5778(3) -0.0082(2)
C11 C 0.1076(4) -0.3747(3) 0.3737(2)
C12 C 0.2040(4) -0.2920(3) 0.4754(2)
H7 H 0.1322 -0.3273 0.5317
H8 H 0.3238 -0.3097 0.4827
C13 C 0.3046(4) -0.0461(3) 0.5666(2)
C14 C 0.3216(4) 0.1096(3) 0.5756(2)
C15 C 0.2698(4) 0.1934(3) 0.5067(2)
H9 H 0.2136 0.1472 0.4426
C16 C 0.3029(4) 0.3448(4) 0.5346(3)
H10 H 0.2683 0.4013 0.4895
C17 C 0.3886(4) 0.4141(3) 0.6310(3)
H11 H 0.4103 0.5164 0.6488
C18 C 0.4415(4) 0.3337(3) 0.7000(2)
H12 H 0.4977 0.3807 0.7639
C19 C 0.4088(4) 0.1802(3) 0.6719(2)
loop_
_geom_bond_atom_site_label_1
_geom_bond_atom_site_label_2
_geom_bond_site_symmetry_1
_geom_bond_site_symmetry_2
S1 N5 1_555 1_555
F1 C3 1_555 1_555
O1 C11 1_555 1_555
N1 N2 1_555 1_555
C1 H1 1_555 1_555
O2 C12 1_555 1_555
N2 C9 1_555 1_555
C2 C1 1_555 1_555
H2 C2 1_555 1_555
N3 C10 1_555 1_555
C3 C2 1_555 1_555
N4 H3 1_555 1_555
C4 C3 1_555 1_555
H4 C4 1_555 1_555
C5 C4 1_555 1_555
H5 C5 1_555 1_555
N5 C13 1_555 1_555
C6 N1 1_555 1_555
C7 N1 1_555 1_555
C8 C7 1_555 1_555
H6 C8 1_555 1_555
C9 C8 1_555 1_555
C10 C9 1_555 1_555
C11 N4 1_555 1_555
C12 C11 1_555 1_555
H7 C12 1_555 1_555
H8 C12 1_555 1_555
C13 O2 1_555 1_555
C14 C13 1_555 1_555
C15 C14 1_555 1_555
H9 C15 1_555 1_555
C16 C15 1_555 1_555
H10 C16 1_555 1_555
C17 C16 1_555 1_555
H11 C17 1_555 1_555
C18 C17 1_555 1_555
H12 C18 1_555 1_555
C19 S1 1_555 1_555
C1 C6 1_555 1_555
N4 C7 1_555 1_555
C5 C6 1_555 1_555
C14 C19 1_555 1_555
C18 C19 1_555 1_555

#END
