
#######################################################################
#
#                 Cambridge Crystallographic Data Centre
#                                CCDC 
#
#######################################################################
#
# If this CIF has been generated from an entry in the Cambridge 
# Structural Database, then it will include bibliographic, chemical, 
# crystal, experimental, refinement or atomic coordinate data resulting 
# from the CCDC's data processing and validation procedures.
#
#######################################################################

data_JOFVIL
_chemical_formula_moiety         'C13 H9 Br1 N2'
_chemical_name_systematic        5-bromo-3-(pyridin-4-yl)-1H-indole
_symmetry_cell_setting           monoclinic
_symmetry_space_group_name_H-M   'P 21/c'
_symmetry_Int_Tables_number      14
_space_group_name_Hall           '-P 2ybc'
loop_
_symmetry_equiv_pos_site_id
_symmetry_equiv_pos_as_xyz
1 x,y,z
2 -x,1/2+y,1/2-z
3 -x,-y,-z
4 x,1/2-y,1/2+z
_cell_length_a                   4.8956(2)
_cell_length_b                   18.5240(6)
_cell_length_c                   12.7557(4)
_cell_angle_alpha                90
_cell_angle_beta                 100.433(2)
_cell_angle_gamma                90
_cell_volume                     1137.64
_cell_formula_units_Z            4
loop_
_atom_site_label
_atom_site_type_symbol
_atom_site_fract_x
_atom_site_fract_y
_atom_site_fract_z
Br1 Br 0.37953(13) 0.58031(2) 0.10895(4)
N1 N 0.5587(6) 0.33635(17) 0.4200(2)
C1 C 0.6502(7) 0.39370(18) 0.2739(2)
C2 C 0.6128(7) 0.45013(19) 0.1986(3)
H1 H 0.7007 0.4493 0.1398
C3 C 0.9578(6) 0.29043(19) 0.2127(2)
C4 C 0.4439(8) 0.50610(19) 0.2146(3)
C5 C 1.0653(7) 0.32759(19) 0.1348(3)
H2 H 1.0307 0.3767 0.1246
N2 N 1.2859(6) 0.22234(19) 0.0808(2)
C6 C 0.7874(7) 0.32468(18) 0.2822(2)
C7 C 1.0216(9) 0.2178(2) 0.2208(3)
H3 H 0.9559 0.1899 0.2714
C8 C 0.5081(7) 0.39829(19) 0.3606(3)
C9 C 1.2244(8) 0.2912(2) 0.0725(3)
H4 H 1.2926 0.3176 0.0208
C10 C 0.3434(7) 0.4570(2) 0.3754(3)
H5 H 0.2564 0.4596 0.4343
C11 C 1.1812(9) 0.1860(2) 0.1549(3)
H6 H 1.2177 0.1369 0.1623
C12 C 0.3120(8) 0.5113(2) 0.3010(3)
H7 H 0.2025 0.5513 0.3088
C13 C 0.7223(7) 0.2926(2) 0.3725(3)
H8 H 0.7827 0.2471 0.3974
loop_
_geom_bond_atom_site_label_1
_geom_bond_atom_site_label_2
_geom_bond_site_symmetry_1
_geom_bond_site_symmetry_2
Br1 C4 1_555 1_555
N1 C8 1_555 1_555
C1 C2 1_555 1_555
C2 H1 1_555 1_555
C3 C5 1_555 1_555
C4 C2 1_555 1_555
C5 H2 1_555 1_555
N2 C9 1_555 1_555
C6 C1 1_555 1_555
C7 C3 1_555 1_555
H3 C7 1_555 1_555
C8 C1 1_555 1_555
C9 C5 1_555 1_555
H4 C9 1_555 1_555
C10 C8 1_555 1_555
H5 C10 1_555 1_555
C11 N2 1_555 1_555
H6 C11 1_555 1_555
C12 C4 1_555 1_555
H7 C12 1_555 1_555
C13 N1 1_555 1_555
H8 C13 1_555 1_555
C3 C6 1_555 1_555
C6 C13 1_555 1_555
C7 C11 1_555 1_555
C10 C12 1_555 1_555

#END
