
#######################################################################
#
#                 Cambridge Crystallographic Data Centre
#                                CCDC 
#
#######################################################################
#
# If this CIF has been generated from an entry in the Cambridge 
# Structural Database, then it will include bibliographic, chemical, 
# crystal, experimental, refinement or atomic coordinate data resulting 
# from the CCDC's data processing and validation procedures.
#
#######################################################################

data_JOFYIO
_chemical_formula_moiety         'C48 H30'
_chemical_name_systematic        
1,2,4-tris(phenylethynyl)-3,5,6-triphenylbenzene
_symmetry_cell_setting           monoclinic
_symmetry_space_group_name_H-M   'I 2/a'
_symmetry_Int_Tables_number      15
_space_group_name_Hall           '-I 2ya'
loop_
_symmetry_equiv_pos_site_id
_symmetry_equiv_pos_as_xyz
1 x,y,z
2 1/2-x,y,-z
3 1/2+x,1/2+y,1/2+z
4 -x,1/2+y,1/2-z
5 -x,-y,-z
6 1/2+x,-y,z
7 1/2-x,1/2-y,1/2-z
8 x,1/2-y,1/2+z
_cell_length_a                   18.977(3)
_cell_length_b                   13.7307(18)
_cell_length_c                   27.064(4)
_cell_angle_alpha                90
_cell_angle_beta                 105.52(1)
_cell_angle_gamma                90
_cell_volume                     6794.86
_exptl_crystal_description       needle
_cell_formula_units_Z            8
loop_
_atom_site_label
_atom_site_type_symbol
_atom_site_fract_x
_atom_site_fract_y
_atom_site_fract_z
C1 C 0.18929(7) 0.91654(10) 0.07493(5)
C2 C 0.17896(7) 1.01645(10) 0.06270(5)
C3 C 0.13814(7) 1.04582(10) 0.01335(5)
C4 C 0.10922(7) 0.97502(10) -0.02356(5)
C5 C 0.11965(7) 0.87518(10) -0.01093(5)
C6 C 0.15932(7) 0.84523(10) 0.03831(5)
C7 C 0.30979(8) 0.83950(10) 0.21761(5)
C8 C 0.28929(9) 0.86194(11) 0.26197(6)
H1 H 0.2458 0.8979 0.2598
C9 C 0.33229(9) 0.83192(12) 0.30934(6)
H2 H 0.3180 0.8468 0.3396
C10 C 0.39590(10) 0.78044(12) 0.31273(6)
H3 H 0.4254 0.7602 0.3453
C11 C 0.41666(9) 0.75827(12) 0.26898(7)
H4 H 0.4605 0.7229 0.2715
C12 C 0.37385(9) 0.78727(11) 0.22135(6)
H5 H 0.3882 0.7715 0.1913
C13 C 0.23014(8) 0.88934(10) 0.12582(5)
C14 C 0.26508(8) 0.86818(10) 0.16797(5)
C15 C 0.26830(8) 1.23216(11) 0.16281(6)
C16 C 0.34316(9) 1.24934(12) 0.17887(6)
H6 H 0.3759 1.2068 0.1684
C17 C 0.37006(10) 1.32815(13) 0.21003(7)
H7 H 0.4212 1.3401 0.2205
C18 C 0.32306(12) 1.38935(15) 0.22596(9)
H8 H 0.3418 1.4422 0.2482
C19 C 0.24877(13) 1.37366(18) 0.20960(12)
H9 H 0.2162 1.4167 0.2200
C20 C 0.22137(11) 1.29582(16) 0.17805(10)
H10 H 0.1700 1.2857 0.1668
C21 C 0.21117(8) 1.08837(10) 0.10046(5)
C22 C 0.23860(8) 1.15166(11) 0.12970(5)
C23 C 0.12792(8) 1.15192(10) 0.00166(5)
C24 C 0.15658(9) 1.19466(11) -0.03513(6)
H11 H 0.1808 1.1556 -0.0545
C25 C 0.15007(11) 1.29433(12) -0.04380(6)
H12 H 0.1699 1.3233 -0.0690
C26 C 0.11485(11) 1.35122(12) -0.01595(6)
H13 H 0.1108 1.4195 -0.0218
C27 C 0.08530(9) 1.30931(11) 0.02049(6)
H14 H 0.0606 1.3486 0.0394
C28 C 0.09174(8) 1.21012(11) 0.02929(6)
H15 H 0.0714 1.1814 0.0543
C29 C 0.06697(7) 1.00022(10) -0.07697(5)
C30 C 0.09897(8) 0.98718(11) -0.11694(5)
H16 H 0.1487 0.9674 -0.1097
C31 C 0.05936(9) 1.00264(11) -0.16720(6)
H17 H 0.0820 0.9941 -0.1942
C32 C -0.01298(9) 1.03027(11) -0.17806(6)
H18 H -0.0405 1.0396 -0.2126
C33 C -0.04527(9) 1.04439(13) -0.13849(6)
H19 H -0.0950 1.0639 -0.1459
C34 C -0.00522(8) 1.03016(12) -0.08802(6)
H20 H -0.0274 1.0410 -0.0609
C35 C 0.03024(8) 0.67077(10) -0.11790(5)
C36 C -0.01653(8) 0.69422(11) -0.16566(5)
H21 H -0.0276 0.7604 -0.1747
C37 C -0.04668(9) 0.62105(12) -0.19987(6)
H22 H -0.0783 0.6374 -0.2324
C38 C -0.03135(10) 0.52447(12) -0.18729(6)
H23 H -0.0525 0.4747 -0.2110
C39 C 0.01468(10) 0.50055(12) -0.14016(6)
H24 H 0.0253 0.4341 -0.1314
C40 C 0.04530(9) 0.57270(11) -0.10564(6)
H25 H 0.0769 0.5556 -0.0732
C41 C 0.08862(8) 0.80372(10) -0.04934(5)
C42 C 0.06201(8) 0.74468(10) -0.08143(5)
C43 C 0.16797(8) 0.73946(10) 0.05121(5)
C44 C 0.10666(9) 0.68208(11) 0.04864(5)
H26 H 0.0593 0.7107 0.0393
C45 C 0.11428(10) 0.58337(12) 0.05968(6)
H27 H 0.0721 0.5447 0.0578
C46 C 0.18258(11) 0.54105(12) 0.07336(7)
H28 H 0.1875 0.4734 0.0808
C47 C 0.24377(11) 0.59740(12) 0.07625(7)
H29 H 0.2909 0.5684 0.0858
C48 C 0.23672(9) 0.69629(12) 0.06524(6)
H30 H 0.2791 0.7346 0.0673
loop_
_geom_bond_atom_site_label_1
_geom_bond_atom_site_label_2
_geom_bond_site_symmetry_1
_geom_bond_site_symmetry_2
C1 C2 1_555 1_555
C2 C3 1_555 1_555
C3 C4 1_555 1_555
C4 C5 1_555 1_555
C5 C6 1_555 1_555
C6 C1 1_555 1_555
C7 C8 1_555 1_555
C8 H1 1_555 1_555
C9 C8 1_555 1_555
H2 C9 1_555 1_555
C10 C9 1_555 1_555
H3 C10 1_555 1_555
C11 C10 1_555 1_555
H4 C11 1_555 1_555
C12 C7 1_555 1_555
H5 C12 1_555 1_555
C13 C1 1_555 1_555
C14 C7 1_555 1_555
C15 C16 1_555 1_555
C16 H6 1_555 1_555
C17 C16 1_555 1_555
H7 C17 1_555 1_555
C18 C17 1_555 1_555
H8 C18 1_555 1_555
C19 C18 1_555 1_555
H9 C19 1_555 1_555
C20 C15 1_555 1_555
H10 C20 1_555 1_555
C21 C2 1_555 1_555
C22 C15 1_555 1_555
C23 C3 1_555 1_555
C24 C23 1_555 1_555
H11 C24 1_555 1_555
C25 C24 1_555 1_555
H12 C25 1_555 1_555
C26 C25 1_555 1_555
H13 C26 1_555 1_555
C27 C26 1_555 1_555
H14 C27 1_555 1_555
C28 C23 1_555 1_555
H15 C28 1_555 1_555
C29 C4 1_555 1_555
C30 C29 1_555 1_555
H16 C30 1_555 1_555
C31 C30 1_555 1_555
H17 C31 1_555 1_555
C32 C31 1_555 1_555
H18 C32 1_555 1_555
C33 C32 1_555 1_555
H19 C33 1_555 1_555
C34 C29 1_555 1_555
H20 C34 1_555 1_555
C35 C36 1_555 1_555
C36 H21 1_555 1_555
C37 C36 1_555 1_555
H22 C37 1_555 1_555
C38 C37 1_555 1_555
H23 C38 1_555 1_555
C39 C38 1_555 1_555
H24 C39 1_555 1_555
C40 C35 1_555 1_555
H25 C40 1_555 1_555
C41 C5 1_555 1_555
C42 C35 1_555 1_555
C43 C6 1_555 1_555
C44 C43 1_555 1_555
H26 C44 1_555 1_555
C45 C44 1_555 1_555
H27 C45 1_555 1_555
C46 C45 1_555 1_555
H28 C46 1_555 1_555
C47 C46 1_555 1_555
H29 C47 1_555 1_555
C48 C43 1_555 1_555
H30 C48 1_555 1_555
C11 C12 1_555 1_555
C13 C14 1_555 1_555
C19 C20 1_555 1_555
C21 C22 1_555 1_555
C27 C28 1_555 1_555
C33 C34 1_555 1_555
C39 C40 1_555 1_555
C41 C42 1_555 1_555
C47 C48 1_555 1_555

#END
