
#######################################################################
#
#                 Cambridge Crystallographic Data Centre
#                                CCDC 
#
#######################################################################
#
# If this CIF has been generated from an entry in the Cambridge 
# Structural Database, then it will include bibliographic, chemical, 
# crystal, experimental, refinement or atomic coordinate data resulting 
# from the CCDC's data processing and validation procedures.
#
#######################################################################

data_JOGBOX
_chemical_formula_moiety         
'C38 H41 N3 O2 2+,2(C7 H7 O3 S1 1-),C7 H8 O3 S1 1-,H3 O1 1+,C1 H1 Cl3,C1 H2 Cl2'
_chemical_name_systematic        
'3,7,8,12-Tetraethyl-2,13,17,22-tetramethyl-dioxabenzosapphyrin bis(p-toluenesulfonate) hydrogen p-toluenesulfonate oxonium chloroform dichloromethane solvate'
_symmetry_cell_setting           triclinic
_symmetry_space_group_name_H-M   'P -1'
_symmetry_Int_Tables_number      2
_space_group_name_Hall           '-P 1'
loop_
_symmetry_equiv_pos_site_id
_symmetry_equiv_pos_as_xyz
1 x,y,z
2 -x,-y,-z
_cell_length_a                   12.1159(2)
_cell_length_b                   16.7643(3)
_cell_length_c                   17.1620(4)
_cell_angle_alpha                89.461(1)
_cell_angle_beta                 72.917(1)
_cell_angle_gamma                71.945(1)
_cell_volume                     3155.18
_exptl_crystal_colour            'dark blue'
_exptl_crystal_description       plates
_cell_formula_units_Z            2
_exptl_crystal_recrystallization_method 
'hexane/chloroform/dichloromethane/methanol/p- toluenesulfonic acid'
loop_
_atom_site_label
_atom_site_type_symbol
_atom_site_fract_x
_atom_site_fract_y
_atom_site_fract_z
O1 O 0.3216(2) 0.45034(15) 0.61203(15)
O2 O 0.2640(2) 0.52138(15) 0.45646(15)
N1 N 0.5610(3) 0.3382(2) 0.5893(2)
N2 N 0.6896(3) 0.3426(2) 0.3813(2)
H1 H 0.615(4) 0.355(3) 0.408(3)
N3 N 0.4573(3) 0.4641(2) 0.3090(2)
C1 C 0.2122(3) 0.4961(2) 0.6020(2)
C2 C 0.1868(3) 0.5274(2) 0.5335(2)
C3 C 0.1903(3) 0.5611(2) 0.4096(2)
C4 C 0.0696(3) 0.5949(2) 0.4578(3)
C5 C 0.0655(3) 0.5725(2) 0.5372(3)
C6 C -0.0319(3) 0.5840(2) 0.6118(3)
H2 H -0.1136 0.6135 0.6137
C7 C -0.0066(3) 0.5525(3) 0.6798(3)
H3 H -0.0704 0.5604 0.7299
C8 C 0.1170(3) 0.5070(2) 0.6760(2)
C9 C 0.1710(4) 0.4654(3) 0.7337(2)
C10 C 0.2951(3) 0.4305(2) 0.6922(2)
C11 C 0.3895(4) 0.3783(2) 0.7179(2)
H4 H 0.3694 0.3702 0.7746
C12 C 0.5076(4) 0.3372(2) 0.6721(2)
C13 C 0.6017(4) 0.2838(2) 0.7030(2)
C14 C 0.7055(4) 0.2541(2) 0.6397(3)
C15 C 0.6804(3) 0.2888(2) 0.5667(2)
C16 C 0.7703(3) 0.2728(2) 0.4910(2)
H5 H 0.8460 0.2363 0.4944
C17 C 0.7796(3) 0.2954(2) 0.4123(3)
C18 C 0.8926(3) 0.2708(2) 0.3451(3)
C19 C 0.8680(3) 0.3013(2) 0.2764(3)
C20 C 0.7369(3) 0.3460(2) 0.2989(2)
C21 C 0.6788(4) 0.3826(3) 0.2430(2)
H6 H 0.7335 0.3721 0.1888
C22 C 0.5603(3) 0.4312(2) 0.2453(2)
C23 C 0.5325(4) 0.4591(3) 0.1712(3)
C24 C 0.4137(4) 0.5096(3) 0.1930(2)
C25 C 0.3642(4) 0.5128(2) 0.2802(3)
C26 C 0.2455(3) 0.5564(2) 0.3261(3)
H7 H 0.1947 0.5876 0.2959
C27 C -0.0352(3) 0.6446(3) 0.4293(3)
H8 H -0.0071 0.6461 0.3698
H9 H -0.0677 0.7022 0.4557
H10 H -0.0992 0.6181 0.4438
C28 C 0.1095(4) 0.4572(3) 0.8206(3)
H11 H 0.1269 0.3974 0.8299
H12 H 0.0212 0.4841 0.8330
H13 H 0.1397 0.4847 0.8562
C29 C 0.5819(4) 0.2662(3) 0.7913(3)
H14 H 0.5292 0.2308 0.8056
H15 H 0.5431 0.3195 0.8262
H16 H 0.6606 0.2368 0.7997
C30 C 0.8263(4) 0.1950(3) 0.6415(3)
H17 H 0.8330 0.1992 0.6973
H18 H 0.8926 0.2118 0.6035
C31 C 0.8417(5) 0.1037(3) 0.6172(4)
H19 H 0.7771 0.0865 0.6554
H20 H 0.9214 0.0670 0.6190
H21 H 0.8365 0.0991 0.5616
C32 C 1.0139(3) 0.2187(2) 0.3534(3)
H22 H 1.0196 0.2357 0.4068
H23 H 1.0798 0.2305 0.3099
C33 C 1.0329(4) 0.1248(3) 0.3477(3)
H24 H 0.9685 0.1126 0.3911
H25 H 1.1125 0.0940 0.3540
H26 H 1.0300 0.1072 0.2942
C34 C 0.9550(4) 0.2930(3) 0.1921(3)
H27 H 1.0377 0.2840 0.1963
H28 H 0.9310 0.3464 0.1669
C35 C 0.9596(5) 0.2210(3) 0.1363(3)
H29 H 0.9866 0.1675 0.1596
H30 H 1.0169 0.2196 0.0821
H31 H 0.8782 0.2296 0.1314
C36 C 0.6173(4) 0.4307(3) 0.0862(3)
H32 H 0.7007 0.4277 0.0848
H33 H 0.5915 0.4725 0.0485
C37 C 0.6185(4) 0.3450(3) 0.0571(3)
H34 H 0.6368 0.3047 0.0969
H35 H 0.6809 0.3255 0.0039
H36 H 0.5384 0.3496 0.0518
C38 C 0.3462(4) 0.5534(3) 0.1364(3)
H37 H 0.3960 0.5817 0.0980
H38 H 0.2693 0.5952 0.1682
H39 H 0.3290 0.5121 0.1057
H64 H 0.530(3) 0.359(2) 0.561(2)
H65 H 0.448(3) 0.451(2) 0.354(2)
Cl1 Cl 0.3925(2) 0.02508(16) 0.43151(17)
Cl2 Cl 0.15446(18) 0.11277(12) 0.5423(2)
C39 C 0.3092(7) 0.0938(5) 0.5213(7)
H40 H 0.3352 0.0685 0.5680
H41 H 0.3267 0.1477 0.5144
O3 O 0.9294(4) 0.3933(3) -0.0076(2)
H67 H 0.896(5) 0.444(4) -0.020(3)
H68 H 1.004(7) 0.391(4) -0.009(4)
S1 S 0.40176(8) 0.29913(6) 0.44709(6)
O4 O 0.4523(2) 0.36795(15) 0.45351(15)
O5 O 0.3176(2) 0.32143(18) 0.40033(18)
O6 O 0.3565(3) 0.27180(18) 0.52634(18)
C40 C 0.5303(3) 0.2151(2) 0.3898(3)
C41 C 0.6008(4) 0.1591(3) 0.4295(3)
H42 H 0.5777 0.1629 0.4876
C42 C 0.7057(4) 0.0973(3) 0.3836(4)
H43 H 0.7550 0.0595 0.4110
C43 C 0.7404(4) 0.0891(3) 0.2995(4)
C44 C 0.6690(4) 0.1459(3) 0.2608(3)
H44 H 0.6918 0.1417 0.2027
C45 C 0.5646(4) 0.2088(3) 0.3055(3)
H45 H 0.5168 0.2477 0.2781
C46 C 0.8544(5) 0.0191(3) 0.2501(4)
H46 H 0.9262 0.0262 0.2606
H47 H 0.8629 0.0219 0.1917
H48 H 0.8471 -0.0357 0.2664
S2 S 0.76416(10) 0.62135(7) -0.00231(7)
O7 O 0.8284(3) 0.5396(2) -0.0477(2)
O8 O 0.6564(4) 0.6223(3) 0.0584(2)
O9 O 0.8427(4) 0.6522(3) 0.0284(3)
C47 C 0.7253(3) 0.6909(3) -0.0746(3)
C48 C 0.7177(3) 0.6612(3) -0.1469(3)
H49 H 0.7298 0.6030 -0.1567
C49 C 0.6928(4) 0.7148(3) -0.2046(3)
H50 H 0.6885 0.6936 -0.2544
C50 C 0.6739(4) 0.7995(3) -0.1906(4)
C51 C 0.6805(5) 0.8293(3) -0.1177(4)
H51 H 0.6675 0.8876 -0.1077
C52 C 0.7054(4) 0.7754(3) -0.0597(3)
H52 H 0.7089 0.7965 -0.0096
C53 C 0.6488(6) 0.8612(4) -0.2526(5)
H53 H 0.6854 0.8319 -0.3077
H54 H 0.6841 0.9058 -0.2487
H55 H 0.5605 0.8862 -0.2416
S3 S 0.96068(11) 0.25690(8) -0.17298(8)
O10 O 0.9053(3) 0.2825(2) -0.0847(2)
O11 O 0.9505(3) 0.3274(2) -0.2208(2)
O12 O 0.9147(3) 0.1929(2) -0.1935(2)
C54 C 1.1173(5) 0.2089(3) -0.1871(4)
C55 C 1.1516(6) 0.1555(4) -0.1295(5)
H56 H 1.0929 0.1474 -0.0822
C56 C 1.3243(7) 0.1796(5) -0.2691(8)
H57 H 1.3828 0.1890 -0.3158
C57 C 1.3631(9) 0.1249(7) -0.2158(12)
C58 C 1.2763(10) 0.1146(5) -0.1445(9)
H58 H 1.3032 0.0790 -0.1058
C59 C 1.2018(5) 0.2217(4) -0.2564(5)
H59 H 1.1760 0.2588 -0.2944
C60 C 1.4976(8) 0.0784(6) -0.2287(12)
H60 H 1.5111 0.0670 -0.1755
H61 H 1.5462 0.1132 -0.2568
H62 H 1.5222 0.0251 -0.2620
Cl3 Cl 0.61759(17) 0.13877(14) -0.00995(14)
Cl4 Cl 0.79094(18) 0.02830(13) -0.14515(16)
Cl5 Cl 0.8597(3) 0.0625(2) -0.00410(19)
C61 C 0.7704(5) 0.1021(4) -0.0662(4)
H63 H 0.7936 0.1508 -0.0918
H66? H 0.917(5) 0.343(4) -0.054(4)
loop_
_geom_bond_atom_site_label_1
_geom_bond_atom_site_label_2
_geom_bond_site_symmetry_1
_geom_bond_site_symmetry_2
O1 C1 1_555 1_555
O2 C2 1_555 1_555
N1 C12 1_555 1_555
N2 H1 1_555 1_555
N3 C22 1_555 1_555
C1 C2 1_555 1_555
C2 C5 1_555 1_555
C3 O2 1_555 1_555
C4 C3 1_555 1_555
C5 C4 1_555 1_555
C6 C5 1_555 1_555
H2 C6 1_555 1_555
C7 C6 1_555 1_555
H3 C7 1_555 1_555
C8 C1 1_555 1_555
C9 C8 1_555 1_555
C10 O1 1_555 1_555
C11 C10 1_555 1_555
H4 C11 1_555 1_555
C12 C11 1_555 1_555
C13 C12 1_555 1_555
C14 C13 1_555 1_555
C15 N1 1_555 1_555
C16 C15 1_555 1_555
H5 C16 1_555 1_555
C17 N2 1_555 1_555
C18 C17 1_555 1_555
C19 C18 1_555 1_555
C20 N2 1_555 1_555
C21 C20 1_555 1_555
H6 C21 1_555 1_555
C22 C21 1_555 1_555
C23 C22 1_555 1_555
C24 C23 1_555 1_555
C25 N3 1_555 1_555
C26 C3 1_555 1_555
H7 C26 1_555 1_555
C27 C4 1_555 1_555
H8 C27 1_555 1_555
H9 C27 1_555 1_555
H10 C27 1_555 1_555
C28 C9 1_555 1_555
H11 C28 1_555 1_555
H12 C28 1_555 1_555
H13 C28 1_555 1_555
C29 C13 1_555 1_555
H14 C29 1_555 1_555
H15 C29 1_555 1_555
H16 C29 1_555 1_555
C30 C14 1_555 1_555
H17 C30 1_555 1_555
H18 C30 1_555 1_555
C31 C30 1_555 1_555
H19 C31 1_555 1_555
H20 C31 1_555 1_555
H21 C31 1_555 1_555
C32 C18 1_555 1_555
H22 C32 1_555 1_555
H23 C32 1_555 1_555
C33 C32 1_555 1_555
H24 C33 1_555 1_555
H25 C33 1_555 1_555
H26 C33 1_555 1_555
C34 C19 1_555 1_555
H27 C34 1_555 1_555
H28 C34 1_555 1_555
C35 C34 1_555 1_555
H29 C35 1_555 1_555
H30 C35 1_555 1_555
H31 C35 1_555 1_555
C36 C23 1_555 1_555
H32 C36 1_555 1_555
H33 C36 1_555 1_555
C37 C36 1_555 1_555
H34 C37 1_555 1_555
H35 C37 1_555 1_555
H36 C37 1_555 1_555
C38 C24 1_555 1_555
H37 C38 1_555 1_555
H38 C38 1_555 1_555
H39 C38 1_555 1_555
Cl1 C39 1_555 1_555
Cl2 C39 1_555 1_555
C39 H40 1_555 1_555
H41 C39 1_555 1_555
O3 H67 1_555 1_555
S1 O4 1_555 1_555
O5 S1 1_555 1_555
O6 S1 1_555 1_555
C40 S1 1_555 1_555
C41 C40 1_555 1_555
H42 C41 1_555 1_555
C42 C41 1_555 1_555
H43 C42 1_555 1_555
C43 C42 1_555 1_555
C44 C43 1_555 1_555
H44 C44 1_555 1_555
C45 C40 1_555 1_555
H45 C45 1_555 1_555
C46 C43 1_555 1_555
H46 C46 1_555 1_555
H47 C46 1_555 1_555
H48 C46 1_555 1_555
S2 O7 1_555 1_555
O8 S2 1_555 1_555
O9 S2 1_555 1_555
C47 S2 1_555 1_555
C48 C47 1_555 1_555
H49 C48 1_555 1_555
C49 C48 1_555 1_555
H50 C49 1_555 1_555
C50 C49 1_555 1_555
C51 C50 1_555 1_555
H51 C51 1_555 1_555
C52 C47 1_555 1_555
H52 C52 1_555 1_555
C53 C50 1_555 1_555
H53 C53 1_555 1_555
H54 C53 1_555 1_555
H55 C53 1_555 1_555
S3 O10 1_555 1_555
O11 S3 1_555 1_555
O12 S3 1_555 1_555
C54 S3 1_555 1_555
C55 C54 1_555 1_555
H56 C55 1_555 1_555
C56 H57 1_555 1_555
C57 C56 1_555 1_555
C58 C55 1_555 1_555
H58 C58 1_555 1_555
C59 C54 1_555 1_555
H59 C59 1_555 1_555
C60 C57 1_555 1_555
H60 C60 1_555 1_555
H61 C60 1_555 1_555
H62 C60 1_555 1_555
Cl3 C61 1_555 1_555
Cl4 C61 1_555 1_555
Cl5 C61 1_555 1_555
C61 H63 1_555 1_555
H64 N1 1_555 1_555
H65 N3 1_555 1_555
H68 O3 1_555 1_555
C7 C8 1_555 1_555
C9 C10 1_555 1_555
C14 C15 1_555 1_555
C16 C17 1_555 1_555
C19 C20 1_555 1_555
C24 C25 1_555 1_555
C25 C26 1_555 1_555
C44 C45 1_555 1_555
C51 C52 1_555 1_555
C56 C59 1_555 1_555
C57 C58 1_555 1_555

#END
