
#######################################################################
#
#                 Cambridge Crystallographic Data Centre
#                                CCDC 
#
#######################################################################
#
# If this CIF has been generated from an entry in the Cambridge 
# Structural Database, then it will include bibliographic, chemical, 
# crystal, experimental, refinement or atomic coordinate data resulting 
# from the CCDC's data processing and validation procedures.
#
#######################################################################

data_JOGHOE
_chemical_formula_moiety         'C13 H9 F1 N4 O5'
_chemical_name_systematic        N'-(2,4-dinitrophenyl)-2-fluorobenzohydrazide
_symmetry_cell_setting           orthorhombic
_symmetry_space_group_name_H-M   'P 21 21 21'
_symmetry_Int_Tables_number      19
_space_group_name_Hall           'P 2ac 2ab'
loop_
_symmetry_equiv_pos_site_id
_symmetry_equiv_pos_as_xyz
1 x,y,z
2 1/2-x,-y,1/2+z
3 -x,1/2+y,1/2-z
4 1/2+x,1/2-y,-z
_cell_length_a                   4.8195(11)
_cell_length_b                   12.314(3)
_cell_length_c                   21.582(5)
_cell_angle_alpha                90
_cell_angle_beta                 90
_cell_angle_gamma                90
_cell_volume                     1280.83
_exptl_crystal_colour            yellow
_exptl_crystal_description       prism
_cell_formula_units_Z            4
loop_
_atom_site_label
_atom_site_type_symbol
_atom_site_fract_x
_atom_site_fract_y
_atom_site_fract_z
F1 F 0.4642(3) 0.96115(9) 0.14243(5)
O1 O 0.7817(3) 1.22859(11) 0.04805(7)
O2 O 0.7976(4) 1.68664(12) 0.24466(7)
O3 O 1.0295(4) 1.56084(13) 0.29225(7)
O4 O 0.0833(3) 1.60067(11) 0.10806(7)
O5 O 0.0086(3) 1.43803(11) 0.07416(6)
N1 N 0.3160(4) 1.27469(12) 0.11053(7)
H1 H 0.191(5) 1.2914(19) 0.0830(10)
N2 N 0.8553(4) 1.59038(15) 0.25421(7)
N3 N 0.1387(3) 1.50286(13) 0.10648(7)
N4 N 0.4267(4) 1.17048(13) 0.10751(7)
H2 H 0.327(6) 1.1185(19) 0.1210(11)
C1 C 0.6583(4) 1.15348(15) 0.07221(8)
C2 C 0.7595(4) 1.03874(15) 0.06625(8)
C3 C 0.9708(4) 1.02088(14) 0.02294(8)
H3 H 1.0408 1.0803 -0.0004
C4 C 1.0800(4) 0.91786(15) 0.01344(9)
H4 H 1.2208 0.9069 -0.0167
C5 C 0.9829(5) 0.83097(16) 0.04811(9)
H5 H 1.0580 0.7605 0.0417
C6 C 0.7771(5) 0.84629(16) 0.09194(9)
H6 H 0.7121 0.7873 0.1163
C7 C 0.6685(4) 0.94882(15) 0.09955(8)
C8 C 0.4398(4) 1.35107(15) 0.14599(8)
C9 C 0.6573(4) 1.32263(16) 0.18753(8)
H7 H 0.7142 1.2489 0.1902
C10 C 0.7866(4) 1.39836(16) 0.22367(8)
H8 H 0.9279 1.3770 0.2519
C11 C 0.7090(4) 1.50794(16) 0.21883(8)
C12 C 0.4993(4) 1.54000(15) 0.18048(8)
H9 H 0.4470 1.6143 0.1782
C13 C 0.3630(4) 1.46246(15) 0.14484(8)
loop_
_geom_bond_atom_site_label_1
_geom_bond_atom_site_label_2
_geom_bond_site_symmetry_1
_geom_bond_site_symmetry_2
F1 C7 1_555 1_555
O1 C1 1_555 1_555
O2 N2 1_555 1_555
O3 N2 1_555 1_555
O4 N3 1_555 1_555
O5 N3 1_555 1_555
N1 H1 1_555 1_555
N2 C11 1_555 1_555
N3 C13 1_555 1_555
N4 N1 1_555 1_555
H2 N4 1_555 1_555
C1 N4 1_555 1_555
C2 C1 1_555 1_555
C3 C2 1_555 1_555
H3 C3 1_555 1_555
C4 C3 1_555 1_555
H4 C4 1_555 1_555
C5 C4 1_555 1_555
H5 C5 1_555 1_555
C6 C5 1_555 1_555
H6 C6 1_555 1_555
C7 C2 1_555 1_555
C8 N1 1_555 1_555
C9 C8 1_555 1_555
H7 C9 1_555 1_555
C10 C9 1_555 1_555
H8 C10 1_555 1_555
C11 C10 1_555 1_555
C12 C11 1_555 1_555
H9 C12 1_555 1_555
C13 C8 1_555 1_555
C6 C7 1_555 1_555
C12 C13 1_555 1_555

#END
