
#######################################################################
#
#                 Cambridge Crystallographic Data Centre
#                                CCDC 
#
#######################################################################
#
# If this CIF has been generated from an entry in the Cambridge 
# Structural Database, then it will include bibliographic, chemical, 
# crystal, experimental, refinement or atomic coordinate data resulting 
# from the CCDC's data processing and validation procedures.
#
#######################################################################

data_JOGMUP
_chemical_formula_moiety         'C29 H50 O1,0.5(H2 O1)'
_chemical_name_systematic        'stigmast-5-en-3-ol hemihydrate'
_symmetry_cell_setting           monoclinic
_symmetry_space_group_name_H-M   'P 21'
_symmetry_Int_Tables_number      4
_space_group_name_Hall           'P 2yb'
loop_
_symmetry_equiv_pos_site_id
_symmetry_equiv_pos_as_xyz
1 x,y,z
2 -x,1/2+y,-z
_cell_length_a                   9.4226(7)
_cell_length_b                   7.4824(9)
_cell_length_c                   36.889(3)
_cell_angle_alpha                90
_cell_angle_beta                 93.117(6)
_cell_angle_gamma                90
_cell_volume                     2596.96
_cell_formula_units_Z            4
loop_
_atom_site_label
_atom_site_type_symbol
_atom_site_fract_x
_atom_site_fract_y
_atom_site_fract_z
C1 C -0.3166(4) 1.9551(5) -0.57910(9)
H1 H -0.3288 1.8286 -0.5865
H2 H -0.2244 1.9964 -0.5877
C2 C -0.3105(4) 1.9649(5) -0.53736(10)
H3 H -0.3994 1.9160 -0.5282
H4 H -0.2301 1.8921 -0.5272
C3 C -0.2919(4) 2.1563(5) -0.52533(9)
H5 H -0.2016 2.2029 -0.5348
C4 C -0.4154(4) 2.2699(5) -0.54130(10)
H6 H -0.5051 2.2297 -0.5311
H7 H -0.3999 2.3964 -0.5343
C5 C -0.4284(4) 2.2555(5) -0.58192(9)
C6 C -0.4299(4) 2.4031(5) -0.60251(10)
H8 H -0.4221 2.5148 -0.5903
C7 C -0.4430(4) 2.4062(5) -0.64310(9)
H9 H -0.3495 2.4360 -0.6525
H10 H -0.5109 2.5010 -0.6511
C8 C -0.4939(3) 2.2272(5) -0.65909(9)
H11 H -0.5977 2.2130 -0.6555
C9 C -0.4112(3) 2.0737(4) -0.63925(9)
H12 H -0.3079 2.0998 -0.6413
C10 C -0.4368(3) 2.0668(5) -0.59819(9)
C11 C -0.4404(4) 1.8917(5) -0.65822(9)
H13 H -0.5383 1.8531 -0.6536
H14 H -0.3741 1.8016 -0.6473
C12 C -0.4239(4) 1.8962(5) -0.69984(9)
H15 H -0.3230 1.9176 -0.7047
H16 H -0.4515 1.7786 -0.7103
C13 C -0.5160(4) 2.0424(5) -0.71834(9)
C14 C -0.4691(3) 2.2186(5) -0.69930(9)
H17 H -0.3640 2.2270 -0.7014
C15 C -0.5347(4) 2.3663(5) -0.72374(10)
H18 H -0.4789 2.4782 -0.7212
H19 H -0.6341 2.3908 -0.7178
C16 C -0.5280(4) 2.2875(5) -0.76265(11)
H20 H -0.4565 2.3523 -0.7763
H21 H -0.6216 2.2988 -0.7760
C17 C -0.4859(4) 2.0861(5) -0.75841(10)
H22 H -0.3807 2.0780 -0.7606
C18 C -0.5822(4) 1.9846(5) -0.59041(10)
H23 H -0.5814 1.8566 -0.5960
H24 H -0.6570 2.0435 -0.6055
H25 H -0.6006 2.0015 -0.5647
C19 C -0.6753(4) 2.0047(5) -0.71474(10)
H26 H -0.6990 1.8870 -0.7250
H27 H -0.7317 2.0965 -0.7279
H28 H -0.6967 2.0066 -0.6890
C20 C -0.5563(4) 1.9733(6) -0.78918(10)
H29 H -0.6615 1.9904 -0.7890
C21 C -0.5245(4) 1.7725(5) -0.78529(11)
H30 H -0.5603 1.7286 -0.7625
H31 H -0.4216 1.7531 -0.7852
H32 H -0.5712 1.7078 -0.8057
C22 C -0.5063(7) 2.0428(7) -0.82587(11)
H33 H -0.5426 2.1662 -0.8291
H34 H -0.4013 2.0507 -0.8237
C23 C -0.5469(8) 1.9388(11) -0.86116(16)
H35 H -0.5043 1.9987 -0.8819
H36 H -0.5074 1.8163 -0.8592
C24 C -0.6991(9) 1.9285(14) -0.8680(3)
H37 H -0.7467 1.8976 -0.8452
C25 C -0.7479(12) 1.7843(13) -0.9015(3)
H38 H -0.8534 1.7888 -0.9061
C26 C -0.7031(13) 1.5917(17) -0.8856(3)
H39 H -0.7418 1.5761 -0.8617
H40 H -0.5992 1.5829 -0.8833
H41 H -0.7408 1.4984 -0.9021
C27 C -0.6855(19) 1.823(2) -0.9321(3)
H42 H -0.5835 1.7976 -0.9290
H43 H -0.6999 1.9492 -0.9380
H44 H -0.7273 1.7489 -0.9519
C28 C -0.7461(13) 2.1134(17) -0.8816(4)
H45 H -0.6788 2.1572 -0.8993
H46 H -0.7440 2.1980 -0.8610
C29 C -0.9050(12) 2.107(2) -0.9008(4)
H47 H -0.9735 2.0802 -0.8824
H48 H -0.9099 2.0141 -0.9195
H49 H -0.9279 2.2233 -0.9119
O1 O -0.2813(3) 2.1663(4) -0.48654(7)
H50 H -0.2392 2.2610 -0.4801
C30 C 0.0472(4) 3.1295(5) -0.37711(9)
H51 H 0.0512 3.2552 -0.3687
H52 H 0.1456 3.0826 -0.3759
C31 C -0.0111(4) 3.1255(5) -0.41661(9)
H53 H -0.1071 3.1795 -0.4184
H54 H 0.0514 3.1966 -0.4318
C32 C -0.0185(4) 2.9339(5) -0.43032(9)
H55 H 0.0798 2.8834 -0.4283
C33 C -0.1118(4) 2.8211(5) -0.40619(10)
H56 H -0.2113 2.8635 -0.4090
H57 H -0.1097 2.6949 -0.4142
C34 C -0.0615(4) 2.8321(5) -0.36660(9)
C35 C -0.0312(4) 2.6826(5) -0.34800(10)
H58 H -0.0400 2.5721 -0.3606
C36 C 0.0158(4) 2.6778(5) -0.30860(10)
H59 H 0.1188 2.6511 -0.3062
H60 H -0.0351 2.5806 -0.2965
C37 C -0.0124(3) 2.8533(5) -0.28974(9)
H61 H -0.1170 2.8654 -0.2870
C38 C 0.0386(3) 3.0113(5) -0.31269(8)
H62 H 0.1404 2.9866 -0.3172
C39 C -0.0423(3) 3.0192(5) -0.35087(9)
C40 C 0.0366(4) 3.1902(5) -0.29228(9)
H63 H -0.0633 3.2278 -0.2902
H64 H 0.0840 3.2819 -0.3067
C41 C 0.1104(4) 3.1833(5) -0.25405(9)
H65 H 0.0997 3.3002 -0.2419
H66 H 0.2132 3.1606 -0.2561
C42 C 0.0461(4) 3.0347(5) -0.23084(10)
C43 C 0.0643(4) 2.8597(5) -0.25208(10)
H67 H 0.1680 2.8487 -0.2561
C44 C 0.0298(5) 2.7135(6) -0.22513(11)
H68 H 0.0756 2.5991 -0.2312
H69 H -0.0741 2.6949 -0.2246
C45 C 0.0919(5) 2.7879(6) -0.18862(11)
H70 H 0.1776 2.7194 -0.1804
H71 H 0.0211 2.7779 -0.1699
C46 C 0.1309(4) 2.9872(6) -0.19457(11)
H72 H 0.2342 2.9914 -0.1995
C47 C -0.1899(3) 3.1073(5) -0.34822(9)
H73 H -0.1781 3.2360 -0.3441
H74 H -0.2384 3.0543 -0.3280
H75 H -0.2468 3.0874 -0.3709
C48 C -0.1101(4) 3.0744(5) -0.22360(10)
H76 H -0.1674 3.0726 -0.2466
H77 H -0.1170 3.1925 -0.2123
H78 H -0.1455 2.9834 -0.2073
C49 C 0.1106(5) 3.1011(7) -0.16049(11)
H79 H 0.0111 3.0827 -0.1531
C50 C 0.1317(6) 3.2991(7) -0.16626(12)
H80 H 0.0500 3.3475 -0.1806
H81 H 0.2185 3.3185 -0.1792
H82 H 0.1402 3.3596 -0.1427
C51 C 0.2130(6) 3.0332(9) -0.12904(12)
H83 H 0.2219 2.9017 -0.1310
H84 H 0.3083 3.0853 -0.1319
C52 C 0.1660(8) 3.0785(15) -0.09168(15)
H85 H 0.0738 3.0190 -0.0883
H86 H 0.1498 3.2091 -0.0905
C53 C 0.2694(13) 3.0257(16) -0.06016(17)
H87 H 0.3424 3.1224 -0.0608
C54 C 0.3598(16) 2.859(3) -0.0626(3)
H88 H 0.4077 2.8580 -0.0861
C55 C 0.4695(17) 2.850(3) -0.0315(3)
H89 H 0.4219 2.8454 -0.0085
H90 H 0.5299 2.9568 -0.0318
H91 H 0.5281 2.7432 -0.0339
C56 C 0.257(2) 2.706(4) -0.0617(5)
H92 H 0.1943 2.7081 -0.0837
H93 H 0.2008 2.7175 -0.0403
H94 H 0.3101 2.5933 -0.0605
C57 C 0.2028(16) 3.063(2) -0.0237(2)
H95 H 0.1159 2.9893 -0.0224
H96 H 0.2705 3.0239 -0.0038
C58 C 0.165(2) 3.251(3) -0.0175(3)
H97 H 0.1621 3.2729 0.0086
H98 H 0.0719 3.2762 -0.0294
H99 H 0.2367 3.3287 -0.0276
O2 O -0.0688(3) 2.9212(4) -0.46747(7)
H100 H -0.1373 2.9918 -0.4713
O3 O -0.1412(4) 2.5070(4) -0.48373(8)
H101 H -0.143(5) 2.6196(16) -0.4817(15)
H102 H -0.072(4) 2.478(6) -0.4965(13)
loop_
_geom_bond_atom_site_label_1
_geom_bond_atom_site_label_2
_geom_bond_site_symmetry_1
_geom_bond_site_symmetry_2
C1 H1 1_555 1_555
H2 C1 1_555 1_555
C2 C1 1_555 1_555
H3 C2 1_555 1_555
H4 C2 1_555 1_555
C3 C2 1_555 1_555
H5 C3 1_555 1_555
C4 C3 1_555 1_555
H6 C4 1_555 1_555
H7 C4 1_555 1_555
C5 C4 1_555 1_555
C6 C5 1_555 1_555
H8 C6 1_555 1_555
C7 C6 1_555 1_555
H9 C7 1_555 1_555
H10 C7 1_555 1_555
C8 C7 1_555 1_555
H11 C8 1_555 1_555
C9 C8 1_555 1_555
H12 C9 1_555 1_555
C10 C1 1_555 1_555
C11 C9 1_555 1_555
H13 C11 1_555 1_555
H14 C11 1_555 1_555
C12 C11 1_555 1_555
H15 C12 1_555 1_555
H16 C12 1_555 1_555
C13 C12 1_555 1_555
C14 C8 1_555 1_555
H17 C14 1_555 1_555
C15 C14 1_555 1_555
H18 C15 1_555 1_555
H19 C15 1_555 1_555
C16 C15 1_555 1_555
H20 C16 1_555 1_555
H21 C16 1_555 1_555
C17 C13 1_555 1_555
H22 C17 1_555 1_555
C18 C10 1_555 1_555
H23 C18 1_555 1_555
H24 C18 1_555 1_555
H25 C18 1_555 1_555
C19 C13 1_555 1_555
H26 C19 1_555 1_555
H27 C19 1_555 1_555
H28 C19 1_555 1_555
C20 C17 1_555 1_555
H29 C20 1_555 1_555
C21 C20 1_555 1_555
H30 C21 1_555 1_555
H31 C21 1_555 1_555
H32 C21 1_555 1_555
C22 C20 1_555 1_555
H33 C22 1_555 1_555
H34 C22 1_555 1_555
C23 C22 1_555 1_555
H35 C23 1_555 1_555
H36 C23 1_555 1_555
C24 C23 1_555 1_555
H37 C24 1_555 1_555
C25 C24 1_555 1_555
H38 C25 1_555 1_555
C26 C25 1_555 1_555
H39 C26 1_555 1_555
H40 C26 1_555 1_555
H41 C26 1_555 1_555
C27 C25 1_555 1_555
H42 C27 1_555 1_555
H43 C27 1_555 1_555
H44 C27 1_555 1_555
C28 C24 1_555 1_555
H45 C28 1_555 1_555
H46 C28 1_555 1_555
C29 C28 1_555 1_555
H47 C29 1_555 1_555
H48 C29 1_555 1_555
H49 C29 1_555 1_555
O1 C3 1_555 1_555
H50 O1 1_555 1_555
C30 H51 1_555 1_555
H52 C30 1_555 1_555
C31 C30 1_555 1_555
H53 C31 1_555 1_555
H54 C31 1_555 1_555
C32 C31 1_555 1_555
H55 C32 1_555 1_555
C33 C32 1_555 1_555
H56 C33 1_555 1_555
H57 C33 1_555 1_555
C34 C33 1_555 1_555
C35 C34 1_555 1_555
H58 C35 1_555 1_555
C36 C35 1_555 1_555
H59 C36 1_555 1_555
H60 C36 1_555 1_555
C37 C36 1_555 1_555
H61 C37 1_555 1_555
C38 C37 1_555 1_555
H62 C38 1_555 1_555
C39 C30 1_555 1_555
C40 C38 1_555 1_555
H63 C40 1_555 1_555
H64 C40 1_555 1_555
C41 C40 1_555 1_555
H65 C41 1_555 1_555
H66 C41 1_555 1_555
C42 C41 1_555 1_555
C43 C37 1_555 1_555
H67 C43 1_555 1_555
C44 C43 1_555 1_555
H68 C44 1_555 1_555
H69 C44 1_555 1_555
C45 C44 1_555 1_555
H70 C45 1_555 1_555
H71 C45 1_555 1_555
C46 C42 1_555 1_555
H72 C46 1_555 1_555
C47 C39 1_555 1_555
H73 C47 1_555 1_555
H74 C47 1_555 1_555
H75 C47 1_555 1_555
C48 C42 1_555 1_555
H76 C48 1_555 1_555
H77 C48 1_555 1_555
H78 C48 1_555 1_555
C49 C46 1_555 1_555
H79 C49 1_555 1_555
C50 C49 1_555 1_555
H80 C50 1_555 1_555
H81 C50 1_555 1_555
H82 C50 1_555 1_555
C51 C49 1_555 1_555
H83 C51 1_555 1_555
H84 C51 1_555 1_555
C52 C51 1_555 1_555
H85 C52 1_555 1_555
H86 C52 1_555 1_555
C53 C52 1_555 1_555
H87 C53 1_555 1_555
C54 C53 1_555 1_555
H88 C54 1_555 1_555
C55 C54 1_555 1_555
H89 C55 1_555 1_555
H90 C55 1_555 1_555
H91 C55 1_555 1_555
C56 C54 1_555 1_555
H92 C56 1_555 1_555
H93 C56 1_555 1_555
H94 C56 1_555 1_555
C57 C53 1_555 1_555
H95 C57 1_555 1_555
H96 C57 1_555 1_555
C58 C57 1_555 1_555
H97 C58 1_555 1_555
H98 C58 1_555 1_555
H99 C58 1_555 1_555
O2 C32 1_555 1_555
H100 O2 1_555 1_555
O3 H101 1_555 1_555
H102 O3 1_555 1_555
C5 C10 1_555 1_555
C9 C10 1_555 1_555
C13 C14 1_555 1_555
C16 C17 1_555 1_555
C34 C39 1_555 1_555
C38 C39 1_555 1_555
C42 C43 1_555 1_555
C45 C46 1_555 1_555

#END
