
#######################################################################
#
#                 Cambridge Crystallographic Data Centre
#                                CCDC 
#
#######################################################################
#
# If this CIF has been generated from an entry in the Cambridge 
# Structural Database, then it will include bibliographic, chemical, 
# crystal, experimental, refinement or atomic coordinate data resulting 
# from the CCDC's data processing and validation procedures.
#
#######################################################################

data_JOGRII
_chemical_formula_moiety         'C46 H46 Mg1 O4'
_chemical_name_systematic        
bis(tetrahydrofuran)-bis(triphenylmethanolato)-magnesium
_symmetry_cell_setting           monoclinic
_symmetry_space_group_name_H-M   'C 2/c'
_symmetry_Int_Tables_number      15
_space_group_name_Hall           '-C 2yn'
loop_
_symmetry_equiv_pos_site_id
_symmetry_equiv_pos_as_xyz
1 x,y,z
2 -x,y,1/2-z
3 1/2+x,1/2+y,z
4 1/2-x,1/2+y,1/2-z
5 -x,-y,-z
6 x,-y,1/2+z
7 1/2-x,1/2-y,-z
8 1/2+x,1/2-y,1/2+z
_cell_length_a                   19.0981(16)
_cell_length_b                   9.6221(8)
_cell_length_c                   22.024(3)
_cell_angle_alpha                90
_cell_angle_beta                 109.3890(10)
_cell_angle_gamma                90
_cell_volume                     3817.68
_exptl_crystal_colour            colorless
_exptl_crystal_description       block
_cell_formula_units_Z            4
loop_
_atom_site_label
_atom_site_type_symbol
_atom_site_fract_x
_atom_site_fract_y
_atom_site_fract_z
Mg1 Mg 0.0000 0.21538(9) 0.2500
O1 O 0.05970(7) 0.28727(13) 0.20558(6)
O2 O 0.07361(8) 0.07655(16) 0.30477(8)
C1 C 0.05166(9) 0.3627(2) 0.15008(8)
C2 C -0.03185(10) 0.3736(2) 0.11102(9)
C3 C -0.07775(10) 0.4422(2) 0.13936(9)
H1 H -0.0568 0.4848 0.1792
C4 C -0.15381(11) 0.4476(2) 0.10915(11)
H2 H -0.1835 0.4928 0.1289
C5 C -0.18565(11) 0.3862(2) 0.04983(11)
H3 H -0.2368 0.3901 0.0294
C6 C -0.14127(11) 0.3190(2) 0.02101(11)
H4 H -0.1625 0.2780 -0.0192
C7 C -0.06497(10) 0.3120(2) 0.05152(9)
H5 H -0.0357 0.2653 0.0317
C8 C 0.09343(9) 0.29012(19) 0.10927(8)
C9 C 0.11808(10) 0.1553(2) 0.12257(10)
H6 H 0.1098 0.1083 0.1564
C10 C 0.15497(12) 0.0888(2) 0.08630(10)
H7 H 0.1711 -0.0022 0.0960
C11 C 0.16783(12) 0.1564(2) 0.03616(10)
H8 H 0.1927 0.1118 0.0118
C12 C 0.14362(12) 0.2905(2) 0.02236(10)
H9 H 0.1519 0.3370 -0.0116
C13 C 0.10720(10) 0.3567(2) 0.05837(9)
H10 H 0.0914 0.4479 0.0485
C14 C 0.08634(9) 0.5084(2) 0.16677(8)
C15 C 0.06047(11) 0.6252(2) 0.12906(10)
H11 H 0.0175 0.6188 0.0935
C16 C 0.09733(12) 0.7504(2) 0.14338(11)
H12 H 0.0791 0.8271 0.1172
C17 C 0.16046(13) 0.7631(2) 0.19563(12)
H13 H 0.1854 0.8476 0.2047
C18 C 0.18678(12) 0.6493(3) 0.23474(11)
H14 H 0.2293 0.6573 0.2706
C19 C 0.14979(10) 0.5227(2) 0.22057(9)
H15 H 0.1676 0.4468 0.2473
C20 C 0.05641(17) -0.0347(3) 0.34154(15)
H16 H 0.0093 -0.0776 0.3178
H17 H 0.0540 -0.0004 0.3822
C21 C 0.11798(19) -0.1346(3) 0.35209(15)
H18 H 0.1093 -0.1964 0.3155
H19 H 0.1248 -0.1895 0.3906
C22 C 0.18374(17) -0.0423(3) 0.35964(14)
H20 H 0.2065 -0.0139 0.4041
H21 H 0.2206 -0.0896 0.3457
C23 C 0.15265(12) 0.0797(3) 0.31775(13)
H22 H 0.1736 0.1653 0.3395
H23 H 0.1638 0.0735 0.2780
O1A O -0.05970(7) 0.28727(13) 0.29442(6)
O2A O -0.07361(8) 0.07655(16) 0.19523(8)
C1A C -0.05166(9) 0.3627(2) 0.34992(8)
C2A C 0.03185(10) 0.3736(2) 0.38898(9)
C3A C 0.07775(10) 0.4422(2) 0.36064(9)
H1A H 0.0568 0.4848 0.3208
C4A C 0.15381(11) 0.4476(2) 0.39085(11)
H2A H 0.1835 0.4928 0.3711
C5A C 0.18565(11) 0.3862(2) 0.45017(11)
H3A H 0.2368 0.3901 0.4706
C6A C 0.14127(11) 0.3190(2) 0.47899(11)
H4A H 0.1625 0.2780 0.5192
C7A C 0.06497(10) 0.3120(2) 0.44848(9)
H5A H 0.0357 0.2653 0.4683
C8A C -0.09343(9) 0.29012(19) 0.39073(8)
C9A C -0.11808(10) 0.1553(2) 0.37743(10)
H6A H -0.1098 0.1083 0.3436
C10A C -0.15497(12) 0.0888(2) 0.41370(10)
H7A H -0.1711 -0.0022 0.4040
C11A C -0.16783(12) 0.1564(2) 0.46384(10)
H8A H -0.1927 0.1118 0.4882
C12A C -0.14362(12) 0.2905(2) 0.47764(10)
H9A H -0.1519 0.3370 0.5116
C13A C -0.10720(10) 0.3567(2) 0.44163(9)
H10A H -0.0914 0.4479 0.4515
C14A C -0.08634(9) 0.5084(2) 0.33323(8)
C15A C -0.06047(11) 0.6252(2) 0.37094(10)
H11A H -0.0175 0.6188 0.4065
C16A C -0.09733(12) 0.7504(2) 0.35662(11)
H12A H -0.0791 0.8271 0.3828
C17A C -0.16046(13) 0.7631(2) 0.30437(12)
H13A H -0.1854 0.8476 0.2953
C18A C -0.18678(12) 0.6493(3) 0.26526(11)
H14A H -0.2293 0.6573 0.2294
C19A C -0.14979(10) 0.5227(2) 0.27943(9)
H15A H -0.1676 0.4468 0.2527
C20A C -0.05641(17) -0.0347(3) 0.15846(15)
H16A H -0.0093 -0.0776 0.1822
H17A H -0.0540 -0.0004 0.1178
C21A C -0.11798(19) -0.1346(3) 0.14791(15)
H18A H -0.1093 -0.1964 0.1845
H19A H -0.1248 -0.1895 0.1094
C22A C -0.18374(17) -0.0423(3) 0.14036(14)
H20A H -0.2065 -0.0139 0.0959
H21A H -0.2206 -0.0896 0.1543
C23A C -0.15265(12) 0.0797(3) 0.18225(13)
H22A H -0.1736 0.1653 0.1605
H23A H -0.1638 0.0735 0.2220
loop_
_geom_bond_atom_site_label_1
_geom_bond_atom_site_label_2
_geom_bond_site_symmetry_1
_geom_bond_site_symmetry_2
Mg1 O1 1_555 1_555
O1 C1 1_555 1_555
O2 Mg1 1_555 1_555
C1 C2 1_555 1_555
C2 C3 1_555 1_555
C3 H1 1_555 1_555
C4 C3 1_555 1_555
H2 C4 1_555 1_555
C5 C4 1_555 1_555
H3 C5 1_555 1_555
C6 C5 1_555 1_555
H4 C6 1_555 1_555
C7 C2 1_555 1_555
H5 C7 1_555 1_555
C8 C1 1_555 1_555
C9 C8 1_555 1_555
H6 C9 1_555 1_555
C10 C9 1_555 1_555
H7 C10 1_555 1_555
C11 C10 1_555 1_555
H8 C11 1_555 1_555
C12 C11 1_555 1_555
H9 C12 1_555 1_555
C13 C8 1_555 1_555
H10 C13 1_555 1_555
C14 C1 1_555 1_555
C15 C14 1_555 1_555
H11 C15 1_555 1_555
C16 C15 1_555 1_555
H12 C16 1_555 1_555
C17 C16 1_555 1_555
H13 C17 1_555 1_555
C18 C17 1_555 1_555
H14 C18 1_555 1_555
C19 C14 1_555 1_555
H15 C19 1_555 1_555
C20 O2 1_555 1_555
H16 C20 1_555 1_555
H17 C20 1_555 1_555
C21 C20 1_555 1_555
H18 C21 1_555 1_555
H19 C21 1_555 1_555
C22 C21 1_555 1_555
H20 C22 1_555 1_555
H21 C22 1_555 1_555
C23 O2 1_555 1_555
H22 C23 1_555 1_555
H23 C23 1_555 1_555
O1A Mg1 1_555 1_555
O2A Mg1 1_555 1_555
C1A O1A 1_555 1_555
C2A C1A 1_555 1_555
C3A C2A 1_555 1_555
H1A C3A 1_555 1_555
C4A C3A 1_555 1_555
H2A C4A 1_555 1_555
C5A C4A 1_555 1_555
H3A C5A 1_555 1_555
C6A C5A 1_555 1_555
H4A C6A 1_555 1_555
C7A C2A 1_555 1_555
H5A C7A 1_555 1_555
C8A C1A 1_555 1_555
C9A C8A 1_555 1_555
H6A C9A 1_555 1_555
C10A C9A 1_555 1_555
H7A C10A 1_555 1_555
C11A C10A 1_555 1_555
H8A C11A 1_555 1_555
C12A C11A 1_555 1_555
H9A C12A 1_555 1_555
C13A C8A 1_555 1_555
H10A C13A 1_555 1_555
C14A C1A 1_555 1_555
C15A C14A 1_555 1_555
H11A C15A 1_555 1_555
C16A C15A 1_555 1_555
H12A C16A 1_555 1_555
C17A C16A 1_555 1_555
H13A C17A 1_555 1_555
C18A C17A 1_555 1_555
H14A C18A 1_555 1_555
C19A C14A 1_555 1_555
H15A C19A 1_555 1_555
C20A O2A 1_555 1_555
H16A C20A 1_555 1_555
H17A C20A 1_555 1_555
C21A C20A 1_555 1_555
H18A C21A 1_555 1_555
H19A C21A 1_555 1_555
C22A C21A 1_555 1_555
H20A C22A 1_555 1_555
H21A C22A 1_555 1_555
C23A O2A 1_555 1_555
H22A C23A 1_555 1_555
H23A C23A 1_555 1_555
C6 C7 1_555 1_555
C12 C13 1_555 1_555
C18 C19 1_555 1_555
C22 C23 1_555 1_555
C6A C7A 1_555 1_555
C12A C13A 1_555 1_555
C18A C19A 1_555 1_555
C22A C23A 1_555 1_555

#END
