
#######################################################################
#
#                 Cambridge Crystallographic Data Centre
#                                CCDC 
#
#######################################################################
#
# If this CIF has been generated from an entry in the Cambridge 
# Structural Database, then it will include bibliographic, chemical, 
# crystal, experimental, refinement or atomic coordinate data resulting 
# from the CCDC's data processing and validation procedures.
#
#######################################################################

data_JOGSUV
_chemical_formula_moiety         'C25 H21 N1 O2 S1'
_chemical_name_systematic        
2-((4-methylphenyl)sulfonyl)-5-phenyl-3,4-dihydro-2H-indeno[1,2-c]pyridine
_symmetry_cell_setting           monoclinic
_symmetry_space_group_name_H-M   'P 21/n'
_symmetry_Int_Tables_number      14
_space_group_name_Hall           '-P 2yn'
loop_
_symmetry_equiv_pos_site_id
_symmetry_equiv_pos_as_xyz
1 x,y,z
2 1/2-x,1/2+y,1/2-z
3 -x,-y,-z
4 1/2+x,1/2-y,1/2+z
_cell_length_a                   6.6419(11)
_cell_length_b                   27.305(5)
_cell_length_c                   11.2890(18)
_cell_angle_alpha                90
_cell_angle_beta                 105.630(3)
_cell_angle_gamma                90
_cell_volume                     1971.63
_exptl_crystal_colour            yellow
_exptl_crystal_description       block
_cell_formula_units_Z            4
loop_
_atom_site_label
_atom_site_type_symbol
_atom_site_fract_x
_atom_site_fract_y
_atom_site_fract_z
N1 N 0.5745(3) 0.17043(6) 0.18691(15)
O1 O 0.2714(2) 0.11445(6) 0.15371(15)
O2 O 0.6124(3) 0.09144(6) 0.29695(14)
S1 S 0.49423(8) 0.113142(19) 0.18427(5)
C1 C 0.7803(3) 0.18241(7) 0.25172(17)
H1 H 0.8676 0.1586 0.3018
C2 C 0.8530(3) 0.22770(7) 0.24253(16)
C3 C 1.0596(3) 0.24879(7) 0.29782(16)
C4 C 1.2426(3) 0.22932(8) 0.37327(17)
H2 H 1.2520 0.1954 0.3931
C5 C 1.4118(3) 0.26023(8) 0.41939(19)
H3 H 1.5375 0.2474 0.4717
C6 C 1.3986(3) 0.30986(8) 0.38953(19)
H4 H 1.5142 0.3307 0.4238
C7 C 1.2183(3) 0.32942(7) 0.31010(18)
H5 H 1.2118 0.3631 0.2883
C8 C 1.0487(3) 0.29878(7) 0.26348(16)
C9 C 0.8359(3) 0.30894(7) 0.18484(16)
C10 C 0.7224(3) 0.26681(7) 0.17488(16)
C11 C 0.4985(3) 0.25551(7) 0.11129(18)
H6 H 0.4520 0.2755 0.0357
H7 H 0.4093 0.2637 0.1660
C12 C 0.4764(3) 0.20123(7) 0.07815(18)
H8 H 0.3264 0.1928 0.0474
H9 H 0.5440 0.1945 0.0117
C13 C 0.7666(3) 0.35571(7) 0.12174(16)
C14 C 0.8967(3) 0.38130(7) 0.06450(18)
H10 H 1.0345 0.3697 0.0721
C15 C 0.8276(4) 0.42333(8) -0.00330(19)
H11 H 0.9183 0.4404 -0.0413
C16 C 0.6272(4) 0.44048(8) -0.0158(2)
H12 H 0.5791 0.4690 -0.0633
C17 C 0.4966(4) 0.41588(8) 0.0415(2)
H13 H 0.3592 0.4277 0.0338
C18 C 0.5662(3) 0.37384(8) 0.11040(18)
H14 H 0.4762 0.3574 0.1500
C19 C 0.5671(3) 0.08493(7) 0.06203(19)
C20 C 0.4167(3) 0.07377(8) -0.0468(2)
H15 H 0.2740 0.0818 -0.0563
C21 C 0.4779(4) 0.05079(8) -0.1411(2)
H16 H 0.3755 0.0425 -0.2149
C22 C 0.6856(4) 0.03981(7) -0.1293(2)
C23 C 0.8341(4) 0.05232(8) -0.0204(2)
H17 H 0.9774 0.0454 -0.0120
C24 C 0.7766(3) 0.07461(8) 0.0754(2)
H18 H 0.8790 0.0828 0.1493
C25 C 0.7522(4) 0.01537(9) -0.2326(2)
H19 H 0.7687 -0.0199 -0.2165
H20 H 0.8855 0.0293 -0.2378
H21 H 0.6455 0.0208 -0.3104
loop_
_geom_bond_atom_site_label_1
_geom_bond_atom_site_label_2
_geom_bond_site_symmetry_1
_geom_bond_site_symmetry_2
N1 S1 1_555 1_555
O1 S1 1_555 1_555
O2 S1 1_555 1_555
S1 C19 1_555 1_555
C1 N1 1_555 1_555
H1 C1 1_555 1_555
C2 C1 1_555 1_555
C3 C2 1_555 1_555
C4 C3 1_555 1_555
H2 C4 1_555 1_555
C5 C4 1_555 1_555
H3 C5 1_555 1_555
C6 C5 1_555 1_555
H4 C6 1_555 1_555
C7 C6 1_555 1_555
H5 C7 1_555 1_555
C8 C3 1_555 1_555
C9 C8 1_555 1_555
C10 C2 1_555 1_555
C11 C10 1_555 1_555
H6 C11 1_555 1_555
H7 C11 1_555 1_555
C12 N1 1_555 1_555
H8 C12 1_555 1_555
H9 C12 1_555 1_555
C13 C9 1_555 1_555
C14 C13 1_555 1_555
H10 C14 1_555 1_555
C15 C14 1_555 1_555
H11 C15 1_555 1_555
C16 C15 1_555 1_555
H12 C16 1_555 1_555
C17 C16 1_555 1_555
H13 C17 1_555 1_555
C18 C13 1_555 1_555
H14 C18 1_555 1_555
C19 C20 1_555 1_555
C20 H15 1_555 1_555
C21 C20 1_555 1_555
H16 C21 1_555 1_555
C22 C21 1_555 1_555
C23 C22 1_555 1_555
H17 C23 1_555 1_555
C24 C19 1_555 1_555
H18 C24 1_555 1_555
C25 C22 1_555 1_555
H19 C25 1_555 1_555
H20 C25 1_555 1_555
H21 C25 1_555 1_555
C7 C8 1_555 1_555
C9 C10 1_555 1_555
C11 C12 1_555 1_555
C17 C18 1_555 1_555
C23 C24 1_555 1_555

#END
