
#######################################################################
#
#                 Cambridge Crystallographic Data Centre
#                                CCDC 
#
#######################################################################
#
# If this CIF has been generated from an entry in the Cambridge 
# Structural Database, then it will include bibliographic, chemical, 
# crystal, experimental, refinement or atomic coordinate data resulting 
# from the CCDC's data processing and validation procedures.
#
#######################################################################

data_JOGTAC
_chemical_formula_moiety         'C22 H27 N1 O6 S1'
_chemical_name_systematic        
'diethyl 5-(((4-methylphenyl)sulfonyl)carbonoimidoyl)bicyclo[4.2.0]oct-5-ene-3,3-dicarboxylate'
_symmetry_cell_setting           triclinic
_symmetry_space_group_name_H-M   'P -1'
_symmetry_Int_Tables_number      2
_space_group_name_Hall           '-P 1'
loop_
_symmetry_equiv_pos_site_id
_symmetry_equiv_pos_as_xyz
1 x,y,z
2 -x,-y,-z
_cell_length_a                   8.8646(8)
_cell_length_b                   10.3320(10)
_cell_length_c                   12.7631(12)
_cell_angle_alpha                82.475(2)
_cell_angle_beta                 72.752(2)
_cell_angle_gamma                73.140(2)
_cell_volume                     1067.11
_exptl_crystal_colour            yellow
_exptl_crystal_description       block
_cell_formula_units_Z            2
loop_
_atom_site_label
_atom_site_type_symbol
_atom_site_fract_x
_atom_site_fract_y
_atom_site_fract_z
S1 S 0.69703(5) 0.13812(4) 1.18247(3)
N1 N 0.76096(16) 0.23570(13) 1.07410(10)
O1 O 0.87420(14) 0.61303(12) 0.63427(10)
O2 O 0.72467(13) 0.47271(11) 0.72895(9)
O3 O 1.21981(14) 0.49357(13) 0.75279(11)
O4 O 1.13329(13) 0.34532(12) 0.68738(10)
O5 O 0.56238(13) 0.21283(12) 1.26494(9)
O6 O 0.67656(16) 0.02532(12) 1.13944(11)
C1 C 0.6590(2) 0.78671(17) 1.01019(15)
H1 H 0.7453 0.7915 1.0430
H2 H 0.5921 0.8784 0.9952
C2 C 0.5558(2) 0.68812(16) 1.07470(14)
H3 H 0.5671 0.6610 1.1499
H4 H 0.4393 0.7177 1.0742
C3 C 0.66388(18) 0.58784(15) 0.98953(13)
C4 C 0.73819(17) 0.45499(15) 0.98673(12)
C5 C 0.88032(17) 0.39892(14) 0.89064(12)
H5 H 0.8515 0.3323 0.8563
H6 H 0.9760 0.3502 0.9182
C6 C 0.92992(17) 0.50748(15) 0.80182(12)
C7 C 0.90376(18) 0.64293(15) 0.85184(13)
H7 H 0.9704 0.6295 0.9043
H8 H 0.9380 0.7097 0.7931
C8 C 0.72392(19) 0.69435(15) 0.91035(13)
H9 H 0.6569 0.7274 0.8567
C9 C 0.84095(17) 0.53754(15) 0.71160(13)
C10 C 0.6435(2) 0.49094(18) 0.64205(13)
H10 H 0.6292 0.5852 0.6107
H11 H 0.5336 0.4749 0.6730
C11 C 0.7430(3) 0.3943(2) 0.55309(16)
H12 H 0.8468 0.4171 0.5168
H13 H 0.6819 0.4012 0.4991
H14 H 0.7653 0.3017 0.5853
C12 C 1.11124(18) 0.45158(16) 0.74458(13)
C13 C 1.3011(2) 0.2733(2) 0.63728(16)
H15 H 1.3537 0.2233 0.6944
H16 H 1.3640 0.3379 0.5965
C14 C 1.2986(2) 0.17705(18) 0.56073(15)
H17 H 1.2376 0.1127 0.6021
H18 H 1.4112 0.1277 0.5249
H19 H 1.2454 0.2275 0.5049
C15 C 0.69029(17) 0.36384(15) 1.07806(12)
H20 H 0.6062 0.3983 1.1416
C16 C 0.87134(19) 0.08590(15) 1.23147(13)
C17 C 0.8671(2) 0.13334(16) 1.32922(13)
H21 H 0.7694 0.1913 1.3710
C18 C 1.0077(2) 0.09495(17) 1.36509(14)
H22 H 1.0051 0.1255 1.4328
C19 C 1.1521(2) 0.01253(17) 1.30348(15)
C20 C 1.1528(2) -0.03417(18) 1.20620(16)
H23 H 1.2507 -0.0914 1.1639
C21 C 1.0129(2) 0.00141(17) 1.16985(15)
H24 H 1.0142 -0.0318 1.1035
C22 C 1.3059(2) -0.0217(2) 1.33999(19)
H25 H 1.3872 -0.0969 1.2984
H26 H 1.2811 -0.0481 1.4185
H27 H 1.3499 0.0575 1.3268
loop_
_geom_bond_atom_site_label_1
_geom_bond_atom_site_label_2
_geom_bond_site_symmetry_1
_geom_bond_site_symmetry_2
S1 N1 1_555 1_555
N1 C15 1_555 1_555
O1 C9 1_555 1_555
O2 C9 1_555 1_555
O3 C12 1_555 1_555
O4 C12 1_555 1_555
O5 S1 1_555 1_555
O6 S1 1_555 1_555
C1 H1 1_555 1_555
H2 C1 1_555 1_555
C2 C1 1_555 1_555
H3 C2 1_555 1_555
H4 C2 1_555 1_555
C3 C2 1_555 1_555
C4 C3 1_555 1_555
C5 C4 1_555 1_555
H5 C5 1_555 1_555
H6 C5 1_555 1_555
C6 C5 1_555 1_555
C7 C6 1_555 1_555
H7 C7 1_555 1_555
H8 C7 1_555 1_555
C8 C1 1_555 1_555
H9 C8 1_555 1_555
C9 C6 1_555 1_555
C10 O2 1_555 1_555
H10 C10 1_555 1_555
H11 C10 1_555 1_555
C11 C10 1_555 1_555
H12 C11 1_555 1_555
H13 C11 1_555 1_555
H14 C11 1_555 1_555
C12 C6 1_555 1_555
C13 O4 1_555 1_555
H15 C13 1_555 1_555
H16 C13 1_555 1_555
C14 C13 1_555 1_555
H17 C14 1_555 1_555
H18 C14 1_555 1_555
H19 C14 1_555 1_555
C15 C4 1_555 1_555
H20 C15 1_555 1_555
C16 S1 1_555 1_555
C17 C16 1_555 1_555
H21 C17 1_555 1_555
C18 C17 1_555 1_555
H22 C18 1_555 1_555
C19 C18 1_555 1_555
C20 C19 1_555 1_555
H23 C20 1_555 1_555
C21 C16 1_555 1_555
H24 C21 1_555 1_555
C22 C19 1_555 1_555
H25 C22 1_555 1_555
H26 C22 1_555 1_555
H27 C22 1_555 1_555
C3 C8 1_555 1_555
C7 C8 1_555 1_555
C20 C21 1_555 1_555

#END
