
#######################################################################
#
#                 Cambridge Crystallographic Data Centre
#                                CCDC 
#
#######################################################################
#
# If this CIF has been generated from an entry in the Cambridge 
# Structural Database, then it will include bibliographic, chemical, 
# crystal, experimental, refinement or atomic coordinate data resulting 
# from the CCDC's data processing and validation procedures.
#
#######################################################################

data_JOGYUB
_chemical_formula_moiety         'C26 H18 N4 O3'
_chemical_name_systematic        
2,4-bis(4-Methoxyphenyl)-4,7-dihydro-1-benzofuran-5,5,6,6-tetracarbonitrile
_symmetry_cell_setting           monoclinic
_symmetry_space_group_name_H-M   'P 21/n'
_symmetry_Int_Tables_number      14
_space_group_name_Hall           '-P 2yn'
loop_
_symmetry_equiv_pos_site_id
_symmetry_equiv_pos_as_xyz
1 x,y,z
2 1/2-x,1/2+y,1/2-z
3 -x,-y,-z
4 1/2+x,1/2-y,1/2+z
_cell_length_a                   6.9915(6)
_cell_length_b                   16.6066(14)
_cell_length_c                   19.2474(16)
_cell_angle_alpha                90
_cell_angle_beta                 100.127(2)
_cell_angle_gamma                90
_cell_volume                     2199.9
_exptl_crystal_colour            colorless
_exptl_crystal_description       block
_cell_formula_units_Z            4
loop_
_atom_site_label
_atom_site_type_symbol
_atom_site_fract_x
_atom_site_fract_y
_atom_site_fract_z
O1 O 0.2395(6) 0.6030(2) -0.1049(2)
O2 O 0.4000(4) 0.31158(19) 0.45812(15)
O3 O 0.3143(4) 0.24504(16) 0.01962(13)
N1 N 0.4970(7) -0.0864(2) 0.1108(2)
N2 N -0.0795(6) 0.0182(3) 0.0788(2)
N3 N 0.7120(6) 0.1154(3) 0.2075(2)
N4 N 0.2479(7) -0.0191(3) 0.2734(2)
C1 C 0.2548(6) 0.3861(3) -0.0652(2)
H1 H 0.2579 0.3366 -0.0875
C2 C 0.2500(7) 0.4567(3) -0.1049(2)
H2 H 0.2498 0.4542 -0.1532
C3 C 0.2456(6) 0.5300(3) -0.0719(3)
C4 C 0.2443(7) 0.5326(3) -0.0003(3)
H3 H 0.2387 0.5821 0.0217
C5 C 0.2512(6) 0.4638(3) 0.0387(2)
H4 H 0.2534 0.4671 0.0871
C6 C 0.2551(6) 0.3884(2) 0.0067(2)
C7 C 0.2603(5) 0.3159(2) 0.0493(2)
C8 C 0.2204(6) 0.3010(2) 0.1139(2)
H5 H 0.1810 0.3383 0.1445
C9 C 0.2504(6) 0.2164(2) 0.1264(2)
C10 C 0.3053(5) 0.1868(2) 0.0680(2)
C11 C 0.3558(6) 0.1025(2) 0.0517(2)
H6 H 0.4946 0.0980 0.0527
H7 H 0.2890 0.0876 0.0050
C12 C 0.2937(6) 0.0459(2) 0.1077(2)
C13 C 0.3405(6) 0.0854(2) 0.1843(2)
C14 C 0.2211(6) 0.1653(2) 0.18819(19)
H8 H 0.0833 0.1505 0.1810
C15 C 0.2701(6) 0.2046(2) 0.2601(2)
C16 C 0.4254(6) 0.2577(3) 0.2780(2)
H9 H 0.5024 0.2704 0.2448
C17 C 0.4664(6) 0.2917(3) 0.3445(2)
H10 H 0.5716 0.3264 0.3561
C18 C 0.3508(6) 0.2740(2) 0.3938(2)
C19 C 0.1975(6) 0.2214(2) 0.3773(2)
H11 H 0.1211 0.2087 0.4107
C20 C 0.1576(6) 0.1877(2) 0.3108(2)
H12 H 0.0526 0.1527 0.2998
C21 C 0.2530(9) 0.6046(4) -0.1768(3)
H13 H 0.2457 0.6593 -0.1933
H14 H 0.1479 0.5741 -0.2032
H15 H 0.3745 0.5814 -0.1832
C22 C 0.2930(7) 0.2883(3) 0.5114(2)
H16 H 0.3391 0.3180 0.5538
H17 H 0.3101 0.2317 0.5205
H18 H 0.1576 0.2996 0.4956
C23 C 0.4031(7) -0.0307(3) 0.1091(2)
C24 C 0.0836(7) 0.0293(2) 0.0915(2)
C25 C 0.5513(6) 0.1023(2) 0.1991(2)
C26 C 0.2923(6) 0.0265(3) 0.2361(2)
loop_
_geom_bond_atom_site_label_1
_geom_bond_atom_site_label_2
_geom_bond_site_symmetry_1
_geom_bond_site_symmetry_2
O1 C3 1_555 1_555
O2 C18 1_555 1_555
O3 C7 1_555 1_555
N1 C23 1_555 1_555
N2 C24 1_555 1_555
N3 C25 1_555 1_555
N4 C26 1_555 1_555
C1 H1 1_555 1_555
C2 C1 1_555 1_555
H2 C2 1_555 1_555
C3 C2 1_555 1_555
C4 C3 1_555 1_555
H3 C4 1_555 1_555
C5 C4 1_555 1_555
H4 C5 1_555 1_555
C6 C1 1_555 1_555
C7 C6 1_555 1_555
C8 C7 1_555 1_555
H5 C8 1_555 1_555
C9 C8 1_555 1_555
C10 O3 1_555 1_555
C11 C10 1_555 1_555
H6 C11 1_555 1_555
H7 C11 1_555 1_555
C12 C11 1_555 1_555
C13 C12 1_555 1_555
C14 C9 1_555 1_555
H8 C14 1_555 1_555
C15 C14 1_555 1_555
C16 C15 1_555 1_555
H9 C16 1_555 1_555
C17 C16 1_555 1_555
H10 C17 1_555 1_555
C18 C17 1_555 1_555
C19 C18 1_555 1_555
H11 C19 1_555 1_555
C20 C15 1_555 1_555
H12 C20 1_555 1_555
C21 O1 1_555 1_555
H13 C21 1_555 1_555
H14 C21 1_555 1_555
H15 C21 1_555 1_555
C22 O2 1_555 1_555
H16 C22 1_555 1_555
H17 C22 1_555 1_555
H18 C22 1_555 1_555
C23 C12 1_555 1_555
C24 C12 1_555 1_555
C25 C13 1_555 1_555
C26 C13 1_555 1_555
C5 C6 1_555 1_555
C9 C10 1_555 1_555
C13 C14 1_555 1_555
C19 C20 1_555 1_555

#END
