
#######################################################################
#
#                 Cambridge Crystallographic Data Centre
#                                CCDC 
#
#######################################################################
#
# If this CIF has been generated from an entry in the Cambridge 
# Structural Database, then it will include bibliographic, chemical, 
# crystal, experimental, refinement or atomic coordinate data resulting 
# from the CCDC's data processing and validation procedures.
#
#######################################################################

data_JOGZIQ
_chemical_formula_moiety         
'2(C86 H76 N16 O8),8(K1 1+),4(H1 O4 P1 2-),8(C12 H24 O6)'
_chemical_name_systematic        
"Octa-potassium tetrakis(hydrogen phosphate) bis(1,1',1'',1'''-(ethene-1,1,2,2-tetrayltetrakis(4,1-phenylenecarbamoylimino-2,1-phenylene))tetrakis(3-(4-methylphenyl)urea)) octakis(18-crown-6) unknown solvate"
_symmetry_cell_setting           orthorhombic
_symmetry_space_group_name_H-M   'C 2 2 21'
_symmetry_Int_Tables_number      20
_space_group_name_Hall           'C 2n 2'
loop_
_symmetry_equiv_pos_site_id
_symmetry_equiv_pos_as_xyz
1 x,y,z
2 -x,-y,1/2+z
3 -x,y,1/2-z
4 x,-y,-z
5 1/2+x,1/2+y,z
6 1/2-x,1/2-y,1/2+z
7 1/2-x,1/2+y,1/2-z
8 1/2+x,1/2-y,-z
_cell_length_a                   29.419(6)
_cell_length_b                   44.908(9)
_cell_length_c                   28.031(5)
_cell_angle_alpha                90
_cell_angle_beta                 90
_cell_angle_gamma                90
_cell_volume                     37033.1
_exptl_crystal_colour            'light yellow'
_exptl_crystal_description       block
_cell_formula_units_Z            4
_chemical_properties_physical    Deliquescent
_exptl_crystal_recrystallization_method 'acetone, water, ether'
_exptl_crystal_preparation       Luminescent
loop_
_atom_site_label
_atom_site_type_symbol
_atom_site_fract_x
_atom_site_fract_y
_atom_site_fract_z
O1 O 0.3181(2) -0.14480(17) 0.8934(2)
O2 O 0.42737(19) -0.07838(14) 0.7000(2)
O3 O 0.3853(2) 0.14584(14) 0.5917(2)
O4 O 0.2405(2) 0.25283(18) 0.6232(2)
N1 N 0.2617(3) -0.12996(18) 0.8442(3)
H1 H 0.2564 -0.1210 0.8177
N2 N 0.3351(3) -0.12265(17) 0.8220(2)
H2 H 0.3222 -0.1154 0.7970
N3 N 0.3796(2) -0.08202(15) 0.7652(2)
H3 H 0.3535 -0.0766 0.7759
N4 N 0.3618(2) -0.05064(13) 0.70306(18)
H4 H 0.3398 -0.0458 0.7217
N5 N 0.3406(2) 0.13400(14) 0.5278(2)
H5 H 0.3252 0.1415 0.5047
N6 N 0.3448(2) 0.18218(15) 0.5533(3)
H6 H 0.3269 0.1854 0.5296
N7 N 0.2819(2) 0.22671(15) 0.5685(2)
H7 H 0.2801 0.2174 0.5418
N8 N 0.2043(2) 0.23154(17) 0.5599(2)
H8 H 0.2079 0.2192 0.5367
C1 C 0.1008(6) -0.1667(5) 0.9421(7)
H9 H 0.0848 -0.1808 0.9225
H10 H 0.0821 -0.1495 0.9473
H11 H 0.1080 -0.1758 0.9722
C2 C 0.1460(6) -0.1571(4) 0.9164(5)
C3 C 0.1833(5) -0.1741(3) 0.9189(4)
H12 H 0.1827 -0.1919 0.9360
C4 C 0.2230(4) -0.1652(3) 0.8957(3)
H13 H 0.2488 -0.1771 0.8975
C5 C 0.2244(4) -0.1391(2) 0.8705(3)
C6 C 0.1859(4) -0.1225(3) 0.8678(4)
H14 H 0.1864 -0.1047 0.8507
C7 C 0.1470(5) -0.1311(3) 0.8891(5)
H15 H 0.1208 -0.1197 0.8857
C8 C 0.3061(3) -0.1339(2) 0.8564(3)
C9 C 0.3831(3) -0.1215(2) 0.8226(3)
C10 C 0.4095(3) -0.1409(2) 0.8506(3)
H16 H 0.3951 -0.1554 0.8690
C11 C 0.4540(4) -0.1391(3) 0.8511(4)
H17 H 0.4704 -0.1511 0.8719
C12 C 0.4771(3) -0.1196(3) 0.8214(3)
H18 H 0.5087 -0.1195 0.8202
C13 C 0.4520(3) -0.1008(2) 0.7940(3)
H19 H 0.4672 -0.0870 0.7749
C14 C 0.4056(3) -0.1011(2) 0.7934(2)
C15 C 0.3933(3) -0.07098(18) 0.7201(2)
C16 C 0.3629(2) -0.03712(16) 0.6575(2)
C17 C 0.3956(2) -0.04220(17) 0.6229(2)
H20 H 0.4198 -0.0550 0.6291
C18 C 0.3919(2) -0.02795(17) 0.5785(2)
H21 H 0.4136 -0.0319 0.5552
C19 C 0.3574(2) -0.00850(15) 0.5684(2)
C20 C 0.3253(2) -0.00329(17) 0.6038(2)
H22 H 0.3020 0.0103 0.5983
C21 C 0.3274(2) -0.01798(17) 0.6474(2)
H23 H 0.3046 -0.0149 0.6699
C22 C 0.3546(2) 0.00752(16) 0.5209(2)
C23 C 0.3510(2) 0.04047(16) 0.5237(2)
C24 C 0.3834(3) 0.05643(19) 0.5473(3)
H24 H 0.4074 0.0466 0.5623
C25 C 0.3808(3) 0.0880(2) 0.5491(4)
H25 H 0.4039 0.0987 0.5639
C26 C 0.3450(2) 0.10284(18) 0.5294(3)
C27 C 0.3118(2) 0.08617(17) 0.5063(2)
H26 H 0.2872 0.0958 0.4923
C28 C 0.3148(3) 0.05550(18) 0.5038(2)
H27 H 0.2920 0.0448 0.4885
C29 C 0.3593(3) 0.1536(2) 0.5606(3)
C30 C 0.3573(3) 0.2070(2) 0.5821(3)
C31 C 0.3995(3) 0.2088(2) 0.6027(4)
H28 H 0.4203 0.1933 0.5990
C32 C 0.4111(4) 0.2341(2) 0.6295(4)
H29 H 0.4401 0.2360 0.6423
C33 C 0.3796(4) 0.2558(2) 0.6366(4)
H30 H 0.3871 0.2721 0.6556
C34 C 0.3373(4) 0.2545(2) 0.6165(3)
H31 H 0.3169 0.2701 0.6207
C35 C 0.3246(3) 0.2289(2) 0.5890(3)
C36 C 0.2424(3) 0.2378(2) 0.5866(3)
C37 C 0.1618(3) 0.2426(2) 0.5659(3)
C38 C 0.1496(4) 0.2669(2) 0.5954(3)
H32 H 0.1717 0.2767 0.6132
C39 C 0.1045(5) 0.2762(3) 0.5979(5)
H33 H 0.0975 0.2919 0.6183
C40 C 0.0702(4) 0.2639(3) 0.5724(5)
C41 C 0.0828(4) 0.2394(3) 0.5447(5)
H34 H 0.0603 0.2297 0.5274
C42 C 0.1250(3) 0.2294(3) 0.5417(4)
H35 H 0.1307 0.2128 0.5228
C43 C 0.0225(5) 0.2735(5) 0.5779(8)
H36 H 0.0079 0.2617 0.6020
H37 H 0.0068 0.2710 0.5481
H38 H 0.0217 0.2941 0.5870
O1C O 0.3181(2) 0.14480(17) 0.1066(2)
O2C O 0.42737(19) 0.07838(14) 0.3000(2)
O3C O 0.3853(2) -0.14584(14) 0.4083(2)
O4C O 0.2405(2) -0.25283(18) 0.3768(2)
N1C N 0.2617(3) 0.12996(18) 0.1558(3)
H1C H 0.2564 0.1210 0.1823
N2C N 0.3351(3) 0.12265(17) 0.1780(2)
H2C H 0.3222 0.1154 0.2030
N3C N 0.3796(2) 0.08202(15) 0.2348(2)
H3C H 0.3535 0.0766 0.2241
N4C N 0.3618(2) 0.05064(13) 0.29694(18)
H4C H 0.3398 0.0458 0.2783
N5C N 0.3406(2) -0.13400(14) 0.4722(2)
H5C H 0.3252 -0.1415 0.4953
N6C N 0.3448(2) -0.18218(15) 0.4467(3)
H6C H 0.3269 -0.1854 0.4704
N7C N 0.2819(2) -0.22671(15) 0.4315(2)
H7C H 0.2801 -0.2174 0.4582
N8C N 0.2043(2) -0.23154(17) 0.4401(2)
H8C H 0.2079 -0.2192 0.4633
C1C C 0.1008(6) 0.1667(5) 0.0579(7)
H9C H 0.0848 0.1808 0.0775
H10C H 0.0821 0.1495 0.0527
H11C H 0.1080 0.1758 0.0278
C2C C 0.1460(6) 0.1571(4) 0.0836(5)
C3C C 0.1833(5) 0.1741(3) 0.0811(4)
H12C H 0.1827 0.1919 0.0640
C4C C 0.2230(4) 0.1652(3) 0.1043(3)
H13C H 0.2488 0.1771 0.1025
C5C C 0.2244(4) 0.1391(2) 0.1295(3)
C6C C 0.1859(4) 0.1225(3) 0.1322(4)
H14C H 0.1864 0.1047 0.1493
C7C C 0.1470(5) 0.1311(3) 0.1109(5)
H15C H 0.1208 0.1197 0.1143
C8C C 0.3061(3) 0.1339(2) 0.1436(3)
C9C C 0.3831(3) 0.1215(2) 0.1774(3)
C10C C 0.4095(3) 0.1409(2) 0.1494(3)
H16C H 0.3951 0.1554 0.1310
C11C C 0.4540(4) 0.1391(3) 0.1489(4)
H17C H 0.4704 0.1511 0.1281
C12C C 0.4771(3) 0.1196(3) 0.1786(3)
H18C H 0.5087 0.1195 0.1798
C13C C 0.4520(3) 0.1008(2) 0.2060(3)
H19C H 0.4672 0.0870 0.2251
C14C C 0.4056(3) 0.1011(2) 0.2066(2)
C15C C 0.3933(3) 0.07098(18) 0.2799(2)
C16C C 0.3629(2) 0.03712(16) 0.3425(2)
C17C C 0.3956(2) 0.04220(17) 0.3771(2)
H20C H 0.4198 0.0550 0.3709
C18C C 0.3919(2) 0.02795(17) 0.4215(2)
H21C H 0.4136 0.0319 0.4448
C19C C 0.3574(2) 0.00850(15) 0.4316(2)
C20C C 0.3253(2) 0.00329(17) 0.3962(2)
H22C H 0.3020 -0.0103 0.4017
C21C C 0.3274(2) 0.01798(17) 0.3526(2)
H23C H 0.3046 0.0149 0.3301
C22C C 0.3546(2) -0.00752(16) 0.4791(2)
C23C C 0.3510(2) -0.04047(16) 0.4763(2)
C24C C 0.3834(3) -0.05643(19) 0.4527(3)
H24C H 0.4074 -0.0466 0.4377
C25C C 0.3808(3) -0.0880(2) 0.4509(4)
H25C H 0.4039 -0.0987 0.4361
C26C C 0.3450(2) -0.10284(18) 0.4706(3)
C27C C 0.3118(2) -0.08617(17) 0.4937(2)
H26C H 0.2872 -0.0958 0.5077
C28C C 0.3148(3) -0.05550(18) 0.4962(2)
H27C H 0.2920 -0.0448 0.5115
C29C C 0.3593(3) -0.1536(2) 0.4394(3)
C30C C 0.3573(3) -0.2070(2) 0.4179(3)
C31C C 0.3995(3) -0.2088(2) 0.3973(4)
H28C H 0.4203 -0.1933 0.4010
C32C C 0.4111(4) -0.2341(2) 0.3705(4)
H29C H 0.4401 -0.2360 0.3577
C33C C 0.3796(4) -0.2558(2) 0.3634(4)
H30C H 0.3871 -0.2721 0.3444
C34C C 0.3373(4) -0.2545(2) 0.3835(3)
H31C H 0.3169 -0.2701 0.3793
C35C C 0.3246(3) -0.2289(2) 0.4110(3)
C36C C 0.2424(3) -0.2378(2) 0.4134(3)
C37C C 0.1618(3) -0.2426(2) 0.4341(3)
C38C C 0.1496(4) -0.2669(2) 0.4046(3)
H32C H 0.1717 -0.2767 0.3868
C39C C 0.1045(5) -0.2762(3) 0.4021(5)
H33C H 0.0975 -0.2919 0.3817
C40C C 0.0702(4) -0.2639(3) 0.4276(5)
C41C C 0.0828(4) -0.2394(3) 0.4553(5)
H34C H 0.0603 -0.2297 0.4726
C42C C 0.1250(3) -0.2294(3) 0.4583(4)
H35C H 0.1307 -0.2128 0.4772
C43C C 0.0225(5) -0.2735(5) 0.4221(8)
H36C H 0.0079 -0.2617 0.3980
H37C H 0.0068 -0.2710 0.4519
H38C H 0.0217 -0.2941 0.4130
O5 O 0.3164(3) -0.08467(16) 0.9869(2)
O6 O 0.2244(3) -0.08566(18) 1.0137(3)
O7 O 0.1814(4) -0.1389(3) 1.0330(3)
O8 O 0.2341(4) -0.1885(2) 1.0433(4)
O9 O 0.3216(4) -0.19021(18) 1.0101(3)
O10 O 0.3685(3) -0.1356(2) 1.0055(2)
C44 C 0.2917(5) -0.0583(3) 1.0004(4)
C45 C 0.2436(5) -0.0611(3) 0.9878(4)
C46 C 0.1789(6) -0.0902(4) 1.0073(7)
C47 C 0.1616(8) -0.1102(5) 1.0438(9)
C48 C 0.1737(7) -0.1606(4) 1.0702(7)
C49 C 0.1892(7) -0.1906(4) 1.0524(6)
C50 C 0.2544(8) -0.2167(3) 1.0270(5)
C51 C 0.3037(7) -0.2142(3) 1.0365(5)
C52 C 0.3701(5) -0.1883(3) 1.0165(5)
C53 C 0.3869(5) -0.1628(4) 0.9883(4)
C54 C 0.3852(5) -0.1104(4) 0.9811(4)
C55 C 0.3626(5) -0.0833(3) 0.9990(4)
K2 K 0.27202(7) 0.16796(5) 0.31750(6)
P1 P 0.24777(7) 0.18067(5) 0.45888(7)
O11 O 0.2395(2) 0.18537(12) 0.40588(19)
O12 O 0.20475(18) 0.18498(13) 0.4881(2)
O13 O 0.28685(19) 0.19797(13) 0.47932(18)
O14 O 0.26048(18) 0.14581(12) 0.46399(17)
O15 O 0.1934(3) 0.12714(16) 0.3200(2)
O16 O 0.1917(2) 0.18245(16) 0.2701(2)
O17 O 0.2741(3) 0.20544(16) 0.2371(2)
O18 O 0.3550(3) 0.18966(18) 0.2800(3)
O19 O 0.3525(3) 0.1385(2) 0.3367(3)
O20 O 0.2720(3) 0.11563(15) 0.3786(2)
C56 C 0.1945(5) 0.2006(3) 0.2260(4)
C57 C 0.2319(5) 0.2218(3) 0.2320(3)
C58 C 0.3127(5) 0.2234(3) 0.2317(4)
C59 C 0.3543(4) 0.2030(3) 0.2333(4)
C60 C 0.3929(4) 0.1714(3) 0.2844(5)
C61 C 0.3936(4) 0.1571(4) 0.3336(5)
C62 C 0.3501(6) 0.1205(4) 0.3806(4)
C63 C 0.3118(6) 0.0994(3) 0.3754(4)
C64 C 0.2326(5) 0.0963(2) 0.3745(3)
C65 C 0.1909(5) 0.1144(3) 0.3673(3)
C66 C 0.1528(4) 0.1447(3) 0.3125(4)
C67 C 0.1564(4) 0.1612(3) 0.2658(4)
O21 O 0.2634(2) 0.00748(15) 0.9266(2)
O22 O 0.1325(2) 0.02947(15) 0.74999(18)
O23 O 0.0792(2) 0.13817(14) 0.4241(2)
O24 O 0.1715(3) 0.26779(17) 0.3424(3)
N9 N 0.2982(2) -0.02811(17) 0.8802(2)
H39 H 0.2930 -0.0409 0.8580
N10 N 0.2212(2) -0.01963(17) 0.8752(2)
H40 H 0.2214 -0.0350 0.8569
N11 N 0.1689(2) -0.00445(16) 0.7966(2)
H41 H 0.1873 -0.0193 0.7956
N12 N 0.1782(2) -0.00635(16) 0.7164(2)
H42 H 0.1974 -0.0201 0.7234
N13 N 0.1426(2) 0.13501(15) 0.4712(2)
H43 H 0.1627 0.1458 0.4852
N14 N 0.1234(2) 0.17940(17) 0.4371(3)
H44 H 0.1506 0.1845 0.4449
N15 N 0.1613(3) 0.22450(17) 0.3857(3)
H45 H 0.1757 0.2092 0.3962
N16 N 0.2324(3) 0.23944(17) 0.3637(3)
H46 H 0.2390 0.2223 0.3754
C68 C 0.4833(4) -0.0239(4) 0.9374(5)
H47 H 0.5012 -0.0368 0.9175
H48 H 0.4863 -0.0300 0.9701
H49 H 0.4937 -0.0038 0.9340
C69 C 0.4354(3) -0.0258(3) 0.9230(3)
C70 C 0.4179(3) -0.0484(3) 0.8952(3)
H50 H 0.4370 -0.0637 0.8852
C71 C 0.3721(4) -0.0489(3) 0.8819(3)
H51 H 0.3614 -0.0645 0.8632
C72 C 0.3422(3) -0.0265(2) 0.8959(2)
C73 C 0.3603(3) -0.0032(2) 0.9243(3)
H52 H 0.3413 0.0121 0.9346
C74 C 0.4047(3) -0.0027(2) 0.9367(3)
H53 H 0.4157 0.0132 0.9546
C75 C 0.2611(3) -0.0116(3) 0.8957(3)
C76 C 0.1802(3) -0.0050(2) 0.8812(3)
C77 C 0.1536(3) 0.00413(19) 0.8420(2)
C78 C 0.1138(3) 0.0189(2) 0.8499(3)
H54 H 0.0954 0.0241 0.8242
C79 C 0.1009(3) 0.0262(2) 0.8959(3)
H55 H 0.0741 0.0369 0.9005
C80 C 0.1257(3) 0.0184(2) 0.9341(3)
H56 H 0.1161 0.0234 0.9647
C81 C 0.1653(3) 0.0030(3) 0.9275(3)
H57 H 0.1827 -0.0024 0.9538
C82 C 0.1580(3) 0.0079(2) 0.7543(3)
C83 C 0.1710(3) -0.00105(19) 0.6677(3)
C84 C 0.1995(2) -0.01640(17) 0.6355(2)
H58 H 0.2217 -0.0292 0.6470
C85 C 0.1944(3) -0.01248(19) 0.5875(3)
H59 H 0.2135 -0.0228 0.5670
C86 C 0.1623(2) 0.00607(18) 0.5685(2)
C87 C 0.1347(3) 0.0218(2) 0.6003(3)
H60 H 0.1135 0.0352 0.5882
C88 C 0.1380(3) 0.0181(2) 0.6494(3)
H61 H 0.1185 0.0282 0.6698
C89 C 0.1577(2) 0.01124(19) 0.5162(2)
C90 C 0.1544(2) 0.04357(19) 0.5020(2)
C91 C 0.1850(2) 0.06432(19) 0.5180(3)
H62 H 0.2091 0.0581 0.5370
C92 C 0.1813(3) 0.0937(2) 0.5069(3)
H63 H 0.2034 0.1070 0.5172
C93 C 0.1445(2) 0.10414(17) 0.4802(2)
C94 C 0.1132(2) 0.0840(2) 0.4645(2)
H64 H 0.0887 0.0906 0.4464
C95 C 0.1172(3) 0.05340(19) 0.4750(3)
H65 H 0.0955 0.0399 0.4642
C96 C 0.1120(3) 0.1498(2) 0.4424(3)
C97 C 0.0944(3) 0.2022(2) 0.4197(3)
C98 C 0.1144(3) 0.2253(2) 0.3945(4)
C99 C 0.0871(4) 0.2491(3) 0.3834(6)
H66 H 0.0998 0.2660 0.3696
C100 C 0.0397(4) 0.2482(3) 0.3929(6)
H67 H 0.0215 0.2644 0.3847
C101 C 0.0211(4) 0.2247(3) 0.4130(5)
H68 H -0.0102 0.2239 0.4176
C102 C 0.0483(3) 0.2008(2) 0.4277(4)
H69 H 0.0355 0.1844 0.4426
C103 C 0.1870(3) 0.2461(2) 0.3616(4)
C104 C 0.2696(3) 0.2570(2) 0.3492(3)
C105 C 0.3125(4) 0.2459(3) 0.3584(4)
H70 H 0.3158 0.2276 0.3734
C106 C 0.3503(4) 0.2619(3) 0.3455(4)
H71 H 0.3789 0.2539 0.3519
C107 C 0.3476(4) 0.2889(3) 0.3237(4)
C108 C 0.3042(4) 0.2999(3) 0.3145(5)
H72 H 0.3011 0.3184 0.3002
C109 C 0.2666(5) 0.2842(3) 0.3259(5)
H73 H 0.2382 0.2918 0.3181
C110 C 0.3898(5) 0.3065(4) 0.3097(7)
H74 H 0.4111 0.3063 0.3357
H75 H 0.3814 0.3267 0.3027
H76 H 0.4034 0.2976 0.2821
O21C O 0.2634(2) -0.00748(15) 0.0734(2)
O22C O 0.1325(2) -0.02947(15) 0.25001(18)
O23C O 0.0792(2) -0.13817(14) 0.5759(2)
O24C O 0.1715(3) -0.26779(17) 0.6576(3)
N9C N 0.2982(2) 0.02811(17) 0.1198(2)
H39C H 0.2930 0.0409 0.1420
N10C N 0.2212(2) 0.01963(17) 0.1248(2)
H40C H 0.2214 0.0350 0.1431
N11C N 0.1689(2) 0.00445(16) 0.2034(2)
H41C H 0.1873 0.0193 0.2044
N12C N 0.1782(2) 0.00635(16) 0.2836(2)
H42C H 0.1974 0.0201 0.2766
N13C N 0.1426(2) -0.13501(15) 0.5288(2)
H43C H 0.1627 -0.1458 0.5148
N14C N 0.1234(2) -0.17940(17) 0.5629(3)
H44C H 0.1506 -0.1845 0.5551
N15C N 0.1613(3) -0.22450(17) 0.6143(3)
H45C H 0.1757 -0.2092 0.6038
N16C N 0.2324(3) -0.23944(17) 0.6363(3)
H46C H 0.2390 -0.2223 0.6246
C68C C 0.4833(4) 0.0239(4) 0.0626(5)
H47C H 0.5012 0.0368 0.0825
H48C H 0.4863 0.0300 0.0299
H49C H 0.4937 0.0038 0.0660
C69C C 0.4354(3) 0.0258(3) 0.0770(3)
C70C C 0.4179(3) 0.0484(3) 0.1048(3)
H50C H 0.4370 0.0637 0.1148
C71C C 0.3721(4) 0.0489(3) 0.1181(3)
H51C H 0.3614 0.0645 0.1368
C72C C 0.3422(3) 0.0265(2) 0.1041(2)
C73C C 0.3603(3) 0.0032(2) 0.0757(3)
H52C H 0.3413 -0.0121 0.0654
C74C C 0.4047(3) 0.0027(2) 0.0633(3)
H53C H 0.4157 -0.0132 0.0454
C75C C 0.2611(3) 0.0116(3) 0.1043(3)
C76C C 0.1802(3) 0.0050(2) 0.1188(3)
C77C C 0.1536(3) -0.00413(19) 0.1580(2)
C78C C 0.1138(3) -0.0189(2) 0.1501(3)
H54C H 0.0954 -0.0241 0.1758
C79C C 0.1009(3) -0.0262(2) 0.1041(3)
H55C H 0.0741 -0.0369 0.0995
C80C C 0.1257(3) -0.0184(2) 0.0659(3)
H56C H 0.1161 -0.0234 0.0353
C81C C 0.1653(3) -0.0030(3) 0.0725(3)
H57C H 0.1827 0.0024 0.0462
C82C C 0.1580(3) -0.0079(2) 0.2457(3)
C83C C 0.1710(3) 0.00105(19) 0.3323(3)
C84C C 0.1995(2) 0.01640(17) 0.3645(2)
H58C H 0.2217 0.0292 0.3530
C85C C 0.1944(3) 0.01248(19) 0.4125(3)
H59C H 0.2135 0.0228 0.4330
C86C C 0.1623(2) -0.00607(18) 0.4315(2)
C87C C 0.1347(3) -0.0218(2) 0.3997(3)
H60C H 0.1135 -0.0352 0.4118
C88C C 0.1380(3) -0.0181(2) 0.3506(3)
H61C H 0.1185 -0.0282 0.3302
C89C C 0.1577(2) -0.01124(19) 0.4838(2)
C90C C 0.1544(2) -0.04357(19) 0.4980(2)
C91C C 0.1850(2) -0.06432(19) 0.4820(3)
H62C H 0.2091 -0.0581 0.4630
C92C C 0.1813(3) -0.0937(2) 0.4931(3)
H63C H 0.2034 -0.1070 0.4828
C93C C 0.1445(2) -0.10414(17) 0.5198(2)
C94C C 0.1132(2) -0.0840(2) 0.5355(2)
H64C H 0.0887 -0.0906 0.5536
C95C C 0.1172(3) -0.05340(19) 0.5250(3)
H65C H 0.0955 -0.0399 0.5358
C96C C 0.1120(3) -0.1498(2) 0.5576(3)
C97C C 0.0944(3) -0.2022(2) 0.5803(3)
C98C C 0.1144(3) -0.2253(2) 0.6055(4)
C99C C 0.0871(4) -0.2491(3) 0.6166(6)
H66C H 0.0998 -0.2660 0.6304
C100C C 0.0397(4) -0.2482(3) 0.6071(6)
H67C H 0.0215 -0.2644 0.6153
C101C C 0.0211(4) -0.2247(3) 0.5870(5)
H68C H -0.0102 -0.2239 0.5824
C102C C 0.0483(3) -0.2008(2) 0.5723(4)
H69C H 0.0355 -0.1844 0.5574
C103C C 0.1870(3) -0.2461(2) 0.6384(4)
C104C C 0.2696(3) -0.2570(2) 0.6508(3)
C105C C 0.3125(4) -0.2459(3) 0.6416(4)
H70C H 0.3158 -0.2276 0.6266
C106C C 0.3503(4) -0.2619(3) 0.6545(4)
H71C H 0.3789 -0.2539 0.6481
C107C C 0.3476(4) -0.2889(3) 0.6763(4)
C108C C 0.3042(4) -0.2999(3) 0.6855(5)
H72C H 0.3011 -0.3184 0.6998
C109C C 0.2666(5) -0.2842(3) 0.6741(5)
H73C H 0.2382 -0.2918 0.6819
C110C C 0.3898(5) -0.3065(4) 0.6903(7)
H74C H 0.4111 -0.3063 0.6643
H75C H 0.3814 -0.3267 0.6973
H76C H 0.4034 -0.2976 0.7179
K3 K 0.27763(13) 0.88303(6) 0.24401(8)
O25 O 0.167(3) 0.8864(9) 0.2159(17)
K4 K 0.5000 0.92686(8) 0.2500
O26 O 0.5377(6) 0.9169(6) 0.3614(19)
K5 K 0.0000 0.91663(8) 0.7500
O27 O 0.0540(2) 0.92823(18) 0.8300(2)
O28 O -0.0375(3) 0.94331(18) 0.8321(3)
O29 O 0.0912(2) 0.91330(18) 0.7364(3)
C111 C -0.0841(4) 0.9360(3) 0.8407(4)
C112 C -0.0108(5) 0.9407(4) 0.8753(4)
C113 C 0.0370(5) 0.9495(3) 0.8632(4)
C114 C 0.0994(4) 0.9341(3) 0.8162(4)
C115 C 0.1149(4) 0.9104(3) 0.7811(4)
C116 C 0.1095(4) 0.9361(3) 0.7071(4)
O27B O -0.0540(2) 0.92823(18) 0.6700(2)
O28B O 0.0375(3) 0.94331(18) 0.6679(3)
O29B O -0.0912(2) 0.91330(18) 0.7636(3)
C111B C 0.0841(4) 0.9360(3) 0.6593(4)
C112B C 0.0108(5) 0.9407(4) 0.6247(4)
C113B C -0.0370(5) 0.9495(3) 0.6368(4)
C114B C -0.0994(4) 0.9341(3) 0.6838(4)
C115B C -0.1149(4) 0.9104(3) 0.7189(4)
C116B C -0.1095(4) 0.9361(3) 0.7929(4)
O30 O 0.0000 0.8538(4) 0.7500
C117 C -0.0002(14) 0.8551(7) 0.8324(10)
C118 C -0.0075(14) 0.8412(5) 0.7946(14)
C117B C 0.0002(14) 0.8551(7) 0.6676(10)
C118B C 0.0075(14) 0.8412(5) 0.7054(14)
P2 P 0.25326(7) 0.93514(5) 0.76646(6)
O31 O 0.2512(2) 0.89970(13) 0.75117(19)
O32 O 0.2523(2) 0.95296(14) 0.72154(18)
O33 O 0.21250(18) 0.94054(13) 0.79809(18)
O34 O 0.2973(2) 0.93715(15) 0.7937(2)
O35 O 0.434(2) 0.182(2) 0.435(4)
O36 O 0.3693(7) 0.1997(4) 0.4320(7)
C119 C 0.4216(17) 0.2549(12) 0.461(2)
C120 C 0.3968(6) 0.2276(13) 0.4654(8)
O37 O 0.1365(13) 0.840(2) 0.3579(19)
O38 O 0.5000 0.2508(9) 0.7500
O39 O 0.4340(14) 0.2557(8) 0.7620(5)
O40 O 0.0000 0.2663(9) 0.7500
O41 O 0.5869(14) 0.9801(13) 0.266(3)
K1 K 0.27329(9) -0.13963(5) 0.98847(8)
O42? O 0.2561(5) 0.9011(4) 0.3439(6)
O43? O 0.2850(10) 0.8461(7) 0.3229(9)
O44? O 0.3254(10) 0.8283(3) 0.2270(8)
O45? O 0.3276(11) 0.8666(7) 0.1657(7)
O46? O 0.2950(19) 0.9302(17) 0.1793(17)
C121? C 0.3513(7) 0.8372(5) 0.1732(10)
C122? C 0.2957(12) 0.8117(3) 0.2976(6)
C123? C 0.3264(9) 0.8189(15) 0.2630(13)
C124? C 0.262(2) 0.8462(6) 0.3548(10)
C125? C 0.2694(8) 0.8794(5) 0.3745(4)
C126? C 0.2681(8) 0.9261(5) 0.3351(14)
C127? C 0.2541(6) 0.9492(3) 0.3088(6)
C128? C 0.2643(8) 0.9507(8) 0.2292(8)
C129? C 0.2661(14) 0.9562(7) 0.1855(15)
C130? C 0.264(3) 0.9183(12) 0.1383(8)
C131? C 0.299(2) 0.8769(13) 0.1182(7)
C132? C 0.2801(4) 0.9489(5) 0.2699(6)
O47? O 0.4710(16) 0.9874(6) 0.1960(5)
O48? O 0.5605(7) 0.9398(8) 0.1774(6)
C133? C 0.5109(14) 0.9923(8) 0.1605(16)
C134? C 0.5556(13) 0.9778(6) 0.1722(15)
O49? O 0.5666(11) 0.8952(10) 0.2047(10)
C135? C 0.5358(10) 0.8604(5) 0.2253(14)
C136? C 0.5983(4) 0.8970(3) 0.1879(3)
C137? C 0.5829(3) 0.8781(3) 0.1998(3)
C138? C -0.0030(9) 0.0367(8) 0.4914(12)
O50? O 0.0138(9) 0.0114(4) 0.522(2)
C139? C 0.5137(15) 0.1622(5) 0.5711(17)
C140? C 0.4945(11) 0.139(2) 0.5200(10)
O51? O 0.4778(10) 0.1348(3) 0.4915(15)
C141? C 0.4702(7) 0.1040(7) 0.4524(9)
loop_
_geom_bond_atom_site_label_1
_geom_bond_atom_site_label_2
_geom_bond_site_symmetry_1
_geom_bond_site_symmetry_2
O1 C8 1_555 1_555
O2 C15 1_555 1_555
O3 C29 1_555 1_555
O4 C36 1_555 1_555
N1 H1 1_555 1_555
N2 H2 1_555 1_555
N3 H3 1_555 1_555
N4 H4 1_555 1_555
N5 H5 1_555 1_555
N6 H6 1_555 1_555
N7 H7 1_555 1_555
N8 H8 1_555 1_555
C1 H9 1_555 1_555
H10 C1 1_555 1_555
H11 C1 1_555 1_555
C2 C1 1_555 1_555
C3 C2 1_555 1_555
H12 C3 1_555 1_555
C4 C3 1_555 1_555
H13 C4 1_555 1_555
C5 N1 1_555 1_555
C6 C5 1_555 1_555
H14 C6 1_555 1_555
C7 C2 1_555 1_555
H15 C7 1_555 1_555
C8 N1 1_555 1_555
C9 N2 1_555 1_555
C10 C9 1_555 1_555
H16 C10 1_555 1_555
C11 C10 1_555 1_555
H17 C11 1_555 1_555
C12 C11 1_555 1_555
H18 C12 1_555 1_555
C13 C12 1_555 1_555
H19 C13 1_555 1_555
C14 N3 1_555 1_555
C15 N3 1_555 1_555
C16 N4 1_555 1_555
C17 C16 1_555 1_555
H20 C17 1_555 1_555
C18 C17 1_555 1_555
H21 C18 1_555 1_555
C19 C18 1_555 1_555
C20 C19 1_555 1_555
H22 C20 1_555 1_555
C21 C16 1_555 1_555
H23 C21 1_555 1_555
C22 C19 1_555 1_555
C23 C22 1_555 1_555
C24 C23 1_555 1_555
H24 C24 1_555 1_555
C25 C24 1_555 1_555
H25 C25 1_555 1_555
C26 N5 1_555 1_555
C27 C26 1_555 1_555
H26 C27 1_555 1_555
C28 C23 1_555 1_555
H27 C28 1_555 1_555
C29 N5 1_555 1_555
C30 N6 1_555 1_555
C31 C30 1_555 1_555
H28 C31 1_555 1_555
C32 C31 1_555 1_555
H29 C32 1_555 1_555
C33 C32 1_555 1_555
H30 C33 1_555 1_555
C34 C33 1_555 1_555
H31 C34 1_555 1_555
C35 N7 1_555 1_555
C36 N7 1_555 1_555
C37 N8 1_555 1_555
C38 C37 1_555 1_555
H32 C38 1_555 1_555
C39 C38 1_555 1_555
H33 C39 1_555 1_555
C40 C39 1_555 1_555
C41 C40 1_555 1_555
H34 C41 1_555 1_555
C42 C37 1_555 1_555
H35 C42 1_555 1_555
C43 C40 1_555 1_555
H36 C43 1_555 1_555
H37 C43 1_555 1_555
H38 C43 1_555 1_555
O5 C44 1_555 1_555
O6 C45 1_555 1_555
O7 C47 1_555 1_555
O8 C49 1_555 1_555
O9 C51 1_555 1_555
O10 C53 1_555 1_555
C44 C45 1_555 1_555
C46 O6 1_555 1_555
C47 C46 1_555 1_555
C48 O7 1_555 1_555
C49 C48 1_555 1_555
C50 O8 1_555 1_555
C51 C50 1_555 1_555
C52 O9 1_555 1_555
C53 C52 1_555 1_555
C54 O10 1_555 1_555
C55 O5 1_555 1_555
P1 O11 1_555 1_555
O12 P1 1_555 1_555
O13 P1 1_555 1_555
O14 P1 1_555 1_555
O15 C65 1_555 1_555
O16 C56 1_555 1_555
O17 C57 1_555 1_555
O18 C59 1_555 1_555
O19 C61 1_555 1_555
O20 C63 1_555 1_555
C56 C57 1_555 1_555
C58 O17 1_555 1_555
C59 C58 1_555 1_555
C60 O18 1_555 1_555
C61 C60 1_555 1_555
C62 O19 1_555 1_555
C63 C62 1_555 1_555
C64 O20 1_555 1_555
C65 C64 1_555 1_555
C66 O15 1_555 1_555
C67 O16 1_555 1_555
O21 C75 1_555 1_555
O22 C82 1_555 1_555
O23 C96 1_555 1_555
O24 C103 1_555 1_555
N9 H39 1_555 1_555
N10 H40 1_555 1_555
N11 H41 1_555 1_555
N12 H42 1_555 1_555
N13 H43 1_555 1_555
N14 H44 1_555 1_555
N15 H45 1_555 1_555
N16 H46 1_555 1_555
C68 H47 1_555 1_555
H48 C68 1_555 1_555
H49 C68 1_555 1_555
C69 C68 1_555 1_555
C70 C69 1_555 1_555
H50 C70 1_555 1_555
C71 C70 1_555 1_555
H51 C71 1_555 1_555
C72 N9 1_555 1_555
C73 C72 1_555 1_555
H52 C73 1_555 1_555
C74 C69 1_555 1_555
H53 C74 1_555 1_555
C75 N9 1_555 1_555
C76 N10 1_555 1_555
C77 N11 1_555 1_555
C78 C77 1_555 1_555
H54 C78 1_555 1_555
C79 C78 1_555 1_555
H55 C79 1_555 1_555
C80 C79 1_555 1_555
H56 C80 1_555 1_555
C81 C76 1_555 1_555
H57 C81 1_555 1_555
C82 N11 1_555 1_555
C83 N12 1_555 1_555
C84 C83 1_555 1_555
H58 C84 1_555 1_555
C85 C84 1_555 1_555
H59 C85 1_555 1_555
C86 C85 1_555 1_555
C87 C86 1_555 1_555
H60 C87 1_555 1_555
C88 C83 1_555 1_555
H61 C88 1_555 1_555
C89 C86 1_555 1_555
C90 C89 1_555 1_555
C91 C90 1_555 1_555
H62 C91 1_555 1_555
C92 C91 1_555 1_555
H63 C92 1_555 1_555
C93 N13 1_555 1_555
C94 C93 1_555 1_555
H64 C94 1_555 1_555
C95 C90 1_555 1_555
H65 C95 1_555 1_555
C96 N13 1_555 1_555
C97 N14 1_555 1_555
C98 N15 1_555 1_555
C99 C98 1_555 1_555
H66 C99 1_555 1_555
C100 C99 1_555 1_555
H67 C100 1_555 1_555
C101 C100 1_555 1_555
H68 C101 1_555 1_555
C102 C97 1_555 1_555
H69 C102 1_555 1_555
C103 N15 1_555 1_555
C104 N16 1_555 1_555
C105 C104 1_555 1_555
H70 C105 1_555 1_555
C106 C105 1_555 1_555
H71 C106 1_555 1_555
C107 C106 1_555 1_555
C108 C107 1_555 1_555
H72 C108 1_555 1_555
C109 C104 1_555 1_555
H73 C109 1_555 1_555
C110 C107 1_555 1_555
H74 C110 1_555 1_555
H75 C110 1_555 1_555
H76 C110 1_555 1_555
O27 C113 1_555 1_555
O28 C111 1_555 1_555
O29 C115 1_555 1_555
C111 C116B 1_555 1_555
C112 O28 1_555 1_555
C113 C112 1_555 1_555
C114 O27 1_555 1_555
C115 C114 1_555 1_555
C116 O29 1_555 1_555
O30 C118 1_555 1_555
C117 C118 1_555 1_555
P2 O31 1_555 1_555
O32 P2 1_555 1_555
O33 P2 1_555 1_555
O34 P2 1_555 1_555
O36 C120 1_555 1_555
C119 C120 1_555 1_555
O1C C8C 1_555 1_555
O2C C15C 1_555 1_555
O3C C29C 1_555 1_555
O4C C36C 1_555 1_555
N1C H1C 1_555 1_555
N2C H2C 1_555 1_555
N3C H3C 1_555 1_555
N4C H4C 1_555 1_555
N5C H5C 1_555 1_555
N6C H6C 1_555 1_555
N7C H7C 1_555 1_555
N8C H8C 1_555 1_555
C1C H9C 1_555 1_555
H10C C1C 1_555 1_555
H11C C1C 1_555 1_555
C2C C1C 1_555 1_555
C3C C2C 1_555 1_555
H12C C3C 1_555 1_555
C4C C3C 1_555 1_555
H13C C4C 1_555 1_555
C5C N1C 1_555 1_555
C6C C5C 1_555 1_555
H14C C6C 1_555 1_555
C7C C2C 1_555 1_555
H15C C7C 1_555 1_555
C8C N1C 1_555 1_555
C9C N2C 1_555 1_555
C10C C9C 1_555 1_555
H16C C10C 1_555 1_555
C11C C10C 1_555 1_555
H17C C11C 1_555 1_555
C12C C11C 1_555 1_555
H18C C12C 1_555 1_555
C13C C12C 1_555 1_555
H19C C13C 1_555 1_555
C14C N3C 1_555 1_555
C15C N3C 1_555 1_555
C16C N4C 1_555 1_555
C17C C16C 1_555 1_555
H20C C17C 1_555 1_555
C18C C17C 1_555 1_555
H21C C18C 1_555 1_555
C19C C18C 1_555 1_555
C20C C19C 1_555 1_555
H22C C20C 1_555 1_555
C21C C16C 1_555 1_555
H23C C21C 1_555 1_555
C22C C22 1_555 1_555
C23C C22C 1_555 1_555
C24C C23C 1_555 1_555
H24C C24C 1_555 1_555
C25C C24C 1_555 1_555
H25C C25C 1_555 1_555
C26C N5C 1_555 1_555
C27C C26C 1_555 1_555
H26C C27C 1_555 1_555
C28C C23C 1_555 1_555
H27C C28C 1_555 1_555
C29C N5C 1_555 1_555
C30C N6C 1_555 1_555
C31C C30C 1_555 1_555
H28C C31C 1_555 1_555
C32C C31C 1_555 1_555
H29C C32C 1_555 1_555
C33C C32C 1_555 1_555
H30C C33C 1_555 1_555
C34C C33C 1_555 1_555
H31C C34C 1_555 1_555
C35C N7C 1_555 1_555
C36C N7C 1_555 1_555
C37C N8C 1_555 1_555
C38C C37C 1_555 1_555
H32C C38C 1_555 1_555
C39C C38C 1_555 1_555
H33C C39C 1_555 1_555
C40C C39C 1_555 1_555
C41C C40C 1_555 1_555
H34C C41C 1_555 1_555
C42C C37C 1_555 1_555
H35C C42C 1_555 1_555
C43C C40C 1_555 1_555
H36C C43C 1_555 1_555
H37C C43C 1_555 1_555
H38C C43C 1_555 1_555
O21C C75C 1_555 1_555
O22C C82C 1_555 1_555
O23C C96C 1_555 1_555
O24C C103C 1_555 1_555
N9C H39C 1_555 1_555
N10C H40C 1_555 1_555
N11C H41C 1_555 1_555
N12C H42C 1_555 1_555
N13C H43C 1_555 1_555
N14C H44C 1_555 1_555
N15C H45C 1_555 1_555
N16C H46C 1_555 1_555
C68C H47C 1_555 1_555
H48C C68C 1_555 1_555
H49C C68C 1_555 1_555
C69C C68C 1_555 1_555
C70C C69C 1_555 1_555
H50C C70C 1_555 1_555
C71C C70C 1_555 1_555
H51C C71C 1_555 1_555
C72C N9C 1_555 1_555
C73C C72C 1_555 1_555
H52C C73C 1_555 1_555
C74C C69C 1_555 1_555
H53C C74C 1_555 1_555
C75C N9C 1_555 1_555
C76C N10C 1_555 1_555
C77C N11C 1_555 1_555
C78C C77C 1_555 1_555
H54C C78C 1_555 1_555
C79C C78C 1_555 1_555
H55C C79C 1_555 1_555
C80C C79C 1_555 1_555
H56C C80C 1_555 1_555
C81C C76C 1_555 1_555
H57C C81C 1_555 1_555
C82C N11C 1_555 1_555
C83C N12C 1_555 1_555
C84C C83C 1_555 1_555
H58C C84C 1_555 1_555
C85C C84C 1_555 1_555
H59C C85C 1_555 1_555
C86C C85C 1_555 1_555
C87C C86C 1_555 1_555
H60C C87C 1_555 1_555
C88C C83C 1_555 1_555
H61C C88C 1_555 1_555
C89C C89 1_555 1_555
C90C C89C 1_555 1_555
C91C C90C 1_555 1_555
H62C C91C 1_555 1_555
C92C C91C 1_555 1_555
H63C C92C 1_555 1_555
C93C N13C 1_555 1_555
C94C C93C 1_555 1_555
H64C C94C 1_555 1_555
C95C C90C 1_555 1_555
H65C C95C 1_555 1_555
C96C N13C 1_555 1_555
C97C N14C 1_555 1_555
C98C N15C 1_555 1_555
C99C C98C 1_555 1_555
H66C C99C 1_555 1_555
C100C C99C 1_555 1_555
H67C C100C 1_555 1_555
C101C C100C 1_555 1_555
H68C C101C 1_555 1_555
C102C C97C 1_555 1_555
H69C C102C 1_555 1_555
C103C N15C 1_555 1_555
C104C N16C 1_555 1_555
C105C C104C 1_555 1_555
H70C C105C 1_555 1_555
C106C C105C 1_555 1_555
H71C C106C 1_555 1_555
C107C C106C 1_555 1_555
C108C C107C 1_555 1_555
H72C C108C 1_555 1_555
C109C C104C 1_555 1_555
H73C C109C 1_555 1_555
C110C C107C 1_555 1_555
H74C C110C 1_555 1_555
H75C C110C 1_555 1_555
H76C C110C 1_555 1_555
O27B C113B 1_555 1_555
O28B C111B 1_555 1_555
O29B C115B 1_555 1_555
C111B C116 1_555 1_555
C112B O28B 1_555 1_555
C113B C112B 1_555 1_555
C114B O27B 1_555 1_555
C115B C114B 1_555 1_555
C116B O29B 1_555 1_555
C117B C118B 1_555 1_555
C118B O30 1_555 1_555
N2 C8 1_555 1_555
N4 C15 1_555 1_555
N6 C29 1_555 1_555
N8 C36 1_555 1_555
C4 C5 1_555 1_555
C6 C7 1_555 1_555
C9 C14 1_555 1_555
C13 C14 1_555 1_555
C20 C21 1_555 1_555
C25 C26 1_555 1_555
C27 C28 1_555 1_555
C30 C35 1_555 1_555
C34 C35 1_555 1_555
C41 C42 1_555 1_555
C54 C55 1_555 1_555
C66 C67 1_555 1_555
N10 C75 1_555 1_555
N12 C82 1_555 1_555
N14 C96 1_555 1_555
N16 C103 1_555 1_555
C71 C72 1_555 1_555
C73 C74 1_555 1_555
C76 C77 1_555 1_555
C80 C81 1_555 1_555
C87 C88 1_555 1_555
C92 C93 1_555 1_555
C94 C95 1_555 1_555
C97 C98 1_555 1_555
C101 C102 1_555 1_555
C108 C109 1_555 1_555
N2C C8C 1_555 1_555
N4C C15C 1_555 1_555
N6C C29C 1_555 1_555
N8C C36C 1_555 1_555
C4C C5C 1_555 1_555
C6C C7C 1_555 1_555
C9C C14C 1_555 1_555
C13C C14C 1_555 1_555
C19C C22C 1_555 1_555
C20C C21C 1_555 1_555
C25C C26C 1_555 1_555
C27C C28C 1_555 1_555
C30C C35C 1_555 1_555
C34C C35C 1_555 1_555
C41C C42C 1_555 1_555
N10C C75C 1_555 1_555
N12C C82C 1_555 1_555
N14C C96C 1_555 1_555
N16C C103C 1_555 1_555
C71C C72C 1_555 1_555
C73C C74C 1_555 1_555
C76C C77C 1_555 1_555
C80C C81C 1_555 1_555
C86C C89C 1_555 1_555
C87C C88C 1_555 1_555
C92C C93C 1_555 1_555
C94C C95C 1_555 1_555
C97C C98C 1_555 1_555
C101C C102C 1_555 1_555
C108C C109C 1_555 1_555

#END
