
#######################################################################
#
#                 Cambridge Crystallographic Data Centre
#                                CCDC 
#
#######################################################################
#
# If this CIF has been generated from an entry in the Cambridge 
# Structural Database, then it will include bibliographic, chemical, 
# crystal, experimental, refinement or atomic coordinate data resulting 
# from the CCDC's data processing and validation procedures.
#
#######################################################################

data_JOHDEP
_chemical_formula_moiety         'C18 H32 N2 O4'
_chemical_name_systematic        
Bi(5,5-dimethyl-4-isopropyl-2-oxomorpholin-3-yl)
_symmetry_cell_setting           orthorhombic
_symmetry_space_group_name_H-M   'P b c a'
_symmetry_Int_Tables_number      61
_space_group_name_Hall           '-P 2ac 2ab'
loop_
_symmetry_equiv_pos_site_id
_symmetry_equiv_pos_as_xyz
1 x,y,z
2 1/2-x,1/2+y,z
3 x,1/2-y,1/2+z
4 1/2-x,-y,1/2+z
5 -x,-y,-z
6 1/2+x,1/2-y,-z
7 -x,1/2+y,1/2-z
8 1/2+x,y,1/2-z
_cell_length_a                   11.273(4)
_cell_length_b                   11.176(3)
_cell_length_c                   14.647(5)
_cell_angle_alpha                90
_cell_angle_beta                 90
_cell_angle_gamma                90
_cell_volume                     1845.33
_exptl_crystal_colour            colorless
_cell_formula_units_Z            4
loop_
_atom_site_label
_atom_site_type_symbol
_atom_site_fract_x
_atom_site_fract_y
_atom_site_fract_z
O1 O 0.0034(1) -0.0881(1) 0.3265(1)
C1 C -0.0733(2) -0.0331(2) 0.3830(1)
O2 O -0.1779(1) -0.0442(1) 0.3707(1)
C2 C -0.0184(1) 0.0413(1) 0.4582(1)
N1 N 0.0775(1) 0.1170(1) 0.4247(1)
C3 C 0.1486(2) 0.0714(1) 0.3474(1)
C4 C 0.1267(2) -0.0616(2) 0.3402(1)
C5 C 0.0567(2) 0.2474(1) 0.4269(1)
C6 C 0.2798(2) 0.0887(2) 0.3678(1)
C7 C 0.1182(2) 0.1267(2) 0.2543(1)
C8 C -0.0609(2) 0.2888(2) 0.3880(2)
C9 C 0.0755(2) 0.2982(2) 0.5215(1)
H1 H -0.0864(14) 0.0929(14) 0.4765(12)
H2 H 0.1718 -0.0933 0.2901
H3 H 0.1537 -0.0999 0.3951
H4 H 0.1168 0.2824 0.3889
H5 H 0.2982 0.0539 0.4261
H6 H 0.3264 0.0507 0.3213
H7 H 0.2976 0.1727 0.3692
H8 H 0.0353 0.1152 0.2419
H9 H 0.1357 0.2108 0.2554
H10 H 0.1644 0.0887 0.2075
H11 H -0.0717 0.2559 0.3280
H12 H -0.1240 0.2623 0.4271
H13 H -0.0615 0.3746 0.3846
H14 H 0.1504 0.2709 0.5447
H15 H 0.0754 0.3840 0.5187
H16 H 0.0129 0.2717 0.5611
C2D C 0.0184(1) -0.0413(1) 0.5418(1)
C1D C 0.0733(2) 0.0331(2) 0.6170(1)
N1D N -0.0775(1) -0.1170(1) 0.5753(1)
H1D H 0.0864(14) -0.0929(14) 0.5235(12)
O1D O -0.0034(1) 0.0881(1) 0.6735(1)
O2D O 0.1779(1) 0.0442(1) 0.6293(1)
C3D C -0.1486(2) -0.0714(1) 0.6526(1)
C5D C -0.0567(2) -0.2474(1) 0.5731(1)
C4D C -0.1267(2) 0.0616(2) 0.6598(1)
C6D C -0.2798(2) -0.0887(2) 0.6322(1)
C7D C -0.1182(2) -0.1267(2) 0.7457(1)
C8D C 0.0609(2) -0.2888(2) 0.6120(2)
C9D C -0.0755(2) -0.2982(2) 0.4785(1)
H4D H -0.1168 -0.2824 0.6111
H2D H -0.1718 0.0933 0.7099
H3D H -0.1537 0.0999 0.6049
H5D H -0.2982 -0.0539 0.5739
H6D H -0.3264 -0.0507 0.6787
H7D H -0.2976 -0.1727 0.6308
H8D H -0.0353 -0.1152 0.7581
H9D H -0.1357 -0.2108 0.7446
H10D H -0.1644 -0.0887 0.7925
H11D H 0.0717 -0.2559 0.6720
H12D H 0.1240 -0.2623 0.5729
H13D H 0.0615 -0.3746 0.6154
H14D H -0.1504 -0.2709 0.4553
H15D H -0.0754 -0.3840 0.4813
H16D H -0.0129 -0.2717 0.4389
loop_
_geom_bond_atom_site_label_1
_geom_bond_atom_site_label_2
_geom_bond_site_symmetry_1
_geom_bond_site_symmetry_2
O1 C1 1_555 1_555
C1 O2 1_555 1_555
C2 C1 1_555 1_555
N1 C2 1_555 1_555
C3 N1 1_555 1_555
C4 O1 1_555 1_555
C5 N1 1_555 1_555
C6 C3 1_555 1_555
C7 C3 1_555 1_555
C8 C5 1_555 1_555
C9 C5 1_555 1_555
H1 C2 1_555 1_555
H2 C4 1_555 1_555
H3 C4 1_555 1_555
H4 C5 1_555 1_555
H5 C6 1_555 1_555
H6 C6 1_555 1_555
H7 C6 1_555 1_555
H8 C7 1_555 1_555
H9 C7 1_555 1_555
H10 C7 1_555 1_555
H11 C8 1_555 1_555
H12 C8 1_555 1_555
H13 C8 1_555 1_555
H14 C9 1_555 1_555
H15 C9 1_555 1_555
H16 C9 1_555 1_555
C2D C2 1_555 1_555
C1D C2D 1_555 1_555
N1D C2D 1_555 1_555
H1D C2D 1_555 1_555
O1D C1D 1_555 1_555
O2D C1D 1_555 1_555
C3D N1D 1_555 1_555
C5D N1D 1_555 1_555
C4D O1D 1_555 1_555
C6D C3D 1_555 1_555
C7D C3D 1_555 1_555
C8D C5D 1_555 1_555
C9D C5D 1_555 1_555
H4D C5D 1_555 1_555
H2D C4D 1_555 1_555
H3D C4D 1_555 1_555
H5D C6D 1_555 1_555
H6D C6D 1_555 1_555
H7D C6D 1_555 1_555
H8D C7D 1_555 1_555
H9D C7D 1_555 1_555
H10D C7D 1_555 1_555
H11D C8D 1_555 1_555
H12D C8D 1_555 1_555
H13D C8D 1_555 1_555
H14D C9D 1_555 1_555
H15D C9D 1_555 1_555
H16D C9D 1_555 1_555
C3 C4 1_555 1_555
C3D C4D 1_555 1_555

#END
