
#######################################################################
#
#                 Cambridge Crystallographic Data Centre
#                                CCDC 
#
#######################################################################
#
# If this CIF has been generated from an entry in the Cambridge 
# Structural Database, then it will include bibliographic, chemical, 
# crystal, experimental, refinement or atomic coordinate data resulting 
# from the CCDC's data processing and validation procedures.
#
#######################################################################

data_JOHLAV
_chemical_formula_moiety         'C15 H16 B1 N2 1+,Cl1 1-'
_chemical_name_systematic        
'2-methyl-6-(1-methyl-1,4-benzazaborinin-4(1H)-yl)pyridinium chloride'
_symmetry_cell_setting           triclinic
_symmetry_space_group_name_H-M   'P -1'
_symmetry_Int_Tables_number      2
_space_group_name_Hall           '-P 1'
loop_
_symmetry_equiv_pos_site_id
_symmetry_equiv_pos_as_xyz
1 x,y,z
2 -x,-y,-z
_cell_length_a                   7.101(3)
_cell_length_b                   8.683(4)
_cell_length_c                   11.685(5)
_cell_angle_alpha                89.271(7)
_cell_angle_beta                 74.873(7)
_cell_angle_gamma                86.819(7)
_cell_volume                     694.436
_cell_formula_units_Z            2
_chemical_properties_physical    'Air-sensitive, Moisture-sensitive'
loop_
_atom_site_label
_atom_site_type_symbol
_atom_site_fract_x
_atom_site_fract_y
_atom_site_fract_z
Cl1 Cl 0.05359(11) 0.40949(8) 0.19810(7)
N1 N 0.3789(3) 0.6629(3) 0.4052(2)
N2 N 1.0530(3) 0.7433(3) 0.1163(2)
B1 B 0.7337(5) 0.7856(4) 0.2708(3)
C1 C 0.4321(5) 0.6505(4) 0.2840(3)
C2 C 0.5988(4) 0.7071(4) 0.2159(3)
C3 C 0.6691(4) 0.8000(3) 0.4037(3)
C4 C 0.4949(4) 0.7345(3) 0.4668(3)
C5 C 0.4332(5) 0.7408(4) 0.5924(3)
C6 C 0.5440(6) 0.8109(5) 0.6530(3)
C7 C 0.7184(6) 0.8768(5) 0.5935(3)
C8 C 0.7780(5) 0.8721(4) 0.4730(3)
C9 C 0.1991(6) 0.5933(5) 0.4695(4)
C10 C 0.9338(4) 0.8476(3) 0.1907(2)
C11 C 0.9914(4) 0.9972(4) 0.1809(3)
C12 C 1.1560(4) 1.0378(4) 0.0953(3)
C13 C 1.2653(4) 0.9272(4) 0.0201(3)
C14 C 1.2157(4) 0.7751(3) 0.0320(2)
C15 C 1.3249(5) 0.6452(4) -0.0424(3)
H1 H 1.027(4) 0.641(4) 0.132(3)
H2 H 0.350(4) 0.590(4) 0.251(3)
H3 H 0.626(4) 0.682(4) 0.135(3)
H4 H 0.313(6) 0.691(5) 0.643(4)
H5 H 0.499(6) 0.810(4) 0.742(4)
H6 H 0.789(6) 0.931(5) 0.639(4)
H7 H 0.906(4) 0.898(3) 0.434(2)
H8 H 0.128(5) 0.678(4) 0.516(3)
H9 H 0.237(4) 0.514(4) 0.521(3)
H10 H 0.155(5) 0.543(4) 0.408(3)
H11 H 0.914(4) 1.073(4) 0.230(3)
H12 H 1.190(4) 1.140(4) 0.087(3)
H13 H 1.368(4) 0.947(3) -0.039(3)
H14 H 1.268(5) 0.628(4) -0.106(3)
H15 H 1.461(5) 0.672(4) -0.073(3)
H16 H 1.314(5) 0.553(4) 0.006(3)
loop_
_geom_bond_atom_site_label_1
_geom_bond_atom_site_label_2
_geom_bond_site_symmetry_1
_geom_bond_site_symmetry_2
N1 C1 1_555 1_555
N2 C10 1_555 1_555
B1 C2 1_555 1_555
C1 C2 1_555 1_555
C2 H3 1_555 1_555
C3 B1 1_555 1_555
C4 N1 1_555 1_555
C5 C4 1_555 1_555
C6 C5 1_555 1_555
C7 C6 1_555 1_555
C8 C3 1_555 1_555
C9 N1 1_555 1_555
C10 B1 1_555 1_555
C11 C10 1_555 1_555
C12 C11 1_555 1_555
C13 C12 1_555 1_555
C14 N2 1_555 1_555
C15 C14 1_555 1_555
H1 N2 1_555 1_555
H2 C1 1_555 1_555
H4 C5 1_555 1_555
H5 C6 1_555 1_555
H6 C7 1_555 1_555
H7 C8 1_555 1_555
H8 C9 1_555 1_555
H9 C9 1_555 1_555
H10 C9 1_555 1_555
H11 C11 1_555 1_555
H12 C12 1_555 1_555
H13 C13 1_555 1_555
H14 C15 1_555 1_555
H15 C15 1_555 1_555
H16 C15 1_555 1_555
C3 C4 1_555 1_555
C7 C8 1_555 1_555
C13 C14 1_555 1_555

#END
