
#######################################################################
#
#                 Cambridge Crystallographic Data Centre
#                                CCDC 
#
#######################################################################
#
# If this CIF has been generated from an entry in the Cambridge 
# Structural Database, then it will include bibliographic, chemical, 
# crystal, experimental, refinement or atomic coordinate data resulting 
# from the CCDC's data processing and validation procedures.
#
#######################################################################

data_JOHRUU
_chemical_formula_moiety         'C18 H27 N1 O3 S1'
_chemical_name_systematic        '2-(Phenylsulfonyl)cyclododecanone oxime'
_symmetry_cell_setting           triclinic
_symmetry_space_group_name_H-M   'P -1'
_symmetry_Int_Tables_number      2
_space_group_name_Hall           '-P 1'
loop_
_symmetry_equiv_pos_site_id
_symmetry_equiv_pos_as_xyz
1 x,y,z
2 -x,-y,-z
_cell_length_a                   11.674(2)
_cell_length_b                   12.300(3)
_cell_length_c                   13.829(3)
_cell_angle_alpha                65.18(3)
_cell_angle_beta                 84.19(3)
_cell_angle_gamma                83.41(3)
_cell_volume                     1787.28
_exptl_crystal_colour            colorless
_exptl_crystal_description       platelet
_cell_formula_units_Z            4
loop_
_atom_site_label
_atom_site_type_symbol
_atom_site_fract_x
_atom_site_fract_y
_atom_site_fract_z
S1 S 0.61808(4) 0.83389(3) 0.28289(4)
O1 O 0.42604(13) 0.49506(11) 0.37617(12)
H1 H 0.4451 0.4423 0.3548
O2 O 0.61178(12) 0.80860(13) 0.39443(11)
O3 O 0.64955(12) 0.95055(11) 0.20615(12)
N1 N 0.46577(12) 0.60464(12) 0.30083(12)
C1 C 0.37282(16) 0.68611(17) 0.42836(14)
H2 H 0.4124 0.7267 0.4605
H3 H 0.3702 0.6027 0.4786
C2 C 0.43961(13) 0.69217(13) 0.32796(12)
C3 C 0.47925(13) 0.81265(13) 0.24907(12)
H4 H 0.4244 0.8738 0.2597
C4 C 0.48071(15) 0.83966(16) 0.13000(13)
H5 H 0.5137 0.9158 0.0889
H6 H 0.5306 0.7779 0.1169
C5 C 0.36190(16) 0.84549(16) 0.09059(14)
H7 H 0.3712 0.8558 0.0168
H8 H 0.3290 0.7693 0.1320
C6 C 0.27736(17) 0.94585(16) 0.09777(16)
H9 H 0.3091 1.0223 0.0549
H10 H 0.2689 0.9367 0.1712
C7 C 0.15814(18) 0.9480(2) 0.06009(18)
H11 H 0.1149 1.0233 0.0517
H12 H 0.1676 0.9453 -0.0094
C8 C 0.08883(18) 0.8451(2) 0.13541(19)
H13 H 0.1358 0.7700 0.1508
H14 H 0.0218 0.8433 0.1002
C9 C 0.04821(19) 0.8545(2) 0.2413(2)
H15 H 0.0950 0.9092 0.2508
H16 H -0.0311 0.8892 0.2362
C10 C 0.05458(19) 0.7357(2) 0.3396(2)
H17 H 0.0175 0.7490 0.4002
H18 H 0.0109 0.6798 0.3286
C11 C 0.17599(17) 0.67789(19) 0.36722(17)
H19 H 0.2158 0.6722 0.3042
H20 H 0.1704 0.5967 0.4215
C12 C 0.24919(16) 0.74414(17) 0.40747(15)
H21 H 0.2123 0.7457 0.4730
H22 H 0.2521 0.8266 0.3551
C13 C 0.71512(13) 0.72384(15) 0.26263(14)
C14 C 0.74012(16) 0.61422(16) 0.34738(16)
H23 H 0.7072 0.5989 0.4155
C15 C 0.81434(19) 0.52867(18) 0.3290(2)
H24 H 0.8321 0.4550 0.3851
C16 C 0.86198(17) 0.5511(2) 0.2291(2)
H25 H 0.9120 0.4927 0.2174
C17 C 0.83685(18) 0.6590(2) 0.1456(2)
H26 H 0.8689 0.6729 0.0775
C18 C 0.76414(17) 0.74762(19) 0.16177(17)
H27 H 0.7487 0.8218 0.1056
S2 S 0.38947(4) 0.17208(4) 0.22586(4)
O4 O 0.56560(13) 0.51587(11) 0.15285(11)
H28 H 0.5500 0.5607 0.1834
O5 O 0.37941(14) 0.21359(17) 0.11355(13)
O6 O 0.36940(13) 0.04926(12) 0.29422(14)
N2 N 0.53686(12) 0.39908(12) 0.22191(12)
C19 C 0.60882(16) 0.35504(18) 0.06703(14)
H29 H 0.6032 0.4417 0.0276
H30 H 0.5631 0.3221 0.0325
C20 C 0.55924(13) 0.32477(14) 0.17864(13)
C21 C 0.53300(14) 0.19613(14) 0.24767(14)
H31 H 0.5866 0.1460 0.2211
C22 C 0.55105(17) 0.14902(17) 0.36715(15)
H32 H 0.5009 0.1978 0.3963
H33 H 0.5280 0.0675 0.4025
C23 C 0.67517(18) 0.14952(18) 0.39268(16)
H34 H 0.6982 0.2310 0.3568
H35 H 0.6773 0.1257 0.4689
C24 C 0.76303(19) 0.06718(19) 0.36023(19)
H36 H 0.7413 -0.0147 0.3975
H37 H 0.7598 0.0897 0.2843
C25 C 0.8870(2) 0.0711(2) 0.3839(2)
H38 H 0.9330 0.0012 0.3815
H39 H 0.8876 0.0665 0.4556
C26 C 0.9427(3) 0.1843(3) 0.3056(3)
H40 H 1.0165 0.1864 0.3312
H41 H 0.8939 0.2541 0.3046
C27 C 0.9630(2) 0.1936(3) 0.1877(3)
H42 H 1.0423 0.1652 0.1772
H43 H 0.9131 0.1410 0.1787
C28 C 0.9401(2) 0.3192(3) 0.1031(3)
H44 H 0.9864 0.3726 0.1150
H45 H 0.9651 0.3196 0.0339
C29 C 0.81553(19) 0.3679(3) 0.1004(2)
H46 H 0.8112 0.4530 0.0541
H47 H 0.7883 0.3595 0.1716
C30 C 0.73414(17) 0.3073(2) 0.06186(17)
H48 H 0.7576 0.3200 -0.0112
H49 H 0.7409 0.2214 0.1055
C31 C 0.29380(15) 0.26479(15) 0.27102(16)
C32 C 0.25239(18) 0.37679(19) 0.1991(2)
H50 H 0.2754 0.4047 0.1269
C33 C 0.1759(2) 0.4460(2) 0.2374(3)
H51 H 0.1466 0.5214 0.1904
C34 C 0.1431(2) 0.4050(3) 0.3426(3)
H52 H 0.0906 0.4521 0.3669
C35 C 0.1860(2) 0.2951(3) 0.4138(2)
H53 H 0.1648 0.2691 0.4862
C36 C 0.26059(18) 0.2235(2) 0.37762(18)
H54 H 0.2883 0.1477 0.4250
loop_
_geom_bond_atom_site_label_1
_geom_bond_atom_site_label_2
_geom_bond_site_symmetry_1
_geom_bond_site_symmetry_2
S1 O2 1_555 1_555
O1 H1 1_555 1_555
O3 S1 1_555 1_555
N1 O1 1_555 1_555
C1 H2 1_555 1_555
H3 C1 1_555 1_555
C2 N1 1_555 1_555
C3 S1 1_555 1_555
H4 C3 1_555 1_555
C4 C3 1_555 1_555
H5 C4 1_555 1_555
H6 C4 1_555 1_555
C5 C4 1_555 1_555
H7 C5 1_555 1_555
H8 C5 1_555 1_555
C6 C5 1_555 1_555
H9 C6 1_555 1_555
H10 C6 1_555 1_555
C7 C6 1_555 1_555
H11 C7 1_555 1_555
H12 C7 1_555 1_555
C8 C7 1_555 1_555
H13 C8 1_555 1_555
H14 C8 1_555 1_555
C9 C8 1_555 1_555
H15 C9 1_555 1_555
H16 C9 1_555 1_555
C10 C9 1_555 1_555
H17 C10 1_555 1_555
H18 C10 1_555 1_555
C11 C10 1_555 1_555
H19 C11 1_555 1_555
H20 C11 1_555 1_555
C12 C1 1_555 1_555
H21 C12 1_555 1_555
H22 C12 1_555 1_555
C13 S1 1_555 1_555
C14 C13 1_555 1_555
H23 C14 1_555 1_555
C15 C14 1_555 1_555
H24 C15 1_555 1_555
C16 C15 1_555 1_555
H25 C16 1_555 1_555
C17 C16 1_555 1_555
H26 C17 1_555 1_555
C18 C13 1_555 1_555
H27 C18 1_555 1_555
S2 O5 1_555 1_555
O4 H28 1_555 1_555
O6 S2 1_555 1_555
N2 O4 1_555 1_555
C19 H29 1_555 1_555
H30 C19 1_555 1_555
C20 N2 1_555 1_555
C21 S2 1_555 1_555
H31 C21 1_555 1_555
C22 C21 1_555 1_555
H32 C22 1_555 1_555
H33 C22 1_555 1_555
C23 C22 1_555 1_555
H34 C23 1_555 1_555
H35 C23 1_555 1_555
C24 C23 1_555 1_555
H36 C24 1_555 1_555
H37 C24 1_555 1_555
C25 C24 1_555 1_555
H38 C25 1_555 1_555
H39 C25 1_555 1_555
C26 C25 1_555 1_555
H40 C26 1_555 1_555
H41 C26 1_555 1_555
C27 C26 1_555 1_555
H42 C27 1_555 1_555
H43 C27 1_555 1_555
C28 C27 1_555 1_555
H44 C28 1_555 1_555
H45 C28 1_555 1_555
C29 C28 1_555 1_555
H46 C29 1_555 1_555
H47 C29 1_555 1_555
C30 C19 1_555 1_555
H48 C30 1_555 1_555
H49 C30 1_555 1_555
C31 S2 1_555 1_555
C32 C31 1_555 1_555
H50 C32 1_555 1_555
C33 C32 1_555 1_555
H51 C33 1_555 1_555
C34 C33 1_555 1_555
H52 C34 1_555 1_555
C35 C34 1_555 1_555
H53 C35 1_555 1_555
C36 C31 1_555 1_555
H54 C36 1_555 1_555
C1 C2 1_555 1_555
C2 C3 1_555 1_555
C11 C12 1_555 1_555
C17 C18 1_555 1_555
C19 C20 1_555 1_555
C20 C21 1_555 1_555
C29 C30 1_555 1_555
C35 C36 1_555 1_555

#END
