
#######################################################################
#
#                 Cambridge Crystallographic Data Centre
#                                CCDC 
#
#######################################################################
#
# If this CIF has been generated from an entry in the Cambridge 
# Structural Database, then it will include bibliographic, chemical, 
# crystal, experimental, refinement or atomic coordinate data resulting 
# from the CCDC's data processing and validation procedures.
#
#######################################################################

data_JOHREE
_chemical_formula_moiety         'C46 H58 Br2 O4 S4'
_chemical_name_systematic        
5,11,17,23-Tetra-t-butyl-25,27-bis(2-bromoethoxy)-26,28-dimethoxy-2,8,14,20-tetrathiacalix[4]arene
_symmetry_cell_setting           orthorhombic
_symmetry_space_group_name_H-M   'P m m n'
_symmetry_Int_Tables_number      59
_space_group_name_Hall           '-P 2ab 2a'
loop_
_symmetry_equiv_pos_site_id
_symmetry_equiv_pos_as_xyz
1 x,y,z
2 1/2-x,1/2-y,z
3 -x,1/2+y,-z
4 1/2+x,-y,-z
5 -x,-y,-z
6 1/2+x,1/2+y,-z
7 x,1/2-y,z
8 1/2-x,y,z
_cell_length_a                   13.1680(19)
_cell_length_b                   15.207(2)
_cell_length_c                   12.3803(18)
_cell_angle_alpha                90
_cell_angle_beta                 90
_cell_angle_gamma                90
_cell_volume                     2479.1
_chemical_melting_point          'above 250deg.C'
_cell_formula_units_Z            2
loop_
_atom_site_label
_atom_site_type_symbol
_atom_site_fract_x
_atom_site_fract_y
_atom_site_fract_z
C1 C 0.2500 0.4950(4) 0.5163(4)
H1 H 0.1904 0.4637 0.5416
H2 H 0.3096 0.4637 0.5416
C2 C 0.2500 0.4974(6) 0.3928(5)
H3 H 0.3100 0.5270 0.3655
H4 H 0.1900 0.5270 0.3655
Br1 Br 0.2500 0.37523(5) 0.35283(6)
S1 S 0.03841(5) 0.56801(4) 0.66279(6)
O1 O 0.0696(2) 0.7500 0.7597(2)
O2 O 0.2500 0.58619(19) 0.5615(2)
C3 C 0.0078(3) 0.7500 0.4282(3)
C4 C 0.0179(2) 0.67198(15) 0.4864(2)
H5 H 0.0105 0.6186 0.4505
C5 C 0.03836(18) 0.67164(14) 0.5953(2)
C6 C 0.0475(3) 0.7500 0.6517(3)
C7 C 0.2500 0.5693(2) 0.6710(3)
C8 C 0.15894(18) 0.56312(14) 0.7275(2)
C9 C 0.1604(2) 0.5426(2) 0.8353(2)
H6 H 0.0988 0.5378 0.8716
C10 C 0.2500 0.5286(3) 0.8932(3)
C11 C -0.0110(5) 0.7500 0.3061(4)
C12 C -0.0448(7) 0.6704(3) 0.2637(4)
H7 H -0.1176 0.6686 0.2658
H8 H -0.0179 0.6228 0.3058
H9 H -0.0221 0.6649 0.1903
C13 C 0.0850(13) 0.7500 0.2518(10)
H10 H 0.0905 0.8017 0.2078
H11 H 0.0902 0.6986 0.2071
H12 H 0.1387 0.7496 0.3043
C14 C 0.2500 0.4985(5) 1.0122(4)
C15 C 0.1517(5) 0.5044(6) 1.0630(4)
H13 H 0.1523 0.4716 1.1292
H14 H 0.1011 0.4805 1.0155
H15 H 0.1363 0.5649 1.0780
C16 C 0.2500 0.3934(9) 1.0097(9)
C17 C -0.0143(6) 0.7500 0.8299(4)
C1F C 0.2500 1.0050(4) 0.5163(4)
H1F H 0.1904 1.0363 0.5416
H1A H 0.3096 1.0363 0.5416
C2F C 0.2500 1.0026(6) 0.3928(5)
H3F H 0.3100 0.9730 0.3655
H3A H 0.1900 0.9730 0.3655
Br1F Br 0.2500 1.12477(5) 0.35283(6)
S1F S 0.03841(5) 0.93199(4) 0.66279(6)
S1A S 0.46159(5) 0.93199(4) 0.66279(6)
S1G S 0.46159(5) 0.56801(4) 0.66279(6)
O1G O 0.4304(2) 0.7500 0.7597(2)
O2F O 0.2500 0.91381(19) 0.5615(2)
C3G C 0.4922(3) 0.7500 0.4282(3)
C4F C 0.0179(2) 0.82802(15) 0.4864(2)
C4A C 0.4821(2) 0.82802(15) 0.4864(2)
C4G C 0.4821(2) 0.67198(15) 0.4864(2)
H5F H 0.0105 0.8814 0.4505
H5G H 0.4895 0.6186 0.4505
H5A H 0.4895 0.8814 0.4505
C5F C 0.03836(18) 0.82836(14) 0.5953(2)
C5A C 0.46164(18) 0.82836(14) 0.5953(2)
C5G C 0.46164(18) 0.67164(14) 0.5953(2)
C6G C 0.4525(3) 0.7500 0.6517(3)
C7F C 0.2500 0.9307(2) 0.6710(3)
C8F C 0.15894(18) 0.93688(14) 0.7275(2)
C8A C 0.34106(18) 0.93688(14) 0.7275(2)
C8G C 0.34106(18) 0.56312(14) 0.7275(2)
C9G C 0.3396(2) 0.5426(2) 0.8353(2)
C9A C 0.3396(2) 0.9574(2) 0.8353(2)
C9F C 0.1604(2) 0.9574(2) 0.8353(2)
H6G H 0.4012 0.5378 0.8716
H6A H 0.4012 0.9622 0.8716
H6F H 0.0988 0.9622 0.8716
C10F C 0.2500 0.9714(3) 0.8932(3)
C11G C 0.5110(5) 0.7500 0.3061(4)
C12A C 0.5448(7) 0.8296(3) 0.2637(4)
C12G C 0.5448(7) 0.6704(3) 0.2637(4)
C12F C -0.0448(7) 0.8296(3) 0.2637(4)
H7A H 0.6176 0.8314 0.2658
H7G H 0.6176 0.6686 0.2658
H7F H -0.1176 0.8314 0.2658
H8A H 0.5179 0.8772 0.3058
H8G H 0.5179 0.6228 0.3058
H8F H -0.0179 0.8772 0.3058
H9A H 0.5221 0.8351 0.1903
H9G H 0.5221 0.6649 0.1903
H9F H -0.0221 0.8351 0.1903
C13G C 0.4150(13) 0.7500 0.2518(10)
H10A H 0.4095 0.6983 0.2078
H10G H 0.4095 0.8017 0.2078
H12A H 0.3613 0.7504 0.3043
C14F C 0.2500 1.0015(5) 1.0122(4)
C15G C 0.3483(5) 0.5044(6) 1.0630(4)
C15A C 0.3483(5) 0.9956(6) 1.0630(4)
C15F C 0.1517(5) 0.9956(6) 1.0630(4)
H13G H 0.3477 0.4716 1.1292
H13A H 0.3477 1.0284 1.1292
H13F H 0.1523 1.0284 1.1292
H14G H 0.3989 0.4805 1.0155
H14A H 0.3989 1.0195 1.0155
H14F H 0.1011 1.0195 1.0155
H15G H 0.3637 0.5649 1.0780
H15A H 0.3637 0.9351 1.0780
H15F H 0.1363 0.9351 1.0780
C16F C 0.2500 1.1066(9) 1.0097(9)
C17G C 0.5143(6) 0.7500 0.8299(4)
C18? C 0.2011(6) 0.5412(3) 0.4700(5)
C19? C 0.1976(9) 0.4416(3) 0.4771(8)
H16? H 0.3054 0.3730 0.9661
H17? H 0.1871 0.3728 0.9798
H18? H 0.2575 0.3713 1.0819
H19? H -0.0622 0.7939 0.8070
H20? H 0.0080 0.7629 0.9020
H21? H -0.0462 0.6932 0.8286
loop_
_geom_bond_atom_site_label_1
_geom_bond_atom_site_label_2
_geom_bond_site_symmetry_1
_geom_bond_site_symmetry_2
C1 H1 1_555 1_555
H2 C1 1_555 1_555
C2 C1 1_555 1_555
H3 C2 1_555 1_555
H4 C2 1_555 1_555
Br1 C2 1_555 1_555
S1 C5 1_555 1_555
O1 C6 1_555 1_555
O2 C1 1_555 1_555
C3 C4 1_555 1_555
C4 H5 1_555 1_555
C5 C4 1_555 1_555
C6 C5 1_555 1_555
C7 O2 1_555 1_555
C8 S1 1_555 1_555
C9 C8 1_555 1_555
H6 C9 1_555 1_555
C10 C9 1_555 1_555
C11 C3 1_555 1_555
C12 C11 1_555 1_555
H7 C12 1_555 1_555
H8 C12 1_555 1_555
H9 C12 1_555 1_555
C13 C11 1_555 1_555
H10 C13 1_555 1_555
H11 C13 1_555 1_555
H12 C13 1_555 1_555
C14 C10 1_555 1_555
C15 C14 1_555 1_555
H13 C15 1_555 1_555
H14 C15 1_555 1_555
H15 C15 1_555 1_555
C16 C14 1_555 1_555
C17 O1 1_555 1_555
C1F H1F 1_555 1_555
H1A C1F 1_555 1_555
C2F C1F 1_555 1_555
H3F C2F 1_555 1_555
H3A C2F 1_555 1_555
Br1F C2F 1_555 1_555
S1F C5F 1_555 1_555
S1A C5A 1_555 1_555
S1G C5G 1_555 1_555
O1G C6G 1_555 1_555
O2F C1F 1_555 1_555
C3G C4A 1_555 1_555
C4F C3 1_555 1_555
C4A H5A 1_555 1_555
C4G C3G 1_555 1_555
H5F C4F 1_555 1_555
H5G C4G 1_555 1_555
C5F C6 1_555 1_555
C5A C4A 1_555 1_555
C5G C4G 1_555 1_555
C6G C5A 1_555 1_555
C7F O2F 1_555 1_555
C8F S1F 1_555 1_555
C8A S1A 1_555 1_555
C8G C7 1_555 1_555
C9G C10 1_555 1_555
C9A C8A 1_555 1_555
C9F C8F 1_555 1_555
H6G C9G 1_555 1_555
H6A C9A 1_555 1_555
H6F C9F 1_555 1_555
C10F C9A 1_555 1_555
C11G C3G 1_555 1_555
C12A C11G 1_555 1_555
C12G C11G 1_555 1_555
C12F C11 1_555 1_555
H7A C12A 1_555 1_555
H7G C12G 1_555 1_555
H7F C12F 1_555 1_555
H8A C12A 1_555 1_555
H8G C12G 1_555 1_555
H8F C12F 1_555 1_555
H9A C12A 1_555 1_555
H9G C12G 1_555 1_555
H9F C12F 1_555 1_555
C13G C11G 1_555 1_555
H10A C13G 1_555 1_555
H10G C13G 1_555 1_555
H12A C13G 1_555 1_555
C14F C10F 1_555 1_555
C15G C14 1_555 1_555
C15A C14F 1_555 1_555
C15F C14F 1_555 1_555
H13G C15G 1_555 1_555
H13A C15A 1_555 1_555
H13F C15F 1_555 1_555
H14G C15G 1_555 1_555
H14A C15A 1_555 1_555
H14F C15F 1_555 1_555
H15G C15G 1_555 1_555
H15A C15A 1_555 1_555
H15F C15F 1_555 1_555
C16F C14F 1_555 1_555
C17G O1G 1_555 1_555
C7 C8 1_555 1_555
S1G C8G 1_555 1_555
C4F C5F 1_555 1_555
C5G C6G 1_555 1_555
C7F C8F 1_555 1_555
C7F C8A 1_555 1_555
C8G C9G 1_555 1_555
C9F C10F 1_555 1_555

#END
