
#######################################################################
#
#                 Cambridge Crystallographic Data Centre
#                                CCDC 
#
#######################################################################
#
# If this CIF has been generated from an entry in the Cambridge 
# Structural Database, then it will include bibliographic, chemical, 
# crystal, experimental, refinement or atomic coordinate data resulting 
# from the CCDC's data processing and validation procedures.
#
#######################################################################

data_JOHSEF
_chemical_formula_moiety         'C21 H33 N3 S2'
_chemical_name_systematic        
2-(2-(Methylthio)cyclododecylidene)-N-(4-methylphenyl)hydrazinecarbothioamide
_symmetry_cell_setting           triclinic
_symmetry_space_group_name_H-M   'P -1'
_symmetry_Int_Tables_number      2
_space_group_name_Hall           '-P 1'
loop_
_symmetry_equiv_pos_site_id
_symmetry_equiv_pos_as_xyz
1 x,y,z
2 -x,-y,-z
_cell_length_a                   9.1468(9)
_cell_length_b                   10.7820(11)
_cell_length_c                   11.5510(12)
_cell_angle_alpha                76.963(2)
_cell_angle_beta                 88.630(2)
_cell_angle_gamma                89.380(2)
_cell_volume                     1109.47
_exptl_crystal_colour            colorless
_cell_formula_units_Z            2
loop_
_atom_site_label
_atom_site_type_symbol
_atom_site_fract_x
_atom_site_fract_y
_atom_site_fract_z
N1 N 0.27462(17) 0.65525(16) 0.74484(14)
N2 N 0.33790(18) 0.56496(16) 0.83458(14)
H1 H 0.4232 0.5767 0.8598
N3 N 0.13129(18) 0.45186(16) 0.83390(15)
H2 H 0.1093 0.5143 0.7761
S1 S 0.12719(8) 0.95155(6) 0.69412(7)
S2 S 0.33249(6) 0.34773(5) 0.99235(5)
C1 C 0.4683(2) 0.8125(2) 0.75542(19)
H3 H 0.4871 0.7622 0.8346
H4 H 0.4540 0.9002 0.7610
C2 C 0.6010(3) 0.8042(3) 0.6744(2)
H5 H 0.5822 0.8567 0.5962
H6 H 0.6847 0.8398 0.7053
C3 C 0.6404(3) 0.6713(3) 0.6615(2)
H7 H 0.5529 0.6310 0.6418
H8 H 0.6730 0.6222 0.7376
C4 C 0.7593(3) 0.6651(4) 0.5672(3)
H9 H 0.8458 0.7074 0.5857
H10 H 0.7848 0.5765 0.5722
C5 C 0.7182(4) 0.7238(4) 0.4426(3)
H11 H 0.8047 0.7277 0.3917
H12 H 0.6857 0.8105 0.4389
C6 C 0.5994(3) 0.6545(3) 0.3937(3)
H13 H 0.6454 0.5956 0.3516
H14 H 0.5431 0.6046 0.4600
C7 C 0.4957(5) 0.7389(4) 0.3111(3)
H15 H 0.4401 0.6867 0.2699
H16 H 0.5524 0.7984 0.2518
C8 C 0.3884(4) 0.8145(3) 0.3736(2)
H17 H 0.4436 0.8594 0.4218
H18 H 0.3394 0.8777 0.3136
C9 C 0.2735(3) 0.7338(3) 0.4520(2)
H19 H 0.3229 0.6654 0.5065
H20 H 0.2130 0.6953 0.4021
C10 C 0.1735(3) 0.8034(3) 0.5249(2)
H21 H 0.1240 0.8721 0.4708
H22 H 0.0992 0.7445 0.5651
C11 C 0.2500(2) 0.8583(2) 0.61689(19)
H23 H 0.3227 0.9182 0.5732
C12 C 0.3322(2) 0.76573(18) 0.71080(16)
C13 C 0.0080(3) 0.8310(3) 0.7808(3)
H24 H 0.0637 0.7743 0.8399
H25 H -0.0355 0.7837 0.7294
H26 H -0.0675 0.8709 0.8189
C14 C 0.2617(2) 0.45760(18) 0.88154(17)
C15 C 0.0241(2) 0.35477(19) 0.86727(17)
C16 C -0.1162(2) 0.3898(2) 0.89466(19)
H27 H -0.1376 0.4745 0.8935
C17 C -0.2246(2) 0.2991(2) 0.9237(2)
H28 H -0.3187 0.3237 0.9415
C18 C -0.1954(3) 0.1727(2) 0.92673(19)
C19 C -0.0546(3) 0.1407(2) 0.8964(2)
H29 H -0.0333 0.0562 0.8960
C20 C 0.0548(3) 0.2299(2) 0.8667(2)
H30 H 0.1482 0.2058 0.8465
C21 C -0.3119(3) 0.0724(3) 0.9633(3)
H31 H -0.4067 0.1112 0.9494
H32 H -0.3034 0.0333 1.0462
H33 H -0.2996 0.0088 0.9175
loop_
_geom_bond_atom_site_label_1
_geom_bond_atom_site_label_2
_geom_bond_site_symmetry_1
_geom_bond_site_symmetry_2
N1 N2 1_555 1_555
N2 H1 1_555 1_555
N3 H2 1_555 1_555
S1 C11 1_555 1_555
S2 C14 1_555 1_555
C1 H3 1_555 1_555
H4 C1 1_555 1_555
C2 C1 1_555 1_555
H5 C2 1_555 1_555
H6 C2 1_555 1_555
C3 C2 1_555 1_555
H7 C3 1_555 1_555
H8 C3 1_555 1_555
C4 C3 1_555 1_555
H9 C4 1_555 1_555
H10 C4 1_555 1_555
C5 C4 1_555 1_555
H11 C5 1_555 1_555
H12 C5 1_555 1_555
C6 C5 1_555 1_555
H13 C6 1_555 1_555
H14 C6 1_555 1_555
C7 C6 1_555 1_555
H15 C7 1_555 1_555
H16 C7 1_555 1_555
C8 C7 1_555 1_555
H17 C8 1_555 1_555
H18 C8 1_555 1_555
C9 C8 1_555 1_555
H19 C9 1_555 1_555
H20 C9 1_555 1_555
C10 C9 1_555 1_555
H21 C10 1_555 1_555
H22 C10 1_555 1_555
C11 C10 1_555 1_555
H23 C11 1_555 1_555
C12 N1 1_555 1_555
C13 S1 1_555 1_555
H24 C13 1_555 1_555
H25 C13 1_555 1_555
H26 C13 1_555 1_555
C14 N2 1_555 1_555
C15 N3 1_555 1_555
C16 C15 1_555 1_555
H27 C16 1_555 1_555
C17 C16 1_555 1_555
H28 C17 1_555 1_555
C18 C17 1_555 1_555
C19 C18 1_555 1_555
H29 C19 1_555 1_555
C20 C15 1_555 1_555
H30 C20 1_555 1_555
C21 C18 1_555 1_555
H31 C21 1_555 1_555
H32 C21 1_555 1_555
H33 C21 1_555 1_555
N3 C14 1_555 1_555
C1 C12 1_555 1_555
C11 C12 1_555 1_555
C19 C20 1_555 1_555

#END
