
#######################################################################
#
#                 Cambridge Crystallographic Data Centre
#                                CCDC 
#
#######################################################################
#
# If this CIF has been generated from an entry in the Cambridge 
# Structural Database, then it will include bibliographic, chemical, 
# crystal, experimental, refinement or atomic coordinate data resulting 
# from the CCDC's data processing and validation procedures.
#
#######################################################################

data_JOHSAB
_chemical_formula_moiety         'C22 H35 N3 S1'
_chemical_name_systematic        
2-(2-Ethylcyclododecylidene)-N-(4-methylphenyl)hydrazinecarbothioamide
_symmetry_cell_setting           monoclinic
_symmetry_space_group_name_H-M   'P 21/c'
_symmetry_Int_Tables_number      14
_space_group_name_Hall           '-P 2ybc'
loop_
_symmetry_equiv_pos_site_id
_symmetry_equiv_pos_as_xyz
1 x,y,z
2 -x,1/2+y,1/2-z
3 -x,-y,-z
4 x,1/2-y,1/2+z
_cell_length_a                   12.2583(7)
_cell_length_b                   16.6113(13)
_cell_length_c                   10.9890(11)
_cell_angle_alpha                90
_cell_angle_beta                 108.072(3)
_cell_angle_gamma                90
_cell_volume                     2127.26
_cell_formula_units_Z            4
loop_
_atom_site_label
_atom_site_type_symbol
_atom_site_fract_x
_atom_site_fract_y
_atom_site_fract_z
S1 S 0.44700(4) 0.07939(3) 0.84412(5)
N1 N 0.62977(12) 0.17129(9) 1.17048(15)
N2 N 0.58509(12) 0.11666(9) 1.07244(14)
H1 H 0.6040 0.0666 1.0814
N3 N 0.49766(13) 0.22525(9) 0.95843(15)
H2 H 0.5337 0.2483 1.0296
C1 C 0.70833(14) 0.14981(10) 1.27240(17)
C2 C 0.76608(14) 0.06806(10) 1.29983(18)
H3 H 0.7312 0.0334 1.2258
C3 C 0.89467(14) 0.07582(11) 1.31418(18)
H4 H 0.9290 0.1146 1.3810
H5 H 0.9315 0.0243 1.3411
C4 C 0.91823(16) 0.10192(12) 1.19189(19)
H6 H 0.8705 0.1481 1.1564
H7 H 0.8966 0.0586 1.1298
C5 C 1.04400(16) 0.12393(13) 1.2126(2)
H8 H 1.0924 0.0820 1.2630
H9 H 1.0574 0.1256 1.1301
C6 C 1.07946(17) 0.20459(14) 1.2799(2)
H10 H 1.1625 0.2085 1.3078
H11 H 1.0546 0.2065 1.3554
C7 C 1.0293(2) 0.27681(14) 1.1948(2)
H12 H 0.9557 0.2613 1.1357
H13 H 1.0795 0.2897 1.1446
C8 C 1.0126(2) 0.35281(15) 1.2653(3)
H14 H 0.9872 0.3959 1.2034
H15 H 1.0861 0.3685 1.3246
C9 C 0.92628(19) 0.34419(14) 1.3397(2)
H16 H 0.9284 0.3928 1.3892
H17 H 0.9503 0.2999 1.3996
C10 C 0.80226(19) 0.32930(13) 1.2563(2)
H18 H 0.7715 0.3787 1.2117
H19 H 0.8021 0.2890 1.1923
C11 C 0.72429(17) 0.30112(12) 1.3321(2)
H20 H 0.6451 0.3078 1.2795
H21 H 0.7368 0.3353 1.4068
C12 C 0.74321(16) 0.21343(12) 1.37590(18)
H22 H 0.7746 0.1999 1.4618
C13 C 0.51027(14) 0.14475(10) 0.96139(18)
C14 C 0.43711(14) 0.27956(11) 0.86203(18)
C15 C 0.43838(18) 0.35982(12) 0.8991(2)
H23 H 0.4748 0.3739 0.9839
C16 C 0.38623(18) 0.41880(12) 0.8116(2)
H24 H 0.3895 0.4721 0.8383
C17 C 0.32904(15) 0.39994(12) 0.6848(2)
C18 C 0.32788(16) 0.31976(12) 0.6496(2)
H25 H 0.2898 0.3055 0.5652
C19 C 0.38133(15) 0.25988(11) 0.73550(19)
H26 H 0.3797 0.2068 0.7082
C20 C 0.27107(18) 0.46406(13) 0.5895(2)
H27 H 0.2362 0.4398 0.5073
H28 H 0.3269 0.5030 0.5830
H29 H 0.2132 0.4902 0.6174
C21 C 0.74477(17) 0.02887(13) 1.4174(2)
H30 H 0.7801 0.0619 1.4921
H31 H 0.6628 0.0278 1.4046
C22 C 0.79166(19) -0.05638(13) 1.4435(2)
H32 H 0.7759 -0.0773 1.5178
H33 H 0.8730 -0.0557 1.4582
H34 H 0.7556 -0.0899 1.3710
H35 H 0.8360(19) 0.2041(14) 1.419(2)
loop_
_geom_bond_atom_site_label_1
_geom_bond_atom_site_label_2
_geom_bond_site_symmetry_1
_geom_bond_site_symmetry_2
S1 C13 1_555 1_555
N1 N2 1_555 1_555
N2 H1 1_555 1_555
N3 H2 1_555 1_555
C1 N1 1_555 1_555
C2 C1 1_555 1_555
H3 C2 1_555 1_555
C3 C2 1_555 1_555
H4 C3 1_555 1_555
H5 C3 1_555 1_555
C4 C3 1_555 1_555
H6 C4 1_555 1_555
H7 C4 1_555 1_555
C5 C4 1_555 1_555
H8 C5 1_555 1_555
H9 C5 1_555 1_555
C6 C5 1_555 1_555
H10 C6 1_555 1_555
H11 C6 1_555 1_555
C7 C6 1_555 1_555
H12 C7 1_555 1_555
H13 C7 1_555 1_555
C8 C7 1_555 1_555
H14 C8 1_555 1_555
H15 C8 1_555 1_555
C9 C8 1_555 1_555
H16 C9 1_555 1_555
H17 C9 1_555 1_555
C10 C9 1_555 1_555
H18 C10 1_555 1_555
H19 C10 1_555 1_555
C11 C10 1_555 1_555
H20 C11 1_555 1_555
H21 C11 1_555 1_555
C12 C1 1_555 1_555
H22 C12 1_555 1_555
C13 N2 1_555 1_555
C14 N3 1_555 1_555
C15 C14 1_555 1_555
H23 C15 1_555 1_555
C16 C15 1_555 1_555
H24 C16 1_555 1_555
C17 C16 1_555 1_555
C18 C17 1_555 1_555
H25 C18 1_555 1_555
C19 C14 1_555 1_555
H26 C19 1_555 1_555
C20 C17 1_555 1_555
H27 C20 1_555 1_555
H28 C20 1_555 1_555
H29 C20 1_555 1_555
C21 C2 1_555 1_555
H30 C21 1_555 1_555
H31 C21 1_555 1_555
C22 C21 1_555 1_555
H32 C22 1_555 1_555
H33 C22 1_555 1_555
H34 C22 1_555 1_555
H35 C12 1_555 1_555
N3 C13 1_555 1_555
C11 C12 1_555 1_555
C18 C19 1_555 1_555

#END
