
#######################################################################
#
#                 Cambridge Crystallographic Data Centre
#                                CCDC 
#
#######################################################################
#
# If this CIF has been generated from an entry in the Cambridge 
# Structural Database, then it will include bibliographic, chemical, 
# crystal, experimental, refinement or atomic coordinate data resulting 
# from the CCDC's data processing and validation procedures.
#
#######################################################################

data_JOHVEJ
_chemical_formula_moiety         'C38 H34 N2 O4 S2'
_chemical_name_systematic        
4-methyl-N-((5-((4-methylphenyl)sulfonyl)-5,10b,11,12,14,14a-hexahydrobiscyclobuta[2,3]indeno[1,2-b:2',1'-d]pyridin-4b(13H)-yl)methylene)benzenesulfonamide
_symmetry_cell_setting           triclinic
_symmetry_space_group_name_H-M   'P -1'
_symmetry_Int_Tables_number      2
_space_group_name_Hall           '-P 1'
loop_
_symmetry_equiv_pos_site_id
_symmetry_equiv_pos_as_xyz
1 x,y,z
2 -x,-y,-z
_cell_length_a                   10.8149(12)
_cell_length_b                   10.9388(11)
_cell_length_c                   14.4895(16)
_cell_angle_alpha                101.243(2)
_cell_angle_beta                 101.008(2)
_cell_angle_gamma                99.942(2)
_cell_volume                     1610.62
_exptl_crystal_colour            colorless
_exptl_crystal_description       prismatic
_cell_formula_units_Z            2
loop_
_atom_site_label
_atom_site_type_symbol
_atom_site_fract_x
_atom_site_fract_y
_atom_site_fract_z
S1 S 0.48305(5) 0.71837(5) 0.40119(4)
S2 S 0.25818(7) 0.66338(7) 0.02155(4)
N1 N 0.35712(17) 0.62475(16) 0.32127(13)
N2 N 0.2989(2) 0.65981(19) 0.13891(14)
O1 O 0.50963(17) 0.83967(14) 0.37894(12)
O2 O 0.58048(14) 0.64500(15) 0.40438(12)
O3 O 0.3562(2) 0.7579(2) 0.00779(15)
O4 O 0.1266(2) 0.6732(2) -0.00697(13)
C1 C 0.2146(2) 0.7843(2) 0.34209(16)
C2 C 0.2601(3) 0.9029(2) 0.3275(2)
H1 H 0.3071 0.9115 0.2807
C3 C 0.2346(3) 1.0092(3) 0.3837(2)
H2 H 0.2641 1.0899 0.3745
C4 C 0.1654(3) 0.9957(3) 0.4535(2)
H3 H 0.1517 1.0680 0.4925
C5 C 0.1162(3) 0.8759(3) 0.4660(2)
H4 H 0.0686 0.8676 0.5124
C6 C 0.1387(2) 0.7683(3) 0.40857(17)
C7 C 0.0895(2) 0.6319(3) 0.40606(17)
H5 H 0.1210 0.6036 0.4646
C8 C -0.0560(3) 0.5858(3) 0.3594(2)
H6 H -0.1054 0.6511 0.3705
H7 H -0.0956 0.5077 0.3744
C9 C -0.0213(2) 0.5652(3) 0.2599(2)
H8 H -0.0251 0.6369 0.2300
H9 H -0.0694 0.4858 0.2151
C10 C 0.1188(2) 0.5601(2) 0.31013(15)
C11 C 0.2301(2) 0.6556(2) 0.28849(15)
C12 C 0.2083(2) 0.6554(2) 0.18259(16)
H10 H 0.1253 0.6518 0.1482
C13 C 0.3636(2) 0.4987(2) 0.27858(15)
H11 H 0.4389 0.4815 0.2622
C14 C 0.2605(2) 0.4060(2) 0.26246(16)
C15 C 0.1440(2) 0.4232(2) 0.30218(16)
C16 C 0.1450(3) 0.3660(3) 0.39393(19)
H12 H 0.2181 0.3274 0.4101
H13 H 0.1370 0.4262 0.4501
C17 C 0.0200(3) 0.2690(3) 0.3424(2)
H14 H -0.0558 0.2914 0.3618
H15 H 0.0238 0.1819 0.3454
C18 C 0.0370(2) 0.3000(3) 0.24543(19)
H16 H -0.0397 0.3155 0.2051
C19 C 0.1087(3) 0.2157(2) 0.19352(18)
C20 C 0.2369(2) 0.2743(2) 0.20514(17)
C21 C 0.3202(3) 0.2100(2) 0.1643(2)
H17 H 0.4053 0.2508 0.1706
C22 C 0.2740(3) 0.0833(3) 0.1136(2)
H18 H 0.3292 0.0380 0.0871
C23 C 0.1476(4) 0.0247(3) 0.1022(2)
H19 H 0.1176 -0.0597 0.0674
C24 C 0.0644(3) 0.0891(3) 0.1416(2)
H20 H -0.0212 0.0483 0.1337
C25 C 0.4367(2) 0.73812(19) 0.51276(15)
C26 C 0.4309(3) 0.8581(2) 0.56151(17)
H21 H 0.4511 0.9286 0.5360
C27 C 0.3949(3) 0.8716(2) 0.64855(18)
H22 H 0.3913 0.9524 0.6816
C28 C 0.3639(2) 0.7685(2) 0.68788(16)
C29 C 0.3696(2) 0.6481(2) 0.63687(17)
H23 H 0.3480 0.5771 0.6617
C30 C 0.4067(2) 0.6331(2) 0.55016(16)
H24 H 0.4115 0.5528 0.5172
C31 C 0.3246(3) 0.7852(3) 0.78274(19)
H25 H 0.3989 0.8258 0.8345
H26 H 0.2881 0.7031 0.7917
H27 H 0.2617 0.8373 0.7827
C32 C 0.2731(2) 0.5100(2) -0.03405(17)
C33 C 0.1903(3) 0.4052(3) -0.0257(2)
H28 H 0.1285 0.4144 0.0103
C34 C 0.2001(4) 0.2861(3) -0.0715(2)
H29 H 0.1452 0.2141 -0.0656
C35 C 0.2908(4) 0.2716(3) -0.1266(3)
C36 C 0.3725(4) 0.3799(3) -0.1330(3)
H30 H 0.4342 0.3716 -0.1692
C37 C 0.3647(3) 0.4988(3) -0.0871(2)
H31 H 0.4205 0.5710 -0.0918
C38 C 0.3015(6) 0.1400(4) -0.1754(4)
H32 H 0.2191 0.0941 -0.2160
H33 H 0.3281 0.0949 -0.1272
H34 H 0.3640 0.1473 -0.2141
loop_
_geom_bond_atom_site_label_1
_geom_bond_atom_site_label_2
_geom_bond_site_symmetry_1
_geom_bond_site_symmetry_2
S1 N1 1_555 1_555
S2 N2 1_555 1_555
N1 C11 1_555 1_555
N2 C12 1_555 1_555
O1 S1 1_555 1_555
O2 S1 1_555 1_555
O3 S2 1_555 1_555
O4 S2 1_555 1_555
C1 C2 1_555 1_555
C2 H1 1_555 1_555
C3 C2 1_555 1_555
H2 C3 1_555 1_555
C4 C3 1_555 1_555
H3 C4 1_555 1_555
C5 C4 1_555 1_555
H4 C5 1_555 1_555
C6 C1 1_555 1_555
C7 C6 1_555 1_555
H5 C7 1_555 1_555
C8 C7 1_555 1_555
H6 C8 1_555 1_555
H7 C8 1_555 1_555
C9 C8 1_555 1_555
H8 C9 1_555 1_555
H9 C9 1_555 1_555
C10 C7 1_555 1_555
C11 C1 1_555 1_555
C12 C11 1_555 1_555
H10 C12 1_555 1_555
C13 N1 1_555 1_555
H11 C13 1_555 1_555
C14 C13 1_555 1_555
C15 C10 1_555 1_555
C16 C15 1_555 1_555
H12 C16 1_555 1_555
H13 C16 1_555 1_555
C17 C16 1_555 1_555
H14 C17 1_555 1_555
H15 C17 1_555 1_555
C18 C15 1_555 1_555
H16 C18 1_555 1_555
C19 C18 1_555 1_555
C20 C14 1_555 1_555
C21 C20 1_555 1_555
H17 C21 1_555 1_555
C22 C21 1_555 1_555
H18 C22 1_555 1_555
C23 C22 1_555 1_555
H19 C23 1_555 1_555
C24 C19 1_555 1_555
H20 C24 1_555 1_555
C25 S1 1_555 1_555
C26 C25 1_555 1_555
H21 C26 1_555 1_555
C27 C26 1_555 1_555
H22 C27 1_555 1_555
C28 C27 1_555 1_555
C29 C28 1_555 1_555
H23 C29 1_555 1_555
C30 C25 1_555 1_555
H24 C30 1_555 1_555
C31 C28 1_555 1_555
H25 C31 1_555 1_555
H26 C31 1_555 1_555
H27 C31 1_555 1_555
C32 S2 1_555 1_555
C33 C32 1_555 1_555
H28 C33 1_555 1_555
C34 C33 1_555 1_555
H29 C34 1_555 1_555
C35 C34 1_555 1_555
C36 C35 1_555 1_555
H30 C36 1_555 1_555
C37 C32 1_555 1_555
H31 C37 1_555 1_555
C38 C35 1_555 1_555
H32 C38 1_555 1_555
H33 C38 1_555 1_555
H34 C38 1_555 1_555
C5 C6 1_555 1_555
C9 C10 1_555 1_555
C10 C11 1_555 1_555
C14 C15 1_555 1_555
C17 C18 1_555 1_555
C19 C20 1_555 1_555
C23 C24 1_555 1_555
C29 C30 1_555 1_555
C36 C37 1_555 1_555

#END
