
#######################################################################
#
#                 Cambridge Crystallographic Data Centre
#                                CCDC 
#
#######################################################################
#
# If this CIF has been generated from an entry in the Cambridge 
# Structural Database, then it will include bibliographic, chemical, 
# crystal, experimental, refinement or atomic coordinate data resulting 
# from the CCDC's data processing and validation procedures.
#
#######################################################################

data_JOHVAF
_chemical_formula_moiety         'C13 H16 Br1 N1 O2'
_chemical_name_systematic        
'1-(4-bromophenyl)prop-2-en-1-yl isopropylcarbamate'
_symmetry_cell_setting           orthorhombic
_symmetry_space_group_name_H-M   'P 21 21 21'
_symmetry_Int_Tables_number      19
_space_group_name_Hall           'P 2ac 2ab'
loop_
_symmetry_equiv_pos_site_id
_symmetry_equiv_pos_as_xyz
1 x,y,z
2 1/2-x,-y,1/2+z
3 -x,1/2+y,1/2-z
4 1/2+x,1/2-y,-z
_cell_length_a                   9.4087(18)
_cell_length_b                   14.958(3)
_cell_length_c                   28.849(5)
_cell_angle_alpha                90
_cell_angle_beta                 90
_cell_angle_gamma                90
_cell_volume                     4060.07
_exptl_crystal_colour            colorless
_exptl_crystal_description       rod
_cell_formula_units_Z            12
loop_
_atom_site_label
_atom_site_type_symbol
_atom_site_fract_x
_atom_site_fract_y
_atom_site_fract_z
Br1 Br 0.68963(5) 0.23100(3) 0.145080(16)
N1 N 0.6254(3) 0.17294(18) 0.44335(10)
H1 H 0.6523 0.1178 0.4374
O1 O 0.6572(3) 0.31913(14) 0.42509(9)
O2 O 0.7486(3) 0.20923(15) 0.38045(9)
C1 C 0.7378(4) 0.2434(3) 0.20876(14)
C2 C 0.7693(5) 0.3268(3) 0.22630(15)
H2 H 0.7731 0.3775 0.2065
C3 C 0.7952(5) 0.3355(2) 0.27294(14)
H3 H 0.8167 0.3928 0.2853
C4 C 0.7904(4) 0.2617(2) 0.30259(13)
C5 C 0.7609(5) 0.1788(2) 0.28349(14)
H4 H 0.7591 0.1276 0.3030
C6 C 0.7340(5) 0.1691(3) 0.23706(14)
H5 H 0.7131 0.1119 0.2245
C7 C 0.8244(4) 0.2751(2) 0.35299(13)
H6 H 0.7927 0.3362 0.3625
C8 C 0.6745(4) 0.2399(2) 0.41695(12)
C9 C 0.5284(4) 0.1900(2) 0.48163(12)
H7 H 0.5581 0.2471 0.4968
C10 C 0.3770(5) 0.2013(3) 0.46491(15)
H8 H 0.3725 0.2507 0.4426
H9 H 0.3151 0.2146 0.4914
H10 H 0.3453 0.1460 0.4499
C11 C 0.5401(6) 0.1160(3) 0.51716(15)
H11 H 0.5214 0.0583 0.5022
H12 H 0.4703 0.1259 0.5419
H13 H 0.6360 0.1158 0.5304
C12 C 0.9810(4) 0.2660(3) 0.36241(13)
H14 H 1.0427 0.3028 0.3447
C13 C 1.0397(5) 0.2136(3) 0.39201(15)
H15 H 0.9826 0.1754 0.4106
H16 H 1.1402 0.2130 0.3953
Br2 Br 0.43216(5) 0.04951(3) 0.350303(17)
N2 N 0.3984(3) 0.00809(18) 0.06098(10)
H17 H 0.3717 -0.0475 0.0660
O3 O 0.3682(3) 0.15289(16) 0.08169(9)
O4 O 0.2638(3) 0.04022(15) 0.12177(9)
C14 C 0.3562(4) 0.0668(2) 0.28978(14)
C15 C 0.2282(5) 0.1087(3) 0.28362(16)
H18 H 0.1761 0.1302 0.3095
C16 C 0.1760(5) 0.1191(3) 0.23925(14)
H19 H 0.0866 0.1474 0.2349
C17 C 0.2509(4) 0.0892(2) 0.20071(13)
C18 C 0.3796(4) 0.0485(3) 0.20859(14)
H20 H 0.4333 0.0280 0.1828
C19 C 0.4335(5) 0.0365(3) 0.25264(14)
H21 H 0.5225 0.0078 0.2572
C20 C 0.1960(4) 0.1042(2) 0.15243(14)
H22 H 0.2240 0.1658 0.1424
C21 C 0.3454(4) 0.0734(2) 0.08750(12)
C22 C 0.4992(4) 0.0269(2) 0.02405(13)
H23 H 0.4645 0.0802 0.0064
C23 C 0.5051(5) -0.0520(3) -0.00877(14)
H24 H 0.5321 -0.1059 0.0085
H25 H 0.5755 -0.0404 -0.0331
H26 H 0.4115 -0.0609 -0.0229
C24 C 0.6443(4) 0.0481(3) 0.04310(16)
H27 H 0.6369 0.0974 0.0653
H28 H 0.7076 0.0655 0.0177
H29 H 0.6828 -0.0048 0.0587
C25 C 0.0380(4) 0.0954(3) 0.14750(16)
H30 H -0.0195 0.1354 0.1649
C26 C -0.0275(5) 0.0369(3) 0.12113(16)
H31 H 0.0260 -0.0044 0.1032
H32 H -0.1284 0.0358 0.1200
Br3 Br 0.61755(6) 0.84361(4) 0.155347(18)
N3 N 0.5935(4) 0.83388(19) 0.45043(11)
H33 H 0.593(4) 0.7787(13) 0.4447(11)
O5 O 0.6557(3) 0.97542(14) 0.43048(9)
O6 O 0.7262(3) 0.85482(16) 0.38852(9)
C27 C 0.6815(5) 0.8590(3) 0.21685(15)
C28 C 0.7955(5) 0.9164(3) 0.22640(15)
H34 H 0.8445 0.9455 0.2019
C29 C 0.8355(4) 0.9302(2) 0.27150(14)
H35 H 0.9135 0.9686 0.2778
C30 C 0.7644(4) 0.8891(2) 0.30860(14)
C31 C 0.6541(4) 0.8313(3) 0.29770(15)
H36 H 0.6058 0.8016 0.3221
C32 C 0.6120(5) 0.8154(3) 0.25255(15)
H37 H 0.5363 0.7752 0.2461
C33 C 0.8091(4) 0.9100(2) 0.35745(13)
H38 H 0.7886 0.9743 0.3641
C34 C 0.6581(4) 0.8948(2) 0.42371(13)
C35 C 0.4987(4) 0.8579(2) 0.48820(13)
H39 H 0.5429 0.9088 0.5054
C36 C 0.4854(6) 0.7801(3) 0.52134(15)
H40 H 0.4613 0.7259 0.5040
H41 H 0.4105 0.7927 0.5440
H42 H 0.5759 0.7713 0.5375
C37 C 0.3557(5) 0.8891(3) 0.47025(16)
H43 H 0.3697 0.9376 0.4479
H44 H 0.2979 0.9107 0.4962
H45 H 0.3070 0.8391 0.4551
C38 C 0.9620(5) 0.8917(3) 0.36710(15)
H46 H 0.9929 0.8312 0.3666
C39 C 1.0563(6) 0.9533(4) 0.37619(16)
H47 H 1.0289 1.0145 0.3770
H48 H 1.1522 0.9371 0.3820
loop_
_geom_bond_atom_site_label_1
_geom_bond_atom_site_label_2
_geom_bond_site_symmetry_1
_geom_bond_site_symmetry_2
Br1 C1 1_555 1_555
N1 H1 1_555 1_555
O1 C8 1_555 1_555
O2 C7 1_555 1_555
C1 C2 1_555 1_555
C2 H2 1_555 1_555
C3 C2 1_555 1_555
H3 C3 1_555 1_555
C4 C3 1_555 1_555
C5 C4 1_555 1_555
H4 C5 1_555 1_555
C6 C1 1_555 1_555
H5 C6 1_555 1_555
C7 C4 1_555 1_555
H6 C7 1_555 1_555
C8 N1 1_555 1_555
C9 N1 1_555 1_555
H7 C9 1_555 1_555
C10 C9 1_555 1_555
H8 C10 1_555 1_555
H9 C10 1_555 1_555
H10 C10 1_555 1_555
C11 C9 1_555 1_555
H11 C11 1_555 1_555
H12 C11 1_555 1_555
H13 C11 1_555 1_555
C12 C7 1_555 1_555
H14 C12 1_555 1_555
C13 C12 1_555 1_555
H15 C13 1_555 1_555
H16 C13 1_555 1_555
Br2 C14 1_555 1_555
N2 H17 1_555 1_555
O3 C21 1_555 1_555
O4 C20 1_555 1_555
C14 C15 1_555 1_555
C15 H18 1_555 1_555
C16 C15 1_555 1_555
H19 C16 1_555 1_555
C17 C16 1_555 1_555
C18 C17 1_555 1_555
H20 C18 1_555 1_555
C19 C14 1_555 1_555
H21 C19 1_555 1_555
C20 C17 1_555 1_555
H22 C20 1_555 1_555
C21 N2 1_555 1_555
C22 N2 1_555 1_555
H23 C22 1_555 1_555
C23 C22 1_555 1_555
H24 C23 1_555 1_555
H25 C23 1_555 1_555
H26 C23 1_555 1_555
C24 C22 1_555 1_555
H27 C24 1_555 1_555
H28 C24 1_555 1_555
H29 C24 1_555 1_555
C25 C20 1_555 1_555
H30 C25 1_555 1_555
C26 C25 1_555 1_555
H31 C26 1_555 1_555
H32 C26 1_555 1_555
Br3 C27 1_555 1_555
N3 H33 1_555 1_555
O5 C34 1_555 1_555
O6 C33 1_555 1_555
C27 C28 1_555 1_555
C28 H34 1_555 1_555
C29 C28 1_555 1_555
H35 C29 1_555 1_555
C30 C29 1_555 1_555
C31 C30 1_555 1_555
H36 C31 1_555 1_555
C32 C27 1_555 1_555
H37 C32 1_555 1_555
C33 C30 1_555 1_555
H38 C33 1_555 1_555
C34 N3 1_555 1_555
C35 N3 1_555 1_555
H39 C35 1_555 1_555
C36 C35 1_555 1_555
H40 C36 1_555 1_555
H41 C36 1_555 1_555
H42 C36 1_555 1_555
C37 C35 1_555 1_555
H43 C37 1_555 1_555
H44 C37 1_555 1_555
H45 C37 1_555 1_555
C38 C33 1_555 1_555
H46 C38 1_555 1_555
C39 C38 1_555 1_555
H47 C39 1_555 1_555
H48 C39 1_555 1_555
O2 C8 1_555 1_555
C5 C6 1_555 1_555
O4 C21 1_555 1_555
C18 C19 1_555 1_555
O6 C34 1_555 1_555
C31 C32 1_555 1_555

#END
