
#######################################################################
#
#                 Cambridge Crystallographic Data Centre
#                                CCDC 
#
#######################################################################
#
# If this CIF has been generated from an entry in the Cambridge 
# Structural Database, then it will include bibliographic, chemical, 
# crystal, experimental, refinement or atomic coordinate data resulting 
# from the CCDC's data processing and validation procedures.
#
#######################################################################

data_JOHWOU
_chemical_formula_moiety         'C17 H14 N2 O2'
_chemical_name_systematic        
1,1'-dimethyl-3,3'-spirobi[indole]-2,2'(1H,1'H)-dione
_symmetry_cell_setting           orthorhombic
_symmetry_space_group_name_H-M   'P 21 21 21'
_symmetry_Int_Tables_number      19
_space_group_name_Hall           'P 2ac 2ab'
loop_
_symmetry_equiv_pos_site_id
_symmetry_equiv_pos_as_xyz
1 x,y,z
2 1/2-x,-y,1/2+z
3 1/2+x,1/2-y,-z
4 -x,1/2+y,1/2-z
_cell_length_a                   8.8567(2)
_cell_length_b                   10.2039(2)
_cell_length_c                   16.1113(4)
_cell_angle_alpha                90
_cell_angle_beta                 90
_cell_angle_gamma                90
_cell_volume                     1456.02
_exptl_crystal_colour            colorless
_exptl_crystal_description       block
_cell_formula_units_Z            4
loop_
_atom_site_label
_atom_site_type_symbol
_atom_site_fract_x
_atom_site_fract_y
_atom_site_fract_z
O1 O 0.39077(17) -0.04036(14) 0.46888(9)
O2 O 0.54325(19) -0.09710(15) 0.66673(11)
N1 N 0.20040(17) -0.13566(14) 0.54312(9)
C1 C 0.20849(19) -0.02200(16) 0.66550(11)
C2 C 0.13488(19) -0.12127(16) 0.62246(10)
N2 N 0.55942(19) 0.12698(19) 0.65469(13)
C3 C 0.1645(2) 0.00931(17) 0.74473(10)
H1 H 0.2146 0.0743 0.7743
C4 C 0.33237(19) 0.03228(16) 0.61120(10)
C5 C 0.3319(2) 0.17780(16) 0.59672(11)
C6 C 0.1521(3) -0.2294(2) 0.48119(12)
H2 H 0.1935 -0.2057 0.4282
H3 H 0.0439 -0.2296 0.4780
H4 H 0.1870 -0.3153 0.4963
C7 C 0.4686(2) 0.22842(19) 0.62434(13)
C8 C 0.4910(2) 0.0081(2) 0.64781(12)
C9 C 0.0437(2) -0.0577(2) 0.78015(12)
H5 H 0.0120 -0.0368 0.8336
C10 C 0.2237(2) 0.2587(2) 0.56407(13)
H6 H 0.1319 0.2251 0.5459
C11 C 0.31447(19) -0.04975(16) 0.53129(11)
C12 C 0.0165(2) -0.18997(19) 0.65633(12)
H7 H -0.0313 -0.2570 0.6273
C13 C 0.2542(3) 0.3927(2) 0.55856(16)
H8 H 0.1825 0.4489 0.5359
C14 C -0.0287(2) -0.1546(2) 0.73624(13)
H9 H -0.1101 -0.1978 0.7604
C15 C 0.3877(4) 0.4412(2) 0.58606(19)
H10 H 0.4051 0.5309 0.5824
C16 C 0.7107(3) 0.1451(4) 0.6889(2)
H11 H 0.7766 0.1784 0.6466
H12 H 0.7485 0.0626 0.7086
H13 H 0.7065 0.2063 0.7342
C17 C 0.4988(3) 0.3617(3) 0.61939(18)
H14 H 0.5901 0.3962 0.6377
loop_
_geom_bond_atom_site_label_1
_geom_bond_atom_site_label_2
_geom_bond_site_symmetry_1
_geom_bond_site_symmetry_2
O1 C11 1_555 1_555
O2 C8 1_555 1_555
N1 C2 1_555 1_555
C1 C2 1_555 1_555
C2 C12 1_555 1_555
N2 C7 1_555 1_555
C3 C1 1_555 1_555
H1 C3 1_555 1_555
C4 C1 1_555 1_555
C5 C4 1_555 1_555
C6 N1 1_555 1_555
H2 C6 1_555 1_555
H3 C6 1_555 1_555
H4 C6 1_555 1_555
C7 C5 1_555 1_555
C8 N2 1_555 1_555
C9 C3 1_555 1_555
H5 C9 1_555 1_555
C10 C5 1_555 1_555
H6 C10 1_555 1_555
C11 N1 1_555 1_555
C12 H7 1_555 1_555
C13 C10 1_555 1_555
H8 C13 1_555 1_555
C14 C9 1_555 1_555
H9 C14 1_555 1_555
C15 C13 1_555 1_555
H10 C15 1_555 1_555
C16 N2 1_555 1_555
H11 C16 1_555 1_555
H12 C16 1_555 1_555
H13 C16 1_555 1_555
C17 C7 1_555 1_555
H14 C17 1_555 1_555
C4 C8 1_555 1_555
C4 C11 1_555 1_555
C12 C14 1_555 1_555
C15 C17 1_555 1_555

#END
