
#######################################################################
#
#                 Cambridge Crystallographic Data Centre
#                                CCDC 
#
#######################################################################
#
# If this CIF has been generated from an entry in the Cambridge 
# Structural Database, then it will include bibliographic, chemical, 
# crystal, experimental, refinement or atomic coordinate data resulting 
# from the CCDC's data processing and validation procedures.
#
#######################################################################

data_JOHWUA
_chemical_formula_moiety         'C38 H36 N2 O4 S2'
_chemical_name_systematic        
24,26-bis((4-methylphenyl)sulfonyl)-24,26-diazaoctacyclo[21.2.1.0^1,11^.0^2,7^.0^8,11^.0^12,15^.0^12,22^.0^16,21^]hexacosa-2,4,6,16,18,20-hexaene
_symmetry_cell_setting           orthorhombic
_symmetry_space_group_name_H-M   'P c a 21'
_symmetry_Int_Tables_number      29
_space_group_name_Hall           'P 2c -2ac'
loop_
_symmetry_equiv_pos_site_id
_symmetry_equiv_pos_as_xyz
1 x,y,z
2 -x,-y,1/2+z
3 1/2-x,y,1/2+z
4 1/2+x,-y,z
_cell_length_a                   19.049(3)
_cell_length_b                   9.7104(17)
_cell_length_c                   34.356(7)
_cell_angle_alpha                90
_cell_angle_beta                 90
_cell_angle_gamma                90
_cell_volume                     6354.95
_exptl_crystal_colour            colorless
_cell_formula_units_Z            8
loop_
_atom_site_label
_atom_site_type_symbol
_atom_site_fract_x
_atom_site_fract_y
_atom_site_fract_z
S1 S 0.15501(8) 0.22427(18) 0.24374(5)
S2 S 0.32323(8) 0.33059(18) 0.14854(5)
O1 O 0.1061(2) 0.2965(5) 0.26772(14)
O2 O 0.1957(2) 0.1136(5) 0.25959(15)
O3 O 0.2663(2) 0.3597(5) 0.12258(14)
O4 O 0.3428(2) 0.1885(4) 0.15414(14)
N1 N 0.2116(2) 0.3339(6) 0.22807(18)
N2 N 0.3104(3) 0.3936(5) 0.19217(16)
C1 C 0.2878(3) 0.2991(7) 0.2234(2)
H1 H 0.2944 0.2025 0.2160
C2 C 0.3287(3) 0.3352(7) 0.2605(2)
H2 H 0.3019 0.3102 0.2838
C3 C 0.3978(3) 0.2596(7) 0.2592(2)
C4 C 0.4098(4) 0.1203(8) 0.2645(3)
H3 H 0.3726 0.0623 0.2708
C5 C 0.4763(4) 0.0673(9) 0.2605(3)
H4 H 0.4843 -0.0263 0.2640
C6 C 0.5315(4) 0.1555(8) 0.2510(2)
H5 H 0.5766 0.1201 0.2482
C7 C 0.5202(4) 0.2937(8) 0.2459(2)
H6 H 0.5573 0.3520 0.2397
C8 C 0.4525(3) 0.3457(7) 0.2502(2)
C9 C 0.4289(4) 0.4940(6) 0.2467(4)
H7 H 0.4376 0.5396 0.2217
C10 C 0.4480(4) 0.5763(8) 0.2839(2)
H8 H 0.4551 0.6739 0.2794
H9 H 0.4869 0.5374 0.2985
C11 C 0.3749(4) 0.5409(9) 0.3012(2)
H10 H 0.3765 0.4699 0.3210
H11 H 0.3494 0.6209 0.3105
C12 C 0.3490(4) 0.4881(7) 0.2613(3)
C13 C 0.2998(3) 0.5848(7) 0.2391(2)
C14 C 0.3304(3) 0.7277(7) 0.2279(2)
H12 H 0.3815 0.7346 0.2305
C15 C 0.2885(4) 0.7976(7) 0.2616(2)
H13 H 0.3168 0.8193 0.2842
H14 H 0.2610 0.8765 0.2534
C16 C 0.2450(4) 0.6624(7) 0.2657(2)
H15 H 0.1984 0.6682 0.2544
H16 H 0.2430 0.6275 0.2921
C17 C 0.3041(3) 0.7549(7) 0.1884(2)
C18 C 0.3092(4) 0.8761(8) 0.1671(2)
H17 H 0.3338 0.9507 0.1772
C19 C 0.2780(4) 0.8864(8) 0.1309(2)
H18 H 0.2822 0.9671 0.1165
C20 C 0.2396(4) 0.7742(7) 0.1158(2)
H19 H 0.2177 0.7818 0.0916
C21 C 0.2343(4) 0.6536(8) 0.1366(2)
H20 H 0.2080 0.5806 0.1270
C22 C 0.2688(3) 0.6410(7) 0.1724(2)
C23 C 0.2679(4) 0.5228(8) 0.2008(3)
C24 C 0.1943(3) 0.4578(7) 0.2059(2)
H21 H 0.1631 0.5180 0.2204
H22 H 0.1731 0.4354 0.1810
C25 C 0.1078(3) 0.1626(7) 0.2032(2)
C26 C 0.0421(3) 0.2182(7) 0.1947(2)
H23 H 0.0245 0.2910 0.2093
C27 C 0.0041(4) 0.1652(9) 0.1650(2)
H24 H -0.0402 0.2013 0.1598
C28 C 0.0297(4) 0.0569(9) 0.1416(2)
C29 C 0.0950(5) 0.0061(7) 0.1495(4)
H25 H 0.1136 -0.0639 0.1342
C30 C 0.1346(4) 0.0597(9) 0.1812(2)
H26 H 0.1788 0.0241 0.1867
C31 C -0.0136(6) 0.0048(9) 0.1083(4)
H27 H 0.0149 0.0006 0.0853
H28 H -0.0524 0.0658 0.1040
H29 H -0.0309 -0.0856 0.1143
C32 C 0.3981(3) 0.4190(7) 0.1321(2)
C33 C 0.3920(4) 0.5243(8) 0.1064(3)
H30 H 0.3480 0.5547 0.0984
C34 C 0.4529(4) 0.5867(7) 0.0919(2)
H31 H 0.4493 0.6570 0.0737
C35 C 0.5186(4) 0.5448(9) 0.1046(2)
C36 C 0.5221(4) 0.4385(9) 0.1306(3)
H32 H 0.5661 0.4090 0.1390
C37 C 0.4635(3) 0.3733(7) 0.1450(2)
H33 H 0.4673 0.3012 0.1627
C38 C 0.5837(4) 0.6149(9) 0.0891(3)
H34 H 0.5719 0.6672 0.0663
H35 H 0.6182 0.5466 0.0824
H36 H 0.6025 0.6753 0.1086
S3 S -0.10133(8) 0.71508(19) 0.39230(5)
S4 S 0.06539(8) 0.82609(17) 0.48760(5)
O5 O -0.1499(2) 0.7826(5) 0.36724(15)
O6 O -0.0606(2) 0.6014(5) 0.37796(14)
O7 O 0.0083(2) 0.8582(5) 0.51309(14)
O8 O 0.0844(2) 0.6850(4) 0.48271(16)
N3 N -0.0442(3) 0.8268(5) 0.40682(17)
N4 N 0.0537(3) 0.8872(5) 0.44322(16)
C39 C -0.0618(4) 0.9520(8) 0.4280(2)
H37 H -0.0841 0.9317 0.4527
H38 H -0.0921 1.0118 0.4129
C40 C 0.0106(4) 1.0145(7) 0.4336(3)
C41 C 0.0124(3) 1.1382(7) 0.4614(2)
C42 C -0.0217(4) 1.1510(7) 0.4969(2)
H39 H -0.0481 1.0785 0.5068
C43 C -0.0159(4) 1.2729(7) 0.5173(2)
H40 H -0.0385 1.2827 0.5411
C44 C 0.0235(4) 1.3812(7) 0.5023(2)
H41 H 0.0284 1.4624 0.5164
C45 C 0.0549(3) 1.3673(8) 0.4668(2)
H42 H 0.0801 1.4407 0.4564
C46 C 0.0497(3) 1.2453(6) 0.4459(2)
C47 C 0.0772(4) 1.2172(7) 0.4057(2)
H43 H 0.1285 1.2217 0.4033
C48 C 0.0371(4) 1.2835(7) 0.3722(2)
H44 H 0.0661 1.3030 0.3497
H45 H 0.0103 1.3640 0.3798
C49 C -0.0078(3) 1.1517(7) 0.3680(2)
H46 H -0.0092 1.1154 0.3417
H47 H -0.0547 1.1603 0.3787
C50 C 0.0446(3) 1.0743(7) 0.3954(2)
C51 C 0.0968(4) 0.9749(8) 0.3749(3)
C52 C 0.1235(4) 1.0184(7) 0.3342(3)
H48 H 0.0975 1.0946 0.3229
H49 H 0.1271 0.9426 0.3159
C53 C 0.1947(4) 1.0614(8) 0.3523(2)
H50 H 0.2352 1.0264 0.3384
H51 H 0.1989 1.1596 0.3570
C54 C 0.1757(4) 0.9784(8) 0.3884(3)
H52 H 0.1844 1.0246 0.4133
C55 C 0.1977(3) 0.8307(7) 0.38653(19)
C56 C 0.2647(3) 0.7793(8) 0.3912(2)
H53 H 0.3018 0.8376 0.3973
C57 C 0.2756(4) 0.6393(9) 0.3867(2)
H54 H 0.3204 0.6033 0.3901
C58 C 0.2208(4) 0.5526(9) 0.3771(3)
H55 H 0.2292 0.4590 0.3737
C59 C 0.1529(4) 0.6043(7) 0.3725(2)
H56 H 0.1157 0.5463 0.3662
C60 C 0.1424(3) 0.7438(7) 0.37749(19)
C61 C 0.0729(3) 0.8215(7) 0.3766(2)
H57 H 0.0461 0.7973 0.3533
C62 C 0.0303(3) 0.7914(7) 0.41306(19)
H58 H 0.0358 0.6954 0.4214
C63 C -0.1492(3) 0.6605(7) 0.4331(2)
C64 C -0.1229(4) 0.5547(8) 0.4562(2)
H59 H -0.0787 0.5175 0.4515
C65 C -0.1630(5) 0.5074(8) 0.4856(4)
H60 H -0.1460 0.4349 0.5006
C66 C -0.2291(4) 0.5618(9) 0.4948(2)
C67 C -0.2536(4) 0.6681(7) 0.4719(2)
H61 H -0.2972 0.7070 0.4772
C68 C -0.2135(3) 0.7175(7) 0.4411(2)
H62 H -0.2304 0.7893 0.4258
C69 C -0.2722(5) 0.5076(8) 0.5274(4)
H63 H -0.2502 0.4269 0.5380
H64 H -0.3181 0.4844 0.5180
H65 H -0.2761 0.5766 0.5473
C70 C 0.1412(3) 0.9135(7) 0.5041(2)
C71 C 0.2057(3) 0.8700(7) 0.4913(2)
H66 H 0.2092 0.7979 0.4736
C72 C 0.2657(4) 0.9352(8) 0.5050(2)
H67 H 0.3096 0.9060 0.4965
C73 C 0.2611(4) 1.0423(9) 0.5311(2)
C74 C 0.1953(4) 1.0863(7) 0.5424(2)
H68 H 0.1917 1.1613 0.5591
C75 C 0.1354(5) 1.0235(8) 0.5298(3)
H69 H 0.0916 1.0538 0.5382
C76 C 0.3263(4) 1.1122(8) 0.5463(2)
H70 H 0.3553 1.0459 0.5593
H71 H 0.3133 1.1837 0.5642
H72 H 0.3518 1.1516 0.5249
loop_
_geom_bond_atom_site_label_1
_geom_bond_atom_site_label_2
_geom_bond_site_symmetry_1
_geom_bond_site_symmetry_2
S1 O1 1_555 1_555
S2 O3 1_555 1_555
O2 S1 1_555 1_555
O4 S2 1_555 1_555
N1 S1 1_555 1_555
N2 S2 1_555 1_555
C1 N1 1_555 1_555
H1 C1 1_555 1_555
C2 C1 1_555 1_555
H2 C2 1_555 1_555
C3 C2 1_555 1_555
C4 C3 1_555 1_555
H3 C4 1_555 1_555
C5 C4 1_555 1_555
H4 C5 1_555 1_555
C6 C5 1_555 1_555
H5 C6 1_555 1_555
C7 C6 1_555 1_555
H6 C7 1_555 1_555
C8 C3 1_555 1_555
C9 C8 1_555 1_555
H7 C9 1_555 1_555
C10 C9 1_555 1_555
H8 C10 1_555 1_555
H9 C10 1_555 1_555
C11 C10 1_555 1_555
H10 C11 1_555 1_555
H11 C11 1_555 1_555
C12 C2 1_555 1_555
C13 C12 1_555 1_555
C14 C13 1_555 1_555
H12 C14 1_555 1_555
C15 C14 1_555 1_555
H13 C15 1_555 1_555
H14 C15 1_555 1_555
C16 C13 1_555 1_555
H15 C16 1_555 1_555
H16 C16 1_555 1_555
C17 C14 1_555 1_555
C18 C17 1_555 1_555
H17 C18 1_555 1_555
C19 C18 1_555 1_555
H18 C19 1_555 1_555
C20 C19 1_555 1_555
H19 C20 1_555 1_555
C21 C20 1_555 1_555
H20 C21 1_555 1_555
C22 C17 1_555 1_555
C23 N2 1_555 1_555
C24 N1 1_555 1_555
H21 C24 1_555 1_555
H22 C24 1_555 1_555
C25 S1 1_555 1_555
C26 C25 1_555 1_555
H23 C26 1_555 1_555
C27 C26 1_555 1_555
H24 C27 1_555 1_555
C28 C27 1_555 1_555
C29 C28 1_555 1_555
H25 C29 1_555 1_555
C30 C25 1_555 1_555
H26 C30 1_555 1_555
C31 C28 1_555 1_555
H27 C31 1_555 1_555
H28 C31 1_555 1_555
H29 C31 1_555 1_555
C32 S2 1_555 1_555
C33 C32 1_555 1_555
H30 C33 1_555 1_555
C34 C33 1_555 1_555
H31 C34 1_555 1_555
C35 C34 1_555 1_555
C36 C35 1_555 1_555
H32 C36 1_555 1_555
C37 C32 1_555 1_555
H33 C37 1_555 1_555
C38 C35 1_555 1_555
H34 C38 1_555 1_555
H35 C38 1_555 1_555
H36 C38 1_555 1_555
S3 O5 1_555 1_555
S4 O7 1_555 1_555
O6 S3 1_555 1_555
O8 S4 1_555 1_555
N3 S3 1_555 1_555
N4 S4 1_555 1_555
C39 N3 1_555 1_555
H37 C39 1_555 1_555
H38 C39 1_555 1_555
C40 N4 1_555 1_555
C41 C40 1_555 1_555
C42 C41 1_555 1_555
H39 C42 1_555 1_555
C43 C42 1_555 1_555
H40 C43 1_555 1_555
C44 C43 1_555 1_555
H41 C44 1_555 1_555
C45 C44 1_555 1_555
H42 C45 1_555 1_555
C46 C41 1_555 1_555
C47 C46 1_555 1_555
H43 C47 1_555 1_555
C48 C47 1_555 1_555
H44 C48 1_555 1_555
H45 C48 1_555 1_555
C49 C48 1_555 1_555
H46 C49 1_555 1_555
H47 C49 1_555 1_555
C50 C40 1_555 1_555
C51 C50 1_555 1_555
C52 C51 1_555 1_555
H48 C52 1_555 1_555
H49 C52 1_555 1_555
C53 C52 1_555 1_555
H50 C53 1_555 1_555
H51 C53 1_555 1_555
C54 C51 1_555 1_555
H52 C54 1_555 1_555
C55 C54 1_555 1_555
C56 C55 1_555 1_555
H53 C56 1_555 1_555
C57 C56 1_555 1_555
H54 C57 1_555 1_555
C58 C57 1_555 1_555
H55 C58 1_555 1_555
C59 C58 1_555 1_555
H56 C59 1_555 1_555
C60 C55 1_555 1_555
C61 C51 1_555 1_555
H57 C61 1_555 1_555
C62 N3 1_555 1_555
H58 C62 1_555 1_555
C63 S3 1_555 1_555
C64 C63 1_555 1_555
H59 C64 1_555 1_555
C65 C64 1_555 1_555
H60 C65 1_555 1_555
C66 C65 1_555 1_555
C67 C66 1_555 1_555
H61 C67 1_555 1_555
C68 C63 1_555 1_555
H62 C68 1_555 1_555
C69 C66 1_555 1_555
H63 C69 1_555 1_555
H64 C69 1_555 1_555
H65 C69 1_555 1_555
C70 S4 1_555 1_555
C71 C70 1_555 1_555
H66 C71 1_555 1_555
C72 C71 1_555 1_555
H67 C72 1_555 1_555
C73 C72 1_555 1_555
C74 C73 1_555 1_555
H68 C74 1_555 1_555
C75 C70 1_555 1_555
H69 C75 1_555 1_555
C76 C73 1_555 1_555
H70 C76 1_555 1_555
H71 C76 1_555 1_555
H72 C76 1_555 1_555
N2 C1 1_555 1_555
C7 C8 1_555 1_555
C9 C12 1_555 1_555
C11 C12 1_555 1_555
C13 C23 1_555 1_555
C15 C16 1_555 1_555
C21 C22 1_555 1_555
C22 C23 1_555 1_555
C23 C24 1_555 1_555
C29 C30 1_555 1_555
C36 C37 1_555 1_555
N4 C62 1_555 1_555
C39 C40 1_555 1_555
C45 C46 1_555 1_555
C47 C50 1_555 1_555
C49 C50 1_555 1_555
C53 C54 1_555 1_555
C59 C60 1_555 1_555
C60 C61 1_555 1_555
C61 C62 1_555 1_555
C67 C68 1_555 1_555
C74 C75 1_555 1_555

#END
