
#######################################################################
#
#                 Cambridge Crystallographic Data Centre
#                                CCDC 
#
#######################################################################
#
# If this CIF has been generated from an entry in the Cambridge 
# Structural Database, then it will include bibliographic, chemical, 
# crystal, experimental, refinement or atomic coordinate data resulting 
# from the CCDC's data processing and validation procedures.
#
#######################################################################

data_JOJBER
_chemical_formula_moiety         'C1 H4 O1,C38 H34 N2 O4 S2'
_chemical_name_systematic        
"4-methyl-N-((5-((4-methylphenyl)sulfonyl)-5,10b,11,12,14,14a-hexahydrobiscyclobuta[2,3]indeno[1,2-b:2',1'-d]pyridin-4b(13H)-yl)methylene)benzenesulfonamide methanol solvate"
_symmetry_cell_setting           monoclinic
_symmetry_space_group_name_H-M   'P 21/n'
_symmetry_Int_Tables_number      14
_space_group_name_Hall           '-P 2yn'
loop_
_symmetry_equiv_pos_site_id
_symmetry_equiv_pos_as_xyz
1 x,y,z
2 1/2-x,1/2+y,1/2-z
3 -x,-y,-z
4 1/2+x,1/2-y,1/2+z
_cell_length_a                   10.6756(9)
_cell_length_b                   29.382(3)
_cell_length_c                   11.9298(10)
_cell_angle_alpha                90
_cell_angle_beta                 112.950(2)
_cell_angle_gamma                90
_cell_volume                     3445.83
_exptl_crystal_colour            colorless
_exptl_crystal_description       prismatic
_cell_formula_units_Z            4
loop_
_atom_site_label
_atom_site_type_symbol
_atom_site_fract_x
_atom_site_fract_y
_atom_site_fract_z
S1 S 0.43245(8) 0.07446(3) 0.59098(7)
S2 S 0.32839(8) 0.22677(3) 0.69041(7)
N1 N 0.4711(2) 0.10521(8) 0.4947(2)
N2 N 0.4484(2) 0.20872(8) 0.6425(2)
O1 O 0.5039(3) 0.03251(8) 0.6076(2)
O2 O 0.4517(2) 0.10239(7) 0.69343(18)
O3 O 0.2075(2) 0.20043(8) 0.6371(2)
O4 O 0.3936(3) 0.22848(9) 0.8192(2)
C1 C 0.3942(3) 0.09252(11) 0.1589(3)
C2 C 0.4055(4) 0.04988(13) 0.1136(3)
H1 H 0.4344 0.0248 0.1650
C3 C 0.3724(5) 0.04573(16) -0.0102(4)
H2 H 0.3799 0.0175 -0.0421
C4 C 0.3290(5) 0.08219(17) -0.0865(4)
H3 H 0.3064 0.0784 -0.1695
C5 C 0.3183(4) 0.12473(16) -0.0415(3)
H4 H 0.2896 0.1495 -0.0938
C6 C 0.3507(4) 0.13018(12) 0.0820(3)
C7 C 0.3403(4) 0.17197(12) 0.1485(3)
H5 H 0.3937 0.1979 0.1404
C8 C 0.1968(5) 0.18378(17) 0.1394(4)
H6 H 0.1786 0.2162 0.1341
H7 H 0.1257 0.1676 0.0747
C9 C 0.2262(3) 0.16409(13) 0.2656(3)
H8 H 0.1757 0.1365 0.2642
H9 H 0.2167 0.1860 0.3225
C10 C 0.3769(3) 0.15531(10) 0.2829(3)
C11 C 0.4144(3) 0.10639(10) 0.2828(3)
C12 C 0.4606(3) 0.08311(10) 0.3863(3)
H10 H 0.4857 0.0528 0.3874
C13 C 0.4841(3) 0.17892(10) 0.3888(3)
C14 C 0.4761(4) 0.23189(11) 0.3890(3)
H11 H 0.3932 0.2441 0.3278
H12 H 0.4926 0.2447 0.4684
C15 C 0.5997(4) 0.23465(12) 0.3533(4)
H13 H 0.6711 0.2547 0.4048
H14 H 0.5762 0.2414 0.2679
C16 C 0.6281(3) 0.18363(11) 0.3852(3)
H15 H 0.6432 0.1651 0.3232
C17 C 0.7236(3) 0.17482(11) 0.5126(3)
C18 C 0.8639(4) 0.17976(14) 0.5633(4)
H16 H 0.9096 0.1898 0.5156
C19 C 0.9345(4) 0.16992(15) 0.6830(4)
H17 H 1.0289 0.1723 0.7160
C20 C 0.8681(4) 0.15651(14) 0.7562(4)
H18 H 0.9176 0.1504 0.8382
C21 C 0.7284(3) 0.15208(12) 0.7080(3)
H19 H 0.6832 0.1432 0.7571
C22 C 0.6567(3) 0.16097(10) 0.5861(3)
C23 C 0.5055(3) 0.15519(9) 0.5137(3)
C24 C 0.4121(3) 0.17657(10) 0.5655(3)
H20 H 0.3235 0.1657 0.5400
C25 C 0.2954(3) 0.28189(10) 0.6331(3)
C26 C 0.1835(3) 0.29081(12) 0.5299(3)
H21 H 0.1255 0.2672 0.4891
C27 C 0.1563(4) 0.33443(13) 0.4864(3)
H22 H 0.0791 0.3402 0.4167
C28 C 0.2416(4) 0.36975(12) 0.5440(4)
C29 C 0.3540(4) 0.36025(13) 0.6481(4)
H23 H 0.4126 0.3838 0.6884
C30 C 0.3815(3) 0.31671(12) 0.6938(3)
H24 H 0.4572 0.3109 0.7647
C31 C 0.2111(5) 0.41776(15) 0.4951(5)
H25 H 0.2932 0.4355 0.5252
H26 H 0.1451 0.4312 0.5212
H27 H 0.1758 0.4171 0.4077
C32 C 0.2584(4) 0.06244(11) 0.5165(3)
C33 C 0.1632(4) 0.08836(13) 0.5391(4)
H28 H 0.1907 0.1120 0.5954
C34 C 0.0260(4) 0.07896(16) 0.4773(4)
H29 H -0.0380 0.0965 0.4927
C35 C -0.0172(5) 0.0444(2) 0.3937(5)
C36 C 0.0792(7) 0.0192(2) 0.3736(4)
H30 H 0.0516 -0.0048 0.3183
C37 C 0.2162(5) 0.02798(15) 0.4326(4)
H31 H 0.2796 0.0107 0.4156
C38 C -0.1665(6) 0.0341(2) 0.3260(5)
H32 H -0.1806 0.0208 0.2485
H33 H -0.2178 0.0618 0.3137
H34 H -0.1960 0.0133 0.3726
O5 O 0.0239(7) 0.0363(4) -0.0500(8)
H35 H -0.0333 0.0565 -0.0730
C39 C 0.0645(8) 0.0306(6) 0.0711(10)
H36 H 0.1570 0.0202 0.1045
H37 H 0.0073 0.0086 0.0872
H38 H 0.0580 0.0591 0.1079
loop_
_geom_bond_atom_site_label_1
_geom_bond_atom_site_label_2
_geom_bond_site_symmetry_1
_geom_bond_site_symmetry_2
S1 N1 1_555 1_555
S2 N2 1_555 1_555
N1 C12 1_555 1_555
N2 C24 1_555 1_555
O1 S1 1_555 1_555
O2 S1 1_555 1_555
O3 S2 1_555 1_555
O4 S2 1_555 1_555
C1 C2 1_555 1_555
C2 H1 1_555 1_555
C3 C2 1_555 1_555
H2 C3 1_555 1_555
C4 C3 1_555 1_555
H3 C4 1_555 1_555
C5 C4 1_555 1_555
H4 C5 1_555 1_555
C6 C1 1_555 1_555
C7 C6 1_555 1_555
H5 C7 1_555 1_555
C8 C7 1_555 1_555
H6 C8 1_555 1_555
H7 C8 1_555 1_555
C9 C8 1_555 1_555
H8 C9 1_555 1_555
H9 C9 1_555 1_555
C10 C7 1_555 1_555
C11 C1 1_555 1_555
C12 C11 1_555 1_555
H10 C12 1_555 1_555
C13 C10 1_555 1_555
C14 C13 1_555 1_555
H11 C14 1_555 1_555
H12 C14 1_555 1_555
C15 C14 1_555 1_555
H13 C15 1_555 1_555
H14 C15 1_555 1_555
C16 C13 1_555 1_555
H15 C16 1_555 1_555
C17 C16 1_555 1_555
C18 C17 1_555 1_555
H16 C18 1_555 1_555
C19 C18 1_555 1_555
H17 C19 1_555 1_555
C20 C19 1_555 1_555
H18 C20 1_555 1_555
C21 C20 1_555 1_555
H19 C21 1_555 1_555
C22 C17 1_555 1_555
C23 N1 1_555 1_555
C24 C23 1_555 1_555
H20 C24 1_555 1_555
C25 S2 1_555 1_555
C26 C25 1_555 1_555
H21 C26 1_555 1_555
C27 C26 1_555 1_555
H22 C27 1_555 1_555
C28 C27 1_555 1_555
C29 C28 1_555 1_555
H23 C29 1_555 1_555
C30 C25 1_555 1_555
H24 C30 1_555 1_555
C31 C28 1_555 1_555
H25 C31 1_555 1_555
H26 C31 1_555 1_555
H27 C31 1_555 1_555
C32 S1 1_555 1_555
C33 C32 1_555 1_555
H28 C33 1_555 1_555
C34 C33 1_555 1_555
H29 C34 1_555 1_555
C35 C34 1_555 1_555
C36 C35 1_555 1_555
H30 C36 1_555 1_555
C37 C32 1_555 1_555
H31 C37 1_555 1_555
C38 C35 1_555 1_555
H32 C38 1_555 1_555
H33 C38 1_555 1_555
H34 C38 1_555 1_555
O5 H35 1_555 1_555
C39 O5 1_555 1_555
H36 C39 1_555 1_555
H37 C39 1_555 1_555
H38 C39 1_555 1_555
C5 C6 1_555 1_555
C9 C10 1_555 1_555
C10 C11 1_555 1_555
C13 C23 1_555 1_555
C15 C16 1_555 1_555
C21 C22 1_555 1_555
C22 C23 1_555 1_555
C29 C30 1_555 1_555
C36 C37 1_555 1_555

#END
