
#######################################################################
#
#                 Cambridge Crystallographic Data Centre
#                                CCDC 
#
#######################################################################
#
# If this CIF has been generated from an entry in the Cambridge 
# Structural Database, then it will include bibliographic, chemical, 
# crystal, experimental, refinement or atomic coordinate data resulting 
# from the CCDC's data processing and validation procedures.
#
#######################################################################

data_JOJDIV10
_chemical_formula_moiety         'C44 H56 O2 P2,C18 H14 O8,C4 H8 O2'
_chemical_name_systematic        
"(S)-(+)-2,2'-bis(Dicyclohexylphosphinyl)-1,1'-binaphthyl (2R,3R)-(-)-2,3-O-dibenzoyltartaric acid ethyl acetate solvate"
_symmetry_cell_setting           orthorhombic
_symmetry_space_group_name_H-M   'P 21 21 21'
_symmetry_Int_Tables_number      19
_space_group_name_Hall           'P 2ac 2ab'
loop_
_symmetry_equiv_pos_site_id
_symmetry_equiv_pos_as_xyz
1 x,y,z
2 1/2+x,1/2-y,-z
3 -x,1/2+y,1/2-z
4 1/2-x,-y,1/2+z
_cell_length_a                   20.949(3)
_cell_length_b                   22.625(2)
_cell_length_c                   12.873(1)
_cell_angle_alpha                90
_cell_angle_beta                 90
_cell_angle_gamma                90
_cell_volume                     6101.43
_exptl_crystal_colour            colorless
_chemical_melting_point          '227.0-227.5 deg.C (dec)'
_cell_formula_units_Z            4
loop_
_atom_site_label
_atom_site_type_symbol
_atom_site_fract_x
_atom_site_fract_y
_atom_site_fract_z
P1 P 0.41011(12) 0.15639(12) 0.00750(21)
P2 P 0.49659(12) 0.32522(12) 0.14007(21)
O1 O 0.4056(3) 0.2089(3) -0.0617(5)
O2 O 0.4993(3) 0.2764(3) 0.2181(5)
C1 C 0.5354(4) 0.1921(4) 0.0652(8)
C2 C 0.4847(4) 0.1560(4) 0.0810(8)
C3 C 0.4882(5) 0.1132(5) 0.1628(8)
C4 C 0.5411(5) 0.1051(5) 0.2193(9)
C5 C 0.5969(5) 0.1377(5) 0.2009(9)
C6 C 0.6531(6) 0.1277(5) 0.2578(11)
C7 C 0.7080(5) 0.1589(5) 0.2323(10)
C8 C 0.7079(5) 0.2016(5) 0.1511(10)
C9 C 0.6526(4) 0.2133(5) 0.0976(8)
C10 C 0.5949(4) 0.1809(4) 0.1214(7)
C11 C 0.5349(4) 0.2414(4) -0.0131(8)
C12 C 0.5128(4) 0.2976(4) 0.0103(7)
C13 C 0.5076(5) 0.3398(4) -0.0701(8)
C14 C 0.5276(5) 0.3283(5) -0.1674(8)
C15 C 0.5569(4) 0.2747(5) -0.1921(8)
C16 C 0.5847(6) 0.2611(6) -0.2935(8)
C17 C 0.6135(6) 0.2102(6) -0.3153(9)
C18 C 0.6152(5) 0.1666(5) -0.2386(9)
C19 C 0.5898(5) 0.1754(5) -0.1415(9)
C20 C 0.5589(4) 0.2292(4) -0.1140(8)
C21 C 0.3438(4) 0.1556(4) 0.1015(8)
C22 C 0.3214(5) 0.0936(5) 0.1426(11)
C23 C 0.2697(6) 0.1023(6) 0.2246(11)
C24 C 0.2129(5) 0.1365(5) 0.1846(10)
C25 C 0.2357(5) 0.1969(5) 0.1401(10)
C26 C 0.2864(5) 0.1904(5) 0.0583(9)
C27 C 0.4100(5) 0.0872(5) -0.0663(10)
C28 C 0.3510(5) 0.0866(5) -0.1404(10)
C29 C 0.3481(7) 0.0288(7) -0.2038(13)
C30 C 0.4065(8) 0.0176(7) -0.2556(12)
C31 C 0.4633(6) 0.0177(7) -0.1886(11)
C32 C 0.4687(6) 0.0766(6) -0.1305(13)
C33 C 0.4213(4) 0.3632(4) 0.1380(8)
C34 C 0.4062(6) 0.3931(6) 0.2433(10)
C35 C 0.3425(6) 0.4287(6) 0.2378(11)
C36 C 0.2894(5) 0.3859(6) 0.2078(12)
C37 C 0.3024(5) 0.3541(5) 0.1085(10)
C38 C 0.3664(5) 0.3198(5) 0.1080(9)
C39 C 0.5572(5) 0.3827(5) 0.1675(9)
C40 C 0.5513(6) 0.4425(5) 0.1086(12)
C41 C 0.6026(6) 0.4853(5) 0.1466(12)
C42 C 0.6680(6) 0.4585(6) 0.1337(13)
C43 C 0.6758(5) 0.4007(6) 0.1926(13)
C44 C 0.6253(5) 0.3570(5) 0.1550(10)
H1 H 0.447(4) 0.084(3) 0.179(6)
H2 H 0.541(4) 0.072(4) 0.284(7)
H3 H 0.652(4) 0.094(4) 0.323(7)
H4 H 0.752(4) 0.153(4) 0.277(7)
H5 H 0.752(4) 0.226(4) 0.131(7)
H6 H 0.654(4) 0.248(3) 0.036(6)
H7 H 0.489(4) 0.382(4) -0.052(6)
H8 H 0.523(4) 0.359(4) -0.228(7)
H9 H 0.584(4) 0.291(4) -0.352(4)
H10 H 0.636(4) 0.202(3) -0.387(7)
H11 H 0.636(4) 0.122(4) -0.258(7)
H12 H 0.592(4) 0.138(4) -0.085(7)
H15 H 0.365(4) 0.180(4) 0.165(7)
H16 H 0.361(4) 0.070(4) 0.177(7)
H17 H 0.303(4) 0.069(4) 0.079(7)
H18 H 0.289(4) 0.128(4) 0.291(7)
H19 H 0.255(4) 0.060(4) 0.255(7)
H20 H 0.180(4) 0.142(4) 0.245(7)
H21 H 0.193(4) 0.109(4) 0.123(7)
H22 H 0.255(4) 0.225(4) 0.203(7)
H23 H 0.198(4) 0.224(3) 0.108(7)
H24 H 0.303(4) 0.234(4) 0.030(7)
H25 H 0.266(4) 0.169(3) -0.008(7)
H26 H 0.408(5) 0.047(4) -0.005(7)
H27 H 0.355(4) 0.123(4) -0.193(6)
H28 H 0.308(4) 0.091(4) -0.101(7)
H29 H 0.310(4) 0.034(4) -0.262(7)
H30 H 0.340(4) -0.010(4) -0.155(7)
H31 H 0.416(5) 0.054(4) -0.312(7)
H32 H 0.404(4) -0.024(4) -0.296(7)
H33 H 0.507(4) 0.012(4) -0.233(7)
H34 H 0.457(4) -0.017(4) -0.133(7)
H35 H 0.473(4) 0.114(4) -0.182(7)
H36 H 0.512(4) 0.075(4) -0.081(7)
H37 H 0.426(4) 0.394(3) 0.083(6)
H38 H 0.447(4) 0.424(4) 0.264(6)
H39 H 0.402(4) 0.360(3) 0.302(6)
H40 H 0.348(4) 0.466(4) 0.178(7)
H41 H 0.332(4) 0.450(4) 0.310(7)
H42 H 0.245(4) 0.406(4) 0.204(7)
H43 H 0.286(4) 0.349(4) 0.267(7)
H44 H 0.300(4) 0.383(4) 0.049(7)
H45 H 0.264(4) 0.321(4) 0.092(7)
H46 H 0.375(4) 0.300(3) 0.036(6)
H47 H 0.364(4) 0.284(4) 0.162(7)
H48 H 0.550(4) 0.393(4) 0.252(7)
H49 H 0.505(4) 0.462(3) 0.117(6)
H50 H 0.560(4) 0.435(4) 0.023(7)
H51 H 0.594(4) 0.491(4) 0.235(7)
H52 H 0.600(4) 0.527(4) 0.109(7)
H53 H 0.705(4) 0.491(4) 0.158(7)
H54 H 0.674(4) 0.451(3) 0.049(7)
H55 H 0.667(4) 0.411(3) 0.281(6)
H56 H 0.724(4) 0.384(4) 0.183(7)
H57 H 0.631(4) 0.314(4) 0.200(7)
H58 H 0.634(4) 0.348(3) 0.069(6)
O3 O 0.5826(4) 0.7171(3) -0.2443(6)
O4 O 0.6332(4) 0.8036(4) -0.2489(6)
O5 O 0.5352(3) 0.7383(4) 0.1076(6)
O6 O 0.6358(4) 0.7273(4) 0.1551(6)
O7 O 0.6180(3) 0.8224(3) -0.0457(5)
O8 O 0.5312(3) 0.8767(3) -0.0825(7)
O9 O 0.6769(3) 0.7134(3) -0.0427(6)
O10 O 0.6727(4) 0.6170(3) 0.0019(7)
C45 C 0.6045(4) 0.7639(5) -0.2070(8)
C46 C 0.5874(5) 0.7712(4) -0.0864(8)
C47 C 0.6093(4) 0.7179(5) -0.0247(8)
C48 C 0.5966(5) 0.7282(4) 0.0874(8)
C49 C 0.5863(5) 0.8737(5) -0.0541(8)
C50 C 0.6301(5) 0.9266(5) -0.0302(9)
C51 C 0.6933(5) 0.9203(6) -0.0305(10)
C52 C 0.7307(7) 0.9697(7) -0.0121(12)
C53 C 0.6988(8) 1.0230(6) 0.0078(12)
C54 C 0.6311(8) 1.0288(5) 0.0141(12)
C55 C 0.5966(7) 0.9791(5) -0.0052(10)
C56 C 0.7036(6) 0.6604(5) -0.0225(9)
C57 C 0.7736(5) 0.6619(5) -0.0352(9)
C58 C 0.8084(6) 0.6143(6) -0.0022(10)
C59 C 0.8758(6) 0.6143(7) -0.0144(12)
C60 C 0.9050(6) 0.6631(6) -0.0558(10)
C61 C 0.8705(6) 0.7127(6) -0.0884(12)
C62 C 0.8019(5) 0.7092(5) -0.0775(11)
H13 H 0.536(4) 0.774(4) -0.077(7)
H14 H 0.581(4) 0.676(3) -0.051(6)
H59 H 0.713(4) 0.877(4) -0.042(7)
H60 H 0.784(4) 0.963(4) -0.016(7)
H61 H 0.726(4) 1.064(3) 0.019(7)
H62 H 0.611(4) 1.070(4) 0.033(7)
H63 H 0.544(4) 0.982(4) 0.001(7)
H64 H 0.784(4) 0.576(4) 0.029(7)
H65 H 0.901(4) 0.574(4) 0.005(7)
H66 H 0.958(4) 0.665(3) -0.061(6)
H67 H 0.895(4) 0.754(4) -0.122(7)
H68 H 0.772(4) 0.748(4) -0.108(7)
O11 O 0.6521(11) -0.0148(10) -0.2971(14)
O12 O 0.5761(8) 0.0277(7) -0.3854(12)
C63 C 0.6075(16) -0.0807(16) -0.4161(30)
C64 C 0.6082(9) -0.0190(9) -0.3803(22)
C65 C 0.5884(13) 0.0476(9) -0.5041(19)
C66 C 0.5217(10) 0.0974(9) -0.4677(14)
loop_
_geom_bond_atom_site_label_1
_geom_bond_atom_site_label_2
_geom_bond_site_symmetry_1
_geom_bond_site_symmetry_2
P1 O1 1_555 1_555
P2 O2 1_555 1_555
O3 C45 1_555 1_555
O4 C45 1_555 1_555
O5 C48 1_555 1_555
O6 C48 1_555 1_555
O7 C46 1_555 1_555
O8 C49 1_555 1_555
O9 C47 1_555 1_555
O10 C56 1_555 1_555
C1 C2 1_555 1_555
C2 P1 1_555 1_555
C3 C2 1_555 1_555
C4 C3 1_555 1_555
C5 C4 1_555 1_555
C6 C5 1_555 1_555
C7 C6 1_555 1_555
C8 C7 1_555 1_555
C9 C8 1_555 1_555
C10 C1 1_555 1_555
C11 C1 1_555 1_555
C12 P2 1_555 1_555
C13 C12 1_555 1_555
C14 C13 1_555 1_555
C15 C14 1_555 1_555
C16 C15 1_555 1_555
C17 C16 1_555 1_555
C18 C17 1_555 1_555
C19 C18 1_555 1_555
C20 C11 1_555 1_555
C21 P1 1_555 1_555
C22 C21 1_555 1_555
C23 C22 1_555 1_555
C24 C23 1_555 1_555
C25 C24 1_555 1_555
C26 C21 1_555 1_555
C27 P1 1_555 1_555
C28 C27 1_555 1_555
C29 C28 1_555 1_555
C30 C29 1_555 1_555
C31 C30 1_555 1_555
C32 C27 1_555 1_555
C33 P2 1_555 1_555
C34 C33 1_555 1_555
C35 C34 1_555 1_555
C36 C35 1_555 1_555
C37 C36 1_555 1_555
C38 C33 1_555 1_555
C39 P2 1_555 1_555
C40 C39 1_555 1_555
C41 C40 1_555 1_555
C42 C41 1_555 1_555
C43 C42 1_555 1_555
C44 C39 1_555 1_555
C45 C46 1_555 1_555
C46 C47 1_555 1_555
C47 C48 1_555 1_555
C49 O7 1_555 1_555
C50 C49 1_555 1_555
C51 C50 1_555 1_555
C52 C51 1_555 1_555
C53 C52 1_555 1_555
C54 C53 1_555 1_555
C55 C50 1_555 1_555
C56 O9 1_555 1_555
C57 C56 1_555 1_555
C58 C57 1_555 1_555
C59 C58 1_555 1_555
C60 C59 1_555 1_555
C61 C60 1_555 1_555
C62 C57 1_555 1_555
O11 C64 1_555 1_555
O12 C64 1_555 1_555
C63 C64 1_555 1_555
C65 O12 1_555 1_555
C66 C65 1_555 1_555
H1 C3 1_555 1_555
H2 C4 1_555 1_555
H3 C6 1_555 1_555
H4 C7 1_555 1_555
H5 C8 1_555 1_555
H6 C9 1_555 1_555
H7 C13 1_555 1_555
H8 C14 1_555 1_555
H9 C16 1_555 1_555
H10 C17 1_555 1_555
H11 C18 1_555 1_555
H12 C19 1_555 1_555
H13 C46 1_555 1_555
H14 C47 1_555 1_555
H15 C21 1_555 1_555
H16 C22 1_555 1_555
H17 C22 1_555 1_555
H18 C23 1_555 1_555
H19 C23 1_555 1_555
H20 C24 1_555 1_555
H21 C24 1_555 1_555
H22 C25 1_555 1_555
H23 C25 1_555 1_555
H24 C26 1_555 1_555
H25 C26 1_555 1_555
H26 C27 1_555 1_555
H27 C28 1_555 1_555
H28 C28 1_555 1_555
H29 C29 1_555 1_555
H30 C29 1_555 1_555
H31 C30 1_555 1_555
H32 C30 1_555 1_555
H33 C31 1_555 1_555
H34 C31 1_555 1_555
H35 C32 1_555 1_555
H36 C32 1_555 1_555
H37 C33 1_555 1_555
H38 C34 1_555 1_555
H39 C34 1_555 1_555
H40 C35 1_555 1_555
H41 C35 1_555 1_555
H42 C36 1_555 1_555
H43 C36 1_555 1_555
H44 C37 1_555 1_555
H45 C37 1_555 1_555
H46 C38 1_555 1_555
H47 C38 1_555 1_555
H48 C39 1_555 1_555
H49 C40 1_555 1_555
H50 C40 1_555 1_555
H51 C41 1_555 1_555
H52 C41 1_555 1_555
H53 C42 1_555 1_555
H54 C42 1_555 1_555
H55 C43 1_555 1_555
H56 C43 1_555 1_555
H57 C44 1_555 1_555
H58 C44 1_555 1_555
H59 C51 1_555 1_555
H60 C52 1_555 1_555
H61 C53 1_555 1_555
H62 C54 1_555 1_555
H63 C55 1_555 1_555
H64 C58 1_555 1_555
H65 C59 1_555 1_555
H66 C60 1_555 1_555
H67 C61 1_555 1_555
H68 C62 1_555 1_555
C5 C10 1_555 1_555
C9 C10 1_555 1_555
C11 C12 1_555 1_555
C15 C20 1_555 1_555
C19 C20 1_555 1_555
C25 C26 1_555 1_555
C31 C32 1_555 1_555
C37 C38 1_555 1_555
C43 C44 1_555 1_555
C54 C55 1_555 1_555
C61 C62 1_555 1_555

#END
