
#######################################################################
#
#                 Cambridge Crystallographic Data Centre
#                                CCDC 
#
#######################################################################
#
# If this CIF has been generated from an entry in the Cambridge 
# Structural Database, then it will include bibliographic, chemical, 
# crystal, experimental, refinement or atomic coordinate data resulting 
# from the CCDC's data processing and validation procedures.
#
#######################################################################

data_JOJDIX
_chemical_formula_moiety         'C22 H16 Cl1 N5 O2'
_chemical_name_systematic        
"1-acetyl-3'-amino-6-chloro-2-oxo-1,2,6',7',8',8a'-hexahydro-2'H-spiro[indole-3,1'-naphthalene]-2',2',4'-tricarbonitrile unknown solvate"
_symmetry_cell_setting           hexagonal
_symmetry_space_group_name_H-M   'P 61'
_symmetry_Int_Tables_number      169
_space_group_name_Hall           'P 61'
loop_
_symmetry_equiv_pos_site_id
_symmetry_equiv_pos_as_xyz
1 x,y,z
2 -y,x-y,1/3+z
3 -x+y,-x,2/3+z
4 -x,-y,1/2+z
5 y,-x+y,5/6+z
6 x-y,x,1/6+z
_cell_length_a                   21.6553(9)
_cell_length_b                   21.6553(9)
_cell_length_c                   9.8316(6)
_cell_angle_alpha                90
_cell_angle_beta                 90
_cell_angle_gamma                120
_cell_volume                     3992.85
_exptl_crystal_colour            colorless
_exptl_crystal_description       prismatic
_cell_formula_units_Z            6
loop_
_atom_site_label
_atom_site_type_symbol
_atom_site_fract_x
_atom_site_fract_y
_atom_site_fract_z
Cl1 Cl 0.77685(6) 0.71920(7) 0.02825(17)
N1 N 0.46631(13) 0.79640(12) 0.0555(2)
N2 N 0.51884(11) 0.57408(10) 0.2184(2)
N3 N 0.45363(14) 0.64033(14) -0.0717(3)
N4 N 0.32390(12) 0.63806(12) 0.2592(2)
N5 N 0.55212(17) 0.94322(13) 0.2886(3)
O1 O 0.41124(9) 0.55264(9) 0.3115(2)
O2 O 0.55087(11) 0.49423(10) 0.1520(2)
C1 C 0.45447(12) 0.69143(11) 0.1694(2)
C2 C 0.48145(12) 0.77193(12) 0.1677(2)
C3 C 0.51493(13) 0.80987(12) 0.2813(3)
C4 C 0.53269(12) 0.78208(12) 0.4016(2)
C5 C 0.56985(18) 0.82348(15) 0.5045(3)
H1 H 0.5850 0.8718 0.4972
C6 C 0.5893(2) 0.79938(19) 0.6306(4)
H2 H 0.5752 0.8166 0.7090
H3 H 0.6407 0.8199 0.6339
C7 C 0.5543(2) 0.71925(18) 0.6384(3)
H4 H 0.5809 0.7067 0.7010
H5 H 0.5064 0.7000 0.6743
C8 C 0.55053(16) 0.68607(14) 0.5034(3)
H6 H 0.5285 0.6348 0.5135
H7 H 0.5983 0.7041 0.4677
C9 C 0.50674(13) 0.70351(12) 0.4045(2)
H8 H 0.4578 0.6799 0.4392
C10 C 0.50381(12) 0.67372(12) 0.2609(3)
C11 C 0.46941(13) 0.59187(13) 0.2687(3)
C12 C 0.58119(13) 0.63657(13) 0.1740(3)
C13 C 0.57414(12) 0.69629(13) 0.1954(2)
C14 C 0.62937(14) 0.76288(15) 0.1607(3)
H9 H 0.6252 0.8032 0.1736
C15 C 0.69124(17) 0.76890(18) 0.1064(4)
H10 H 0.7289 0.8134 0.0819
C16 C 0.69662(17) 0.70946(19) 0.0890(4)
C17 C 0.64373(16) 0.64278(17) 0.1211(3)
H11 H 0.6490 0.6031 0.1084
C18 C 0.50966(15) 0.50446(14) 0.2154(3)
C19 C 0.45065(18) 0.44883(14) 0.2985(4)
H12 H 0.4060 0.4336 0.2534
H13 H 0.4501 0.4681 0.3861
H14 H 0.4578 0.4088 0.3098
C20 C 0.45357(13) 0.66401(13) 0.0322(3)
C21 C 0.37955(13) 0.65680(12) 0.2213(2)
C22 C 0.53535(15) 0.88410(14) 0.2826(3)
H15 H 0.443(2) 0.7679(19) -0.005(4)
H16 H 0.465(2) 0.8338(13) 0.054(5)
loop_
_geom_bond_atom_site_label_1
_geom_bond_atom_site_label_2
_geom_bond_site_symmetry_1
_geom_bond_site_symmetry_2
Cl1 C16 1_555 1_555
N1 C2 1_555 1_555
N2 C11 1_555 1_555
N3 C20 1_555 1_555
N4 C21 1_555 1_555
N5 C22 1_555 1_555
O1 C11 1_555 1_555
O2 C18 1_555 1_555
C1 C2 1_555 1_555
C2 C3 1_555 1_555
C3 C4 1_555 1_555
C4 C5 1_555 1_555
C5 H1 1_555 1_555
C6 C5 1_555 1_555
H2 C6 1_555 1_555
H3 C6 1_555 1_555
C7 C6 1_555 1_555
H4 C7 1_555 1_555
H5 C7 1_555 1_555
C8 C7 1_555 1_555
H6 C8 1_555 1_555
H7 C8 1_555 1_555
C9 C4 1_555 1_555
H8 C9 1_555 1_555
C10 C1 1_555 1_555
C11 C10 1_555 1_555
C12 N2 1_555 1_555
C13 C10 1_555 1_555
C14 C13 1_555 1_555
H9 C14 1_555 1_555
C15 C14 1_555 1_555
H10 C15 1_555 1_555
C16 C15 1_555 1_555
C17 C12 1_555 1_555
H11 C17 1_555 1_555
C18 N2 1_555 1_555
C19 C18 1_555 1_555
H12 C19 1_555 1_555
H13 C19 1_555 1_555
H14 C19 1_555 1_555
C20 C1 1_555 1_555
C21 C1 1_555 1_555
C22 C3 1_555 1_555
H15 N1 1_555 1_555
H16 N1 1_555 1_555
C8 C9 1_555 1_555
C9 C10 1_555 1_555
C12 C13 1_555 1_555
C16 C17 1_555 1_555

#END
