
#######################################################################
#
#                 Cambridge Crystallographic Data Centre
#                                CCDC 
#
#######################################################################
#
# If this CIF has been generated from an entry in the Cambridge 
# Structural Database, then it will include bibliographic, chemical, 
# crystal, experimental, refinement or atomic coordinate data resulting 
# from the CCDC's data processing and validation procedures.
#
#######################################################################

data_JOJLIF
_chemical_formula_moiety         'C40 H20 F6 O2 S4,C1 H1 Cl3'
_chemical_name_systematic        
'1,16-bis(4-(trifluoromethyl)phenyl)-31,32-dioxa-5,12,20,27-tetrathiaoctacyclo[14.14.2.0^2,15^.0^4,13^.0^6,11^.0^17,30^.0^19,28^.0^21,26^]dotriaconta-2(15),3,6,8,10,13,17(30),18,21,23,25,28-dodecaene chloroform solvate'
_symmetry_cell_setting           monoclinic
_symmetry_space_group_name_H-M   'C 2/c'
_symmetry_Int_Tables_number      15
_space_group_name_Hall           '-C 2yn'
loop_
_symmetry_equiv_pos_site_id
_symmetry_equiv_pos_as_xyz
1 x,y,z
2 -x,y,1/2-z
3 1/2+x,1/2+y,z
4 1/2-x,1/2+y,1/2-z
5 -x,-y,-z
6 x,-y,1/2+z
7 1/2-x,1/2-y,-z
8 1/2+x,1/2-y,1/2+z
_cell_length_a                   21.8621(15)
_cell_length_b                   15.0028(11)
_cell_length_c                   12.6408(9)
_cell_angle_alpha                90
_cell_angle_beta                 110.3050(10)
_cell_angle_gamma                90
_cell_volume                     3888.45
_exptl_crystal_colour            yellow
_exptl_crystal_description       Cubic
_cell_formula_units_Z            4
loop_
_atom_site_label
_atom_site_type_symbol
_atom_site_fract_x
_atom_site_fract_y
_atom_site_fract_z
Cl1 Cl 0.4302(2) -0.0228(5) 0.6977(8)
Cl2 Cl 0.5154(6) -0.0040(6) 0.6148(9)
C21 C 0.5000 0.0314(14) 0.7500
Cl1A Cl 0.5698(2) -0.0228(5) 0.8023(8)
Cl2A Cl 0.4846(6) -0.0040(6) 0.8852(9)
S1 S 0.25946(5) 0.15130(7) 0.62776(10)
S2 S 0.31993(6) 0.14689(8) 0.89759(10)
F1 F 0.4287(2) 0.3589(4) 0.1197(3)
F2 F 0.3385(2) 0.3019(4) 0.1013(3)
F3 F 0.3526(3) 0.4358(4) 0.1194(3)
C1 C 0.2733(3) -0.1089(4) 0.8169(7)
C2 C 0.2478(4) -0.1073(4) 0.7005(7)
C3 C 0.2449(3) -0.0292(4) 0.6436(5)
C4 C 0.2971(3) -0.0318(3) 0.8762(5)
C5 C 0.3818(2) 0.3581(4) 0.1566(4)
C6 C 0.4122(2) 0.2651(3) 0.3304(4)
C7 C 0.2928(2) 0.0485(3) 0.8189(4)
C8 C 0.4351(2) 0.2563(3) 0.4464(3)
C9 C 0.4137(2) 0.4229(3) 0.3489(4)
C10 C 0.2663(2) 0.0502(3) 0.7023(4)
C11 C 0.36261(19) 0.1970(2) 0.8173(3)
C12 C 0.57650(19) 0.2365(2) 0.6256(3)
C13 C 0.43646(19) 0.4147(3) 0.4651(3)
C14 C 0.33692(17) 0.1986(2) 0.7006(3)
C15 C 0.54241(17) 0.2749(2) 0.6871(3)
C16 C 0.43185(17) 0.2751(2) 0.6947(3)
C17 C 0.4025(2) 0.3486(3) 0.2818(3)
C18 C 0.37154(18) 0.2380(2) 0.6386(3)
C19 C 0.44837(17) 0.3315(2) 0.5153(3)
C20 C 0.47608(17) 0.3201(2) 0.6416(3)
O1 O 0.48655(13) 0.41132(16) 0.6879(2)
H1 H 0.4446(19) 0.465(3) 0.506(3)
H2 H 0.558(2) 0.231(3) 0.541(4)
H3 H 0.3566(19) 0.238(3) 0.554(4)
H4 H 0.407(2) 0.217(3) 0.280(4)
H5 H 0.411(3) 0.480(4) 0.327(4)
H6 H 0.446(2) 0.195(4) 0.479(4)
H7 H 0.313(3) -0.036(4) 0.960(5)
H8 H 0.277(3) -0.163(4) 0.860(5)
H9 H 0.224(3) -0.029(4) 0.560(6)
H10 H 0.238(3) -0.158(5) 0.665(6)
S1A S 0.74054(5) 0.15130(7) 0.87224(10)
S2A S 0.68007(6) 0.14689(8) 0.60241(10)
F1A F 0.5713(2) 0.3589(4) 1.3803(3)
F2A F 0.6615(2) 0.3019(4) 1.3987(3)
F3A F 0.6474(3) 0.4358(4) 1.3806(3)
C1A C 0.7267(3) -0.1089(4) 0.6831(7)
C2A C 0.7522(4) -0.1073(4) 0.7995(7)
C3A C 0.7551(3) -0.0292(4) 0.8564(5)
C4A C 0.7029(3) -0.0318(3) 0.6238(5)
C5A C 0.6182(2) 0.3581(4) 1.3434(4)
C6A C 0.5878(2) 0.2651(3) 1.1696(4)
C7A C 0.7072(2) 0.0485(3) 0.6811(4)
C8A C 0.5649(2) 0.2563(3) 1.0536(3)
C9A C 0.5863(2) 0.4229(3) 1.1511(4)
C10A C 0.7337(2) 0.0502(3) 0.7977(4)
C11A C 0.63739(19) 0.1970(2) 0.6827(3)
C12A C 0.42350(19) 0.2365(2) 0.8744(3)
C13A C 0.56354(19) 0.4147(3) 1.0349(3)
C14A C 0.66308(17) 0.1986(2) 0.7994(3)
C15A C 0.45759(17) 0.2749(2) 0.8129(3)
C16A C 0.56815(17) 0.2751(2) 0.8053(3)
C17A C 0.5975(2) 0.3486(3) 1.2182(3)
C18A C 0.62846(18) 0.2380(2) 0.8614(3)
C19A C 0.55163(17) 0.3315(2) 0.9847(3)
C20A C 0.52392(17) 0.3201(2) 0.8584(3)
O1A O 0.51345(13) 0.41132(16) 0.8121(2)
H1A H 0.5554(19) 0.465(3) 0.994(3)
H2A H 0.442(2) 0.231(3) 0.959(4)
H3A H 0.6434(19) 0.238(3) 0.946(4)
H4A H 0.593(2) 0.217(3) 1.220(4)
H5A H 0.589(3) 0.480(4) 1.173(4)
H6A H 0.554(2) 0.195(4) 1.021(4)
H7A H 0.687(3) -0.036(4) 0.540(5)
H8A H 0.723(3) -0.163(4) 0.640(5)
H9A H 0.776(3) -0.029(4) 0.940(6)
H10A H 0.762(3) -0.158(5) 0.835(6)
loop_
_geom_bond_atom_site_label_1
_geom_bond_atom_site_label_2
_geom_bond_site_symmetry_1
_geom_bond_site_symmetry_2
S1 C10 1_555 1_555
S2 C7 1_555 1_555
F1 C5 1_555 1_555
F2 C5 1_555 1_555
F3 C5 1_555 1_555
C1 C2 1_555 1_555
C2 C3 1_555 1_555
C3 C10 1_555 1_555
C4 C1 1_555 1_555
C5 C17 1_555 1_555
C6 C8 1_555 1_555
C7 C4 1_555 1_555
C8 C19 1_555 1_555
C9 C13 1_555 1_555
C10 C7 1_555 1_555
C11 S2 1_555 1_555
C12 C15 1_555 1_555
C13 C19 1_555 1_555
C14 S1 1_555 1_555
C15 C20 1_555 1_555
C16 C18 1_555 1_555
C17 C6 1_555 1_555
C18 C14 1_555 1_555
C19 C20 1_555 1_555
C20 C16 1_555 1_555
O1 C20 1_555 1_555
H1 C13 1_555 1_555
H2 C12 1_555 1_555
H3 C18 1_555 1_555
H4 C6 1_555 1_555
H5 C9 1_555 1_555
H6 C8 1_555 1_555
H7 C4 1_555 1_555
H8 C1 1_555 1_555
H9 C3 1_555 1_555
H10 C2 1_555 1_555
Cl1 C21 1_555 1_555
Cl2 C21 1_555 1_555
C21 Cl1A 1_555 1_555
S1A C10A 1_555 1_555
S2A C7A 1_555 1_555
F1A C5A 1_555 1_555
F2A C5A 1_555 1_555
F3A C5A 1_555 1_555
C1A C2A 1_555 1_555
C2A C3A 1_555 1_555
C3A C10A 1_555 1_555
C4A C1A 1_555 1_555
C5A C17A 1_555 1_555
C6A C8A 1_555 1_555
C7A C4A 1_555 1_555
C8A C19A 1_555 1_555
C9A C13A 1_555 1_555
C10A C7A 1_555 1_555
C11A C12 1_555 1_555
C12A C11 1_555 1_555
C13A C19A 1_555 1_555
C14A S1A 1_555 1_555
C15A C16 1_555 1_555
C16A C15 1_555 1_555
C17A C6A 1_555 1_555
C18A C14A 1_555 1_555
C19A C20A 1_555 1_555
C20A C15A 1_555 1_555
O1A O1 1_555 1_555
H1A C13A 1_555 1_555
H2A C12A 1_555 1_555
H3A C18A 1_555 1_555
H4A C6A 1_555 1_555
H5A C9A 1_555 1_555
H6A C8A 1_555 1_555
H7A C4A 1_555 1_555
H8A C1A 1_555 1_555
H9A C3A 1_555 1_555
H10A C2A 1_555 1_555
Cl2A C21 1_555 1_555
C9 C17 1_555 1_555
C11 C14 1_555 1_555
S2A C11A 1_555 1_555
C9A C17A 1_555 1_555
C11A C14A 1_555 1_555
C12A C15A 1_555 1_555
C16A C18A 1_555 1_555
C16A C20A 1_555 1_555
C20A O1A 1_555 1_555

#END
