
#######################################################################
#
#                 Cambridge Crystallographic Data Centre
#                                CCDC 
#
#######################################################################
#
# If this CIF has been generated from an entry in the Cambridge 
# Structural Database, then it will include bibliographic, chemical, 
# crystal, experimental, refinement or atomic coordinate data resulting 
# from the CCDC's data processing and validation procedures.
#
#######################################################################

data_JOJLEB
_chemical_formula_moiety         'C19 H17 N1 O2'
_chemical_name_systematic        'ethyl 1-amino-4-phenyl-2-naphthoate'
_symmetry_cell_setting           monoclinic
_symmetry_space_group_name_H-M   'P 21/c'
_symmetry_Int_Tables_number      14
_space_group_name_Hall           '-P 2ybc'
loop_
_symmetry_equiv_pos_site_id
_symmetry_equiv_pos_as_xyz
1 x,y,z
2 -x,1/2+y,1/2-z
3 -x,-y,-z
4 x,1/2-y,1/2+z
_cell_length_a                   13.705(3)
_cell_length_b                   8.0180(16)
_cell_length_c                   14.777(3)
_cell_angle_alpha                90
_cell_angle_beta                 108.49(3)
_cell_angle_gamma                90
_cell_volume                     1539.97
_exptl_crystal_colour            colorless
_exptl_crystal_description       block
_cell_formula_units_Z            4
loop_
_atom_site_label
_atom_site_type_symbol
_atom_site_fract_x
_atom_site_fract_y
_atom_site_fract_z
C1 C 0.65376(15) 0.7526(3) -0.12675(14)
C2 C 0.71189(15) 0.9063(3) -0.10824(13)
C3 C 0.70105(18) 1.0276(3) -0.18117(16)
H1 H 0.6581 1.0054 -0.2427
C4 C 0.7524(2) 1.1758(3) -0.16256(18)
H2 H 0.7445 1.2531 -0.2113
C5 C 0.81606(19) 1.2113(3) -0.07155(17)
H3 H 0.8495 1.3137 -0.0590
C6 C 0.83040(17) 1.0979(3) -0.00005(16)
H4 H 0.8742 1.1239 0.0606
C7 C 0.78006(15) 0.9409(2) -0.01584(14)
C8 C 0.79454(14) 0.8203(2) 0.05942(13)
C9 C 0.73827(15) 0.6770(2) 0.03939(13)
H5 H 0.7469 0.5993 0.0881
C10 C 0.66724(14) 0.6397(2) -0.05145(13)
C11 C 0.60680(16) 0.4861(3) -0.06535(15)
C12 C 0.57254(17) 0.2323(2) 0.00134(16)
H6 H 0.5907 0.1637 -0.0450
H7 H 0.4987 0.2498 -0.0207
C13 C 0.60496(19) 0.1493(3) 0.09681(16)
H8 H 0.6784 0.1362 0.1187
H9 H 0.5729 0.0417 0.0916
H10 H 0.5844 0.2165 0.1414
C14 C 0.86641(15) 0.8515(2) 0.15732(14)
C15 C 0.83092(17) 0.8455(3) 0.23501(15)
H11 H 0.7621 0.8210 0.2256
C16 C 0.8961(2) 0.8752(3) 0.32673(15)
H12 H 0.8711 0.8693 0.3783
C17 C 0.9976(2) 0.9134(3) 0.34105(18)
H13 H 1.0412 0.9364 0.4022
C18 C 1.03444(19) 0.9174(3) 0.26535(19)
H14 H 1.1035 0.9410 0.2755
C19 C 0.96987(16) 0.8865(3) 0.17337(16)
H15 H 0.9959 0.8893 0.1224
N1 N 0.58928(13) 0.7207(2) -0.21554(11)
H16 H 0.5551 0.6289 -0.2270
H17 H 0.5825 0.7923 -0.2605
O1 O 0.54266(12) 0.44319(18) -0.13997(10)
O2 O 0.62639(10) 0.39188(17) 0.01311(10)
loop_
_geom_bond_atom_site_label_1
_geom_bond_atom_site_label_2
_geom_bond_site_symmetry_1
_geom_bond_site_symmetry_2
C1 C2 1_555 1_555
C2 C3 1_555 1_555
C3 H1 1_555 1_555
C4 C3 1_555 1_555
H2 C4 1_555 1_555
C5 C4 1_555 1_555
H3 C5 1_555 1_555
C6 C5 1_555 1_555
H4 C6 1_555 1_555
C7 C2 1_555 1_555
C8 C7 1_555 1_555
C9 C8 1_555 1_555
H5 C9 1_555 1_555
C10 C1 1_555 1_555
C11 C10 1_555 1_555
C12 H6 1_555 1_555
H7 C12 1_555 1_555
C13 C12 1_555 1_555
H8 C13 1_555 1_555
H9 C13 1_555 1_555
H10 C13 1_555 1_555
C14 C8 1_555 1_555
C15 C14 1_555 1_555
H11 C15 1_555 1_555
C16 C15 1_555 1_555
H12 C16 1_555 1_555
C17 C16 1_555 1_555
H13 C17 1_555 1_555
C18 C17 1_555 1_555
H14 C18 1_555 1_555
C19 C14 1_555 1_555
H15 C19 1_555 1_555
N1 C1 1_555 1_555
H16 N1 1_555 1_555
H17 N1 1_555 1_555
O1 C11 1_555 1_555
O2 C11 1_555 1_555
C6 C7 1_555 1_555
C9 C10 1_555 1_555
C12 O2 1_555 1_555
C18 C19 1_555 1_555

#END
