
#######################################################################
#
#                 Cambridge Crystallographic Data Centre
#                                CCDC 
#
#######################################################################
#
# If this CIF has been generated from an entry in the Cambridge 
# Structural Database, then it will include bibliographic, chemical, 
# crystal, experimental, refinement or atomic coordinate data resulting 
# from the CCDC's data processing and validation procedures.
#
#######################################################################

data_JOJLOL
_chemical_formula_moiety         'C32 H26 S4'
_chemical_name_systematic        
7,16-dipropyl[1,4]benzodithiino[2',3':6,7]naphtho[2,3-b]thianthrene
_symmetry_cell_setting           monoclinic
_symmetry_space_group_name_H-M   'P 21/c'
_symmetry_Int_Tables_number      14
_space_group_name_Hall           '-P 2ybc'
loop_
_symmetry_equiv_pos_site_id
_symmetry_equiv_pos_as_xyz
1 x,y,z
2 -x,1/2+y,1/2-z
3 -x,-y,-z
4 x,1/2-y,1/2+z
_cell_length_a                   12.2585(10)
_cell_length_b                   10.7338(8)
_cell_length_c                   10.5914(8)
_cell_angle_alpha                90
_cell_angle_beta                 108.3020(10)
_cell_angle_gamma                90
_cell_volume                     1323.12
_exptl_crystal_colour            green
_exptl_crystal_description       leaflets
_cell_formula_units_Z            2
loop_
_atom_site_label
_atom_site_type_symbol
_atom_site_fract_x
_atom_site_fract_y
_atom_site_fract_z
S1 S 0.78670(4) 0.80354(4) 0.86427(5)
S2 S 0.67903(4) 0.96298(4) 0.59678(5)
C1 C 0.57882(14) 0.55364(15) 0.61377(16)
C2 C 0.66098(14) 0.61249(15) 0.72394(17)
H1 H 0.6935 0.5667 0.8012
C3 C 0.69338(14) 0.73309(16) 0.71995(17)
C4 C 0.87451(15) 0.89419(16) 0.79676(19)
C5 C 0.99117(17) 0.90157(19) 0.8644(2)
H2 H 1.0227 0.8536 0.9403
C6 C 1.0605(2) 0.9793(2) 0.8201(3)
H3 H 1.1380 0.9871 0.8684
C7 C 1.0152(2) 1.0453(2) 0.7047(3)
H4 H 1.0627 1.0966 0.6741
C8 C 0.9002(2) 1.0365(2) 0.6333(2)
H5 H 0.8708 1.0798 0.5538
C9 C 0.82812(16) 0.96281(16) 0.6803(2)
C10 C 0.64590(15) 0.80364(15) 0.60162(17)
C11 C 0.57062(15) 0.75046(15) 0.49348(17)
H6 H 0.5416 0.7978 0.4166
C12 C 0.53403(14) 0.62377(15) 0.49316(16)
C13 C 0.45651(14) 0.57014(15) 0.37881(16)
C14 C 0.41352(15) 0.64422(16) 0.25189(17)
H7 H 0.3972 0.5874 0.1771
H8 H 0.4740 0.7000 0.2462
C15 C 0.30601(17) 0.72063(18) 0.2403(2)
H9 H 0.2421 0.6645 0.2317
H10 H 0.3180 0.7685 0.3212
C16 C 0.2755(2) 0.8085(2) 0.1228(2)
H11 H 0.3354 0.8691 0.1347
H12 H 0.2045 0.8500 0.1162
H13 H 0.2671 0.7621 0.0428
S1B S 0.21330(4) 0.19646(4) 0.13573(5)
S2B S 0.32097(4) 0.03702(4) 0.40322(5)
C1B C 0.42118(14) 0.44636(15) 0.38623(16)
C2B C 0.33902(14) 0.38751(15) 0.27606(17)
H1B H 0.3065 0.4333 0.1988
C3B C 0.30662(14) 0.26691(16) 0.28005(17)
C4B C 0.12549(15) 0.10581(16) 0.20324(19)
C5B C 0.00883(17) 0.09843(19) 0.1356(2)
H2B H -0.0227 0.1464 0.0597
C6B C -0.0605(2) 0.0207(2) 0.1799(3)
H3B H -0.1380 0.0129 0.1316
C7B C -0.0152(2) -0.0453(2) 0.2953(3)
H4B H -0.0627 -0.0966 0.3259
C8B C 0.0998(2) -0.0365(2) 0.3667(2)
H5B H 0.1292 -0.0798 0.4462
C9B C 0.17188(16) 0.03719(16) 0.3197(2)
C10B C 0.35410(15) 0.19636(15) 0.39838(17)
C11B C 0.42938(15) 0.24954(15) 0.50652(17)
H6B H 0.4584 0.2022 0.5834
C12B C 0.46597(14) 0.37623(15) 0.50684(16)
C13B C 0.54349(14) 0.42986(15) 0.62119(16)
C14B C 0.58648(15) 0.35578(16) 0.74811(17)
H7B H 0.6028 0.4126 0.8229
H8B H 0.5260 0.3000 0.7538
C15B C 0.69399(17) 0.27937(18) 0.7597(2)
H9B H 0.7579 0.3355 0.7683
H10B H 0.6820 0.2315 0.6788
C16B C 0.7245(2) 0.1915(2) 0.8772(2)
H11B H 0.6646 0.1309 0.8653
H12B H 0.7955 0.1500 0.8838
H13B H 0.7329 0.2379 0.9572
loop_
_geom_bond_atom_site_label_1
_geom_bond_atom_site_label_2
_geom_bond_site_symmetry_1
_geom_bond_site_symmetry_2
S1 C3 1_555 1_555
S2 C9 1_555 1_555
C1 C2 1_555 1_555
C2 H1 1_555 1_555
C3 C2 1_555 1_555
C4 S1 1_555 1_555
C5 C4 1_555 1_555
H2 C5 1_555 1_555
C6 C5 1_555 1_555
H3 C6 1_555 1_555
C7 C6 1_555 1_555
H4 C7 1_555 1_555
C8 C7 1_555 1_555
H5 C8 1_555 1_555
C9 C4 1_555 1_555
C10 S2 1_555 1_555
C11 C10 1_555 1_555
H6 C11 1_555 1_555
C12 C1 1_555 1_555
C13 C12 1_555 1_555
C14 C13 1_555 1_555
H7 C14 1_555 1_555
H8 C14 1_555 1_555
C15 C14 1_555 1_555
H9 C15 1_555 1_555
H10 C15 1_555 1_555
C16 C15 1_555 1_555
H11 C16 1_555 1_555
H12 C16 1_555 1_555
H13 C16 1_555 1_555
S1B C3B 1_555 1_555
S2B C9B 1_555 1_555
C1B C13 1_555 1_555
C2B C1B 1_555 1_555
H1B C2B 1_555 1_555
C3B C2B 1_555 1_555
C4B S1B 1_555 1_555
C5B C4B 1_555 1_555
H2B C5B 1_555 1_555
C6B C5B 1_555 1_555
H3B C6B 1_555 1_555
C7B C6B 1_555 1_555
H4B C7B 1_555 1_555
C8B C7B 1_555 1_555
H5B C8B 1_555 1_555
C9B C4B 1_555 1_555
C10B S2B 1_555 1_555
C11B C10B 1_555 1_555
H6B C11B 1_555 1_555
C12B C1B 1_555 1_555
C13B C1 1_555 1_555
C14B C13B 1_555 1_555
H7B C14B 1_555 1_555
H8B C14B 1_555 1_555
C15B C14B 1_555 1_555
H9B C15B 1_555 1_555
H10B C15B 1_555 1_555
C16B C15B 1_555 1_555
H11B C16B 1_555 1_555
H12B C16B 1_555 1_555
H13B C16B 1_555 1_555
C3 C10 1_555 1_555
C8 C9 1_555 1_555
C11 C12 1_555 1_555
C3B C10B 1_555 1_555
C8B C9B 1_555 1_555
C11B C12B 1_555 1_555
C12B C13B 1_555 1_555

#END
