
#######################################################################
#
#                 Cambridge Crystallographic Data Centre
#                                CCDC 
#
#######################################################################
#
# If this CIF has been generated from an entry in the Cambridge 
# Structural Database, then it will include bibliographic, chemical, 
# crystal, experimental, refinement or atomic coordinate data resulting 
# from the CCDC's data processing and validation procedures.
#
#######################################################################

data_JOJROR
_chemical_formula_moiety         'C27 H25 N1 O3'
_chemical_name_systematic        
'ethyl 3-(5-methyl-4-((4-methylphenyl)amino)-2-phenyl-1-benzofuran-3-yl)acrylate'
_symmetry_cell_setting           monoclinic
_symmetry_space_group_name_H-M   'P 21/n'
_symmetry_Int_Tables_number      14
_space_group_name_Hall           '-P 2yn'
loop_
_symmetry_equiv_pos_site_id
_symmetry_equiv_pos_as_xyz
1 x,y,z
2 1/2-x,1/2+y,1/2-z
3 -x,-y,-z
4 1/2+x,1/2-y,1/2+z
_cell_length_a                   14.295(17)
_cell_length_b                   12.339(15)
_cell_length_c                   14.295(17)
_cell_angle_alpha                90
_cell_angle_beta                 117.930(12)
_cell_angle_gamma                90
_cell_volume                     2227.74
_exptl_crystal_colour            'pale yellow'
_exptl_crystal_description       block
_cell_formula_units_Z            4
loop_
_atom_site_label
_atom_site_type_symbol
_atom_site_fract_x
_atom_site_fract_y
_atom_site_fract_z
C1 C 0.24861(15) 0.20857(16) -0.02733(17)
C2 C 0.18941(14) 0.19018(15) 0.02305(15)
C3 C 0.10844(14) 0.33728(14) 0.10219(15)
C4 C 0.11321(16) 0.44835(16) 0.12327(16)
C5 C 0.17356(18) 0.51613(16) 0.09425(18)
H1 H 0.1778 0.5893 0.1113
C6 C 0.22685(18) 0.47976(16) 0.04170(19)
H2 H 0.2645 0.5264 0.0205
C7 C 0.22117(16) 0.37000(16) 0.02225(16)
C8 C 0.16816(14) 0.29659(14) 0.05419(15)
C9 C 0.29304(16) 0.13773(17) -0.07840(18)
C10 C 0.30009(18) 0.1732(2) -0.1668(2)
H3 H 0.2788 0.2431 -0.1920
C11 C 0.3387(2) 0.1050(3) -0.2179(2)
H4 H 0.3431 0.1294 -0.2773
C12 C 0.3700(3) 0.0029(2) -0.1816(3)
H5 H 0.3941 -0.0431 -0.2172
C13 C 0.3662(3) -0.0323(2) -0.0934(3)
H6 H 0.3898 -0.1017 -0.0678
C14 C 0.3280(2) 0.0337(2) -0.0414(2)
H7 H 0.3255 0.0086 0.0188
C15 C 0.15893(14) 0.08132(14) 0.03814(15)
H8 H 0.1502 0.0310 -0.0138
C16 C 0.14218(14) 0.04486(14) 0.11570(16)
H9 H 0.1477 0.0917 0.1690
C17 C 0.11482(14) -0.06964(15) 0.11834(15)
C18 C 0.06600(17) -0.19983(15) 0.20917(18)
H10 H 0.1310 -0.2414 0.2440
H11 H 0.0209 -0.2331 0.1412
C19 C 0.0109(2) -0.1974(2) 0.2763(2)
H12 H -0.0057 -0.2701 0.2876
H13 H -0.0533 -0.1562 0.2410
H14 H 0.0563 -0.1644 0.3433
C20 C 0.04807(15) 0.24051(14) 0.21757(17)
C21 C -0.02745(17) 0.17134(16) 0.22124(19)
H15 H -0.0826 0.1452 0.1586
C22 C -0.0208(2) 0.14154(17) 0.3171(2)
H16 H -0.0718 0.0952 0.3177
C23 C 0.0594(2) 0.17839(18) 0.4122(2)
C24 C 0.13488(18) 0.24429(17) 0.40762(18)
H17 H 0.1906 0.2692 0.4704
C25 C 0.13029(16) 0.27449(15) 0.31241(17)
H18 H 0.1832 0.3182 0.3123
C26 C 0.0628(2) 0.1480(2) 0.5161(2)
H19 H 0.1234 0.1811 0.5733
H20 H 0.0677 0.0707 0.5243
H21 H -0.0005 0.1730 0.5167
C27 C 0.04949(18) 0.49774(16) 0.17199(19)
H22 H 0.0126 0.4415 0.1878
H23 H -0.0008 0.5482 0.1231
H24 H 0.0961 0.5349 0.2361
N1 N 0.03950(13) 0.26861(13) 0.11997(14)
H25 H 0.0010(16) 0.2318(16) 0.0692(17)
O1 O 0.26906(11) 0.31786(11) -0.02937(12)
O2 O 0.11592(10) -0.13914(10) 0.05953(11)
O3 O 0.08895(11) -0.08878(10) 0.19479(11)
loop_
_geom_bond_atom_site_label_1
_geom_bond_atom_site_label_2
_geom_bond_site_symmetry_1
_geom_bond_site_symmetry_2
C1 C2 1_555 1_555
C2 C8 1_555 1_555
C3 C4 1_555 1_555
C4 C5 1_555 1_555
C5 H1 1_555 1_555
C6 C5 1_555 1_555
H2 C6 1_555 1_555
C7 C6 1_555 1_555
C8 C3 1_555 1_555
C9 C1 1_555 1_555
C10 C9 1_555 1_555
H3 C10 1_555 1_555
C11 C10 1_555 1_555
H4 C11 1_555 1_555
C12 C11 1_555 1_555
H5 C12 1_555 1_555
C13 C12 1_555 1_555
H6 C13 1_555 1_555
C14 C9 1_555 1_555
H7 C14 1_555 1_555
C15 C2 1_555 1_555
H8 C15 1_555 1_555
C16 C15 1_555 1_555
H9 C16 1_555 1_555
C17 C16 1_555 1_555
C18 H10 1_555 1_555
H11 C18 1_555 1_555
C19 C18 1_555 1_555
H12 C19 1_555 1_555
H13 C19 1_555 1_555
H14 C19 1_555 1_555
C20 C21 1_555 1_555
C21 H15 1_555 1_555
C22 C21 1_555 1_555
H16 C22 1_555 1_555
C23 C22 1_555 1_555
C24 C23 1_555 1_555
H17 C24 1_555 1_555
C25 C20 1_555 1_555
H18 C25 1_555 1_555
C26 C23 1_555 1_555
H19 C26 1_555 1_555
H20 C26 1_555 1_555
H21 C26 1_555 1_555
C27 C4 1_555 1_555
H22 C27 1_555 1_555
H23 C27 1_555 1_555
H24 C27 1_555 1_555
N1 C3 1_555 1_555
H25 N1 1_555 1_555
O1 C1 1_555 1_555
O2 C17 1_555 1_555
O3 C17 1_555 1_555
C7 C8 1_555 1_555
C7 O1 1_555 1_555
C13 C14 1_555 1_555
C18 O3 1_555 1_555
C20 N1 1_555 1_555
C24 C25 1_555 1_555

#END
