
#######################################################################
#
#                 Cambridge Crystallographic Data Centre
#                                CCDC 
#
#######################################################################
#
# If this CIF has been generated from an entry in the Cambridge 
# Structural Database, then it will include bibliographic, chemical, 
# crystal, experimental, refinement or atomic coordinate data resulting 
# from the CCDC's data processing and validation procedures.
#
#######################################################################

data_JOJXAI
_chemical_formula_moiety         'C14 H9 N4 O4 1+,B1 F4 1-'
_chemical_name_systematic        
'Hydrogen bis(2-diazoniobenzoate) tetrafluoroborate'
_symmetry_cell_setting           monoclinic
_symmetry_space_group_name_H-M   'P 21/c'
_symmetry_Int_Tables_number      14
_space_group_name_Hall           '-P 2ybc'
loop_
_symmetry_equiv_pos_site_id
_symmetry_equiv_pos_as_xyz
1 x,y,z
2 -x,1/2+y,1/2-z
3 -x,-y,-z
4 x,1/2-y,1/2+z
_cell_length_a                   16.0959(10)
_cell_length_b                   7.1079(4)
_cell_length_c                   14.3430(9)
_cell_angle_alpha                90
_cell_angle_beta                 109.0970(10)
_cell_angle_gamma                90
_cell_volume                     1550.65
_exptl_crystal_colour            yellow
_exptl_crystal_description       irregular
_cell_formula_units_Z            4
loop_
_atom_site_label
_atom_site_type_symbol
_atom_site_fract_x
_atom_site_fract_y
_atom_site_fract_z
C1 C 0.58273(8) 0.08100(16) 0.24945(9)
C2 C 0.58007(8) 0.05314(17) 0.14469(9)
O1 O 0.64912(5) 0.02572(13) 0.12825(6)
O2 O 0.50280(6) 0.05843(14) 0.08106(6)
H1 H 0.5000 0.0000 0.0000
C3 C 0.66206(8) 0.08041(17) 0.32760(9)
N1 N 0.74244(7) 0.05728(14) 0.30899(7)
N2 N 0.80955(7) 0.04052(16) 0.30760(8)
C4 C 0.66941(9) 0.09776(18) 0.42590(9)
H2 H 0.7276(11) 0.095(2) 0.4749(12)
C5 C 0.59261(9) 0.11943(19) 0.44827(10)
H3 H 0.5949(10) 0.135(2) 0.5149(12)
C6 C 0.51220(9) 0.12147(19) 0.37313(10)
H4 H 0.4600(10) 0.135(2) 0.3889(11)
C7 C 0.50731(8) 0.10166(18) 0.27514(9)
H5 H 0.4521(10) 0.102(2) 0.2233(11)
C1B C 0.41727(8) -0.08100(16) -0.24945(9)
C2B C 0.41993(8) -0.05314(17) -0.14469(9)
O1B O 0.35088(5) -0.02572(13) -0.12825(6)
O2B O 0.49720(6) -0.05843(14) -0.08106(6)
C3B C 0.33794(8) -0.08041(17) -0.32760(9)
N1B N 0.25756(7) -0.05728(14) -0.30899(7)
N2B N 0.19045(7) -0.04052(16) -0.30760(8)
C4B C 0.33059(9) -0.09776(18) -0.42590(9)
H2B H 0.2724(11) -0.095(2) -0.4749(12)
C5B C 0.40739(9) -0.11943(19) -0.44827(10)
H3B H 0.4051(10) -0.135(2) -0.5149(12)
C6B C 0.48780(9) -0.12147(19) -0.37313(10)
H4B H 0.5400(10) -0.135(2) -0.3889(11)
C7B C 0.49269(8) -0.10166(18) -0.27514(9)
H5B H 0.5479(10) -0.102(2) -0.2233(11)
C8 C 0.08309(8) 0.39531(17) 0.42299(8)
C9 C 0.07909(8) 0.20284(18) 0.46554(8)
O3 O 0.14823(6) 0.11890(13) 0.50544(7)
O4 O 0.00144(6) 0.14591(13) 0.45548(7)
H6 H 0.0000 0.0000 0.5000
C10 C 0.16317(8) 0.47607(18) 0.42699(8)
N3 N 0.24220(7) 0.37775(16) 0.47400(8)
N4 N 0.30813(7) 0.32032(18) 0.50856(9)
C11 C 0.17302(8) 0.65126(18) 0.38965(9)
H7 H 0.2298(10) 0.693(2) 0.3928(11)
C12 C 0.09735(8) 0.75425(18) 0.34634(9)
H8 H 0.1008(9) 0.874(2) 0.3212(11)
C13 C 0.01606(8) 0.68060(19) 0.34097(9)
H9 H -0.0373(10) 0.755(2) 0.3111(11)
C14 C 0.00901(8) 0.50291(18) 0.37836(9)
H10 H -0.0473(10) 0.454(2) 0.3747(11)
C8B C -0.08309(8) -0.39531(17) 0.57701(8)
C9B C -0.07909(8) -0.20284(18) 0.53446(8)
O3B O -0.14823(6) -0.11890(13) 0.49456(7)
O4B O -0.00144(6) -0.14591(13) 0.54452(7)
C10B C -0.16317(8) -0.47607(18) 0.57301(8)
N3B N -0.24220(7) -0.37775(16) 0.52600(8)
N4B N -0.30813(7) -0.32032(18) 0.49144(9)
C11B C -0.17302(8) -0.65126(18) 0.61035(9)
H7B H -0.2298(10) -0.693(2) 0.6072(11)
C12B C -0.09735(8) -0.75425(18) 0.65366(9)
H8B H -0.1008(9) -0.874(2) 0.6788(11)
C13B C -0.01606(8) -0.68060(19) 0.65903(9)
H9B H 0.0373(10) -0.755(2) 0.6889(11)
C14B C -0.00901(8) -0.50291(18) 0.62164(9)
H10B H 0.0473(10) -0.454(2) 0.6253(11)
B1 B 0.25110(9) 0.0566(2) 0.24069(11)
F1 F 0.30431(5) 0.18322(11) 0.21297(6)
F2 F 0.19174(5) 0.15394(12) 0.27487(6)
F3 F 0.30233(6) -0.06169(13) 0.31389(7)
F4 F 0.20545(5) -0.05143(12) 0.15875(7)
loop_
_geom_bond_atom_site_label_1
_geom_bond_atom_site_label_2
_geom_bond_site_symmetry_1
_geom_bond_site_symmetry_2
C1 C2 1_555 1_555
C2 O1 1_555 1_555
O2 C2 1_555 1_555
H1 O2 1_555 1_555
C3 C1 1_555 1_555
N1 C3 1_555 1_555
N2 N1 1_555 1_555
C4 C3 1_555 1_555
H2 C4 1_555 1_555
C5 C4 1_555 1_555
H3 C5 1_555 1_555
C6 C5 1_555 1_555
H4 C6 1_555 1_555
C7 C1 1_555 1_555
H5 C7 1_555 1_555
C8 C9 1_555 1_555
C9 O3 1_555 1_555
O4 C9 1_555 1_555
H6 O4 1_555 1_555
C10 C8 1_555 1_555
N3 C10 1_555 1_555
N4 N3 1_555 1_555
C11 C10 1_555 1_555
H7 C11 1_555 1_555
C12 C11 1_555 1_555
H8 C12 1_555 1_555
C13 C12 1_555 1_555
H9 C13 1_555 1_555
C14 C8 1_555 1_555
H10 C14 1_555 1_555
B1 F1 1_555 1_555
F2 B1 1_555 1_555
F3 B1 1_555 1_555
F4 B1 1_555 1_555
C1B C2B 1_555 1_555
C2B O1B 1_555 1_555
O2B H1 1_555 1_555
C3B C1B 1_555 1_555
N1B C3B 1_555 1_555
N2B N1B 1_555 1_555
C4B C3B 1_555 1_555
H2B C4B 1_555 1_555
C5B C4B 1_555 1_555
H3B C5B 1_555 1_555
C6B C5B 1_555 1_555
H4B C6B 1_555 1_555
C7B C1B 1_555 1_555
H5B C7B 1_555 1_555
C8B C9B 1_555 1_555
C9B O3B 1_555 1_555
O4B H6 1_555 1_555
C10B C8B 1_555 1_555
N3B C10B 1_555 1_555
N4B N3B 1_555 1_555
C11B C10B 1_555 1_555
H7B C11B 1_555 1_555
C12B C11B 1_555 1_555
H8B C12B 1_555 1_555
C13B C12B 1_555 1_555
H9B C13B 1_555 1_555
C14B C8B 1_555 1_555
H10B C14B 1_555 1_555
C6 C7 1_555 1_555
C13 C14 1_555 1_555
C2B O2B 1_555 1_555
C6B C7B 1_555 1_555
C9B O4B 1_555 1_555
C13B C14B 1_555 1_555

#END
