
#######################################################################
#
#                 Cambridge Crystallographic Data Centre
#                                CCDC 
#
#######################################################################
#
# If this CIF has been generated from an entry in the Cambridge 
# Structural Database, then it will include bibliographic, chemical, 
# crystal, experimental, refinement or atomic coordinate data resulting 
# from the CCDC's data processing and validation procedures.
#
#######################################################################

data_JOJXAJ
_chemical_compound_source        'aerial parts of Hypericum henryi'
_chemical_formula_moiety         'C36 H54 O5'
_chemical_name_systematic        
6-(2-Hydroxypropan-2-yl)-9-methyl-10-(2-methylbutanoyl)-1,3,13-tris(3-methylbut-2-en-1-yl)-5-oxatricyclo[7.2.2.0^4,10^]tridec-3-ene-2,11-dione
_chemical_properties_biological  'cytotoxic activity'
_symmetry_cell_setting           monoclinic
_symmetry_space_group_name_H-M   'P 21'
_symmetry_Int_Tables_number      4
_space_group_name_Hall           'P 2yb'
loop_
_symmetry_equiv_pos_site_id
_symmetry_equiv_pos_as_xyz
1 x,y,z
2 -x,1/2+y,-z
_cell_length_a                   9.3216(4)
_cell_length_b                   13.2025(6)
_cell_length_c                   13.8291(6)
_cell_angle_alpha                90
_cell_angle_beta                 107.9680(10)
_cell_angle_gamma                90
_cell_volume                     1618.92
_exptl_crystal_colour            colorless
_exptl_crystal_description       piece
_cell_formula_units_Z            2
loop_
_atom_site_label
_atom_site_type_symbol
_atom_site_fract_x
_atom_site_fract_y
_atom_site_fract_z
O1 O 0.27535(18) 0.43826(13) 1.09947(12)
O2 O 0.29174(18) 0.72072(13) 0.90279(13)
O3 O -0.13138(17) 0.54022(14) 0.83400(14)
C1 C 0.3823(3) 0.6926(2) 1.35999(19)
H1 H 0.2923 0.7335 1.3283
H2 H 0.4608 0.7355 1.4048
H3 H 0.3568 0.6380 1.3998
C2 C 0.4392(3) 0.64771(19) 1.27857(18)
C3 C 0.3634(2) 0.65899(19) 1.18033(18)
H4 H 0.2707 0.6949 1.1642
C4 C 0.4111(3) 0.6201(2) 1.09219(18)
H5 H 0.4618 0.6755 1.0670
H6 H 0.4853 0.5649 1.1166
C5 C 0.2815(2) 0.58104(19) 1.00515(17)
C6 C 0.2313(2) 0.64078(17) 0.91148(18)
C7 C 0.1065(2) 0.59726(18) 0.82054(18)
C8 C 0.1798(2) 0.52472(18) 0.76068(17)
H7 H 0.1025 0.5073 0.6957
H8 H 0.2609 0.5622 0.7438
C9 C 0.2465(2) 0.42600(18) 0.81354(17)
H9 H 0.3368 0.4442 0.8720
C10 C 0.0126(2) 0.68068(19) 0.75017(19)
H10 H -0.0800 0.6492 0.7046
H11 H -0.0190 0.7307 0.7929
C11 C 0.0903(2) 0.73624(19) 0.68602(19)
H12 H 0.1726 0.7781 0.7214
C12 C 0.0573(3) 0.7338(2) 0.5850(2)
C13 C -0.0661(5) 0.6717(3) 0.5154(2)
H13 H -0.1051 0.6241 0.5555
H14 H -0.0263 0.6339 0.4682
H15 H -0.1476 0.7163 0.4768
C14 C 0.1456(3) 0.7992(3) 0.5342(2)
H16 H 0.2271 0.8334 0.5862
H17 H 0.0785 0.8498 0.4915
H18 H 0.1887 0.7567 0.4920
C15 C 0.0045(2) 0.53159(19) 0.86005(17)
C16 C 0.0843(2) 0.44597(18) 0.92953(18)
C17 C 0.2191(2) 0.48948(18) 1.01058(18)
C18 C 0.2992(2) 0.32858(18) 1.10424(17)
H19 H 0.2047 0.2942 1.1065
C19 C 0.4243(2) 0.31159(18) 1.20659(18)
O4 O 0.56086(17) 0.35796(13) 1.20350(13)
H20 H 0.6040 0.3201 1.1723
C20 C 0.4473(3) 0.19794(19) 1.22825(19)
H21 H 0.4853 0.1665 1.1768
H22 H 0.3510 0.1668 1.2261
H23 H 0.5205 0.1879 1.2957
C21 C 0.3819(3) 0.3624(2) 1.29325(18)
H24 H 0.4646 0.3543 1.3568
H25 H 0.2905 0.3307 1.3002
H26 H 0.3633 0.4346 1.2783
C22 C 0.3411(2) 0.28979(18) 1.01363(17)
H27 H 0.3955 0.2248 1.0324
H28 H 0.4114 0.3386 0.9980
C23 C 0.2073(3) 0.27334(18) 0.91737(18)
H29 H 0.1285 0.2357 0.9367
H30 H 0.2416 0.2294 0.8708
C24 C 0.1341(2) 0.36841(18) 0.85794(18)
C25 C -0.0053(3) 0.33281(19) 0.77165(18)
H31 H 0.0245 0.2795 0.7323
H32 H -0.0479 0.3901 0.7270
H33 H -0.0810 0.3061 0.8008
C26 C 0.5873(3) 0.5930(2) 1.31783(18)
H34 H 0.5975 0.5449 1.2664
H35 H 0.5909 0.5563 1.3801
H36 H 0.6701 0.6421 1.3325
C27 C -0.0306(2) 0.40511(19) 0.98301(18)
C28 C -0.0870(3) 0.48087(19) 1.04766(19)
H37 H -0.0452 0.5496 1.0422
C29 C -0.0327(3) 0.4454(2) 1.15941(19)
H38 H -0.0940 0.3865 1.1671
H39 H 0.0735 0.4227 1.1764
C30 C -0.0433(4) 0.5269(3) 1.2338(2)
H40 H 0.0200 0.5845 1.2284
H41 H -0.0087 0.4997 1.3031
H42 H -0.1483 0.5492 1.2180
C31 C -0.2603(3) 0.4846(2) 1.0087(2)
H43 H -0.3007 0.4158 1.0059
H44 H -0.2932 0.5145 0.9405
H45 H -0.2974 0.5260 1.0548
O5 O -0.07258(19) 0.31845(14) 0.97529(13)
C32 C 0.3023(3) 0.3618(2) 0.73940(19)
H46 H 0.3356 0.2950 0.7708
H47 H 0.2171 0.3502 0.6768
C33 C 0.4298(3) 0.4097(2) 0.71109(19)
H48 H 0.5238 0.4133 0.7634
C34 C 0.4269(3) 0.4479(2) 0.62106(19)
C35 C 0.5683(3) 0.4878(2) 0.6030(2)
H49 H 0.6524 0.4841 0.6664
H50 H 0.5526 0.5584 0.5804
H51 H 0.5916 0.4469 0.5507
C36 C 0.2873(4) 0.4576(4) 0.5310(2)
H52 H 0.2023 0.4254 0.5465
H53 H 0.3039 0.4242 0.4720
H54 H 0.2649 0.5294 0.5157
loop_
_geom_bond_atom_site_label_1
_geom_bond_atom_site_label_2
_geom_bond_site_symmetry_1
_geom_bond_site_symmetry_2
O1 C17 1_555 1_555
O2 C6 1_555 1_555
O3 C15 1_555 1_555
C1 H1 1_555 1_555
H2 C1 1_555 1_555
H3 C1 1_555 1_555
C2 C1 1_555 1_555
C3 C2 1_555 1_555
H4 C3 1_555 1_555
C4 C3 1_555 1_555
H5 C4 1_555 1_555
H6 C4 1_555 1_555
C5 C4 1_555 1_555
C6 C5 1_555 1_555
C7 C6 1_555 1_555
C8 C7 1_555 1_555
H7 C8 1_555 1_555
H8 C8 1_555 1_555
C9 C8 1_555 1_555
H9 C9 1_555 1_555
C10 C7 1_555 1_555
H10 C10 1_555 1_555
H11 C10 1_555 1_555
C11 C10 1_555 1_555
H12 C11 1_555 1_555
C12 C11 1_555 1_555
C13 C12 1_555 1_555
H13 C13 1_555 1_555
H14 C13 1_555 1_555
H15 C13 1_555 1_555
C14 C12 1_555 1_555
H16 C14 1_555 1_555
H17 C14 1_555 1_555
H18 C14 1_555 1_555
C15 C7 1_555 1_555
C16 C15 1_555 1_555
C17 C5 1_555 1_555
C18 O1 1_555 1_555
H19 C18 1_555 1_555
C19 C18 1_555 1_555
O4 C19 1_555 1_555
H20 O4 1_555 1_555
C20 C19 1_555 1_555
H21 C20 1_555 1_555
H22 C20 1_555 1_555
H23 C20 1_555 1_555
C21 C19 1_555 1_555
H24 C21 1_555 1_555
H25 C21 1_555 1_555
H26 C21 1_555 1_555
C22 C18 1_555 1_555
H27 C22 1_555 1_555
H28 C22 1_555 1_555
C23 C22 1_555 1_555
H29 C23 1_555 1_555
H30 C23 1_555 1_555
C24 C9 1_555 1_555
C25 C24 1_555 1_555
H31 C25 1_555 1_555
H32 C25 1_555 1_555
H33 C25 1_555 1_555
C26 C2 1_555 1_555
H34 C26 1_555 1_555
H35 C26 1_555 1_555
H36 C26 1_555 1_555
C27 C16 1_555 1_555
C28 C27 1_555 1_555
H37 C28 1_555 1_555
C29 C28 1_555 1_555
H38 C29 1_555 1_555
H39 C29 1_555 1_555
C30 C29 1_555 1_555
H40 C30 1_555 1_555
H41 C30 1_555 1_555
H42 C30 1_555 1_555
C31 C28 1_555 1_555
H43 C31 1_555 1_555
H44 C31 1_555 1_555
H45 C31 1_555 1_555
O5 C27 1_555 1_555
C32 C9 1_555 1_555
H46 C32 1_555 1_555
H47 C32 1_555 1_555
C33 C32 1_555 1_555
H48 C33 1_555 1_555
C34 C33 1_555 1_555
C35 C34 1_555 1_555
H49 C35 1_555 1_555
H50 C35 1_555 1_555
H51 C35 1_555 1_555
C36 C34 1_555 1_555
H52 C36 1_555 1_555
H53 C36 1_555 1_555
H54 C36 1_555 1_555
C16 C17 1_555 1_555
C16 C24 1_555 1_555
C23 C24 1_555 1_555

#END
