
#######################################################################
#
#                 Cambridge Crystallographic Data Centre
#                                CCDC 
#
#######################################################################
#
# If this CIF has been generated from an entry in the Cambridge 
# Structural Database, then it will include bibliographic, chemical, 
# crystal, experimental, refinement or atomic coordinate data resulting 
# from the CCDC's data processing and validation procedures.
#
#######################################################################

data_JOJZUF
_chemical_name_common            
'(2Z,3Z)-3-(acetoxy(phenyl)methylene)-2-benzylidene-1,4-diphenylcyclobutyl acetate'
_chemical_formula_moiety         'C34 H28 O4'
_chemical_name_systematic        
'(2Z,3Z)-(3-acetoxy-2-benzylidene-3,4-diphenylcyclobutylidene)(phenyl)methyl acetate'
_symmetry_cell_setting           monoclinic
_symmetry_space_group_name_H-M   'P 21/c'
_symmetry_Int_Tables_number      14
_space_group_name_Hall           '-P 2ybc'
loop_
_symmetry_equiv_pos_site_id
_symmetry_equiv_pos_as_xyz
1 x,y,z
2 -x,1/2+y,1/2-z
3 -x,-y,-z
4 x,1/2-y,1/2+z
_cell_length_a                   9.3001(6)
_cell_length_b                   17.6333(13)
_cell_length_c                   16.8483(13)
_cell_angle_alpha                90
_cell_angle_beta                 96.205(1)
_cell_angle_gamma                90
_cell_volume                     2746.79
_exptl_crystal_colour            colorless
_exptl_crystal_description       parallelepiped
_cell_formula_units_Z            4
_exptl_crystal_recrystallization_method 'ethyl acetate/hexane'
loop_
_atom_site_label
_atom_site_type_symbol
_atom_site_fract_x
_atom_site_fract_y
_atom_site_fract_z
O1 O 0.04235(14) 0.75493(7) 0.70453(8)
O2 O -0.09172(17) 0.76400(9) 0.58510(9)
O3 O -0.05848(13) 1.04511(8) 0.60138(8)
O4 O 0.09934(16) 1.08413(10) 0.70400(10)
C1 C 0.05233(19) 0.89283(11) 0.65801(12)
C2 C -0.08300(18) 0.93146(11) 0.67164(12)
C3 C -0.13044(18) 0.86682(11) 0.72359(12)
H1 H -0.1975 0.8337 0.6908
C4 C 0.03042(19) 0.83485(11) 0.72313(12)
C5 C 0.15008(19) 0.90593(12) 0.60651(12)
H2 H 0.1286 0.9471 0.5728
C6 C 0.28420(19) 0.86682(12) 0.59419(12)
C7 C 0.3422(2) 0.80597(14) 0.63947(14)
H3 H 0.2940 0.7874 0.6810
C8 C 0.4711(2) 0.77276(17) 0.62342(16)
H4 H 0.5082 0.7318 0.6539
C9 C 0.5442(2) 0.79979(19) 0.56307(16)
H5 H 0.6311 0.7777 0.5528
C10 C 0.4888(2) 0.85930(19) 0.51808(16)
H6 H 0.5378 0.8775 0.4767
C11 C 0.3610(2) 0.89277(15) 0.53342(14)
H7 H 0.3253 0.9336 0.5024
C12 C -0.13642(18) 0.99967(11) 0.65157(11)
C13 C 0.0608(2) 1.08393(12) 0.63427(15)
C14 C 0.1314(2) 1.12368(15) 0.57051(16)
H8 H 0.2061 1.1565 0.5946
H9 H 0.0606 1.1531 0.5382
H10 H 0.1730 1.0869 0.5377
C15 C -0.27049(19) 1.03532(11) 0.67268(12)
C16 C -0.2795(2) 1.11356(13) 0.68060(14)
H11 H -0.2006 1.1436 0.6717
C17 C -0.4041(2) 1.14745(14) 0.70150(16)
H12 H -0.4085 1.1999 0.7067
C18 C -0.5211(2) 1.10374(15) 0.71453(16)
H13 H -0.6044 1.1263 0.7296
C19 C -0.5149(2) 1.02656(15) 0.70528(16)
H14 H -0.5950 0.9971 0.7131
C20 C -0.3909(2) 0.99223(13) 0.68454(14)
H15 H -0.3882 0.9398 0.6785
C21 C -0.18782(19) 0.88014(12) 0.80218(12)
C22 C -0.1479(2) 0.94202(13) 0.84981(14)
H16 H -0.0855 0.9781 0.8324
C23 C -0.2000(3) 0.95078(17) 0.92329(16)
H17 H -0.1723 0.9925 0.9550
C24 C -0.2924(3) 0.8977(2) 0.94918(17)
H18 H -0.3266 0.9031 0.9987
C25 C -0.3340(3) 0.83690(19) 0.90202(18)
H19 H -0.3978 0.8014 0.9192
C26 C -0.2822(2) 0.82799(14) 0.82937(15)
H20 H -0.3111 0.7862 0.7979
C27 C -0.0186(2) 0.72729(13) 0.63370(14)
C28 C 0.0200(3) 0.64562(14) 0.62554(16)
H21 H -0.0251 0.6161 0.6638
H22 H 0.1231 0.6398 0.6349
H23 H -0.0131 0.6285 0.5726
C29 C 0.12329(19) 0.84555(12) 0.80149(12)
C30 C 0.1150(2) 0.79400(13) 0.86282(13)
H24 H 0.0540 0.7523 0.8547
C31 C 0.1958(3) 0.80335(17) 0.93571(15)
H25 H 0.1904 0.7677 0.9760
C32 C 0.2839(3) 0.86533(19) 0.94871(17)
H26 H 0.3389 0.8717 0.9977
C33 C 0.2911(3) 0.91793(18) 0.88929(17)
H27 H 0.3503 0.9602 0.8983
C34 C 0.2108(2) 0.90838(15) 0.81610(14)
H28 H 0.2157 0.9446 0.7763
loop_
_geom_bond_atom_site_label_1
_geom_bond_atom_site_label_2
_geom_bond_site_symmetry_1
_geom_bond_site_symmetry_2
O1 C4 1_555 1_555
O2 C27 1_555 1_555
O3 C12 1_555 1_555
O4 C13 1_555 1_555
C1 C2 1_555 1_555
C2 C3 1_555 1_555
C3 H1 1_555 1_555
C4 C1 1_555 1_555
C5 C1 1_555 1_555
H2 C5 1_555 1_555
C6 C5 1_555 1_555
C7 C6 1_555 1_555
H3 C7 1_555 1_555
C8 C7 1_555 1_555
H4 C8 1_555 1_555
C9 C8 1_555 1_555
H5 C9 1_555 1_555
C10 C9 1_555 1_555
H6 C10 1_555 1_555
C11 C6 1_555 1_555
H7 C11 1_555 1_555
C12 C2 1_555 1_555
C13 O3 1_555 1_555
C14 C13 1_555 1_555
H8 C14 1_555 1_555
H9 C14 1_555 1_555
H10 C14 1_555 1_555
C15 C12 1_555 1_555
C16 C15 1_555 1_555
H11 C16 1_555 1_555
C17 C16 1_555 1_555
H12 C17 1_555 1_555
C18 C17 1_555 1_555
H13 C18 1_555 1_555
C19 C18 1_555 1_555
H14 C19 1_555 1_555
C20 C15 1_555 1_555
H15 C20 1_555 1_555
C21 C3 1_555 1_555
C22 C21 1_555 1_555
H16 C22 1_555 1_555
C23 C22 1_555 1_555
H17 C23 1_555 1_555
C24 C23 1_555 1_555
H18 C24 1_555 1_555
C25 C24 1_555 1_555
H19 C25 1_555 1_555
C26 C21 1_555 1_555
H20 C26 1_555 1_555
C27 O1 1_555 1_555
C28 C27 1_555 1_555
H21 C28 1_555 1_555
H22 C28 1_555 1_555
H23 C28 1_555 1_555
C29 C4 1_555 1_555
C30 C29 1_555 1_555
H24 C30 1_555 1_555
C31 C30 1_555 1_555
H25 C31 1_555 1_555
C32 C31 1_555 1_555
H26 C32 1_555 1_555
C33 C32 1_555 1_555
H27 C33 1_555 1_555
C34 C29 1_555 1_555
H28 C34 1_555 1_555
C3 C4 1_555 1_555
C10 C11 1_555 1_555
C19 C20 1_555 1_555
C25 C26 1_555 1_555
C33 C34 1_555 1_555

#END
