
#######################################################################
#
#                 Cambridge Crystallographic Data Centre
#                                CCDC 
#
#######################################################################
#
# If this CIF has been generated from an entry in the Cambridge 
# Structural Database, then it will include bibliographic, chemical, 
# crystal, experimental, refinement or atomic coordinate data resulting 
# from the CCDC's data processing and validation procedures.
#
#######################################################################

data_JOKBES
_chemical_name_common            
"(1Z,1'Z)-(3,4-di-p-tolylcyclobutane-1,2-diylidene)bis(phenylmethanylylidene) bis(2,2-dimethylpropanoate)"
_chemical_formula_moiety         'C42 H44 O4'
_chemical_name_systematic        
"(1Z,1'Z)-(3,4-bis(4-methylphenyl)cyclobutane-1,2-diylidene)bis(phenylmethylylidene) bis(2,2-dimethylpropanoate)"
_symmetry_cell_setting           monoclinic
_symmetry_space_group_name_H-M   'C 2/c'
_symmetry_Int_Tables_number      15
_space_group_name_Hall           '-C 2yn'
loop_
_symmetry_equiv_pos_site_id
_symmetry_equiv_pos_as_xyz
1 x,y,z
2 -x,y,1/2-z
3 1/2+x,1/2+y,z
4 1/2-x,1/2+y,1/2-z
5 -x,-y,-z
6 x,-y,1/2+z
7 1/2-x,1/2-y,-z
8 1/2+x,1/2-y,1/2+z
_cell_length_a                   22.1827(5)
_cell_length_b                   14.2629(3)
_cell_length_c                   12.1482(3)
_cell_angle_alpha                90
_cell_angle_beta                 106.0720(12)
_cell_angle_gamma                90
_cell_volume                     3693.34
_exptl_crystal_colour            colorless
_exptl_crystal_description       block
_cell_formula_units_Z            4
_exptl_crystal_recrystallization_method 'ethyl acetate/hexane'
loop_
_atom_site_label
_atom_site_type_symbol
_atom_site_fract_x
_atom_site_fract_y
_atom_site_fract_z
O1 O 0.07121(3) 0.64103(4) 0.31918(5)
O2 O 0.12875(4) 0.71897(6) 0.22298(8)
C1 C 0.01984(4) 0.78742(6) 0.30917(7)
C2 C 0.01134(4) 0.89353(6) 0.31783(7)
H1 H -0.0244 0.9062 0.3483
C3 C 0.06484(4) 0.95733(6) 0.37397(7)
C4 C 0.05246(5) 1.03884(7) 0.42564(9)
H2 H 0.0113 1.0532 0.4239
C5 C 0.10030(6) 1.09937(8) 0.47996(10)
H3 H 0.0908 1.1539 0.5137
C6 C 0.16156(5) 1.07979(8) 0.48462(9)
C7 C 0.17383(5) 1.00053(8) 0.42973(11)
H4 H 0.2149 0.9875 0.4297
C8 C 0.12620(5) 0.93965(7) 0.37442(9)
H5 H 0.1356 0.8868 0.3375
C9 C 0.21363(7) 1.14457(11) 0.54843(15)
H6 H 0.2217 1.1345 0.6294
H7 H 0.2012 1.2085 0.5306
H8 H 0.2510 1.1317 0.5258
C10 C 0.06163(4) 0.72650(6) 0.37046(7)
C11 C 0.10176(4) 0.74080(6) 0.48734(8)
C12 C 0.07860(6) 0.78864(8) 0.56597(9)
H9 H 0.0368 0.8074 0.5458
C13 C 0.11681(7) 0.80898(11) 0.67443(10)
H10 H 0.1007 0.8417 0.7262
C14 C 0.17803(7) 0.78110(10) 0.70543(11)
H11 H 0.2038 0.7957 0.7778
C15 C 0.20175(6) 0.73148(10) 0.62993(11)
H12 H 0.2433 0.7116 0.6517
C16 C 0.16377(5) 0.71088(8) 0.52106(9)
H13 H 0.1799 0.6769 0.4704
C17 C 0.10646(5) 0.64692(7) 0.24344(9)
C18 C 0.11485(6) 0.55262(9) 0.19239(11)
C19 C 0.1147(2) 0.4712(2) 0.2787(3)
H14 H 0.1241 0.4130 0.2473
H15 H 0.0740 0.4671 0.2918
H16 H 0.1457 0.4834 0.3498
C20 C 0.17415(14) 0.5508(2) 0.1593(3)
H17 H 0.1751 0.6029 0.1097
H18 H 0.1769 0.4933 0.1200
H19 H 0.2090 0.5552 0.2267
C21 C 0.05751(18) 0.5399(3) 0.0917(3)
H20 H 0.0542 0.5917 0.0398
H21 H 0.0207 0.5375 0.1186
H22 H 0.0612 0.4826 0.0527
O1A O -0.07121(3) 0.64103(4) 0.18082(5)
O2A O -0.12875(4) 0.71897(6) 0.27702(8)
C1A C -0.01984(4) 0.78742(6) 0.19083(7)
C2A C -0.01134(4) 0.89353(6) 0.18217(7)
H1A H 0.0244 0.9062 0.1517
C3A C -0.06484(4) 0.95733(6) 0.12603(7)
C4A C -0.05246(5) 1.03884(7) 0.07436(9)
H2A H -0.0113 1.0532 0.0761
C5A C -0.10030(6) 1.09937(8) 0.02004(10)
H3A H -0.0908 1.1539 -0.0137
C6A C -0.16156(5) 1.07979(8) 0.01538(9)
C7A C -0.17383(5) 1.00053(8) 0.07027(11)
H4A H -0.2149 0.9875 0.0703
C8A C -0.12620(5) 0.93965(7) 0.12558(9)
H5A H -0.1356 0.8868 0.1625
C9A C -0.21363(7) 1.14457(11) -0.04843(15)
H6A H -0.2217 1.1345 -0.1294
H7A H -0.2012 1.2085 -0.0306
H8A H -0.2510 1.1317 -0.0258
C10A C -0.06163(4) 0.72650(6) 0.12954(7)
C11A C -0.10176(4) 0.74080(6) 0.01266(8)
C12A C -0.07860(6) 0.78864(8) -0.06597(9)
H9A H -0.0368 0.8074 -0.0458
C13A C -0.11681(7) 0.80898(11) -0.17443(10)
H10A H -0.1007 0.8417 -0.2262
C14A C -0.17803(7) 0.78110(10) -0.20543(11)
H11A H -0.2038 0.7957 -0.2778
C15A C -0.20175(6) 0.73148(10) -0.12993(11)
H12A H -0.2433 0.7116 -0.1517
C16A C -0.16377(5) 0.71088(8) -0.02106(9)
H13A H -0.1799 0.6769 0.0296
C17A C -0.10646(5) 0.64692(7) 0.25656(9)
C18A C -0.11485(6) 0.55262(9) 0.30761(11)
C19A C -0.1147(2) 0.4712(2) 0.2213(3)
H14A H -0.1241 0.4130 0.2527
H15A H -0.0740 0.4671 0.2082
H16A H -0.1457 0.4834 0.1502
C20A C -0.17415(14) 0.5508(2) 0.3407(3)
H17A H -0.1751 0.6029 0.3903
H18A H -0.1769 0.4933 0.3800
H19A H -0.2090 0.5552 0.2733
C21A C -0.05751(18) 0.5399(3) 0.4083(3)
H20A H -0.0542 0.5917 0.4602
H21A H -0.0207 0.5375 0.3814
H22A H -0.0612 0.4826 0.4473
C22? C 0.06907(19) 0.4809(2) 0.2011(3)
H23? H 0.0720 0.4696 0.2803
H24? H 0.0777 0.4239 0.1663
H25? H 0.0276 0.5022 0.1624
C23? C 0.1791(2) 0.5190(3) 0.2672(5)
H26? H 0.1803 0.5238 0.3466
H27? H 0.2116 0.5574 0.2526
H28? H 0.1856 0.4550 0.2491
C24? C 0.1150(3) 0.5684(3) 0.0677(3)
H29? H 0.1179 0.5090 0.0322
H30? H 0.1504 0.6065 0.0658
H31? H 0.0770 0.5994 0.0271
loop_
_geom_bond_atom_site_label_1
_geom_bond_atom_site_label_2
_geom_bond_site_symmetry_1
_geom_bond_site_symmetry_2
O1 C10 1_555 1_555
O2 C17 1_555 1_555
C1 C2 1_555 1_555
C2 H1 1_555 1_555
C3 C2 1_555 1_555
C4 C3 1_555 1_555
H2 C4 1_555 1_555
C5 C4 1_555 1_555
H3 C5 1_555 1_555
C6 C5 1_555 1_555
C7 C6 1_555 1_555
H4 C7 1_555 1_555
C8 C3 1_555 1_555
H5 C8 1_555 1_555
C9 C6 1_555 1_555
H6 C9 1_555 1_555
H7 C9 1_555 1_555
H8 C9 1_555 1_555
C10 C1 1_555 1_555
C11 C10 1_555 1_555
C12 C11 1_555 1_555
H9 C12 1_555 1_555
C13 C12 1_555 1_555
H10 C13 1_555 1_555
C14 C13 1_555 1_555
H11 C14 1_555 1_555
C15 C14 1_555 1_555
H12 C15 1_555 1_555
C16 C11 1_555 1_555
H13 C16 1_555 1_555
C17 O1 1_555 1_555
C18 C17 1_555 1_555
C19 C18 1_555 1_555
H14 C19 1_555 1_555
H15 C19 1_555 1_555
H16 C19 1_555 1_555
C20 C18 1_555 1_555
H17 C20 1_555 1_555
H18 C20 1_555 1_555
H19 C20 1_555 1_555
C21 C18 1_555 1_555
H20 C21 1_555 1_555
H21 C21 1_555 1_555
H22 C21 1_555 1_555
O1A C10A 1_555 1_555
O2A C17A 1_555 1_555
C1A C1 1_555 1_555
C2A C2 1_555 1_555
H1A C2A 1_555 1_555
C3A C2A 1_555 1_555
C4A C3A 1_555 1_555
H2A C4A 1_555 1_555
C5A C4A 1_555 1_555
H3A C5A 1_555 1_555
C6A C5A 1_555 1_555
C7A C6A 1_555 1_555
H4A C7A 1_555 1_555
C8A C3A 1_555 1_555
H5A C8A 1_555 1_555
C9A C6A 1_555 1_555
H6A C9A 1_555 1_555
H7A C9A 1_555 1_555
H8A C9A 1_555 1_555
C10A C1A 1_555 1_555
C11A C10A 1_555 1_555
C12A C11A 1_555 1_555
H9A C12A 1_555 1_555
C13A C12A 1_555 1_555
H10A C13A 1_555 1_555
C14A C13A 1_555 1_555
H11A C14A 1_555 1_555
C15A C14A 1_555 1_555
H12A C15A 1_555 1_555
C16A C11A 1_555 1_555
H13A C16A 1_555 1_555
C17A O1A 1_555 1_555
C18A C17A 1_555 1_555
C19A C18A 1_555 1_555
H14A C19A 1_555 1_555
H15A C19A 1_555 1_555
H16A C19A 1_555 1_555
C20A C18A 1_555 1_555
H17A C20A 1_555 1_555
H18A C20A 1_555 1_555
H19A C20A 1_555 1_555
C21A C18A 1_555 1_555
H20A C21A 1_555 1_555
H21A C21A 1_555 1_555
H22A C21A 1_555 1_555
C7 C8 1_555 1_555
C15 C16 1_555 1_555
C1A C2A 1_555 1_555
C7A C8A 1_555 1_555
C15A C16A 1_555 1_555

#END
