
#######################################################################
#
#                 Cambridge Crystallographic Data Centre
#                                CCDC 
#
#######################################################################
#
# If this CIF has been generated from an entry in the Cambridge 
# Structural Database, then it will include bibliographic, chemical, 
# crystal, experimental, refinement or atomic coordinate data resulting 
# from the CCDC's data processing and validation procedures.
#
#######################################################################

data_JOKCOD
_chemical_formula_moiety         'C18 H14 N2 O5'
_chemical_name_systematic        
5-nitro-6'-phenyl-5',6'-dihydrospiro[indole-3,2'-pyran]-2,4'(1H,3'H)-dione
_symmetry_cell_setting           monoclinic
_symmetry_space_group_name_H-M   'P 21/c'
_symmetry_Int_Tables_number      14
_space_group_name_Hall           '-P 2ybc'
loop_
_symmetry_equiv_pos_site_id
_symmetry_equiv_pos_as_xyz
1 x,y,z
2 -x,1/2+y,1/2-z
3 -x,-y,-z
4 x,1/2-y,1/2+z
_cell_length_a                   7.0616(10)
_cell_length_b                   21.355(3)
_cell_length_c                   10.6343(16)
_cell_angle_alpha                90
_cell_angle_beta                 98.550(2)
_cell_angle_gamma                90
_cell_volume                     1585.84
_exptl_crystal_colour            white
_exptl_crystal_description       plate
_cell_formula_units_Z            4
_exptl_crystal_recrystallization_method MeOH
loop_
_atom_site_label
_atom_site_type_symbol
_atom_site_fract_x
_atom_site_fract_y
_atom_site_fract_z
O1 O 1.54620(15) 0.37051(6) 1.27905(10)
O2 O 0.94449(13) 0.37659(4) 0.89502(8)
O3 O 1.57072(16) 0.45921(6) 1.37865(11)
O4 O 0.54817(13) 0.42840(5) 0.91642(9)
O5 O 0.50054(16) 0.27020(6) 0.95868(11)
N1 N 1.47934(17) 0.42067(6) 1.30851(11)
N2 N 0.73318(16) 0.47488(5) 1.08831(11)
H1 H 0.6560 0.5043 1.1029
C1 C 1.28025(19) 0.43520(6) 1.25624(13)
C2 C 1.18869(19) 0.39778(6) 1.15795(12)
H2 H 1.2493 0.3637 1.1267
C3 C 1.00308(18) 0.41419(6) 1.10974(12)
C4 C 0.86229(18) 0.38355(6) 1.00817(12)
C5 C 0.82226(19) 0.34868(6) 0.78822(12)
H3 H 0.7158 0.3771 0.7593
C6 C 0.94401(19) 0.34102(6) 0.68401(13)
C7 C 1.1269(2) 0.31513(7) 0.70989(14)
H4 H 1.1767 0.3036 0.7926
C8 C 1.2349(2) 0.30658(8) 0.61227(15)
H5 H 1.3557 0.2885 0.6295
C9 C 1.1631(2) 0.32494(7) 0.48854(14)
H6 H 1.2362 0.3195 0.4235
C10 C 0.91571(19) 0.46591(6) 1.15754(12)
C11 C 1.0050(2) 0.50107(6) 1.25876(13)
H7 H 0.9422 0.5340 1.2924
C12 C 1.1923(2) 0.48516(6) 1.30798(13)
H8 H 1.2584 0.5079 1.3752
C13 C 0.69321(19) 0.43118(6) 0.99494(12)
C14 C 0.79059(19) 0.32024(6) 1.05334(13)
H9 H 0.8989 0.2930 1.0804
H10 H 0.7234 0.3270 1.1254
C15 C 0.6579(2) 0.28959(6) 0.94661(13)
C16 C 0.7424(2) 0.28544(6) 0.82471(13)
H11 H 0.6446 0.2715 0.7567
H12 H 0.8445 0.2546 0.8346
C17 C 0.9825(2) 0.35131(6) 0.46306(13)
H13 H 0.9347 0.3642 0.3809
C18 C 0.87223(19) 0.35865(6) 0.56030(13)
H14 H 0.7497 0.3755 0.5423
loop_
_geom_bond_atom_site_label_1
_geom_bond_atom_site_label_2
_geom_bond_site_symmetry_1
_geom_bond_site_symmetry_2
O1 N1 1_555 1_555
O2 C4 1_555 1_555
O3 N1 1_555 1_555
O4 C13 1_555 1_555
O5 C15 1_555 1_555
N1 C1 1_555 1_555
N2 H1 1_555 1_555
C1 C2 1_555 1_555
C2 H2 1_555 1_555
C3 C2 1_555 1_555
C4 C3 1_555 1_555
C5 O2 1_555 1_555
H3 C5 1_555 1_555
C6 C5 1_555 1_555
C7 C6 1_555 1_555
H4 C7 1_555 1_555
C8 C7 1_555 1_555
H5 C8 1_555 1_555
C9 C8 1_555 1_555
H6 C9 1_555 1_555
C10 N2 1_555 1_555
C11 C10 1_555 1_555
H7 C11 1_555 1_555
C12 C1 1_555 1_555
H8 C12 1_555 1_555
C13 N2 1_555 1_555
C14 C4 1_555 1_555
H9 C14 1_555 1_555
H10 C14 1_555 1_555
C15 C14 1_555 1_555
C16 C5 1_555 1_555
H11 C16 1_555 1_555
H12 C16 1_555 1_555
C17 C9 1_555 1_555
H13 C17 1_555 1_555
C18 C6 1_555 1_555
H14 C18 1_555 1_555
C3 C10 1_555 1_555
C4 C13 1_555 1_555
C11 C12 1_555 1_555
C15 C16 1_555 1_555
C17 C18 1_555 1_555

#END
