
#######################################################################
#
#                 Cambridge Crystallographic Data Centre
#                                CCDC 
#
#######################################################################
#
# If this CIF has been generated from an entry in the Cambridge 
# Structural Database, then it will include bibliographic, chemical, 
# crystal, experimental, refinement or atomic coordinate data resulting 
# from the CCDC's data processing and validation procedures.
#
#######################################################################

data_JOKDEU
_chemical_formula_moiety         'C21 H16 O1'
_chemical_name_systematic        (Z)-1,2,3-triphenylprop-2-en-1-one
_symmetry_cell_setting           monoclinic
_symmetry_space_group_name_H-M   'P 21/n'
_symmetry_Int_Tables_number      14
_space_group_name_Hall           '-P 2yn'
loop_
_symmetry_equiv_pos_site_id
_symmetry_equiv_pos_as_xyz
1 x,y,z
2 1/2-x,1/2+y,1/2-z
3 -x,-y,-z
4 1/2+x,1/2-y,1/2+z
_cell_length_a                   9.43962(17)
_cell_length_b                   11.0396(2)
_cell_length_c                   14.6225(3)
_cell_angle_alpha                90
_cell_angle_beta                 91.1326(7)
_cell_angle_gamma                90
_cell_volume                     1523.51
_exptl_crystal_colour            colorless
_exptl_crystal_description       block
_cell_formula_units_Z            4
loop_
_atom_site_label
_atom_site_type_symbol
_atom_site_fract_x
_atom_site_fract_y
_atom_site_fract_z
O1 O 0.34037(15) 0.12029(12) 0.34689(10)
C1 C 0.3556(2) 0.22198(16) 0.37801(12)
C2 C 0.2722(2) 0.32729(18) 0.33705(13)
C3 C 0.3304(2) 0.39641(19) 0.27233(14)
C4 C 0.44587(17) 0.24557(15) 0.46067(11)
C5 C 0.42858(18) 0.35106(16) 0.51150(12)
C6 C 0.5060(2) 0.36764(18) 0.59240(13)
C7 C 0.6021(2) 0.28038(19) 0.62130(14)
C8 C 0.6216(2) 0.17596(18) 0.57049(14)
C9 C 0.54326(18) 0.15805(16) 0.49032(13)
C10 C 0.1260(2) 0.34934(19) 0.37144(13)
C11 C 0.0322(3) 0.4345(3) 0.33486(16)
C12 C -0.1016(3) 0.4510(3) 0.37187(18)
C13 C -0.1437(2) 0.38241(19) 0.44562(15)
C14 C -0.0508(2) 0.29784(19) 0.48185(14)
C15 C 0.0814(2) 0.28153(19) 0.44503(14)
C16 C 0.4719(2) 0.38797(19) 0.23154(13)
C17 C 0.5716(3) 0.29421(19) 0.24020(14)
C18 C 0.7020(3) 0.3024(2) 0.19856(17)
C19 C 0.7351(3) 0.4019(3) 0.14682(17)
C20 C 0.6382(3) 0.4946(3) 0.13650(17)
C21 C 0.5080(3) 0.4875(3) 0.17821(16)
H1 H 0.2720 0.4601 0.2494
H2 H 0.3640 0.4116 0.4909
H3 H 0.4929 0.4388 0.6278
H4 H 0.6552 0.2922 0.6765
H5 H 0.6884 0.1168 0.5905
H6 H 0.5559 0.0862 0.4556
H7 H 0.0596 0.4820 0.2840
H8 H -0.1642 0.5097 0.3462
H9 H -0.2348 0.3933 0.4708
H10 H -0.0780 0.2503 0.5327
H11 H 0.1432 0.2223 0.4709
H12 H 0.5495 0.2243 0.2750
H13 H 0.7689 0.2386 0.2059
H14 H 0.8244 0.4069 0.1183
H15 H 0.6608 0.5636 0.1007
H16 H 0.4419 0.5517 0.1703
loop_
_geom_bond_atom_site_label_1
_geom_bond_atom_site_label_2
_geom_bond_site_symmetry_1
_geom_bond_site_symmetry_2
O1 C1 1_555 1_555
C1 C2 1_555 1_555
C2 C3 1_555 1_555
C3 C16 1_555 1_555
C4 C1 1_555 1_555
C5 C4 1_555 1_555
C6 C5 1_555 1_555
C7 C6 1_555 1_555
C8 C7 1_555 1_555
C9 C4 1_555 1_555
C10 C2 1_555 1_555
C11 C10 1_555 1_555
C12 C11 1_555 1_555
C13 C12 1_555 1_555
C14 C13 1_555 1_555
C15 C10 1_555 1_555
C16 C17 1_555 1_555
C17 C18 1_555 1_555
C18 C19 1_555 1_555
C19 C20 1_555 1_555
C20 C21 1_555 1_555
C21 C16 1_555 1_555
H1 C3 1_555 1_555
H2 C5 1_555 1_555
H3 C6 1_555 1_555
H4 C7 1_555 1_555
H5 C8 1_555 1_555
H6 C9 1_555 1_555
H7 C11 1_555 1_555
H8 C12 1_555 1_555
H9 C13 1_555 1_555
H10 C14 1_555 1_555
H11 C15 1_555 1_555
H12 C17 1_555 1_555
H13 C18 1_555 1_555
H14 C19 1_555 1_555
H15 C20 1_555 1_555
H16 C21 1_555 1_555
C8 C9 1_555 1_555
C14 C15 1_555 1_555

#END
