
#######################################################################
#
#                 Cambridge Crystallographic Data Centre
#                                CCDC 
#
#######################################################################
#
# If this CIF has been generated from an entry in the Cambridge 
# Structural Database, then it will include bibliographic, chemical, 
# crystal, experimental, refinement or atomic coordinate data resulting 
# from the CCDC's data processing and validation procedures.
#
#######################################################################

data_JOKQEH
_chemical_formula_moiety         'C33 H31 N1 O6'
_chemical_name_systematic        
'4-(5,22-dioxahexacyclo[7.6.6.1^3,6^.0^2,8^.0^10,15^.0^16,21^]docosa-10,12,14,16,18,20-hexaen-7-yl) 2-methyl 5-phenylpyrrolidine-2,4-dicarboxylate unknown solvate'
_symmetry_cell_setting           hexagonal
_symmetry_space_group_name_H-M   'P 65'
_symmetry_Int_Tables_number      170
_space_group_name_Hall           'P 65'
loop_
_symmetry_equiv_pos_site_id
_symmetry_equiv_pos_as_xyz
1 x,y,z
2 -y,x-y,2/3+z
3 -x+y,-x,1/3+z
4 -x,-y,1/2+z
5 y,-x+y,1/6+z
6 x-y,x,5/6+z
_cell_length_a                   20.1509(4)
_cell_length_b                   20.1509(4)
_cell_length_c                   12.1403(3)
_cell_angle_alpha                90
_cell_angle_beta                 90
_cell_angle_gamma                120
_cell_volume                     4269.22
_exptl_crystal_colour            colorless
_exptl_crystal_description       plate
_cell_formula_units_Z            6
loop_
_atom_site_label
_atom_site_type_symbol
_atom_site_fract_x
_atom_site_fract_y
_atom_site_fract_z
C1 C 0.35615(13) 0.05553(12) 0.9564(2)
C2 C 0.41109(15) 0.04888(18) 0.6816(3)
H1 H 0.3555 0.0309 0.6701
C3 C 0.29637(13) 0.07539(13) 0.9912(2)
H2 H 0.3031 0.1219 0.9516
C4 C 0.42820(14) 0.05195(14) 0.8037(3)
H3 H 0.4099 -0.0014 0.8302
C5 C 0.21494(14) 0.00460(16) 0.9696(3)
H4 H 0.1773 0.0230 0.9769
C6 C 0.51505(13) 0.10216(13) 0.8326(2)
H5 H 0.5299 0.0680 0.8722
C7 C 0.23607(15) 0.00339(16) 1.1583(3)
H6 H 0.1947 0.0069 1.1987
C8 C 0.56994(13) 0.13557(14) 0.7301(2)
H7 H 0.6003 0.1087 0.7257
C9 C 0.52885(16) 0.12418(19) 0.6188(2)
H8 H 0.5622 0.1650 0.5652
C10 C 0.29524(17) 0.08479(15) 1.1153(3)
H9 H 0.2790 0.1223 1.1342
H10 H 0.3465 0.1022 1.1474
C11 C 0.50134(18) 0.0444(2) 0.5708(3)
H11 H 0.4925 0.0435 0.4905
H12 H 0.5388 0.0272 0.5851
C12 C 0.27036(14) -0.03038(15) 1.2351(2)
C13 C 0.62768(13) 0.22247(13) 0.74959(19)
H13 H 0.6655 0.2450 0.6880
C14 C 0.3301(3) -0.0157(3) 1.4070(3)
H14 H 0.2958 -0.0701 1.4232
H15 H 0.3407 0.0142 1.4750
H16 H 0.3783 -0.0086 1.3765
C15 C 0.66675(12) 0.22876(12) 0.8584(2)
C16 C 0.20126(13) -0.03374(15) 0.8595(3)
C17 C 0.19422(16) -0.10584(18) 0.8421(3)
H17 H 0.1982 -0.1330 0.9033
C18 C 0.74415(13) 0.25515(13) 0.8759(2)
H18 H 0.7789 0.2729 0.8157
C19 C 0.77066(14) 0.25558(15) 0.9819(2)
H19 H 0.8236 0.2739 0.9940
C20 C 0.18169(18) -0.1381(2) 0.7392(3)
H20 H 0.1768 -0.1872 0.7300
C21 C 0.1762(2) -0.0993(2) 0.6487(3)
H21 H 0.1678 -0.1212 0.5773
C22 C 0.71994(15) 0.22929(15) 1.0700(2)
H22 H 0.7384 0.2305 1.1424
C23 C 0.64151(15) 0.20099(15) 1.0523(2)
H23 H 0.6064 0.1818 1.1121
C24 C 0.1830(2) -0.0284(2) 0.6636(4)
H24 H 0.1795 -0.0012 0.6021
C25 C 0.1948(2) 0.00324(18) 0.7673(3)
H25 H 0.1987 0.0519 0.7759
C26 C 0.61603(13) 0.20133(12) 0.9471(2)
C27 C 0.53309(12) 0.17049(12) 0.9129(2)
H26 H 0.4978 0.1533 0.9778
C28 C 0.52827(12) 0.23199(12) 0.84748(19)
C29 C 0.47839(12) 0.25941(12) 0.8664(2)
H27 H 0.4431 0.2403 0.9260
C30 C 0.48082(13) 0.31564(14) 0.7965(2)
H28 H 0.4468 0.3347 0.8085
C31 C 0.53240(15) 0.34395(14) 0.7097(2)
H29 H 0.5333 0.3819 0.6623
C32 C 0.58288(14) 0.31675(15) 0.6920(2)
H30 H 0.6186 0.3362 0.6331
C33 C 0.58039(13) 0.26123(13) 0.76100(19)
N1 N 0.20190(13) -0.04660(14) 1.0627(2)
H31 H 0.233(2) -0.065(3) 1.059(4)
O1 O 0.43080(13) -0.00226(14) 0.6290(2)
O2 O 0.45623(10) 0.12122(12) 0.63251(17)
O3 O 0.38099(9) 0.07947(9) 0.85379(16)
O4 O 0.37682(10) 0.02022(10) 1.01237(19)
O5 O 0.27637(12) -0.08523(11) 1.21596(18)
O6 O 0.29421(15) 0.00998(14) 1.3279(2)
loop_
_geom_bond_atom_site_label_1
_geom_bond_atom_site_label_2
_geom_bond_site_symmetry_1
_geom_bond_site_symmetry_2
C1 C3 1_555 1_555
C2 H1 1_555 1_555
C3 H2 1_555 1_555
C4 C2 1_555 1_555
H3 C4 1_555 1_555
C5 C3 1_555 1_555
H4 C5 1_555 1_555
C6 C4 1_555 1_555
H5 C6 1_555 1_555
C7 H6 1_555 1_555
C8 C6 1_555 1_555
H7 C8 1_555 1_555
C9 C8 1_555 1_555
H8 C9 1_555 1_555
C10 C3 1_555 1_555
H9 C10 1_555 1_555
H10 C10 1_555 1_555
C11 C9 1_555 1_555
H11 C11 1_555 1_555
H12 C11 1_555 1_555
C12 C7 1_555 1_555
C13 C8 1_555 1_555
H13 C13 1_555 1_555
C14 H14 1_555 1_555
H15 C14 1_555 1_555
H16 C14 1_555 1_555
C15 C13 1_555 1_555
C16 C5 1_555 1_555
C17 C16 1_555 1_555
H17 C17 1_555 1_555
C18 C15 1_555 1_555
H18 C18 1_555 1_555
C19 C18 1_555 1_555
H19 C19 1_555 1_555
C20 C17 1_555 1_555
H20 C20 1_555 1_555
C21 C20 1_555 1_555
H21 C21 1_555 1_555
C22 C19 1_555 1_555
H22 C22 1_555 1_555
C23 C22 1_555 1_555
H23 C23 1_555 1_555
C24 C21 1_555 1_555
H24 C24 1_555 1_555
C25 C16 1_555 1_555
H25 C25 1_555 1_555
C26 C15 1_555 1_555
C27 C6 1_555 1_555
H26 C27 1_555 1_555
C28 C27 1_555 1_555
C29 C28 1_555 1_555
H27 C29 1_555 1_555
C30 C29 1_555 1_555
H28 C30 1_555 1_555
C31 C30 1_555 1_555
H29 C31 1_555 1_555
C32 C31 1_555 1_555
H30 C32 1_555 1_555
C33 C13 1_555 1_555
N1 C5 1_555 1_555
H31 N1 1_555 1_555
O1 C2 1_555 1_555
O2 C2 1_555 1_555
O3 C1 1_555 1_555
O4 C1 1_555 1_555
O5 C12 1_555 1_555
O6 C12 1_555 1_555
C4 O3 1_555 1_555
C7 C10 1_555 1_555
C7 N1 1_555 1_555
C9 O2 1_555 1_555
C11 O1 1_555 1_555
C14 O6 1_555 1_555
C23 C26 1_555 1_555
C24 C25 1_555 1_555
C26 C27 1_555 1_555
C28 C33 1_555 1_555
C32 C33 1_555 1_555

#END
