
#######################################################################
#
#                 Cambridge Crystallographic Data Centre
#                                CCDC 
#
#######################################################################
#
# If this CIF has been generated from an entry in the Cambridge 
# Structural Database, then it will include bibliographic, chemical, 
# crystal, experimental, refinement or atomic coordinate data resulting 
# from the CCDC's data processing and validation procedures.
#
#######################################################################

data_JOKWIR
_chemical_formula_moiety         'C25 H18 F6 N2 S1'
_chemical_name_systematic        
3-(3,3,4,4,5,5-hexafluoro-2-(2-methyl-5-phenyl-3-thienyl)cyclopent-1-en-1-yl)-1,2-dimethyl-1H-pyrrolo[2,3-b]pyridine
_symmetry_cell_setting           triclinic
_symmetry_space_group_name_H-M   'P -1'
_symmetry_Int_Tables_number      2
_space_group_name_Hall           '-P 1'
loop_
_symmetry_equiv_pos_site_id
_symmetry_equiv_pos_as_xyz
1 x,y,z
2 -x,-y,-z
_cell_length_a                   9.3685(9)
_cell_length_b                   11.3900(12)
_cell_length_c                   11.9094(12)
_cell_angle_alpha                85.357(5)
_cell_angle_beta                 69.878(4)
_cell_angle_gamma                72.830(5)
_cell_volume                     1139.77
_cell_formula_units_Z            2
loop_
_atom_site_label
_atom_site_type_symbol
_atom_site_fract_x
_atom_site_fract_y
_atom_site_fract_z
S1 S 0.82384(8) 0.43445(6) 1.01049(5)
C1 C 1.0933(2) 0.15334(19) 0.65180(17)
F1 F 1.3441(2) 0.1798(2) 0.43038(15)
C2 C 1.1864(2) 0.24127(19) 0.63164(17)
C3 C 1.1340(2) 0.0282(2) 0.68662(17)
F2 F 1.45898(18) 0.12979(16) 0.5613(2)
C4 C 1.0099(3) -0.0185(2) 0.68683(19)
N1 N 0.9016(2) 0.0729(2) 0.65213(18)
N2 N 0.9973(3) -0.1315(2) 0.71465(19)
C5 C 0.6463(3) 0.6558(2) 0.9461(2)
C6 C 1.1486(2) 0.3484(2) 0.68869(17)
F3 F 1.3591(3) 0.4095(3) 0.70704(18)
C7 C 0.9518(3) 0.1768(2) 0.63114(19)
C8 C 0.8981(3) 0.5167(2) 0.7997(2)
H1 H 0.9002 0.5668 0.7337
C9 C 1.0121(3) 0.4010(2) 0.79567(18)
F4 F 1.2170(3) 0.53082(16) 0.6139(2)
F5 F 1.3457(4) 0.3998(2) 0.42680(18)
F6 F 1.5350(2) 0.3300(2) 0.4958(2)
C10 C 1.3448(3) 0.2182(2) 0.5330(2)
C11 C 0.7853(3) 0.5471(2) 0.9101(2)
C12 C 0.3793(4) 0.7563(4) 1.0732(3)
H2 H 0.2887 0.7531 1.1366
C13 C 1.2734(3) 0.4134(2) 0.6341(2)
C14 C 0.9876(3) 0.3447(2) 0.90416(19)
C15 C 1.2554(3) -0.0518(2) 0.7206(2)
H3 H 1.3405 -0.0271 0.7231
C16 C 1.1171(4) -0.2045(3) 0.7462(2)
H4 H 1.1147 -0.2846 0.7666
C17 C 0.3820(4) 0.8613(4) 1.0121(3)
H5 H 0.2940 0.9301 1.0340
C18 C 0.5148(4) 0.8665(3) 0.9177(3)
H6 H 0.5161 0.9390 0.8759
C19 C 1.3848(3) 0.3404(2) 0.5194(2)
C20 C 1.2449(4) -0.1697(3) 0.7507(2)
H7 H 1.3238 -0.2257 0.7739
C21 C 0.8618(3) 0.2905(3) 0.5876(3)
H8 H 0.8416 0.2710 0.5186
H9 H 0.9227 0.3485 0.5666
H10 H 0.7628 0.3256 0.6495
C22 C 1.0838(4) 0.2259(3) 0.9359(2)
H11 H 1.0249 0.1667 0.9524
H12 H 1.1079 0.2380 1.0054
H13 H 1.1807 0.1965 0.8703
C23 C 0.5099(3) 0.6532(3) 1.0424(3)
H14 H 0.5068 0.5819 1.0860
C24 C 0.6468(3) 0.7650(3) 0.8841(3)
H15 H 0.7360 0.7697 0.8200
C25 C 0.7602(3) 0.0575(4) 0.6378(3)
H16 H 0.6677 0.1088 0.6954
H17 H 0.7603 -0.0269 0.6498
H18 H 0.7594 0.0804 0.5586
loop_
_geom_bond_atom_site_label_1
_geom_bond_atom_site_label_2
_geom_bond_site_symmetry_1
_geom_bond_site_symmetry_2
S1 C11 1_555 1_555
C1 C2 1_555 1_555
F1 C10 1_555 1_555
C2 C6 1_555 1_555
C3 C1 1_555 1_555
F2 C10 1_555 1_555
C4 C3 1_555 1_555
N1 C4 1_555 1_555
N2 C4 1_555 1_555
C5 C11 1_555 1_555
C6 C9 1_555 1_555
F3 C13 1_555 1_555
C7 C1 1_555 1_555
C8 H1 1_555 1_555
C9 C8 1_555 1_555
F4 C13 1_555 1_555
F5 C19 1_555 1_555
F6 C19 1_555 1_555
C10 C2 1_555 1_555
C11 C8 1_555 1_555
C12 H2 1_555 1_555
C13 C6 1_555 1_555
C14 S1 1_555 1_555
C15 C3 1_555 1_555
H3 C15 1_555 1_555
C16 N2 1_555 1_555
H4 C16 1_555 1_555
C17 C12 1_555 1_555
H5 C17 1_555 1_555
C18 C17 1_555 1_555
H6 C18 1_555 1_555
C19 C10 1_555 1_555
C20 C15 1_555 1_555
H7 C20 1_555 1_555
C21 C7 1_555 1_555
H8 C21 1_555 1_555
H9 C21 1_555 1_555
H10 C21 1_555 1_555
C22 C14 1_555 1_555
H11 C22 1_555 1_555
H12 C22 1_555 1_555
H13 C22 1_555 1_555
C23 C5 1_555 1_555
H14 C23 1_555 1_555
C24 C5 1_555 1_555
H15 C24 1_555 1_555
C25 N1 1_555 1_555
H16 C25 1_555 1_555
H17 C25 1_555 1_555
H18 C25 1_555 1_555
N1 C7 1_555 1_555
C9 C14 1_555 1_555
C12 C23 1_555 1_555
C13 C19 1_555 1_555
C16 C20 1_555 1_555
C18 C24 1_555 1_555

#END
