
#######################################################################
#
#                 Cambridge Crystallographic Data Centre
#                                CCDC 
#
#######################################################################
#
# If this CIF has been generated from an entry in the Cambridge 
# Structural Database, then it will include bibliographic, chemical, 
# crystal, experimental, refinement or atomic coordinate data resulting 
# from the CCDC's data processing and validation procedures.
#
#######################################################################

data_JOKXEO
_chemical_formula_moiety         'C33 H20 N4 O6,0.5(C7 H16),0.5(C4 H8 O2)'
_chemical_name_systematic        
"2'-(1,3-dioxo-1,3-dihydro-2H-isoindol-2-yl)-5'-phenyl-3'-(pyridin-3-yl)-3a',6a'-dihydro-2'H-spiro[indene-2,1'-pyrrolo[3,4-c]pyrrole]-1,3,4',6'(3'H,5'H)-tetrone ethyl acetate heptane solvate"
_symmetry_cell_setting           monoclinic
_symmetry_space_group_name_H-M   'C c'
_symmetry_Int_Tables_number      9
_space_group_name_Hall           'C -2yc'
loop_
_symmetry_equiv_pos_site_id
_symmetry_equiv_pos_as_xyz
1 x,y,z
2 x,-y,1/2+z
3 1/2+x,1/2+y,z
4 1/2+x,1/2-y,1/2+z
_cell_length_a                   24.5724(3)
_cell_length_b                   12.51212(8)
_cell_length_c                   25.5100(3)
_cell_angle_alpha                90
_cell_angle_beta                 124.1596(16)
_cell_angle_gamma                90
_cell_volume                     6490
_exptl_crystal_colour            colorless
_exptl_crystal_description       prism
_cell_formula_units_Z            8
loop_
_atom_site_label
_atom_site_type_symbol
_atom_site_fract_x
_atom_site_fract_y
_atom_site_fract_z
O1 O 0.28525(8) -0.29013(13) 0.62252(9)
O2 O 0.12817(8) -0.40047(13) 0.65278(9)
O3 O 0.25661(8) -0.23755(12) 0.75052(8)
O4 O 0.04066(9) -0.09890(15) 0.63134(9)
O5 O 0.10378(8) 0.14145(12) 0.59388(8)
O6 O 0.26547(8) -0.00616(13) 0.78476(8)
N1 N 0.20701(9) -0.37221(14) 0.63193(9)
N2 N 0.17129(9) -0.05335(14) 0.64995(9)
N3 N 0.18206(9) 0.04219(14) 0.68242(9)
N4 N 0.31569(10) 0.08907(17) 0.59702(11)
C1 C 0.14006(10) -0.22587(16) 0.61752(11)
H1 H 0.0949 -0.2177 0.5803
C2 C 0.18945(10) -0.19152(16) 0.60186(11)
H2 H 0.1662 -0.1768 0.5564
C3 C 0.23452(11) -0.28667(17) 0.61922(11)
C4 C 0.15535(10) -0.34288(17) 0.63628(11)
C5 C 0.15320(10) -0.14914(16) 0.67090(11)
C6 C 0.22271(10) -0.08835(16) 0.64002(11)
H3 H 0.2636 -0.1055 0.6807
C7 C 0.23258(11) -0.47910(16) 0.64303(11)
C8 C 0.28952(12) -0.50541(19) 0.70019(12)
H4 H 0.3115 -0.4547 0.7321
C9 C 0.31361(12) -0.6094(2) 0.70924(13)
H5 H 0.3519 -0.6285 0.7476
C10 C 0.28079(14) -0.68422(19) 0.66142(15)
H6 H 0.2969 -0.7536 0.6677
C11 C 0.22397(14) -0.6559(2) 0.60420(15)
H7 H 0.2021 -0.7065 0.5721
C12 C 0.19939(12) -0.55253(18) 0.59433(13)
H8 H 0.1614 -0.5331 0.5558
C13 C 0.20561(11) -0.19521(17) 0.73688(11)
C14 C 0.17920(11) -0.18912(18) 0.77683(11)
C15 C 0.20931(12) -0.2187(2) 0.83959(12)
H9 H 0.2520 -0.2452 0.8632
C16 C 0.17333(14) -0.2074(2) 0.86595(13)
H10 H 0.1922 -0.2263 0.9080
C17 C 0.10863(13) -0.1676(2) 0.82987(13)
H11 H 0.0857 -0.1599 0.8488
C18 C 0.07858(12) -0.1400(2) 0.76732(13)
H12 H 0.0356 -0.1146 0.7436
C19 C 0.11447(11) -0.15103(17) 0.74039(12)
C20 C 0.09352(11) -0.12770(17) 0.67465(12)
C21 C 0.14646(11) 0.13638(17) 0.64973(11)
C22 C 0.17451(11) 0.22065(17) 0.69909(12)
C23 C 0.15801(11) 0.32810(18) 0.69378(12)
H13 H 0.1251 0.3578 0.6553
C24 C 0.19300(13) 0.38936(19) 0.74870(14)
H14 H 0.1839 0.4620 0.7467
C25 C 0.24142(12) 0.34418(19) 0.80681(13)
H15 H 0.2632 0.3868 0.8429
C26 C 0.25756(12) 0.23618(19) 0.81161(12)
H16 H 0.2898 0.2057 0.8502
C27 C 0.22371(11) 0.17657(17) 0.75687(12)
C28 C 0.22977(10) 0.06130(18) 0.74718(11)
C29 C 0.23542(11) -0.00706(16) 0.60465(11)
C30 C 0.18473(11) 0.03486(17) 0.54668(12)
H17 H 0.1411 0.0174 0.5301
C31 C 0.20029(11) 0.10271(18) 0.51431(12)
H18 H 0.1675 0.1319 0.4756
C32 C 0.26646(12) 0.12660(19) 0.54109(12)
H19 H 0.2768 0.1712 0.5187
C33 C 0.29947(11) 0.02332(17) 0.62782(11)
H20 H 0.3331 -0.0034 0.6669
O7 O -0.11074(8) 0.22461(13) 0.45697(9)
O8 O 0.04476(8) 0.12302(13) 0.42244(9)
O9 O -0.08074(8) 0.28177(12) 0.32474(8)
O10 O 0.13420(8) 0.41290(16) 0.44792(9)
O11 O 0.07370(8) 0.65672(14) 0.48200(8)
O12 O -0.10369(8) 0.52263(13) 0.29509(8)
N5 N -0.03252(9) 0.14683(14) 0.44615(10)
N6 N -0.00091(9) 0.46806(14) 0.42724(10)
N7 N -0.01155(9) 0.56359(15) 0.39511(9)
N8 N -0.14553(10) 0.61699(17) 0.47544(11)
C34 C 0.03250(10) 0.29546(17) 0.45970(11)
H21 H 0.0776 0.3037 0.4970
C35 C -0.01709(10) 0.32823(17) 0.47561(11)
H22 H 0.0062 0.3434 0.5210
C36 C -0.06079(11) 0.23120(17) 0.45876(11)
C37 C 0.01801(10) 0.17918(17) 0.44062(11)
C38 C 0.01953(10) 0.37328(17) 0.40740(11)
C39 C -0.05233(10) 0.43018(17) 0.43696(11)
H23 H -0.0929 0.4116 0.3964
C40 C -0.05693(11) 0.03948(17) 0.43488(12)
C41 C -0.11213(12) 0.01209(19) 0.37653(12)
H24 H -0.1329 0.0623 0.3441
C42 C -0.13626(12) -0.0921(2) 0.36685(13)
H25 H -0.1738 -0.1116 0.3280
C43 C -0.10402(13) -0.1662(2) 0.41541(14)
H26 H -0.1196 -0.2359 0.4088
C44 C -0.04881(13) -0.1371(2) 0.47364(15)
H27 H -0.0277 -0.1872 0.5061
C45 C -0.02474(12) -0.03272(19) 0.48383(13)
H28 H 0.0122 -0.0125 0.5228
C46 C -0.03263(11) 0.33378(17) 0.33935(11)
C47 C -0.01107(12) 0.36815(19) 0.29835(12)
C48 C -0.04508(12) 0.3638(2) 0.23323(13)
H29 H -0.0870 0.3345 0.2089
C49 C -0.01469(14) 0.4047(3) 0.20512(14)
H30 H -0.0373 0.4045 0.1612
C50 C 0.04910(15) 0.4461(3) 0.24154(15)
H31 H 0.0685 0.4722 0.2216
C51 C 0.08393(13) 0.4488(2) 0.30724(14)
H32 H 0.1266 0.4755 0.3317
C52 C 0.05272(11) 0.4101(2) 0.33527(12)
C53 C 0.07821(11) 0.40273(18) 0.40312(12)
C54 C 0.02835(11) 0.65398(18) 0.42721(12)
C55 C 0.00185(11) 0.73913(18) 0.37790(12)
C56 C 0.02233(13) 0.84381(19) 0.38253(13)
H33 H 0.0573 0.8716 0.4206
C57 C -0.01145(13) 0.90586(19) 0.32787(14)
H34 H 0.0010 0.9767 0.3296
C58 C -0.06341(13) 0.8644(2) 0.27073(14)
H35 H -0.0841 0.9071 0.2347
C59 C -0.08513(12) 0.75908(19) 0.26662(12)
H36 H -0.1207 0.7315 0.2289
C60 C -0.05130(11) 0.69831(18) 0.32111(12)
C61 C -0.06229(10) 0.58572(18) 0.33118(11)
C62 C -0.06580(11) 0.51226(16) 0.47114(11)
C63 C -0.01526(11) 0.55336(17) 0.52957(12)
H37 H 0.0280 0.5319 0.5478
C64 C -0.03083(11) 0.62645(17) 0.55973(11)
H38 H 0.0019 0.6559 0.5984
C65 C -0.09604(12) 0.65522(18) 0.53150(12)
H39 H -0.1061 0.7037 0.5526
C66 C -0.12965(12) 0.54749(18) 0.44636(12)
H40 H -0.1633 0.5210 0.4072
O13 O 0.50024(11) -0.1576(2) 0.61507(12)
O14 O 0.46758(11) -0.21165(18) 0.67701(12)
C67 C 0.38637(15) -0.1448(2) 0.57644(16)
H41 H 0.3812 -0.0687 0.5714
H42 H 0.3609 -0.1715 0.5915
H43 H 0.3715 -0.1772 0.5364
C68 C 0.45726(15) -0.1713(2) 0.62322(16)
C69 C 0.53353(17) -0.2479(3) 0.72412(17)
H44 H 0.5407 -0.2468 0.7656
H45 H 0.5651 -0.2000 0.7251
C70 C 0.54361(19) -0.3595(3) 0.7091(2)
H46 H 0.5443 -0.3581 0.6718
H47 H 0.5083 -0.4044 0.7017
H48 H 0.5846 -0.3870 0.7441
C71 C 0.1819(2) 0.1178(3) 0.9052(2)
H49 H 0.1561 0.1459 0.8630
H50 H 0.1563 0.0668 0.9107
H51 H 0.2204 0.0833 0.9121
C72 C 0.20274(19) 0.2089(3) 0.9528(2)
H52 H 0.1646 0.2344 0.9513
H53 H 0.2343 0.1821 0.9952
C73 C 0.23281(17) 0.3000(3) 0.93937(18)
H54 H 0.2009 0.3254 0.8967
H55 H 0.2703 0.2729 0.9402
C74 C 0.25563(18) 0.3950(3) 0.98417(19)
H56 H 0.2185 0.4219 0.9840
H57 H 0.2885 0.3706 1.0268
C75 C 0.2837(2) 0.4838(3) 0.9685(2)
H58 H 0.2506 0.5090 0.9261
H59 H 0.3202 0.4564 0.9677
C76 C 0.3087(2) 0.5814(4) 1.0149(3)
H60 H 0.3220 0.6373 0.9980
H61 H 0.2720 0.6088 1.0153
C77 C 0.3657(3) 0.5602(5) 1.0833(3)
H62 H 0.4028 0.5339 1.0839
H63 H 0.3527 0.5080 1.1017
H64 H 0.3776 0.6254 1.1071
loop_
_geom_bond_atom_site_label_1
_geom_bond_atom_site_label_2
_geom_bond_site_symmetry_1
_geom_bond_site_symmetry_2
O1 C3 1_555 1_555
O2 C4 1_555 1_555
O3 C13 1_555 1_555
O4 C20 1_555 1_555
O5 C21 1_555 1_555
O6 C28 1_555 1_555
N1 C3 1_555 1_555
N2 N3 1_555 1_555
N3 C21 1_555 1_555
N4 C32 1_555 1_555
C1 H1 1_555 1_555
C2 C1 1_555 1_555
H2 C2 1_555 1_555
C3 C2 1_555 1_555
C4 N1 1_555 1_555
C5 N2 1_555 1_555
C6 N2 1_555 1_555
H3 C6 1_555 1_555
C7 N1 1_555 1_555
C8 C7 1_555 1_555
H4 C8 1_555 1_555
C9 C8 1_555 1_555
H5 C9 1_555 1_555
C10 C9 1_555 1_555
H6 C10 1_555 1_555
C11 C10 1_555 1_555
H7 C11 1_555 1_555
C12 C7 1_555 1_555
H8 C12 1_555 1_555
C13 C5 1_555 1_555
C14 C13 1_555 1_555
C15 C14 1_555 1_555
H9 C15 1_555 1_555
C16 C15 1_555 1_555
H10 C16 1_555 1_555
C17 C16 1_555 1_555
H11 C17 1_555 1_555
C18 C17 1_555 1_555
H12 C18 1_555 1_555
C19 C14 1_555 1_555
C20 C5 1_555 1_555
C21 C22 1_555 1_555
C22 C23 1_555 1_555
C23 H13 1_555 1_555
C24 C23 1_555 1_555
H14 C24 1_555 1_555
C25 C24 1_555 1_555
H15 C25 1_555 1_555
C26 C25 1_555 1_555
H16 C26 1_555 1_555
C27 C22 1_555 1_555
C28 N3 1_555 1_555
C29 C6 1_555 1_555
C30 C29 1_555 1_555
H17 C30 1_555 1_555
C31 C30 1_555 1_555
H18 C31 1_555 1_555
C32 C31 1_555 1_555
H19 C32 1_555 1_555
C33 N4 1_555 1_555
H20 C33 1_555 1_555
O7 C36 1_555 1_555
O8 C37 1_555 1_555
O9 C46 1_555 1_555
O10 C53 1_555 1_555
O11 C54 1_555 1_555
O12 C61 1_555 1_555
N5 C36 1_555 1_555
N6 N7 1_555 1_555
N7 C54 1_555 1_555
N8 C65 1_555 1_555
C34 H21 1_555 1_555
C35 C34 1_555 1_555
H22 C35 1_555 1_555
C36 C35 1_555 1_555
C37 N5 1_555 1_555
C38 N6 1_555 1_555
C39 N6 1_555 1_555
H23 C39 1_555 1_555
C40 N5 1_555 1_555
C41 C40 1_555 1_555
H24 C41 1_555 1_555
C42 C41 1_555 1_555
H25 C42 1_555 1_555
C43 C42 1_555 1_555
H26 C43 1_555 1_555
C44 C43 1_555 1_555
H27 C44 1_555 1_555
C45 C40 1_555 1_555
H28 C45 1_555 1_555
C46 C38 1_555 1_555
C47 C46 1_555 1_555
C48 C47 1_555 1_555
H29 C48 1_555 1_555
C49 C48 1_555 1_555
H30 C49 1_555 1_555
C50 C49 1_555 1_555
H31 C50 1_555 1_555
C51 C50 1_555 1_555
H32 C51 1_555 1_555
C52 C47 1_555 1_555
C53 C38 1_555 1_555
C54 C55 1_555 1_555
C55 C56 1_555 1_555
C56 H33 1_555 1_555
C57 C56 1_555 1_555
H34 C57 1_555 1_555
C58 C57 1_555 1_555
H35 C58 1_555 1_555
C59 C58 1_555 1_555
H36 C59 1_555 1_555
C60 C55 1_555 1_555
C61 N7 1_555 1_555
C62 C39 1_555 1_555
C63 C62 1_555 1_555
H37 C63 1_555 1_555
C64 C63 1_555 1_555
H38 C64 1_555 1_555
C65 C64 1_555 1_555
H39 C65 1_555 1_555
C66 N8 1_555 1_555
H40 C66 1_555 1_555
O13 C68 1_555 1_555
O14 C68 1_555 1_555
C67 H41 1_555 1_555
H42 C67 1_555 1_555
H43 C67 1_555 1_555
C68 C67 1_555 1_555
C69 O14 1_555 1_555
H44 C69 1_555 1_555
H45 C69 1_555 1_555
C70 C69 1_555 1_555
H46 C70 1_555 1_555
H47 C70 1_555 1_555
H48 C70 1_555 1_555
C71 H49 1_555 1_555
H50 C71 1_555 1_555
H51 C71 1_555 1_555
C72 C71 1_555 1_555
H52 C72 1_555 1_555
H53 C72 1_555 1_555
C73 C72 1_555 1_555
H54 C73 1_555 1_555
H55 C73 1_555 1_555
C74 C73 1_555 1_555
H56 C74 1_555 1_555
H57 C74 1_555 1_555
C75 C74 1_555 1_555
H58 C75 1_555 1_555
H59 C75 1_555 1_555
C76 C75 1_555 1_555
H60 C76 1_555 1_555
H61 C76 1_555 1_555
C77 C76 1_555 1_555
H62 C77 1_555 1_555
H63 C77 1_555 1_555
H64 C77 1_555 1_555
C1 C4 1_555 1_555
C1 C5 1_555 1_555
C2 C6 1_555 1_555
C11 C12 1_555 1_555
C18 C19 1_555 1_555
C19 C20 1_555 1_555
C26 C27 1_555 1_555
C27 C28 1_555 1_555
C29 C33 1_555 1_555
C34 C37 1_555 1_555
C34 C38 1_555 1_555
C35 C39 1_555 1_555
C44 C45 1_555 1_555
C51 C52 1_555 1_555
C52 C53 1_555 1_555
C59 C60 1_555 1_555
C60 C61 1_555 1_555
C62 C66 1_555 1_555

#END
