
#######################################################################
#
#                 Cambridge Crystallographic Data Centre
#                                CCDC 
#
#######################################################################
#
# If this CIF has been generated from an entry in the Cambridge 
# Structural Database, then it will include bibliographic, chemical, 
# crystal, experimental, refinement or atomic coordinate data resulting 
# from the CCDC's data processing and validation procedures.
#
#######################################################################

data_JOKXAK
_chemical_formula_moiety         'C26 H20 F6 N2 O1 S1'
_chemical_name_systematic        
3-(3,3,4,4,5,5-hexafluoro-2-(5-(4-methoxyphenyl)-2-methyl-3-thienyl)cyclopent-1-en-1-yl)-1,2-dimethyl-1H-pyrrolo[2,3-b]pyridine
_symmetry_cell_setting           triclinic
_symmetry_space_group_name_H-M   'P -1'
_symmetry_Int_Tables_number      2
_space_group_name_Hall           '-P 1'
loop_
_symmetry_equiv_pos_site_id
_symmetry_equiv_pos_as_xyz
1 x,y,z
2 -x,-y,-z
_cell_length_a                   9.3224(3)
_cell_length_b                   11.5833(3)
_cell_length_c                   11.6102(3)
_cell_angle_alpha                85.3150(10)
_cell_angle_beta                 74.2740(10)
_cell_angle_gamma                81.5730(10)
_cell_volume                     1192.6
_cell_formula_units_Z            2
loop_
_atom_site_label
_atom_site_type_symbol
_atom_site_fract_x
_atom_site_fract_y
_atom_site_fract_z
F1 F -0.4355(3) 0.9518(4) 0.8514(2)
F2 F -0.3189(4) 1.0770(2) 0.7828(3)
F3 F -0.391(3) 1.0862(7) 0.6021(8)
F4 F -0.5031(3) 0.9251(6) 0.6609(4)
F5 F -0.1905(3) 0.9497(3) 0.4929(2)
F6 F -0.3047(3) 0.8136(2) 0.5166(2)
N1 N 0.1026(3) 0.8399(2) 0.9523(2)
N2 N 0.0060(4) 0.7972(2) 1.1484(2)
O1 O 0.6465(3) 0.4225(2) 0.1504(2)
C1 C -0.0979(3) 0.8543(2) 0.8599(2)
C2 C -0.0297(3) 0.7161(2) 0.6242(2)
C3 C -0.1878(3) 0.8741(2) 0.7635(2)
C4 C -0.1391(3) 0.8308(2) 0.9823(2)
C5 C -0.0096(3) 0.8213(2) 1.0360(2)
C6 C -0.1513(3) 0.8223(2) 0.6597(2)
C7 C 0.0498(3) 0.8600(2) 0.8458(2)
C8 C 0.1715(3) 0.6005(2) 0.5042(2)
C9 C 0.2951(3) 0.5585(2) 0.4092(2)
C10 C 0.0735(3) 0.7103(2) 0.5190(2)
H1 H 0.0816 0.7709 0.4609
C11 C -0.2654(4) 0.8138(3) 1.0550(2)
H2 H -0.3545 0.8166 1.0328
C12 C -0.2571(3) 0.8858(3) 0.5759(2)
C13 C -0.0090(3) 0.6086(2) 0.6865(2)
C14 C -0.0959(4) 0.5748(3) 0.7971(3)
H3 H -0.0533 0.5939 0.8586
H4 H -0.0986 0.4920 0.8005
H5 H -0.1961 0.6149 0.8092
C15 C 0.3245(4) 0.6301(3) 0.3140(3)
H6 H 0.2686 0.7028 0.3085
C16 C 0.4429(4) 0.5886(3) 0.2254(3)
H7 H 0.4705 0.6355 0.1562
C17 C -0.2523(5) 0.7905(3) 1.1730(3)
H8 H -0.3403 0.7788 1.2312
C18 C -0.3334(3) 0.9681(3) 0.7661(2)
C19 C 0.5294(4) 0.4751(3) 0.2323(3)
C20 C 0.1440(3) 0.8894(3) 0.7393(3)
H9 H 0.2130 0.8220 0.7091
H10 H 0.1990 0.9496 0.7505
H11 H 0.0865 0.9173 0.6831
C21 C -0.3852(3) 0.9715(3) 0.6475(3)
C22 C -0.1180(5) 0.7825(3) 1.2140(3)
H12 H -0.1260 0.7652 1.2950
C23 C 0.2520(4) 0.8418(3) 0.9744(3)
H13 H 0.2492 0.8137 1.0549
H14 H 0.2764 0.9204 0.9631
H15 H 0.3269 0.7927 0.9193
C24 C 0.5014(5) 0.4017(3) 0.3270(4)
H16 H 0.5571 0.3288 0.3316
C25 C 0.3864(5) 0.4429(3) 0.4143(3)
H17 H 0.3608 0.3961 0.4838
C26 C 0.6994(5) 0.4952(4) 0.0615(4)
H18 H 0.6200 0.5300 0.0267
H19 H 0.7777 0.4536 0.0019
H20 H 0.7392 0.5553 0.0910
S1 S 0.13587(9) 0.50243(6) 0.61718(6)
F7? F -0.4583(13) 1.0591(12) 0.6048(9)
loop_
_geom_bond_atom_site_label_1
_geom_bond_atom_site_label_2
_geom_bond_site_symmetry_1
_geom_bond_site_symmetry_2
F1 C18 1_555 1_555
F2 C18 1_555 1_555
F3 C21 1_555 1_555
F4 C21 1_555 1_555
F5 C12 1_555 1_555
F6 C12 1_555 1_555
N1 C5 1_555 1_555
N2 C5 1_555 1_555
O1 C19 1_555 1_555
C1 C3 1_555 1_555
C2 C6 1_555 1_555
C3 C6 1_555 1_555
C4 C1 1_555 1_555
C5 C4 1_555 1_555
C6 C12 1_555 1_555
C7 N1 1_555 1_555
C8 C9 1_555 1_555
C9 C15 1_555 1_555
C10 C2 1_555 1_555
H1 C10 1_555 1_555
C11 C4 1_555 1_555
H2 C11 1_555 1_555
C12 C21 1_555 1_555
C13 C2 1_555 1_555
C14 C13 1_555 1_555
H3 C14 1_555 1_555
H4 C14 1_555 1_555
H5 C14 1_555 1_555
C15 H6 1_555 1_555
C16 C15 1_555 1_555
H7 C16 1_555 1_555
C17 C11 1_555 1_555
H8 C17 1_555 1_555
C18 C3 1_555 1_555
C19 C16 1_555 1_555
C20 C7 1_555 1_555
H9 C20 1_555 1_555
H10 C20 1_555 1_555
H11 C20 1_555 1_555
C21 C18 1_555 1_555
C22 N2 1_555 1_555
H12 C22 1_555 1_555
C23 N1 1_555 1_555
H13 C23 1_555 1_555
H14 C23 1_555 1_555
H15 C23 1_555 1_555
C24 C19 1_555 1_555
H16 C24 1_555 1_555
C25 C9 1_555 1_555
H17 C25 1_555 1_555
C26 O1 1_555 1_555
H18 C26 1_555 1_555
H19 C26 1_555 1_555
H20 C26 1_555 1_555
S1 C8 1_555 1_555
C1 C7 1_555 1_555
C8 C10 1_555 1_555
C13 S1 1_555 1_555
C17 C22 1_555 1_555
C24 C25 1_555 1_555

#END
