
#######################################################################
#
#                 Cambridge Crystallographic Data Centre
#                                CCDC 
#
#######################################################################
#
# If this CIF has been generated from an entry in the Cambridge 
# Structural Database, then it will include bibliographic, chemical, 
# crystal, experimental, refinement or atomic coordinate data resulting 
# from the CCDC's data processing and validation procedures.
#
#######################################################################

data_JOKYAL
_chemical_name_common            
"(2)-(4,4'-ethene-1,2-diylbis(1-benzylpyridinium))-(1,5-dinaphtho-44-crown-12)-pseudorotaxane bis(hexafluorophosphate)"
_chemical_formula_moiety         'C40 H52 O12,C26 H24 N2 2+,2(F6 P1 1-)'
_chemical_name_systematic        
"(2)-(4,4'-ethene-1,2-diylbis(1-benzylpyridinium))-(6,9,12,15,18,21,32,35,38,41,44,47-dodecaoxapentacyclo[46.4.0.0^5,52^.0^22,27^.0^26,31^]dopentaconta-1(52),2,4,22,24,26,28,30,48,50-decaene)-pseudorotaxane bis(hexafluorophosphate)"
_symmetry_cell_setting           triclinic
_symmetry_space_group_name_H-M   'P -1'
_symmetry_Int_Tables_number      2
_space_group_name_Hall           '-P 1'
loop_
_symmetry_equiv_pos_site_id
_symmetry_equiv_pos_as_xyz
1 x,y,z
2 -x,-y,-z
_cell_length_a                   10.7747(6)
_cell_length_b                   11.9983(6)
_cell_length_c                   13.4218(9)
_cell_angle_alpha                87.664(5)
_cell_angle_beta                 89.359(5)
_cell_angle_gamma                73.349(5)
_cell_volume                     1661
_exptl_crystal_colour            red
_exptl_crystal_description       block
_cell_formula_units_Z            1
loop_
_atom_site_label
_atom_site_type_symbol
_atom_site_fract_x
_atom_site_fract_y
_atom_site_fract_z
P1 P 0.25987(12) 0.33415(11) 0.57811(9)
F1 F 0.1541(13) 0.2954(13) 0.6060(12)
F2 F 0.2269(8) 0.4389(5) 0.6436(5)
F3 F 0.1805(10) 0.4113(6) 0.4995(6)
F4 F 0.3775(10) 0.3610(12) 0.5545(13)
F5 F 0.3037(8) 0.2369(5) 0.5032(5)
F6 F 0.3356(11) 0.2547(7) 0.6580(5)
O1 O 0.1897(3) 0.8274(3) -0.1183(2)
O2 O 0.3229(3) 0.5947(2) -0.0618(2)
O3 O 0.3703(3) 0.1647(3) 0.1914(2)
O4 O 0.2956(3) -0.0355(2) 0.2789(2)
O5 O 0.0836(3) -0.1183(3) 0.2208(2)
O6 O -0.1247(3) -0.0769(3) 0.0725(2)
C1 C 0.1947(5) 0.8720(4) -0.0231(4)
H1 H 0.1805 0.8340 0.0358
C2 C 0.3107(4) 0.7662(4) -0.1588(3)
H2 H 0.3799 0.7773 -0.1184
H3 H 0.3190 0.7970 -0.2257
C3 C 0.3229(4) 0.6393(4) -0.1620(3)
H4 H 0.2509 0.6275 -0.1987
H5 H 0.4028 0.5992 -0.1952
C4 C 0.3372(4) 0.4791(3) -0.0474(3)
C5 C 0.3502(4) 0.4022(4) -0.1221(3)
H6 H 0.3493 0.4283 -0.1884
C6 C 0.3647(5) 0.2843(4) -0.0988(3)
H7 H 0.3729 0.2329 -0.1502
C7 C 0.3671(4) 0.2431(4) -0.0024(3)
H8 H 0.3781 0.1643 0.0114
C8 C 0.3529(3) 0.3205(3) 0.0763(3)
C9 C 0.3371(3) 0.4400(3) 0.0547(3)
C10 C 0.3231(4) 0.5175(4) 0.1339(3)
H9 H 0.3116 0.5965 0.1206
C11 C 0.3265(5) 0.4745(4) 0.2301(3)
H10 H 0.3171 0.5254 0.2819
C12 C 0.3437(4) 0.3567(4) 0.2526(3)
H11 H 0.3475 0.3297 0.3188
C13 C 0.3548(3) 0.2812(3) 0.1779(3)
C14 C 0.4000(4) 0.1136(4) 0.2886(3)
H12 H 0.3300 0.1476 0.3340
H13 H 0.4785 0.1276 0.3127
C15 C 0.4181(4) -0.0142(4) 0.2835(4)
H14 H 0.4684 -0.0436 0.2249
H15 H 0.4650 -0.0544 0.3419
C16 C 0.3074(5) -0.1535(4) 0.2607(4)
H16 H 0.3775 -0.2035 0.3006
H17 H 0.3282 -0.1680 0.1910
C17 C 0.1858(5) -0.1814(4) 0.2854(4)
H18 H 0.1985 -0.2642 0.2796
H19 H 0.1622 -0.1621 0.3539
C18 C -0.0188(5) -0.1696(4) 0.2213(4)
H20 H -0.0360 -0.1920 0.2891
H21 H 0.0056 -0.2393 0.1828
C19 C -0.1375(5) -0.0867(5) 0.1780(4)
H22 H -0.2121 -0.1139 0.1943
H23 H -0.1509 -0.0110 0.2062
C20 C -0.2247(5) 0.0143(4) 0.0262(4)
H24 H -0.3050 0.0221 0.0624
H25 H -0.2374 -0.0062 -0.0413
O1A O -0.1897(3) 0.1726(3) 0.1183(2)
O2A O -0.3229(3) 0.4053(2) 0.0618(2)
O3A O -0.3703(3) 0.8353(3) -0.1914(2)
O4A O -0.2956(3) 1.0355(2) -0.2789(2)
O5A O -0.0836(3) 1.1183(3) -0.2208(2)
O6A O 0.1247(3) 1.0769(3) -0.0725(2)
C1A C -0.1947(5) 0.1280(4) 0.0231(4)
H1A H -0.1805 0.1660 -0.0358
C2A C -0.3107(4) 0.2338(4) 0.1588(3)
H2A H -0.3799 0.2227 0.1184
H3A H -0.3190 0.2030 0.2257
C3A C -0.3229(4) 0.3607(4) 0.1620(3)
H4A H -0.2509 0.3725 0.1987
H5A H -0.4028 0.4008 0.1952
C4A C -0.3372(4) 0.5209(3) 0.0474(3)
C5A C -0.3502(4) 0.5978(4) 0.1221(3)
H6A H -0.3493 0.5717 0.1884
C6A C -0.3647(5) 0.7157(4) 0.0988(3)
H7A H -0.3729 0.7671 0.1502
C7A C -0.3671(4) 0.7569(4) 0.0024(3)
H8A H -0.3781 0.8357 -0.0114
C8A C -0.3529(3) 0.6795(3) -0.0763(3)
C9A C -0.3371(3) 0.5600(3) -0.0547(3)
C10A C -0.3231(4) 0.4825(4) -0.1339(3)
H9A H -0.3116 0.4035 -0.1206
C11A C -0.3265(5) 0.5255(4) -0.2301(3)
H10A H -0.3171 0.4746 -0.2819
C12A C -0.3437(4) 0.6433(4) -0.2526(3)
H11A H -0.3475 0.6703 -0.3188
C13A C -0.3548(3) 0.7188(3) -0.1779(3)
C14A C -0.4000(4) 0.8864(4) -0.2886(3)
H12A H -0.3300 0.8524 -0.3340
H13A H -0.4785 0.8724 -0.3127
C15A C -0.4181(4) 1.0142(4) -0.2835(4)
H14A H -0.4684 1.0436 -0.2249
H15A H -0.4650 1.0544 -0.3419
C16A C -0.3074(5) 1.1535(4) -0.2607(4)
H16A H -0.3775 1.2035 -0.3006
H17A H -0.3282 1.1680 -0.1910
C17A C -0.1858(5) 1.1814(4) -0.2854(4)
H18A H -0.1985 1.2642 -0.2796
H19A H -0.1622 1.1621 -0.3539
C18A C 0.0188(5) 1.1696(4) -0.2213(4)
H20A H 0.0360 1.1920 -0.2891
H21A H -0.0056 1.2393 -0.1828
C19A C 0.1375(5) 1.0867(5) -0.1780(4)
H22A H 0.2121 1.1139 -0.1943
H23A H 0.1509 1.0110 -0.2062
C20A C 0.2247(5) 0.9857(4) -0.0262(4)
H24A H 0.3050 0.9779 -0.0624
H25A H 0.2374 1.0062 0.0413
N1 N 0.0362(3) 0.2570(3) 0.2836(2)
C21 C -0.3148(5) 0.2667(6) 0.4591(4)
H26 H -0.3804 0.3327 0.4757
C22 C -0.1951(5) 0.2766(4) 0.4340(4)
H27 H -0.1794 0.3488 0.4356
C23 C -0.0960(4) 0.1798(4) 0.4059(3)
C24 C -0.1217(5) 0.0733(4) 0.4068(3)
H28 H -0.0570 0.0072 0.3892
C25 C -0.2437(6) 0.0640(6) 0.4338(4)
H29 H -0.2603 -0.0079 0.4340
C26 C -0.3392(6) 0.1613(7) 0.4601(4)
H30 H -0.4206 0.1552 0.4786
C27 C 0.0366(4) 0.1883(4) 0.3794(3)
H31 H 0.0685 0.2250 0.4326
H32 H 0.0950 0.1106 0.3733
C28 C 0.0130(4) 0.3728(4) 0.2844(3)
H33 H 0.0021 0.4098 0.3448
C29 C 0.0054(4) 0.4371(4) 0.1964(3)
H34 H -0.0129 0.5177 0.1973
C30 C 0.0252(4) 0.3817(4) 0.1058(3)
C31 C 0.0517(4) 0.2623(4) 0.1089(3)
H35 H 0.0673 0.2224 0.0499
C32 C 0.0553(4) 0.2021(4) 0.1975(3)
H36 H 0.0713 0.1217 0.1982
C33 C 0.0197(4) 0.4438(4) 0.0081(3)
H37 H 0.0468 0.3985 -0.0470
N1A N -0.0362(3) 0.7430(3) -0.2836(2)
C21A C 0.3148(5) 0.7333(6) -0.4591(4)
H26A H 0.3804 0.6673 -0.4757
C22A C 0.1951(5) 0.7234(4) -0.4340(4)
H27A H 0.1794 0.6512 -0.4356
C23A C 0.0960(4) 0.8202(4) -0.4059(3)
C24A C 0.1217(5) 0.9267(4) -0.4068(3)
H28A H 0.0570 0.9928 -0.3892
C25A C 0.2437(6) 0.9360(6) -0.4338(4)
H29A H 0.2603 1.0079 -0.4340
C26A C 0.3392(6) 0.8387(7) -0.4601(4)
H30A H 0.4206 0.8448 -0.4786
C27A C -0.0366(4) 0.8117(4) -0.3794(3)
H31A H -0.0685 0.7750 -0.4326
H32A H -0.0950 0.8894 -0.3733
C28A C -0.0130(4) 0.6272(4) -0.2844(3)
H33A H -0.0021 0.5902 -0.3448
C29A C -0.0054(4) 0.5629(4) -0.1964(3)
H34A H 0.0129 0.4823 -0.1973
C30A C -0.0252(4) 0.6183(4) -0.1058(3)
C31A C -0.0517(4) 0.7377(4) -0.1089(3)
H35A H -0.0673 0.7776 -0.0499
C32A C -0.0553(4) 0.7979(4) -0.1975(3)
H36A H -0.0713 0.8783 -0.1982
C33A C -0.0197(4) 0.5562(4) -0.0081(3)
H37A H -0.0468 0.6015 0.0470
loop_
_geom_bond_atom_site_label_1
_geom_bond_atom_site_label_2
_geom_bond_site_symmetry_1
_geom_bond_site_symmetry_2
P1 F1 1_555 1_555
F2 P1 1_555 1_555
F3 P1 1_555 1_555
F4 P1 1_555 1_555
F5 P1 1_555 1_555
F6 P1 1_555 1_555
O1 C1 1_555 1_555
O2 C3 1_555 1_555
O3 C13 1_555 1_555
O4 C15 1_555 1_555
O5 C17 1_555 1_555
O6 C19 1_555 1_555
C1 H1 1_555 1_555
C2 O1 1_555 1_555
H2 C2 1_555 1_555
H3 C2 1_555 1_555
C3 C2 1_555 1_555
H4 C3 1_555 1_555
H5 C3 1_555 1_555
C4 O2 1_555 1_555
C5 C4 1_555 1_555
H6 C5 1_555 1_555
C6 C5 1_555 1_555
H7 C6 1_555 1_555
C7 C6 1_555 1_555
H8 C7 1_555 1_555
C8 C7 1_555 1_555
C9 C4 1_555 1_555
C10 C9 1_555 1_555
H9 C10 1_555 1_555
C11 C10 1_555 1_555
H10 C11 1_555 1_555
C12 C11 1_555 1_555
H11 C12 1_555 1_555
C13 C8 1_555 1_555
C14 O3 1_555 1_555
H12 C14 1_555 1_555
H13 C14 1_555 1_555
C15 C14 1_555 1_555
H14 C15 1_555 1_555
H15 C15 1_555 1_555
C16 O4 1_555 1_555
H16 C16 1_555 1_555
H17 C16 1_555 1_555
C17 C16 1_555 1_555
H18 C17 1_555 1_555
H19 C17 1_555 1_555
C18 O5 1_555 1_555
H20 C18 1_555 1_555
H21 C18 1_555 1_555
C19 C18 1_555 1_555
H22 C19 1_555 1_555
H23 C19 1_555 1_555
C20 O6 1_555 1_555
H24 C20 1_555 1_555
H25 C20 1_555 1_555
N1 C27 1_555 1_555
C21 H26 1_555 1_555
C22 C21 1_555 1_555
H27 C22 1_555 1_555
C23 C22 1_555 1_555
C24 C23 1_555 1_555
H28 C24 1_555 1_555
C25 C24 1_555 1_555
H29 C25 1_555 1_555
C26 C21 1_555 1_555
H30 C26 1_555 1_555
C27 C23 1_555 1_555
H31 C27 1_555 1_555
H32 C27 1_555 1_555
C28 N1 1_555 1_555
H33 C28 1_555 1_555
C29 C28 1_555 1_555
H34 C29 1_555 1_555
C30 C29 1_555 1_555
C31 C30 1_555 1_555
H35 C31 1_555 1_555
C32 N1 1_555 1_555
H36 C32 1_555 1_555
C33 C30 1_555 1_555
H37 C33 1_555 1_555
O1A C1A 1_555 1_555
O2A C3A 1_555 1_555
O3A C13A 1_555 1_555
O4A C15A 1_555 1_555
O5A C17A 1_555 1_555
O6A C19A 1_555 1_555
C1A C20 1_555 1_555
H1A C1A 1_555 1_555
C2A O1A 1_555 1_555
H2A C2A 1_555 1_555
H3A C2A 1_555 1_555
C3A C2A 1_555 1_555
H4A C3A 1_555 1_555
H5A C3A 1_555 1_555
C4A O2A 1_555 1_555
C5A C4A 1_555 1_555
H6A C5A 1_555 1_555
C6A C5A 1_555 1_555
H7A C6A 1_555 1_555
C7A C6A 1_555 1_555
H8A C7A 1_555 1_555
C8A C7A 1_555 1_555
C9A C4A 1_555 1_555
C10A C9A 1_555 1_555
H9A C10A 1_555 1_555
C11A C10A 1_555 1_555
H10A C11A 1_555 1_555
C12A C11A 1_555 1_555
H11A C12A 1_555 1_555
C13A C8A 1_555 1_555
C14A O3A 1_555 1_555
H12A C14A 1_555 1_555
H13A C14A 1_555 1_555
C15A C14A 1_555 1_555
H14A C15A 1_555 1_555
H15A C15A 1_555 1_555
C16A O4A 1_555 1_555
H16A C16A 1_555 1_555
H17A C16A 1_555 1_555
C17A C16A 1_555 1_555
H18A C17A 1_555 1_555
H19A C17A 1_555 1_555
C18A O5A 1_555 1_555
H20A C18A 1_555 1_555
H21A C18A 1_555 1_555
C19A C18A 1_555 1_555
H22A C19A 1_555 1_555
H23A C19A 1_555 1_555
C20A C1 1_555 1_555
H24A C20A 1_555 1_555
H25A C20A 1_555 1_555
N1A C27A 1_555 1_555
C21A H26A 1_555 1_555
C22A C21A 1_555 1_555
H27A C22A 1_555 1_555
C23A C22A 1_555 1_555
C24A C23A 1_555 1_555
H28A C24A 1_555 1_555
C25A C24A 1_555 1_555
H29A C25A 1_555 1_555
C26A C21A 1_555 1_555
H30A C26A 1_555 1_555
C27A C23A 1_555 1_555
H31A C27A 1_555 1_555
H32A C27A 1_555 1_555
C28A N1A 1_555 1_555
H33A C28A 1_555 1_555
C29A C28A 1_555 1_555
H34A C29A 1_555 1_555
C30A C29A 1_555 1_555
C31A C30A 1_555 1_555
H35A C31A 1_555 1_555
C32A N1A 1_555 1_555
H36A C32A 1_555 1_555
C33A C33 1_555 1_555
H37A C33A 1_555 1_555
C8 C9 1_555 1_555
C12 C13 1_555 1_555
C25 C26 1_555 1_555
C31 C32 1_555 1_555
O6A C20A 1_555 1_555
C8A C9A 1_555 1_555
C12A C13A 1_555 1_555
C25A C26A 1_555 1_555
C30A C33A 1_555 1_555
C31A C32A 1_555 1_555

#END
