
#######################################################################
#
#                 Cambridge Crystallographic Data Centre
#                                CCDC 
#
#######################################################################
#
# If this CIF has been generated from an entry in the Cambridge 
# Structural Database, then it will include bibliographic, chemical, 
# crystal, experimental, refinement or atomic coordinate data resulting 
# from the CCDC's data processing and validation procedures.
#
#######################################################################

data_JOLGEW
_chemical_compound_source        
'Fungus Hypoxylon fragiforme (Pers.:Fries)Kickx'
_chemical_formula_moiety         'C30 H22 O11'
_chemical_name_systematic        
3,11,13-Triacetoxy-8-acetoxymethyl-5-hydroxydibenzo(b,h)xanthen-6-one
_symmetry_cell_setting           triclinic
_symmetry_space_group_name_H-M   'P -1'
_symmetry_Int_Tables_number      2
_space_group_name_Hall           '-P 1'
loop_
_symmetry_equiv_pos_site_id
_symmetry_equiv_pos_as_xyz
1 x,y,z
2 -x,-y,-z
_cell_length_a                   8.014(2)
_cell_length_b                   10.980(9)
_cell_length_c                   15.208(9)
_cell_angle_alpha                91.60(9)
_cell_angle_beta                 92.14(7)
_cell_angle_gamma                101.24(4)
_cell_volume                     1310.78
_exptl_crystal_colour            'bright blue'
_chemical_melting_point          'above 285 deg.C'
_cell_formula_units_Z            2
loop_
_atom_site_label
_atom_site_type_symbol
_atom_site_fract_x
_atom_site_fract_y
_atom_site_fract_z
C1 C 0.0949(9) 0.0626(7) 0.3800(5)
C2 C 0.0304(10) -0.0271(8) 0.3096(5)
C3 C -0.0558(10) 0.0080(8) 0.2362(5)
C4 C -0.1170(12) -0.0798(8) 0.1695(6)
C5 C -0.0952(12) -0.1995(9) 0.1721(6)
C6 C -0.0101(12) -0.2359(9) 0.2441(6)
C7 C 0.0540(11) -0.1510(7) 0.3135(5)
C8 C 0.1443(11) -0.1896(8) 0.3891(5)
C9 C 0.2089(10) -0.0960(7) 0.4602(5)
C10 C 0.2968(10) -0.1219(8) 0.5316(5)
C11 C 0.3639(10) -0.0284(7) 0.5985(5)
C12 C 0.4608(10) -0.0503(8) 0.6758(5)
C13 C 0.5209(11) 0.0440(8) 0.7344(6)
C14 C 0.4900(11) 0.1649(7) 0.7229(5)
C15 C 0.5542(12) 0.2589(8) 0.7879(6)
C16 C 0.5192(13) 0.3724(8) 0.7779(6)
C17 C 0.4283(11) 0.4040(9) 0.7048(6)
C18 C 0.3661(11) 0.3145(8) 0.6426(5)
C19 C 0.3938(10) 0.1907(8) 0.6480(5)
C20 C 0.3330(10) 0.0907(7) 0.5869(5)
C21 C 0.1785(10) 0.0279(7) 0.4502(5)
C22 C 0.4979(11) -0.1787(8) 0.6910(6)
C23 C -0.1546(14) 0.0461(11) 0.0480(7)
C24 C -0.2728(14) 0.0568(10) -0.0286(6)
C25 C 0.6431(20) 0.5428(20) 0.8474(10)
C26 C 0.6944(20) 0.6349(11) 0.9381(8)
C27 C 0.3244(15) 0.3729(7) 0.4967(6)
C28 C 0.1971(14) 0.4179(9) 0.4380(7)
C29 C 0.3103(15) -0.2670(10) 0.8001(10)
C30 C 0.1528(19) -0.3568(10) 0.8181(10)
O1 O 0.2394(7) 0.1170(4) 0.5154(4)
O2 O 0.1652(9) -0.2984(5) 0.3969(4)
O3 O -0.2169(8) -0.0520(6) 0.0971(4)
O4 O 0.0115(9) -0.3546(6) 0.2463(4)
O5 O 0.5588(12) 0.4576(8) 0.8572(7)
O6 O 0.2584(7) 0.3485(5) 0.5771(4)
O7 O 0.3438(9) -0.2624(6) 0.7144(5)
O8 O -0.0218(10) 0.1164(7) 0.0644(4)
O9 O 0.7064(14) 0.5983(10) 0.7840(9)
O10 O 0.4650(9) 0.3599(5) 0.4790(4)
O11 O 0.3994(13) -0.2031(8) 0.8549(6)
H1 H 0.0752 0.1569 0.3762
H2 H -0.0750 0.1023 0.2314
H3 H -0.1429 -0.2647 0.1183
H4 H 0.3187 -0.2152 0.5388
H5 H 0.5957 0.0263 0.7915
H6 H 0.6315 0.2399 0.8437
H7 H 0.4088 0.4979 0.6977
H8 H 0.5933 -0.1725 0.7439
H9 H 0.5447 -0.2137 0.6316
H10 H 0.0803 -0.3675 0.3066
H11 H 0.2496 0.4375 0.3743
H12 H 0.1656 0.5012 0.4666
H13 H -0.2195 0.1361 -0.0661
H14 H -0.3994 0.0684 -0.0050
H15 H -0.2899 -0.0266 -0.0700
H16 H 0.7782 0.7201 0.9222
H17 H 0.7575 0.5872 0.9865
H18 H 0.5795 0.6559 0.9645
H19 H 0.1627 -0.4491 0.7954
H20 H 0.0460 -0.3294 0.7840
H21? H 0.0835 0.7464 0.4303
H22? H 0.1341 -0.3568 0.8181
loop_
_geom_bond_atom_site_label_1
_geom_bond_atom_site_label_2
_geom_bond_site_symmetry_1
_geom_bond_site_symmetry_2
C1 C2 1_555 1_555
C2 C3 1_555 1_555
C3 C4 1_555 1_555
C4 C5 1_555 1_555
C5 C6 1_555 1_555
C6 C7 1_555 1_555
C7 C2 1_555 1_555
C8 C7 1_555 1_555
C9 C8 1_555 1_555
C10 C9 1_555 1_555
C11 C10 1_555 1_555
C12 C11 1_555 1_555
C13 C12 1_555 1_555
C14 C13 1_555 1_555
C15 C14 1_555 1_555
C16 C15 1_555 1_555
C17 C16 1_555 1_555
C18 C17 1_555 1_555
C19 C14 1_555 1_555
C20 C11 1_555 1_555
C21 C1 1_555 1_555
C22 C12 1_555 1_555
C23 C24 1_555 1_555
C24 H13 1_555 1_555
C25 C26 1_555 1_555
C26 H16 1_555 1_555
C27 C28 1_555 1_555
C28 H11 1_555 1_555
C29 C30 1_555 1_555
C30 H19 1_555 1_555
O1 C20 1_555 1_555
O2 C8 1_555 1_555
O3 C4 1_555 1_555
O4 C6 1_555 1_555
O5 C16 1_555 1_555
O6 C18 1_555 1_555
O7 C22 1_555 1_555
O8 C23 1_555 1_555
O9 C25 1_555 1_555
O10 C27 1_555 1_555
O11 C29 1_555 1_555
H1 C1 1_555 1_555
H2 C3 1_555 1_555
H3 C5 1_555 1_555
H4 C10 1_555 1_555
H5 C13 1_555 1_555
H6 C15 1_555 1_555
H7 C17 1_555 1_555
H8 C22 1_555 1_555
H9 C22 1_555 1_555
H10 O4 1_555 1_555
H12 C28 1_555 1_555
H14 C24 1_555 1_555
H15 C24 1_555 1_555
H17 C26 1_555 1_555
H18 C26 1_555 1_555
H20 C30 1_555 1_555
C9 C21 1_555 1_555
C18 C19 1_555 1_555
C19 C20 1_555 1_555
C21 O1 1_555 1_555
C23 O3 1_555 1_555
C25 O5 1_555 1_555
C27 O6 1_555 1_555
C29 O7 1_555 1_555

#END
