
#######################################################################
#
#                 Cambridge Crystallographic Data Centre
#                                CCDC 
#
#######################################################################
#
# If this CIF has been generated from an entry in the Cambridge 
# Structural Database, then it will include bibliographic, chemical, 
# crystal, experimental, refinement or atomic coordinate data resulting 
# from the CCDC's data processing and validation procedures.
#
#######################################################################

data_JOLGUM
_chemical_formula_moiety         'C15 H10 O1'
_chemical_name_systematic        
1,2,3-Trihydrocyclohepta(3,4,5,6-def)biphenylene-2-one
_symmetry_cell_setting           monoclinic
_symmetry_space_group_name_H-M   'P 21/c'
_symmetry_Int_Tables_number      14
_space_group_name_Hall           '-P 2ybc'
loop_
_symmetry_equiv_pos_site_id
_symmetry_equiv_pos_as_xyz
1 x,y,z
2 -x,1/2+y,1/2-z
3 -x,-y,-z
4 x,1/2-y,1/2+z
_cell_length_a                   14.682(1)
_cell_length_b                   5.557(2)
_cell_length_c                   12.739(2)
_cell_angle_alpha                90
_cell_angle_beta                 96.29(1)
_cell_angle_gamma                90
_cell_volume                     1033.09
_chemical_melting_point          137-138deg.C
_cell_formula_units_Z            4
loop_
_atom_site_label
_atom_site_type_symbol
_atom_site_fract_x
_atom_site_fract_y
_atom_site_fract_z
O1 O 0.4438(1) -0.0997(3) 0.1725(1)
C1 C 0.2325(1) -0.2922(4) 0.1866(1)
C2 C 0.1557(2) -0.3561(4) 0.1154(2)
C3 C 0.0737(2) -0.2353(5) 0.1165(2)
C4 C 0.0588(1) -0.0425(4) 0.1854(2)
C5 C 0.1323(1) 0.0158(4) 0.2550(1)
C6 C 0.1837(1) 0.1741(3) 0.3441(1)
C7 C 0.1918(1) 0.3625(4) 0.4128(1)
C8 C 0.2801(1) 0.3939(4) 0.4682(1)
C9 C 0.3552(1) 0.2521(4) 0.4550(1)
C10 C 0.3473(1) 0.0573(3) 0.3836(1)
C11 C 0.2618(1) 0.0319(4) 0.3346(1)
C12 C 0.2138(1) -0.1143(4) 0.2518(1)
C13 C 0.4191(1) -0.1181(4) 0.3530(1)
C14 C 0.4003(1) -0.1956(4) 0.2368(2)
C15 C 0.3297(1) -0.3886(4) 0.1980(2)
H1 H 0.1616(2) -0.4871(4) 0.0627(2)
H2 H 0.0207(2) -0.2890(5) 0.0659(2)
H3 H -0.0011(1) 0.0441(4) 0.1832(2)
H4 H 0.1389(1) 0.4699(4) 0.4234(1)
H5 H 0.2883(1) 0.5264(4) 0.5215(1)
H6 H 0.4159(1) 0.2889(4) 0.4956(1)
H7 H 0.4811(1) -0.0419(4) 0.3640(1)
H8 H 0.4180(1) -0.2636(4) 0.3990(1)
H9 H 0.3339(1) -0.5253(4) 0.2493(2)
H10 H 0.3443(1) -0.4476(4) 0.1276(2)
loop_
_geom_bond_atom_site_label_1
_geom_bond_atom_site_label_2
_geom_bond_site_symmetry_1
_geom_bond_site_symmetry_2
O1 C14 1_555 1_555
C1 C2 1_555 1_555
C2 C3 1_555 1_555
C3 C4 1_555 1_555
C4 C5 1_555 1_555
C5 C6 1_555 1_555
C6 C7 1_555 1_555
C7 C8 1_555 1_555
C8 C9 1_555 1_555
C9 C10 1_555 1_555
C10 C11 1_555 1_555
C11 C6 1_555 1_555
C12 C1 1_555 1_555
C13 C10 1_555 1_555
C14 C13 1_555 1_555
C15 C1 1_555 1_555
H1 C2 1_555 1_555
H2 C3 1_555 1_555
H3 C4 1_555 1_555
H4 C7 1_555 1_555
H5 C8 1_555 1_555
H6 C9 1_555 1_555
H7 C13 1_555 1_555
H8 C13 1_555 1_555
H9 C15 1_555 1_555
H10 C15 1_555 1_555
C5 C12 1_555 1_555
C11 C12 1_555 1_555
C14 C15 1_555 1_555

#END
