
#######################################################################
#
#                 Cambridge Crystallographic Data Centre
#                                CCDC 
#
#######################################################################
#
# If this CIF has been generated from an entry in the Cambridge 
# Structural Database, then it will include bibliographic, chemical, 
# crystal, experimental, refinement or atomic coordinate data resulting 
# from the CCDC's data processing and validation procedures.
#
#######################################################################

data_JOLHAT
_chemical_formula_moiety         'C14 H6 Se4'
_chemical_name_systematic        
Phenanthro(1,10-cd:8,9-c'd')bis(1,2)diselenole
_symmetry_cell_setting           monoclinic
_symmetry_space_group_name_H-M   'P 21'
_symmetry_Int_Tables_number      4
_space_group_name_Hall           'P 2yb'
loop_
_symmetry_equiv_pos_site_id
_symmetry_equiv_pos_as_xyz
1 x,y,z
2 -x,1/2+y,-z
_cell_length_a                   10.475(2)
_cell_length_b                   4.1029(5)
_cell_length_c                   15.253(2)
_cell_angle_alpha                90
_cell_angle_beta                 109.78(1)
_cell_angle_gamma                90
_cell_volume                     616.864
_exptl_crystal_colour            black
_chemical_melting_point          256deg.C(dec)
_cell_formula_units_Z            2
loop_
_atom_site_label
_atom_site_type_symbol
_atom_site_fract_x
_atom_site_fract_y
_atom_site_fract_z
Se1 Se -0.1308(1) -0.0049 0.19192(9)
Se2 Se 0.0014(1) 0.1273(5) 0.10025(7)
Se3 Se 0.2911(1) 0.0544(5) 0.05458(6)
Se4 Se 0.5173(1) -0.1229(5) 0.09760(6)
C1 C 0.5108(10) -0.3000(30) 0.21145(65)
C2 C 0.6241(11) -0.4562(37) 0.27209(74)
C3 C 0.6178(11) -0.5775(36) 0.35627(74)
C4 C 0.5015(12) -0.5468(37) 0.38007(74)
C5 C 0.3852(10) -0.3928(30) 0.31726(66)
C6 C 0.2575(11) -0.3681(33) 0.33544(65)
C7 C 0.2423(13) -0.4991(39) 0.41865(71)
C8 C 0.1166(12) -0.4748(46) 0.43113(75)
C9 C 0.0060(12) -0.3241(42) 0.36624(77)
C10 C 0.0198(11) -0.1936(37) 0.28573(72)
C11 C 0.1448(11) -0.2144(30) 0.26955(66)
C12 C 0.1559(10) -0.0854(32) 0.18492(65)
C13 C 0.2740(10) -0.1074(30) 0.16679(60)
C14 C 0.3912(10) -0.2676(29) 0.23186(65)
loop_
_geom_bond_atom_site_label_1
_geom_bond_atom_site_label_2
_geom_bond_site_symmetry_1
_geom_bond_site_symmetry_2
Se1 Se2 1_555 1_555
Se2 C12 1_555 1_555
Se3 Se4 1_555 1_555
Se4 C1 1_555 1_555
C1 C2 1_555 1_555
C2 C3 1_555 1_555
C3 C4 1_555 1_555
C4 C5 1_555 1_555
C5 C6 1_555 1_555
C6 C7 1_555 1_555
C7 C8 1_555 1_555
C8 C9 1_555 1_555
C9 C10 1_555 1_555
C10 Se1 1_555 1_555
C11 C6 1_555 1_555
C12 C11 1_555 1_555
C13 Se3 1_555 1_555
C14 C1 1_555 1_555
C5 C14 1_555 1_555
C10 C11 1_555 1_555
C12 C13 1_555 1_555
C13 C14 1_555 1_555

#END
