
#######################################################################
#
#                 Cambridge Crystallographic Data Centre
#                                CCDC 
#
#######################################################################
#
# If this CIF has been generated from an entry in the Cambridge 
# Structural Database, then it will include bibliographic, chemical, 
# crystal, experimental, refinement or atomic coordinate data resulting 
# from the CCDC's data processing and validation procedures.
#
#######################################################################

data_JOLYOA
_chemical_formula_moiety         'C59 H15 F25 N6'
_chemical_name_systematic        
'2,7,12,17,27-pentakis(Pentafluorophenyl)-21,23,31,33,34,35-hexa-azaoctacyclo[16.12.2.1^3,6^.1^8,11^.1^13,16^.0^21,32^.0^22,26^.0^28,31^]pentatriaconta-1,3,5,7,9,11(34),12,14,16,18(32),19,22(26),24,27,29-pentadecaene unknown solvate'
_symmetry_cell_setting           monoclinic
_symmetry_space_group_name_H-M   'P 21/n'
_symmetry_Int_Tables_number      14
_space_group_name_Hall           '-P 2yn'
loop_
_symmetry_equiv_pos_site_id
_symmetry_equiv_pos_as_xyz
1 x,y,z
2 1/2-x,1/2+y,1/2-z
3 -x,-y,-z
4 1/2+x,1/2-y,1/2+z
_cell_length_a                   15.8802(7)
_cell_length_b                   18.9667(8)
_cell_length_c                   27.3127(10)
_cell_angle_alpha                90
_cell_angle_beta                 106.116(2)
_cell_angle_gamma                90
_cell_volume                     7903.16
_cell_formula_units_Z            4
loop_
_atom_site_label
_atom_site_type_symbol
_atom_site_fract_x
_atom_site_fract_y
_atom_site_fract_z
C1 C 0.0372(2) 0.38543(19) 0.25931(14)
C2 C 0.0753(3) 0.3073(2) 0.32375(15)
H1 H 0.0970 0.2880 0.3570
C3 C 0.0409(3) 0.2705(2) 0.27998(15)
H2 H 0.0356 0.2207 0.2774
C4 C 0.0140(3) 0.3188(2) 0.23863(15)
C5 C -0.0443(2) 0.30137(18) 0.18784(14)
C6 C -0.0339(3) 0.24220(19) 0.16159(15)
C7 C -0.0946(3) 0.2042(2) 0.12185(16)
H3 H -0.1540 0.2168 0.1065
C8 C -0.0537(3) 0.1481(2) 0.11004(15)
H4 H -0.0796 0.1133 0.0854
C9 C 0.0363(3) 0.1488(2) 0.14073(14)
C10 C 0.1075(3) 0.10551(19) 0.13826(14)
C11 C 0.1956(3) 0.12576(19) 0.16453(14)
C12 C 0.2744(3) 0.0855(2) 0.17292(15)
H5 H 0.2799 0.0397 0.1600
C13 C 0.3385(3) 0.1242(2) 0.20217(16)
H6 H 0.3984 0.1110 0.2145
C14 C 0.2995(3) 0.1915(2) 0.21200(15)
C15 C 0.3361(2) 0.25031(19) 0.23798(14)
C16 C 0.2886(2) 0.31501(18) 0.23624(13)
C17 C 0.2915(3) 0.3661(2) 0.27318(14)
H7 H 0.3336 0.3690 0.3055
C18 C 0.2219(3) 0.4124(2) 0.25437(16)
H8 H 0.2077 0.4519 0.2720
C19 C 0.1775(2) 0.39135(18) 0.20620(13)
C20 C 0.1026(2) 0.42538(18) 0.16988(14)
C21 C 0.0391(2) 0.45862(18) 0.18693(14)
C22 C -0.0290(2) 0.50621(18) 0.16107(13)
H9 H -0.0412 0.5192 0.1262
C23 C -0.0735(3) 0.53001(19) 0.19365(14)
H10 H -0.1222 0.5613 0.1855
C24 C -0.0341(2) 0.49960(19) 0.24232(14)
C25 C -0.0414(3) 0.51690(19) 0.29006(14)
C26 C 0.0207(3) 0.4930(2) 0.33630(15)
C27 C 0.0430(3) 0.5295(2) 0.38464(16)
H11 H 0.0175 0.5719 0.3924
C28 C 0.1083(4) 0.4909(2) 0.41711(17)
H12 H 0.1341 0.5018 0.4520
C29 C 0.0764(3) 0.43550(19) 0.34340(14)
C30 C -0.1250(2) 0.34422(19) 0.16794(15)
C31 C -0.1812(3) 0.3620(2) 0.19886(16)
C32 C -0.2572(3) 0.4000(2) 0.1796(2)
C33 C -0.2803(3) 0.4218(3) 0.1298(2)
C34 C -0.2270(3) 0.4078(3) 0.09947(19)
C35 C -0.1513(3) 0.3701(2) 0.11864(16)
C36 C 0.0906(3) 0.0423(2) 0.10571(15)
C37 C 0.0358(3) -0.0132(2) 0.11273(18)
C38 C 0.0171(3) -0.0699(2) 0.08186(18)
C39 C 0.0540(3) -0.0785(2) 0.04185(18)
C40 C 0.1092(3) -0.0257(2) 0.03323(16)
C41 C 0.1268(3) 0.0324(2) 0.06511(16)
C42 C 0.4262(3) 0.2507(2) 0.27212(15)
C43 C 0.4549(3) 0.2047(2) 0.31277(15)
C44 C 0.5366(4) 0.2107(3) 0.34711(18)
C45 C 0.5939(3) 0.2624(3) 0.3420(2)
C46 C 0.5700(3) 0.3076(3) 0.3026(2)
C47 C 0.4886(3) 0.3022(2) 0.26835(17)
C48 C 0.0999(2) 0.42919(19) 0.11527(14)
C49 C 0.0845(3) 0.3697(2) 0.08316(15)
C50 C 0.0798(3) 0.3745(2) 0.03228(15)
C51 C 0.0935(3) 0.4384(2) 0.01133(16)
C52 C 0.1109(3) 0.4968(2) 0.04168(16)
C53 C 0.1131(3) 0.49221(19) 0.09263(14)
C54 C -0.1157(3) 0.5647(2) 0.29320(15)
C55 C -0.1930(3) 0.5394(3) 0.2984(2)
C56 C -0.2624(4) 0.5823(3) 0.2988(2)
C57 C -0.2552(4) 0.6520(3) 0.2946(2)
C58 C -0.1766(4) 0.6824(3) 0.2910(2)
C59 C -0.1099(3) 0.6358(2) 0.28949(18)
F1 F -0.16242(17) 0.33873(13) 0.24633(10)
F2 F -0.3111(2) 0.41211(17) 0.20821(13)
F3 F -0.3557(2) 0.4581(2) 0.11028(14)
F4 F -0.2472(2) 0.43271(18) 0.05137(12)
F5 F -0.10120(17) 0.35851(14) 0.08673(9)
F6 F -0.0007(2) -0.00906(15) 0.15155(12)
F7 F -0.0366(3) -0.12213(17) 0.09053(14)
F8 F 0.0350(2) -0.13325(16) 0.01141(12)
F9 F 0.1453(2) -0.03267(16) -0.00459(11)
F10 F 0.17663(18) 0.08233(13) 0.05347(10)
F11 F 0.4016(2) 0.15552(14) 0.32004(10)
F12 F 0.5603(2) 0.16756(17) 0.38778(11)
F13 F 0.6721(3) 0.2695(2) 0.37767(15)
F14 F 0.6261(2) 0.35876(19) 0.29630(15)
F15 F 0.46929(19) 0.34678(15) 0.22908(11)
F16 F 0.07166(17) 0.30718(12) 0.10156(9)
F17 F 0.0655(2) 0.31658(16) 0.00331(10)
F18 F 0.0929(2) 0.44371(16) -0.03780(11)
F19 F 0.1230(2) 0.55904(14) 0.02189(10)
F20 F 0.12957(18) 0.55112(12) 0.12077(9)
F21 F -0.2036(2) 0.46943(19) 0.30186(17)
F22 F -0.3381(3) 0.5536(2) 0.3032(2)
F23 F -0.3226(3) 0.6967(2) 0.29349(17)
F24 F -0.1709(3) 0.75086(18) 0.28545(17)
F25 F -0.0378(2) 0.66701(16) 0.28223(15)
N1 N 0.0730(2) 0.37779(17) 0.31108(12)
N2 N 0.0447(2) 0.20393(16) 0.17295(12)
H13 H 0.0922 0.2143 0.1974
N3 N 0.2111(2) 0.18773(17) 0.18801(13)
N4 N 0.2185(2) 0.33345(16) 0.19508(12)
H14 H 0.2030 0.3107 0.1659
N5 N 0.0317(2) 0.45173(15) 0.23664(11)
N6 N 0.1306(3) 0.43498(18) 0.39236(13)
H15 H 0.1722 0.4041 0.4053
loop_
_geom_bond_atom_site_label_1
_geom_bond_atom_site_label_2
_geom_bond_site_symmetry_1
_geom_bond_site_symmetry_2
C1 C4 1_555 1_555
C2 H1 1_555 1_555
C3 C2 1_555 1_555
H2 C3 1_555 1_555
C4 C3 1_555 1_555
C5 C4 1_555 1_555
C6 C5 1_555 1_555
C7 C6 1_555 1_555
H3 C7 1_555 1_555
C8 C7 1_555 1_555
H4 C8 1_555 1_555
C9 C8 1_555 1_555
C10 C9 1_555 1_555
C11 C10 1_555 1_555
C12 C11 1_555 1_555
H5 C12 1_555 1_555
C13 C12 1_555 1_555
H6 C13 1_555 1_555
C14 C13 1_555 1_555
C15 C14 1_555 1_555
C16 C15 1_555 1_555
C17 C16 1_555 1_555
H7 C17 1_555 1_555
C18 C17 1_555 1_555
H8 C18 1_555 1_555
C19 C18 1_555 1_555
C20 C19 1_555 1_555
C21 C20 1_555 1_555
C22 C21 1_555 1_555
H9 C22 1_555 1_555
C23 C22 1_555 1_555
H10 C23 1_555 1_555
C24 C23 1_555 1_555
C25 C24 1_555 1_555
C26 C25 1_555 1_555
C27 C26 1_555 1_555
H11 C27 1_555 1_555
C28 C27 1_555 1_555
H12 C28 1_555 1_555
C29 C26 1_555 1_555
C30 C5 1_555 1_555
C31 C30 1_555 1_555
C32 C31 1_555 1_555
C33 C32 1_555 1_555
C34 C33 1_555 1_555
C35 C30 1_555 1_555
C36 C10 1_555 1_555
C37 C36 1_555 1_555
C38 C37 1_555 1_555
C39 C38 1_555 1_555
C40 C39 1_555 1_555
C41 C36 1_555 1_555
C42 C15 1_555 1_555
C43 C42 1_555 1_555
C44 C43 1_555 1_555
C45 C44 1_555 1_555
C46 C45 1_555 1_555
C47 C42 1_555 1_555
C48 C20 1_555 1_555
C49 C48 1_555 1_555
C50 C49 1_555 1_555
C51 C50 1_555 1_555
C52 C51 1_555 1_555
C53 C48 1_555 1_555
C54 C25 1_555 1_555
C55 C54 1_555 1_555
C56 C55 1_555 1_555
C57 C56 1_555 1_555
C58 C57 1_555 1_555
C59 C54 1_555 1_555
F1 C31 1_555 1_555
F2 C32 1_555 1_555
F3 C33 1_555 1_555
F4 C34 1_555 1_555
F5 C35 1_555 1_555
F6 C37 1_555 1_555
F7 C38 1_555 1_555
F8 C39 1_555 1_555
F9 C40 1_555 1_555
F10 C41 1_555 1_555
F11 C43 1_555 1_555
F12 C44 1_555 1_555
F13 C45 1_555 1_555
F14 C46 1_555 1_555
F15 C47 1_555 1_555
F16 C49 1_555 1_555
F17 C50 1_555 1_555
F18 C51 1_555 1_555
F19 C52 1_555 1_555
F20 C53 1_555 1_555
F21 C55 1_555 1_555
F22 C56 1_555 1_555
F23 C57 1_555 1_555
F24 C58 1_555 1_555
F25 C59 1_555 1_555
N1 C1 1_555 1_555
N2 C6 1_555 1_555
H13 N2 1_555 1_555
N3 C11 1_555 1_555
N4 C16 1_555 1_555
H14 N4 1_555 1_555
N5 C1 1_555 1_555
N6 C28 1_555 1_555
H15 N6 1_555 1_555
C2 N1 1_555 1_555
C9 N2 1_555 1_555
C14 N3 1_555 1_555
C19 N4 1_555 1_555
C21 N5 1_555 1_555
C24 N5 1_555 1_555
C29 N1 1_555 1_555
C29 N6 1_555 1_555
C34 C35 1_555 1_555
C40 C41 1_555 1_555
C46 C47 1_555 1_555
C52 C53 1_555 1_555
C58 C59 1_555 1_555

#END
