
#######################################################################
#
#                 Cambridge Crystallographic Data Centre
#                                CCDC 
#
#######################################################################
#
# If this CIF has been generated from an entry in the Cambridge 
# Structural Database, then it will include bibliographic, chemical, 
# crystal, experimental, refinement or atomic coordinate data resulting 
# from the CCDC's data processing and validation procedures.
#
#######################################################################

data_JOMCIZ
_chemical_formula_moiety         'C37 H21 Cl1 O3'
_chemical_name_systematic        
(4-Chlorophenyl)(2-(10-hydroxy-9-phenanthryl)phenanthro[9,10-b]furan-3-yl)methanone
_symmetry_cell_setting           monoclinic
_symmetry_space_group_name_H-M   'P 21/n'
_symmetry_Int_Tables_number      14
_space_group_name_Hall           '-P 2yn'
loop_
_symmetry_equiv_pos_site_id
_symmetry_equiv_pos_as_xyz
1 x,y,z
2 1/2-x,1/2+y,1/2-z
3 -x,-y,-z
4 1/2+x,1/2-y,1/2+z
_cell_length_a                   11.6682(12)
_cell_length_b                   13.4448(15)
_cell_length_c                   17.071(2)
_cell_angle_alpha                90
_cell_angle_beta                 93.091(5)
_cell_angle_gamma                90
_cell_volume                     2674.14
_exptl_crystal_colour            yellow
_exptl_crystal_description       block
_cell_formula_units_Z            4
loop_
_atom_site_label
_atom_site_type_symbol
_atom_site_fract_x
_atom_site_fract_y
_atom_site_fract_z
C1 C 0.40391(18) 0.20554(15) 0.31866(12)
H1 H 0.3254 0.2178 0.3152
C2 C 0.4531(2) 0.15068(17) 0.26111(13)
H2 H 0.4082 0.1250 0.2192
C3 C 0.5692(2) 0.13462(17) 0.26653(13)
C4 C 0.6369(2) 0.1693(2) 0.32875(15)
H3 H 0.7153 0.1566 0.3320
C5 C 0.58738(18) 0.22282(19) 0.38599(13)
H4 H 0.6328 0.2463 0.4285
C6 C 0.47072(16) 0.24266(14) 0.38182(11)
C7 C 0.42073(16) 0.29570(15) 0.44766(11)
C8 C 0.29803(16) 0.32528(14) 0.44139(11)
C9 C 0.20746(16) 0.29570(14) 0.49057(11)
C10 C 0.19633(17) 0.22173(14) 0.55080(11)
C11 C 0.28787(19) 0.16154(17) 0.57835(14)
H5 H 0.3595 0.1690 0.5576
C12 C 0.2732(2) 0.09222(19) 0.63515(17)
H6 H 0.3348 0.0527 0.6528
C13 C 0.1672(2) 0.0801(2) 0.66681(18)
H7 H 0.1581 0.0334 0.7062
C14 C 0.0758(2) 0.13712(19) 0.64004(15)
H8 H 0.0049 0.1281 0.6616
C15 C 0.08630(17) 0.20866(15) 0.58108(12)
C16 C -0.01135(17) 0.26868(15) 0.55198(11)
C17 C -0.12259(18) 0.25754(17) 0.57918(13)
H9 H -0.1354 0.2092 0.6167
C18 C -0.21172(19) 0.31559(18) 0.55206(14)
H10 H -0.2839 0.3067 0.5716
C19 C -0.19613(19) 0.38775(18) 0.49571(14)
H11 H -0.2572 0.4277 0.4780
C20 C -0.09032(18) 0.39981(16) 0.46640(12)
H12 H -0.0798 0.4476 0.4281
C21 C 0.00207(16) 0.34092(14) 0.49349(11)
C22 C 0.11395(16) 0.34856(14) 0.46446(11)
C23 C 0.25215(16) 0.39259(15) 0.38951(11)
C24 C 0.30128(16) 0.45162(14) 0.32712(11)
C25 C 0.25286(17) 0.44683(15) 0.24773(11)
C26 C 0.16075(18) 0.38356(17) 0.22663(13)
H13 H 0.1304 0.3432 0.2646
C27 C 0.1146(2) 0.38008(19) 0.15127(14)
H14 H 0.0536 0.3375 0.1386
C28 C 0.1583(2) 0.4396(2) 0.09386(14)
H15 H 0.1259 0.4379 0.0429
C29 C 0.2489(2) 0.50093(18) 0.11228(13)
H16 H 0.2783 0.5399 0.0731
C30 C 0.29902(17) 0.50670(15) 0.18884(12)
C31 C 0.39590(17) 0.57061(15) 0.20959(12)
C32 C 0.4470(2) 0.63220(18) 0.15423(14)
H17 H 0.4176 0.6322 0.1025
C33 C 0.5380(2) 0.69143(19) 0.17483(16)
H18 H 0.5692 0.7318 0.1372
C34 C 0.5849(2) 0.69255(18) 0.25086(15)
H19 H 0.6471 0.7335 0.2644
C35 C 0.53931(19) 0.63313(17) 0.30604(13)
H20 H 0.5719 0.6330 0.3570
C36 C 0.44394(17) 0.57218(15) 0.28718(11)
C37 C 0.39348(17) 0.51105(15) 0.34560(11)
O1 O 0.47866(12) 0.31117(12) 0.50815(9)
O2 O 0.13803(11) 0.40874(10) 0.40306(7)
O3 O 0.43790(14) 0.51167(13) 0.42054(8)
Cl1 Cl 0.63277(7) 0.06692(6) 0.19461(4)
H21 H 0.479(2) 0.5630(16) 0.4332(18)
loop_
_geom_bond_atom_site_label_1
_geom_bond_atom_site_label_2
_geom_bond_site_symmetry_1
_geom_bond_site_symmetry_2
C1 H1 1_555 1_555
C2 C1 1_555 1_555
H2 C2 1_555 1_555
C3 C2 1_555 1_555
C4 C3 1_555 1_555
H3 C4 1_555 1_555
C5 C4 1_555 1_555
H4 C5 1_555 1_555
C6 C1 1_555 1_555
C7 C6 1_555 1_555
C8 C7 1_555 1_555
C9 C8 1_555 1_555
C10 C9 1_555 1_555
C11 C10 1_555 1_555
H5 C11 1_555 1_555
C12 C11 1_555 1_555
H6 C12 1_555 1_555
C13 C12 1_555 1_555
H7 C13 1_555 1_555
C14 C13 1_555 1_555
H8 C14 1_555 1_555
C15 C10 1_555 1_555
C16 C15 1_555 1_555
C17 C16 1_555 1_555
H9 C17 1_555 1_555
C18 C17 1_555 1_555
H10 C18 1_555 1_555
C19 C18 1_555 1_555
H11 C19 1_555 1_555
C20 C19 1_555 1_555
H12 C20 1_555 1_555
C21 C16 1_555 1_555
C22 C9 1_555 1_555
C23 C8 1_555 1_555
C24 C23 1_555 1_555
C25 C24 1_555 1_555
C26 C25 1_555 1_555
H13 C26 1_555 1_555
C27 C26 1_555 1_555
H14 C27 1_555 1_555
C28 C27 1_555 1_555
H15 C28 1_555 1_555
C29 C28 1_555 1_555
H16 C29 1_555 1_555
C30 C25 1_555 1_555
C31 C30 1_555 1_555
C32 C31 1_555 1_555
H17 C32 1_555 1_555
C33 C32 1_555 1_555
H18 C33 1_555 1_555
C34 C33 1_555 1_555
H19 C34 1_555 1_555
C35 C34 1_555 1_555
H20 C35 1_555 1_555
C36 C31 1_555 1_555
C37 C24 1_555 1_555
O1 C7 1_555 1_555
O2 C22 1_555 1_555
O3 C37 1_555 1_555
Cl1 C3 1_555 1_555
H21 O3 1_555 1_555
C5 C6 1_555 1_555
C14 C15 1_555 1_555
C20 C21 1_555 1_555
C21 C22 1_555 1_555
C23 O2 1_555 1_555
C29 C30 1_555 1_555
C35 C36 1_555 1_555
C36 C37 1_555 1_555

#END
