
#######################################################################
#
#                 Cambridge Crystallographic Data Centre
#                                CCDC 
#
#######################################################################
#
# If this CIF has been generated from an entry in the Cambridge 
# Structural Database, then it will include bibliographic, chemical, 
# crystal, experimental, refinement or atomic coordinate data resulting 
# from the CCDC's data processing and validation procedures.
#
#######################################################################

data_JOMCOF
_chemical_formula_moiety         'C10 H9 N3 O3 S1'
_chemical_name_systematic        
2-Hydroxy-N'-(4-oxo-1,3-thiazolidin-2-ylidene)benzohydrazide
_symmetry_cell_setting           monoclinic
_symmetry_space_group_name_H-M   'C 2/c'
_symmetry_Int_Tables_number      15
_space_group_name_Hall           '-C 2yn'
loop_
_symmetry_equiv_pos_site_id
_symmetry_equiv_pos_as_xyz
1 x,y,z
2 -x,y,1/2-z
3 1/2+x,1/2+y,z
4 1/2-x,1/2+y,1/2-z
5 -x,-y,-z
6 x,-y,1/2+z
7 1/2-x,1/2-y,-z
8 1/2+x,1/2-y,1/2+z
_cell_length_a                   18.788(2)
_cell_length_b                   8.9334(10)
_cell_length_c                   12.7969(14)
_cell_angle_alpha                90
_cell_angle_beta                 92.667(2)
_cell_angle_gamma                90
_cell_volume                     2145.51
_exptl_crystal_colour            colorless
_exptl_crystal_description       block
_cell_formula_units_Z            8
loop_
_atom_site_label
_atom_site_type_symbol
_atom_site_fract_x
_atom_site_fract_y
_atom_site_fract_z
C1 C 0.40566(8) 0.54405(17) 0.47258(12)
C2 C 0.40845(9) 0.58782(17) 0.57775(12)
C3 C 0.43987(10) 0.7222(2) 0.60795(14)
C4 C 0.46818(12) 0.8145(2) 0.53512(17)
C5 C 0.46518(12) 0.7748(2) 0.43080(16)
C6 C 0.43446(11) 0.6417(2) 0.40054(14)
C7 C 0.37628(8) 0.39894(17) 0.43052(12)
C8 C 0.31830(9) 0.07860(17) 0.55293(12)
C9 C 0.27480(9) -0.13806(17) 0.63012(12)
C10 C 0.29374(11) -0.0495(2) 0.72704(13)
H1 H 0.3791(12) 0.539(2) 0.7078(9)
H2 H 0.4396(10) 0.749(2) 0.6782(5)
H3 H 0.4891(9) 0.9032(12) 0.5589(15)
H4 H 0.4837(10) 0.8367(17) 0.3803(11)
H5 H 0.4346(10) 0.612(2) 0.3310(5)
H6 H 0.3575(10) 0.329(2) 0.5703(5)
H7 H 0.2773(10) -0.1079(19) 0.4796(7)
H8 H 0.3270(8) -0.1054(19) 0.7719(12)
H9 H 0.2520(6) -0.022(2) 0.7644(14)
N1 N 0.35652(8) 0.30049(15) 0.50199(10)
N2 N 0.32887(8) 0.16107(15) 0.47420(10)
N3 N 0.28759(8) -0.06155(15) 0.54179(10)
O1 O 0.38054(7) 0.49708(13) 0.65105(9)
O2 O 0.37177(7) 0.37081(13) 0.33575(9)
O3 O 0.25005(7) -0.26414(14) 0.63173(9)
S1 S 0.33730(3) 0.11903(5) 0.68522(3)
loop_
_geom_bond_atom_site_label_1
_geom_bond_atom_site_label_2
_geom_bond_site_symmetry_1
_geom_bond_site_symmetry_2
C1 C2 1_555 1_555
C2 C3 1_555 1_555
C3 C4 1_555 1_555
C4 C5 1_555 1_555
C5 C6 1_555 1_555
C6 C1 1_555 1_555
C7 C1 1_555 1_555
C8 N2 1_555 1_555
C9 C10 1_555 1_555
C10 H8 1_555 1_555
H1 O1 1_555 1_555
H2 C3 1_555 1_555
H3 C4 1_555 1_555
H4 C5 1_555 1_555
H5 C6 1_555 1_555
H6 N1 1_555 1_555
H7 N3 1_555 1_555
H9 C10 1_555 1_555
N1 C7 1_555 1_555
N2 N1 1_555 1_555
N3 C8 1_555 1_555
O1 C2 1_555 1_555
O2 C7 1_555 1_555
O3 C9 1_555 1_555
S1 C8 1_555 1_555
C9 N3 1_555 1_555
C10 S1 1_555 1_555

#END
