
#######################################################################
#
#                 Cambridge Crystallographic Data Centre
#                                CCDC 
#
#######################################################################
#
# If this CIF has been generated from an entry in the Cambridge 
# Structural Database, then it will include bibliographic, chemical, 
# crystal, experimental, refinement or atomic coordinate data resulting 
# from the CCDC's data processing and validation procedures.
#
#######################################################################

data_JOMVUE
_chemical_formula_moiety         'C20 H21 N3 O2 S1'
_chemical_name_systematic        
2-(3-isopropyl-4-oxo-2-(phenylimino)-1,3-thiazolidin-5-yl)-N-phenylacetamide
_symmetry_cell_setting           orthorhombic
_symmetry_space_group_name_H-M   'P b c a'
_symmetry_Int_Tables_number      61
_space_group_name_Hall           '-P 2ac 2ab'
loop_
_symmetry_equiv_pos_site_id
_symmetry_equiv_pos_as_xyz
1 x,y,z
2 1/2-x,-y,1/2+z
3 1/2+x,1/2-y,-z
4 -x,1/2+y,1/2-z
5 -x,-y,-z
6 1/2+x,y,1/2-z
7 1/2-x,1/2+y,z
8 x,1/2-y,1/2+z
_cell_length_a                   18.7677(8)
_cell_length_b                   11.1216(4)
_cell_length_c                   35.516(2)
_cell_angle_alpha                90
_cell_angle_beta                 90
_cell_angle_gamma                90
_cell_volume                     7413.14
_exptl_crystal_colour            white
_exptl_crystal_description       lamina
_cell_formula_units_Z            16
loop_
_atom_site_label
_atom_site_type_symbol
_atom_site_fract_x
_atom_site_fract_y
_atom_site_fract_z
S1 S 0.40830(6) 0.39203(11) 0.08060(4)
C1 C 0.4201(2) 0.4651(4) 0.12422(14)
N1 N 0.48515(18) 0.5282(3) 0.12525(11)
C2 C 0.5284(2) 0.5113(4) 0.09480(13)
C3 C 0.4954(2) 0.4403(4) 0.06365(14)
H1 H 0.4883 0.4937 0.0420
N2 N 0.3787(2) 0.4639(3) 0.15248(12)
C4 C 0.3143(2) 0.3946(4) 0.15012(14)
C5 C 0.3093(3) 0.2925(5) 0.17244(16)
H2 H 0.3474 0.2689 0.1874
C6 C 0.2475(3) 0.2271(5) 0.17206(18)
H3 H 0.2442 0.1580 0.1867
C7 C 0.1897(3) 0.2619(5) 0.15028(18)
H4 H 0.1479 0.2171 0.1504
C8 C 0.1953(3) 0.3640(5) 0.12845(18)
H5 H 0.1569 0.3880 0.1137
C9 C 0.2573(3) 0.4311(4) 0.12819(16)
H6 H 0.2606 0.5000 0.1135
C10 C 0.5071(2) 0.5965(4) 0.15953(14)
H7 H 0.4666 0.5960 0.1770
C11 C 0.5686(3) 0.5355(4) 0.17918(15)
H8 H 0.5575 0.4522 0.1831
H9 H 0.5769 0.5736 0.2030
H10 H 0.6107 0.5420 0.1639
O1 O 0.58979(15) 0.5497(3) 0.09331(9)
C12 C 0.5411(2) 0.3358(4) 0.05131(13)
H11 H 0.5398 0.2738 0.0705
H12 H 0.5901 0.3625 0.0488
C13 C 0.5161(2) 0.2829(4) 0.01400(13)
O2 O 0.46833(16) 0.3304(3) -0.00428(9)
C14 C 0.5222(3) 0.7270(4) 0.14939(16)
H13 H 0.5638 0.7310 0.1337
H14 H 0.5302 0.7724 0.1720
H15 H 0.4822 0.7598 0.1361
N3 N 0.55162(19) 0.1826(3) 0.00366(10)
H16 H 0.5840 0.1586 0.0191
C15 C 0.5429(2) 0.1120(4) -0.02877(12)
C16 C 0.4849(2) 0.1210(4) -0.05308(14)
H17 H 0.4504 0.1796 -0.0491
C17 C 0.4787(3) 0.0431(4) -0.08305(14)
H18 H 0.4395 0.0492 -0.0990
C18 C 0.5298(3) -0.0440(4) -0.08989(14)
H19 H 0.5253 -0.0959 -0.1103
C19 C 0.5880(3) -0.0527(5) -0.06571(15)
H20 H 0.6227 -0.1109 -0.0699
C20 C 0.5943(3) 0.0253(4) -0.03554(14)
H21 H 0.6335 0.0194 -0.0196
S2 S 0.61867(6) 0.19165(10) 0.13971(3)
C21 C 0.6413(2) 0.2310(4) 0.18677(15)
N4 N 0.7011(2) 0.3055(4) 0.18715(12)
C22 C 0.7282(3) 0.3398(4) 0.15281(15)
C23 C 0.6956(2) 0.2692(4) 0.12045(15)
H22 H 0.6800 0.3251 0.1008
N5 N 0.6120(2) 0.1964(4) 0.21734(12)
C24 C 0.5539(3) 0.1130(4) 0.21654(15)
C25 C 0.5584(3) 0.0129(5) 0.23983(16)
H23 H 0.5973 0.0033 0.2558
C26 C 0.5051(3) -0.0722(5) 0.23930(19)
H24 H 0.5095 -0.1409 0.2541
C27 C 0.4458(3) -0.0570(5) 0.21732(18)
H25 H 0.4104 -0.1156 0.2170
C28 C 0.4387(3) 0.0441(5) 0.19593(17)
H26 H 0.3977 0.0556 0.1817
C29 C 0.4929(3) 0.1312(5) 0.19526(16)
H27 H 0.4879 0.2002 0.1807
C30 C 0.7386(3) 0.3342(5) 0.22350(16)
H28 H 0.7141 0.2896 0.2435
C31 C 0.8141(3) 0.2873(5) 0.22177(17)
H29 H 0.8136 0.2050 0.2136
H30 H 0.8354 0.2924 0.2463
H31 H 0.8412 0.3348 0.2043
O3 O 0.77542(18) 0.4118(3) 0.14789(11)
C32 C 0.7513(2) 0.1840(4) 0.10439(13)
H32 H 0.7930 0.2302 0.0973
H33 H 0.7655 0.1279 0.1239
C33 C 0.7257(2) 0.1134(4) 0.07034(13)
O4 O 0.66331(15) 0.1201(3) 0.05915(9)
C34 C 0.7337(3) 0.4658(5) 0.23343(18)
H34 H 0.7576 0.5125 0.2145
H35 H 0.7559 0.4794 0.2574
H36 H 0.6846 0.4893 0.2347
N6 N 0.77632(18) 0.0427(3) 0.05512(11)
H37 H 0.8188 0.0497 0.0640
C35 C 0.7661(2) -0.0424(4) 0.02576(14)
C36 C 0.7088(2) -0.1210(4) 0.02662(15)
H38 H 0.6749 -0.1145 0.0456
C37 C 0.7018(2) -0.2095(4) -0.00086(16)
H39 H 0.6632 -0.2617 -0.0003
C38 C 0.7523(3) -0.2200(4) -0.02902(15)
H40 H 0.7481 -0.2800 -0.0471
C39 C 0.8096(3) -0.1399(4) -0.03014(15)
H41 H 0.8434 -0.1458 -0.0492
C40 C 0.8162(2) -0.0517(4) -0.00279(14)
H42 H 0.8544 0.0015 -0.0036
loop_
_geom_bond_atom_site_label_1
_geom_bond_atom_site_label_2
_geom_bond_site_symmetry_1
_geom_bond_site_symmetry_2
S1 C1 1_555 1_555
C1 N1 1_555 1_555
N1 C2 1_555 1_555
C2 C3 1_555 1_555
C3 S1 1_555 1_555
H1 C3 1_555 1_555
N2 C1 1_555 1_555
C4 N2 1_555 1_555
C5 C4 1_555 1_555
H2 C5 1_555 1_555
C6 C5 1_555 1_555
H3 C6 1_555 1_555
C7 C6 1_555 1_555
H4 C7 1_555 1_555
C8 C7 1_555 1_555
H5 C8 1_555 1_555
C9 C4 1_555 1_555
H6 C9 1_555 1_555
C10 N1 1_555 1_555
H7 C10 1_555 1_555
C11 C10 1_555 1_555
H8 C11 1_555 1_555
H9 C11 1_555 1_555
H10 C11 1_555 1_555
O1 C2 1_555 1_555
C12 C3 1_555 1_555
H11 C12 1_555 1_555
H12 C12 1_555 1_555
C13 C12 1_555 1_555
O2 C13 1_555 1_555
C14 C10 1_555 1_555
H13 C14 1_555 1_555
H14 C14 1_555 1_555
H15 C14 1_555 1_555
N3 C13 1_555 1_555
H16 N3 1_555 1_555
C15 N3 1_555 1_555
C16 C15 1_555 1_555
H17 C16 1_555 1_555
C17 C16 1_555 1_555
H18 C17 1_555 1_555
C18 C17 1_555 1_555
H19 C18 1_555 1_555
C19 C18 1_555 1_555
H20 C19 1_555 1_555
C20 C15 1_555 1_555
H21 C20 1_555 1_555
S2 C21 1_555 1_555
C21 N4 1_555 1_555
N4 C22 1_555 1_555
C22 C23 1_555 1_555
C23 S2 1_555 1_555
H22 C23 1_555 1_555
N5 C21 1_555 1_555
C24 N5 1_555 1_555
C25 C24 1_555 1_555
H23 C25 1_555 1_555
C26 C25 1_555 1_555
H24 C26 1_555 1_555
C27 C26 1_555 1_555
H25 C27 1_555 1_555
C28 C27 1_555 1_555
H26 C28 1_555 1_555
C29 C24 1_555 1_555
H27 C29 1_555 1_555
C30 N4 1_555 1_555
H28 C30 1_555 1_555
C31 C30 1_555 1_555
H29 C31 1_555 1_555
H30 C31 1_555 1_555
H31 C31 1_555 1_555
O3 C22 1_555 1_555
C32 C23 1_555 1_555
H32 C32 1_555 1_555
H33 C32 1_555 1_555
C33 C32 1_555 1_555
O4 C33 1_555 1_555
C34 C30 1_555 1_555
H34 C34 1_555 1_555
H35 C34 1_555 1_555
H36 C34 1_555 1_555
N6 C33 1_555 1_555
H37 N6 1_555 1_555
C35 N6 1_555 1_555
C36 C35 1_555 1_555
H38 C36 1_555 1_555
C37 C36 1_555 1_555
H39 C37 1_555 1_555
C38 C37 1_555 1_555
H40 C38 1_555 1_555
C39 C38 1_555 1_555
H41 C39 1_555 1_555
C40 C35 1_555 1_555
H42 C40 1_555 1_555
C8 C9 1_555 1_555
C19 C20 1_555 1_555
C28 C29 1_555 1_555
C39 C40 1_555 1_555

#END
