
#######################################################################
#
#                 Cambridge Crystallographic Data Centre
#                                CCDC 
#
#######################################################################
#
# If this CIF has been generated from an entry in the Cambridge 
# Structural Database, then it will include bibliographic, chemical, 
# crystal, experimental, refinement or atomic coordinate data resulting 
# from the CCDC's data processing and validation procedures.
#
#######################################################################

data_JONQAG
_chemical_name_common            '2-Iodo-m-toluic acid'
_chemical_formula_moiety         'C8 H7 I1 O2'
_chemical_name_systematic        '2-iodo-3-methylbenzoic acid'
_symmetry_cell_setting           monoclinic
_symmetry_space_group_name_H-M   'P 21/n'
_symmetry_Int_Tables_number      14
_space_group_name_Hall           '-P 2yn'
loop_
_symmetry_equiv_pos_site_id
_symmetry_equiv_pos_as_xyz
1 x,y,z
2 1/2-x,1/2+y,1/2-z
3 -x,-y,-z
4 1/2+x,1/2-y,1/2+z
_cell_length_a                   7.8080(3)
_cell_length_b                   6.8590(2)
_cell_length_c                   15.3290(6)
_cell_angle_alpha                90
_cell_angle_beta                 96.496(2)
_cell_angle_gamma                90
_cell_volume                     815.675
_exptl_crystal_colour            'light yellow'
_exptl_crystal_description       plate
_chemical_melting_point          '419-420 K'
_cell_formula_units_Z            4
_exptl_crystal_recrystallization_method ethanol
loop_
_atom_site_label
_atom_site_type_symbol
_atom_site_fract_x
_atom_site_fract_y
_atom_site_fract_z
I1 I 0.04107(2) 0.23307(4) 0.092149(14)
O1 O -0.3234(2) 0.3624(4) 0.00344(13)
O2 O -0.5412(3) 0.3398(4) 0.08565(14)
C1 C -0.1560(3) 0.0410(5) 0.11937(16)
C2 C -0.3317(3) 0.0926(4) 0.10330(16)
C3 C -0.4572(4) -0.0364(5) 0.12712(17)
C4 C -0.4109(5) -0.2143(5) 0.1641(3)
C5 C -0.2376(6) -0.2652(5) 0.1789(3)
C6 C -0.1072(4) -0.1380(5) 0.15843(17)
C7 C -0.3952(5) 0.2767(4) 0.0595(2)
C8 C 0.0773(5) -0.2005(6) 0.1788(3)
H1 H -0.218(5) -0.391(8) 0.199(3)
H2 H -0.505(5) -0.293(6) 0.182(3)
H3 H 0.109(7) -0.185(9) 0.122(4)
H4 H 0.093(5) -0.324(7) 0.203(2)
H5 H 0.159(4) -0.104(5) 0.223(2)
H6 H -0.566(5) -0.003(6) 0.119(2)
H7 H -0.588(5) 0.464(7) 0.043(2)
loop_
_geom_bond_atom_site_label_1
_geom_bond_atom_site_label_2
_geom_bond_site_symmetry_1
_geom_bond_site_symmetry_2
I1 C1 1_555 1_555
O1 C7 1_555 1_555
O2 C7 1_555 1_555
C1 C2 1_555 1_555
C2 C3 1_555 1_555
C3 C4 1_555 1_555
C4 C5 1_555 1_555
C5 C6 1_555 1_555
C6 C1 1_555 1_555
C7 C2 1_555 1_555
C8 C6 1_555 1_555
H1 C5 1_555 1_555
H2 C4 1_555 1_555
H3 C8 1_555 1_555
H4 C8 1_555 1_555
H5 C8 1_555 1_555
H6 C3 1_555 1_555
H7 O2 1_555 1_555

#END
