
#######################################################################
#
#                 Cambridge Crystallographic Data Centre
#                                CCDC 
#
#######################################################################
#
# If this CIF has been generated from an entry in the Cambridge 
# Structural Database, then it will include bibliographic, chemical, 
# crystal, experimental, refinement or atomic coordinate data resulting 
# from the CCDC's data processing and validation procedures.
#
#######################################################################

data_JONQIO
_chemical_formula_moiety         'C24 H20 Cl3 N3 O5,0.5(C1 H2 Cl2)'
_chemical_name_systematic        
"methyl 6-methyl-4'-((5-nitro-2-((trichloroacetyl)amino)benzyl)amino)biphenyl-2-carboxylate dichloromethane solvate"
_symmetry_cell_setting           triclinic
_symmetry_space_group_name_H-M   'P -1'
_symmetry_Int_Tables_number      2
_space_group_name_Hall           '-P 1'
loop_
_symmetry_equiv_pos_site_id
_symmetry_equiv_pos_as_xyz
1 x,y,z
2 -x,-y,-z
_cell_length_a                   12.4607(3)
_cell_length_b                   14.9241(4)
_cell_length_c                   15.0753(4)
_cell_angle_alpha                80.2640(10)
_cell_angle_beta                 78.1400(10)
_cell_angle_gamma                70.1120(10)
_cell_volume                     2564.97
_exptl_crystal_colour            yellow
_exptl_crystal_description       prism
_chemical_melting_point          '444-446 K'
_cell_formula_units_Z            4
_exptl_crystal_recrystallization_method 
'Vapour diffusion (n-hexane into DCM solution)'
loop_
_atom_site_label
_atom_site_type_symbol
_atom_site_fract_x
_atom_site_fract_y
_atom_site_fract_z
Cl1 Cl 0.24583(4) 0.97925(3) -0.85928(3)
Cl2 Cl 0.10710(4) 1.17783(3) -0.85462(3)
Cl3 Cl 0.21207(4) 1.07182(3) -0.69984(3)
O1 O 0.36107(11) 1.12499(10) -0.94971(8)
O2 O 0.87688(10) 1.20653(9) -0.96091(8)
O3 O 0.84022(11) 1.25316(10) -0.82665(9)
O4 O 0.36871(9) 1.18204(8) -0.17609(8)
O5 O 0.45805(9) 1.06214(8) -0.26472(8)
N1 N 0.39643(11) 1.13748(9) -0.80990(9)
N2 N 0.81652(11) 1.21929(10) -0.88588(10)
N3 N 0.43215(11) 1.11237(9) -0.63260(8)
C1 C 0.26201(12) 1.08437(10) -0.36196(10)
C2 C 0.50275(12) 1.15644(10) -0.83208(10)
C3 C 0.53947(12) 1.18523(10) -0.76202(10)
C4 C 0.64336(12) 1.20492(11) -0.78086(10)
C5 C 0.70933(12) 1.19478(10) -0.86695(10)
C6 C 0.67597(13) 1.16400(11) -0.93499(10)
C7 C 0.57132(13) 1.14526(11) -0.91774(10)
C8 C 0.33930(13) 1.11901(11) -0.86745(10)
C9 C 0.23087(13) 1.08888(11) -0.82081(10)
C10 C 0.46872(13) 1.19664(10) -0.66818(10)
C11 C 0.37390(12) 1.10654(10) -0.54308(9)
C12 C 0.35931(12) 1.01810(10) -0.50435(10)
C13 C 0.30377(12) 1.00790(10) -0.41522(10)
C14 C 0.27478(13) 1.17214(10) -0.40190(10)
C15 C 0.32899(13) 1.18402(10) -0.49134(10)
C16 C 0.20874(12) 1.07276(10) -0.26460(9)
C17 C 0.25841(12) 1.09022(10) -0.19637(10)
C18 C 0.20656(13) 1.08622(11) -0.10505(10)
C19 C 0.10547(14) 1.06233(11) -0.08058(10)
C20 C 0.05672(14) 1.04344(12) -0.14735(11)
C21 C 0.10592(13) 1.04895(11) -0.23910(10)
C22 C 0.37236(13) 1.10844(10) -0.21809(10)
C23 C 0.47796(16) 1.19862(15) -0.18149(16)
C24 C 0.04596(17) 1.03161(17) -0.30858(13)
H1 H 0.6679(16) 1.2252(13) -0.7360(13)
H2 H 0.3891(15) 0.9662(13) -0.5389(13)
H3 H 0.7227(16) 1.1563(14) -0.9928(13)
H4 H 0.2968(16) 0.9487(14) -0.3904(13)
H5 H 0.4002(16) 1.2531(14) -0.6715(13)
H6 H 0.5101(18) 1.2128(14) -0.6297(14)
H7 H 0.0697(16) 1.0581(14) -0.0196(14)
H8 H -0.0129(17) 1.0270(14) -0.1305(14)
H9 H 0.2452(15) 1.2276(13) -0.3673(13)
H10 H 0.4842(17) 1.0603(14) -0.6438(13)
H11 H -0.037(2) 1.0459(16) -0.2828(15)
H12 H 0.5472(18) 1.1224(15) -0.9636(15)
H13 H 0.082(2) 0.9627(17) -0.3209(16)
H14 H 0.5101(18) 1.2028(15) -0.2402(16)
H15 H 0.2395(18) 1.0971(15) -0.0634(15)
H16 H 0.3789(19) 1.1214(16) -0.7522(16)
H17 H 0.4584(19) 1.2578(18) -0.1563(16)
H18 H 0.3335(17) 1.2465(14) -0.5169(14)
H19 H 0.5214(19) 1.1489(16) -0.1414(15)
H20 H 0.049(2) 1.0734(18) -0.3657(18)
Cl4 Cl 0.4105(2) 1.37485(18) -0.3704(3)
Cl5 Cl 0.34142(19) 1.53708(16) -0.49096(12)
Cl6 Cl 0.2561(3) 1.5491(3) -0.29660(17)
O6 O 0.17404(11) 1.43811(11) -0.47418(8)
O7 O -0.27079(11) 1.24630(10) -0.30284(9)
O8 O -0.25273(11) 1.22490(9) -0.16024(8)
O9 O 0.19133(9) 1.34355(8) 0.33278(8)
O10 O 0.09280(9) 1.42878(8) 0.22172(8)
N4 N 0.13437(11) 1.41515(10) -0.31827(9)
N5 N -0.22380(12) 1.25177(10) -0.24049(9)
N6 N 0.09019(11) 1.42496(9) -0.13462(8)
C25 C 0.04467(12) 1.37412(10) -0.30294(10)
C26 C 0.01824(12) 1.33243(10) -0.21353(10)
C27 C -0.07033(13) 1.29217(10) -0.19422(10)
C28 C -0.12969(13) 1.29321(11) -0.26313(10)
C29 C -0.10426(14) 1.33388(12) -0.35088(11)
C30 C -0.01637(14) 1.37492(12) -0.37112(11)
C31 C 0.19040(13) 1.44235(11) -0.39889(10)
C32 C 0.29182(14) 1.47721(12) -0.38877(11)
C33 C 0.08524(13) 1.32959(10) -0.13936(10)
C34 C 0.14559(12) 1.43821(10) -0.06846(9)
C35 C 0.21988(13) 1.36218(10) -0.02035(10)
C36 C 0.27066(13) 1.38050(10) 0.04579(10)
C37 C 0.24955(12) 1.47330(10) 0.06579(10)
C38 C 0.17886(13) 1.54900(10) 0.01446(10)
C39 C 0.12755(12) 1.53195(10) -0.05122(10)
C40 C 0.30017(12) 1.48949(10) 0.14072(10)
C41 C 0.27464(12) 1.44827(10) 0.23060(10)
C42 C 0.33017(13) 1.45547(11) 0.29957(11)
C43 C 0.41172(14) 1.50287(12) 0.27947(12)
C44 C 0.43385(14) 1.54643(12) 0.19226(11)
C45 C 0.37804(13) 1.54244(11) 0.12248(11)
C46 C 0.17783(12) 1.40670(10) 0.25791(10)
C47 C 0.09193(15) 1.31370(13) 0.37353(12)
C48 C 0.40050(15) 1.59737(12) 0.03115(12)
H21 H 0.1663(15) 1.2866(13) -0.1538(12)
H22 H 0.0824(16) 1.5842(14) -0.0848(13)
H23 H -0.0889(17) 1.2658(14) -0.1352(14)
H24 H 0.1634(15) 1.6131(13) 0.0264(12)
H25 H 0.4783(19) 1.6066(16) 0.0205(15)
H26 H 0.4030(17) 1.5623(15) -0.0195(14)
H27 H 0.4526(17) 1.5032(14) 0.3269(14)
H28 H 0.0558(16) 1.3007(14) -0.0803(13)
H29 H 0.4898(17) 1.5828(14) 0.1768(13)
H30 H -0.1494(18) 1.3364(15) -0.3926(14)
H31 H 0.3398(17) 1.6608(14) 0.0257(13)
H32 H 0.3226(16) 1.3280(14) 0.0797(13)
H33 H 0.2351(15) 1.2982(13) -0.0317(12)
H34 H 0.0297(19) 1.4646(16) -0.1384(14)
H35 H 0.0754(18) 1.2829(15) 0.3313(15)
H36 H 0.0281(17) 1.3665(14) 0.3958(13)
H37 H 0.3068(18) 1.4303(15) 0.3559(15)
H38 H 0.1116(17) 1.2654(14) 0.4249(14)
H39 H 0.1454(18) 1.4276(15) -0.2704(15)
H40 H 0.0034(18) 1.4058(15) -0.4344(15)
Cl16 Cl -0.05975(7) 1.15544(6) -0.53754(5)
Cl17 Cl -0.31319(6) 1.20887(4) -0.50514(5)
C49 C -0.18257(19) 1.12748(16) -0.47563(14)
H41 H -0.1722(19) 1.0633(18) -0.4906(16)
H42 H -0.184(2) 1.1290(17) -0.4151(17)
Cl7? Cl 0.4198(2) 1.36636(17) -0.3938(4)
Cl8? Cl 0.3222(4) 1.5577(3) -0.4788(2)
Cl9? Cl 0.2780(4) 1.5223(5) -0.28635(18)
Cl10? Cl 0.2989(5) 1.4929(6) -0.2789(3)
Cl11? Cl 0.2310(4) 1.5717(4) -0.3079(2)
Cl12? Cl 0.3958(4) 1.3836(3) -0.3461(4)
Cl13? Cl 0.4212(4) 1.3740(4) -0.4190(5)
Cl14? Cl 0.3137(4) 1.5542(3) -0.4940(3)
Cl15? Cl 0.2897(7) 1.5747(4) -0.4687(4)
loop_
_geom_bond_atom_site_label_1
_geom_bond_atom_site_label_2
_geom_bond_site_symmetry_1
_geom_bond_site_symmetry_2
Cl1 C9 1_555 1_555
Cl2 C9 1_555 1_555
Cl3 C9 1_555 1_555
O1 C8 1_555 1_555
O2 N2 1_555 1_555
O3 N2 1_555 1_555
O4 C22 1_555 1_555
O5 C22 1_555 1_555
N1 C2 1_555 1_555
N2 C5 1_555 1_555
N3 C10 1_555 1_555
C1 C13 1_555 1_555
C2 C3 1_555 1_555
C3 C4 1_555 1_555
C4 C5 1_555 1_555
C5 C6 1_555 1_555
C6 C7 1_555 1_555
C7 C2 1_555 1_555
C8 N1 1_555 1_555
C9 C8 1_555 1_555
C10 C3 1_555 1_555
C11 N3 1_555 1_555
C12 C11 1_555 1_555
C13 C12 1_555 1_555
C14 C1 1_555 1_555
C15 C11 1_555 1_555
C16 C1 1_555 1_555
C17 C16 1_555 1_555
C18 C17 1_555 1_555
C19 C18 1_555 1_555
C20 C19 1_555 1_555
C21 C16 1_555 1_555
C22 C17 1_555 1_555
C23 O4 1_555 1_555
C24 C21 1_555 1_555
H1 C4 1_555 1_555
H2 C12 1_555 1_555
H3 C6 1_555 1_555
H4 C13 1_555 1_555
H5 C10 1_555 1_555
H6 C10 1_555 1_555
H7 C19 1_555 1_555
H8 C20 1_555 1_555
H9 C14 1_555 1_555
H10 N3 1_555 1_555
H11 C24 1_555 1_555
H12 C7 1_555 1_555
H13 C24 1_555 1_555
H14 C23 1_555 1_555
H15 C18 1_555 1_555
H16 N1 1_555 1_555
H17 C23 1_555 1_555
H18 C15 1_555 1_555
H19 C23 1_555 1_555
H20 C24 1_555 1_555
Cl4 C32 1_555 1_555
Cl5 C32 1_555 1_555
Cl6 C32 1_555 1_555
O6 C31 1_555 1_555
O7 N5 1_555 1_555
O8 N5 1_555 1_555
O9 C46 1_555 1_555
O10 C46 1_555 1_555
N4 C25 1_555 1_555
N5 C28 1_555 1_555
N6 C33 1_555 1_555
C25 C26 1_555 1_555
C26 C27 1_555 1_555
C27 C28 1_555 1_555
C28 C29 1_555 1_555
C29 C30 1_555 1_555
C30 C25 1_555 1_555
C31 N4 1_555 1_555
C32 C31 1_555 1_555
C33 C26 1_555 1_555
C34 N6 1_555 1_555
C35 C34 1_555 1_555
C36 C35 1_555 1_555
C37 C36 1_555 1_555
C38 C37 1_555 1_555
C39 C34 1_555 1_555
C40 C37 1_555 1_555
C41 C40 1_555 1_555
C42 C41 1_555 1_555
C43 C42 1_555 1_555
C44 C43 1_555 1_555
C45 C40 1_555 1_555
C46 C41 1_555 1_555
C47 O9 1_555 1_555
C48 C45 1_555 1_555
H21 C33 1_555 1_555
H22 C39 1_555 1_555
H23 C27 1_555 1_555
H24 C38 1_555 1_555
H25 C48 1_555 1_555
H26 C48 1_555 1_555
H27 C43 1_555 1_555
H28 C33 1_555 1_555
H29 C44 1_555 1_555
H30 C29 1_555 1_555
H31 C48 1_555 1_555
H32 C36 1_555 1_555
H33 C35 1_555 1_555
H34 N6 1_555 1_555
H35 C47 1_555 1_555
H36 C47 1_555 1_555
H37 C42 1_555 1_555
H38 C47 1_555 1_555
H39 N4 1_555 1_555
H40 C30 1_555 1_555
Cl16 C49 1_555 1_555
Cl17 C49 1_555 1_555
C49 H41 1_555 1_555
H42 C49 1_555 1_555
C14 C15 1_555 1_555
C20 C21 1_555 1_555
C38 C39 1_555 1_555
C44 C45 1_555 1_555

#END
