
#######################################################################
#
#                 Cambridge Crystallographic Data Centre
#                                CCDC 
#
#######################################################################
#
# If this CIF has been generated from an entry in the Cambridge 
# Structural Database, then it will include bibliographic, chemical, 
# crystal, experimental, refinement or atomic coordinate data resulting 
# from the CCDC's data processing and validation procedures.
#
#######################################################################

data_JONQUA
_chemical_formula_moiety         'C11 H9 I1 N2 O1'
_chemical_name_systematic        
1H-imidazol-1-yl(2-iodo-3-methylphenyl)methanone
_symmetry_cell_setting           monoclinic
_symmetry_space_group_name_H-M   'P 21/c'
_symmetry_Int_Tables_number      14
_space_group_name_Hall           '-P 2ybc'
loop_
_symmetry_equiv_pos_site_id
_symmetry_equiv_pos_as_xyz
1 x,y,z
2 -x,1/2+y,1/2-z
3 -x,-y,-z
4 x,1/2-y,1/2+z
_cell_length_a                   7.2027(4)
_cell_length_b                   9.0085(4)
_cell_length_c                   17.0845(9)
_cell_angle_alpha                90
_cell_angle_beta                 98.739(2)
_cell_angle_gamma                90
_cell_volume                     1095.67
_exptl_crystal_colour            colorless
_exptl_crystal_description       prism
_cell_formula_units_Z            4
_exptl_crystal_recrystallization_method dichloromethane
loop_
_atom_site_label
_atom_site_type_symbol
_atom_site_fract_x
_atom_site_fract_y
_atom_site_fract_z
I1 I 0.056556(17) 0.293060(13) 0.247253(7)
N1 N 0.0275(2) 0.20291(14) 0.44331(10)
C1 C -0.1979(3) 0.19045(17) 0.26291(11)
C2 C -0.4717(3) 0.0524(2) 0.21361(12)
H1 H -0.5498 0.0046 0.1712
C3 C -0.2487(3) 0.19076(17) 0.33848(11)
C4 C -0.1369(3) 0.27211(19) 0.40636(11)
C5 C 0.1621(3) 0.2643(2) 0.50128(11)
H2 H 0.1599 0.3598 0.5247
O1 O -0.1849(2) 0.39066(14) 0.42981(8)
C6 C -0.5225(3) 0.0491(2) 0.28863(13)
H3 H -0.6324 -0.0030 0.2972
C7 C -0.4154(3) 0.12037(19) 0.35051(11)
H4 H -0.4539 0.1220 0.4013
C8 C 0.0916(3) 0.06288(18) 0.42811(10)
H5 H 0.0261 -0.0037 0.3905
N2 N 0.2511(2) 0.03294(17) 0.47097(9)
C9 C 0.2963(3) 0.1597(2) 0.51718(12)
H6 H 0.4070 0.1707 0.5548
C10 C -0.3090(3) 0.12389(18) 0.19856(11)
C11 C -0.2595(3) 0.1248(2) 0.11636(11)
H7 H -0.2561 0.2274 0.0976
H8 H -0.3542 0.0687 0.0809
H9 H -0.1360 0.0788 0.1169
loop_
_geom_bond_atom_site_label_1
_geom_bond_atom_site_label_2
_geom_bond_site_symmetry_1
_geom_bond_site_symmetry_2
I1 C1 1_555 1_555
N1 C4 1_555 1_555
C1 C3 1_555 1_555
C2 H1 1_555 1_555
C3 C4 1_555 1_555
C4 O1 1_555 1_555
C5 N1 1_555 1_555
H2 C5 1_555 1_555
C6 C2 1_555 1_555
H3 C6 1_555 1_555
C7 C3 1_555 1_555
H4 C7 1_555 1_555
C8 N1 1_555 1_555
H5 C8 1_555 1_555
N2 C8 1_555 1_555
C9 C5 1_555 1_555
H6 C9 1_555 1_555
C10 C1 1_555 1_555
C11 C10 1_555 1_555
H7 C11 1_555 1_555
H8 C11 1_555 1_555
H9 C11 1_555 1_555
C2 C10 1_555 1_555
C6 C7 1_555 1_555
N2 C9 1_555 1_555

#END
