
#######################################################################
#
#                 Cambridge Crystallographic Data Centre
#                                CCDC 
#
#######################################################################
#
# If this CIF has been generated from an entry in the Cambridge 
# Structural Database, then it will include bibliographic, chemical, 
# crystal, experimental, refinement or atomic coordinate data resulting 
# from the CCDC's data processing and validation procedures.
#
#######################################################################

data_JONVIT
_chemical_formula_moiety         'C22 H16 N6 O2'
_chemical_name_systematic        
N,N'-2,2'-bipyridine-3,3'-diyldipyridine-2-carboxamide
_symmetry_cell_setting           monoclinic
_symmetry_space_group_name_H-M   'P 21/c'
_symmetry_Int_Tables_number      14
_space_group_name_Hall           '-P 2ybc'
loop_
_symmetry_equiv_pos_site_id
_symmetry_equiv_pos_as_xyz
1 x,y,z
2 -x,1/2+y,1/2-z
3 -x,-y,-z
4 x,1/2-y,1/2+z
_cell_length_a                   14.1606(13)
_cell_length_b                   3.9083(3)
_cell_length_c                   16.1931(13)
_cell_angle_alpha                90
_cell_angle_beta                 94.593(4)
_cell_angle_gamma                90
_cell_volume                     893.311
_exptl_crystal_colour            colorless
_exptl_crystal_description       plate
_cell_formula_units_Z            2
loop_
_atom_site_label
_atom_site_type_symbol
_atom_site_fract_x
_atom_site_fract_y
_atom_site_fract_z
C1 C 0.52547(17) 0.4112(6) 1.03620(13)
C2 C 0.62516(17) 0.3655(6) 1.04751(14)
C3 C 0.66188(18) 0.1925(7) 1.11864(15)
H1 H 0.7268 0.1551 1.1273
C4 C 0.60196(19) 0.0766(7) 1.17625(15)
H2 H 0.6259 -0.0333 1.2244
C5 C 0.50612(18) 0.1286(7) 1.16026(14)
H3 H 0.4654 0.0472 1.1981
C6 C 0.77981(18) 0.5391(7) 1.00027(16)
C7 C 0.82092(17) 0.6911(7) 0.92475(15)
C8 C 0.91594(19) 0.7795(7) 0.93092(17)
H4 H 0.9533 0.7456 0.9801
C9 C 0.95450(19) 0.9204(8) 0.86184(18)
H5 H 1.0178 0.9863 0.8641
C10 C 0.8962(2) 0.9587(8) 0.79034(17)
H6 H 0.9197 1.0483 0.7429
C11 C 0.8024(2) 0.8626(8) 0.78996(17)
H7 H 0.7638 0.8903 0.7412
H8 H 0.648(3) 0.577(11) 0.944(3)
N1 N 0.46930(15) 0.2905(6) 1.09287(12)
N2 N 0.68515(15) 0.4871(6) 0.98944(12)
N3 N 0.76363(15) 0.7314(6) 0.85593(13)
O1 O 0.83054(14) 0.4813(7) 1.06341(13)
C1B C 0.47453(17) 0.5888(6) 0.96380(13)
C2B C 0.37484(17) 0.6345(6) 0.95249(14)
C3B C 0.33812(18) 0.8075(7) 0.88136(15)
H1B H 0.2732 0.8449 0.8727
C4B C 0.39804(19) 0.9234(7) 0.82375(15)
H2B H 0.3741 1.0333 0.7756
C5B C 0.49388(18) 0.8714(7) 0.83974(14)
H3B H 0.5346 0.9528 0.8019
C6B C 0.22019(18) 0.4609(7) 0.99973(16)
C7B C 0.17908(17) 0.3089(7) 1.07525(15)
C8B C 0.08406(19) 0.2205(7) 1.06908(17)
H4B H 0.0467 0.2544 1.0199
C9B C 0.04550(19) 0.0796(8) 1.13816(18)
H5B H -0.0178 0.0137 1.1359
C10B C 0.1038(2) 0.0413(8) 1.20966(17)
H6B H 0.0803 -0.0483 1.2571
C11B C 0.1976(2) 0.1374(8) 1.21004(17)
H7B H 0.2362 0.1097 1.2588
H8B H 0.352(3) 0.423(11) 1.056(3)
N1B N 0.53070(15) 0.7095(6) 0.90713(12)
N2B N 0.31485(15) 0.5129(6) 1.01056(12)
N3B N 0.23637(15) 0.2686(6) 1.14407(13)
O1B O 0.16946(14) 0.5187(7) 0.93659(13)
loop_
_geom_bond_atom_site_label_1
_geom_bond_atom_site_label_2
_geom_bond_site_symmetry_1
_geom_bond_site_symmetry_2
C1 C2 1_555 1_555
C2 C3 1_555 1_555
C3 H1 1_555 1_555
C4 C3 1_555 1_555
H2 C4 1_555 1_555
C5 C4 1_555 1_555
H3 C5 1_555 1_555
C6 C7 1_555 1_555
C7 C8 1_555 1_555
C8 H4 1_555 1_555
C9 C8 1_555 1_555
H5 C9 1_555 1_555
C10 C9 1_555 1_555
H6 C10 1_555 1_555
C11 C10 1_555 1_555
H7 C11 1_555 1_555
H8 N2 1_555 1_555
N1 C1 1_555 1_555
N2 C2 1_555 1_555
N3 C7 1_555 1_555
O1 C6 1_555 1_555
C1B C1 1_555 1_555
C2B C1B 1_555 1_555
C3B C2B 1_555 1_555
H1B C3B 1_555 1_555
C4B C3B 1_555 1_555
H2B C4B 1_555 1_555
C5B C4B 1_555 1_555
H3B C5B 1_555 1_555
C6B C7B 1_555 1_555
C7B C8B 1_555 1_555
C8B H4B 1_555 1_555
C9B C8B 1_555 1_555
H5B C9B 1_555 1_555
C10B C9B 1_555 1_555
H6B C10B 1_555 1_555
C11B C10B 1_555 1_555
H7B C11B 1_555 1_555
H8B N2B 1_555 1_555
N1B C1B 1_555 1_555
N2B C2B 1_555 1_555
N3B C7B 1_555 1_555
O1B C6B 1_555 1_555
C5 N1 1_555 1_555
C6 N2 1_555 1_555
C11 N3 1_555 1_555
C5B N1B 1_555 1_555
C6B N2B 1_555 1_555
C11B N3B 1_555 1_555

#END
