
#######################################################################
#
#                 Cambridge Crystallographic Data Centre
#                                CCDC 
#
#######################################################################
#
# If this CIF has been generated from an entry in the Cambridge 
# Structural Database, then it will include bibliographic, chemical, 
# crystal, experimental, refinement or atomic coordinate data resulting 
# from the CCDC's data processing and validation procedures.
#
#######################################################################

data_JONZUJ
_chemical_formula_moiety         'C25 H32 O5'
_chemical_name_systematic        
9,12-Dihydroxy-4,4,6a,14b-tetramethyl-1,4,4a,5,6,6a,11,12,13,14,14a,14b-dodecahydro-2H-dibenzo[a,j]xanthene-3,10-dione
_symmetry_cell_setting           monoclinic
_symmetry_space_group_name_H-M   'P 21'
_symmetry_Int_Tables_number      4
_space_group_name_Hall           'P 2yb'
loop_
_symmetry_equiv_pos_site_id
_symmetry_equiv_pos_as_xyz
1 x,y,z
2 -x,1/2+y,-z
_cell_length_a                   8.7283(2)
_cell_length_b                   25.8978(4)
_cell_length_c                   10.1531(2)
_cell_angle_alpha                90
_cell_angle_beta                 109.860(2)
_cell_angle_gamma                90
_cell_volume                     2158.55
_cell_formula_units_Z            4
loop_
_atom_site_label
_atom_site_type_symbol
_atom_site_fract_x
_atom_site_fract_y
_atom_site_fract_z
O1 O 0.48329(12) 0.76563(4) 0.81352(12)
O2 O 0.77675(13) 0.61208(4) 0.88665(13)
H1 H 0.7653 0.5807 0.8871
O3 O 0.20497(15) 0.54904(5) 0.57613(12)
H2 H 0.1152 0.5543 0.5171
O4 O 0.62372(15) 0.52687(4) 0.86702(14)
O5 O -0.35869(15) 0.88936(6) 0.59879(17)
C1 C 0.32764(16) 0.68642(5) 0.78916(14)
C2 C 0.18977(16) 0.77220(5) 0.71477(15)
H3 H 0.2119 0.7703 0.6265
C3 C 0.35114(19) 0.79490(7) 0.97117(16)
H4 H 0.2691 0.8173 0.9829
H5 H 0.4567 0.8064 1.0303
H6 H 0.3329 0.7603 0.9963
C4 C 0.07497(18) 0.86297(5) 0.71125(17)
H7 H 0.1107 0.8664 0.8134
C5 C 0.17842(18) 0.60192(6) 0.76437(17)
H8 H 0.0903 0.6201 0.6951
H9 H 0.1518 0.5996 0.8495
C6 C 0.37486(19) 0.85053(6) 0.7731(2)
H10 H 0.4182 0.8722 0.8553
H11 H 0.4571 0.8480 0.7288
C7 C 0.47584(17) 0.71365(5) 0.81767(15)
C8 C -0.07237(19) 0.90033(6) 0.65356(18)
C9 C 0.62428(18) 0.68840(6) 0.84849(16)
H12 H 0.7196 0.7073 0.8648
C10 C 0.33401(16) 0.63269(5) 0.79403(14)
C11 C 0.62955(17) 0.63523(6) 0.85474(15)
C12 C 0.19022(19) 0.54750(6) 0.71117(17)
H13 H 0.0921 0.5281 0.7063
C13 C 0.03023(16) 0.80517(6) 0.68091(14)
C14 C 0.34287(16) 0.79606(5) 0.82002(16)
C15 C 0.49213(19) 0.55017(6) 0.83519(15)
C16 C -0.07358(19) 0.79086(7) 0.7714(2)
H14 H -0.1319 0.7591 0.7362
H15 H -0.0022 0.7847 0.8667
C17 C 0.2234(2) 0.87649(6) 0.6712(2)
H16 H 0.2385 0.9136 0.6742
H17 H 0.2067 0.8649 0.5765
C18 C 0.17057(17) 0.71609(5) 0.75393(16)
H18 H 0.1335 0.7155 0.8338
H19 H 0.0882 0.6994 0.6763
C19 C -0.22362(19) 0.87468(6) 0.66511(19)
C20 C 0.48451(17) 0.60631(5) 0.82715(14)
C21 C -0.0689(2) 0.79418(7) 0.52635(18)
H20 H -0.0122 0.8078 0.4679
H21 H -0.1738 0.8103 0.5026
H22 H -0.0825 0.7576 0.5122
C22 C 0.3382(2) 0.52005(6) 0.80822(19)
H23 H 0.3221 0.5135 0.8967
H24 H 0.3493 0.4870 0.7676
C23 C -0.1050(3) 0.91929(9) 0.5037(2)
H25 H -0.0146 0.9397 0.5005
H26 H -0.2023 0.9399 0.4743
H27 H -0.1186 0.8902 0.4423
C24 C -0.0419(3) 0.94807(8) 0.7491(3)
H28 H -0.0378 0.9378 0.8411
H29 H -0.1286 0.9725 0.7113
H30 H 0.0598 0.9637 0.7545
C25 C -0.1954(3) 0.83269(11) 0.7722(3)
H31 H -0.2992 0.8162 0.7597
H32 H -0.1593 0.8486 0.8641
O6 O 0.02289(12) 0.69851(4) 0.17686(12)
O7 O 0.32443(19) 0.91678(5) 0.11976(14)
H33 H 0.3433 0.9462 0.0993
O8 O -0.25867(16) 0.85418(5) 0.09189(17)
H34 H -0.2449 0.8855 0.0967
O9 O -0.09634(18) 0.93886(5) 0.14523(17)
O10 O 0.85622(16) 0.56830(7) 0.44680(17)
C26 C 0.33951(18) 0.74572(6) 0.30309(16)
H35 H 0.3757 0.7458 0.4046
H36 H 0.4235 0.7620 0.2747
C27 C 0.03478(18) 0.75070(6) 0.18930(15)
C28 C 0.18394(17) 0.77656(5) 0.24640(15)
C29 C -0.11228(19) 0.77707(6) 0.13724(17)
H37 H -0.2095 0.7589 0.1004
C30 C 0.1518(2) 0.66772(7) 0.41039(18)
H38 H 0.0480 0.6547 0.4082
H39 H 0.1653 0.7025 0.4453
H40 H 0.2369 0.6464 0.4706
C31 C 0.3413(2) 0.85960(6) 0.30730(19)
H41 H 0.3760 0.8583 0.4087
H42 H 0.4235 0.8422 0.2791
C32 C 0.0344(2) 0.85779(6) 0.19569(16)
C33 C 0.42380(18) 0.59825(6) 0.30856(15)
H43 H 0.3871 0.5942 0.3891
C34 C 0.31663(17) 0.68992(5) 0.25067(15)
H44 H 0.2964 0.6922 0.1498
C35 C 0.3333(2) 0.91550(6) 0.26232(19)
H45 H 0.4323 0.9334 0.3201
C36 C 0.12496(19) 0.61314(6) 0.19523(19)
H46 H 0.0803 0.5914 0.2511
H47 H 0.0429 0.6164 0.1030
C37 C 0.16027(17) 0.66700(5) 0.26327(15)
C38 C -0.11304(19) 0.83018(6) 0.14053(16)
C39 C 0.27476(19) 0.58672(6) 0.18083(17)
H48 H 0.2570 0.5497 0.1720
H49 H 0.2928 0.5990 0.0970
C40 C 0.5684(2) 0.55984(7) 0.33511(17)
C41 C 0.0310(2) 0.91405(6) 0.20016(18)
C42 C 0.18240(18) 0.83037(6) 0.24789(15)
C43 C 0.1860(2) 0.94171(6) 0.2791(2)
H50 H 0.1983 0.9429 0.3777
H51 H 0.1799 0.9770 0.2455
C44 C 0.5769(2) 0.66699(8) 0.21665(19)
H52 H 0.6800 0.6498 0.2544
H53 H 0.5942 0.7035 0.2138
H54 H 0.5208 0.6546 0.1236
C45 C 0.47332(16) 0.65590(6) 0.31010(14)
C46 C 0.7220(2) 0.58419(7) 0.43607(18)
C47 C 0.57753(19) 0.66841(7) 0.46285(17)
H55 H 0.6342 0.7008 0.4651
H56 H 0.5065 0.6727 0.5176
C48 C 0.5983(3) 0.54108(9) 0.2026(2)
H57 H 0.6958 0.5206 0.2285
H58 H 0.6102 0.5703 0.1488
H59 H 0.5075 0.5205 0.1476
C49 C 0.7016(3) 0.62639(10) 0.5290(2)
H60 H 0.8067 0.6428 0.5718
H61 H 0.6721 0.6107 0.6037
C50 C 0.5354(3) 0.51215(8) 0.4128(3)
H62 H 0.4361 0.4959 0.3562
H63 H 0.5257 0.5228 0.5002
H64 H 0.6240 0.4882 0.4302
loop_
_geom_bond_atom_site_label_1
_geom_bond_atom_site_label_2
_geom_bond_site_symmetry_1
_geom_bond_site_symmetry_2
O1 C7 1_555 1_555
O2 H1 1_555 1_555
O3 H2 1_555 1_555
O4 C15 1_555 1_555
O5 C19 1_555 1_555
C1 C7 1_555 1_555
C2 H3 1_555 1_555
C3 H4 1_555 1_555
H5 C3 1_555 1_555
H6 C3 1_555 1_555
C4 H7 1_555 1_555
C5 H8 1_555 1_555
H9 C5 1_555 1_555
C6 H10 1_555 1_555
H11 C6 1_555 1_555
C7 C9 1_555 1_555
C8 C4 1_555 1_555
C9 H12 1_555 1_555
C10 C1 1_555 1_555
C11 O2 1_555 1_555
C12 O3 1_555 1_555
H13 C12 1_555 1_555
C13 C2 1_555 1_555
C14 O1 1_555 1_555
C15 C20 1_555 1_555
C16 C13 1_555 1_555
H14 C16 1_555 1_555
H15 C16 1_555 1_555
C17 C4 1_555 1_555
H16 C17 1_555 1_555
H17 C17 1_555 1_555
C18 C1 1_555 1_555
H18 C18 1_555 1_555
H19 C18 1_555 1_555
C19 C8 1_555 1_555
C20 C10 1_555 1_555
C21 C13 1_555 1_555
H20 C21 1_555 1_555
H21 C21 1_555 1_555
H22 C21 1_555 1_555
C22 C12 1_555 1_555
H23 C22 1_555 1_555
H24 C22 1_555 1_555
C23 C8 1_555 1_555
H25 C23 1_555 1_555
H26 C23 1_555 1_555
H27 C23 1_555 1_555
C24 C8 1_555 1_555
H28 C24 1_555 1_555
H29 C24 1_555 1_555
H30 C24 1_555 1_555
C25 C16 1_555 1_555
H31 C25 1_555 1_555
H32 C25 1_555 1_555
O6 C27 1_555 1_555
O7 H33 1_555 1_555
O8 H34 1_555 1_555
O9 C41 1_555 1_555
O10 C46 1_555 1_555
C26 H35 1_555 1_555
H36 C26 1_555 1_555
C27 C28 1_555 1_555
C28 C26 1_555 1_555
C29 C27 1_555 1_555
H37 C29 1_555 1_555
C30 H38 1_555 1_555
H39 C30 1_555 1_555
H40 C30 1_555 1_555
C31 H41 1_555 1_555
H42 C31 1_555 1_555
C32 C38 1_555 1_555
C33 H43 1_555 1_555
C34 C26 1_555 1_555
H44 C34 1_555 1_555
C35 O7 1_555 1_555
H45 C35 1_555 1_555
C36 H46 1_555 1_555
H47 C36 1_555 1_555
C37 O6 1_555 1_555
C38 O8 1_555 1_555
C39 C33 1_555 1_555
H48 C39 1_555 1_555
H49 C39 1_555 1_555
C40 C33 1_555 1_555
C41 C32 1_555 1_555
C42 C28 1_555 1_555
C43 C35 1_555 1_555
H50 C43 1_555 1_555
H51 C43 1_555 1_555
C44 H52 1_555 1_555
H53 C44 1_555 1_555
H54 C44 1_555 1_555
C45 C33 1_555 1_555
C46 C40 1_555 1_555
C47 C45 1_555 1_555
H55 C47 1_555 1_555
H56 C47 1_555 1_555
C48 C40 1_555 1_555
H57 C48 1_555 1_555
H58 C48 1_555 1_555
H59 C48 1_555 1_555
C49 C46 1_555 1_555
H60 C49 1_555 1_555
H61 C49 1_555 1_555
C50 C40 1_555 1_555
H62 C50 1_555 1_555
H63 C50 1_555 1_555
H64 C50 1_555 1_555
C2 C14 1_555 1_555
C2 C18 1_555 1_555
C3 C14 1_555 1_555
C4 C13 1_555 1_555
C5 C10 1_555 1_555
C5 C12 1_555 1_555
C6 C14 1_555 1_555
C6 C17 1_555 1_555
C9 C11 1_555 1_555
C11 C20 1_555 1_555
C15 C22 1_555 1_555
C19 C25 1_555 1_555
C29 C38 1_555 1_555
C30 C37 1_555 1_555
C31 C35 1_555 1_555
C31 C42 1_555 1_555
C32 C42 1_555 1_555
C34 C37 1_555 1_555
C34 C45 1_555 1_555
C36 C37 1_555 1_555
C36 C39 1_555 1_555
C41 C43 1_555 1_555
C44 C45 1_555 1_555
C47 C49 1_555 1_555

#END
