
#######################################################################
#
#                 Cambridge Crystallographic Data Centre
#                                CCDC 
#
#######################################################################
#
# If this CIF has been generated from an entry in the Cambridge 
# Structural Database, then it will include bibliographic, chemical, 
# crystal, experimental, refinement or atomic coordinate data resulting 
# from the CCDC's data processing and validation procedures.
#
#######################################################################

data_JOPQIQ
_chemical_formula_moiety         'C30 H36 N2 O6,H2 O1'
_chemical_name_systematic        
'3-acetyl-11-hydroperoxy-8-(1H-indol-3-ylmethyl)-2,9,9a-trimethyltetradecahydroazuleno[6,5-d]oxireno[f]isoindole-5,6-dione monohydrate'
_symmetry_cell_setting           monoclinic
_symmetry_space_group_name_H-M   'P 21'
_symmetry_Int_Tables_number      4
_space_group_name_Hall           'P 2yb'
loop_
_symmetry_equiv_pos_site_id
_symmetry_equiv_pos_as_xyz
1 x,y,z
2 -x,1/2+y,-z
_cell_length_a                   11.3323(4)
_cell_length_b                   8.5548(3)
_cell_length_c                   14.1288(5)
_cell_angle_alpha                90
_cell_angle_beta                 92.4530(10)
_cell_angle_gamma                90
_cell_volume                     1368.47
_exptl_crystal_colour            yellow
_exptl_crystal_description       prism
_cell_formula_units_Z            2
loop_
_atom_site_label
_atom_site_type_symbol
_atom_site_fract_x
_atom_site_fract_y
_atom_site_fract_z
O1 O 0.40831(19) 0.2561(3) 0.77958(15)
O2 O 0.36559(17) 0.7202(3) 0.45612(14)
O3 O 0.02655(16) 0.6074(3) 0.29483(14)
O4 O 0.35619(18) 0.2249(3) 0.49526(14)
O5 O 0.00897(18) 0.6528(3) 0.52512(14)
O6 O -0.07707(19) 0.5400(3) 0.48725(17)
H1 H -0.1262 0.5201 0.5284
N1 N 0.4335(2) 0.5703(3) 0.33594(17)
H2 H 0.4903 0.6341 0.3200
N2 N 0.8056(2) 0.4647(4) 0.28688(19)
H3 H 0.8720 0.5031 0.3116
C1 C 0.7931(3) 0.4528(6) 0.0252(3)
H4 H 0.8348 0.4791 -0.0295
C2 C 0.6806(3) 0.3832(6) 0.0141(2)
H5 H 0.6488 0.3606 -0.0477
C3 C 0.6161(3) 0.3473(5) 0.0920(2)
H6 H 0.5396 0.3024 0.0842
C4 C 0.6652(3) 0.3781(4) 0.1823(2)
C5 C 0.6242(3) 0.3581(4) 0.2764(2)
C6 C 0.5060(2) 0.3025(4) 0.3037(2)
H7 H 0.5097 0.2751 0.3719
H8 H 0.4854 0.2065 0.2675
C7 C 0.4086(2) 0.4250(4) 0.28531(19)
H9 H 0.3995 0.4465 0.2158
C8 C 0.2883(2) 0.3739(4) 0.32302(19)
H10 H 0.2906 0.2586 0.3347
C9 C 0.2822(2) 0.4590(4) 0.4197(2)
C10 C 0.3326(2) 0.3621(4) 0.5031(2)
C11 C 0.3472(2) 0.4415(4) 0.59750(19)
H11 H 0.3484 0.5564 0.5893
H12 H 0.4221 0.4088 0.6302
C12 C 0.2417(2) 0.3929(4) 0.65541(19)
H13 H 0.2376 0.2761 0.6546
C13 C 0.2535(2) 0.4447(4) 0.75951(19)
H14 H 0.2833 0.5548 0.7606
C14 C 0.3417(3) 0.3461(5) 0.8165(2)
C15 C 0.3464(4) 0.3597(7) 0.9225(2)
H15 H 0.2748 0.3142 0.9474
H16 H 0.3518 0.4702 0.9405
H17 H 0.4158 0.3037 0.9487
C16 C 0.1243(2) 0.4479(4) 0.7908(2)
H18 H 0.0951 0.3382 0.7967
C17 C 0.0991(3) 0.5377(5) 0.8812(2)
H19 H 0.1428 0.6366 0.8822
H20 H 0.1239 0.4749 0.9366
H21 H 0.0142 0.5594 0.8828
C18 C 0.0622(3) 0.5252(4) 0.7040(2)
H22 H 0.0730 0.6400 0.7063
H23 H -0.0234 0.5020 0.7023
C19 C 0.1196(2) 0.4563(4) 0.61615(19)
H24 H 0.0709 0.3652 0.5934
C20 C 0.1221(2) 0.5754(4) 0.5362(2)
H25 H 0.1823 0.6565 0.5549
C21 C 0.1528(2) 0.5123(4) 0.43768(19)
H26 H 0.1002 0.4205 0.4239
C22 C 0.3645(2) 0.6007(4) 0.40824(19)
C23 C 0.8437(3) 0.4834(5) 0.1132(3)
H27 H 0.9203 0.5282 0.1203
C24 C 0.7786(3) 0.4465(4) 0.1923(2)
C25 C 0.7127(2) 0.4135(4) 0.3367(2)
H28 H 0.7097 0.4158 0.4038
C26 C 0.1797(2) 0.4113(4) 0.25591(19)
H29 H 0.1122 0.3518 0.2816
C27 C 0.1465(2) 0.5825(4) 0.2630(2)
C28 C 0.1257(2) 0.6330(4) 0.3609(2)
H30 H 0.1452 0.7441 0.3769
C29 C 0.1841(3) 0.6972(5) 0.1903(2)
H31 H 0.1616 0.8029 0.2092
H32 H 0.1455 0.6719 0.1288
H33 H 0.2700 0.6920 0.1853
C30 C 0.1931(3) 0.3502(5) 0.1554(2)
H34 H 0.2509 0.4143 0.1233
H35 H 0.1167 0.3556 0.1203
H36 H 0.2203 0.2415 0.1580
O7 O 0.7440(2) 0.4868(3) 0.60975(18)
H37 H 0.712(4) 0.406(3) 0.591(3)
H38 H 0.707(4) 0.559(3) 0.583(3)
loop_
_geom_bond_atom_site_label_1
_geom_bond_atom_site_label_2
_geom_bond_site_symmetry_1
_geom_bond_site_symmetry_2
O1 C14 1_555 1_555
O2 C22 1_555 1_555
O3 C27 1_555 1_555
O4 C10 1_555 1_555
O5 O6 1_555 1_555
O6 H1 1_555 1_555
N1 H2 1_555 1_555
N2 H3 1_555 1_555
C1 H4 1_555 1_555
C2 C1 1_555 1_555
H5 C2 1_555 1_555
C3 C2 1_555 1_555
H6 C3 1_555 1_555
C4 C3 1_555 1_555
C5 C4 1_555 1_555
C6 C5 1_555 1_555
H7 C6 1_555 1_555
H8 C6 1_555 1_555
C7 N1 1_555 1_555
H9 C7 1_555 1_555
C8 C7 1_555 1_555
H10 C8 1_555 1_555
C9 C8 1_555 1_555
C10 C9 1_555 1_555
C11 C10 1_555 1_555
H11 C11 1_555 1_555
H12 C11 1_555 1_555
C12 C11 1_555 1_555
H13 C12 1_555 1_555
C13 C12 1_555 1_555
H14 C13 1_555 1_555
C14 C13 1_555 1_555
C15 C14 1_555 1_555
H15 C15 1_555 1_555
H16 C15 1_555 1_555
H17 C15 1_555 1_555
C16 C13 1_555 1_555
H18 C16 1_555 1_555
C17 C16 1_555 1_555
H19 C17 1_555 1_555
H20 C17 1_555 1_555
H21 C17 1_555 1_555
C18 C16 1_555 1_555
H22 C18 1_555 1_555
H23 C18 1_555 1_555
C19 C12 1_555 1_555
H24 C19 1_555 1_555
C20 O5 1_555 1_555
H25 C20 1_555 1_555
C21 C9 1_555 1_555
H26 C21 1_555 1_555
C22 N1 1_555 1_555
C23 C1 1_555 1_555
H27 C23 1_555 1_555
C24 N2 1_555 1_555
C25 N2 1_555 1_555
H28 C25 1_555 1_555
C26 C8 1_555 1_555
H29 C26 1_555 1_555
C27 C26 1_555 1_555
C28 O3 1_555 1_555
H30 C28 1_555 1_555
C29 C27 1_555 1_555
H31 C29 1_555 1_555
H32 C29 1_555 1_555
H33 C29 1_555 1_555
C30 C26 1_555 1_555
H34 C30 1_555 1_555
H35 C30 1_555 1_555
H36 C30 1_555 1_555
O7 H37 1_555 1_555
H38 O7 1_555 1_555
C4 C24 1_555 1_555
C5 C25 1_555 1_555
C6 C7 1_555 1_555
C9 C22 1_555 1_555
C18 C19 1_555 1_555
C19 C20 1_555 1_555
C20 C21 1_555 1_555
C21 C28 1_555 1_555
C23 C24 1_555 1_555
C27 C28 1_555 1_555

#END
