
#######################################################################
#
#                 Cambridge Crystallographic Data Centre
#                                CCDC 
#
#######################################################################
#
# If this CIF has been generated from an entry in the Cambridge 
# Structural Database, then it will include bibliographic, chemical, 
# crystal, experimental, refinement or atomic coordinate data resulting 
# from the CCDC's data processing and validation procedures.
#
#######################################################################

data_JOPSEO
_chemical_formula_moiety         'C19 H16 N2'
_chemical_name_systematic        
10,11,12,13-tetrahydro-9H-quinolino[8,7-a]carbazole
_symmetry_cell_setting           monoclinic
_symmetry_space_group_name_H-M   'P 21/n'
_symmetry_Int_Tables_number      14
_space_group_name_Hall           '-P 2yn'
loop_
_symmetry_equiv_pos_site_id
_symmetry_equiv_pos_as_xyz
1 x,y,z
2 1/2-x,1/2+y,1/2-z
3 -x,-y,-z
4 1/2+x,1/2-y,1/2+z
_cell_length_a                   7.2642(8)
_cell_length_b                   11.9445(12)
_cell_length_c                   15.7830(16)
_cell_angle_alpha                90
_cell_angle_beta                 98.804(3)
_cell_angle_gamma                90
_cell_volume                     1353.31
_exptl_crystal_colour            colorless
_exptl_crystal_description       block
_cell_formula_units_Z            4
loop_
_atom_site_label
_atom_site_type_symbol
_atom_site_fract_x
_atom_site_fract_y
_atom_site_fract_z
N1 N 0.2331(3) 0.09503(16) 0.50985(12)
N2 N 0.2306(3) 0.03259(17) 0.67949(12)
H1 H 0.310(3) 0.028(2) 0.6398(16)
C1 C 0.3078(3) 0.0995(2) 0.43830(15)
H2 H 0.4267 0.0662 0.4387
C2 C 0.2233(4) 0.1499(2) 0.36272(16)
H3 H 0.2845 0.1521 0.3137
C3 C 0.0504(3) 0.1961(2) 0.36044(16)
H4 H -0.0102 0.2305 0.3094
C4 C -0.0370(3) 0.19262(19) 0.43344(15)
C5 C -0.2180(3) 0.2371(2) 0.43544(16)
H5 H -0.2845 0.2710 0.3855
C6 C -0.2964(3) 0.23151(19) 0.50766(16)
H6 H -0.4170 0.2624 0.5073
C7 C -0.2037(3) 0.18072(19) 0.58448(15)
C8 C -0.2908(3) 0.1737(2) 0.65861(16)
H7 H -0.4115 0.2049 0.6574
C9 C -0.2054(3) 0.12314(19) 0.73210(16)
H8 H -0.2664 0.1193 0.7811
C10 C -0.0262(3) 0.07680(19) 0.73449(15)
C11 C 0.0605(3) 0.08497(18) 0.66094(15)
C12 C -0.0234(3) 0.13533(18) 0.58416(15)
C13 C 0.0607(3) 0.14114(19) 0.50757(15)
C14 C 0.2500(3) -0.00992(19) 0.76153(15)
C15 C 0.0961(3) 0.01551(19) 0.79723(15)
C16 C 0.0717(3) -0.0196(2) 0.88603(15)
H9 H -0.0508 -0.0566 0.8844
H10 H 0.0744 0.0472 0.9233
C17 C 0.2267(3) -0.1004(2) 0.92299(16)
H11 H 0.2343 -0.1028 0.9861
H12 H 0.1952 -0.1765 0.9006
C18 C 0.4152(3) -0.0670(2) 0.90086(15)
H13 H 0.5120 -0.1179 0.9303
H14 H 0.4457 0.0100 0.9216
C19 C 0.4162(3) -0.0721(2) 0.80431(15)
H15 H 0.5315 -0.0377 0.7900
H16 H 0.4112 -0.1510 0.7847
loop_
_geom_bond_atom_site_label_1
_geom_bond_atom_site_label_2
_geom_bond_site_symmetry_1
_geom_bond_site_symmetry_2
N1 C1 1_555 1_555
N2 H1 1_555 1_555
C1 H2 1_555 1_555
C2 C1 1_555 1_555
H3 C2 1_555 1_555
C3 C2 1_555 1_555
H4 C3 1_555 1_555
C4 C3 1_555 1_555
C5 C4 1_555 1_555
H5 C5 1_555 1_555
C6 C5 1_555 1_555
H6 C6 1_555 1_555
C7 C6 1_555 1_555
C8 C7 1_555 1_555
H7 C8 1_555 1_555
C9 C8 1_555 1_555
H8 C9 1_555 1_555
C10 C9 1_555 1_555
C11 N2 1_555 1_555
C12 C7 1_555 1_555
C13 N1 1_555 1_555
C14 N2 1_555 1_555
C15 C10 1_555 1_555
C16 C15 1_555 1_555
H9 C16 1_555 1_555
H10 C16 1_555 1_555
C17 C16 1_555 1_555
H11 C17 1_555 1_555
H12 C17 1_555 1_555
C18 C17 1_555 1_555
H13 C18 1_555 1_555
H14 C18 1_555 1_555
C19 C14 1_555 1_555
H15 C19 1_555 1_555
H16 C19 1_555 1_555
C4 C13 1_555 1_555
C10 C11 1_555 1_555
C11 C12 1_555 1_555
C12 C13 1_555 1_555
C14 C15 1_555 1_555
C18 C19 1_555 1_555

#END
