
#######################################################################
#
#                 Cambridge Crystallographic Data Centre
#                                CCDC 
#
#######################################################################
#
# If this CIF has been generated from an entry in the Cambridge 
# Structural Database, then it will include bibliographic, chemical, 
# crystal, experimental, refinement or atomic coordinate data resulting 
# from the CCDC's data processing and validation procedures.
#
#######################################################################

data_JOPTEP
_chemical_formula_moiety         'C19 H21 N2 1+,I1 1-'
_chemical_name_systematic        
'2-mesityl-9,9a-dihydro-1H-imidazo[1,5-a]indol-2-ium iodide'
_symmetry_cell_setting           triclinic
_symmetry_space_group_name_H-M   'P -1'
_symmetry_Int_Tables_number      2
_space_group_name_Hall           '-P 1'
loop_
_symmetry_equiv_pos_site_id
_symmetry_equiv_pos_as_xyz
1 x,y,z
2 -x,-y,-z
_cell_length_a                   8.668(3)
_cell_length_b                   10.397(3)
_cell_length_c                   10.757(3)
_cell_angle_alpha                108.642(4)
_cell_angle_beta                 99.276(4)
_cell_angle_gamma                101.841(5)
_cell_volume                     871.729
_exptl_crystal_colour            yellow
_exptl_crystal_description       block
_cell_formula_units_Z            2
loop_
_atom_site_label
_atom_site_type_symbol
_atom_site_fract_x
_atom_site_fract_y
_atom_site_fract_z
I1 I 0.30195(3) 0.33193(3) 0.08990(2)
N1 N 0.8081(4) 0.4411(3) 0.2188(3)
N2 N 0.7239(4) 0.3094(3) 0.0041(3)
C1 C 0.7186(4) 0.4227(4) 0.1005(3)
C2 C 0.8753(6) 0.3188(4) 0.2099(4)
H1 H 0.8220 0.2608 0.2564
H2 H 0.9941 0.3503 0.2497
C3 C 0.8357(5) 0.2373(4) 0.0575(4)
H3 H 0.9369 0.2520 0.0245
C4 C 0.7404(6) 0.0827(4) -0.0067(4)
H4 H 0.8128 0.0213 -0.0310
H5 H 0.6787 0.0535 0.0541
C5 C 0.6274(5) 0.0793(4) -0.1318(4)
C6 C 0.5381(6) -0.0334(5) -0.2485(5)
H6 H 0.5452 -0.1264 -0.2604
C7 C 0.4392(6) -0.0089(5) -0.3469(5)
H7 H 0.3769 -0.0860 -0.4265
C8 C 0.4288(5) 0.1257(5) -0.3321(4)
H8 H 0.3602 0.1400 -0.4018
C9 C 0.5182(5) 0.2412(5) -0.2154(4)
H9 H 0.5123 0.3345 -0.2035
C10 C 0.6155(4) 0.2122(4) -0.1185(3)
C11 C 0.8453(4) 0.5637(4) 0.3394(3)
C12 C 0.9606(4) 0.6840(4) 0.3513(3)
C13 C 0.9944(4) 0.8034(4) 0.4690(3)
H10 H 1.0720 0.8873 0.4787
C14 C 0.9168(5) 0.8019(4) 0.5722(3)
C15 C 0.8058(5) 0.6795(4) 0.5584(3)
H11 H 0.7527 0.6784 0.6289
C16 C 0.7695(4) 0.5579(4) 0.4444(3)
C17 C 1.0476(6) 0.6873(5) 0.2413(4)
H12 H 1.0748 0.5978 0.2053
H13 H 1.1476 0.7652 0.2787
H14 H 0.9770 0.7009 0.1685
C18 C 0.9585(6) 0.9322(4) 0.7006(4)
H15 H 0.8860 0.9909 0.6899
H16 H 1.0715 0.9863 0.7174
H17 H 0.9449 0.9032 0.7773
C19 C 0.6557(5) 0.4216(4) 0.4355(4)
H18 H 0.7151 0.3500 0.4292
H19 H 0.5653 0.3883 0.3551
H20 H 0.6130 0.4384 0.5166
H21 H 0.659(5) 0.483(4) 0.083(4)
loop_
_geom_bond_atom_site_label_1
_geom_bond_atom_site_label_2
_geom_bond_site_symmetry_1
_geom_bond_site_symmetry_2
N1 C1 1_555 1_555
N2 C1 1_555 1_555
C1 H21 1_555 1_555
C2 N1 1_555 1_555
H1 C2 1_555 1_555
H2 C2 1_555 1_555
C3 N2 1_555 1_555
H3 C3 1_555 1_555
C4 C3 1_555 1_555
H4 C4 1_555 1_555
H5 C4 1_555 1_555
C5 C4 1_555 1_555
C6 C5 1_555 1_555
H6 C6 1_555 1_555
C7 C6 1_555 1_555
H7 C7 1_555 1_555
C8 C7 1_555 1_555
H8 C8 1_555 1_555
C9 C8 1_555 1_555
H9 C9 1_555 1_555
C10 N2 1_555 1_555
C11 N1 1_555 1_555
C12 C11 1_555 1_555
C13 C12 1_555 1_555
H10 C13 1_555 1_555
C14 C13 1_555 1_555
C15 C14 1_555 1_555
H11 C15 1_555 1_555
C16 C11 1_555 1_555
C17 C12 1_555 1_555
H12 C17 1_555 1_555
H13 C17 1_555 1_555
H14 C17 1_555 1_555
C18 C14 1_555 1_555
H15 C18 1_555 1_555
H16 C18 1_555 1_555
H17 C18 1_555 1_555
C19 C16 1_555 1_555
H18 C19 1_555 1_555
H19 C19 1_555 1_555
H20 C19 1_555 1_555
C2 C3 1_555 1_555
C5 C10 1_555 1_555
C9 C10 1_555 1_555
C15 C16 1_555 1_555

#END
