
#######################################################################
#
#                 Cambridge Crystallographic Data Centre
#                                CCDC 
#
#######################################################################
#
# If this CIF has been generated from an entry in the Cambridge 
# Structural Database, then it will include bibliographic, chemical, 
# crystal, experimental, refinement or atomic coordinate data resulting 
# from the CCDC's data processing and validation procedures.
#
#######################################################################

data_JOPTAL
_chemical_formula_moiety         'C33 H33 N2 1+,0.5(H2 O1),I1 1-,0.5(C1 H2 Cl2)'
_chemical_name_systematic        
'2-mesityl-3,6,6-triphenyl-5,6,7,7a-tetrahydro-1H-pyrrolo[1,2-c]imidazol-2-ium iodide dichloromethane solvate hemihydrate'
_symmetry_cell_setting           triclinic
_symmetry_space_group_name_H-M   'P -1'
_symmetry_Int_Tables_number      2
_space_group_name_Hall           '-P 1'
loop_
_symmetry_equiv_pos_site_id
_symmetry_equiv_pos_as_xyz
1 x,y,z
2 -x,-y,-z
_cell_length_a                   13.894(7)
_cell_length_b                   15.126(7)
_cell_length_c                   17.283(8)
_cell_angle_alpha                108.209(5)
_cell_angle_beta                 97.011(6)
_cell_angle_gamma                114.943(5)
_cell_volume                     2989.55
_exptl_crystal_colour            yellow
_exptl_crystal_description       block
_cell_formula_units_Z            4
loop_
_atom_site_label
_atom_site_type_symbol
_atom_site_fract_x
_atom_site_fract_y
_atom_site_fract_z
I1 I -0.00860(3) 0.65149(2) 0.25878(2)
I2 I 0.28444(3) 0.04185(3) 0.24997(2)
N1 N 0.1065(2) 0.8503(2) 0.94993(18)
N2 N 0.0697(2) 0.6946(2) 0.95025(18)
C1 C 0.0971(3) 0.7561(3) 0.9079(2)
C2 C 0.0682(3) 0.8518(3) 1.0271(2)
H1 H -0.0025 0.8511 1.0200
H2 H 0.1223 0.9140 1.0776
C3 C 0.0572(3) 0.7509(3) 1.0327(2)
H3 H 0.1184 0.7685 1.0798
C4 C -0.0512(3) 0.6694(3) 1.0362(2)
H4 H -0.0956 0.7021 1.0554
H5 H -0.0372 0.6388 1.0751
C5 C -0.1120(3) 0.5822(3) 0.9440(2)
C6 C -0.0111(3) 0.5805(3) 0.9156(2)
H6 H 0.0162 0.5427 0.9399
H7 H -0.0293 0.5482 0.8540
C7 C 0.1161(3) 0.7225(3) 0.8240(2)
C8 C 0.0940(3) 0.7592(3) 0.7641(2)
H8 H 0.0667 0.8069 0.7760
C9 C 0.1125(4) 0.7249(3) 0.6865(3)
H9 H 0.0986 0.7502 0.6463
C10 C 0.1514(4) 0.6537(4) 0.6684(3)
H10 H 0.1645 0.6313 0.6161
C11 C 0.1708(4) 0.6156(3) 0.7263(3)
H11 H 0.1953 0.5657 0.7128
C12 C 0.1549(3) 0.6499(3) 0.8053(3)
H12 H 0.1700 0.6246 0.8452
C13 C 0.1633(3) 0.9469(3) 0.9370(2)
C14 C 0.1009(3) 0.9829(3) 0.9019(2)
C15 C 0.1583(4) 1.0775(3) 0.8912(3)
H13 H 0.1187 1.1036 0.8669
C16 C 0.2737(4) 1.1329(3) 0.9162(3)
C17 C 0.3303(4) 1.0942(3) 0.9520(3)
H14 H 0.4075 1.1322 0.9694
C18 C 0.2786(3) 1.0011(3) 0.9638(2)
C19 C -0.0241(3) 0.9231(3) 0.8748(3)
H15 H -0.0500 0.8491 0.8414
H16 H -0.0524 0.9518 0.8414
H17 H -0.0496 0.9302 0.9245
C20 C 0.3320(5) 1.2333(4) 0.9029(4)
H18 H 0.3703 1.2930 0.9572
H19 H 0.2786 1.2424 0.8702
H20 H 0.3846 1.2288 0.8728
C21 C 0.3437(4) 0.9607(4) 1.0034(3)
H21 H 0.3240 0.9546 1.0535
H22 H 0.4216 1.0094 1.0186
H23 H 0.3272 0.8920 0.9634
C22 C -0.1922(3) 0.4745(3) 0.9421(2)
C23 C -0.2128(3) 0.3799(3) 0.8789(3)
H24 H -0.1763 0.3820 0.8373
C24 C -0.2871(4) 0.2824(3) 0.8770(3)
H25 H -0.3001 0.2196 0.8342
C25 C -0.3413(4) 0.2785(4) 0.9377(3)
H26 H -0.3916 0.2130 0.9361
C26 C -0.3217(4) 0.3693(4) 0.9996(3)
H27 H -0.3583 0.3659 1.0410
C27 C -0.2484(4) 0.4674(4) 1.0030(3)
H28 H -0.2364 0.5293 1.0464
C28 C -0.1736(3) 0.6137(3) 0.8879(2)
C29 C -0.1893(4) 0.5772(4) 0.8011(2)
H29 H -0.1620 0.5323 0.7761
C30 C -0.2449(4) 0.6063(4) 0.7507(3)
H30 H -0.2537 0.5814 0.6924
C31 C -0.2870(4) 0.6709(4) 0.7853(3)
H31 H -0.3241 0.6905 0.7512
C32 C -0.2740(4) 0.7057(4) 0.8691(3)
H32 H -0.3023 0.7500 0.8933
C33 C -0.2196(3) 0.6772(3) 0.9203(3)
H33 H -0.2136 0.7011 0.9781
N3 N 0.4134(2) 0.1805(2) 0.55768(19)
N4 N 0.2400(2) 0.1228(2) 0.55792(18)
C34 C 0.3449(3) 0.1959(3) 0.6005(2)
C35 C 0.3526(3) 0.0775(3) 0.4817(2)
H34 H 0.3677 0.0239 0.4907
H35 H 0.3720 0.0858 0.4314
C36 C 0.2315(3) 0.0487(3) 0.4737(2)
H36 H 0.2025 0.0644 0.4281
C37 C 0.1494(3) -0.0604(3) 0.4660(2)
H37 H 0.1746 -0.1113 0.4434
H38 H 0.0772 -0.0852 0.4284
C38 C 0.1425(3) -0.0477(3) 0.5580(2)
C39 C 0.1543(3) 0.0658(3) 0.5919(2)
H39 H 0.0851 0.0636 0.5705
H40 H 0.1775 0.0984 0.6537
C40 C 0.3772(3) 0.2837(3) 0.6820(2)
C41 C 0.3025(3) 0.3209(3) 0.7010(3)
H41 H 0.2332 0.2898 0.6618
C42 C 0.3315(4) 0.4028(3) 0.7769(3)
H42 H 0.2812 0.4264 0.7896
C43 C 0.4330(4) 0.4508(3) 0.8347(3)
H43 H 0.4522 0.5078 0.8856
C44 C 0.5072(4) 0.4148(3) 0.8178(3)
H44 H 0.5761 0.4470 0.8578
C45 C 0.4799(3) 0.3311(3) 0.7418(2)
H45 H 0.5299 0.3065 0.7307
C46 C 0.5263(3) 0.2533(3) 0.5685(2)
C47 C 0.6110(3) 0.2371(3) 0.6045(2)
C48 C 0.7175(3) 0.3042(3) 0.6094(2)
H46 H 0.7750 0.2962 0.6341
C49 C 0.7430(3) 0.3832(3) 0.5793(3)
C50 C 0.6577(4) 0.3945(3) 0.5429(3)
H47 H 0.6737 0.4467 0.5215
C51 C 0.5480(3) 0.3299(3) 0.5373(3)
C52 C 0.5862(4) 0.1499(4) 0.6343(3)
H48 H 0.6544 0.1590 0.6651
H49 H 0.5484 0.0825 0.5861
H50 H 0.5398 0.1520 0.6710
C53 C 0.8618(4) 0.4543(4) 0.5859(3)
H51 H 0.8639 0.4986 0.5559
H52 H 0.8938 0.4112 0.5612
H53 H 0.9035 0.4984 0.6448
C54 C 0.4549(4) 0.3443(4) 0.4977(3)
H54 H 0.4011 0.2788 0.4509
H55 H 0.4848 0.3997 0.4776
H56 H 0.4198 0.3634 0.5397
C55 C 0.2390(3) -0.0497(3) 0.6101(2)
C56 C 0.2866(3) 0.0118(4) 0.6958(2)
H57 H 0.2609 0.0568 0.7235
C57 C 0.3724(4) 0.0080(4) 0.7418(3)
H58 H 0.4041 0.0511 0.7998
C58 C 0.4111(4) -0.0580(4) 0.7034(3)
H59 H 0.4693 -0.0599 0.7345
C59 C 0.3629(4) -0.1212(4) 0.6185(3)
H60 H 0.3883 -0.1669 0.5914
C60 C 0.2769(3) -0.1183(3) 0.5724(2)
H61 H 0.2439 -0.1633 0.5149
C61 C 0.0328(3) -0.1319(3) 0.5582(2)
C62 C -0.0133(3) -0.1099(3) 0.6238(3)
H62 H 0.0220 -0.0420 0.6674
C63 C -0.1106(4) -0.1876(4) 0.6249(3)
H63 H -0.1408 -0.1714 0.6689
C64 C -0.1639(4) -0.2891(4) 0.5616(3)
H64 H -0.2296 -0.3416 0.5625
C65 C -0.1183(4) -0.3109(4) 0.4978(3)
H65 H -0.1534 -0.3793 0.4548
C66 C -0.0212(3) -0.2341(3) 0.4952(3)
H66 H 0.0083 -0.2512 0.4509
C67 C 0.4493(5) 0.7118(6) 0.7266(5)
H67 H 0.3948 0.7292 0.7049
H68 H 0.5200 0.7569 0.7209
Cl1 Cl 0.46211(17) 0.73537(19) 0.83874(13)
Cl2 Cl 0.40949(15) 0.58294(16) 0.67051(12)
O1 O -0.0016(4) 0.8808(4) 0.2434(3)
H69 H -0.007(4) 0.832(3) 0.255(3)
H70 H 0.034(5) 0.887(5) 0.210(4)
loop_
_geom_bond_atom_site_label_1
_geom_bond_atom_site_label_2
_geom_bond_site_symmetry_1
_geom_bond_site_symmetry_2
N1 C1 1_555 1_555
N2 C1 1_555 1_555
C1 C7 1_555 1_555
C2 N1 1_555 1_555
H1 C2 1_555 1_555
H2 C2 1_555 1_555
C3 N2 1_555 1_555
H3 C3 1_555 1_555
C4 C3 1_555 1_555
H4 C4 1_555 1_555
H5 C4 1_555 1_555
C5 C4 1_555 1_555
C6 N2 1_555 1_555
H6 C6 1_555 1_555
H7 C6 1_555 1_555
C7 C8 1_555 1_555
C8 H8 1_555 1_555
C9 C8 1_555 1_555
H9 C9 1_555 1_555
C10 C9 1_555 1_555
H10 C10 1_555 1_555
C11 C10 1_555 1_555
H11 C11 1_555 1_555
C12 C7 1_555 1_555
H12 C12 1_555 1_555
C13 N1 1_555 1_555
C14 C13 1_555 1_555
C15 C14 1_555 1_555
H13 C15 1_555 1_555
C16 C15 1_555 1_555
C17 C16 1_555 1_555
H14 C17 1_555 1_555
C18 C13 1_555 1_555
C19 C14 1_555 1_555
H15 C19 1_555 1_555
H16 C19 1_555 1_555
H17 C19 1_555 1_555
C20 C16 1_555 1_555
H18 C20 1_555 1_555
H19 C20 1_555 1_555
H20 C20 1_555 1_555
C21 C18 1_555 1_555
H21 C21 1_555 1_555
H22 C21 1_555 1_555
H23 C21 1_555 1_555
C22 C5 1_555 1_555
C23 C22 1_555 1_555
H24 C23 1_555 1_555
C24 C23 1_555 1_555
H25 C24 1_555 1_555
C25 C24 1_555 1_555
H26 C25 1_555 1_555
C26 C25 1_555 1_555
H27 C26 1_555 1_555
C27 C22 1_555 1_555
H28 C27 1_555 1_555
C28 C5 1_555 1_555
C29 C28 1_555 1_555
H29 C29 1_555 1_555
C30 C29 1_555 1_555
H30 C30 1_555 1_555
C31 C30 1_555 1_555
H31 C31 1_555 1_555
C32 C31 1_555 1_555
H32 C32 1_555 1_555
C33 C28 1_555 1_555
H33 C33 1_555 1_555
N3 C34 1_555 1_555
N4 C34 1_555 1_555
C34 C40 1_555 1_555
C35 N3 1_555 1_555
H34 C35 1_555 1_555
H35 C35 1_555 1_555
C36 N4 1_555 1_555
H36 C36 1_555 1_555
C37 C36 1_555 1_555
H37 C37 1_555 1_555
H38 C37 1_555 1_555
C38 C37 1_555 1_555
C39 N4 1_555 1_555
H39 C39 1_555 1_555
H40 C39 1_555 1_555
C40 C41 1_555 1_555
C41 H41 1_555 1_555
C42 C41 1_555 1_555
H42 C42 1_555 1_555
C43 C42 1_555 1_555
H43 C43 1_555 1_555
C44 C43 1_555 1_555
H44 C44 1_555 1_555
C45 C40 1_555 1_555
H45 C45 1_555 1_555
C46 N3 1_555 1_555
C47 C46 1_555 1_555
C48 C47 1_555 1_555
H46 C48 1_555 1_555
C49 C48 1_555 1_555
C50 C49 1_555 1_555
H47 C50 1_555 1_555
C51 C46 1_555 1_555
C52 C47 1_555 1_555
H48 C52 1_555 1_555
H49 C52 1_555 1_555
H50 C52 1_555 1_555
C53 C49 1_555 1_555
H51 C53 1_555 1_555
H52 C53 1_555 1_555
H53 C53 1_555 1_555
C54 C51 1_555 1_555
H54 C54 1_555 1_555
H55 C54 1_555 1_555
H56 C54 1_555 1_555
C55 C38 1_555 1_555
C56 C55 1_555 1_555
H57 C56 1_555 1_555
C57 C56 1_555 1_555
H58 C57 1_555 1_555
C58 C57 1_555 1_555
H59 C58 1_555 1_555
C59 C58 1_555 1_555
H60 C59 1_555 1_555
C60 C55 1_555 1_555
H61 C60 1_555 1_555
C61 C38 1_555 1_555
C62 C61 1_555 1_555
H62 C62 1_555 1_555
C63 C62 1_555 1_555
H63 C63 1_555 1_555
C64 C63 1_555 1_555
H64 C64 1_555 1_555
C65 C64 1_555 1_555
H65 C65 1_555 1_555
C66 C61 1_555 1_555
H66 C66 1_555 1_555
C67 H67 1_555 1_555
H68 C67 1_555 1_555
Cl1 C67 1_555 1_555
Cl2 C67 1_555 1_555
O1 H69 1_555 1_555
H70 O1 1_555 1_555
C2 C3 1_555 1_555
C5 C6 1_555 1_555
C11 C12 1_555 1_555
C17 C18 1_555 1_555
C26 C27 1_555 1_555
C32 C33 1_555 1_555
C35 C36 1_555 1_555
C38 C39 1_555 1_555
C44 C45 1_555 1_555
C50 C51 1_555 1_555
C59 C60 1_555 1_555
C65 C66 1_555 1_555

#END
