
#######################################################################
#
#                 Cambridge Crystallographic Data Centre
#                                CCDC 
#
#######################################################################
#
# If this CIF has been generated from an entry in the Cambridge 
# Structural Database, then it will include bibliographic, chemical, 
# crystal, experimental, refinement or atomic coordinate data resulting 
# from the CCDC's data processing and validation procedures.
#
#######################################################################

data_JOPVIV
_chemical_formula_moiety         'C5 H9 N6 O2 1+,N1 O3 1-'
_chemical_name_systematic        
'amino(2-((4-methyl-5-oxido-1,2,5-oxadiazol-3-yl)methylene)hydrazino)methaniminium nitrate'
_symmetry_cell_setting           monoclinic
_symmetry_space_group_name_H-M   'P 21/c'
_symmetry_Int_Tables_number      14
_space_group_name_Hall           '-P 2ybc'
loop_
_symmetry_equiv_pos_site_id
_symmetry_equiv_pos_as_xyz
1 x,y,z
2 -x,1/2+y,1/2-z
3 -x,-y,-z
4 x,1/2-y,1/2+z
_cell_length_a                   12.6945(11)
_cell_length_b                   7.5903(8)
_cell_length_c                   11.6510(11)
_cell_angle_alpha                90
_cell_angle_beta                 112.837(3)
_cell_angle_gamma                90
_cell_volume                     1034.63
_exptl_crystal_colour            colorless
_exptl_crystal_description       block
_cell_formula_units_Z            4
loop_
_atom_site_label
_atom_site_type_symbol
_atom_site_fract_x
_atom_site_fract_y
_atom_site_fract_z
C1 C 0.3803(2) 0.8667(4) 0.5041(2)
C2 C 0.3270(2) 0.9971(3) 0.4126(2)
C3 C 0.3931(2) 0.6727(4) 0.4974(3)
H1 H 0.4400 0.6273 0.5803
H2 H 0.4302 0.6458 0.4397
H3 H 0.3176 0.6171 0.4677
C4 C 0.2632(2) 0.9777(3) 0.2800(2)
H4 H 0.2432 1.0786 0.2277
C5 C 0.1419(2) 0.6607(3) 0.0508(2)
N1 N 0.42575(19) 0.9509(3) 0.6110(2)
N2 N 0.33954(18) 1.1562(3) 0.4605(2)
N3 N 0.23375(16) 0.8238(3) 0.23328(18)
N4 N 0.17163(17) 0.8195(3) 0.10700(18)
H5 H 0.1516 0.9176 0.0637
N5 N 0.08821(17) 0.6567(3) -0.07072(18)
H6 H 0.0692 0.5550 -0.1096
H7 H 0.0712 0.7557 -0.1134
N6 N 0.16898(18) 0.5158(3) 0.11812(19)
H8 H 0.1510 0.4122 0.0817
H9 H 0.2050 0.5224 0.1995
O1 O 0.40096(16) 1.1393(3) 0.58597(17)
O2 O 0.48168(18) 0.9098(3) 0.72004(18)
N7 N 0.09638(18) 0.1626(3) 0.89250(19)
O3 O 0.11442(16) 0.1666(2) 1.00657(15)
O4 O 0.10952(18) 0.0216(2) 0.84525(17)
O5 O 0.06560(16) 0.2985(2) 0.82800(16)
loop_
_geom_bond_atom_site_label_1
_geom_bond_atom_site_label_2
_geom_bond_site_symmetry_1
_geom_bond_site_symmetry_2
C1 C2 1_555 1_555
C2 C4 1_555 1_555
C3 C1 1_555 1_555
H1 C3 1_555 1_555
H2 C3 1_555 1_555
H3 C3 1_555 1_555
C4 H4 1_555 1_555
C5 N4 1_555 1_555
N1 C1 1_555 1_555
N2 C2 1_555 1_555
N3 C4 1_555 1_555
N4 N3 1_555 1_555
H5 N4 1_555 1_555
N5 C5 1_555 1_555
H6 N5 1_555 1_555
H7 N5 1_555 1_555
N6 C5 1_555 1_555
H8 N6 1_555 1_555
H9 N6 1_555 1_555
O1 N1 1_555 1_555
O2 N1 1_555 1_555
N7 O3 1_555 1_555
O4 N7 1_555 1_555
O5 N7 1_555 1_555
N2 O1 1_555 1_555

#END
