
#######################################################################
#
#                 Cambridge Crystallographic Data Centre
#                                CCDC 
#
#######################################################################
#
# If this CIF has been generated from an entry in the Cambridge 
# Structural Database, then it will include bibliographic, chemical, 
# crystal, experimental, refinement or atomic coordinate data resulting 
# from the CCDC's data processing and validation procedures.
#
#######################################################################

data_JOPXUJ
_chemical_formula_moiety         'C29 H23 N3 O4'
_chemical_name_systematic        
'phenyl 3-methyl-2-(13-nitro-1,9-diazatetracyclo[7.7.1.0^2,7^.0^10,15^]heptadeca-2,4,6,10,12,14-hexaen-5-yl)benzoate'
_symmetry_cell_setting           monoclinic
_symmetry_space_group_name_H-M   'P 21/c'
_symmetry_Int_Tables_number      14
_space_group_name_Hall           '-P 2ybc'
loop_
_symmetry_equiv_pos_site_id
_symmetry_equiv_pos_as_xyz
1 x,y,z
2 -x,1/2+y,1/2-z
3 -x,-y,-z
4 x,1/2-y,1/2+z
_cell_length_a                   10.096(2)
_cell_length_b                   12.467(2)
_cell_length_c                   20.773(4)
_cell_angle_alpha                90
_cell_angle_beta                 118.885(8)
_cell_angle_gamma                90
_cell_volume                     2289.35
_exptl_crystal_colour            yellow
_exptl_crystal_description       irregular
_chemical_melting_point          '462-464 K'
_cell_formula_units_Z            4
_exptl_crystal_recrystallization_method dichloromethane/n-hexane
loop_
_atom_site_label
_atom_site_type_symbol
_atom_site_fract_x
_atom_site_fract_y
_atom_site_fract_z
O1 O 0.94227(14) -0.05863(11) 0.66407(7)
O2 O 1.08728(16) 0.33935(11) 0.43457(8)
O3 O 0.73634(15) -0.07646(13) 0.55277(7)
O4 O 1.22507(15) 0.38570(11) 0.54897(8)
N1 N 0.73098(16) 0.39121(11) 0.66022(8)
N2 N 1.10232(18) 0.36379(12) 0.49552(9)
N3 N 0.57918(16) 0.37277(11) 0.52804(8)
C1 C 1.2052(2) 0.08246(16) 0.58354(10)
H1 H 1.2674 0.1152 0.5665
C2 C 1.1777(2) -0.02724(17) 0.57448(11)
H2 H 1.2206 -0.0695 0.5511
C3 C 1.0872(2) -0.07446(16) 0.59979(10)
H3 H 1.0678 -0.1494 0.5943
C4 C 1.0258(2) -0.01106(15) 0.63302(9)
C5 C 0.7976(2) -0.08717(14) 0.61817(9)
C6 C 0.72596(19) -0.13176(14) 0.66084(9)
C7 C 0.66667(19) -0.06103(14) 0.69297(9)
C8 C 0.68058(19) 0.05723(13) 0.68496(9)
C9 C 0.78394(19) 0.11970(14) 0.74415(9)
H4 H 0.8432 0.0874 0.7909
C10 C 0.80043(19) 0.22796(14) 0.73499(9)
H5 H 0.8712 0.2692 0.7755
C11 C 0.71393(19) 0.27732(14) 0.66660(9)
C12 C 0.86951(19) 0.41948(14) 0.65719(9)
H6 H 0.9558 0.3786 0.6953
H7 H 0.8909 0.4968 0.6682
C13 C 0.85530(19) 0.39550(13) 0.58232(9)
C14 C 0.9821(2) 0.39466(13) 0.57216(10)
H8 H 1.0786 0.4134 0.6116
C15 C 0.9671(2) 0.36643(14) 0.50443(10)
C16 C 1.1430(2) 0.14358(16) 0.61695(10)
H9 H 1.1627 0.2184 0.6230
C17 C 1.0514(2) 0.09724(15) 0.64212(10)
H10 H 1.0077 0.1395 0.6650
C18 C 0.7195(2) -0.24257(14) 0.66738(10)
H11 H 0.7611 -0.2892 0.6456
C19 C 0.6511(2) -0.28364(15) 0.70622(10)
H12 H 0.6478 -0.3590 0.7122
C20 C 0.5875(2) -0.21465(15) 0.73648(10)
H13 H 0.5381 -0.2439 0.7615
C21 C 0.59468(19) -0.10340(14) 0.73083(9)
C22 C 0.5248(2) -0.03056(16) 0.76418(11)
H14 H 0.4494 -0.0706 0.7714
H15 H 0.4758 0.0302 0.7312
H16 H 0.6038 -0.0039 0.8117
C23 C 0.59549(19) 0.10659(13) 0.61709(9)
H17 H 0.5251 0.0650 0.5767
C24 C 0.61081(19) 0.21578(13) 0.60675(9)
C25 C 0.71381(19) 0.36857(13) 0.52244(9)
C26 C 0.6022(2) 0.43297(14) 0.59320(9)
H18 H 0.5096 0.4286 0.5981
H19 H 0.6202 0.5094 0.5870
C27 C 0.51928(19) 0.26587(14) 0.53090(9)
H20 H 0.5231 0.2186 0.4935
H21 H 0.4123 0.2726 0.5192
C28 C 0.7028(2) 0.33814(14) 0.45505(10)
H22 H 0.6075 0.3174 0.4156
C29 C 0.8291(2) 0.33800(13) 0.44546(10)
H23 H 0.8215 0.3189 0.3995
loop_
_geom_bond_atom_site_label_1
_geom_bond_atom_site_label_2
_geom_bond_site_symmetry_1
_geom_bond_site_symmetry_2
O1 C4 1_555 1_555
O2 N2 1_555 1_555
O3 C5 1_555 1_555
O4 N2 1_555 1_555
N1 C11 1_555 1_555
N2 C15 1_555 1_555
N3 C25 1_555 1_555
C1 H1 1_555 1_555
C2 C1 1_555 1_555
H2 C2 1_555 1_555
C3 C2 1_555 1_555
H3 C3 1_555 1_555
C4 C3 1_555 1_555
C5 O1 1_555 1_555
C6 C5 1_555 1_555
C7 C6 1_555 1_555
C8 C7 1_555 1_555
C9 C8 1_555 1_555
H4 C9 1_555 1_555
C10 C9 1_555 1_555
H5 C10 1_555 1_555
C11 C10 1_555 1_555
C12 N1 1_555 1_555
H6 C12 1_555 1_555
H7 C12 1_555 1_555
C13 C12 1_555 1_555
C14 C13 1_555 1_555
H8 C14 1_555 1_555
C15 C14 1_555 1_555
C16 C1 1_555 1_555
H9 C16 1_555 1_555
C17 C4 1_555 1_555
H10 C17 1_555 1_555
C18 C6 1_555 1_555
H11 C18 1_555 1_555
C19 C18 1_555 1_555
H12 C19 1_555 1_555
C20 C19 1_555 1_555
H13 C20 1_555 1_555
C21 C7 1_555 1_555
C22 C21 1_555 1_555
H14 C22 1_555 1_555
H15 C22 1_555 1_555
H16 C22 1_555 1_555
C23 C8 1_555 1_555
H17 C23 1_555 1_555
C24 C11 1_555 1_555
C25 C13 1_555 1_555
C26 N1 1_555 1_555
H18 C26 1_555 1_555
H19 C26 1_555 1_555
C27 N3 1_555 1_555
H20 C27 1_555 1_555
H21 C27 1_555 1_555
C28 C25 1_555 1_555
H22 C28 1_555 1_555
C29 C15 1_555 1_555
H23 C29 1_555 1_555
N3 C26 1_555 1_555
C16 C17 1_555 1_555
C20 C21 1_555 1_555
C23 C24 1_555 1_555
C24 C27 1_555 1_555
C28 C29 1_555 1_555

#END
