
#######################################################################
#
#                 Cambridge Crystallographic Data Centre
#                                CCDC 
#
#######################################################################
#
# If this CIF has been generated from an entry in the Cambridge 
# Structural Database, then it will include bibliographic, chemical, 
# crystal, experimental, refinement or atomic coordinate data resulting 
# from the CCDC's data processing and validation procedures.
#
#######################################################################

data_JOQMUZ
_chemical_formula_moiety         'C25 H35 O4 P1'
_chemical_name_systematic        
'2-isopropyl-5-methylcyclohexyl (1-hydroxy-1-(4-methoxyphenyl)ethyl)phenylphosphinate'
_symmetry_cell_setting           monoclinic
_symmetry_space_group_name_H-M   'P 21'
_symmetry_Int_Tables_number      4
_space_group_name_Hall           'P 2yb'
loop_
_symmetry_equiv_pos_site_id
_symmetry_equiv_pos_as_xyz
1 x,y,z
2 -x,1/2+y,-z
_cell_length_a                   12.436(13)
_cell_length_b                   5.7781(7)
_cell_length_c                   15.9687(16)
_cell_angle_alpha                90
_cell_angle_beta                 92.5340(10)
_cell_angle_gamma                90
_cell_volume                     1146.33
_cell_formula_units_Z            2
loop_
_atom_site_label
_atom_site_type_symbol
_atom_site_fract_x
_atom_site_fract_y
_atom_site_fract_z
P1 P 0.18598(18) 0.1980(4) 0.79796(15)
O1 O 0.0644(5) 0.5741(12) 0.7778(4)
H1 H 0.0016 0.6157 0.7710
O2 O 0.1944(6) -0.0499(11) 0.7747(4)
O3 O 0.2866(5) 0.3465(12) 0.7806(4)
C1 C 0.1653(6) 0.2246(17) 0.9068(5)
C2 C 0.1142(7) 0.0493(19) 0.9482(6)
H2 H 0.0926 -0.0822 0.9183
C3 C 0.1006(9) 0.3678(17) 0.6487(6)
C4 C 0.0777(7) 0.3494(17) 0.7398(5)
C5 C 0.3953(8) 0.2642(19) 0.7948(7)
H3 H 0.393(7) 0.10(2) 0.809(6)
C6 C 0.1763(7) 0.437(2) 1.0365(6)
H4 H 0.2001 0.5647 1.0676
C7 C 0.4034(12) 0.165(2) 0.6397(8)
H5 H 0.326(9) 0.20(3) 0.636(7)
C8 C 0.1918(7) 0.4273(18) 0.9524(6)
H6 H 0.2198 0.5545 0.9251
C9 C -0.0268(9) 0.223(2) 0.7536(6)
H7 H -0.0844 0.2963 0.7215
H8 H -0.0419 0.2276 0.8120
H9 H -0.0204 0.0648 0.7360
C10 C 0.0943(7) 0.062(2) 1.0304(6)
H10 H 0.0601 -0.0600 1.0563
C11 C 0.4561(11) 0.2890(19) 0.7167(8)
H11 H 0.454(9) 0.45(3) 0.703(7)
C12 C 0.1578(10) 0.560(2) 0.6178(6)
H12 H 0.1762 0.6813 0.6538
C13 C 0.1861(10) 0.569(2) 0.5375(7)
H13 H 0.2195 0.7022 0.5185
C14 C 0.4477(7) 0.395(2) 0.8689(7)
H14 H 0.4405 0.5596 0.8585
H15 H 0.4090 0.3592 0.9187
O4 O 0.1990(7) 0.4201(16) 0.4038(5)
C15 C 0.5762(10) 0.230(3) 0.7367(9)
H16 H 0.5825 0.0677 0.7510
H17 H 0.6167 0.2570 0.6870
C16 C 0.1104(9) 0.201(2) 0.5126(6)
H18 H 0.0913 0.0804 0.4763
C17 C 0.0832(9) 0.192(2) 0.5932(6)
H19 H 0.0507 0.0578 0.6119
C18 C 0.6243(9) 0.373(3) 0.8078(11)
C19 C 0.1675(11) 0.392(2) 0.4836(6)
C20 C 0.5597(10) 0.342(3) 0.8849(10)
H20 H 0.564(10) 0.18(3) 0.900(8)
C21 C 0.1861(15) 0.227(4) 0.3495(7)
H21 H 0.1112 0.1877 0.3431
H22 H 0.2255 0.0975 0.3729
H23 H 0.2130 0.2647 0.2958
C22 C 0.1241(8) 0.253(2) 1.0758(6)
H24 H 0.1100 0.2624 1.1325
C23 C 0.4520(16) 0.242(3) 0.5624(9)
H25 H 0.4041 0.2078 0.5152
H26 H 0.5191 0.1629 0.5562
H27 H 0.4646 0.4059 0.5650
C24 C 0.6086(11) 0.482(3) 0.9608(10)
C25 C 0.4167(13) -0.098(2) 0.6482(9)
H28 H 0.4918 -0.1349 0.6552
H29 H 0.3870 -0.1717 0.5986
H30 H 0.3796 -0.1507 0.6960
loop_
_geom_bond_atom_site_label_1
_geom_bond_atom_site_label_2
_geom_bond_site_symmetry_1
_geom_bond_site_symmetry_2
P1 O2 1_555 1_555
O1 H1 1_555 1_555
O3 P1 1_555 1_555
C1 P1 1_555 1_555
C2 C1 1_555 1_555
H2 C2 1_555 1_555
C3 C4 1_555 1_555
C4 P1 1_555 1_555
C5 O3 1_555 1_555
H3 C5 1_555 1_555
C6 H4 1_555 1_555
C7 H5 1_555 1_555
C8 C1 1_555 1_555
H6 C8 1_555 1_555
C9 C4 1_555 1_555
H7 C9 1_555 1_555
H8 C9 1_555 1_555
H9 C9 1_555 1_555
C10 C2 1_555 1_555
H10 C10 1_555 1_555
C11 C5 1_555 1_555
H11 C11 1_555 1_555
C12 C3 1_555 1_555
H12 C12 1_555 1_555
C13 C12 1_555 1_555
H13 C13 1_555 1_555
C14 C5 1_555 1_555
H14 C14 1_555 1_555
H15 C14 1_555 1_555
O4 C19 1_555 1_555
C15 C11 1_555 1_555
H16 C15 1_555 1_555
H17 C15 1_555 1_555
C16 H18 1_555 1_555
C17 C3 1_555 1_555
H19 C17 1_555 1_555
C18 C15 1_555 1_555
C19 C13 1_555 1_555
C20 C14 1_555 1_555
H20 C20 1_555 1_555
C21 O4 1_555 1_555
H21 C21 1_555 1_555
H22 C21 1_555 1_555
H23 C21 1_555 1_555
C22 C6 1_555 1_555
H24 C22 1_555 1_555
C23 C7 1_555 1_555
H25 C23 1_555 1_555
H26 C23 1_555 1_555
H27 C23 1_555 1_555
C24 C20 1_555 1_555
C25 C7 1_555 1_555
H28 C25 1_555 1_555
H29 C25 1_555 1_555
H30 C25 1_555 1_555
O1 C4 1_555 1_555
C6 C8 1_555 1_555
C7 C11 1_555 1_555
C10 C22 1_555 1_555
C16 C17 1_555 1_555
C16 C19 1_555 1_555
C18 C20 1_555 1_555

#END
