
#######################################################################
#
#                 Cambridge Crystallographic Data Centre
#                                CCDC 
#
#######################################################################
#
# If this CIF has been generated from an entry in the Cambridge 
# Structural Database, then it will include bibliographic, chemical, 
# crystal, experimental, refinement or atomic coordinate data resulting 
# from the CCDC's data processing and validation procedures.
#
#######################################################################

data_JOQNAG
_chemical_formula_moiety         'C22 H37 O3 P1'
_chemical_name_systematic        
'2-isopropyl-5-methylcyclohexyl (2-hydroxy-4-methylpentan-2-yl)phenylphosphinate'
_symmetry_cell_setting           triclinic
_symmetry_space_group_name_H-M   'P 1'
_symmetry_Int_Tables_number      1
_space_group_name_Hall           'P 1'
loop_
_symmetry_equiv_pos_site_id
_symmetry_equiv_pos_as_xyz
1 x,y,z
_cell_length_a                   5.7766(4)
_cell_length_b                   12.2080(12)
_cell_length_c                   16.2225(15)
_cell_angle_alpha                83.552(2)
_cell_angle_beta                 82.7850(10)
_cell_angle_gamma                78.7770(10)
_cell_volume                     1108.71
_exptl_crystal_colour            colorless
_exptl_crystal_description       block
_cell_formula_units_Z            2
loop_
_atom_site_label
_atom_site_type_symbol
_atom_site_fract_x
_atom_site_fract_y
_atom_site_fract_z
P1 P 0.92067(14) 0.82379(7) 0.46314(6)
O1 O 0.7962(4) 0.72978(18) 0.51588(14)
O2 O 1.1492(4) 0.83488(19) 0.49189(15)
C1 C 0.8681(7) 0.5322(3) 0.5029(2)
H1 H 0.9223 0.5437 0.4440
H2 H 0.6968 0.5393 0.5082
C2 C 0.8645(6) 0.6059(3) 0.6427(2)
H3 H 0.6928 0.6081 0.6513
C3 C 0.9312(6) 0.6221(3) 0.5481(2)
H4 H 1.1016 0.6227 0.5365
C4 C 0.8056(6) 0.7350(3) 0.3250(2)
H5 H 0.6761 0.7154 0.3595
C5 C 0.9591(6) 0.7915(3) 0.3562(2)
C6 C 0.9141(6) 0.6996(3) 0.6912(2)
H6 H 0.8502 0.7713 0.6614
C7 C 0.9823(7) 0.4877(3) 0.6744(2)
H7 H 1.1534 0.4813 0.6654
H8 H 0.9379 0.4754 0.7339
C8 C 0.8440(7) 0.7076(3) 0.2431(2)
H9 H 0.7428 0.6685 0.2232
C9 C 1.1834(7) 0.7975(3) 0.2202(2)
H10 H 1.3080 0.8199 0.1845
C10 C 0.5885(6) 0.9564(3) 0.5647(2)
H11 H 0.7196 0.9554 0.5968
H12 H 0.5220 0.8898 0.5837
C11 C 1.1499(6) 0.8234(3) 0.3025(2)
H13 H 1.2534 0.8616 0.3220
C12 C 0.7826(7) 0.6974(4) 0.7783(2)
H14 H 0.8430 0.6288 0.8100
H15 H 0.6164 0.7018 0.7746
H16 H 0.8053 0.7600 0.8053
C13 C 0.9093(7) 0.3983(3) 0.6302(2)
H17 H 0.7390 0.4024 0.6412
H18 H 0.9858 0.3247 0.6522
C14 C 1.1787(7) 0.6974(3) 0.6940(3)
H19 H 1.1984 0.7599 0.7217
H20 H 1.2562 0.7021 0.6381
H21 H 1.2474 0.6288 0.7238
C15 C 0.9778(7) 0.4133(3) 0.5363(2)
H22 H 1.1509 0.4051 0.5262
C16 C 0.3969(6) 1.0603(3) 0.5836(2)
H23 H 0.3391 1.0956 0.5309
C17 C 0.9015(7) 0.3263(3) 0.4903(2)
H24 H 0.9793 0.2526 0.5095
H25 H 0.9445 0.3400 0.4315
H26 H 0.7327 0.3313 0.5010
C18 C 0.1888(7) 1.0252(3) 0.6406(3)
H27 H 0.2429 0.9895 0.6923
H28 H 0.1223 0.9738 0.6141
H29 H 0.0699 1.0903 0.6514
C19 C 1.0349(7) 0.7391(3) 0.1906(2)
H30 H 1.0619 0.7205 0.1357
C20 C 0.4986(7) 1.1461(3) 0.6233(3)
H31 H 0.3770 1.2105 0.6330
H32 H 0.6280 1.1685 0.5865
H33 H 0.5545 1.1131 0.6754
O3 O 0.5030(4) 0.9438(2) 0.42230(15)
H34 H 0.4108 0.9060 0.4486
C21 C 0.6866(6) 0.9499(3) 0.4725(2)
C22 C 0.7988(6) 1.0496(3) 0.4343(2)
H35 H 0.8464 1.0423 0.3760
H36 H 0.9351 1.0517 0.4619
H37 H 0.6854 1.1177 0.4408
P2 P 0.39664(15) 0.41429(8) 0.00013(6)
O4 O 0.5362(4) 0.3608(2) 0.07753(15)
O5 O 0.1571(4) 0.3861(2) 0.00315(16)
O6 O 0.8095(4) 0.4137(2) -0.09789(16)
H38 H 0.8852 0.3920 -0.0578
C23 C 0.4895(6) 0.2293(3) 0.2011(2)
H39 H 0.6609 0.2197 0.2037
C24 C 0.4512(7) 0.1370(3) 0.1492(2)
H40 H 0.5183 0.1545 0.0917
C25 C 0.1993(7) 0.6346(3) -0.0424(2)
H41 H 0.0811 0.6050 -0.0613
C26 C 0.3618(7) 0.4262(3) 0.3031(2)
H42 H 0.1884 0.4408 0.3051
C27 C 0.5630(7) 0.6093(3) 0.0217(2)
H43 H 0.6895 0.5625 0.0453
C28 C 0.3861(6) 0.5634(3) -0.0056(2)
C29 C 0.4412(7) 0.3071(3) 0.3412(2)
H44 H 0.6118 0.2926 0.3427
H45 H 0.3672 0.2991 0.3981
C30 C 0.4094(6) 0.3485(3) 0.1620(2)
H46 H 0.2381 0.3616 0.1580
C31 C 0.5860(7) 0.0223(3) 0.1799(3)
H47 H 0.5223 0.0017 0.2357
H48 H 0.7509 0.0257 0.1792
H49 H 0.5696 -0.0325 0.1440
C32 C 0.6638(7) 0.2338(3) -0.0743(2)
H50 H 0.5150 0.2070 -0.0600
H51 H 0.7508 0.2155 -0.0257
C33 C 0.4658(7) 0.4370(3) 0.2113(2)
H52 H 0.4024 0.5108 0.1859
H53 H 0.6366 0.4302 0.2086
C34 C 0.3747(7) 0.2218(3) 0.2912(2)
H54 H 0.2035 0.2347 0.2914
H55 H 0.4250 0.1470 0.3174
C35 C 0.3655(8) 0.7942(3) -0.0228(3)
H56 H 0.3587 0.8714 -0.0288
C36 C 0.1882(7) 0.1325(3) 0.1463(3)
H57 H 0.1760 0.0756 0.1116
H58 H 0.1077 0.2039 0.1239
H59 H 0.1166 0.1151 0.2017
C37 C 0.4329(7) 0.5132(3) 0.3504(2)
H60 H 0.3716 0.5039 0.4081
H61 H 0.3690 0.5870 0.3270
H62 H 0.6028 0.5034 0.3460
C38 C 0.6048(6) 0.3619(3) -0.0893(2)
C39 C 0.8060(7) 0.1663(3) -0.1442(2)
H63 H 0.7319 0.1925 -0.1957
C40 C 0.5508(7) 0.7253(3) 0.0138(2)
H64 H 0.6669 0.7559 0.0331
C41 C 0.1910(8) 0.7502(3) -0.0506(2)
H65 H 0.0668 0.7977 -0.0749
C42 C 1.0599(8) 0.1839(4) -0.1589(3)
H66 H 1.1332 0.1634 -0.1081
H67 H 1.0630 0.2614 -0.1766
H68 H 1.1450 0.1381 -0.2013
C43 C 0.7936(9) 0.0438(4) -0.1243(3)
H69 H 0.8797 0.0022 -0.1688
H70 H 0.6308 0.0347 -0.1180
H71 H 0.8625 0.0166 -0.0733
C44 C 0.4810(7) 0.4029(3) -0.1672(2)
H72 H 0.4495 0.4834 -0.1733
H73 H 0.3341 0.3759 -0.1625
H74 H 0.5811 0.3754 -0.2152
loop_
_geom_bond_atom_site_label_1
_geom_bond_atom_site_label_2
_geom_bond_site_symmetry_1
_geom_bond_site_symmetry_2
P1 O1 1_555 1_555
O1 C3 1_555 1_555
O2 P1 1_555 1_555
C1 H1 1_555 1_555
H2 C1 1_555 1_555
C2 H3 1_555 1_555
C3 C1 1_555 1_555
H4 C3 1_555 1_555
C4 H5 1_555 1_555
C5 P1 1_555 1_555
C6 C2 1_555 1_555
H6 C6 1_555 1_555
C7 C2 1_555 1_555
H7 C7 1_555 1_555
H8 C7 1_555 1_555
C8 C4 1_555 1_555
H9 C8 1_555 1_555
C9 H10 1_555 1_555
C10 H11 1_555 1_555
H12 C10 1_555 1_555
C11 C5 1_555 1_555
H13 C11 1_555 1_555
C12 C6 1_555 1_555
H14 C12 1_555 1_555
H15 C12 1_555 1_555
H16 C12 1_555 1_555
C13 C7 1_555 1_555
H17 C13 1_555 1_555
H18 C13 1_555 1_555
C14 C6 1_555 1_555
H19 C14 1_555 1_555
H20 C14 1_555 1_555
H21 C14 1_555 1_555
C15 C1 1_555 1_555
H22 C15 1_555 1_555
C16 C10 1_555 1_555
H23 C16 1_555 1_555
C17 C15 1_555 1_555
H24 C17 1_555 1_555
H25 C17 1_555 1_555
H26 C17 1_555 1_555
C18 C16 1_555 1_555
H27 C18 1_555 1_555
H28 C18 1_555 1_555
H29 C18 1_555 1_555
C19 C8 1_555 1_555
H30 C19 1_555 1_555
C20 C16 1_555 1_555
H31 C20 1_555 1_555
H32 C20 1_555 1_555
H33 C20 1_555 1_555
O3 H34 1_555 1_555
C21 P1 1_555 1_555
C22 C21 1_555 1_555
H35 C22 1_555 1_555
H36 C22 1_555 1_555
H37 C22 1_555 1_555
P2 O4 1_555 1_555
O4 C30 1_555 1_555
O5 P2 1_555 1_555
O6 H38 1_555 1_555
C23 H39 1_555 1_555
C24 C23 1_555 1_555
H40 C24 1_555 1_555
C25 H41 1_555 1_555
C26 H42 1_555 1_555
C27 H43 1_555 1_555
C28 P2 1_555 1_555
C29 C26 1_555 1_555
H44 C29 1_555 1_555
H45 C29 1_555 1_555
C30 C23 1_555 1_555
H46 C30 1_555 1_555
C31 C24 1_555 1_555
H47 C31 1_555 1_555
H48 C31 1_555 1_555
H49 C31 1_555 1_555
C32 H50 1_555 1_555
H51 C32 1_555 1_555
C33 C26 1_555 1_555
H52 C33 1_555 1_555
H53 C33 1_555 1_555
C34 C23 1_555 1_555
H54 C34 1_555 1_555
H55 C34 1_555 1_555
C35 H56 1_555 1_555
C36 C24 1_555 1_555
H57 C36 1_555 1_555
H58 C36 1_555 1_555
H59 C36 1_555 1_555
C37 C26 1_555 1_555
H60 C37 1_555 1_555
H61 C37 1_555 1_555
H62 C37 1_555 1_555
C38 P2 1_555 1_555
C39 C32 1_555 1_555
H63 C39 1_555 1_555
C40 C27 1_555 1_555
H64 C40 1_555 1_555
C41 C25 1_555 1_555
H65 C41 1_555 1_555
C42 C39 1_555 1_555
H66 C42 1_555 1_555
H67 C42 1_555 1_555
H68 C42 1_555 1_555
C43 C39 1_555 1_555
H69 C43 1_555 1_555
H70 C43 1_555 1_555
H71 C43 1_555 1_555
C44 C38 1_555 1_555
H72 C44 1_555 1_555
H73 C44 1_555 1_555
H74 C44 1_555 1_555
C2 C3 1_555 1_555
C4 C5 1_555 1_555
C9 C11 1_555 1_555
C9 C19 1_555 1_555
C10 C21 1_555 1_555
C13 C15 1_555 1_555
O3 C21 1_555 1_555
O6 C38 1_555 1_555
C25 C28 1_555 1_555
C27 C28 1_555 1_555
C29 C34 1_555 1_555
C30 C33 1_555 1_555
C32 C38 1_555 1_555
C35 C40 1_555 1_555
C35 C41 1_555 1_555

#END
