
#######################################################################
#
#                 Cambridge Crystallographic Data Centre
#                                CCDC 
#
#######################################################################
#
# If this CIF has been generated from an entry in the Cambridge 
# Structural Database, then it will include bibliographic, chemical, 
# crystal, experimental, refinement or atomic coordinate data resulting 
# from the CCDC's data processing and validation procedures.
#
#######################################################################

data_JOQNEK
_chemical_name_common            
(S)-(L)-menthyl[(S)-1-(3-nitrophenyl)-1-hydroxyethyl]phenylphosphinate
_chemical_formula_moiety         'C24 H32 N1 O5 P1'
_chemical_name_systematic        
'2-isopropyl-5-methylcyclohexyl (1-hydroxy-1-(3-nitrophenyl)ethyl)phenylphosphinate'
_symmetry_cell_setting           orthorhombic
_symmetry_space_group_name_H-M   'P 21 21 21'
_symmetry_Int_Tables_number      19
_space_group_name_Hall           'P 2ac 2ab'
loop_
_symmetry_equiv_pos_site_id
_symmetry_equiv_pos_as_xyz
1 x,y,z
2 1/2-x,-y,1/2+z
3 -x,1/2+y,1/2-z
4 1/2+x,1/2-y,-z
_cell_length_a                   5.8926(18)
_cell_length_b                   18.289(2)
_cell_length_c                   22.043
_cell_angle_alpha                90
_cell_angle_beta                 90
_cell_angle_gamma                90
_cell_volume                     2375.57
_exptl_crystal_colour            colorless
_exptl_crystal_description       block
_cell_formula_units_Z            4
loop_
_atom_site_label
_atom_site_type_symbol
_atom_site_fract_x
_atom_site_fract_y
_atom_site_fract_z
P1 P 0.69080(15) 0.63878(4) 0.78982(4)
O1 O 0.4642(3) 0.60519(11) 0.78463(9)
O2 O 0.8384(4) 0.60935(11) 0.84404(8)
C1 C 0.6786(6) 0.73685(16) 0.79553(12)
O3 O 1.0851(4) 0.65688(12) 0.73273(10)
H1 H 1.1676 0.6335 0.7556
C2 C 0.8805(5) 0.61832(17) 0.72360(14)
O4 O 0.1766(5) 0.64052(18) 0.52524(12)
C3 C 0.4739(6) 0.64725(19) 0.59315(13)
C4 C 0.7405(6) 0.59771(19) 0.90518(14)
H2 H 0.577(6) 0.6075(16) 0.9040(13)
C5 C 0.5769(6) 0.61589(17) 0.64265(13)
H3 H 0.5214 0.5724 0.6587
C6 C 0.7649(5) 0.64974(17) 0.66848(12)
C7 C 0.4911(6) 0.77370(17) 0.77233(14)
H4 H 0.3713 0.7474 0.7556
C8 C 0.8561(6) 0.77736(19) 0.81994(14)
H5 H 0.9840 0.7537 0.8350
C9 C 0.8387(6) 0.71505(18) 0.64319(13)
H6 H 0.9625 0.7390 0.6603
N1 N 0.2773(6) 0.60961(19) 0.56656(13)
O5 O 0.2195(5) 0.55079(17) 0.58730(11)
C10 C 0.7801(7) 0.51886(19) 0.92402(15)
H7 H 0.945(6) 0.5112(17) 0.9235(14)
C11 C 0.8429(7) 0.8532(2) 0.82195(17)
H8 H 0.9606 0.8802 0.8390
C12 C 0.7756(8) 0.6414(3) 1.01335(15)
H9 H 0.612(7) 0.650(2) 1.0148(15)
C13 C 0.4822(6) 0.84931(19) 0.77400(16)
H10 H 0.3570 0.8737 0.7582
C14 C 0.7326(6) 0.74551(18) 0.59314(14)
H11 H 0.7857 0.7891 0.5768
C15 C 0.6776(7) 0.4621(2) 0.88052(17)
H12 H 0.724(6) 0.4759(18) 0.8394(14)
C16 C 0.6568(7) 0.88822(19) 0.79886(18)
H13 H 0.6491 0.9390 0.8001
C17 C 0.9170(6) 0.53592(17) 0.72058(15)
H14 H 1.0026 0.5241 0.6848
H15 H 0.7726 0.5117 0.7191
H16 H 0.9988 0.5201 0.7559
C18 C 0.8536(7) 0.6515(2) 0.94765(13)
H17 H 0.8187 0.7009 0.9346
H18 H 1.0168 0.6452 0.9455
C19 C 0.5478(6) 0.71080(19) 0.56770(14)
H19 H 0.4753 0.7304 0.5339
C20 C 0.8165(9) 0.5631(2) 1.03226(15)
H20 H 0.9785 0.5538 1.0330
H21 H 0.7583 0.5558 1.0730
C21 C 0.7042(8) 0.5097(2) 0.98992(15)
H22 H 0.5410 0.5161 0.9922
H23 H 0.7388 0.4603 1.0031
C22 C 0.7749(8) 0.3854(2) 0.8928(2)
H24 H 0.9375 0.3871 0.8907
H25 H 0.7184 0.3518 0.8630
H26 H 0.7294 0.3695 0.9325
C23 C 0.8904(9) 0.6974(3) 1.05468(17)
H27 H 0.8393 0.6904 1.0956
H28 H 0.8521 0.7458 1.0415
H29 H 1.0520 0.6910 1.0529
C24 C 0.4186(7) 0.4598(2) 0.88105(17)
H30 H 0.3667 0.4445 0.9203
H31 H 0.3662 0.4260 0.8509
H32 H 0.3600 0.5077 0.8723
H33? H 0.783(6) 0.6281(17) 0.7586(15)
loop_
_geom_bond_atom_site_label_1
_geom_bond_atom_site_label_2
_geom_bond_site_symmetry_1
_geom_bond_site_symmetry_2
P1 O1 1_555 1_555
O2 P1 1_555 1_555
C1 P1 1_555 1_555
O3 H1 1_555 1_555
C2 P1 1_555 1_555
O4 N1 1_555 1_555
C3 C5 1_555 1_555
C4 O2 1_555 1_555
H2 C4 1_555 1_555
C5 H3 1_555 1_555
C6 C2 1_555 1_555
C7 C1 1_555 1_555
H4 C7 1_555 1_555
C8 C1 1_555 1_555
H5 C8 1_555 1_555
C9 C6 1_555 1_555
H6 C9 1_555 1_555
N1 C3 1_555 1_555
O5 N1 1_555 1_555
C10 C4 1_555 1_555
H7 C10 1_555 1_555
C11 C8 1_555 1_555
H8 C11 1_555 1_555
C12 H9 1_555 1_555
C13 C7 1_555 1_555
H10 C13 1_555 1_555
C14 C9 1_555 1_555
H11 C14 1_555 1_555
C15 C10 1_555 1_555
H12 C15 1_555 1_555
C16 C11 1_555 1_555
H13 C16 1_555 1_555
C17 C2 1_555 1_555
H14 C17 1_555 1_555
H15 C17 1_555 1_555
H16 C17 1_555 1_555
C18 C4 1_555 1_555
H17 C18 1_555 1_555
H18 C18 1_555 1_555
C19 C3 1_555 1_555
H19 C19 1_555 1_555
C20 C12 1_555 1_555
H20 C20 1_555 1_555
H21 C20 1_555 1_555
C21 C10 1_555 1_555
H22 C21 1_555 1_555
H23 C21 1_555 1_555
C22 C15 1_555 1_555
H24 C22 1_555 1_555
H25 C22 1_555 1_555
H26 C22 1_555 1_555
C23 C12 1_555 1_555
H27 C23 1_555 1_555
H28 C23 1_555 1_555
H29 C23 1_555 1_555
C24 C15 1_555 1_555
H30 C24 1_555 1_555
H31 C24 1_555 1_555
H32 C24 1_555 1_555
O3 C2 1_555 1_555
C5 C6 1_555 1_555
C12 C18 1_555 1_555
C13 C16 1_555 1_555
C14 C19 1_555 1_555
C20 C21 1_555 1_555

#END
