
#######################################################################
#
#                 Cambridge Crystallographic Data Centre
#                                CCDC 
#
#######################################################################
#
# If this CIF has been generated from an entry in the Cambridge 
# Structural Database, then it will include bibliographic, chemical, 
# crystal, experimental, refinement or atomic coordinate data resulting 
# from the CCDC's data processing and validation procedures.
#
#######################################################################

data_JOQQUD
_chemical_formula_moiety         'C26 H25 N1 O6'
_chemical_name_systematic        
"Benzyl ethyl 2,2'-(3-(1-methyl-2-oxo-2,3-dihydro-1H-indol-3-yl)dihydrofuran-2,5-diylidene)diacetate"
_symmetry_cell_setting           monoclinic
_symmetry_space_group_name_H-M   'P 21/c'
_symmetry_Int_Tables_number      14
_space_group_name_Hall           '-P 2ybc'
loop_
_symmetry_equiv_pos_site_id
_symmetry_equiv_pos_as_xyz
1 x,y,z
2 -x,1/2+y,1/2-z
3 -x,-y,-z
4 x,1/2-y,1/2+z
_cell_length_a                   12.0466(11)
_cell_length_b                   11.5265(10)
_cell_length_c                   16.5292(14)
_cell_angle_alpha                90
_cell_angle_beta                 101.315(2)
_cell_angle_gamma                90
_cell_volume                     2250.55
_exptl_crystal_colour            colorless
_exptl_crystal_description       block
_cell_formula_units_Z            4
loop_
_atom_site_label
_atom_site_type_symbol
_atom_site_fract_x
_atom_site_fract_y
_atom_site_fract_z
N1 N 0.01522(13) 0.95746(13) 0.15729(9)
O1 O 0.03105(11) 0.76730(11) 0.20175(7)
O2 O 0.26243(10) 0.62588(10) 0.23554(6)
O3 O 0.41667(11) 0.89548(11) 0.39269(7)
O4 O 0.43997(10) 0.75981(10) 0.49235(7)
O5 O 0.18060(11) 0.66650(11) -0.02684(7)
O6 O 0.13077(12) 0.47808(11) -0.02392(7)
C1 C 0.07155(16) 1.03074(16) 0.11064(10)
C2 C 0.15330(16) 0.96735(15) 0.08023(10)
C3 C 0.22091(17) 1.02166(17) 0.03367(10)
H1 H 0.2758 0.9803 0.0134
C4 C 0.2055(2) 1.14024(18) 0.01744(12)
H2 H 0.2506 1.1783 -0.0138
C5 C 0.1237(2) 1.20100(18) 0.04762(12)
H3 H 0.1143 1.2797 0.0358
C6 C 0.05469(18) 1.14794(17) 0.09540(11)
H4 H 0.0000 1.1894 0.1160
C7 C 0.05783(15) 0.84694(15) 0.16094(10)
C8 C 0.14346(15) 0.84241(14) 0.10387(10)
H5 H 0.1076 0.8005 0.0539
C9 C -0.07917(17) 0.99254(18) 0.19429(12)
H6 H -0.1433 1.0100 0.1516
H7 H -0.0585 1.0602 0.2277
H8 H -0.0981 0.9307 0.2280
C10 C 0.25405(14) 0.77914(14) 0.13973(10)
H9 H 0.3067 0.7880 0.1019
C11 C 0.23571(15) 0.65192(15) 0.15294(9)
C12 C 0.30848(15) 0.72008(14) 0.28143(10)
C13 C 0.31191(15) 0.82186(15) 0.22612(10)
H10 H 0.3894 0.8452 0.2266
H11 H 0.2712 0.8872 0.2432
C14 C 0.34504(15) 0.70506(15) 0.36218(10)
H12 H 0.3342 0.6338 0.3858
C15 C 0.40152(15) 0.79769(15) 0.41414(10)
C16 C 0.49625(16) 0.84772(16) 0.54797(10)
H13 H 0.4439 0.9102 0.5525
H14 H 0.5594 0.8796 0.5268
C17 C 0.53819(15) 0.79440(16) 0.63125(10)
C18 C 0.57360(16) 0.67957(17) 0.64033(11)
H15 H 0.5671 0.6320 0.5942
C19 C 0.61867(17) 0.63566(18) 0.71815(12)
H16 H 0.6418 0.5586 0.7241
C20 C 0.62912(17) 0.70638(19) 0.78685(12)
H17 H 0.6602 0.6771 0.8388
C21 C 0.59365(17) 0.82010(18) 0.77846(11)
H18 H 0.6005 0.8675 0.8247
C22 C 0.54768(16) 0.86370(16) 0.70091(10)
H19 H 0.5229 0.9403 0.6955
C23 C 0.20107(15) 0.56447(15) 0.10092(10)
H20 H 0.1955 0.4909 0.1228
C24 C 0.17143(15) 0.57860(15) 0.01122(10)
C25 C 0.09687(17) 0.47497(17) -0.11335(10)
H21 H 0.0845 0.5533 -0.1346
H22 H 0.0265 0.4324 -0.1288
C26 C 0.18682(17) 0.41786(18) -0.14975(11)
H23 H 0.2555 0.4622 -0.1364
H24 H 0.1629 0.4138 -0.2086
H25 H 0.2000 0.3409 -0.1277
loop_
_geom_bond_atom_site_label_1
_geom_bond_atom_site_label_2
_geom_bond_site_symmetry_1
_geom_bond_site_symmetry_2
N1 C1 1_555 1_555
O1 C7 1_555 1_555
O2 C11 1_555 1_555
O3 C15 1_555 1_555
O4 C15 1_555 1_555
O5 C24 1_555 1_555
O6 C24 1_555 1_555
C1 C2 1_555 1_555
C2 C3 1_555 1_555
C3 H1 1_555 1_555
C4 C3 1_555 1_555
H2 C4 1_555 1_555
C5 C4 1_555 1_555
H3 C5 1_555 1_555
C6 C1 1_555 1_555
H4 C6 1_555 1_555
C7 N1 1_555 1_555
C8 C2 1_555 1_555
H5 C8 1_555 1_555
C9 N1 1_555 1_555
H6 C9 1_555 1_555
H7 C9 1_555 1_555
H8 C9 1_555 1_555
C10 C8 1_555 1_555
H9 C10 1_555 1_555
C11 C10 1_555 1_555
C12 O2 1_555 1_555
C13 C10 1_555 1_555
H10 C13 1_555 1_555
H11 C13 1_555 1_555
C14 C12 1_555 1_555
H12 C14 1_555 1_555
C15 C14 1_555 1_555
C16 O4 1_555 1_555
H13 C16 1_555 1_555
H14 C16 1_555 1_555
C17 C16 1_555 1_555
C18 C17 1_555 1_555
H15 C18 1_555 1_555
C19 C18 1_555 1_555
H16 C19 1_555 1_555
C20 C19 1_555 1_555
H17 C20 1_555 1_555
C21 C20 1_555 1_555
H18 C21 1_555 1_555
C22 C17 1_555 1_555
H19 C22 1_555 1_555
C23 C11 1_555 1_555
H20 C23 1_555 1_555
C24 C23 1_555 1_555
C25 O6 1_555 1_555
H21 C25 1_555 1_555
H22 C25 1_555 1_555
C26 C25 1_555 1_555
H23 C26 1_555 1_555
H24 C26 1_555 1_555
H25 C26 1_555 1_555
C5 C6 1_555 1_555
C7 C8 1_555 1_555
C12 C13 1_555 1_555
C21 C22 1_555 1_555

#END
