
#######################################################################
#
#                 Cambridge Crystallographic Data Centre
#                                CCDC 
#
#######################################################################
#
# If this CIF has been generated from an entry in the Cambridge 
# Structural Database, then it will include bibliographic, chemical, 
# crystal, experimental, refinement or atomic coordinate data resulting 
# from the CCDC's data processing and validation procedures.
#
#######################################################################

data_JOQRAK
_chemical_formula_moiety         'C32 H27 N3 O2'
_chemical_name_systematic        
1-Benzyl-4'-(1H-indol-3-yl)-6'-methoxy-3',4'-dihydro-1'H-spiro[indole-3,2'-quinolin]-2(1H)-one
_symmetry_cell_setting           monoclinic
_symmetry_space_group_name_H-M   'C 2'
_symmetry_Int_Tables_number      5
_space_group_name_Hall           'C 2y'
loop_
_symmetry_equiv_pos_site_id
_symmetry_equiv_pos_as_xyz
1 x,y,z
2 -x,y,-z
3 1/2+x,1/2+y,z
4 1/2-x,1/2+y,-z
_cell_length_a                   17.5165(3)
_cell_length_b                   5.88650(10)
_cell_length_c                   23.6140(4)
_cell_angle_alpha                90
_cell_angle_beta                 94.9970(10)
_cell_angle_gamma                90
_cell_volume                     2425.61
_exptl_crystal_colour            colorless
_exptl_crystal_description       prism
_cell_formula_units_Z            4
loop_
_atom_site_label
_atom_site_type_symbol
_atom_site_fract_x
_atom_site_fract_y
_atom_site_fract_z
N1 N 0.24118(13) 0.7403(5) 0.27786(10)
H1 H 0.2380 0.8622 0.2991
N2 N 0.14129(13) 0.3561(5) 0.35563(9)
N3 N 0.23044(16) 0.0258(6) 0.06592(11)
H2 H 0.2418 -0.0956 0.0466
O1 O 0.25913(12) 0.2568(5) 0.32794(8)
O2 O 0.49315(11) 0.6968(5) 0.14998(10)
C1 C 0.20241(16) 0.3762(6) 0.32358(11)
C2 C 0.18302(15) 0.5691(6) 0.27915(10)
C3 C 0.16897(15) 0.4610(6) 0.21922(11)
H3 H 0.1316 0.3355 0.2207
H4 H 0.1464 0.5766 0.1923
C4 C 0.24288(14) 0.3687(6) 0.19722(10)
H5 H 0.2603 0.2393 0.2226
C5 C 0.30594(15) 0.5489(6) 0.20358(10)
C6 C 0.36940(15) 0.5381(6) 0.17128(11)
H6 H 0.3724 0.4203 0.1441
C7 C 0.42796(15) 0.6979(7) 0.17863(11)
C8 C 0.42307(15) 0.8738(6) 0.21769(12)
H7 H 0.4618 0.9868 0.2219
C9 C 0.36116(15) 0.8819(6) 0.25019(11)
H8 H 0.3584 1.0002 0.2773
C10 C 0.30273(14) 0.7213(6) 0.24420(10)
C11 C 0.50846(17) 0.5004(7) 0.11811(14)
H9 H 0.5041 0.3650 0.1418
H10 H 0.5604 0.5098 0.1059
H11 H 0.4714 0.4907 0.0846
C12 C 0.10860(15) 0.6612(6) 0.29832(10)
C13 C 0.06311(16) 0.8395(6) 0.27796(11)
H12 H 0.0786 0.9340 0.2484
C14 C -0.00626(16) 0.8787(7) 0.30155(12)
H13 H -0.0381 1.0015 0.2882
C15 C -0.02862(15) 0.7394(7) 0.34415(12)
H14 H -0.0764 0.7665 0.3592
C16 C 0.01713(15) 0.5594(7) 0.36579(12)
H15 H 0.0019 0.4654 0.3955
C17 C 0.08555(15) 0.5243(6) 0.34205(10)
C18 C 0.13357(18) 0.1752(6) 0.39685(11)
H16 H 0.1745 0.0617 0.3929
H17 H 0.0837 0.0984 0.3878
C19 C 0.13816(14) 0.2555(6) 0.45859(11)
C20 C 0.1120(2) 0.1095(7) 0.49847(14)
H18 H 0.0886 -0.0304 0.4868
C21 C 0.1200(3) 0.1683(9) 0.55582(16)
H19 H 0.1031 0.0662 0.5833
C22 C 0.1524(2) 0.3728(8) 0.57316(13)
H20 H 0.1576 0.4122 0.6123
C23 C 0.17668(17) 0.5175(8) 0.53370(12)
H21 H 0.1986 0.6593 0.5454
C24 C 0.16977(17) 0.4598(7) 0.47591(12)
H22 H 0.1870 0.5624 0.4487
C25 C 0.22747(14) 0.2723(6) 0.13788(11)
C26 C 0.25602(18) 0.0694(7) 0.12153(13)
H23 H 0.2887 -0.0272 0.1450
C27 C 0.18221(14) 0.3643(6) 0.08897(10)
C28 C 0.18505(15) 0.1989(7) 0.04554(11)
C29 C 0.14440(17) 0.2215(8) -0.00832(12)
H24 H 0.1466 0.1082 -0.0368
C30 C 0.10145(19) 0.4149(9) -0.01782(13)
H25 H 0.0725 0.4346 -0.0534
C31 C 0.09932(19) 0.5840(9) 0.02375(13)
H26 H 0.0702 0.7179 0.0155
C32 C 0.13930(17) 0.5585(7) 0.07694(12)
H27 H 0.1371 0.6740 0.1049
loop_
_geom_bond_atom_site_label_1
_geom_bond_atom_site_label_2
_geom_bond_site_symmetry_1
_geom_bond_site_symmetry_2
N1 H1 1_555 1_555
N2 C1 1_555 1_555
N3 H2 1_555 1_555
O1 C1 1_555 1_555
O2 C7 1_555 1_555
C1 C2 1_555 1_555
C2 N1 1_555 1_555
C3 C2 1_555 1_555
H3 C3 1_555 1_555
H4 C3 1_555 1_555
C4 C3 1_555 1_555
H5 C4 1_555 1_555
C5 C4 1_555 1_555
C6 C5 1_555 1_555
H6 C6 1_555 1_555
C7 C6 1_555 1_555
C8 C7 1_555 1_555
H7 C8 1_555 1_555
C9 C8 1_555 1_555
H8 C9 1_555 1_555
C10 N1 1_555 1_555
C11 O2 1_555 1_555
H9 C11 1_555 1_555
H10 C11 1_555 1_555
H11 C11 1_555 1_555
C12 C2 1_555 1_555
C13 C12 1_555 1_555
H12 C13 1_555 1_555
C14 C13 1_555 1_555
H13 C14 1_555 1_555
C15 C14 1_555 1_555
H14 C15 1_555 1_555
C16 C15 1_555 1_555
H15 C16 1_555 1_555
C17 N2 1_555 1_555
C18 N2 1_555 1_555
H16 C18 1_555 1_555
H17 C18 1_555 1_555
C19 C18 1_555 1_555
C20 C19 1_555 1_555
H18 C20 1_555 1_555
C21 C20 1_555 1_555
H19 C21 1_555 1_555
C22 C21 1_555 1_555
H20 C22 1_555 1_555
C23 C22 1_555 1_555
H21 C23 1_555 1_555
C24 C19 1_555 1_555
H22 C24 1_555 1_555
C25 C4 1_555 1_555
C26 N3 1_555 1_555
H23 C26 1_555 1_555
C27 C25 1_555 1_555
C28 N3 1_555 1_555
C29 C28 1_555 1_555
H24 C29 1_555 1_555
C30 C29 1_555 1_555
H25 C30 1_555 1_555
C31 C30 1_555 1_555
H26 C31 1_555 1_555
C32 C27 1_555 1_555
H27 C32 1_555 1_555
C5 C10 1_555 1_555
C9 C10 1_555 1_555
C12 C17 1_555 1_555
C16 C17 1_555 1_555
C23 C24 1_555 1_555
C25 C26 1_555 1_555
C27 C28 1_555 1_555
C31 C32 1_555 1_555

#END
