
#######################################################################
#
#                 Cambridge Crystallographic Data Centre
#                                CCDC 
#
#######################################################################
#
# If this CIF has been generated from an entry in the Cambridge 
# Structural Database, then it will include bibliographic, chemical, 
# crystal, experimental, refinement or atomic coordinate data resulting 
# from the CCDC's data processing and validation procedures.
#
#######################################################################

data_JORKIM
_chemical_formula_moiety         'C23 H40 N2 O6'
_chemical_name_systematic        
'2,2,4,4,14,14,16,16-octamethyl-7,11,18,21-tetraoxa-3,15-diazatrispiro[5.2.2.5^12^.2^9^.2^6^]henicosane-3,15-dioxanyl radical'
_symmetry_cell_setting           monoclinic
_symmetry_space_group_name_H-M   'P 21/c'
_symmetry_Int_Tables_number      14
_space_group_name_Hall           '-P 2ybc'
loop_
_symmetry_equiv_pos_site_id
_symmetry_equiv_pos_as_xyz
1 x,y,z
2 -x,1/2+y,1/2-z
3 -x,-y,-z
4 x,1/2-y,1/2+z
_cell_length_a                   18.8141(5)
_cell_length_b                   16.8612(3)
_cell_length_c                   16.0353(3)
_cell_angle_alpha                90
_cell_angle_beta                 94.892(1)
_cell_angle_gamma                90
_cell_volume                     5068.32
_exptl_crystal_colour            orange
_exptl_crystal_description       prism
_cell_formula_units_Z            8
loop_
_atom_site_label
_atom_site_type_symbol
_atom_site_fract_x
_atom_site_fract_y
_atom_site_fract_z
C1 C -0.26964(18) 0.4806(2) 0.0521(2)
C2 C -0.1931(2) 0.5005(3) 0.0824(3)
H1 H -0.1878 0.4904 0.1435
H2 H -0.1624 0.4623 0.0585
C3 C -0.2608(2) 0.5880(3) -0.0588(2)
C4 C -0.2883(2) 0.5114(3) -0.0366(2)
H3 H -0.2718 0.4726 -0.0752
H4 H -0.3399 0.5134 -0.0461
C5 C -0.3105(3) 0.6522(3) -0.0214(4)
H5 H -0.3087 0.646 0.0382
H6 H -0.3586 0.6451 -0.0452
H7 H -0.2942 0.7043 -0.0346
C6 C -0.2681(3) 0.6059(3) -0.1501(3)
H8 H -0.2594 0.6613 -0.1586
H9 H -0.3154 0.5928 -0.173
H10 H -0.2341 0.5751 -0.1776
C7 C -0.38563(18) 0.48979(18) 0.1012(2)
H11 H -0.4073 0.5105 0.0486
H12 H -0.4107 0.5123 0.146
C8 C -0.39374(14) 0.40038(16) 0.10186(15)
C9 C -0.34478(14) 0.36639(18) 0.03940(17)
H13 H -0.3436 0.3091 0.0442
H14 H -0.3636 0.3797 -0.0171
C10 C -0.37457(14) 0.36724(16) 0.18926(16)
H15 H -0.3246 0.3773 0.2058
H16 H -0.4027 0.3937 0.2289
C11 C -0.47082(14) 0.37720(17) 0.07736(17)
H17 H -0.5018 0.4043 0.1134
H18 H -0.4841 0.3937 0.0202
C12 C -0.45857(12) 0.26099(16) 0.16471(14)
C13 C -0.51263(14) 0.28117(18) 0.22709(16)
H19 H -0.56 0.2693 0.2014
H20 H -0.5106 0.3378 0.2376
C14 C -0.50271(15) 0.23793(18) 0.31131(16)
C15 C -0.44358(15) 0.12194(17) 0.23017(17)
C16 C -0.45860(14) 0.17231(16) 0.15173(16)
H21 H -0.4232 0.1597 0.1133
H22 H -0.5048 0.1571 0.125
C17 C -0.57292(19) 0.2405(2) 0.3529(2)
H23 H -0.6088 0.2115 0.3194
H24 H -0.5879 0.2946 0.3578
H25 H -0.5661 0.2171 0.4076
C18 C -0.44377(18) 0.2757(2) 0.37022(18)
H26 H -0.4401 0.248 0.4227
H27 H -0.4552 0.3303 0.3794
H28 H -0.3992 0.2724 0.3455
C19 C -0.4692(2) 0.03710(19) 0.2107(2)
H29 H -0.4589 0.0044 0.2592
H30 H -0.445 0.0164 0.165
H31 H -0.5197 0.0374 0.1957
C20 C -0.36418(16) 0.1197(2) 0.2610(2)
H32 H -0.3477 0.1726 0.2736
H33 H -0.3375 0.0976 0.2182
H34 H -0.3576 0.0876 0.3105
N1 N -0.18768(17) 0.6021(2) -0.0230(2)
N2 N -0.48524(13) 0.15327(15) 0.29825(14)
O1 O -0.27415(10) 0.39699(13) 0.05420(13)
O2 O -0.31257(13) 0.51348(13) 0.11149(14)
O3 O -0.48046(9) 0.29333(11) 0.08430(10)
O4 O -0.38788(9) 0.28373(10) 0.19070(10)
O5 O -0.48560(14) 0.10813(14) 0.36310(13)
C21 C -0.1631(3) 0.5799(4) 0.0694(4)
C22 C -0.0838(5) 0.5801(7) 0.0814(6)
H35 H -0.0687 0.5606 0.1363
H36 H -0.0666 0.6332 0.0755
H37 H -0.0651 0.5466 0.0402
C23 C -0.1886(5) 0.6367(5) 0.1333(5)
H38 H -0.2383 0.6276 0.1392
H39 H -0.182 0.6903 0.1151
H40 H -0.1618 0.6284 0.1862
O6 O -0.1569(2) 0.6689(3) -0.0423(3)
C27 C -0.17255(13) 0.55591(15) 0.50174(15)
C28 C -0.17911(13) 0.46898(15) 0.47728(16)
H49 H -0.1567 0.4374 0.5227
H50 H -0.1526 0.4604 0.4288
C29 C -0.25521(14) 0.43853(17) 0.45695(17)
C30 C -0.28981(17) 0.5839(2) 0.4105(2)
C31 C -0.21217(16) 0.60572(18) 0.43445(19)
H51 H -0.1866 0.6027 0.3845
H52 H -0.2105 0.6605 0.4529
C32 C -0.29398(17) 0.4226(2) 0.5353(2)
H53 H -0.295 0.4703 0.5679
H54 H -0.2694 0.3819 0.5681
H55 H -0.3419 0.4057 0.5192
C33 C -0.25130(19) 0.3617(2) 0.4078(3)
H56 H -0.298 0.3385 0.3996
H57 H -0.2195 0.3254 0.4384
H58 H -0.2339 0.3726 0.3544
C34 C -0.34073(19) 0.6141(2) 0.4742(3)
H59 H -0.3875 0.5924 0.4606
H60 H -0.343 0.6709 0.472
H61 H -0.3233 0.5976 0.5295
C35 C -0.3125(2) 0.6195(3) 0.3251(2)
H62 H -0.2864 0.5946 0.2834
H63 H -0.3029 0.6754 0.3262
H64 H -0.3627 0.6109 0.312
C36 C -0.05607(13) 0.55000(16) 0.57400(15)
H65 H -0.0084 0.5718 0.5734
H66 H -0.0528 0.4929 0.5685
C37 C -0.08586(13) 0.57033(15) 0.65683(15)
C38 C -0.16248(14) 0.54123(18) 0.65077(16)
H67 H -0.1631 0.4838 0.6477
H68 H -0.1848 0.5569 0.7006
C39 C -0.08360(14) 0.65929(16) 0.67299(18)
H69 H -0.1065 0.6869 0.6249
H70 H -0.1097 0.6713 0.721
C40 C 0.02853(13) 0.64750(14) 0.75454(16)
C41 C -0.04223(15) 0.53051(16) 0.72895(17)
H71 H -0.0662 0.5369 0.7798
H72 H -0.0388 0.4742 0.7176
C42 C 0.00675(15) 0.66746(16) 0.84108(16)
H73 H 0.0341 0.6344 0.8816
H74 H -0.0431 0.6537 0.8431
C43 C 0.01687(15) 0.75436(16) 0.86785(17)
C44 C 0.12320(14) 0.75756(16) 0.76866(18)
C45 C 0.10494(14) 0.67096(16) 0.74909(18)
H75 H 0.1176 0.6595 0.693
H76 H 0.1346 0.6379 0.7874
C46 C -0.04386(16) 0.80725(19) 0.8309(2)
H77 H -0.036 0.8607 0.8501
H78 H -0.0883 0.7883 0.8485
H79 H -0.0454 0.806 0.7709
C47 C 0.0207(2) 0.7591(2) 0.9632(2)
H80 H 0.0591 0.7264 0.9867
H81 H -0.0235 0.7409 0.9823
H82 H 0.029 0.8131 0.9806
C48 C 0.20325(16) 0.7637(2) 0.7939(3)
H83 H 0.2162 0.8184 0.8021
H84 H 0.2293 0.7416 0.7505
H85 H 0.2146 0.735 0.8451
C49 C 0.1031(2) 0.8126(2) 0.6943(2)
H86 H 0.0526 0.8095 0.6795
H87 H 0.1282 0.7965 0.6474
H88 H 0.1159 0.8661 0.7094
N3 N -0.29687(12) 0.49643(15) 0.40327(14)
N4 N 0.08549(12) 0.78504(13) 0.84095(14)
O8 O -0.35707(12) 0.47116(16) 0.36885(16)
O9 O -0.20192(9) 0.57343(11) 0.57837(11)
O10 O -0.10073(9) 0.58133(11) 0.50479(11)
O11 O 0.02754(10) 0.56348(10) 0.74099(12)
O12 O -0.01195(9) 0.68643(10) 0.68824(11)
O13 O 0.10480(12) 0.85356(13) 0.87007(15)
H41? H -0.1931 0.5374 0.1287
H42? H -0.169 0.4526 0.103
C24? C -0.1521(7) 0.5359(8) 0.0185(10)
C25? C -0.1372(7) 0.4610(7) -0.0284(9)
H43? H -0.1733 0.4538 -0.0738
H44? H -0.1374 0.4164 0.0089
H45? H -0.0914 0.465 -0.0502
C26? C -0.0799(9) 0.5696(11) 0.0465(14)
H46? H -0.0476 0.5595 0.0045
H47? H -0.0621 0.5449 0.0981
H48? H -0.0839 0.6257 0.0548
O7? O -0.1479(6) 0.6310(6) -0.0852(8)
loop_
_geom_bond_atom_site_label_1
_geom_bond_atom_site_label_2
_geom_bond_site_symmetry_1
_geom_bond_site_symmetry_2
C1 C2 1_555 1_555
C2 H1 1_555 1_555
H2 C2 1_555 1_555
C3 C4 1_555 1_555
C4 C1 1_555 1_555
H3 C4 1_555 1_555
H4 C4 1_555 1_555
C5 C3 1_555 1_555
H5 C5 1_555 1_555
H6 C5 1_555 1_555
H7 C5 1_555 1_555
C6 C3 1_555 1_555
H8 C6 1_555 1_555
H9 C6 1_555 1_555
H10 C6 1_555 1_555
C7 H11 1_555 1_555
H12 C7 1_555 1_555
C8 C7 1_555 1_555
C9 C8 1_555 1_555
H13 C9 1_555 1_555
H14 C9 1_555 1_555
C10 C8 1_555 1_555
H15 C10 1_555 1_555
H16 C10 1_555 1_555
C11 C8 1_555 1_555
H17 C11 1_555 1_555
H18 C11 1_555 1_555
C12 C13 1_555 1_555
C13 H19 1_555 1_555
H20 C13 1_555 1_555
C14 C13 1_555 1_555
C15 C16 1_555 1_555
C16 C12 1_555 1_555
H21 C16 1_555 1_555
H22 C16 1_555 1_555
C17 C14 1_555 1_555
H23 C17 1_555 1_555
H24 C17 1_555 1_555
H25 C17 1_555 1_555
C18 C14 1_555 1_555
H26 C18 1_555 1_555
H27 C18 1_555 1_555
H28 C18 1_555 1_555
C19 C15 1_555 1_555
H29 C19 1_555 1_555
H30 C19 1_555 1_555
H31 C19 1_555 1_555
C20 C15 1_555 1_555
H32 C20 1_555 1_555
H33 C20 1_555 1_555
H34 C20 1_555 1_555
N1 C3 1_555 1_555
N2 C14 1_555 1_555
O1 C1 1_555 1_555
O2 C1 1_555 1_555
O3 C11 1_555 1_555
O4 C10 1_555 1_555
O5 N2 1_555 1_555
C21 C2 1_555 1_555
C22 C21 1_555 1_555
H35 C22 1_555 1_555
H36 C22 1_555 1_555
H37 C22 1_555 1_555
C23 C21 1_555 1_555
H38 C23 1_555 1_555
H39 C23 1_555 1_555
H40 C23 1_555 1_555
O6 N1 1_555 1_555
C27 C28 1_555 1_555
C28 H49 1_555 1_555
H50 C28 1_555 1_555
C29 C28 1_555 1_555
C30 C31 1_555 1_555
C31 C27 1_555 1_555
H51 C31 1_555 1_555
H52 C31 1_555 1_555
C32 C29 1_555 1_555
H53 C32 1_555 1_555
H54 C32 1_555 1_555
H55 C32 1_555 1_555
C33 C29 1_555 1_555
H56 C33 1_555 1_555
H57 C33 1_555 1_555
H58 C33 1_555 1_555
C34 C30 1_555 1_555
H59 C34 1_555 1_555
H60 C34 1_555 1_555
H61 C34 1_555 1_555
C35 C30 1_555 1_555
H62 C35 1_555 1_555
H63 C35 1_555 1_555
H64 C35 1_555 1_555
C36 H65 1_555 1_555
H66 C36 1_555 1_555
C37 C36 1_555 1_555
C38 C37 1_555 1_555
H67 C38 1_555 1_555
H68 C38 1_555 1_555
C39 C37 1_555 1_555
H69 C39 1_555 1_555
H70 C39 1_555 1_555
C40 C42 1_555 1_555
C41 C37 1_555 1_555
H71 C41 1_555 1_555
H72 C41 1_555 1_555
C42 H73 1_555 1_555
H74 C42 1_555 1_555
C43 C42 1_555 1_555
C44 C45 1_555 1_555
C45 C40 1_555 1_555
H75 C45 1_555 1_555
H76 C45 1_555 1_555
C46 C43 1_555 1_555
H77 C46 1_555 1_555
H78 C46 1_555 1_555
H79 C46 1_555 1_555
C47 C43 1_555 1_555
H80 C47 1_555 1_555
H81 C47 1_555 1_555
H82 C47 1_555 1_555
C48 C44 1_555 1_555
H83 C48 1_555 1_555
H84 C48 1_555 1_555
H85 C48 1_555 1_555
C49 C44 1_555 1_555
H86 C49 1_555 1_555
H87 C49 1_555 1_555
H88 C49 1_555 1_555
N3 C29 1_555 1_555
N4 C43 1_555 1_555
O8 N3 1_555 1_555
O9 C27 1_555 1_555
O10 C27 1_555 1_555
O11 C40 1_555 1_555
O12 C39 1_555 1_555
O13 N4 1_555 1_555
C7 O2 1_555 1_555
C9 O1 1_555 1_555
C12 O3 1_555 1_555
C12 O4 1_555 1_555
C15 N2 1_555 1_555
N1 C21 1_555 1_555
C30 N3 1_555 1_555
C36 O10 1_555 1_555
C38 O9 1_555 1_555
C40 O12 1_555 1_555
C41 O11 1_555 1_555
C44 N4 1_555 1_555

#END
