
#######################################################################
#
#                 Cambridge Crystallographic Data Centre
#                                CCDC 
#
#######################################################################
#
# If this CIF has been generated from an entry in the Cambridge 
# Structural Database, then it will include bibliographic, chemical, 
# crystal, experimental, refinement or atomic coordinate data resulting 
# from the CCDC's data processing and validation procedures.
#
#######################################################################

data_JORLOT
_chemical_formula_moiety         'C23 H40 N2 O6,1.5(C7 H8)'
_chemical_name_systematic        
'2,2,4,4,14,14,16,16-octamethyl-7,11,18,21-tetraoxa-3,15-diazatrispiro[5.2.2.5^12^.2^9^.2^6^]henicosane-3,15-dioxanyl radical toluene solvate'
_symmetry_cell_setting           rhombohedral
_symmetry_space_group_name_H-M   'R -3'
_symmetry_Int_Tables_number      148
_space_group_name_Hall           '-R 3'
loop_
_symmetry_equiv_pos_site_id
_symmetry_equiv_pos_as_xyz
1 x,y,z
2 -y,x-y,z
3 -x+y,-x,z
4 2/3+x,1/3+y,1/3+z
5 2/3-y,1/3+x-y,1/3+z
6 2/3-x+y,1/3-x,1/3+z
7 1/3+x,2/3+y,2/3+z
8 1/3-y,2/3+x-y,2/3+z
9 1/3-x+y,2/3-x,2/3+z
10 -x,-y,-z
11 y,-x+y,-z
12 x-y,x,-z
13 1/3-x,2/3-y,2/3-z
14 1/3+y,2/3-x+y,2/3-z
15 1/3+x-y,2/3+x,2/3-z
16 2/3-x,1/3-y,1/3-z
17 2/3+y,1/3-x+y,1/3-z
18 2/3+x-y,1/3+x,1/3-z
_cell_length_a                   49.7671(12)
_cell_length_b                   49.7671(12)
_cell_length_c                   29.6709(16)
_cell_angle_alpha                90
_cell_angle_beta                 90
_cell_angle_gamma                120
_cell_volume                     63642.3
_exptl_crystal_colour            colorless
_exptl_crystal_description       prism
_cell_formula_units_Z            72
loop_
_atom_site_label
_atom_site_type_symbol
_atom_site_fract_x
_atom_site_fract_y
_atom_site_fract_z
O1 O 0.38857(11) 1.02373(11) -0.00906(16)
O2 O 0.47650(11) 1.11393(10) -0.11692(14)
O3 O 0.44925(9) 1.12393(9) -0.06192(14)
O4 O 0.48997(11) 1.20621(11) -0.09998(16)
O5 O 0.52896(11) 1.21657(11) -0.04829(16)
O6 O 0.52851(13) 1.30464(11) -0.15638(17)
N1 N 0.40989(13) 1.04554(13) -0.03257(17)
N2 N 0.52877(15) 1.28411(12) -0.1306(2)
C1 C 0.39805(17) 1.05425(17) -0.0736(2)
C2 C 0.42481(15) 1.07589(16) -0.1036(2)
H1 H 0.4303 1.0631 -0.1228
H2 H 0.4174 1.0866 -0.1239
C3 C 0.45407(16) 1.10024(16) -0.0807(2)
C4 C 0.46443(14) 1.08474(14) -0.0463(2)
H3 H 0.4829 1.1010 -0.0303
H4 H 0.4708 1.0714 -0.0624
C5 C 0.43972(15) 1.06510(15) -0.0116(2)
C6 C 0.3764(2) 1.02479(18) -0.0991(3)
H5 H 0.3871 1.0132 -0.1055
H6 H 0.3702 1.0302 -0.1275
H7 H 0.3579 1.0120 -0.0807
C7 C 0.37876(17) 1.06889(19) -0.0570(3)
H8 H 0.3628 1.0547 -0.0359
H9 H 0.3688 1.0727 -0.0828
H10 H 0.3924 1.0886 -0.0417
C8 C 0.44947(19) 1.04301(18) 0.0102(3)
H11 H 0.4345 1.0306 0.0336
H12 H 0.4701 1.0552 0.0237
H13 H 0.4500 1.0292 -0.0129
C9 C 0.43747(19) 1.08451(17) 0.0254(2)
H14 H 0.4339 1.1005 0.0122
H15 H 0.4568 1.0944 0.0427
H16 H 0.4202 1.0713 0.0454
C10 C 0.50615(17) 1.13980(16) -0.1032(3)
H17 H 0.5200 1.1484 -0.1296
H18 H 0.5161 1.1327 -0.0810
C11 C 0.47620(15) 1.15015(14) -0.0448(2)
H19 H 0.4846 1.1438 -0.0194
H20 H 0.4708 1.1655 -0.0334
C12 C 0.50085(14) 1.16494(18) -0.0820(3)
C13 C 0.49053(16) 1.17944(14) -0.1178(2)
H21 H 0.5049 1.1858 -0.1438
H22 H 0.4696 1.1640 -0.1286
C14 C 0.53110(16) 1.19025(16) -0.0628(2)
H23 H 0.5371 1.1819 -0.0368
H24 H 0.5475 1.1969 -0.0859
C15 C 0.5079(2) 1.27486(16) -0.0903(3)
C16 C 0.5139(2) 1.25317(16) -0.0595(2)
H25 H 0.5324 1.2663 -0.0408
H26 H 0.4960 1.2424 -0.0388
C17 C 0.51885(16) 1.22895(15) -0.0825(2)
C18 C 0.54490(18) 1.24482(17) -0.1180(2)
H27 H 0.5646 1.2587 -0.1021
H28 H 0.5475 1.2286 -0.1333
C19 C 0.53951(18) 1.26390(16) -0.1540(2)
C20 C 0.4750(2) 1.26054(18) -0.1040(3)
H29 H 0.4723 1.2750 -0.1232
H30 H 0.4620 1.2558 -0.0771
H31 H 0.4690 1.2414 -0.1207
C21 C 0.5185(2) 1.30515(18) -0.0636(3)
H32 H 0.5139 1.3191 -0.0811
H33 H 0.5408 1.3153 -0.0580
H34 H 0.5074 1.3003 -0.0348
C22 C 0.56983(17) 1.28460(17) -0.1770(2)
H35 H 0.5668 1.2967 -0.2005
H36 H 0.5777 1.2719 -0.1906
H37 H 0.5848 1.2987 -0.1548
C23 C 0.51481(16) 1.24354(15) -0.1903(2)
H38 H 0.4960 1.2276 -0.1752
H39 H 0.5232 1.2335 -0.2095
H40 H 0.5097 1.2567 -0.2088
O7 O 0.35950(8) 0.88718(9) 0.01459(15)
O8 O 0.32011(8) 0.94875(8) 0.06780(13)
O9 O 0.35786(8) 0.97578(9) 0.12275(13)
O10 O 0.28033(10) 0.99303(9) 0.10404(14)
O11 O 0.31187(12) 1.03160(10) 0.05176(14)
O12 O 0.22374(11) 1.03606(10) 0.15611(16)
N3 N 0.35839(9) 0.90843(11) 0.03784(16)
N4 N 0.24483(12) 1.03509(11) 0.13123(18)
C24 C 0.33773(12) 0.89774(13) 0.0783(2)
C25 C 0.34355(12) 0.92425(13) 0.10901(19)
H41 H 0.3257 0.9170 0.1298
H42 H 0.3621 0.9295 0.1275
C26 C 0.34841(12) 0.95334(13) 0.0863(2)
C27 C 0.37446(12) 0.96356(12) 0.0517(2)
H43 H 0.3941 0.9695 0.0678
H44 H 0.3770 0.9822 0.0359
C28 C 0.36892(12) 0.93854(13) 0.0162(2)
C29 C 0.34457(14) 0.87470(15) 0.1035(2)
H45 H 0.3390 0.8566 0.0843
H46 H 0.3323 0.8679 0.1313
H47 H 0.3667 0.8849 0.1109
C30 C 0.30344(12) 0.87915(13) 0.0606(2)
H48 H 0.2977 0.8936 0.0472
H49 H 0.2895 0.8682 0.0858
H50 H 0.3017 0.8641 0.0379
C31 C 0.34648(17) 0.93603(18) -0.0192(2)
H51 H 0.3427 0.9192 -0.0400
H52 H 0.3551 0.9556 -0.0357
H53 H 0.3269 0.9316 -0.0049
C32 C 0.40046(15) 0.94756(15) -0.0055(2)
H54 H 0.4151 0.9494 0.0180
H55 H 0.4085 0.9675 -0.0211
H56 H 0.3978 0.9316 -0.0272
C33 C 0.32146(14) 0.97598(14) 0.0505(2)
H57 H 0.3007 0.9710 0.0393
H58 H 0.3361 0.9840 0.0248
C34 C 0.36204(14) 1.00514(14) 0.1097(2)
H59 H 0.3795 1.0152 0.0880
H60 H 0.3673 1.0187 0.1364
C35 C 0.33218(15) 1.00114(15) 0.08761(18)
C36 C 0.30681(14) 0.99188(15) 0.1228(2)
H61 H 0.3000 0.9706 0.1336
H62 H 0.3151 1.0061 0.1489
C37 C 0.33881(15) 1.03161(14) 0.0673(2)
H63 H 0.3492 1.0481 0.0903
H64 H 0.3534 1.0366 0.0418
C38 C 0.27483(15) 1.04467(14) 0.1555(2)
C39 C 0.29943(17) 1.04883(14) 0.1213(2)
H65 H 0.3174 1.0503 0.1378
H66 H 0.3066 1.0687 0.1054
C40 C 0.28853(16) 1.02229(14) 0.0855(2)
C41 C 0.26139(18) 1.01944(16) 0.0616(2)
H67 H 0.2541 1.0020 0.0401
H68 H 0.2682 1.0386 0.0436
C42 C 0.23328(18) 1.01416(15) 0.0911(2)
C43 C 0.28516(16) 1.07539(15) 0.1786(2)
H69 H 0.2855 1.0903 0.1567
H70 H 0.3060 1.0833 0.1911
H71 H 0.2706 1.0725 0.2029
C44 C 0.26903(15) 1.01989(15) 0.1919(2)
H72 H 0.2533 1.0184 0.2132
H73 H 0.2884 1.0260 0.2081
H74 H 0.2618 0.9997 0.1774
C45 C 0.21423(18) 1.02514(17) 0.0635(2)
H75 H 0.1961 1.0217 0.0810
H76 H 0.2074 1.0134 0.0353
H77 H 0.2271 1.0473 0.0568
C46 C 0.21312(16) 0.98069(14) 0.1057(3)
H78 H 0.2258 0.9740 0.1224
H79 H 0.2042 0.9675 0.0791
H80 H 0.1964 0.9789 0.1251
O13 O 0.27794(12) 0.97074(14) -0.15013(17)
O14 O 0.22001(10) 1.01255(10) -0.09772(15)
O15 O 0.18970(11) 0.97389(11) -0.04553(16)
O16 O 0.14047(11) 1.02541(11) -0.11901(16)
O17 O 0.17676(10) 1.05391(9) -0.06423(16)
O18 O 0.13427(12) 1.11275(10) -0.01476(17)
N5 N 0.25696(13) 0.97178(16) -0.12586(18)
N6 N 0.13622(14) 1.09242(14) -0.0373(2)
C47 C 0.22674(17) 0.96172(19) -0.1493(2)
C48 C 0.20238(18) 0.95726(18) -0.1148(2)
H81 H 0.1957 0.9374 -0.0988
H82 H 0.1841 0.9553 -0.1310
C49 C 0.21258(16) 0.98327(16) -0.0793(2)
C50 C 0.24147(17) 0.9879(2) -0.0558(2)
H83 H 0.2359 0.9692 -0.0375
H84 H 0.2484 1.0056 -0.0348
C51 C 0.26947(17) 0.9942(2) -0.0866(2)
C52 C 0.21624(16) 0.93163(18) -0.1726(3)
H85 H 0.2311 0.9344 -0.1964
H86 H 0.1958 0.9245 -0.1861
H87 H 0.2149 0.9162 -0.1509
C53 C 0.23181(16) 0.98633(18) -0.1866(2)
H88 H 0.2383 1.0064 -0.1723
H89 H 0.2124 0.9795 -0.2030
H90 H 0.2479 0.9884 -0.2077
C54 C 0.28790(18) 1.0274(2) -0.1019(3)
H91 H 0.2963 1.0410 -0.0756
H92 H 0.2744 1.0328 -0.1189
H93 H 0.3050 1.0299 -0.1212
C55 C 0.28944(19) 0.9850(3) -0.0591(3)
H94 H 0.3076 0.9888 -0.0768
H95 H 0.2773 0.9629 -0.0514
H96 H 0.2962 0.9973 -0.0314
C56 C 0.19290(15) 1.01238(15) -0.1166(2)
H97 H 0.1851 0.9980 -0.1427
H98 H 0.1989 1.0334 -0.1277
C57 C 0.16172(15) 0.97220(14) -0.0614(3)
H99 H 0.1470 0.9668 -0.0360
H100 H 0.1520 0.9555 -0.0842
C58 C 0.16739(13) 1.00244(14) -0.0822(3)
C59 C 0.13733(16) 0.99657(16) -0.1043(3)
H101 H 0.1326 0.9825 -0.1304
H102 H 0.1200 0.9865 -0.0825
C60 C 0.17657(15) 1.02754(13) -0.0459(2)
H103 H 0.1616 1.0192 -0.0206
H104 H 0.1974 1.0336 -0.0340
C61 C 0.12627(18) 1.06225(16) -0.0152(2)
C62 C 0.12216(16) 1.03730(15) -0.0498(2)
H105 H 0.1203 1.0191 -0.0334
H106 H 0.1026 1.0304 -0.0665
C63 C 0.14822(17) 1.04810(16) -0.0830(3)
C64 C 0.15252(18) 1.07712(17) -0.1070(2)
H107 H 0.1709 1.0849 -0.1268
H108 H 0.1343 1.0711 -0.1266
C65 C 0.15657(19) 1.10344(17) -0.0772(3)
C66 C 0.0943(2) 1.05177(19) 0.0052(3)
H109 H 0.0963 1.0659 0.0295
H110 H 0.0857 1.0307 0.0172
H111 H 0.0805 1.0519 -0.0182
C67 C 0.1483(2) 1.06605(18) 0.0219(2)
H112 H 0.1689 1.0729 0.0091
H113 H 0.1409 1.0462 0.0373
H114 H 0.1496 1.0815 0.0434
C68 C 0.1904(2) 1.12316(17) -0.0598(3)
H115 H 0.1918 1.1392 -0.0392
H116 H 0.2044 1.1330 -0.0853
H117 H 0.1964 1.1097 -0.0437
C69 C 0.1493(3) 1.1252(2) -0.1045(3)
H118 H 0.1280 1.1136 -0.1160
H119 H 0.1638 1.1339 -0.1299
H120 H 0.1515 1.1421 -0.0851
O19 O 0.05883(10) 0.85810(11) 0.31956(17)
O20 O 0.11686(9) 0.95895(10) 0.26976(15)
O21 O 0.14767(8) 0.95201(9) 0.21677(14)
O22 O 0.15543(10) 1.04345(11) 0.23337(16)
O23 O 0.19361(10) 1.05442(9) 0.28762(15)
O24 O 0.19454(12) 1.14273(13) 0.17782(18)
N7 N 0.08038(12) 0.88108(14) 0.29746(19)
N8 N 0.19353(13) 1.12087(13) 0.2030(2)
C70 C 0.06904(13) 0.88899(16) 0.2555(2)
C71 C 0.09641(12) 0.91221(15) 0.2266(2)
H121 H 0.1033 0.9004 0.2077
H122 H 0.0888 0.9226 0.2061
C72 C 0.12471(13) 0.93727(15) 0.2519(2)
C73 C 0.13437(12) 0.92224(13) 0.2861(2)
H123 H 0.1522 0.9387 0.3029
H124 H 0.1418 0.9096 0.2703
C74 C 0.10961(15) 0.90136(16) 0.3203(2)
C75 C 0.04981(16) 0.85968(16) 0.2282(2)
H125 H 0.0627 0.8507 0.2198
H126 H 0.0421 0.8647 0.2010
H127 H 0.0322 0.8447 0.2464
C76 C 0.04830(15) 0.9026(2) 0.2703(3)
H128 H 0.0386 0.9059 0.2437
H129 H 0.0611 0.9224 0.2857
H130 H 0.0322 0.8881 0.2909
C77 C 0.10485(19) 0.9194(2) 0.3562(2)
H131 H 0.0872 0.9053 0.3750
H132 H 0.1007 0.9348 0.3423
H133 H 0.1235 0.9299 0.3749
C78 C 0.12015(18) 0.8797(2) 0.3420(3)
H134 H 0.1055 0.8672 0.3658
H135 H 0.1409 0.8923 0.3550
H136 H 0.1207 0.8659 0.3189
C79 C 0.14265(16) 0.98619(16) 0.2888(2)
H137 H 0.1510 0.9802 0.3148
H138 H 0.1356 1.0004 0.2997
C80 C 0.17574(13) 0.97872(12) 0.2326(2)
H139 H 0.1905 0.9881 0.2072
H140 H 0.1856 0.9722 0.2557
C81 C 0.16860(17) 1.00300(13) 0.25296(19)
C82 C 0.15773(17) 1.01678(15) 0.2163(2)
H141 H 0.1725 1.0236 0.1908
H142 H 0.1372 1.0007 0.2051
C83 C 0.19762(14) 1.02877(12) 0.2736(2)
H143 H 0.2035 1.0207 0.3000
H144 H 0.2147 1.0363 0.2514
C84 C 0.20535(17) 1.10150(16) 0.1811(2)
C85 C 0.21029(15) 1.08329(14) 0.2188(2)
H145 H 0.2147 1.0679 0.2046
H146 H 0.2290 1.0979 0.2360
C86 C 0.18381(15) 1.06623(15) 0.2521(2)
C87 C 0.17677(16) 1.08966(16) 0.2743(2)
H147 H 0.1942 1.1029 0.2947
H148 H 0.1580 1.0781 0.2933
C88 C 0.17139(15) 1.11119(17) 0.2421(2)
C89 C 0.18147(17) 1.08056(17) 0.1441(2)
H149 H 0.1617 1.0660 0.1585
H150 H 0.1896 1.0689 0.1281
H151 H 0.1782 1.0937 0.1228
C90 C 0.23625(16) 1.12276(17) 0.1589(2)
H152 H 0.2334 1.1346 0.1349
H153 H 0.2447 1.1104 0.1462
H154 H 0.2507 1.1371 0.1814
C91 C 0.1800(2) 1.14081(19) 0.2692(2)
H155 H 0.1756 1.1546 0.2510
H156 H 0.2021 1.1514 0.2768
H157 H 0.1677 1.1353 0.2969
C92 C 0.13812(17) 1.0955(2) 0.2253(3)
H158 H 0.1356 1.1094 0.2045
H159 H 0.1240 1.0907 0.2510
H160 H 0.1332 1.0762 0.2097
C93 C 0.35047(12) 1.12262(13) -0.18410(19)
C94 C 0.36331(15) 1.11949(14) -0.14424(18)
H161 H 0.3512 1.1027 -0.1245
C95 C 0.39384(16) 1.14096(17) -0.13327(18)
H162 H 0.4026 1.1388 -0.1060
C96 C 0.41152(12) 1.16557(15) -0.1622(2)
H163 H 0.4324 1.1802 -0.1547
C97 C 0.39867(14) 1.16871(14) -0.2020(2)
H164 H 0.4108 1.1855 -0.2218
C98 C 0.36815(15) 1.14723(16) -0.21301(17)
H165 H 0.3594 1.1494 -0.2403
C99 C 0.3172(2) 1.0999(2) -0.1959(3)
H166 H 0.3125 1.0788 -0.1885
H167 H 0.3139 1.1012 -0.2282
H168 H 0.3034 1.1049 -0.1786
C100 C 0.40096(16) 1.19757(13) 0.0066(2)
C101 C 0.41311(15) 1.18170(15) -0.0163(2)
H169 H 0.4267 1.1912 -0.0411
C102 C 0.40530(17) 1.15186(15) -0.0031(2)
H170 H 0.4136 1.1410 -0.0188
C103 C 0.38535(18) 1.13790(14) 0.0331(2)
H171 H 0.3800 1.1175 0.0421
C104 C 0.37320(17) 1.15378(17) 0.0560(2)
H172 H 0.3596 1.1442 0.0808
C105 C 0.38100(17) 1.18361(17) 0.0428(2)
H173 H 0.3727 1.1945 0.0585
C106 C 0.4049(3) 1.2252(3) -0.0084(5)
H174 H 0.4252 1.2420 0.0014
H175 H 0.3885 1.2284 0.0039
H176 H 0.4039 1.2249 -0.0414
C107 C 0.36315(12) 1.23285(15) -0.1735(2)
C108 C 0.34690(14) 1.24441(14) -0.15014(19)
H177 H 0.3560 1.2574 -0.1247
C109 C 0.31729(14) 1.23695(16) -0.1640(2)
H178 H 0.3062 1.2449 -0.1480
C110 C 0.30393(13) 1.21792(16) -0.2013(2)
H179 H 0.2837 1.2128 -0.2108
C111 C 0.32018(16) 1.20636(16) -0.2247(2)
H180 H 0.3111 1.1934 -0.2502
C112 C 0.34979(16) 1.21382(16) -0.2108(2)
H181 H 0.3609 1.2059 -0.2268
C113 C 0.3938(2) 1.2381(2) -0.1576(4)
H182 H 0.4086 1.2604 -0.1569
H183 H 0.4013 1.2279 -0.1782
H184 H 0.3915 1.2295 -0.1273
C114 C 0.28816(17) 1.18323(16) 0.0166(3)
C115 C 0.28499(18) 1.1960(2) -0.0234(3)
H185 H 0.2681 1.1839 -0.0430
C116 C 0.3066(2) 1.2264(2) -0.0346(3)
H186 H 0.3044 1.2352 -0.0619
C117 C 0.33131(18) 1.24411(17) -0.0059(3)
H187 H 0.3461 1.2649 -0.0135
C118 C 0.33449(17) 1.23133(19) 0.0340(3)
H188 H 0.3514 1.2434 0.0537
C119 C 0.31291(19) 1.2009(2) 0.0453(2)
H189 H 0.3151 1.1922 0.0725
C120 C 0.2657(3) 1.1494(3) 0.0266(5)
H190 H 0.2454 1.1468 0.0343
H191 H 0.2734 1.1427 0.0520
H192 H 0.2636 1.1369 0.0000
C121 C 0.30776(18) 1.1454(2) -0.0917(3)
C122 C 0.2921(2) 1.1153(2) -0.0750(3)
H193 H 0.3019 1.1088 -0.0536
C123 C 0.2621(2) 1.09475(19) -0.0895(4)
H194 H 0.2514 1.0742 -0.0780
C124 C 0.24780(19) 1.1043(2) -0.1207(4)
H195 H 0.2273 1.0902 -0.1306
C125 C 0.2634(2) 1.1344(2) -0.1375(4)
H196 H 0.2537 1.1409 -0.1588
C126 C 0.2934(2) 1.15497(19) -0.1230(4)
H197 H 0.3041 1.1755 -0.1344
C127 C 0.3395(4) 1.1690(4) -0.0748(6)
H198 H 0.3374 1.1817 -0.0512
H199 H 0.3518 1.1824 -0.0998
H200 H 0.3499 1.1583 -0.0624
C128 C 0.6129(4) 0.3546(3) -0.0286(6)
C129 C 0.5940(3) 0.3424(4) 0.0091(5)
H201 H 0.5877 0.3547 0.0254
C130 C 0.5844(3) 0.3122(4) 0.0228(5)
H202 H 0.5714 0.3039 0.0486
C131 C 0.5936(4) 0.2942(3) -0.0011(5)
H203 H 0.5870 0.2736 0.0083
C132 C 0.6125(4) 0.3064(4) -0.0388(5)
H204 H 0.6188 0.2940 -0.0551
C133 C 0.6222(4) 0.3365(4) -0.0525(5)
H205 H 0.6351 0.3449 -0.0783
C134 C 0.6261(12) 0.3883(6) -0.0407(15)
H206 H 0.6112 0.3949 -0.0326
H207 H 0.6302 0.3911 -0.0732
H208 H 0.6455 0.4009 -0.0241
C135? C 0.3304(3) 1.1881(3) -0.0752(5)
C136? C 0.3446(3) 1.2177(3) -0.0935(5)
H209? H 0.3613 1.2240 -0.1142
C137? C 0.3345(4) 1.2382(3) -0.0817(6)
H210? H 0.3443 1.2585 -0.0943
C138? C 0.3101(4) 1.2290(4) -0.0516(6)
H211? H 0.3032 1.2431 -0.0435
C139? C 0.2958(4) 1.1994(4) -0.0332(5)
H212? H 0.2791 1.1931 -0.0126
C140? C 0.3060(3) 1.1789(3) -0.0450(5)
H213? H 0.2962 1.1586 -0.0324
C141? C 0.3404(5) 1.1656(5) -0.0884(8)
H214? H 0.3582 1.1758 -0.1088
H215? H 0.3233 1.1479 -0.1036
H216? H 0.3463 1.1585 -0.0614
C142? C 0.2989(3) 1.1050(4) 0.0066(6)
C143? C 0.3035(4) 1.1232(4) 0.0446(6)
H217? H 0.3229 1.1326 0.0597
C144? C 0.2797(5) 1.1277(5) 0.0603(6)
H218? H 0.2829 1.1401 0.0862
C145? C 0.2513(4) 1.1139(5) 0.0382(7)
H219? H 0.2350 1.1170 0.0489
C146? C 0.2467(3) 1.0957(5) 0.0003(7)
H220? H 0.2273 1.0863 -0.0149
C147? C 0.2705(4) 1.0913(4) -0.0155(6)
H221? H 0.2673 1.0788 -0.0414
C148? C 0.3265(5) 1.1013(7) -0.0121(10)
H222? H 0.3404 1.1196 -0.0300
H223? H 0.3182 1.0827 -0.0312
H224? H 0.3380 1.0992 0.0131
C149? C 0.3021(3) 1.0977(3) -0.0340(5)
C150? C 0.3223(3) 1.1284(3) -0.0455(5)
H225? H 0.3427 1.1390 -0.0333
C151? C 0.3127(3) 1.1436(3) -0.0750(5)
H226? H 0.3264 1.1647 -0.0829
C152? C 0.2829(3) 1.1281(3) -0.0929(5)
H227? H 0.2763 1.1385 -0.1131
C153? C 0.2627(3) 1.0973(3) -0.0813(6)
H228? H 0.2424 1.0867 -0.0936
C154? C 0.2724(3) 1.0821(3) -0.0519(6)
H229? H 0.2586 1.0611 -0.0439
C155? C 0.3140(5) 1.0795(5) -0.0059(9)
H230? H 0.3332 1.0822 -0.0193
H231? H 0.2983 1.0575 -0.0056
H232? H 0.3182 1.0875 0.0251
C156? C 0.2709(3) 1.1556(3) -0.1829(5)
C157? C 0.2576(4) 1.1431(4) -0.1414(5)
H233? H 0.2523 1.1545 -0.1212
C158? C 0.2521(4) 1.1137(4) -0.1294(5)
H234? H 0.2430 1.1051 -0.1010
C159? C 0.2598(4) 1.0970(3) -0.1588(6)
H235? H 0.2561 1.0769 -0.1506
C160? C 0.2731(4) 1.1095(4) -0.2004(6)
H236? H 0.2784 1.0981 -0.2205
C161? C 0.2787(4) 1.1389(4) -0.2124(5)
H237? H 0.2877 1.1475 -0.2408
C162? C 0.2781(6) 1.1885(5) -0.1948(8)
H238? H 0.2605 1.1911 -0.1860
H239? H 0.2815 1.1918 -0.2274
H240? H 0.2968 1.2037 -0.1787
C163? C 0.3616(4) 1.1272(4) -0.1664(6)
C164? C 0.3875(5) 1.1425(5) -0.1388(5)
H241? H 0.3890 1.1328 -0.1122
C165? C 0.4112(4) 1.1721(5) -0.1501(7)
H242? H 0.4289 1.1825 -0.1312
C166? C 0.4089(5) 1.1864(4) -0.1891(7)
H243? H 0.4251 1.2066 -0.1968
C167? C 0.3830(5) 1.1711(5) -0.2167(6)
H244? H 0.3815 1.1808 -0.2433
C168? C 0.3594(5) 1.1415(5) -0.2054(6)
H245? H 0.3417 1.1311 -0.2243
C169? C 0.3354(6) 1.0967(5) -0.1538(8)
H246? H 0.3427 1.0817 -0.1511
H247? H 0.3193 1.0896 -0.1770
H248? H 0.3269 1.0983 -0.1249
C170? C -0.0214(2) 1.0050(3) -0.2424(4)
C171? C -0.0110(2) 1.0288(3) -0.2109(4)
H249? H 0.0097 1.0383 -0.2000
C172? C -0.0310(3) 1.0386(3) -0.1952(4)
H250? H -0.0240 1.0549 -0.1736
C173? C -0.0613(3) 1.0247(3) -0.2111(5)
H251? H -0.0750 1.0314 -0.2003
C174? C -0.0716(2) 1.0010(3) -0.2426(5)
H252? H -0.0924 0.9914 -0.2535
C175? C -0.0517(3) 0.9911(3) -0.2583(4)
H253? H -0.0587 0.9749 -0.2799
C176? C 0.0007(5) 0.9929(5) -0.2587(6)
H254? H 0.0190 1.0098 -0.2733
H255? H -0.0104 0.9759 -0.2803
H256? H 0.0072 0.9853 -0.2327
C177? C -0.0358(3) 1.0291(3) -0.1595(4)
C178? C -0.0310(3) 1.0165(3) -0.1206(4)
H257? H -0.0122 1.0277 -0.1043
C179? C -0.0538(3) 0.9875(3) -0.1055(4)
H258? H -0.0505 0.9789 -0.0789
C180? C -0.0814(3) 0.9711(3) -0.1294(5)
H259? H -0.0970 0.9512 -0.1191
C181? C -0.0862(3) 0.9836(3) -0.1683(5)
H260? H -0.1051 0.9724 -0.1846
C182? C -0.0634(3) 1.0126(3) -0.1834(4)
H261? H -0.0667 1.0212 -0.2100
C183? C -0.0107(4) 1.0608(4) -0.1752(6)
H262? H -0.0077 1.0764 -0.1526
H263? H -0.0168 1.0659 -0.2039
H264? H 0.0088 1.0606 -0.1792
C184? C -0.0192(2) 1.0419(3) -0.1487(4)
C185? C -0.0373(3) 1.0175(3) -0.1196(4)
H265? H -0.0286 1.0153 -0.0923
C186? C -0.0679(3) 0.9964(3) -0.1306(4)
H266? H -0.0802 0.9797 -0.1107
C187? C -0.0805(2) 0.9997(3) -0.1706(5)
H267? H -0.1014 0.9852 -0.1780
C188? C -0.0625(3) 1.0240(3) -0.1996(4)
H268? H -0.0711 1.0263 -0.2270
C189? C -0.0319(3) 1.0452(3) -0.1887(4)
H269? H -0.0196 1.0618 -0.2085
C190? C 0.0144(3) 1.0640(4) -0.1377(6)
H270? H 0.0158 1.0793 -0.1156
H271? H 0.0255 1.0747 -0.1652
H272? H 0.0237 1.0523 -0.1251
loop_
_geom_bond_atom_site_label_1
_geom_bond_atom_site_label_2
_geom_bond_site_symmetry_1
_geom_bond_site_symmetry_2
O1 N1 1_555 1_555
O2 C3 1_555 1_555
O3 C3 1_555 1_555
O4 C13 1_555 1_555
O5 C14 1_555 1_555
O6 N2 1_555 1_555
N1 C1 1_555 1_555
N2 C15 1_555 1_555
C1 C2 1_555 1_555
C2 H1 1_555 1_555
H2 C2 1_555 1_555
C3 C2 1_555 1_555
C4 C3 1_555 1_555
H3 C4 1_555 1_555
H4 C4 1_555 1_555
C5 N1 1_555 1_555
C6 C1 1_555 1_555
H5 C6 1_555 1_555
H6 C6 1_555 1_555
H7 C6 1_555 1_555
C7 C1 1_555 1_555
H8 C7 1_555 1_555
H9 C7 1_555 1_555
H10 C7 1_555 1_555
C8 C5 1_555 1_555
H11 C8 1_555 1_555
H12 C8 1_555 1_555
H13 C8 1_555 1_555
C9 C5 1_555 1_555
H14 C9 1_555 1_555
H15 C9 1_555 1_555
H16 C9 1_555 1_555
C10 O2 1_555 1_555
H17 C10 1_555 1_555
H18 C10 1_555 1_555
C11 O3 1_555 1_555
H19 C11 1_555 1_555
H20 C11 1_555 1_555
C12 C10 1_555 1_555
C13 C12 1_555 1_555
H21 C13 1_555 1_555
H22 C13 1_555 1_555
C14 C12 1_555 1_555
H23 C14 1_555 1_555
H24 C14 1_555 1_555
C15 C16 1_555 1_555
C16 H25 1_555 1_555
H26 C16 1_555 1_555
C17 O4 1_555 1_555
C18 C17 1_555 1_555
H27 C18 1_555 1_555
H28 C18 1_555 1_555
C19 N2 1_555 1_555
C20 C15 1_555 1_555
H29 C20 1_555 1_555
H30 C20 1_555 1_555
H31 C20 1_555 1_555
C21 C15 1_555 1_555
H32 C21 1_555 1_555
H33 C21 1_555 1_555
H34 C21 1_555 1_555
C22 C19 1_555 1_555
H35 C22 1_555 1_555
H36 C22 1_555 1_555
H37 C22 1_555 1_555
C23 C19 1_555 1_555
H38 C23 1_555 1_555
H39 C23 1_555 1_555
H40 C23 1_555 1_555
O7 N3 1_555 1_555
O8 C26 1_555 1_555
O9 C26 1_555 1_555
O10 C36 1_555 1_555
O11 C37 1_555 1_555
O12 N4 1_555 1_555
N3 C24 1_555 1_555
N4 C38 1_555 1_555
C24 C25 1_555 1_555
C25 H41 1_555 1_555
H42 C25 1_555 1_555
C26 C25 1_555 1_555
C27 C26 1_555 1_555
H43 C27 1_555 1_555
H44 C27 1_555 1_555
C28 N3 1_555 1_555
C29 C24 1_555 1_555
H45 C29 1_555 1_555
H46 C29 1_555 1_555
H47 C29 1_555 1_555
C30 C24 1_555 1_555
H48 C30 1_555 1_555
H49 C30 1_555 1_555
H50 C30 1_555 1_555
C31 C28 1_555 1_555
H51 C31 1_555 1_555
H52 C31 1_555 1_555
H53 C31 1_555 1_555
C32 C28 1_555 1_555
H54 C32 1_555 1_555
H55 C32 1_555 1_555
H56 C32 1_555 1_555
C33 O8 1_555 1_555
H57 C33 1_555 1_555
H58 C33 1_555 1_555
C34 O9 1_555 1_555
H59 C34 1_555 1_555
H60 C34 1_555 1_555
C35 C33 1_555 1_555
C36 C35 1_555 1_555
H61 C36 1_555 1_555
H62 C36 1_555 1_555
C37 C35 1_555 1_555
H63 C37 1_555 1_555
H64 C37 1_555 1_555
C38 C39 1_555 1_555
C39 H65 1_555 1_555
H66 C39 1_555 1_555
C40 O10 1_555 1_555
C41 C40 1_555 1_555
H67 C41 1_555 1_555
H68 C41 1_555 1_555
C42 N4 1_555 1_555
C43 C38 1_555 1_555
H69 C43 1_555 1_555
H70 C43 1_555 1_555
H71 C43 1_555 1_555
C44 C38 1_555 1_555
H72 C44 1_555 1_555
H73 C44 1_555 1_555
H74 C44 1_555 1_555
C45 C42 1_555 1_555
H75 C45 1_555 1_555
H76 C45 1_555 1_555
H77 C45 1_555 1_555
C46 C42 1_555 1_555
H78 C46 1_555 1_555
H79 C46 1_555 1_555
H80 C46 1_555 1_555
O13 N5 1_555 1_555
O14 C49 1_555 1_555
O15 C49 1_555 1_555
O16 C59 1_555 1_555
O17 C60 1_555 1_555
O18 N6 1_555 1_555
N5 C47 1_555 1_555
N6 C61 1_555 1_555
C47 C48 1_555 1_555
C48 H81 1_555 1_555
H82 C48 1_555 1_555
C49 C48 1_555 1_555
C50 C49 1_555 1_555
H83 C50 1_555 1_555
H84 C50 1_555 1_555
C51 N5 1_555 1_555
C52 C47 1_555 1_555
H85 C52 1_555 1_555
H86 C52 1_555 1_555
H87 C52 1_555 1_555
C53 C47 1_555 1_555
H88 C53 1_555 1_555
H89 C53 1_555 1_555
H90 C53 1_555 1_555
C54 C51 1_555 1_555
H91 C54 1_555 1_555
H92 C54 1_555 1_555
H93 C54 1_555 1_555
C55 C51 1_555 1_555
H94 C55 1_555 1_555
H95 C55 1_555 1_555
H96 C55 1_555 1_555
C56 O14 1_555 1_555
H97 C56 1_555 1_555
H98 C56 1_555 1_555
C57 O15 1_555 1_555
H99 C57 1_555 1_555
H100 C57 1_555 1_555
C58 C56 1_555 1_555
C59 C58 1_555 1_555
H101 C59 1_555 1_555
H102 C59 1_555 1_555
C60 C58 1_555 1_555
H103 C60 1_555 1_555
H104 C60 1_555 1_555
C61 C62 1_555 1_555
C62 H105 1_555 1_555
H106 C62 1_555 1_555
C63 O16 1_555 1_555
C64 C63 1_555 1_555
H107 C64 1_555 1_555
H108 C64 1_555 1_555
C65 N6 1_555 1_555
C66 C61 1_555 1_555
H109 C66 1_555 1_555
H110 C66 1_555 1_555
H111 C66 1_555 1_555
C67 C61 1_555 1_555
H112 C67 1_555 1_555
H113 C67 1_555 1_555
H114 C67 1_555 1_555
C68 C65 1_555 1_555
H115 C68 1_555 1_555
H116 C68 1_555 1_555
H117 C68 1_555 1_555
C69 C65 1_555 1_555
H118 C69 1_555 1_555
H119 C69 1_555 1_555
H120 C69 1_555 1_555
O19 N7 1_555 1_555
O20 C72 1_555 1_555
O21 C72 1_555 1_555
O22 C82 1_555 1_555
O23 C83 1_555 1_555
O24 N8 1_555 1_555
N7 C70 1_555 1_555
N8 C84 1_555 1_555
C70 C71 1_555 1_555
C71 H121 1_555 1_555
H122 C71 1_555 1_555
C72 C71 1_555 1_555
C73 C72 1_555 1_555
H123 C73 1_555 1_555
H124 C73 1_555 1_555
C74 N7 1_555 1_555
C75 C70 1_555 1_555
H125 C75 1_555 1_555
H126 C75 1_555 1_555
H127 C75 1_555 1_555
C76 C70 1_555 1_555
H128 C76 1_555 1_555
H129 C76 1_555 1_555
H130 C76 1_555 1_555
C77 C74 1_555 1_555
H131 C77 1_555 1_555
H132 C77 1_555 1_555
H133 C77 1_555 1_555
C78 C74 1_555 1_555
H134 C78 1_555 1_555
H135 C78 1_555 1_555
H136 C78 1_555 1_555
C79 O20 1_555 1_555
H137 C79 1_555 1_555
H138 C79 1_555 1_555
C80 O21 1_555 1_555
H139 C80 1_555 1_555
H140 C80 1_555 1_555
C81 C79 1_555 1_555
C82 C81 1_555 1_555
H141 C82 1_555 1_555
H142 C82 1_555 1_555
C83 C81 1_555 1_555
H143 C83 1_555 1_555
H144 C83 1_555 1_555
C84 C85 1_555 1_555
C85 H145 1_555 1_555
H146 C85 1_555 1_555
C86 O22 1_555 1_555
C87 C86 1_555 1_555
H147 C87 1_555 1_555
H148 C87 1_555 1_555
C88 N8 1_555 1_555
C89 C84 1_555 1_555
H149 C89 1_555 1_555
H150 C89 1_555 1_555
H151 C89 1_555 1_555
C90 C84 1_555 1_555
H152 C90 1_555 1_555
H153 C90 1_555 1_555
H154 C90 1_555 1_555
C91 C88 1_555 1_555
H155 C91 1_555 1_555
H156 C91 1_555 1_555
H157 C91 1_555 1_555
C92 C88 1_555 1_555
H158 C92 1_555 1_555
H159 C92 1_555 1_555
H160 C92 1_555 1_555
C93 C94 1_555 1_555
C94 H161 1_555 1_555
C95 C94 1_555 1_555
H162 C95 1_555 1_555
C96 C95 1_555 1_555
H163 C96 1_555 1_555
C97 C96 1_555 1_555
H164 C97 1_555 1_555
C98 C93 1_555 1_555
H165 C98 1_555 1_555
C99 C93 1_555 1_555
H166 C99 1_555 1_555
H167 C99 1_555 1_555
H168 C99 1_555 1_555
C100 C101 1_555 1_555
C101 H169 1_555 1_555
C102 C101 1_555 1_555
H170 C102 1_555 1_555
C103 C102 1_555 1_555
H171 C103 1_555 1_555
C104 C103 1_555 1_555
H172 C104 1_555 1_555
C105 C100 1_555 1_555
H173 C105 1_555 1_555
C106 C100 1_555 1_555
H174 C106 1_555 1_555
H175 C106 1_555 1_555
H176 C106 1_555 1_555
C107 C108 1_555 1_555
C108 H177 1_555 1_555
C109 C108 1_555 1_555
H178 C109 1_555 1_555
C110 C109 1_555 1_555
H179 C110 1_555 1_555
C111 C110 1_555 1_555
H180 C111 1_555 1_555
C112 C107 1_555 1_555
H181 C112 1_555 1_555
C113 C107 1_555 1_555
H182 C113 1_555 1_555
H183 C113 1_555 1_555
H184 C113 1_555 1_555
C114 C115 1_555 1_555
C115 H185 1_555 1_555
C116 C115 1_555 1_555
H186 C116 1_555 1_555
C117 C116 1_555 1_555
H187 C117 1_555 1_555
C118 C117 1_555 1_555
H188 C118 1_555 1_555
C119 C114 1_555 1_555
H189 C119 1_555 1_555
C120 C114 1_555 1_555
H190 C120 1_555 1_555
H191 C120 1_555 1_555
H192 C120 1_555 1_555
C121 C122 1_555 1_555
C122 H193 1_555 1_555
C123 C122 1_555 1_555
H194 C123 1_555 1_555
C124 C123 1_555 1_555
H195 C124 1_555 1_555
C125 C124 1_555 1_555
H196 C125 1_555 1_555
C126 C121 1_555 1_555
H197 C126 1_555 1_555
C127 C121 1_555 1_555
H198 C127 1_555 1_555
H199 C127 1_555 1_555
H200 C127 1_555 1_555
C128 C129 1_555 1_555
C129 H201 1_555 1_555
C130 C129 1_555 1_555
H202 C130 1_555 1_555
C131 C130 1_555 1_555
H203 C131 1_555 1_555
C132 C131 1_555 1_555
H204 C132 1_555 1_555
C133 C128 1_555 1_555
H205 C133 1_555 1_555
C134 C128 1_555 1_555
H206 C134 1_555 1_555
H207 C134 1_555 1_555
H208 C134 1_555 1_555
O5 C17 1_555 1_555
C4 C5 1_555 1_555
C11 C12 1_555 1_555
C16 C17 1_555 1_555
C18 C19 1_555 1_555
O11 C40 1_555 1_555
C27 C28 1_555 1_555
C34 C35 1_555 1_555
C39 C40 1_555 1_555
C41 C42 1_555 1_555
O17 C63 1_555 1_555
C50 C51 1_555 1_555
C57 C58 1_555 1_555
C62 C63 1_555 1_555
C64 C65 1_555 1_555
O23 C86 1_555 1_555
C73 C74 1_555 1_555
C80 C81 1_555 1_555
C85 C86 1_555 1_555
C87 C88 1_555 1_555
C97 C98 1_555 1_555
C104 C105 1_555 1_555
C111 C112 1_555 1_555
C118 C119 1_555 1_555
C125 C126 1_555 1_555
C132 C133 1_555 1_555

#END
