
#######################################################################
#
#                 Cambridge Crystallographic Data Centre
#                                CCDC 
#
#######################################################################
#
# If this CIF has been generated from an entry in the Cambridge 
# Structural Database, then it will include bibliographic, chemical, 
# crystal, experimental, refinement or atomic coordinate data resulting 
# from the CCDC's data processing and validation procedures.
#
#######################################################################

data_JORVIV
_chemical_formula_moiety         'C51 H51 N3 O3,2(C1 H4 O1)'
_chemical_name_systematic        
'1,13,14,21,22,34-Hexahydro-30,36,48-trimethoxy-6H,12H,20H,28H-2,5-etheno-9,25-(methanimino)methano-3,32:17,37-dimethano-7,11:15,19:23,27:29,33-tetrametheno-13,21-benzodiazacyclohexatriacontine methanol clathrate methanol solvate'
_symmetry_cell_setting           rhombohedral
_symmetry_space_group_name_H-M   'R -3'
_symmetry_Int_Tables_number      148
_space_group_name_Hall           '-R 3'
loop_
_symmetry_equiv_pos_site_id
_symmetry_equiv_pos_as_xyz
1 x,y,z
2 1/3+x,2/3+y,2/3+z
3 2/3+x,1/3+y,1/3+z
4 -y,x-y,z
5 -x+y,-x,z
6 1/3-y,2/3+x-y,2/3+z
7 1/3-x+y,2/3-x,2/3+z
8 2/3-y,1/3+x-y,1/3+z
9 2/3-x+y,1/3-x,1/3+z
10 -x,-y,-z
11 2/3-x,1/3-y,1/3-z
12 1/3-x,2/3-y,2/3-z
13 y,-x+y,-z
14 x-y,x,-z
15 2/3+y,1/3-x+y,1/3-z
16 2/3+x-y,1/3+x,1/3-z
17 1/3+y,2/3-x+y,2/3-z
18 1/3+x-y,2/3+x,2/3-z
_cell_length_a                   14.262(2)
_cell_length_b                   14.262(2)
_cell_length_c                   44.914(6)
_cell_angle_alpha                90
_cell_angle_beta                 90
_cell_angle_gamma                120
_cell_volume                     7911.76
_exptl_crystal_colour            colorless
_cell_formula_units_Z            6
loop_
_atom_site_label
_atom_site_type_symbol
_atom_site_fract_x
_atom_site_fract_y
_atom_site_fract_z
O5 O 0.5001(8) 0.0562(7) 0.9379(2)
C5 C 0.5805(9) -0.1992(9) 0.8684(2)
C6 C 0.5331(9) -0.1601(9) 0.8490(2)
C7 C 0.4881(10) -0.0284(10) 0.9554(2)
C8 C 0.5705(9) -0.0507(9) 0.9535(2)
N1 N 0.5310(7) -0.3545(7) 0.8352(2)
C9 C 0.6284(9) -0.1400(9) 0.8946(2)
C10 C 0.5342(9) -0.0644(10) 0.8552(2)
C11 C 0.3923(9) -0.1725(9) 0.9901(2)
C12 C 0.5766(9) -0.3059(9) 0.8644(2)
C13 C 0.5805(10) -0.0080(10) 0.8812(3)
C14 C 0.4704(11) -0.0308(10) 0.8347(3)
C15 C 0.5639(10) -0.1334(10) 0.9716(2)
C16 C 0.6263(9) -0.0459(10) 0.9012(2)
C17 C 0.4750(10) -0.1953(10) 0.9898(2)
C18 C 0.4000(10) -0.0869(10) 0.9732(2)
C19 C 0.6643(10) 0.0077(10) 0.9318(3)
C20 C 0.4751(10) -0.2872(10) 1.0082(3)
C21 C 0.4100(13) 0.0742(12) 0.9354(3)
H3 H 0.7006 -0.0213 0.9368
H4 H 0.6083 -0.1544 0.9695
H5 H 0.5235 -0.2678 1.0076
H6 H 0.3492 -0.0699 0.9766
H7 H 0.6518 -0.1753 0.9086
H8 H 0.3904 0.0881 0.9520
H9 H 0.6652 0.0558 0.9260
H10 H 0.4947 -0.2116 0.8293
H11 H 0.5320 -0.3703 0.8826
H12 H 0.6493 -0.2949 0.8651
H13 H 0.4197 -0.3079 1.0211
H14 H 0.4798 0.0417 0.8401
H15 H 0.3492 0.0190 0.9300
H16 H 0.4329 0.1395 0.9186
H17 H 0.4908 -0.0250 0.8108
H18 H 0.5857 0.0607 0.8862
H19 H 0.5876 -0.3290 0.8208
C20C C 0.2872(10) -0.2377(14) 1.0082(3)
C14D C 0.4988(15) -0.4704(11) 0.8347(3)
N1C N 0.3545(7) -0.1145(10) 0.8352(2)
C11D C 0.4352(13) -0.3923(9) 0.9901(2)
C17C C 0.1953(10) -0.3297(14) 0.9898(2)
H5C H 0.2678 -0.2087 1.0076
H13C H 0.3079 -0.2724 1.0211
C10D C 0.4014(13) -0.5342(9) 0.8552(2)
H14D H 0.5619 -0.4798 0.8401
H17D H 0.4842 -0.4908 0.8108
C12C C 0.3059(9) -0.1175(13) 0.8644(2)
H19C H 0.3290 -0.0834 0.8208
C17D C 0.3297(14) -0.4750(10) 0.9898(2)
C18D C 0.5131(14) -0.4000(10) 0.9732(2)
C11C C 0.1725(9) -0.4352(13) 0.9901(2)
C15C C 0.1334(10) -0.3027(14) 0.9716(2)
C6D C 0.3068(13) -0.5331(9) 0.8490(2)
C13D C 0.4115(14) -0.5805(10) 0.8812(3)
C5C C 0.1992(9) -0.2203(13) 0.8684(2)
H11C H 0.3703 -0.0977 0.8826
H12C H 0.2949 -0.0558 0.8651
C15D C 0.3027(14) -0.5639(10) 0.9716(2)
C20D C 0.2377(14) -0.4751(10) 1.0082(3)
C7D C 0.4835(14) -0.4881(10) 0.9554(2)
H6D H 0.5809 -0.3492 0.9766
C18C C 0.0869(10) -0.5131(14) 0.9732(2)
C8C C 0.0507(9) -0.3788(13) 0.9535(2)
H4C H 0.1544 -0.2373 0.9695
C5D C 0.2203(13) -0.5805(9) 0.8684(2)
H10D H 0.2937 -0.4947 0.8293
C16D C 0.3278(13) -0.6263(9) 0.9012(2)
H18D H 0.4750 -0.5857 0.8862
C6C C 0.1601(9) -0.3068(13) 0.8490(2)
C9C C 0.1400(9) -0.2316(13) 0.8946(2)
C8D C 0.3788(13) -0.5705(9) 0.9535(2)
H4D H 0.2373 -0.6083 0.9695
H5D H 0.2087 -0.5235 1.0076
H13D H 0.2724 -0.4197 1.0211
O5D O 0.5561(11) -0.5001(8) 0.9379(2)
C7C C 0.0284(10) -0.4835(14) 0.9554(2)
H6C H 0.0699 -0.5809 0.9766
C19C C -0.0077(10) -0.3434(14) 0.9318(3)
C9D C 0.2316(13) -0.6284(9) 0.8946(2)
C12D C 0.1175(13) -0.5766(9) 0.8644(2)
C19D C 0.3434(14) -0.6643(10) 0.9318(3)
C10C C 0.0644(10) -0.4014(13) 0.8552(2)
H10C H 0.2116 -0.2937 0.8293
C16C C 0.0459(10) -0.3278(13) 0.9012(2)
H7C H 0.1753 -0.1729 0.9086
C21D C 0.6642(18) -0.4100(13) 0.9354(3)
O5C O -0.0562(7) -0.5561(11) 0.9379(2)
H3C H 0.0213 -0.2781 0.9368
H9C H -0.0558 -0.3906 0.9260
H7D H 0.1729 -0.6518 0.9086
N1D N 0.1145(10) -0.5310(7) 0.8352(2)
H11D H 0.0977 -0.5320 0.8826
H12D H 0.0558 -0.6493 0.8651
H3D H 0.2781 -0.7006 0.9368
H9D H 0.3906 -0.6652 0.9260
C13C C 0.0080(10) -0.4115(14) 0.8812(3)
C14C C 0.0308(10) -0.4988(15) 0.8347(3)
H8D H 0.6977 -0.3904 0.9520
H15D H 0.6698 -0.3492 0.9300
H16D H 0.7066 -0.4329 0.9186
C21C C -0.0742(12) -0.6642(18) 0.9354(3)
H19D H 0.0834 -0.5876 0.8208
H18C H -0.0607 -0.4750 0.8862
H14C H -0.0417 -0.5619 0.8401
H17C H 0.0250 -0.4842 0.8108
H8C H -0.0881 -0.6977 0.9520
H15C H -0.0190 -0.6698 0.9300
H16C H -0.1395 -0.7066 0.9186
Cl1? Cl 0.5375(10) 0.2998(10) 0.4264(2)
O1? O 0.6667 0.3333 0.9038(7)
O2? O 0.6667 0.3333 0.0888(7)
O3? O 0.6667 0.3333 0.8492(12)
C1? C 0.6667 0.3333 0.4488(12)
O4? O 0.8766(40) 0.0260(49) 1.0024(11)
C2? C 0.6030(30) 0.3611(29) 0.0827(8)
C3? C 0.6667 0.3333 0.8716(19)
C4? C 0.5925(39) 0.2429(39) 0.4326(9)
H1? H 0.8141 -0.1022 1.0115
H2? H 0.8302 -0.0037 1.0150
loop_
_geom_bond_atom_site_label_1
_geom_bond_atom_site_label_2
_geom_bond_site_symmetry_1
_geom_bond_site_symmetry_2
O5 C7 1_555 1_555
C5 C6 1_555 1_555
C6 C10 1_555 1_555
C7 C8 1_555 1_555
C8 C15 1_555 1_555
N1 C12 1_555 1_555
C9 C5 1_555 1_555
C10 C13 1_555 1_555
C11 C17 1_555 1_555
C12 C5 1_555 1_555
C13 C16 1_555 1_555
C14 C10 1_555 1_555
C15 C17 1_555 1_555
C16 C9 1_555 1_555
C17 C20 1_555 1_555
C18 C7 1_555 1_555
C19 C8 1_555 1_555
C20 H5 1_555 1_555
C21 O5 1_555 1_555
H3 C19 1_555 1_555
H4 C15 1_555 1_555
H6 C18 1_555 1_555
H7 C9 1_555 1_555
H8 C21 1_555 1_555
H9 C19 1_555 1_555
H10 C6 1_555 1_555
H11 C12 1_555 1_555
H12 C12 1_555 1_555
H13 C20 1_555 1_555
H14 C14 1_555 1_555
H15 C21 1_555 1_555
H16 C21 1_555 1_555
H17 C14 1_555 1_555
H18 C13 1_555 1_555
H19 N1 1_555 1_555
C20C C11 1_555 1_555
C14D N1 1_555 1_555
N1C C14 1_555 1_555
C11D C20 1_555 1_555
C17C C20C 1_555 1_555
H5C C20C 1_555 1_555
H13C C20C 1_555 1_555
C10D C14D 1_555 1_555
H14D C14D 1_555 1_555
H17D C14D 1_555 1_555
C12C N1C 1_555 1_555
H19C N1C 1_555 1_555
C17D C11D 1_555 1_555
C18D C11D 1_555 1_555
C11C C17C 1_555 1_555
C15C C17C 1_555 1_555
C6D C10D 1_555 1_555
C13D C10D 1_555 1_555
C5C C12C 1_555 1_555
H11C C12C 1_555 1_555
H12C C12C 1_555 1_555
C15D C17D 1_555 1_555
C20D C17D 1_555 1_555
C7D C18D 1_555 1_555
H6D C18D 1_555 1_555
C18C C11C 1_555 1_555
C8C C15C 1_555 1_555
H4C C15C 1_555 1_555
C5D C6D 1_555 1_555
H10D C6D 1_555 1_555
C16D C13D 1_555 1_555
H18D C13D 1_555 1_555
C6C C5C 1_555 1_555
C9C C5C 1_555 1_555
C8D C15D 1_555 1_555
H4D C15D 1_555 1_555
H5D C20D 1_555 1_555
H13D C20D 1_555 1_555
O5D C7D 1_555 1_555
C7C C18C 1_555 1_555
H6C C18C 1_555 1_555
C19C C8C 1_555 1_555
C9D C5D 1_555 1_555
C12D C5D 1_555 1_555
C19D C16D 1_555 1_555
C10C C6C 1_555 1_555
H10C C6C 1_555 1_555
C16C C9C 1_555 1_555
H7C C9C 1_555 1_555
C21D O5D 1_555 1_555
O5C C7C 1_555 1_555
H3C C19C 1_555 1_555
H9C C19C 1_555 1_555
H7D C9D 1_555 1_555
N1D C12D 1_555 1_555
H11D C12D 1_555 1_555
H12D C12D 1_555 1_555
H3D C19D 1_555 1_555
H9D C19D 1_555 1_555
C13C C10C 1_555 1_555
C14C C10C 1_555 1_555
H8D C21D 1_555 1_555
H15D C21D 1_555 1_555
H16D C21D 1_555 1_555
C21C O5C 1_555 1_555
H19D N1D 1_555 1_555
H18C C13C 1_555 1_555
H14C C14C 1_555 1_555
H17C C14C 1_555 1_555
H8C C21C 1_555 1_555
H15C C21C 1_555 1_555
H16C C21C 1_555 1_555
C11 C18 1_555 1_555
C16 C19 1_555 1_555
C11C C20D 1_555 1_555
C7D C8D 1_555 1_555
C8C C7C 1_555 1_555
C16D C9D 1_555 1_555
C8D C19D 1_555 1_555
C19C C16C 1_555 1_555
C16C C13C 1_555 1_555
N1D C14C 1_555 1_555

#END
