
#######################################################################
#
#                 Cambridge Crystallographic Data Centre
#                                CCDC 
#
#######################################################################
#
# If this CIF has been generated from an entry in the Cambridge 
# Structural Database, then it will include bibliographic, chemical, 
# crystal, experimental, refinement or atomic coordinate data resulting 
# from the CCDC's data processing and validation procedures.
#
#######################################################################

data_JORVER
_chemical_formula_moiety         'C72 H69 N3 O9 S3,2(C2 H3 N1)'
_chemical_name_systematic        
'1,13,14,21,22,34-Hexahydro-30,36,48-trimethoxy-13,21,44-tri-p-tosyl-6H,12H,20H,28H-2,5-etheno-9,25-(methanimino)methano-3,32:17,37-dimethano-7,11:15,19:23,27:29,33-tetrametheno-13,21-benzodiazacyclohexatriacontine acetonitrile clathrate acetonitrile solvate'
_symmetry_cell_setting           triclinic
_symmetry_space_group_name_H-M   'P -1'
_symmetry_Int_Tables_number      2
_space_group_name_Hall           '-P 1'
loop_
_symmetry_equiv_pos_site_id
_symmetry_equiv_pos_as_xyz
1 x,y,z
2 -x,-y,-z
_cell_length_a                   11.710(2)
_cell_length_b                   11.809(2)
_cell_length_c                   28.075(4)
_cell_angle_alpha                96.930(3)
_cell_angle_beta                 93.594(3)
_cell_angle_gamma                119.334(3)
_cell_volume                     3326.35
_exptl_crystal_colour            colorless
_cell_formula_units_Z            2
loop_
_atom_site_label
_atom_site_type_symbol
_atom_site_fract_x
_atom_site_fract_y
_atom_site_fract_z
S1 S 1.04480(25) 0.12435(25) 0.15532(9)
S2 S 0.58274(23) 0.37726(22) 0.12634(9)
S3 S 0.91247(25) 0.56550(26) 0.39175(10)
C5 C 0.8363(13) 0.3206(13) 0.0012(5)
H7 H 0.8604 0.4206 0.0143
H8 H 0.7304 0.2561 -0.0030
H9 H 0.8708 0.3157 -0.0333
C6 C 0.8905(10) 0.2702(10) 0.0392(4)
C7 C 0.9697(9) 0.3563(10) 0.0816(3)
H10 H 0.9902 0.4570 0.0874
C8 C 1.0186(9) 0.3116(9) 0.1160(3)
H11 H 1.0808 0.3784 0.1485
C9 C 0.9902(9) 0.1812(9) 0.1093(3)
C10 C 0.9084(10) 0.0928(11) 0.0666(4)
H12 H 0.8849 -0.0089 0.0607
C11 C 0.8626(12) 0.1441(12) 0.0327(4)
H13 H 0.8006 0.0791 -0.0001
O1 O 1.1753(7) 0.2270(7) 0.1750(2)
O2 O 1.0207(8) -0.0031(8) 0.1359(3)
N3 N 0.9521(7) 0.1084(7) 0.1977(2)
C12 C 0.8270(9) -0.0131(10) 0.1937(4)
H14 H 0.8440 -0.0924 0.1802
H15 H 0.8002 -0.0221 0.2297
C13 C 0.7060(8) -0.0347(8) 0.1613(3)
C14 C 0.6885(8) 0.0669(9) 0.1473(3)
H16 H 0.7660 0.1686 0.1578
C15 C 0.5722(8) 0.0367(8) 0.1199(3)
C16 C 0.5550(9) 0.1420(9) 0.1017(3)
H17 H 0.6375 0.1978 0.0830
H18 H 0.4642 0.0956 0.0767
C17 C 0.4714(9) -0.0942(8) 0.1073(3)
H19 H 0.3802 -0.1173 0.0860
C18 C 0.4856(8) -0.1958(8) 0.1216(3)
C19 C 0.6049(8) -0.1624(8) 0.1489(3)
H20 H 0.6180 -0.2397 0.1605
C20 C 0.3728(9) -0.3400(8) 0.1112(3)
H21 H 0.3020 -0.3554 0.0810
H22 H 0.4134 -0.4036 0.1028
C21 C 0.3045(8) -0.3722(8) 0.1563(3)
C22 C 0.3464(8) -0.4207(8) 0.1912(3)
H23 H 0.4201 -0.4475 0.1836
C23 C 0.3012(9) -0.4353(9) 0.2360(3)
C24 C 0.2038(9) -0.4008(9) 0.2439(3)
C25 C 0.1560(10) -0.3965(10) 0.2931(4)
H24 H 0.1636 -0.4682 0.3116
H25 H 0.0541 -0.4202 0.2877
C26 C 0.1544(9) -0.3608(9) 0.2073(3)
H26 H 0.0727 -0.3443 0.2125
C27 C 0.2051(9) -0.3441(9) 0.1650(3)
O3 O 0.1664(6) -0.2959(6) 0.1280(2)
C28 C 0.0770(12) -0.2482(12) 0.1383(4)
H27 H 0.0732 -0.2029 0.1075
H28 H 0.1113 -0.1759 0.1711
H29 H -0.0205 -0.3285 0.1403
C29 C 0.2027(12) 0.2894(12) -0.0501(4)
H30 H 0.1114 0.2796 -0.0397
H31 H 0.1809 0.2108 -0.0795
H32 H 0.2594 0.3834 -0.0615
C30 C 0.2952(10) 0.3075(10) -0.0059(3)
C31 C 0.2654(10) 0.3196(10) 0.0403(4)
H33 H 0.1714 0.3125 0.0450
C32 C 0.3513(9) 0.3396(9) 0.0808(3)
H34 H 0.3259 0.3503 0.1167
C33 C 0.4688(8) 0.3471(8) 0.0749(3)
C34 C 0.5030(11) 0.3367(10) 0.0288(4)
H35 H 0.5970 0.3435 0.0243
C35 C 0.4137(11) 0.3160(11) -0.0115(4)
H36 H 0.4409 0.3089 -0.0473
O4 O 0.7109(7) 0.4321(7) 0.1121(2)
O5 O 0.5593(7) 0.4496(7) 0.1654(2)
N4 N 0.5495(7) 0.2365(7) 0.1417(2)
C36 C 0.4302(8) 0.1691(8) 0.1667(3)
H37 H 0.3569 0.1926 0.1536
H38 H 0.3913 0.0641 0.1576
C37 C 0.4568(9) 0.2056(9) 0.2216(3)
C38 C 0.5752(10) 0.3080(9) 0.2481(3)
H39 H 0.6598 0.3613 0.2300
C39 C 0.5852(11) 0.3423(11) 0.2974(4)
C40 C 0.7078(14) 0.4613(14) 0.3262(5)
H40 H 0.6751 0.5140 0.3507
H41 H 0.7637 0.5234 0.3013
C41 C 0.4760(11) 0.2680(11) 0.3214(4)
H42 H 0.4827 0.2964 0.3600
C42 C 0.3646(10) 0.1611(10) 0.2969(3)
C43 C 0.3528(9) 0.1302(9) 0.2462(3)
H43 H 0.2625 0.0470 0.2265
C44 C 0.2578(11) 0.0716(11) 0.3250(4)
H44 H 0.1637 0.0261 0.3021
H45 H 0.2559 0.1305 0.3572
C45 C 0.2812(10) -0.0341(10) 0.3396(3)
C46 C 0.2182(10) -0.1562(10) 0.3153(4)
H46 H 0.1444 -0.1788 0.2851
C47 C 0.2416(10) -0.2584(10) 0.3248(4)
C48 C 0.3423(9) -0.2246(9) 0.3621(3)
C49 C 0.3907(10) -0.3207(10) 0.3722(4)
H47 H 0.3101 -0.4205 0.3604
H48 H 0.4218 -0.3054 0.4106
C50 C 0.4073(10) -0.0983(10) 0.3901(4)
H49 H 0.4843 -0.0730 0.4194
C51 C 0.3758(10) -0.0063(10) 0.3800(4)
O6 O 0.4334(7) 0.1182(7) 0.4070(3)
C52 C 0.5200(13) 0.1458(13) 0.4503(4)
H50 H 0.5522 0.2449 0.4682
H51 H 0.6052 0.1346 0.4462
H52 H 0.4570 0.0762 0.4718
C53 C 0.6597(19) 0.6222(19) 0.5687(6)
H53 H 0.6256 0.6912 0.5651
H54 H 0.7458 0.6672 0.5960
H55 H 0.5822 0.5348 0.5792
C54 C 0.7280(15) 0.6057(15) 0.5249(6)
C55 C 0.7119(15) 0.6557(15) 0.4833(5)
H56 H 0.6533 0.7033 0.4831
C56 C 0.7708(13) 0.6450(12) 0.4429(5)
H57 H 0.7619 0.6865 0.4116
C57 C 0.8435(10) 0.5841(10) 0.4431(4)
C58 C 0.8569(13) 0.5347(13) 0.4838(5)
H58 H 0.9137 0.4852 0.4840
C59 C 0.8012(14) 0.5476(14) 0.5240(5)
H59 H 0.8133 0.5073 0.5552
O7 O 0.9435(7) 0.6757(7) 0.3687(3)
O8 O 1.0130(8) 0.5368(8) 0.4064(3)
N5 N 0.7972(7) 0.4370(7) 0.3546(3)
C60 C 0.7613(9) 0.3072(9) 0.3687(3)
H60 H 0.7864 0.3228 0.4075
H61 H 0.6560 0.2418 0.3588
C61 C 0.8316(9) 0.2413(9) 0.3451(3)
C62 C 0.8783(9) 0.2669(9) 0.3007(3)
H62 H 0.8713 0.3405 0.2833
C63 C 0.9355(9) 0.1982(9) 0.2797(3)
C64 C 0.9826(10) 0.2278(9) 0.2313(3)
H63 H 1.0885 0.2933 0.2372
H64 H 0.9352 0.2753 0.2150
C65 C 0.9462(9) 0.1032(9) 0.3024(3)
H65 H 0.9949 0.0533 0.2866
C66 C 0.8917(9) 0.0720(9) 0.3445(3)
C67 C 0.8367(9) 0.1420(9) 0.3662(3)
H66 H 0.7983 0.1211 0.4000
C68 C 0.8782(9) -0.0457(9) 0.3641(3)
H67 H 0.8850 -0.0279 0.4031
H68 H 0.9558 -0.0645 0.3542
C69 C 0.7443(8) -0.1662(8) 0.3426(3)
C70 C 0.6351(9) -0.1973(9) 0.3650(3)
H69 H 0.6481 -0.1412 0.4002
C71 C 0.5050(9) -0.3020(9) 0.3450(3)
C72 C 0.4908(9) -0.3760(9) 0.3002(3)
C73 C 0.3586(9) -0.4848(9) 0.2720(3)
H70 H 0.2895 -0.5256 0.2974
H71 H 0.3731 -0.5609 0.2530
C74 C 0.6038(9) -0.3462(9) 0.2774(3)
H72 H 0.5943 -0.4063 0.2436
C75 C 0.7270(9) -0.2430(9) 0.2979(3)
O9 O 0.8401(6) -0.2079(6) 0.2766(2)
C76 C 0.8326(11) -0.2924(11) 0.2347(4)
H73 H 0.9304 -0.2363 0.2249
H74 H 0.7611 -0.2920 0.2086
H75 H 0.8096 -0.3927 0.2350
C1 C 0.8725(23) 0.0406(23) 0.5451(8)
H2 H 0.8009 0.0173 0.5702
H3 H 0.9640 0.0554 0.5633
C2 C 0.7881(28) 0.0219(28) 0.5047(11)
N1 N 0.7723(25) 0.0919(27) 0.4931(9)
C3 C 0.3722(47) -0.0642(46) 0.2121(17)
H4 H 0.3174(47) -0.1654(46) 0.1936
H5 H 0.4082(47) 0.0005(46) 0.1857
H6 H 0.3082(47) -0.0418(46) 0.2324
C4 C 0.4695(42) -0.0683(38) 0.2410(15)
N2 N 0.5654(28) -0.0407(27) 0.2752(10)
H1? H 0.8349 -0.0399 0.5149
loop_
_geom_bond_atom_site_label_1
_geom_bond_atom_site_label_2
_geom_bond_site_symmetry_1
_geom_bond_site_symmetry_2
S1 C9 1_555 1_555
S2 C33 1_555 1_555
S3 C57 1_555 1_555
C1 H2 1_555 1_555
H3 C1 1_555 1_555
C2 C1 1_555 1_555
C3 H4 1_555 1_555
H5 C3 1_555 1_555
H6 C3 1_555 1_555
C4 C3 1_555 1_555
N1 C2 1_555 1_555
N2 C4 1_555 1_555
C5 H7 1_555 1_555
H8 C5 1_555 1_555
H9 C5 1_555 1_555
C6 C5 1_555 1_555
C7 C6 1_555 1_555
H10 C7 1_555 1_555
C8 C7 1_555 1_555
H11 C8 1_555 1_555
C9 C8 1_555 1_555
C10 C9 1_555 1_555
H12 C10 1_555 1_555
C11 C6 1_555 1_555
H13 C11 1_555 1_555
O1 S1 1_555 1_555
O2 S1 1_555 1_555
N3 S1 1_555 1_555
C12 N3 1_555 1_555
H14 C12 1_555 1_555
H15 C12 1_555 1_555
C13 C12 1_555 1_555
C14 C13 1_555 1_555
H16 C14 1_555 1_555
C15 C14 1_555 1_555
C16 C15 1_555 1_555
H17 C16 1_555 1_555
H18 C16 1_555 1_555
C17 C15 1_555 1_555
H19 C17 1_555 1_555
C18 C17 1_555 1_555
C19 C13 1_555 1_555
H20 C19 1_555 1_555
C20 C18 1_555 1_555
H21 C20 1_555 1_555
H22 C20 1_555 1_555
C21 C20 1_555 1_555
C22 C21 1_555 1_555
H23 C22 1_555 1_555
C23 C22 1_555 1_555
C24 C23 1_555 1_555
C25 C24 1_555 1_555
H24 C25 1_555 1_555
H25 C25 1_555 1_555
C26 C24 1_555 1_555
H26 C26 1_555 1_555
C27 C21 1_555 1_555
O3 C27 1_555 1_555
C28 O3 1_555 1_555
H27 C28 1_555 1_555
H28 C28 1_555 1_555
H29 C28 1_555 1_555
C29 H30 1_555 1_555
H31 C29 1_555 1_555
H32 C29 1_555 1_555
C30 C29 1_555 1_555
C31 C30 1_555 1_555
H33 C31 1_555 1_555
C32 C31 1_555 1_555
H34 C32 1_555 1_555
C33 C32 1_555 1_555
C34 C33 1_555 1_555
H35 C34 1_555 1_555
C35 C30 1_555 1_555
H36 C35 1_555 1_555
O4 S2 1_555 1_555
O5 S2 1_555 1_555
N4 S2 1_555 1_555
C36 N4 1_555 1_555
H37 C36 1_555 1_555
H38 C36 1_555 1_555
C37 C36 1_555 1_555
C38 C37 1_555 1_555
H39 C38 1_555 1_555
C39 C38 1_555 1_555
C40 C39 1_555 1_555
H40 C40 1_555 1_555
H41 C40 1_555 1_555
C41 C39 1_555 1_555
H42 C41 1_555 1_555
C42 C41 1_555 1_555
C43 C37 1_555 1_555
H43 C43 1_555 1_555
C44 C42 1_555 1_555
H44 C44 1_555 1_555
H45 C44 1_555 1_555
C45 C44 1_555 1_555
C46 C45 1_555 1_555
H46 C46 1_555 1_555
C47 C25 1_555 1_555
C48 C47 1_555 1_555
C49 C48 1_555 1_555
H47 C49 1_555 1_555
H48 C49 1_555 1_555
C50 C48 1_555 1_555
H49 C50 1_555 1_555
C51 C45 1_555 1_555
O6 C51 1_555 1_555
C52 O6 1_555 1_555
H50 C52 1_555 1_555
H51 C52 1_555 1_555
H52 C52 1_555 1_555
C53 H53 1_555 1_555
H54 C53 1_555 1_555
H55 C53 1_555 1_555
C54 C53 1_555 1_555
C55 C54 1_555 1_555
H56 C55 1_555 1_555
C56 C55 1_555 1_555
H57 C56 1_555 1_555
C57 C56 1_555 1_555
C58 C57 1_555 1_555
H58 C58 1_555 1_555
C59 C54 1_555 1_555
H59 C59 1_555 1_555
O7 S3 1_555 1_555
O8 S3 1_555 1_555
N5 S3 1_555 1_555
C60 N5 1_555 1_555
H60 C60 1_555 1_555
H61 C60 1_555 1_555
C61 C60 1_555 1_555
C62 C61 1_555 1_555
H62 C62 1_555 1_555
C63 C62 1_555 1_555
C64 N3 1_555 1_555
H63 C64 1_555 1_555
H64 C64 1_555 1_555
C65 C63 1_555 1_555
H65 C65 1_555 1_555
C66 C65 1_555 1_555
C67 C61 1_555 1_555
H66 C67 1_555 1_555
C68 C66 1_555 1_555
H67 C68 1_555 1_555
H68 C68 1_555 1_555
C69 C68 1_555 1_555
C70 C69 1_555 1_555
H69 C70 1_555 1_555
C71 C49 1_555 1_555
C72 C71 1_555 1_555
C73 C23 1_555 1_555
H70 C73 1_555 1_555
H71 C73 1_555 1_555
C74 C72 1_555 1_555
H72 C74 1_555 1_555
C75 C69 1_555 1_555
O9 C75 1_555 1_555
C76 O9 1_555 1_555
H73 C76 1_555 1_555
H74 C76 1_555 1_555
H75 C76 1_555 1_555
C10 C11 1_555 1_555
C16 N4 1_555 1_555
C18 C19 1_555 1_555
C26 C27 1_555 1_555
C34 C35 1_555 1_555
C40 N5 1_555 1_555
C42 C43 1_555 1_555
C46 C47 1_555 1_555
C50 C51 1_555 1_555
C58 C59 1_555 1_555
C63 C64 1_555 1_555
C66 C67 1_555 1_555
C70 C71 1_555 1_555
C72 C73 1_555 1_555
C74 C75 1_555 1_555

#END
