
#######################################################################
#
#                 Cambridge Crystallographic Data Centre
#                                CCDC 
#
#######################################################################
#
# If this CIF has been generated from an entry in the Cambridge 
# Structural Database, then it will include bibliographic, chemical, 
# crystal, experimental, refinement or atomic coordinate data resulting 
# from the CCDC's data processing and validation procedures.
#
#######################################################################

data_JORVOB
_chemical_formula_moiety         'C51 H51 N3 O3,C1 H2 Cl2'
_chemical_name_systematic        
'1,13,14,21,22,34-Hexahydro-30,36,48-trimethoxy-6H,12H,20H,28H-2,5-etheno-9,25-(methanimino)methano-3,32:17,37-dimethano-7,11:15,19:23,27:29,33-tetrametheno-13,21-benzodiazacyclohexatriacontine dichloromethane solvate'
_symmetry_cell_setting           rhombohedral
_symmetry_space_group_name_H-M   'R -3'
_symmetry_Int_Tables_number      148
_space_group_name_Hall           '-R 3'
loop_
_symmetry_equiv_pos_site_id
_symmetry_equiv_pos_as_xyz
1 x,y,z
2 1/3+x,2/3+y,2/3+z
3 2/3+x,1/3+y,1/3+z
4 -y,x-y,z
5 -x+y,-x,z
6 1/3-y,2/3+x-y,2/3+z
7 1/3-x+y,2/3-x,2/3+z
8 2/3-y,1/3+x-y,1/3+z
9 2/3-x+y,1/3-x,1/3+z
10 -x,-y,-z
11 2/3-x,1/3-y,1/3-z
12 1/3-x,2/3-y,2/3-z
13 y,-x+y,-z
14 x-y,x,-z
15 2/3+y,1/3-x+y,1/3-z
16 2/3+x-y,1/3+x,1/3-z
17 1/3+y,2/3-x+y,2/3-z
18 1/3+x-y,2/3+x,2/3-z
_cell_length_a                   14.301(3)
_cell_length_b                   14.301(3)
_cell_length_c                   44.65(1)
_cell_angle_alpha                90
_cell_angle_beta                 90
_cell_angle_gamma                120
_cell_volume                     7908.33
_exptl_crystal_colour            colorless
_cell_formula_units_Z            6
loop_
_atom_site_label
_atom_site_type_symbol
_atom_site_fract_x
_atom_site_fract_y
_atom_site_fract_z
C1 C 0.5561(19) 0.0888(19) 0.5345(5)
O1 O 0.8889(14) 0.1665(14) 0.6044(3)
C2 C 0.7328(19) 0.1327(19) 0.5210(5)
C3 C 0.5668(19) 0.0414(19) 0.5609(5)
H1 H 0.4998 0.0046 0.5763
C4 C 0.7114(19) 0.0953(19) 0.6202(5)
C5 C 0.8166(20) 0.1808(20) 0.6218(5)
N1 N 0.4483(15) 0.1365(15) 0.5014(4)
C6 C 0.7451(19) 0.0860(19) 0.5472(5)
H2 H 0.8193 0.0856 0.5513
C7 C 0.6413(18) 0.1383(18) 0.5152(5)
H3 H 0.6368 0.1794 0.4954
C8 C 0.4520(18) 0.0952(18) 0.5309(5)
C9 C 0.7686(18) 0.2768(18) 0.6561(4)
C10 C 0.6607(19) 0.0409(18) 0.5676(5)
C11 C 0.6382(21) 0.1051(20) 0.6384(5)
H4 H 0.5558 0.0392 0.6382
C12 C 0.8321(21) 0.1984(22) 0.4997(6)
C13 C 0.8436(20) 0.2669(20) 0.6391(5)
H5 H 0.9271 0.3304 0.6399
C14 C 0.8041(21) 0.3778(19) 0.6745(5)
H6 H 0.7476 0.3588 0.6927
H7 H 0.8835 0.4034 0.6835
C15 C 0.6622(20) 0.1939(21) 0.6566(5)
C16 C 0.9964(22) 0.2556(22) 0.6008(6)
H8 H 1.0259 0.2169 0.5859
H9 H 1.0452 0.2808 0.6209
H10 H 1.0011 0.3253 0.5900
C17 C 0.6772(20) 0.0020(19) 0.5983(5)
H11 H 0.7403 -0.0183 0.5966
H12 H 0.6035 -0.0679 0.6057
H13 H 0.8741 0.1900 0.5034
H14 H 0.4315 0.0934 0.4897
H15 H 0.4097 0.0302 0.5339
C12D C 0.3663(30) 0.1679(21) 0.4997(6)
N1C N 0.8635(15) 0.3118(21) 0.5014(4)
C15C C 0.8061(21) 0.4683(29) 0.6566(5)
C14D C 0.5737(28) 0.1959(21) 0.6745(5)
C2D C 0.3999(27) 0.2672(19) 0.5210(5)
H13D H 0.3159 0.1259 0.5034
C8C C 0.9048(18) 0.3568(25) 0.5309(5)
H14C H 0.9066 0.3381 0.4897
C9C C 0.7232(18) 0.4918(25) 0.6561(4)
C11C C 0.8949(20) 0.5331(29) 0.6384(5)
C9D C 0.5082(25) 0.2314(18) 0.6561(4)
H6D H 0.6112 0.2524 0.6927
H7D H 0.5199 0.1165 0.6835
C6D C 0.3409(27) 0.2549(19) 0.5472(5)
C7D C 0.4970(25) 0.3587(18) 0.5152(5)
C1C C 0.9112(19) 0.4673(27) 0.5345(5)
H15C H 0.9698 0.3795 0.5339
C13C C 0.7331(20) 0.5767(28) 0.6391(5)
C14C C 0.6222(19) 0.4263(28) 0.6745(5)
C4C C 0.9047(19) 0.6161(27) 0.6202(5)
H4C H 0.9608 0.5166 0.6382
C13D C 0.4233(28) 0.1564(20) 0.6391(5)
C15D C 0.5317(29) 0.3378(20) 0.6566(5)
H2D H 0.2663 0.1807 0.5513
C10D C 0.3802(26) 0.3393(19) 0.5676(5)
C1D C 0.5327(27) 0.4439(19) 0.5345(5)
H3D H 0.5426 0.3632 0.4954
C3C C 0.9586(19) 0.5254(27) 0.5609(5)
C7C C 0.8617(18) 0.5030(25) 0.5152(5)
C5C C 0.8192(20) 0.6358(28) 0.6218(5)
H5C H 0.6696 0.5967 0.6399
H6C H 0.6412 0.3888 0.6927
H7C H 0.5966 0.4801 0.6835
C17C C 0.9980(19) 0.6752(28) 0.5983(5)
C5D C 0.3642(28) 0.1834(20) 0.6218(5)
H5D H 0.4033 0.0729 0.6399
C11D C 0.4669(29) 0.3618(21) 0.6384(5)
C3D C 0.4746(27) 0.4332(19) 0.5609(5)
C17D C 0.3248(28) 0.3228(20) 0.5983(5)
C8D C 0.6432(25) 0.5480(18) 0.5309(5)
H1C H 0.9954 0.4952 0.5763
C10C C 0.9591(18) 0.6198(26) 0.5676(5)
C2C C 0.8673(19) 0.6001(27) 0.5210(5)
H3C H 0.8206 0.4574 0.4954
O1C O 0.8335(14) 0.7224(20) 0.6044(3)
H11C H 1.0183 0.7586 0.5966
H12C H 1.0679 0.6714 0.6057
O1D O 0.2776(20) 0.1111(14) 0.6044(3)
C4D C 0.3839(27) 0.2886(19) 0.6202(5)
H4D H 0.4834 0.4442 0.6382
H1D H 0.5048 0.5002 0.5763
H11D H 0.2414 0.2597 0.5966
H12D H 0.3286 0.3965 0.6057
N1D N 0.6882(21) 0.5517(15) 0.5014(4)
H15D H 0.6205 0.5903 0.5339
C6C C 0.9140(19) 0.6591(27) 0.5472(5)
C12C C 0.8016(22) 0.6337(30) 0.4997(6)
C16C C 0.7444(22) 0.7408(31) 0.6008(6)
C16D C 0.2592(31) 0.0036(22) 0.6008(6)
H14D H 0.6619 0.5685 0.4897
H2C H 0.9144 0.7337 0.5513
H13C H 0.8100 0.6841 0.5034
H8C H 0.7831 0.8090 0.5859
H9C H 0.7192 0.7644 0.6209
H10C H 0.6747 0.6758 0.5900
H8D H 0.1910 -0.0259 0.5859
H9D H 0.2356 -0.0452 0.6209
H10D H 0.3242 -0.0011 0.5900
loop_
_geom_bond_atom_site_label_1
_geom_bond_atom_site_label_2
_geom_bond_site_symmetry_1
_geom_bond_site_symmetry_2
C1 C3 1_555 1_555
O1 C5 1_555 1_555
C2 C6 1_555 1_555
C3 H1 1_555 1_555
C4 C5 1_555 1_555
C5 C13 1_555 1_555
N1 C8 1_555 1_555
C6 H2 1_555 1_555
C7 C1 1_555 1_555
H3 C7 1_555 1_555
C8 C1 1_555 1_555
C9 C13 1_555 1_555
C10 C3 1_555 1_555
C11 C4 1_555 1_555
H4 C11 1_555 1_555
C12 C2 1_555 1_555
C13 H5 1_555 1_555
C14 C9 1_555 1_555
H6 C14 1_555 1_555
H7 C14 1_555 1_555
C15 C9 1_555 1_555
C16 O1 1_555 1_555
H8 C16 1_555 1_555
H9 C16 1_555 1_555
H10 C16 1_555 1_555
C17 C4 1_555 1_555
H11 C17 1_555 1_555
H12 C17 1_555 1_555
H13 C12 1_555 1_555
H14 N1 1_555 1_555
H15 C8 1_555 1_555
C12D N1 1_555 1_555
N1C C12 1_555 1_555
C15C C14 1_555 1_555
C14D C15 1_555 1_555
C2D C12D 1_555 1_555
H13D C12D 1_555 1_555
C8C N1C 1_555 1_555
H14C N1C 1_555 1_555
C9C C15C 1_555 1_555
C11C C15C 1_555 1_555
C9D C14D 1_555 1_555
H6D C14D 1_555 1_555
H7D C14D 1_555 1_555
C6D C2D 1_555 1_555
C7D C2D 1_555 1_555
C1C C8C 1_555 1_555
H15C C8C 1_555 1_555
C13C C9C 1_555 1_555
C14C C9C 1_555 1_555
C4C C11C 1_555 1_555
H4C C11C 1_555 1_555
C13D C9D 1_555 1_555
C15D C9D 1_555 1_555
H2D C6D 1_555 1_555
C10D C6D 1_555 1_555
C1D C7D 1_555 1_555
H3D C7D 1_555 1_555
C3C C1C 1_555 1_555
C7C C1C 1_555 1_555
C5C C13C 1_555 1_555
H5C C13C 1_555 1_555
H6C C14C 1_555 1_555
H7C C14C 1_555 1_555
C17C C4C 1_555 1_555
C5D C13D 1_555 1_555
H5D C13D 1_555 1_555
C11D C15D 1_555 1_555
C3D C10D 1_555 1_555
C17D C10D 1_555 1_555
C8D C1D 1_555 1_555
H1C C3C 1_555 1_555
C10C C3C 1_555 1_555
C2C C7C 1_555 1_555
H3C C7C 1_555 1_555
O1C C5C 1_555 1_555
H11C C17C 1_555 1_555
H12C C17C 1_555 1_555
O1D C5D 1_555 1_555
C4D C5D 1_555 1_555
H4D C11D 1_555 1_555
H1D C3D 1_555 1_555
H11D C17D 1_555 1_555
H12D C17D 1_555 1_555
N1D C8D 1_555 1_555
H15D C8D 1_555 1_555
C6C C10C 1_555 1_555
C12C C2C 1_555 1_555
C16C O1C 1_555 1_555
C16D O1D 1_555 1_555
H14D N1D 1_555 1_555
H2C C6C 1_555 1_555
H13C C12C 1_555 1_555
H8C C16C 1_555 1_555
H9C C16C 1_555 1_555
H10C C16C 1_555 1_555
H8D C16D 1_555 1_555
H9D C16D 1_555 1_555
H10D C16D 1_555 1_555
C2 C7 1_555 1_555
C6 C10 1_555 1_555
C10 C17 1_555 1_555
C11 C15 1_555 1_555
C14C C15D 1_555 1_555
C4C C5C 1_555 1_555
C1D C3D 1_555 1_555
C17C C10C 1_555 1_555
C11D C4D 1_555 1_555
C17D C4D 1_555 1_555
C2C C6C 1_555 1_555
N1D C12C 1_555 1_555

#END
