
#######################################################################
#
#                 Cambridge Crystallographic Data Centre
#                                CCDC 
#
#######################################################################
#
# If this CIF has been generated from an entry in the Cambridge 
# Structural Database, then it will include bibliographic, chemical, 
# crystal, experimental, refinement or atomic coordinate data resulting 
# from the CCDC's data processing and validation procedures.
#
#######################################################################

data_JOSHIK
_chemical_formula_moiety         'C20 H13 N3 O1'
_chemical_name_systematic        
2-(11-oxo-5,11-dihydro-10H-dibenzo[b,e][1,4]diazepin-10-yl)benzonitrile
_symmetry_cell_setting           monoclinic
_symmetry_space_group_name_H-M   'P 21/n'
_symmetry_Int_Tables_number      14
_space_group_name_Hall           '-P 2yn'
loop_
_symmetry_equiv_pos_site_id
_symmetry_equiv_pos_as_xyz
1 x,y,z
2 1/2-x,1/2+y,1/2-z
3 -x,-y,-z
4 1/2+x,1/2-y,1/2+z
_cell_length_a                   11.0522(13)
_cell_length_b                   12.9284(15)
_cell_length_c                   11.5645(14)
_cell_angle_alpha                90
_cell_angle_beta                 101.809(2)
_cell_angle_gamma                90
_cell_volume                     1617.45
_exptl_crystal_colour            'pale brown'
_exptl_crystal_description       prism
_cell_formula_units_Z            4
loop_
_atom_site_label
_atom_site_type_symbol
_atom_site_fract_x
_atom_site_fract_y
_atom_site_fract_z
C1 C 0.17218(19) 0.01067(15) 0.23366(19)
C2 C 0.28087(19) 0.04858(15) 0.18821(18)
C3 C 0.3719(2) -0.02324(18) 0.1782(2)
H1 H 0.3582 -0.0930 0.1904
C4 C 0.4818(2) 0.0069(2) 0.1504(2)
H2 H 0.5405 -0.0422 0.1409
C5 C 0.5039(2) 0.1106(2) 0.1370(3)
H3 H 0.5792 0.1317 0.1210
C6 C 0.4162(2) 0.18299(19) 0.1471(2)
H4 H 0.4326 0.2527 0.1378
C7 C 0.30290(19) 0.15328(16) 0.17102(18)
C8 C 0.0963(2) 0.22247(15) 0.11186(18)
C9 C 0.0507(2) 0.30586(17) 0.0398(2)
H5 H 0.1005 0.3635 0.0378
C10 C -0.0660(3) 0.3044(2) -0.0282(2)
H6 H -0.0955 0.3611 -0.0750
C11 C -0.1397(3) 0.2189(2) -0.0272(2)
H7 H -0.2190 0.2176 -0.0736
C12 C -0.0961(2) 0.13481(18) 0.0427(2)
H8 H -0.1458 0.0767 0.0420
C13 C 0.02130(19) 0.13650(16) 0.11388(18)
C14 C -0.03984(19) 0.00716(17) 0.2459(2)
C15 C -0.0910(2) -0.0864(2) 0.2054(3)
H9 H -0.0629 -0.1213 0.1457
C16 C -0.1841(3) -0.1279(3) 0.2538(4)
H10 H -0.2196 -0.1908 0.2264
C17 C -0.2246(3) -0.0765(4) 0.3425(4)
H11 H -0.2877 -0.1049 0.3746
C18 C -0.1734(3) 0.0160(3) 0.3846(3)
H12 H -0.2005 0.0497 0.4457
C19 C -0.0808(2) 0.0591(2) 0.3354(2)
C20 C -0.0252(3) 0.1565(3) 0.3755(3)
N1 N 0.05752(15) 0.05287(13) 0.19617(15)
N2 N 0.21551(16) 0.22897(13) 0.18351(16)
H13 H 0.2479 0.3000 0.1834
N3 N 0.0194(3) 0.2343(3) 0.4048(3)
O1 O 0.18520(14) -0.06024(11) 0.30584(15)
loop_
_geom_bond_atom_site_label_1
_geom_bond_atom_site_label_2
_geom_bond_site_symmetry_1
_geom_bond_site_symmetry_2
C1 C2 1_555 1_555
C2 C3 1_555 1_555
C3 H1 1_555 1_555
C4 C3 1_555 1_555
H2 C4 1_555 1_555
C5 C4 1_555 1_555
H3 C5 1_555 1_555
C6 C5 1_555 1_555
H4 C6 1_555 1_555
C7 C2 1_555 1_555
C8 C9 1_555 1_555
C9 H5 1_555 1_555
C10 C9 1_555 1_555
H6 C10 1_555 1_555
C11 C10 1_555 1_555
H7 C11 1_555 1_555
C12 C11 1_555 1_555
H8 C12 1_555 1_555
C13 C8 1_555 1_555
C14 C15 1_555 1_555
C15 H9 1_555 1_555
C16 C15 1_555 1_555
H10 C16 1_555 1_555
C17 C16 1_555 1_555
H11 C17 1_555 1_555
C18 C17 1_555 1_555
H12 C18 1_555 1_555
C19 C14 1_555 1_555
C20 C19 1_555 1_555
N1 C1 1_555 1_555
N2 C7 1_555 1_555
H13 N2 1_555 1_555
N3 C20 1_555 1_555
O1 C1 1_555 1_555
C6 C7 1_555 1_555
C8 N2 1_555 1_555
C12 C13 1_555 1_555
C13 N1 1_555 1_555
C14 N1 1_555 1_555
C18 C19 1_555 1_555

#END
