
#######################################################################
#
#                 Cambridge Crystallographic Data Centre
#                                CCDC 
#
#######################################################################
#
# If this CIF has been generated from an entry in the Cambridge 
# Structural Database, then it will include bibliographic, chemical, 
# crystal, experimental, refinement or atomic coordinate data resulting 
# from the CCDC's data processing and validation procedures.
#
#######################################################################

data_JOSHUW
_chemical_formula_moiety         'C18 H14 N2 O2'
_chemical_name_systematic        
11-phenyl-3,4-dihydro-2H-pyrimido[1,2-b]isoquinoline-2,6(1H)-dione
_symmetry_cell_setting           triclinic
_symmetry_space_group_name_H-M   'P -1'
_symmetry_Int_Tables_number      2
_space_group_name_Hall           '-P 1'
loop_
_symmetry_equiv_pos_site_id
_symmetry_equiv_pos_as_xyz
1 x,y,z
2 -x,-y,-z
_cell_length_a                   7.8697(15)
_cell_length_b                   11.880(2)
_cell_length_c                   16.325(3)
_cell_angle_alpha                68.731(4)
_cell_angle_beta                 77.655(3)
_cell_angle_gamma                77.807(3)
_cell_volume                     1374.36
_exptl_crystal_colour            colorless
_exptl_crystal_description       prism
_cell_formula_units_Z            4
loop_
_atom_site_label
_atom_site_type_symbol
_atom_site_fract_x
_atom_site_fract_y
_atom_site_fract_z
C1 C 0.8158(9) 0.1048(6) 0.3966(3)
C2 C 0.8515(9) 0.3218(5) 0.3453(3)
H1 H 0.8462 0.3162 0.2881
H2 H 0.9718 0.3281 0.3465
C3 C 0.7329(9) 0.4340(6) 0.3560(4)
H3 H 0.7770 0.5060 0.3120
H4 H 0.6161 0.4337 0.3457
C4 C 0.7221(9) 0.4400(6) 0.4469(4)
C5 C 0.7478(8) 0.2147(5) 0.5021(3)
C6 C 0.7061(8) 0.1161(5) 0.5733(3)
C7 C 0.6540(8) 0.1238(5) 0.6643(3)
C8 C 0.5119(8) 0.2071(5) 0.6831(3)
H5 H 0.4468 0.2577 0.6385
C9 C 0.4664(9) 0.2155(6) 0.7675(4)
H6 H 0.3739 0.2738 0.7787
C10 C 0.5572(9) 0.1380(6) 0.8354(4)
H7 H 0.5221 0.1409 0.8928
C11 C 0.7009(8) 0.0558(6) 0.8173(3)
H8 H 0.7645 0.0047 0.8623
C12 C 0.7498(8) 0.0499(5) 0.7317(3)
H9 H 0.8478 -0.0042 0.7196
C13 C 0.7127(8) 0.0033(5) 0.5575(3)
C14 C 0.6606(9) -0.1021(6) 0.6224(4)
H10 H 0.6229 -0.1016 0.6803
C15 C 0.6623(9) -0.2067(6) 0.6050(4)
H11 H 0.6235 -0.2746 0.6504
C16 C 0.7219(11) -0.2115(6) 0.5196(5)
H12 H 0.7275 -0.2834 0.5080
C17 C 0.7721(10) -0.1103(6) 0.4530(4)
H13 H 0.8100 -0.1127 0.3956
C18 C 0.7670(8) -0.0022(5) 0.4706(4)
N1 N 0.8000(7) 0.2114(4) 0.4162(3)
N2 N 0.7442(7) 0.3285(4) 0.5111(3)
H14 H 0.7573 0.3276 0.5623
O1 O 0.8697(6) 0.1071(4) 0.3194(2)
O2 O 0.6986(7) 0.5330(4) 0.4659(2)
C19 C 0.6841(8) 0.3930(6) 1.1039(4)
C20 C 0.6485(9) 0.1768(6) 1.1546(3)
H15 H 0.5286 0.1704 1.1528
H16 H 0.6528 0.1823 1.2119
C21 C 0.7693(10) 0.0648(6) 1.1433(3)
H17 H 0.8862 0.0662 1.1529
H18 H 0.7269 -0.0078 1.1873
C22 C 0.7780(9) 0.0602(6) 1.0521(4)
C23 C 0.7521(8) 0.2855(5) 0.9967(3)
C24 C 0.7934(8) 0.3848(5) 0.9275(3)
C25 C 0.8446(8) 0.3757(5) 0.8356(3)
C26 C 0.9882(8) 0.2945(5) 0.8158(4)
H19 H 1.0555 0.2450 0.8597
C27 C 1.0319(9) 0.2866(6) 0.7313(4)
H20 H 1.1253 0.2293 0.7194
C28 C 0.9394(9) 0.3620(6) 0.6651(4)
H21 H 0.9715 0.3579 0.6079
C29 C 0.7986(10) 0.4441(6) 0.6835(4)
H22 H 0.7353 0.4959 0.6385
C30 C 0.7507(9) 0.4501(5) 0.7678(3)
H23 H 0.6536 0.5051 0.7796
C31 C 0.7872(8) 0.4972(5) 0.9435(3)
C32 C 0.8401(9) 0.6026(6) 0.8758(4)
H24 H 0.8775 0.6016 0.8180
C33 C 0.8369(9) 0.7073(6) 0.8947(4)
H25 H 0.8728 0.7762 0.8496
C34 C 0.7803(10) 0.7107(6) 0.9808(5)
H26 H 0.7780 0.7815 0.9933
C35 C 0.7282(9) 0.6085(6) 1.0468(4)
H27 H 0.6889 0.6114 1.1040
C36 C 0.7323(9) 0.5005(6) 1.0309(4)
N3 N 0.7017(7) 0.2882(4) 1.0830(3)
N4 N 0.7549(7) 0.1727(4) 0.9887(3)
H28 H 0.7404 0.1738 0.9377
O3 O 0.6319(6) 0.3930(4) 1.1807(2)
O4 O 0.8029(7) -0.0330(4) 1.0344(3)
loop_
_geom_bond_atom_site_label_1
_geom_bond_atom_site_label_2
_geom_bond_site_symmetry_1
_geom_bond_site_symmetry_2
C1 C18 1_555 1_555
C2 H1 1_555 1_555
H2 C2 1_555 1_555
C3 C2 1_555 1_555
H3 C3 1_555 1_555
H4 C3 1_555 1_555
C4 C3 1_555 1_555
C5 C6 1_555 1_555
C6 C7 1_555 1_555
C7 C8 1_555 1_555
C8 H5 1_555 1_555
C9 C8 1_555 1_555
H6 C9 1_555 1_555
C10 C9 1_555 1_555
H7 C10 1_555 1_555
C11 C10 1_555 1_555
H8 C11 1_555 1_555
C12 C7 1_555 1_555
H9 C12 1_555 1_555
C13 C6 1_555 1_555
C14 C13 1_555 1_555
H10 C14 1_555 1_555
C15 C14 1_555 1_555
H11 C15 1_555 1_555
C16 C15 1_555 1_555
H12 C16 1_555 1_555
C17 C16 1_555 1_555
H13 C17 1_555 1_555
C18 C13 1_555 1_555
N1 C1 1_555 1_555
N2 C4 1_555 1_555
H14 N2 1_555 1_555
O1 C1 1_555 1_555
O2 C4 1_555 1_555
C19 C36 1_555 1_555
C20 H15 1_555 1_555
H16 C20 1_555 1_555
C21 C20 1_555 1_555
H17 C21 1_555 1_555
H18 C21 1_555 1_555
C22 C21 1_555 1_555
C23 C24 1_555 1_555
C24 C25 1_555 1_555
C25 C26 1_555 1_555
C26 H19 1_555 1_555
C27 C26 1_555 1_555
H20 C27 1_555 1_555
C28 C27 1_555 1_555
H21 C28 1_555 1_555
C29 C28 1_555 1_555
H22 C29 1_555 1_555
C30 C25 1_555 1_555
H23 C30 1_555 1_555
C31 C24 1_555 1_555
C32 C31 1_555 1_555
H24 C32 1_555 1_555
C33 C32 1_555 1_555
H25 C33 1_555 1_555
C34 C33 1_555 1_555
H26 C34 1_555 1_555
C35 C34 1_555 1_555
H27 C35 1_555 1_555
C36 C31 1_555 1_555
N3 C19 1_555 1_555
N4 C22 1_555 1_555
H28 N4 1_555 1_555
O3 C19 1_555 1_555
O4 C22 1_555 1_555
C2 N1 1_555 1_555
C5 N1 1_555 1_555
C5 N2 1_555 1_555
C11 C12 1_555 1_555
C17 C18 1_555 1_555
C20 N3 1_555 1_555
C23 N3 1_555 1_555
C23 N4 1_555 1_555
C29 C30 1_555 1_555
C35 C36 1_555 1_555

#END
