
#######################################################################
#
#                 Cambridge Crystallographic Data Centre
#                                CCDC 
#
#######################################################################
#
# If this CIF has been generated from an entry in the Cambridge 
# Structural Database, then it will include bibliographic, chemical, 
# crystal, experimental, refinement or atomic coordinate data resulting 
# from the CCDC's data processing and validation procedures.
#
#######################################################################

data_JOSHEE
_chemical_formula_moiety         'C31 H36 N4 O1'
_chemical_name_systematic        
(3,7-Diethyl-2,8,12,13,16,19,20-heptamethyl-23H,25H-17,23,24,25-tetra-aza-21-oxa-pentacyclo(17.3.1.1.1.0^18,22^)pentacosan-1,3,5,7,9(24),10,12,14,16,18(22),19-undecaene)
_symmetry_cell_setting           monoclinic
_symmetry_space_group_name_H-M   'P 21/n'
_symmetry_Int_Tables_number      14
_space_group_name_Hall           '-P 2yn'
loop_
_symmetry_equiv_pos_site_id
_symmetry_equiv_pos_as_xyz
1 x,y,z
2 1/2-x,1/2+y,1/2-z
3 -x,-y,-z
4 1/2+x,1/2-y,1/2+z
_cell_length_a                   13.859(9)
_cell_length_b                   14.479(6)
_cell_length_c                   14.506(9)
_cell_angle_alpha                90
_cell_angle_beta                 116.940(5)
_cell_angle_gamma                90
_cell_volume                     2594.96
_exptl_crystal_colour            black
_cell_formula_units_Z            4
loop_
_atom_site_label
_atom_site_type_symbol
_atom_site_fract_x
_atom_site_fract_y
_atom_site_fract_z
O1 O 0.680(1) 0.1205(8) 0.840(1)
N1 N 0.443(1) 0.064(1) 0.599(1)
N2 N 0.224(1) 0.000(1) 0.493(1)
N3 N 0.256(1) -0.119(1) 0.662(1)
N4 N 0.477(1) -0.055(1) 0.794(1)
C1 C 0.548(2) 0.089(1) 0.667(1)
C2 C 0.601(2) 0.139(1) 0.617(1)
C3 C 0.517(2) 0.140(1) 0.513(1)
C4 C 0.423(2) 0.099(1) 0.502(1)
C5 C 0.320(2) 0.093(1) 0.417(1)
C6 C 0.236(2) 0.052(1) 0.415(1)
C7 C 0.126(2) 0.049(1) 0.325(1)
C8 C 0.058(2) -0.002(1) 0.347(1)
C9 C 0.120(2) -0.030(1) 0.454(1)
C10 C 0.077(2) -0.092(1) 0.505(1)
C11 C 0.146(2) -0.135(1) 0.600(1)
C12 C 0.113(2) -0.210(1) 0.645(1)
C13 C 0.208(2) -0.241(1) 0.724(1)
C14 C 0.297(2) -0.187(1) 0.738(1)
C15 C 0.399(2) -0.198(1) 0.807(1)
C16 C 0.492(2) -0.142(1) 0.830(1)
C17 C 0.568(2) 0.004(1) 0.834(1)
C18 C 0.644(1) 0.024(1) 0.942(1)
C19 C 0.705(2) 0.092(1) 0.940(1)
C20 C 0.590(2) 0.068(1) 0.776(1)
C21 C 0.713(2) 0.171(1) 0.657(1)
C22 C 0.534(2) 0.179(1) 0.421(1)
C23 C 0.506(2) 0.286(2) 0.410(2)
C24 C 0.130(2) 0.035(2) 0.154(2)
C25 C 0.098(2) 0.096(1) 0.220(1)
C26 C -0.061(2) -0.026(1) 0.279(1)
C27 C 0.002(2) -0.247(1) 0.604(2)
C28 C 0.210(2) -0.325(1) 0.792(1)
C29 C 0.606(2) -0.187(1) 0.892(1)
C30 C 0.642(2) -0.017(1) 1.038(1)
C31 C 0.801(2) 0.147(1) 1.022(1)
H1 H 0.37(1) 0.058(9) 0.59(1)
H2 H 0.33(1) -0.07(1) 0.66(1)
loop_
_geom_bond_atom_site_label_1
_geom_bond_atom_site_label_2
_geom_bond_site_symmetry_1
_geom_bond_site_symmetry_2
O1 C19 1_555 1_555
N1 C1 1_555 1_555
N2 C6 1_555 1_555
N3 C11 1_555 1_555
N4 C16 1_555 1_555
C1 C2 1_555 1_555
C2 C3 1_555 1_555
C3 C4 1_555 1_555
C4 N1 1_555 1_555
C5 C4 1_555 1_555
C6 C5 1_555 1_555
C7 C6 1_555 1_555
C8 C7 1_555 1_555
C9 N2 1_555 1_555
C10 C9 1_555 1_555
C11 C10 1_555 1_555
C12 C11 1_555 1_555
C13 C12 1_555 1_555
C14 N3 1_555 1_555
C15 C14 1_555 1_555
C16 C15 1_555 1_555
C17 N4 1_555 1_555
C18 C17 1_555 1_555
C19 C18 1_555 1_555
C20 O1 1_555 1_555
C21 C2 1_555 1_555
C22 C3 1_555 1_555
C23 C22 1_555 1_555
C24 C25 1_555 1_555
C25 C7 1_555 1_555
C26 C8 1_555 1_555
C27 C12 1_555 1_555
C28 C13 1_555 1_555
C29 C16 1_555 1_555
C30 C18 1_555 1_555
C31 C19 1_555 1_555
H1 N1 1_555 1_555
H2 N3 1_555 1_555
C1 C20 1_555 1_555
C8 C9 1_555 1_555
C13 C14 1_555 1_555
C17 C20 1_555 1_555

#END
