
#######################################################################
#
#                 Cambridge Crystallographic Data Centre
#                                CCDC 
#
#######################################################################
#
# If this CIF has been generated from an entry in the Cambridge 
# Structural Database, then it will include bibliographic, chemical, 
# crystal, experimental, refinement or atomic coordinate data resulting 
# from the CCDC's data processing and validation procedures.
#
#######################################################################

data_JOSJEI
_chemical_formula_moiety         'C11 H10 N2 O3'
_chemical_name_systematic        
'methyl (1-imino-3-oxo-1,3-dihydro-2H-isoindol-2-yl)acetate'
_symmetry_cell_setting           monoclinic
_symmetry_space_group_name_H-M   'P n'
_symmetry_Int_Tables_number      7
_space_group_name_Hall           'P -2yac'
loop_
_symmetry_equiv_pos_site_id
_symmetry_equiv_pos_as_xyz
1 x,y,z
2 1/2+x,-y,1/2+z
_cell_length_a                   10.3421(17)
_cell_length_b                   4.7464(8)
_cell_length_c                   11.1845(19)
_cell_angle_alpha                90
_cell_angle_beta                 109.792(3)
_cell_angle_gamma                90
_cell_volume                     516.59
_exptl_crystal_colour            colorless
_exptl_crystal_description       prism
_cell_formula_units_Z            2
loop_
_atom_site_label
_atom_site_type_symbol
_atom_site_fract_x
_atom_site_fract_y
_atom_site_fract_z
C1 C 0.3322(2) 0.2534(4) 0.17459(17)
C2 C 0.2683(2) 0.1266(4) 0.26314(18)
C3 C 0.3180(2) -0.0688(4) 0.35842(19)
H1 H 0.4082 -0.1429 0.3789
C4 C 0.2326(2) -0.1537(4) 0.42330(19)
H2 H 0.2644 -0.2904 0.4888
C5 C 0.1010(2) -0.0439(5) 0.3951(2)
H3 H 0.0446 -0.1050 0.4417
C6 C 0.0515(2) 0.1543(5) 0.2993(2)
H4 H -0.0382 0.2308 0.2792
C7 C 0.1372(2) 0.2363(4) 0.23456(17)
C8 C 0.1131(2) 0.4379(4) 0.12745(18)
C9 C 0.2488(2) 0.5826(4) -0.00833(18)
H5 H 0.3450 0.6470 0.0124
H6 H 0.1886 0.7506 -0.0291
C10 C 0.2120(2) 0.3899(4) -0.12182(18)
C11 C 0.2325(3) 0.3059(5) -0.3218(2)
H7 H 0.2780 0.3848 -0.3782
H8 H 0.1327 0.3088 -0.3650
H9 H 0.2631 0.1113 -0.3001
N1 N 0.23384(17) 0.4424(3) 0.09998(14)
N2 N 0.44559(18) 0.2152(4) 0.15769(16)
H10 H 0.4923 0.0846 0.2135
O1 O 0.01111(15) 0.5746(3) 0.07212(15)
O2 O 0.13978(15) 0.1857(3) -0.13422(13)
O3 O 0.26746(15) 0.4736(3) -0.20627(13)
loop_
_geom_bond_atom_site_label_1
_geom_bond_atom_site_label_2
_geom_bond_site_symmetry_1
_geom_bond_site_symmetry_2
C1 C2 1_555 1_555
C2 C3 1_555 1_555
C3 H1 1_555 1_555
C4 C3 1_555 1_555
H2 C4 1_555 1_555
C5 C4 1_555 1_555
H3 C5 1_555 1_555
C6 C5 1_555 1_555
H4 C6 1_555 1_555
C7 C2 1_555 1_555
C8 C7 1_555 1_555
C9 H5 1_555 1_555
H6 C9 1_555 1_555
C10 C9 1_555 1_555
C11 H7 1_555 1_555
H8 C11 1_555 1_555
H9 C11 1_555 1_555
N1 C1 1_555 1_555
N2 C1 1_555 1_555
H10 N2 1_555 1_555
O1 C8 1_555 1_555
O2 C10 1_555 1_555
O3 C10 1_555 1_555
C6 C7 1_555 1_555
C8 N1 1_555 1_555
C9 N1 1_555 1_555
C11 O3 1_555 1_555

#END
