
#######################################################################
#
#                 Cambridge Crystallographic Data Centre
#                                CCDC 
#
#######################################################################
#
# If this CIF has been generated from an entry in the Cambridge 
# Structural Database, then it will include bibliographic, chemical, 
# crystal, experimental, refinement or atomic coordinate data resulting 
# from the CCDC's data processing and validation procedures.
#
#######################################################################

data_JOSJAE
_chemical_formula_moiety         'C19 H16 N2 O2'
_chemical_name_systematic        
12-phenyl-4,5-dihydro[1,3]diazepino[1,2-b]isoquinoline-2,7(1H,3H)-dione
_symmetry_cell_setting           triclinic
_symmetry_space_group_name_H-M   'P -1'
_symmetry_Int_Tables_number      2
_space_group_name_Hall           '-P 1'
loop_
_symmetry_equiv_pos_site_id
_symmetry_equiv_pos_as_xyz
1 x,y,z
2 -x,-y,-z
_cell_length_a                   9.4451(13)
_cell_length_b                   9.5645(13)
_cell_length_c                   9.6623(14)
_cell_angle_alpha                103.008(5)
_cell_angle_beta                 100.127(5)
_cell_angle_gamma                113.396(4)
_cell_volume                     745.429
_exptl_crystal_colour            colorless
_exptl_crystal_description       prism
_cell_formula_units_Z            2
loop_
_atom_site_label
_atom_site_type_symbol
_atom_site_fract_x
_atom_site_fract_y
_atom_site_fract_z
C1 C 0.3854(3) 0.0415(3) -0.1858(3)
C2 C 0.3416(3) 0.0629(3) -0.0469(3)
C3 C 0.1951(3) -0.0559(3) -0.0458(3)
H1 H 0.1297 -0.1471 -0.1322
C4 C 0.1460(3) -0.0403(4) 0.0801(3)
H2 H 0.0474 -0.1212 0.0814
C5 C 0.2415(3) 0.0948(4) 0.2060(3)
H3 H 0.2056 0.1069 0.2918
C6 C 0.3872(3) 0.2110(3) 0.2079(3)
H4 H 0.4520 0.3009 0.2954
C7 C 0.4406(3) 0.1969(3) 0.0805(3)
C8 C 0.5918(3) 0.3176(3) 0.0756(3)
C9 C 0.7006(3) 0.4676(3) 0.2042(3)
C10 C 0.7785(3) 0.4622(3) 0.3382(3)
H5 H 0.7597 0.3609 0.3500
C11 C 0.8828(3) 0.6024(3) 0.4539(3)
H6 H 0.9340 0.5970 0.5451
C12 C 0.9130(3) 0.7504(4) 0.4376(3)
H7 H 0.9865 0.8467 0.5166
C13 C 0.8358(3) 0.7581(3) 0.3058(3)
H8 H 0.8555 0.8598 0.2949
C14 C 0.7305(3) 0.6184(3) 0.1901(3)
H9 H 0.6778 0.6246 0.1001
C15 C 0.6330(3) 0.2919(3) -0.0516(3)
C16 C 0.8085(3) 0.4688(3) -0.1653(3)
C17 C 0.6596(3) 0.4321(3) -0.2824(3)
H10 H 0.6883 0.5080 -0.3395
H11 H 0.5808 0.4484 -0.2339
C18 C 0.5810(3) 0.2578(3) -0.3901(3)
H12 H 0.4661 0.2247 -0.4387
H13 H 0.6354 0.2539 -0.4686
C19 C 0.5916(3) 0.1399(3) -0.3114(3)
H14 H 0.5248 0.0284 -0.3808
H15 H 0.7049 0.1580 -0.2817
N1 N 0.5356(2) 0.1590(2) -0.1784(2)
N2 N 0.7843(2) 0.3953(2) -0.0608(2)
H16 H 0.8707 0.4137 0.0073
O1 O 0.2999(2) -0.0692(2) -0.3019(2)
O2 O 0.9457(2) 0.5585(2) -0.1633(2)
loop_
_geom_bond_atom_site_label_1
_geom_bond_atom_site_label_2
_geom_bond_site_symmetry_1
_geom_bond_site_symmetry_2
C1 C2 1_555 1_555
C2 C3 1_555 1_555
C3 H1 1_555 1_555
C4 C3 1_555 1_555
H2 C4 1_555 1_555
C5 C4 1_555 1_555
H3 C5 1_555 1_555
C6 C5 1_555 1_555
H4 C6 1_555 1_555
C7 C2 1_555 1_555
C8 C7 1_555 1_555
C9 C8 1_555 1_555
C10 C9 1_555 1_555
H5 C10 1_555 1_555
C11 C10 1_555 1_555
H6 C11 1_555 1_555
C12 C11 1_555 1_555
H7 C12 1_555 1_555
C13 C12 1_555 1_555
H8 C13 1_555 1_555
C14 C9 1_555 1_555
H9 C14 1_555 1_555
C15 C8 1_555 1_555
C16 C17 1_555 1_555
C17 H10 1_555 1_555
H11 C17 1_555 1_555
C18 C17 1_555 1_555
H12 C18 1_555 1_555
H13 C18 1_555 1_555
C19 C18 1_555 1_555
H14 C19 1_555 1_555
H15 C19 1_555 1_555
N1 C1 1_555 1_555
N2 C15 1_555 1_555
H16 N2 1_555 1_555
O1 C1 1_555 1_555
O2 C16 1_555 1_555
C6 C7 1_555 1_555
C13 C14 1_555 1_555
C15 N1 1_555 1_555
C16 N2 1_555 1_555
C19 N1 1_555 1_555

#END
