
#######################################################################
#
#                 Cambridge Crystallographic Data Centre
#                                CCDC 
#
#######################################################################
#
# If this CIF has been generated from an entry in the Cambridge 
# Structural Database, then it will include bibliographic, chemical, 
# crystal, experimental, refinement or atomic coordinate data resulting 
# from the CCDC's data processing and validation procedures.
#
#######################################################################

data_JOSKIL
_chemical_formula_moiety         'C22 H20 S4'
_chemical_name_systematic        tetrakis(3-Methyl-2-thienyl)ethylene
_symmetry_cell_setting           monoclinic
_symmetry_space_group_name_H-M   'P 21/c'
_symmetry_Int_Tables_number      14
_space_group_name_Hall           '-P 2ybc'
loop_
_symmetry_equiv_pos_site_id
_symmetry_equiv_pos_as_xyz
1 x,y,z
2 -x,1/2+y,1/2-z
3 -x,-y,-z
4 x,1/2-y,1/2+z
_cell_length_a                   9.578(4)
_cell_length_b                   8.496(1)
_cell_length_c                   13.178(3)
_cell_angle_alpha                90
_cell_angle_beta                 101.73(3)
_cell_angle_gamma                90
_cell_volume                     1049.96
_exptl_crystal_colour            orange
_cell_formula_units_Z            2
loop_
_atom_site_label
_atom_site_type_symbol
_atom_site_fract_x
_atom_site_fract_y
_atom_site_fract_z
S1 S 0.3284(1) 0.3140(1) 0.5066(1)
S2 S 0.3273(1) -0.2590(1) 0.3768(1)
C1 C 0.3844(3) 0.1368(4) 0.5639(2)
C2 C 0.3777(3) 0.1407(4) 0.6659(2)
C3 C 0.3316(3) 0.2882(4) 0.6972(2)
C4 C 0.3009(4) 0.3952(4) 0.6201(2)
C5 C 0.3132(3) -0.0949(4) 0.4532(2)
C6 C 0.1726(3) -0.0763(4) 0.4590(3)
C7 C 0.0805(3) -0.1886(4) 0.4024(3)
C8 C 0.1475(3) -0.2947(4) 0.3532(3)
C9 C 0.4305(3) 0.0068(4) 0.5030(2)
C10 C 0.2517(5) 0.5612(5) 0.6239(3)
C11 C 0.0869(4) -0.4274(5) 0.2832(3)
H1 H 0.416(3) 0.052(3) 0.716(2)
H2 H 0.325(3) 0.315(3) 0.772(2)
H3 H 0.138(3) 0.013(3) 0.498(2)
H4 H -0.026(3) -0.186(3) 0.398(2)
H5 H 0.221(3) 0.593(4) 0.687(2)
H6 H 0.164(3) 0.573(4) 0.577(2)
H7 H 0.324(4) 0.636(4) 0.606(3)
H8 H 0.109(3) -0.533(4) 0.317(2)
H9 H -0.012(3) -0.424(4) 0.263(2)
H10 H 0.108(4) -0.414(4) 0.209(3)
C9B C 0.5695(3) -0.0068(4) 0.4970(2)
C1B C 0.6156(3) -0.1368(4) 0.4361(2)
C5B C 0.6868(3) 0.0949(4) 0.5468(2)
S1B S 0.6716(1) -0.3140(1) 0.4934(1)
C2B C 0.6223(3) -0.1407(4) 0.3341(2)
S2B S 0.6727(1) 0.2590(1) 0.6232(1)
C6B C 0.8274(3) 0.0763(4) 0.5410(3)
C4B C 0.6991(4) -0.3952(4) 0.3799(2)
C3B C 0.6684(3) -0.2882(4) 0.3028(2)
H1B H 0.584(3) -0.052(3) 0.284(2)
C8B C 0.8525(3) 0.2947(4) 0.6468(3)
C7B C 0.9195(3) 0.1886(4) 0.5976(3)
H3B H 0.862(3) -0.013(3) 0.502(2)
C10B C 0.7483(5) -0.5612(5) 0.3761(3)
H2B H 0.675(3) -0.315(3) 0.228(2)
C11B C 0.9131(4) 0.4274(5) 0.7168(3)
H4B H 1.026(3) 0.186(3) 0.602(2)
H5B H 0.779(3) -0.593(4) 0.313(2)
H6B H 0.836(3) -0.573(4) 0.423(2)
H7B H 0.676(4) -0.636(4) 0.394(3)
H8B H 0.891(3) 0.533(4) 0.683(2)
H9B H 1.012(3) 0.424(4) 0.737(2)
H10B H 0.892(4) 0.414(4) 0.791(3)
loop_
_geom_bond_atom_site_label_1
_geom_bond_atom_site_label_2
_geom_bond_site_symmetry_1
_geom_bond_site_symmetry_2
S1 C1 1_555 1_555
S2 C5 1_555 1_555
C1 C2 1_555 1_555
C2 C3 1_555 1_555
C3 C4 1_555 1_555
C4 S1 1_555 1_555
C5 C6 1_555 1_555
C6 C7 1_555 1_555
C7 C8 1_555 1_555
C8 S2 1_555 1_555
C9 C1 1_555 1_555
C10 C4 1_555 1_555
C11 C8 1_555 1_555
H1 C2 1_555 1_555
H2 C3 1_555 1_555
H3 C6 1_555 1_555
H4 C7 1_555 1_555
H5 C10 1_555 1_555
H6 C10 1_555 1_555
H7 C10 1_555 1_555
H8 C11 1_555 1_555
H9 C11 1_555 1_555
H10 C11 1_555 1_555
C9B C9 1_555 1_555
C1B C9B 1_555 1_555
C5B C9B 1_555 1_555
S1B C1B 1_555 1_555
C2B C1B 1_555 1_555
S2B C5B 1_555 1_555
C6B C5B 1_555 1_555
C4B S1B 1_555 1_555
C3B C2B 1_555 1_555
H1B C2B 1_555 1_555
C8B S2B 1_555 1_555
C7B C6B 1_555 1_555
H3B C6B 1_555 1_555
C10B C4B 1_555 1_555
H2B C3B 1_555 1_555
C11B C8B 1_555 1_555
H4B C7B 1_555 1_555
H5B C10B 1_555 1_555
H6B C10B 1_555 1_555
H7B C10B 1_555 1_555
H8B C11B 1_555 1_555
H9B C11B 1_555 1_555
H10B C11B 1_555 1_555
C5 C9 1_555 1_555
C4B C3B 1_555 1_555
C8B C7B 1_555 1_555

#END
