
#######################################################################
#
#                 Cambridge Crystallographic Data Centre
#                                CCDC 
#
#######################################################################
#
# If this CIF has been generated from an entry in the Cambridge 
# Structural Database, then it will include bibliographic, chemical, 
# crystal, experimental, refinement or atomic coordinate data resulting 
# from the CCDC's data processing and validation procedures.
#
#######################################################################

data_JOSLEK
_chemical_formula_moiety         'C18 H11 Br2 N1 O2'
_chemical_name_systematic        
2',7-dibromo-3-methyl-4'H-spiro[benzo[e]indole-1,1'-cyclohexa[2,5]diene]-2,4'(3H)-dione
_symmetry_cell_setting           triclinic
_symmetry_space_group_name_H-M   'P -1'
_symmetry_Int_Tables_number      2
_space_group_name_Hall           '-P 1'
loop_
_symmetry_equiv_pos_site_id
_symmetry_equiv_pos_as_xyz
1 x,y,z
2 -x,-y,-z
_cell_length_a                   7.959(5)
_cell_length_b                   10.761(7)
_cell_length_c                   11.008(7)
_cell_angle_alpha                64.195(6)
_cell_angle_beta                 73.299(6)
_cell_angle_gamma                75.994(7)
_cell_volume                     805.472
_exptl_crystal_colour            colorless
_exptl_crystal_description       block
_cell_formula_units_Z            2
loop_
_atom_site_label
_atom_site_type_symbol
_atom_site_fract_x
_atom_site_fract_y
_atom_site_fract_z
Br1 Br 0.66222(6) 0.60236(4) 0.07838(4)
Br2 Br 1.13365(4) 0.05625(4) 0.65110(4)
C1 C 0.6889(4) 0.4977(4) 0.2648(4)
C2 C 0.7224(4) 0.5609(4) 0.3366(4)
H1 H 0.7308 0.6558 0.2955
C3 C 0.7445(4) 0.4825(3) 0.4742(4)
C4 C 0.7757(4) 0.5448(4) 0.5541(4)
H2 H 0.7795 0.6403 0.5153
C5 C 0.8004(4) 0.4704(4) 0.6850(4)
H3 H 0.8199 0.5136 0.7358
C6 C 0.7957(4) 0.3265(3) 0.7414(4)
C7 C 0.7642(4) 0.2611(3) 0.6690(3)
C8 C 0.7356(4) 0.3363(3) 0.5335(3)
C9 C 0.6971(4) 0.2767(4) 0.4535(4)
H4 H 0.6879 0.1821 0.4918
C10 C 0.6735(4) 0.3546(4) 0.3228(4)
H5 H 0.6476 0.3141 0.2721
C11 C 0.8017(4) 0.0986(4) 0.8956(4)
C12 C 0.7612(4) 0.1074(3) 0.7607(3)
C13 C 0.9005(4) 0.0104(3) 0.7067(3)
C14 C 0.8705(4) -0.1019(3) 0.7013(3)
H6 H 0.9647 -0.1586 0.6701
C15 C 0.6907(5) -0.1391(4) 0.7435(4)
C16 C 0.5494(4) -0.0464(4) 0.7918(4)
H7 H 0.4336 -0.0660 0.8178
C17 C 0.5802(4) 0.0649(3) 0.7998(3)
H8 H 0.4843 0.1200 0.8316
C18 C 0.8559(5) 0.2658(4) 0.9763(4)
H9 H 0.8746 0.1824 1.0559
H10 H 0.7573 0.3272 1.0027
H11 H 0.9602 0.3113 0.9377
N1 N 0.8190(3) 0.2303(3) 0.8740(3)
O1 O 0.8107(3) -0.0054(2) 1.0000(2)
O2 O 0.6627(4) -0.2432(3) 0.7376(3)
loop_
_geom_bond_atom_site_label_1
_geom_bond_atom_site_label_2
_geom_bond_site_symmetry_1
_geom_bond_site_symmetry_2
Br1 C1 1_555 1_555
Br2 C13 1_555 1_555
C1 C2 1_555 1_555
C2 H1 1_555 1_555
C3 C2 1_555 1_555
C4 C3 1_555 1_555
H2 C4 1_555 1_555
C5 C4 1_555 1_555
H3 C5 1_555 1_555
C6 C5 1_555 1_555
C7 C6 1_555 1_555
C8 C3 1_555 1_555
C9 C8 1_555 1_555
H4 C9 1_555 1_555
C10 C1 1_555 1_555
H5 C10 1_555 1_555
C11 C12 1_555 1_555
C12 C7 1_555 1_555
C13 C12 1_555 1_555
C14 C13 1_555 1_555
H6 C14 1_555 1_555
C15 C14 1_555 1_555
C16 C15 1_555 1_555
H7 C16 1_555 1_555
C17 C12 1_555 1_555
H8 C17 1_555 1_555
C18 H9 1_555 1_555
H10 C18 1_555 1_555
H11 C18 1_555 1_555
N1 C6 1_555 1_555
O1 C11 1_555 1_555
O2 C15 1_555 1_555
C7 C8 1_555 1_555
C9 C10 1_555 1_555
C11 N1 1_555 1_555
C16 C17 1_555 1_555
C18 N1 1_555 1_555

#END
