
#######################################################################
#
#                 Cambridge Crystallographic Data Centre
#                                CCDC 
#
#######################################################################
#
# If this CIF has been generated from an entry in the Cambridge 
# Structural Database, then it will include bibliographic, chemical, 
# crystal, experimental, refinement or atomic coordinate data resulting 
# from the CCDC's data processing and validation procedures.
#
#######################################################################

data_JOSTOC
_chemical_formula_moiety         'C18 H22 I1 N1 O3'
_chemical_name_systematic        
'4-iodobenzyl 3-carbamoyl-2-methyl-2-(prop-1-en-1-yl)cyclopentanecarboxylate'
_symmetry_cell_setting           monoclinic
_symmetry_space_group_name_H-M   'P 21'
_symmetry_Int_Tables_number      4
_space_group_name_Hall           'P 2yb'
loop_
_symmetry_equiv_pos_site_id
_symmetry_equiv_pos_as_xyz
1 x,y,z
2 -x,1/2+y,-z
_cell_length_a                   15.750(3)
_cell_length_b                   5.9121(12)
_cell_length_c                   19.888(4)
_cell_angle_alpha                90
_cell_angle_beta                 94.46(3)
_cell_angle_gamma                90
_cell_volume                     1846.27
_exptl_crystal_colour            colorless
_exptl_crystal_description       rod
_cell_formula_units_Z            4
loop_
_atom_site_label
_atom_site_type_symbol
_atom_site_fract_x
_atom_site_fract_y
_atom_site_fract_z
I1 I 0.57757(2) 0.49584(7) 0.03799(2)
O1 O 0.9164(3) -0.1125(9) 0.2158(2)
O2 O 0.9138(3) 0.1616(7) 0.2934(2)
O3 O 0.8253(3) -0.5166(11) 0.5292(2)
N1 N 0.7168(3) -0.5349(9) 0.4504(2)
H1 H 0.6825 -0.5762 0.4797
H2 H 0.6985 -0.5194 0.4088
C1 C 0.6901(4) 0.3444(14) 0.0806(3)
C2 C 0.7654(4) 0.4586(15) 0.0764(4)
H3 H 0.7666 0.5976 0.0547
C3 C 0.8401(4) 0.3618(15) 0.1055(4)
H4 H 0.8914 0.4378 0.1026
C4 C 0.8402(3) 0.1579(11) 0.1383(3)
C5 C 0.7634(4) 0.0482(13) 0.1413(4)
H5 H 0.7621 -0.0930 0.1618
C6 C 0.6880(4) 0.1441(14) 0.1144(4)
H6 H 0.6364 0.0723 0.1193
C7 C 0.9241(4) 0.0584(12) 0.1648(3)
H7 H 0.9518 -0.0075 0.1276
H8 H 0.9604 0.1789 0.1837
C8 C 0.9138(3) -0.0357(10) 0.2796(3)
C9 C 0.9132(3) -0.2334(11) 0.3284(3)
H9 H 0.9257 -0.3717 0.3039
C10 C 0.9805(4) -0.2087(15) 0.3883(3)
H10 H 0.9865 -0.0519 0.4022
H11 H 1.0353 -0.2652 0.3769
C11 C 0.9445(4) -0.3547(15) 0.4446(4)
H12 H 0.9823 -0.4804 0.4565
H13 H 0.9383 -0.2643 0.4846
C12 C 0.8582(4) -0.4409(11) 0.4159(3)
H14 H 0.8686 -0.5833 0.3927
C13 C 0.8268(3) -0.2673(9) 0.3602(2)
C14 C 0.7621(4) -0.3689(11) 0.3085(3)
H15 H 0.7771 -0.5050 0.2891
C15 C 0.6866(4) -0.2847(12) 0.2878(3)
H16 H 0.6696 -0.1512 0.3075
C16 C 0.6269(4) -0.3917(14) 0.2346(3)
H17 H 0.6181 -0.2906 0.1970
H18 H 0.5734 -0.4222 0.2529
H19 H 0.6511 -0.5307 0.2200
C17 C 0.7949(4) -0.0508(10) 0.3922(3)
H20 H 0.8384 0.0074 0.4241
H21 H 0.7448 -0.0839 0.4150
H22 H 0.7815 0.0600 0.3577
C18 C 0.7981(4) -0.4950(10) 0.4695(3)
I2 I 0.07968(2) 0.35714(6) 0.03507(2)
O4 O 0.3952(2) 0.9573(8) 0.22407(17)
O5 O 0.5237(3) 1.1174(9) 0.2338(2)
O6 O 0.3726(3) 1.7328(7) 0.4462(2)
N2 N 0.2500(3) 1.5395(11) 0.4307(3)
H23 H 0.2370 1.4167 0.4508
H24 H 0.2315 1.6538 0.4520
C19 C 0.1870(4) 0.5404(12) 0.0748(3)
C20 C 0.2665(4) 0.4555(13) 0.0685(3)
H25 H 0.2733 0.3190 0.0463
C21 C 0.3375(4) 0.5755(12) 0.0957(3)
H26 H 0.3916 0.5160 0.0924
C22 C 0.3286(4) 0.7789(10) 0.1269(3)
C23 C 0.2470(4) 0.8606(15) 0.1320(4)
H27 H 0.2401 0.9988 0.1532
C24 C 0.1760(4) 0.7446(14) 0.1069(4)
H28 H 0.1218 0.8020 0.1114
C25 C 0.4062(4) 0.9096(11) 0.1544(3)
H29 H 0.4573 0.8208 0.1505
H30 H 0.4112 1.0493 0.1295
C26 C 0.4601(3) 1.0630(9) 0.2588(3)
C27 C 0.4398(4) 1.1039(11) 0.3310(3)
H31 H 0.4218 0.9602 0.3500
C28 C 0.5165(4) 1.1947(12) 0.3761(3)
H32 H 0.5464 1.0718 0.4000
H33 H 0.5559 1.2734 0.3492
C29 C 0.4785(4) 1.3573(13) 0.4257(3)
H34 H 0.4955 1.3136 0.4718
H35 H 0.4979 1.5105 0.4186
C30 C 0.3819(4) 1.3424(12) 0.4122(3)
H36 H 0.3619 1.2162 0.4388
C31 C 0.3666(3) 1.2790(9) 0.3360(2)
C32 C 0.3790(4) 1.4859(10) 0.2923(2)
H37 H 0.4349 1.5469 0.3028
H38 H 0.3371 1.5981 0.3009
H39 H 0.3727 1.4433 0.2456
C33 C 0.2804(4) 1.1691(13) 0.3222(3)
H40 H 0.2720 1.0350 0.3452
C34 C 0.2173(4) 1.2381(18) 0.2825(4)
H41 H 0.2258 1.3686 0.2578
C35 C 0.1315(5) 1.128(3) 0.2724(5)
H42 H 0.1134 1.1261 0.2252
H43 H 0.0912 1.2123 0.2963
H44 H 0.1350 0.9762 0.2893
C36 C 0.3348(4) 1.5544(10) 0.4315(2)
loop_
_geom_bond_atom_site_label_1
_geom_bond_atom_site_label_2
_geom_bond_site_symmetry_1
_geom_bond_site_symmetry_2
I1 C1 1_555 1_555
O1 C7 1_555 1_555
O2 C8 1_555 1_555
O3 C18 1_555 1_555
N1 H1 1_555 1_555
H2 N1 1_555 1_555
C1 C2 1_555 1_555
C2 H3 1_555 1_555
C3 C2 1_555 1_555
H4 C3 1_555 1_555
C4 C3 1_555 1_555
C5 C4 1_555 1_555
H5 C5 1_555 1_555
C6 C1 1_555 1_555
H6 C6 1_555 1_555
C7 C4 1_555 1_555
H7 C7 1_555 1_555
H8 C7 1_555 1_555
C8 O1 1_555 1_555
C9 C8 1_555 1_555
H9 C9 1_555 1_555
C10 C9 1_555 1_555
H10 C10 1_555 1_555
H11 C10 1_555 1_555
C11 C10 1_555 1_555
H12 C11 1_555 1_555
H13 C11 1_555 1_555
C12 C11 1_555 1_555
H14 C12 1_555 1_555
C13 C9 1_555 1_555
C14 C13 1_555 1_555
H15 C14 1_555 1_555
C15 C14 1_555 1_555
H16 C15 1_555 1_555
C16 C15 1_555 1_555
H17 C16 1_555 1_555
H18 C16 1_555 1_555
H19 C16 1_555 1_555
C17 C13 1_555 1_555
H20 C17 1_555 1_555
H21 C17 1_555 1_555
H22 C17 1_555 1_555
C18 N1 1_555 1_555
I2 C19 1_555 1_555
O4 C25 1_555 1_555
O5 C26 1_555 1_555
O6 C36 1_555 1_555
N2 H23 1_555 1_555
H24 N2 1_555 1_555
C19 C20 1_555 1_555
C20 H25 1_555 1_555
C21 C20 1_555 1_555
H26 C21 1_555 1_555
C22 C21 1_555 1_555
C23 C22 1_555 1_555
H27 C23 1_555 1_555
C24 C19 1_555 1_555
H28 C24 1_555 1_555
C25 C22 1_555 1_555
H29 C25 1_555 1_555
H30 C25 1_555 1_555
C26 O4 1_555 1_555
C27 C26 1_555 1_555
H31 C27 1_555 1_555
C28 C27 1_555 1_555
H32 C28 1_555 1_555
H33 C28 1_555 1_555
C29 C28 1_555 1_555
H34 C29 1_555 1_555
H35 C29 1_555 1_555
C30 C29 1_555 1_555
H36 C30 1_555 1_555
C31 C27 1_555 1_555
C32 C31 1_555 1_555
H37 C32 1_555 1_555
H38 C32 1_555 1_555
H39 C32 1_555 1_555
C33 C31 1_555 1_555
H40 C33 1_555 1_555
C34 C33 1_555 1_555
H41 C34 1_555 1_555
C35 C34 1_555 1_555
H42 C35 1_555 1_555
H43 C35 1_555 1_555
H44 C35 1_555 1_555
C36 N2 1_555 1_555
C5 C6 1_555 1_555
C12 C13 1_555 1_555
C12 C18 1_555 1_555
C23 C24 1_555 1_555
C30 C31 1_555 1_555
C30 C36 1_555 1_555

#END
