
#######################################################################
#
#                 Cambridge Crystallographic Data Centre
#                                CCDC 
#
#######################################################################
#
# If this CIF has been generated from an entry in the Cambridge 
# Structural Database, then it will include bibliographic, chemical, 
# crystal, experimental, refinement or atomic coordinate data resulting 
# from the CCDC's data processing and validation procedures.
#
#######################################################################

data_JOTHUX
_chemical_formula_moiety         'C26 H20 O6'
_chemical_name_systematic        
'pentacyclo[6.6.6.0^2,7^.0^9,14^.0^15,20^]icosa-2,4,6,9,11,13,15,17,19-nonaene-3,13,16-triyl triacetate'
_symmetry_cell_setting           orthorhombic
_symmetry_space_group_name_H-M   'P b c a'
_symmetry_Int_Tables_number      61
_space_group_name_Hall           '-P 2ac 2ab'
loop_
_symmetry_equiv_pos_site_id
_symmetry_equiv_pos_as_xyz
1 x,y,z
2 1/2-x,-y,1/2+z
3 -x,1/2+y,1/2-z
4 1/2+x,1/2-y,-z
5 -x,-y,-z
6 1/2+x,y,1/2-z
7 x,1/2-y,1/2+z
8 1/2-x,1/2+y,z
_cell_length_a                   15.8504(9)
_cell_length_b                   13.3564(7)
_cell_length_c                   19.7683(10)
_cell_angle_alpha                90
_cell_angle_beta                 90
_cell_angle_gamma                90
_cell_volume                     4185.03
_exptl_crystal_colour            colorless
_exptl_crystal_description       plate
_cell_formula_units_Z            8
loop_
_atom_site_label
_atom_site_type_symbol
_atom_site_fract_x
_atom_site_fract_y
_atom_site_fract_z
C1 C 0.01110(17) 0.33003(19) 0.34550(14)
H1 H 0.0156 0.3241 0.3958
C2 C -0.00145(17) 0.34629(19) 0.21481(14)
H2 H -0.0063 0.3523 0.1645
C3 C 0.05393(17) 0.2446(2) 0.30729(14)
C4 C 0.10056(18) 0.1675(2) 0.33446(14)
C5 C 0.14001(19) 0.0984(2) 0.29272(16)
H3 H 0.1735 0.0467 0.3118
C6 C 0.13060(19) 0.1049(2) 0.22378(16)
H4 H 0.1566 0.0565 0.1954
C7 C 0.08320(18) 0.1820(2) 0.19515(15)
H5 H 0.0763 0.1860 0.1475
C8 C 0.04635(17) 0.25233(19) 0.23698(14)
O1 O 0.11265(13) 0.16593(13) 0.40490(10)
C9 C 0.0939(2) 0.0803(2) 0.43944(16)
O2 O 0.06459(15) 0.00741(16) 0.41357(11)
C10 C 0.1148(2) 0.0926(3) 0.51253(17)
H6 H 0.0849 0.1510 0.5306
H7 H 0.1757 0.1023 0.5176
H8 H 0.0974 0.0325 0.5374
C11 C 0.05223(17) 0.42455(19) 0.31703(14)
C12 C 0.09548(18) 0.4964(2) 0.35250(14)
C13 C 0.13441(18) 0.5754(2) 0.31980(15)
H9 H 0.1649 0.6240 0.3450
C14 C 0.12864(18) 0.5832(2) 0.25042(15)
H10 H 0.1554 0.6373 0.2278
C15 C 0.08368(17) 0.5122(2) 0.21326(15)
H11 H 0.0789 0.5182 0.1655
C16 C 0.04626(17) 0.4333(2) 0.24682(14)
O3 O 0.09650(13) 0.49012(14) 0.42408(10)
C17 C 0.1632(3) 0.4485(3) 0.45380(18)
O4 O 0.2237(2) 0.4244(4) 0.42279(15)
C18 C 0.1516(3) 0.4354(3) 0.52810(17)
H12 H 0.1581 0.3645 0.5398
H13 H 0.0951 0.4581 0.5410
H14 H 0.1941 0.4750 0.5523
C19 C -0.07945(17) 0.33226(19) 0.31982(14)
C20 C -0.15255(18) 0.3264(2) 0.35775(14)
C21 C -0.23117(18) 0.3315(2) 0.32788(16)
H15 H -0.2808 0.3283 0.3548
C22 C -0.23692(19) 0.3412(2) 0.25827(15)
H16 H -0.2908 0.3446 0.2373
C23 C -0.16422(18) 0.34605(19) 0.21870(15)
H17 H -0.1682 0.3524 0.1709
C24 C -0.08639(17) 0.34146(19) 0.24980(14)
O5 O -0.14802(13) 0.32015(14) 0.42894(10)
C25 C -0.1291(2) 0.2299(2) 0.45597(16)
O6 O -0.1170(2) 0.15813(18) 0.42225(13)
C26 C -0.1241(3) 0.2352(3) 0.53097(16)
H18 H -0.1031 0.1714 0.5487
H19 H -0.1803 0.2487 0.5495
H20 H -0.0855 0.2892 0.5441
H21? H 0.1538 0.0395 0.5265
H22? H 0.0630 0.0882 0.5395
H23? H 0.1413 0.1580 0.5197
H24? H 0.1401 0.5006 0.5490
H25? H 0.2031 0.4070 0.5477
H26? H 0.1041 0.3901 0.5365
H27? H -0.1428 0.3014 0.5462
H28? H -0.0657 0.2241 0.5454
H29? H -0.1605 0.1837 0.5508
loop_
_geom_bond_atom_site_label_1
_geom_bond_atom_site_label_2
_geom_bond_site_symmetry_1
_geom_bond_site_symmetry_2
C1 H1 1_555 1_555
C2 H2 1_555 1_555
C3 C1 1_555 1_555
C4 C3 1_555 1_555
C5 C4 1_555 1_555
H3 C5 1_555 1_555
C6 C5 1_555 1_555
H4 C6 1_555 1_555
C7 C6 1_555 1_555
H5 C7 1_555 1_555
C8 C2 1_555 1_555
O1 C4 1_555 1_555
C9 O1 1_555 1_555
O2 C9 1_555 1_555
C10 C9 1_555 1_555
H6 C10 1_555 1_555
H7 C10 1_555 1_555
H8 C10 1_555 1_555
C11 C1 1_555 1_555
C12 C11 1_555 1_555
C13 C12 1_555 1_555
H9 C13 1_555 1_555
C14 C13 1_555 1_555
H10 C14 1_555 1_555
C15 C14 1_555 1_555
H11 C15 1_555 1_555
C16 C2 1_555 1_555
O3 C12 1_555 1_555
C17 O3 1_555 1_555
O4 C17 1_555 1_555
C18 C17 1_555 1_555
H12 C18 1_555 1_555
H13 C18 1_555 1_555
H14 C18 1_555 1_555
C19 C1 1_555 1_555
C20 C19 1_555 1_555
C21 C20 1_555 1_555
H15 C21 1_555 1_555
C22 C21 1_555 1_555
H16 C22 1_555 1_555
C23 C22 1_555 1_555
H17 C23 1_555 1_555
C24 C2 1_555 1_555
O5 C20 1_555 1_555
C25 O5 1_555 1_555
O6 C25 1_555 1_555
C26 C25 1_555 1_555
H18 C26 1_555 1_555
H19 C26 1_555 1_555
H20 C26 1_555 1_555
C3 C8 1_555 1_555
C7 C8 1_555 1_555
C11 C16 1_555 1_555
C15 C16 1_555 1_555
C19 C24 1_555 1_555
C23 C24 1_555 1_555

#END
