
#######################################################################
#
#                 Cambridge Crystallographic Data Centre
#                                CCDC 
#
#######################################################################
#
# If this CIF has been generated from an entry in the Cambridge 
# Structural Database, then it will include bibliographic, chemical, 
# crystal, experimental, refinement or atomic coordinate data resulting 
# from the CCDC's data processing and validation procedures.
#
#######################################################################

data_JOTJAF
_chemical_formula_moiety         'C26 H20 O6'
_chemical_name_systematic        
'pentacyclo[6.6.6.0^2,7^.0^9,14^.0^15,20^]icosa-2,4,6,9,11,13,15,17,19-nonaene-3,10,16-triyl triacetate'
_symmetry_cell_setting           orthorhombic
_symmetry_space_group_name_H-M   'P 21 21 21'
_symmetry_Int_Tables_number      19
_space_group_name_Hall           'P 2ac 2ab'
loop_
_symmetry_equiv_pos_site_id
_symmetry_equiv_pos_as_xyz
1 x,y,z
2 1/2-x,-y,1/2+z
3 1/2+x,1/2-y,-z
4 -x,1/2+y,1/2-z
_cell_length_a                   9.11048(14)
_cell_length_b                   14.0492(2)
_cell_length_c                   16.5056(2)
_cell_angle_alpha                90
_cell_angle_beta                 90
_cell_angle_gamma                90
_cell_volume                     2112.63
_exptl_crystal_colour            colorless
_exptl_crystal_description       irregular
_cell_formula_units_Z            4
loop_
_atom_site_label
_atom_site_type_symbol
_atom_site_fract_x
_atom_site_fract_y
_atom_site_fract_z
C1 C -0.3079(3) -0.65033(19) -0.87268(15)
C2 C -0.1578(4) -0.6626(2) -0.88031(18)
H1 H -0.1128 -0.6570 -0.9307
C3 C -0.0756(3) -0.6832(2) -0.81244(19)
H2 H 0.0252 -0.6919 -0.8175
C4 C -0.1406(3) -0.6912(2) -0.73650(18)
H3 H -0.0844 -0.7051 -0.6910
C5 C -0.4599(3) -0.5226(2) -0.58408(17)
H4 H -0.4031 -0.5343 -0.5384
C6 C -0.5438(4) -0.4398(2) -0.58981(18)
H5 H -0.5435 -0.3965 -0.5472
C7 C -0.6276(3) -0.42125(19) -0.65789(17)
H6 H -0.6827 -0.3657 -0.6613
C8 C -0.6283(3) -0.48637(19) -0.72086(16)
C9 C -0.5477(3) -0.56901(19) -0.71636(15)
C10 C -0.4626(3) -0.58682(18) -0.64756(15)
C11 C -0.3754(3) -0.65848(18) -0.79867(16)
C12 C -0.2907(3) -0.67805(19) -0.73006(16)
C13 C -0.6919(3) -0.8012(2) -0.76087(17)
H7 H -0.7467 -0.7893 -0.8073
C14 C -0.7187(3) -0.8826(2) -0.71427(18)
H8 H -0.7913 -0.9254 -0.7299
C15 C -0.6368(3) -0.8995(2) -0.64466(18)
H9 H -0.6560 -0.9527 -0.6129
C16 C -0.5269(3) -0.83701(19) -0.62285(16)
C17 C -0.4990(3) -0.75632(18) -0.66758(15)
C18 C -0.5834(3) -0.73877(19) -0.73710(16)
C19 C -0.5386(3) -0.64720(18) -0.78041(15)
H10 H -0.5978 -0.6338 -0.8287
C20 C -0.3809(3) -0.68180(19) -0.65203(15)
H11 H -0.3216 -0.6951 -0.6038
C21 C -0.3940(4) -0.6648(2) -1.01003(17)
C22 C -0.8513(3) -0.4651(2) -0.79296(17)
C23 C -0.4580(3) -0.8215(2) -0.48458(16)
C24 C -0.4805(6) -0.6089(3) -1.0697(2)
H12 H -0.5778 -0.5989 -1.0491
H13 H -0.4857 -0.6432 -1.1199
H14 H -0.4338 -0.5486 -1.0786
C25 C -0.9082(4) -0.4440(3) -0.87588(18)
H15 H -0.8810 -0.3805 -0.8910
H16 H -1.0133 -0.4497 -0.8761
H17 H -0.8671 -0.4884 -0.9138
C26 C -0.3412(4) -0.8470(2) -0.42608(17)
H18 H -0.3776 -0.8942 -0.3891
H19 H -0.3121 -0.7913 -0.3964
H20 H -0.2581 -0.8720 -0.4548
O1 O -0.3938(2) -0.61819(14) -0.93786(11)
O2 O -0.7028(2) -0.46732(15) -0.79332(11)
O3 O -0.4330(2) -0.86105(13) -0.55827(11)
O4 O -0.3337(3) -0.73893(17) -1.02154(14)
O5 O -0.9233(3) -0.4802(2) -0.73367(13)
O6 O -0.5606(3) -0.7710(2) -0.47260(14)
loop_
_geom_bond_atom_site_label_1
_geom_bond_atom_site_label_2
_geom_bond_site_symmetry_1
_geom_bond_site_symmetry_2
C1 C2 1_555 1_555
C2 H1 1_555 1_555
C3 C2 1_555 1_555
H2 C3 1_555 1_555
C4 C3 1_555 1_555
H3 C4 1_555 1_555
C5 H4 1_555 1_555
C6 C5 1_555 1_555
H5 C6 1_555 1_555
C7 C6 1_555 1_555
H6 C7 1_555 1_555
C8 C7 1_555 1_555
C9 C8 1_555 1_555
C10 C5 1_555 1_555
C11 C1 1_555 1_555
C12 C4 1_555 1_555
C13 H7 1_555 1_555
C14 C13 1_555 1_555
H8 C14 1_555 1_555
C15 C14 1_555 1_555
H9 C15 1_555 1_555
C16 C15 1_555 1_555
C17 C16 1_555 1_555
C18 C13 1_555 1_555
C19 C9 1_555 1_555
H10 C19 1_555 1_555
C20 C10 1_555 1_555
H11 C20 1_555 1_555
C21 C24 1_555 1_555
C22 C25 1_555 1_555
C23 C26 1_555 1_555
C24 H12 1_555 1_555
H13 C24 1_555 1_555
H14 C24 1_555 1_555
C25 H15 1_555 1_555
H16 C25 1_555 1_555
H17 C25 1_555 1_555
C26 H18 1_555 1_555
H19 C26 1_555 1_555
H20 C26 1_555 1_555
O1 C1 1_555 1_555
O2 C8 1_555 1_555
O3 C16 1_555 1_555
O4 C21 1_555 1_555
O5 C22 1_555 1_555
O6 C23 1_555 1_555
C9 C10 1_555 1_555
C11 C12 1_555 1_555
C11 C19 1_555 1_555
C12 C20 1_555 1_555
C17 C18 1_555 1_555
C17 C20 1_555 1_555
C18 C19 1_555 1_555
C21 O1 1_555 1_555
C22 O2 1_555 1_555
C23 O3 1_555 1_555

#END
