
#######################################################################
#
#                 Cambridge Crystallographic Data Centre
#                                CCDC 
#
#######################################################################
#
# If this CIF has been generated from an entry in the Cambridge 
# Structural Database, then it will include bibliographic, chemical, 
# crystal, experimental, refinement or atomic coordinate data resulting 
# from the CCDC's data processing and validation procedures.
#
#######################################################################

data_JOTMOW
_chemical_formula_moiety         'C34 H23 B1 Br1 N3 O1 S1'
_chemical_name_systematic        
6-((2-Bromophenyl)sulfanyl)-9c-methoxy-3,9-diphenyl-9cH-8b\l^5^,9b,9d-triaza-9\L^5^-boratricyclopenta[cd,gh,kl]phenalene
_symmetry_cell_setting           monoclinic
_symmetry_space_group_name_H-M   'P 21/c'
_symmetry_Int_Tables_number      14
_space_group_name_Hall           '-P 2ybc'
loop_
_symmetry_equiv_pos_site_id
_symmetry_equiv_pos_as_xyz
1 x,y,z
2 -x,1/2+y,1/2-z
3 -x,-y,-z
4 x,1/2-y,1/2+z
_cell_length_a                   10.402(4)
_cell_length_b                   16.416(7)
_cell_length_c                   16.139(6)
_cell_angle_alpha                90
_cell_angle_beta                 94.089(9)
_cell_angle_gamma                90
_cell_volume                     2748.87
_exptl_crystal_colour            orange
_exptl_crystal_description       prism
_cell_formula_units_Z            4
loop_
_atom_site_label
_atom_site_type_symbol
_atom_site_fract_x
_atom_site_fract_y
_atom_site_fract_z
Br1 Br 0.49457(2) 0.181830(13) 0.413417(16)
S1 S 0.35135(5) 0.32878(3) 0.31935(4)
N1 N 0.15861(17) 0.54123(11) 0.29282(12)
C1 C 0.3176(2) 0.44370(14) 0.05800(16)
H1 H 0.3314 0.4279 0.0027
C2 C -0.2831(2) 0.62385(13) 0.27952(15)
H2 H -0.2871 0.6018 0.2250
C3 C 0.2916(2) 0.57533(13) -0.09128(15)
H3 H 0.3698 0.5732 -0.0571
C4 C 0.0840(2) 0.61869(13) 0.08286(15)
N2 N 0.26322(17) 0.51679(11) 0.16682(12)
C5 C -0.0975(2) 0.67362(13) 0.13288(15)
H4 H -0.1781 0.7002 0.1366
C6 C -0.3965(2) 0.64089(14) 0.31678(16)
H5 H -0.4775 0.6306 0.2877
C7 C 0.1738(2) 0.57703(13) -0.05415(15)
C8 C 0.1275(2) 0.44928(14) 0.39204(15)
H6 H 0.1407 0.4046 0.4291
C9 C 0.1728(2) 0.57418(13) 0.03791(15)
C10 C -0.2732(2) 0.68868(14) 0.43921(16)
H7 H -0.2699 0.7112 0.4935
C11 C 0.3145(2) 0.44571(13) 0.19821(15)
C12 C -0.0197(2) 0.63887(13) 0.20094(15)
N3 N 0.09122(17) 0.61220(11) 0.16793(12)
C13 C 0.4959(2) 0.35334(14) 0.38040(15)
C14 C -0.1589(2) 0.67130(13) 0.40189(15)
H8 H -0.0781 0.6816 0.4312
C15 C 0.6582(2) 0.44592(15) 0.43949(17)
H9 H 0.6900 0.4998 0.4472
C16 C 0.2554(2) 0.51744(13) 0.08256(15)
C17 C -0.3913(2) 0.67298(14) 0.39678(17)
H10 H -0.4688 0.6842 0.4224
C18 C 0.0598(2) 0.58120(14) -0.10638(15)
H11 H -0.0213 0.5814 -0.0828
C19 C 0.3535(2) 0.40046(14) 0.12850(15)
H12 H 0.3966 0.3494 0.1307
C20 C 0.0284(2) 0.50543(14) 0.39224(15)
H13 H -0.0387 0.5062 0.4292
C21 C -0.1630(2) 0.63883(13) 0.32163(15)
C22 C 0.0454(2) 0.56237(13) 0.32637(15)
C23 C -0.0414(2) 0.61730(13) 0.28365(14)
C24 C 0.1825(2) 0.58226(14) -0.22765(16)
H14 H 0.1854 0.5841 -0.2863
C25 C 0.2961(2) 0.57672(14) -0.17681(16)
H15 H 0.3767 0.5739 -0.2008
C26 C 0.2957(2) 0.42458(13) 0.28184(15)
C27 C 0.5636(2) 0.28955(14) 0.42030(15)
C28 C -0.0352(2) 0.66185(13) 0.06129(15)
H16 H -0.0652 0.6791 0.0071
C29 C 0.7258(2) 0.38030(16) 0.47726(18)
H17 H 0.8044 0.3897 0.5094
C30 C 0.2066(2) 0.47005(13) 0.32640(15)
C31 C 0.0646(2) 0.58504(14) -0.19183(16)
H18 H -0.0130 0.5896 -0.2263
C32 C 0.5444(2) 0.43207(14) 0.39074(16)
H19 H 0.4997 0.4765 0.3644
C33 C 0.6785(2) 0.30209(15) 0.46789(16)
H20 H 0.7239 0.2575 0.4936
O1 O 0.30729(15) 0.64355(9) 0.23791(10)
B1 B 0.2104(2) 0.58357(15) 0.21883(17)
C34 C 0.2722(3) 0.71788(15) 0.27478(19)
H21 H 0.2055 0.7450 0.2387
H22 H 0.3480 0.7533 0.2823
H23 H 0.2387 0.7068 0.3289
loop_
_geom_bond_atom_site_label_1
_geom_bond_atom_site_label_2
_geom_bond_site_symmetry_1
_geom_bond_site_symmetry_2
Br1 C27 1_555 1_555
S1 C13 1_555 1_555
N1 C22 1_555 1_555
C1 H1 1_555 1_555
C2 H2 1_555 1_555
C3 H3 1_555 1_555
C4 C9 1_555 1_555
N2 C11 1_555 1_555
C5 H4 1_555 1_555
C6 C2 1_555 1_555
H5 C6 1_555 1_555
C7 C3 1_555 1_555
C8 H6 1_555 1_555
C9 C7 1_555 1_555
C10 H7 1_555 1_555
C11 C19 1_555 1_555
C12 C5 1_555 1_555
N3 C4 1_555 1_555
C13 C27 1_555 1_555
C14 C10 1_555 1_555
H8 C14 1_555 1_555
C15 H9 1_555 1_555
C16 C1 1_555 1_555
C17 C6 1_555 1_555
H10 C17 1_555 1_555
C18 C7 1_555 1_555
H11 C18 1_555 1_555
C19 C1 1_555 1_555
H12 C19 1_555 1_555
C20 C8 1_555 1_555
H13 C20 1_555 1_555
C21 C2 1_555 1_555
C22 C20 1_555 1_555
C23 C12 1_555 1_555
C24 H14 1_555 1_555
C25 C3 1_555 1_555
H15 C25 1_555 1_555
C26 S1 1_555 1_555
C27 C33 1_555 1_555
C28 C4 1_555 1_555
H16 C28 1_555 1_555
C29 C15 1_555 1_555
H17 C29 1_555 1_555
C30 N1 1_555 1_555
C31 C18 1_555 1_555
H18 C31 1_555 1_555
C32 C13 1_555 1_555
H19 C32 1_555 1_555
C33 C29 1_555 1_555
H20 C33 1_555 1_555
O1 B1 1_555 1_555
B1 N1 1_555 1_555
C34 O1 1_555 1_555
H21 C34 1_555 1_555
H22 C34 1_555 1_555
H23 C34 1_555 1_555
N2 C16 1_555 1_555
N2 B1 1_555 1_555
C5 C28 1_555 1_555
C8 C30 1_555 1_555
C9 C16 1_555 1_555
C10 C17 1_555 1_555
C11 C26 1_555 1_555
C12 N3 1_555 1_555
N3 B1 1_555 1_555
C14 C21 1_555 1_555
C15 C32 1_555 1_555
C21 C23 1_555 1_555
C22 C23 1_555 1_555
C24 C25 1_555 1_555
C24 C31 1_555 1_555
C26 C30 1_555 1_555

#END
