
#######################################################################
#
#                 Cambridge Crystallographic Data Centre
#                                CCDC 
#
#######################################################################
#
# If this CIF has been generated from an entry in the Cambridge 
# Structural Database, then it will include bibliographic, chemical, 
# crystal, experimental, refinement or atomic coordinate data resulting 
# from the CCDC's data processing and validation procedures.
#
#######################################################################

data_JOTMIQ
_chemical_formula_moiety         'C34 H22 B1 N3 O1 S1,1.38(C1 H4 O1)'
_chemical_name_systematic        
'12c-Methoxy-3,12-diphenyl-12cH-6-thia-3b\l^5^,12b,12d-triaza-12\L^5^-boracyclopenta[de]-s-indaceno[2,1,8,7-opqra]tetracene methanol solvate'
_symmetry_cell_setting           monoclinic
_symmetry_space_group_name_H-M   'P 21/a'
_symmetry_Int_Tables_number      14
_space_group_name_Hall           '-P 2yab'
loop_
_symmetry_equiv_pos_site_id
_symmetry_equiv_pos_as_xyz
1 x,y,z
2 1/2-x,1/2+y,-z
3 -x,-y,-z
4 1/2+x,1/2-y,z
_cell_length_a                   8.568(3)
_cell_length_b                   23.290(7)
_cell_length_c                   14.402(4)
_cell_angle_alpha                90
_cell_angle_beta                 101.002(5)
_cell_angle_gamma                90
_cell_volume                     2821.08
_exptl_crystal_colour            orange
_exptl_crystal_description       prism
_cell_formula_units_Z            4
loop_
_atom_site_label
_atom_site_type_symbol
_atom_site_fract_x
_atom_site_fract_y
_atom_site_fract_z
C1 C 0.8579(2) 0.56165(8) 0.43639(14)
C2 C 0.8373(2) 0.52919(8) 0.51799(15)
H1 H 0.8844 0.5374 0.5818
C3 C 0.7360(2) 0.48354(8) 0.48696(15)
C4 C 0.6972(2) 0.48717(8) 0.38622(15)
C5 C 0.5733(2) 0.46072(8) 0.32218(15)
C6 C 0.5226(2) 0.48595(9) 0.23143(16)
C7 C 0.3763(3) 0.48554(10) 0.16348(16)
H2 H 0.2927 0.4584 0.1606
C8 C 0.3782(3) 0.53132(10) 0.10329(16)
H3 H 0.2965 0.5412 0.0513
C9 C 0.5261(2) 0.56165(10) 0.13313(14)
C10 C 0.5715(2) 0.61955(10) 0.11884(14)
C11 C 0.6922(2) 0.64520(9) 0.18716(14)
C12 C 0.7342(2) 0.70375(9) 0.21429(15)
H4 H 0.6987 0.7371 0.1784
C13 C 0.8343(2) 0.70291(9) 0.30084(14)
H5 H 0.8804 0.7355 0.3352
C14 C 0.8575(2) 0.64376(9) 0.33078(14)
C15 C 0.9126(2) 0.61828(8) 0.42080(14)
C16 C 0.6637(2) 0.43987(8) 0.53755(16)
C17 C 0.5444(2) 0.40351(8) 0.48756(17)
C18 C 0.4751(2) 0.36114(9) 0.53607(18)
H6 H 0.3950 0.3367 0.5025
C19 C 0.5235(3) 0.35512(9) 0.63227(17)
H7 H 0.4749 0.3268 0.6648
C20 C 0.6432(3) 0.39004(9) 0.68293(17)
H8 H 0.6773 0.3850 0.7491
C21 C 0.7111(3) 0.43199(9) 0.63555(16)
H9 H 0.7915 0.4560 0.6700
C22 C 0.4749(3) 0.65413(10) 0.04164(15)
C23 C 0.4551(3) 0.63581(11) -0.05201(17)
H10 H 0.5025 0.6009 -0.0665
C24 C 0.3666(4) 0.66821(13) -0.12413(17)
H11 H 0.3549 0.6557 -0.1879
C25 C 0.2948(4) 0.71903(13) -0.10357(18)
H12 H 0.2340 0.7411 -0.1531
C26 C 0.3122(3) 0.73743(12) -0.01065(18)
H13 H 0.2626 0.7719 0.0037
C27 C 0.4025(3) 0.70520(11) 0.06144(16)
H14 H 0.4152 0.7181 0.1250
C28 C 1.0075(2) 0.65349(8) 0.49678(14)
C29 C 1.1325(2) 0.68709(8) 0.47569(15)
H15 H 1.1545 0.6865 0.4135
C30 C 1.2242(2) 0.72108(8) 0.54432(16)
H16 H 1.3085 0.7434 0.5289
C31 C 1.1933(3) 0.72261(9) 0.63551(15)
H17 H 1.2558 0.7460 0.6825
C32 C 1.0697(3) 0.68957(9) 0.65754(15)
H18 H 1.0482 0.6905 0.7198
C33 C 0.9774(2) 0.65526(8) 0.58897(14)
H19 H 0.8935 0.6329 0.6049
C34 C 0.9116(3) 0.46510(12) 0.2026(2)
H20 H 1.0052 0.4556 0.1757
H21 H 0.8153 0.4529 0.1589
H22 H 0.9182 0.4453 0.2632
S1 S 0.46849(6) 0.40519(2) 0.36396(4)
O1 O 0.90619(17) 0.52520(7) 0.21688(11)
N1 N 0.78022(19) 0.53180(7) 0.35904(12)
N2 N 0.6116(2) 0.53011(7) 0.20578(12)
N3 N 0.77835(19) 0.61169(7) 0.25697(12)
B1 B 0.7760(3) 0.54752(10) 0.25699(17)
C35 C 0.8520(5) 0.64878(17) -0.1555(3)
H23 H 0.8739 0.6897 -0.1623
H24 H 0.7374 0.6419 -0.1738
H25 H 0.9082 0.6263 -0.1963
O2 O 0.8900(17) 0.6367(6) -0.0868(10)
H26 H 0.9841 0.6191 -0.0248
C36? C 0.9881(12) 0.6139(4) 0.0341(6)
H27? H 0.8897 0.6333 0.0414
H28? H 1.0136 0.6238 -0.0275
H29? H 1.0751 0.6262 0.0846
O3? O 0.9679(8) 0.5542(3) 0.0394(4)
C37? C 0.9546(7) 0.6012(3) 0.0310(4)
H30? H 0.8423 0.6089 0.0313
H31? H 0.9716 0.5596 0.0289
O4? O 1.0535(6) 0.6251(3) 0.1173(4)
loop_
_geom_bond_atom_site_label_1
_geom_bond_atom_site_label_2
_geom_bond_site_symmetry_1
_geom_bond_site_symmetry_2
C1 C2 1_555 1_555
C2 H1 1_555 1_555
C3 C2 1_555 1_555
C4 C3 1_555 1_555
C5 C4 1_555 1_555
C6 C5 1_555 1_555
C7 C6 1_555 1_555
H2 C7 1_555 1_555
C8 C7 1_555 1_555
H3 C8 1_555 1_555
C9 C8 1_555 1_555
C10 C9 1_555 1_555
C11 C10 1_555 1_555
C12 C11 1_555 1_555
H4 C12 1_555 1_555
C13 C12 1_555 1_555
H5 C13 1_555 1_555
C14 C13 1_555 1_555
C15 C1 1_555 1_555
C16 C3 1_555 1_555
C17 C16 1_555 1_555
C18 C17 1_555 1_555
H6 C18 1_555 1_555
C19 C18 1_555 1_555
H7 C19 1_555 1_555
C20 C19 1_555 1_555
H8 C20 1_555 1_555
C21 C16 1_555 1_555
H9 C21 1_555 1_555
C22 C10 1_555 1_555
C23 C22 1_555 1_555
H10 C23 1_555 1_555
C24 C23 1_555 1_555
H11 C24 1_555 1_555
C25 C24 1_555 1_555
H12 C25 1_555 1_555
C26 C25 1_555 1_555
H13 C26 1_555 1_555
C27 C22 1_555 1_555
H14 C27 1_555 1_555
C28 C15 1_555 1_555
C29 C28 1_555 1_555
H15 C29 1_555 1_555
C30 C29 1_555 1_555
H16 C30 1_555 1_555
C31 C30 1_555 1_555
H17 C31 1_555 1_555
C32 C31 1_555 1_555
H18 C32 1_555 1_555
C33 C28 1_555 1_555
H19 C33 1_555 1_555
C34 H20 1_555 1_555
H21 C34 1_555 1_555
H22 C34 1_555 1_555
S1 C5 1_555 1_555
O1 C34 1_555 1_555
N1 C1 1_555 1_555
N2 C6 1_555 1_555
N3 C11 1_555 1_555
B1 O1 1_555 1_555
C35 H23 1_555 1_555
H24 C35 1_555 1_555
H25 C35 1_555 1_555
O2 C35 1_555 1_555
H26 O2 1_555 1_555
C4 N1 1_555 1_555
C9 N2 1_555 1_555
C14 C15 1_555 1_555
C14 N3 1_555 1_555
C17 S1 1_555 1_555
C20 C21 1_555 1_555
C26 C27 1_555 1_555
C32 C33 1_555 1_555
N1 B1 1_555 1_555
N2 B1 1_555 1_555
N3 B1 1_555 1_555

#END
