
#######################################################################
#
#                 Cambridge Crystallographic Data Centre
#                                CCDC 
#
#######################################################################
#
# If this CIF has been generated from an entry in the Cambridge 
# Structural Database, then it will include bibliographic, chemical, 
# crystal, experimental, refinement or atomic coordinate data resulting 
# from the CCDC's data processing and validation procedures.
#
#######################################################################

data_JOTTUJ
_chemical_formula_moiety         'C32 H23 B1 N4 O1'
_chemical_name_systematic        
(2,7-diphenyl-12-(1H-pyrrol-1-yl)-16,17,18-triazatetracyclo[11.2.1.1^3,6^.1^8,11^]octadeca-1(16),2,4,6,8,10,12,14-octaenato)(methanolato)boron
_symmetry_cell_setting           triclinic
_symmetry_space_group_name_H-M   'P -1'
_symmetry_Int_Tables_number      2
_space_group_name_Hall           '-P 1'
loop_
_symmetry_equiv_pos_site_id
_symmetry_equiv_pos_as_xyz
1 x,y,z
2 -x,-y,-z
_cell_length_a                   7.8449(12)
_cell_length_b                   13.1710(16)
_cell_length_c                   13.6748(13)
_cell_angle_alpha                109.38(4)
_cell_angle_beta                 105.02(4)
_cell_angle_gamma                104.08(6)
_cell_volume                     1200.34
_cell_formula_units_Z            2
loop_
_atom_site_label
_atom_site_type_symbol
_atom_site_fract_x
_atom_site_fract_y
_atom_site_fract_z
N1 N 0.2968(2) 0.13980(16) 0.64918(15)
O1 O 0.1577(2) 0.12091(14) 0.78277(12)
N2 N 0.4797(3) 0.26370(16) 0.84047(15)
N3 N 0.4339(2) 0.06361(16) 0.77013(15)
N4 N 0.3706(3) 0.44289(16) 0.69312(15)
C1 C 0.3724(3) 0.3425(2) 0.71191(18)
C2 C 0.2493(3) 0.0413(2) 0.55624(18)
C3 C 0.8006(3) 0.1400(2) 1.10383(19)
H1 H 0.6829 0.0784 1.0751
C4 C 0.5822(3) 0.0830(2) 0.86131(18)
C5 C 1.0035(3) 0.3027(2) 1.09597(19)
H2 H 1.0256 0.3529 1.0605
C6 C 1.1444(3) 0.3195(2) 1.1896(2)
H3 H 1.2619 0.3816 1.2194
C7 C 0.2867(3) 0.2311(2) 0.62330(18)
C8 C 0.2547(3) -0.1707(2) 0.37448(19)
H4 H 0.3047 -0.1023 0.3659
C9 C 0.6353(3) 0.4536(2) 0.91264(18)
H5 H 0.6690 0.5323 0.9247
C10 C 0.3998(3) -0.03508(19) 0.67982(18)
C11 C 0.2391(3) -0.16426(19) 0.47564(18)
C12 C 0.6296(3) 0.2883(2) 0.93316(17)
C13 C 0.2903(3) -0.0531(2) 0.57088(18)
C14 C 0.2083(3) 0.1826(2) 0.50350(18)
H6 H 0.1777 0.2232 0.4598
C15 C 0.4825(3) 0.3583(2) 0.81962(18)
C16 C 0.1849(3) 0.0681(2) 0.46276(18)
H7 H 0.1350 0.0156 0.3862
C17 C 0.5252(3) -0.0876(2) 0.7206(2)
H8 H 0.5310 -0.1595 0.6785
C18 C 0.8274(3) 0.2134(2) 1.05113(17)
C19 C 0.6742(3) 0.1955(2) 0.95021(18)
C20 C 1.1151(3) 0.2460(2) 1.2401(2)
H9 H 1.2133 0.2571 1.3047
C21 C 0.7244(3) 0.4111(2) 0.98133(18)
H10 H 0.8309 0.4555 1.0493
C22 C 0.3494(3) 0.5361(2) 0.7655(2)
H11 H 0.3384 0.5451 0.8352
C23 C 0.3837(3) 0.4595(2) 0.60087(19)
H12 H 0.4000 0.4070 0.5400
C24 C 0.1970(3) -0.2774(2) 0.2872(2)
H13 H 0.2058 -0.2819 0.2180
C25 C 0.6345(3) -0.0172(2) 0.82994(19)
H14 H 0.7286 -0.0318 0.8771
C26 C 0.1136(3) -0.3709(2) 0.3956(2)
H15 H 0.0660 -0.4407 0.4026
C27 C 0.9444(3) 0.1563(2) 1.1978(2)
H16 H 0.9255 0.1056 1.2330
C28 C 0.1665(3) -0.2674(2) 0.4842(2)
H17 H 0.1537 -0.2656 0.5518
C29 C 0.1658(4) 0.1566(2) 0.8932(2)
H18 H 0.2397 0.1210 0.9311
H19 H 0.0372 0.1327 0.8931
H20 H 0.2261 0.2408 0.9326
C30 C 0.1283(4) -0.3753(2) 0.2985(2)
H21 H 0.0899 -0.4479 0.2375
B1 B 0.3316(4) 0.1453(2) 0.7637(2)
C31 C 0.3470(4) 0.6168(2) 0.7172(3)
H22 H 0.3336 0.6892 0.7475
C32 C 0.3695(4) 0.5641(2) 0.6106(2)
H23 H 0.3735 0.5964 0.5582
loop_
_geom_bond_atom_site_label_1
_geom_bond_atom_site_label_2
_geom_bond_site_symmetry_1
_geom_bond_site_symmetry_2
N1 C2 1_555 1_555
O1 C29 1_555 1_555
N2 C12 1_555 1_555
N3 C4 1_555 1_555
N4 C1 1_555 1_555
C1 C7 1_555 1_555
C2 C13 1_555 1_555
C3 H1 1_555 1_555
C4 C19 1_555 1_555
C5 H2 1_555 1_555
C6 C5 1_555 1_555
H3 C6 1_555 1_555
C7 N1 1_555 1_555
C8 H4 1_555 1_555
C9 H5 1_555 1_555
C10 N3 1_555 1_555
C11 C8 1_555 1_555
C12 C19 1_555 1_555
C13 C10 1_555 1_555
C14 C7 1_555 1_555
H6 C14 1_555 1_555
C15 N2 1_555 1_555
C16 C2 1_555 1_555
H7 C16 1_555 1_555
C17 C10 1_555 1_555
H8 C17 1_555 1_555
C18 C3 1_555 1_555
C19 C18 1_555 1_555
C20 C6 1_555 1_555
H9 C20 1_555 1_555
C21 C9 1_555 1_555
H10 C21 1_555 1_555
C22 N4 1_555 1_555
H11 C22 1_555 1_555
C23 N4 1_555 1_555
H12 C23 1_555 1_555
C24 C8 1_555 1_555
H13 C24 1_555 1_555
C25 C4 1_555 1_555
H14 C25 1_555 1_555
C26 H15 1_555 1_555
C27 C3 1_555 1_555
H16 C27 1_555 1_555
C28 C11 1_555 1_555
H17 C28 1_555 1_555
C29 H18 1_555 1_555
H19 C29 1_555 1_555
H20 C29 1_555 1_555
C30 C24 1_555 1_555
H21 C30 1_555 1_555
B1 N1 1_555 1_555
C31 C22 1_555 1_555
H22 C31 1_555 1_555
C32 C23 1_555 1_555
H23 C32 1_555 1_555
O1 B1 1_555 1_555
N2 B1 1_555 1_555
N3 B1 1_555 1_555
C1 C15 1_555 1_555
C5 C18 1_555 1_555
C9 C15 1_555 1_555
C11 C13 1_555 1_555
C12 C21 1_555 1_555
C14 C16 1_555 1_555
C17 C25 1_555 1_555
C20 C27 1_555 1_555
C26 C28 1_555 1_555
C26 C30 1_555 1_555
C31 C32 1_555 1_555

#END
