
#######################################################################
#
#                 Cambridge Crystallographic Data Centre
#                                CCDC 
#
#######################################################################
#
# If this CIF has been generated from an entry in the Cambridge 
# Structural Database, then it will include bibliographic, chemical, 
# crystal, experimental, refinement or atomic coordinate data resulting 
# from the CCDC's data processing and validation procedures.
#
#######################################################################

data_JOVFAD
_chemical_formula_moiety         'C8 H16 B10'
_chemical_name_systematic        
1,3-(Cyclohexa-1,4-diene-3,6-diyl)-1,2-dicarba-closo-dodecaborane
_symmetry_cell_setting           monoclinic
_symmetry_space_group_name_H-M   'P 21/n'
_symmetry_Int_Tables_number      14
_space_group_name_Hall           '-P 2yn'
loop_
_symmetry_equiv_pos_site_id
_symmetry_equiv_pos_as_xyz
1 x,y,z
2 1/2-x,1/2+y,1/2-z
3 -x,-y,-z
4 1/2+x,1/2-y,1/2+z
_cell_length_a                   7.9590(7)
_cell_length_b                   13.3832(11)
_cell_length_c                   12.4488(11)
_cell_angle_alpha                90
_cell_angle_beta                 103.446(2)
_cell_angle_gamma                90
_cell_volume                     1289.66
_exptl_crystal_colour            colorless
_exptl_crystal_description       block
_cell_formula_units_Z            4
loop_
_atom_site_label
_atom_site_type_symbol
_atom_site_fract_x
_atom_site_fract_y
_atom_site_fract_z
B1 B 1.0332(3) 0.3419(2) 0.6398(2)
B2 B 1.1068(4) 0.2789(2) 0.7678(2)
H1 H 1.1245 0.3161 0.8484
B3 B 1.0250(5) 0.1562(2) 0.7487(2)
H2 H 0.9861 0.1153 0.8156
B4 B 0.9113(4) 0.1407(2) 0.6090(2)
H3 H 0.7990 0.0908 0.5852
B5 B 1.1351(4) 0.2860(2) 0.5419(2)
H4 H 1.1674 0.3293 0.4743
B6 B 1.2493(4) 0.3019(2) 0.6809(2)
H5 H 1.3569 0.3552 0.7036
B7 B 1.2446(4) 0.1830(2) 0.7480(2)
H6 H 1.3524 0.1580 0.8150
B8 B 1.1269(5) 0.0967(2) 0.6523(3)
H7 H 1.1567 0.0164 0.6574
B9 B 1.0609(4) 0.1596(2) 0.5243(2)
H8 H 1.0463 0.1206 0.4449
B10 B 1.2661(4) 0.1864(2) 0.6098(2)
H9 H 1.3864 0.1644 0.5870
C1 C 0.9070(3) 0.2551(2) 0.67857(19)
C2 C 0.9358(3) 0.25141(17) 0.54975(17)
H10 H 0.8299 0.2732 0.4799
C3 C 0.9309(3) 0.4471(2) 0.6340(2)
H11 H 0.9952 0.5027 0.6115
C4 C 0.7550(3) 0.4329(2) 0.5571(2)
H12 H 0.7183 0.4701 0.4929
C5 C 0.6573(3) 0.3640(2) 0.5877(2)
H13 H 0.5470 0.3489 0.5466
C6 C 0.7379(3) 0.3112(2) 0.6949(2)
H14 H 0.6568 0.2656 0.7183
C7 C 0.8975(4) 0.4621(2) 0.7488(3)
H15 H 0.9431 0.5155 0.7940
C8 C 0.7999(4) 0.3939(3) 0.7785(2)
H16 H 0.7701 0.3958 0.8464
loop_
_geom_bond_atom_site_label_1
_geom_bond_atom_site_label_2
_geom_bond_site_symmetry_1
_geom_bond_site_symmetry_2
B1 B2 1_555 1_555
B2 H1 1_555 1_555
B3 B2 1_555 1_555
H2 B3 1_555 1_555
B4 B3 1_555 1_555
H3 B4 1_555 1_555
B5 B1 1_555 1_555
H4 B5 1_555 1_555
B6 B1 1_555 1_555
H5 B6 1_555 1_555
B7 B2 1_555 1_555
H6 B7 1_555 1_555
B8 B3 1_555 1_555
H7 B8 1_555 1_555
B9 B4 1_555 1_555
H8 B9 1_555 1_555
B10 B5 1_555 1_555
H9 B10 1_555 1_555
C1 B1 1_555 1_555
C2 B1 1_555 1_555
H10 C2 1_555 1_555
C3 B1 1_555 1_555
H11 C3 1_555 1_555
C4 C3 1_555 1_555
H12 C4 1_555 1_555
C5 C4 1_555 1_555
H13 C5 1_555 1_555
C6 C1 1_555 1_555
H14 C6 1_555 1_555
C7 C3 1_555 1_555
H15 C7 1_555 1_555
C8 C6 1_555 1_555
H16 C8 1_555 1_555
B2 B6 1_555 1_555
B2 C1 1_555 1_555
B3 B7 1_555 1_555
B3 C1 1_555 1_555
B4 B8 1_555 1_555
B4 C1 1_555 1_555
B4 C2 1_555 1_555
B5 B6 1_555 1_555
B5 B9 1_555 1_555
B5 C2 1_555 1_555
B6 B7 1_555 1_555
B6 B10 1_555 1_555
B7 B8 1_555 1_555
B7 B10 1_555 1_555
B8 B9 1_555 1_555
B8 B10 1_555 1_555
B9 B10 1_555 1_555
B9 C2 1_555 1_555
C1 C2 1_555 1_555
C5 C6 1_555 1_555
C7 C8 1_555 1_555

#END
