
#######################################################################
#
#                 Cambridge Crystallographic Data Centre
#                                CCDC 
#
#######################################################################
#
# If this CIF has been generated from an entry in the Cambridge 
# Structural Database, then it will include bibliographic, chemical, 
# crystal, experimental, refinement or atomic coordinate data resulting 
# from the CCDC's data processing and validation procedures.
#
#######################################################################

data_JOVFIL
_chemical_formula_moiety         'C10 H20 B10'
_chemical_name_systematic        
1,3-(1,4-Dimethylcyclohexa-1,4-diene-3,6-diyl)-1,2-dicarba-closo-dodecaborane
_symmetry_cell_setting           monoclinic
_symmetry_space_group_name_H-M   'C 2/c'
_symmetry_Int_Tables_number      15
_space_group_name_Hall           '-C 2yn'
loop_
_symmetry_equiv_pos_site_id
_symmetry_equiv_pos_as_xyz
1 x,y,z
2 -x,y,1/2-z
3 1/2+x,1/2+y,z
4 1/2-x,1/2+y,1/2-z
5 -x,-y,-z
6 x,-y,1/2+z
7 1/2-x,1/2-y,-z
8 1/2+x,1/2-y,1/2+z
_cell_length_a                   25.739(19)
_cell_length_b                   6.739(4)
_cell_length_c                   17.205(13)
_cell_angle_alpha                90
_cell_angle_beta                 98.913(17)
_cell_angle_gamma                90
_cell_volume                     2948.26
_exptl_crystal_colour            colorless
_exptl_crystal_description       block
_cell_formula_units_Z            8
loop_
_atom_site_label
_atom_site_type_symbol
_atom_site_fract_x
_atom_site_fract_y
_atom_site_fract_z
C1 C 0.09445(15) 0.1240(6) 0.0197(2)
C2 C 0.13641(14) -0.0092(6) -0.0239(2)
H1 H 0.1503 -0.1543 0.0002
C3 C 0.08683(14) 0.0500(6) 0.1061(2)
H2 H 0.0512 -0.0002 0.1072
C4 C 0.12770(15) -0.1028(6) 0.1324(2)
H3 H 0.1188 -0.2319 0.1442
C5 C 0.17668(15) -0.0459(6) 0.1380(2)
C6 C 0.22467(18) -0.1692(7) 0.1614(3)
H4 H 0.2145 -0.3025 0.1717
H5 H 0.2450 -0.1146 0.2080
H6 H 0.2454 -0.1699 0.1196
C7 C 0.18267(15) 0.1714(6) 0.1184(2)
H7 H 0.2194 0.2157 0.1283
C8 C 0.05695(18) 0.3241(7) 0.1949(3)
H8 H 0.0712 0.4344 0.2266
H9 H 0.0425 0.2296 0.2274
H10 H 0.0298 0.3702 0.1543
C9 C 0.09915(15) 0.2288(6) 0.1587(2)
C10 C 0.14830(16) 0.2859(6) 0.1649(2)
H11 H 0.1612 0.3923 0.1966
B1 B 0.07389(17) 0.0000(7) -0.0694(3)
H12 H 0.0460 -0.1247 -0.0751
B2 B 0.05360(18) 0.2439(7) -0.0552(3)
H13 H 0.0122 0.2783 -0.0522
B3 B 0.10511(17) 0.3711(6) 0.0018(2)
H14 H 0.0971 0.4928 0.0408
B4 B 0.15619(17) 0.1993(6) 0.0274(2)
B5 B 0.12831(19) 0.0096(7) -0.1211(3)
H15 H 0.1360 -0.1089 -0.1619
B6 B 0.0762(2) 0.1756(7) -0.1443(3)
H16 H 0.0495 0.1669 -0.2008
B7 B 0.09525(19) 0.4037(7) -0.0996(3)
H17 H 0.0809 0.5444 -0.1274
B8 B 0.15990(18) 0.3782(7) -0.0458(2)
H18 H 0.1882 0.5014 -0.0373
B9 B 0.18047(18) 0.1332(7) -0.0594(3)
H19 H 0.2221 0.0951 -0.0591
B10 B 0.1418(2) 0.2602(7) -0.1374(3)
H20 H 0.1584 0.3080 -0.1895
loop_
_geom_bond_atom_site_label_1
_geom_bond_atom_site_label_2
_geom_bond_site_symmetry_1
_geom_bond_site_symmetry_2
C1 C2 1_555 1_555
C2 H1 1_555 1_555
C3 C1 1_555 1_555
H2 C3 1_555 1_555
C4 C3 1_555 1_555
H3 C4 1_555 1_555
C5 C4 1_555 1_555
C6 C5 1_555 1_555
H4 C6 1_555 1_555
H5 C6 1_555 1_555
H6 C6 1_555 1_555
C7 C5 1_555 1_555
H7 C7 1_555 1_555
C8 H8 1_555 1_555
H9 C8 1_555 1_555
H10 C8 1_555 1_555
C9 C3 1_555 1_555
C10 C7 1_555 1_555
H11 C10 1_555 1_555
B1 C1 1_555 1_555
H12 B1 1_555 1_555
B2 C1 1_555 1_555
H13 B2 1_555 1_555
B3 C1 1_555 1_555
H14 B3 1_555 1_555
B4 C1 1_555 1_555
B5 C2 1_555 1_555
H15 B5 1_555 1_555
B6 B1 1_555 1_555
H16 B6 1_555 1_555
B7 B2 1_555 1_555
H17 B7 1_555 1_555
B8 B3 1_555 1_555
H18 B8 1_555 1_555
B9 C2 1_555 1_555
H19 B9 1_555 1_555
B10 B5 1_555 1_555
H20 B10 1_555 1_555
C2 B1 1_555 1_555
C2 B4 1_555 1_555
C7 B4 1_555 1_555
C8 C9 1_555 1_555
C9 C10 1_555 1_555
B1 B2 1_555 1_555
B1 B5 1_555 1_555
B2 B3 1_555 1_555
B2 B6 1_555 1_555
B3 B4 1_555 1_555
B3 B7 1_555 1_555
B4 B8 1_555 1_555
B4 B9 1_555 1_555
B5 B6 1_555 1_555
B5 B9 1_555 1_555
B6 B7 1_555 1_555
B6 B10 1_555 1_555
B7 B8 1_555 1_555
B7 B10 1_555 1_555
B8 B9 1_555 1_555
B8 B10 1_555 1_555
B9 B10 1_555 1_555

#END
