
#######################################################################
#
#                 Cambridge Crystallographic Data Centre
#                                CCDC 
#
#######################################################################
#
# If this CIF has been generated from an entry in the Cambridge 
# Structural Database, then it will include bibliographic, chemical, 
# crystal, experimental, refinement or atomic coordinate data resulting 
# from the CCDC's data processing and validation procedures.
#
#######################################################################

data_JOVFOR
_chemical_formula_moiety         'C10 H20 B10'
_chemical_name_systematic        
3-(2,3-Dimethylphenyl)-1,2-dicarba-closo-dodecaborane
_symmetry_cell_setting           orthorhombic
_symmetry_space_group_name_H-M   'P b c n'
_symmetry_Int_Tables_number      60
_space_group_name_Hall           '-P 2n 2ab'
loop_
_symmetry_equiv_pos_site_id
_symmetry_equiv_pos_as_xyz
1 x,y,z
2 1/2-x,1/2-y,1/2+z
3 -x,y,1/2-z
4 1/2+x,1/2-y,-z
5 -x,-y,-z
6 1/2+x,1/2+y,1/2-z
7 x,-y,1/2+z
8 1/2-x,1/2+y,z
_cell_length_a                   20.088(6)
_cell_length_b                   6.8027(19)
_cell_length_c                   21.657(7)
_cell_angle_alpha                90
_cell_angle_beta                 90
_cell_angle_gamma                90
_cell_volume                     2959.49
_exptl_crystal_colour            colorless
_exptl_crystal_description       block
_cell_formula_units_Z            8
loop_
_atom_site_label
_atom_site_type_symbol
_atom_site_fract_x
_atom_site_fract_y
_atom_site_fract_z
B1 B 0.1152(2) 0.2658(7) 0.1856(2)
B2 B 0.0440(3) 0.1381(10) 0.1567(3)
H1 H 0.0041 0.0986 0.1892
B3 B 0.0243(3) 0.2059(10) 0.0807(3)
H2 H -0.0274 0.2111 0.0641
B4 B 0.0850(4) 0.3807(9) 0.0569(3)
H3 H 0.0742 0.5022 0.0249
B5 B 0.1801(3) 0.1956(9) 0.1336(3)
H4 H 0.2320 0.1950 0.1499
B6 B 0.1210(3) 0.0219(8) 0.1572(3)
H5 H 0.1331 -0.0975 0.1895
B7 B 0.0659(3) -0.0122(9) 0.0943(3)
H6 H 0.0419 -0.1551 0.0860
B8 B 0.0899(3) 0.1382(8) 0.0332(3)
H7 H 0.0816 0.0974 -0.0153
B9 B 0.1602(4) 0.2630(12) 0.0577(3)
H8 H 0.1996 0.3058 0.0251
B10 B 0.1494(3) 0.0217(10) 0.0798(3)
H9 H 0.1807 -0.0977 0.0617
C1 C 0.0589(3) 0.3621(7) 0.1322(3)
H10 H 0.0273 0.4817 0.1498
C2 C 0.1354(3) 0.3986(7) 0.1196(2)
H11 H 0.1580 0.5433 0.1284
C3 C 0.12083(19) 0.3647(5) 0.2514(2)
C4 C 0.1556(2) 0.2808(6) 0.3014(2)
C5 C 0.1553(2) 0.3722(7) 0.3589(2)
C6 C 0.1216(3) 0.5481(8) 0.3664(3)
H12 H 0.1210 0.6081 0.4049
C7 C 0.0893(2) 0.6346(7) 0.3182(3)
H13 H 0.0680 0.7549 0.3235
C8 C 0.0883(2) 0.5432(6) 0.2618(2)
H14 H 0.0653 0.6019 0.2294
C9 C 0.1965(3) 0.0944(7) 0.2945(3)
H15 H 0.2158 0.0602 0.3336
H16 H 0.2312 0.1157 0.2648
H17 H 0.1683 -0.0107 0.2807
C10 C 0.1916(3) 0.2850(9) 0.4141(2)
H18 H 0.1857 0.3689 0.4494
H19 H 0.2382 0.2740 0.4049
H20 H 0.1739 0.1571 0.4231
loop_
_geom_bond_atom_site_label_1
_geom_bond_atom_site_label_2
_geom_bond_site_symmetry_1
_geom_bond_site_symmetry_2
B1 B2 1_555 1_555
B2 H1 1_555 1_555
B3 B2 1_555 1_555
H2 B3 1_555 1_555
B4 B3 1_555 1_555
H3 B4 1_555 1_555
B5 B1 1_555 1_555
H4 B5 1_555 1_555
B6 B1 1_555 1_555
H5 B6 1_555 1_555
B7 B2 1_555 1_555
H6 B7 1_555 1_555
B8 B3 1_555 1_555
H7 B8 1_555 1_555
B9 B4 1_555 1_555
H8 B9 1_555 1_555
B10 B5 1_555 1_555
H9 B10 1_555 1_555
C1 B1 1_555 1_555
H10 C1 1_555 1_555
C2 B1 1_555 1_555
H11 C2 1_555 1_555
C3 B1 1_555 1_555
C4 C3 1_555 1_555
C5 C4 1_555 1_555
C6 C5 1_555 1_555
H12 C6 1_555 1_555
C7 C6 1_555 1_555
H13 C7 1_555 1_555
C8 C3 1_555 1_555
H14 C8 1_555 1_555
C9 C4 1_555 1_555
H15 C9 1_555 1_555
H16 C9 1_555 1_555
H17 C9 1_555 1_555
C10 C5 1_555 1_555
H18 C10 1_555 1_555
H19 C10 1_555 1_555
H20 C10 1_555 1_555
B2 B6 1_555 1_555
B2 C1 1_555 1_555
B3 B7 1_555 1_555
B3 C1 1_555 1_555
B4 B8 1_555 1_555
B4 C1 1_555 1_555
B4 C2 1_555 1_555
B5 B6 1_555 1_555
B5 B9 1_555 1_555
B5 C2 1_555 1_555
B6 B7 1_555 1_555
B6 B10 1_555 1_555
B7 B8 1_555 1_555
B7 B10 1_555 1_555
B8 B9 1_555 1_555
B8 B10 1_555 1_555
B9 B10 1_555 1_555
B9 C2 1_555 1_555
C1 C2 1_555 1_555
C7 C8 1_555 1_555

#END
