
#######################################################################
#
#                 Cambridge Crystallographic Data Centre
#                                CCDC 
#
#######################################################################
#
# If this CIF has been generated from an entry in the Cambridge 
# Structural Database, then it will include bibliographic, chemical, 
# crystal, experimental, refinement or atomic coordinate data resulting 
# from the CCDC's data processing and validation procedures.
#
#######################################################################

data_JOVGUY
_chemical_formula_moiety         'C32 H28 N3 O3 S1 1+,H2 O1,Br1 1-'
_chemical_name_systematic        
'2-Methyl-3-((1-((4-methylphenyl)sulfonyl)-1H-indol-3-yl)methyl)-1-(2-(2-naphthyl)-2-oxoethyl)-1H-imidazol-3-ium bromide monohydrate'
_symmetry_cell_setting           monoclinic
_symmetry_space_group_name_H-M   'P 21/c'
_symmetry_Int_Tables_number      14
_space_group_name_Hall           '-P 2ybc'
loop_
_symmetry_equiv_pos_site_id
_symmetry_equiv_pos_as_xyz
1 x,y,z
2 -x,1/2+y,1/2-z
3 -x,-y,-z
4 x,1/2-y,1/2+z
_cell_length_a                   19.632(2)
_cell_length_b                   20.588(2)
_cell_length_c                   7.4367(8)
_cell_angle_alpha                90
_cell_angle_beta                 99.3810(10)
_cell_angle_gamma                90
_cell_volume                     2965.59
_exptl_crystal_colour            colorless
_exptl_crystal_description       block
_cell_formula_units_Z            4
loop_
_atom_site_label
_atom_site_type_symbol
_atom_site_fract_x
_atom_site_fract_y
_atom_site_fract_z
Br1 Br 0.98160(2) 0.129179(19) 1.01844(5)
S1 S 0.64939(5) -0.12721(5) 0.46250(15)
O1 O 0.61242(14) -0.17996(14) 0.5259(4)
O2 O 0.65928(14) -0.06816(13) 0.5611(4)
O3 O 0.75387(13) 0.06082(13) 0.2995(4)
N1 N 0.72823(14) -0.15382(15) 0.4504(4)
N2 N 0.91174(14) -0.04976(14) 0.4408(4)
N3 N 0.89013(14) 0.05267(14) 0.4165(4)
C1 C 0.5084(3) -0.0562(3) -0.2972(7)
H1 H 0.4791 -0.0913 -0.3474
H2 H 0.5413 -0.0468 -0.3761
H3 H 0.4809 -0.0183 -0.2862
C2 C 0.5461(2) -0.0753(3) -0.1117(7)
C3 C 0.5906(2) -0.0338(3) -0.0087(7)
H4 H 0.5989 0.0066 -0.0565
C4 C 0.6239(2) -0.0498(2) 0.1652(6)
H5 H 0.6543 -0.0205 0.2313
C5 C 0.61166(18) -0.1092(2) 0.2387(6)
C6 C 0.5690(2) -0.1528(3) 0.1344(8)
H6 H 0.5615 -0.1938 0.1796
C7 C 0.5373(3) -0.1348(3) -0.0390(9)
H7 H 0.5088 -0.1646 -0.1086
C8 C 0.78295(18) -0.11152(18) 0.4392(5)
H8 H 0.7810 -0.0665 0.4476
C9 C 0.83912(18) -0.14615(17) 0.4144(5)
C10 C 0.82003(18) -0.21338(16) 0.4061(5)
C11 C 0.75065(19) -0.21778(17) 0.4276(5)
C12 C 0.7168(2) -0.27694(18) 0.4302(5)
H9 H 0.6708 -0.2793 0.4451
C13 C 0.7547(2) -0.3316(2) 0.4097(5)
H10 H 0.7334 -0.3720 0.4097
C14 C 0.8237(2) -0.32875(19) 0.3888(5)
H11 H 0.8476 -0.3670 0.3759
C15 C 0.8574(2) -0.27000(18) 0.3870(5)
H12 H 0.9036 -0.2681 0.3735
C16 C 0.90948(19) -0.11976(16) 0.4017(6)
H13 H 0.9440 -0.1420 0.4884
H14 H 0.9199 -0.1273 0.2804
C17 C 0.92796(18) -0.0233(2) 0.6136(6)
H15 H 0.9449 -0.0455 0.7204
C18 C 0.91461(19) 0.0404(2) 0.5978(5)
H16 H 0.9207 0.0708 0.6917
C19 C 0.88884(18) -0.00286(17) 0.3229(5)
C20 C 0.8675(2) -0.01153(17) 0.1240(5)
H17 H 0.8713 -0.0565 0.0933
H18 H 0.8969 0.0139 0.0602
H19 H 0.8205 0.0024 0.0895
C21 C 0.86227(18) 0.11446(16) 0.3461(5)
H20 H 0.8804 0.1250 0.2359
H21 H 0.8767 0.1482 0.4351
C22 C 0.7840(2) 0.11252(19) 0.3045(5)
C23 C 0.74702(19) 0.17483(19) 0.2627(5)
C24 C 0.7790(2) 0.23415(17) 0.2944(5)
H22 H 0.8258 0.2354 0.3423
C25 C 0.7430(2) 0.29285(18) 0.2564(5)
C26 C 0.7755(2) 0.3537(2) 0.2876(6)
H23 H 0.8222 0.3557 0.3360
C27 C 0.7390(3) 0.4097(2) 0.2474(6)
H24 H 0.7609 0.4496 0.2693
C28 C 0.6691(3) 0.4074(2) 0.1737(7)
H25 H 0.6448 0.4458 0.1456
C29 C 0.6360(3) 0.3496(3) 0.1425(7)
H26 H 0.5893 0.3491 0.0941
C30 C 0.6715(2) 0.2900(2) 0.1821(6)
C31 C 0.6408(2) 0.2288(2) 0.1466(6)
H27 H 0.5946 0.2265 0.0934
C32 C 0.6763(2) 0.1733(2) 0.1873(6)
H28 H 0.6539 0.1336 0.1655
O4 O 0.94106(18) 0.21870(14) 0.6342(4)
H29 H 0.9832 0.2097 0.6326
H30 H 0.9305 0.2490 0.7022
loop_
_geom_bond_atom_site_label_1
_geom_bond_atom_site_label_2
_geom_bond_site_symmetry_1
_geom_bond_site_symmetry_2
S1 O1 1_555 1_555
O2 S1 1_555 1_555
O3 C22 1_555 1_555
N1 S1 1_555 1_555
N2 C16 1_555 1_555
N3 C18 1_555 1_555
C1 H1 1_555 1_555
H2 C1 1_555 1_555
H3 C1 1_555 1_555
C2 C1 1_555 1_555
C3 C2 1_555 1_555
H4 C3 1_555 1_555
C4 C3 1_555 1_555
H5 C4 1_555 1_555
C5 S1 1_555 1_555
C6 C5 1_555 1_555
H6 C6 1_555 1_555
C7 C2 1_555 1_555
H7 C7 1_555 1_555
C8 N1 1_555 1_555
H8 C8 1_555 1_555
C9 C8 1_555 1_555
C10 C9 1_555 1_555
C11 N1 1_555 1_555
C12 C11 1_555 1_555
H9 C12 1_555 1_555
C13 C12 1_555 1_555
H10 C13 1_555 1_555
C14 C13 1_555 1_555
H11 C14 1_555 1_555
C15 C10 1_555 1_555
H12 C15 1_555 1_555
C16 C9 1_555 1_555
H13 C16 1_555 1_555
H14 C16 1_555 1_555
C17 N2 1_555 1_555
H15 C17 1_555 1_555
C18 C17 1_555 1_555
H16 C18 1_555 1_555
C19 N2 1_555 1_555
C20 C19 1_555 1_555
H17 C20 1_555 1_555
H18 C20 1_555 1_555
H19 C20 1_555 1_555
C21 N3 1_555 1_555
H20 C21 1_555 1_555
H21 C21 1_555 1_555
C22 C21 1_555 1_555
C23 C22 1_555 1_555
C24 C23 1_555 1_555
H22 C24 1_555 1_555
C25 C24 1_555 1_555
C26 C25 1_555 1_555
H23 C26 1_555 1_555
C27 C26 1_555 1_555
H24 C27 1_555 1_555
C28 C27 1_555 1_555
H25 C28 1_555 1_555
C29 C28 1_555 1_555
H26 C29 1_555 1_555
C30 C25 1_555 1_555
C31 C30 1_555 1_555
H27 C31 1_555 1_555
C32 C23 1_555 1_555
H28 C32 1_555 1_555
O4 H29 1_555 1_555
H30 O4 1_555 1_555
N3 C19 1_555 1_555
C4 C5 1_555 1_555
C6 C7 1_555 1_555
C10 C11 1_555 1_555
C14 C15 1_555 1_555
C29 C30 1_555 1_555
C31 C32 1_555 1_555

#END
