
#######################################################################
#
#                 Cambridge Crystallographic Data Centre
#                                CCDC 
#
#######################################################################
#
# If this CIF has been generated from an entry in the Cambridge 
# Structural Database, then it will include bibliographic, chemical, 
# crystal, experimental, refinement or atomic coordinate data resulting 
# from the CCDC's data processing and validation procedures.
#
#######################################################################

data_JOVHEJ
_chemical_formula_moiety         'C35 H28 N3 O3 S1 1+,H2 O1,Br1 1-'
_chemical_name_systematic        
'3-((1-((4-Methylphenyl)sulfonyl)-1H-indol-3-yl)methyl)-1-(2-(2-naphthyl)-2-oxoethyl)-1H-benzimidazol-3-ium bromide monohydrate'
_symmetry_cell_setting           monoclinic
_symmetry_space_group_name_H-M   'P 21/c'
_symmetry_Int_Tables_number      14
_space_group_name_Hall           '-P 2ybc'
loop_
_symmetry_equiv_pos_site_id
_symmetry_equiv_pos_as_xyz
1 x,y,z
2 -x,1/2+y,1/2-z
3 -x,-y,-z
4 x,1/2-y,1/2+z
_cell_length_a                   15.523(3)
_cell_length_b                   12.289(2)
_cell_length_c                   17.378(3)
_cell_angle_alpha                90
_cell_angle_beta                 99.322(3)
_cell_angle_gamma                90
_cell_volume                     3271.28
_exptl_crystal_colour            yellow
_exptl_crystal_description       block
_cell_formula_units_Z            4
loop_
_atom_site_label
_atom_site_type_symbol
_atom_site_fract_x
_atom_site_fract_y
_atom_site_fract_z
Br1 Br 0.50620(4) 0.20544(5) 0.21447(4)
S1 S 0.15775(10) 0.17907(12) 1.17468(8)
O1 O 0.2300(2) 0.1914(3) 1.23665(18)
O2 O 0.0952(2) 0.0955(3) 1.17752(19)
O3 O 0.2381(3) 0.5814(3) 0.8133(2)
N1 N 0.2038(3) 0.1591(3) 1.0959(2)
N2 N 0.3843(2) 0.3255(3) 0.9569(3)
N3 N 0.3792(3) 0.4597(4) 0.8732(3)
C1 C -0.0356(6) 0.6072(6) 1.1158(5)
H1 H -0.0964 0.5948 1.1174
H2 H -0.0290 0.6351 1.0654
H3 H -0.0129 0.6589 1.1552
C2 C 0.0154(7) 0.4979(7) 1.1307(5)
C3 C 0.1048(6) 0.4935(6) 1.1334(5)
H4 H 0.1357 0.5565 1.1263
C4 C 0.1482(5) 0.3956(6) 1.1465(4)
H5 H 0.2084 0.3928 1.1487
C5 C 0.1028(4) 0.3028(5) 1.1564(3)
C6 C 0.0151(4) 0.3072(6) 1.1553(3)
H6 H -0.0157 0.2444 1.1633
C7 C -0.0283(5) 0.4066(7) 1.1422(4)
H7 H -0.0883 0.4096 1.1413
C8 C 0.2898(3) 0.1897(4) 1.0900(3)
H8 H 0.3322 0.2087 1.1320
C9 C 0.3021(3) 0.1876(4) 1.0162(3)
C10 C 0.2203(4) 0.1566(4) 0.9688(3)
C11 C 0.1956(4) 0.1379(4) 0.8892(3)
H9 H 0.2351 0.1482 0.8550
C12 C 0.1119(4) 0.1039(4) 0.8624(3)
H10 H 0.0949 0.0889 0.8097
C13 C 0.0526(4) 0.0918(4) 0.9131(4)
H11 H -0.0044 0.0713 0.8931
C14 C 0.0748(4) 0.1090(4) 0.9922(3)
H12 H 0.0346 0.1000 1.0260
C15 C 0.1600(4) 0.1403(4) 1.0187(3)
C16 C 0.3856(3) 0.2138(4) 0.9880(3)
H13 H 0.4338 0.2062 1.0307
H14 H 0.3945 0.1626 0.9475
C17 C 0.3867(3) 0.4217(5) 0.9992(3)
C18 C 0.3940(3) 0.4390(4) 1.0793(3)
H15 H 0.3963 0.3815 1.1143
C19 C 0.3979(3) 0.5460(5) 1.1037(4)
H16 H 0.4015 0.5617 1.1565
C20 C 0.3963(4) 0.6316(5) 1.0496(4)
H17 H 0.4006 0.7027 1.0681
C21 C 0.3886(3) 0.6142(4) 0.9709(4)
H18 H 0.3858 0.6716 0.9357
C22 C 0.3852(3) 0.5075(5) 0.9467(4)
C23 C 0.3799(3) 0.3510(5) 0.8817(3)
H19 H 0.3777 0.3011 0.8412
C24 C 0.3794(3) 0.5162(4) 0.7986(3)
H20 H 0.3943 0.4651 0.7603
H21 H 0.4232 0.5732 0.8054
C25 C 0.2897(4) 0.5657(4) 0.7694(4)
C26 C 0.2733(4) 0.5998(4) 0.6862(4)
C27 C 0.1944(4) 0.6503(5) 0.6562(4)
H22 H 0.1539 0.6655 0.6888
C28 C 0.1763(5) 0.6778(6) 0.5783(5)
H23 H 0.1253 0.7158 0.5599
C29 C 0.2330(6) 0.6499(6) 0.5258(5)
C30 C 0.2127(7) 0.6734(8) 0.4444(6)
H24 H 0.1593 0.7047 0.4240
C31 C 0.2708(9) 0.6501(8) 0.3977(7)
H25 H 0.2583 0.6684 0.3451
C32 C 0.3499(8) 0.5989(6) 0.4265(6)
H26 H 0.3889 0.5814 0.3930
C33 C 0.3694(5) 0.5749(5) 0.5044(5)
H27 H 0.4223 0.5414 0.5237
C34 C 0.3104(5) 0.6001(5) 0.5557(4)
C35 C 0.3294(4) 0.5745(4) 0.6360(4)
H28 H 0.3816 0.5395 0.6551
O4 O 0.4261(3) 0.0996(4) 0.8071(3)
H29 H 0.4062 0.1514 0.8316
H30 H 0.4395 0.0393 0.8299
loop_
_geom_bond_atom_site_label_1
_geom_bond_atom_site_label_2
_geom_bond_site_symmetry_1
_geom_bond_site_symmetry_2
S1 O1 1_555 1_555
O2 S1 1_555 1_555
O3 C25 1_555 1_555
N1 S1 1_555 1_555
N2 C16 1_555 1_555
N3 C22 1_555 1_555
C1 H1 1_555 1_555
H2 C1 1_555 1_555
H3 C1 1_555 1_555
C2 C1 1_555 1_555
C3 C2 1_555 1_555
H4 C3 1_555 1_555
C4 C3 1_555 1_555
H5 C4 1_555 1_555
C5 S1 1_555 1_555
C6 C5 1_555 1_555
H6 C6 1_555 1_555
C7 C2 1_555 1_555
H7 C7 1_555 1_555
C8 N1 1_555 1_555
H8 C8 1_555 1_555
C9 C8 1_555 1_555
C10 C9 1_555 1_555
C11 C10 1_555 1_555
H9 C11 1_555 1_555
C12 C11 1_555 1_555
H10 C12 1_555 1_555
C13 C12 1_555 1_555
H11 C13 1_555 1_555
C14 C13 1_555 1_555
H12 C14 1_555 1_555
C15 N1 1_555 1_555
C16 C9 1_555 1_555
H13 C16 1_555 1_555
H14 C16 1_555 1_555
C17 N2 1_555 1_555
C18 C17 1_555 1_555
H15 C18 1_555 1_555
C19 C18 1_555 1_555
H16 C19 1_555 1_555
C20 C19 1_555 1_555
H17 C20 1_555 1_555
C21 C20 1_555 1_555
H18 C21 1_555 1_555
C22 C17 1_555 1_555
C23 N2 1_555 1_555
H19 C23 1_555 1_555
C24 N3 1_555 1_555
H20 C24 1_555 1_555
H21 C24 1_555 1_555
C25 C24 1_555 1_555
C26 C25 1_555 1_555
C27 C26 1_555 1_555
H22 C27 1_555 1_555
C28 C27 1_555 1_555
H23 C28 1_555 1_555
C29 C28 1_555 1_555
C30 C29 1_555 1_555
H24 C30 1_555 1_555
C31 C30 1_555 1_555
H25 C31 1_555 1_555
C32 C31 1_555 1_555
H26 C32 1_555 1_555
C33 C32 1_555 1_555
H27 C33 1_555 1_555
C34 C29 1_555 1_555
C35 C26 1_555 1_555
H28 C35 1_555 1_555
O4 H29 1_555 1_555
H30 O4 1_555 1_555
N3 C23 1_555 1_555
C4 C5 1_555 1_555
C6 C7 1_555 1_555
C10 C15 1_555 1_555
C14 C15 1_555 1_555
C21 C22 1_555 1_555
C33 C34 1_555 1_555
C34 C35 1_555 1_555

#END
