
#######################################################################
#
#                 Cambridge Crystallographic Data Centre
#                                CCDC 
#
#######################################################################
#
# If this CIF has been generated from an entry in the Cambridge 
# Structural Database, then it will include bibliographic, chemical, 
# crystal, experimental, refinement or atomic coordinate data resulting 
# from the CCDC's data processing and validation procedures.
#
#######################################################################

data_JOVQUI
_chemical_formula_moiety         'C17 H19 N3 O4,C3 H7 N1 O1'
_chemical_name_systematic        
'ethyl 5-((4-hydroxybenzoyl)carbonohydrazonoyl)-3,4-dimethyl-1H-pyrrole-2-carboxylate N,N-dimethylformamide solvate'
_symmetry_cell_setting           monoclinic
_symmetry_space_group_name_H-M   'P 21/n'
_symmetry_Int_Tables_number      14
_space_group_name_Hall           '-P 2yn'
loop_
_symmetry_equiv_pos_site_id
_symmetry_equiv_pos_as_xyz
1 x,y,z
2 1/2-x,1/2+y,1/2-z
3 -x,-y,-z
4 1/2+x,1/2-y,1/2+z
_cell_length_a                   8.555(3)
_cell_length_b                   19.848(6)
_cell_length_c                   12.379(4)
_cell_angle_alpha                90
_cell_angle_beta                 92.37(2)
_cell_angle_gamma                90
_cell_volume                     2100.15
_exptl_crystal_colour            colorless
_exptl_crystal_description       prism
_cell_formula_units_Z            4
loop_
_atom_site_label
_atom_site_type_symbol
_atom_site_fract_x
_atom_site_fract_y
_atom_site_fract_z
C1 C 1.7292(3) -0.32800(13) -0.2551(2)
C2 C 1.7463(3) -0.25997(13) -0.2724(2)
H1 H 1.8091 -0.2449 -0.3270
C3 C 1.6709(3) -0.21421(13) -0.2094(2)
H2 H 1.6835 -0.1684 -0.2220
C4 C 1.5770(3) -0.23509(12) -0.12785(19)
C5 C 1.5633(3) -0.30355(13) -0.1108(2)
H3 H 1.5023 -0.3188 -0.0554
C6 C 1.6374(3) -0.34949(13) -0.1734(2)
H4 H 1.6256 -0.3953 -0.1606
C7 C 1.4913(3) -0.18836(13) -0.0586(2)
C8 C 1.3461(3) -0.02571(13) -0.0802(2)
H5 H 1.3853 -0.0152 -0.1471
C9 C 1.2505(3) 0.02258(12) -0.0267(2)
C10 C 1.1972(3) 0.08497(13) -0.0639(2)
C11 C 1.1029(3) 0.11208(12) 0.0157(2)
C12 C 1.1021(3) 0.06511(12) 0.0997(2)
C13 C 1.2361(4) 0.11588(14) -0.1692(2)
H6 H 1.3027 0.0860 -0.2073
H7 H 1.2891 0.1579 -0.1564
H8 H 1.1415 0.1237 -0.2119
C14 C 1.0209(3) 0.17879(13) 0.0089(2)
H9 H 0.9647 0.1859 0.0735
H10 H 0.9489 0.1791 -0.0527
H11 H 1.0965 0.2141 0.0016
C15 C 1.0271(3) 0.06448(13) 0.2016(2)
C16 C 0.8676(3) 0.12768(15) 0.3174(2)
H12 H 0.9409 0.1219 0.3786
H13 H 0.7875 0.0933 0.3211
C17 C 0.7954(3) 0.19559(15) 0.3206(3)
H14 H 0.7408 0.2005 0.3863
H15 H 0.7231 0.2009 0.2598
H16 H 0.8756 0.2293 0.3177
O1 O 1.7973(2) -0.37573(9) -0.31679(15)
H17 H 1.8433 -0.3574 -0.3656
O2 O 1.4406(2) -0.20634(9) 0.02865(15)
O3 O 1.0340(2) 0.01870(9) 0.26674(16)
O4 O 0.94739(19) 0.12152(9) 0.21847(14)
N1 N 1.4651(2) -0.12592(10) -0.09646(16)
H18 H 1.5023 -0.1132 -0.1567
N2 N 1.3779(2) -0.08285(11) -0.03707(17)
N3 N 1.1922(2) 0.01170(9) 0.07229(16)
H19 H 1.2095 -0.0235 0.1115
C18 C 1.7710(4) -0.03434(19) -0.5264(3)
H20 H 1.8065 0.0054 -0.4885
H21 H 1.7266 -0.0220 -0.5961
H22 H 1.8577 -0.0642 -0.5353
C19 C 1.5833(5) -0.1279(2) -0.5108(4)
H23 H 1.5078 -0.1453 -0.4628
H24 H 1.6628 -0.1611 -0.5211
H25 H 1.5323 -0.1172 -0.5792
C20 C 1.6113(4) -0.04392(17) -0.3704(3)
H26 H 1.6604 -0.0047 -0.3456
O5 O 1.5141(3) -0.06853(12) -0.31305(18)
N4 N 1.6535(3) -0.06786(14) -0.4648(2)
loop_
_geom_bond_atom_site_label_1
_geom_bond_atom_site_label_2
_geom_bond_site_symmetry_1
_geom_bond_site_symmetry_2
C1 C2 1_555 1_555
C2 H1 1_555 1_555
C3 C2 1_555 1_555
H2 C3 1_555 1_555
C4 C3 1_555 1_555
C5 C4 1_555 1_555
H3 C5 1_555 1_555
C6 C1 1_555 1_555
H4 C6 1_555 1_555
C7 C4 1_555 1_555
C8 H5 1_555 1_555
C9 C8 1_555 1_555
C10 C9 1_555 1_555
C11 C10 1_555 1_555
C12 C11 1_555 1_555
C13 C10 1_555 1_555
H6 C13 1_555 1_555
H7 C13 1_555 1_555
H8 C13 1_555 1_555
C14 C11 1_555 1_555
H9 C14 1_555 1_555
H10 C14 1_555 1_555
H11 C14 1_555 1_555
C15 C12 1_555 1_555
C16 H12 1_555 1_555
H13 C16 1_555 1_555
C17 C16 1_555 1_555
H14 C17 1_555 1_555
H15 C17 1_555 1_555
H16 C17 1_555 1_555
O1 C1 1_555 1_555
H17 O1 1_555 1_555
O2 C7 1_555 1_555
O3 C15 1_555 1_555
O4 C15 1_555 1_555
N1 C7 1_555 1_555
H18 N1 1_555 1_555
N2 C8 1_555 1_555
N3 C9 1_555 1_555
H19 N3 1_555 1_555
C18 H20 1_555 1_555
H21 C18 1_555 1_555
H22 C18 1_555 1_555
C19 H23 1_555 1_555
H24 C19 1_555 1_555
H25 C19 1_555 1_555
C20 H26 1_555 1_555
O5 C20 1_555 1_555
N4 C18 1_555 1_555
C5 C6 1_555 1_555
C12 N3 1_555 1_555
C16 O4 1_555 1_555
N1 N2 1_555 1_555
C19 N4 1_555 1_555
C20 N4 1_555 1_555

#END
