
#######################################################################
#
#                 Cambridge Crystallographic Data Centre
#                                CCDC 
#
#######################################################################
#
# If this CIF has been generated from an entry in the Cambridge 
# Structural Database, then it will include bibliographic, chemical, 
# crystal, experimental, refinement or atomic coordinate data resulting 
# from the CCDC's data processing and validation procedures.
#
#######################################################################

data_JOWREU
_chemical_formula_moiety         'C9 H13 N2 1+,Cl1 O4 1-'
_chemical_name_systematic        '4-(pyrrolidin-1-yl)pyridinium perchlorate'
_symmetry_cell_setting           monoclinic
_symmetry_space_group_name_H-M   'P 21/c'
_symmetry_Int_Tables_number      14
_space_group_name_Hall           '-P 2ybc'
loop_
_symmetry_equiv_pos_site_id
_symmetry_equiv_pos_as_xyz
1 x,y,z
2 -x,1/2+y,1/2-z
3 -x,-y,-z
4 x,1/2-y,1/2+z
_cell_length_a                   7.5245(15)
_cell_length_b                   16.342(3)
_cell_length_c                   9.3839(19)
_cell_angle_alpha                90
_cell_angle_beta                 107.815(2)
_cell_angle_gamma                90
_cell_volume                     1098.56
_exptl_crystal_colour            colorless
_exptl_crystal_description       platelike
_cell_formula_units_Z            4
loop_
_atom_site_label
_atom_site_type_symbol
_atom_site_fract_x
_atom_site_fract_y
_atom_site_fract_z
N1 N 0.6312(3) -0.12067(12) 0.3986(2)
H1 H 0.5828 -0.1615 0.3424
C1 C 0.6576(3) -0.04985(15) 0.3359(3)
H2 H 0.6247 -0.0458 0.2323
C2 C 0.7312(3) 0.01556(14) 0.4210(2)
H3 H 0.7479 0.0642 0.3753
C3 C 0.7834(3) 0.01116(12) 0.5794(2)
C4 C 0.7556(3) -0.06580(14) 0.6403(3)
H4 H 0.7898 -0.0729 0.7435
C5 C 0.6792(3) -0.12870(14) 0.5476(3)
H5 H 0.6597 -0.1785 0.5884
N2 N 0.8519(3) 0.07558(11) 0.66487(19)
C6 C 0.8827(3) 0.15579(13) 0.6045(3)
H6 H 0.7650 0.1824 0.5542
H7 H 0.9539 0.1500 0.5346
C7 C 0.9917(4) 0.20354(17) 0.7419(3)
H8 H 1.1250 0.1973 0.7602
H9 H 0.9605 0.2613 0.7305
C8 C 0.9325(4) 0.16665(19) 0.8669(4)
H10 H 0.8167 0.1909 0.8714
H11 H 1.0277 0.1747 0.9624
C9 C 0.9063(4) 0.07586(17) 0.8287(3)
H12 H 1.0214 0.0458 0.8716
H13 H 0.8092 0.0524 0.8642
Cl1 Cl 0.51327(9) 0.14825(3) 1.06725(6)
O1 O 0.4741(5) 0.20556(13) 1.1652(3)
O2 O 0.7011(3) 0.11980(17) 1.1251(3)
O3 O 0.3931(3) 0.07994(12) 1.0515(2)
O4 O 0.4906(3) 0.18607(11) 0.92506(17)
loop_
_geom_bond_atom_site_label_1
_geom_bond_atom_site_label_2
_geom_bond_site_symmetry_1
_geom_bond_site_symmetry_2
N1 H1 1_555 1_555
C1 N1 1_555 1_555
H2 C1 1_555 1_555
C2 C1 1_555 1_555
H3 C2 1_555 1_555
C3 C2 1_555 1_555
C4 C3 1_555 1_555
H4 C4 1_555 1_555
C5 N1 1_555 1_555
H5 C5 1_555 1_555
N2 C3 1_555 1_555
C6 N2 1_555 1_555
H6 C6 1_555 1_555
H7 C6 1_555 1_555
C7 C6 1_555 1_555
H8 C7 1_555 1_555
H9 C7 1_555 1_555
C8 C7 1_555 1_555
H10 C8 1_555 1_555
H11 C8 1_555 1_555
C9 N2 1_555 1_555
H12 C9 1_555 1_555
H13 C9 1_555 1_555
Cl1 O1 1_555 1_555
O2 Cl1 1_555 1_555
O3 Cl1 1_555 1_555
O4 Cl1 1_555 1_555
C4 C5 1_555 1_555
C8 C9 1_555 1_555

#END
