
#######################################################################
#
#                 Cambridge Crystallographic Data Centre
#                                CCDC 
#
#######################################################################
#
# If this CIF has been generated from an entry in the Cambridge 
# Structural Database, then it will include bibliographic, chemical, 
# crystal, experimental, refinement or atomic coordinate data resulting 
# from the CCDC's data processing and validation procedures.
#
#######################################################################

data_JOWRIY
_chemical_formula_moiety         'C9 H13 N2 1+,I1 O4 1-'
_chemical_name_systematic        '4-(pyrrolidin-1-yl)pyridinium periodate'
_symmetry_cell_setting           monoclinic
_symmetry_space_group_name_H-M   'P 21/c'
_symmetry_Int_Tables_number      14
_space_group_name_Hall           '-P 2ybc'
loop_
_symmetry_equiv_pos_site_id
_symmetry_equiv_pos_as_xyz
1 x,y,z
2 -x,1/2+y,1/2-z
3 -x,-y,-z
4 x,1/2-y,1/2+z
_cell_length_a                   7.4795(14)
_cell_length_b                   15.981(3)
_cell_length_c                   10.2199(19)
_cell_angle_alpha                90
_cell_angle_beta                 108.386(2)
_cell_angle_gamma                90
_cell_volume                     1159.23
_exptl_crystal_colour            colorless
_exptl_crystal_description       rodlike
_cell_formula_units_Z            4
loop_
_atom_site_label
_atom_site_type_symbol
_atom_site_fract_x
_atom_site_fract_y
_atom_site_fract_z
N1 N 0.6279(7) 0.3711(3) -0.0643(6)
H1 H 0.5746 0.3288 -0.1130
C1 C 0.6816(9) 0.3668(4) 0.0741(8)
H2 H 0.6612 0.3176 0.1159
C2 C 0.7646(9) 0.4326(4) 0.1541(7)
H3 H 0.8020 0.4278 0.2496
C3 C 0.7944(8) 0.5082(4) 0.0929(6)
C4 C 0.7382(9) 0.5093(4) -0.0531(7)
H4 H 0.7571 0.5573 -0.0986
C5 C 0.6573(9) 0.4414(4) -0.1268(7)
H5 H 0.6214 0.4434 -0.2226
N2 N 0.8682(7) 0.5756(3) 0.1670(5)
C6 C 0.9245(11) 0.5794(5) 0.3181(7)
H6 H 1.0406 0.5488 0.3599
H7 H 0.8268 0.5572 0.3521
C7 C 0.9519(11) 0.6735(5) 0.3459(9)
H8 H 0.8351 0.6995 0.3466
H9 H 1.0475 0.6838 0.4339
C8 C 1.0133(11) 0.7068(5) 0.2291(9)
H10 H 1.1474 0.6986 0.2471
H11 H 0.9847 0.7660 0.2147
C9 C 0.8997(10) 0.6557(4) 0.1052(8)
H12 H 0.7812 0.6830 0.0574
H13 H 0.9698 0.6472 0.0410
I1 I 0.45919(6) 0.37324(2) 0.42447(4)
O1 O 0.6146(7) 0.4552(3) 0.4223(5)
O2 O 0.2247(7) 0.4027(3) 0.3430(6)
O3 O 0.5128(9) 0.2894(3) 0.3302(5)
O4 O 0.4924(7) 0.3373(3) 0.5931(4)
loop_
_geom_bond_atom_site_label_1
_geom_bond_atom_site_label_2
_geom_bond_site_symmetry_1
_geom_bond_site_symmetry_2
N1 H1 1_555 1_555
C1 N1 1_555 1_555
H2 C1 1_555 1_555
C2 C1 1_555 1_555
H3 C2 1_555 1_555
C3 C2 1_555 1_555
C4 C3 1_555 1_555
H4 C4 1_555 1_555
C5 N1 1_555 1_555
H5 C5 1_555 1_555
N2 C3 1_555 1_555
C6 N2 1_555 1_555
H6 C6 1_555 1_555
H7 C6 1_555 1_555
C7 C6 1_555 1_555
H8 C7 1_555 1_555
H9 C7 1_555 1_555
C8 C7 1_555 1_555
H10 C8 1_555 1_555
H11 C8 1_555 1_555
C9 N2 1_555 1_555
H12 C9 1_555 1_555
H13 C9 1_555 1_555
I1 O1 1_555 1_555
O2 I1 1_555 1_555
O3 I1 1_555 1_555
O4 I1 1_555 1_555
C4 C5 1_555 1_555
C8 C9 1_555 1_555

#END
