
#######################################################################
#
#                 Cambridge Crystallographic Data Centre
#                                CCDC 
#
#######################################################################
#
# If this CIF has been generated from an entry in the Cambridge 
# Structural Database, then it will include bibliographic, chemical, 
# crystal, experimental, refinement or atomic coordinate data resulting 
# from the CCDC's data processing and validation procedures.
#
#######################################################################

data_JOWTAQ
_chemical_formula_moiety         'C22 H24 N2 O2 Se2'
_chemical_name_systematic        
1,2-bis(2-(4,4-Dimethyl-2-oxazoline)phenyl)diselenide
_chemical_properties_biological  'thiol peroxidase-like antioxidant activity'
_symmetry_cell_setting           rhombohedral
_symmetry_space_group_name_H-M   'R -3'
_symmetry_Int_Tables_number      148
_space_group_name_Hall           '-R 3'
loop_
_symmetry_equiv_pos_site_id
_symmetry_equiv_pos_as_xyz
1 x,y,z
2 -y,x-y,z
3 -x+y,-x,z
4 1/3+x,2/3+y,2/3+z
5 1/3-y,2/3+x-y,2/3+z
6 1/3-x+y,2/3-x,2/3+z
7 2/3+x,1/3+y,1/3+z
8 2/3-y,1/3+x-y,1/3+z
9 2/3-x+y,1/3-x,1/3+z
10 -x,-y,-z
11 y,-x+y,-z
12 x-y,x,-z
13 2/3-x,1/3-y,1/3-z
14 2/3+y,1/3-x+y,1/3-z
15 2/3+x-y,1/3+x,1/3-z
16 1/3-x,2/3-y,2/3-z
17 1/3+y,2/3-x+y,2/3-z
18 1/3+x-y,2/3+x,2/3-z
_cell_length_a                   33.198(4)
_cell_length_b                   33.198(4)
_cell_length_c                   10.564(2)
_cell_angle_alpha                90
_cell_angle_beta                 90
_cell_angle_gamma                120.00
_cell_volume                     10082.8
_exptl_crystal_colour            colorless
_chemical_melting_point          '158-160 deg.C'
_cell_formula_units_Z            18
loop_
_atom_site_label
_atom_site_type_symbol
_atom_site_fract_x
_atom_site_fract_y
_atom_site_fract_z
Se1 Se 0.2015(1) 0.0084(1) 0.3162(1)
Se2 Se 0.2264(1) -0.0308(1) 0.4528(1)
O1 O 0.0967(1) 0.0492(2) 0.1846(4)
O2 O 0.2822(2) -0.1255(2) 0.5372(4)
N1 N 0.1679(2) 0.0581(2) 0.1773(4)
N2 N 0.2582(2) -0.0767(2) 0.5954(4)
C1 C 0.1347(2) -0.0256(2) 0.3393(4)
C2 C 0.1133(2) -0.0668(2) 0.4088(5)
C3 C 0.0666(2) -0.0904(2) 0.4311(6)
C4 C 0.0392(2) -0.0734(2) 0.3860(5)
C5 C 0.0588(2) -0.0329(2) 0.3139(5)
C6 C 0.1066(2) -0.0090(2) 0.2898(4)
C7 C 0.1267(2) 0.0342(2) 0.2153(5)
C8 C 0.1226(2) 0.0892(3) 0.1054(8)
C9 C 0.1730(2) 0.1008(2) 0.1170(6)
C10 C 0.1999(4) 0.1409(3) 0.2067(10)
C11 C 0.1954(3) 0.1085(3) -0.0122(7)
C12 C 0.2219(2) -0.0800(2) 0.3432(4)
C13 C 0.2007(2) -0.0884(2) 0.2265(5)
C14 C 0.1991(2) -0.1226(2) 0.1481(6)
C15 C 0.2190(2) -0.1483(2) 0.1847(6)
C16 C 0.2400(2) -0.1403(2) 0.3026(5)
C17 C 0.2410(2) -0.1073(2) 0.3823(5)
C18 C 0.2605(2) -0.1014(2) 0.5096(5)
C19 C 0.3003(3) -0.1119(2) 0.6647(6)
C20 C 0.2793(2) -0.0826(2) 0.7122(5)
C21 C 0.2418(3) -0.1070(4) 0.8092(7)
C22 C 0.3169(3) -0.0359(3) 0.7603(8)
H1 H 0.1314(2) -0.0785(2) 0.4409(5)
H2 H 0.0533(2) -0.1180(2) 0.4768(6)
H3 H 0.0075(2) -0.0889(2) 0.4037(5)
H4 H 0.0402(2) -0.0217(2) 0.2818(5)
H5 H 0.1191(2) 0.1150(3) 0.1344(8)
H6 H 0.1121(2) 0.0822(3) 0.0183(8)
H7 H 0.2306(8) 0.1455(12) 0.2183(40)
H8 H 0.1841(11) 0.1340(9) 0.2868(21)
H9 H 0.2020(17) 0.1686(5) 0.1720(28)
H10 H 0.2271(6) 0.1160(17) -0.0028(8)
H11 H 0.1945(16) 0.1338(12) -0.0538(20)
H12 H 0.1788(11) 0.0808(6) -0.0620(18)
H13 H 0.1874(2) -0.0710(2) 0.2001(5)
H14 H 0.1844(2) -0.1281(2) 0.0699(6)
H15 H 0.2184(2) -0.1709(2) 0.1312(6)
H16 H 0.2535(2) -0.1577(2) 0.3279(5)
H17 H 0.3340(3) -0.0937(2) 0.6640(6)
H18 H 0.2907(3) -0.1390(2) 0.7179(6)
H19 H 0.2262(10) -0.0895(8) 0.8234(31)
H20 H 0.2553(3) -0.1094(14) 0.8871(14)
H21 H 0.2197(8) -0.1375(7) 0.7794(19)
H22 H 0.3038(5) -0.0164(6) 0.7769(37)
H23 H 0.3409(8) -0.0215(7) 0.6975(17)
H24 H 0.3299(10) -0.0402(3) 0.8368(22)
loop_
_geom_bond_atom_site_label_1
_geom_bond_atom_site_label_2
_geom_bond_site_symmetry_1
_geom_bond_site_symmetry_2
Se1 Se2 1_555 1_555
Se2 C12 1_555 1_555
O1 C7 1_555 1_555
O2 C18 1_555 1_555
N1 C7 1_555 1_555
N2 C18 1_555 1_555
C1 Se1 1_555 1_555
C2 C1 1_555 1_555
C3 C2 1_555 1_555
C4 C3 1_555 1_555
C5 C4 1_555 1_555
C6 C1 1_555 1_555
C7 C6 1_555 1_555
C8 O1 1_555 1_555
C9 N1 1_555 1_555
C10 C9 1_555 1_555
C11 C9 1_555 1_555
C12 C13 1_555 1_555
C13 C14 1_555 1_555
C14 C15 1_555 1_555
C15 C16 1_555 1_555
C16 C17 1_555 1_555
C17 C12 1_555 1_555
C18 C17 1_555 1_555
C19 O2 1_555 1_555
C20 N2 1_555 1_555
C21 C20 1_555 1_555
C22 C20 1_555 1_555
H1 C2 1_555 1_555
H2 C3 1_555 1_555
H3 C4 1_555 1_555
H4 C5 1_555 1_555
H5 C8 1_555 1_555
H6 C8 1_555 1_555
H7 C10 1_555 1_555
H8 C10 1_555 1_555
H9 C10 1_555 1_555
H10 C11 1_555 1_555
H11 C11 1_555 1_555
H12 C11 1_555 1_555
H13 C13 1_555 1_555
H14 C14 1_555 1_555
H15 C15 1_555 1_555
H16 C16 1_555 1_555
H17 C19 1_555 1_555
H18 C19 1_555 1_555
H19 C21 1_555 1_555
H20 C21 1_555 1_555
H21 C21 1_555 1_555
H22 C22 1_555 1_555
H23 C22 1_555 1_555
H24 C22 1_555 1_555
C5 C6 1_555 1_555
C8 C9 1_555 1_555
C19 C20 1_555 1_555

#END
