
#######################################################################
#
#                 Cambridge Crystallographic Data Centre
#                                CCDC 
#
#######################################################################
#
# If this CIF has been generated from an entry in the Cambridge 
# Structural Database, then it will include bibliographic, chemical, 
# crystal, experimental, refinement or atomic coordinate data resulting 
# from the CCDC's data processing and validation procedures.
#
#######################################################################

data_JOWXUO
_chemical_formula_moiety         'C24 H24 N2 Se2'
_chemical_name_systematic        
1,2-bis(8-(Dimethylamino)naphthyl)-di-selenium
_chemical_properties_biological  'thiol peroxidase-like antioxidant activity'
_symmetry_cell_setting           orthorhombic
_symmetry_space_group_name_H-M   'P 21 21 21'
_symmetry_Int_Tables_number      19
_space_group_name_Hall           'P 2ac 2ab'
loop_
_symmetry_equiv_pos_site_id
_symmetry_equiv_pos_as_xyz
1 x,y,z
2 1/2-x,-y,1/2+z
3 1/2+x,1/2-y,-z
4 -x,1/2+y,1/2-z
_cell_length_a                   7.6738(10)
_cell_length_b                   11.0274(11)
_cell_length_c                   26.127(3)
_cell_angle_alpha                90
_cell_angle_beta                 90
_cell_angle_gamma                90
_cell_volume                     2210.92
_exptl_crystal_colour            'pale yellow'
_exptl_crystal_description       'triangular plate'
_chemical_melting_point          '136-138 deg.C(dec.)'
_cell_formula_units_Z            4
loop_
_atom_site_label
_atom_site_type_symbol
_atom_site_fract_x
_atom_site_fract_y
_atom_site_fract_z
Se1 Se 0.7974(2) 0.4830(1) 0.8854(1)
Se2 Se 0.9004(2) 0.5364(1) 0.8023(1)
N1 N 0.7091(14) 0.4174(8) 0.9795(4)
N2 N 1.0018(15) 0.5975(10) 0.7097(4)
C1 C 0.9578(15) 0.5745(10) 0.9280(4)
C2 C 1.0613(19) 0.6607(12) 0.9093(5)
C3 C 1.1859(20) 0.7190(14) 0.9388(6)
C4 C 1.2098(21) 0.6900(12) 0.9888(6)
C5 C 1.1198(20) 0.5711(12) 1.0634(5)
C6 C 1.0139(21) 0.4888(13) 1.0858(6)
C7 C 0.8783(19) 0.4366(11) 1.0593(5)
C8 C 0.8539(13) 0.4652(11) 1.0084(4)
C9 C 0.9669(14) 0.5447(10) 0.9813(4)
C10 C 1.0997(19) 0.6027(10) 1.0119(5)
C11 C 0.6914(23) 0.2861(12) 0.9819(7)
C12 C 0.5480(17) 0.4786(15) 0.9900(7)
C13 C 0.7470(16) 0.6694(11) 0.7841(5)
C14 C 0.6223(18) 0.7096(11) 0.8171(5)
C15 C 0.5071(19) 0.8028(12) 0.8048(6)
C16 C 0.5153(23) 0.8555(13) 0.7570(6)
C17 C 0.6478(21) 0.8743(13) 0.6723(6)
C18 C 0.7664(23) 0.8385(14) 0.6386(7)
C19 C 0.8831(20) 0.7465(13) 0.6504(5)
C20 C 0.8810(18) 0.6897(10) 0.6967(5)
C21 C 0.7538(16) 0.7247(11) 0.7348(5)
C22 C 0.6368(19) 0.8198(12) 0.7208(6)
C23 C 0.9961(32) 0.4897(14) 0.6771(5)
C24 C 1.1781(21) 0.6432(19) 0.7154(8)
H1 H 1.0496(19) 0.6826(12) 0.8751(5)
H2 H 1.2544(20) 0.7792(14) 0.9241(6)
H3 H 1.2977(21) 0.7271(12) 1.0076(6)
H4 H 1.2076(20) 0.6073(12) 1.0826(5)
H5 H 1.0331(21) 0.4671(13) 1.1197(6)
H6 H 0.8037(19) 0.3825(11) 1.0756(5)
H7 H 0.5968(70) 0.2609(14) 0.9603(25)
H8 H 0.668(11) 0.2619(14) 1.0165(9)
H9 H 0.7975(43) 0.2488(12) 0.9704(29)
H10 H 0.5640(32) 0.5645(16) 0.9860(31)
H11 H 0.5122(59) 0.4615(63) 1.0245(13)
H12 H 0.4601(32) 0.4509(57) 0.9666(22)
H13 H 0.6137(18) 0.6733(11) 0.8491(5)
H14 H 0.4255(19) 0.8293(12) 0.8287(6)
H15 H 0.4368(23) 0.9167(13) 0.7487(6)
H16 H 0.5709(21) 0.9362(13) 0.6637(6)
H17 H 0.7714(23) 0.8756(14) 0.6066(7)
H18 H 0.9649(20) 0.7230(13) 0.6261(5)
H19 H 0.8824(45) 0.4538(40) 0.6790(23)
H20 H 1.0816(76) 0.4323(32) 0.6886(18)
H21 H 1.0207(99) 0.5124(18) 0.6424(7)
H22 H 1.1767(25) 0.7147(46) 0.7363(25)
H23 H 1.2246(41) 0.6628(67) 0.6823(8)
H24 H 1.2495(32) 0.5824(34) 0.7312(29)
loop_
_geom_bond_atom_site_label_1
_geom_bond_atom_site_label_2
_geom_bond_site_symmetry_1
_geom_bond_site_symmetry_2
Se1 Se2 1_555 1_555
Se2 C13 1_555 1_555
N1 C8 1_555 1_555
N2 C20 1_555 1_555
C1 Se1 1_555 1_555
C2 C1 1_555 1_555
C3 C2 1_555 1_555
C4 C3 1_555 1_555
C5 C6 1_555 1_555
C6 C7 1_555 1_555
C7 C8 1_555 1_555
C8 C9 1_555 1_555
C9 C1 1_555 1_555
C10 C4 1_555 1_555
C11 N1 1_555 1_555
C12 N1 1_555 1_555
C13 C14 1_555 1_555
C14 C15 1_555 1_555
C15 C16 1_555 1_555
C16 C22 1_555 1_555
C17 C18 1_555 1_555
C18 C19 1_555 1_555
C19 C20 1_555 1_555
C20 C21 1_555 1_555
C21 C13 1_555 1_555
C22 C17 1_555 1_555
C23 N2 1_555 1_555
C24 N2 1_555 1_555
H1 C2 1_555 1_555
H2 C3 1_555 1_555
H3 C4 1_555 1_555
H4 C5 1_555 1_555
H5 C6 1_555 1_555
H6 C7 1_555 1_555
H7 C11 1_555 1_555
H8 C11 1_555 1_555
H9 C11 1_555 1_555
H10 C12 1_555 1_555
H11 C12 1_555 1_555
H12 C12 1_555 1_555
H13 C14 1_555 1_555
H14 C15 1_555 1_555
H15 C16 1_555 1_555
H16 C17 1_555 1_555
H17 C18 1_555 1_555
H18 C19 1_555 1_555
H19 C23 1_555 1_555
H20 C23 1_555 1_555
H21 C23 1_555 1_555
H22 C24 1_555 1_555
H23 C24 1_555 1_555
H24 C24 1_555 1_555
C5 C10 1_555 1_555
C9 C10 1_555 1_555
C21 C22 1_555 1_555

#END
