
#######################################################################
#
#                 Cambridge Crystallographic Data Centre
#                                CCDC 
#
#######################################################################
#
# If this CIF has been generated from an entry in the Cambridge 
# Structural Database, then it will include bibliographic, chemical, 
# crystal, experimental, refinement or atomic coordinate data resulting 
# from the CCDC's data processing and validation procedures.
#
#######################################################################

data_JOXFOT
_chemical_formula_moiety         'C14 H18 O2'
_chemical_name_systematic        
2-(2-Hydroxy-2-phenylethyl)bicyclo[2.1.1]hexan-1-ol
_symmetry_cell_setting           orthorhombic
_symmetry_space_group_name_H-M   'P b c a'
_symmetry_Int_Tables_number      61
_space_group_name_Hall           '-P 2ac 2ab'
loop_
_symmetry_equiv_pos_site_id
_symmetry_equiv_pos_as_xyz
1 x,y,z
2 1/2-x,-y,1/2+z
3 -x,1/2+y,1/2-z
4 1/2+x,1/2-y,-z
5 -x,-y,-z
6 1/2+x,y,1/2-z
7 x,1/2-y,1/2+z
8 1/2-x,1/2+y,z
_cell_length_a                   8.4068(5)
_cell_length_b                   11.7148(6)
_cell_length_c                   24.5654(14)
_cell_angle_alpha                90
_cell_angle_beta                 90
_cell_angle_gamma                90
_cell_volume                     2419.3
_exptl_crystal_colour            colorless
_exptl_crystal_description       block
_chemical_melting_point          '103-105 deg.C'
_cell_formula_units_Z            8
_exptl_crystal_recrystallization_method ethanol
loop_
_atom_site_label
_atom_site_type_symbol
_atom_site_fract_x
_atom_site_fract_y
_atom_site_fract_z
O1 O 0.03327(14) 0.11462(10) 0.27486(5)
H1 H 0.1055 0.0791 0.2601
O2 O -0.25238(15) 0.49355(11) 0.27950(5)
C1 C 0.09095(18) 0.16704(13) 0.32236(6)
C2 C -0.06978(19) 0.35002(13) 0.30651(6)
H2 H 0.0109 0.4090 0.3087
H3 H -0.0694 0.3203 0.2697
C3 C -0.23155(19) 0.40315(13) 0.31804(6)
H4 H -0.3138 0.3454 0.3117
C4 C -0.02600(18) 0.25357(12) 0.34587(6)
H5 H -0.1229 0.2142 0.3577
C5 C 0.0735(2) 0.28892(15) 0.39668(6)
H6 H 0.1009 0.3693 0.3961
H7 H 0.0190 0.2710 0.4304
C6 C 0.2189(2) 0.21318(16) 0.38795(7)
H8 H 0.3069 0.2154 0.4141
C7 C -0.3350(2) 0.38383(15) 0.41344(7)
H9 H -0.3950 0.3217 0.4019
C8 C -0.24431(18) 0.44393(13) 0.37625(6)
C9 C 0.1430(2) 0.09843(14) 0.37263(7)
H10 H 0.2179 0.0373 0.3653
H11 H 0.0571 0.0739 0.3962
C10 C -0.1589(2) 0.53734(15) 0.39454(7)
H12 H -0.0983 0.5795 0.3701
C11 C 0.25255(19) 0.22909(16) 0.32655(7)
H13 H 0.2524 0.3076 0.3140
H14 H 0.3429 0.1866 0.3127
C12 C -0.1628(3) 0.56876(17) 0.44883(8)
H15 H -0.1049 0.6317 0.4607
C13 C -0.3373(3) 0.4155(2) 0.46796(8)
H16 H -0.3973 0.3739 0.4928
C14 C -0.2520(3) 0.5073(2) 0.48507(9)
H17 H -0.2541 0.5284 0.5216
H18 H -0.340(3) 0.5265(18) 0.2837(8)
loop_
_geom_bond_atom_site_label_1
_geom_bond_atom_site_label_2
_geom_bond_site_symmetry_1
_geom_bond_site_symmetry_2
O1 H1 1_555 1_555
O2 C3 1_555 1_555
C1 O1 1_555 1_555
C2 H2 1_555 1_555
H3 C2 1_555 1_555
C3 C2 1_555 1_555
H4 C3 1_555 1_555
C4 C1 1_555 1_555
H5 C4 1_555 1_555
C5 C4 1_555 1_555
H6 C5 1_555 1_555
H7 C5 1_555 1_555
C6 C5 1_555 1_555
H8 C6 1_555 1_555
C7 H9 1_555 1_555
C8 C3 1_555 1_555
C9 C1 1_555 1_555
H10 C9 1_555 1_555
H11 C9 1_555 1_555
C10 C8 1_555 1_555
H12 C10 1_555 1_555
C11 C1 1_555 1_555
H13 C11 1_555 1_555
H14 C11 1_555 1_555
C12 C10 1_555 1_555
H15 C12 1_555 1_555
C13 C7 1_555 1_555
H16 C13 1_555 1_555
C14 C12 1_555 1_555
H17 C14 1_555 1_555
H18 O2 1_555 1_555
C2 C4 1_555 1_555
C6 C9 1_555 1_555
C6 C11 1_555 1_555
C7 C8 1_555 1_555
C13 C14 1_555 1_555

#END
