
#######################################################################
#
#                 Cambridge Crystallographic Data Centre
#                                CCDC 
#
#######################################################################
#
# If this CIF has been generated from an entry in the Cambridge 
# Structural Database, then it will include bibliographic, chemical, 
# crystal, experimental, refinement or atomic coordinate data resulting 
# from the CCDC's data processing and validation procedures.
#
#######################################################################

data_JOXGAG
_chemical_formula_moiety         'C19 H18 Cl2 N2 O2'
_chemical_name_systematic        
'5-(3,4-dichlorophenyl)-7-(2-hydroxyphenyl)-7-methyltetrahydro-1H,5H-pyrazolo[1,2-a]pyrazol-1-one unknown solvate'
_symmetry_cell_setting           orthorhombic
_symmetry_space_group_name_H-M   'P 21 21 21'
_symmetry_Int_Tables_number      19
_space_group_name_Hall           'P 2ac 2ab'
loop_
_symmetry_equiv_pos_site_id
_symmetry_equiv_pos_as_xyz
1 x,y,z
2 1/2+x,1/2-y,-z
3 -x,1/2+y,1/2-z
4 1/2-x,-y,1/2+z
_cell_length_a                   8.1739(5)
_cell_length_b                   11.6246(7)
_cell_length_c                   22.2901(13)
_cell_angle_alpha                90
_cell_angle_beta                 90
_cell_angle_gamma                90
_cell_volume                     2117.97
_exptl_crystal_colour            colorless
_cell_formula_units_Z            4
loop_
_atom_site_label
_atom_site_type_symbol
_atom_site_fract_x
_atom_site_fract_y
_atom_site_fract_z
Cl1 Cl 0.2903(3) 0.51734(18) -0.07462(6)
Cl2 Cl 0.0878(3) 0.74254(16) -0.05233(7)
N1 N 0.4987(3) 0.3127(3) 0.18668(13)
N2 N 0.4895(3) 0.3980(3) 0.13966(13)
O1 O 0.6925(3) 0.2070(3) 0.23585(13)
O2 O 0.0204(3) 0.2242(3) 0.24432(12)
H1 H -0.0768 0.2073 0.2419
C1 C 0.3358(3) 0.2907(3) 0.21385(14)
C2 C 0.2317(4) 0.3816(3) 0.18028(16)
H2 H 0.1728 0.3463 0.1473
H3 H 0.1532 0.4168 0.2073
C3 C 0.3512(4) 0.4707(3) 0.15709(16)
H4 H 0.3834 0.5230 0.1895
C4 C 0.6530(5) 0.4543(5) 0.1428(2)
H5 H 0.6548 0.5148 0.1728
H6 H 0.6847 0.4860 0.1043
C5 C 0.7620(5) 0.3550(5) 0.1606(2)
H7 H 0.8572 0.3817 0.1826
H8 H 0.7980 0.3122 0.1256
C6 C 0.6517(4) 0.2828(4) 0.20002(17)
C7 C 0.3495(5) 0.3156(4) 0.28171(16)
H9 H 0.4349 0.2692 0.2987
H10 H 0.2475 0.2976 0.3009
H11 H 0.3745 0.3954 0.2877
C8 C 0.2743(4) 0.1699(3) 0.20136(14)
C9 C 0.3658(5) 0.0858(3) 0.17312(19)
H12 H 0.4736 0.1018 0.1626
C10 C 0.3018(6) -0.0210(4) 0.1602(2)
H13 H 0.3669 -0.0762 0.1416
C11 C 0.1398(6) -0.0468(4) 0.1747(3)
H14 H 0.0957 -0.1186 0.1660
C12 C 0.0468(5) 0.0366(4) 0.2024(2)
H15 H -0.0618 0.0209 0.2117
C13 C 0.1114(4) 0.1426(3) 0.21639(16)
C14 C 0.2874(5) 0.5385(3) 0.10392(16)
C15 C 0.1988(7) 0.6378(4) 0.1127(2)
H16 H 0.1804 0.6640 0.1516
C16 C 0.1361(9) 0.6995(5) 0.0642(2)
H17 H 0.0762 0.7663 0.0710
C17 C 0.1621(6) 0.6628(4) 0.0073(2)
C18 C 0.2496(6) 0.5633(4) -0.00236(18)
C19 C 0.3128(5) 0.5028(4) 0.04553(17)
H18 H 0.3737 0.4366 0.0384
loop_
_geom_bond_atom_site_label_1
_geom_bond_atom_site_label_2
_geom_bond_site_symmetry_1
_geom_bond_site_symmetry_2
Cl1 C18 1_555 1_555
Cl2 C17 1_555 1_555
N1 N2 1_555 1_555
N2 C3 1_555 1_555
O1 C6 1_555 1_555
O2 H1 1_555 1_555
C1 N1 1_555 1_555
C2 C1 1_555 1_555
H2 C2 1_555 1_555
H3 C2 1_555 1_555
C3 C2 1_555 1_555
H4 C3 1_555 1_555
C4 N2 1_555 1_555
H5 C4 1_555 1_555
H6 C4 1_555 1_555
C5 C4 1_555 1_555
H7 C5 1_555 1_555
H8 C5 1_555 1_555
C6 N1 1_555 1_555
C7 C1 1_555 1_555
H9 C7 1_555 1_555
H10 C7 1_555 1_555
H11 C7 1_555 1_555
C8 C1 1_555 1_555
C9 C8 1_555 1_555
H12 C9 1_555 1_555
C10 C9 1_555 1_555
H13 C10 1_555 1_555
C11 C10 1_555 1_555
H14 C11 1_555 1_555
C12 C11 1_555 1_555
H15 C12 1_555 1_555
C13 O2 1_555 1_555
C14 C3 1_555 1_555
C15 C14 1_555 1_555
H16 C15 1_555 1_555
C16 C15 1_555 1_555
H17 C16 1_555 1_555
C17 C16 1_555 1_555
C18 C17 1_555 1_555
C19 C14 1_555 1_555
H18 C19 1_555 1_555
C5 C6 1_555 1_555
C8 C13 1_555 1_555
C12 C13 1_555 1_555
C18 C19 1_555 1_555

#END
