
#######################################################################
#
#                 Cambridge Crystallographic Data Centre
#                                CCDC 
#
#######################################################################
#
# If this CIF has been generated from an entry in the Cambridge 
# Structural Database, then it will include bibliographic, chemical, 
# crystal, experimental, refinement or atomic coordinate data resulting 
# from the CCDC's data processing and validation procedures.
#
#######################################################################

data_JOXMEQ
_chemical_formula_moiety         'C25 H42 B1 N2 P1'
_chemical_name_systematic        
1-(boranyl)-N,1,1-tricyclohexyl-N'-phenylphosphoranecarboximidamide
_symmetry_cell_setting           monoclinic
_symmetry_space_group_name_H-M   'P 21/c'
_symmetry_Int_Tables_number      14
_space_group_name_Hall           '-P 2ybc'
loop_
_symmetry_equiv_pos_site_id
_symmetry_equiv_pos_as_xyz
1 x,y,z
2 -x,1/2+y,1/2-z
3 -x,-y,-z
4 x,1/2-y,1/2+z
_cell_length_a                   13.7887(8)
_cell_length_b                   11.9484(6)
_cell_length_c                   15.2068(8)
_cell_angle_alpha                90
_cell_angle_beta                 97.149(2)
_cell_angle_gamma                90
_cell_volume                     2485.89
_exptl_crystal_colour            colorless
_exptl_crystal_description       cubic
_chemical_melting_point          '93 deg.C'
_cell_formula_units_Z            4
_exptl_crystal_recrystallization_method cyclohexane
loop_
_atom_site_label
_atom_site_type_symbol
_atom_site_fract_x
_atom_site_fract_y
_atom_site_fract_z
P1 P 0.22761(2) 0.18432(2) 0.133244(19)
N1 N 0.15538(8) 0.39198(8) 0.11191(7)
H1 H 0.1109 0.3569 0.1383
N2 N 0.29253(8) 0.34579(9) 0.03490(7)
C1 C 0.09647(10) 0.73624(10) 0.16794(9)
H2 H 0.0858 0.7223 0.2302
H3 H 0.0869 0.8172 0.1558
C2 C 0.02223(10) 0.66942(10) 0.10620(9)
H4 H 0.0276 0.6902 0.0440
H5 H -0.0446 0.6882 0.1187
C3 C 0.03925(9) 0.54371(10) 0.11827(8)
H6 H 0.0287 0.5217 0.1791
H7 H -0.0082 0.5022 0.0761
C4 C 0.14277(9) 0.51344(10) 0.10236(8)
H8 H 0.1519 0.5349 0.0403
C5 C 0.22677(9) 0.32688(9) 0.08523(8)
C6 C 0.30084(9) 0.44558(9) -0.01396(8)
C7 C 0.23879(9) 0.46565(10) -0.09224(8)
H9 H 0.1870 0.4152 -0.1105
C8 C 0.25269(10) 0.55929(11) -0.14342(8)
H10 H 0.2096 0.5732 -0.1960
C9 C 0.32906(10) 0.63247(10) -0.11818(9)
H11 H 0.3382 0.6966 -0.1531
C10 C 0.52690(10) 0.24814(12) 0.31245(9)
H12 H 0.5393 0.3216 0.2858
H13 H 0.5815 0.2322 0.3594
C11 C 0.43116(10) 0.25310(14) 0.35313(9)
H14 H 0.4338 0.3164 0.3953
H15 H 0.4235 0.1833 0.3867
C12 C 0.34232(10) 0.26761(11) 0.28246(8)
H16 H 0.3451 0.3421 0.2544
H17 H 0.2816 0.2638 0.3109
C13 C 0.34036(9) 0.17642(10) 0.21139(8)
H18 H 0.3381 0.1033 0.2430
C14 C 0.24206(9) 0.09326(9) 0.03926(8)
H19 H 0.2946 0.1253 0.0070
C15 C 0.14636(10) 0.09122(11) -0.02470(9)
H20 H 0.0928 0.0622 0.0066
H21 H 0.1292 0.1683 -0.0448
C16 C 0.15701(12) 0.01716(11) -0.10520(9)
H22 H 0.0935 0.0130 -0.1433
H23 H 0.2052 0.0512 -0.1403
C17 C 0.19030(11) -0.10054(11) -0.07711(9)
H24 H 0.1386 -0.1380 -0.0481
H25 H 0.2009 -0.1447 -0.1302
C18 C 0.28453(11) -0.09698(10) -0.01334(9)
H26 H 0.3375 -0.0649 -0.0439
H27 H 0.3036 -0.1741 0.0054
C19 C 0.27193(10) -0.02646(10) 0.06834(8)
H28 H 0.3341 -0.0247 0.1087
H29 H 0.2210 -0.0600 0.1006
C20 C 0.39217(10) 0.61129(10) -0.04135(9)
H30 H 0.4451 0.6607 -0.0242
C21 C 0.37828(9) 0.51839(10) 0.01033(8)
H31 H 0.4219 0.5044 0.0626
C22 C 0.20088(10) 0.70352(10) 0.15519(9)
H32 H 0.2473 0.7439 0.1990
H33 H 0.2141 0.7262 0.0952
C23 C 0.21728(9) 0.57736(10) 0.16639(8)
H34 H 0.2105 0.5554 0.2281
H35 H 0.2843 0.5582 0.1545
C24 C 0.43617(10) 0.17670(10) 0.16942(9)
H36 H 0.4344 0.1168 0.1242
H37 H 0.4440 0.2494 0.1398
C25 C 0.52251(10) 0.15750(12) 0.24150(9)
H38 H 0.5158 0.0833 0.2692
H39 H 0.5842 0.1577 0.2144
B1 B 0.11102(11) 0.15754(12) 0.18759(10)
H40 H 0.0535 0.1738 0.1449
H41 H 0.1108 0.2061 0.2395
H42 H 0.1093 0.0791 0.2061
loop_
_geom_bond_atom_site_label_1
_geom_bond_atom_site_label_2
_geom_bond_site_symmetry_1
_geom_bond_site_symmetry_2
P1 C5 1_555 1_555
N1 H1 1_555 1_555
N2 C5 1_555 1_555
C1 H2 1_555 1_555
H3 C1 1_555 1_555
C2 C1 1_555 1_555
H4 C2 1_555 1_555
H5 C2 1_555 1_555
C3 C2 1_555 1_555
H6 C3 1_555 1_555
H7 C3 1_555 1_555
C4 N1 1_555 1_555
H8 C4 1_555 1_555
C5 N1 1_555 1_555
C6 N2 1_555 1_555
C7 C6 1_555 1_555
H9 C7 1_555 1_555
C8 C7 1_555 1_555
H10 C8 1_555 1_555
C9 C8 1_555 1_555
H11 C9 1_555 1_555
C10 H12 1_555 1_555
H13 C10 1_555 1_555
C11 C10 1_555 1_555
H14 C11 1_555 1_555
H15 C11 1_555 1_555
C12 C11 1_555 1_555
H16 C12 1_555 1_555
H17 C12 1_555 1_555
C13 P1 1_555 1_555
H18 C13 1_555 1_555
C14 P1 1_555 1_555
H19 C14 1_555 1_555
C15 C14 1_555 1_555
H20 C15 1_555 1_555
H21 C15 1_555 1_555
C16 C15 1_555 1_555
H22 C16 1_555 1_555
H23 C16 1_555 1_555
C17 C16 1_555 1_555
H24 C17 1_555 1_555
H25 C17 1_555 1_555
C18 C17 1_555 1_555
H26 C18 1_555 1_555
H27 C18 1_555 1_555
C19 C14 1_555 1_555
H28 C19 1_555 1_555
H29 C19 1_555 1_555
C20 C9 1_555 1_555
H30 C20 1_555 1_555
C21 C6 1_555 1_555
H31 C21 1_555 1_555
C22 C1 1_555 1_555
H32 C22 1_555 1_555
H33 C22 1_555 1_555
C23 C4 1_555 1_555
H34 C23 1_555 1_555
H35 C23 1_555 1_555
C24 C13 1_555 1_555
H36 C24 1_555 1_555
H37 C24 1_555 1_555
C25 C10 1_555 1_555
H38 C25 1_555 1_555
H39 C25 1_555 1_555
B1 P1 1_555 1_555
H40 B1 1_555 1_555
H41 B1 1_555 1_555
H42 B1 1_555 1_555
C3 C4 1_555 1_555
C12 C13 1_555 1_555
C18 C19 1_555 1_555
C20 C21 1_555 1_555
C22 C23 1_555 1_555
C24 C25 1_555 1_555

#END
