
#######################################################################
#
#                 Cambridge Crystallographic Data Centre
#                                CCDC 
#
#######################################################################
#
# If this CIF has been generated from an entry in the Cambridge 
# Structural Database, then it will include bibliographic, chemical, 
# crystal, experimental, refinement or atomic coordinate data resulting 
# from the CCDC's data processing and validation procedures.
#
#######################################################################

data_JOXRAR
_chemical_formula_moiety         'C26 H26 N2 O4 S1'
_chemical_name_systematic        
'Methyl 2-(1-((4-methylphenyl)sulfonyl)-2,4-diphenyl-2,5-dihydro-1H-imidazol-2-yl)propanoate'
_symmetry_cell_setting           triclinic
_symmetry_space_group_name_H-M   'P -1'
_symmetry_Int_Tables_number      2
_space_group_name_Hall           '-P 1'
loop_
_symmetry_equiv_pos_site_id
_symmetry_equiv_pos_as_xyz
1 x,y,z
2 -x,-y,-z
_cell_length_a                   10.440(2)
_cell_length_b                   13.354(3)
_cell_length_c                   17.733(4)
_cell_angle_alpha                89.41(3)
_cell_angle_beta                 85.38(3)
_cell_angle_gamma                72.64(3)
_cell_volume                     2351.73
_exptl_crystal_colour            colorless
_exptl_crystal_description       block
_cell_formula_units_Z            4
loop_
_atom_site_label
_atom_site_type_symbol
_atom_site_fract_x
_atom_site_fract_y
_atom_site_fract_z
C1 C 0.1768(2) 0.51211(15) 0.29765(12)
H1 H 0.2566 0.4913 0.2645
C2 C 0.0906(2) 0.61294(16) 0.29460(12)
H2 H 0.1108 0.6609 0.2591
C3 C -0.0245(2) 0.64400(15) 0.34297(12)
H3 H -0.0833 0.7135 0.3411
C4 C -0.0544(2) 0.57375(16) 0.39441(13)
H4 H -0.1338 0.5954 0.4278
C5 C 0.0305(2) 0.47242(15) 0.39750(12)
H5 H 0.0090 0.4245 0.4326
C6 C 0.14747(18) 0.44073(14) 0.34909(10)
C7 C 0.23924(18) 0.33247(14) 0.35010(10)
C8 C 0.3588(2) 0.29550(14) 0.29320(12)
H6 H 0.3313 0.2971 0.2410
H7 H 0.4220 0.3375 0.2962
C9 C 0.32899(18) 0.16419(14) 0.38330(10)
C10 C 0.2666(2) 0.07918(14) 0.36061(10)
C11 C 0.3272(2) -0.02756(15) 0.37180(12)
H8 H 0.4082 -0.0495 0.3965
C12 C 0.2708(2) -0.10195(16) 0.34729(12)
H9 H 0.3135 -0.1744 0.3550
C13 C 0.1525(3) -0.07083(18) 0.31160(14)
H10 H 0.1135 -0.1216 0.2948
C14 C 0.0916(2) 0.03453(18) 0.30058(14)
H11 H 0.0103 0.0562 0.2762
C15 C 0.1479(2) 0.10906(16) 0.32472(12)
H12 H 0.1048 0.1813 0.3167
C16 C 0.41034(19) 0.13964(15) 0.45538(11)
H13 H 0.4754 0.0676 0.4488
C17 C 0.3164(2) 0.14010(15) 0.52553(11)
C18 C 0.1639(2) 0.0566(2) 0.58415(13)
H14 H 0.2040 0.0535 0.6326
H15 H 0.1359 -0.0064 0.5776
H16 H 0.0854 0.1190 0.5837
C19 C 0.4906(2) 0.21635(17) 0.46561(13)
H17 H 0.4297 0.2883 0.4676
H18 H 0.5588 0.2088 0.4230
H19 H 0.5350 0.2013 0.5129
C20 C 0.4605(2) 0.07452(14) 0.18666(11)
C21 C 0.4246(2) -0.01729(15) 0.18629(12)
H20 H 0.4426 -0.0642 0.2274
C22 C 0.3625(2) -0.04018(16) 0.12571(12)
H21 H 0.3373 -0.1029 0.1258
C23 C 0.3362(2) 0.02710(17) 0.06446(12)
C24 C 0.3734(3) 0.11842(18) 0.06634(13)
H22 H 0.3558 0.1653 0.0252
C25 C 0.4352(2) 0.14302(16) 0.12629(12)
H23 H 0.4601 0.2059 0.1264
C26 C 0.2696(3) 0.0002(2) -0.00141(15)
H24 H 0.1718 0.0221 0.0103
H25 H 0.3019 -0.0758 -0.0109
H26 H 0.2918 0.0367 -0.0465
N1 N 0.22366(15) 0.26351(11) 0.39744(9)
N2 N 0.41627(16) 0.18880(11) 0.31841(9)
O1 O 0.29552(16) 0.20088(12) 0.57779(9)
O2 O 0.26177(16) 0.06196(12) 0.52328(8)
O3 O 0.58291(14) 0.01465(10) 0.30924(8)
O4 O 0.62479(14) 0.16369(11) 0.23721(9)
S1 S 0.53479(5) 0.10724(4) 0.26529(3)
C27 C 0.9405(2) 0.75202(16) 0.09127(12)
H27 H 0.9581 0.6955 0.0561
C28 C 1.0136(2) 0.82239(17) 0.08322(13)
H28 H 1.0834 0.8129 0.0437
C29 C 0.9852(2) 0.90745(17) 0.13303(13)
H29 H 1.0355 0.9561 0.1276
C30 C 0.8837(2) 0.92092(16) 0.19039(12)
H30 H 0.8624 0.9802 0.2234
C31 C 0.8129(2) 0.84843(15) 0.20008(12)
H31 H 0.7449 0.8570 0.2405
C32 C 0.84140(19) 0.76286(14) 0.15040(11)
C33 C 0.76735(19) 0.68445(14) 0.16105(11)
C34 C 0.6820(2) 0.67757(15) 0.23277(12)
H32 H 0.7350 0.6659 0.2776
H33 H 0.6035 0.7410 0.2412
C35 C 0.6933(2) 0.54719(14) 0.13522(11)
C36 C 0.7854(2) 0.43336(14) 0.13590(11)
C37 C 0.7469(2) 0.34645(15) 0.11759(11)
H34 H 0.6592 0.3559 0.1018
C38 C 0.8345(2) 0.24596(16) 0.12196(12)
H35 H 0.8056 0.1873 0.1102
C39 C 0.9629(3) 0.23024(18) 0.14314(15)
H36 H 1.0239 0.1614 0.1440
C40 C 1.0017(3) 0.31610(19) 0.16314(18)
H37 H 1.0889 0.3060 0.1797
C41 C 0.9141(2) 0.41674(17) 0.15924(15)
H38 H 0.9423 0.4751 0.1727
C42 C 0.5752(2) 0.56864(15) 0.08202(12)
H39 H 0.5341 0.5100 0.0876
C43 C 0.6281(2) 0.57101(17) 0.00066(13)
C44 C 0.7731(3) 0.4809(3) -0.10094(15)
H40 H 0.6999 0.5080 -0.1339
H41 H 0.8244 0.4090 -0.1166
H42 H 0.8329 0.5254 -0.1047
C45 C 0.4653(2) 0.67141(17) 0.10153(16)
H43 H 0.5046 0.7296 0.0988
H44 H 0.4245 0.6679 0.1529
H45 H 0.3961 0.6827 0.0655
C46 C 0.6349(2) 0.46475(16) 0.33895(11)
C47 C 0.7083(2) 0.36176(16) 0.32110(12)
H46 H 0.7098 0.3343 0.2717
C48 C 0.7791(2) 0.29944(19) 0.37544(13)
H47 H 0.8294 0.2290 0.3628
C49 C 0.7788(3) 0.3368(2) 0.44786(14)
C50 C 0.7042(3) 0.4396(3) 0.46524(14)
H48 H 0.7024 0.4662 0.5149
C51 C 0.6327(3) 0.5042(2) 0.41216(13)
H49 H 0.5824 0.5746 0.4250
C52 C 0.8586(4) 0.2664(3) 0.50606(18)
H50 H 0.9549 0.2565 0.4939
H51 H 0.8414 0.1981 0.5055
H52 H 0.8312 0.2989 0.5564
N3 N 0.77303(17) 0.61627(12) 0.11003(9)
N4 N 0.64177(17) 0.58580(12) 0.21424(10)
O5 O 0.5903(2) 0.64465(13) -0.04037(10)
O6 O 0.71724(17) 0.48133(13) -0.02334(8)
O7 O 0.49190(14) 0.47622(11) 0.22575(9)
O8 O 0.44799(16) 0.63251(12) 0.31006(10)
S2 S 0.54069(5) 0.54340(4) 0.27106(3)
loop_
_geom_bond_atom_site_label_1
_geom_bond_atom_site_label_2
_geom_bond_site_symmetry_1
_geom_bond_site_symmetry_2
C1 H1 1_555 1_555
C2 C1 1_555 1_555
H2 C2 1_555 1_555
C3 C2 1_555 1_555
H3 C3 1_555 1_555
C4 C3 1_555 1_555
H4 C4 1_555 1_555
C5 C4 1_555 1_555
H5 C5 1_555 1_555
C6 C1 1_555 1_555
C7 C6 1_555 1_555
C8 C7 1_555 1_555
H6 C8 1_555 1_555
H7 C8 1_555 1_555
C9 C10 1_555 1_555
C10 C11 1_555 1_555
C11 H8 1_555 1_555
C12 C11 1_555 1_555
H9 C12 1_555 1_555
C13 C12 1_555 1_555
H10 C13 1_555 1_555
C14 C13 1_555 1_555
H11 C14 1_555 1_555
C15 C10 1_555 1_555
H12 C15 1_555 1_555
C16 C9 1_555 1_555
H13 C16 1_555 1_555
C17 C16 1_555 1_555
C18 H14 1_555 1_555
H15 C18 1_555 1_555
H16 C18 1_555 1_555
C19 C16 1_555 1_555
H17 C19 1_555 1_555
H18 C19 1_555 1_555
H19 C19 1_555 1_555
C20 C21 1_555 1_555
C21 H20 1_555 1_555
C22 C21 1_555 1_555
H21 C22 1_555 1_555
C23 C22 1_555 1_555
C24 C23 1_555 1_555
H22 C24 1_555 1_555
C25 C20 1_555 1_555
H23 C25 1_555 1_555
C26 C23 1_555 1_555
H24 C26 1_555 1_555
H25 C26 1_555 1_555
H26 C26 1_555 1_555
N1 C7 1_555 1_555
N2 C8 1_555 1_555
O1 C17 1_555 1_555
O2 C17 1_555 1_555
O3 S1 1_555 1_555
O4 S1 1_555 1_555
S1 C20 1_555 1_555
C27 H27 1_555 1_555
C28 C27 1_555 1_555
H28 C28 1_555 1_555
C29 C28 1_555 1_555
H29 C29 1_555 1_555
C30 C29 1_555 1_555
H30 C30 1_555 1_555
C31 C30 1_555 1_555
H31 C31 1_555 1_555
C32 C27 1_555 1_555
C33 C32 1_555 1_555
C34 C33 1_555 1_555
H32 C34 1_555 1_555
H33 C34 1_555 1_555
C35 C36 1_555 1_555
C36 C37 1_555 1_555
C37 H34 1_555 1_555
C38 C37 1_555 1_555
H35 C38 1_555 1_555
C39 C38 1_555 1_555
H36 C39 1_555 1_555
C40 C39 1_555 1_555
H37 C40 1_555 1_555
C41 C36 1_555 1_555
H38 C41 1_555 1_555
C42 C35 1_555 1_555
H39 C42 1_555 1_555
C43 C42 1_555 1_555
C44 H40 1_555 1_555
H41 C44 1_555 1_555
H42 C44 1_555 1_555
C45 C42 1_555 1_555
H43 C45 1_555 1_555
H44 C45 1_555 1_555
H45 C45 1_555 1_555
C46 C47 1_555 1_555
C47 H46 1_555 1_555
C48 C47 1_555 1_555
H47 C48 1_555 1_555
C49 C48 1_555 1_555
C50 C49 1_555 1_555
H48 C50 1_555 1_555
C51 C46 1_555 1_555
H49 C51 1_555 1_555
C52 C49 1_555 1_555
H50 C52 1_555 1_555
H51 C52 1_555 1_555
H52 C52 1_555 1_555
N3 C33 1_555 1_555
N4 C34 1_555 1_555
O5 C43 1_555 1_555
O6 C43 1_555 1_555
O7 S2 1_555 1_555
O8 S2 1_555 1_555
S2 C46 1_555 1_555
C5 C6 1_555 1_555
C9 N1 1_555 1_555
C9 N2 1_555 1_555
C14 C15 1_555 1_555
C18 O2 1_555 1_555
C24 C25 1_555 1_555
N2 S1 1_555 1_555
C31 C32 1_555 1_555
C35 N3 1_555 1_555
C35 N4 1_555 1_555
C40 C41 1_555 1_555
C44 O6 1_555 1_555
C50 C51 1_555 1_555
N4 S2 1_555 1_555

#END
