
#######################################################################
#
#                 Cambridge Crystallographic Data Centre
#                                CCDC 
#
#######################################################################
#
# If this CIF has been generated from an entry in the Cambridge 
# Structural Database, then it will include bibliographic, chemical, 
# crystal, experimental, refinement or atomic coordinate data resulting 
# from the CCDC's data processing and validation procedures.
#
#######################################################################

data_JOXSAS
_chemical_compound_source        'Myrioneuron faberi'
_chemical_formula_moiety         'C16 H24 N2 O1,0.33(H2 O1)'
_chemical_name_systematic        
"3a,5,6,6a,7,10,11,12,12a,13a-Decahydro-3H,4H,9H-dipyrido[2,1-b:3',2',1'-ij]quinazoline-2-carbaldehyde hydrate"
_symmetry_cell_setting           orthorhombic
_symmetry_space_group_name_H-M   'P 21 21 21'
_symmetry_Int_Tables_number      19
_space_group_name_Hall           'P 2ac 2ab'
loop_
_symmetry_equiv_pos_site_id
_symmetry_equiv_pos_as_xyz
1 x,y,z
2 1/2+x,1/2-y,-z
3 -x,1/2+y,1/2-z
4 1/2-x,-y,1/2+z
_cell_length_a                   9.7135(3)
_cell_length_b                   13.9213(4)
_cell_length_c                   31.7069(8)
_cell_angle_alpha                90
_cell_angle_beta                 90
_cell_angle_gamma                90
_cell_volume                     4287.55
_exptl_crystal_colour            colorless
_exptl_crystal_description       prism
_cell_formula_units_Z            12
loop_
_atom_site_label
_atom_site_type_symbol
_atom_site_fract_x
_atom_site_fract_y
_atom_site_fract_z
O1 O 0.77305(16) 0.52664(10) 0.24089(5)
N1 N 0.54260(17) 0.31968(11) 0.14508(5)
N2 N 0.67292(17) 0.20655(12) 0.10470(5)
C1 C 0.7326(2) 0.50217(14) 0.20566(6)
H1 H 0.7616 0.5391 0.1821
C2 C 0.6442(2) 0.42126(13) 0.19801(6)
C3 C 0.61912(19) 0.39665(13) 0.15701(6)
H2 H 0.6576 0.4358 0.1355
C4 C 0.5577(2) 0.27556(13) 0.10354(6)
H3 H 0.4716 0.2386 0.0975
C5 C 0.6869(2) 0.15696(15) 0.06389(7)
H4 H 0.6029 0.1186 0.0585
H5 H 0.7660 0.1122 0.0653
C6 C 0.7085(2) 0.22658(16) 0.02767(6)
H6 H 0.7144 0.1907 0.0008
H7 H 0.7960 0.2619 0.0317
C7 C 0.5903(2) 0.36363(13) 0.23438(6)
H8 H 0.5557 0.4076 0.2565
H9 H 0.6660 0.3250 0.2466
C8 C 0.4740(2) 0.29679(14) 0.22019(6)
H10 H 0.3895 0.3368 0.2161
C9 C 0.4398(2) 0.21805(15) 0.25226(6)
H11 H 0.4238 0.2480 0.2802
H12 H 0.3535 0.1857 0.2436
C10 C 0.5540(2) 0.14290(14) 0.25634(6)
H13 H 0.5244 0.0918 0.2761
H14 H 0.6378 0.1734 0.2680
C11 C 0.5871(2) 0.09854(14) 0.21320(6)
H15 H 0.6648 0.0531 0.2162
H16 H 0.5061 0.0621 0.2030
C12 C 0.6247(2) 0.17589(14) 0.18086(6)
H17 H 0.7102 0.2095 0.1904
C13 C 0.6500(2) 0.13320(14) 0.13735(6)
H18 H 0.7314 0.0905 0.1387
H19 H 0.5697 0.0935 0.1293
C14 C 0.5077(2) 0.24902(13) 0.17796(6)
H20 H 0.4235 0.2139 0.1684
C15 C 0.5765(2) 0.34850(14) 0.06834(6)
H21 H 0.6603 0.3871 0.0737
H22 H 0.4966 0.3926 0.0677
C16 C 0.5895(2) 0.29709(16) 0.02586(6)
H23 H 0.5030 0.2624 0.0195
H24 H 0.6058 0.3447 0.0032
O2 O 0.27883(18) 0.94547(11) -0.09198(5)
N3 N 0.53798(17) 0.79518(11) 0.01679(5)
N4 N 0.41730(18) 0.72310(11) 0.07385(5)
C17 C 0.3293(2) 0.93840(15) -0.05640(7)
H25 H 0.3093 0.9880 -0.0367
C18 C 0.4156(2) 0.86146(14) -0.04244(7)
C19 C 0.4576(2) 0.86289(13) -0.00138(7)
H26 H 0.4283 0.9152 0.0157
C20 C 0.5393(2) 0.78091(13) 0.06256(6)
H27 H 0.6232 0.7428 0.0699
C21 C 0.4089(2) 0.70711(15) 0.11962(6)
H28 H 0.4878 0.6672 0.1287
H29 H 0.3233 0.6714 0.1261
C22 C 0.4098(2) 0.80050(16) 0.14400(6)
H30 H 0.4050 0.7869 0.1746
H31 H 0.3282 0.8393 0.1362
C23 C 0.5537(2) 0.70439(14) -0.00641(6)
H32 H 0.6391 0.6724 0.0042
C24 C 0.5712(2) 0.72037(15) -0.05370(6)
H33 H 0.6587 0.7568 -0.0581
C25 C 0.5869(2) 0.62237(15) -0.07497(7)
H34 H 0.5910 0.6316 -0.1059
H35 H 0.6752 0.5933 -0.0660
C26 C 0.4697(2) 0.55311(16) -0.06461(7)
H36 H 0.3830 0.5775 -0.0771
H37 H 0.4895 0.4896 -0.0773
C27 C 0.4517(2) 0.54197(15) -0.01707(7)
H38 H 0.5338 0.5098 -0.0051
H39 H 0.3707 0.5008 -0.0113
C28 C 0.4319(2) 0.63928(14) 0.00448(6)
H40 H 0.3454 0.6694 -0.0063
C29 C 0.4221(2) 0.62963(14) 0.05244(6)
H41 H 0.3382 0.5927 0.0597
H42 H 0.5026 0.5930 0.0628
C30 C 0.5450(2) 0.87496(14) 0.08686(7)
H43 H 0.4662 0.9160 0.0786
H44 H 0.6309 0.9096 0.0797
C31 C 0.5402(2) 0.85642(15) 0.13425(7)
H45 H 0.6220 0.8191 0.1431
H46 H 0.5401 0.9181 0.1498
C32 C 0.4530(2) 0.78085(15) -0.07176(6)
H47 H 0.4809 0.8076 -0.0994
H48 H 0.3715 0.7394 -0.0763
O3 O 0.31233(18) 0.03539(12) 0.11029(6)
N5 N 0.01595(18) 0.24127(11) 0.18690(5)
N6 N 0.11078(19) 0.34330(13) 0.23973(5)
C33 C 0.2414(2) 0.05818(15) 0.14070(8)
H49 H 0.2434 0.0175 0.1647
C34 C 0.1561(2) 0.14157(14) 0.14253(7)
C35 C 0.0958(2) 0.16326(14) 0.18016(7)
H50 H 0.1109 0.1208 0.2031
C36 C -0.0059(2) 0.27977(14) 0.22934(6)
H51 H -0.0914 0.3197 0.2288
C37 C -0.0248(2) 0.20142(17) 0.26246(7)
H52 H -0.1060 0.1618 0.2552
H53 H 0.0572 0.1591 0.2627
C38 C -0.0446(3) 0.2452(2) 0.30604(7)
H54 H -0.0539 0.1938 0.3274
H55 H -0.1293 0.2848 0.3066
C39 C 0.0805(3) 0.3073(2) 0.31579(7)
H56 H 0.0694 0.3376 0.3438
H57 H 0.1642 0.2669 0.3165
C40 C 0.1430(2) 0.20641(15) 0.10485(7)
H58 H 0.1300 0.1671 0.0791
H59 H 0.2287 0.2442 0.1015
C41 C 0.0208(2) 0.27468(14) 0.11008(6)
H60 H -0.0654 0.2369 0.1054
C42 C 0.0149(2) 0.31645(13) 0.15442(6)
H61 H -0.0738 0.3524 0.1571
C43 C 0.0958(3) 0.38439(19) 0.28240(7)
H62 H 0.0141 0.4268 0.2830
H63 H 0.1777 0.4241 0.2889
C44 C 0.1193(2) 0.42264(15) 0.20906(7)
H64 H 0.2001 0.4632 0.2159
H65 H 0.0359 0.4631 0.2116
C45 C 0.1320(2) 0.38708(13) 0.16382(6)
H66 H 0.2217 0.3524 0.1608
C46 C 0.1283(2) 0.46927(14) 0.13192(7)
H67 H 0.2068 0.5131 0.1371
H68 H 0.0422 0.5064 0.1356
C47 C 0.1359(2) 0.43119(16) 0.08677(7)
H69 H 0.1264 0.4853 0.0667
H70 H 0.2269 0.4010 0.0820
C48 C 0.0225(2) 0.35759(15) 0.07839(7)
H71 H 0.0349 0.3310 0.0497
H72 H -0.0677 0.3905 0.0792
O4 O 0.3289(19) 0.0761(12) 0.0326(4)
loop_
_geom_bond_atom_site_label_1
_geom_bond_atom_site_label_2
_geom_bond_site_symmetry_1
_geom_bond_site_symmetry_2
O1 C1 1_555 1_555
N1 C3 1_555 1_555
N2 C4 1_555 1_555
C1 H1 1_555 1_555
C2 C1 1_555 1_555
C3 C2 1_555 1_555
H2 C3 1_555 1_555
C4 N1 1_555 1_555
H3 C4 1_555 1_555
C5 N2 1_555 1_555
H4 C5 1_555 1_555
H5 C5 1_555 1_555
C6 C5 1_555 1_555
H6 C6 1_555 1_555
H7 C6 1_555 1_555
C7 C2 1_555 1_555
H8 C7 1_555 1_555
H9 C7 1_555 1_555
C8 C7 1_555 1_555
H10 C8 1_555 1_555
C9 C8 1_555 1_555
H11 C9 1_555 1_555
H12 C9 1_555 1_555
C10 C9 1_555 1_555
H13 C10 1_555 1_555
H14 C10 1_555 1_555
C11 C10 1_555 1_555
H15 C11 1_555 1_555
H16 C11 1_555 1_555
C12 C11 1_555 1_555
H17 C12 1_555 1_555
C13 N2 1_555 1_555
H18 C13 1_555 1_555
H19 C13 1_555 1_555
C14 N1 1_555 1_555
H20 C14 1_555 1_555
C15 C4 1_555 1_555
H21 C15 1_555 1_555
H22 C15 1_555 1_555
C16 C6 1_555 1_555
H23 C16 1_555 1_555
H24 C16 1_555 1_555
O2 C17 1_555 1_555
N3 C19 1_555 1_555
N4 C20 1_555 1_555
C17 H25 1_555 1_555
C18 C17 1_555 1_555
C19 C18 1_555 1_555
H26 C19 1_555 1_555
C20 N3 1_555 1_555
H27 C20 1_555 1_555
C21 N4 1_555 1_555
H28 C21 1_555 1_555
H29 C21 1_555 1_555
C22 C21 1_555 1_555
H30 C22 1_555 1_555
H31 C22 1_555 1_555
C23 N3 1_555 1_555
H32 C23 1_555 1_555
C24 C23 1_555 1_555
H33 C24 1_555 1_555
C25 C24 1_555 1_555
H34 C25 1_555 1_555
H35 C25 1_555 1_555
C26 C25 1_555 1_555
H36 C26 1_555 1_555
H37 C26 1_555 1_555
C27 C26 1_555 1_555
H38 C27 1_555 1_555
H39 C27 1_555 1_555
C28 C23 1_555 1_555
H40 C28 1_555 1_555
C29 N4 1_555 1_555
H41 C29 1_555 1_555
H42 C29 1_555 1_555
C30 C20 1_555 1_555
H43 C30 1_555 1_555
H44 C30 1_555 1_555
C31 C22 1_555 1_555
H45 C31 1_555 1_555
H46 C31 1_555 1_555
C32 C18 1_555 1_555
H47 C32 1_555 1_555
H48 C32 1_555 1_555
O3 C33 1_555 1_555
N5 C35 1_555 1_555
N6 C36 1_555 1_555
C33 H49 1_555 1_555
C34 C33 1_555 1_555
C35 C34 1_555 1_555
H50 C35 1_555 1_555
C36 N5 1_555 1_555
H51 C36 1_555 1_555
C37 C36 1_555 1_555
H52 C37 1_555 1_555
H53 C37 1_555 1_555
C38 C37 1_555 1_555
H54 C38 1_555 1_555
H55 C38 1_555 1_555
C39 C38 1_555 1_555
H56 C39 1_555 1_555
H57 C39 1_555 1_555
C40 C34 1_555 1_555
H58 C40 1_555 1_555
H59 C40 1_555 1_555
C41 C40 1_555 1_555
H60 C41 1_555 1_555
C42 N5 1_555 1_555
H61 C42 1_555 1_555
C43 N6 1_555 1_555
H62 C43 1_555 1_555
H63 C43 1_555 1_555
C44 N6 1_555 1_555
H64 C44 1_555 1_555
H65 C44 1_555 1_555
C45 C42 1_555 1_555
H66 C45 1_555 1_555
C46 C45 1_555 1_555
H67 C46 1_555 1_555
H68 C46 1_555 1_555
C47 C46 1_555 1_555
H69 C47 1_555 1_555
H70 C47 1_555 1_555
C48 C41 1_555 1_555
H71 C48 1_555 1_555
H72 C48 1_555 1_555
C8 C14 1_555 1_555
C12 C13 1_555 1_555
C12 C14 1_555 1_555
C15 C16 1_555 1_555
C24 C32 1_555 1_555
C27 C28 1_555 1_555
C28 C29 1_555 1_555
C30 C31 1_555 1_555
C39 C43 1_555 1_555
C41 C42 1_555 1_555
C44 C45 1_555 1_555
C47 C48 1_555 1_555

#END
