
#######################################################################
#
#                 Cambridge Crystallographic Data Centre
#                                CCDC 
#
#######################################################################
#
# If this CIF has been generated from an entry in the Cambridge 
# Structural Database, then it will include bibliographic, chemical, 
# crystal, experimental, refinement or atomic coordinate data resulting 
# from the CCDC's data processing and validation procedures.
#
#######################################################################

data_JOXTUN
_chemical_formula_moiety         'C26 H27 N3 O3'
_chemical_name_systematic        
2,2,6,6-tetramethyl-5,6,12,13,15a,16-hexahydro-10H-pyrano[2,3-g]pyrrolo[1'',2'':4',5']pyrazino[1',2':1,2]azocino[5,4-b]indole-10,15(2H)-dione
_symmetry_cell_setting           monoclinic
_symmetry_space_group_name_H-M   'C 2'
_symmetry_Int_Tables_number      5
_space_group_name_Hall           'C 2y'
loop_
_symmetry_equiv_pos_site_id
_symmetry_equiv_pos_as_xyz
1 x,y,z
2 -x,y,-z
3 1/2+x,1/2+y,z
4 1/2-x,1/2+y,-z
_cell_length_a                   42.4851(7)
_cell_length_b                   7.73880(10)
_cell_length_c                   14.2913(2)
_cell_angle_alpha                90
_cell_angle_beta                 103.844(2)
_cell_angle_gamma                90
_cell_volume                     4562.25
_cell_formula_units_Z            8
loop_
_atom_site_label
_atom_site_type_symbol
_atom_site_fract_x
_atom_site_fract_y
_atom_site_fract_z
O1 O 0.71970(3) 0.5578(2) 0.86102(11)
O2 O 0.61860(4) -0.02875(19) 1.03679(10)
N1 N 0.55813(4) 0.2694(2) 0.90625(11)
N2 N 0.60286(3) 0.4910(2) 0.72643(10)
H1 H 0.5969 0.5854 0.6955
C1 C 0.57205(5) 0.4271(3) 0.93021(14)
N3 N 0.61706(4) 0.2611(2) 1.03606(11)
C2 C 0.63346(4) 0.2833(2) 0.81273(11)
C3 C 0.66251(4) 0.5499(3) 0.78934(12)
C4 C 0.60444(5) 0.4212(3) 0.99662(14)
C5 C 0.60570(4) 0.1076(3) 1.00319(13)
C6 C 0.63409(4) 0.4513(2) 0.77463(12)
O3 O 0.55859(4) 0.5641(2) 0.90361(12)
C7 C 0.69071(4) 0.3041(3) 0.87974(14)
H2 H 0.7101 0.2554 0.9135
C8 C 0.60057(4) 0.2251(2) 0.78702(12)
C9 C 0.66506(4) 0.7234(3) 0.75263(13)
H3 H 0.6482 0.7698 0.7057
C10 C 0.66247(4) 0.2099(3) 0.86538(13)
H4 H 0.6626 0.0989 0.8903
C11 C 0.58254(4) 0.3553(2) 0.73540(12)
C12 C 0.52791(4) 0.2600(3) 0.83534(15)
H5 H 0.5097 0.2256 0.8560
C13 C 0.52397(4) 0.2959(3) 0.74392(14)
H6 H 0.5029 0.2779 0.7078
C14 C 0.69161(5) 0.8143(3) 0.78670(15)
H7 H 0.6939 0.9223 0.7606
C15 C 0.53578(5) 0.5467(3) 0.65520(19)
H8 H 0.5134 0.5460 0.6210
H9 H 0.5487 0.5925 0.6143
H10 H 0.5384 0.6173 0.7118
C16 C 0.71829(5) 0.7457(3) 0.86726(16)
C17 C 0.57667(4) 0.1076(2) 0.91741(13)
H11 H 0.5621 0.0146 0.9273
C18 C 0.54675(4) 0.3610(3) 0.68488(13)
C19 C 0.69042(4) 0.4723(3) 0.84401(13)
C20 C 0.64768(6) 0.2891(3) 1.10881(16)
H12 H 0.6649 0.2178 1.0957
H13 H 0.6452 0.2635 1.1731
C21 C 0.62454(6) 0.5487(3) 1.02975(18)
H14 H 0.6207 0.6644 1.0133
C22 C 0.58769(4) 0.0661(2) 0.82335(13)
H15 H 0.6044 -0.0223 0.8363
H16 H 0.5694 0.0222 0.7747
C23 C 0.54212(5) 0.2463(5) 0.59459(16)
H17 H 0.5486 0.1302 0.6135
H18 H 0.5551 0.2901 0.5534
H19 H 0.5197 0.2472 0.5605
C24 C 0.75162(6) 0.8068(4) 0.8600(2)
H20 H 0.7549 0.7767 0.7979
H21 H 0.7679 0.7524 0.9094
H22 H 0.7530 0.9300 0.8681
C25 C 0.71179(6) 0.7931(4) 0.96446(16)
H23 H 0.7123 0.9165 0.9717
H24 H 0.7282 0.7424 1.0152
H25 H 0.6909 0.7504 0.9678
C26 C 0.65469(7) 0.4802(3) 1.0984(2)
H26 H 0.6584 0.5385 1.1601
H27 H 0.6736 0.4956 1.0721
N4 N 0.60912(3) 0.7959(2) 1.22303(10)
H28 H 0.6097 0.8313 1.1664
O4 O 0.59190(4) 0.8177(2) 1.60604(10)
C27 C 0.63566(4) 0.7782(2) 1.29988(12)
O5 O 0.72166(3) 0.8217(3) 1.41229(12)
O6 O 0.55522(4) 1.1650(2) 1.27248(13)
N5 N 0.60093(4) 1.0280(2) 1.50750(12)
N6 N 0.54526(4) 0.9494(2) 1.36853(12)
C28 C 0.58123(4) 0.7477(2) 1.25120(12)
C29 C 0.62416(4) 0.7170(2) 1.37830(12)
C30 C 0.58991(4) 0.6958(2) 1.34549(12)
C31 C 0.59351(5) 1.1201(2) 1.41966(15)
C32 C 0.54848(4) 0.7406(3) 1.17959(13)
C33 C 0.56344(5) 1.0804(3) 1.34638(15)
C34 C 0.58445(4) 0.8936(3) 1.52790(14)
C35 C 0.55679(4) 0.8275(2) 1.44824(13)
H29 H 0.5385 0.8013 1.4768
C36 C 0.68922(4) 0.7875(3) 1.39722(14)
C37 C 0.66856(4) 0.8140(2) 1.30659(13)
C38 C 0.67831(5) 0.7306(3) 1.47624(14)
H30 H 0.6930 0.7172 1.5356
C39 C 0.54821(5) 0.8561(4) 1.09188(15)
H31 H 0.5643 0.8162 1.0600
H32 H 0.5529 0.9731 1.1129
H33 H 0.5272 0.8511 1.0480
C40 C 0.68262(4) 0.8716(3) 1.22885(15)
H34 H 0.6694 0.8924 1.1680
C41 C 0.64611(4) 0.6941(3) 1.46748(13)
H35 H 0.6390 0.6546 1.5203
C42 C 0.51817(4) 0.8861(3) 1.29593(16)
H36 H 0.4975 0.9102 1.3040
C43 C 0.71410(5) 0.8944(4) 1.24465(16)
H37 H 0.7228 0.9514 1.1994
C44 C 0.63097(6) 1.0972(3) 1.57050(17)
H38 H 0.6468 1.0062 1.5913
H39 H 0.6266 1.1530 1.6268
C45 C 0.52008(4) 0.7970(3) 1.21913(15)
H40 H 0.5001 0.7616 1.1818
C46 C 0.56752(4) 0.6559(2) 1.40865(14)
H41 H 0.5784 0.5829 1.4617
H42 H 0.5487 0.5944 1.3721
C47 C 0.54256(6) 0.5524(3) 1.14515(17)
H43 H 0.5419 0.4795 1.1990
H44 H 0.5598 0.5154 1.1170
H45 H 0.5223 0.5448 1.0980
C48 C 0.61582(6) 1.2357(3) 1.4171(2)
H46 H 0.6151 1.3126 1.3666
C49 C 0.64281(8) 1.2272(4) 1.5068(2)
H47 H 0.6465 1.3393 1.5378
H48 H 0.6628 1.1883 1.4920
C50 C 0.73709(10) 0.8245(5) 1.3409(4)
C51 C 0.76640(14) 0.9455(9) 1.3700(6)
H49 H 0.7801 0.9074 1.4299
H50 H 0.7590 1.0609 1.3773
H51 H 0.7784 0.9441 1.3209
C52 C 0.74603(15) 0.6343(7) 1.3337(4)
H52 H 0.7610 0.5996 1.3923
H53 H 0.7559 0.6193 1.2806
H54 H 0.7268 0.5648 1.3238
C53? C 0.73376(14) 0.9227(8) 1.3412(5)
C54? C 0.76893(16) 0.8636(13) 1.3526(9)
H55? H 0.7786 0.8420 1.4194
H56? H 0.7809 0.9522 1.3292
H57? H 0.7693 0.7595 1.3163
C55? C 0.73100(19) 1.1034(9) 1.3822(6)
H58? H 0.7454 1.1122 1.4451
H59? H 0.7091 1.1227 1.3870
H60? H 0.7368 1.1885 1.3404
loop_
_geom_bond_atom_site_label_1
_geom_bond_atom_site_label_2
_geom_bond_site_symmetry_1
_geom_bond_site_symmetry_2
O1 C16 1_555 1_555
O2 C5 1_555 1_555
N1 C1 1_555 1_555
N2 H1 1_555 1_555
C1 C4 1_555 1_555
N3 C4 1_555 1_555
C2 C6 1_555 1_555
C3 C6 1_555 1_555
C4 C21 1_555 1_555
C5 N3 1_555 1_555
C6 N2 1_555 1_555
O3 C1 1_555 1_555
C7 H2 1_555 1_555
C8 C2 1_555 1_555
C9 C3 1_555 1_555
H3 C9 1_555 1_555
C10 C2 1_555 1_555
H4 C10 1_555 1_555
C11 N2 1_555 1_555
C12 N1 1_555 1_555
H5 C12 1_555 1_555
C13 C12 1_555 1_555
H6 C13 1_555 1_555
C14 C9 1_555 1_555
H7 C14 1_555 1_555
C15 H8 1_555 1_555
H9 C15 1_555 1_555
H10 C15 1_555 1_555
C16 C14 1_555 1_555
C17 N1 1_555 1_555
H11 C17 1_555 1_555
C18 C11 1_555 1_555
C19 O1 1_555 1_555
C20 N3 1_555 1_555
H12 C20 1_555 1_555
H13 C20 1_555 1_555
C21 H14 1_555 1_555
C22 C8 1_555 1_555
H15 C22 1_555 1_555
H16 C22 1_555 1_555
C23 C18 1_555 1_555
H17 C23 1_555 1_555
H18 C23 1_555 1_555
H19 C23 1_555 1_555
C24 C16 1_555 1_555
H20 C24 1_555 1_555
H21 C24 1_555 1_555
H22 C24 1_555 1_555
C25 C16 1_555 1_555
H23 C25 1_555 1_555
H24 C25 1_555 1_555
H25 C25 1_555 1_555
C26 C20 1_555 1_555
H26 C26 1_555 1_555
H27 C26 1_555 1_555
N4 H28 1_555 1_555
O4 C34 1_555 1_555
C27 N4 1_555 1_555
O5 C36 1_555 1_555
O6 C33 1_555 1_555
N5 C31 1_555 1_555
N6 C33 1_555 1_555
C28 N4 1_555 1_555
C29 C27 1_555 1_555
C30 C28 1_555 1_555
C31 C33 1_555 1_555
C32 C28 1_555 1_555
C34 N5 1_555 1_555
C35 N6 1_555 1_555
H29 C35 1_555 1_555
C36 C37 1_555 1_555
C37 C27 1_555 1_555
C38 C36 1_555 1_555
H30 C38 1_555 1_555
C39 C32 1_555 1_555
H31 C39 1_555 1_555
H32 C39 1_555 1_555
H33 C39 1_555 1_555
C40 C37 1_555 1_555
H34 C40 1_555 1_555
C41 C29 1_555 1_555
H35 C41 1_555 1_555
C42 N6 1_555 1_555
H36 C42 1_555 1_555
C43 C40 1_555 1_555
H37 C43 1_555 1_555
C44 N5 1_555 1_555
H38 C44 1_555 1_555
H39 C44 1_555 1_555
C45 C32 1_555 1_555
H40 C45 1_555 1_555
C46 C30 1_555 1_555
H41 C46 1_555 1_555
H42 C46 1_555 1_555
C47 C32 1_555 1_555
H43 C47 1_555 1_555
H44 C47 1_555 1_555
H45 C47 1_555 1_555
C48 C31 1_555 1_555
H46 C48 1_555 1_555
C49 C44 1_555 1_555
H47 C49 1_555 1_555
H48 C49 1_555 1_555
C50 O5 1_555 1_555
C51 C50 1_555 1_555
H49 C51 1_555 1_555
H50 C51 1_555 1_555
H51 C51 1_555 1_555
C52 C50 1_555 1_555
H52 C52 1_555 1_555
H53 C52 1_555 1_555
H54 C52 1_555 1_555
C3 C19 1_555 1_555
C5 C17 1_555 1_555
C7 C10 1_555 1_555
C7 C19 1_555 1_555
C8 C11 1_555 1_555
C13 C18 1_555 1_555
C15 C18 1_555 1_555
C17 C22 1_555 1_555
C21 C26 1_555 1_555
C29 C30 1_555 1_555
C34 C35 1_555 1_555
C35 C46 1_555 1_555
C38 C41 1_555 1_555
C42 C45 1_555 1_555
C43 C50 1_555 1_555
C48 C49 1_555 1_555

#END
