
#######################################################################
#
#                 Cambridge Crystallographic Data Centre
#                                CCDC 
#
#######################################################################
#
# If this CIF has been generated from an entry in the Cambridge 
# Structural Database, then it will include bibliographic, chemical, 
# crystal, experimental, refinement or atomic coordinate data resulting 
# from the CCDC's data processing and validation procedures.
#
#######################################################################

data_JOXVAV
_chemical_formula_moiety         'C23 H16 Br1 N1 O2'
_chemical_name_systematic        
3-benzoyl-4-(4-bromophenyl)-1-methylquinolin-2(1H)-one
_symmetry_cell_setting           monoclinic
_symmetry_space_group_name_H-M   'P 21/c'
_symmetry_Int_Tables_number      14
_space_group_name_Hall           '-P 2ybc'
loop_
_symmetry_equiv_pos_site_id
_symmetry_equiv_pos_as_xyz
1 x,y,z
2 -x,1/2+y,1/2-z
3 -x,-y,-z
4 x,1/2-y,1/2+z
_cell_length_a                   10.3678(4)
_cell_length_b                   9.9254(3)
_cell_length_c                   18.3510(6)
_cell_angle_alpha                90
_cell_angle_beta                 104.086(4)
_cell_angle_gamma                90
_cell_volume                     1831.62
_cell_formula_units_Z            4
_exptl_crystal_recrystallization_method chloroform
loop_
_atom_site_label
_atom_site_type_symbol
_atom_site_fract_x
_atom_site_fract_y
_atom_site_fract_z
Br1 Br 0.59111(4) 1.03328(4) 0.65664(2)
O1 O 0.9473(2) 0.6741(2) 0.28161(12)
O2 O 0.9109(2) 0.9481(2) 0.38715(13)
N1 N 0.8997(2) 0.4934(2) 0.34660(11)
C1 C 0.7812(3) 0.4724(3) 0.51985(15)
H1 H 0.7570 0.5289 0.5547
C2 C 0.7824(3) 0.3356(3) 0.53132(17)
H2 H 0.7607 0.3003 0.5738
C3 C 0.8162(3) 0.2513(3) 0.47916(18)
H3 H 0.8137 0.1585 0.4856
C4 C 0.8532(3) 0.3023(3) 0.41807(16)
H4 H 0.8769 0.2439 0.3839
C5 C 0.8560(2) 0.4410(3) 0.40652(13)
C6 C 0.8152(2) 0.5295(2) 0.45737(13)
C7 C 0.8083(2) 0.6721(3) 0.44158(13)
C8 C 0.8475(2) 0.7181(3) 0.38081(14)
C9 C 0.9027(3) 0.6289(3) 0.33237(14)
C10 C 0.7538(2) 0.7649(2) 0.49098(13)
C11 C 0.8344(3) 0.8588(3) 0.53551(14)
H5 H 0.9221 0.8684 0.5322
C12 C 0.7870(3) 0.9393(3) 0.58501(15)
H6 H 0.8426 1.0006 0.6159
C13 C 0.6571(3) 0.9266(3) 0.58760(14)
C14 C 0.5726(3) 0.8369(3) 0.54262(17)
H7 H 0.4839 0.8316 0.5444
C15 C 0.6217(3) 0.7547(3) 0.49472(15)
H8 H 0.5659 0.6923 0.4648
C16 C 0.8351(3) 0.8624(3) 0.35457(14)
C17 C 0.7272(2) 0.8939(3) 0.28738(14)
C18 C 0.7253(3) 1.0193(3) 0.25290(17)
H9 H 0.7925 1.0813 0.2713
C19 C 0.6238(4) 1.0514(4) 0.19164(19)
H10 H 0.6235 1.1349 0.1686
C20 C 0.5226(4) 0.9606(4) 0.16412(18)
H11 H 0.4541 0.9832 0.1229
C21 C 0.5235(3) 0.8371(3) 0.19787(17)
H12 H 0.4554 0.7758 0.1798
C22 C 0.6259(3) 0.8040(3) 0.25879(15)
H13 H 0.6267 0.7196 0.2809
C23 C 0.9521(3) 0.4028(3) 0.29750(17)
H14 H 0.8845 0.3394 0.2745
H15 H 1.0278 0.3553 0.3267
H16 H 0.9781 0.4545 0.2592
loop_
_geom_bond_atom_site_label_1
_geom_bond_atom_site_label_2
_geom_bond_site_symmetry_1
_geom_bond_site_symmetry_2
Br1 C13 1_555 1_555
O1 C9 1_555 1_555
O2 C16 1_555 1_555
N1 C5 1_555 1_555
C1 H1 1_555 1_555
C2 C1 1_555 1_555
H2 C2 1_555 1_555
C3 C2 1_555 1_555
H3 C3 1_555 1_555
C4 C3 1_555 1_555
H4 C4 1_555 1_555
C5 C4 1_555 1_555
C6 C1 1_555 1_555
C7 C6 1_555 1_555
C8 C7 1_555 1_555
C9 N1 1_555 1_555
C10 C7 1_555 1_555
C11 C10 1_555 1_555
H5 C11 1_555 1_555
C12 C11 1_555 1_555
H6 C12 1_555 1_555
C13 C12 1_555 1_555
C14 C13 1_555 1_555
H7 C14 1_555 1_555
C15 C10 1_555 1_555
H8 C15 1_555 1_555
C16 C8 1_555 1_555
C17 C16 1_555 1_555
C18 C17 1_555 1_555
H9 C18 1_555 1_555
C19 C18 1_555 1_555
H10 C19 1_555 1_555
C20 C19 1_555 1_555
H11 C20 1_555 1_555
C21 C20 1_555 1_555
H12 C21 1_555 1_555
C22 C17 1_555 1_555
H13 C22 1_555 1_555
C23 N1 1_555 1_555
H14 C23 1_555 1_555
H15 C23 1_555 1_555
H16 C23 1_555 1_555
C5 C6 1_555 1_555
C8 C9 1_555 1_555
C14 C15 1_555 1_555
C21 C22 1_555 1_555

#END
