
#######################################################################
#
#                 Cambridge Crystallographic Data Centre
#                                CCDC 
#
#######################################################################
#
# If this CIF has been generated from an entry in the Cambridge 
# Structural Database, then it will include bibliographic, chemical, 
# crystal, experimental, refinement or atomic coordinate data resulting 
# from the CCDC's data processing and validation procedures.
#
#######################################################################

data_JOXWEA
_chemical_formula_moiety         'C17 H11 Cl2 N1 O3'
_chemical_name_systematic        
(Z)-4,7-Dichloro-3-(2-(4-methoxyphenyl)-2-oxoethylidene)-1,3-dihydro-2H-indol-2-one
_symmetry_cell_setting           monoclinic
_symmetry_space_group_name_H-M   'P 21/c'
_symmetry_Int_Tables_number      14
_space_group_name_Hall           '-P 2ybc'
loop_
_symmetry_equiv_pos_site_id
_symmetry_equiv_pos_as_xyz
1 x,y,z
2 -x,1/2+y,1/2-z
3 -x,-y,-z
4 x,1/2-y,1/2+z
_cell_length_a                   8.9990(3)
_cell_length_b                   15.8170(5)
_cell_length_c                   11.6532(4)
_cell_angle_alpha                90
_cell_angle_beta                 111.787(1)
_cell_angle_gamma                90
_cell_volume                     1540.2
_exptl_crystal_colour            yellow
_chemical_melting_point          '253-254 deg.C'
_cell_formula_units_Z            4
_exptl_crystal_recrystallization_method ethanol
loop_
_atom_site_label
_atom_site_type_symbol
_atom_site_fract_x
_atom_site_fract_y
_atom_site_fract_z
Cl1 Cl 0.15513(5) -0.05935(3) -0.29831(4)
Cl2 Cl 0.66457(4) 0.19736(3) 0.02728(4)
O1 O 0.11919(12) 0.06724(6) 0.12026(9)
O2 O 0.40562(15) 0.13547(8) 0.37099(10)
O3 O -0.19317(14) 0.38158(8) 0.20875(11)
N1 N 0.16684(13) 0.02743(7) -0.05347(10)
C1 C 0.29486(16) 0.01283(9) -0.20915(13)
C2 C 0.42162(18) 0.03858(10) -0.24213(15)
C3 C 0.53325(17) 0.09578(10) -0.16935(15)
C4 C 0.52036(15) 0.12752(8) -0.06222(14)
C5 C 0.39530(14) 0.10251(8) -0.02723(12)
C6 C 0.34657(14) 0.12187(7) 0.07687(12)
C7 C 0.19730(15) 0.07055(8) 0.05417(12)
C8 C 0.28229(14) 0.04486(7) -0.10310(12)
C9 C 0.40993(16) 0.17054(9) 0.17667(13)
C10 C 0.34124(17) 0.17591(9) 0.27648(12)
C11 C 0.20288(16) 0.23184(8) 0.25670(11)
C12 C 0.14957(18) 0.28772(9) 0.15807(12)
C13 C 0.01691(18) 0.33902(10) 0.13779(13)
C14 C -0.06307(17) 0.33431(9) 0.21896(13)
C15 C -0.0104(2) 0.27849(11) 0.31901(14)
C16 C 0.1202(2) 0.22808(10) 0.33705(13)
C17 C -0.2544(2) 0.43826(14) 0.1066(2)
H1 H 0.086(2) -0.0062(12) -0.0850(16)
H2 H 0.432(2) 0.0179(12) -0.3149(17)
H3 H 0.501(2) 0.2008(12) 0.1913(17)
H4 H 0.618(2) 0.1140(11) -0.1924(16)
H5 H 0.207(2) 0.2919(10) 0.1030(16)
H6 H -0.012(2) 0.3776(11) 0.0713(17)
H7 H -0.071(2) 0.2770(13) 0.3688(19)
H8 H 0.156(3) 0.1866(13) 0.4074(19)
H9 H -0.293(3) 0.4070(14) 0.026(2)
H10 H -0.340(3) 0.4682(15) 0.121(2)
H11 H -0.171(3) 0.4802(15) 0.105(2)
loop_
_geom_bond_atom_site_label_1
_geom_bond_atom_site_label_2
_geom_bond_site_symmetry_1
_geom_bond_site_symmetry_2
Cl1 C1 1_555 1_555
Cl2 C4 1_555 1_555
O1 C7 1_555 1_555
O2 C10 1_555 1_555
O3 C14 1_555 1_555
N1 C7 1_555 1_555
C1 C2 1_555 1_555
C2 C3 1_555 1_555
C3 C4 1_555 1_555
C4 C5 1_555 1_555
C5 C6 1_555 1_555
C6 C7 1_555 1_555
C8 N1 1_555 1_555
C9 C6 1_555 1_555
C10 C9 1_555 1_555
C11 C10 1_555 1_555
C12 C11 1_555 1_555
C13 C12 1_555 1_555
C14 C13 1_555 1_555
C15 C14 1_555 1_555
C16 C11 1_555 1_555
C17 O3 1_555 1_555
H1 N1 1_555 1_555
H2 C2 1_555 1_555
H3 C9 1_555 1_555
H4 C3 1_555 1_555
H5 C12 1_555 1_555
H6 C13 1_555 1_555
H7 C15 1_555 1_555
H8 C16 1_555 1_555
H9 C17 1_555 1_555
H10 C17 1_555 1_555
H11 C17 1_555 1_555
C1 C8 1_555 1_555
C5 C8 1_555 1_555
C15 C16 1_555 1_555

#END
