
#######################################################################
#
#                 Cambridge Crystallographic Data Centre
#                                CCDC 
#
#######################################################################
#
# If this CIF has been generated from an entry in the Cambridge 
# Structural Database, then it will include bibliographic, chemical, 
# crystal, experimental, refinement or atomic coordinate data resulting 
# from the CCDC's data processing and validation procedures.
#
#######################################################################

data_JOXWUQ
_chemical_formula_moiety         'C18 H16 O3 S3'
_chemical_name_systematic        
'benzyl (5-(methylsulfanyl)-6-(2-thienyl)-1,4-oxathiin-2(3H)-ylidene)acetate'
_symmetry_cell_setting           triclinic
_symmetry_space_group_name_H-M   'P -1'
_symmetry_Int_Tables_number      2
_space_group_name_Hall           '-P 1'
loop_
_symmetry_equiv_pos_site_id
_symmetry_equiv_pos_as_xyz
1 x,y,z
2 -x,-y,-z
_cell_length_a                   4.5264(7)
_cell_length_b                   13.238(2)
_cell_length_c                   14.614(2)
_cell_angle_alpha                85.804(4)
_cell_angle_beta                 82.143(3)
_cell_angle_gamma                84.097(4)
_cell_volume                     861.304
_exptl_crystal_colour            colorless
_exptl_crystal_description       prismatic
_cell_formula_units_Z            2
loop_
_atom_site_label
_atom_site_type_symbol
_atom_site_fract_x
_atom_site_fract_y
_atom_site_fract_z
S1 S 0.7053(2) 0.43668(6) 0.39209(6)
S2 S 0.13975(18) 0.12199(6) 0.46361(5)
S3 S 0.26382(19) 0.31736(6) 0.52862(5)
O1 O 0.4536(5) 0.20167(14) 0.27836(12)
O2 O 0.0639(6) -0.07940(17) 0.26908(14)
O3 O 0.0532(5) -0.02484(14) 0.12037(13)
C1 C 0.9463(7) 0.4885(2) 0.3060(2)
H1 H 1.0392 0.5468 0.3116
C2 C 0.9880(7) 0.4368(2) 0.2296(2)
H2 H 1.1151 0.4557 0.1771
C3 C 0.8208(6) 0.3495(2) 0.23496(19)
H3 H 0.8210 0.3062 0.1876
C4 C 0.6551(6) 0.34006(19) 0.32472(18)
C5 C 0.4669(6) 0.25745(19) 0.35481(17)
C6 C 0.3169(6) 0.2348(2) 0.43868(18)
C7 C 0.3667(7) 0.0496(2) 0.37587(17)
H4 H 0.5731 0.0397 0.3884
H5 H 0.2938 -0.0166 0.3744
C8 C 0.3460(6) 0.1085(2) 0.28614(18)
C9 C 0.2410(6) 0.0806(2) 0.21191(18)
H6 H 0.2479 0.1256 0.1599
C10 C 0.1154(6) -0.0159(2) 0.20673(18)
C11 C -0.0803(7) -0.1166(2) 0.1047(2)
H7 H -0.1977 -0.1027 0.0537
H8 H -0.2145 -0.1355 0.1595
C12 C 0.1514(6) -0.2032(2) 0.08324(19)
C13 C 0.2297(7) -0.2751(2) 0.1528(2)
H9 H 0.1362 -0.2693 0.2132
C14 C 0.4467(8) -0.3550(3) 0.1321(3)
H10 H 0.4993 -0.4024 0.1787
C15 C 0.5835(8) -0.3641(3) 0.0428(3)
H11 H 0.7279 -0.4179 0.0290
C16 C 0.5070(9) -0.2930(3) -0.0270(2)
H12 H 0.5998 -0.2992 -0.0874
C17 C 0.2928(7) -0.2134(2) -0.0062(2)
H13 H 0.2426 -0.1657 -0.0529
C18 C 0.4499(8) 0.2458(3) 0.6173(2)
H14 H 0.3604 0.1831 0.6333
H15 H 0.4302 0.2848 0.6710
H16 H 0.6583 0.2313 0.5948
loop_
_geom_bond_atom_site_label_1
_geom_bond_atom_site_label_2
_geom_bond_site_symmetry_1
_geom_bond_site_symmetry_2
S1 C1 1_555 1_555
S2 C6 1_555 1_555
S3 C6 1_555 1_555
O1 C5 1_555 1_555
O2 C10 1_555 1_555
O3 C10 1_555 1_555
C1 H1 1_555 1_555
C2 C1 1_555 1_555
H2 C2 1_555 1_555
C3 C2 1_555 1_555
H3 C3 1_555 1_555
C4 S1 1_555 1_555
C5 C4 1_555 1_555
C6 C5 1_555 1_555
C7 S2 1_555 1_555
H4 C7 1_555 1_555
H5 C7 1_555 1_555
C8 O1 1_555 1_555
C9 C8 1_555 1_555
H6 C9 1_555 1_555
C10 C9 1_555 1_555
C11 O3 1_555 1_555
H7 C11 1_555 1_555
H8 C11 1_555 1_555
C12 C11 1_555 1_555
C13 C12 1_555 1_555
H9 C13 1_555 1_555
C14 C13 1_555 1_555
H10 C14 1_555 1_555
C15 C14 1_555 1_555
H11 C15 1_555 1_555
C16 C15 1_555 1_555
H12 C16 1_555 1_555
C17 C12 1_555 1_555
H13 C17 1_555 1_555
C18 S3 1_555 1_555
H14 C18 1_555 1_555
H15 C18 1_555 1_555
H16 C18 1_555 1_555
C3 C4 1_555 1_555
C7 C8 1_555 1_555
C16 C17 1_555 1_555

#END
