
#######################################################################
#
#                 Cambridge Crystallographic Data Centre
#                                CCDC 
#
#######################################################################
#
# If this CIF has been generated from an entry in the Cambridge 
# Structural Database, then it will include bibliographic, chemical, 
# crystal, experimental, refinement or atomic coordinate data resulting 
# from the CCDC's data processing and validation procedures.
#
#######################################################################

data_JOXZAZ
_chemical_formula_moiety         '2(C8 H20 N1 1+),C3 H3 N1 O4 2-,10(H2 O1)'
_chemical_name_systematic        
'tetraethylammonium (carboxylatoamino)acetate decahydrate'
_symmetry_cell_setting           monoclinic
_symmetry_space_group_name_H-M   'C 2/c'
_symmetry_Int_Tables_number      15
_space_group_name_Hall           '-C 2yn'
loop_
_symmetry_equiv_pos_site_id
_symmetry_equiv_pos_as_xyz
1 x,y,z
2 -x,y,1/2-z
3 1/2+x,1/2+y,z
4 1/2-x,1/2+y,1/2-z
5 -x,-y,-z
6 x,-y,1/2+z
7 1/2-x,1/2-y,-z
8 1/2+x,1/2-y,1/2+z
_cell_length_a                   21.483(3)
_cell_length_b                   7.9957(12)
_cell_length_c                   19.1694(19)
_cell_angle_alpha                90
_cell_angle_beta                 91.213(13)
_cell_angle_gamma                90
_cell_volume                     3292.02
_exptl_crystal_colour            colorless
_exptl_crystal_description       prism
_cell_formula_units_Z            4
loop_
_atom_site_label
_atom_site_type_symbol
_atom_site_fract_x
_atom_site_fract_y
_atom_site_fract_z
C2 C 0.49366(10) 0.6373(2) 0.18713(10)
H3 H 0.4581 0.7101 0.1937
H4 H 0.5304 0.7076 0.1854
C3 C 0.48565(12) 0.5511(3) 0.11774(10)
H5 H 0.4919 0.6302 0.0809
H6 H 0.4444 0.5055 0.1137
H7 H 0.5156 0.4624 0.1144
C4 C 0.55598(10) 0.4110(3) 0.24385(11)
H8 H 0.5577 0.3380 0.2842
H9 H 0.5500 0.3410 0.2029
C5 C 0.61784(11) 0.4991(4) 0.23846(16)
H10 H 0.6504 0.4176 0.2343
H11 H 0.6253 0.5655 0.2795
H12 H 0.6172 0.5701 0.1981
N2 N 0.5000 0.5243(2) 0.2500
C2A C 0.50634(10) 0.6373(2) 0.31287(10)
H3A H 0.5419 0.7101 0.3063
H4A H 0.4696 0.7076 0.3146
C3A C 0.51435(12) 0.5511(3) 0.38226(10)
H5A H 0.5081 0.6302 0.4191
H6A H 0.5556 0.5055 0.3863
H7A H 0.4844 0.4624 0.3856
C4A C 0.44402(10) 0.4110(3) 0.25615(11)
H8A H 0.4423 0.3380 0.2158
H9A H 0.4500 0.3410 0.2971
C5A C 0.38216(11) 0.4991(4) 0.26154(16)
H10A H 0.3496 0.4176 0.2657
H11A H 0.3747 0.5655 0.2205
H12A H 0.3828 0.5701 0.3019
O3 O 0.28420(6) 0.0762(2) 0.27281(8)
H13 H 0.3220 0.0494 0.2666
H14 H 0.2694 -0.0207 0.2800
O4 O 0.35126(7) 0.2678(2) 0.07212(7)
H15 H 0.3830 0.2245 0.0922
H16 H 0.3397 0.2578 0.0296
O5 O 0.64199(8) 0.7758(2) 0.07297(8)
H17 H 0.6132 0.8372 0.0886
H18 H 0.6713 0.7917 0.1027
O6 O 0.25085(6) 0.77618(19) 0.34149(7)
H19 H 0.2405 0.7031 0.3112
H20 H 0.2197 0.7742 0.3681
O7 O 0.40498(6) 0.98331(18) 0.25290(6)
H21 H 0.4266 1.0288 0.2215
H22 H 0.4269 1.0018 0.2896
H1 H 0.4397 -0.0262 0.0177
H2 H 0.4700 0.1489 0.0070
C1 C 0.49326(8) 0.0443(2) 0.09533(8)
N1 N 0.47833(8) 0.0359(3) 0.02297(8)
O1 O 0.54394(6) -0.01535(18) 0.11614(6)
O2 O 0.45367(6) 0.11099(18) 0.13308(6)
H1D H 0.5603 0.0262 -0.0177
H2D H 0.5300 -0.1489 -0.0070
C1D C 0.50674(8) -0.0443(2) -0.09533(8)
N1D N 0.52167(8) -0.0359(3) -0.02297(8)
O1D O 0.45606(6) 0.01535(18) -0.11614(6)
O2D O 0.54633(6) -0.11099(18) -0.13308(6)
H23? H 0.4433 0.0739 0.0072
C6? C 0.7759(2) 0.1757(5) 0.0674(2)
H24? H 0.8043 0.0875 0.0563
H25? H 0.7426 0.1257 0.0927
C7? C 0.8040(2) 0.3262(5) -0.0411(2)
H26? H 0.8224 0.4171 -0.0152
H27? H 0.7883 0.3730 -0.0841
C8? C 0.7062(2) 0.3917(5) 0.0148(2)
H28? H 0.6940 0.4473 -0.0277
H29? H 0.7275 0.4737 0.0431
C9? C 0.7195(2) 0.1128(5) -0.0402(2)
H30? H 0.6883 0.0624 -0.0120
H31? H 0.7503 0.0286 -0.0489
C10? C 0.64614(15) 0.3162(5) 0.0549(2)
H32? H 0.6177 0.4046 0.0655
H33? H 0.6251 0.2343 0.0263
H34? H 0.6593 0.2648 0.0980
H35? H 0.6126 0.2710 0.0813
H36? H 0.6307 0.3613 0.0115
H37? H 0.6656 0.4034 0.0820
C11? C 0.68922(15) 0.1835(4) -0.11249(14)
H38? H 0.6702 0.0925 -0.1376
H39? H 0.6578 0.2656 -0.1033
H40? H 0.7208 0.2305 -0.1412
H41? H 0.6730 0.2289 -0.1556
H42? H 0.6557 0.1364 -0.0867
H43? H 0.7174 0.0945 -0.1231
N3? N 0.7500 0.2500 0.0000
C12? C 0.47833(8) 0.0359(3) 0.02297(8)
loop_
_geom_bond_atom_site_label_1
_geom_bond_atom_site_label_2
_geom_bond_site_symmetry_1
_geom_bond_site_symmetry_2
H1 N1 1_555 1_555
H2 N1 1_555 1_555
C1 N1 1_555 1_555
N1 N1D 1_555 1_555
O1 C1 1_555 1_555
O2 C1 1_555 1_555
C2 H3 1_555 1_555
H4 C2 1_555 1_555
C3 C2 1_555 1_555
H5 C3 1_555 1_555
H6 C3 1_555 1_555
H7 C3 1_555 1_555
C4 H8 1_555 1_555
H9 C4 1_555 1_555
C5 C4 1_555 1_555
H10 C5 1_555 1_555
H11 C5 1_555 1_555
H12 C5 1_555 1_555
N2 C2 1_555 1_555
O3 H13 1_555 1_555
H14 O3 1_555 1_555
O4 H15 1_555 1_555
H16 O4 1_555 1_555
O5 H17 1_555 1_555
H18 O5 1_555 1_555
O6 H19 1_555 1_555
H20 O6 1_555 1_555
O7 H21 1_555 1_555
H22 O7 1_555 1_555
H1D N1D 1_555 1_555
H2D N1D 1_555 1_555
C1D N1D 1_555 1_555
O1D C1D 1_555 1_555
O2D C1D 1_555 1_555
C2A N2 1_555 1_555
H3A C2A 1_555 1_555
H4A C2A 1_555 1_555
C3A C2A 1_555 1_555
H5A C3A 1_555 1_555
H6A C3A 1_555 1_555
H7A C3A 1_555 1_555
C4A N2 1_555 1_555
H8A C4A 1_555 1_555
H9A C4A 1_555 1_555
C5A C4A 1_555 1_555
H10A C5A 1_555 1_555
H11A C5A 1_555 1_555
H12A C5A 1_555 1_555
C4 N2 1_555 1_555

#END
