
#######################################################################
#
#                 Cambridge Crystallographic Data Centre
#                                CCDC 
#
#######################################################################
#
# If this CIF has been generated from an entry in the Cambridge 
# Structural Database, then it will include bibliographic, chemical, 
# crystal, experimental, refinement or atomic coordinate data resulting 
# from the CCDC's data processing and validation procedures.
#
#######################################################################

data_JOYBUU
_chemical_formula_moiety         'C32 H36 B1 N3'
_chemical_name_systematic        
4-(4'-(Dimethylamino)phenylazo)phenyldimesitylborane
_symmetry_cell_setting           triclinic
_symmetry_space_group_name_H-M   'P -1'
_symmetry_Int_Tables_number      2
_space_group_name_Hall           '-P 1'
loop_
_symmetry_equiv_pos_site_id
_symmetry_equiv_pos_as_xyz
1 x,y,z
2 -x,-y,-z
_cell_length_a                   21.707(6)
_cell_length_b                   8.409(2)
_cell_length_c                   7.710(5)
_cell_angle_alpha                96.31(4)
_cell_angle_beta                 96.47(4)
_cell_angle_gamma                91.08(2)
_cell_volume                     1389.21
_exptl_crystal_colour            red
_cell_formula_units_Z            2
loop_
_atom_site_label
_atom_site_type_symbol
_atom_site_fract_x
_atom_site_fract_y
_atom_site_fract_z
N1 N 0.5783(1) 0.8775(3) -0.1291(4)
C1 C 0.5684(2) 0.9152(4) -0.3075(5)
C2 C 0.6363(2) 0.9312(4) -0.0294(6)
N2 N 0.3893(1) 0.5699(3) 0.1528(3)
N3 N 0.3967(1) 0.5389(3) 0.3087(3)
B1 B 0.1887(1) 0.2065(3) 0.5366(4)
C3 C 0.5327(1) 0.8040(3) -0.0560(4)
C4 C 0.5418(1) 0.7666(4) 0.1163(4)
C5 C 0.4967(1) 0.6889(3) 0.1904(4)
C6 C 0.4393(1) 0.6490(3) 0.0945(4)
C7 C 0.4300(1) 0.6871(3) -0.0766(4)
C8 C 0.4749(1) 0.7607(3) -0.1513(4)
C9 C 0.2452(1) 0.2936(3) 0.4764(3)
C10 C 0.2435(1) 0.3267(3) 0.3010(4)
C11 C 0.2921(1) 0.4041(3) 0.2413(3)
C12 C 0.3445(1) 0.4564(3) 0.3569(4)
C13 C 0.3470(1) 0.4251(3) 0.5305(4)
C14 C 0.2991(1) 0.3432(3) 0.5863(4)
C15 C 0.1224(1) 0.2382(2) 0.4434(3)
C16 C 0.1044(1) 0.3970(3) 0.4212(3)
C17 C 0.1425(2) 0.5419(3) 0.5096(4)
C18 C 0.0493(1) 0.4229(3) 0.3216(4)
C19 C 0.0108(1) 0.2990(3) 0.2350(4)
C20 C -0.0466(2) 0.3296(5) 0.1144(5)
C21 C 0.0268(1) 0.1449(3) 0.2627(4)
C22 C 0.0806(1) 0.1124(3) 0.3671(3)
C23 C 0.0924(1) -0.0613(3) 0.3921(4)
C24 C 0.1999(1) 0.0881(3) 0.6815(3)
C25 C 0.1678(1) 0.1002(3) 0.8289(3)
C26 C 0.1249(2) 0.2368(3) 0.8658(4)
C27 C 0.1750(1) -0.0135(3) 0.9475(3)
C28 C 0.2121(1) -0.1438(3) 0.9196(4)
C29 C 0.2175(2) -0.2713(4) 1.0436(5)
C30 C 0.2435(1) -0.1560(3) 0.7762(4)
C31 C 0.2395(1) -0.0429(3) 0.6564(4)
C32 C 0.2765(2) -0.0691(4) 0.5024(5)
H1 H 0.584 0.796 0.190
H2 H 0.506 0.660 0.317
H3 H 0.388 0.661 -0.145
H4 H 0.467 0.785 -0.279
H5 H 0.204 0.296 0.218
H6 H 0.291 0.423 0.111
H7 H 0.386 0.464 0.615
H8 H 0.304 0.317 0.713
H9 H 0.035 0.536 0.315
H10 H -0.001 0.051 0.205
H11 H 0.152 -0.002 1.056
H12 H 0.271 -0.252 0.756
H13 H 0.556 0.810 -0.400
H14 H 0.532 0.993 -0.322
H15 H 0.607 0.968 -0.343
H16 H 0.665 0.837 -0.012
H17 H 0.629 0.983 0.096
H18 H 0.660 1.016 -0.084
H19 H 0.170 0.593 0.435
H20 H 0.110 0.631 0.550
H21 H 0.162 0.520 0.620
H22 H -0.071 0.226 0.072
H23 H -0.036 0.381 0.012
H24 H -0.075 0.402 0.182
H25 H 0.073 -0.090 0.498
H26 H 0.137 -0.080 0.410
H27 H 0.073 -0.133 0.286
H28 H 0.124 0.311 0.769
H29 H 0.081 0.195 0.866
H30 H 0.139 0.301 0.980
H31 H 0.253 -0.241 1.140
H32 H 0.227 -0.377 0.979
H33 H 0.179 -0.282 1.098
H34 H 0.269 0.021 0.425
H35 H 0.322 -0.073 0.541
H36 H 0.263 -0.173 0.428
loop_
_geom_bond_atom_site_label_1
_geom_bond_atom_site_label_2
_geom_bond_site_symmetry_1
_geom_bond_site_symmetry_2
N1 C1 1_555 1_555
C1 H13 1_555 1_555
C2 N1 1_555 1_555
N2 N3 1_555 1_555
N3 C12 1_555 1_555
B1 C9 1_555 1_555
C3 N1 1_555 1_555
C4 C3 1_555 1_555
C5 C4 1_555 1_555
C6 N2 1_555 1_555
C7 C6 1_555 1_555
C8 C3 1_555 1_555
C9 C10 1_555 1_555
C10 C11 1_555 1_555
C11 C12 1_555 1_555
C12 C13 1_555 1_555
C13 C14 1_555 1_555
C14 C9 1_555 1_555
C15 B1 1_555 1_555
C16 C15 1_555 1_555
C17 C16 1_555 1_555
C18 C16 1_555 1_555
C19 C18 1_555 1_555
C20 C19 1_555 1_555
C21 C19 1_555 1_555
C22 C15 1_555 1_555
C23 C22 1_555 1_555
C24 B1 1_555 1_555
C25 C24 1_555 1_555
C26 C25 1_555 1_555
C27 C25 1_555 1_555
C28 C27 1_555 1_555
C29 C28 1_555 1_555
C30 C28 1_555 1_555
C31 C24 1_555 1_555
C32 C31 1_555 1_555
H1 C4 1_555 1_555
H2 C5 1_555 1_555
H3 C7 1_555 1_555
H4 C8 1_555 1_555
H5 C10 1_555 1_555
H6 C11 1_555 1_555
H7 C13 1_555 1_555
H8 C14 1_555 1_555
H9 C18 1_555 1_555
H10 C21 1_555 1_555
H11 C27 1_555 1_555
H12 C30 1_555 1_555
H14 C1 1_555 1_555
H15 C1 1_555 1_555
H16 C2 1_555 1_555
H17 C2 1_555 1_555
H18 C2 1_555 1_555
H19 C17 1_555 1_555
H20 C17 1_555 1_555
H21 C17 1_555 1_555
H22 C20 1_555 1_555
H23 C20 1_555 1_555
H24 C20 1_555 1_555
H25 C23 1_555 1_555
H26 C23 1_555 1_555
H27 C23 1_555 1_555
H28 C26 1_555 1_555
H29 C26 1_555 1_555
H30 C26 1_555 1_555
H31 C29 1_555 1_555
H32 C29 1_555 1_555
H33 C29 1_555 1_555
H34 C32 1_555 1_555
H35 C32 1_555 1_555
H36 C32 1_555 1_555
C5 C6 1_555 1_555
C7 C8 1_555 1_555
C21 C22 1_555 1_555
C30 C31 1_555 1_555

#END
