
#######################################################################
#
#                 Cambridge Crystallographic Data Centre
#                                CCDC 
#
#######################################################################
#
# If this CIF has been generated from an entry in the Cambridge 
# Structural Database, then it will include bibliographic, chemical, 
# crystal, experimental, refinement or atomic coordinate data resulting 
# from the CCDC's data processing and validation procedures.
#
#######################################################################

data_JOYGOV
_chemical_formula_moiety         'C21 H28 O5'
_chemical_name_systematic        
11a-ethyl-3a,8,8-trimethyl-3a,4,5a,8,8a,9,10,10a,10b,11a-decahydrofuro[3',4':5,6]azuleno[1,2-b]furo[3,2-d]furan-2,6(3H,3bH)-dione
_symmetry_cell_setting           orthorhombic
_symmetry_space_group_name_H-M   'P 21 21 21'
_symmetry_Int_Tables_number      19
_space_group_name_Hall           'P 2ac 2ab'
loop_
_symmetry_equiv_pos_site_id
_symmetry_equiv_pos_as_xyz
1 x,y,z
2 1/2-x,-y,1/2+z
3 -x,1/2+y,1/2-z
4 1/2+x,1/2-y,-z
_cell_length_a                   6.4675(13)
_cell_length_b                   13.258(3)
_cell_length_c                   21.204(4)
_cell_angle_alpha                90
_cell_angle_beta                 90
_cell_angle_gamma                90
_cell_volume                     1818.16
_exptl_crystal_colour            colorless
_exptl_crystal_description       block
_cell_formula_units_Z            4
loop_
_atom_site_label
_atom_site_type_symbol
_atom_site_fract_x
_atom_site_fract_y
_atom_site_fract_z
O1 O 0.31791(17) 0.47771(8) -0.06706(5)
O2 O 0.49038(17) 0.78702(8) 0.33585(5)
O3 O 0.52827(17) 0.69280(7) 0.24404(5)
O4 O 0.56914(19) 0.58856(8) -0.08653(5)
O5 O 0.24856(19) 0.87970(9) 0.38380(6)
C1 C 0.3488(2) 0.91904(11) 0.27596(7)
H1 H 0.3742 0.9918 0.2830
H2 H 0.2129 0.9111 0.2551
C2 C 0.4988(2) 0.69235(10) 0.09877(6)
C3 C 0.2661(2) 0.50554(10) 0.04370(6)
H3 H 0.2834 0.4656 0.0834
C4 C 0.5779(3) 0.79313(11) 0.12283(7)
H4 H 0.5759 0.8444 0.0889
H5 H 0.7209 0.7867 0.1390
C5 C 0.2148(2) 0.43247(10) -0.01154(6)
C6 C 0.3515(2) 0.86319(12) 0.33751(7)
C7 C 0.3120(3) 0.32917(11) -0.00057(8)
H6 H 0.2996 0.2885 -0.0390
H7 H 0.2405 0.2952 0.0342
H8 H 0.4585 0.3374 0.0101
C8 C 0.1277(2) 0.63882(11) 0.12084(7)
H9 H 0.0669 0.7073 0.1190
H10 H 0.0447 0.5988 0.1511
C9 C 0.4276(2) 0.82211(10) 0.17626(6)
H11 H 0.3071 0.8612 0.1596
C10 C 0.4798(2) 0.54649(10) 0.02266(6)
H12 H 0.5865 0.4962 0.0360
C11 C 0.3590(2) 0.71931(10) 0.20234(7)
H13 H 0.2239 0.7234 0.2251
C12 C 0.3500(2) 0.64724(10) 0.14619(6)
H14 H 0.4002 0.5791 0.1594
C13 C 0.4661(2) 0.54254(10) -0.04888(7)
C14 C 0.5969(2) 0.78017(11) 0.27455(6)
C15 C 0.1094(2) 0.58989(10) 0.05512(7)
H15 H -0.0318 0.5622 0.0501
H16 H 0.1287 0.6426 0.0226
C16 C 0.5518(2) 0.64904(10) 0.04450(7)
H17 H 0.6418 0.6855 0.0174
C17 C -0.0101(2) 0.42226(11) -0.03021(7)
H18 H -0.0632 0.4881 -0.0436
H19 H -0.0903 0.3981 0.0060
H20 H -0.0224 0.3740 -0.0650
C18 C 0.8257(2) 0.77002(12) 0.28882(7)
H21 H 0.8699 0.8288 0.3143
H22 H 0.9034 0.7720 0.2486
C19 C 0.5215(2) 0.87360(10) 0.23463(7)
C20 C 0.6880(3) 0.95209(11) 0.21985(7)
H23 H 0.6258 1.0088 0.1971
H24 H 0.7958 0.9213 0.1937
H25 H 0.7492 0.9764 0.2593
C21 C 0.8834(3) 0.67330(13) 0.32422(8)
H26 H 0.8143 0.6726 0.3654
H27 H 1.0335 0.6709 0.3303
H28 H 0.8392 0.6146 0.2996
loop_
_geom_bond_atom_site_label_1
_geom_bond_atom_site_label_2
_geom_bond_site_symmetry_1
_geom_bond_site_symmetry_2
O1 C5 1_555 1_555
O2 C6 1_555 1_555
O3 C11 1_555 1_555
O4 C13 1_555 1_555
O5 C6 1_555 1_555
C1 H1 1_555 1_555
H2 C1 1_555 1_555
C2 C4 1_555 1_555
C3 H3 1_555 1_555
C4 H4 1_555 1_555
H5 C4 1_555 1_555
C5 C3 1_555 1_555
C6 C1 1_555 1_555
C7 C5 1_555 1_555
H6 C7 1_555 1_555
H7 C7 1_555 1_555
H8 C7 1_555 1_555
C8 H9 1_555 1_555
H10 C8 1_555 1_555
C9 C4 1_555 1_555
H11 C9 1_555 1_555
C10 C3 1_555 1_555
H12 C10 1_555 1_555
C11 C9 1_555 1_555
H13 C11 1_555 1_555
C12 C2 1_555 1_555
H14 C12 1_555 1_555
C13 O1 1_555 1_555
C14 O2 1_555 1_555
C15 C3 1_555 1_555
H15 C15 1_555 1_555
H16 C15 1_555 1_555
C16 C2 1_555 1_555
H17 C16 1_555 1_555
C17 C5 1_555 1_555
H18 C17 1_555 1_555
H19 C17 1_555 1_555
H20 C17 1_555 1_555
C18 C14 1_555 1_555
H21 C18 1_555 1_555
H22 C18 1_555 1_555
C19 C1 1_555 1_555
C20 C19 1_555 1_555
H23 C20 1_555 1_555
H24 C20 1_555 1_555
H25 C20 1_555 1_555
C21 C18 1_555 1_555
H26 C21 1_555 1_555
H27 C21 1_555 1_555
H28 C21 1_555 1_555
O3 C14 1_555 1_555
C8 C12 1_555 1_555
C8 C15 1_555 1_555
C9 C19 1_555 1_555
C10 C13 1_555 1_555
C10 C16 1_555 1_555
C11 C12 1_555 1_555
C14 C19 1_555 1_555

#END
