
#######################################################################
#
#                 Cambridge Crystallographic Data Centre
#                                CCDC 
#
#######################################################################
#
# If this CIF has been generated from an entry in the Cambridge 
# Structural Database, then it will include bibliographic, chemical, 
# crystal, experimental, refinement or atomic coordinate data resulting 
# from the CCDC's data processing and validation procedures.
#
#######################################################################

data_JOYJEO
_chemical_name_common            'pentanedioic acid bis(pyrimidin-2-amine)'
_chemical_formula_moiety         'C5 H8 O4,2(C4 H5 N3)'
_chemical_name_systematic        'bis(2-aminopyrimidine) glutaric acid'
_symmetry_cell_setting           monoclinic
_symmetry_space_group_name_H-M   'P 21/n'
_symmetry_Int_Tables_number      14
_space_group_name_Hall           '-P 2yn'
loop_
_symmetry_equiv_pos_site_id
_symmetry_equiv_pos_as_xyz
1 x,y,z
2 1/2-x,1/2+y,1/2-z
3 -x,-y,-z
4 1/2+x,1/2-y,1/2+z
_cell_length_a                   10.2625(4)
_cell_length_b                   15.0558(6)
_cell_length_c                   11.1755(4)
_cell_angle_alpha                90
_cell_angle_beta                 113.0320(10)
_cell_angle_gamma                90
_cell_volume                     1589.08
_exptl_crystal_colour            'dull colorless'
_exptl_crystal_description       block
_cell_formula_units_Z            4
loop_
_atom_site_label
_atom_site_type_symbol
_atom_site_fract_x
_atom_site_fract_y
_atom_site_fract_z
O1 O 0.68972(11) 0.63776(5) 1.01872(9)
O2 O 0.69066(11) 0.49164(6) 1.05452(9)
O3 O 0.39617(11) 0.35873(6) 0.45576(8)
O4 O 0.48362(10) 0.29041(6) 0.64924(8)
C1 C 0.65891(13) 0.55456(8) 0.98042(12)
C2 C 0.57995(16) 0.54654(8) 0.83610(12)
C3 C 0.54088(14) 0.45193(8) 0.78846(11)
C4 C 0.47157(15) 0.44969(8) 0.64170(11)
C5 C 0.45143(13) 0.35799(8) 0.58448(11)
H1 H 0.7370(19) 0.6431(11) 1.1104(18)
H2 H 0.391(2) 0.2974(13) 0.4157(18)
H3 H 0.4931(17) 0.5837(11) 0.8104(15)
H4 H 0.6422(16) 0.5732(11) 0.7983(15)
H5 H 0.6298(15) 0.4162(10) 0.8216(13)
H6 H 0.4775(15) 0.4272(10) 0.8263(13)
H7 H 0.3760(16) 0.4792(10) 0.6086(14)
H8 H 0.5290(17) 0.4826(10) 0.6055(15)
N1 N 0.86027(13) 0.51591(7) 0.33091(11)
N2 N 0.80550(11) 0.66261(7) 0.27509(10)
N3 N 0.93238(12) 0.61994(7) 0.49646(10)
C6 C 0.86719(13) 0.60143(8) 0.36838(12)
C7 C 0.80468(15) 0.74611(8) 0.31460(13)
C8 C 0.86327(15) 0.77124(9) 0.44277(13)
C9 C 0.92825(14) 0.70457(8) 0.53077(13)
H9 H 0.8247(17) 0.5046(10) 0.2438(17)
H10 H 0.9212(19) 0.4787(11) 0.3878(16)
H11 H 0.7613(15) 0.7882(9) 0.2452(13)
H12 H 0.8596(16) 0.8299(11) 0.4692(14)
H13 H 0.9753(16) 0.7183(10) 0.6248(15)
N4 N 0.48258(13) 0.12266(8) 0.52422(11)
N5 N 0.37737(12) 0.20413(7) 0.33644(10)
N6 N 0.40845(12) 0.04683(7) 0.32978(11)
C10 C 0.42208(14) 0.12440(8) 0.39505(12)
C11 C 0.31796(15) 0.20493(9) 0.20696(13)
C12 C 0.30087(15) 0.12904(9) 0.13313(14)
C13 C 0.34809(14) 0.05092(9) 0.20099(13)
H14 H 0.4872(17) 0.1747(12) 0.5681(15)
H15 H 0.5110(17) 0.0677(12) 0.5681(16)
H16 H 0.2861(15) 0.2618(10) 0.1669(13)
H17 H 0.2582(16) 0.1320(10) 0.0399(16)
H18 H 0.3369(15) -0.0050(10) 0.1539(14)
loop_
_geom_bond_atom_site_label_1
_geom_bond_atom_site_label_2
_geom_bond_site_symmetry_1
_geom_bond_site_symmetry_2
O1 C1 1_555 1_555
O2 C1 1_555 1_555
O3 C5 1_555 1_555
O4 C5 1_555 1_555
C1 C2 1_555 1_555
C2 C3 1_555 1_555
C3 C4 1_555 1_555
C4 C5 1_555 1_555
H1 O1 1_555 1_555
H2 O3 1_555 1_555
H3 C2 1_555 1_555
H4 C2 1_555 1_555
H5 C3 1_555 1_555
H6 C3 1_555 1_555
H7 C4 1_555 1_555
H8 C4 1_555 1_555
N1 C6 1_555 1_555
N2 C6 1_555 1_555
N3 C6 1_555 1_555
C7 N2 1_555 1_555
C8 C7 1_555 1_555
C9 N3 1_555 1_555
H9 N1 1_555 1_555
H10 N1 1_555 1_555
H11 C7 1_555 1_555
H12 C8 1_555 1_555
H13 C9 1_555 1_555
N4 C10 1_555 1_555
N5 C10 1_555 1_555
N6 C10 1_555 1_555
C11 N5 1_555 1_555
C12 C11 1_555 1_555
C13 N6 1_555 1_555
H14 N4 1_555 1_555
H15 N4 1_555 1_555
H16 C11 1_555 1_555
H17 C12 1_555 1_555
H18 C13 1_555 1_555
C8 C9 1_555 1_555
C12 C13 1_555 1_555

#END
