
#######################################################################
#
#                 Cambridge Crystallographic Data Centre
#                                CCDC 
#
#######################################################################
#
# If this CIF has been generated from an entry in the Cambridge 
# Structural Database, then it will include bibliographic, chemical, 
# crystal, experimental, refinement or atomic coordinate data resulting 
# from the CCDC's data processing and validation procedures.
#
#######################################################################

data_JOYJAK
_chemical_name_common            'pentanedioic acid pyrimidin-2-amine'
_chemical_formula_moiety         'C5 H8 O4,C4 H5 N3'
_chemical_name_systematic        '2-aminopyrimidine glutaric acid'
_symmetry_cell_setting           triclinic
_symmetry_space_group_name_H-M   'P -1'
_symmetry_Int_Tables_number      2
_space_group_name_Hall           '-P 1'
loop_
_symmetry_equiv_pos_site_id
_symmetry_equiv_pos_as_xyz
1 x,y,z
2 -x,-y,-z
_cell_length_a                   6.0184(4)
_cell_length_b                   7.4714(5)
_cell_length_c                   12.0911(7)
_cell_angle_alpha                84.3710(10)
_cell_angle_beta                 89.9060(10)
_cell_angle_gamma                76.094(2)
_cell_volume                     525.072
_exptl_crystal_colour            colorless
_exptl_crystal_description       block
_cell_formula_units_Z            2
loop_
_atom_site_label
_atom_site_type_symbol
_atom_site_fract_x
_atom_site_fract_y
_atom_site_fract_z
O1 O 0.46021(15) 0.32178(13) 0.61425(6)
O2 O 0.64621(15) 0.17335(12) 0.47659(6)
O3 O 0.13451(14) 0.23991(12) 0.11736(6)
O4 O -0.21468(15) 0.42911(12) 0.11277(7)
C1 C 0.47520(19) 0.26733(15) 0.51269(8)
C2 C 0.24898(18) 0.33965(16) 0.45089(8)
C3 C 0.24434(18) 0.30029(15) 0.33035(8)
C4 C 0.00358(19) 0.38108(15) 0.28162(8)
C5 C -0.03390(19) 0.35239(15) 0.16201(8)
H1 H 0.587(4) 0.273(3) 0.6584(19)
H2 H 0.086(4) 0.230(3) 0.0469(19)
H3 H 0.136(3) 0.285(2) 0.4930(13)
H4 H 0.201(3) 0.474(2) 0.4558(13)
H5 H 0.350(2) 0.3549(19) 0.2902(11)
H6 H 0.286(2) 0.170(2) 0.3265(11)
H7 H -0.105(2) 0.3244(19) 0.3239(12)
H8 H -0.046(2) 0.514(2) 0.2875(12)
N1 N 0.67341(18) 0.32172(15) 0.90019(8)
N2 N 1.05289(16) 0.16702(13) 0.91090(7)
N3 N 0.83099(17) 0.18650(13) 0.74480(7)
C6 C 0.85433(19) 0.22400(15) 0.85062(8)
C7 C 1.2312(2) 0.06618(17) 0.86220(9)
C8 C 1.2216(2) 0.01773(17) 0.75500(9)
C9 C 1.0131(2) 0.08427(16) 0.69945(9)
H9 H 0.547(3) 0.376(2) 0.8634(15)
H10 H 0.700(3) 0.357(2) 0.9633(15)
H11 H 1.377(3) 0.024(2) 0.9054(14)
H12 H 0.999(3) 0.051(2) 0.6219(14)
H13 H 1.347(3) -0.056(2) 0.7205(14)
loop_
_geom_bond_atom_site_label_1
_geom_bond_atom_site_label_2
_geom_bond_site_symmetry_1
_geom_bond_site_symmetry_2
O1 C1 1_555 1_555
O2 C1 1_555 1_555
O3 C5 1_555 1_555
O4 C5 1_555 1_555
C1 C2 1_555 1_555
C2 C3 1_555 1_555
C3 C4 1_555 1_555
C4 C5 1_555 1_555
H1 O1 1_555 1_555
H2 O3 1_555 1_555
H3 C2 1_555 1_555
H4 C2 1_555 1_555
H5 C3 1_555 1_555
H6 C3 1_555 1_555
H7 C4 1_555 1_555
H8 C4 1_555 1_555
N1 C6 1_555 1_555
N2 C6 1_555 1_555
N3 C6 1_555 1_555
C7 N2 1_555 1_555
C8 C7 1_555 1_555
C9 N3 1_555 1_555
H9 N1 1_555 1_555
H10 N1 1_555 1_555
H11 C7 1_555 1_555
H12 C9 1_555 1_555
H13 C8 1_555 1_555
C8 C9 1_555 1_555

#END
