
#######################################################################
#
#                 Cambridge Crystallographic Data Centre
#                                CCDC 
#
#######################################################################
#
# If this CIF has been generated from an entry in the Cambridge 
# Structural Database, then it will include bibliographic, chemical, 
# crystal, experimental, refinement or atomic coordinate data resulting 
# from the CCDC's data processing and validation procedures.
#
#######################################################################

data_JOYTOI
_chemical_name_common            
15,24-Diphenyl-3,12-diazaheptacyclo[12.10.0.0$2,7!.0$8,13!.0$15,19!.0$16,23!.0$20,24!]tetracosa-1(14),2,4,6,8,10,12-heptaene
_chemical_formula_moiety         'C34 H28 N2'
_chemical_name_systematic        
9,13a-Diphenyl-10,10a,11,12,13,13a-hexahydro-9H-9,13,10-(propane[1,1,3]triyl)indeno[4,5-f][4,7]phenanthroline
_symmetry_cell_setting           triclinic
_symmetry_space_group_name_H-M   'P -1'
_symmetry_Int_Tables_number      2
_space_group_name_Hall           '-P 1'
loop_
_symmetry_equiv_pos_site_id
_symmetry_equiv_pos_as_xyz
1 x,y,z
2 -x,-y,-z
_cell_length_a                   12.9576(8)
_cell_length_b                   14.6324(9)
_cell_length_c                   14.6459(16)
_cell_angle_alpha                99.246(4)
_cell_angle_beta                 102.984(4)
_cell_angle_gamma                113.991(3)
_cell_volume                     2370.98
_exptl_crystal_colour            colorless
_exptl_crystal_description       prism
_chemical_melting_point          '293-295 deg.C'
_cell_formula_units_Z            4
loop_
_atom_site_label
_atom_site_type_symbol
_atom_site_fract_x
_atom_site_fract_y
_atom_site_fract_z
C1 C -0.01792(15) 0.11967(15) 0.05029(14)
H1 H -0.0676 0.1376 0.0064
C2 C -0.07172(16) 0.02845(16) 0.07603(15)
H2 H -0.1555 -0.0147 0.0501
C3 C -0.00110(16) 0.00249(16) 0.13940(15)
H3 H -0.0357 -0.0591 0.1587
C4 C 0.12321(15) 0.06696(15) 0.17629(13)
C5 C 0.16988(15) 0.15833(14) 0.14631(13)
C6 C 0.29616(14) 0.23182(14) 0.18876(13)
C7 C 0.36577(15) 0.21930(14) 0.26614(12)
C8 C 0.32371(15) 0.11840(15) 0.28693(13)
C9 C 0.20322(16) 0.04337(15) 0.24263(14)
C10 C 0.16749(18) -0.05340(17) 0.26299(16)
H4 H 0.0865 -0.1052 0.2359
C11 C 0.2495(2) -0.07283(18) 0.32175(17)
H5 H 0.2264 -0.1376 0.3368
C12 C 0.3672(2) 0.00407(18) 0.35906(16)
H6 H 0.4241 -0.0108 0.3985
C13 C 0.36108(14) 0.32930(14) 0.15929(13)
C14 C 0.29179(15) 0.32875(15) 0.05863(14)
C15 C 0.28490(16) 0.26425(16) -0.02578(14)
H7 H 0.3214 0.2198 -0.0206
C16 C 0.22519(19) 0.26392(18) -0.11770(16)
H8 H 0.2218 0.2201 -0.1749
C17 C 0.1708(2) 0.3277(2) -0.12537(17)
H9 H 0.1299 0.3277 -0.1880
C18 C 0.17575(17) 0.39095(18) -0.04286(16)
H10 H 0.1377 0.4342 -0.0484
C19 C 0.23621(15) 0.39198(15) 0.04868(14)
H11 H 0.2397 0.4365 0.1054
C20 C 0.49002(14) 0.34710(14) 0.15788(13)
H12 H 0.4839 0.2927 0.1030
C21 C 0.53595(15) 0.45341(15) 0.13741(14)
H13 H 0.5027 0.4462 0.0673
H14 H 0.6241 0.4889 0.1571
C22 C 0.49030(16) 0.51395(15) 0.20132(14)
H15 H 0.4458 0.5430 0.1616
H16 H 0.5577 0.5717 0.2555
C23 C 0.40657(15) 0.43123(14) 0.24160(13)
H17 H 0.3387 0.4454 0.2473
C24 C 0.46963(15) 0.41815(14) 0.34023(13)
H18 H 0.4249 0.4190 0.3876
C25 C 0.60203(15) 0.49895(15) 0.38707(14)
H19 H 0.6316 0.5029 0.4568
H20 H 0.6145 0.5690 0.3817
C26 C 0.66487(15) 0.45612(15) 0.32631(14)
H21 H 0.7303 0.4493 0.3696
H22 H 0.6983 0.5032 0.2874
C27 C 0.56656(14) 0.34781(14) 0.25835(13)
H23 H 0.6013 0.2988 0.2475
C28 C 0.48384(15) 0.31454(14) 0.32196(13)
C29 C 0.54543(15) 0.30482(15) 0.42030(13)
C30 C 0.50483(17) 0.31787(16) 0.49913(14)
H24 H 0.4400 0.3341 0.4918
C31 C 0.55640(19) 0.30783(17) 0.58814(15)
H25 H 0.5276 0.3180 0.6412
C32 C 0.64978(19) 0.28300(17) 0.59966(16)
H26 H 0.6853 0.2757 0.6605
C33 C 0.69101(17) 0.26895(16) 0.52231(15)
H27 H 0.7549 0.2515 0.5298
C34 C 0.64026(16) 0.28008(16) 0.43391(14)
H28 H 0.6703 0.2708 0.3815
N1 N 0.09763(12) 0.18280(12) 0.08295(11)
N2 N 0.40519(14) 0.09693(13) 0.34299(12)
C35 C 0.64596(15) 0.03408(15) -0.07976(14)
H29 H 0.6431 0.0406 -0.1437
C36 C 0.57281(15) -0.06226(15) -0.07047(14)
H30 H 0.5202 -0.1195 -0.1265
C37 C 0.57889(15) -0.07220(15) 0.02179(15)
H31 H 0.5296 -0.1369 0.0303
C38 C 0.65769(14) 0.01289(14) 0.10368(13)
C39 C 0.72597(14) 0.10843(14) 0.08755(12)
C40 C 0.81434(14) 0.19766(14) 0.17021(12)
C41 C 0.84377(15) 0.18327(15) 0.26036(13)
C42 C 0.76475(16) 0.09068(15) 0.28082(14)
C43 C 0.67136(16) 0.00647(15) 0.20296(14)
C44 C 0.59421(19) -0.07958(18) 0.22643(17)
H32 H 0.5310 -0.1381 0.1761
C45 C 0.6106(2) -0.0786(2) 0.3220(2)
H33 H 0.5600 -0.1367 0.3390
C46 C 0.7022(2) 0.0085(2) 0.39374(19)
H34 H 0.7117 0.0088 0.4600
C47 C 0.88172(14) 0.30896(14) 0.16747(13)
C48 C 0.82610(15) 0.32594(14) 0.07160(13)
C49 C 0.87541(17) 0.33039(15) -0.00415(14)
H35 H 0.9503 0.3302 0.0057
C50 C 0.81671(18) 0.33504(16) -0.09330(15)
H36 H 0.8508 0.3365 -0.1444
C51 C 0.70860(18) 0.33760(16) -0.10862(15)
H37 H 0.6681 0.3402 -0.1701
C52 C 0.66022(17) 0.33630(15) -0.03358(14)
H38 H 0.5870 0.3396 -0.0429
C53 C 0.71818(16) 0.33024(15) 0.05528(14)
H39 H 0.6837 0.3290 0.1061
C54 C 0.88909(16) 0.38967(15) 0.25824(13)
H40 H 0.8084 0.3841 0.2534
C55 C 0.96888(17) 0.49221(15) 0.24152(15)
H41 H 1.0078 0.5502 0.3026
H42 H 0.9227 0.5106 0.1907
C56 C 1.06214(16) 0.46737(15) 0.20732(15)
H43 H 1.0655 0.4832 0.1445
H44 H 1.1424 0.5090 0.2566
C57 C 1.01938(14) 0.34946(14) 0.19519(13)
H45 H 1.0394 0.3184 0.1400
C58 C 1.06128(15) 0.31762(15) 0.28802(13)
H46 H 1.0920 0.2664 0.2725
C59 C 1.15382(17) 0.41080(17) 0.37518(15)
H47 H 1.2133 0.4632 0.3541
H48 H 1.1958 0.3882 0.4249
C60 C 1.07752(17) 0.45532(17) 0.41562(15)
H49 H 1.0945 0.5242 0.4044
H50 H 1.0943 0.4630 0.4865
C61 C 0.94577(16) 0.37398(15) 0.35791(13)
H51 H 0.8944 0.3690 0.4005
C62 C 0.95770(15) 0.27188(15) 0.33351(13)
C63 C 1.00543(17) 0.23917(17) 0.42187(14)
C64 C 1.0059(2) 0.2767(2) 0.51504(16)
H52 H 0.9766 0.3259 0.5267
C65 C 1.0486(3) 0.2432(3) 0.5914(2)
H53 H 1.0477 0.2693 0.6548
C66 C 1.0922(4) 0.1731(3) 0.5768(2)
H54 H 1.1213 0.1505 0.6297
C67 C 1.0936(3) 0.1354(3) 0.4845(2)
H55 H 1.1240 0.0869 0.4737
C68 C 1.0506(2) 0.1683(2) 0.40757(17)
H56 H 1.0519 0.1423 0.3443
N3 N 0.71924(12) 0.11705(12) -0.00460(11)
N4 N 0.77751(16) 0.09162(15) 0.37559(13)
loop_
_geom_bond_atom_site_label_1
_geom_bond_atom_site_label_2
_geom_bond_site_symmetry_1
_geom_bond_site_symmetry_2
C1 H1 1_555 1_555
C2 C1 1_555 1_555
H2 C2 1_555 1_555
C3 C2 1_555 1_555
H3 C3 1_555 1_555
C4 C3 1_555 1_555
C5 C4 1_555 1_555
C6 C5 1_555 1_555
C7 C6 1_555 1_555
C8 C7 1_555 1_555
C9 C4 1_555 1_555
C10 C9 1_555 1_555
H4 C10 1_555 1_555
C11 C10 1_555 1_555
H5 C11 1_555 1_555
C12 C11 1_555 1_555
H6 C12 1_555 1_555
C13 C6 1_555 1_555
C14 C13 1_555 1_555
C15 C14 1_555 1_555
H7 C15 1_555 1_555
C16 C15 1_555 1_555
H8 C16 1_555 1_555
C17 C16 1_555 1_555
H9 C17 1_555 1_555
C18 C17 1_555 1_555
H10 C18 1_555 1_555
C19 C14 1_555 1_555
H11 C19 1_555 1_555
C20 C13 1_555 1_555
H12 C20 1_555 1_555
C21 C20 1_555 1_555
H13 C21 1_555 1_555
H14 C21 1_555 1_555
C22 C21 1_555 1_555
H15 C22 1_555 1_555
H16 C22 1_555 1_555
C23 C13 1_555 1_555
H17 C23 1_555 1_555
C24 C23 1_555 1_555
H18 C24 1_555 1_555
C25 C24 1_555 1_555
H19 C25 1_555 1_555
H20 C25 1_555 1_555
C26 C25 1_555 1_555
H21 C26 1_555 1_555
H22 C26 1_555 1_555
C27 C20 1_555 1_555
H23 C27 1_555 1_555
C28 C7 1_555 1_555
C29 C28 1_555 1_555
C30 C29 1_555 1_555
H24 C30 1_555 1_555
C31 C30 1_555 1_555
H25 C31 1_555 1_555
C32 C31 1_555 1_555
H26 C32 1_555 1_555
C33 C32 1_555 1_555
H27 C33 1_555 1_555
C34 C29 1_555 1_555
H28 C34 1_555 1_555
N1 C1 1_555 1_555
N2 C8 1_555 1_555
C35 H29 1_555 1_555
C36 C35 1_555 1_555
H30 C36 1_555 1_555
C37 C36 1_555 1_555
H31 C37 1_555 1_555
C38 C37 1_555 1_555
C39 C38 1_555 1_555
C40 C39 1_555 1_555
C41 C40 1_555 1_555
C42 C41 1_555 1_555
C43 C38 1_555 1_555
C44 C43 1_555 1_555
H32 C44 1_555 1_555
C45 C44 1_555 1_555
H33 C45 1_555 1_555
C46 C45 1_555 1_555
H34 C46 1_555 1_555
C47 C40 1_555 1_555
C48 C47 1_555 1_555
C49 C48 1_555 1_555
H35 C49 1_555 1_555
C50 C49 1_555 1_555
H36 C50 1_555 1_555
C51 C50 1_555 1_555
H37 C51 1_555 1_555
C52 C51 1_555 1_555
H38 C52 1_555 1_555
C53 C48 1_555 1_555
H39 C53 1_555 1_555
C54 C47 1_555 1_555
H40 C54 1_555 1_555
C55 C54 1_555 1_555
H41 C55 1_555 1_555
H42 C55 1_555 1_555
C56 C55 1_555 1_555
H43 C56 1_555 1_555
H44 C56 1_555 1_555
C57 C47 1_555 1_555
H45 C57 1_555 1_555
C58 C57 1_555 1_555
H46 C58 1_555 1_555
C59 C58 1_555 1_555
H47 C59 1_555 1_555
H48 C59 1_555 1_555
C60 C59 1_555 1_555
H49 C60 1_555 1_555
H50 C60 1_555 1_555
C61 C54 1_555 1_555
H51 C61 1_555 1_555
C62 C41 1_555 1_555
C63 C62 1_555 1_555
C64 C63 1_555 1_555
H52 C64 1_555 1_555
C65 C64 1_555 1_555
H53 C65 1_555 1_555
C66 C65 1_555 1_555
H54 C66 1_555 1_555
C67 C66 1_555 1_555
H55 C67 1_555 1_555
C68 C63 1_555 1_555
H56 C68 1_555 1_555
N3 C35 1_555 1_555
N4 C42 1_555 1_555
C5 N1 1_555 1_555
C8 C9 1_555 1_555
C12 N2 1_555 1_555
C18 C19 1_555 1_555
C22 C23 1_555 1_555
C24 C28 1_555 1_555
C26 C27 1_555 1_555
C27 C28 1_555 1_555
C33 C34 1_555 1_555
C39 N3 1_555 1_555
C42 C43 1_555 1_555
C46 N4 1_555 1_555
C52 C53 1_555 1_555
C56 C57 1_555 1_555
C58 C62 1_555 1_555
C60 C61 1_555 1_555
C61 C62 1_555 1_555
C67 C68 1_555 1_555

#END
