
#######################################################################
#
#                 Cambridge Crystallographic Data Centre
#                                CCDC 
#
#######################################################################
#
# If this CIF has been generated from an entry in the Cambridge 
# Structural Database, then it will include bibliographic, chemical, 
# crystal, experimental, refinement or atomic coordinate data resulting 
# from the CCDC's data processing and validation procedures.
#
#######################################################################

data_JOYTAU
_chemical_formula_moiety         'C38 H26 N4 S4'
_chemical_name_systematic        
5,5'''-Dimethyl-2,2',2'',2'''-tetraphenyl-4,4':5',5'':4'',4'''-quater-1,3-thiazole
_symmetry_cell_setting           monoclinic
_symmetry_space_group_name_H-M   'C 2/c'
_symmetry_Int_Tables_number      15
_space_group_name_Hall           '-C 2yn'
loop_
_symmetry_equiv_pos_site_id
_symmetry_equiv_pos_as_xyz
1 x,y,z
2 -x,y,1/2-z
3 1/2+x,1/2+y,z
4 1/2-x,1/2+y,1/2-z
5 -x,-y,-z
6 x,-y,1/2+z
7 1/2-x,1/2-y,-z
8 1/2+x,1/2-y,1/2+z
_cell_length_a                   25.3677(6)
_cell_length_b                   5.54982(11)
_cell_length_c                   21.8702(5)
_cell_angle_alpha                90
_cell_angle_beta                 92.7994(7)
_cell_angle_gamma                90
_cell_volume                     3075.35
_exptl_crystal_colour            colorless
_exptl_crystal_description       block
_cell_formula_units_Z            4
loop_
_atom_site_label
_atom_site_type_symbol
_atom_site_fract_x
_atom_site_fract_y
_atom_site_fract_z
S1 S 0.376273(13) 1.03893(6) 0.332145(15)
S2 S 0.558365(12) 0.21935(6) 0.312276(14)
N1 N 0.41077(4) 0.6824(2) 0.27183(5)
N2 N 0.51976(4) 0.5365(2) 0.38294(5)
C1 C 0.37210(5) 0.8371(3) 0.27135(6)
C2 C 0.43384(5) 0.9026(3) 0.35999(6)
C3 C 0.44600(5) 0.7174(3) 0.32129(6)
C4 C 0.32914(5) 0.8394(3) 0.22355(6)
C5 C 0.32621(5) 0.6506(3) 0.18115(6)
C6 C 0.28688(5) 0.6471(3) 0.13478(7)
C7 C 0.24966(5) 0.8306(3) 0.13051(6)
C8 C 0.25204(6) 1.0178(3) 0.17269(7)
C9 C 0.29157(6) 1.0236(3) 0.21906(6)
C10 C 0.46016(6) 0.9909(3) 0.41873(6)
C11 C 0.49119(5) 0.5512(3) 0.32773(6)
C12 C 0.50785(5) 0.3986(3) 0.28280(5)
C13 C 0.55646(5) 0.3715(3) 0.38121(5)
C14 C 0.59458(5) 0.3229(3) 0.43275(6)
C15 C 0.62952(6) 0.1290(3) 0.43216(6)
C16 C 0.66646(6) 0.0949(3) 0.48048(6)
C17 C 0.66880(6) 0.2530(3) 0.52969(7)
C18 C 0.63362(6) 0.4443(3) 0.53088(7)
C19 C 0.59670(6) 0.4801(3) 0.48274(6)
H1 H 0.3513 0.5237 0.1841
H2 H 0.2854 0.5191 0.1059
H3 H 0.2227 0.8281 0.0988
H4 H 0.2265 1.1428 0.1699
H5 H 0.2930 1.1527 0.2476
H6 H 0.4575 1.1669 0.4206
H7 H 0.4974 0.9435 0.4205
H8 H 0.4427 0.9199 0.4535
H9 H 0.6281 0.0200 0.3986
H10 H 0.6902 -0.0374 0.4798
H11 H 0.6944 0.2305 0.5624
H12 H 0.6348 0.5514 0.5648
H13 H 0.5728 0.6117 0.4838
S1A S 0.623727(13) 1.03893(6) 0.167855(15)
S2A S 0.441635(12) 0.21935(6) 0.187724(14)
N1A N 0.58923(4) 0.6824(2) 0.22817(5)
N2A N 0.48024(4) 0.5365(2) 0.11706(5)
C1A C 0.62790(5) 0.8371(3) 0.22865(6)
C2A C 0.56616(5) 0.9026(3) 0.14001(6)
C3A C 0.55400(5) 0.7174(3) 0.17871(6)
C4A C 0.67086(5) 0.8394(3) 0.27645(6)
C5A C 0.67379(5) 0.6506(3) 0.31885(6)
C6A C 0.71312(5) 0.6471(3) 0.36522(7)
C7A C 0.75034(5) 0.8306(3) 0.36949(6)
C8A C 0.74796(6) 1.0178(3) 0.32731(7)
C9A C 0.70843(6) 1.0236(3) 0.28094(6)
C10A C 0.53984(6) 0.9909(3) 0.08127(6)
C11A C 0.50881(5) 0.5512(3) 0.17227(6)
C12A C 0.49215(5) 0.3986(3) 0.21720(5)
C13A C 0.44354(5) 0.3715(3) 0.11879(5)
C14A C 0.40542(5) 0.3229(3) 0.06725(6)
C15A C 0.37048(6) 0.1290(3) 0.06784(6)
C16A C 0.33354(6) 0.0949(3) 0.01952(6)
C17A C 0.33120(6) 0.2530(3) -0.02969(7)
C18A C 0.36638(6) 0.4443(3) -0.03088(7)
C19A C 0.40330(6) 0.4801(3) 0.01726(6)
H1A H 0.6487 0.5237 0.3159
H2A H 0.7146 0.5191 0.3941
H3A H 0.7773 0.8281 0.4012
H4A H 0.7735 1.1428 0.3301
H5A H 0.7070 1.1527 0.2524
H6A H 0.5425 1.1669 0.0794
H7A H 0.5026 0.9435 0.0795
H8A H 0.5573 0.9199 0.0465
H9A H 0.3719 0.0200 0.1014
H10A H 0.3098 -0.0374 0.0202
H11A H 0.3056 0.2305 -0.0624
H12A H 0.3652 0.5514 -0.0648
H13A H 0.4272 0.6117 0.0162
loop_
_geom_bond_atom_site_label_1
_geom_bond_atom_site_label_2
_geom_bond_site_symmetry_1
_geom_bond_site_symmetry_2
S1 C1 1_555 1_555
S2 C12 1_555 1_555
N1 C1 1_555 1_555
N2 C11 1_555 1_555
C1 C4 1_555 1_555
C2 S1 1_555 1_555
C3 N1 1_555 1_555
C4 C5 1_555 1_555
C5 C6 1_555 1_555
C6 C7 1_555 1_555
C7 C8 1_555 1_555
C8 C9 1_555 1_555
C9 C4 1_555 1_555
C10 C2 1_555 1_555
C11 C3 1_555 1_555
C12 C11 1_555 1_555
C13 S2 1_555 1_555
C14 C13 1_555 1_555
C15 C14 1_555 1_555
C16 C15 1_555 1_555
C17 C16 1_555 1_555
C18 C17 1_555 1_555
C19 C14 1_555 1_555
H1 C5 1_555 1_555
H2 C6 1_555 1_555
H3 C7 1_555 1_555
H4 C8 1_555 1_555
H5 C9 1_555 1_555
H6 C10 1_555 1_555
H7 C10 1_555 1_555
H8 C10 1_555 1_555
H9 C15 1_555 1_555
H10 C16 1_555 1_555
H11 C17 1_555 1_555
H12 C18 1_555 1_555
H13 C19 1_555 1_555
S1A C1A 1_555 1_555
S2A C12A 1_555 1_555
N1A C1A 1_555 1_555
N2A C11A 1_555 1_555
C1A C4A 1_555 1_555
C2A S1A 1_555 1_555
C3A N1A 1_555 1_555
C4A C5A 1_555 1_555
C5A C6A 1_555 1_555
C6A C7A 1_555 1_555
C7A C8A 1_555 1_555
C8A C9A 1_555 1_555
C9A C4A 1_555 1_555
C10A C2A 1_555 1_555
C11A C3A 1_555 1_555
C12A C12 1_555 1_555
C13A S2A 1_555 1_555
C14A C13A 1_555 1_555
C15A C14A 1_555 1_555
C16A C15A 1_555 1_555
C17A C16A 1_555 1_555
C18A C17A 1_555 1_555
C19A C14A 1_555 1_555
H1A C5A 1_555 1_555
H2A C6A 1_555 1_555
H3A C7A 1_555 1_555
H4A C8A 1_555 1_555
H5A C9A 1_555 1_555
H6A C10A 1_555 1_555
H7A C10A 1_555 1_555
H8A C10A 1_555 1_555
H9A C15A 1_555 1_555
H10A C16A 1_555 1_555
H11A C17A 1_555 1_555
H12A C18A 1_555 1_555
H13A C19A 1_555 1_555
N2 C13 1_555 1_555
C2 C3 1_555 1_555
C18 C19 1_555 1_555
N2A C13A 1_555 1_555
C2A C3A 1_555 1_555
C11A C12A 1_555 1_555
C18A C19A 1_555 1_555

#END
