
#######################################################################
#
#                 Cambridge Crystallographic Data Centre
#                                CCDC 
#
#######################################################################
#
# If this CIF has been generated from an entry in the Cambridge 
# Structural Database, then it will include bibliographic, chemical, 
# crystal, experimental, refinement or atomic coordinate data resulting 
# from the CCDC's data processing and validation procedures.
#
#######################################################################

data_JOYTIC
_chemical_formula_moiety         'C56 H36 N6 S6'
_chemical_name_systematic        
(M)-4''''',5-Dimethyl-2,2',2'',2''',2'''',2'''''-hexaphenyl-4,5':4',5'':4'',5''':4''',5'''':4'''',5'''''-se\x-1,3-thiazole
_symmetry_cell_setting           monoclinic
_symmetry_space_group_name_H-M   'P 21'
_symmetry_Int_Tables_number      4
_space_group_name_Hall           'P 2yb'
loop_
_symmetry_equiv_pos_site_id
_symmetry_equiv_pos_as_xyz
1 x,y,z
2 -x,1/2+y,-z
_cell_length_a                   12.8066(3)
_cell_length_b                   15.6769(3)
_cell_length_c                   13.6413(3)
_cell_angle_alpha                90
_cell_angle_beta                 119.7638(7)
_cell_angle_gamma                90
_cell_volume                     2377.44
_exptl_crystal_colour            colorless
_exptl_crystal_description       block
_cell_formula_units_Z            2
loop_
_atom_site_label
_atom_site_type_symbol
_atom_site_fract_x
_atom_site_fract_y
_atom_site_fract_z
S1 S 0.94338(5) 0.12862(4) 1.08191(5)
S2 S 0.50468(5) 0.17291(4) 1.00506(5)
S3 S 0.54250(4) 0.19018(3) 0.64088(4)
S4 S 0.87877(4) 0.35614(4) 0.98591(4)
S5 S 0.44396(4) 0.41757(4) 0.92038(4)
S6 S 0.45967(5) 0.42339(4) 0.54406(4)
N1 N 0.79567(15) 0.20999(12) 1.12401(14)
N2 N 0.41073(15) 0.21915(12) 0.79702(14)
N3 N 0.71423(15) 0.30018(12) 0.71497(14)
N4 N 0.73798(15) 0.44320(11) 1.03196(14)
N5 N 0.35131(15) 0.45690(12) 0.71061(14)
N6 N 0.64327(16) 0.52179(12) 0.61164(15)
C1 C 0.7503(3) 0.07058(17) 0.8798(2)
C2 C 0.7931(2) 0.12526(15) 0.98212(19)
C3 C 0.91063(18) 0.19238(15) 1.16793(17)
C4 C 1.00674(19) 0.22279(15) 1.27732(18)
C5 C 1.1247(2) 0.19438(19) 1.3202(3)
C6 C 1.2154(3) 0.2250(2) 1.4228(3)
C7 C 1.1889(3) 0.2810(2) 1.4845(2)
C8 C 1.0719(3) 0.3095(2) 1.4429(2)
C9 C 0.9820(2) 0.28054(17) 1.33936(19)
C10 C 0.73043(18) 0.17266(14) 1.01837(17)
C11 C 0.59964(18) 0.18816(14) 0.95089(17)
C12 C 0.38206(18) 0.20008(14) 0.87413(17)
C13 C 0.25882(19) 0.20368(15) 0.85527(19)
C14 C 0.2344(3) 0.1917(2) 0.9420(3)
C15 C 0.1162(3) 0.1956(3) 0.9210(3)
C16 C 0.0246(3) 0.2132(2) 0.8145(3)
C17 C 0.0479(3) 0.22589(19) 0.7273(3)
C18 C 0.1648(2) 0.22114(17) 0.7471(2)
C19 C 0.53316(17) 0.21360(13) 0.84023(16)
C20 C 0.58525(18) 0.23810(14) 0.76910(16)
C21 C 0.65192(18) 0.24842(14) 0.63040(16)
C22 C 0.66925(19) 0.24107(15) 0.53152(17)
C23 C 0.6078(2) 0.17984(16) 0.44734(18)
C24 C 0.6257(3) 0.17420(17) 0.35592(19)
C25 C 0.7046(3) 0.23070(17) 0.34609(19)
C26 C 0.7640(2) 0.29191(16) 0.42851(19)
C27 C 0.74667(19) 0.29721(15) 0.52068(18)
C28 C 0.67512(17) 0.29517(14) 0.79305(16)
C29 C 0.72663(17) 0.35169(14) 0.89207(16)
C30 C 0.85137(18) 0.42449(15) 1.07158(16)
C31 C 0.9498(2) 0.45641(15) 1.17918(18)
C32 C 1.0696(2) 0.44525(19) 1.20929(19)
C33 C 1.1606(3) 0.4750(2) 1.3122(2)
C34 C 1.1330(3) 0.5160(2) 1.3858(2)
C35 C 1.0145(3) 0.52718(19) 1.3568(2)
C36 C 0.9229(3) 0.49808(18) 1.2538(2)
C37 C 0.66751(17) 0.40343(14) 0.92994(15)
C38 C 0.53848(17) 0.42304(14) 0.86409(16)
C39 C 0.32280(18) 0.44362(14) 0.78934(17)
C40 C 0.19957(19) 0.45070(15) 0.7704(2)
C41 C 0.1700(3) 0.42334(19) 0.8500(3)
C42 C 0.0508(3) 0.4284(2) 0.8259(4)
C43 C -0.0374(3) 0.4601(3) 0.7246(4)
C44 C -0.0080(3) 0.4873(3) 0.6460(3)
C45 C 0.1108(3) 0.4824(3) 0.6678(3)
C46 C 0.47264(18) 0.44651(13) 0.75249(16)
C47 C 0.52335(18) 0.46512(14) 0.67895(16)
C48 C 0.56750(19) 0.47628(15) 0.52506(17)
C49 C 0.5726(2) 0.47122(16) 0.41901(18)
C50 C 0.4996(3) 0.41696(19) 0.33167(19)
C51 C 0.5096(3) 0.4134(3) 0.2347(2)
C52 C 0.5924(3) 0.4653(2) 0.2255(3)
C53 C 0.6638(3) 0.51927(19) 0.3117(3)
C54 C 0.6549(3) 0.52298(17) 0.4088(2)
C55 C 0.61932(19) 0.51584(15) 0.69920(18)
C56 C 0.6945(3) 0.56625(17) 0.8030(2)
H1 H 0.7909 0.0151 0.9015
H2 H 0.7687 0.0984 0.8258
H3 H 0.6632 0.0622 0.8447
H4 H 1.1430 0.1540 1.2791
H5 H 1.2961 0.2071 1.4504
H6 H 1.2509 0.3003 1.5559
H7 H 1.0536 0.3488 1.4853
H8 H 0.9021 0.3007 1.3105
H9 H 0.2982 0.1808 1.0163
H10 H 0.0994 0.1859 0.9805
H11 H -0.0556 0.2167 0.8007
H12 H -0.0163 0.2379 0.6535
H13 H 0.1807 0.2298 0.6869
H14 H 0.5534 0.1419 0.4533
H15 H 0.5844 0.1320 0.2997
H16 H 0.7173 0.2270 0.2833
H17 H 0.8172 0.3306 0.4218
H18 H 0.7880 0.3395 0.5768
H19 H 1.0894 0.4170 1.1590
H20 H 1.2423 0.4671 1.3321
H21 H 1.1954 0.5365 1.4562
H22 H 0.9954 0.5550 1.4077
H23 H 0.8414 0.5067 1.2342
H24 H 0.2303 0.4013 0.9204
H25 H 0.0304 0.4097 0.8804
H26 H -0.1182 0.4631 0.7091
H27 H -0.0688 0.5098 0.5761
H28 H 0.1304 0.5008 0.6125
H29 H 0.4425 0.3820 0.3378
H30 H 0.4601 0.3757 0.1750
H31 H 0.5993 0.4633 0.1593
H32 H 0.7202 0.5546 0.3050
H33 H 0.7049 0.5607 0.4683
H34 H 0.6571 0.5662 0.8506
H35 H 0.7010 0.6250 0.7822
H36 H 0.7748 0.5409 0.8446
loop_
_geom_bond_atom_site_label_1
_geom_bond_atom_site_label_2
_geom_bond_site_symmetry_1
_geom_bond_site_symmetry_2
S1 C2 1_555 1_555
S2 C11 1_555 1_555
S3 C20 1_555 1_555
S4 C29 1_555 1_555
S5 C38 1_555 1_555
S6 C47 1_555 1_555
N1 C3 1_555 1_555
N2 C12 1_555 1_555
N3 C21 1_555 1_555
N4 C30 1_555 1_555
N5 C39 1_555 1_555
N6 C48 1_555 1_555
C1 C2 1_555 1_555
C2 C10 1_555 1_555
C3 S1 1_555 1_555
C4 C3 1_555 1_555
C5 C4 1_555 1_555
C6 C5 1_555 1_555
C7 C6 1_555 1_555
C8 C7 1_555 1_555
C9 C4 1_555 1_555
C10 N1 1_555 1_555
C11 C10 1_555 1_555
C12 S2 1_555 1_555
C13 C12 1_555 1_555
C14 C13 1_555 1_555
C15 C14 1_555 1_555
C16 C15 1_555 1_555
C17 C16 1_555 1_555
C18 C13 1_555 1_555
C19 N2 1_555 1_555
C20 C19 1_555 1_555
C21 S3 1_555 1_555
C22 C21 1_555 1_555
C23 C22 1_555 1_555
C24 C23 1_555 1_555
C25 C24 1_555 1_555
C26 C25 1_555 1_555
C27 C22 1_555 1_555
C28 N3 1_555 1_555
C29 C28 1_555 1_555
C30 S4 1_555 1_555
C31 C30 1_555 1_555
C32 C31 1_555 1_555
C33 C32 1_555 1_555
C34 C33 1_555 1_555
C35 C34 1_555 1_555
C36 C31 1_555 1_555
C37 N4 1_555 1_555
C38 C37 1_555 1_555
C39 S5 1_555 1_555
C40 C39 1_555 1_555
C41 C40 1_555 1_555
C42 C41 1_555 1_555
C43 C42 1_555 1_555
C44 C43 1_555 1_555
C45 C40 1_555 1_555
C46 N5 1_555 1_555
C47 C46 1_555 1_555
C48 S6 1_555 1_555
C49 C48 1_555 1_555
C50 C49 1_555 1_555
C51 C50 1_555 1_555
C52 C51 1_555 1_555
C53 C52 1_555 1_555
C54 C49 1_555 1_555
C55 N6 1_555 1_555
C56 C55 1_555 1_555
H1 C1 1_555 1_555
H2 C1 1_555 1_555
H3 C1 1_555 1_555
H4 C5 1_555 1_555
H5 C6 1_555 1_555
H6 C7 1_555 1_555
H7 C8 1_555 1_555
H8 C9 1_555 1_555
H9 C14 1_555 1_555
H10 C15 1_555 1_555
H11 C16 1_555 1_555
H12 C17 1_555 1_555
H13 C18 1_555 1_555
H14 C23 1_555 1_555
H15 C24 1_555 1_555
H16 C25 1_555 1_555
H17 C26 1_555 1_555
H18 C27 1_555 1_555
H19 C32 1_555 1_555
H20 C33 1_555 1_555
H21 C34 1_555 1_555
H22 C35 1_555 1_555
H23 C36 1_555 1_555
H24 C41 1_555 1_555
H25 C42 1_555 1_555
H26 C43 1_555 1_555
H27 C44 1_555 1_555
H28 C45 1_555 1_555
H29 C50 1_555 1_555
H30 C51 1_555 1_555
H31 C52 1_555 1_555
H32 C53 1_555 1_555
H33 C54 1_555 1_555
H34 C56 1_555 1_555
H35 C56 1_555 1_555
H36 C56 1_555 1_555
C8 C9 1_555 1_555
C11 C19 1_555 1_555
C17 C18 1_555 1_555
C20 C28 1_555 1_555
C26 C27 1_555 1_555
C29 C37 1_555 1_555
C35 C36 1_555 1_555
C38 C46 1_555 1_555
C44 C45 1_555 1_555
C47 C55 1_555 1_555
C53 C54 1_555 1_555

#END
