
#######################################################################
#
#                 Cambridge Crystallographic Data Centre
#                                CCDC 
#
#######################################################################
#
# If this CIF has been generated from an entry in the Cambridge 
# Structural Database, then it will include bibliographic, chemical, 
# crystal, experimental, refinement or atomic coordinate data resulting 
# from the CCDC's data processing and validation procedures.
#
#######################################################################

data_JOYVAW
_chemical_name_common            
'3-Methyl-15,24-diphenyl-12-aza-3-azoniaheptacyclo[12.10.0.0$2,7!.0$8,13!.0$15,19!.0$16,23!.0$20,24!]tetracosa-1(14),2,4,6,8,10,12-heptaene iodide'
_chemical_formula_moiety         'C35 H31 N2 1+,I1 1-'
_chemical_name_systematic        
'1-Methyl-9,13a-diphenyl-10,10a,11,12,13,13a-hexahydro-9H-9,13,10-(propane[1,1,3]triyl)indeno[4,5-f][4,7]phenanthrolin-1-ium iodide'
_symmetry_cell_setting           triclinic
_symmetry_space_group_name_H-M   'P -1'
_symmetry_Int_Tables_number      2
_space_group_name_Hall           '-P 1'
loop_
_symmetry_equiv_pos_site_id
_symmetry_equiv_pos_as_xyz
1 x,y,z
2 -x,-y,-z
_cell_length_a                   7.52510(10)
_cell_length_b                   12.2650(2)
_cell_length_c                   14.7230(3)
_cell_angle_alpha                81.8260(10)
_cell_angle_beta                 83.4550(10)
_cell_angle_gamma                83.8270(10)
_cell_volume                     1330.52
_exptl_crystal_colour            yellow
_exptl_crystal_description       prism
_cell_formula_units_Z            2
loop_
_atom_site_label
_atom_site_type_symbol
_atom_site_fract_x
_atom_site_fract_y
_atom_site_fract_z
C1 C 0.9173(4) 0.3534(3) -0.0855(2)
H1 H 0.9559 0.3249 -0.1419
C2 C 0.8025(4) 0.4505(3) -0.0880(2)
H2 H 0.7645 0.4871 -0.1448
C3 C 0.7454(4) 0.4922(3) -0.0071(2)
H3 H 0.6685 0.5590 -0.0073
C4 C 0.8012(4) 0.4356(2) 0.0762(2)
C5 C 0.9188(4) 0.3379(2) 0.07202(19)
C6 C 0.9562(3) 0.2677(2) 0.15729(19)
C7 C 0.8629(4) 0.2883(2) 0.23876(19)
C8 C 0.7870(3) 0.4015(2) 0.2454(2)
C9 C 0.7456(4) 0.4725(2) 0.1649(2)
C10 C 0.6531(4) 0.5771(3) 0.1736(3)
H4 H 0.6217 0.6247 0.1199
C11 C 0.6083(5) 0.6108(3) 0.2579(3)
H5 H 0.5362 0.6783 0.2643
C12 C 0.6696(4) 0.5451(3) 0.3336(2)
H6 H 0.6487 0.5713 0.3919
C13 C 0.8539(4) 0.3963(3) 0.4086(2)
H7 H 0.9149 0.3239 0.3978
H8 H 0.7672 0.3873 0.4635
H9 H 0.9426 0.4454 0.4182
C14 C 0.8193(4) 0.1829(2) 0.30316(19)
C15 C 0.6590(4) 0.2069(2) 0.3740(2)
C16 C 0.4998(4) 0.2571(3) 0.3410(2)
H10 H 0.4944 0.2754 0.2764
C17 C 0.3487(5) 0.2809(4) 0.4010(3)
H11 H 0.2419 0.3165 0.3773
C18 C 0.3538(6) 0.2527(4) 0.4956(3)
H12 H 0.2495 0.2664 0.5367
C19 C 0.5105(6) 0.2050(3) 0.5289(3)
H13 H 0.5152 0.1869 0.5935
C20 C 0.6628(5) 0.1827(3) 0.4691(2)
H14 H 0.7708 0.1505 0.4934
C21 C 0.9846(4) 0.1105(2) 0.3402(2)
H15 H 1.0282 0.1429 0.3913
C22 C 0.9036(5) -0.0015(3) 0.3777(2)
H16 H 0.9944 -0.0649 0.3692
H17 H 0.8614 -0.0043 0.4441
C23 C 0.7438(5) -0.0045(3) 0.3202(2)
H18 H 0.7510 -0.0753 0.2943
H19 H 0.6273 0.0058 0.3581
C24 C 0.7681(4) 0.0930(2) 0.2436(2)
H20 H 0.6523 0.1181 0.2165
C25 C 0.9230(4) 0.0661(2) 0.1654(2)
H21 H 0.8731 0.0698 0.1048
C26 C 1.0456(4) -0.0434(2) 0.1857(2)
H22 H 0.9775 -0.1003 0.2251
H23 H 1.0949 -0.0723 0.1276
C27 C 1.1981(4) -0.0119(2) 0.2364(2)
H24 H 1.2126 -0.0625 0.2943
H25 H 1.3137 -0.0138 0.1968
C28 C 1.1337(4) 0.1070(2) 0.2564(2)
H26 H 1.2375 0.1471 0.2661
C29 C 1.0585(4) 0.1543(2) 0.16049(19)
C30 C 1.2159(4) 0.1534(2) 0.0846(2)
C31 C 1.2234(4) 0.0990(2) 0.0077(2)
H27 H 1.1276 0.0571 0.0011
C32 C 1.3677(4) 0.1045(3) -0.0600(2)
H28 H 1.3690 0.0671 -0.1123
C33 C 1.5098(4) 0.1643(2) -0.0518(2)
H29 H 1.6091 0.1677 -0.0978
C34 C 1.5047(4) 0.2186(3) 0.0244(2)
H30 H 1.6014 0.2598 0.0309
C35 C 1.3593(4) 0.2138(2) 0.0917(2)
H31 H 1.3576 0.2523 0.1435
N1 N 0.9756(3) 0.2987(2) -0.00860(17)
N2 N 0.7583(3) 0.4451(2) 0.32757(17)
I1 I 1.10920(3) 0.659658(19) 0.341391(14)
loop_
_geom_bond_atom_site_label_1
_geom_bond_atom_site_label_2
_geom_bond_site_symmetry_1
_geom_bond_site_symmetry_2
C1 H1 1_555 1_555
C2 C1 1_555 1_555
H2 C2 1_555 1_555
C3 C2 1_555 1_555
H3 C3 1_555 1_555
C4 C3 1_555 1_555
C5 C4 1_555 1_555
C6 C5 1_555 1_555
C7 C6 1_555 1_555
C8 C7 1_555 1_555
C9 C4 1_555 1_555
C10 C9 1_555 1_555
H4 C10 1_555 1_555
C11 C10 1_555 1_555
H5 C11 1_555 1_555
C12 C11 1_555 1_555
H6 C12 1_555 1_555
C13 H7 1_555 1_555
H8 C13 1_555 1_555
H9 C13 1_555 1_555
C14 C7 1_555 1_555
C15 C14 1_555 1_555
C16 C15 1_555 1_555
H10 C16 1_555 1_555
C17 C16 1_555 1_555
H11 C17 1_555 1_555
C18 C17 1_555 1_555
H12 C18 1_555 1_555
C19 C18 1_555 1_555
H13 C19 1_555 1_555
C20 C15 1_555 1_555
H14 C20 1_555 1_555
C21 C14 1_555 1_555
H15 C21 1_555 1_555
C22 C21 1_555 1_555
H16 C22 1_555 1_555
H17 C22 1_555 1_555
C23 C22 1_555 1_555
H18 C23 1_555 1_555
H19 C23 1_555 1_555
C24 C14 1_555 1_555
H20 C24 1_555 1_555
C25 C24 1_555 1_555
H21 C25 1_555 1_555
C26 C25 1_555 1_555
H22 C26 1_555 1_555
H23 C26 1_555 1_555
C27 C26 1_555 1_555
H24 C27 1_555 1_555
H25 C27 1_555 1_555
C28 C21 1_555 1_555
H26 C28 1_555 1_555
C29 C6 1_555 1_555
C30 C29 1_555 1_555
C31 C30 1_555 1_555
H27 C31 1_555 1_555
C32 C31 1_555 1_555
H28 C32 1_555 1_555
C33 C32 1_555 1_555
H29 C33 1_555 1_555
C34 C33 1_555 1_555
H30 C34 1_555 1_555
C35 C30 1_555 1_555
H31 C35 1_555 1_555
N1 C1 1_555 1_555
N2 C8 1_555 1_555
C5 N1 1_555 1_555
C8 C9 1_555 1_555
C12 N2 1_555 1_555
C13 N2 1_555 1_555
C19 C20 1_555 1_555
C23 C24 1_555 1_555
C25 C29 1_555 1_555
C27 C28 1_555 1_555
C28 C29 1_555 1_555
C34 C35 1_555 1_555

#END
