
#######################################################################
#
#                 Cambridge Crystallographic Data Centre
#                                CCDC 
#
#######################################################################
#
# If this CIF has been generated from an entry in the Cambridge 
# Structural Database, then it will include bibliographic, chemical, 
# crystal, experimental, refinement or atomic coordinate data resulting 
# from the CCDC's data processing and validation procedures.
#
#######################################################################

data_JOYYAZ
_chemical_formula_moiety         'C15 H24 O3'
_chemical_name_systematic        
1,4-bis(Hydroxymethyl)-1,7-dimethyldecahydro-2H-cyclopropa[e]azulen-2-one
_symmetry_cell_setting           monoclinic
_symmetry_space_group_name_H-M   'P 21'
_symmetry_Int_Tables_number      4
_space_group_name_Hall           'P 2yb'
loop_
_symmetry_equiv_pos_site_id
_symmetry_equiv_pos_as_xyz
1 x,y,z
2 -x,1/2+y,-z
_cell_length_a                   8.5693(6)
_cell_length_b                   6.2516(4)
_cell_length_c                   12.8822(8)
_cell_angle_alpha                90
_cell_angle_beta                 97.705(6)
_cell_angle_gamma                90
_cell_volume                     683.892
_exptl_crystal_colour            colorless
_exptl_crystal_description       block
_cell_formula_units_Z            2
loop_
_atom_site_label
_atom_site_type_symbol
_atom_site_fract_x
_atom_site_fract_y
_atom_site_fract_z
O1 O 0.1061(2) 0.1110(3) 0.05829(12)
O2 O 0.36490(19) 0.8615(3) 0.01800(12)
H1 H 0.2931 0.9448 0.0247
O3 O -0.35528(19) 0.2138(3) 0.19110(13)
H2 H -0.3582 0.2564 0.1307
C1 C 0.3419(3) 0.5284(4) 0.26371(17)
H3 H 0.4441 0.4585 0.2629
C2 C -0.0035(3) 0.3835(4) 0.15525(16)
H4 H -0.0715 0.4967 0.1216
C3 C 0.0582(3) 0.4192(4) 0.27031(16)
H5 H 0.0232 0.5519 0.3005
C4 C 0.2298(3) 0.3620(4) 0.30307(16)
H6 H 0.2511 0.2207 0.2751
C5 C 0.2806(3) 0.3639(5) 0.42214(18)
H7 H 0.3848 0.2970 0.4354
C6 C 0.4165(3) 0.7593(4) 0.11706(18)
H8 H 0.4460 0.8682 0.1697
H9 H 0.5092 0.6736 0.1108
C7 C 0.2467(3) 0.4396(4) 0.07166(18)
H10 H 0.2191 0.5058 0.0036
H11 H 0.3396 0.3525 0.0681
C8 C 0.1140(3) 0.2947(4) 0.09173(17)
C9 C 0.2899(3) 0.6172(4) 0.15279(17)
H12 H 0.1959 0.7052 0.1555
C10 C -0.0709(3) 0.2559(4) 0.23814(17)
C11 C -0.0439(3) 0.0186(4) 0.2528(2)
H13 H -0.1179 -0.0583 0.2040
H14 H -0.0578 -0.0207 0.3230
H15 H 0.0613 -0.0160 0.2407
C12 C -0.2348(3) 0.3241(5) 0.25650(18)
H16 H -0.2471 0.2981 0.3292
H17 H -0.2464 0.4766 0.2438
C13 C 0.3635(3) 0.7022(5) 0.35090(18)
H18 H 0.4737 0.7404 0.3678
H19 H 0.3041 0.8299 0.3283
C14 C 0.3016(3) 0.6021(5) 0.44619(19)
H20 H 0.3762 0.6235 0.5089
H21 H 0.2019 0.6663 0.4568
C15 C 0.1735(3) 0.2465(6) 0.48810(19)
H22 H 0.0695 0.3063 0.4754
H23 H 0.2139 0.2615 0.5609
H24 H 0.1695 0.0977 0.4696
loop_
_geom_bond_atom_site_label_1
_geom_bond_atom_site_label_2
_geom_bond_site_symmetry_1
_geom_bond_site_symmetry_2
O1 C8 1_555 1_555
O2 H1 1_555 1_555
O3 H2 1_555 1_555
C1 H3 1_555 1_555
C2 H4 1_555 1_555
C3 C2 1_555 1_555
H5 C3 1_555 1_555
C4 C1 1_555 1_555
H6 C4 1_555 1_555
C5 C4 1_555 1_555
H7 C5 1_555 1_555
C6 O2 1_555 1_555
H8 C6 1_555 1_555
H9 C6 1_555 1_555
C7 H10 1_555 1_555
H11 C7 1_555 1_555
C8 C2 1_555 1_555
C9 C1 1_555 1_555
H12 C9 1_555 1_555
C10 C2 1_555 1_555
C11 C10 1_555 1_555
H13 C11 1_555 1_555
H14 C11 1_555 1_555
H15 C11 1_555 1_555
C12 O3 1_555 1_555
H16 C12 1_555 1_555
H17 C12 1_555 1_555
C13 C1 1_555 1_555
H18 C13 1_555 1_555
H19 C13 1_555 1_555
C14 C5 1_555 1_555
H20 C14 1_555 1_555
H21 C14 1_555 1_555
C15 C5 1_555 1_555
H22 C15 1_555 1_555
H23 C15 1_555 1_555
H24 C15 1_555 1_555
C3 C4 1_555 1_555
C3 C10 1_555 1_555
C6 C9 1_555 1_555
C7 C8 1_555 1_555
C7 C9 1_555 1_555
C10 C12 1_555 1_555
C13 C14 1_555 1_555

#END
