
#######################################################################
#
#                 Cambridge Crystallographic Data Centre
#                                CCDC 
#
#######################################################################
#
# If this CIF has been generated from an entry in the Cambridge 
# Structural Database, then it will include bibliographic, chemical, 
# crystal, experimental, refinement or atomic coordinate data resulting 
# from the CCDC's data processing and validation procedures.
#
#######################################################################

data_JOZMAO
_chemical_formula_moiety         'C26 H20 F3 N1 O1'
_chemical_name_systematic        
5,8-dimethyl-12-phenyl-5-(2,2,2-trifluoroethyl)indolo[2,1-a]isoquinolin-6(5H)-one
_symmetry_cell_setting           orthorhombic
_symmetry_space_group_name_H-M   'P b c a'
_symmetry_Int_Tables_number      61
_space_group_name_Hall           '-P 2ac 2ab'
loop_
_symmetry_equiv_pos_site_id
_symmetry_equiv_pos_as_xyz
1 x,y,z
2 1/2-x,-y,1/2+z
3 1/2+x,1/2-y,-z
4 -x,1/2+y,1/2-z
5 -x,-y,-z
6 1/2+x,y,1/2-z
7 1/2-x,1/2+y,z
8 x,1/2-y,1/2+z
_cell_length_a                   15.87898(18)
_cell_length_b                   10.13462(11)
_cell_length_c                   25.6111(3)
_cell_angle_alpha                90
_cell_angle_beta                 90
_cell_angle_gamma                90
_cell_volume                     4121.53
_exptl_crystal_colour            colorless
_exptl_crystal_description       plate
_cell_formula_units_Z            8
loop_
_atom_site_label
_atom_site_type_symbol
_atom_site_fract_x
_atom_site_fract_y
_atom_site_fract_z
C1 C 0.33577(10) 0.74190(16) 0.17988(6)
C2 C 0.35754(10) 0.60933(16) 0.15516(6)
C3 C 0.43568(10) 0.61190(16) 0.12069(6)
C4 C 0.48249(9) 0.72762(15) 0.11340(6)
C5 C 0.46166(9) 0.84528(15) 0.14352(6)
C6 C 0.49192(9) 0.97140(15) 0.14418(6)
C7 C 0.45315(9) 1.03920(15) 0.18778(6)
C8 C 0.39946(9) 0.95021(15) 0.21315(6)
C9 C 0.36255(10) 0.97771(17) 0.26167(6)
C10 C 0.37594(11) 1.10559(18) 0.28010(6)
H1 H 0.3517 1.1297 0.3118
C11 C 0.42368(11) 1.19851(17) 0.25352(7)
H2 H 0.4285 1.2835 0.2669
C12 C 0.46421(10) 1.16684(16) 0.20736(6)
H3 H 0.4976 1.2282 0.1900
C13 C 0.31760(13) 0.8773(2) 0.29486(7)
H4 H 0.3446 0.7931 0.2911
H5 H 0.2600 0.8706 0.2838
H6 H 0.3195 0.9043 0.3308
C14 C 0.46214(13) 0.49594(19) 0.09619(8)
H7 H 0.4322 0.4182 0.1016
C15 C 0.53213(13) 0.4947(2) 0.06399(9)
H8 H 0.5494 0.4165 0.0483
C16 C 0.57620(12) 0.6100(2) 0.05521(8)
H9 H 0.6220 0.6099 0.0326
C17 C 0.55254(10) 0.72539(18) 0.07984(7)
H10 H 0.5832 0.8023 0.0742
C18 C 0.37256(13) 0.51696(18) 0.20257(7)
H11 H 0.4215 0.5458 0.2214
H12 H 0.3810 0.4283 0.1905
H13 H 0.3244 0.5196 0.2252
C19 C 0.27877(11) 0.55803(18) 0.12630(7)
H14 H 0.2864 0.4647 0.1194
H15 H 0.2307 0.5668 0.1494
C20 C 0.25838(12) 0.6251(2) 0.07601(7)
C21 C 0.55647(9) 1.03365(15) 0.11032(6)
C22 C 0.53751(10) 1.07837(18) 0.06056(6)
H16 H 0.4832 1.0682 0.0476
C23 C 0.59857(11) 1.13811(19) 0.02986(7)
H17 H 0.5850 1.1673 -0.0035
C24 C 0.67895(12) 1.1544(2) 0.04858(7)
H18 H 0.7202 1.1927 0.0277
C25 C 0.69808(12) 1.1136(3) 0.09841(8)
H19 H 0.7521 1.1262 0.1115
C26 C 0.63732(11) 1.0537(2) 0.12915(7)
H20 H 0.6509 1.0267 0.1628
F1 F 0.27172(9) 0.75666(12) 0.07739(4)
F2 F 0.30399(8) 0.58271(13) 0.03543(4)
F3 F 0.17839(8) 0.6069(2) 0.06238(6)
N1 N 0.40200(8) 0.83114(12) 0.18457(5)
O1 O 0.26659(7) 0.76530(12) 0.19734(5)
loop_
_geom_bond_atom_site_label_1
_geom_bond_atom_site_label_2
_geom_bond_site_symmetry_1
_geom_bond_site_symmetry_2
C1 C2 1_555 1_555
C2 C3 1_555 1_555
C3 C4 1_555 1_555
C4 C5 1_555 1_555
C5 C6 1_555 1_555
C6 C7 1_555 1_555
C7 C8 1_555 1_555
C8 C9 1_555 1_555
C9 C10 1_555 1_555
C10 H1 1_555 1_555
C11 C10 1_555 1_555
H2 C11 1_555 1_555
C12 C7 1_555 1_555
H3 C12 1_555 1_555
C13 C9 1_555 1_555
H4 C13 1_555 1_555
H5 C13 1_555 1_555
H6 C13 1_555 1_555
C14 C3 1_555 1_555
H7 C14 1_555 1_555
C15 C14 1_555 1_555
H8 C15 1_555 1_555
C16 C15 1_555 1_555
H9 C16 1_555 1_555
C17 C4 1_555 1_555
H10 C17 1_555 1_555
C18 C2 1_555 1_555
H11 C18 1_555 1_555
H12 C18 1_555 1_555
H13 C18 1_555 1_555
C19 C2 1_555 1_555
H14 C19 1_555 1_555
H15 C19 1_555 1_555
C20 C19 1_555 1_555
C21 C6 1_555 1_555
C22 C21 1_555 1_555
H16 C22 1_555 1_555
C23 C22 1_555 1_555
H17 C23 1_555 1_555
C24 C23 1_555 1_555
H18 C24 1_555 1_555
C25 C24 1_555 1_555
H19 C25 1_555 1_555
C26 C21 1_555 1_555
H20 C26 1_555 1_555
F1 C20 1_555 1_555
F2 C20 1_555 1_555
F3 C20 1_555 1_555
N1 C1 1_555 1_555
O1 C1 1_555 1_555
C5 N1 1_555 1_555
C8 N1 1_555 1_555
C11 C12 1_555 1_555
C16 C17 1_555 1_555
C25 C26 1_555 1_555

#END
