
#######################################################################
#
#                 Cambridge Crystallographic Data Centre
#                                CCDC 
#
#######################################################################
#
# If this CIF has been generated from an entry in the Cambridge 
# Structural Database, then it will include bibliographic, chemical, 
# crystal, experimental, refinement or atomic coordinate data resulting 
# from the CCDC's data processing and validation procedures.
#
#######################################################################

data_JOZMES
_chemical_formula_moiety         'C25 H18 F3 N1 O1'
_chemical_name_systematic        
5-methyl-12-phenyl-5-(2,2,2-trifluoroethyl)indolo[2,1-a]isoquinolin-6(5H)-one
_symmetry_cell_setting           monoclinic
_symmetry_space_group_name_H-M   'P 21/c'
_symmetry_Int_Tables_number      14
_space_group_name_Hall           '-P 2ybc'
loop_
_symmetry_equiv_pos_site_id
_symmetry_equiv_pos_as_xyz
1 x,y,z
2 -x,1/2+y,1/2-z
3 -x,-y,-z
4 x,1/2-y,1/2+z
_cell_length_a                   14.4629(2)
_cell_length_b                   11.06417(13)
_cell_length_c                   12.43841(16)
_cell_angle_alpha                90
_cell_angle_beta                 100.5461(14)
_cell_angle_gamma                90
_cell_volume                     1956.77
_exptl_crystal_colour            colorless
_exptl_crystal_description       prism
_cell_formula_units_Z            4
loop_
_atom_site_label
_atom_site_type_symbol
_atom_site_fract_x
_atom_site_fract_y
_atom_site_fract_z
F1 F 0.39301(15) 0.5009(2) 0.46247(13)
F2 F 0.32150(15) 0.5935(2) 0.32317(17)
F3 F 0.29627(14) 0.4067(2) 0.34162(18)
O1 O 0.41585(12) 0.20768(15) 0.25803(15)
N1 N 0.29285(12) 0.24640(15) 0.12300(14)
C1 C 0.37410(15) 0.2790(2) 0.19214(18)
C2 C 0.41315(14) 0.4064(2) 0.18074(17)
C3 C 0.34867(14) 0.49019(19) 0.10486(17)
C4 C 0.26852(14) 0.44694(18) 0.03426(16)
C5 C 0.23897(14) 0.32203(18) 0.04277(16)
C6 C 0.16518(14) 0.25643(18) -0.01189(16)
C7 C 0.17263(14) 0.13539(18) 0.03286(16)
C8 C 0.11733(16) 0.0324(2) 0.00643(18)
H1 H 0.0647 0.0337 -0.0519
C9 C 0.14091(18) -0.0715(2) 0.0671(2)
H2 H 0.1044 -0.1426 0.0499
C10 C 0.21778(18) -0.0731(2) 0.1534(2)
H3 H 0.2318 -0.1451 0.1947
C11 C 0.27414(16) 0.0276(2) 0.18031(18)
H4 H 0.3264 0.0262 0.2390
C12 C 0.25079(14) 0.13105(18) 0.11749(17)
C13 C 0.44334(16) 0.4573(2) 0.29724(18)
H5 H 0.4847 0.3974 0.3416
H6 H 0.4809 0.5314 0.2931
C14 C 0.36360(19) 0.4873(3) 0.3555(2)
C15 C 0.37410(16) 0.6114(2) 0.09853(19)
H7 H 0.4282 0.6409 0.1464
C16 C 0.32253(17) 0.6888(2) 0.0246(2)
H8 H 0.3396 0.7716 0.0231
C17 C 0.24523(17) 0.6452(2) -0.04798(19)
H9 H 0.2104 0.6978 -0.1007
C18 C 0.21902(15) 0.52561(19) -0.04358(17)
H10 H 0.1666 0.4963 -0.0942
C19 C 0.08574(14) 0.29471(18) -0.09807(16)
C20 C 0.01129(15) 0.35991(19) -0.07150(17)
H11 H 0.0126 0.3827 0.0024
C21 C -0.06505(16) 0.3924(2) -0.15068(18)
H12 H -0.1153 0.4374 -0.1309
C22 C -0.06802(16) 0.3596(2) -0.25797(18)
H13 H -0.1204 0.3812 -0.3124
C23 C 0.0056(2) 0.2951(3) -0.2858(2)
H14 H 0.0041 0.2732 -0.3600
C24 C 0.08197(17) 0.2618(3) -0.20678(19)
H15 H 0.1319 0.2164 -0.2269
C25 C 0.50411(16) 0.3854(2) 0.1333(2)
H16 H 0.4890 0.3378 0.0659
H17 H 0.5502 0.3415 0.1868
H18 H 0.5305 0.4635 0.1172
loop_
_geom_bond_atom_site_label_1
_geom_bond_atom_site_label_2
_geom_bond_site_symmetry_1
_geom_bond_site_symmetry_2
F1 C14 1_555 1_555
F2 C14 1_555 1_555
F3 C14 1_555 1_555
O1 C1 1_555 1_555
N1 C1 1_555 1_555
C1 C2 1_555 1_555
C2 C3 1_555 1_555
C3 C4 1_555 1_555
C4 C5 1_555 1_555
C5 N1 1_555 1_555
C6 C5 1_555 1_555
C7 C6 1_555 1_555
C8 C7 1_555 1_555
H1 C8 1_555 1_555
C9 C8 1_555 1_555
H2 C9 1_555 1_555
C10 C9 1_555 1_555
H3 C10 1_555 1_555
C11 C10 1_555 1_555
H4 C11 1_555 1_555
C12 N1 1_555 1_555
C13 C2 1_555 1_555
H5 C13 1_555 1_555
H6 C13 1_555 1_555
C14 C13 1_555 1_555
C15 C3 1_555 1_555
H7 C15 1_555 1_555
C16 C15 1_555 1_555
H8 C16 1_555 1_555
C17 C16 1_555 1_555
H9 C17 1_555 1_555
C18 C4 1_555 1_555
H10 C18 1_555 1_555
C19 C6 1_555 1_555
C20 C19 1_555 1_555
H11 C20 1_555 1_555
C21 C20 1_555 1_555
H12 C21 1_555 1_555
C22 C21 1_555 1_555
H13 C22 1_555 1_555
C23 C22 1_555 1_555
H14 C23 1_555 1_555
C24 C19 1_555 1_555
H15 C24 1_555 1_555
C25 C2 1_555 1_555
H16 C25 1_555 1_555
H17 C25 1_555 1_555
H18 C25 1_555 1_555
C7 C12 1_555 1_555
C11 C12 1_555 1_555
C17 C18 1_555 1_555
C23 C24 1_555 1_555

#END
