
#######################################################################
#
#                 Cambridge Crystallographic Data Centre
#                                CCDC 
#
#######################################################################
#
# If this CIF has been generated from an entry in the Cambridge 
# Structural Database, then it will include bibliographic, chemical, 
# crystal, experimental, refinement or atomic coordinate data resulting 
# from the CCDC's data processing and validation procedures.
#
#######################################################################

data_JOZMIW
_chemical_formula_moiety         'C27 H24 F3 N1 O1'
_chemical_name_systematic        
1-((2,6-dimethylphenyl)(phenyl)methylene)-4-methyl-4-(2,2,2-trifluoroethyl)-1,4-dihydroisoquinolin-3(2H)-one
_symmetry_cell_setting           triclinic
_symmetry_space_group_name_H-M   'P -1'
_symmetry_Int_Tables_number      2
_space_group_name_Hall           '-P 1'
loop_
_symmetry_equiv_pos_site_id
_symmetry_equiv_pos_as_xyz
1 x,y,z
2 -x,-y,-z
_cell_length_a                   8.8663(4)
_cell_length_b                   11.0225(4)
_cell_length_c                   11.7447(4)
_cell_angle_alpha                94.958(3)
_cell_angle_beta                 96.264(3)
_cell_angle_gamma                108.345(4)
_cell_volume                     1074.05
_exptl_crystal_colour            colorless
_exptl_crystal_description       needle
_cell_formula_units_Z            2
loop_
_atom_site_label
_atom_site_type_symbol
_atom_site_fract_x
_atom_site_fract_y
_atom_site_fract_z
C1 C 0.1831(2) 0.6070(2) 0.92165(18)
C2 C 0.3317(3) 0.6949(2) 0.8770(2)
C3 C 0.4478(3) 0.6201(2) 0.86167(18)
C4 C 0.3845(2) 0.4894(2) 0.81716(17)
C5 C 0.2078(2) 0.42639(19) 0.79741(17)
C6 C 0.1237(2) 0.32337(19) 0.71973(17)
C7 C 0.1936(2) 0.2774(2) 0.62108(17)
C8 C 0.2786(3) 0.3655(2) 0.55315(19)
H1 H 0.2995 0.4551 0.5742
C9 C 0.3330(3) 0.3245(2) 0.4556(2)
H2 H 0.3889 0.3856 0.4096
C10 C 0.3058(3) 0.1948(2) 0.4251(2)
H3 H 0.3434 0.1665 0.3584
C11 C 0.2240(3) 0.1063(2) 0.4919(2)
H4 H 0.2071 0.0172 0.4719
C12 C 0.1662(3) 0.1469(2) 0.58833(19)
H5 H 0.1074 0.0850 0.6324
C13 C -0.0502(2) 0.25169(19) 0.72243(17)
C14 C -0.0939(3) 0.1526(2) 0.79168(19)
C15 C -0.2559(3) 0.0811(2) 0.7849(2)
H6 H -0.2866 0.0132 0.8311
C16 C -0.3720(3) 0.1066(3) 0.7132(3)
H7 H -0.4816 0.0558 0.7091
C17 C -0.3291(3) 0.2058(3) 0.6473(2)
H8 H -0.4099 0.2240 0.5985
C18 C -0.1689(3) 0.2800(2) 0.6509(2)
C19 C -0.1250(3) 0.3907(3) 0.5821(2)
H9 H -0.2211 0.3922 0.5333
H10 H -0.0454 0.3810 0.5334
H11 H -0.0795 0.4715 0.6346
C20 C 0.0278(4) 0.1238(3) 0.8747(2)
H12 H 0.1333 0.1538 0.8489
H13 H -0.0037 0.0306 0.8775
H14 H 0.0333 0.1681 0.9518
C21 C 0.4073(3) 0.8172(2) 0.9649(3)
H15 H 0.4592 0.7956 1.0347
H16 H 0.3234 0.8521 0.9850
H17 H 0.4874 0.8817 0.9311
C22 C 0.2837(3) 0.7264(3) 0.7554(2)
H18 H 0.3837 0.7710 0.7251
H19 H 0.2311 0.6437 0.7049
C23 C 0.1756(4) 0.8064(3) 0.7428(3)
C24 C 0.6139(3) 0.6775(2) 0.8881(2)
H20 H 0.6578 0.7665 0.9170
C25 C 0.7153(3) 0.6065(3) 0.8727(2)
H21 H 0.8283 0.6468 0.8909
C26 C 0.6525(3) 0.4767(3) 0.8309(2)
H22 H 0.7223 0.4278 0.8207
C27 C 0.4888(3) 0.4184(2) 0.80404(18)
H23 H 0.4463 0.3290 0.7763
F1 F 0.2429(3) 0.9276(2) 0.7973(2)
F2 F 0.1450(3) 0.8236(2) 0.63352(19)
F3 F 0.0385(3) 0.7573(3) 0.7789(2)
N1 N 0.1289(2) 0.48146(16) 0.87575(15)
H24 H 0.0397 0.4311 0.8956
O1 O 0.11754(18) 0.64981(14) 0.99427(13)
loop_
_geom_bond_atom_site_label_1
_geom_bond_atom_site_label_2
_geom_bond_site_symmetry_1
_geom_bond_site_symmetry_2
C1 C2 1_555 1_555
C2 C3 1_555 1_555
C3 C4 1_555 1_555
C4 C5 1_555 1_555
C5 C6 1_555 1_555
C6 C7 1_555 1_555
C7 C8 1_555 1_555
C8 H1 1_555 1_555
C9 C8 1_555 1_555
H2 C9 1_555 1_555
C10 C9 1_555 1_555
H3 C10 1_555 1_555
C11 C10 1_555 1_555
H4 C11 1_555 1_555
C12 C7 1_555 1_555
H5 C12 1_555 1_555
C13 C6 1_555 1_555
C14 C13 1_555 1_555
C15 C14 1_555 1_555
H6 C15 1_555 1_555
C16 C15 1_555 1_555
H7 C16 1_555 1_555
C17 C16 1_555 1_555
H8 C17 1_555 1_555
C18 C13 1_555 1_555
C19 C18 1_555 1_555
H9 C19 1_555 1_555
H10 C19 1_555 1_555
H11 C19 1_555 1_555
C20 C14 1_555 1_555
H12 C20 1_555 1_555
H13 C20 1_555 1_555
H14 C20 1_555 1_555
C21 C2 1_555 1_555
H15 C21 1_555 1_555
H16 C21 1_555 1_555
H17 C21 1_555 1_555
C22 C2 1_555 1_555
H18 C22 1_555 1_555
H19 C22 1_555 1_555
C23 C22 1_555 1_555
C24 C3 1_555 1_555
H20 C24 1_555 1_555
C25 C24 1_555 1_555
H21 C25 1_555 1_555
C26 C25 1_555 1_555
H22 C26 1_555 1_555
C27 C4 1_555 1_555
H23 C27 1_555 1_555
F1 C23 1_555 1_555
F2 C23 1_555 1_555
F3 C23 1_555 1_555
N1 C1 1_555 1_555
H24 N1 1_555 1_555
O1 C1 1_555 1_555
C5 N1 1_555 1_555
C11 C12 1_555 1_555
C17 C18 1_555 1_555
C26 C27 1_555 1_555

#END
