
#######################################################################
#
#                 Cambridge Crystallographic Data Centre
#                                CCDC 
#
#######################################################################
#
# If this CIF has been generated from an entry in the Cambridge 
# Structural Database, then it will include bibliographic, chemical, 
# crystal, experimental, refinement or atomic coordinate data resulting 
# from the CCDC's data processing and validation procedures.
#
#######################################################################

data_JOZZAB
_chemical_formula_moiety         'C14 H18 N2 O5'
_chemical_name_systematic        
'methyl (2-(t-butylcarbamoyl)-5-nitrophenyl)acetate'
_symmetry_cell_setting           monoclinic
_symmetry_space_group_name_H-M   'P 21/c'
_symmetry_Int_Tables_number      14
_space_group_name_Hall           '-P 2ybc'
loop_
_symmetry_equiv_pos_site_id
_symmetry_equiv_pos_as_xyz
1 x,y,z
2 -x,1/2+y,1/2-z
3 -x,-y,-z
4 x,1/2-y,1/2+z
_cell_length_a                   17.6047(9)
_cell_length_b                   17.8743(10)
_cell_length_c                   9.7826(5)
_cell_angle_alpha                90
_cell_angle_beta                 100.979(5)
_cell_angle_gamma                90
_cell_volume                     3021.97
_exptl_crystal_colour            colorless
_cell_formula_units_Z            8
loop_
_atom_site_label
_atom_site_type_symbol
_atom_site_fract_x
_atom_site_fract_y
_atom_site_fract_z
C1 C 0.21464(12) 0.17929(12) 0.2081(2)
C2 C 0.14376(12) 0.16633(13) 0.1173(2)
C3 C 0.10611(13) 0.09876(13) 0.1286(2)
H1 H 0.0580 0.0885 0.0689
C4 C 0.13846(13) 0.04686(13) 0.2260(2)
C5 C 0.20830(13) 0.05852(13) 0.3148(2)
H2 H 0.2299 0.0217 0.3809
C6 C 0.24576(13) 0.12564(13) 0.3042(2)
H3 H 0.2939 0.1351 0.3643
C7 C 0.25910(12) 0.25041(13) 0.1973(2)
C8 C 0.33803(13) 0.35198(13) 0.3285(2)
C9 C 0.28853(17) 0.41671(15) 0.2614(3)
H4 H 0.2721 0.4071 0.1615
H5 H 0.3187 0.4631 0.2752
H6 H 0.2428 0.4216 0.3044
C10 C 0.40843(15) 0.34086(18) 0.2605(3)
H7 H 0.4378 0.2972 0.3017
H8 H 0.4414 0.3854 0.2760
H9 H 0.3913 0.3329 0.1603
C11 C 0.36444(16) 0.36732(16) 0.4831(3)
H10 H 0.3193 0.3771 0.5254
H11 H 0.3987 0.4110 0.4958
H12 H 0.3925 0.3237 0.5279
C12 C 0.10622(13) 0.22227(14) 0.0105(2)
H13 H 0.1391 0.2286 -0.0602
H14 H 0.0557 0.2022 -0.0373
C13 C 0.09373(12) 0.29708(14) 0.0710(2)
C14 C 0.04822(19) 0.41805(16) 0.0187(3)
H15 H 0.0150 0.4127 0.0879
H16 H 0.0214 0.4479 -0.0599
H17 H 0.0964 0.4431 0.0614
N1 N 0.29182(10) 0.28271(10) 0.31668(18)
H18 H 0.2854 0.2611 0.3944
N2 N 0.09550(12) -0.02271(12) 0.2390(2)
O1 O 0.26440(9) 0.27524(9) 0.08119(15)
O2 O 0.06548(10) 0.34563(10) -0.02962(17)
O3 O 0.10609(10) 0.31327(10) 0.19182(17)
O4 O 0.03029(10) -0.02897(11) 0.1681(2)
O5 O 0.12548(11) -0.07029(11) 0.3209(2)
C15 C 0.32177(12) 0.80330(12) 0.4064(2)
C16 C 0.39868(12) 0.78011(12) 0.4151(2)
C17 C 0.45692(12) 0.82490(13) 0.4877(2)
H19 H 0.5095 0.8102 0.4965
C18 C 0.43862(12) 0.89053(12) 0.5471(2)
C19 C 0.36344(13) 0.91424(13) 0.5376(2)
H20 H 0.3521 0.9603 0.5778
C20 C 0.30487(13) 0.86927(13) 0.4679(2)
H21 H 0.2525 0.8838 0.4623
C21 C 0.25643(12) 0.75824(13) 0.3235(2)
C22 C 0.14992(13) 0.66806(15) 0.3432(2)
C23 C 0.13619(19) 0.6195(2) 0.4633(3)
H22 H 0.1820 0.5885 0.4959
H23 H 0.0913 0.5872 0.4320
H24 H 0.1265 0.6514 0.5396
C24 C 0.08136(15) 0.7196(2) 0.2971(4)
H25 H 0.0745 0.7517 0.3751
H26 H 0.0345 0.6897 0.2671
H27 H 0.0907 0.7508 0.2196
C25 C 0.16453(19) 0.6188(2) 0.2245(4)
H28 H 0.1707 0.6502 0.1453
H29 H 0.1206 0.5849 0.1965
H30 H 0.2117 0.5895 0.2552
C26 C 0.41748(13) 0.70924(13) 0.3459(2)
H31 H 0.3850 0.7073 0.2515
H32 H 0.4721 0.7119 0.3345
C27 C 0.40642(13) 0.63751(14) 0.4194(2)
C28 C 0.37395(19) 0.57980(15) 0.6163(3)
H33 H 0.3317 0.5514 0.5597
H34 H 0.3598 0.5932 0.7053
H35 H 0.4209 0.5491 0.6336
N3 N 0.21893(10) 0.71462(11) 0.39776(19)
H36 H 0.2366 0.7131 0.4881
N4 N 0.50124(13) 0.93642(13) 0.6243(2)
O6 O 0.24162(10) 0.76384(12) 0.19633(16)
O7 O 0.38797(10) 0.64722(9) 0.54290(16)
O8 O 0.41489(14) 0.57726(11) 0.3715(2)
O9 O 0.56442(11) 0.90713(12) 0.6629(2)
O10 O 0.48705(11) 1.00187(11) 0.64669(18)
loop_
_geom_bond_atom_site_label_1
_geom_bond_atom_site_label_2
_geom_bond_site_symmetry_1
_geom_bond_site_symmetry_2
C1 C2 1_555 1_555
C2 C3 1_555 1_555
C3 H1 1_555 1_555
C4 C3 1_555 1_555
C5 C4 1_555 1_555
H2 C5 1_555 1_555
C6 C1 1_555 1_555
H3 C6 1_555 1_555
C7 C1 1_555 1_555
C8 C9 1_555 1_555
C9 H4 1_555 1_555
H5 C9 1_555 1_555
H6 C9 1_555 1_555
C10 C8 1_555 1_555
H7 C10 1_555 1_555
H8 C10 1_555 1_555
H9 C10 1_555 1_555
C11 C8 1_555 1_555
H10 C11 1_555 1_555
H11 C11 1_555 1_555
H12 C11 1_555 1_555
C12 C2 1_555 1_555
H13 C12 1_555 1_555
H14 C12 1_555 1_555
C13 C12 1_555 1_555
C14 H15 1_555 1_555
H16 C14 1_555 1_555
H17 C14 1_555 1_555
N1 C7 1_555 1_555
H18 N1 1_555 1_555
N2 C4 1_555 1_555
O1 C7 1_555 1_555
O2 C13 1_555 1_555
O3 C13 1_555 1_555
O4 N2 1_555 1_555
O5 N2 1_555 1_555
C15 C16 1_555 1_555
C16 C17 1_555 1_555
C17 H19 1_555 1_555
C18 C17 1_555 1_555
C19 C18 1_555 1_555
H20 C19 1_555 1_555
C20 C15 1_555 1_555
H21 C20 1_555 1_555
C21 C15 1_555 1_555
C22 C23 1_555 1_555
C23 H22 1_555 1_555
H23 C23 1_555 1_555
H24 C23 1_555 1_555
C24 C22 1_555 1_555
H25 C24 1_555 1_555
H26 C24 1_555 1_555
H27 C24 1_555 1_555
C25 C22 1_555 1_555
H28 C25 1_555 1_555
H29 C25 1_555 1_555
H30 C25 1_555 1_555
C26 C16 1_555 1_555
H31 C26 1_555 1_555
H32 C26 1_555 1_555
C27 C26 1_555 1_555
C28 H33 1_555 1_555
H34 C28 1_555 1_555
H35 C28 1_555 1_555
N3 C21 1_555 1_555
H36 N3 1_555 1_555
N4 C18 1_555 1_555
O6 C21 1_555 1_555
O7 C27 1_555 1_555
O8 C27 1_555 1_555
O9 N4 1_555 1_555
O10 N4 1_555 1_555
C5 C6 1_555 1_555
C8 N1 1_555 1_555
C14 O2 1_555 1_555
C19 C20 1_555 1_555
C22 N3 1_555 1_555
C28 O7 1_555 1_555

#END
