
#######################################################################
#
#                 Cambridge Crystallographic Data Centre
#                                CCDC 
#
#######################################################################
#
# If this CIF has been generated from an entry in the Cambridge 
# Structural Database, then it will include bibliographic, chemical, 
# crystal, experimental, refinement or atomic coordinate data resulting 
# from the CCDC's data processing and validation procedures.
#
#######################################################################

data_JOZZEF
_chemical_formula_moiety         'C16 H21 N1 O5'
_chemical_name_systematic        'dimethyl (2-(t-butylcarbamoyl)phenyl)malonate'
_symmetry_cell_setting           monoclinic
_symmetry_space_group_name_H-M   'P 21/n'
_symmetry_Int_Tables_number      14
_space_group_name_Hall           '-P 2yn'
loop_
_symmetry_equiv_pos_site_id
_symmetry_equiv_pos_as_xyz
1 x,y,z
2 1/2-x,1/2+y,1/2-z
3 -x,-y,-z
4 1/2+x,1/2-y,1/2+z
_cell_length_a                   17.4149(12)
_cell_length_b                   9.7931(4)
_cell_length_c                   20.9100(11)
_cell_angle_alpha                90
_cell_angle_beta                 113.000(7)
_cell_angle_gamma                90
_cell_volume                     3282.63
_cell_formula_units_Z            8
loop_
_atom_site_label
_atom_site_type_symbol
_atom_site_fract_x
_atom_site_fract_y
_atom_site_fract_z
C1 C 0.71800(13) 0.51465(19) 0.05239(10)
C2 C 0.64970(15) 0.4339(2) 0.01373(11)
H1 H 0.6018 0.4332 0.0249
C3 C 0.65064(15) 0.3549(2) -0.04063(11)
H2 H 0.6039 0.2993 -0.0661
C4 C 0.71919(15) 0.3566(2) -0.05792(11)
H3 H 0.7199 0.3023 -0.0953
C5 C 0.78695(14) 0.4376(2) -0.02061(10)
H4 H 0.8339 0.4394 -0.0330
C6 C 0.78731(13) 0.51653(19) 0.03491(9)
C7 C 0.71547(14) 0.5980(2) 0.11307(10)
H5 H 0.7616 0.6666 0.1265
C8 C 0.63355(15) 0.6746(2) 0.09060(10)
C9 C 0.5650(2) 0.8752(3) 0.03503(17)
H6 H 0.5228 0.8210 -0.0012
H7 H 0.5766 0.9587 0.0145
H8 H 0.5444 0.8993 0.0710
C10 C 0.72814(14) 0.5099(2) 0.17591(11)
C11 C 0.7394(2) 0.5183(3) 0.29204(12)
H9 H 0.6885 0.4665 0.2846
H10 H 0.7488 0.5853 0.3292
H11 H 0.7870 0.4557 0.3053
C12 C 0.86522(13) 0.59224(19) 0.07833(10)
C13 C 0.98664(14) 0.7255(2) 0.07429(11)
C14 C 1.00370(18) 0.7842(3) 0.01367(14)
H12 H 1.0019 0.7107 -0.0187
H13 H 1.0590 0.8270 0.0312
H14 H 0.9612 0.8527 -0.0105
C15 C 1.05213(15) 0.6186(2) 0.11179(13)
H15 H 1.0409 0.5811 0.1507
H16 H 1.1076 0.6608 0.1294
H17 H 1.0502 0.5450 0.0794
C16 C 0.98829(19) 0.8381(3) 0.12497(16)
H18 H 0.9490 0.9103 0.1001
H19 H 1.0447 0.8762 0.1461
H20 H 0.9722 0.8003 0.1614
N1 N 0.90323(11) 0.66139(17) 0.04366(8)
H21 H 0.8760 0.6694 -0.0015
O1 O 0.64090(11) 0.79616(16) 0.06578(9)
O2 O 0.57009(12) 0.63168(18) 0.09252(9)
O3 O 0.73044(12) 0.58848(17) 0.22861(7)
O4 O 0.73626(12) 0.38890(17) 0.17885(8)
O5 O 0.89300(9) 0.58624(15) 0.14255(7)
C17 C 0.89580(13) 0.33119(19) 0.65360(9)
C18 C 0.91186(15) 0.2062(2) 0.62993(10)
H22 H 0.8677 0.1424 0.6104
C19 C 0.99073(16) 0.1732(2) 0.63433(12)
H23 H 1.0004 0.0875 0.6175
C20 C 1.05555(16) 0.2642(2) 0.66303(12)
H24 H 1.1100 0.2415 0.6664
C21 C 1.04046(15) 0.3894(2) 0.68698(11)
H25 H 1.0852 0.4520 0.7071
C22 C 0.96143(13) 0.42462(19) 0.68201(9)
C23 C 0.80948(14) 0.36566(19) 0.65003(10)
H26 H 0.8172 0.4242 0.6913
C24 C 0.76342(14) 0.2385(2) 0.65673(10)
C25 C 0.76572(18) 0.0612(3) 0.73391(14)
H27 H 0.7053 0.0678 0.7205
H28 H 0.7926 0.0382 0.7834
H29 H 0.7779 -0.0101 0.7063
C26 C 0.75418(15) 0.4445(2) 0.58655(11)
C27 C 0.73340(18) 0.5115(3) 0.47301(12)
H30 H 0.6739 0.4923 0.4594
H31 H 0.7505 0.4837 0.4355
H32 H 0.7435 0.6095 0.4818
C28 C 0.94510(14) 0.5658(2) 0.70261(10)
C29 C 1.00484(15) 0.7548(2) 0.78827(11)
C30 C 0.92921(17) 0.7749(2) 0.80668(13)
H33 H 0.8782 0.7700 0.7643
H34 H 0.9326 0.8645 0.8285
H35 H 0.9281 0.7033 0.8390
C31 C 1.08348(17) 0.7636(2) 0.85394(12)
H36 H 1.0799 0.6985 0.8883
H37 H 1.0893 0.8564 0.8729
H38 H 1.1320 0.7417 0.8431
C32 C 1.0064(2) 0.8605(2) 0.73595(13)
H39 H 1.0536 0.8423 0.7227
H40 H 1.0125 0.9517 0.7566
H41 H 0.9543 0.8559 0.6946
N2 N 1.00396(12) 0.61563(16) 0.76057(8)
H42 H 1.0456 0.5611 0.7842
O6 O 0.78101(10) 0.43629(15) 0.53531(7)
O7 O 0.69319(12) 0.50500(18) 0.58343(9)
O8 O 0.70559(10) 0.18597(15) 0.61130(7)
O9 O 0.79746(10) 0.19086(16) 0.72142(7)
O10 O 0.88174(10) 0.62785(14) 0.66651(7)
loop_
_geom_bond_atom_site_label_1
_geom_bond_atom_site_label_2
_geom_bond_site_symmetry_1
_geom_bond_site_symmetry_2
C1 C2 1_555 1_555
C2 H1 1_555 1_555
C3 C2 1_555 1_555
H2 C3 1_555 1_555
C4 C3 1_555 1_555
H3 C4 1_555 1_555
C5 C4 1_555 1_555
H4 C5 1_555 1_555
C6 C1 1_555 1_555
C7 C1 1_555 1_555
H5 C7 1_555 1_555
C8 C7 1_555 1_555
C9 H6 1_555 1_555
H7 C9 1_555 1_555
H8 C9 1_555 1_555
C10 C7 1_555 1_555
C11 H9 1_555 1_555
H10 C11 1_555 1_555
H11 C11 1_555 1_555
C12 C6 1_555 1_555
C13 C14 1_555 1_555
C14 H12 1_555 1_555
H13 C14 1_555 1_555
H14 C14 1_555 1_555
C15 C13 1_555 1_555
H15 C15 1_555 1_555
H16 C15 1_555 1_555
H17 C15 1_555 1_555
C16 C13 1_555 1_555
H18 C16 1_555 1_555
H19 C16 1_555 1_555
H20 C16 1_555 1_555
N1 C12 1_555 1_555
H21 N1 1_555 1_555
O1 C8 1_555 1_555
O2 C8 1_555 1_555
O3 C10 1_555 1_555
O4 C10 1_555 1_555
O5 C12 1_555 1_555
C17 C18 1_555 1_555
C18 H22 1_555 1_555
C19 C18 1_555 1_555
H23 C19 1_555 1_555
C20 C19 1_555 1_555
H24 C20 1_555 1_555
C21 C20 1_555 1_555
H25 C21 1_555 1_555
C22 C17 1_555 1_555
C23 C17 1_555 1_555
H26 C23 1_555 1_555
C24 C23 1_555 1_555
C25 H27 1_555 1_555
H28 C25 1_555 1_555
H29 C25 1_555 1_555
C26 C23 1_555 1_555
C27 H30 1_555 1_555
H31 C27 1_555 1_555
H32 C27 1_555 1_555
C28 C22 1_555 1_555
C29 C30 1_555 1_555
C30 H33 1_555 1_555
H34 C30 1_555 1_555
H35 C30 1_555 1_555
C31 C29 1_555 1_555
H36 C31 1_555 1_555
H37 C31 1_555 1_555
H38 C31 1_555 1_555
C32 C29 1_555 1_555
H39 C32 1_555 1_555
H40 C32 1_555 1_555
H41 C32 1_555 1_555
N2 C28 1_555 1_555
H42 N2 1_555 1_555
O6 C26 1_555 1_555
O7 C26 1_555 1_555
O8 C24 1_555 1_555
O9 C24 1_555 1_555
O10 C28 1_555 1_555
C5 C6 1_555 1_555
C9 O1 1_555 1_555
C11 O3 1_555 1_555
C13 N1 1_555 1_555
C21 C22 1_555 1_555
C25 O9 1_555 1_555
C27 O6 1_555 1_555
C29 N2 1_555 1_555

#END
