
#######################################################################
#
#                 Cambridge Crystallographic Data Centre
#                                CCDC 
#
#######################################################################
#
# If this CIF has been generated from an entry in the Cambridge 
# Structural Database, then it will include bibliographic, chemical, 
# crystal, experimental, refinement or atomic coordinate data resulting 
# from the CCDC's data processing and validation procedures.
#
#######################################################################

data_JUBFOB
_chemical_formula_moiety         'C15 H14 O3'
_chemical_name_systematic        
2-Hydroxy-3-(3-methyl-2-butenyl)-1,4-naphthalenedione
_chemical_properties_biological  'antineoplastic and anticoagulant activity'
_symmetry_cell_setting           monoclinic
_symmetry_space_group_name_H-M   'P 21/c'
_symmetry_Int_Tables_number      14
_space_group_name_Hall           '-P 2ybc'
loop_
_symmetry_equiv_pos_site_id
_symmetry_equiv_pos_as_xyz
1 x,y,z
2 -x,1/2+y,1/2-z
3 -x,-y,-z
4 x,1/2-y,1/2+z
_cell_length_a                   6.035(1)
_cell_length_b                   9.427(2)
_cell_length_c                   20.918(5)
_cell_angle_alpha                90
_cell_angle_beta                 98.27(2)
_cell_angle_gamma                90
_cell_volume                     1177.69
_exptl_crystal_colour            yellow
_chemical_melting_point          411-412K
_cell_formula_units_Z            4
loop_
_atom_site_label
_atom_site_type_symbol
_atom_site_fract_x
_atom_site_fract_y
_atom_site_fract_z
O1 O 0.1049(3) 0.6228(2) 0.4647(1)
O2 O 0.2931(3) 0.5174(2) 0.5791(1)
O3 O 0.92101(3) 0.8020(3) 0.5645(1)
C1 C 0.2881(5) 0.6731(3) 0.4878(1)
C2 C 0.4045(5) 0.6161(3) 0.5495(2)
C3 C 0.6134(5) 0.6555(3) 0.5755(2)
C4 C 0.7307(5) 0.7633(3) 0.5421(2)
C5 C 0.7244(5) 0.9281(4) 0.4474(2)
C6 C 0.6156(6) 0.9903(3) 0.3921(2)
C7 C 0.3972(5) 0.9508(4) 0.3677(2)
C8 C 0.2909(5) 0.8477(4) 0.3994(2)
C9 C 0.3994(5) 0.7854(3) 0.4548(1)
C10 C 0.6179(5) 0.8266(3) 0.4801(1)
C11 C 0.7289(5) 0.5941(4) 0.6382(2)
C12 C 0.6739(5) 0.6771(3) 0.6957(2)
C13 C 0.8087(5) 0.7590(4) 0.7356(2)
C14 C 1.0517(5) 0.7875(4) 0.7292(2)
C15 C 0.7273(5) 0.8350(4) 0.7905(2)
H1 H 0.175(5) 0.496(3) 0.554(2)
H2 H 0.876(5) 0.951(4) 0.464(1)
H3 H 0.699(4) 1.068(4) 0.371(1)
H4 H 0.310(5) 0.997(3) 0.327(1)
H5 H 0.142(5) 0.818(3) 0.382(2)
H6 H 0.513(5) 0.665(4) 0.703(1)
H7 H 0.676(5) 0.496(3) 0.641(1)
H8 H 0.890(5) 0.592(4) 0.637(1)
H9 H 1.081(5) 0.889(3) 0.730(1)
H10 H 1.103(5) 0.754(3) 0.690(1)
H11 H 1.152(5) 0.747(3) 0.768(1)
H12 H 0.813(5) 0.810(3) 0.835(1)
H13 H 0.572(5) 0.816(3) 0.795(1)
H14 H 0.749(5) 0.941(3) 0.791(1)
loop_
_geom_bond_atom_site_label_1
_geom_bond_atom_site_label_2
_geom_bond_site_symmetry_1
_geom_bond_site_symmetry_2
O1 C1 1_555 1_555
O2 C2 1_555 1_555
O3 C4 1_555 1_555
C1 C2 1_555 1_555
C2 C3 1_555 1_555
C3 C4 1_555 1_555
C4 C10 1_555 1_555
C5 C6 1_555 1_555
C6 C7 1_555 1_555
C7 C8 1_555 1_555
C8 C9 1_555 1_555
C9 C1 1_555 1_555
C10 C5 1_555 1_555
C11 C3 1_555 1_555
C12 C11 1_555 1_555
C13 C12 1_555 1_555
C14 C13 1_555 1_555
C15 C13 1_555 1_555
H1 O2 1_555 1_555
H2 C5 1_555 1_555
H3 C6 1_555 1_555
H4 C7 1_555 1_555
H5 C8 1_555 1_555
H6 C12 1_555 1_555
H7 C11 1_555 1_555
H8 C11 1_555 1_555
H9 C14 1_555 1_555
H10 C14 1_555 1_555
H11 C14 1_555 1_555
H12 C15 1_555 1_555
H13 C15 1_555 1_555
H14 C15 1_555 1_555
C9 C10 1_555 1_555

#END
