
#######################################################################
#
#                 Cambridge Crystallographic Data Centre
#                                CCDC 
#
#######################################################################
#
# If this CIF has been generated from an entry in the Cambridge 
# Structural Database, then it will include bibliographic, chemical, 
# crystal, experimental, refinement or atomic coordinate data resulting 
# from the CCDC's data processing and validation procedures.
#
#######################################################################

data_JUBKIC
_chemical_formula_moiety         'C33 H51 N3 O6'
_chemical_name_systematic        
8,15-Dimethyl-9-(pentan-2-yl)-6,23,30-trioxa-1,3,26-triazaheptacyclo[16.9.3.1^3,26^.1^7,14^.0^8,12^.0^13,22^.0^15,20^]dotriacontane-2,27,31-trione
_symmetry_cell_setting           orthorhombic
_symmetry_space_group_name_H-M   'P 21 21 21'
_symmetry_Int_Tables_number      19
_space_group_name_Hall           'P 2ac 2ab'
loop_
_symmetry_equiv_pos_site_id
_symmetry_equiv_pos_as_xyz
1 x,y,z
2 1/2+x,1/2-y,-z
3 -x,1/2+y,1/2-z
4 1/2-x,-y,1/2+z
_cell_length_a                   8.3390(2)
_cell_length_b                   17.6239(5)
_cell_length_c                   20.3855(5)
_cell_angle_alpha                90
_cell_angle_beta                 90
_cell_angle_gamma                90
_cell_volume                     2995.97
_exptl_crystal_colour            colorless
_exptl_crystal_description       Rod
_cell_formula_units_Z            4
loop_
_atom_site_label
_atom_site_type_symbol
_atom_site_fract_x
_atom_site_fract_y
_atom_site_fract_z
O1 O 0.66243(12) 0.28084(6) 0.78274(5)
O2 O 1.04670(11) 0.17960(5) 0.72061(5)
O3 O 0.61866(12) 0.05388(6) 0.59512(5)
O4 O 0.90645(12) 0.34391(6) 0.68103(6)
O5 O 1.00235(13) 0.16156(6) 0.52772(5)
O6 O 0.48894(12) 0.21918(6) 0.58540(5)
N1 N 0.69482(14) 0.27938(7) 0.63664(6)
N2 N 0.95946(14) 0.24944(7) 0.60738(6)
N3 N 0.74429(14) 0.19263(7) 0.55175(6)
C1 C 0.8114(3) 0.49961(12) 1.07148(9)
H1 H 0.7782 0.4477 1.0822
H2 H 0.7730 0.5343 1.1056
H3 H 0.9286 0.5021 1.0691
C2 C 0.74083(19) 0.52227(9) 1.00625(8)
H4 H 0.7666 0.5762 0.9978
H5 H 0.6227 0.5176 1.0086
C3 C 0.8018(2) 0.47454(8) 0.94862(7)
H6 H 0.9204 0.4769 0.9483
H7 H 0.7635 0.4981 0.9074
C4 C 0.75146(19) 0.39057(8) 0.94836(7)
H8 H 0.7835 0.3676 0.9913
C5 C 0.83849(17) 0.34722(8) 0.89313(7)
H9 H 0.8144 0.3738 0.8509
C6 C 1.02426(18) 0.34670(9) 0.90195(8)
H10 H 1.0731 0.3891 0.8771
H11 H 1.0523 0.3527 0.9489
C7 C 1.08740(18) 0.26958(9) 0.87580(8)
H12 H 1.1777 0.2771 0.8450
H13 H 1.1231 0.2365 0.9122
C8 C 0.94206(17) 0.23592(8) 0.84087(7)
H14 H 0.9322 0.2628 0.7979
C9 C 0.79860(17) 0.26158(8) 0.88351(7)
C10 C 0.64540(17) 0.24258(8) 0.84477(7)
H15 H 0.5491 0.2623 0.8685
C11 C 0.63266(16) 0.15604(8) 0.83652(7)
H16 H 0.6249 0.1320 0.8803
H17 H 0.5336 0.1438 0.8119
C12 C 0.77759(16) 0.12339(8) 0.79995(7)
H18 H 0.7695 0.1435 0.7542
C13 C 0.94343(17) 0.15063(7) 0.82587(7)
H19 H 0.9672 0.1228 0.8675
C14 C 1.07307(17) 0.13002(8) 0.77547(7)
H20 H 1.1804 0.1418 0.7948
C15 C 1.06866(17) 0.04520(8) 0.75724(7)
H21 H 1.1410 0.0368 0.7194
H22 H 1.1111 0.0155 0.7946
C16 C 0.90126(16) 0.01472(8) 0.73965(7)
H23 H 0.9090 -0.0419 0.7380
C17 C 0.77597(17) 0.03504(8) 0.79288(7)
C18 C 0.61217(17) 0.00376(8) 0.77094(7)
H24 H 0.6180 -0.0523 0.7698
H25 H 0.5306 0.0180 0.8040
C19 C 0.55737(17) 0.03201(8) 0.70421(7)
H26 H 0.5390 0.0875 0.7063
H27 H 0.4545 0.0074 0.6926
C20 C 0.68108(17) 0.01490(8) 0.65143(7)
H28 H 0.6835 -0.0409 0.6427
C21 C 0.84853(17) 0.04198(8) 0.67089(7)
H29 H 0.8507 0.0981 0.6699
H30 H 0.9267 0.0235 0.6380
C22 C 0.5692(2) 0.38520(9) 0.94223(9)
H31 H 0.5189 0.4180 0.9751
H32 H 0.5353 0.3326 0.9494
H33 H 0.5365 0.4015 0.8983
C23 C 0.79534(19) 0.22201(8) 0.95102(7)
H34 H 0.6898 0.2291 0.9713
H35 H 0.8781 0.2441 0.9793
H36 H 0.8161 0.1677 0.9453
C24 C 0.81519(19) -0.00499(8) 0.85823(7)
H37 H 0.7367 0.0101 0.8916
H38 H 0.9230 0.0096 0.8726
H39 H 0.8108 -0.0601 0.8520
C25 C 0.53135(16) 0.27847(8) 0.73957(7)
H40 H 0.4363 0.3023 0.7601
H41 H 0.5046 0.2252 0.7286
C26 C 0.57899(16) 0.32175(8) 0.67774(7)
H42 H 0.4816 0.3324 0.6516
H43 H 0.6270 0.3710 0.6905
C27 C 1.16017(16) 0.17620(8) 0.66906(7)
H44 H 1.1458 0.1291 0.6432
H45 H 1.2706 0.1770 0.6868
C28 C 1.13037(17) 0.24568(9) 0.62625(8)
H46 H 1.1603 0.2922 0.6506
H47 H 1.1978 0.2428 0.5864
C29 C 0.71065(18) 0.05453(9) 0.53678(7)
H48 H 0.6730 0.0145 0.5064
H49 H 0.8252 0.0454 0.5468
C30 C 0.68850(18) 0.13258(9) 0.50626(7)
H50 H 0.7499 0.1355 0.4648
H51 H 0.5738 0.1406 0.4959
C31 C 0.85740(17) 0.29486(8) 0.64477(7)
C32 C 0.90907(17) 0.19877(8) 0.55986(7)
C33 C 0.63154(18) 0.22906(8) 0.59086(7)
loop_
_geom_bond_atom_site_label_1
_geom_bond_atom_site_label_2
_geom_bond_site_symmetry_1
_geom_bond_site_symmetry_2
O1 C10 1_555 1_555
O2 C14 1_555 1_555
O3 C20 1_555 1_555
O4 C31 1_555 1_555
O5 C32 1_555 1_555
O6 C33 1_555 1_555
N1 C26 1_555 1_555
N2 C28 1_555 1_555
N3 C30 1_555 1_555
C1 H1 1_555 1_555
H2 C1 1_555 1_555
H3 C1 1_555 1_555
C2 C1 1_555 1_555
H4 C2 1_555 1_555
H5 C2 1_555 1_555
C3 C2 1_555 1_555
H6 C3 1_555 1_555
H7 C3 1_555 1_555
C4 C3 1_555 1_555
H8 C4 1_555 1_555
C5 C4 1_555 1_555
H9 C5 1_555 1_555
C6 C5 1_555 1_555
H10 C6 1_555 1_555
H11 C6 1_555 1_555
C7 C6 1_555 1_555
H12 C7 1_555 1_555
H13 C7 1_555 1_555
C8 C7 1_555 1_555
H14 C8 1_555 1_555
C9 C5 1_555 1_555
C10 C9 1_555 1_555
H15 C10 1_555 1_555
C11 C10 1_555 1_555
H16 C11 1_555 1_555
H17 C11 1_555 1_555
C12 C11 1_555 1_555
H18 C12 1_555 1_555
C13 C8 1_555 1_555
H19 C13 1_555 1_555
C14 C13 1_555 1_555
H20 C14 1_555 1_555
C15 C14 1_555 1_555
H21 C15 1_555 1_555
H22 C15 1_555 1_555
C16 C15 1_555 1_555
H23 C16 1_555 1_555
C17 C12 1_555 1_555
C18 C17 1_555 1_555
H24 C18 1_555 1_555
H25 C18 1_555 1_555
C19 C18 1_555 1_555
H26 C19 1_555 1_555
H27 C19 1_555 1_555
C20 C19 1_555 1_555
H28 C20 1_555 1_555
C21 C16 1_555 1_555
H29 C21 1_555 1_555
H30 C21 1_555 1_555
C22 C4 1_555 1_555
H31 C22 1_555 1_555
H32 C22 1_555 1_555
H33 C22 1_555 1_555
C23 C9 1_555 1_555
H34 C23 1_555 1_555
H35 C23 1_555 1_555
H36 C23 1_555 1_555
C24 C17 1_555 1_555
H37 C24 1_555 1_555
H38 C24 1_555 1_555
H39 C24 1_555 1_555
C25 O1 1_555 1_555
H40 C25 1_555 1_555
H41 C25 1_555 1_555
C26 C25 1_555 1_555
H42 C26 1_555 1_555
H43 C26 1_555 1_555
C27 O2 1_555 1_555
H44 C27 1_555 1_555
H45 C27 1_555 1_555
C28 C27 1_555 1_555
H46 C28 1_555 1_555
H47 C28 1_555 1_555
C29 O3 1_555 1_555
H48 C29 1_555 1_555
H49 C29 1_555 1_555
C30 C29 1_555 1_555
H50 C30 1_555 1_555
H51 C30 1_555 1_555
C31 N1 1_555 1_555
C32 N2 1_555 1_555
C33 N1 1_555 1_555
N2 C31 1_555 1_555
N3 C32 1_555 1_555
N3 C33 1_555 1_555
C8 C9 1_555 1_555
C12 C13 1_555 1_555
C16 C17 1_555 1_555
C20 C21 1_555 1_555

#END
