
#######################################################################
#
#                 Cambridge Crystallographic Data Centre
#                                CCDC 
#
#######################################################################
#
# If this CIF has been generated from an entry in the Cambridge 
# Structural Database, then it will include bibliographic, chemical, 
# crystal, experimental, refinement or atomic coordinate data resulting 
# from the CCDC's data processing and validation procedures.
#
#######################################################################

data_JUBRAZ
_chemical_formula_moiety         'C8 H12 N2 O3,C18 H12 N2 O1'
_chemical_name_systematic        
"6,6'-Diquinolyl ether 5,5-diethylbarbituric acid"
_chemical_properties_biological  'biomedical activity'
_symmetry_cell_setting           monoclinic
_symmetry_space_group_name_H-M   'C 2/c'
_symmetry_Int_Tables_number      15
_space_group_name_Hall           '-C 2yn'
loop_
_symmetry_equiv_pos_site_id
_symmetry_equiv_pos_as_xyz
1 x,y,z
2 1/2+x,1/2+y,z
3 -x,y,1/2-z
4 1/2-x,1/2+y,1/2-z
5 -x,-y,-z
6 1/2-x,1/2-y,-z
7 x,-y,1/2+z
8 1/2+x,1/2-y,1/2+z
_cell_length_a                   24.565(2)
_cell_length_b                   17.750(2)
_cell_length_c                   10.959(3)
_cell_angle_alpha                90
_cell_angle_beta                 105.24(3)
_cell_angle_gamma                90
_cell_volume                     4610.4
_exptl_crystal_colour            brown
_cell_formula_units_Z            8
loop_
_atom_site_label
_atom_site_type_symbol
_atom_site_fract_x
_atom_site_fract_y
_atom_site_fract_z
O1 O 0.54456(9) 0.1666(2) 0.0807(2)
N1 N 0.6912(1) 0.2277(2) -0.2129(2)
N2 N 0.3260(1) 0.0670(2) -0.1173(2)
C1 C 0.7431(1) 0.2018(2) -0.1774(3)
C2 C 0.7635(1) 0.1567(2) -0.0702(4)
C3 C 0.7293(1) 0.1392(2) 0.0050(3)
C4 C 0.6341(1) 0.1508(2) 0.0427(3)
C5 C 0.5810(1) 0.1783(2) 0.0037(3)
C6 C 0.5631(1) 0.2225(2) -0.1061(3)
C7 C 0.5998(1) 0.2376(2) -0.1768(3)
C8 C 0.6555(1) 0.2100(2) -0.1403(3)
C9 C 0.6730(1) 0.1661(2) -0.0294(3)
C10 C 0.3134(1) 0.0238(2) -0.2182(3)
C11 C 0.3530(2) -0.0017(2) -0.2801(3)
C12 C 0.4078(1) 0.0181(2) -0.2337(3)
C13 C 0.4796(1) 0.0910(2) -0.0764(3)
C14 C 0.4910(1) 0.1390(2) 0.0236(3)
C15 C 0.4488(1) 0.1634(2) 0.0799(3)
C16 C 0.3949(1) 0.1394(2) 0.0324(3)
C17 C 0.3808(1) 0.0896(2) -0.0724(3)
C18 C 0.4240(1) 0.0659(2) -0.1274(3)
H1 H 0.767(2) 0.213(2) -0.229(3)
H4 H 0.802(2) 0.141(2) -0.052(3)
H5 H 0.743(2) 0.110(2) 0.086(3)
H6 H 0.647(2) 0.126(2) 0.128(3)
H7 H 0.526(2) 0.243(2) -0.132(3)
H8 H 0.586(2) 0.264(2) -0.252(3)
H9 H 0.274(2) 0.013(2) -0.251(4)
H10 H 0.340(2) -0.029(2) -0.360(3)
H11 H 0.509(2) 0.080(2) -0.121(3)
H12 H 0.462(2) 0.196(2) 0.158(3)
H13 H 0.366(2) 0.155(2) 0.069(3)
O2 O 0.0831(1) 0.1581(2) 0.0483(3)
O3 O 0.1826(1) 0.0204(2) -0.1932(3)
O4 O 0.2717(1) 0.1735(2) 0.1222(3)
N3 N 0.2259(1) 0.0959(2) -0.0341(3)
N4 N 0.1769(1) 0.1643(2) 0.0853(3)
C19 C 0.1228(1) 0.0762(2) -0.0782(3)
C20 C 0.1789(1) 0.0619(2) -0.1072(3)
C21 C 0.2276(1) 0.1464(2) 0.0618(3)
C22 C 0.1254(1) 0.1363(2) 0.0223(3)
C23 C 0.0800(2) 0.1000(3) -0.1991(4)
C24 C 0.0968(2) 0.1685(3) -0.2608(5)
C25 C 0.1054(2) 0.0019(3) -0.0205(4)
C26 C 0.0957(6) -0.0606(6) -0.104(1)
H2 H 0.260(2) 0.087(2) -0.054(3)
H3 H 0.181(2) 0.201(2) 0.153(3)
H14 H 0.042(2) 0.106(2) -0.173(3)
H15 H 0.074(2) 0.053(2) -0.262(3)
H16 H 0.068(2) 0.180(2) -0.330(3)
H17 H 0.110(2) 0.209(2) -0.197(3)
H18 H 0.131(2) 0.159(2) -0.279(3)
H19 H 0.075(2) 0.014(2) 0.020(3)
H20 H 0.136(2) -0.012(2) 0.068(3)
H21 H 0.077(2) -0.101(2) -0.056(3)
H22 H 0.055(2) -0.044(2) -0.165(3)
H23? H 0.099(2) -0.086(2) -0.118(3)
loop_
_geom_bond_atom_site_label_1
_geom_bond_atom_site_label_2
_geom_bond_site_symmetry_1
_geom_bond_site_symmetry_2
O1 C5 1_555 1_555
O2 C22 1_555 1_555
O3 C20 1_555 1_555
O4 C21 1_555 1_555
N1 C1 1_555 1_555
N2 C10 1_555 1_555
N3 C20 1_555 1_555
N4 C21 1_555 1_555
C1 C2 1_555 1_555
C2 C3 1_555 1_555
C3 C9 1_555 1_555
C4 C5 1_555 1_555
C5 C6 1_555 1_555
C6 C7 1_555 1_555
C7 C8 1_555 1_555
C8 N1 1_555 1_555
C9 C4 1_555 1_555
C10 C11 1_555 1_555
C11 C12 1_555 1_555
C12 C18 1_555 1_555
C13 C14 1_555 1_555
C14 O1 1_555 1_555
C15 C14 1_555 1_555
C16 C15 1_555 1_555
C17 N2 1_555 1_555
C18 C13 1_555 1_555
C19 C20 1_555 1_555
C21 N3 1_555 1_555
C22 N4 1_555 1_555
C23 C19 1_555 1_555
C24 C23 1_555 1_555
C25 C19 1_555 1_555
C26 C25 1_555 1_555
H1 C1 1_555 1_555
H2 N3 1_555 1_555
H3 N4 1_555 1_555
H4 C2 1_555 1_555
H5 C3 1_555 1_555
H6 C4 1_555 1_555
H7 C6 1_555 1_555
H8 C7 1_555 1_555
H9 C10 1_555 1_555
H10 C11 1_555 1_555
H11 C13 1_555 1_555
H12 C15 1_555 1_555
H13 C16 1_555 1_555
H14 C23 1_555 1_555
H15 C23 1_555 1_555
H16 C24 1_555 1_555
H17 C24 1_555 1_555
H18 C24 1_555 1_555
H19 C25 1_555 1_555
H20 C25 1_555 1_555
H21 C26 1_555 1_555
H22 C26 1_555 1_555
C8 C9 1_555 1_555
C16 C17 1_555 1_555
C17 C18 1_555 1_555
C19 C22 1_555 1_555

#END
