
#######################################################################
#
#                 Cambridge Crystallographic Data Centre
#                                CCDC 
#
#######################################################################
#
# If this CIF has been generated from an entry in the Cambridge 
# Structural Database, then it will include bibliographic, chemical, 
# crystal, experimental, refinement or atomic coordinate data resulting 
# from the CCDC's data processing and validation procedures.
#
#######################################################################

data_JUBSAC
_chemical_formula_moiety         'C38 H27 Cl1 N2 O3'
_chemical_name_systematic        
"3'-Benzoyl-1,1''-dibenzyl-7-chlorodispiro[indole-3,1'-cyclopropane-2',3''-indole]-2,2''(1H,1''H)-dione unknown solvate"
_symmetry_cell_setting           monoclinic
_symmetry_space_group_name_H-M   'C 2/c'
_symmetry_Int_Tables_number      15
_space_group_name_Hall           '-C 2yn'
loop_
_symmetry_equiv_pos_site_id
_symmetry_equiv_pos_as_xyz
1 x,y,z
2 -x,y,1/2-z
3 1/2+x,1/2+y,z
4 1/2-x,1/2+y,1/2-z
5 -x,-y,-z
6 x,-y,1/2+z
7 1/2-x,1/2-y,-z
8 1/2+x,1/2-y,1/2+z
_cell_length_a                   32.422(7)
_cell_length_b                   10.444(2)
_cell_length_c                   22.801(5)
_cell_angle_alpha                90
_cell_angle_beta                 123.04(3)
_cell_angle_gamma                90
_cell_volume                     6472.24
_exptl_crystal_colour            colorless
_exptl_crystal_description       Prism
_chemical_melting_point          '195-197 deg.C'
_cell_formula_units_Z            8
loop_
_atom_site_label
_atom_site_type_symbol
_atom_site_fract_x
_atom_site_fract_y
_atom_site_fract_z
Cl1 Cl 0.24650(3) 0.35277(8) 0.32770(5)
O1 O 0.46641(8) 0.72746(19) 0.31066(11)
O2 O 0.48047(7) 0.64660(18) 0.52955(10)
O3 O 0.34790(7) 0.66039(17) 0.24944(9)
N1 N 0.45052(8) 0.8522(2) 0.49926(11)
N2 N 0.31470(8) 0.5350(2) 0.29706(11)
C1 C 0.44673(9) 0.6077(2) 0.38061(13)
H1 H 0.4735 0.5547 0.4191
C2 C 0.42979(9) 0.7154(2) 0.40649(13)
C3 C 0.39734(9) 0.5895(2) 0.37161(13)
C4 C 0.45206(9) 0.6255(2) 0.31899(14)
C5 C 0.44268(9) 0.5132(2) 0.27367(14)
C6 C 0.43957(10) 0.3894(3) 0.29454(15)
H2 H 0.4416 0.3762 0.3373
C7 C 0.43345(10) 0.2855(3) 0.25208(16)
H3 H 0.4317 0.2011 0.2662
C8 C 0.42998(12) 0.3049(3) 0.18951(17)
H4 H 0.4257 0.2338 0.1607
C9 C 0.43275(12) 0.4273(3) 0.16861(17)
H5 H 0.4301 0.4400 0.1254
C10 C 0.43931(11) 0.5312(3) 0.21042(15)
H6 H 0.4415 0.6150 0.1962
C11 C 0.45645(9) 0.7286(2) 0.48516(14)
C12 C 0.41313(9) 0.8486(2) 0.37891(13)
C13 C 0.42561(10) 0.9255(2) 0.43685(14)
C14 C 0.41479(11) 1.0545(3) 0.43095(16)
H7 H 0.4237 1.1045 0.4710
C15 C 0.39048(12) 1.1089(3) 0.36470(17)
H8 H 0.3818 1.1970 0.3589
C16 C 0.37882(11) 1.0356(3) 0.30692(16)
H9 H 0.3627 1.0747 0.2621
C17 C 0.39040(10) 0.9049(3) 0.31331(15)
H10 H 0.3828 0.8559 0.2735
C18 C 0.47291(10) 0.9041(3) 0.56969(14)
H11 H 0.4954 0.9747 0.5760
H12 H 0.4930 0.8363 0.6039
C19 C 0.43620(10) 0.9539(2) 0.58553(13)
C20 C 0.38702(10) 0.9210(3) 0.54590(15)
H13 H 0.3749 0.8690 0.5055
C21 C 0.35512(13) 0.9635(4) 0.56464(18)
H14 H 0.3213 0.9407 0.5368
C22 C 0.37196(15) 1.0382(4) 0.6231(2)
H15 H 0.3501 1.0660 0.6362
C23 C 0.42102(16) 1.0722(3) 0.6626(2)
H16 H 0.4329 1.1238 0.7031
C24 C 0.45326(12) 1.0321(3) 0.64400(16)
H17 H 0.4868 1.0578 0.6710
C25 C 0.35165(9) 0.6037(2) 0.29900(14)
C26 C 0.33319(10) 0.4666(2) 0.35981(14)
C27 C 0.38382(9) 0.4928(2) 0.40669(13)
C28 C 0.41076(11) 0.4299(3) 0.46995(15)
H18 H 0.4450 0.4458 0.5005
C29 C 0.38716(12) 0.3420(3) 0.48878(16)
H19 H 0.4054 0.2977 0.5321
C30 C 0.33712(12) 0.3200(3) 0.44402(17)
H20 H 0.3213 0.2612 0.4574
C31 C 0.30966(11) 0.3823(3) 0.38013(16)
C32 C 0.26651(9) 0.5231(3) 0.23112(15)
H21 H 0.2614 0.5982 0.2014
H22 H 0.2406 0.5248 0.2416
C33 C 0.26051(9) 0.4028(3) 0.19039(14)
C34 C 0.21396(11) 0.3455(3) 0.14918(15)
H23 H 0.1869 0.3791 0.1496
C35 C 0.20731(13) 0.2406(3) 0.10815(16)
H24 H 0.1756 0.2030 0.0804
C36 C 0.24602(14) 0.1895(3) 0.10681(16)
H25 H 0.2411 0.1174 0.0782
C37 C 0.29228(13) 0.2445(3) 0.14774(17)
H26 H 0.3192 0.2096 0.1474
C38 C 0.29939(11) 0.3503(3) 0.18917(17)
H27 H 0.3312 0.3872 0.2170
loop_
_geom_bond_atom_site_label_1
_geom_bond_atom_site_label_2
_geom_bond_site_symmetry_1
_geom_bond_site_symmetry_2
Cl1 C31 1_555 1_555
O1 C4 1_555 1_555
O2 C11 1_555 1_555
O3 C25 1_555 1_555
N1 C11 1_555 1_555
N2 C25 1_555 1_555
C1 H1 1_555 1_555
C2 C1 1_555 1_555
C3 C1 1_555 1_555
C4 C1 1_555 1_555
C5 C4 1_555 1_555
C6 C5 1_555 1_555
H2 C6 1_555 1_555
C7 C6 1_555 1_555
H3 C7 1_555 1_555
C8 C7 1_555 1_555
H4 C8 1_555 1_555
C9 C8 1_555 1_555
H5 C9 1_555 1_555
C10 C5 1_555 1_555
H6 C10 1_555 1_555
C11 C2 1_555 1_555
C12 C2 1_555 1_555
C13 N1 1_555 1_555
C14 C13 1_555 1_555
H7 C14 1_555 1_555
C15 C14 1_555 1_555
H8 C15 1_555 1_555
C16 C15 1_555 1_555
H9 C16 1_555 1_555
C17 C12 1_555 1_555
H10 C17 1_555 1_555
C18 N1 1_555 1_555
H11 C18 1_555 1_555
H12 C18 1_555 1_555
C19 C18 1_555 1_555
C20 C19 1_555 1_555
H13 C20 1_555 1_555
C21 C20 1_555 1_555
H14 C21 1_555 1_555
C22 C21 1_555 1_555
H15 C22 1_555 1_555
C23 C22 1_555 1_555
H16 C23 1_555 1_555
C24 C19 1_555 1_555
H17 C24 1_555 1_555
C25 C3 1_555 1_555
C26 N2 1_555 1_555
C27 C3 1_555 1_555
C28 C27 1_555 1_555
H18 C28 1_555 1_555
C29 C28 1_555 1_555
H19 C29 1_555 1_555
C30 C29 1_555 1_555
H20 C30 1_555 1_555
C31 C26 1_555 1_555
C32 N2 1_555 1_555
H21 C32 1_555 1_555
H22 C32 1_555 1_555
C33 C32 1_555 1_555
C34 C33 1_555 1_555
H23 C34 1_555 1_555
C35 C34 1_555 1_555
H24 C35 1_555 1_555
C36 C35 1_555 1_555
H25 C36 1_555 1_555
C37 C36 1_555 1_555
H26 C37 1_555 1_555
C38 C33 1_555 1_555
H27 C38 1_555 1_555
C2 C3 1_555 1_555
C9 C10 1_555 1_555
C12 C13 1_555 1_555
C16 C17 1_555 1_555
C23 C24 1_555 1_555
C26 C27 1_555 1_555
C30 C31 1_555 1_555
C37 C38 1_555 1_555

#END
