
#######################################################################
#
#                 Cambridge Crystallographic Data Centre
#                                CCDC 
#
#######################################################################
#
# If this CIF has been generated from an entry in the Cambridge 
# Structural Database, then it will include bibliographic, chemical, 
# crystal, experimental, refinement or atomic coordinate data resulting 
# from the CCDC's data processing and validation procedures.
#
#######################################################################

data_JUBSOQ
_chemical_formula_moiety         'C12 H9 N3 O1'
_chemical_name_systematic        5-(1-Naphthyl)-1,3,4-oxadiazol-2-amine
_symmetry_cell_setting           monoclinic
_symmetry_space_group_name_H-M   'C 2/c'
_symmetry_Int_Tables_number      15
_space_group_name_Hall           '-C 2yn'
loop_
_symmetry_equiv_pos_site_id
_symmetry_equiv_pos_as_xyz
1 x,y,z
2 -x,y,1/2-z
3 1/2+x,1/2+y,z
4 1/2-x,1/2+y,1/2-z
5 -x,-y,-z
6 x,-y,1/2+z
7 1/2-x,1/2-y,-z
8 1/2+x,1/2-y,1/2+z
_cell_length_a                   22.496(5)
_cell_length_b                   10.716(2)
_cell_length_c                   11.564(2)
_cell_angle_alpha                90
_cell_angle_beta                 99.96(3)
_cell_angle_gamma                90
_cell_volume                     2745.69
_cell_formula_units_Z            8
loop_
_atom_site_label
_atom_site_type_symbol
_atom_site_fract_x
_atom_site_fract_y
_atom_site_fract_z
O1 O 0.34887(15) 0.0377(3) -0.0717(3)
N1 N 0.3834(2) 0.0703(5) 0.1136(4)
N2 N 0.4322(2) 0.0412(5) 0.0568(4)
N3 N 0.4366(2) -0.0060(7) -0.1413(4)
H1 H 0.4752 -0.0147 -0.1300
H2 H 0.4159 -0.0158 -0.2105
C1 C 0.2725(2) 0.0871(4) 0.0459(4)
C2 C 0.2293(2) 0.0405(5) -0.0437(4)
H3 H 0.2414 0.0030 -0.1083
C3 C 0.1682(3) 0.0490(6) -0.0386(6)
H4 H 0.1400 0.0165 -0.0994
C4 C 0.1489(3) 0.1051(7) 0.0555(7)
H5 H 0.1079 0.1091 0.0584
C5 C 0.1719(3) 0.2185(6) 0.2423(7)
H6 H 0.1308 0.2228 0.2445
C6 C 0.2119(4) 0.2718(6) 0.3298(7)
H7 H 0.1981 0.3106 0.3922
C7 C 0.2738(4) 0.2682(5) 0.3261(6)
H8 H 0.3010 0.3072 0.3848
C8 C 0.2949(3) 0.2073(5) 0.2356(5)
H9 H 0.3361 0.2046 0.2345
C9 C 0.2537(2) 0.1485(4) 0.1441(4)
C10 C 0.1917(3) 0.1568(5) 0.1482(5)
C11 C 0.3358(2) 0.0691(5) 0.0368(4)
C12 C 0.4090(2) 0.0230(5) -0.0515(4)
loop_
_geom_bond_atom_site_label_1
_geom_bond_atom_site_label_2
_geom_bond_site_symmetry_1
_geom_bond_site_symmetry_2
O1 C11 1_555 1_555
N1 N2 1_555 1_555
N2 C12 1_555 1_555
N3 H1 1_555 1_555
H2 N3 1_555 1_555
C1 C2 1_555 1_555
C2 H3 1_555 1_555
C3 C2 1_555 1_555
H4 C3 1_555 1_555
C4 C3 1_555 1_555
H5 C4 1_555 1_555
C5 H6 1_555 1_555
C6 C5 1_555 1_555
H7 C6 1_555 1_555
C7 C6 1_555 1_555
H8 C7 1_555 1_555
C8 C7 1_555 1_555
H9 C8 1_555 1_555
C9 C1 1_555 1_555
C10 C4 1_555 1_555
C11 N1 1_555 1_555
C12 O1 1_555 1_555
N3 C12 1_555 1_555
C1 C11 1_555 1_555
C5 C10 1_555 1_555
C8 C9 1_555 1_555
C9 C10 1_555 1_555

#END
