
#######################################################################
#
#                 Cambridge Crystallographic Data Centre
#                                CCDC 
#
#######################################################################
#
# If this CIF has been generated from an entry in the Cambridge 
# Structural Database, then it will include bibliographic, chemical, 
# crystal, experimental, refinement or atomic coordinate data resulting 
# from the CCDC's data processing and validation procedures.
#
#######################################################################

data_JUCBAM
_chemical_formula_moiety         'C20 H17 B1 F2 I2 N2 O2'
_chemical_name_systematic        
"4-(5,5-difluoro-2,8-diiodo-1,3,7,9-tetramethyl-5H-4\l^5^,5\l^5^-dipyrrolo[1,2-c:2',1'-f][1,3,2]diazaborinin-10-yl)benzoic acid"
_symmetry_cell_setting           triclinic
_symmetry_space_group_name_H-M   'P -1'
_symmetry_Int_Tables_number      2
_space_group_name_Hall           '-P 1'
loop_
_symmetry_equiv_pos_site_id
_symmetry_equiv_pos_as_xyz
1 x,y,z
2 -x,-y,-z
_cell_length_a                   7.7470(19)
_cell_length_b                   10.414(3)
_cell_length_c                   14.007(3)
_cell_angle_alpha                91.746(4)
_cell_angle_beta                 105.965(4)
_cell_angle_gamma                91.149(5)
_cell_volume                     1085.48
_cell_formula_units_Z            2
loop_
_atom_site_label
_atom_site_type_symbol
_atom_site_fract_x
_atom_site_fract_y
_atom_site_fract_z
I1 I 0.57522(9) -0.17651(5) -0.39634(4)
I2 I 0.38967(6) 0.47208(4) 0.18043(3)
C1 C -0.2990(7) 0.4112(5) -0.4234(4)
C2 C -0.1383(7) 0.3492(5) -0.3641(4)
C3 C -0.1546(7) 0.2618(5) -0.2929(4)
H1 H -0.2695 0.2378 -0.2862
C4 C -0.0027(7) 0.2117(5) -0.2332(4)
H2 H -0.0126 0.1540 -0.1835
C5 C 0.1647(7) 0.2432(5) -0.2436(4)
C6 C 0.1801(8) 0.3271(6) -0.3160(4)
H3 H 0.2947 0.3482 -0.3245
C7 C 0.0290(8) 0.3792(6) -0.3751(4)
H4 H 0.0395 0.4370 -0.4245
C8 C 0.3323(7) 0.1967(5) -0.1743(4)
C9 C 0.3884(7) 0.2517(5) -0.0793(4)
C10 C 0.3151(7) 0.3472(5) -0.0290(4)
C11 C 0.1541(9) 0.4275(6) -0.0678(5)
H5 H 0.1388 0.4852 -0.0144
H6 H 0.0469 0.3713 -0.0922
H7 H 0.1713 0.4784 -0.1224
C12 C 0.4275(9) 0.3562(5) 0.0661(4)
C13 C 0.5706(8) 0.2723(5) 0.0747(4)
C14 C 0.7231(9) 0.2535(6) 0.1621(4)
H8 H 0.8011 0.1884 0.1457
H9 H 0.6783 0.2248 0.2171
H10 H 0.7914 0.3348 0.1816
C15 C 0.6568(8) -0.0281(5) -0.1953(5)
C16 C 0.8271(9) -0.0942(6) -0.1509(5)
H11 H 0.8824 -0.0582 -0.0837
H12 H 0.9097 -0.0817 -0.1919
H13 H 0.8016 -0.1863 -0.1478
C17 C 0.5374(9) -0.0486(6) -0.2888(5)
C18 C 0.3932(9) 0.0291(6) -0.2986(4)
C19 C 0.2294(11) 0.0275(8) -0.3857(5)
H14 H 0.2447 -0.0335 -0.4373
H15 H 0.2125 0.1136 -0.4125
H16 H 0.1240 0.0013 -0.3645
C20 C 0.4292(7) 0.1018(5) -0.2067(4)
N1 N 0.5917(6) 0.0625(4) -0.1459(3)
N2 N 0.5469(6) 0.2103(4) -0.0131(3)
B1 B 0.6822(8) 0.1180(6) -0.0399(5)
F1 F 0.8371(4) 0.1867(3) -0.0388(2)
F2 F 0.7213(5) 0.0202(3) 0.0261(2)
O1 O -0.2716(5) 0.4853(4) -0.4906(3)
H17 H -0.3668 0.5223 -0.5209
O2 O -0.4472(5) 0.3942(4) -0.4092(3)
loop_
_geom_bond_atom_site_label_1
_geom_bond_atom_site_label_2
_geom_bond_site_symmetry_1
_geom_bond_site_symmetry_2
I1 C17 1_555 1_555
I2 C12 1_555 1_555
C1 C2 1_555 1_555
C2 C3 1_555 1_555
C3 H1 1_555 1_555
C4 C3 1_555 1_555
H2 C4 1_555 1_555
C5 C4 1_555 1_555
C6 C5 1_555 1_555
H3 C6 1_555 1_555
C7 C2 1_555 1_555
H4 C7 1_555 1_555
C8 C5 1_555 1_555
C9 C8 1_555 1_555
C10 C9 1_555 1_555
C11 C10 1_555 1_555
H5 C11 1_555 1_555
H6 C11 1_555 1_555
H7 C11 1_555 1_555
C12 C10 1_555 1_555
C13 C12 1_555 1_555
C14 C13 1_555 1_555
H8 C14 1_555 1_555
H9 C14 1_555 1_555
H10 C14 1_555 1_555
C15 C16 1_555 1_555
C16 H11 1_555 1_555
H12 C16 1_555 1_555
H13 C16 1_555 1_555
C17 C15 1_555 1_555
C18 C17 1_555 1_555
C19 C18 1_555 1_555
H14 C19 1_555 1_555
H15 C19 1_555 1_555
H16 C19 1_555 1_555
C20 C8 1_555 1_555
N1 C15 1_555 1_555
N2 C9 1_555 1_555
B1 N1 1_555 1_555
F1 B1 1_555 1_555
F2 B1 1_555 1_555
O1 C1 1_555 1_555
H17 O1 1_555 1_555
O2 C1 1_555 1_555
C6 C7 1_555 1_555
C13 N2 1_555 1_555
C18 C20 1_555 1_555
C20 N1 1_555 1_555
N2 B1 1_555 1_555

#END
