
#######################################################################
#
#                 Cambridge Crystallographic Data Centre
#                                CCDC 
#
#######################################################################
#
# If this CIF has been generated from an entry in the Cambridge 
# Structural Database, then it will include bibliographic, chemical, 
# crystal, experimental, refinement or atomic coordinate data resulting 
# from the CCDC's data processing and validation procedures.
#
#######################################################################

data_JUCDOC
_chemical_formula_moiety         'C46 H57 N5 O3 S1 Si1,C3 H6 O1'
_chemical_name_systematic        
'(4-(2-(5-(2,2-bis(4-(diethylamino)phenyl)vinyl)-4-(2-((t-butyl(dimethyl)silyl)oxy)ethoxy)-2-thienyl)vinyl)-3-cyano-5,5-dimethylfuran-2(5H)-ylidene)malononitrile acetone solvate'
_symmetry_cell_setting           triclinic
_symmetry_space_group_name_H-M   'P -1'
_symmetry_Int_Tables_number      2
_space_group_name_Hall           '-P 1'
loop_
_symmetry_equiv_pos_site_id
_symmetry_equiv_pos_as_xyz
1 x,y,z
2 -x,-y,-z
_cell_length_a                   12.5072(17)
_cell_length_b                   13.890(2)
_cell_length_c                   15.223(2)
_cell_angle_alpha                87.986(7)
_cell_angle_beta                 75.655(5)
_cell_angle_gamma                71.874(5)
_cell_volume                     2432.49
_exptl_crystal_colour            black
_exptl_crystal_description       Prism
_cell_formula_units_Z            2
loop_
_atom_site_label
_atom_site_type_symbol
_atom_site_fract_x
_atom_site_fract_y
_atom_site_fract_z
S1 S 0.63060(3) 0.39542(3) 0.19593(2)
Si1 Si 0.92542(5) -0.08576(4) 0.35794(4)
O1 O 0.15269(9) 0.56499(8) 0.02145(8)
O2 O 0.78411(10) 0.10879(8) 0.20538(8)
O3 O 0.82681(12) -0.07495(11) 0.30041(10)
N1 N 1.28207(11) 0.31432(10) 0.37993(9)
N2 N 0.51332(12) 0.75431(10) 0.37866(10)
N3 N 0.38441(14) 0.74887(12) 0.09892(12)
N4 N 0.13680(15) 0.91242(12) 0.03356(12)
N5 N -0.07951(15) 0.75049(13) -0.03585(14)
C1 C 0.73271(12) 0.28784(11) 0.21963(10)
C2 C 0.71222(13) 0.20102(11) 0.19236(10)
C3 C 0.61787(13) 0.22141(12) 0.15342(10)
H1 H 0.5932 0.1705 0.1320
C4 C 0.56440(12) 0.32461(11) 0.14963(9)
C5 C 0.82929(12) 0.28511(11) 0.25479(10)
H2 H 0.8840 0.2199 0.2549
C6 C 0.85365(12) 0.36387(11) 0.28844(10)
C7 C 0.96445(12) 0.34995(11) 0.31122(10)
C8 C 1.06290(12) 0.26509(11) 0.28011(10)
H3 H 1.0581 0.2147 0.2420
C9 C 1.16599(12) 0.25268(11) 0.30306(10)
H4 H 1.2298 0.1935 0.2814
C10 C 1.17895(12) 0.32592(11) 0.35804(10)
C11 C 1.08083(13) 0.41147(12) 0.38886(11)
H5 H 1.0857 0.4627 0.4261
C12 C 0.97785(12) 0.42225(12) 0.36603(10)
H6 H 0.9135 0.4809 0.3883
C13 C 0.76504(12) 0.46584(11) 0.30786(10)
C14 C 0.65910(13) 0.47853(11) 0.37114(10)
H7 H 0.6438 0.4207 0.3998
C15 C 0.57579(13) 0.57218(11) 0.39349(10)
H8 H 0.5047 0.5772 0.4367
C16 C 0.59423(13) 0.66051(11) 0.35336(11)
C17 C 0.70101(14) 0.64759(12) 0.28895(11)
H9 H 0.7164 0.7050 0.2594
C18 C 0.78364(13) 0.55330(12) 0.26788(11)
H10 H 0.8551 0.5478 0.2250
C19 C 1.29369(14) 0.38904(13) 0.43859(11)
H11 H 1.3568 0.3557 0.4685
H12 H 1.2207 0.4143 0.4866
C20 C 1.32001(17) 0.47848(15) 0.38813(15)
H13 H 1.3957 0.4549 0.3442
H14 H 1.3216 0.5282 0.4315
H15 H 1.2597 0.5101 0.3561
C21 C 1.38805(13) 0.23432(13) 0.33882(11)
H16 H 1.4551 0.2596 0.3336
H17 H 1.3860 0.2175 0.2767
C22 C 1.4059(2) 0.13888(16) 0.39200(19)
H18 H 1.4025 0.1557 0.4548
H19 H 1.4819 0.0902 0.3643
H20 H 1.3447 0.1089 0.3913
C23 C 0.53484(17) 0.84724(13) 0.34277(13)
H21 H 0.6176 0.8404 0.3363
H22 H 0.4875 0.9044 0.3869
C24 C 0.5066(2) 0.87169(17) 0.25209(16)
H23 H 0.5589 0.8189 0.2065
H24 H 0.5167 0.9374 0.2340
H25 H 0.4260 0.8747 0.2570
C25 C 0.39378(14) 0.76414(13) 0.42837(14)
H26 H 0.3750 0.7032 0.4142
H27 H 0.3403 0.8236 0.4070
C26 C 0.37282(17) 0.77647(15) 0.53010(14)
H28 H 0.4252 0.7179 0.5520
H29 H 0.2921 0.7810 0.5593
H30 H 0.3875 0.8385 0.5450
C27 C 0.75591(15) 0.02229(12) 0.18146(13)
H31 H 0.7598 0.0201 0.1158
H32 H 0.6764 0.0256 0.2158
C28 C 0.84349(17) -0.07025(13) 0.20495(14)
H33 H 0.8353 -0.1319 0.1803
H34 H 0.9229 -0.0679 0.1769
C29 C 1.0292(3) -0.0172(2) 0.3021(2)
H35 H 1.0566 -0.0365 0.2371
H36 H 1.0955 -0.0352 0.3295
H37 H 0.9899 0.0561 0.3102
C30 C 0.8462(3) -0.0282(2) 0.4720(2)
H38 H 0.8139 0.0453 0.4681
H39 H 0.8996 -0.0426 0.5117
H40 H 0.7830 -0.0567 0.4968
C31 C 1.00582(16) -0.22312(14) 0.36504(12)
C32 C 0.9150(3) -0.27818(18) 0.4003(2)
H41 H 0.8633 -0.2679 0.3595
H42 H 0.8694 -0.2508 0.4613
H43 H 0.9546 -0.3509 0.4026
C33 C 1.0802(3) -0.2690(3) 0.27312(19)
H44 H 1.1379 -0.2339 0.2506
H45 H 1.0311 -0.2618 0.2307
H46 H 1.1200 -0.3411 0.2784
C34 C 1.0797(2) -0.23639(18) 0.43388(17)
H47 H 1.1231 -0.3083 0.4354
H48 H 1.0291 -0.2119 0.4942
H49 H 1.1344 -0.1975 0.4160
C35 C 0.46485(13) 0.37087(12) 0.11548(10)
H50 H 0.4270 0.3280 0.0978
C36 C 0.42032(13) 0.47283(12) 0.10652(10)
H51 H 0.4600 0.5144 0.1239
C37 C 0.23849(13) 0.47636(12) 0.04853(10)
C38 C 0.32137(12) 0.52308(12) 0.07405(10)
C39 C 0.28203(12) 0.62602(11) 0.06319(10)
C40 C 0.17803(12) 0.64976(11) 0.03163(10)
C41 C 0.29110(15) 0.40283(12) -0.03375(11)
H52 H 0.2300 0.3818 -0.0494
H53 H 0.3500 0.3432 -0.0198
H54 H 0.3272 0.4361 -0.0852
C42 C 0.17103(16) 0.43387(15) 0.12932(12)
H55 H 0.1391 0.4842 0.1802
H56 H 0.2231 0.3720 0.1472
H57 H 0.1074 0.4180 0.1125
C43 C 0.33648(13) 0.69645(12) 0.08260(11)
C44 C 0.10593(13) 0.74103(12) 0.01314(11)
C45 C 0.12543(14) 0.83479(13) 0.02434(11)
C46 C 0.00397(14) 0.74506(13) -0.01489(12)
O4 O 0.40940(14) 0.12821(14) 0.12879(11)
C47 C 0.37640(19) 0.10634(18) -0.01366(15)
H58 H 0.3038 0.1506 -0.0254
H59 H 0.3978 0.0402 -0.0452
H60 H 0.4382 0.1371 -0.0357
C48 C 0.36017(15) 0.09274(13) 0.08597(13)
C49 C 0.28152(18) 0.03438(15) 0.12966(16)
H61 H 0.2709 0.0378 0.1956
H62 H 0.3156 -0.0365 0.1070
H63 H 0.2061 0.0633 0.1152
loop_
_geom_bond_atom_site_label_1
_geom_bond_atom_site_label_2
_geom_bond_site_symmetry_1
_geom_bond_site_symmetry_2
S1 C1 1_555 1_555
Si1 O3 1_555 1_555
O1 C37 1_555 1_555
O2 C2 1_555 1_555
O3 C28 1_555 1_555
N1 C10 1_555 1_555
N2 C16 1_555 1_555
N3 C43 1_555 1_555
N4 C45 1_555 1_555
N5 C46 1_555 1_555
C1 C2 1_555 1_555
C2 C3 1_555 1_555
C3 H1 1_555 1_555
C4 S1 1_555 1_555
C5 C1 1_555 1_555
H2 C5 1_555 1_555
C6 C5 1_555 1_555
C7 C6 1_555 1_555
C8 C7 1_555 1_555
H3 C8 1_555 1_555
C9 C8 1_555 1_555
H4 C9 1_555 1_555
C10 C9 1_555 1_555
C11 C10 1_555 1_555
H5 C11 1_555 1_555
C12 C7 1_555 1_555
H6 C12 1_555 1_555
C13 C6 1_555 1_555
C14 C13 1_555 1_555
H7 C14 1_555 1_555
C15 C14 1_555 1_555
H8 C15 1_555 1_555
C16 C15 1_555 1_555
C17 C16 1_555 1_555
H9 C17 1_555 1_555
C18 C13 1_555 1_555
H10 C18 1_555 1_555
C19 N1 1_555 1_555
H11 C19 1_555 1_555
H12 C19 1_555 1_555
C20 C19 1_555 1_555
H13 C20 1_555 1_555
H14 C20 1_555 1_555
H15 C20 1_555 1_555
C21 N1 1_555 1_555
H16 C21 1_555 1_555
H17 C21 1_555 1_555
C22 C21 1_555 1_555
H18 C22 1_555 1_555
H19 C22 1_555 1_555
H20 C22 1_555 1_555
C23 N2 1_555 1_555
H21 C23 1_555 1_555
H22 C23 1_555 1_555
C24 C23 1_555 1_555
H23 C24 1_555 1_555
H24 C24 1_555 1_555
H25 C24 1_555 1_555
C25 N2 1_555 1_555
H26 C25 1_555 1_555
H27 C25 1_555 1_555
C26 C25 1_555 1_555
H28 C26 1_555 1_555
H29 C26 1_555 1_555
H30 C26 1_555 1_555
C27 O2 1_555 1_555
H31 C27 1_555 1_555
H32 C27 1_555 1_555
C28 C27 1_555 1_555
H33 C28 1_555 1_555
H34 C28 1_555 1_555
C29 Si1 1_555 1_555
H35 C29 1_555 1_555
H36 C29 1_555 1_555
H37 C29 1_555 1_555
C30 Si1 1_555 1_555
H38 C30 1_555 1_555
H39 C30 1_555 1_555
H40 C30 1_555 1_555
C31 Si1 1_555 1_555
C32 C31 1_555 1_555
H41 C32 1_555 1_555
H42 C32 1_555 1_555
H43 C32 1_555 1_555
C33 C31 1_555 1_555
H44 C33 1_555 1_555
H45 C33 1_555 1_555
H46 C33 1_555 1_555
C34 C31 1_555 1_555
H47 C34 1_555 1_555
H48 C34 1_555 1_555
H49 C34 1_555 1_555
C35 C4 1_555 1_555
H50 C35 1_555 1_555
C36 C35 1_555 1_555
H51 C36 1_555 1_555
C37 C38 1_555 1_555
C38 C36 1_555 1_555
C39 C38 1_555 1_555
C40 O1 1_555 1_555
C41 C37 1_555 1_555
H52 C41 1_555 1_555
H53 C41 1_555 1_555
H54 C41 1_555 1_555
C42 C37 1_555 1_555
H55 C42 1_555 1_555
H56 C42 1_555 1_555
H57 C42 1_555 1_555
C43 C39 1_555 1_555
C44 C40 1_555 1_555
C45 C44 1_555 1_555
C46 C44 1_555 1_555
O4 C48 1_555 1_555
C47 H58 1_555 1_555
H59 C47 1_555 1_555
H60 C47 1_555 1_555
C48 C47 1_555 1_555
C49 C48 1_555 1_555
H61 C49 1_555 1_555
H62 C49 1_555 1_555
H63 C49 1_555 1_555
C3 C4 1_555 1_555
C11 C12 1_555 1_555
C17 C18 1_555 1_555
C39 C40 1_555 1_555

#END
