
#######################################################################
#
#                 Cambridge Crystallographic Data Centre
#                                CCDC 
#
#######################################################################
#
# If this CIF has been generated from an entry in the Cambridge 
# Structural Database, then it will include bibliographic, chemical, 
# crystal, experimental, refinement or atomic coordinate data resulting 
# from the CCDC's data processing and validation procedures.
#
#######################################################################

data_JUCPOM
_chemical_formula_moiety         '0.52(C38 H68 O2),0.48(C39 H70 O2)'
_chemical_name_systematic        'Cholesteryl undecanoate cholesteryl laurate'
_symmetry_cell_setting           monoclinic
_symmetry_space_group_name_H-M   'P 21'
_symmetry_Int_Tables_number      4
_space_group_name_Hall           'P 2yb'
loop_
_symmetry_equiv_pos_site_id
_symmetry_equiv_pos_as_xyz
1 x,y,z
2 -x,1/2+y,-z
_cell_length_a                   13.005(2)
_cell_length_b                   9.005(1)
_cell_length_c                   31.421(3)
_cell_angle_alpha                90
_cell_angle_beta                 90.82(1)
_cell_angle_gamma                90
_cell_volume                     3679.34
_chemical_melting_point          87.7-88.2deg.C
_cell_formula_units_Z            4
loop_
_atom_site_label
_atom_site_type_symbol
_atom_site_fract_x
_atom_site_fract_y
_atom_site_fract_z
C1 C -0.4844 0.2257 0.1616
C2 C -0.5428 0.1844 0.1217
C3 C -0.5165 0.0278 0.1085
C4 C -0.5403 -0.0801 0.1429
C5 C -0.4885 -0.0380 0.1844
C6 C -0.4346 -0.1389 0.2065
C7 C -0.3797 -0.1100 0.2482
C8 C -0.4120 0.0358 0.2685
C9 C -0.4223 0.1578 0.2355
C10 C -0.5018 0.1215 0.1999
C11 C -0.4390 0.3125 0.2558
C12 C -0.3611 0.3520 0.2912
C13 C -0.3565 0.2266 0.3261
C14 C -0.3340 0.0814 0.3034
C15 C -0.3091 -0.0264 0.3384
C16 C -0.2572 0.0683 0.3714
C17 C -0.2668 0.2343 0.3570
C18 C -0.4586 0.2248 0.3502
C19 C -0.6118 0.1378 0.2160
C20 C -0.2702 0.3492 0.3948
C21 C -0.2846 0.5125 0.3799
C22 C -0.1665 0.3213 0.4200
C23 C -0.1717 0.3822 0.4662
C24 C -0.0678 0.3485 0.4925
C25 C -0.0763 0.4332 0.5315
C26 C -0.1669 0.4193 0.5519
C27 C 0.0210 0.4094 0.5465
C28 C -0.5515 0.0301 0.0334
C29 C -0.6205 -0.0296 -0.0015
C30 C -0.6074 0.0392 -0.0444
C31 C -0.6839 -0.0176 -0.0769
C32 C -0.6796 0.0577 -0.1197
C33 C -0.7674 0.0068 -0.1487
C34 C -0.7736 0.0898 -0.1913
C35 C -0.8697 0.0523 -0.2169
C36 C -0.8801 0.1417 -0.2584
C37 C -0.9740 0.0921 -0.2847
C38 C -0.9906 0.2028 -0.3233
C39 C -1.0737 0.1449 -0.3521
O1 O -0.5782 -0.0190 0.0715
O2 O -0.4801 0.1179 0.0281
C40 C -0.2810 0.0984 -0.0485
C41 C -0.3260 0.0742 -0.0930
C42 C -0.2424 0.0803 -0.1250
C43 C -0.1613 -0.0401 -0.1158
C44 C -0.1206 -0.0273 -0.0712
C45 C -0.0182 -0.0249 -0.0638
C46 C 0.0311 -0.0149 -0.0213
C47 C -0.0419 -0.0388 0.0159
C48 C -0.1445 0.0390 0.0062
C49 C -0.1979 -0.0169 -0.0351
C50 C -0.2169 0.0362 0.0446
C51 C -0.1655 0.0891 0.0864
C52 C -0.0664 0.0029 0.0963
C53 C 0.0021 0.0191 0.0569
C54 C 0.1073 -0.0405 0.0730
C55 C 0.1142 0.0124 0.1187
C56 C 0.0053 0.0684 0.1313
C57 C -0.0899 -0.1625 0.1066
C58 C -0.2482 -0.1711 -0.0299
C59 C -0.0180 0.0429 0.1786
C60 C -0.1275 0.0817 0.1906
C61 C 0.0590 0.1284 0.2066
C62 C 0.0552 0.0929 0.2528
C63 C 0.1359 0.1807 0.2785
C64 C 0.1467 0.1351 0.3260
C65 C 0.2338 0.2183 0.3443
C66 C 0.0536 0.1842 0.3487
C67 C -0.2630 0.1350 -0.1990
C68 C -0.3200 0.0957 -0.2380
C69 C -0.3118 0.2063 -0.2739
C70 C -0.3732 0.1616 -0.3130
C71 C -0.3702 0.2740 -0.3494
C72 C -0.4369 0.2163 -0.3885
C73 C -0.4343 0.3403 -0.4241
C74 C -0.5121 0.2868 -0.4599
C75 C -0.5197 0.4090 -0.4760
C76 C -0.6180 0.3403 -0.5170
C77 C -0.6596 0.4282 -0.5262
O3 O -0.2889 0.0527 -0.1667
O4 O -0.1937 0.2218 -0.1958
C78? C -0.7742 0.4188 -0.5560
loop_
_geom_bond_atom_site_label_1
_geom_bond_atom_site_label_2
_geom_bond_site_symmetry_1
_geom_bond_site_symmetry_2
C1 C2 1_555 1_555
C2 C3 1_555 1_555
C3 C4 1_555 1_555
C4 C5 1_555 1_555
C5 C6 1_555 1_555
C6 C7 1_555 1_555
C7 C8 1_555 1_555
C8 C9 1_555 1_555
C9 C10 1_555 1_555
C10 C1 1_555 1_555
C11 C9 1_555 1_555
C12 C11 1_555 1_555
C13 C12 1_555 1_555
C14 C8 1_555 1_555
C15 C14 1_555 1_555
C16 C15 1_555 1_555
C17 C13 1_555 1_555
C18 C13 1_555 1_555
C19 C10 1_555 1_555
C20 C17 1_555 1_555
C21 C20 1_555 1_555
C22 C20 1_555 1_555
C23 C22 1_555 1_555
C24 C23 1_555 1_555
C25 C24 1_555 1_555
C26 C25 1_555 1_555
C27 C25 1_555 1_555
C28 C29 1_555 1_555
C29 C30 1_555 1_555
C30 C31 1_555 1_555
C31 C32 1_555 1_555
C32 C33 1_555 1_555
C33 C34 1_555 1_555
C34 C35 1_555 1_555
C35 C36 1_555 1_555
C36 C37 1_555 1_555
C37 C38 1_555 1_555
C38 C39 1_555 1_555
O1 C3 1_555 1_555
O2 C28 1_555 1_555
C40 C41 1_555 1_555
C41 C42 1_555 1_555
C42 C43 1_555 1_555
C43 C44 1_555 1_555
C44 C45 1_555 1_555
C45 C46 1_555 1_555
C46 C47 1_555 1_555
C47 C48 1_555 1_555
C48 C49 1_555 1_555
C49 C40 1_555 1_555
C50 C48 1_555 1_555
C51 C50 1_555 1_555
C52 C51 1_555 1_555
C53 C47 1_555 1_555
C54 C53 1_555 1_555
C55 C54 1_555 1_555
C56 C52 1_555 1_555
C57 C52 1_555 1_555
C58 C49 1_555 1_555
C59 C56 1_555 1_555
C60 C59 1_555 1_555
C61 C59 1_555 1_555
C62 C61 1_555 1_555
C63 C62 1_555 1_555
C64 C63 1_555 1_555
C65 C64 1_555 1_555
C66 C64 1_555 1_555
C67 C68 1_555 1_555
C68 C69 1_555 1_555
C69 C70 1_555 1_555
C70 C71 1_555 1_555
C71 C72 1_555 1_555
C72 C73 1_555 1_555
C73 C74 1_555 1_555
C74 C75 1_555 1_555
C75 C76 1_555 1_555
C76 C77 1_555 1_555
O3 C42 1_555 1_555
O4 C67 1_555 1_555
C5 C10 1_555 1_555
C13 C14 1_555 1_555
C16 C17 1_555 1_555
C28 O1 1_555 1_555
C44 C49 1_555 1_555
C52 C53 1_555 1_555
C55 C56 1_555 1_555
C67 O3 1_555 1_555

#END
