
#######################################################################
#
#                 Cambridge Crystallographic Data Centre
#                                CCDC 
#
#######################################################################
#
# If this CIF has been generated from an entry in the Cambridge 
# Structural Database, then it will include bibliographic, chemical, 
# crystal, experimental, refinement or atomic coordinate data resulting 
# from the CCDC's data processing and validation procedures.
#
#######################################################################

data_JUCPEE
_chemical_formula_moiety         'C6 H3 Cl1 N10 O9'
_chemical_name_systematic        
N-(2,2,2-Trinitroethyl)-3-amino-3'-chloro-4,4'-azoxyfurazan
_symmetry_cell_setting           orthorhombic
_symmetry_space_group_name_H-M   'P b c a'
_symmetry_Int_Tables_number      61
_space_group_name_Hall           '-P 2ac 2ab'
loop_
_symmetry_equiv_pos_site_id
_symmetry_equiv_pos_as_xyz
1 x,y,z
2 1/2-x,-y,1/2+z
3 -x,1/2+y,1/2-z
4 1/2+x,1/2-y,-z
5 -x,-y,-z
6 1/2+x,y,1/2-z
7 x,1/2-y,1/2+z
8 1/2-x,1/2+y,z
_cell_length_a                   11.3577(6)
_cell_length_b                   9.9015(6)
_cell_length_c                   24.7060(14)
_cell_angle_alpha                90
_cell_angle_beta                 90
_cell_angle_gamma                90
_cell_volume                     2778.39
_cell_formula_units_Z            8
loop_
_atom_site_label
_atom_site_type_symbol
_atom_site_fract_x
_atom_site_fract_y
_atom_site_fract_z
C1 C 0.3865(2) 0.3686(2) 0.26792(9)
C2 C 0.4751(2) 0.4602(2) 0.28653(9)
C3 C 0.62674(19) 0.5532(2) 0.34501(9)
H1 H 0.6405 0.6085 0.3122
H2 H 0.6994 0.5011 0.3524
C4 C 0.6013(2) 0.6464(2) 0.39295(9)
C5 C 0.3920(2) 0.0781(2) 0.41941(10)
C6 C 0.3433(2) 0.1145(2) 0.36812(9)
Cl1 Cl 0.50330(6) 0.15461(7) 0.45263(3)
N1 N 0.33688(16) 0.2527(2) 0.29419(7)
N2 N 0.38543(16) 0.22636(19) 0.33988(8)
N3 N 0.35186(18) 0.4006(2) 0.21959(8)
N4 N 0.49299(17) 0.5490(2) 0.24813(8)
N5 N 0.53135(17) 0.46117(19) 0.33502(8)
H3 H 0.5092 0.4048 0.3606
N6 N 0.61955(18) 0.5750(2) 0.44705(8)
N7 N 0.47579(18) 0.6982(2) 0.39195(8)
N8 N 0.68258(18) 0.7671(2) 0.39299(8)
N9 N 0.33882(19) -0.0270(2) 0.43853(9)
N10 N 0.25995(18) 0.0287(2) 0.35574(8)
O1 O 0.25705(14) 0.18956(19) 0.27092(7)
O2 O 0.41605(16) 0.51226(18) 0.20635(6)
O3 O 0.58554(19) 0.45865(18) 0.44868(7)
O4 O 0.66401(18) 0.6395(2) 0.48328(7)
O5 O 0.44937(15) 0.75620(18) 0.35008(7)
O6 O 0.41387(15) 0.67787(18) 0.43096(7)
O7 O 0.64385(17) 0.87501(18) 0.40831(8)
O8 O 0.78241(15) 0.74354(18) 0.37777(8)
O9 O 0.25539(16) -0.05900(19) 0.39951(7)
loop_
_geom_bond_atom_site_label_1
_geom_bond_atom_site_label_2
_geom_bond_site_symmetry_1
_geom_bond_site_symmetry_2
C1 C2 1_555 1_555
C2 N4 1_555 1_555
C3 H1 1_555 1_555
H2 C3 1_555 1_555
C4 C3 1_555 1_555
C5 C6 1_555 1_555
C6 N2 1_555 1_555
Cl1 C5 1_555 1_555
N1 C1 1_555 1_555
N2 N1 1_555 1_555
N3 C1 1_555 1_555
N4 O2 1_555 1_555
N5 C2 1_555 1_555
H3 N5 1_555 1_555
N6 C4 1_555 1_555
N7 C4 1_555 1_555
N8 C4 1_555 1_555
N9 C5 1_555 1_555
N10 C6 1_555 1_555
O1 N1 1_555 1_555
O2 N3 1_555 1_555
O3 N6 1_555 1_555
O4 N6 1_555 1_555
O5 N7 1_555 1_555
O6 N7 1_555 1_555
O7 N8 1_555 1_555
O8 N8 1_555 1_555
O9 N9 1_555 1_555
C3 N5 1_555 1_555
N10 O9 1_555 1_555

#END
