
#######################################################################
#
#                 Cambridge Crystallographic Data Centre
#                                CCDC 
#
#######################################################################
#
# If this CIF has been generated from an entry in the Cambridge 
# Structural Database, then it will include bibliographic, chemical, 
# crystal, experimental, refinement or atomic coordinate data resulting 
# from the CCDC's data processing and validation procedures.
#
#######################################################################

data_JUCQAB
_chemical_formula_moiety         'C18 H19 N1 O3'
_chemical_name_systematic        
3-(4-(Dimethylamino)phenyl)-3-hydroxy-1-(2-hydroxy-4-methylphenyl)prop-2-en-1-one
_symmetry_cell_setting           monoclinic
_symmetry_space_group_name_H-M   'P 21/n'
_symmetry_Int_Tables_number      14
_space_group_name_Hall           '-P 2yn'
loop_
_symmetry_equiv_pos_site_id
_symmetry_equiv_pos_as_xyz
1 x,y,z
2 1/2-x,1/2+y,1/2-z
3 -x,-y,-z
4 1/2+x,1/2-y,1/2+z
_cell_length_a                   11.795(2)
_cell_length_b                   12.023(2)
_cell_length_c                   12.097(2)
_cell_angle_alpha                90
_cell_angle_beta                 115.79(3)
_cell_angle_gamma                90
_cell_volume                     1544.62
_exptl_crystal_colour            brown
_exptl_crystal_description       block
_cell_formula_units_Z            4
loop_
_atom_site_label
_atom_site_type_symbol
_atom_site_fract_x
_atom_site_fract_y
_atom_site_fract_z
O1 O 0.95475(11) 0.85920(11) 1.23929(9)
H1 H 0.9682 0.8878 1.1846
O2 O 0.90601(11) 0.91559(10) 1.02032(9)
O3 O 0.86813(12) 0.97100(12) 0.80748(10)
H2 H 0.9030 0.9682 0.8827
N1 N 0.49198(15) 0.91021(13) 0.24770(11)
C1 C 0.84359(15) 0.80509(13) 1.18939(13)
C2 C 0.80509(16) 0.75227(14) 1.26980(13)
H3 H 0.8551 0.7584 1.3538
C3 C 0.69582(17) 0.69144(14) 1.22921(14)
C4 C 0.62059(17) 0.68420(15) 1.10256(15)
H4 H 0.5463 0.6433 1.0728
C5 C 0.65611(15) 0.73737(14) 1.02190(13)
H5 H 0.6044 0.7320 0.9382
C6 C 0.76721(14) 0.79922(12) 1.06133(12)
C7 C 0.80490(14) 0.85779(12) 0.97514(13)
C8 C 0.73240(15) 0.85141(13) 0.84633(13)
H6 H 0.6605 0.8073 0.8151
C9 C 0.76541(14) 0.90875(13) 0.76579(13)
C10 C 0.69480(15) 0.90720(13) 0.63251(13)
C11 C 0.58242(16) 0.84886(14) 0.57250(13)
H7 H 0.5514 0.8084 0.6189
C12 C 0.51627(17) 0.84916(15) 0.44754(14)
H8 H 0.4415 0.8092 0.4111
C13 C 0.55904(16) 0.90872(13) 0.37272(13)
C14 C 0.67274(18) 0.96693(15) 0.43270(14)
H9 H 0.7044 1.0068 0.3864
C15 C 0.73830(16) 0.96624(15) 0.55838(14)
H10 H 0.8133 1.0058 0.5953
C16 C 0.5351(2) 0.97206(17) 0.17091(15)
H11 H 0.5501 1.0480 0.1981
H12 H 0.4722 0.9695 0.0873
H13 H 0.6118 0.9398 0.1763
C17 C 0.3776(2) 0.84550(18) 0.18638(16)
H14 H 0.3979 0.7677 0.1959
H15 H 0.3383 0.8640 0.1006
H16 H 0.3210 0.8620 0.2220
C18 C 0.6585(2) 0.63277(17) 1.31892(17)
H17 H 0.7130 0.5702 1.3539
H18 H 0.5730 0.6075 1.2768
H19 H 0.6658 0.6834 1.3831
loop_
_geom_bond_atom_site_label_1
_geom_bond_atom_site_label_2
_geom_bond_site_symmetry_1
_geom_bond_site_symmetry_2
O1 H1 1_555 1_555
O2 C7 1_555 1_555
O3 H2 1_555 1_555
N1 C13 1_555 1_555
C1 O1 1_555 1_555
C2 C1 1_555 1_555
H3 C2 1_555 1_555
C3 C2 1_555 1_555
C4 C3 1_555 1_555
H4 C4 1_555 1_555
C5 C4 1_555 1_555
H5 C5 1_555 1_555
C6 C1 1_555 1_555
C7 C6 1_555 1_555
C8 C7 1_555 1_555
H6 C8 1_555 1_555
C9 O3 1_555 1_555
C10 C9 1_555 1_555
C11 C10 1_555 1_555
H7 C11 1_555 1_555
C12 C11 1_555 1_555
H8 C12 1_555 1_555
C13 C12 1_555 1_555
C14 C13 1_555 1_555
H9 C14 1_555 1_555
C15 C10 1_555 1_555
H10 C15 1_555 1_555
C16 N1 1_555 1_555
H11 C16 1_555 1_555
H12 C16 1_555 1_555
H13 C16 1_555 1_555
C17 N1 1_555 1_555
H14 C17 1_555 1_555
H15 C17 1_555 1_555
H16 C17 1_555 1_555
C18 C3 1_555 1_555
H17 C18 1_555 1_555
H18 C18 1_555 1_555
H19 C18 1_555 1_555
C5 C6 1_555 1_555
C8 C9 1_555 1_555
C14 C15 1_555 1_555

#END
