
#######################################################################
#
#                 Cambridge Crystallographic Data Centre
#                                CCDC 
#
#######################################################################
#
# If this CIF has been generated from an entry in the Cambridge 
# Structural Database, then it will include bibliographic, chemical, 
# crystal, experimental, refinement or atomic coordinate data resulting 
# from the CCDC's data processing and validation procedures.
#
#######################################################################

data_JUCSUX
_chemical_compound_source        'endophytic fungus Eutypella scoparia PSU-H267'
_chemical_name_common            'Scoparasin A acetone solvate'
_chemical_formula_moiety         'C29 H35 N1 O8,C3 H6 O1'
_chemical_name_systematic        
'6,12-Dihydroxy-15-(4-methoxybenzyl)-6,8,13,14-tetramethyl-9,11a,12,14a,15,16-hexahydro[1,3]dioxacyclotridecino[4,5-d]isoindole-2,7,17(6H,8H)-trione acetone solvate'
_chemical_properties_biological  
'tested for antimicrobial, antimycobacterial and cytotoxic activity'
_symmetry_cell_setting           orthorhombic
_symmetry_space_group_name_H-M   'P 21 21 21'
_symmetry_Int_Tables_number      19
_space_group_name_Hall           'P 2ac 2ab'
loop_
_symmetry_equiv_pos_site_id
_symmetry_equiv_pos_as_xyz
1 x,y,z
2 1/2-x,-y,1/2+z
3 -x,1/2+y,1/2-z
4 1/2+x,1/2-y,-z
_cell_length_a                   7.4091(10)
_cell_length_b                   19.817(3)
_cell_length_c                   21.435(3)
_cell_angle_alpha                90
_cell_angle_beta                 90
_cell_angle_gamma                90
_cell_volume                     3147.22
_exptl_crystal_colour            colorless
_exptl_crystal_description       rod
_cell_formula_units_Z            4
loop_
_atom_site_label
_atom_site_type_symbol
_atom_site_fract_x
_atom_site_fract_y
_atom_site_fract_z
O1 O 1.0013(8) 0.8010(3) 0.9490(3)
C1 C 0.9924(11) 0.8577(4) 0.9689(4)
C2 C 1.2061(11) 1.0781(4) 1.0092(4)
N1 N 1.1137(10) 0.8884(3) 1.0050(3)
H1 H 1.2074 0.8676 1.0189
C3 C 1.2918(11) 1.0951(4) 1.0652(5)
H2 H 1.3533 1.0620 1.0875
C4 C 1.0793(10) 0.9586(4) 1.0196(4)
H3 H 1.0928 0.9653 1.0647
C5 C 1.2863(11) 1.1597(4) 1.0875(4)
H4 H 1.3433 1.1700 1.1250
O2 O 1.2053(9) 1.2730(3) 1.0807(3)
C6 C 0.8799(11) 0.9683(4) 1.0020(4)
H5 H 0.8679 1.0103 0.9783
C7 C 1.1973(11) 1.2098(4) 1.0552(5)
C8 C 1.1202(13) 1.3262(4) 1.0485(5)
H6 H 0.9937 1.3167 1.0445
H7 H 1.1727 1.3307 1.0078
H8 H 1.1362 1.3675 1.0713
C9 C 0.7605(11) 0.9721(4) 1.0583(4)
C10 C 1.1114(11) 1.1940(4) 1.0001(5)
H9 H 1.0504 1.2271 0.9778
C11 C 0.6547(11) 0.9218(4) 1.0772(4)
C12 C 1.1169(11) 1.1271(4) 0.9781(4)
H10 H 1.0576 1.1164 0.9411
O3 O 0.4502(7) 0.8342(3) 1.0461(3)
H11 H 0.4557 0.7933 1.0514
C13 C 0.6289(10) 0.8606(4) 1.0360(4)
H12 H 0.7178 0.8261 1.0475
C14 C 0.6493(10) 0.8770(4) 0.9674(4)
H13 H 0.5609 0.9124 0.9580
C15 C 0.8356(10) 0.9084(3) 0.9583(4)
C16 C 1.2124(12) 1.0054(4) 0.9854(5)
H14 H 1.3338 0.9879 0.9906
H15 H 1.1846 1.0050 0.9412
C17 C 0.7855(13) 1.0376(4) 1.0943(4)
H16 H 0.7163 1.0359 1.1321
H17 H 0.7451 1.0747 1.0692
H18 H 0.9108 1.0434 1.1042
C18 C 0.5556(14) 0.9213(5) 1.1370(5)
H19 H 0.6177 0.9491 1.1667
H20 H 0.5487 0.8759 1.1525
H21 H 0.4359 0.9385 1.1306
C19 C 0.6037(11) 0.8183(4) 0.9270(4)
H22 H 0.6721 0.7793 0.9320
C20 C 0.4759(13) 0.8170(4) 0.8851(4)
H23 H 0.4178 0.8574 0.8760
C21 C 0.4151(12) 0.7546(5) 0.8504(5)
H24 H 0.2860 0.7494 0.8562
H25 H 0.4731 0.7156 0.8691
C22 C 0.4556(13) 0.7544(5) 0.7798(4)
H26 H 0.4114 0.7965 0.7613
O4 O 0.7446(10) 0.7056(4) 0.7948(4)
C23 C 0.6586(15) 0.7494(5) 0.7697(4)
O5 O 0.9402(10) 0.7839(4) 0.7259(4)
H27 H 0.9580 0.7458 0.7393
C24 C 0.7534(14) 0.7969(5) 0.7246(5)
C25 C 0.7232(15) 0.8671(5) 0.7492(4)
H28 H 0.6091 0.8857 0.7436
C26 C 0.8408(16) 0.9036(5) 0.7772(5)
H29 H 0.9592 0.8887 0.7816
O6 O 0.7866(10) 0.9666(3) 0.8012(3)
O7 O 0.6841(12) 1.0153(3) 0.8876(4)
C27 C 0.7696(15) 0.9715(5) 0.8626(6)
O8 O 0.8638(7) 0.9234(3) 0.8923(3)
C28 C 0.3621(17) 0.6948(6) 0.7483(5)
H30 H 0.2348 0.6968 0.7565
H31 H 0.4103 0.6534 0.7645
H32 H 0.3823 0.6968 0.7041
C29 C 0.6862(17) 0.7885(5) 0.6592(5)
H33 H 0.6949 0.7419 0.6473
H34 H 0.7580 0.8154 0.6315
H35 H 0.5625 0.8027 0.6569
O9 O 1.2689(17) 0.9513(7) 0.7908(11)
C30 C 1.390(3) 1.0214(10) 0.7144(8)
H36 H 1.3790 0.9815 0.6892
H37 H 1.5155 1.0296 0.7232
H38 H 1.3406 1.0593 0.6925
C31 C 1.288(2) 1.0113(11) 0.7756(12)
C32 C 1.211(4) 1.0713(8) 0.8065(7)
H39 H 1.2782 1.0810 0.8437
H40 H 1.0873 1.0626 0.8171
H41 H 1.2174 1.1092 0.7787
loop_
_geom_bond_atom_site_label_1
_geom_bond_atom_site_label_2
_geom_bond_site_symmetry_1
_geom_bond_site_symmetry_2
O1 C1 1_555 1_555
C1 N1 1_555 1_555
C2 C3 1_555 1_555
N1 H1 1_555 1_555
C3 H2 1_555 1_555
C4 N1 1_555 1_555
H3 C4 1_555 1_555
C5 C3 1_555 1_555
H4 C5 1_555 1_555
O2 C7 1_555 1_555
C6 C4 1_555 1_555
H5 C6 1_555 1_555
C7 C5 1_555 1_555
C8 O2 1_555 1_555
H6 C8 1_555 1_555
H7 C8 1_555 1_555
H8 C8 1_555 1_555
C9 C6 1_555 1_555
C10 C7 1_555 1_555
H9 C10 1_555 1_555
C11 C9 1_555 1_555
C12 C2 1_555 1_555
H10 C12 1_555 1_555
O3 H11 1_555 1_555
C13 C11 1_555 1_555
H12 C13 1_555 1_555
C14 C13 1_555 1_555
H13 C14 1_555 1_555
C15 C1 1_555 1_555
C16 C2 1_555 1_555
H14 C16 1_555 1_555
H15 C16 1_555 1_555
C17 C9 1_555 1_555
H16 C17 1_555 1_555
H17 C17 1_555 1_555
H18 C17 1_555 1_555
C18 C11 1_555 1_555
H19 C18 1_555 1_555
H20 C18 1_555 1_555
H21 C18 1_555 1_555
C19 C14 1_555 1_555
H22 C19 1_555 1_555
C20 C19 1_555 1_555
H23 C20 1_555 1_555
C21 C20 1_555 1_555
H24 C21 1_555 1_555
H25 C21 1_555 1_555
C22 C21 1_555 1_555
H26 C22 1_555 1_555
O4 C23 1_555 1_555
C23 C22 1_555 1_555
O5 H27 1_555 1_555
C24 C23 1_555 1_555
C25 C24 1_555 1_555
H28 C25 1_555 1_555
C26 C25 1_555 1_555
H29 C26 1_555 1_555
O6 C26 1_555 1_555
O7 C27 1_555 1_555
C27 O6 1_555 1_555
O8 C15 1_555 1_555
C28 C22 1_555 1_555
H30 C28 1_555 1_555
H31 C28 1_555 1_555
H32 C28 1_555 1_555
C29 C24 1_555 1_555
H33 C29 1_555 1_555
H34 C29 1_555 1_555
H35 C29 1_555 1_555
O9 C31 1_555 1_555
C30 H36 1_555 1_555
H37 C30 1_555 1_555
H38 C30 1_555 1_555
C31 C30 1_555 1_555
C32 C31 1_555 1_555
H39 C32 1_555 1_555
H40 C32 1_555 1_555
H41 C32 1_555 1_555
C4 C16 1_555 1_555
C6 C15 1_555 1_555
C10 C12 1_555 1_555
O3 C13 1_555 1_555
C14 C15 1_555 1_555
O5 C24 1_555 1_555
C27 O8 1_555 1_555

#END
