
#######################################################################
#
#                 Cambridge Crystallographic Data Centre
#                                CCDC 
#
#######################################################################
#
# If this CIF has been generated from an entry in the Cambridge 
# Structural Database, then it will include bibliographic, chemical, 
# crystal, experimental, refinement or atomic coordinate data resulting 
# from the CCDC's data processing and validation procedures.
#
#######################################################################

data_JUCXAG
_chemical_compound_source        'Root skin of Tripterygium Wilfordii Hook. f'
_chemical_formula_moiety         'C38 H47 N1 O18,C1 H4 O1,C2 H6 O1,3(H2 O1)'
_chemical_name_systematic        'Euonine methanol ethanol solvate trihydrate'
_chemical_properties_biological  'Possible immunosuppressive activity'
_symmetry_cell_setting           orthorhombic
_symmetry_space_group_name_H-M   'P 21 21 21'
_symmetry_Int_Tables_number      19
_space_group_name_Hall           'P 2ac 2ab'
loop_
_symmetry_equiv_pos_site_id
_symmetry_equiv_pos_as_xyz
1 x,y,z
2 1/2+x,1/2-y,-z
3 -x,1/2+y,1/2-z
4 1/2-x,-y,1/2+z
_cell_length_a                   13.581(4)
_cell_length_b                   17.474(2)
_cell_length_c                   19.716(3)
_cell_angle_alpha                90
_cell_angle_beta                 90
_cell_angle_gamma                90
_cell_volume                     4678.89
_cell_formula_units_Z            4
loop_
_atom_site_label
_atom_site_type_symbol
_atom_site_fract_x
_atom_site_fract_y
_atom_site_fract_z
O1 O 1.1208(5) 0.4053(4) 0.4933(3)
O2 O 1.141(2) 0.4090(6) 0.6023(5)
O3 O 0.9326(5) 0.4502(4) 0.4313(3)
O4 O 0.9134(7) 0.3336(5) 0.4752(5)
O5 O 0.9496(4) 0.5767(4) 0.5748(3)
O6 O 0.9520(4) 0.6958(3) 0.4880(3)
O7 O 1.0997(5) 0.7450(4) 0.4019(3)
O8 O 1.145(2) 0.7590(7) 0.2983(5)
O9 O 1.3119(5) 0.6011(4) 0.3557(3)
O10 O 1.4602(6) 0.5455(6) 0.3609(5)
O11 O 1.2895(5) 0.4671(4) 0.4261(3)
O12 O 1.3969(6) 0.4657(6) 0.5123(4)
O13 O 1.1154(6) 0.4269(4) 0.3589(4)
O14 O 1.186(2) 0.4323(8) 0.2610(7)
O15 O 1.1292(4) 0.6392(3) 0.5217(3)
O16 O 1.1786(5) 0.7833(4) 0.6041(4)
O17 O 1.0144(6) 0.7759(5) 0.5981(4)
O18 O 0.7901(6) 0.5993(6) 0.5952(4)
N1 N 1.024(1) 0.7728(5) 0.8164(4)
C1 C 1.0836(7) 0.4815(6) 0.4947(4)
C2 C 0.9706(7) 0.4818(6) 0.4942(5)
C3 C 0.9324(6) 0.5599(5) 0.5045(4)
C4 C 0.9782(7) 0.6238(5) 0.4589(4)
C5 C 1.1464(7) 0.6712(5) 0.4065(4)
C6 C 1.2473(7) 0.6773(6) 0.4418(5)
C7 C 1.3016(7) 0.6063(6) 0.4273(5)
C8 C 1.2459(6) 0.5350(5) 0.4546(4)
C9 C 1.1307(6) 0.5338(6) 0.4405(5)
C10 C 1.0926(7) 0.6169(5) 0.4551(4)
C11 C 0.9279(7) 0.6236(6) 0.3905(5)
C12 C 1.1130(7) 0.5084(5) 0.3659(5)
C13 C 1.2190(6) 0.6867(5) 0.5174(5)
C14 C 1.1877(8) 0.7706(6) 0.5326(5)
C15 C 1.0880(9) 0.7839(6) 0.6303(5)
C16 C 1.0907(8) 0.7961(6) 0.7054(5)
C17 C 1.165(1) 0.8408(6) 0.7342(6)
C18 C 1.163(1) 0.8524(7) 0.8031(7)
C19 C 1.095(1) 0.8149(7) 0.8409(6)
C20 C 1.0204(8) 0.7624(6) 0.7486(6)
C21 C 0.9456(9) 0.7115(6) 0.7252(6)
C22 C 0.9819(8) 0.6290(6) 0.7137(5)
C23 C 0.9020(8) 0.5702(6) 0.6894(5)
C24 C 0.8721(8) 0.5834(6) 0.6172(5)
C25 C 1.143(1) 0.3745(7) 0.5528(8)
C26 C 1.171(1) 0.2943(9) 0.5463(9)
C27 C 0.9059(8) 0.3765(6) 0.4276(6)
C28 C 0.866(1) 0.3562(7) 0.3632(7)
C29 C 1.104(1) 0.7839(7) 0.3453(6)
C30 C 1.056(1) 0.8595(7) 0.3485(7)
C31 C 1.392(1) 0.5678(7) 0.3280(7)
C32 C 1.3674(9) 0.4377(7) 0.4602(6)
C33 C 1.386(1) 0.5666(8) 0.2524(7)
C34 C 1.409(1) 0.3686(8) 0.4276(8)
C35 C 1.156(1) 0.3976(9) 0.3069(8)
C36 C 1.157(2) 0.310(1) 0.310(1)
C37 C 1.2939(8) 0.6611(6) 0.5673(5)
C38 C 0.810(1) 0.5667(8) 0.7359(6)
O19 O 0.3149(5) 0.0161(4) 0.0797(4)
C39 C 0.361(1) 0.008(1) 0.021(2)
C40 C 0.338(3) 0.088(3) 0.017(2)
O20 O 0.5597(6) 0.4392(6) 0.7117(4)
C41 C 0.470(5) 0.429(2) 0.677(1)
O21 O 0.703(2) 0.412(1) 0.5372(8)
O22 O 0.888(1) 0.1443(7) 0.2976(6)
O23 O 0.954(2) 0.1701(8) 0.3785(8)
loop_
_geom_bond_atom_site_label_1
_geom_bond_atom_site_label_2
_geom_bond_site_symmetry_1
_geom_bond_site_symmetry_2
O1 C1 1_555 1_555
O2 C25 1_555 1_555
O3 C2 1_555 1_555
O4 C27 1_555 1_555
O5 C3 1_555 1_555
O6 C4 1_555 1_555
O7 C5 1_555 1_555
O8 C29 1_555 1_555
O9 C7 1_555 1_555
O10 C31 1_555 1_555
O11 C8 1_555 1_555
O12 C32 1_555 1_555
O13 C12 1_555 1_555
O14 C35 1_555 1_555
O15 C10 1_555 1_555
O16 C14 1_555 1_555
O17 C15 1_555 1_555
O18 C24 1_555 1_555
N1 C19 1_555 1_555
C1 C2 1_555 1_555
C2 C3 1_555 1_555
C3 C4 1_555 1_555
C4 C10 1_555 1_555
C5 C6 1_555 1_555
C6 C7 1_555 1_555
C7 C8 1_555 1_555
C8 C9 1_555 1_555
C9 C1 1_555 1_555
C10 C5 1_555 1_555
C11 C4 1_555 1_555
C12 C9 1_555 1_555
C13 O15 1_555 1_555
C14 C13 1_555 1_555
C15 O16 1_555 1_555
C16 C15 1_555 1_555
C17 C16 1_555 1_555
C18 C17 1_555 1_555
C19 C18 1_555 1_555
C20 N1 1_555 1_555
C21 C20 1_555 1_555
C22 C21 1_555 1_555
C23 C22 1_555 1_555
C24 O5 1_555 1_555
C25 O1 1_555 1_555
C26 C25 1_555 1_555
C27 O3 1_555 1_555
C28 C27 1_555 1_555
C29 O7 1_555 1_555
C30 C29 1_555 1_555
C31 O9 1_555 1_555
C32 O11 1_555 1_555
C33 C31 1_555 1_555
C34 C32 1_555 1_555
C35 O13 1_555 1_555
C36 C35 1_555 1_555
C37 C13 1_555 1_555
C38 C23 1_555 1_555
O19 C39 1_555 1_555
C39 C40 1_555 1_555
O20 C41 1_555 1_555
C6 C13 1_555 1_555
C9 C10 1_555 1_555
C16 C20 1_555 1_555
C23 C24 1_555 1_555

#END
