
#######################################################################
#
#                 Cambridge Crystallographic Data Centre
#                                CCDC 
#
#######################################################################
#
# If this CIF has been generated from an entry in the Cambridge 
# Structural Database, then it will include bibliographic, chemical, 
# crystal, experimental, refinement or atomic coordinate data resulting 
# from the CCDC's data processing and validation procedures.
#
#######################################################################

data_JUDCOC
_chemical_formula_moiety         'C8 H16 N1 O3 1+,C8 H7 O3 1-'
_chemical_name_systematic        
'6-hydroxy-2,2-dimethyltetrahydro-3aH-cyclopenta[d][1,3]dioxol-4-aminium hydroxy(phenyl)acetate'
_symmetry_cell_setting           monoclinic
_symmetry_space_group_name_H-M   'P 21'
_symmetry_Int_Tables_number      4
_space_group_name_Hall           'P 2yb'
loop_
_symmetry_equiv_pos_site_id
_symmetry_equiv_pos_as_xyz
1 x,y,z
2 -x,1/2+y,-z
_cell_length_a                   9.5138(19)
_cell_length_b                   6.4835(13)
_cell_length_c                   14.582(3)
_cell_angle_alpha                90
_cell_angle_beta                 104.27(3)
_cell_angle_gamma                90
_cell_volume                     871.705
_cell_formula_units_Z            2
loop_
_atom_site_label
_atom_site_type_symbol
_atom_site_fract_x
_atom_site_fract_y
_atom_site_fract_z
O1 O 0.8144(9) 0.8993(14) 0.8631(5)
H1 H 0.7887 0.9422 0.8086
O2 O 1.0672(9) 1.0593(13) 0.9207(4)
O3 O 1.1812(8) 0.7625(12) 0.9602(4)
C1 C 1.0714(11) 0.8698(17) 0.9199(5)
C2 C 0.9397(12) 0.7511(19) 0.8713(6)
H2 H 0.9270 0.6331 0.9105
C3 C 0.9460(13) 0.679(2) 0.7781(7)
C4 C 1.0154(15) 0.788(2) 0.7224(8)
H3 H 1.0538 0.9153 0.7447
C5 C 1.035(2) 0.722(4) 0.6319(11)
H4 H 1.0799 0.8021 0.5947
C6 C 0.9790(17) 0.531(3) 0.6065(9)
H5 H 0.9979 0.4696 0.5532
C7 C 0.9046(17) 0.435(3) 0.6509(9)
H6 H 0.8528 0.3205 0.6224
C8 C 0.8945(15) 0.490(2) 0.7423(8)
H7 H 0.8534 0.4005 0.7780
O4 O 0.2688(9) 0.3595(14) 0.9305(5)
H8 H 0.3476 0.3529 0.9691
O5 O 0.3260(9) 0.1497(12) 0.7102(4)
O6 O 0.5460(9) 0.2903(12) 0.7272(4)
N1 N 0.5707(8) 0.4650(11) 0.9641(4)
H9 H 0.5246 0.3560 0.9796
H10 H 0.5397 0.5788 0.9870
H11 H 0.6657 0.4510 0.9883
C9 C 0.5426(11) 0.4796(16) 0.8652(5)
H12 H 0.6170 0.5633 0.8468
C10 C 0.3908(12) 0.5736(16) 0.8255(6)
H13 H 0.3781 0.6198 0.7607
H14 H 0.3723 0.6874 0.8640
C11 C 0.2922(10) 0.3821(15) 0.8320(5)
H15 H 0.1987 0.3948 0.7854
C12 C 0.3768(11) 0.1964(15) 0.8080(5)
H16 H 0.3707 0.0769 0.8480
C13 C 0.5348(11) 0.2729(15) 0.8221(5)
H17 H 0.6059 0.1769 0.8595
C14 C 0.4507(12) 0.1629(17) 0.6660(6)
C15 C 0.4057(17) 0.260(3) 0.5723(8)
H18 H 0.3576 0.3882 0.5774
H19 H 0.3406 0.1699 0.5297
H20 H 0.4896 0.2858 0.5484
C16 C 0.5103(15) -0.051(2) 0.6636(7)
H21 H 0.5693 -0.0560 0.6189
H22 H 0.4316 -0.1472 0.6450
H23 H 0.5679 -0.0869 0.7253
loop_
_geom_bond_atom_site_label_1
_geom_bond_atom_site_label_2
_geom_bond_site_symmetry_1
_geom_bond_site_symmetry_2
O1 H1 1_555 1_555
O2 C1 1_555 1_555
O3 C1 1_555 1_555
C1 C2 1_555 1_555
C2 O1 1_555 1_555
H2 C2 1_555 1_555
C3 C2 1_555 1_555
C4 C3 1_555 1_555
H3 C4 1_555 1_555
C5 C4 1_555 1_555
H4 C5 1_555 1_555
C6 C5 1_555 1_555
H5 C6 1_555 1_555
C7 C6 1_555 1_555
H6 C7 1_555 1_555
C8 C3 1_555 1_555
H7 C8 1_555 1_555
O4 H8 1_555 1_555
O5 C12 1_555 1_555
O6 C13 1_555 1_555
N1 H9 1_555 1_555
H10 N1 1_555 1_555
H11 N1 1_555 1_555
C9 N1 1_555 1_555
H12 C9 1_555 1_555
C10 C9 1_555 1_555
H13 C10 1_555 1_555
H14 C10 1_555 1_555
C11 O4 1_555 1_555
H15 C11 1_555 1_555
C12 C11 1_555 1_555
H16 C12 1_555 1_555
C13 C9 1_555 1_555
H17 C13 1_555 1_555
C14 O5 1_555 1_555
C15 C14 1_555 1_555
H18 C15 1_555 1_555
H19 C15 1_555 1_555
H20 C15 1_555 1_555
C16 C14 1_555 1_555
H21 C16 1_555 1_555
H22 C16 1_555 1_555
H23 C16 1_555 1_555
C7 C8 1_555 1_555
O6 C14 1_555 1_555
C10 C11 1_555 1_555
C12 C13 1_555 1_555

#END
