
#######################################################################
#
#                 Cambridge Crystallographic Data Centre
#                                CCDC 
#
#######################################################################
#
# If this CIF has been generated from an entry in the Cambridge 
# Structural Database, then it will include bibliographic, chemical, 
# crystal, experimental, refinement or atomic coordinate data resulting 
# from the CCDC's data processing and validation procedures.
#
#######################################################################

data_JUDMIE
_chemical_formula_moiety         'C7 H10 B1 F3 N2'
_chemical_name_systematic        (4-(Dimethylamino)pyridyl)trifluoroborane
_symmetry_cell_setting           orthorhombic
_symmetry_space_group_name_H-M   'P b c a'
_symmetry_Int_Tables_number      61
_space_group_name_Hall           '-P 2ac 2ab'
loop_
_symmetry_equiv_pos_site_id
_symmetry_equiv_pos_as_xyz
1 x,y,z
2 1/2-x,-y,1/2+z
3 1/2+x,1/2-y,-z
4 -x,1/2+y,1/2-z
5 -x,-y,-z
6 1/2+x,y,1/2-z
7 1/2-x,1/2+y,z
8 x,1/2-y,1/2+z
_cell_length_a                   10.430(3)
_cell_length_b                   8.111(2)
_cell_length_c                   20.295(7)
_cell_angle_alpha                90
_cell_angle_beta                 90
_cell_angle_gamma                90
_cell_volume                     1716.91
_exptl_crystal_colour            colorless
_chemical_melting_point          129.8-130.9deg.C
_cell_formula_units_Z            8
_exptl_crystal_recrystallization_method deuterochloroform
loop_
_atom_site_label
_atom_site_type_symbol
_atom_site_fract_x
_atom_site_fract_y
_atom_site_fract_z
N1 N 0.3835(3) 0.2119(3) 0.2875(1)
C1 C 0.2896(4) 0.1230(5) 0.2582(2)
C2 C 0.2811(4) 0.1020(5) 0.1916(2)
C3 C 0.3753(4) 0.1731(5) 0.1497(2)
C4 C 0.4729(4) 0.2637(5) 0.1811(2)
C5 C 0.4734(4) 0.2803(5) 0.2477(2)
B1 B 0.3912(5) 0.2335(6) 0.3652(2)
F1 F 0.3734(20) 0.0908(15) 0.3941(6)
F3 F 0.5083(10) 0.2974(26) 0.3808(5)
F5 F 0.3045(14) 0.3394(20) 0.3819(5)
N2 N 0.3709(3) 0.1569(4) 0.0840(1)
C6 C 0.2713(4) 0.0588(6) 0.0521(2)
C7 C 0.4765(4) 0.2178(6) 0.0433(2)
H1 H 0.2251 0.0740 0.2857
H2 H 0.2128 0.0373 0.1734
H3 H 0.5393 0.3145 0.1554
H4 H 0.5421 0.3410 0.2679
H5 H 0.1888 0.0852 0.0704
H6 H 0.2907 -0.0558 0.0585
H7 H 0.2727 0.0799 0.0056
H8 H 0.4791 0.3357 0.0470
H9 H 0.4657 0.1899 -0.0023
H10 H 0.5569 0.1746 0.0586
F2? F 0.4653(7) 0.1115(10) 0.3887(3)
F4? F 0.4377(9) 0.3840(8) 0.3776(3)
F6? F 0.2721(5) 0.2201(12) 0.3911(3)
loop_
_geom_bond_atom_site_label_1
_geom_bond_atom_site_label_2
_geom_bond_site_symmetry_1
_geom_bond_site_symmetry_2
N1 C1 1_555 1_555
C1 C2 1_555 1_555
C2 C3 1_555 1_555
C3 C4 1_555 1_555
C4 C5 1_555 1_555
C5 N1 1_555 1_555
B1 N1 1_555 1_555
F1 B1 1_555 1_555
F3 B1 1_555 1_555
F5 B1 1_555 1_555
N2 C3 1_555 1_555
C6 N2 1_555 1_555
C7 N2 1_555 1_555
H1 C1 1_555 1_555
H2 C2 1_555 1_555
H3 C4 1_555 1_555
H4 C5 1_555 1_555
H5 C6 1_555 1_555
H6 C6 1_555 1_555
H7 C6 1_555 1_555
H8 C7 1_555 1_555
H9 C7 1_555 1_555
H10 C7 1_555 1_555

#END
