
#######################################################################
#
#                 Cambridge Crystallographic Data Centre
#                                CCDC 
#
#######################################################################
#
# If this CIF has been generated from an entry in the Cambridge 
# Structural Database, then it will include bibliographic, chemical, 
# crystal, experimental, refinement or atomic coordinate data resulting 
# from the CCDC's data processing and validation procedures.
#
#######################################################################

data_JUDQAA
_chemical_formula_moiety         'C7 H13 B1 N2'
_chemical_name_systematic        (4-(Trimethylamino)pyridyl)borane
_symmetry_cell_setting           orthorhombic
_symmetry_space_group_name_H-M   'P b c a'
_symmetry_Int_Tables_number      61
_space_group_name_Hall           '-P 2ac 2ab'
loop_
_symmetry_equiv_pos_site_id
_symmetry_equiv_pos_as_xyz
1 x,y,z
2 1/2-x,-y,1/2+z
3 1/2+x,1/2-y,-z
4 -x,1/2+y,1/2-z
5 -x,-y,-z
6 1/2+x,y,1/2-z
7 1/2-x,1/2+y,z
8 x,1/2-y,1/2+z
_cell_length_a                   10.405(2)
_cell_length_b                   7.738(1)
_cell_length_c                   20.150(5)
_cell_angle_alpha                90
_cell_angle_beta                 90
_cell_angle_gamma                90
_cell_volume                     1622.35
_exptl_crystal_colour            colorless
_chemical_melting_point          166.2-167.8deg.C
_cell_formula_units_Z            8
_exptl_crystal_recrystallization_method deuterochloroform
loop_
_atom_site_label
_atom_site_type_symbol
_atom_site_fract_x
_atom_site_fract_y
_atom_site_fract_z
N1 N 0.3858(2) 0.2289(2) 0.29149(9)
C1 C 0.2914(2) 0.1423(3) 0.2603(1)
C2 C 0.2851(2) 0.1244(3) 0.1926(1)
C3 C 0.3814(2) 0.1968(3) 0.1517(1)
C4 C 0.4789(2) 0.2874(3) 0.1850(1)
C5 C 0.4773(2) 0.2999(3) 0.2526(1)
N2 N 0.3795(2) 0.1828(2) 0.08509(9)
C6 C 0.2817(3) 0.0803(4) 0.0521(1)
C7 C 0.4871(3) 0.2450(4) 0.0461(1)
B1 B 0.3917(4) 0.2486(5) 0.3702(1)
H1 H 0.2257 0.0897 0.2869
H2 H 0.2152 0.0626 0.1728
H3 H 0.5460 0.3416 0.1598
H4 H 0.5453 0.3626 0.2740
H5 H 0.1991 0.1082 0.0704
H6 H 0.3000 -0.0402 0.0585
H7 H 0.2824 0.1030 0.0053
H11 H 0.4834 0.1929 0.0030
H12 H 0.5681 0.2141 0.0661
H13 H 0.4844 0.3685 0.0406
H14 H 0.3218(37) 0.1466(52) 0.3942(18)
H15 H 0.4971(40) 0.2138(57) 0.3907(20)
H16 H 0.3628(44) 0.3956(57) 0.3818(19)
H8? H 0.6169 0.3517 0.0655
H9? H 0.4643 0.2659 0.0007
H10? H 0.5564 0.1627 0.0473
H17? H 0.4591(44) 0.3519(62) 0.3822(22)
H18? H 0.2979(49) 0.2923(77) 0.3893(24)
H19? H 0.4148(57) 0.1339(68) 0.3915(26)
loop_
_geom_bond_atom_site_label_1
_geom_bond_atom_site_label_2
_geom_bond_site_symmetry_1
_geom_bond_site_symmetry_2
N1 C1 1_555 1_555
C1 C2 1_555 1_555
C2 C3 1_555 1_555
C3 C4 1_555 1_555
C4 C5 1_555 1_555
C5 N1 1_555 1_555
N2 C3 1_555 1_555
C6 N2 1_555 1_555
C7 N2 1_555 1_555
B1 N1 1_555 1_555
H1 C1 1_555 1_555
H2 C2 1_555 1_555
H3 C4 1_555 1_555
H4 C5 1_555 1_555
H5 C6 1_555 1_555
H6 C6 1_555 1_555
H7 C6 1_555 1_555
H11 C7 1_555 1_555
H12 C7 1_555 1_555
H13 C7 1_555 1_555
H14 B1 1_555 1_555
H15 B1 1_555 1_555
H16 B1 1_555 1_555

#END
