
#######################################################################
#
#                 Cambridge Crystallographic Data Centre
#                                CCDC 
#
#######################################################################
#
# If this CIF has been generated from an entry in the Cambridge 
# Structural Database, then it will include bibliographic, chemical, 
# crystal, experimental, refinement or atomic coordinate data resulting 
# from the CCDC's data processing and validation procedures.
#
#######################################################################

data_JUDTUX
_chemical_formula_moiety         'C15 H23 N1 O6'
_chemical_name_systematic        
(4R,5S,6R)-N-t-Butoxycarbonyl-6,7-O-isopropylidene-2,3-dideoxy-hept-3-enono-1,4-lactam
_symmetry_cell_setting           hexagonal
_symmetry_space_group_name_H-M   'P 65'
_symmetry_Int_Tables_number      170
_space_group_name_Hall           'P 65'
loop_
_symmetry_equiv_pos_site_id
_symmetry_equiv_pos_as_xyz
1 x,y,z
2 -y,x-y,2/3+z
3 -x+y,-x,1/3+z
4 -x,-y,1/2+z
5 y,-x+y,1/6+z
6 x-y,x,5/6+z
_cell_length_a                   9.029(2)
_cell_length_b                   9.029(2)
_cell_length_c                   34.445(4)
_cell_angle_alpha                90
_cell_angle_beta                 90
_cell_angle_gamma                120
_cell_volume                     2431.85
_exptl_crystal_colour            white
_chemical_melting_point          138-140deg.C
_cell_formula_units_Z            6
loop_
_atom_site_label
_atom_site_type_symbol
_atom_site_fract_x
_atom_site_fract_y
_atom_site_fract_z
N1 N -0.6827(3) -0.2533(3) -0.3350
O1 O -0.8277(6) -0.2042(7) -0.3851(2)
O2 O -0.7184(4) -0.3897(4) -0.2311(1)
O3 O -0.6997(6) -0.0205(4) -0.2803(1)
O4 O -0.5642(8) 0.1046(6) -0.2235(1)
O5 O -0.4747(4) -0.0625(4) -0.3754(1)
O6 O -0.4159(3) -0.1874(3) -0.3254(1)
C1 C -0.8266(5) -0.2810(6) -0.3565(2)
C2 C -0.9738(5) -0.4240(6) -0.3369(2)
C3 C -0.9240(5) -0.4692(5) -0.3056(2)
C4 C -0.7338(4) -0.3643(4) -0.3009(1)
C5 C -0.6776(4) -0.2678(5) -0.2613(1)
C6 C -0.7564(6) -0.1560(6) -0.2532(1)
C7 C -0.6988(10) -0.0629(8) -0.2140(2)
C8 C -0.5962(6) 0.1398(6) -0.2615(2)
C9 C -0.6864(10) 0.2402(9) -0.2633(2)
C10 C -0.4238(9) 0.2340(12) -0.2809(3)
C11 C -0.5167(4) -0.1567(4) -0.3480(1)
C12 C -0.2313(4) -0.1130(5) -0.3343(1)
C13 C -0.1410(6) 0.0793(6) -0.3294(2)
C14 C -0.2074(7) -0.1665(8) -0.3744(2)
C15 C -0.1754(6) -0.1932(7) -0.3030(2)
H1 H -0.830(8) -0.436(7) -0.225(2)
H2 H -1.066(18) -0.451(17) -0.350(5)
H3 H -0.993(9) -0.559(9) -0.286(2)
H4 H -0.663(8) -0.426(7) -0.301(2)
H5 H -0.553(7) -0.195(6) -0.261(2)
H6 H -0.877(10) -0.231(9) -0.259(2)
H7 H -0.791(12) -0.039(12) -0.205(3)
H8 H -0.657(10) -0.120(11) -0.194(3)
H9 H -0.805(7) 0.181(6) -0.249(2)
H10 H -0.706(7) 0.257(6) -0.292(2)
H11 H -0.608(7) 0.361(7) -0.252(2)
H12 H -0.361(6) 0.159(7) -0.283(2)
H13 H -0.358(7) 0.346(7) -0.266(2)
H14 H -0.439(6) 0.252(6) -0.310(2)
H15 H -0.154(7) 0.111(7) -0.302(2)
H16 H -0.191(6) 0.127(7) -0.350(2)
H17 H -0.021(6) 0.125(6) -0.330(2)
H18 H -0.240(6) -0.113(7) -0.396(2)
H19 H -0.280(7) -0.292(7) -0.374(2)
H20 H -0.091(7) -0.143(7) -0.378(2)
H21 H -0.249(6) -0.312(6) -0.304(2)
H22 H -0.209(7) -0.172(6) -0.277(2)
H23 H -0.053(6) -0.155(7) -0.302(2)
loop_
_geom_bond_atom_site_label_1
_geom_bond_atom_site_label_2
_geom_bond_site_symmetry_1
_geom_bond_site_symmetry_2
N1 C1 1_555 1_555
O1 C1 1_555 1_555
O2 C5 1_555 1_555
O3 C6 1_555 1_555
O4 C7 1_555 1_555
O5 C11 1_555 1_555
O6 C11 1_555 1_555
C1 C2 1_555 1_555
C2 C3 1_555 1_555
C3 C4 1_555 1_555
C4 N1 1_555 1_555
C5 C4 1_555 1_555
C6 C5 1_555 1_555
C7 C6 1_555 1_555
C8 O3 1_555 1_555
C9 C8 1_555 1_555
C10 C8 1_555 1_555
C11 N1 1_555 1_555
C12 O6 1_555 1_555
C13 C12 1_555 1_555
C14 C12 1_555 1_555
C15 C12 1_555 1_555
H1 O2 1_555 1_555
H2 C2 1_555 1_555
H3 C3 1_555 1_555
H4 C4 1_555 1_555
H5 C5 1_555 1_555
H6 C6 1_555 1_555
H7 C7 1_555 1_555
H8 C7 1_555 1_555
H9 C9 1_555 1_555
H10 C9 1_555 1_555
H11 C9 1_555 1_555
H12 C10 1_555 1_555
H13 C10 1_555 1_555
H14 C10 1_555 1_555
H15 C13 1_555 1_555
H16 C13 1_555 1_555
H17 C13 1_555 1_555
H18 C14 1_555 1_555
H19 C14 1_555 1_555
H20 C14 1_555 1_555
H21 C15 1_555 1_555
H22 C15 1_555 1_555
H23 C15 1_555 1_555
O4 C8 1_555 1_555

#END
