
#######################################################################
#
#                 Cambridge Crystallographic Data Centre
#                                CCDC 
#
#######################################################################
#
# If this CIF has been generated from an entry in the Cambridge 
# Structural Database, then it will include bibliographic, chemical, 
# crystal, experimental, refinement or atomic coordinate data resulting 
# from the CCDC's data processing and validation procedures.
#
#######################################################################

data_JUFPIL
_chemical_formula_moiety         'C21 H32 N1 O2 1+,Cl1 1-'
_chemical_name_systematic        
'3-n-Butyl-1-(4-(ethoxycarbonyl)phenyl)octahydroindolizinium chloride'
_symmetry_cell_setting           triclinic
_symmetry_space_group_name_H-M   'P -1'
_symmetry_Int_Tables_number      2
_space_group_name_Hall           '-P 1'
loop_
_symmetry_equiv_pos_site_id
_symmetry_equiv_pos_as_xyz
1 x,y,z
2 -x,-y,-z
_cell_length_a                   7.085(2)
_cell_length_b                   12.661(4)
_cell_length_c                   12.767(4)
_cell_angle_alpha                94.479(5)
_cell_angle_beta                 93.887(6)
_cell_angle_gamma                100.786(6)
_cell_volume                     1117.59
_exptl_crystal_colour            colorless
_exptl_crystal_description       block
_cell_formula_units_Z            2
loop_
_atom_site_label
_atom_site_type_symbol
_atom_site_fract_x
_atom_site_fract_y
_atom_site_fract_z
O1 O 0.6930(2) 0.67333(13) 0.51429(13)
O2 O 0.4181(2) 0.62285(16) 0.41072(16)
N1 N 0.8212(2) 0.14802(14) 0.11889(13)
H1 H 0.6852 0.1584 0.1223
C1 C 0.8229(3) 0.03048(18) 0.12212(17)
H2 H 0.9567 0.0181 0.1207
H3 H 0.7451 -0.0112 0.0599
C2 C 0.7394(3) -0.00645(19) 0.22256(19)
H4 H 0.7482 -0.0830 0.2275
H5 H 0.6013 -0.0017 0.2192
C3 C 0.8433(4) 0.06074(19) 0.32083(19)
H6 H 0.9759 0.0467 0.3308
H7 H 0.7752 0.0388 0.3832
C4 C 0.8527(3) 0.18209(19) 0.31274(17)
H8 H 0.7213 0.1984 0.3122
H9 H 0.9318 0.2242 0.3744
C5 C 0.9411(3) 0.21299(17) 0.21203(16)
H10 H 1.0701 0.1916 0.2144
C6 C 0.9716(3) 0.33120(18) 0.18254(17)
H11 H 1.1128 0.3621 0.1939
C7 C 0.9151(4) 0.31964(18) 0.06260(18)
H12 H 0.7897 0.3416 0.0478
H13 H 1.0140 0.3656 0.0261
C8 C 0.9010(3) 0.20078(17) 0.02514(16)
H14 H 1.0339 0.1865 0.0180
C9 C 0.7778(3) 0.15955(18) -0.07664(17)
H15 H 0.6511 0.1814 -0.0732
H16 H 0.7550 0.0797 -0.0845
C10 C 0.8715(3) 0.2026(2) -0.17244(17)
H17 H 1.0083 0.1950 -0.1675
H18 H 0.8683 0.2804 -0.1723
C11 C 0.7715(4) 0.1437(2) -0.27578(18)
H19 H 0.7637 0.0651 -0.2729
H20 H 0.6381 0.1569 -0.2836
C12 C 0.8733(4) 0.1784(2) -0.3717(2)
H21 H 0.8681 0.2541 -0.3800
H22 H 0.8094 0.1331 -0.4346
H23 H 1.0081 0.1703 -0.3625
C13 C 0.8674(3) 0.40457(17) 0.24749(17)
C14 C 0.6699(3) 0.40271(18) 0.22927(19)
H24 H 0.5959 0.3540 0.1747
C15 C 0.5811(3) 0.47135(18) 0.29020(18)
H25 H 0.4473 0.4700 0.2761
C16 C 0.6851(3) 0.54186(17) 0.37136(17)
C17 C 0.8813(3) 0.54367(19) 0.39142(18)
H26 H 0.9539 0.5911 0.4473
C18 C 0.9708(3) 0.47589(19) 0.32948(19)
H27 H 1.1050 0.4781 0.3432
C19 C 0.5828(3) 0.61558(17) 0.43227(18)
C20 C 0.6056(4) 0.7509(2) 0.5747(2)
H28 H 0.6643 0.7618 0.6483
H29 H 0.4659 0.7221 0.5759
C21 C 0.6337(4) 0.8564(2) 0.5278(2)
H30 H 0.7715 0.8826 0.5221
H31 H 0.5834 0.9090 0.5730
H32 H 0.5646 0.8470 0.4576
Cl1 Cl 1.38356(7) 0.15090(4) 0.11772(4)
loop_
_geom_bond_atom_site_label_1
_geom_bond_atom_site_label_2
_geom_bond_site_symmetry_1
_geom_bond_site_symmetry_2
O1 C19 1_555 1_555
O2 C19 1_555 1_555
N1 H1 1_555 1_555
C1 N1 1_555 1_555
H2 C1 1_555 1_555
H3 C1 1_555 1_555
C2 C1 1_555 1_555
H4 C2 1_555 1_555
H5 C2 1_555 1_555
C3 C2 1_555 1_555
H6 C3 1_555 1_555
H7 C3 1_555 1_555
C4 C3 1_555 1_555
H8 C4 1_555 1_555
H9 C4 1_555 1_555
C5 N1 1_555 1_555
H10 C5 1_555 1_555
C6 C5 1_555 1_555
H11 C6 1_555 1_555
C7 C6 1_555 1_555
H12 C7 1_555 1_555
H13 C7 1_555 1_555
C8 N1 1_555 1_555
H14 C8 1_555 1_555
C9 C8 1_555 1_555
H15 C9 1_555 1_555
H16 C9 1_555 1_555
C10 C9 1_555 1_555
H17 C10 1_555 1_555
H18 C10 1_555 1_555
C11 C10 1_555 1_555
H19 C11 1_555 1_555
H20 C11 1_555 1_555
C12 C11 1_555 1_555
H21 C12 1_555 1_555
H22 C12 1_555 1_555
H23 C12 1_555 1_555
C13 C6 1_555 1_555
C14 C13 1_555 1_555
H24 C14 1_555 1_555
C15 C14 1_555 1_555
H25 C15 1_555 1_555
C16 C15 1_555 1_555
C17 C16 1_555 1_555
H26 C17 1_555 1_555
C18 C13 1_555 1_555
H27 C18 1_555 1_555
C19 C16 1_555 1_555
C20 O1 1_555 1_555
H28 C20 1_555 1_555
H29 C20 1_555 1_555
C21 C20 1_555 1_555
H30 C21 1_555 1_555
H31 C21 1_555 1_555
H32 C21 1_555 1_555
C4 C5 1_555 1_555
C7 C8 1_555 1_555
C17 C18 1_555 1_555

#END
