
#######################################################################
#
#                 Cambridge Crystallographic Data Centre
#                                CCDC 
#
#######################################################################
#
# If this CIF has been generated from an entry in the Cambridge 
# Structural Database, then it will include bibliographic, chemical, 
# crystal, experimental, refinement or atomic coordinate data resulting 
# from the CCDC's data processing and validation procedures.
#
#######################################################################

data_JUFPOR
_chemical_formula_moiety         'C24 H32 N1 1+,Cl1 1-'
_chemical_name_systematic        
'1-(Biphenyl-4-yl)-3-butyloctahydroindolizinium chloride'
_symmetry_cell_setting           orthorhombic
_symmetry_space_group_name_H-M   'P 21 21 21'
_symmetry_Int_Tables_number      19
_space_group_name_Hall           'P 2ac 2ab'
loop_
_symmetry_equiv_pos_site_id
_symmetry_equiv_pos_as_xyz
1 x,y,z
2 1/2-x,-y,1/2+z
3 1/2+x,1/2-y,-z
4 -x,1/2+y,1/2-z
_cell_length_a                   7.0083(10)
_cell_length_b                   8.9587(12)
_cell_length_c                   32.914(5)
_cell_angle_alpha                90
_cell_angle_beta                 90
_cell_angle_gamma                90
_cell_volume                     2066.51
_exptl_crystal_colour            colorless
_exptl_crystal_description       block
_cell_formula_units_Z            4
loop_
_atom_site_label
_atom_site_type_symbol
_atom_site_fract_x
_atom_site_fract_y
_atom_site_fract_z
N1 N 1.0952(3) 0.2677(2) 0.07219(7)
H1 H 0.9546 0.2795 0.0764
C1 C 1.1271(5) 0.1333(3) 0.04653(9)
H2 H 1.2656 0.1159 0.0429
H3 H 1.0688 0.1477 0.0194
C2 C 1.0362(5) 0.0009(3) 0.06778(10)
H4 H 1.0612 -0.0906 0.0518
H5 H 0.8963 0.0158 0.0689
C3 C 1.1120(5) -0.0206(3) 0.11068(10)
H6 H 1.2483 -0.0493 0.1095
H7 H 1.0410 -0.1024 0.1241
C4 C 1.0906(5) 0.1228(3) 0.13553(9)
H8 H 0.9537 0.1460 0.1394
H9 H 1.1495 0.1094 0.1626
C5 C 1.1877(4) 0.2497(3) 0.11323(9)
H10 H 1.3238 0.2206 0.1087
C6 C 1.1863(5) 0.4098(3) 0.13112(9)
H11 H 1.3184 0.4314 0.1410
C7 C 1.1499(5) 0.5116(3) 0.09380(9)
H12 H 1.0197 0.5543 0.0949
H13 H 1.2432 0.5945 0.0932
C8 C 1.1724(4) 0.4126(3) 0.05630(8)
H14 H 1.3111 0.4007 0.0500
C9 C 1.0676(4) 0.4620(3) 0.01832(9)
H15 H 0.9304 0.4740 0.0247
H16 H 1.0795 0.3835 -0.0027
C10 C 1.1444(4) 0.6080(3) 0.00150(8)
H17 H 1.2845 0.6002 -0.0017
H18 H 1.1179 0.6892 0.0211
C11 C 1.0551(4) 0.6475(3) -0.03948(9)
H19 H 1.0768 0.5644 -0.0588
H20 H 0.9156 0.6595 -0.0360
C12 C 1.1373(5) 0.7898(3) -0.05713(10)
H21 H 1.0747 0.8118 -0.0831
H22 H 1.2746 0.7771 -0.0616
H23 H 1.1159 0.8724 -0.0382
C13 C 1.0531(5) 0.4299(3) 0.16670(9)
C14 C 1.1204(5) 0.4018(4) 0.20576(9)
H24 H 1.2518 0.3797 0.2095
C15 C 1.0009(5) 0.4052(4) 0.23926(9)
H25 H 1.0502 0.3838 0.2655
C16 C 0.8086(5) 0.4398(3) 0.23453(9)
C17 C 0.7423(5) 0.4715(4) 0.19556(9)
H26 H 0.6121 0.4977 0.1918
C18 C 0.8623(5) 0.4656(4) 0.16232(9)
H27 H 0.8130 0.4864 0.1360
C19 C 0.6741(5) 0.4388(4) 0.26957(9)
C20 C 0.6774(6) 0.3215(4) 0.29753(9)
H28 H 0.7691 0.2440 0.2949
C21 C 0.5465(6) 0.3184(4) 0.32908(11)
H29 H 0.5469 0.2369 0.3475
C22 C 0.4158(5) 0.4316(5) 0.33412(11)
H30 H 0.3273 0.4290 0.3560
C23 C 0.4154(6) 0.5495(5) 0.30685(11)
H31 H 0.3276 0.6292 0.3103
C24 C 0.5414(5) 0.5519(4) 0.27469(10)
H32 H 0.5373 0.6321 0.2558
Cl1 Cl 0.65958(10) 0.28862(8) 0.07239(2)
loop_
_geom_bond_atom_site_label_1
_geom_bond_atom_site_label_2
_geom_bond_site_symmetry_1
_geom_bond_site_symmetry_2
N1 H1 1_555 1_555
C1 N1 1_555 1_555
H2 C1 1_555 1_555
H3 C1 1_555 1_555
C2 C1 1_555 1_555
H4 C2 1_555 1_555
H5 C2 1_555 1_555
C3 C2 1_555 1_555
H6 C3 1_555 1_555
H7 C3 1_555 1_555
C4 C3 1_555 1_555
H8 C4 1_555 1_555
H9 C4 1_555 1_555
C5 N1 1_555 1_555
H10 C5 1_555 1_555
C6 C5 1_555 1_555
H11 C6 1_555 1_555
C7 C6 1_555 1_555
H12 C7 1_555 1_555
H13 C7 1_555 1_555
C8 N1 1_555 1_555
H14 C8 1_555 1_555
C9 C8 1_555 1_555
H15 C9 1_555 1_555
H16 C9 1_555 1_555
C10 C9 1_555 1_555
H17 C10 1_555 1_555
H18 C10 1_555 1_555
C11 C10 1_555 1_555
H19 C11 1_555 1_555
H20 C11 1_555 1_555
C12 C11 1_555 1_555
H21 C12 1_555 1_555
H22 C12 1_555 1_555
H23 C12 1_555 1_555
C13 C6 1_555 1_555
C14 C13 1_555 1_555
H24 C14 1_555 1_555
C15 C14 1_555 1_555
H25 C15 1_555 1_555
C16 C15 1_555 1_555
C17 C16 1_555 1_555
H26 C17 1_555 1_555
C18 C13 1_555 1_555
H27 C18 1_555 1_555
C19 C16 1_555 1_555
C20 C19 1_555 1_555
H28 C20 1_555 1_555
C21 C20 1_555 1_555
H29 C21 1_555 1_555
C22 C21 1_555 1_555
H30 C22 1_555 1_555
C23 C22 1_555 1_555
H31 C23 1_555 1_555
C24 C19 1_555 1_555
H32 C24 1_555 1_555
C4 C5 1_555 1_555
C7 C8 1_555 1_555
C17 C18 1_555 1_555
C23 C24 1_555 1_555

#END
