
#######################################################################
#
#                 Cambridge Crystallographic Data Centre
#                                CCDC 
#
#######################################################################
#
# If this CIF has been generated from an entry in the Cambridge 
# Structural Database, then it will include bibliographic, chemical, 
# crystal, experimental, refinement or atomic coordinate data resulting 
# from the CCDC's data processing and validation procedures.
#
#######################################################################

data_JUFSEK
_chemical_formula_moiety         'C23 H17 F3 O1 S1'
_chemical_name_systematic        
5-(Biphenyl-4-yl)-2-phenyl-4-((trifluoromethyl)sulfanyl)-2,3-dihydrofuran
_symmetry_cell_setting           triclinic
_symmetry_space_group_name_H-M   'P -1'
_symmetry_Int_Tables_number      2
_space_group_name_Hall           '-P 1'
loop_
_symmetry_equiv_pos_site_id
_symmetry_equiv_pos_as_xyz
1 x,y,z
2 -x,-y,-z
_cell_length_a                   9.4049(15)
_cell_length_b                   10.3048(12)
_cell_length_c                   10.563(2)
_cell_angle_alpha                79.807(13)
_cell_angle_beta                 74.337(16)
_cell_angle_gamma                82.314(11)
_cell_volume                     966.148
_exptl_crystal_colour            colorless
_exptl_crystal_description       block
_cell_formula_units_Z            2
loop_
_atom_site_label
_atom_site_type_symbol
_atom_site_fract_x
_atom_site_fract_y
_atom_site_fract_z
S1 S 0.32513(9) 0.86866(7) 0.39583(7)
F1 F 0.2481(2) 0.7692(2) 0.64738(18)
F2 F 0.2885(3) 0.97251(19) 0.6033(2)
F3 F 0.4654(2) 0.8218(2) 0.5826(2)
O1 O 0.47216(18) 0.51022(15) 0.30532(18)
C1 C 0.1782(3) 0.2885(3) 0.4166(3)
H1 H 0.1679 0.2779 0.5078
C2 C 0.1092(4) 0.2076(3) 0.3638(5)
H2 H 0.0518 0.1434 0.4199
C3 C 0.1253(4) 0.2221(4) 0.2303(5)
H3 H 0.0771 0.1691 0.1956
C4 C 0.2113(4) 0.3133(4) 0.1478(4)
H4 H 0.2249 0.3204 0.0564
C5 C 0.2790(3) 0.3958(3) 0.1985(3)
H5 H 0.3365 0.4593 0.1411
C6 C 0.2620(3) 0.3848(2) 0.3331(3)
C7 C 0.3279(3) 0.4765(2) 0.3923(3)
H6 H 0.3420 0.4320 0.4786
C8 C 0.2386(3) 0.6103(2) 0.4107(3)
H7 H 0.1735 0.6332 0.3512
H8 H 0.1804 0.6110 0.5017
C9 C 0.3600(3) 0.7014(2) 0.3753(2)
C10 C 0.4874(3) 0.6398(2) 0.3133(2)
C11 C 0.6389(3) 0.6764(2) 0.2535(2)
C12 C 0.6743(3) 0.8073(2) 0.2168(3)
H9 H 0.5991 0.8759 0.2278
C13 C 0.8190(3) 0.8359(2) 0.1646(3)
H10 H 0.8394 0.9241 0.1411
C14 C 0.9357(3) 0.7377(2) 0.1459(2)
C15 C 0.9000(3) 0.6072(2) 0.1821(2)
H11 H 0.9754 0.5388 0.1705
C16 C 0.7555(3) 0.5773(2) 0.2348(2)
H12 H 0.7354 0.4891 0.2585
C17 C 1.0910(3) 0.7691(2) 0.0872(2)
C18 C 1.1460(3) 0.8707(3) 0.1249(3)
H13 H 1.0839 0.9202 0.1871
C19 C 1.2914(4) 0.8996(3) 0.0716(3)
H14 H 1.3266 0.9677 0.0983
C20 C 1.3840(4) 0.8274(3) -0.0211(3)
H15 H 1.4819 0.8466 -0.0573
C21 C 1.3312(3) 0.7271(3) -0.0599(3)
H16 H 1.3935 0.6781 -0.1225
C22 C 1.1852(3) 0.6987(3) -0.0062(3)
H17 H 1.1504 0.6309 -0.0337
C23 C 0.3330(4) 0.8573(3) 0.5639(3)
loop_
_geom_bond_atom_site_label_1
_geom_bond_atom_site_label_2
_geom_bond_site_symmetry_1
_geom_bond_site_symmetry_2
S1 C9 1_555 1_555
F1 C23 1_555 1_555
F2 C23 1_555 1_555
F3 C23 1_555 1_555
O1 C7 1_555 1_555
C1 H1 1_555 1_555
C2 C1 1_555 1_555
H2 C2 1_555 1_555
C3 C2 1_555 1_555
H3 C3 1_555 1_555
C4 C3 1_555 1_555
H4 C4 1_555 1_555
C5 C4 1_555 1_555
H5 C5 1_555 1_555
C6 C1 1_555 1_555
C7 C6 1_555 1_555
H6 C7 1_555 1_555
C8 C7 1_555 1_555
H7 C8 1_555 1_555
H8 C8 1_555 1_555
C9 C8 1_555 1_555
C10 O1 1_555 1_555
C11 C10 1_555 1_555
C12 C11 1_555 1_555
H9 C12 1_555 1_555
C13 C12 1_555 1_555
H10 C13 1_555 1_555
C14 C13 1_555 1_555
C15 C14 1_555 1_555
H11 C15 1_555 1_555
C16 C11 1_555 1_555
H12 C16 1_555 1_555
C17 C14 1_555 1_555
C18 C17 1_555 1_555
H13 C18 1_555 1_555
C19 C18 1_555 1_555
H14 C19 1_555 1_555
C20 C19 1_555 1_555
H15 C20 1_555 1_555
C21 C20 1_555 1_555
H16 C21 1_555 1_555
C22 C17 1_555 1_555
H17 C22 1_555 1_555
C23 S1 1_555 1_555
C5 C6 1_555 1_555
C9 C10 1_555 1_555
C15 C16 1_555 1_555
C21 C22 1_555 1_555

#END
