
#######################################################################
#
#                 Cambridge Crystallographic Data Centre
#                                CCDC 
#
#######################################################################
#
# If this CIF has been generated from an entry in the Cambridge 
# Structural Database, then it will include bibliographic, chemical, 
# crystal, experimental, refinement or atomic coordinate data resulting 
# from the CCDC's data processing and validation procedures.
#
#######################################################################

data_JUFXUD
_chemical_formula_moiety         'C36 H59 O15 1-,K1 1+,2(H2 O1)'
_chemical_name_systematic        
'Potassium cis-7\a,12\a-bis(D-glucopyranosyl)cholate dihydrate'
_symmetry_cell_setting           orthorhombic
_symmetry_space_group_name_H-M   'C 2 2 21'
_symmetry_Int_Tables_number      20
_space_group_name_Hall           'C 2n 2'
loop_
_symmetry_equiv_pos_site_id
_symmetry_equiv_pos_as_xyz
1 x,y,z
2 1/2+x,1/2+y,z
3 x,-y,-z
4 1/2+x,1/2-y,-z
5 -x,y,1/2-z
6 1/2-x,1/2+y,1/2-z
7 -x,-y,1/2+z
8 1/2-x,1/2-y,1/2+z
_cell_length_a                   8.9929(9)
_cell_length_b                   24.6248(13)
_cell_length_c                   35.3862(25)
_cell_angle_alpha                90
_cell_angle_beta                 90
_cell_angle_gamma                90
_cell_volume                     7836.22
_exptl_crystal_colour            colorless
_cell_formula_units_Z            8
loop_
_atom_site_label
_atom_site_type_symbol
_atom_site_fract_x
_atom_site_fract_y
_atom_site_fract_z
K1 K 0.5000 0.5179(2) 0.7500
K2 K 0.8579(6) 0.4216(2) 0.7190(1)
O1 O 0.8081(6) 0.2527(2) 0.6244(2)
O2 O 1.0559(9) 0.4860(4) 0.6768(2)
O3 O 0.8629(8) 0.5261(3) 0.6507(2)
O4 O 0.8951(8) 0.3253(3) 0.6809(2)
O5 O 0.8566(8) 0.2513(3) 0.7448(2)
O6 O 0.7018(8) 0.1551(3) 0.7296(2)
O7 O 0.3511(8) 0.1882(3) 0.6973(2)
O8 O 0.5754(6) 0.2406(3) 0.6523(2)
O9 O 1.1915(6) 0.3497(2) 0.6113(2)
O10 O 1.1838(8) 0.2741(3) 0.6683(2)
O11 O 1.2348(8) 0.3491(3) 0.7306(2)
O12 O 1.3187(8) 0.4556(3) 0.7087(2)
O13 O 1.6424(10) 0.4504(4) 0.6651(3)
O14 O 1.4349(7) 0.3741(3) 0.6272(2)
O15 O 1.1365(8) 0.0975(3) 0.6442(2)
C1 C 1.1848(11) 0.1693(4) 0.5504(3)
C2 C 1.2269(11) 0.1521(4) 0.5901(3)
C3 C 1.1072(11) 0.1146(4) 0.6063(3)
C4 C 0.9602(11) 0.1439(4) 0.6062(3)
C5 C 0.9154(10) 0.1658(4) 0.5676(3)
C6 C 0.7666(10) 0.1967(3) 0.5682(3)
C7 C 0.7746(9) 0.2546(4) 0.5840(2)
C8 C 0.8964(10) 0.2866(3) 0.5638(3)
C9 C 1.0468(9) 0.2556(3) 0.5676(2)
C10 C 1.0375(9) 0.1999(4) 0.5473(3)
C11 C 1.1832(11) 0.2899(4) 0.5555(3)
C12 C 1.1851(10) 0.3495(3) 0.5709(2)
C13 C 1.0398(11) 0.3777(4) 0.5596(3)
C14 C 0.9098(10) 0.3452(3) 0.5780(3)
C15 C 0.7749(10) 0.3817(4) 0.5711(3)
C16 C 0.8391(11) 0.4385(4) 0.5741(3)
C17 C 1.0096(10) 0.4348(3) 0.5764(2)
C18 C 1.0281(13) 0.3790(4) 0.5160(3)
C19 C 1.0064(11) 0.2066(4) 0.5053(3)
C20 C 1.0871(12) 0.4854(4) 0.5595(3)
C21 C 1.2551(12) 0.4809(5) 0.5549(3)
C22 C 1.0448(12) 0.5363(4) 0.5812(3)
C23 C 1.0982(11) 0.5399(4) 0.6214(3)
C24 C 0.9991(13) 0.5153(4) 0.6512(3)
C25 C 0.6986(11) 0.2765(4) 0.6474(3)
C26 C 0.7676(11) 0.2902(4) 0.6853(3)
C27 C 0.8053(11) 0.2389(4) 0.7073(3)
C28 C 0.6706(11) 0.2039(3) 0.7101(3)
C29 C 0.6047(11) 0.1916(4) 0.6724(3)
C30 C 0.4577(13) 0.1613(4) 0.6749(3)
C31 C 1.3274(10) 0.3342(4) 0.6281(2)
C32 C 1.2929(10) 0.3165(4) 0.6683(3)
C33 C 1.2484(11) 0.3642(3) 0.6917(3)
C34 C 1.3607(11) 0.4085(4) 0.6881(3)
C35 C 1.3958(11) 0.4226(4) 0.6481(3)
C36 C 1.5146(11) 0.4640(5) 0.6433(3)
H1 H 1.2621 0.1925 0.5409
H2 H 1.1781 0.1373 0.5350
H3 H 1.3202 0.1332 0.5894
H4 H 1.2358 0.1837 0.6058
H5 H 1.1061 0.0828 0.5905
H6 H 0.8847 0.1191 0.6146
H7 H 0.9665 0.1739 0.6235
H8 H 0.9023 0.1335 0.5527
H9 H 0.6978 0.1764 0.5834
H10 H 0.7301 0.1988 0.5427
H11 H 0.6804 0.2720 0.5800
H12 H 0.8696 0.2894 0.5376
H13 H 1.0631 0.2487 0.5939
H14 H 1.2711 0.2719 0.5644
H15 H 1.1849 0.2915 0.5284
H16 H 1.2704 0.3678 0.5606
H17 H 0.9238 0.3385 0.6045
H18 H 0.6997 0.3758 0.5898
H19 H 0.7337 0.3754 0.5464
H20 H 0.8113 0.4593 0.5522
H21 H 0.8015 0.4559 0.5964
H22 H 1.0534 0.4366 0.6011
H23 H 0.9373 0.3966 0.5088
H24 H 1.0286 0.3425 0.5065
H25 H 1.1111 0.3986 0.5058
H26 H 0.9144 0.2258 0.5019
H27 H 0.9996 0.1715 0.4936
H28 H 1.0857 0.2269 0.4938
H29 H 1.0501 0.4878 0.5341
H30 H 1.2786 0.4485 0.5411
H31 H 1.3011 0.4795 0.5793
H32 H 1.2913 0.5120 0.5413
H33 H 0.9382 0.5385 0.5816
H34 H 1.0845 0.5669 0.5678
H35 H 1.1927 0.5219 0.6228
H36 H 1.1106 0.5776 0.6274
H37 H 0.6620 0.3089 0.6356
H38 H 0.6955 0.3100 0.6998
H39 H 0.8834 0.2203 0.6940
H40 H 0.5984 0.2242 0.7242
H41 H 0.6768 0.1693 0.6598
H42 H 0.4759 0.1261 0.6856
H43 H 0.4183 0.1572 0.6498
H44 H 1.3700 0.3050 0.6138
H45 H 1.3808 0.3017 0.6797
H46 H 1.1538 0.3769 0.6828
H47 H 1.4504 0.3943 0.6990
H48 H 1.3066 0.4388 0.6383
H49 H 1.4777 0.4987 0.6513
H50 H 1.5419 0.4658 0.6171
O16 O 0.4660(19) 0.6050(8) 0.7066(4)
O17 O 0.8065(15) 0.5412(4) 0.7320(3)
loop_
_geom_bond_atom_site_label_1
_geom_bond_atom_site_label_2
_geom_bond_site_symmetry_1
_geom_bond_site_symmetry_2
O1 C7 1_555 1_555
O2 C24 1_555 1_555
O3 C24 1_555 1_555
O4 C26 1_555 1_555
O5 C27 1_555 1_555
O6 C28 1_555 1_555
O7 C30 1_555 1_555
O8 C25 1_555 1_555
O9 C12 1_555 1_555
O10 C32 1_555 1_555
O11 C33 1_555 1_555
O12 C34 1_555 1_555
O13 C36 1_555 1_555
O14 C31 1_555 1_555
O15 C3 1_555 1_555
C1 C2 1_555 1_555
C2 C3 1_555 1_555
C3 C4 1_555 1_555
C4 C5 1_555 1_555
C5 C6 1_555 1_555
C6 C7 1_555 1_555
C7 C8 1_555 1_555
C8 C9 1_555 1_555
C9 C10 1_555 1_555
C10 C1 1_555 1_555
C11 C9 1_555 1_555
C12 C11 1_555 1_555
C13 C12 1_555 1_555
C14 C8 1_555 1_555
C15 C14 1_555 1_555
C16 C15 1_555 1_555
C17 C13 1_555 1_555
C18 C13 1_555 1_555
C19 C10 1_555 1_555
C20 C17 1_555 1_555
C21 C20 1_555 1_555
C22 C20 1_555 1_555
C23 C22 1_555 1_555
C24 C23 1_555 1_555
C25 O1 1_555 1_555
C26 C25 1_555 1_555
C27 C26 1_555 1_555
C28 C27 1_555 1_555
C29 O8 1_555 1_555
C30 C29 1_555 1_555
C31 O9 1_555 1_555
C32 C31 1_555 1_555
C33 C32 1_555 1_555
C34 C33 1_555 1_555
C35 O14 1_555 1_555
C36 C35 1_555 1_555
H1 C1 1_555 1_555
H2 C1 1_555 1_555
H3 C2 1_555 1_555
H4 C2 1_555 1_555
H5 C3 1_555 1_555
H6 C4 1_555 1_555
H7 C4 1_555 1_555
H8 C5 1_555 1_555
H9 C6 1_555 1_555
H10 C6 1_555 1_555
H11 C7 1_555 1_555
H12 C8 1_555 1_555
H13 C9 1_555 1_555
H14 C11 1_555 1_555
H15 C11 1_555 1_555
H16 C12 1_555 1_555
H17 C14 1_555 1_555
H18 C15 1_555 1_555
H19 C15 1_555 1_555
H20 C16 1_555 1_555
H21 C16 1_555 1_555
H22 C17 1_555 1_555
H23 C18 1_555 1_555
H24 C18 1_555 1_555
H25 C18 1_555 1_555
H26 C19 1_555 1_555
H27 C19 1_555 1_555
H28 C19 1_555 1_555
H29 C20 1_555 1_555
H30 C21 1_555 1_555
H31 C21 1_555 1_555
H32 C21 1_555 1_555
H33 C22 1_555 1_555
H34 C22 1_555 1_555
H35 C23 1_555 1_555
H36 C23 1_555 1_555
H37 C25 1_555 1_555
H38 C26 1_555 1_555
H39 C27 1_555 1_555
H40 C28 1_555 1_555
H41 C29 1_555 1_555
H42 C30 1_555 1_555
H43 C30 1_555 1_555
H44 C31 1_555 1_555
H45 C32 1_555 1_555
H46 C33 1_555 1_555
H47 C34 1_555 1_555
H48 C35 1_555 1_555
H49 C36 1_555 1_555
H50 C36 1_555 1_555
C5 C10 1_555 1_555
C13 C14 1_555 1_555
C16 C17 1_555 1_555
C28 C29 1_555 1_555
C34 C35 1_555 1_555

#END
