
#######################################################################
#
#                 Cambridge Crystallographic Data Centre
#                                CCDC 
#
#######################################################################
#
# If this CIF has been generated from an entry in the Cambridge 
# Structural Database, then it will include bibliographic, chemical, 
# crystal, experimental, refinement or atomic coordinate data resulting 
# from the CCDC's data processing and validation procedures.
#
#######################################################################

data_JUFYAK
_chemical_formula_moiety         'C44 H66 O16,2.5(H2 O1)'
_chemical_name_systematic        
'3-Benzoyl-7,12-bis(D-glucopyranosyl)-17-allo-cholic acid methyl ester hydrate'
_symmetry_cell_setting           monoclinic
_symmetry_space_group_name_H-M   'C 2'
_symmetry_Int_Tables_number      5
_space_group_name_Hall           'C 2y'
loop_
_symmetry_equiv_pos_site_id
_symmetry_equiv_pos_as_xyz
1 x,y,z
2 1/2+x,1/2+y,z
3 -x,y,-z
4 1/2-x,1/2+y,-z
_cell_length_a                   35.861(8)
_cell_length_b                   8.377(2)
_cell_length_c                   16.853(4)
_cell_angle_alpha                90
_cell_angle_beta                 111.41(2)
_cell_angle_gamma                90
_cell_volume                     4713.4
_exptl_crystal_colour            colorless
_cell_formula_units_Z            4
loop_
_atom_site_label
_atom_site_type_symbol
_atom_site_fract_x
_atom_site_fract_y
_atom_site_fract_z
O1 O 0.6369(3) 0.2500 0.6693(5)
O2 O 0.6110(5) 0.2074(24) 0.0770(10)
O3 O 0.6629(4) 0.2537(21) 0.0386(8)
O4 O 0.5692(3) 0.3399(20) 0.5285(7)
O5 O 0.5138(4) 0.3242(22) 0.6144(9)
O6 O 0.5433(4) 0.1645(23) 0.7753(9)
O7 O 0.5656(3) -0.2399(19) 0.7199(6)
O8 O 0.6079(3) 0.0006(17) 0.6697(5)
O9 O 0.6322(3) 0.6169(17) 0.4851(5)
O10 O 0.5805(3) 0.6521(19) 0.5737(7)
O11 O 0.5058(4) 0.6449(21) 0.4273(8)
O12 O 0.5114(4) 0.7044(21) 0.2656(8)
O13 O 0.5641(6) 1.0260(35) 0.2577(13)
O14 O 0.6085(3) 0.8547(20) 0.4098(7)
O15 O 0.6736(3) 0.6033(18) 0.9270(6)
O16 O 0.6891(4) 0.7326(25) 1.0523(10)
C1 C 0.7056(5) 0.7059(23) 0.7883(9)
C2 C 0.7237(5) 0.7296(24) 0.8845(9)
C3 C 0.7152(5) 0.5998(23) 0.9352(10)
C4 C 0.7207(5) 0.4317(25) 0.9068(10)
C5 C 0.6998(4) 0.4156(22) 0.8082(8)
C6 C 0.7017(5) 0.2447(24) 0.7808(9)
C7 C 0.6788(4) 0.2213(25) 0.6864(9)
C8 C 0.6919(5) 0.3426(23) 0.6337(9)
C9 C 0.6884(4) 0.5114(22) 0.6617(8)
C10 C 0.7142(4) 0.5394(22) 0.7597(8)
C11 C 0.6952(4) 0.6397(24) 0.6046(8)
C12 C 0.6747(4) 0.6137(22) 0.5088(8)
C13 C 0.6857(4) 0.4486(22) 0.4848(8)
C14 C 0.6723(4) 0.3247(22) 0.5374(8)
C15 C 0.6759(5) 0.1643(25) 0.4985(9)
C16 C 0.6679(5) 0.1995(23) 0.4037(9)
C17 C 0.6636(4) 0.3856(22) 0.3948(8)
C18 C 0.7322(4) 0.4359(24) 0.5062(9)
C19 C 0.7595(4) 0.5217(24) 0.7774(9)
C20 C 0.6775(6) 0.4363(26) 0.3204(10)
C21 C 0.6783(6) 0.6158(27) 0.3106(12)
C22 C 0.6506(6) 0.3631(30) 0.2378(11)
C23 C 0.6665(5) 0.3759(27) 0.1636(10)
C24 C 0.6415(6) 0.2713(31) 0.0885(12)
C25 C 0.6419(7) 0.1468(36) -0.0340(14)
C26 C 0.6105(4) 0.1303(21) 0.6203(8)
C27 C 0.5676(4) 0.2089(24) 0.5827(10)
C28 C 0.5538(4) 0.2615(25) 0.6495(9)
C29 C 0.5518(5) 0.1113(25) 0.7019(10)
C30 C 0.5934(4) 0.0325(22) 0.7367(8)
C31 C 0.5928(4) -0.1295(23) 0.7783(9)
C32 C 0.6156(4) 0.7620(23) 0.4871(9)
C33 C 0.5754(4) 0.7383(23) 0.4995(9)
C34 C 0.5442(4) 0.6680(24) 0.4181(9)
C35 C 0.5423(5) 0.7702(28) 0.3456(10)
C36 C 0.5796(5) 0.7834(28) 0.3353(10)
C37 C 0.5831(8) 0.8727(36) 0.2594(16)
C38 C 0.6645(6) 0.6616(28) 0.9901(12)
C39 C 0.6203 0.6510 0.9757
C40 C 0.5966(4) 0.5484(20) 0.9133(8)
C41 C 0.5568 0.5266 0.9026
C42 C 0.5407 0.6075 0.9543
C43 C 0.5644 0.7101 1.0167
C44 C 0.6042 0.7318 1.0274
H1 H 0.6771 0.7197 0.7699
H2 H 0.7165 0.7851 0.7618
H3 H 0.7133 0.8274 0.8979
H4 H 0.7522 0.7382 0.9008
H5 H 0.7340 0.6195 0.9919
H6 H 0.7488 0.4100 0.9227
H7 H 0.7092 0.3562 0.9340
H8 H 0.6719 0.4403 0.7929
H9 H 0.7293 0.2164 0.7936
H10 H 0.6905 0.1763 0.8120
H11 H 0.6838 0.1150 0.6714
H12 H 0.7196 0.3184 0.6457
H13 H 0.6608 0.5231 0.6550
H14 H 0.6856 0.7390 0.6184
H15 H 0.7235 0.6470 0.6172
H16 H 0.6833 0.6967 0.4801
H17 H 0.6452 0.3403 0.5332
H18 H 0.7023 0.1208 0.5259
H19 H 0.6564 0.0906 0.5037
H20 H 0.6898 0.1632 0.3887
H21 H 0.6436 0.1483 0.3678
H22 H 0.6373 0.4313 0.3775
H23 H 0.7463 0.4753 0.5627
H24 H 0.7393 0.4983 0.4660
H25 H 0.7393 0.3263 0.5027
H26 H 0.7646 0.4179 0.7595
H27 H 0.7744 0.5342 0.8373
H28 H 0.7676 0.6020 0.7465
H29 H 0.7044 0.3977 0.3347
H30 H 0.6955 0.6624 0.3633
H31 H 0.6517 0.6574 0.2959
H32 H 0.6882 0.6415 0.2664
H33 H 0.6473 0.2521 0.2477
H34 H 0.6251 0.4159 0.2205
H35 H 0.6938 0.3412 0.1833
H36 H 0.6648 0.4849 0.1452
H37 H 0.6576 0.1353 -0.0691
H38 H 0.6163 0.1918 -0.0670
H39 H 0.6381 0.0441 -0.0128
H40 H 0.6203 0.0923 0.5776
H41 H 0.5487 0.1306 0.5502
H42 H 0.5716 0.3426 0.6828
H43 H 0.5319 0.0384 0.6668
H44 H 0.6102 0.1069 0.7776
H45 H 0.5847 -0.1139 0.8260
H46 H 0.6193 -0.1741 0.7977
H47 H 0.6343 0.8205 0.5336
H48 H 0.5651 0.8398 0.5082
H49 H 0.5520 0.5629 0.4075
H50 H 0.5352 0.8757 0.3570
H51 H 0.5841 0.6737 0.3249
H52 H 0.5695 0.8152 0.2075
H53 H 0.6107 0.8867 0.2666
H54 H 0.6077 0.4923 0.8775
H55 H 0.5403 0.4555 0.8593
H56 H 0.5131 0.5924 0.9468
H57 H 0.5533 0.7662 1.0525
H58 H 0.6207 0.8030 1.0707
O17? O 0.5607(7) 0.2362(36) 0.3715(14)
O18? O 0.5348(8) 0.2338(42) 0.0868(18)
O19? O 0.5324(9) 0.3912(44) 0.2379(19)
O20? O 0.5126(11) -0.0203(59) 0.8648(23)
loop_
_geom_bond_atom_site_label_1
_geom_bond_atom_site_label_2
_geom_bond_site_symmetry_1
_geom_bond_site_symmetry_2
O1 C7 1_555 1_555
O2 C24 1_555 1_555
O3 C24 1_555 1_555
O4 C27 1_555 1_555
O5 C28 1_555 1_555
O6 C29 1_555 1_555
O7 C31 1_555 1_555
O8 C26 1_555 1_555
O9 C12 1_555 1_555
O10 C33 1_555 1_555
O11 C34 1_555 1_555
O12 C35 1_555 1_555
O13 C37 1_555 1_555
O14 C32 1_555 1_555
O15 C3 1_555 1_555
O16 C38 1_555 1_555
C1 C2 1_555 1_555
C2 C3 1_555 1_555
C3 C4 1_555 1_555
C4 C5 1_555 1_555
C5 C6 1_555 1_555
C6 C7 1_555 1_555
C7 C8 1_555 1_555
C8 C9 1_555 1_555
C9 C10 1_555 1_555
C10 C1 1_555 1_555
C11 C9 1_555 1_555
C12 C11 1_555 1_555
C13 C12 1_555 1_555
C14 C8 1_555 1_555
C15 C14 1_555 1_555
C16 C15 1_555 1_555
C17 C13 1_555 1_555
C18 C13 1_555 1_555
C19 C10 1_555 1_555
C20 C17 1_555 1_555
C21 C20 1_555 1_555
C22 C20 1_555 1_555
C23 C22 1_555 1_555
C24 C23 1_555 1_555
C25 O3 1_555 1_555
C26 O1 1_555 1_555
C27 C26 1_555 1_555
C28 C27 1_555 1_555
C29 C28 1_555 1_555
C30 O8 1_555 1_555
C31 C30 1_555 1_555
C32 O9 1_555 1_555
C33 C32 1_555 1_555
C34 C33 1_555 1_555
C35 C34 1_555 1_555
C36 O14 1_555 1_555
C37 C36 1_555 1_555
C38 O15 1_555 1_555
C39 C38 1_555 1_555
C40 C39 1_555 1_555
C41 C40 1_555 1_555
C42 C41 1_555 1_555
C43 C42 1_555 1_555
C44 C39 1_555 1_555
H1 C1 1_555 1_555
H2 C1 1_555 1_555
H3 C2 1_555 1_555
H4 C2 1_555 1_555
H5 C3 1_555 1_555
H6 C4 1_555 1_555
H7 C4 1_555 1_555
H8 C5 1_555 1_555
H9 C6 1_555 1_555
H10 C6 1_555 1_555
H11 C7 1_555 1_555
H12 C8 1_555 1_555
H13 C9 1_555 1_555
H14 C11 1_555 1_555
H15 C11 1_555 1_555
H16 C12 1_555 1_555
H17 C14 1_555 1_555
H18 C15 1_555 1_555
H19 C15 1_555 1_555
H20 C16 1_555 1_555
H21 C16 1_555 1_555
H22 C17 1_555 1_555
H23 C18 1_555 1_555
H24 C18 1_555 1_555
H25 C18 1_555 1_555
H26 C19 1_555 1_555
H27 C19 1_555 1_555
H28 C19 1_555 1_555
H29 C20 1_555 1_555
H30 C21 1_555 1_555
H31 C21 1_555 1_555
H32 C21 1_555 1_555
H33 C22 1_555 1_555
H34 C22 1_555 1_555
H35 C23 1_555 1_555
H36 C23 1_555 1_555
H37 C25 1_555 1_555
H38 C25 1_555 1_555
H39 C25 1_555 1_555
H40 C26 1_555 1_555
H41 C27 1_555 1_555
H42 C28 1_555 1_555
H43 C29 1_555 1_555
H44 C30 1_555 1_555
H45 C31 1_555 1_555
H46 C31 1_555 1_555
H47 C32 1_555 1_555
H48 C33 1_555 1_555
H49 C34 1_555 1_555
H50 C35 1_555 1_555
H51 C36 1_555 1_555
H52 C37 1_555 1_555
H53 C37 1_555 1_555
H54 C40 1_555 1_555
H55 C41 1_555 1_555
H56 C42 1_555 1_555
H57 C43 1_555 1_555
H58 C44 1_555 1_555
C5 C10 1_555 1_555
C13 C14 1_555 1_555
C16 C17 1_555 1_555
C29 C30 1_555 1_555
C35 C36 1_555 1_555
C43 C44 1_555 1_555

#END
