
#######################################################################
#
#                 Cambridge Crystallographic Data Centre
#                                CCDC 
#
#######################################################################
#
# If this CIF has been generated from an entry in the Cambridge 
# Structural Database, then it will include bibliographic, chemical, 
# crystal, experimental, refinement or atomic coordinate data resulting 
# from the CCDC's data processing and validation procedures.
#
#######################################################################

data_JUGCIX
_chemical_formula_moiety         'C6 H11 O2 S2 1+,Cl1 1-'
_chemical_name_systematic        
'(1R,2S,4S,7aS)-1,2-Dihydroxy-7-thia-3a-thionaperhydropentalene chloride'
_chemical_properties_biological  'glycosidase inhibitory activity'
_symmetry_cell_setting           orthorhombic
_symmetry_space_group_name_H-M   'P 21 21 21'
_symmetry_Int_Tables_number      19
_space_group_name_Hall           'P 2ac 2ab'
loop_
_symmetry_equiv_pos_site_id
_symmetry_equiv_pos_as_xyz
1 x,y,z
2 1/2+x,1/2-y,-z
3 -x,1/2+y,1/2-z
4 1/2-x,-y,1/2+z
_cell_length_a                   6.226(3)
_cell_length_b                   11.247(6)
_cell_length_c                   12.780(7)
_cell_angle_alpha                90
_cell_angle_beta                 90
_cell_angle_gamma                90
_cell_volume                     894.904
_exptl_crystal_colour            colorless
_cell_formula_units_Z            4
loop_
_atom_site_label
_atom_site_type_symbol
_atom_site_fract_x
_atom_site_fract_y
_atom_site_fract_z
C1 C 0.0571(5) 0.3966(3) 0.3508(3)
C2 C -0.1119(6) 0.3243(3) 0.4081(3)
C3 C -0.2726(6) 0.2865(4) 0.3253(3)
S1 S -0.1080(2) 0.2314(1) 0.2183(1)
C4 C -0.2011(7) 0.3146(5) 0.1050(3)
C5 C -0.0952(8) 0.4363(4) 0.1058(3)
S2 S 0.1834(2) 0.4156(1) 0.1385(1)
C6 C 0.1229(5) 0.3270(3) 0.2519(3)
O1 O 0.2363(5) 0.4196(3) 0.4159(2)
O2 O -0.0099(5) 0.2232(3) 0.4533(2)
H1 H -0.009(6) 0.471(2) 0.323(2)
H2 H -0.185(6) 0.371(3) 0.464(2)
H3 H -0.355(6) 0.350(3) 0.288(3)
H4 H -0.360(5) 0.220(2) 0.355(3)
H5 H -0.142(8) 0.255(3) 0.055(3)
H6 H -0.360(1) 0.323(4) 0.113(3)
H7 H -0.167(7) 0.493(3) 0.156(3)
H8 H -0.092(8) 0.475(4) 0.035(2)
H9 H 0.245(4) 0.271(3) 0.265(3)
H10 H 0.338(6) 0.477(3) 0.382(3)
H11 H -0.122(5) 0.179(3) 0.493(3)
Cl1 Cl -0.5672(2) 0.0918(1) 0.1723(1)
loop_
_geom_bond_atom_site_label_1
_geom_bond_atom_site_label_2
_geom_bond_site_symmetry_1
_geom_bond_site_symmetry_2
C1 C2 1_555 1_555
C2 C3 1_555 1_555
C3 S1 1_555 1_555
S1 C4 1_555 1_555
C4 C5 1_555 1_555
C5 S2 1_555 1_555
S2 C6 1_555 1_555
C6 C1 1_555 1_555
O1 C1 1_555 1_555
O2 C2 1_555 1_555
H1 C1 1_555 1_555
H2 C2 1_555 1_555
H3 C3 1_555 1_555
H4 C3 1_555 1_555
H5 C4 1_555 1_555
H6 C4 1_555 1_555
H7 C5 1_555 1_555
H8 C5 1_555 1_555
H9 C6 1_555 1_555
H10 O1 1_555 1_555
H11 O2 1_555 1_555
S1 C6 1_555 1_555

#END
