
#######################################################################
#
#                 Cambridge Crystallographic Data Centre
#                                CCDC 
#
#######################################################################
#
# If this CIF has been generated from an entry in the Cambridge 
# Structural Database, then it will include bibliographic, chemical, 
# crystal, experimental, refinement or atomic coordinate data resulting 
# from the CCDC's data processing and validation procedures.
#
#######################################################################

data_JUGJUS
_chemical_formula_moiety         'C32 H26 N2 O5 S2'
_chemical_name_systematic        
5-benzylidene-3,7-bis(phenylsulfonyl)-1,2,3,4,5,7-hexahydro-6H-azocino[5,4-b]indol-6-one
_symmetry_cell_setting           orthorhombic
_symmetry_space_group_name_H-M   'P n a 21'
_symmetry_Int_Tables_number      33
_space_group_name_Hall           'P 2c -2n'
loop_
_symmetry_equiv_pos_site_id
_symmetry_equiv_pos_as_xyz
1 x,y,z
2 -x,-y,1/2+z
3 1/2-x,1/2+y,1/2+z
4 1/2+x,1/2-y,z
_cell_length_a                   13.189(5)
_cell_length_b                   13.428(5)
_cell_length_c                   15.532(6)
_cell_angle_alpha                90
_cell_angle_beta                 90
_cell_angle_gamma                90
_cell_volume                     2750.75
_exptl_crystal_colour            yellow
_exptl_crystal_description       block
_cell_formula_units_Z            4
loop_
_atom_site_label
_atom_site_type_symbol
_atom_site_fract_x
_atom_site_fract_y
_atom_site_fract_z
S1 S 0.99960(5) 0.18322(5) 0.15790(6)
S2 S 0.59448(6) 0.03172(5) 0.40729(5)
O1 O 0.94413(17) 0.24266(17) 0.09831(14)
O2 O 1.10568(15) 0.19925(15) 0.16967(16)
O3 O 0.75601(18) 0.22421(15) 0.48388(14)
O4 O 0.57411(16) 0.13574(15) 0.40850(18)
O5 O 0.53598(18) -0.03426(17) 0.45834(17)
N1 N 0.94605(16) 0.19995(16) 0.25138(15)
N2 N 0.71538(18) 0.01788(15) 0.44117(15)
C1 C 0.7497(3) 0.5306(2) 0.3248(2)
C2 C 0.7517(3) 0.6166(2) 0.2761(3)
C3 C 0.7977(3) 0.6172(2) 0.1975(2)
C4 C 0.8426(3) 0.5316(2) 0.1666(2)
C5 C 0.8421(2) 0.4452(2) 0.2151(2)
C6 C 0.7947(2) 0.4426(2) 0.2943(2)
C7 C 0.7864(2) 0.3553(2) 0.35098(19)
C8 C 0.8014(2) 0.25743(18) 0.33815(18)
C9 C 0.8340(2) 0.20894(19) 0.25549(17)
C10 C 0.9981(2) 0.1620(2) 0.3289(2)
C11 C 0.9779(2) 0.0547(2) 0.3522(2)
C12 C 0.8753(2) 0.02598(19) 0.38384(17)
C13 C 0.8541(2) -0.07635(18) 0.40885(19)
C14 C 0.9144(2) -0.1618(2) 0.4098(2)
C15 C 0.8748(3) -0.2482(2) 0.4419(2)
C16 C 0.7766(3) -0.2503(2) 0.4747(2)
C17 C 0.7160(3) -0.1672(2) 0.4762(2)
C18 C 0.7568(2) -0.08021(19) 0.44320(18)
C19 C 0.7917(2) 0.08085(17) 0.40365(18)
C20 C 0.7801(2) 0.19161(19) 0.41350(19)
C21 C 0.5957(2) -0.0099(2) 0.2996(2)
C22 C 0.6045(2) 0.0594(3) 0.2343(2)
C23 C 0.6058(3) 0.0271(4) 0.1511(3)
C24 C 0.5992(3) -0.0729(5) 0.1320(3)
C25 C 0.5914(4) -0.1410(4) 0.1985(3)
C26 C 0.5874(3) -0.1100(3) 0.2826(3)
C27 C 0.9831(2) 0.0577(2) 0.12569(19)
C28 C 1.0667(2) -0.0042(2) 0.1183(2)
C29 C 1.0532(3) -0.1014(3) 0.0911(2)
C30 C 0.9569(3) -0.1376(3) 0.0735(2)
C31 C 0.8750(3) -0.0753(3) 0.0812(3)
C32 C 0.8871(3) 0.0218(3) 0.1070(2)
H1 H 0.71820 0.53100 0.37840
H2 H 0.72150 0.67430 0.29700
H3 H 0.79890 0.67520 0.16480
H4 H 0.87340 0.53190 0.11280
H5 H 0.87400 0.38840 0.19410
H6 H 0.76680 0.37090 0.40690
H7 H 0.80370 0.14330 0.25130
H8 H 0.81020 0.24820 0.20710
H9 H 0.97850 0.20330 0.37740
H10 H 1.07050 0.17020 0.32080
H11 H 0.99230 0.01470 0.30170
H12 H 1.02660 0.03580 0.39600
H13 H 0.98040 -0.15990 0.38900
H14 H 0.91370 -0.30600 0.44170
H15 H 0.75130 -0.30990 0.49630
H16 H 0.65060 -0.16920 0.49830
H17 H 0.60950 0.12700 0.24680
H18 H 0.61130 0.07310 0.10670
H19 H 0.60000 -0.09430 0.07510
H20 H 0.58890 -0.20870 0.18610
H21 H 0.57920 -0.15570 0.32710
H22 H 1.13110 0.01930 0.13150
H23 H 1.10920 -0.14290 0.08450
H24 H 0.94800 -0.20350 0.05670
H25 H 0.81040 -0.09910 0.06880
H26 H 0.83100 0.06340 0.11190
loop_
_geom_bond_atom_site_label_1
_geom_bond_atom_site_label_2
_geom_bond_site_symmetry_1
_geom_bond_site_symmetry_2
S1 O1 1_555 1_555
S2 O4 1_555 1_555
O2 S1 1_555 1_555
O3 C20 1_555 1_555
O5 S2 1_555 1_555
N1 S1 1_555 1_555
N2 S2 1_555 1_555
C1 C2 1_555 1_555
C2 C3 1_555 1_555
C3 C4 1_555 1_555
C4 C5 1_555 1_555
C5 C6 1_555 1_555
C6 C1 1_555 1_555
C7 C6 1_555 1_555
C8 C7 1_555 1_555
C9 N1 1_555 1_555
C10 N1 1_555 1_555
C11 C10 1_555 1_555
C12 C11 1_555 1_555
C13 C12 1_555 1_555
C14 C13 1_555 1_555
C15 C14 1_555 1_555
C16 C15 1_555 1_555
C17 C16 1_555 1_555
C18 N2 1_555 1_555
C19 N2 1_555 1_555
C20 C8 1_555 1_555
C21 S2 1_555 1_555
C22 C21 1_555 1_555
C23 C22 1_555 1_555
C24 C23 1_555 1_555
C25 C24 1_555 1_555
C26 C21 1_555 1_555
C27 S1 1_555 1_555
C28 C27 1_555 1_555
C29 C28 1_555 1_555
C30 C29 1_555 1_555
C31 C30 1_555 1_555
C32 C27 1_555 1_555
H1 C1 1_555 1_555
H2 C2 1_555 1_555
H3 C3 1_555 1_555
H4 C4 1_555 1_555
H5 C5 1_555 1_555
H6 C7 1_555 1_555
H7 C9 1_555 1_555
H8 C9 1_555 1_555
H9 C10 1_555 1_555
H10 C10 1_555 1_555
H11 C11 1_555 1_555
H12 C11 1_555 1_555
H13 C14 1_555 1_555
H14 C15 1_555 1_555
H15 C16 1_555 1_555
H16 C17 1_555 1_555
H17 C22 1_555 1_555
H18 C23 1_555 1_555
H19 C24 1_555 1_555
H20 C25 1_555 1_555
H21 C26 1_555 1_555
H22 C28 1_555 1_555
H23 C29 1_555 1_555
H24 C30 1_555 1_555
H25 C31 1_555 1_555
H26 C32 1_555 1_555
C8 C9 1_555 1_555
C12 C19 1_555 1_555
C13 C18 1_555 1_555
C17 C18 1_555 1_555
C19 C20 1_555 1_555
C25 C26 1_555 1_555
C31 C32 1_555 1_555

#END
