
#######################################################################
#
#                 Cambridge Crystallographic Data Centre
#                                CCDC 
#
#######################################################################
#
# If this CIF has been generated from an entry in the Cambridge 
# Structural Database, then it will include bibliographic, chemical, 
# crystal, experimental, refinement or atomic coordinate data resulting 
# from the CCDC's data processing and validation procedures.
#
#######################################################################

data_JUGNII01
_chemical_formula_moiety         'C8 H10 N2 O2 S1,H2 O1'
_chemical_name_systematic        
'2-((4,6-Dimethyl-2-pyrimidinyl)thio)acetic acid monohydrate'
_symmetry_cell_setting           monoclinic
_symmetry_space_group_name_H-M   'P 21/c'
_symmetry_Int_Tables_number      14
_space_group_name_Hall           '-P 2ybc'
loop_
_symmetry_equiv_pos_site_id
_symmetry_equiv_pos_as_xyz
1 x,y,z
2 -x,1/2+y,1/2-z
3 -x,-y,-z
4 x,1/2-y,1/2+z
_cell_length_a                   7.6622(18)
_cell_length_b                   10.746(3)
_cell_length_c                   13.271(3)
_cell_angle_alpha                90
_cell_angle_beta                 100.779(4)
_cell_angle_gamma                90
_cell_volume                     1073.43
_cell_formula_units_Z            4
loop_
_atom_site_label
_atom_site_type_symbol
_atom_site_fract_x
_atom_site_fract_y
_atom_site_fract_z
S1 S 0.81820(10) 0.18125(7) 0.84667(5)
O1 O 0.8798(3) 0.4129(2) 1.07704(16)
H1 H 0.8111 0.4577 1.1009
O2 O 0.6506(3) 0.3944(2) 0.94921(17)
N1 N 0.7942(3) 0.0826(2) 1.02807(15)
N2 N 0.7032(3) -0.04064(19) 0.87771(15)
C1 C 0.8012(4) 0.3710(3) 0.9878(2)
C2 C 0.9235(3) 0.2923(2) 0.9383(2)
H2 H 1.0032 0.2481 0.9919
H3 H 0.9955 0.3469 0.9047
C3 C 0.7672(3) 0.0627(2) 0.92806(19)
C4 C 0.7506(4) -0.0111(3) 1.0851(2)
C5 C 0.7828(5) 0.0092(3) 1.1989(2)
H4 H 0.8796 0.0664 1.2180
H5 H 0.8118 -0.0687 1.2334
H6 H 0.6777 0.0429 1.2180
C6 C 0.6820(4) -0.1209(3) 1.0408(2)
H7 H 0.6513 -0.1851 1.0812
C7 C 0.6596(3) -0.1344(3) 0.9356(2)
C8 C 0.5927(4) -0.2512(3) 0.8818(2)
H8 H 0.5274 -0.2315 0.8147
H9 H 0.5163 -0.2934 0.9203
H10 H 0.6913 -0.3040 0.8757
O3 O 0.6910(3) 0.5685(2) 0.16163(16)
H11 H 0.586(2) 0.577(3) 0.1262(17)
H12 H 0.694(4) 0.568(3) 0.2267(8)
loop_
_geom_bond_atom_site_label_1
_geom_bond_atom_site_label_2
_geom_bond_site_symmetry_1
_geom_bond_site_symmetry_2
S1 C2 1_555 1_555
O1 H1 1_555 1_555
O2 C1 1_555 1_555
N1 C3 1_555 1_555
N2 C3 1_555 1_555
C1 O1 1_555 1_555
C2 C1 1_555 1_555
H2 C2 1_555 1_555
H3 C2 1_555 1_555
C3 S1 1_555 1_555
C4 N1 1_555 1_555
C5 C4 1_555 1_555
H4 C5 1_555 1_555
H5 C5 1_555 1_555
H6 C5 1_555 1_555
C6 C4 1_555 1_555
H7 C6 1_555 1_555
C7 N2 1_555 1_555
C8 C7 1_555 1_555
H8 C8 1_555 1_555
H9 C8 1_555 1_555
H10 C8 1_555 1_555
O3 H11 1_555 1_555
H12 O3 1_555 1_555
C6 C7 1_555 1_555

#END
