
#######################################################################
#
#                 Cambridge Crystallographic Data Centre
#                                CCDC 
#
#######################################################################
#
# If this CIF has been generated from an entry in the Cambridge 
# Structural Database, then it will include bibliographic, chemical, 
# crystal, experimental, refinement or atomic coordinate data resulting 
# from the CCDC's data processing and validation procedures.
#
#######################################################################

data_JUGQEJ
_chemical_formula_moiety         'C16 H13 N1 O2'
_chemical_name_systematic        1-methoxy-3-phenylquinolin-2(1H)-one
_symmetry_cell_setting           monoclinic
_symmetry_space_group_name_H-M   'P 21'
_symmetry_Int_Tables_number      4
_space_group_name_Hall           'P 2yb'
loop_
_symmetry_equiv_pos_site_id
_symmetry_equiv_pos_as_xyz
1 x,y,z
2 -x,1/2+y,-z
_cell_length_a                   8.3004(4)
_cell_length_b                   21.1079(9)
_cell_length_c                   14.7263(6)
_cell_angle_alpha                90
_cell_angle_beta                 90.917(3)
_cell_angle_gamma                90
_cell_volume                     2579.78
_exptl_crystal_description       block
_cell_formula_units_Z            8
loop_
_atom_site_label
_atom_site_type_symbol
_atom_site_fract_x
_atom_site_fract_y
_atom_site_fract_z
O1 O -0.4597(9) 0.0356(3) 0.3575(4)
O2 O -0.3471(10) 0.1519(4) 0.3683(4)
N1 N -0.4434(9) 0.0745(4) 0.2789(4)
C1 C -0.6008(17) 0.0522(7) 0.4073(9)
H1 H -0.6899 0.0580 0.3658
H2 H -0.5815 0.0908 0.4402
H3 H -0.6253 0.0188 0.4492
C2 C -0.6012(15) -0.0389(5) 0.1078(8)
H4 H -0.6493 -0.0787 0.1041
C3 C -0.5704(14) -0.0065(5) 0.0291(7)
H5 H -0.5986 -0.0241 -0.0268
C4 C -0.4966(12) 0.0532(5) 0.0329(6)
H6 H -0.4766 0.0752 -0.0203
C5 C -0.4528(11) 0.0797(4) 0.1174(5)
C6 C -0.4864(11) 0.0454(4) 0.1977(5)
C7 C -0.5623(12) -0.0140(5) 0.1930(7)
H7 H -0.5862 -0.0362 0.2456
C8 C -0.3826(11) 0.1402(4) 0.1246(6)
H8 H -0.3605 0.1623 0.0717
C9 C -0.3455(10) 0.1678(4) 0.2069(5)
C10 C -0.3750(11) 0.1326(5) 0.2909(5)
C11 C -0.2800(11) 0.2323(5) 0.2114(6)
C12 C -0.3353(14) 0.2780(5) 0.1514(7)
H9 H -0.4189 0.2681 0.1111
C13 C -0.2686(15) 0.3387(6) 0.1500(8)
H10 H -0.3000 0.3674 0.1052
C14 C -0.1584(14) 0.3556(6) 0.2137(8)
H11 H -0.1189 0.3968 0.2152
C15 C -0.1044(12) 0.3121(6) 0.2763(6)
H12 H -0.0279 0.3239 0.3198
C16 C -0.1615(11) 0.2521(5) 0.2752(6)
H13 H -0.1217 0.2232 0.3176
O3 O -0.2652(8) 0.2886(3) -0.1411(4)
O4 O -0.3667(9) 0.1706(3) -0.1275(4)
N2 N -0.2818(8) 0.2501(3) -0.2182(4)
C17 C -0.1098(14) 0.2741(6) -0.0952(7)
H14 H -0.0262 0.2723 -0.1394
H15 H -0.1172 0.2340 -0.0648
H16 H -0.0852 0.3067 -0.0516
C18 C -0.1966(12) 0.3401(5) -0.3074(7)
H17 H -0.1766 0.3638 -0.2551
C19 C -0.1701(16) 0.3656(6) -0.3920(7)
H18 H -0.1341 0.4072 -0.3966
C20 C -0.1960(16) 0.3305(6) -0.4707(8)
H19 H -0.1782 0.3485 -0.5273
C21 C -0.2485(13) 0.2688(5) -0.4638(6)
H20 H -0.2653 0.2448 -0.5160
C22 C -0.2769(11) 0.2421(4) -0.3782(6)
C23 C -0.2531(10) 0.2789(4) -0.3016(5)
C24 C -0.3362(11) 0.1790(4) -0.3686(5)
H21 H -0.3556 0.1552 -0.4208
C25 C -0.3653(10) 0.1524(4) -0.2873(5)
C26 C -0.3427(10) 0.1897(4) -0.2039(5)
C27 C -0.4215(11) 0.0863(4) -0.2794(5)
C28 C -0.5461(11) 0.0672(5) -0.2229(6)
H22 H -0.5973 0.0971 -0.1870
C29 C -0.5941(12) 0.0049(5) -0.2195(6)
H23 H -0.6770 -0.0072 -0.1814
C30 C -0.5203(14) -0.0389(6) -0.2720(7)
H24 H -0.5532 -0.0810 -0.2698
C31 C -0.3985(15) -0.0219(5) -0.3278(7)
H25 H -0.3495 -0.0523 -0.3639
C32 C -0.3483(12) 0.0396(5) -0.3310(7)
H26 H -0.2635 0.0505 -0.3685
O5 O 0.0514(9) 0.0265(4) -0.0973(4)
O6 O 0.1560(9) 0.1445(4) -0.1134(4)
N3 N 0.0644(9) 0.0663(4) -0.0220(4)
C33 C -0.0857(19) 0.0409(7) -0.1498(8)
H27 H -0.0867 0.0156 -0.2039
H28 H -0.0839 0.0850 -0.1660
H29 H -0.1804 0.0322 -0.1154
C34 C -0.0371(13) -0.0221(5) 0.0648(7)
H30 H -0.0524 -0.0461 0.0125
C35 C -0.0755(15) -0.0465(6) 0.1513(8)
H31 H -0.1123 -0.0880 0.1558
C36 C -0.0600(15) -0.0108(6) 0.2284(8)
H32 H -0.0926 -0.0271 0.2838
C37 C 0.0050(13) 0.0505(5) 0.2240(6)
H33 H 0.0205 0.0741 0.2767
C38 C 0.0465(11) 0.0757(5) 0.1395(6)
C39 C 0.0244(11) 0.0392(4) 0.0606(6)
C40 C 0.1110(11) 0.1389(4) 0.1295(6)
H34 H 0.1258 0.1637 0.1812
C41 C 0.1507(10) 0.1633(4) 0.0480(5)
C42 C 0.1258(11) 0.1258(5) -0.0349(5)
C43 C 0.2110(11) 0.2289(4) 0.0396(6)
C44 C 0.1501(13) 0.2754(5) 0.0964(7)
H35 H 0.0714 0.2653 0.1382
C45 C 0.2073(14) 0.3375(6) 0.0906(8)
H36 H 0.1656 0.3683 0.1289
C46 C 0.3228(14) 0.3542(6) 0.0303(8)
H37 H 0.3591 0.3957 0.0263
C47 C 0.3847(13) 0.3070(6) -0.0251(7)
H38 H 0.4648 0.3175 -0.0659
C48 C 0.3322(11) 0.2460(5) -0.0216(6)
H39 H 0.3763 0.2156 -0.0596
O7 O 0.1283(9) 0.1739(3) -0.6147(4)
O8 O 0.2411(10) 0.2904(3) -0.6023(4)
N4 N 0.2244(9) 0.2531(4) -0.5246(4)
C49 C 0.3804(15) 0.2752(7) -0.6507(7)
H40 H 0.3884 0.3027 -0.7025
H41 H 0.3745 0.2320 -0.6707
H42 H 0.4736 0.2807 -0.6120
C50 C 0.3259(12) 0.3428(5) -0.4392(7)
H43 H 0.3427 0.3659 -0.4920
C51 C 0.3631(15) 0.3679(6) -0.3544(9)
H44 H 0.4048 0.4087 -0.3505
C52 C 0.3400(15) 0.3336(6) -0.2745(8)
H45 H 0.3679 0.3515 -0.2188
C53 C 0.2770(13) 0.2743(5) -0.2775(7)
H46 H 0.2592 0.2517 -0.2244
C54 C 0.2387(11) 0.2475(5) -0.3638(6)
C55 C 0.2631(11) 0.2825(4) -0.4424(6)
C56 C 0.1734(11) 0.1846(5) -0.3724(5)
H47 H 0.1563 0.1614 -0.3198
C57 C 0.1356(10) 0.1577(4) -0.4536(5)
C58 C 0.1595(10) 0.1935(4) -0.5373(6)
C59 C 0.0731(11) 0.0915(4) -0.4603(5)
C60 C 0.1402(13) 0.0448(5) -0.4050(6)
H48 H 0.2249 0.0553 -0.3657
C61 C 0.0840(14) -0.0164(5) -0.4072(7)
H49 H 0.1309 -0.0470 -0.3698
C62 C -0.0402(12) -0.0322(5) -0.4641(7)
H50 H -0.0782 -0.0736 -0.4652
C63 C -0.1100(12) 0.0122(5) -0.5199(6)
H51 H -0.1947 0.0010 -0.5587
C64 C -0.0527(11) 0.0747(5) -0.5179(5)
H52 H -0.0998 0.1050 -0.5557
loop_
_geom_bond_atom_site_label_1
_geom_bond_atom_site_label_2
_geom_bond_site_symmetry_1
_geom_bond_site_symmetry_2
O1 N1 1_555 1_555
O2 C10 1_555 1_555
N1 C6 1_555 1_555
C1 O1 1_555 1_555
H1 C1 1_555 1_555
H2 C1 1_555 1_555
H3 C1 1_555 1_555
C2 H4 1_555 1_555
C3 C2 1_555 1_555
H5 C3 1_555 1_555
C4 C3 1_555 1_555
H6 C4 1_555 1_555
C5 C4 1_555 1_555
C6 C5 1_555 1_555
C7 C2 1_555 1_555
H7 C7 1_555 1_555
C8 C5 1_555 1_555
H8 C8 1_555 1_555
C9 C8 1_555 1_555
C10 N1 1_555 1_555
C11 C9 1_555 1_555
C12 C11 1_555 1_555
H9 C12 1_555 1_555
C13 C12 1_555 1_555
H10 C13 1_555 1_555
C14 C13 1_555 1_555
H11 C14 1_555 1_555
C15 C14 1_555 1_555
H12 C15 1_555 1_555
C16 C11 1_555 1_555
H13 C16 1_555 1_555
O3 N2 1_555 1_555
O4 C26 1_555 1_555
N2 C23 1_555 1_555
C17 O3 1_555 1_555
H14 C17 1_555 1_555
H15 C17 1_555 1_555
H16 C17 1_555 1_555
C18 H17 1_555 1_555
C19 C18 1_555 1_555
H18 C19 1_555 1_555
C20 C19 1_555 1_555
H19 C20 1_555 1_555
C21 C20 1_555 1_555
H20 C21 1_555 1_555
C22 C21 1_555 1_555
C23 C18 1_555 1_555
C24 C22 1_555 1_555
H21 C24 1_555 1_555
C25 C24 1_555 1_555
C26 N2 1_555 1_555
C27 C25 1_555 1_555
C28 C27 1_555 1_555
H22 C28 1_555 1_555
C29 C28 1_555 1_555
H23 C29 1_555 1_555
C30 C29 1_555 1_555
H24 C30 1_555 1_555
C31 C30 1_555 1_555
H25 C31 1_555 1_555
C32 C27 1_555 1_555
H26 C32 1_555 1_555
O5 N3 1_555 1_555
O6 C42 1_555 1_555
N3 C39 1_555 1_555
C33 O5 1_555 1_555
H27 C33 1_555 1_555
H28 C33 1_555 1_555
H29 C33 1_555 1_555
C34 H30 1_555 1_555
C35 C34 1_555 1_555
H31 C35 1_555 1_555
C36 C35 1_555 1_555
H32 C36 1_555 1_555
C37 C36 1_555 1_555
H33 C37 1_555 1_555
C38 C37 1_555 1_555
C39 C34 1_555 1_555
C40 C38 1_555 1_555
H34 C40 1_555 1_555
C41 C40 1_555 1_555
C42 N3 1_555 1_555
C43 C41 1_555 1_555
C44 C43 1_555 1_555
H35 C44 1_555 1_555
C45 C44 1_555 1_555
H36 C45 1_555 1_555
C46 C45 1_555 1_555
H37 C46 1_555 1_555
C47 C46 1_555 1_555
H38 C47 1_555 1_555
C48 C43 1_555 1_555
H39 C48 1_555 1_555
O7 C58 1_555 1_555
O8 N4 1_555 1_555
N4 C55 1_555 1_555
C49 O8 1_555 1_555
H40 C49 1_555 1_555
H41 C49 1_555 1_555
H42 C49 1_555 1_555
C50 H43 1_555 1_555
C51 C50 1_555 1_555
H44 C51 1_555 1_555
C52 C51 1_555 1_555
H45 C52 1_555 1_555
C53 C52 1_555 1_555
H46 C53 1_555 1_555
C54 C53 1_555 1_555
C55 C50 1_555 1_555
C56 C54 1_555 1_555
H47 C56 1_555 1_555
C57 C56 1_555 1_555
C58 N4 1_555 1_555
C59 C57 1_555 1_555
C60 C59 1_555 1_555
H48 C60 1_555 1_555
C61 C60 1_555 1_555
H49 C61 1_555 1_555
C62 C61 1_555 1_555
H50 C62 1_555 1_555
C63 C62 1_555 1_555
H51 C63 1_555 1_555
C64 C59 1_555 1_555
H52 C64 1_555 1_555
C6 C7 1_555 1_555
C9 C10 1_555 1_555
C15 C16 1_555 1_555
C22 C23 1_555 1_555
C25 C26 1_555 1_555
C31 C32 1_555 1_555
C38 C39 1_555 1_555
C41 C42 1_555 1_555
C47 C48 1_555 1_555
C54 C55 1_555 1_555
C57 C58 1_555 1_555
C63 C64 1_555 1_555

#END
