
#######################################################################
#
#                 Cambridge Crystallographic Data Centre
#                                CCDC 
#
#######################################################################
#
# If this CIF has been generated from an entry in the Cambridge 
# Structural Database, then it will include bibliographic, chemical, 
# crystal, experimental, refinement or atomic coordinate data resulting 
# from the CCDC's data processing and validation procedures.
#
#######################################################################

data_JUGQUZ
_chemical_formula_moiety         'C31 H29 N1 O5'
_chemical_name_systematic        
'ethyl 3-amino-2-(2,3-bis(4-methoxyphenyl)-5-(4-methylphenyl)cyclopenta-2,4-dien-1-ylidene)-3-oxopropanoate'
_symmetry_cell_setting           triclinic
_symmetry_space_group_name_H-M   'P -1'
_symmetry_Int_Tables_number      2
_space_group_name_Hall           '-P 1'
loop_
_symmetry_equiv_pos_site_id
_symmetry_equiv_pos_as_xyz
1 x,y,z
2 -x,-y,-z
_cell_length_a                   5.8328(6)
_cell_length_b                   11.8968(14)
_cell_length_c                   19.757(2)
_cell_angle_alpha                78.469(4)
_cell_angle_beta                 88.020(4)
_cell_angle_gamma                82.246(4)
_cell_volume                     1330.98
_exptl_crystal_colour            red
_exptl_crystal_description       BLOCK
_cell_formula_units_Z            2
loop_
_atom_site_label
_atom_site_type_symbol
_atom_site_fract_x
_atom_site_fract_y
_atom_site_fract_z
O1 O 0.7295(2) 0.14758(11) 0.18112(7)
O2 O 0.6929(3) 0.49485(13) 0.07037(7)
O3 O -0.2070(2) 0.72754(13) 0.46738(7)
C1 C 0.6883(3) 0.31518(15) 0.30062(9)
C2 C 0.4101(3) 0.46866(15) 0.31252(9)
C3 C 0.6082(3) 0.37945(14) 0.23096(8)
C4 C 0.3287(3) 0.57554(15) 0.19006(8)
C5 C 0.4376(3) 0.47845(15) 0.24325(8)
O4 O 0.0280(3) 0.86412(12) 0.05160(8)
N1 N 0.4135(3) 0.38110(17) 0.07124(10)
C6 C 0.6636(3) 0.34891(15) 0.16976(9)
C7 C 0.8243(3) 0.24361(16) 0.16024(9)
C8 C 0.5859(3) 0.41790(16) 0.09932(9)
C9 C -0.0484(3) 0.66507(16) 0.43204(9)
C10 C 0.8621(3) 0.21149(15) 0.31813(9)
C11 C 0.1186(3) 0.76525(16) 0.09583(9)
C12 C 1.0854(3) 0.20641(16) 0.29099(10)
H1 H 1.1304 0.2718 0.2600
C13 C 0.2519(3) 0.53951(15) 0.35190(9)
C14 C 0.1394(3) 0.56809(16) 0.15200(9)
H2 H 0.0789 0.4964 0.1584
C15 C 0.5684(3) 0.36819(16) 0.34653(9)
H3 H 0.5834 0.3440 0.3952
C16 C 0.1666(3) 0.61484(18) 0.45637(10)
H4 H 0.2144 0.6224 0.5006
C17 C 0.3133(3) 0.55326(18) 0.41632(10)
H5 H 0.4617 0.5192 0.4338
C18 C 0.0346(3) 0.66102(16) 0.10493(9)
H6 H -0.0945 0.6528 0.0791
C19 C 1.2425(3) 0.10811(17) 0.30830(11)
H7 H 1.3933 0.1067 0.2884
C20 C -0.1159(3) 0.65189(19) 0.36785(11)
H8 H -0.2651 0.6856 0.3509
C21 C 0.4097(3) 0.68191(16) 0.17997(10)
H9 H 0.5395 0.6901 0.2055
C22 C 1.1861(3) 0.01160(18) 0.35386(12)
C23 C 0.8076(3) 0.11585(16) 0.36547(10)
H10 H 0.6579 0.1176 0.3861
C24 C 0.3073(4) 0.77523(17) 0.13425(12)
H11 H 0.3654 0.8474 0.1287
C25 C 0.0305(3) 0.59084(18) 0.32872(10)
H12 H -0.0189 0.5829 0.2848
C26 C 0.9667(4) 0.01820(18) 0.38314(12)
H13 H 0.9250 -0.0458 0.4160
C27 C -0.1358(4) 0.7483(2) 0.53127(11)
H14 H -0.1017 0.6745 0.5638
H15 H -0.2599 0.7975 0.5502
H16 H 0.0033 0.7872 0.5239
C28 C -0.1704(4) 0.8594(2) 0.01327(12)
H17 H -0.1321 0.8042 -0.0174
H18 H -0.2216 0.9363 -0.0143
H19 H -0.2947 0.8345 0.0451
C29 C 0.8686(5) 0.0409(2) 0.16982(15)
H20 H 0.8770 0.0394 0.1199
H21 H 1.0279 0.0369 0.1867
C30 C 1.3551(4) -0.0976(2) 0.3718(2)
H22 H 1.5135 -0.0785 0.3645
H23 H 1.3276 -0.1513 0.3421
H24 H 1.3339 -0.1338 0.4202
C31 C 0.7611(7) -0.0569(2) 0.2070(2)
H25 H 0.7545 -0.0551 0.2564
H26 H 0.8524 -0.1291 0.1998
H27 H 0.6040 -0.0525 0.1897
O5 O 1.0106(3) 0.24755(13) 0.13253(7)
H28 H 0.356(4) 0.414(2) 0.0326(14)
H29 H 0.318(4) 0.331(2) 0.0952(12)
loop_
_geom_bond_atom_site_label_1
_geom_bond_atom_site_label_2
_geom_bond_site_symmetry_1
_geom_bond_site_symmetry_2
O1 C7 1_555 1_555
O2 C8 1_555 1_555
O3 C9 1_555 1_555
C1 C3 1_555 1_555
C2 C5 1_555 1_555
C3 C5 1_555 1_555
C4 C5 1_555 1_555
O4 C11 1_555 1_555
N1 C8 1_555 1_555
C6 C3 1_555 1_555
C7 C6 1_555 1_555
C8 C6 1_555 1_555
C9 C16 1_555 1_555
C10 C1 1_555 1_555
C11 C18 1_555 1_555
C12 C10 1_555 1_555
H1 C12 1_555 1_555
C13 C2 1_555 1_555
C14 C4 1_555 1_555
H2 C14 1_555 1_555
C15 C1 1_555 1_555
H3 C15 1_555 1_555
C16 H4 1_555 1_555
C17 C13 1_555 1_555
H5 C17 1_555 1_555
C18 C14 1_555 1_555
H6 C18 1_555 1_555
C19 C12 1_555 1_555
H7 C19 1_555 1_555
C20 C9 1_555 1_555
H8 C20 1_555 1_555
C21 C4 1_555 1_555
H9 C21 1_555 1_555
C22 C19 1_555 1_555
C23 C10 1_555 1_555
H10 C23 1_555 1_555
C24 C11 1_555 1_555
H11 C24 1_555 1_555
C25 C13 1_555 1_555
H12 C25 1_555 1_555
C26 C22 1_555 1_555
H13 C26 1_555 1_555
C27 O3 1_555 1_555
H14 C27 1_555 1_555
H15 C27 1_555 1_555
H16 C27 1_555 1_555
C28 O4 1_555 1_555
H17 C28 1_555 1_555
H18 C28 1_555 1_555
H19 C28 1_555 1_555
C29 O1 1_555 1_555
H20 C29 1_555 1_555
H21 C29 1_555 1_555
C30 C22 1_555 1_555
H22 C30 1_555 1_555
H23 C30 1_555 1_555
H24 C30 1_555 1_555
C31 C29 1_555 1_555
H25 C31 1_555 1_555
H26 C31 1_555 1_555
H27 C31 1_555 1_555
O5 C7 1_555 1_555
H28 N1 1_555 1_555
H29 N1 1_555 1_555
C2 C15 1_555 1_555
C16 C17 1_555 1_555
C20 C25 1_555 1_555
C21 C24 1_555 1_555
C23 C26 1_555 1_555

#END
