
#######################################################################
#
#                 Cambridge Crystallographic Data Centre
#                                CCDC 
#
#######################################################################
#
# If this CIF has been generated from an entry in the Cambridge 
# Structural Database, then it will include bibliographic, chemical, 
# crystal, experimental, refinement or atomic coordinate data resulting 
# from the CCDC's data processing and validation procedures.
#
#######################################################################

data_JUGWIR
_chemical_formula_moiety         'C25 H25 N1 O1'
_chemical_name_systematic        
9,10-Dihydro-9-imino-10-methoxyphenyl-1,4,5,8-tetramethylanthracene
_symmetry_cell_setting           triclinic
_symmetry_space_group_name_H-M   'P -1'
_symmetry_Int_Tables_number      2
_space_group_name_Hall           '-P 1'
loop_
_symmetry_equiv_pos_site_id
_symmetry_equiv_pos_as_xyz
1 x,y,z
2 -x,-y,-z
_cell_length_a                   7.796(4)
_cell_length_b                   11.235(6)
_cell_length_c                   12.001(6)
_cell_angle_alpha                102.36(4)
_cell_angle_beta                 104.00(4)
_cell_angle_gamma                106.27(4)
_cell_volume                     933.181
_cell_formula_units_Z            2
loop_
_atom_site_label
_atom_site_type_symbol
_atom_site_fract_x
_atom_site_fract_y
_atom_site_fract_z
C1 C 0.5513(5) 0.6444(3) 1.2670(3)
C2 C 0.9052(5) 0.7197(3) 1.3085(3)
C3 C 1.0856(5) 0.7850(4) 1.3902(4)
C4 C 1.1152(6) 0.8495(4) 1.5070(4)
C5 C 0.9677(5) 0.8548(3) 1.5510(3)
C6 C 0.6122(5) 0.7833(4) 1.5066(3)
C7 C 0.3448(5) 0.6050(4) 1.5219(4)
C8 C 0.1963(6) 0.4890(4) 1.4607(4)
C9 C 0.1556(6) 0.4262(4) 1.3428(4)
C10 C 0.2651(5) 0.4743(4) 1.2743(3)
C11 C 0.7513(5) 0.7192(3) 1.3503(3)
C12 C 0.7843(5) 0.7884(3) 1.4695(3)
C13 C 0.4551(5) 0.6567(3) 1.4531(3)
C14 C 0.4200(5) 0.5896(3) 1.3343(3)
C15 C 0.4737(5) 0.7232(3) 1.1907(3)
C16 C 0.4682(5) 0.8438(4) 1.2420(4)
C17 C 0.3937(5) 0.9138(4) 1.1739(4)
C18 C 0.3207(5) 0.8605(4) 1.0508(4)
C19 C 0.3235(6) 0.7414(4) 0.9965(4)
C20 C 0.4011(6) 0.6742(4) 1.0671(4)
C21 C 0.8814(7) 0.6506(5) 1.1807(4)
C22 C 1.0100(7) 0.9247(5) 1.6808(4)
N1 N 0.5940(5) 0.8803(3) 1.5735(3)
C23 C 0.3835(7) 0.6689(5) 1.6521(4)
C24 C 0.2153(7) 0.3988(5) 1.1459(5)
O1 O 0.2420(4) 0.9209(3) 0.9737(3)
C25 C 0.2507(8) 1.0495(5) 1.0250(5)
H1 H 0.5418(38) 0.5700(28) 1.2104(25)
H2 H 1.1884(56) 0.7895(36) 1.3564(34)
H3 H 1.2408(45) 0.9003(29) 1.5609(27)
H4 H 0.1301(51) 0.4510(34) 1.5070(32)
H5 H 0.0484(49) 0.3444(33) 1.2895(30)
H6 H 0.5237(45) 0.8814(31) 1.3238(30)
H7 H 0.3940(43) 0.9941(31) 1.2114(27)
H8 H 0.2716(58) 0.7016(39) 0.9087(39)
H9 H 0.4099(57) 0.5905(41) 1.0265(36)
H10 H 0.7872(67) 0.6847(46) 1.1196(42)
H11 H 1.0098(83) 0.6785(52) 1.1696(47)
H12 H 0.8283(68) 0.5561(50) 1.1571(42)
H13 H 0.9170(66) 0.8941(43) 1.7245(40)
H14 H 1.1285(68) 0.9292(42) 1.7312(40)
H15 H 1.0168(60) 1.0170(46) 1.7007(37)
H16 H 0.6995(63) 0.9545(43) 1.6132(39)
H17 H 0.3333(53) 0.6058(38) 1.6919(34)
H18 H 0.5391(70) 0.7158(43) 1.7090(41)
H19 H 0.3419(62) 0.7433(43) 1.6680(38)
H20 H 0.1176(67) 0.3197(47) 1.1184(40)
H21 H 0.1730(58) 0.4484(40) 1.0886(37)
H22 H 0.3275(72) 0.3874(44) 1.1301(42)
H23 H 0.2229(59) 1.0869(42) 0.9557(41)
H24 H 0.1856(65) 1.0484(41) 1.0903(41)
H25 H 0.3819(66) 1.0973(42) 1.0786(39)
loop_
_geom_bond_atom_site_label_1
_geom_bond_atom_site_label_2
_geom_bond_site_symmetry_1
_geom_bond_site_symmetry_2
C1 C11 1_555 1_555
C2 C3 1_555 1_555
C3 C4 1_555 1_555
C4 C5 1_555 1_555
C5 C12 1_555 1_555
C6 C12 1_555 1_555
C7 C8 1_555 1_555
C8 C9 1_555 1_555
C9 C10 1_555 1_555
C10 C14 1_555 1_555
C11 C2 1_555 1_555
C12 C11 1_555 1_555
C13 C6 1_555 1_555
C14 C1 1_555 1_555
C15 C1 1_555 1_555
C16 C15 1_555 1_555
C17 C16 1_555 1_555
C18 C17 1_555 1_555
C19 C18 1_555 1_555
C20 C15 1_555 1_555
C21 C2 1_555 1_555
C22 C5 1_555 1_555
N1 C6 1_555 1_555
C23 C7 1_555 1_555
C24 C10 1_555 1_555
O1 C18 1_555 1_555
C25 O1 1_555 1_555
H1 C1 1_555 1_555
H2 C3 1_555 1_555
H3 C4 1_555 1_555
H4 C8 1_555 1_555
H5 C9 1_555 1_555
H6 C16 1_555 1_555
H7 C17 1_555 1_555
H8 C19 1_555 1_555
H9 C20 1_555 1_555
H10 C21 1_555 1_555
H11 C21 1_555 1_555
H12 C21 1_555 1_555
H13 C22 1_555 1_555
H14 C22 1_555 1_555
H15 C22 1_555 1_555
H16 N1 1_555 1_555
H17 C23 1_555 1_555
H18 C23 1_555 1_555
H19 C23 1_555 1_555
H20 C24 1_555 1_555
H21 C24 1_555 1_555
H22 C24 1_555 1_555
H23 C25 1_555 1_555
H24 C25 1_555 1_555
H25 C25 1_555 1_555
C7 C13 1_555 1_555
C13 C14 1_555 1_555
C19 C20 1_555 1_555

#END
