
#######################################################################
#
#                 Cambridge Crystallographic Data Centre
#                                CCDC 
#
#######################################################################
#
# If this CIF has been generated from an entry in the Cambridge 
# Structural Database, then it will include bibliographic, chemical, 
# crystal, experimental, refinement or atomic coordinate data resulting 
# from the CCDC's data processing and validation procedures.
#
#######################################################################

data_JUGYUF
_chemical_formula_moiety         'C20 H20 N2 O4,0.1(H2 O1)'
_chemical_name_systematic        
"(4S,5S,4'S,5'S)-5,5'-bis(4-Benzyloxazolidin-2-one) hydrate"
_symmetry_cell_setting           monoclinic
_symmetry_space_group_name_H-M   'P 21'
_symmetry_Int_Tables_number      4
_space_group_name_Hall           'P 2yb'
loop_
_symmetry_equiv_pos_site_id
_symmetry_equiv_pos_as_xyz
1 x,y,z
2 -x,1/2+y,-z
_cell_length_a                   12.164(6)
_cell_length_b                   24.545(7)
_cell_length_c                   5.982(6)
_cell_angle_alpha                90
_cell_angle_beta                 90.5
_cell_angle_gamma                90
_cell_volume                     1785.95
_chemical_melting_point          'above 270 deg.C'
_cell_formula_units_Z            4
loop_
_atom_site_label
_atom_site_type_symbol
_atom_site_fract_x
_atom_site_fract_y
_atom_site_fract_z
N1 N 0.054(1) 0.7359(7) -0.552(2)
C3 C -0.192(1) 0.7729(7) -0.774(2)
C4 C 0.010(1) 0.7344(7) -0.782(2)
C5 C -0.270(1) 0.8222(7) -0.770(2)
C6 C -0.039(1) 0.6801(8) -0.852(2)
O3 O -0.3050(8) 0.7561(7) -0.268(2)
C7 C 0.028(1) 0.7808(8) -0.438(3)
O4 O -0.2153(7) 0.7409(6) -0.579(1)
C9 C 0.045(1) 0.6358(8) -0.853(2)
O5 O -0.0423(7) 0.8133(6) -0.571(1)
C10 C -0.281(1) 0.7708(8) -0.455(2)
C11 C -0.068(1) 0.7841(7) -0.780(2)
C12 C 0.058(1) 0.6001(8) -0.673(3)
O6 O 0.055(1) 0.7967(7) -0.256(2)
C13 C 0.193(1) 0.5917(8) -1.030(3)
C16 C -0.2198(1) 0.8771(8) -0.825(2)
N4 N -0.310(1) 0.8185(7) -0.549(2)
C18 C 0.139(2) 0.5606(8) -0.672(3)
C24 C 0.114(1) 0.6293(8) -1.030(2)
C26 C -0.306(1) 0.9202(8) -0.825(2)
C28 C -0.318(1) 0.9553(9) -0.649(2)
C29 C -0.377(1) 0.9295(8) -1.006(2)
C32 C 0.209(1) 0.555(1) -0.851(4)
C37 C -0.462(2) 1.002(1) -0.801(4)
C39 C -0.457(1) 0.971(1) -0.999(3)
C40 C -0.395(2) 0.995(1) -0.634(3)
H3 H -0.2103 0.7517 -0.9018
H4 H 0.0686 0.7426 -0.8798
H5 H -0.3289 0.8157 -0.8713
H6 H -0.0953 0.6707 -0.7532
H7 H -0.0678 0.6839 -1.0001
H8 H -0.0520 0.8070 -0.9029
H9 H 0.0116 0.6033 -0.5474
H10 H 0.2410 0.5897 -1.1551
H13 H -0.1644 0.8860 -0.7172
H14 H -0.1866 0.8756 -0.9694
H16 H 0.1452 0.5368 -0.5490
H20 H 0.1060 0.6523 -1.1574
H22 H -0.2681 0.9517 -0.5272
H23 H -0.3701 0.9072 -1.1351
H27 H 0.2649 0.5281 -0.8535
H32 H -0.5158 1.0303 -0.7917
H35 H -0.5051 0.9771 -1.1226
H36 H -0.4003 1.0165 -0.5034
H38 H -0.3752 0.8348 -0.4751
H40 H 0.1085 0.7196 -0.4475
C1 C 0.419(1) 0.6951 0.104(2)
C2 C 0.349(1) 0.7467(7) 0.109(2)
N2 N 0.4065(8) 0.6777(7) -0.131(2)
O1 O 0.2824(7) 0.7430(6) -0.095(1)
O2 O 0.2852(8) 0.6944(7) -0.414(2)
C8 C 0.323(1) 0.7031(8) -0.230(2)
C14 C 0.334(1) 0.8518(7) 0.118(2)
N3 N 0.341(1) 0.8693(6) -0.112(2)
C15 C 0.728(1) 0.588(1) -0.012(3)
C17 C 0.667(1) 0.6364(8) -0.008(3)
O7 O 0.4695(7) 0.8055(6) -0.090(1)
C19 C 0.155(1) 0.8998(7) 0.186(2)
O8 O 0.4646(8) 0.8563(7) -0.405(2)
C20 C 0.427(1) 0.8453(8) -0.220(3)
C21 C 0.037(1) 0.995(1) 0.167(4)
C22 C 0.089(1) 0.9115(8) 0.007(2)
C23 C 0.596(2) 0.6101(8) 0.343(3)
C25 C 0.600(1) 0.6479(8) 0.178(3)
C27 C 0.405(1) 0.8010(8) 0.116(2)
C30 C 0.218(1) 0.8467(8) 0.187(2)
C31 C 0.654(2) 0.562(1) 0.329(3)
C33 C 0.721(1) 0.5502(8) 0.151(3)
C34 C 0.098(2) 0.984(1) 0.354(4)
C35 C 0.160(1) 0.9352(9) 0.366(3)
C36 C 0.034(1) 0.959(1) 0.002(3)
C38 C 0.538(1) 0.7005(8) 0.185(2)
H1 H 0.3846 0.6685 0.1945
H2 H 0.3002 0.7443 0.2329
H11 H 0.3684 0.8785 0.2105
H12 H 0.7750 0.5810 -0.1344
H15 H 0.6713 0.6614 -0.1284
H17 H 0.0027 1.0284 0.1552
H18 H 0.0818 0.8868 -0.1139
H19 H 0.5524 0.6167 0.4709
H21 H 0.4531 0.8019 0.2411
H24 H 0.1817 0.8222 0.0874
H25 H 0.2163 0.8321 0.3343
H26 H 0.6478 0.5366 0.4462
H28 H 0.7607 0.5169 0.1455
H29 H 0.0986 1.0091 0.4771
H30 H 0.2039 0.9271 0.4938
H31 H -0.0104 0.9677 -0.1247
H33 H 0.5741 0.7262 0.0919
H34 H 0.5375 0.71355 0.3341
H37 H 0.3256 0.9115 -0.1713
H39 H 0.4494 0.6381 -0.1748
loop_
_geom_bond_atom_site_label_1
_geom_bond_atom_site_label_2
_geom_bond_site_symmetry_1
_geom_bond_site_symmetry_2
C1 C2 1_555 1_555
C2 O1 1_555 1_555
N1 C4 1_555 1_555
C3 C5 1_555 1_555
N2 C1 1_555 1_555
O1 C8 1_555 1_555
C4 C6 1_555 1_555
C5 C16 1_555 1_555
C6 C9 1_555 1_555
O2 C8 1_555 1_555
O3 C10 1_555 1_555
C7 N1 1_555 1_555
C8 N2 1_555 1_555
O4 C3 1_555 1_555
C9 C12 1_555 1_555
O5 C7 1_555 1_555
C10 O4 1_555 1_555
C11 C3 1_555 1_555
C12 C18 1_555 1_555
O6 C7 1_555 1_555
C13 C24 1_555 1_555
C14 N3 1_555 1_555
N3 C20 1_555 1_555
C15 C17 1_555 1_555
C16 C26 1_555 1_555
N4 C5 1_555 1_555
C17 C25 1_555 1_555
C18 C32 1_555 1_555
O7 C20 1_555 1_555
C19 C22 1_555 1_555
O8 C20 1_555 1_555
C21 C34 1_555 1_555
C22 C36 1_555 1_555
C23 C25 1_555 1_555
C24 C9 1_555 1_555
C25 C38 1_555 1_555
C26 C28 1_555 1_555
C27 C2 1_555 1_555
C28 C40 1_555 1_555
C29 C26 1_555 1_555
C30 C14 1_555 1_555
C31 C23 1_555 1_555
C32 C13 1_555 1_555
C33 C15 1_555 1_555
C34 C35 1_555 1_555
C35 C19 1_555 1_555
C36 C21 1_555 1_555
C37 C39 1_555 1_555
C38 C1 1_555 1_555
C39 C29 1_555 1_555
C40 C37 1_555 1_555
H1 C1 1_555 1_555
H2 C2 1_555 1_555
H3 C3 1_555 1_555
H4 C4 1_555 1_555
H5 C5 1_555 1_555
H6 C6 1_555 1_555
H7 C6 1_555 1_555
H8 C11 1_555 1_555
H9 C12 1_555 1_555
H10 C13 1_555 1_555
H11 C14 1_555 1_555
H12 C15 1_555 1_555
H13 C16 1_555 1_555
H14 C16 1_555 1_555
H15 C17 1_555 1_555
H16 C18 1_555 1_555
H17 C21 1_555 1_555
H18 C22 1_555 1_555
H19 C23 1_555 1_555
H20 C24 1_555 1_555
H21 C27 1_555 1_555
H22 C28 1_555 1_555
H23 C29 1_555 1_555
H24 C30 1_555 1_555
H25 C30 1_555 1_555
H26 C31 1_555 1_555
H27 C32 1_555 1_555
H28 C33 1_555 1_555
H29 C34 1_555 1_555
H30 C35 1_555 1_555
H31 C36 1_555 1_555
H32 C37 1_555 1_555
H33 C38 1_555 1_555
H34 C38 1_555 1_555
H35 C39 1_555 1_555
H36 C40 1_555 1_555
H37 N3 1_555 1_555
H38 N4 1_555 1_555
H39 N2 1_555 1_555
H40 N1 1_555 1_555
C4 C11 1_555 1_555
O5 C11 1_555 1_555
C10 N4 1_555 1_555
C14 C27 1_555 1_555
O7 C27 1_555 1_555
C19 C30 1_555 1_555
C31 C33 1_555 1_555

#END
