
#######################################################################
#
#                 Cambridge Crystallographic Data Centre
#                                CCDC 
#
#######################################################################
#
# If this CIF has been generated from an entry in the Cambridge 
# Structural Database, then it will include bibliographic, chemical, 
# crystal, experimental, refinement or atomic coordinate data resulting 
# from the CCDC's data processing and validation procedures.
#
#######################################################################

data_JUHDOH
_chemical_formula_moiety         'C41 H35 Br1 N2 O7'
_chemical_name_systematic        
"3'-(9-Anthrylmethyl) 5',5'-diethyl 1-(4-bromobenzyl)-4'-methyl-2-oxo-1,2-dihydrospiro[indole-3,2'-pyrrole]-3',5',5'(1'H)-tricarboxylate"
_symmetry_cell_setting           orthorhombic
_symmetry_space_group_name_H-M   'P 21 21 21'
_symmetry_Int_Tables_number      19
_space_group_name_Hall           'P 2ac 2ab'
loop_
_symmetry_equiv_pos_site_id
_symmetry_equiv_pos_as_xyz
1 x,y,z
2 1/2-x,-y,1/2+z
3 1/2+x,1/2-y,-z
4 -x,1/2+y,1/2-z
_cell_length_a                   7.3188(7)
_cell_length_b                   21.396(2)
_cell_length_c                   22.175(2)
_cell_angle_alpha                90
_cell_angle_beta                 90
_cell_angle_gamma                90
_cell_volume                     3472.45
_exptl_crystal_colour            colorless
_exptl_crystal_description       block
_cell_formula_units_Z            4
loop_
_atom_site_label
_atom_site_type_symbol
_atom_site_fract_x
_atom_site_fract_y
_atom_site_fract_z
Br1 Br -0.64559(10) -0.37979(4) -0.18693(3)
O1 O 0.1793(6) -0.51674(18) -0.30764(17)
O2 O 0.6280(6) -0.57404(17) -0.44442(19)
O3 O 0.4481(5) -0.49074(15) -0.43190(15)
O4 O 0.1668(6) -0.68883(17) -0.28341(15)
O5 O -0.1208(5) -0.68815(18) -0.31880(16)
O6 O -0.0386(6) -0.7047(2) -0.47709(17)
O7 O 0.0905(6) -0.76794(16) -0.40840(16)
N1 N 0.0748(6) -0.4500(2) -0.38003(18)
N2 N 0.0068(6) -0.6030(2) -0.3988(2)
H1 H -0.1127 -0.5985 -0.3973
C1 C 0.1358(8) -0.5057(2) -0.3592(2)
C2 C 0.1340(7) -0.5532(2) -0.4121(2)
C3 C 0.0785(7) -0.5121(2) -0.4644(2)
C4 C 0.0568(7) -0.5262(2) -0.5239(2)
H2 H 0.0764 -0.5675 -0.5383
C5 C 0.0050(7) -0.4784(3) -0.5632(2)
H3 H -0.0096 -0.4870 -0.6050
C6 C -0.0249(7) -0.4189(3) -0.5417(2)
H4 H -0.0600 -0.3869 -0.5691
C7 C -0.0051(7) -0.4043(2) -0.4810(2)
H5 H -0.0260 -0.3632 -0.4664
C8 C 0.0459(7) -0.4517(2) -0.4431(2)
C9 C 0.1025(7) -0.6615(2) -0.3883(2)
C10 C 0.3026(7) -0.6462(2) -0.3992(2)
C11 C 0.3154(7) -0.5863(2) -0.4153(2)
C12 C 0.4825(7) -0.5522(2) -0.4313(2)
C13 C 0.5889(6) -0.4484(2) -0.4559(2)
H6 H 0.6691 -0.4710 -0.4845
H7 H 0.6651 -0.4318 -0.4227
C14 C 0.4929(7) -0.3960(2) -0.4875(2)
C15 C 0.4543(7) -0.4016(2) -0.5499(2)
C16 C 0.4995(8) -0.4552(3) -0.5845(2)
H8 H 0.5627 -0.4888 -0.5659
C17 C 0.4544(9) -0.4594(3) -0.6438(3)
H9 H 0.4870 -0.4959 -0.6656
C18 C 0.3599(9) -0.4107(3) -0.6738(2)
H10 H 0.3268 -0.4148 -0.7150
C19 C 0.3176(8) -0.3581(3) -0.6423(2)
H11 H 0.2581 -0.3247 -0.6626
C20 C 0.3600(7) -0.3515(2) -0.5796(2)
C21 C 0.3085(7) -0.2992(2) -0.5477(2)
H12 H 0.2483 -0.2661 -0.5682
C22 C 0.3426(7) -0.2937(2) -0.4862(2)
C23 C 0.2838(7) -0.2405(2) -0.4534(2)
H13 H 0.2219 -0.2078 -0.4739
C24 C 0.3142(8) -0.2357(2) -0.3939(2)
H14 H 0.2700 -0.2003 -0.3725
C25 C 0.4109(8) -0.2825(2) -0.3633(2)
H15 H 0.4359 -0.2778 -0.3215
C26 C 0.4688(7) -0.3342(2) -0.3924(2)
H16 H 0.5319 -0.3656 -0.3704
C27 C 0.4376(7) -0.3430(2) -0.4555(2)
C28 C 0.4486(7) -0.6941(2) -0.3927(2)
H17 H 0.4330 -0.7163 -0.3544
H18 H 0.5684 -0.6737 -0.3934
H19 H 0.4406 -0.7240 -0.4261
C29 C 0.0403(8) -0.7127(3) -0.4307(2)
C30 C 0.0537(12) -0.8233(3) -0.4442(3)
H20 H 0.1139 -0.8201 -0.4840
H21 H -0.0794 -0.8283 -0.4505
C31 C 0.1269(16) -0.8763(4) -0.4104(4)
H22 H 0.1196 -0.9141 -0.4351
H23 H 0.0554 -0.8821 -0.3734
H24 H 0.2547 -0.8681 -0.3999
C32 C 0.0601(8) -0.6816(2) -0.3229(2)
C33 C -0.2027(9) -0.6908(3) -0.2594(2)
H25 H -0.1062 -0.6948 -0.2284
H26 H -0.2841 -0.7276 -0.2565
C34 C -0.3102(11) -0.6321(3) -0.2491(3)
H27 H -0.4000 -0.6270 -0.2815
H28 H -0.2273 -0.5962 -0.2487
H29 H -0.3737 -0.6349 -0.2102
C35 C 0.0558(8) -0.3960(2) -0.3408(2)
H30 H 0.0614 -0.3577 -0.3657
H31 H 0.1608 -0.3950 -0.3126
C36 C -0.1186(7) -0.3950(2) -0.3045(2)
C37 C -0.1619(9) -0.3403(3) -0.2742(2)
H32 H -0.0839 -0.3050 -0.2778
C38 C -0.3167(8) -0.3362(3) -0.2389(2)
H33 H -0.3444 -0.2988 -0.2178
C39 C -0.4291(8) -0.3868(3) -0.2346(2)
C40 C -0.3915(8) -0.4416(3) -0.2639(2)
H34 H -0.4717 -0.4763 -0.2605
C41 C -0.2345(8) -0.4456(3) -0.2985(2)
H35 H -0.2061 -0.4836 -0.3184
loop_
_geom_bond_atom_site_label_1
_geom_bond_atom_site_label_2
_geom_bond_site_symmetry_1
_geom_bond_site_symmetry_2
Br1 C39 1_555 1_555
O1 C1 1_555 1_555
O2 C12 1_555 1_555
O3 C12 1_555 1_555
O4 C32 1_555 1_555
O5 C32 1_555 1_555
O6 C29 1_555 1_555
O7 C29 1_555 1_555
N1 C1 1_555 1_555
N2 H1 1_555 1_555
C1 C2 1_555 1_555
C2 N2 1_555 1_555
C3 C2 1_555 1_555
C4 C3 1_555 1_555
H2 C4 1_555 1_555
C5 C4 1_555 1_555
H3 C5 1_555 1_555
C6 C5 1_555 1_555
H4 C6 1_555 1_555
C7 C6 1_555 1_555
H5 C7 1_555 1_555
C8 N1 1_555 1_555
C9 N2 1_555 1_555
C10 C9 1_555 1_555
C11 C2 1_555 1_555
C12 C11 1_555 1_555
C13 O3 1_555 1_555
H6 C13 1_555 1_555
H7 C13 1_555 1_555
C14 C13 1_555 1_555
C15 C14 1_555 1_555
C16 C15 1_555 1_555
H8 C16 1_555 1_555
C17 C16 1_555 1_555
H9 C17 1_555 1_555
C18 C17 1_555 1_555
H10 C18 1_555 1_555
C19 C18 1_555 1_555
H11 C19 1_555 1_555
C20 C15 1_555 1_555
C21 C20 1_555 1_555
H12 C21 1_555 1_555
C22 C21 1_555 1_555
C23 C22 1_555 1_555
H13 C23 1_555 1_555
C24 C23 1_555 1_555
H14 C24 1_555 1_555
C25 C24 1_555 1_555
H15 C25 1_555 1_555
C26 C25 1_555 1_555
H16 C26 1_555 1_555
C27 C14 1_555 1_555
C28 C10 1_555 1_555
H17 C28 1_555 1_555
H18 C28 1_555 1_555
H19 C28 1_555 1_555
C29 C9 1_555 1_555
C30 O7 1_555 1_555
H20 C30 1_555 1_555
H21 C30 1_555 1_555
C31 C30 1_555 1_555
H22 C31 1_555 1_555
H23 C31 1_555 1_555
H24 C31 1_555 1_555
C32 C9 1_555 1_555
C33 O5 1_555 1_555
H25 C33 1_555 1_555
H26 C33 1_555 1_555
C34 C33 1_555 1_555
H27 C34 1_555 1_555
H28 C34 1_555 1_555
H29 C34 1_555 1_555
C35 N1 1_555 1_555
H30 C35 1_555 1_555
H31 C35 1_555 1_555
C36 C35 1_555 1_555
C37 C36 1_555 1_555
H32 C37 1_555 1_555
C38 C37 1_555 1_555
H33 C38 1_555 1_555
C39 C38 1_555 1_555
C40 C39 1_555 1_555
H34 C40 1_555 1_555
C41 C36 1_555 1_555
H35 C41 1_555 1_555
C3 C8 1_555 1_555
C7 C8 1_555 1_555
C10 C11 1_555 1_555
C19 C20 1_555 1_555
C22 C27 1_555 1_555
C26 C27 1_555 1_555
C40 C41 1_555 1_555

#END
