
#######################################################################
#
#                 Cambridge Crystallographic Data Centre
#                                CCDC 
#
#######################################################################
#
# If this CIF has been generated from an entry in the Cambridge 
# Structural Database, then it will include bibliographic, chemical, 
# crystal, experimental, refinement or atomic coordinate data resulting 
# from the CCDC's data processing and validation procedures.
#
#######################################################################

data_JUHHEB
_chemical_name_common            1-tosyl-2,3,5,6,7,7a-hexahydro-1H-indole
_chemical_formula_moiety         'C15 H19 N1 O2 S1'
_chemical_name_systematic        
1-((4-methylphenyl)sulfonyl)-2,3,5,6,7,7a-hexahydro-1H-indole
_symmetry_cell_setting           monoclinic
_symmetry_space_group_name_H-M   'P 21/c'
_symmetry_Int_Tables_number      14
_space_group_name_Hall           '-P 2ybc'
loop_
_symmetry_equiv_pos_site_id
_symmetry_equiv_pos_as_xyz
1 x,y,z
2 -x,1/2+y,1/2-z
3 -x,-y,-z
4 x,1/2-y,1/2+z
_cell_length_a                   12.3418(14)
_cell_length_b                   12.5826(14)
_cell_length_c                   9.6895(12)
_cell_angle_alpha                90
_cell_angle_beta                 106.033(2)
_cell_angle_gamma                90
_cell_volume                     1446.17
_exptl_crystal_colour            colorless
_exptl_crystal_description       block
_cell_formula_units_Z            4
_exptl_crystal_recrystallization_method chloroform
loop_
_atom_site_label
_atom_site_type_symbol
_atom_site_fract_x
_atom_site_fract_y
_atom_site_fract_z
N1 N 0.26787(13) 0.87570(13) -0.04525(16)
C1 C 0.2853(7) 0.9665(8) -0.1363(10)
H1 H 0.3487 1.0099 -0.0853
H2 H 0.2987 0.9412 -0.2247
C2 C 0.1799(5) 1.0266(5) -0.1656(9)
H3 H 0.1584 1.0524 -0.2638
H4 H 0.1882 1.0870 -0.1013
C3 C 0.0941(6) 0.9521(6) -0.1420(8)
C4 C 0.1522(6) 0.8739(9) -0.0289(12)
H5 H 0.1522 0.8995 0.0666
C5 C -0.0146(6) 0.9436(7) -0.2141(8)
H6 H -0.0450 0.9941 -0.2842
C6 C -0.0881(7) 0.8599(7) -0.1895(10)
H7 H -0.1138 0.8176 -0.2761
H8 H -0.1538 0.8919 -0.1700
C7 C -0.0309(7) 0.7878(9) -0.0658(10)
H9 H -0.0711 0.7207 -0.0758
H10 H -0.0347 0.8203 0.0236
C8 C 0.0930(7) 0.7667(7) -0.0593(9)
H11 H 0.1262 0.7164 0.0165
H12 H 0.0990 0.7381 -0.1498
C9 C 0.36859(14) 0.94053(14) 0.22997(18)
C10 C 0.40861(15) 1.04304(15) 0.2237(2)
H13 H 0.4388 1.0629 0.1496
C11 C 0.40291(16) 1.11481(15) 0.3288(2)
H14 H 0.4293 1.1836 0.3245
C12 C 0.35880(15) 1.08708(15) 0.44086(19)
C13 C 0.32153(17) 0.98402(16) 0.4459(2)
H15 H 0.2931 0.9636 0.5214
C14 C 0.32545(16) 0.91071(15) 0.3415(2)
H16 H 0.2993 0.8418 0.3462
C15 C 0.3530(2) 1.16738(19) 0.5541(2)
H17 H 0.4146 1.2164 0.5674
H18 H 0.3577 1.1314 0.6430
H19 H 0.2830 1.2054 0.5241
O1 O 0.47273(11) 0.86413(12) 0.05235(15)
O2 O 0.34857(12) 0.74597(10) 0.14465(15)
S1 S 0.37133(4) 0.84783(4) 0.09459(5)
C16? C 0.2757(10) 0.9533(11) -0.1554(15)
H20? H 0.3067 0.9196 -0.2262
H21? H 0.3251 1.0113 -0.1117
C17? C 0.1606(8) 0.9946(9) -0.2256(13)
H22? H 0.1427 0.9864 -0.3290
H23? H 0.1552 1.0692 -0.2034
C18? C 0.0826(9) 0.9299(10) -0.1665(14)
C19? C -0.0250(9) 0.9041(9) -0.2279(13)
H24? H -0.0627 0.9368 -0.3138
C20? C -0.0870(11) 0.8247(10) -0.1637(15)
H25? H -0.1145 0.7690 -0.2340
H26? H -0.1525 0.8596 -0.1474
C21? C -0.0222(12) 0.7726(14) -0.0244(14)
H27? H -0.0341 0.8125 0.0558
H28? H -0.0505 0.7011 -0.0201
C22? C 0.1021(11) 0.7678(11) -0.0116(13)
H29? H 0.1415 0.7419 0.0833
H30? H 0.1147 0.7174 -0.0813
C23? C 0.1505(9) 0.8732(15) -0.035(2)
H31? H 0.1487 0.9179 0.0471
loop_
_geom_bond_atom_site_label_1
_geom_bond_atom_site_label_2
_geom_bond_site_symmetry_1
_geom_bond_site_symmetry_2
N1 C1 1_555 1_555
C1 H1 1_555 1_555
H2 C1 1_555 1_555
C2 C1 1_555 1_555
H3 C2 1_555 1_555
H4 C2 1_555 1_555
C3 C2 1_555 1_555
C4 N1 1_555 1_555
H5 C4 1_555 1_555
C5 C3 1_555 1_555
H6 C5 1_555 1_555
C6 C5 1_555 1_555
H7 C6 1_555 1_555
H8 C6 1_555 1_555
C7 C6 1_555 1_555
H9 C7 1_555 1_555
H10 C7 1_555 1_555
C8 C4 1_555 1_555
H11 C8 1_555 1_555
H12 C8 1_555 1_555
C9 C10 1_555 1_555
C10 H13 1_555 1_555
C11 C10 1_555 1_555
H14 C11 1_555 1_555
C12 C11 1_555 1_555
C13 C12 1_555 1_555
H15 C13 1_555 1_555
C14 C9 1_555 1_555
H16 C14 1_555 1_555
C15 C12 1_555 1_555
H17 C15 1_555 1_555
H18 C15 1_555 1_555
H19 C15 1_555 1_555
O1 S1 1_555 1_555
O2 S1 1_555 1_555
S1 N1 1_555 1_555
C3 C4 1_555 1_555
C7 C8 1_555 1_555
C9 S1 1_555 1_555
C13 C14 1_555 1_555

#END
