
#######################################################################
#
#                 Cambridge Crystallographic Data Centre
#                                CCDC 
#
#######################################################################
#
# If this CIF has been generated from an entry in the Cambridge 
# Structural Database, then it will include bibliographic, chemical, 
# crystal, experimental, refinement or atomic coordinate data resulting 
# from the CCDC's data processing and validation procedures.
#
#######################################################################

data_JUHJAZ
_chemical_formula_moiety         'C21 H27 N7 O6'
_chemical_name_systematic        
1,1'-[(methylimino)dipropane-3,1-diyl]bis[3-(2-nitrophenyl)urea]
_symmetry_cell_setting           monoclinic
_symmetry_space_group_name_H-M   'C 2/c'
_symmetry_Int_Tables_number      15
_space_group_name_Hall           '-C 2yn'
loop_
_symmetry_equiv_pos_site_id
_symmetry_equiv_pos_as_xyz
1 x,y,z
2 -x,y,1/2-z
3 1/2+x,1/2+y,z
4 1/2-x,1/2+y,1/2-z
5 -x,-y,-z
6 x,-y,1/2+z
7 1/2-x,1/2-y,-z
8 1/2+x,1/2-y,1/2+z
_cell_length_a                   22.471(3)
_cell_length_b                   4.6124(7)
_cell_length_c                   21.637(3)
_cell_angle_alpha                90
_cell_angle_beta                 93.234(2)
_cell_angle_gamma                90
_cell_volume                     2239
_exptl_crystal_colour            yellow
_exptl_crystal_description       plate
_cell_formula_units_Z            4
loop_
_atom_site_label
_atom_site_type_symbol
_atom_site_fract_x
_atom_site_fract_y
_atom_site_fract_z
N1 N 0.4212(2) 0.2691(7) 0.2416(2)
C1 C 0.4144(2) 0.4709(11) 0.1878(2)
H1 H 0.3878 0.3764 0.1558
H2 H 0.4539 0.4912 0.1703
C2 C 0.39012(12) 0.7774(6) 0.19814(17)
H3 H 0.4187 0.8875 0.2256
C3 C 0.33024(10) 0.7611(5) 0.22729(11)
H4 H 0.3344 0.6418 0.2653
H5 H 0.3180 0.9585 0.2393
N2 N 0.28401(8) 0.6359(4) 0.18523(8)
H6 H 0.2811(11) 0.454(6) 0.1808(11)
C4 C 0.25148(9) 0.8001(4) 0.14462(9)
O1 O 0.25704(7) 1.0651(3) 0.14007(7)
N3 N 0.20901(7) 0.6452(4) 0.10947(8)
H7 H 0.2035(11) 0.470(6) 0.1202(11)
C5 C 0.17061(9) 0.7644(4) 0.06335(9)
C6 C 0.11053(9) 0.6837(5) 0.05422(9)
C7 C 0.07326(10) 0.8063(5) 0.00738(10)
H8 H 0.0327 0.7478 0.0024
C8 C 0.09503(11) 1.0105(5) -0.03133(11)
H9 H 0.0696 1.0963 -0.0628
C9 C 0.15477(11) 1.0915(5) -0.02420(11)
H10 H 0.1703 1.2308 -0.0514
C10 C 0.19167(10) 0.9703(5) 0.02225(10)
H11 H 0.2323 1.0281 0.0264
N4 N 0.08332(8) 0.4680(5) 0.09335(8)
O2 O 0.11559(7) 0.3083(4) 0.12628(7)
O3 O 0.02845(7) 0.4514(5) 0.09092(8)
C11 C 0.4690(2) 0.3681(14) 0.2857(3)
H12 H 0.4734 0.2312 0.3203
H13 H 0.4591 0.5604 0.3014
H14 H 0.5066 0.3786 0.2648
H15 H 0.3825 0.8406 0.1547
N1A N 0.5788(2) 0.2691(7) 0.2584(2)
C1A C 0.5856(2) 0.4709(11) 0.3122(2)
H1A H 0.6122 0.3764 0.3442
H2A H 0.5461 0.4912 0.3297
C2A C 0.60988(12) 0.7774(6) 0.30186(17)
H3A H 0.5813 0.8875 0.2744
C3A C 0.66976(10) 0.7611(5) 0.27271(11)
H4A H 0.6656 0.6418 0.2347
H5A H 0.6820 0.9585 0.2607
N2A N 0.71599(8) 0.6359(4) 0.31477(8)
H6A H 0.7189(11) 0.454(6) 0.3192(11)
C4A C 0.74852(9) 0.8001(4) 0.35538(9)
O1A O 0.74296(7) 1.0651(3) 0.35993(7)
N3A N 0.79099(7) 0.6452(4) 0.39053(8)
H7A H 0.7965(11) 0.470(6) 0.3798(11)
C5A C 0.82939(9) 0.7644(4) 0.43665(9)
C6A C 0.88947(9) 0.6837(5) 0.44578(9)
C7A C 0.92674(10) 0.8063(5) 0.49262(10)
H8A H 0.9673 0.7478 0.4976
C8A C 0.90497(11) 1.0105(5) 0.53133(11)
H9A H 0.9304 1.0963 0.5628
C9A C 0.84523(11) 1.0915(5) 0.52420(11)
H10A H 0.8297 1.2308 0.5514
C10A C 0.80833(10) 0.9703(5) 0.47775(10)
H11A H 0.7677 1.0281 0.4736
N4A N 0.91668(8) 0.4680(5) 0.40665(8)
O2A O 0.88441(7) 0.3083(4) 0.37372(7)
O3A O 0.97155(7) 0.4514(5) 0.40908(8)
C11A C 0.5310(2) 0.3681(14) 0.2143(3)
H12A H 0.5266 0.2312 0.1797
H13A H 0.5409 0.5604 0.1986
H14A H 0.4934 0.3786 0.2352
H15A H 0.6175 0.8406 0.3453
C12? C 0.4391(2) -0.0307(12) 0.2266(3)
H16? H 0.4062 0.5777 0.1968
H17? H 0.3855 0.8807 0.1580
H18? H 0.4716 -0.0208 0.1977
H19? H 0.4554 -0.1240 0.2651
loop_
_geom_bond_atom_site_label_1
_geom_bond_atom_site_label_2
_geom_bond_site_symmetry_1
_geom_bond_site_symmetry_2
N1 C1 1_555 1_555
C1 H1 1_555 1_555
H2 C1 1_555 1_555
C2 C1 1_555 1_555
H3 C2 1_555 1_555
C3 C2 1_555 1_555
H4 C3 1_555 1_555
H5 C3 1_555 1_555
N2 C3 1_555 1_555
H6 N2 1_555 1_555
C4 N2 1_555 1_555
O1 C4 1_555 1_555
N3 C4 1_555 1_555
H7 N3 1_555 1_555
C5 N3 1_555 1_555
C6 C5 1_555 1_555
C7 C6 1_555 1_555
H8 C7 1_555 1_555
C8 C7 1_555 1_555
H9 C8 1_555 1_555
C9 C8 1_555 1_555
H10 C9 1_555 1_555
C10 C5 1_555 1_555
H11 C10 1_555 1_555
N4 C6 1_555 1_555
O2 N4 1_555 1_555
O3 N4 1_555 1_555
C11 N1 1_555 1_555
H12 C11 1_555 1_555
H13 C11 1_555 1_555
H14 C11 1_555 1_555
H15 C2 1_555 1_555
N1A C1A 1_555 1_555
C1A H1A 1_555 1_555
H2A C1A 1_555 1_555
C2A C1A 1_555 1_555
H3A C2A 1_555 1_555
C3A C2A 1_555 1_555
H4A C3A 1_555 1_555
H5A C3A 1_555 1_555
N2A C3A 1_555 1_555
H6A N2A 1_555 1_555
C4A N2A 1_555 1_555
O1A C4A 1_555 1_555
N3A C4A 1_555 1_555
H7A N3A 1_555 1_555
C5A N3A 1_555 1_555
C6A C5A 1_555 1_555
C7A C6A 1_555 1_555
H8A C7A 1_555 1_555
C8A C7A 1_555 1_555
H9A C8A 1_555 1_555
C9A C8A 1_555 1_555
H10A C9A 1_555 1_555
C10A C5A 1_555 1_555
H11A C10A 1_555 1_555
N4A C6A 1_555 1_555
O2A N4A 1_555 1_555
O3A N4A 1_555 1_555
C11A N1A 1_555 1_555
H12A C11A 1_555 1_555
H13A C11A 1_555 1_555
H14A C11A 1_555 1_555
H15A C2A 1_555 1_555
C9 C10 1_555 1_555
C9A C10A 1_555 1_555

#END
