
#######################################################################
#
#                 Cambridge Crystallographic Data Centre
#                                CCDC 
#
#######################################################################
#
# If this CIF has been generated from an entry in the Cambridge 
# Structural Database, then it will include bibliographic, chemical, 
# crystal, experimental, refinement or atomic coordinate data resulting 
# from the CCDC's data processing and validation procedures.
#
#######################################################################

data_JUHJUT
_chemical_formula_moiety         'C16 H18 N2 O6'
_chemical_name_systematic        
'1-ethyl 3-methyl 2-cyano-2-(2-(methoxycarbonyl)prop-2-en-1-yl)pyridine-1,3(2H)-dicarboxylate'
_symmetry_cell_setting           monoclinic
_symmetry_space_group_name_H-M   'P 21/c'
_symmetry_Int_Tables_number      14
_space_group_name_Hall           '-P 2ybc'
loop_
_symmetry_equiv_pos_site_id
_symmetry_equiv_pos_as_xyz
1 x,y,z
2 -x,1/2+y,1/2-z
3 -x,-y,-z
4 x,1/2-y,1/2+z
_cell_length_a                   8.6429(17)
_cell_length_b                   16.481(3)
_cell_length_c                   12.131(2)
_cell_angle_alpha                90
_cell_angle_beta                 103.59(3)
_cell_angle_gamma                90
_cell_volume                     1679.6
_exptl_crystal_colour            colorless
_exptl_crystal_description       block
_cell_formula_units_Z            4
loop_
_atom_site_label
_atom_site_type_symbol
_atom_site_fract_x
_atom_site_fract_y
_atom_site_fract_z
C1 C 0.7049(4) 0.0432(2) 0.0859(4)
C2 C 0.6957(5) 0.0499(2) -0.0248(4)
H1 H 0.7395 0.0093 -0.0612
C3 C 0.6202(5) 0.1180(2) -0.0898(4)
H2 H 0.6203 0.1229 -0.1662
C4 C 0.5503(4) 0.1737(2) -0.0391(4)
H3 H 0.5032 0.2180 -0.0815
C5 C 0.6490(4) 0.1117(2) 0.1546(3)
C6 C 0.7836(5) -0.0265(2) 0.1521(4)
C7 C 0.9029(7) -0.1538(3) 0.1454(5)
H4 H 1.0050 -0.1360 0.1886
H5 H 0.9174 -0.1940 0.0914
H6 H 0.8438 -0.1769 0.1955
C8 C 0.5491(5) 0.0745(2) 0.2256(4)
C9 C 0.4657(5) 0.2288(2) 0.1231(4)
C10 C 0.3134(5) 0.3495(2) 0.0881(4)
H7 H 0.3909 0.3808 0.1424
H8 H 0.2333 0.3295 0.1254
C11 C 0.2393(7) 0.4001(3) -0.0099(5)
H9 H 0.3200 0.4206 -0.0450
H10 H 0.1847 0.4448 0.0151
H11 H 0.1646 0.3682 -0.0636
C12 C 0.7929(5) 0.1559(2) 0.2301(4)
H12 H 0.7547 0.2019 0.2661
H13 H 0.8464 0.1193 0.2895
C13 C 0.9107(5) 0.1855(2) 0.1664(4)
C14 C 1.0440(5) 0.1470(3) 0.1676(5)
H14 H 1.1141 0.1674 0.1268
H15 H 1.0683 0.0994 0.2092
C15 C 0.8789(5) 0.2616(3) 0.0979(4)
C16 C 0.7451(6) 0.3874(3) 0.0729(5)
H16 H 0.8445 0.4143 0.0757
H17 H 0.6803 0.4206 0.1090
H18 H 0.6909 0.3784 -0.0048
N1 N 0.5443(4) 0.16909(18) 0.0735(3)
N2 N 0.4750(5) 0.0423(2) 0.2788(4)
O1 O 0.8205(4) -0.02946(17) 0.2542(3)
O2 O 0.8154(4) -0.08456(18) 0.0855(3)
O3 O 0.4668(3) 0.23066(17) 0.2214(3)
O4 O 0.3915(3) 0.28153(16) 0.0448(2)
O5 O 0.7747(3) 0.31018(16) 0.1313(3)
O6 O 0.9420(4) 0.2789(2) 0.0233(3)
loop_
_geom_bond_atom_site_label_1
_geom_bond_atom_site_label_2
_geom_bond_site_symmetry_1
_geom_bond_site_symmetry_2
C1 C2 1_555 1_555
C2 H1 1_555 1_555
C3 C2 1_555 1_555
H2 C3 1_555 1_555
C4 C3 1_555 1_555
H3 C4 1_555 1_555
C5 C1 1_555 1_555
C6 C1 1_555 1_555
C7 H4 1_555 1_555
H5 C7 1_555 1_555
H6 C7 1_555 1_555
C8 C5 1_555 1_555
C9 N1 1_555 1_555
C10 H7 1_555 1_555
H8 C10 1_555 1_555
C11 C10 1_555 1_555
H9 C11 1_555 1_555
H10 C11 1_555 1_555
H11 C11 1_555 1_555
C12 C5 1_555 1_555
H12 C12 1_555 1_555
H13 C12 1_555 1_555
C13 C12 1_555 1_555
C14 C13 1_555 1_555
H14 C14 1_555 1_555
H15 C14 1_555 1_555
C15 C13 1_555 1_555
C16 H16 1_555 1_555
H17 C16 1_555 1_555
H18 C16 1_555 1_555
N1 C4 1_555 1_555
N2 C8 1_555 1_555
O1 C6 1_555 1_555
O2 C6 1_555 1_555
O3 C9 1_555 1_555
O4 C9 1_555 1_555
O5 C15 1_555 1_555
O6 C15 1_555 1_555
C5 N1 1_555 1_555
C7 O2 1_555 1_555
C10 O4 1_555 1_555
C16 O5 1_555 1_555

#END
