
#######################################################################
#
#                 Cambridge Crystallographic Data Centre
#                                CCDC 
#
#######################################################################
#
# If this CIF has been generated from an entry in the Cambridge 
# Structural Database, then it will include bibliographic, chemical, 
# crystal, experimental, refinement or atomic coordinate data resulting 
# from the CCDC's data processing and validation procedures.
#
#######################################################################

data_JUHPIN
_chemical_formula_moiety         'C22 H14 O3'
_chemical_name_systematic        3-Benzoyl-4-phenyl-2H-chromen-2-one
_symmetry_cell_setting           triclinic
_symmetry_space_group_name_H-M   'P -1'
_symmetry_Int_Tables_number      2
_space_group_name_Hall           '-P 1'
loop_
_symmetry_equiv_pos_site_id
_symmetry_equiv_pos_as_xyz
1 x,y,z
2 -x,-y,-z
_cell_length_a                   9.696(2)
_cell_length_b                   10.159(2)
_cell_length_c                   10.316(2)
_cell_angle_alpha                61.424(2)
_cell_angle_beta                 78.793(2)
_cell_angle_gamma                65.588(2)
_cell_volume                     812.573
_exptl_crystal_colour            colorless
_exptl_crystal_description       block
_cell_formula_units_Z            2
loop_
_atom_site_label
_atom_site_type_symbol
_atom_site_fract_x
_atom_site_fract_y
_atom_site_fract_z
C1 C 0.18970(16) 1.14211(18) 0.14276(16)
C2 C 0.33751(15) 1.02984(16) 0.21000(15)
C3 C 0.44211(15) 1.08145(15) 0.21737(14)
C4 C 0.39856(15) 1.25169(15) 0.17452(14)
C5 C 0.25259(16) 1.35656(16) 0.12087(15)
C6 C 0.19788(18) 1.51660(17) 0.09087(17)
H1 H 0.1003 1.5843 0.0541
C7 C 0.28957(19) 1.57484(18) 0.11611(17)
H2 H 0.2534 1.6825 0.0975
C8 C 0.43520(18) 1.47486(18) 0.16898(17)
H3 H 0.4966 1.5155 0.1855
C9 C 0.48927(16) 1.31627(17) 0.19703(15)
H4 H 0.5879 1.2502 0.2316
C10 C 0.36325(15) 0.85431(17) 0.26780(16)
C11 C 0.29534(15) 0.77740(16) 0.41253(16)
C12 C 0.21672(17) 0.86156(19) 0.49481(18)
H5 H 0.2042 0.9691 0.4580
C13 C 0.15730(18) 0.7867(2) 0.63027(19)
H6 H 0.1046 0.8438 0.6845
C14 C 0.17570(19) 0.6278(2) 0.68534(19)
H7 H 0.1356 0.5774 0.7769
C15 C 0.25341(19) 0.5426(2) 0.60534(19)
H8 H 0.2660 0.4349 0.6431
C16 C 0.31232(17) 0.61718(18) 0.46958(17)
H9 H 0.3640 0.5596 0.4156
C17 C 0.59847(14) 0.96884(15) 0.27362(14)
C18 C 0.71872(17) 0.97332(19) 0.17686(18)
H10 H 0.7009 1.0438 0.0770
C19 C 0.86427(18) 0.8745(2) 0.2269(2)
H11 H 0.9447 0.8785 0.1611
C20 C 0.89123(19) 0.7696(2) 0.3745(2)
H12 H 0.9899 0.7033 0.4087
C21 C 0.77334(19) 0.7630(2) 0.47012(19)
H13 H 0.7917 0.6912 0.5696
C22 C 0.62670(17) 0.86205(17) 0.42072(16)
H14 H 0.5467 0.8567 0.4869
O1 O 0.15484(11) 1.30228(12) 0.09829(12)
O2 O 0.09686(12) 1.10457(14) 0.12148(13)
O3 O 0.43750(13) 0.78155(13) 0.19734(12)
loop_
_geom_bond_atom_site_label_1
_geom_bond_atom_site_label_2
_geom_bond_site_symmetry_1
_geom_bond_site_symmetry_2
C1 C2 1_555 1_555
C2 C3 1_555 1_555
C3 C4 1_555 1_555
C4 C5 1_555 1_555
C5 C6 1_555 1_555
C6 H1 1_555 1_555
C7 C6 1_555 1_555
H2 C7 1_555 1_555
C8 C7 1_555 1_555
H3 C8 1_555 1_555
C9 C4 1_555 1_555
H4 C9 1_555 1_555
C10 C2 1_555 1_555
C11 C10 1_555 1_555
C12 C11 1_555 1_555
H5 C12 1_555 1_555
C13 C12 1_555 1_555
H6 C13 1_555 1_555
C14 C13 1_555 1_555
H7 C14 1_555 1_555
C15 C14 1_555 1_555
H8 C15 1_555 1_555
C16 C11 1_555 1_555
H9 C16 1_555 1_555
C17 C3 1_555 1_555
C18 C17 1_555 1_555
H10 C18 1_555 1_555
C19 C18 1_555 1_555
H11 C19 1_555 1_555
C20 C19 1_555 1_555
H12 C20 1_555 1_555
C21 C20 1_555 1_555
H13 C21 1_555 1_555
C22 C17 1_555 1_555
H14 C22 1_555 1_555
O1 C1 1_555 1_555
O2 C1 1_555 1_555
O3 C10 1_555 1_555
C5 O1 1_555 1_555
C8 C9 1_555 1_555
C15 C16 1_555 1_555
C21 C22 1_555 1_555

#END
