
#######################################################################
#
#                 Cambridge Crystallographic Data Centre
#                                CCDC 
#
#######################################################################
#
# If this CIF has been generated from an entry in the Cambridge 
# Structural Database, then it will include bibliographic, chemical, 
# crystal, experimental, refinement or atomic coordinate data resulting 
# from the CCDC's data processing and validation procedures.
#
#######################################################################

data_JUHTOX
_chemical_formula_moiety         'C14 H15 N5 O4 S1'
_chemical_name_systematic        
'Ethyl ((5-methyl-4-((3-nitrobenzylidene)amino)-4H-1,2,4-triazol-3-yl)sulfanyl)acetate'
_symmetry_cell_setting           monoclinic
_symmetry_space_group_name_H-M   'P 21/c'
_symmetry_Int_Tables_number      14
_space_group_name_Hall           '-P 2ybc'
loop_
_symmetry_equiv_pos_site_id
_symmetry_equiv_pos_as_xyz
1 x,y,z
2 -x,1/2+y,1/2-z
3 -x,-y,-z
4 x,1/2-y,1/2+z
_cell_length_a                   8.965(2)
_cell_length_b                   21.903(5)
_cell_length_c                   9.197(2)
_cell_angle_alpha                90
_cell_angle_beta                 114.011(4)
_cell_angle_gamma                90
_cell_volume                     1649.65
_exptl_crystal_colour            'light yellow'
_chemical_melting_point          '400.45-401.95 K'
_cell_formula_units_Z            4
_exptl_crystal_recrystallization_method 'absolute ethanol'
loop_
_atom_site_label
_atom_site_type_symbol
_atom_site_fract_x
_atom_site_fract_y
_atom_site_fract_z
S1 S 0.19912(12) 0.41733(4) 0.08959(12)
N1 N 0.7039(3) 0.37832(14) -0.1857(4)
N2 N 0.2771(3) 0.29783(12) -0.0054(3)
N3 N 0.1605(3) 0.29440(11) 0.0577(3)
N4 N 0.0125(3) 0.33703(12) 0.1712(3)
N5 N -0.0109(3) 0.27349(12) 0.1642(3)
O1 O 0.7975(3) 0.38223(13) -0.2511(4)
O2 O 0.6612(4) 0.42244(12) -0.1319(4)
O3 O 0.3421(4) 0.41412(13) 0.4511(3)
O4 O 0.1656(4) 0.47999(14) 0.4746(4)
C1 C 0.5228(3) 0.31389(14) -0.1127(3)
H1 H 0.4798 0.3489 -0.0872
C2 C 0.6430(3) 0.31785(14) -0.1687(3)
C3 C 0.7094(3) 0.26709(15) -0.2089(4)
H2 H 0.7894 0.2712 -0.2482
C4 C 0.6553(4) 0.21095(15) -0.1896(4)
H3 H 0.6996 0.1762 -0.2148
C5 C 0.5339(4) 0.20498(14) -0.1324(3)
H4 H 0.4978 0.1664 -0.1193
C6 C 0.4670(3) 0.25650(14) -0.0952(3)
C7 C 0.3385(3) 0.25013(15) -0.0357(3)
H5 H 0.3030 0.2117 -0.0207
C8 C 0.0763(3) 0.24833(14) 0.0968(3)
C9 C 0.1169(4) 0.34782(14) 0.1085(4)
C10 C 0.1344(5) 0.46050(16) 0.2192(5)
H6 H 0.1428 0.5036 0.1995
H7 H 0.0202 0.4516 0.1923
C11 C 0.2291(5) 0.44832(17) 0.3925(5)
C12 C 0.2410(7) 0.4768(2) 0.6490(6)
H8 H 0.1612 0.4628 0.6879
H9 H 0.3305 0.4478 0.6830
C13 C 0.3002(7) 0.5354(3) 0.7137(7)
H10 H 0.3864 0.5475 0.6831
H11 H 0.3413 0.5337 0.8277
H12 H 0.2129 0.5646 0.6738
C14 C 0.0806(4) 0.18225(14) 0.0704(4)
H13 H 0.1890 0.1671 0.1300
H14 H 0.0497 0.1746 -0.0409
H15 H 0.0057 0.1619 0.1048
loop_
_geom_bond_atom_site_label_1
_geom_bond_atom_site_label_2
_geom_bond_site_symmetry_1
_geom_bond_site_symmetry_2
S1 C9 1_555 1_555
N1 O1 1_555 1_555
N2 N3 1_555 1_555
N3 C8 1_555 1_555
N4 N5 1_555 1_555
N5 C8 1_555 1_555
O2 N1 1_555 1_555
O3 C11 1_555 1_555
O4 C11 1_555 1_555
C1 H1 1_555 1_555
C2 N1 1_555 1_555
C3 C2 1_555 1_555
H2 C3 1_555 1_555
C4 C3 1_555 1_555
H3 C4 1_555 1_555
C5 C4 1_555 1_555
H4 C5 1_555 1_555
C6 C1 1_555 1_555
C7 N2 1_555 1_555
H5 C7 1_555 1_555
C8 C14 1_555 1_555
C9 N3 1_555 1_555
C10 S1 1_555 1_555
H6 C10 1_555 1_555
H7 C10 1_555 1_555
C11 C10 1_555 1_555
C12 O4 1_555 1_555
H8 C12 1_555 1_555
H9 C12 1_555 1_555
C13 C12 1_555 1_555
H10 C13 1_555 1_555
H11 C13 1_555 1_555
H12 C13 1_555 1_555
C14 H13 1_555 1_555
H14 C14 1_555 1_555
H15 C14 1_555 1_555
N4 C9 1_555 1_555
C1 C2 1_555 1_555
C5 C6 1_555 1_555
C6 C7 1_555 1_555

#END
