
#######################################################################
#
#                 Cambridge Crystallographic Data Centre
#                                CCDC 
#
#######################################################################
#
# If this CIF has been generated from an entry in the Cambridge 
# Structural Database, then it will include bibliographic, chemical, 
# crystal, experimental, refinement or atomic coordinate data resulting 
# from the CCDC's data processing and validation procedures.
#
#######################################################################

data_JUHTAJ
_chemical_formula_moiety         'C20 H14 Cl2 N4 S1'
_chemical_name_systematic        
4-(5-((2,4-Dichlorobenzyl)sulfanyl)-4-phenyl-4H-1,2,4-triazol-3-yl)pyridine
_symmetry_cell_setting           monoclinic
_symmetry_space_group_name_H-M   'P 21/c'
_symmetry_Int_Tables_number      14
_space_group_name_Hall           '-P 2ybc'
loop_
_symmetry_equiv_pos_site_id
_symmetry_equiv_pos_as_xyz
1 x,y,z
2 -x,1/2+y,1/2-z
3 -x,-y,-z
4 x,1/2-y,1/2+z
_cell_length_a                   14.885(5)
_cell_length_b                   8.597(2)
_cell_length_c                   16.144(5)
_cell_angle_alpha                90
_cell_angle_beta                 114.505(4)
_cell_angle_gamma                90
_cell_volume                     1879.8
_exptl_crystal_colour            colorless
_exptl_crystal_description       Prism
_cell_formula_units_Z            4
loop_
_atom_site_label
_atom_site_type_symbol
_atom_site_fract_x
_atom_site_fract_y
_atom_site_fract_z
S1 S 0.34965(3) -0.06864(4) 0.30153(3)
Cl1 Cl 0.08611(3) 0.11028(5) 0.16292(3)
Cl2 Cl -0.08019(3) -0.45243(6) 0.07008(3)
N1 N 0.81316(9) 0.49638(14) 0.50335(9)
N2 N 0.51742(8) 0.10229(12) 0.37795(8)
N3 N 0.40897(8) 0.15477(13) 0.43525(8)
N4 N 0.48933(8) 0.25474(13) 0.47453(8)
C1 C 0.72765(10) 0.25381(16) 0.45401(10)
H1 H 0.7290 0.1496 0.4349
C2 C 0.80965(11) 0.34857(17) 0.47680(10)
H2 H 0.8669 0.3059 0.4733
C3 C 0.73165(11) 0.55153(17) 0.50813(10)
H3 H 0.7327 0.6559 0.5278
C4 C 0.64594(11) 0.46707(15) 0.48639(9)
H4 H 0.5897 0.5135 0.4899
C5 C 0.64335(10) 0.31301(16) 0.45936(9)
C6 C 0.55242(10) 0.22277(15) 0.43925(9)
C7 C 0.42773(10) 0.06700(15) 0.37763(10)
C8 C 0.56546(10) 0.02334(15) 0.32856(9)
C9 C 0.55420(11) 0.07870(16) 0.24484(10)
H5 H 0.5109 0.1631 0.2172
C10 C 0.60720(11) 0.00908(17) 0.20153(10)
H6 H 0.6001 0.0456 0.1436
C11 C 0.67035(11) -0.11357(16) 0.24259(10)
H7 H 0.7078 -0.1591 0.2134
C12 C 0.67920(11) -0.17021(16) 0.32588(10)
H8 H 0.7216 -0.2558 0.3531
C13 C 0.62626(11) -0.10211(15) 0.36959(10)
H9 H 0.6315 -0.1407 0.4266
C14 C 0.24514(11) -0.04986(18) 0.33186(11)
H10 H 0.2635 -0.0865 0.3949
H11 H 0.2244 0.0603 0.3279
C15 C 0.16255(10) -0.14745(17) 0.26599(10)
C16 C 0.08779(11) -0.08713(17) 0.18793(11)
C17 C 0.01289(11) -0.17861(19) 0.12757(11)
H12 H -0.0378 -0.1347 0.0749
C18 C 0.01379(11) -0.33579(19) 0.14604(11)
C19 C 0.08567(12) -0.40134(19) 0.22202(12)
H13 H 0.0849 -0.5095 0.2337
C20 C 0.15964(11) -0.30621(18) 0.28161(11)
H14 H 0.2097 -0.3507 0.3345
loop_
_geom_bond_atom_site_label_1
_geom_bond_atom_site_label_2
_geom_bond_site_symmetry_1
_geom_bond_site_symmetry_2
S1 C7 1_555 1_555
Cl1 C16 1_555 1_555
Cl2 C18 1_555 1_555
N1 C2 1_555 1_555
N2 C6 1_555 1_555
N3 N4 1_555 1_555
N4 C6 1_555 1_555
C1 H1 1_555 1_555
C2 C1 1_555 1_555
H2 C2 1_555 1_555
C3 N1 1_555 1_555
H3 C3 1_555 1_555
C4 C3 1_555 1_555
H4 C4 1_555 1_555
C5 C1 1_555 1_555
C6 C5 1_555 1_555
C7 N2 1_555 1_555
C8 N2 1_555 1_555
C9 C8 1_555 1_555
H5 C9 1_555 1_555
C10 C9 1_555 1_555
H6 C10 1_555 1_555
C11 C10 1_555 1_555
H7 C11 1_555 1_555
C12 C11 1_555 1_555
H8 C12 1_555 1_555
C13 C8 1_555 1_555
H9 C13 1_555 1_555
C14 S1 1_555 1_555
H10 C14 1_555 1_555
H11 C14 1_555 1_555
C15 C14 1_555 1_555
C16 C15 1_555 1_555
C17 C16 1_555 1_555
H12 C17 1_555 1_555
C18 C17 1_555 1_555
C19 C18 1_555 1_555
H13 C19 1_555 1_555
C20 C15 1_555 1_555
H14 C20 1_555 1_555
N3 C7 1_555 1_555
C4 C5 1_555 1_555
C12 C13 1_555 1_555
C19 C20 1_555 1_555

#END
