
#######################################################################
#
#                 Cambridge Crystallographic Data Centre
#                                CCDC 
#
#######################################################################
#
# If this CIF has been generated from an entry in the Cambridge 
# Structural Database, then it will include bibliographic, chemical, 
# crystal, experimental, refinement or atomic coordinate data resulting 
# from the CCDC's data processing and validation procedures.
#
#######################################################################

data_JUJKII
_chemical_formula_moiety         'C62 H62,2(C5 H5 N1)'
_chemical_name_systematic        
'(E,E)-1,8-bis(4-(2-(3,5-Di-t-butylphenyl)ethenyl)phenylethynyl)anthracene pyridine solvate'
_symmetry_cell_setting           triclinic
_symmetry_space_group_name_H-M   'P -1'
_symmetry_Int_Tables_number      2
_space_group_name_Hall           '-P 1'
loop_
_symmetry_equiv_pos_site_id
_symmetry_equiv_pos_as_xyz
1 x,y,z
2 -x,-y,-z
_cell_length_a                   11.834(1)
_cell_length_b                   25.278(2)
_cell_length_c                   10.147(1)
_cell_angle_alpha                95.54(1)
_cell_angle_beta                 96.60(1)
_cell_angle_gamma                77.80(1)
_cell_volume                     2938.99
_chemical_melting_point          267-270deg.C
_cell_formula_units_Z            2
loop_
_atom_site_label
_atom_site_type_symbol
_atom_site_fract_x
_atom_site_fract_y
_atom_site_fract_z
C1 C 0.3285(3) 0.3865(1) 0.0051(4)
C2 C 0.2589(4) 0.3694(2) -0.1016(5)
C3 C 0.2452(4) 0.3156(2) -0.1219(5)
C4 C 0.2972(4) 0.2783(2) -0.0336(5)
C5 C 0.5559(4) 0.2314(2) 0.3712(5)
C6 C 0.6325(5) 0.2456(2) 0.4737(5)
C7 C 0.6557(4) 0.2977(2) 0.4900(5)
C8 C 0.6012(4) 0.3376(1) 0.4065(4)
C9 C 0.4635(3) 0.3624(1) 0.2076(4)
C10 C 0.4252(4) 0.2565(1) 0.1708(4)
C11 C 0.4996(4) 0.2703(1) 0.2782(4)
C12 C 0.5208(3) 0.3244(1) 0.2971(4)
C13 C 0.3893(3) 0.3481(1) 0.0995(4)
C14 C 0.3714(3) 0.2933(1) 0.0800(4)
C15 C 0.3385(3) 0.4422(1) 0.0224(4)
C16 C 0.3384(3) 0.4896(2) 0.0308(4)
C17 C 0.3352(3) 0.5463(1) 0.0355(4)
C18 C 0.2964(4) 0.5749(2) -0.0784(4)
C19 C 0.2927(4) 0.6285(2) -0.0778(6)
C20 C 0.3280(4) 0.6586(2) 0.0287(7)
C21 C 0.3666(4) 0.6314(2) 0.1446(6)
C22 C 0.3712(4) 0.5758(2) 0.1490(5)
C23 C 0.3179(5) 0.7177(2) 0.0117(5)
C24 C 0.3045(5) 0.7532(2) 0.1149(5)
C25 C 0.2823(4) 0.8127(2) 0.0986(6)
C26 C 0.3205(4) 0.8410(2) 0.0069(5)
C27 C 0.2963(4) 0.8974(2) 0.0128(4)
C28 C 0.2321(4) 0.9243(1) 0.1137(4)
C29 C 0.1925(4) 0.8971(2) 0.2059(4)
C30 C 0.2191(4) 0.8421(2) 0.1987(5)
C31 C 0.3391(5) 0.9279(2) -0.0881(5)
C32 C 0.3153(7) 0.9879(2) -0.0598(7)
C33 C 0.4710(6) 0.9094(3) -0.0929(7)
C34 C 0.2800(7) 0.9156(3) -0.2259(6)
C35 C 0.1194(5) 0.9297(2) 0.3138(5)
C36 C 0.1820(8) 0.9703(4) 0.3913(8)
C37 C 0.0073(8) 0.9584(4) 0.2503(8)
C38 C 0.095(1) 0.8957(4) 0.4165(9)
C39 C 0.6235(4) 0.3910(2) 0.4289(4)
C40 C 0.6407(3) 0.4363(2) 0.4463(4)
C41 C 0.6586(3) 0.4905(1) 0.4612(4)
C42 C 0.6193(4) 0.5245(2) 0.3588(4)
C43 C 0.6332(4) 0.5764(2) 0.3695(5)
C44 C 0.6871(4) 0.5990(1) 0.4808(5)
C45 C 0.7280(4) 0.5653(2) 0.5850(5)
C46 C 0.7149(4) 0.5117(2) 0.5772(4)
C47 C 0.6932(4) 0.6571(2) 0.4789(5)
C48 C 0.7490(4) 0.6825(2) 0.5764(5)
C49 C 0.7540(4) 0.7411(2) 0.5750(5)
C50 C 0.6940(4) 0.7778(2) 0.4862(5)
C51 C 0.7043(4) 0.8323(2) 0.4966(5)
C52 C 0.7811(4) 0.8478(2) 0.6009(5)
C53 C 0.8418(4) 0.8119(2) 0.6912(5)
C54 C 0.8257(4) 0.7594(2) 0.6756(5)
C55 C 0.6385(5) 0.8732(2) 0.3991(5)
C56 C 0.569(1) 0.9205(5) 0.479(1)
C57 C 0.723(1) 0.8928(7) 0.323(2)
C58 C 0.553(1) 0.8481(6) 0.302(1)
C59 C 0.9242(5) 0.8296(2) 0.8048(5)
C60 C 1.0451(8) 0.7956(5) 0.788(2)
C61 C 0.935(1) 0.8885(3) 0.810(1)
C62 C 0.890(2) 0.8197(7) 0.9389(9)
H1 H 0.21714 0.39615 -0.16611
H2 H 0.19642 0.30422 -0.20251
H3 H 0.28363 0.24038 -0.04789
H4 H 0.53930 0.19401 0.36139
H5 H 0.67222 0.21820 0.53750
H6 H 0.71353 0.30658 0.56431
H7 H 0.47596 0.40054 0.22146
H8 H 0.41002 0.21883 0.15885
H9 H 0.27059 0.55486 -0.16252
H10 H 0.26202 0.64683 -0.16134
H11 H 0.39176 0.65251 0.22722
H12 H 0.40023 0.55758 0.23308
H13 H 0.32148 0.73005 -0.07815
H14 H 0.30914 0.74025 0.20576
H15 H 0.36645 0.82019 -0.06499
H16 H 0.21346 0.96492 0.12049
H17 H 0.19283 0.82232 0.26640
H18 H 0.34567 1.00494 -0.12961
H19 H 0.35467 0.99716 0.02942
H20 H 0.22967 1.00175 -0.06020
H21 H 0.49740 0.92974 -0.15932
H22 H 0.51151 0.91673 -0.00305
H23 H 0.48988 0.86960 -0.11943
H24 H 0.30760 0.93540 -0.29245
H25 H 0.19391 0.92756 -0.22511
H26 H 0.29958 0.87565 -0.25042
H27 H 0.13299 0.99100 0.46073
H28 H 0.19718 0.99606 0.32971
H29 H 0.25745 0.95100 0.43512
H30 H -0.04034 0.97962 0.32022
H31 H 0.02207 0.98368 0.18716
H32 H -0.03549 0.93138 0.20048
H33 H 0.04713 0.91952 0.48291
H34 H 0.16968 0.87701 0.46275
H35 H 0.05104 0.86799 0.37209
H36 H 0.57961 0.51011 0.27482
H37 H 0.60293 0.59930 0.29306
H38 H 0.76797 0.58035 0.66798
H39 H 0.74527 0.48854 0.65312
H40 H 0.65371 0.67756 0.40106
H41 H 0.78928 0.66201 0.65378
H42 H 0.64118 0.76497 0.41148
H43 H 0.79256 0.88612 0.61057
H44 H 0.86875 0.73333 0.74118
H45 H 0.51424 0.90698 0.52912
H46 H 0.62373 0.93779 0.54393
H47 H 0.52459 0.94789 0.41797
H48 H 0.77849 0.90934 0.38699
H49 H 0.67848 0.92066 0.26226
H50 H 0.76620 0.86149 0.26923
H51 H 0.59677 0.81686 0.24827
H52 H 0.50869 0.87595 0.24200
H53 H 0.49820 0.83504 0.35307
H54 H 1.04238 0.75616 0.78445
H55 H 1.10009 0.80452 0.86549
H56 H 1.07209 0.80368 0.70399
H57 H 0.95730 0.89624 0.72252
H58 H 0.99613 0.89556 0.88218
H59 H 0.85899 0.91260 0.82798
H60 H 0.81120 0.84162 0.95222
H61 H 0.94778 0.83069 1.01109
H62 H 0.89018 0.78029 0.94173
N1 N 0.9378(5) 0.4324(3) 0.3430(6)
C63 C 0.9839(5) 0.3883(2) 0.2624(7)
C64 C 1.0324(6) 0.3975(2) 0.1531(6)
C65 C 1.0391(6) 0.4491(3) 0.1281(6)
C66 C 0.9925(6) 0.4934(2) 0.2096(7)
C67 C 0.9417(6) 0.4845(3) 0.3180(6)
H63 H 0.98217 0.35056 0.28292
H64 H 1.06347 0.36621 0.09035
H65 H 1.07817 0.45470 0.04979
H66 H 0.99578 0.53099 0.19007
H67 H 0.90744 0.51579 0.37883
N2 N 0.0556(6) 0.6377(2) 0.3367(7)
C68 C 0.0746(6) 0.6463(3) 0.2095(6)
C69 C 0.0587(6) 0.6982(3) 0.1715(6)
C70 C 0.0207(6) 0.7422(2) 0.2565(6)
C71 C 0.0008(6) 0.7341(2) 0.3829(6)
C72 C 0.0168(7) 0.6823(3) 0.4218(6)
H68 H 0.00765 0.77974 0.22681
H69 H 0.09989 0.61470 0.14501
H70 H 0.07510 0.70399 0.08009
H71 H -0.02541 0.76594 0.44649
H72 H 0.00016 0.67671 0.51331
C73? C 0.653(20) 0.9313(3) 0.438(2)
C74? C 0.5091(7) 0.874(1) 0.380(3)
C75? C 0.687(2) 0.8577(8) 0.265(1)
C76? C 1.015(1) 0.855(1) 0.756(2)
C77? C 0.849(1) 0.8720(8) 0.891(2)
C78? C 0.980(1) 0.7838(7) 0.892(2)
H73? H 0.73763 0.93227 0.45191
H74? H 0.61454 0.95499 0.36571
H75? H 0.61652 0.94463 0.52243
H76? H 0.47538 0.88430 0.46667
H77? H 0.47067 0.90136 0.31464
H78? H 0.49582 0.83737 0.34448
H79? H 0.67974 0.81964 0.23464
H80? H 0.77095 0.86021 0.27425
H81? H 0.64287 0.88296 0.19858
H82? H 1.06467 0.82731 0.69873
H83? H 1.06360 0.86833 0.83338
H84? H 0.97507 0.88610 0.70220
H85? H 0.80964 0.90314 0.83746
H86? H 0.89800 0.88526 0.96869
H87? H 0.78832 0.85552 0.92399
H88? H 0.91829 0.76783 0.92337
H89? H 1.02630 0.79837 0.97111
H90? H 1.03252 0.75518 0.84032
loop_
_geom_bond_atom_site_label_1
_geom_bond_atom_site_label_2
_geom_bond_site_symmetry_1
_geom_bond_site_symmetry_2
C1 C2 1_555 1_555
C2 C3 1_555 1_555
C3 C4 1_555 1_555
C4 C14 1_555 1_555
C5 C6 1_555 1_555
C6 C7 1_555 1_555
C7 C8 1_555 1_555
C8 C12 1_555 1_555
C9 C12 1_555 1_555
C10 C11 1_555 1_555
C11 C5 1_555 1_555
C12 C11 1_555 1_555
C13 C1 1_555 1_555
C14 C10 1_555 1_555
C15 C1 1_555 1_555
C16 C15 1_555 1_555
C17 C16 1_555 1_555
C18 C17 1_555 1_555
C19 C18 1_555 1_555
C20 C19 1_555 1_555
C21 C20 1_555 1_555
C22 C17 1_555 1_555
C23 C20 1_555 1_555
C24 C23 1_555 1_555
C25 C24 1_555 1_555
C26 C25 1_555 1_555
C27 C26 1_555 1_555
C28 C27 1_555 1_555
C29 C28 1_555 1_555
C30 C25 1_555 1_555
C31 C27 1_555 1_555
C32 C31 1_555 1_555
C33 C31 1_555 1_555
C34 C31 1_555 1_555
C35 C29 1_555 1_555
C36 C35 1_555 1_555
C37 C35 1_555 1_555
C38 C35 1_555 1_555
C39 C8 1_555 1_555
C40 C39 1_555 1_555
C41 C40 1_555 1_555
C42 C41 1_555 1_555
C43 C42 1_555 1_555
C44 C43 1_555 1_555
C45 C44 1_555 1_555
C46 C41 1_555 1_555
C47 C44 1_555 1_555
C48 C47 1_555 1_555
C49 C48 1_555 1_555
C50 C49 1_555 1_555
C51 C50 1_555 1_555
C52 C51 1_555 1_555
C53 C52 1_555 1_555
C54 C49 1_555 1_555
C55 C51 1_555 1_555
C56 C55 1_555 1_555
C57 C55 1_555 1_555
C58 C55 1_555 1_555
C59 C53 1_555 1_555
C60 C59 1_555 1_555
C61 C59 1_555 1_555
C62 C59 1_555 1_555
H1 C2 1_555 1_555
H2 C3 1_555 1_555
H3 C4 1_555 1_555
H4 C5 1_555 1_555
H5 C6 1_555 1_555
H6 C7 1_555 1_555
H7 C9 1_555 1_555
H8 C10 1_555 1_555
H9 C18 1_555 1_555
H10 C19 1_555 1_555
H11 C21 1_555 1_555
H12 C22 1_555 1_555
H13 C23 1_555 1_555
H14 C24 1_555 1_555
H15 C26 1_555 1_555
H16 C28 1_555 1_555
H17 C30 1_555 1_555
H18 C32 1_555 1_555
H19 C32 1_555 1_555
H20 C32 1_555 1_555
H21 C33 1_555 1_555
H22 C33 1_555 1_555
H23 C33 1_555 1_555
H24 C34 1_555 1_555
H25 C34 1_555 1_555
H26 C34 1_555 1_555
H27 C36 1_555 1_555
H28 C36 1_555 1_555
H29 C36 1_555 1_555
H30 C37 1_555 1_555
H31 C37 1_555 1_555
H32 C37 1_555 1_555
H33 C38 1_555 1_555
H34 C38 1_555 1_555
H35 C38 1_555 1_555
H36 C42 1_555 1_555
H37 C43 1_555 1_555
H38 C45 1_555 1_555
H39 C46 1_555 1_555
H40 C47 1_555 1_555
H41 C48 1_555 1_555
H42 C50 1_555 1_555
H43 C52 1_555 1_555
H44 C54 1_555 1_555
H45 C56 1_555 1_555
H46 C56 1_555 1_555
H47 C56 1_555 1_555
H48 C57 1_555 1_555
H49 C57 1_555 1_555
H50 C57 1_555 1_555
H51 C58 1_555 1_555
H52 C58 1_555 1_555
H53 C58 1_555 1_555
H54 C60 1_555 1_555
H55 C60 1_555 1_555
H56 C60 1_555 1_555
H57 C61 1_555 1_555
H58 C61 1_555 1_555
H59 C61 1_555 1_555
H60 C62 1_555 1_555
H61 C62 1_555 1_555
H62 C62 1_555 1_555
N1 C63 1_555 1_555
C63 C64 1_555 1_555
C64 C65 1_555 1_555
C65 C66 1_555 1_555
C66 C67 1_555 1_555
C67 N1 1_555 1_555
H63 C63 1_555 1_555
H64 C64 1_555 1_555
H65 C65 1_555 1_555
H66 C66 1_555 1_555
H67 C67 1_555 1_555
N2 C68 1_555 1_555
C68 C69 1_555 1_555
C69 C70 1_555 1_555
C70 C71 1_555 1_555
C71 C72 1_555 1_555
C72 N2 1_555 1_555
H68 C70 1_555 1_555
H69 C68 1_555 1_555
H70 C69 1_555 1_555
H71 C71 1_555 1_555
H72 C72 1_555 1_555
C9 C13 1_555 1_555
C13 C14 1_555 1_555
C21 C22 1_555 1_555
C29 C30 1_555 1_555
C45 C46 1_555 1_555
C53 C54 1_555 1_555

#END
