
#######################################################################
#
#                 Cambridge Crystallographic Data Centre
#                                CCDC 
#
#######################################################################
#
# If this CIF has been generated from an entry in the Cambridge 
# Structural Database, then it will include bibliographic, chemical, 
# crystal, experimental, refinement or atomic coordinate data resulting 
# from the CCDC's data processing and validation procedures.
#
#######################################################################

data_JUKDIE
_chemical_formula_moiety         'C18 H16 N6'
_chemical_name_systematic        
(4-(4-(pyrimidin-2-yl)piperazin-1-yl)benzylidene)malononitrile
_symmetry_cell_setting           triclinic
_symmetry_space_group_name_H-M   'P -1'
_symmetry_Int_Tables_number      2
_space_group_name_Hall           '-P 1'
loop_
_symmetry_equiv_pos_site_id
_symmetry_equiv_pos_as_xyz
1 x,y,z
2 -x,-y,-z
_cell_length_a                   6.151(2)
_cell_length_b                   9.551(4)
_cell_length_c                   14.379(5)
_cell_angle_alpha                76.173(19)
_cell_angle_beta                 78.083(19)
_cell_angle_gamma                80.854(18)
_cell_volume                     797.225
_exptl_crystal_colour            colorless
_exptl_crystal_description       Prism
_cell_formula_units_Z            2
loop_
_atom_site_label
_atom_site_type_symbol
_atom_site_fract_x
_atom_site_fract_y
_atom_site_fract_z
C1 C 0.4564(5) 0.2862(3) 0.5088(2)
C2 C 0.1324(5) 0.3788(3) 0.5899(3)
H1 H -0.0214 0.4047 0.5970
C3 C 0.2413(6) 0.3999(3) 0.6582(2)
H2 H 0.1661 0.4388 0.7111
C4 C 0.4669(6) 0.3604(3) 0.6446(2)
H3 H 0.5456 0.3743 0.6898
C5 C 0.4566(5) 0.2268(3) 0.3516(2)
H4 H 0.4971 0.3096 0.3002
H5 H 0.2955 0.2385 0.3717
C6 C 0.5266(5) 0.0909(3) 0.3139(2)
H6 H 0.4669 0.0103 0.3624
H7 H 0.4634 0.1001 0.2560
C7 C 0.8790(5) 0.0610(3) 0.3719(2)
H8 H 1.0399 0.0519 0.3507
H9 H 0.8433 -0.0218 0.4242
C8 C 0.8061(5) 0.1975(4) 0.4093(3)
H10 H 0.8702 0.1905 0.4667
H11 H 0.8608 0.2790 0.3602
C9 C 0.8671(5) -0.0272(3) 0.2252(2)
C10 C 0.7523(5) -0.0433(3) 0.1532(2)
H12 H 0.6087 0.0044 0.1510
C11 C 0.8465(5) -0.1268(3) 0.0869(2)
H13 H 0.7655 -0.1344 0.0408
C12 C 1.0624(5) -0.2012(3) 0.0868(2)
C13 C 1.1766(5) -0.1834(3) 0.1575(2)
H14 H 1.3216 -0.2291 0.1586
C14 C 1.0832(5) -0.1014(3) 0.2248(2)
H15 H 1.1643 -0.0947 0.2711
C15 C 1.1728(5) -0.2941(3) 0.0222(2)
H16 H 1.3148 -0.3358 0.0334
C16 C 1.1099(5) -0.3327(3) -0.0521(2)
C17 C 0.9007(6) -0.2850(3) -0.0853(2)
C18 C 1.2567(6) -0.4347(4) -0.1017(2)
N1 N 0.5808(4) 0.3032(3) 0.5708(2)
N2 N 0.2353(4) 0.3232(3) 0.51366(19)
N3 N 0.5636(4) 0.2223(3) 0.43362(19)
N4 N 0.7702(4) 0.0591(3) 0.29042(18)
N5 N 0.7344(5) -0.2473(3) -0.1133(2)
N6 N 1.3727(5) -0.5170(3) -0.1405(2)
loop_
_geom_bond_atom_site_label_1
_geom_bond_atom_site_label_2
_geom_bond_site_symmetry_1
_geom_bond_site_symmetry_2
C1 N1 1_555 1_555
C2 H1 1_555 1_555
C3 C2 1_555 1_555
H2 C3 1_555 1_555
C4 C3 1_555 1_555
H3 C4 1_555 1_555
C5 H4 1_555 1_555
H5 C5 1_555 1_555
C6 C5 1_555 1_555
H6 C6 1_555 1_555
H7 C6 1_555 1_555
C7 H8 1_555 1_555
H9 C7 1_555 1_555
C8 C7 1_555 1_555
H10 C8 1_555 1_555
H11 C8 1_555 1_555
C9 C10 1_555 1_555
C10 H12 1_555 1_555
C11 C10 1_555 1_555
H13 C11 1_555 1_555
C12 C11 1_555 1_555
C13 C12 1_555 1_555
H14 C13 1_555 1_555
C14 C9 1_555 1_555
H15 C14 1_555 1_555
C15 C12 1_555 1_555
H16 C15 1_555 1_555
C16 C15 1_555 1_555
C17 C16 1_555 1_555
C18 C16 1_555 1_555
N1 C4 1_555 1_555
N2 C1 1_555 1_555
N3 C1 1_555 1_555
N4 C6 1_555 1_555
N5 C17 1_555 1_555
N6 C18 1_555 1_555
C2 N2 1_555 1_555
C5 N3 1_555 1_555
C7 N4 1_555 1_555
C8 N3 1_555 1_555
C9 N4 1_555 1_555
C13 C14 1_555 1_555

#END
