
#######################################################################
#
#                 Cambridge Crystallographic Data Centre
#                                CCDC 
#
#######################################################################
#
# If this CIF has been generated from an entry in the Cambridge 
# Structural Database, then it will include bibliographic, chemical, 
# crystal, experimental, refinement or atomic coordinate data resulting 
# from the CCDC's data processing and validation procedures.
#
#######################################################################

data_JUKDOI
_chemical_formula_moiety         'C18 H26 N2 O4'
_chemical_name_systematic        
'(1S*,5S*,10R*,11R*,13S*)-5-(4-Morpholinyl)-3-aza-4-oxatetracyclo(11.3.0.0^2,11^.0^5,10^)hexadeca-1-en-6-one N-oxide'
_symmetry_cell_setting           triclinic
_symmetry_space_group_name_H-M   'P -1'
_symmetry_Int_Tables_number      2
_space_group_name_Hall           '-P 1'
loop_
_symmetry_equiv_pos_site_id
_symmetry_equiv_pos_as_xyz
1 x,y,z
2 -x,-y,-z
_cell_length_a                   7.466(4)
_cell_length_b                   9.182(4)
_cell_length_c                   13.185(7)
_cell_angle_alpha                110.98(4)
_cell_angle_beta                 94.75(4)
_cell_angle_gamma                93.03(4)
_cell_volume                     837.736
_exptl_crystal_colour            colorless
_chemical_melting_point          168-169deg.C
_cell_formula_units_Z            2
loop_
_atom_site_label
_atom_site_type_symbol
_atom_site_fract_x
_atom_site_fract_y
_atom_site_fract_z
O1 O 0.5162(4) 0.4511(3) 0.2056(3)
O2 O 0.2797(5) 0.3984(4) 0.0792(3)
O3 O 0.3793(5) 0.6304(4) 0.3882(3)
O4 O 0.9659(5) 0.2126(4) 0.3218(3)
N1 N 0.3966(5) 0.5069(5) 0.1384(3)
N2 N 0.7773(5) 0.4766(4) 0.3213(3)
C1 C 0.6416(6) 0.5647(5) 0.2913(4)
C2 C 0.5418(7) 0.6481(5) 0.3916(4)
C3 C 0.6605(8) 0.7635(6) 0.4870(4)
C4 C 0.7576(8) 0.8868(6) 0.4534(4)
C5 C 0.8497(7) 0.8138(6) 0.3489(4)
C6 C 0.7204(6) 0.6956(5) 0.2547(4)
C7 C 0.5630(7) 0.7681(5) 0.2162(4)
C8 C 0.6042(7) 0.8663(6) 0.1454(4)
C9 C 0.4224(7) 0.8613(6) 0.0792(4)
C10 C 0.3008(8) 0.9902(7) 0.1341(5)
C11 C 0.1133(10) 0.9108(8) 0.0972(7)
C12 C 0.1237(7) 0.7467(7) 0.0945(5)
C13 C 0.3139(7) 0.7049(6) 0.0646(4)
C14 C 0.4196(6) 0.6484(5) 0.1419(3)
C15 C 0.8981(7) 0.4027(6) 0.2373(4)
C16 C 1.0416(7) 0.3281(6) 0.2844(4)
C17 C 0.8511(8) 0.2837(6) 0.4030(4)
C18 C 0.7020(7) 0.3579(6) 0.3613(4)
H1 H 0.7487 0.7097 0.5136
H2 H 0.5877 0.8120 0.5446
H3 H 0.8456 0.9504 0.5120
H4 H 0.6705 0.9534 0.4408
H5 H 0.9506 0.7622 0.3653
H6 H 0.8950 0.8952 0.3256
H7 H 0.7865 0.6476 0.1936
H8 H 0.5104 0.8326 0.2792
H9 H 0.6941 0.8211 0.0984
H10 H 0.6465 0.9723 0.1905
H11 H 0.4428 0.8640 0.0089
H12 H 0.3196 1.0789 0.1127
H13 H 0.3244 1.0237 0.2121
H14 H 0.0758 0.9093 0.0254
H15 H 0.0294 0.9646 0.1460
H16 H 0.0332 0.6756 0.0413
H17 H 0.1077 0.7427 0.1650
H18 H 0.3096 0.6311 -0.0089
H19 H 0.9515 0.4804 0.2133
H20 H 0.8304 0.3231 0.1754
H21 H 1.1219 0.2813 0.2309
H22 H 1.1105 0.4088 0.3452
H23 H 0.9212 0.3628 0.4641
H24 H 0.8003 0.2061 0.4280
H25 H 0.6277 0.2784 0.3026
H26 H 0.6279 0.4061 0.4183
loop_
_geom_bond_atom_site_label_1
_geom_bond_atom_site_label_2
_geom_bond_site_symmetry_1
_geom_bond_site_symmetry_2
O1 N1 1_555 1_555
O2 N1 1_555 1_555
O3 C2 1_555 1_555
O4 C16 1_555 1_555
N1 C14 1_555 1_555
N2 C1 1_555 1_555
C1 O1 1_555 1_555
C2 C1 1_555 1_555
C3 C2 1_555 1_555
C4 C3 1_555 1_555
C5 C4 1_555 1_555
C6 C1 1_555 1_555
C7 C6 1_555 1_555
C8 C7 1_555 1_555
C9 C8 1_555 1_555
C10 C9 1_555 1_555
C11 C10 1_555 1_555
C12 C11 1_555 1_555
C13 C9 1_555 1_555
C14 C7 1_555 1_555
C15 N2 1_555 1_555
C16 C15 1_555 1_555
C17 O4 1_555 1_555
C18 N2 1_555 1_555
H1 C3 1_555 1_555
H2 C3 1_555 1_555
H3 C4 1_555 1_555
H4 C4 1_555 1_555
H5 C5 1_555 1_555
H6 C5 1_555 1_555
H7 C6 1_555 1_555
H8 C7 1_555 1_555
H9 C8 1_555 1_555
H10 C8 1_555 1_555
H11 C9 1_555 1_555
H12 C10 1_555 1_555
H13 C10 1_555 1_555
H14 C11 1_555 1_555
H15 C11 1_555 1_555
H16 C12 1_555 1_555
H17 C12 1_555 1_555
H18 C13 1_555 1_555
H19 C15 1_555 1_555
H20 C15 1_555 1_555
H21 C16 1_555 1_555
H22 C16 1_555 1_555
H23 C17 1_555 1_555
H24 C17 1_555 1_555
H25 C18 1_555 1_555
H26 C18 1_555 1_555
C5 C6 1_555 1_555
C12 C13 1_555 1_555
C13 C14 1_555 1_555
C17 C18 1_555 1_555

#END
