
#######################################################################
#
#                 Cambridge Crystallographic Data Centre
#                                CCDC 
#
#######################################################################
#
# If this CIF has been generated from an entry in the Cambridge 
# Structural Database, then it will include bibliographic, chemical, 
# crystal, experimental, refinement or atomic coordinate data resulting 
# from the CCDC's data processing and validation procedures.
#
#######################################################################

data_JUKDIC
_chemical_formula_moiety         'C12 H17 N1 O4'
_chemical_name_systematic        
1-Hydroxy-9-methyl-2-nitrotricyclo(5.3.1.0^2,6^)undec-11-one
_symmetry_cell_setting           monoclinic
_symmetry_space_group_name_H-M   'C 2/c'
_symmetry_Int_Tables_number      15
_space_group_name_Hall           '-C 2yn'
loop_
_symmetry_equiv_pos_site_id
_symmetry_equiv_pos_as_xyz
1 x,y,z
2 1/2+x,1/2+y,z
3 -x,y,1/2-z
4 1/2-x,1/2+y,1/2-z
5 -x,-y,-z
6 1/2-x,1/2-y,-z
7 x,-y,1/2+z
8 1/2+x,1/2-y,1/2+z
_cell_length_a                   16.742(4)
_cell_length_b                   6.773(1)
_cell_length_c                   21.950(4)
_cell_angle_alpha                90
_cell_angle_beta                 108.21(1)
_cell_angle_gamma                90
_cell_volume                     2364.33
_exptl_crystal_colour            colorless
_cell_formula_units_Z            8
loop_
_atom_site_label
_atom_site_type_symbol
_atom_site_fract_x
_atom_site_fract_y
_atom_site_fract_z
O1 O 0.1076(1) 0.1348(3) 0.2607(1)
O2 O 0.1027(1) 0.4996(3) 0.2059(1)
O3 O 0.0931(2) 0.5838(3) 0.0664(1)
O4 O 0.1168(2) 0.3364(3) 0.0141(1)
N1 N 0.1129(1) 0.4119(4) 0.0632(1)
C1 C 0.0924(2) 0.1409(3) 0.2030(1)
C2 C 0.0796(2) 0.3331(3) 0.1656(1)
C3 C 0.1376(2) 0.2920(3) 0.1249(1)
C4 C 0.2307(2) 0.3385(5) 0.1587(2)
C5 C 0.2779(2) 0.1813(5) 0.1340(2)
C6 C 0.2260(2) -0.0025(5) 0.1331(2)
C7 C 0.1340(2) 0.0654(4) 0.1129(1)
C8 C 0.0830(2) -0.0175(4) 0.1544(1)
C9 C -0.0123(2) -0.0295(4) 0.1173(1)
C10 C -0.0457(2) 0.1631(4) 0.0832(1)
C11 C -0.0155(2) 0.3386(4) 0.1273(1)
C12 C -0.1414(2) 0.1598(6) 0.0572(2)
H1 H 0.1124(27) 0.4512(65) 0.2419(22)
H2 H 0.2408(20) 0.3267(41) 0.2056(17)
H3 H 0.2424(20) 0.4849(54) 0.1513(16)
H4 H 0.2763(21) 0.2136(50) 0.0890(18)
H5 H 0.3358(23) 0.1785(44) 0.1606(16)
H6 H 0.2389(19) -0.0450(48) 0.1731(17)
H7 H 0.2317(21) -0.1141(51) 0.1072(16)
H8 H 0.1073(13) 0.0417(32) 0.0673(12)
H9 H 0.1055(16) -0.1391(41) 0.1715(12)
H10 H -0.0183(16) -0.1341(40) 0.0872(13)
H11 H -0.0415(17) -0.0598(40) 0.1467(13)
H12 H -0.0245(15) 0.1710(32) 0.0448(12)
H13 H -0.0441(17) 0.3446(35) 0.1616(13)
H14 H -0.0261(15) 0.4569(44) 0.1048(13)
H15 H -0.1641(19) 0.0507(51) 0.0277(15)
H16 H -0.1648(21) 0.2889(58) 0.0355(16)
H17 H -0.1623(17) 0.1522(37) 0.0934(14)
loop_
_geom_bond_atom_site_label_1
_geom_bond_atom_site_label_2
_geom_bond_site_symmetry_1
_geom_bond_site_symmetry_2
O1 C1 1_555 1_555
O2 C2 1_555 1_555
O3 N1 1_555 1_555
O4 N1 1_555 1_555
N1 C3 1_555 1_555
C1 C2 1_555 1_555
C2 C3 1_555 1_555
C3 C4 1_555 1_555
C4 C5 1_555 1_555
C5 C6 1_555 1_555
C6 C7 1_555 1_555
C7 C3 1_555 1_555
C8 C1 1_555 1_555
C9 C8 1_555 1_555
C10 C9 1_555 1_555
C11 C2 1_555 1_555
C12 C10 1_555 1_555
H1 O2 1_555 1_555
H2 C4 1_555 1_555
H3 C4 1_555 1_555
H4 C5 1_555 1_555
H5 C5 1_555 1_555
H6 C6 1_555 1_555
H7 C6 1_555 1_555
H8 C7 1_555 1_555
H9 C8 1_555 1_555
H10 C9 1_555 1_555
H11 C9 1_555 1_555
H12 C10 1_555 1_555
H13 C11 1_555 1_555
H14 C11 1_555 1_555
H15 C12 1_555 1_555
H16 C12 1_555 1_555
H17 C12 1_555 1_555
C7 C8 1_555 1_555
C10 C11 1_555 1_555

#END
