
#######################################################################
#
#                 Cambridge Crystallographic Data Centre
#                                CCDC 
#
#######################################################################
#
# If this CIF has been generated from an entry in the Cambridge 
# Structural Database, then it will include bibliographic, chemical, 
# crystal, experimental, refinement or atomic coordinate data resulting 
# from the CCDC's data processing and validation procedures.
#
#######################################################################

data_JUKVIW
_chemical_formula_moiety         'C28 H42 N2 O4'
_chemical_name_systematic        
8,19-Di-n-butyl-7,8,9,10,18,19,20,21-octahydro-6H,17H-dibenzo[b,k][1,4,10,13,7,16]tetraoxadiazacyclo-octadecine
_symmetry_cell_setting           monoclinic
_symmetry_space_group_name_H-M   'P 21/n'
_symmetry_Int_Tables_number      14
_space_group_name_Hall           '-P 2yn'
loop_
_symmetry_equiv_pos_site_id
_symmetry_equiv_pos_as_xyz
1 x,y,z
2 1/2-x,1/2+y,1/2-z
3 -x,-y,-z
4 1/2+x,1/2-y,1/2+z
_cell_length_a                   16.1140(18)
_cell_length_b                   4.7953(5)
_cell_length_c                   17.101(2)
_cell_angle_alpha                90
_cell_angle_beta                 97.747(4)
_cell_angle_gamma                90
_cell_volume                     1309.36
_exptl_crystal_colour            colorless
_exptl_crystal_description       block
_cell_formula_units_Z            2
loop_
_atom_site_label
_atom_site_type_symbol
_atom_site_fract_x
_atom_site_fract_y
_atom_site_fract_z
C1 C 0.73267(16) 0.0362(6) 0.57273(15)
C2 C 0.68968(16) -0.1453(6) 0.61730(16)
C3 C 0.73349(18) -0.3291(6) 0.66935(16)
H1 H 0.7043 -0.4528 0.6994
C4 C 0.82077(18) -0.3330(6) 0.67775(17)
H2 H 0.8511 -0.4590 0.7138
C5 C 0.86291(18) -0.1552(6) 0.63411(17)
H3 H 0.9224 -0.1590 0.6399
C6 C 0.81893(17) 0.0310(6) 0.58126(16)
H4 H 0.8484 0.1539 0.5512
C7 C 0.72162(17) 0.3866(6) 0.47165(16)
H5 H 0.7504 0.2749 0.4347
H6 H 0.7637 0.5054 0.5034
C8 C 0.65410(17) 0.5670(6) 0.42599(16)
H7 H 0.6208 0.6512 0.4645
H8 H 0.6823 0.7218 0.4017
C9 C 0.53541(18) 0.2450(6) 0.39238(18)
H9 H 0.5443 0.2436 0.4508
H10 H 0.5454 0.0538 0.3739
C10 C 0.44577(17) 0.3275(6) 0.36383(17)
H11 H 0.4336 0.5158 0.3831
H12 H 0.4350 0.3267 0.3055
C11 C 0.63681(19) 0.3266(7) 0.29972(17)
H13 H 0.6614 0.1425 0.3155
H14 H 0.6833 0.4530 0.2912
C12 C 0.5796(2) 0.2947(8) 0.22333(18)
H15 H 0.5506 0.4741 0.2103
H16 H 0.5364 0.1534 0.2304
C13 C 0.6242(2) 0.2085(9) 0.15483(19)
H17 H 0.6665 0.3516 0.1467
H18 H 0.6540 0.0306 0.1680
C14 C 0.5649(2) 0.1724(9) 0.0791(2)
H19 H 0.5240 0.0265 0.0862
H20 H 0.5968 0.1189 0.0365
H21 H 0.5356 0.3485 0.0655
N1 N 0.59563(14) 0.4359(5) 0.36386(13)
O1 O 0.68238(11) 0.2075(4) 0.52195(11)
O2 O 0.39590(11) 0.1215(4) 0.39605(11)
C1B C 0.26733(16) -0.0362(6) 0.42727(15)
C2B C 0.31032(16) 0.1453(6) 0.38270(16)
C3B C 0.26651(18) 0.3291(6) 0.33065(16)
H1B H 0.2957 0.4528 0.3006
C4B C 0.17923(18) 0.3330(6) 0.32225(17)
H2B H 0.1489 0.4590 0.2862
C5B C 0.13709(18) 0.1552(6) 0.36589(17)
H3B H 0.0776 0.1590 0.3601
C6B C 0.18107(17) -0.0310(6) 0.41874(16)
H4B H 0.1516 -0.1539 0.4488
C7B C 0.27838(17) -0.3866(6) 0.52835(16)
H5B H 0.2496 -0.2749 0.5653
H6B H 0.2363 -0.5054 0.4966
C8B C 0.34590(17) -0.5670(6) 0.57401(16)
H7B H 0.3792 -0.6512 0.5355
H8B H 0.3177 -0.7218 0.5983
C9B C 0.46459(18) -0.2450(6) 0.60762(18)
H9B H 0.4557 -0.2436 0.5492
H10B H 0.4546 -0.0538 0.6261
C10B C 0.55423(17) -0.3275(6) 0.63617(17)
H11B H 0.5664 -0.5158 0.6169
H12B H 0.5650 -0.3267 0.6945
C11B C 0.36319(19) -0.3266(7) 0.70028(17)
H13B H 0.3386 -0.1425 0.6845
H14B H 0.3167 -0.4530 0.7088
C12B C 0.4204(2) -0.2947(8) 0.77667(18)
H15B H 0.4494 -0.4741 0.7897
H16B H 0.4636 -0.1534 0.7696
C13B C 0.3758(2) -0.2085(9) 0.84517(19)
H17B H 0.3335 -0.3516 0.8533
H18B H 0.3460 -0.0306 0.8320
C14B C 0.4351(2) -0.1724(9) 0.9209(2)
H19B H 0.4760 -0.0265 0.9138
H20B H 0.4032 -0.1189 0.9635
H21B H 0.4644 -0.3485 0.9345
N1B N 0.40437(14) -0.4359(5) 0.63614(13)
O1B O 0.31762(11) -0.2075(4) 0.47805(11)
O2B O 0.60410(11) -0.1215(4) 0.60395(11)
loop_
_geom_bond_atom_site_label_1
_geom_bond_atom_site_label_2
_geom_bond_site_symmetry_1
_geom_bond_site_symmetry_2
C1 C2 1_555 1_555
C2 C3 1_555 1_555
C3 H1 1_555 1_555
C4 C3 1_555 1_555
H2 C4 1_555 1_555
C5 C4 1_555 1_555
H3 C5 1_555 1_555
C6 C1 1_555 1_555
H4 C6 1_555 1_555
C7 H5 1_555 1_555
H6 C7 1_555 1_555
C8 C7 1_555 1_555
H7 C8 1_555 1_555
H8 C8 1_555 1_555
C9 H9 1_555 1_555
H10 C9 1_555 1_555
C10 C9 1_555 1_555
H11 C10 1_555 1_555
H12 C10 1_555 1_555
C11 H13 1_555 1_555
H14 C11 1_555 1_555
C12 C11 1_555 1_555
H15 C12 1_555 1_555
H16 C12 1_555 1_555
C13 C12 1_555 1_555
H17 C13 1_555 1_555
H18 C13 1_555 1_555
C14 C13 1_555 1_555
H19 C14 1_555 1_555
H20 C14 1_555 1_555
H21 C14 1_555 1_555
N1 C8 1_555 1_555
O1 C1 1_555 1_555
O2 C10 1_555 1_555
C1B C2B 1_555 1_555
C2B O2 1_555 1_555
C3B C2B 1_555 1_555
H1B C3B 1_555 1_555
C4B C3B 1_555 1_555
H2B C4B 1_555 1_555
C5B C4B 1_555 1_555
H3B C5B 1_555 1_555
C6B C1B 1_555 1_555
H4B C6B 1_555 1_555
C7B H5B 1_555 1_555
H6B C7B 1_555 1_555
C8B C7B 1_555 1_555
H7B C8B 1_555 1_555
H8B C8B 1_555 1_555
C9B H9B 1_555 1_555
H10B C9B 1_555 1_555
C10B C9B 1_555 1_555
H11B C10B 1_555 1_555
H12B C10B 1_555 1_555
C11B H13B 1_555 1_555
H14B C11B 1_555 1_555
C12B C11B 1_555 1_555
H15B C12B 1_555 1_555
H16B C12B 1_555 1_555
C13B C12B 1_555 1_555
H17B C13B 1_555 1_555
H18B C13B 1_555 1_555
C14B C13B 1_555 1_555
H19B C14B 1_555 1_555
H20B C14B 1_555 1_555
H21B C14B 1_555 1_555
N1B C8B 1_555 1_555
O1B C1B 1_555 1_555
O2B C2 1_555 1_555
C5 C6 1_555 1_555
C7 O1 1_555 1_555
C9 N1 1_555 1_555
C11 N1 1_555 1_555
C5B C6B 1_555 1_555
C7B O1B 1_555 1_555
C9B N1B 1_555 1_555
C10B O2B 1_555 1_555
C11B N1B 1_555 1_555

#END
