
#######################################################################
#
#                 Cambridge Crystallographic Data Centre
#                                CCDC 
#
#######################################################################
#
# If this CIF has been generated from an entry in the Cambridge 
# Structural Database, then it will include bibliographic, chemical, 
# crystal, experimental, refinement or atomic coordinate data resulting 
# from the CCDC's data processing and validation procedures.
#
#######################################################################

data_JUKWUJ
_chemical_formula_moiety         'C34 H30 N2 O3'
_chemical_name_systematic        
2-(4-(5-(4-t-Butylphenyl)-1,3,4-oxadiazol-2-yl)benzyl)-1,3-diphenylpropane-1,3-dione
_symmetry_cell_setting           triclinic
_symmetry_space_group_name_H-M   'P -1'
_symmetry_Int_Tables_number      2
_space_group_name_Hall           '-P 1'
loop_
_symmetry_equiv_pos_site_id
_symmetry_equiv_pos_as_xyz
1 x,y,z
2 -x,-y,-z
_cell_length_a                   10.0079(8)
_cell_length_b                   11.7211(12)
_cell_length_c                   13.4686(12)
_cell_angle_alpha                91.5390(10)
_cell_angle_beta                 107.399(2)
_cell_angle_gamma                95.5630(10)
_cell_volume                     1497.93
_cell_formula_units_Z            2
loop_
_atom_site_label
_atom_site_type_symbol
_atom_site_fract_x
_atom_site_fract_y
_atom_site_fract_z
N1 N 0.8899(10) 0.5325(7) 0.1473(7)
N2 N 0.7746(11) 0.5188(8) 0.1883(7)
O1 O 0.8288(8) 0.7043(5) 0.1807(5)
O2 O 1.1644(9) 0.9894(7) -0.1697(6)
O3 O 1.4332(8) 0.9643(6) -0.2224(7)
C1 C 0.9172(13) 0.6442(9) 0.1430(9)
C2 C 0.7388(13) 0.6206(10) 0.2103(9)
C3 C 1.0269(12) 0.7062(8) 0.1068(8)
C4 C 1.1242(12) 0.6420(8) 0.0814(8)
H1 H 1.1182 0.5630 0.0874
C5 C 1.2312(12) 0.6984(9) 0.0468(8)
H2 H 1.2997 0.6566 0.0346
C6 C 1.2371(12) 0.8182(9) 0.0300(8)
C7 C 1.1391(12) 0.8744(8) 0.0544(8)
H3 H 1.1424 0.9528 0.0450
C8 C 1.0317(11) 0.8248(8) 0.0930(8)
H4 H 0.9671 0.8685 0.1086
C9 C 1.3476(11) 0.8728(8) -0.0160(9)
H5 H 1.4387 0.8489 0.0205
H6 H 1.3541 0.9557 -0.0065
C10 C 1.3097(10) 0.8373(8) -0.1355(9)
H7 H 1.2892 0.7536 -0.1454
C11 C 1.1776(13) 0.8932(11) -0.1994(11)
C12 C 1.0845(13) 0.8350(13) -0.2967(12)
C13 C 0.9959(16) 0.9029(12) -0.3681(13)
H8 H 1.0043 0.9820 -0.3556
C14 C 0.8999(16) 0.8520(17) -0.4539(14)
H9 H 0.8416 0.8974 -0.4996
C15 C 0.8838(15) 0.7324(17) -0.4775(12)
H10 H 0.8159 0.7000 -0.5374
C16 C 0.9717(16) 0.6629(12) -0.4093(14)
H11 H 0.9654 0.5842 -0.4236
C17 C 1.0719(13) 0.7185(12) -0.3164(11)
H12 H 1.1293 0.6744 -0.2687
C18 C 1.4289(11) 0.8741(9) -0.1758(9)
C19 C 1.5572(11) 0.8048(9) -0.1629(8)
C20 C 1.5530(11) 0.6985(9) -0.1167(9)
H13 H 1.4799 0.6707 -0.0915
C21 C 1.6728(14) 0.6366(10) -0.1121(9)
H14 H 1.6744 0.5636 -0.0867
C22 C 1.7834(13) 0.6814(12) -0.1436(11)
H15 H 1.8613 0.6407 -0.1333
C23 C 1.7839(13) 0.7834(12) -0.1894(10)
H16 H 1.8563 0.8107 -0.2156
C24 C 1.6666(12) 0.8462(9) -0.1950(8)
H17 H 1.6658 0.9185 -0.2219
C25 C 0.6372(12) 0.6522(9) 0.2553(8)
C26 C 0.5664(12) 0.5670(9) 0.3033(9)
H18 H 0.5834 0.4905 0.3005
C27 C 0.4718(12) 0.6008(10) 0.3542(8)
H19 H 0.4221 0.5437 0.3798
C28 C 0.4478(12) 0.7122(10) 0.3687(9)
C29 C 0.5112(11) 0.7911(9) 0.3172(8)
H20 H 0.4893 0.8664 0.3179
C30 C 0.6059(12) 0.7649(9) 0.2643(9)
H21 H 0.6486 0.8230 0.2347
C31 C 0.34(14) 0.74(6) 0.43(8)
C32 C 0.223(2) 0.645(2) 0.4120(18)
H22 H 0.1661 0.6359 0.3402
H23 H 0.1656 0.6641 0.4546
H24 H 0.2611 0.5741 0.4329
C33 C 0.428(2) 0.754(2) 0.542(2)
H25 H 0.4623 0.6829 0.5646
H26 H 0.3676 0.7760 0.5816
H27 H 0.5055 0.8128 0.5526
C34 C 0.279(2) 0.8514(16) 0.3946(18)
H28 H 0.1882 0.8477 0.4061
H29 H 0.2677 0.8618 0.3222
H30 H 0.3393 0.9149 0.4361
C35? C 0.4(5) 0.7(2) 0.4(3)
C36? C 0.397(8) 0.868(5) 0.482(6)
H31? H 0.3916 0.9204 0.4280
H32? H 0.4901 0.8767 0.5304
H33? H 0.3305 0.8842 0.5184
C37? C 0.203(8) 0.737(6) 0.372(5)
H34? H 0.1471 0.7134 0.4167
H35? H 0.1821 0.6819 0.3141
H36? H 0.1801 0.8108 0.3473
C38? C 0.363(7) 0.671(6) 0.528(6)
H37? H 0.2901 0.6902 0.5567
H38? H 0.4526 0.6863 0.5802
H39? H 0.3463 0.5911 0.5055
loop_
_geom_bond_atom_site_label_1
_geom_bond_atom_site_label_2
_geom_bond_site_symmetry_1
_geom_bond_site_symmetry_2
N1 N2 1_555 1_555
N2 C2 1_555 1_555
O1 C1 1_555 1_555
O2 C11 1_555 1_555
O3 C18 1_555 1_555
C1 N1 1_555 1_555
C2 O1 1_555 1_555
C3 C1 1_555 1_555
C4 C3 1_555 1_555
H1 C4 1_555 1_555
C5 C4 1_555 1_555
H2 C5 1_555 1_555
C6 C5 1_555 1_555
C7 C6 1_555 1_555
H3 C7 1_555 1_555
C8 C3 1_555 1_555
H4 C8 1_555 1_555
C9 C6 1_555 1_555
H5 C9 1_555 1_555
H6 C9 1_555 1_555
C10 C9 1_555 1_555
H7 C10 1_555 1_555
C11 C10 1_555 1_555
C12 C11 1_555 1_555
C13 C12 1_555 1_555
H8 C13 1_555 1_555
C14 C13 1_555 1_555
H9 C14 1_555 1_555
C15 C14 1_555 1_555
H10 C15 1_555 1_555
C16 C15 1_555 1_555
H11 C16 1_555 1_555
C17 C12 1_555 1_555
H12 C17 1_555 1_555
C18 C10 1_555 1_555
C19 C18 1_555 1_555
C20 C19 1_555 1_555
H13 C20 1_555 1_555
C21 C20 1_555 1_555
H14 C21 1_555 1_555
C22 C21 1_555 1_555
H15 C22 1_555 1_555
C23 C22 1_555 1_555
H16 C23 1_555 1_555
C24 C19 1_555 1_555
H17 C24 1_555 1_555
C25 C2 1_555 1_555
C26 C25 1_555 1_555
H18 C26 1_555 1_555
C27 C26 1_555 1_555
H19 C27 1_555 1_555
C28 C27 1_555 1_555
C29 C28 1_555 1_555
H20 C29 1_555 1_555
C30 C25 1_555 1_555
H21 C30 1_555 1_555
C31 C28 1_555 1_555
C32 C31 1_555 1_555
H22 C32 1_555 1_555
H23 C32 1_555 1_555
H24 C32 1_555 1_555
C33 C31 1_555 1_555
H25 C33 1_555 1_555
H26 C33 1_555 1_555
H27 C33 1_555 1_555
C34 C31 1_555 1_555
H28 C34 1_555 1_555
H29 C34 1_555 1_555
H30 C34 1_555 1_555
C7 C8 1_555 1_555
C16 C17 1_555 1_555
C23 C24 1_555 1_555
C29 C30 1_555 1_555

#END
