
#######################################################################
#
#                 Cambridge Crystallographic Data Centre
#                                CCDC 
#
#######################################################################
#
# If this CIF has been generated from an entry in the Cambridge 
# Structural Database, then it will include bibliographic, chemical, 
# crystal, experimental, refinement or atomic coordinate data resulting 
# from the CCDC's data processing and validation procedures.
#
#######################################################################

data_JUKYUL
_chemical_formula_moiety         'C26 H38 N1 O6 1+,C8 H5 O4 1-,4(H2 O1)'
_chemical_name_systematic        
'19-(2-n-Butoxyethyl)-6,7,9,10,18,19,20,21-octahydro-17H-dibenzo[b,k][1,4,7,10,13,16]pentaoxazacyclo-octadecin-19-ium hydrogen terephthalate tetrahydrate'
_symmetry_cell_setting           orthorhombic
_symmetry_space_group_name_H-M   'P 21 21 21'
_symmetry_Int_Tables_number      19
_space_group_name_Hall           'P 2ac 2ab'
loop_
_symmetry_equiv_pos_site_id
_symmetry_equiv_pos_as_xyz
1 x,y,z
2 1/2-x,-y,1/2+z
3 -x,1/2+y,1/2-z
4 1/2+x,1/2-y,-z
_cell_length_a                   15.4985(8)
_cell_length_b                   18.7452(11)
_cell_length_c                   25.1312(15)
_cell_angle_alpha                90
_cell_angle_beta                 90
_cell_angle_gamma                90
_cell_volume                     7301.18
_exptl_crystal_description       block
_cell_formula_units_Z            8
loop_
_atom_site_label
_atom_site_type_symbol
_atom_site_fract_x
_atom_site_fract_y
_atom_site_fract_z
C1 C 0.7740(4) 0.4024(3) 0.9711(2)
C2 C 0.7810(4) 0.3771(3) 0.9191(2)
C3 C 0.7565(4) 0.4203(3) 0.8769(2)
H1 H 0.7626 0.4038 0.8414
C4 C 0.7230(4) 0.4883(3) 0.8869(3)
H2 H 0.7061 0.5180 0.8581
C5 C 0.7145(4) 0.5118(3) 0.9381(3)
H3 H 0.6904 0.5575 0.9448
C6 C 0.7409(4) 0.4695(3) 0.9805(3)
H4 H 0.7361 0.4868 1.0159
C7 C 0.7532(4) 0.0477(3) 1.0813(2)
C8 C 0.7422(4) 0.0183(3) 1.0301(2)
C9 C 0.7013(4) -0.0474(3) 1.0244(3)
H5 H 0.6933 -0.0674 0.9900
C10 C 0.6721(4) -0.0835(4) 1.0696(3)
H6 H 0.6453 -0.1288 1.0657
C11 C 0.6815(4) -0.0544(3) 1.1195(3)
H7 H 0.6602 -0.0790 1.1498
C12 C 0.7222(4) 0.0107(3) 1.1253(2)
H8 H 0.7291 0.0304 1.1598
C13 C 0.8035(4) 0.3817(3) 1.0639(2)
H9 H 0.7438 0.3858 1.0774
H10 H 0.8310 0.4294 1.0656
C14 C 0.8529(4) 0.3300(3) 1.0965(3)
H11 H 0.9107 0.3226 1.0806
H12 H 0.8609 0.3494 1.1328
C15 C 0.8586(4) 0.2112(3) 1.1266(3)
H13 H 0.8766 0.2297 1.1618
H14 H 0.9111 0.2000 1.1058
C16 C 0.8050(5) 0.1448(3) 1.1337(2)
H15 H 0.8337 0.1118 1.1588
H16 H 0.7476 0.1574 1.1483
C17 C 0.7621(4) 0.0333(3) 0.9366(2)
H17 H 0.6999 0.0337 0.9278
H18 H 0.7839 -0.0161 0.9330
C18 C 0.8106(4) 0.0825(3) 0.9003(2)
H19 H 0.8096 0.0621 0.8640
H20 H 0.8716 0.0840 0.9120
C19 C 0.8400(4) 0.2015(3) 0.8672(2)
H21 H 0.8469 0.1804 0.8314
H22 H 0.8967 0.1990 0.8853
C20 C 0.8149(4) 0.2787(3) 0.8613(2)
H23 H 0.8578 0.3042 0.8391
H24 H 0.7578 0.2825 0.8439
C21 C 0.6860(4) 0.1615(3) 0.8750(2)
H25 H 0.6890 0.1749 0.8369
H26 H 0.6587 0.1138 0.8774
C22 C 0.6310(4) 0.2153(3) 0.9046(2)
H27 H 0.6577 0.2632 0.9026
H28 H 0.5727 0.2179 0.8885
C23 C 0.5911(5) 0.2466(4) 0.9918(3)
H29 H 0.5311 0.2580 0.9813
H30 H 0.6261 0.2905 0.9890
C24 C 0.5931(5) 0.2180(4) 1.0501(3)
H31 H 0.6532 0.2047 1.0590
H32 H 0.5757 0.2570 1.0743
C25 C 0.5385(6) 0.1575(4) 1.0598(3)
H33 H 0.5609 0.1164 1.0393
H34 H 0.4800 0.1684 1.0462
C26 C 0.5317(5) 0.1363(5) 1.1177(3)
H35 H 0.4942 0.0944 1.1209
H36 H 0.5071 0.1759 1.1382
H37 H 0.5892 0.1248 1.1314
N1 N 0.7769(3) 0.1578(2) 0.89779(18)
H38 H 0.776(4) 0.177(3) 0.9299(12)
O1 O 0.8029(3) 0.3564(2) 1.01000(14)
O2 O 0.8084(3) 0.2638(2) 1.09928(15)
O3 O 0.7956(3) 0.1114(2) 1.08253(15)
O4 O 0.7757(3) 0.0588(2) 0.98984(15)
O5 O 0.8118(3) 0.3092(2) 0.91388(14)
O6 O 0.6251(3) 0.1928(2) 0.95796(16)
C27 C 0.9493(4) 0.4700(3) 0.2491(2)
C28 C 0.8706(4) 0.5016(3) 0.2465(3)
H39 H 0.8214 0.4729 0.2395
C29 C 0.8598(4) 0.5744(3) 0.2537(2)
H40 H 0.8040 0.5953 0.2523
C30 C 0.9320(4) 0.6160(3) 0.2631(2)
C31 C 1.0132(4) 0.5847(3) 0.2643(2)
H41 H 1.0629 0.6136 0.2697
C32 C 1.0221(4) 0.5116(3) 0.2578(2)
H42 H 1.0776 0.4901 0.2593
C33 C 0.9543(4) 0.3902(3) 0.2398(2)
C34 C 0.9201(4) 0.6955(3) 0.2694(2)
O7 O 1.0289(3) 0.36212(19) 0.23664(19)
O8 O 0.8874(3) 0.3570(2) 0.2369(2)
O9 O 0.8495(3) 0.72332(19) 0.26840(17)
O10 O 0.9922(3) 0.7299(2) 0.27216(19)
H43 H 0.978(4) 0.7725(15) 0.272(3)
C35 C 0.4542(3) 0.9182(3) 0.9762(2)
C36 C 0.4520(4) 0.8948(3) 0.9233(2)
C37 C 0.4770(4) 0.9410(3) 0.8833(2)
H44 H 0.4750 0.9257 0.8473
C38 C 0.5047(4) 1.0092(3) 0.8951(2)
H45 H 0.5208 1.0409 0.8673
C39 C 0.5091(4) 1.0309(3) 0.9476(2)
H46 H 0.5301 1.0771 0.9560
C40 C 0.4829(4) 0.9856(3) 0.9879(2)
H47 H 0.4848 1.0012 1.0238
C41 C 0.4616(3) 0.5580(3) 1.0725(2)
C42 C 0.4731(3) 0.5289(3) 1.0209(2)
C43 C 0.5163(4) 0.4654(3) 1.0148(2)
H48 H 0.5245 0.4458 0.9803
C44 C 0.5478(4) 0.4300(3) 1.0593(3)
H49 H 0.5771 0.3859 1.0551
C45 C 0.5369(4) 0.4585(3) 1.1100(3)
H50 H 0.5593 0.4344 1.1402
C46 C 0.4933(4) 0.5222(3) 1.1158(2)
H51 H 0.4851 0.5415 1.1504
C47 C 0.4173(4) 0.8920(3) 1.0673(2)
H52 H 0.3900 0.9397 1.0689
H53 H 0.4749 0.8950 1.0842
C48 C 0.3622(4) 0.8381(3) 1.0957(2)
H54 H 0.3492 0.8553 1.1321
H55 H 0.3070 0.8322 1.0765
C49 C 0.3507(4) 0.7183(3) 1.1199(3)
H56 H 0.3013 0.7100 1.0958
H57 H 0.3280 0.7337 1.1549
C50 C 0.4013(4) 0.6511(3) 1.1262(2)
H58 H 0.4568 0.6614 1.1441
H59 H 0.3687 0.6168 1.1485
C51 C 0.4550(4) 0.5468(3) 0.9271(2)
H60 H 0.4302 0.4988 0.9210
H61 H 0.5179 0.5444 0.9205
C52 C 0.4141(4) 0.5998(3) 0.8904(2)
H62 H 0.3517 0.6026 0.8985
H63 H 0.4201 0.5825 0.8534
C53 C 0.3935(4) 0.7242(3) 0.8633(2)
H64 H 0.3888 0.7072 0.8261
H65 H 0.3351 0.7226 0.8792
C54 C 0.4240(4) 0.8001(3) 0.8628(2)
H66 H 0.4828 0.8027 0.8475
H67 H 0.3850 0.8294 0.8406
C55 C 0.5442(3) 0.6770(3) 0.8755(2)
H68 H 0.5682 0.6281 0.8738
H69 H 0.5461 0.6975 0.8392
C56 C 0.5985(4) 0.7211(3) 0.9115(2)
H70 H 0.6574 0.7260 0.8966
H71 H 0.5733 0.7694 0.9153
C57 C 0.6303(5) 0.7354(4) 1.0037(3)
H72 H 0.5901 0.7764 1.0055
H73 H 0.6883 0.7540 0.9948
C58 C 0.6335(5) 0.6992(4) 1.0567(3)
H74 H 0.6471 0.7351 1.0843
H75 H 0.5758 0.6793 1.0648
C59 C 0.6971(6) 0.6421(4) 1.0590(3)
H76 H 0.7532 0.6606 1.0461
H77 H 0.6790 0.6032 1.0349
C60 C 0.7096(5) 0.6112(5) 1.1160(3)
H78 H 0.7519 0.5724 1.1149
H79 H 0.6543 0.5928 1.1292
H80 H 0.7303 0.6489 1.1398
N2 N 0.4519(3) 0.6735(2) 0.89391(17)
H81 H 0.451(3) 0.691(3) 0.9265(11)
O11 O 0.4253(3) 0.86893(19) 1.01322(14)
O12 O 0.4051(2) 0.7722(2) 1.09856(15)
O13 O 0.4171(3) 0.6207(2) 1.07452(14)
O14 O 0.4387(2) 0.5694(2) 0.98066(14)
O15 O 0.4247(3) 0.82642(19) 0.91565(13)
O16 O 0.6019(3) 0.6867(2) 0.96178(16)
C61 C 0.5605(4) 0.3709(3) 0.2542(2)
C62 C 0.6368(5) 0.4054(3) 0.2485(4)
H82 H 0.6885 0.3788 0.2444
C63 C 0.6399(4) 0.4795(3) 0.2486(4)
H83 H 0.6937 0.5029 0.2439
C64 C 0.5670(4) 0.5189(3) 0.2553(2)
C65 C 0.4887(5) 0.4837(3) 0.2606(3)
H84 H 0.4370 0.5105 0.2647
C66 C 0.4853(5) 0.4108(3) 0.2600(3)
H85 H 0.4313 0.3872 0.2636
C67 C 0.5575(5) 0.2902(3) 0.2518(3)
C68 C 0.5736(4) 0.5984(3) 0.2531(2)
O17 O 0.4838(3) 0.2610(2) 0.2528(2)
O18 O 0.6263(3) 0.2572(2) 0.2489(2)
O19 O 0.6440(3) 0.62825(19) 0.25454(18)
O20 O 0.5010(3) 0.6309(2) 0.24844(19)
H86 H 0.5015 0.6762 0.2477
O21 O 0.2011(3) 0.3956(2) 0.2605(2)
H87 H 0.234(3) 0.362(2) 0.265(3)
H88 H 0.152(2) 0.381(3) 0.252(3)
O22 O 0.7979(3) 0.2354(3) 0.2637(3)
H89 H 0.833(3) 0.270(2) 0.258(4)
H90 H 0.7489(15) 0.253(2) 0.266(3)
O23 O 0.6822(4) 0.1096(3) 0.2415(2)
H91 H 0.711(4) 0.147(2) 0.244(3)
H92 H 0.6307(17) 0.118(4) 0.249(3)
O24 O 0.6929(4) 0.7807(3) 0.2200(3)
H93 H 0.722(4) 0.746(3) 0.231(3)
H94 H 0.6415(19) 0.772(4) 0.229(3)
O25 O 0.7622(4) 0.0125(3) 0.3042(2)
H95 H 0.727(4) 0.034(3) 0.284(3)
H96 H 0.766(5) -0.0299(17) 0.294(3)
O26 O 0.8462(5) 0.1416(4) 0.3451(3)
H97 H 0.818(6) 0.103(3) 0.346(4)
H98 H 0.830(6) 0.165(4) 0.319(3)
O27 O 0.8427(3) 0.2008(2) -0.00810(17)
H99 H 0.831(4) 0.2429(13) -0.001(3)
H100 H 0.821(4) 0.174(2) 0.013(2)
O28 O 0.3852(3) 0.7157(2) 0.98686(16)
H101 H 0.400(4) 0.688(2) 1.0099(18)
H102 H 0.403(4) 0.7554(15) 0.991(2)
loop_
_geom_bond_atom_site_label_1
_geom_bond_atom_site_label_2
_geom_bond_site_symmetry_1
_geom_bond_site_symmetry_2
C1 C2 1_555 1_555
C2 C3 1_555 1_555
C3 H1 1_555 1_555
C4 C3 1_555 1_555
H2 C4 1_555 1_555
C5 C4 1_555 1_555
H3 C5 1_555 1_555
C6 C1 1_555 1_555
H4 C6 1_555 1_555
C7 C8 1_555 1_555
C8 C9 1_555 1_555
C9 H5 1_555 1_555
C10 C9 1_555 1_555
H6 C10 1_555 1_555
C11 C10 1_555 1_555
H7 C11 1_555 1_555
C12 C7 1_555 1_555
H8 C12 1_555 1_555
C13 H9 1_555 1_555
H10 C13 1_555 1_555
C14 C13 1_555 1_555
H11 C14 1_555 1_555
H12 C14 1_555 1_555
C15 H13 1_555 1_555
H14 C15 1_555 1_555
C16 C15 1_555 1_555
H15 C16 1_555 1_555
H16 C16 1_555 1_555
C17 H17 1_555 1_555
H18 C17 1_555 1_555
C18 C17 1_555 1_555
H19 C18 1_555 1_555
H20 C18 1_555 1_555
C19 H21 1_555 1_555
H22 C19 1_555 1_555
C20 C19 1_555 1_555
H23 C20 1_555 1_555
H24 C20 1_555 1_555
C21 H25 1_555 1_555
H26 C21 1_555 1_555
C22 C21 1_555 1_555
H27 C22 1_555 1_555
H28 C22 1_555 1_555
C23 H29 1_555 1_555
H30 C23 1_555 1_555
C24 C23 1_555 1_555
H31 C24 1_555 1_555
H32 C24 1_555 1_555
C25 C24 1_555 1_555
H33 C25 1_555 1_555
H34 C25 1_555 1_555
C26 C25 1_555 1_555
H35 C26 1_555 1_555
H36 C26 1_555 1_555
H37 C26 1_555 1_555
N1 C18 1_555 1_555
H38 N1 1_555 1_555
O1 C1 1_555 1_555
O2 C14 1_555 1_555
O3 C7 1_555 1_555
O4 C8 1_555 1_555
O5 C2 1_555 1_555
O6 C22 1_555 1_555
C27 C28 1_555 1_555
C28 H39 1_555 1_555
C29 C28 1_555 1_555
H40 C29 1_555 1_555
C30 C29 1_555 1_555
C31 C30 1_555 1_555
H41 C31 1_555 1_555
C32 C27 1_555 1_555
H42 C32 1_555 1_555
C33 C27 1_555 1_555
C34 C30 1_555 1_555
O7 C33 1_555 1_555
O8 C33 1_555 1_555
O9 C34 1_555 1_555
O10 C34 1_555 1_555
H43 O10 1_555 1_555
C35 C36 1_555 1_555
C36 C37 1_555 1_555
C37 H44 1_555 1_555
C38 C37 1_555 1_555
H45 C38 1_555 1_555
C39 C38 1_555 1_555
H46 C39 1_555 1_555
C40 C35 1_555 1_555
H47 C40 1_555 1_555
C41 C42 1_555 1_555
C42 C43 1_555 1_555
C43 H48 1_555 1_555
C44 C43 1_555 1_555
H49 C44 1_555 1_555
C45 C44 1_555 1_555
H50 C45 1_555 1_555
C46 C41 1_555 1_555
H51 C46 1_555 1_555
C47 H52 1_555 1_555
H53 C47 1_555 1_555
C48 C47 1_555 1_555
H54 C48 1_555 1_555
H55 C48 1_555 1_555
C49 H56 1_555 1_555
H57 C49 1_555 1_555
C50 C49 1_555 1_555
H58 C50 1_555 1_555
H59 C50 1_555 1_555
C51 H60 1_555 1_555
H61 C51 1_555 1_555
C52 C51 1_555 1_555
H62 C52 1_555 1_555
H63 C52 1_555 1_555
C53 H64 1_555 1_555
H65 C53 1_555 1_555
C54 C53 1_555 1_555
H66 C54 1_555 1_555
H67 C54 1_555 1_555
C55 H68 1_555 1_555
H69 C55 1_555 1_555
C56 C55 1_555 1_555
H70 C56 1_555 1_555
H71 C56 1_555 1_555
C57 H72 1_555 1_555
H73 C57 1_555 1_555
C58 C57 1_555 1_555
H74 C58 1_555 1_555
H75 C58 1_555 1_555
C59 C58 1_555 1_555
H76 C59 1_555 1_555
H77 C59 1_555 1_555
C60 C59 1_555 1_555
H78 C60 1_555 1_555
H79 C60 1_555 1_555
H80 C60 1_555 1_555
N2 C52 1_555 1_555
H81 N2 1_555 1_555
O11 C35 1_555 1_555
O12 C48 1_555 1_555
O13 C41 1_555 1_555
O14 C42 1_555 1_555
O15 C36 1_555 1_555
O16 C56 1_555 1_555
C61 C62 1_555 1_555
C62 H82 1_555 1_555
C63 C62 1_555 1_555
H83 C63 1_555 1_555
C64 C63 1_555 1_555
C65 C64 1_555 1_555
H84 C65 1_555 1_555
C66 C61 1_555 1_555
H85 C66 1_555 1_555
C67 C61 1_555 1_555
C68 C64 1_555 1_555
O17 C67 1_555 1_555
O18 C67 1_555 1_555
O19 C68 1_555 1_555
O20 C68 1_555 1_555
H86 O20 1_555 1_555
O21 H87 1_555 1_555
H88 O21 1_555 1_555
O22 H89 1_555 1_555
H90 O22 1_555 1_555
O23 H91 1_555 1_555
H92 O23 1_555 1_555
O24 H93 1_555 1_555
H94 O24 1_555 1_555
O25 H95 1_555 1_555
H96 O25 1_555 1_555
O26 H97 1_555 1_555
H98 O26 1_555 1_555
O27 H99 1_555 1_555
H100 O27 1_555 1_555
O28 H101 1_555 1_555
H102 O28 1_555 1_555
C5 C6 1_555 1_555
C11 C12 1_555 1_555
C13 O1 1_555 1_555
C15 O2 1_555 1_555
C16 O3 1_555 1_555
C17 O4 1_555 1_555
C19 N1 1_555 1_555
C20 O5 1_555 1_555
C21 N1 1_555 1_555
C23 O6 1_555 1_555
C31 C32 1_555 1_555
C39 C40 1_555 1_555
C45 C46 1_555 1_555
C47 O11 1_555 1_555
C49 O12 1_555 1_555
C50 O13 1_555 1_555
C51 O14 1_555 1_555
C53 N2 1_555 1_555
C54 O15 1_555 1_555
C55 N2 1_555 1_555
C57 O16 1_555 1_555
C65 C66 1_555 1_555

#END
