
#######################################################################
#
#                 Cambridge Crystallographic Data Centre
#                                CCDC 
#
#######################################################################
#
# If this CIF has been generated from an entry in the Cambridge 
# Structural Database, then it will include bibliographic, chemical, 
# crystal, experimental, refinement or atomic coordinate data resulting 
# from the CCDC's data processing and validation procedures.
#
#######################################################################

data_JUKYIZ
_chemical_compound_source        'fungus Nodulisporium sp. (No. 65-12-7-1)'
_chemical_name_common            'Nodulisporisteriod G monohydrate'
_chemical_formula_moiety         'C22 H32 O4,H2 O1'
_chemical_name_systematic        
'3-(3,7-Diacetyl-3a,6-dimethyl-2,3,3a,4,5,6,7,8,9,9b-decahydro-1H-cyclopenta[a]naphthalen-6-yl)propanoic acid monohydrate'
_chemical_properties_biological  
'tested for cytotoxic activity against five human cancer cell lines'
_symmetry_cell_setting           monoclinic
_symmetry_space_group_name_H-M   'C 2'
_symmetry_Int_Tables_number      5
_space_group_name_Hall           'C 2y'
loop_
_symmetry_equiv_pos_site_id
_symmetry_equiv_pos_as_xyz
1 x,y,z
2 -x,y,-z
3 1/2+x,1/2+y,z
4 1/2-x,1/2+y,-z
_cell_length_a                   13.3096(7)
_cell_length_b                   6.7035(4)
_cell_length_c                   23.2847(13)
_cell_angle_alpha                90
_cell_angle_beta                 99.881(5)
_cell_angle_gamma                90
_cell_volume                     2046.67
_exptl_crystal_colour            colorless
_exptl_crystal_description       plate
_cell_formula_units_Z            4
loop_
_atom_site_label
_atom_site_type_symbol
_atom_site_fract_x
_atom_site_fract_y
_atom_site_fract_z
O1 O 0.14788(12) 0.1262(3) 0.36146(7)
C1 C -0.00200(16) -0.4136(3) 0.23245(9)
O2 O -0.12934(15) -0.4482(3) 0.46710(7)
H1 H -0.1410 -0.5082 0.4959
C2 C 0.10478(15) -0.0172(4) 0.37866(9)
C3 C -0.10449(15) -0.2703(3) 0.36110(9)
H2 H -0.0826 -0.1963 0.3969
H3 H -0.1768 -0.2455 0.3487
O3 O -0.19246(15) -0.5466(4) -0.00581(7)
O4 O -0.16889(15) -0.7381(3) 0.42412(8)
C4 C -0.13567(16) -0.4821(4) 0.14290(9)
C5 C -0.18489(16) -0.3308(4) 0.23265(9)
H4 H -0.2219 -0.3630 0.2639
H5 H -0.2073 -0.1998 0.2181
C6 C 0.07157(15) -0.1919(3) 0.33801(9)
H6 H 0.0863 -0.3140 0.3611
C7 C -0.03496(16) -0.5475(4) 0.18055(9)
H7 H -0.0482 -0.6784 0.1965
C8 C 0.03544(19) -0.5861(5) 0.13581(11)
H8 H 0.0912 -0.6742 0.1515
H9 H 0.0630 -0.4624 0.1235
C9 C -0.2210(2) -0.5880(4) 0.03959(11)
C10 C 0.11086(16) -0.3922(4) 0.25482(10)
H10 H 0.1473 -0.3928 0.2221
H11 H 0.1344 -0.5050 0.2796
C11 C -0.07116(15) -0.3190(3) 0.25831(9)
C12 C -0.13381(16) -0.5728(4) 0.42341(9)
C13 C -0.04597(14) -0.1914(3) 0.31370(9)
C14 C -0.08112(17) 0.0259(4) 0.29979(10)
H12 H -0.1504 0.0260 0.2797
H13 H -0.0382 0.0867 0.2756
H14 H -0.0766 0.0998 0.3355
C15 C 0.08712(19) -0.0230(5) 0.44055(10)
H15 H 0.1409 0.0478 0.4650
H16 H 0.0863 -0.1591 0.4533
H17 H 0.0229 0.0387 0.4430
C16 C -0.21454(16) -0.4818(4) 0.18358(10)
H18 H -0.2811 -0.4482 0.1616
H19 H -0.2187 -0.6139 0.2000
C17 C -0.08855(17) -0.4911(4) 0.37359(10)
H20 H -0.1170 -0.5645 0.3387
H21 H -0.0158 -0.5170 0.3813
C18 C 0.13432(16) -0.2010(4) 0.28903(10)
H22 H 0.1182 -0.0873 0.2634
H23 H 0.2064 -0.1958 0.3053
C19 C -0.14810(18) -0.6444(4) 0.09434(10)
H24 H -0.1741 -0.7658 0.1101
C20 C -0.1267(2) -0.2761(4) 0.11634(11)
H25 H -0.0973 -0.1847 0.1463
H26 H -0.1932 -0.2299 0.0989
H27 H -0.0840 -0.2841 0.0871
C21 C -0.3331(2) -0.5792(5) 0.04269(12)
H28 H -0.3474 -0.4587 0.0621
H29 H -0.3513 -0.6923 0.0640
H30 H -0.3720 -0.5810 0.0039
C22 C -0.03731(19) -0.6862(5) 0.08498(11)
H31 H -0.0248 -0.8287 0.0848
H32 H -0.0265 -0.6312 0.0480
O5 O 0.19534(13) -0.5472(3) 0.43763(7)
H33 H 0.2399 -0.4620 0.4318
H34 H 0.1923 -0.6399 0.4124
loop_
_geom_bond_atom_site_label_1
_geom_bond_atom_site_label_2
_geom_bond_site_symmetry_1
_geom_bond_site_symmetry_2
O1 C2 1_555 1_555
C1 C7 1_555 1_555
O2 H1 1_555 1_555
C2 C6 1_555 1_555
C3 H2 1_555 1_555
H3 C3 1_555 1_555
O3 C9 1_555 1_555
O4 C12 1_555 1_555
C4 C7 1_555 1_555
C5 H4 1_555 1_555
H5 C5 1_555 1_555
C6 H6 1_555 1_555
C7 H7 1_555 1_555
C8 C7 1_555 1_555
H8 C8 1_555 1_555
H9 C8 1_555 1_555
C9 C19 1_555 1_555
C10 C1 1_555 1_555
H10 C10 1_555 1_555
H11 C10 1_555 1_555
C11 C1 1_555 1_555
C12 O2 1_555 1_555
C13 C3 1_555 1_555
C14 C13 1_555 1_555
H12 C14 1_555 1_555
H13 C14 1_555 1_555
H14 C14 1_555 1_555
C15 C2 1_555 1_555
H15 C15 1_555 1_555
H16 C15 1_555 1_555
H17 C15 1_555 1_555
C16 C4 1_555 1_555
H18 C16 1_555 1_555
H19 C16 1_555 1_555
C17 C3 1_555 1_555
H20 C17 1_555 1_555
H21 C17 1_555 1_555
C18 C6 1_555 1_555
H22 C18 1_555 1_555
H23 C18 1_555 1_555
C19 C4 1_555 1_555
H24 C19 1_555 1_555
C20 C4 1_555 1_555
H25 C20 1_555 1_555
H26 C20 1_555 1_555
H27 C20 1_555 1_555
C21 C9 1_555 1_555
H28 C21 1_555 1_555
H29 C21 1_555 1_555
H30 C21 1_555 1_555
C22 C8 1_555 1_555
H31 C22 1_555 1_555
H32 C22 1_555 1_555
O5 H33 1_555 1_555
H34 O5 1_555 1_555
C5 C11 1_555 1_555
C5 C16 1_555 1_555
C6 C13 1_555 1_555
C10 C18 1_555 1_555
C11 C13 1_555 1_555
C12 C17 1_555 1_555
C19 C22 1_555 1_555

#END
