
#######################################################################
#
#                 Cambridge Crystallographic Data Centre
#                                CCDC 
#
#######################################################################
#
# If this CIF has been generated from an entry in the Cambridge 
# Structural Database, then it will include bibliographic, chemical, 
# crystal, experimental, refinement or atomic coordinate data resulting 
# from the CCDC's data processing and validation procedures.
#
#######################################################################

data_JULHED02
_chemical_formula_moiety         'C14 H10 N4 O4'
_chemical_name_systematic        
(E,E)-1,4-bis(2-Nitrophenyl)-2,3-diaza-1,3-butadiene
_symmetry_cell_setting           monoclinic
_symmetry_space_group_name_H-M   'P 21/c'
_symmetry_Int_Tables_number      14
_space_group_name_Hall           '-P 2ybc'
loop_
_symmetry_equiv_pos_site_id
_symmetry_equiv_pos_as_xyz
1 x,y,z
2 -x,1/2+y,1/2-z
3 -x,-y,-z
4 x,1/2-y,1/2+z
_cell_length_a                   7.7809(2)
_cell_length_b                   14.7825(6)
_cell_length_c                   6.2196(2)
_cell_angle_alpha                90
_cell_angle_beta                 113.106(2)
_cell_angle_gamma                90
_cell_volume                     657.998
_exptl_crystal_colour            yellow
_exptl_crystal_description       block
_chemical_melting_point          '443-446 K'
_cell_formula_units_Z            2
_exptl_crystal_recrystallization_method 1,2-dichloroethane
loop_
_atom_site_label
_atom_site_type_symbol
_atom_site_fract_x
_atom_site_fract_y
_atom_site_fract_z
O1 O 0.7127(2) 0.61167(11) 0.0804(3)
O2 O 0.6322(2) 0.71425(11) -0.1895(3)
N1 N 0.4327(3) 0.50685(13) 0.3852(3)
N2 N 0.5951(3) 0.65689(12) -0.0702(3)
C1 C 0.3442(3) 0.60172(14) 0.0518(4)
C2 C 0.3975(3) 0.64220(14) -0.1167(4)
C3 C 0.2679(3) 0.66893(15) -0.3334(4)
C4 C 0.0765(4) 0.65544(17) -0.3887(4)
C5 C 0.0223(3) 0.61676(17) -0.2229(4)
C6 C 0.1530(3) 0.59099(16) -0.0072(4)
C7 C 0.4746(3) 0.57464(15) 0.2876(4)
H1 H 0.3082 0.6962 -0.4438
H2 H -0.0139 0.6726 -0.5372
H3 H -0.1068 0.6078 -0.2577
H4 H 0.1115 0.5653 0.1041
H5 H 0.5876 0.6070 0.3656
O1B O 0.2873(2) 0.38833(11) 0.9196(3)
O2B O 0.3678(2) 0.28575(11) 1.1895(3)
N1B N 0.5673(3) 0.49315(13) 0.6148(3)
N2B N 0.4049(3) 0.34311(12) 1.0702(3)
C1B C 0.6558(3) 0.39828(14) 0.9482(4)
C2B C 0.6025(3) 0.35780(14) 1.1167(4)
C3B C 0.7321(3) 0.33107(15) 1.3334(4)
C4B C 0.9235(4) 0.34456(17) 1.3887(4)
C5B C 0.9777(3) 0.38324(17) 1.2229(4)
C6B C 0.8470(3) 0.40901(16) 1.0072(4)
C7B C 0.5254(3) 0.42536(15) 0.7124(4)
H1B H 0.6918 0.3038 1.4438
H2B H 1.0139 0.3274 1.5372
H3B H 1.1068 0.3922 1.2577
H4B H 0.8885 0.4347 0.8959
H5B H 0.4124 0.3930 0.6344
loop_
_geom_bond_atom_site_label_1
_geom_bond_atom_site_label_2
_geom_bond_site_symmetry_1
_geom_bond_site_symmetry_2
O1 N2 1_555 1_555
O2 N2 1_555 1_555
N1 C7 1_555 1_555
N2 C2 1_555 1_555
C1 C2 1_555 1_555
C2 C3 1_555 1_555
C3 C4 1_555 1_555
C4 C5 1_555 1_555
C5 C6 1_555 1_555
C6 C1 1_555 1_555
C7 C1 1_555 1_555
H1 C3 1_555 1_555
H2 C4 1_555 1_555
H3 C5 1_555 1_555
H4 C6 1_555 1_555
H5 C7 1_555 1_555
O1B N2B 1_555 1_555
O2B N2B 1_555 1_555
N1B N1 1_555 1_555
N2B C2B 1_555 1_555
C1B C2B 1_555 1_555
C2B C3B 1_555 1_555
C3B C4B 1_555 1_555
C4B C5B 1_555 1_555
C5B C6B 1_555 1_555
C6B C1B 1_555 1_555
C7B N1B 1_555 1_555
H1B C3B 1_555 1_555
H2B C4B 1_555 1_555
H3B C5B 1_555 1_555
H4B C6B 1_555 1_555
H5B C7B 1_555 1_555
C1B C7B 1_555 1_555

#END
