
#######################################################################
#
#                 Cambridge Crystallographic Data Centre
#                                CCDC 
#
#######################################################################
#
# If this CIF has been generated from an entry in the Cambridge 
# Structural Database, then it will include bibliographic, chemical, 
# crystal, experimental, refinement or atomic coordinate data resulting 
# from the CCDC's data processing and validation procedures.
#
#######################################################################

data_JULHED01
_chemical_formula_moiety         'C14 H10 N4 O4'
_chemical_name_systematic        
(E,E)-1,4-bis(2-Nitrophenyl)-2,3-diaza-1,3-butadiene
_symmetry_cell_setting           monoclinic
_symmetry_space_group_name_H-M   'P 21/n'
_symmetry_Int_Tables_number      14
_space_group_name_Hall           '-P 2yn'
loop_
_symmetry_equiv_pos_site_id
_symmetry_equiv_pos_as_xyz
1 x,y,z
2 1/2-x,1/2+y,1/2-z
3 -x,-y,-z
4 1/2+x,1/2-y,1/2+z
_cell_length_a                   9.1379(4)
_cell_length_b                   6.1776(3)
_cell_length_c                   11.7682(4)
_cell_angle_alpha                90
_cell_angle_beta                 93.853(3)
_cell_angle_gamma                90
_cell_volume                     662.817
_exptl_crystal_colour            yellow
_exptl_crystal_description       block
_chemical_melting_point          '483-486 K'
_cell_formula_units_Z            2
_exptl_crystal_recrystallization_method 1,2-dichloroethane
loop_
_atom_site_label
_atom_site_type_symbol
_atom_site_fract_x
_atom_site_fract_y
_atom_site_fract_z
O1 O 0.46979(8) 0.98902(15) 0.69804(7)
O2 O 0.30848(9) 1.22318(15) 0.74435(7)
N1 N 0.46268(10) 0.58815(16) 0.47246(8)
N2 N 0.35647(10) 1.09231(16) 0.67747(8)
C1 C 0.29761(12) 0.87752(18) 0.50217(9)
C2 C 0.27452(12) 1.06186(19) 0.56715(9)
C3 C 0.17968(12) 1.22613(19) 0.53063(10)
C4 C 0.10725(14) 1.2111(2) 0.42404(11)
C5 C 0.12914(13) 1.0315(2) 0.35656(10)
C6 C 0.22146(13) 0.8663(2) 0.39507(10)
C7 C 0.39007(12) 0.69393(18) 0.54258(9)
H1 H 0.1646 1.3474 0.5781
H2 H 0.0428 1.3232 0.3971
H3 H 0.0801 1.0221 0.2830
H4 H 0.2335 0.7432 0.3482
H5 H 0.3955 0.6546 0.6208
O1B O 0.53021(8) 0.01098(15) 0.30196(7)
O2B O 0.69152(9) -0.22318(15) 0.25565(7)
N1B N 0.53732(10) 0.41185(16) 0.52754(8)
N2B N 0.64353(10) -0.09231(16) 0.32253(8)
C1B C 0.70239(12) 0.12248(18) 0.49783(9)
C2B C 0.72548(12) -0.06186(19) 0.43285(9)
C3B C 0.82032(12) -0.22613(19) 0.46937(10)
C4B C 0.89275(14) -0.2111(2) 0.57596(11)
C5B C 0.87086(13) -0.0315(2) 0.64344(10)
C6B C 0.77854(13) 0.1337(2) 0.60493(10)
C7B C 0.60993(12) 0.30607(18) 0.45742(9)
H1B H 0.8354 -0.3474 0.4219
H2B H 0.9572 -0.3232 0.6029
H3B H 0.9199 -0.0221 0.7170
H4B H 0.7665 0.2568 0.6518
H5B H 0.6045 0.3454 0.3792
loop_
_geom_bond_atom_site_label_1
_geom_bond_atom_site_label_2
_geom_bond_site_symmetry_1
_geom_bond_site_symmetry_2
O1 N2 1_555 1_555
O2 N2 1_555 1_555
N1 C7 1_555 1_555
N2 C2 1_555 1_555
C1 C2 1_555 1_555
C2 C3 1_555 1_555
C3 C4 1_555 1_555
C4 C5 1_555 1_555
C5 C6 1_555 1_555
C6 C1 1_555 1_555
C7 C1 1_555 1_555
H1 C3 1_555 1_555
H2 C4 1_555 1_555
H3 C5 1_555 1_555
H4 C6 1_555 1_555
H5 C7 1_555 1_555
O1B N2B 1_555 1_555
O2B N2B 1_555 1_555
N1B N1 1_555 1_555
N2B C2B 1_555 1_555
C1B C2B 1_555 1_555
C2B C3B 1_555 1_555
C3B C4B 1_555 1_555
C4B C5B 1_555 1_555
C5B C6B 1_555 1_555
C6B C1B 1_555 1_555
C7B N1B 1_555 1_555
H1B C3B 1_555 1_555
H2B C4B 1_555 1_555
H3B C5B 1_555 1_555
H4B C6B 1_555 1_555
H5B C7B 1_555 1_555
C1B C7B 1_555 1_555

#END
