
#######################################################################
#
#                 Cambridge Crystallographic Data Centre
#                                CCDC 
#
#######################################################################
#
# If this CIF has been generated from an entry in the Cambridge 
# Structural Database, then it will include bibliographic, chemical, 
# crystal, experimental, refinement or atomic coordinate data resulting 
# from the CCDC's data processing and validation procedures.
#
#######################################################################

data_JULLUZ
_chemical_formula_moiety         'C26 H34 N2 O4,C8 H6 O4'
_chemical_name_systematic        
'8,19-Diallyl-7,8,9,10,18,19,20,21-octahydro-6H,17H-dibenzo[b,k][1,4,10,13,7,16]tetraoxadiazacyclooctadecine terephthalic acid clathrate'
_symmetry_cell_setting           monoclinic
_symmetry_space_group_name_H-M   'C 2/c'
_symmetry_Int_Tables_number      15
_space_group_name_Hall           '-C 2yn'
loop_
_symmetry_equiv_pos_site_id
_symmetry_equiv_pos_as_xyz
1 x,y,z
2 -x,y,1/2-z
3 1/2+x,1/2+y,z
4 1/2-x,1/2+y,1/2-z
5 -x,-y,-z
6 x,-y,1/2+z
7 1/2-x,1/2-y,-z
8 1/2+x,1/2-y,1/2+z
_cell_length_a                   31.022(6)
_cell_length_b                   5.8603(15)
_cell_length_c                   19.725(4)
_cell_angle_alpha                90
_cell_angle_beta                 118.646(6)
_cell_angle_gamma                90
_cell_volume                     3147.04
_exptl_crystal_colour            colorless
_exptl_crystal_description       needle
_cell_formula_units_Z            4
loop_
_atom_site_label
_atom_site_type_symbol
_atom_site_fract_x
_atom_site_fract_y
_atom_site_fract_z
C1 C 0.46987(10) 0.9458(6) 0.03155(17)
C2 C 0.49440(11) 1.1532(6) 0.04872(18)
H1 H 0.4904 1.2581 0.0820
C3 C 0.47538(11) 0.7922(6) -0.01769(18)
H2 H 0.4584 0.6505 -0.0298
C4 C 0.43774(11) 0.8907(6) 0.06658(18)
O1 O 0.41598(8) 0.6913(4) 0.04637(13)
H3 H 0.3955(13) 0.667(6) 0.0638(19)
O2 O 0.43259(8) 1.0229(4) 0.10998(13)
C1D C 0.53013(10) 1.0542(6) -0.03155(17)
C2D C 0.50560(11) 0.8468(6) -0.04872(18)
H1D H 0.5096 0.7419 -0.0820
C3D C 0.52462(11) 1.2078(6) 0.01769(18)
H2D H 0.5416 1.3495 0.0298
C4D C 0.56226(11) 1.1093(6) -0.06658(18)
O1D O 0.58402(8) 1.3087(4) -0.04637(13)
H3D H 0.6045(13) 1.333(6) -0.0638(19)
O2D O 0.56741(8) 0.9771(4) -0.10998(13)
C5 C 0.23001(10) 0.6493(5) 0.13672(16)
C6 C 0.19563(10) 0.4722(5) 0.10337(15)
C7 C 0.15671(11) 0.4573(6) 0.11898(16)
H4 H 0.1331 0.3392 0.0963
C8 C 0.15232(11) 0.6153(6) 0.16787(17)
H5 H 0.1254 0.6063 0.1780
C9 C 0.18673(11) 0.7842(6) 0.20150(17)
H6 H 0.1836 0.8901 0.2354
C10 C 0.22602(11) 0.8021(5) 0.18660(17)
H7 H 0.2499 0.9184 0.2105
C11 C 0.30436(11) 0.8193(5) 0.15075(17)
H8 H 0.3259 0.7779 0.2055
H9 H 0.2902 0.9720 0.1490
C12 C 0.33371(11) 0.8232(5) 0.10773(18)
H10 H 0.3127 0.8911 0.0562
H11 H 0.3619 0.9274 0.1357
C13 C 0.31423(10) 0.4611(5) 0.03538(16)
H12 H 0.2862 0.5587 0.0008
H13 H 0.3022 0.3487 0.0599
C14 C 0.33360(11) 0.3359(5) -0.01196(17)
H14 H 0.3391 0.4431 -0.0459
H15 H 0.3649 0.2571 0.0221
C15 C 0.38160(11) 0.4724(6) 0.16887(16)
H16 H 0.3591 0.4212 0.1883
H17 H 0.3955 0.3348 0.1574
C16 C 0.42224(12) 0.6073(7) 0.23013(19)
H18 H 0.4443 0.6831 0.2170
C17 C 0.42961(15) 0.6285(8) 0.3010(2)
H19 H 0.4082 0.5549 0.3161
H20 H 0.4563 0.7174 0.3374
N1 N 0.35303(8) 0.6049(4) 0.09611(13)
O3 O 0.26588(7) 0.6540(4) 0.11447(11)
O4 O 0.29578(7) 0.1743(4) -0.05689(11)
C5F C 0.26999(10) -0.1493(5) -0.13672(16)
C6F C 0.30437(10) 0.0278(5) -0.10337(15)
C7F C 0.34329(11) 0.0427(6) -0.11898(16)
H4F H 0.3669 0.1608 -0.0963
C8F C 0.34768(11) -0.1153(6) -0.16787(17)
H5F H 0.3746 -0.1063 -0.1780
C9F C 0.31327(11) -0.2842(6) -0.20150(17)
H6F H 0.3164 -0.3901 -0.2354
C10F C 0.27398(11) -0.3021(5) -0.18660(17)
H7F H 0.2501 -0.4184 -0.2105
C11F C 0.19564(11) -0.3193(5) -0.15075(17)
H8F H 0.1741 -0.2779 -0.2055
H9F H 0.2098 -0.4720 -0.1490
C12F C 0.16629(11) -0.3232(5) -0.10773(18)
H10F H 0.1873 -0.3911 -0.0562
H11F H 0.1381 -0.4274 -0.1357
C13F C 0.18577(10) 0.0389(5) -0.03538(16)
H12F H 0.2138 -0.0587 -0.0008
H13F H 0.1978 0.1513 -0.0599
C14F C 0.16640(11) 0.1641(5) 0.01196(17)
H14F H 0.1609 0.0569 0.0459
H15F H 0.1351 0.2429 -0.0221
C15F C 0.11840(11) 0.0276(6) -0.16887(16)
H16F H 0.1409 0.0788 -0.1883
H17F H 0.1045 0.1652 -0.1574
C16F C 0.07776(12) -0.1073(7) -0.23013(19)
H18F H 0.0557 -0.1831 -0.2170
C17F C 0.07039(15) -0.1285(8) -0.3010(2)
H19F H 0.0918 -0.0549 -0.3161
H20F H 0.0437 -0.2174 -0.3374
N1F N 0.14697(8) -0.1049(4) -0.09611(13)
O3F O 0.23412(7) -0.1540(4) -0.11447(11)
O4F O 0.20422(7) 0.3257(4) 0.05689(11)
loop_
_geom_bond_atom_site_label_1
_geom_bond_atom_site_label_2
_geom_bond_site_symmetry_1
_geom_bond_site_symmetry_2
C1 C2 1_555 1_555
C2 H1 1_555 1_555
C3 C1 1_555 1_555
H2 C3 1_555 1_555
C4 C1 1_555 1_555
O1 C4 1_555 1_555
H3 O1 1_555 1_555
O2 C4 1_555 1_555
C5 C6 1_555 1_555
C6 C7 1_555 1_555
C7 H4 1_555 1_555
C8 C7 1_555 1_555
H5 C8 1_555 1_555
C9 C8 1_555 1_555
H6 C9 1_555 1_555
C10 C5 1_555 1_555
H7 C10 1_555 1_555
C11 H8 1_555 1_555
H9 C11 1_555 1_555
C12 C11 1_555 1_555
H10 C12 1_555 1_555
H11 C12 1_555 1_555
C13 H12 1_555 1_555
H13 C13 1_555 1_555
C14 C13 1_555 1_555
H14 C14 1_555 1_555
H15 C14 1_555 1_555
C15 H16 1_555 1_555
H17 C15 1_555 1_555
C16 C15 1_555 1_555
H18 C16 1_555 1_555
C17 C16 1_555 1_555
H19 C17 1_555 1_555
H20 C17 1_555 1_555
N1 C12 1_555 1_555
O3 C5 1_555 1_555
O4 C14 1_555 1_555
C1D C2D 1_555 1_555
C2D C3 1_555 1_555
H1D C2D 1_555 1_555
C3D C2 1_555 1_555
H2D C3D 1_555 1_555
C4D C1D 1_555 1_555
O1D C4D 1_555 1_555
H3D O1D 1_555 1_555
O2D C4D 1_555 1_555
C5F C6F 1_555 1_555
C6F O4 1_555 1_555
C7F C6F 1_555 1_555
H4F C7F 1_555 1_555
C8F C7F 1_555 1_555
H5F C8F 1_555 1_555
C9F C8F 1_555 1_555
H6F C9F 1_555 1_555
C10F C5F 1_555 1_555
H7F C10F 1_555 1_555
C11F H8F 1_555 1_555
H9F C11F 1_555 1_555
C12F C11F 1_555 1_555
H10F C12F 1_555 1_555
H11F C12F 1_555 1_555
C13F H12F 1_555 1_555
H13F C13F 1_555 1_555
C14F C13F 1_555 1_555
H14F C14F 1_555 1_555
H15F C14F 1_555 1_555
C15F H16F 1_555 1_555
H17F C15F 1_555 1_555
C16F C15F 1_555 1_555
H18F C16F 1_555 1_555
C17F C16F 1_555 1_555
H19F C17F 1_555 1_555
H20F C17F 1_555 1_555
N1F C12F 1_555 1_555
O3F C5F 1_555 1_555
O4F C6 1_555 1_555
C9 C10 1_555 1_555
C11 O3 1_555 1_555
C13 N1 1_555 1_555
C15 N1 1_555 1_555
C1D C3D 1_555 1_555
C9F C10F 1_555 1_555
C11F O3F 1_555 1_555
C13F N1F 1_555 1_555
C14F O4F 1_555 1_555
C15F N1F 1_555 1_555

#END
