
#######################################################################
#
#                 Cambridge Crystallographic Data Centre
#                                CCDC 
#
#######################################################################
#
# If this CIF has been generated from an entry in the Cambridge 
# Structural Database, then it will include bibliographic, chemical, 
# crystal, experimental, refinement or atomic coordinate data resulting 
# from the CCDC's data processing and validation procedures.
#
#######################################################################

data_JULZAR01
_chemical_formula_moiety         'C8 H6 O2'
_chemical_name_systematic        Terephthalaldehyde
_symmetry_cell_setting           orthorhombic
_symmetry_space_group_name_H-M   'P c a 21'
_symmetry_Int_Tables_number      29
_space_group_name_Hall           'P 2c -2ac'
loop_
_symmetry_equiv_pos_site_id
_symmetry_equiv_pos_as_xyz
1 x,y,z
2 -x,-y,1/2+z
3 1/2+x,-y,z
4 1/2-x,y,1/2+z
_cell_length_a                   12.8811(5)
_cell_length_b                   3.8933(3)
_cell_length_c                   13.3202(9)
_cell_angle_alpha                90
_cell_angle_beta                 90
_cell_angle_gamma                90
_cell_volume                     668.008
_exptl_crystal_colour            colorless
_exptl_crystal_description       block
_cell_formula_units_Z            4
_exptl_crystal_recrystallization_method ethanol
loop_
_atom_site_label
_atom_site_type_symbol
_atom_site_fract_x
_atom_site_fract_y
_atom_site_fract_z
C1 C 0.8164(2) 0.3463(7) 0.2145(2)
C2 C 0.9236(2) 0.3850(7) 0.2147(3)
H1 H 0.9566 0.4847 0.1599
C3 C 0.9315(2) 0.1279(7) 0.3776(2)
C4 C 0.8239(2) 0.0894(7) 0.3770(3)
H2 H 0.7907 -0.0106 0.4316
C5 C 0.7668(2) 0.1993(6) 0.2955(3)
H3 H 0.6950 0.1744 0.2953
C6 C 0.9805(2) 0.2776(7) 0.2951(3)
H4 H 1.0523 0.3040 0.2949
C7 C 0.7563(4) 0.4635(8) 0.1269(4)
H5 H 0.7934 0.5547 0.0733
C8 C 0.9916(3) 0.0084(8) 0.4657(4)
H6 H 0.9550 -0.0874 0.5190
O1 O 0.6637(2) 0.4514(7) 0.1187(3)
O2 O 1.0834(2) 0.0266(7) 0.4731(4)
loop_
_geom_bond_atom_site_label_1
_geom_bond_atom_site_label_2
_geom_bond_site_symmetry_1
_geom_bond_site_symmetry_2
C1 C2 1_555 1_555
C2 H1 1_555 1_555
C3 C4 1_555 1_555
C4 H2 1_555 1_555
C5 C1 1_555 1_555
H3 C5 1_555 1_555
C6 C2 1_555 1_555
H4 C6 1_555 1_555
C7 C1 1_555 1_555
H5 C7 1_555 1_555
C8 C3 1_555 1_555
H6 C8 1_555 1_555
O1 C7 1_555 1_555
O2 C8 1_555 1_555
C3 C6 1_555 1_555
C4 C5 1_555 1_555

#END
