
#######################################################################
#
#                 Cambridge Crystallographic Data Centre
#                                CCDC 
#
#######################################################################
#
# If this CIF has been generated from an entry in the Cambridge 
# Structural Database, then it will include bibliographic, chemical, 
# crystal, experimental, refinement or atomic coordinate data resulting 
# from the CCDC's data processing and validation procedures.
#
#######################################################################

data_JUMHOQ
_chemical_formula_moiety         'C10 H15 Cl1 O4'
_chemical_name_systematic        
3-Chloro-5-(hydroxymethyl)-6-(prop-1-en-1-yl)cyclohex-5-ene-1,2,4-triol
_symmetry_cell_setting           rhombohedral
_symmetry_space_group_name_H-M   'R 3'
_symmetry_Int_Tables_number      146
_space_group_name_Hall           'R 3'
loop_
_symmetry_equiv_pos_site_id
_symmetry_equiv_pos_as_xyz
1 x,y,z
2 -y,x-y,z
3 -x+y,-x,z
4 2/3+x,1/3+y,1/3+z
5 2/3-y,1/3+x-y,1/3+z
6 2/3-x+y,1/3-x,1/3+z
7 1/3+x,2/3+y,2/3+z
8 1/3-y,2/3+x-y,2/3+z
9 1/3-x+y,2/3-x,2/3+z
_cell_length_a                   24.752(2)
_cell_length_b                   24.752(2)
_cell_length_c                   5.0591(6)
_cell_angle_alpha                90
_cell_angle_beta                 90
_cell_angle_gamma                120
_cell_volume                     2684.26
_cell_formula_units_Z            9
loop_
_atom_site_label
_atom_site_type_symbol
_atom_site_fract_x
_atom_site_fract_y
_atom_site_fract_z
Cl1 Cl 0.52980(4) 1.05892(4) -0.30262(18)
O1 O 0.57946(8) 0.97657(9) -0.0783(4)
H1 H 0.6134 1.0027 -0.0182
O2 O 0.39132(9) 0.98474(9) -0.1879(4)
H2 H 0.3904 1.0170 -0.1630
O3 O 0.35238(8) 0.92261(9) 0.3210(4)
H3 H 0.3718 0.9429 0.4506
O4 O 0.59302(8) 0.94435(11) 0.4341(5)
H4 H 0.5886 0.9523 0.5873
C1 C 0.43302(12) 0.89320(12) 0.2694(6)
C2 C 0.49483(12) 0.92054(12) 0.2267(6)
C3 C 0.53081(12) 0.97891(12) 0.0636(5)
H5 H 0.5492 1.0153 0.1810
C4 C 0.48821(13) 0.98522(13) -0.1319(6)
H6 H 0.4744 0.9516 -0.2621
C5 C 0.43183(13) 0.98035(12) 0.0015(6)
H7 H 0.4451 1.0141 0.1307
C6 C 0.39430(12) 0.91808(12) 0.1410(6)
H8 H 0.3686 0.8877 0.0056
C7 C 0.39807(14) 0.83690(14) 0.4343(8)
H9 H 0.4219 0.8256 0.5372
C8 C 0.33758(17) 0.80108(15) 0.4529(10)
H10 H 0.3129 0.8110 0.3479
C9 C 0.3047(2) 0.7453(2) 0.6297(12)
H11 H 0.2834 0.7083 0.5240
H12 H 0.2751 0.7495 0.7378
H13 H 0.3347 0.7425 0.7406
C10 C 0.53527(13) 0.89590(14) 0.3364(7)
H14 H 0.5131 0.8667 0.4781
H15 H 0.5431 0.8735 0.1983
loop_
_geom_bond_atom_site_label_1
_geom_bond_atom_site_label_2
_geom_bond_site_symmetry_1
_geom_bond_site_symmetry_2
Cl1 C4 1_555 1_555
O1 H1 1_555 1_555
O2 H2 1_555 1_555
O3 H3 1_555 1_555
O4 H4 1_555 1_555
C1 C2 1_555 1_555
C2 C3 1_555 1_555
C3 O1 1_555 1_555
H5 C3 1_555 1_555
C4 C3 1_555 1_555
H6 C4 1_555 1_555
C5 O2 1_555 1_555
H7 C5 1_555 1_555
C6 O3 1_555 1_555
H8 C6 1_555 1_555
C7 C1 1_555 1_555
H9 C7 1_555 1_555
C8 C7 1_555 1_555
H10 C8 1_555 1_555
C9 C8 1_555 1_555
H11 C9 1_555 1_555
H12 C9 1_555 1_555
H13 C9 1_555 1_555
C10 O4 1_555 1_555
H14 C10 1_555 1_555
H15 C10 1_555 1_555
C1 C6 1_555 1_555
C2 C10 1_555 1_555
C4 C5 1_555 1_555
C5 C6 1_555 1_555

#END
