
#######################################################################
#
#                 Cambridge Crystallographic Data Centre
#                                CCDC 
#
#######################################################################
#
# If this CIF has been generated from an entry in the Cambridge 
# Structural Database, then it will include bibliographic, chemical, 
# crystal, experimental, refinement or atomic coordinate data resulting 
# from the CCDC's data processing and validation procedures.
#
#######################################################################

data_JUMHUW
_chemical_formula_moiety         'C10 H16 O5,H2 O1'
_chemical_name_systematic        
'5-(Hydroxymethyl)-6-(prop-1-en-1-yl)cyclohex-5-ene-1,2,3,4-tetrol monohydrate'
_symmetry_cell_setting           monoclinic
_symmetry_space_group_name_H-M   'P 21'
_symmetry_Int_Tables_number      4
_space_group_name_Hall           'P 2yb'
loop_
_symmetry_equiv_pos_site_id
_symmetry_equiv_pos_as_xyz
1 x,y,z
2 -x,1/2+y,-z
_cell_length_a                   15.2823(12)
_cell_length_b                   4.5964(3)
_cell_length_c                   16.3515(14)
_cell_angle_alpha                90
_cell_angle_beta                 95.4540(10)
_cell_angle_gamma                90
_cell_volume                     1143.39
_cell_formula_units_Z            4
loop_
_atom_site_label
_atom_site_type_symbol
_atom_site_fract_x
_atom_site_fract_y
_atom_site_fract_z
O1 O 0.3039(6) 0.901(3) 0.4486(6)
H1 H 0.2627 0.9848 0.4190
H2 H 0.3036 0.9615 0.4976
O2 O 0.8026(6) 0.988(3) 0.4712(6)
H3 H 0.7712 1.1091 0.4945
H4 H 0.7687 0.8716 0.4428
O3 O 0.1656(5) 1.173(2) 0.3452(6)
H5 H 0.1796 1.2068 0.2989
O4 O 0.0573(6) 1.122(2) 0.4666(6)
H6 H 0.1021 1.2190 0.4640
O5 O -0.0968(6) 1.340(2) 0.3786(6)
H7 H -0.0751 1.4122 0.4217
O6 O -0.1390(5) 0.857(2) 0.2818(7)
H8 H -0.1173 0.7216 0.3094
O7 O 0.2315(7) 0.704(3) 0.2497(9)
H9 H 0.2545 0.8648 0.2469
C1 C -0.0014(9) 0.892(3) 0.2161(9)
C2 C 0.0796(9) 0.844(3) 0.2552(9)
C3 C 0.1052(8) 0.925(3) 0.3421(10)
H10 H 0.1361 0.7593 0.3696
C4 C 0.0309(8) 1.001(3) 0.3880(9)
H11 H -0.0022 0.8229 0.3965
C5 C -0.0304(8) 1.211(3) 0.3372(8)
H12 H 0.0058 1.3681 0.3178
C6 C -0.0717(8) 1.048(3) 0.2619(8)
H13 H -0.0994 1.1944 0.2242
C7 C -0.0297(9) 0.790(4) 0.1309(10)
H14 H 0.0116 0.6866 0.1044
C8 C -0.1073(11) 0.831(6) 0.0888(12)
H15 H -0.1491 0.9404 0.1130
C9 C -0.1316(12) 0.711(6) 0.0046(10)
H16 H -0.0791 0.6646 -0.0206
H17 H -0.1649 0.8535 -0.0281
H18 H -0.1663 0.5384 0.0085
C10 C 0.1509(8) 0.709(4) 0.2082(10)
H19 H 0.1339 0.5116 0.1934
H20 H 0.1541 0.8176 0.1576
O8 O 0.4197(6) -0.277(2) 0.3445(6)
H21 H 0.3809 -0.2494 0.3749
O9 O 0.5513(6) -0.222(2) 0.4664(6)
H22 H 0.5952 -0.3173 0.4820
O10 O 0.6907(6) -0.395(2) 0.3773(6)
H23 H 0.7038 -0.5492 0.3562
O11 O 0.7016(5) 0.101(2) 0.2796(6)
H24 H 0.7507 0.0290 0.2805
O12 O 0.3259(7) 0.197(3) 0.2537(9)
H25 H 0.3007 0.3549 0.2507
C11 C 0.5545(8) 0.040(3) 0.2156(9)
C12 C 0.4819(8) 0.071(3) 0.2574(9)
C13 C 0.4740(9) -0.019(4) 0.3426(9)
H26 H 0.4462 0.1387 0.3711
C14 C 0.5631(9) -0.091(3) 0.3902(9)
H27 H 0.5955 0.0914 0.4009
C15 C 0.6136(7) -0.278(3) 0.3331(8)
H28 H 0.5757 -0.4423 0.3147
C16 C 0.6357(8) -0.121(3) 0.2596(9)
H29 H 0.6582 -0.2595 0.2212
C17 C 0.5601(9) 0.144(4) 0.1330(9)
H30 H 0.5099 0.2342 0.1082
C18 C 0.6284(12) 0.128(6) 0.0873(11)
H31 H 0.6806 0.0514 0.1123
C19 C 0.6276(12) 0.221(6) 0.0008(10)
H32 H 0.5680 0.2513 -0.0219
H33 H 0.6541 0.0723 -0.0301
H34 H 0.6602 0.3983 -0.0020
C20 C 0.3970(8) 0.208(4) 0.2112(10)
H35 H 0.4089 0.4097 0.1987
H36 H 0.3838 0.1068 0.1594
loop_
_geom_bond_atom_site_label_1
_geom_bond_atom_site_label_2
_geom_bond_site_symmetry_1
_geom_bond_site_symmetry_2
O1 H1 1_555 1_555
H2 O1 1_555 1_555
O2 H3 1_555 1_555
H4 O2 1_555 1_555
O3 H5 1_555 1_555
O4 H6 1_555 1_555
O5 H7 1_555 1_555
O6 H8 1_555 1_555
O7 H9 1_555 1_555
C1 C2 1_555 1_555
C2 C3 1_555 1_555
C3 O3 1_555 1_555
H10 C3 1_555 1_555
C4 O4 1_555 1_555
H11 C4 1_555 1_555
C5 O5 1_555 1_555
H12 C5 1_555 1_555
C6 O6 1_555 1_555
H13 C6 1_555 1_555
C7 C1 1_555 1_555
H14 C7 1_555 1_555
C8 C7 1_555 1_555
H15 C8 1_555 1_555
C9 C8 1_555 1_555
H16 C9 1_555 1_555
H17 C9 1_555 1_555
H18 C9 1_555 1_555
C10 O7 1_555 1_555
H19 C10 1_555 1_555
H20 C10 1_555 1_555
O8 H21 1_555 1_555
O9 H22 1_555 1_555
O10 H23 1_555 1_555
O11 H24 1_555 1_555
O12 H25 1_555 1_555
C11 C12 1_555 1_555
C12 C13 1_555 1_555
C13 O8 1_555 1_555
H26 C13 1_555 1_555
C14 O9 1_555 1_555
H27 C14 1_555 1_555
C15 O10 1_555 1_555
H28 C15 1_555 1_555
C16 O11 1_555 1_555
H29 C16 1_555 1_555
C17 C11 1_555 1_555
H30 C17 1_555 1_555
C18 C17 1_555 1_555
H31 C18 1_555 1_555
C19 C18 1_555 1_555
H32 C19 1_555 1_555
H33 C19 1_555 1_555
H34 C19 1_555 1_555
C20 O12 1_555 1_555
H35 C20 1_555 1_555
H36 C20 1_555 1_555
C1 C6 1_555 1_555
C2 C10 1_555 1_555
C3 C4 1_555 1_555
C4 C5 1_555 1_555
C5 C6 1_555 1_555
C11 C16 1_555 1_555
C12 C20 1_555 1_555
C13 C14 1_555 1_555
C14 C15 1_555 1_555
C15 C16 1_555 1_555

#END
