
#######################################################################
#
#                 Cambridge Crystallographic Data Centre
#                                CCDC 
#
#######################################################################
#
# If this CIF has been generated from an entry in the Cambridge 
# Structural Database, then it will include bibliographic, chemical, 
# crystal, experimental, refinement or atomic coordinate data resulting 
# from the CCDC's data processing and validation procedures.
#
#######################################################################

data_JUMJEI
_chemical_formula_moiety         'C37 H44 O14'
_chemical_name_systematic        
'Diethyl 3,3-bis(3-(4-(2-ethoxy-2-oxoethoxy)-3-methoxyphenyl)acryloyl)pentanedioate'
_symmetry_cell_setting           monoclinic
_symmetry_space_group_name_H-M   'C 2/c'
_symmetry_Int_Tables_number      15
_space_group_name_Hall           '-C 2yn'
loop_
_symmetry_equiv_pos_site_id
_symmetry_equiv_pos_as_xyz
1 x,y,z
2 -x,y,1/2-z
3 1/2+x,1/2+y,z
4 1/2-x,1/2+y,1/2-z
5 -x,-y,-z
6 x,-y,1/2+z
7 1/2-x,1/2-y,-z
8 1/2+x,1/2-y,1/2+z
_cell_length_a                   21.506(5)
_cell_length_b                   10.696(5)
_cell_length_c                   17.754(5)
_cell_angle_alpha                90
_cell_angle_beta                 114.925(5)
_cell_angle_gamma                90
_cell_volume                     3703.54
_exptl_crystal_colour            yellow
_exptl_crystal_description       block
_cell_formula_units_Z            4
loop_
_atom_site_label
_atom_site_type_symbol
_atom_site_fract_x
_atom_site_fract_y
_atom_site_fract_z
O1 O 0.50156(7) -0.22732(14) 0.48360(8)
O2 O 0.96337(7) 0.39555(13) 0.61334(7)
O3 O 0.72302(7) 0.04230(17) 0.75690(8)
O4 O 0.65142(7) -0.07433(15) 0.61999(8)
C1 C 0.95347(9) 0.56520(18) 0.77603(10)
H1 H 0.9228 0.5124 0.7894
H2 H 0.9815 0.6124 0.8254
C2 C 0.80535(9) 0.16846(18) 0.62714(10)
C3 C 0.85941(9) 0.25131(17) 0.62804(11)
H3 H 0.8620 0.2602 0.5774
C4 C 0.95570(8) 0.39651(16) 0.67736(10)
O5 O 0.57757(8) -0.28328(16) 0.61069(10)
C5 C 0.74059(9) 0.0673(2) 0.69277(11)
C6 C 0.90545(9) 0.31592(18) 0.69040(10)
H4 H 0.9060 0.3103 0.7430
C7 C 1.0000 0.4827(2) 0.7500
C8 C 0.76553(9) 0.1061(2) 0.55442(11)
H5 H 0.7739 0.1188 0.5077
C9 C 0.70066(9) 0.0051(2) 0.61791(11)
C10 C 0.79165(9) 0.14769(18) 0.69695(11)
H6 H 0.8175 0.1889 0.7465
O6 O 0.87896(8) 0.62356(17) 0.63700(9)
C11 C 0.55948(10) -0.2149(2) 0.55237(11)
C12 C 0.71376(9) 0.0257(2) 0.54936(11)
H7 H 0.6877 -0.0147 0.4996
O7 O 0.91678(10) 0.76996(16) 0.73468(11)
C13 C 0.91210(10) 0.6538(2) 0.70773(13)
C14 C 0.59723(12) -0.1050(3) 0.54318(13)
H8 H 0.6154 -0.1231 0.5028
H9 H 0.5662 -0.0345 0.5230
C15 C 0.76197(12) 0.1018(3) 0.83390(13)
H10 H 0.8094 0.0798 0.8526
H11 H 0.7459 0.0752 0.8742
H12 H 0.7570 0.1908 0.8270
C16 C 0.45740(12) -0.3310(2) 0.48150(17)
H13 H 0.4547 -0.3382 0.5345
H14 H 0.4759 -0.4084 0.4710
C17 C 0.38918(14) -0.3084(3) 0.41550(17)
H15 H 0.3705 -0.2333 0.4274
H16 H 0.3598 -0.3777 0.4122
H17 H 0.3924 -0.2992 0.3635
C18 C 0.8798(2) 0.8654(3) 0.6729(2)
H18 H 0.8691 0.9354 0.7001
H19 H 0.8370 0.8308 0.6326
C19 C 0.9217(2) 0.9097(4) 0.6296(3)
H20 H 0.9608 0.9550 0.6679
H21 H 0.8945 0.9635 0.5844
H22 H 0.9370 0.8391 0.6084
O1A O 1.49844(7) -0.22732(14) 1.01640(8)
O2A O 1.03663(7) 0.39555(13) 0.88666(7)
O3A O 1.27698(7) 0.04230(17) 0.74310(8)
O4A O 1.34858(7) -0.07433(15) 0.88001(8)
C1A C 1.04653(9) 0.56520(18) 0.72397(10)
H1A H 1.0772 0.5124 0.7106
H2A H 1.0185 0.6124 0.6746
C2A C 1.19465(9) 0.16846(18) 0.87286(10)
C3A C 1.14059(9) 0.25131(17) 0.87196(11)
H3A H 1.1380 0.2602 0.9226
C4A C 1.04430(8) 0.39651(16) 0.82264(10)
O5A O 1.42243(8) -0.28328(16) 0.88931(10)
C5A C 1.25941(9) 0.0673(2) 0.80723(11)
C6A C 1.09455(9) 0.31592(18) 0.80960(10)
H4A H 1.0940 0.3103 0.7570
C8A C 1.23447(9) 0.1061(2) 0.94558(11)
H5A H 1.2261 0.1188 0.9923
C9A C 1.29934(9) 0.0051(2) 0.88209(11)
C10A C 1.20835(9) 0.14769(18) 0.80305(11)
H6A H 1.1825 0.1889 0.7535
O6A O 1.12104(8) 0.62356(17) 0.86300(9)
C11A C 1.44052(10) -0.2149(2) 0.94763(11)
C12A C 1.28624(9) 0.0257(2) 0.95064(11)
H7A H 1.3123 -0.0147 1.0004
O7A O 1.08322(10) 0.76996(16) 0.76532(11)
C13A C 1.08790(10) 0.6538(2) 0.79227(13)
C14A C 1.40277(12) -0.1050(3) 0.95682(13)
H8A H 1.3846 -0.1231 0.9972
H9A H 1.4338 -0.0345 0.9770
C15A C 1.23803(12) 0.1018(3) 0.66610(13)
H10A H 1.1906 0.0798 0.6474
H11A H 1.2541 0.0752 0.6258
H12A H 1.2430 0.1908 0.6730
C16A C 1.54260(12) -0.3310(2) 1.01850(17)
H13A H 1.5453 -0.3382 0.9655
H14A H 1.5241 -0.4084 1.0290
C17A C 1.61082(14) -0.3084(3) 1.08450(17)
H15A H 1.6295 -0.2333 1.0726
H16A H 1.6402 -0.3777 1.0878
H17A H 1.6076 -0.2992 1.1365
C18A C 1.1202(2) 0.8654(3) 0.8271(2)
H18A H 1.1309 0.9354 0.7999
H19A H 1.1630 0.8308 0.8674
C19A C 1.0783(2) 0.9097(4) 0.8704(3)
H20A H 1.0392 0.9550 0.8321
H21A H 1.1055 0.9635 0.9156
H22A H 1.0630 0.8391 0.8916
loop_
_geom_bond_atom_site_label_1
_geom_bond_atom_site_label_2
_geom_bond_site_symmetry_1
_geom_bond_site_symmetry_2
O1 C11 1_555 1_555
O2 C4 1_555 1_555
O3 C5 1_555 1_555
O4 C9 1_555 1_555
C1 H1 1_555 1_555
H2 C1 1_555 1_555
C2 C3 1_555 1_555
C3 H3 1_555 1_555
C4 C6 1_555 1_555
O5 C11 1_555 1_555
C5 C9 1_555 1_555
C6 C3 1_555 1_555
H4 C6 1_555 1_555
C7 C1 1_555 1_555
C8 C2 1_555 1_555
H5 C8 1_555 1_555
C9 C12 1_555 1_555
C10 C2 1_555 1_555
H6 C10 1_555 1_555
O6 C13 1_555 1_555
C11 C14 1_555 1_555
C12 C8 1_555 1_555
H7 C12 1_555 1_555
O7 C13 1_555 1_555
C13 C1 1_555 1_555
C14 O4 1_555 1_555
H8 C14 1_555 1_555
H9 C14 1_555 1_555
C15 O3 1_555 1_555
H10 C15 1_555 1_555
H11 C15 1_555 1_555
H12 C15 1_555 1_555
C16 O1 1_555 1_555
H13 C16 1_555 1_555
H14 C16 1_555 1_555
C17 C16 1_555 1_555
H15 C17 1_555 1_555
H16 C17 1_555 1_555
H17 C17 1_555 1_555
C18 O7 1_555 1_555
H18 C18 1_555 1_555
H19 C18 1_555 1_555
C19 C18 1_555 1_555
H20 C19 1_555 1_555
H21 C19 1_555 1_555
H22 C19 1_555 1_555
O1A C11A 1_555 1_555
O2A C4A 1_555 1_555
O3A C5A 1_555 1_555
O4A C9A 1_555 1_555
C1A C7 1_555 1_555
H1A C1A 1_555 1_555
H2A C1A 1_555 1_555
C2A C3A 1_555 1_555
C3A H3A 1_555 1_555
C4A C7 1_555 1_555
O5A C11A 1_555 1_555
C5A C9A 1_555 1_555
C6A C3A 1_555 1_555
H4A C6A 1_555 1_555
C8A C2A 1_555 1_555
H5A C8A 1_555 1_555
C9A C12A 1_555 1_555
C10A C2A 1_555 1_555
H6A C10A 1_555 1_555
O6A C13A 1_555 1_555
C11A C14A 1_555 1_555
C12A C8A 1_555 1_555
H7A C12A 1_555 1_555
O7A C13A 1_555 1_555
C13A C1A 1_555 1_555
C14A O4A 1_555 1_555
H8A C14A 1_555 1_555
H9A C14A 1_555 1_555
C15A O3A 1_555 1_555
H10A C15A 1_555 1_555
H11A C15A 1_555 1_555
H12A C15A 1_555 1_555
C16A O1A 1_555 1_555
H13A C16A 1_555 1_555
H14A C16A 1_555 1_555
C17A C16A 1_555 1_555
H15A C17A 1_555 1_555
H16A C17A 1_555 1_555
H17A C17A 1_555 1_555
C18A O7A 1_555 1_555
H18A C18A 1_555 1_555
H19A C18A 1_555 1_555
C19A C18A 1_555 1_555
H20A C19A 1_555 1_555
H21A C19A 1_555 1_555
H22A C19A 1_555 1_555
C4 C7 1_555 1_555
C5 C10 1_555 1_555
C4A C6A 1_555 1_555
C5A C10A 1_555 1_555

#END
