
#######################################################################
#
#                 Cambridge Crystallographic Data Centre
#                                CCDC 
#
#######################################################################
#
# If this CIF has been generated from an entry in the Cambridge 
# Structural Database, then it will include bibliographic, chemical, 
# crystal, experimental, refinement or atomic coordinate data resulting 
# from the CCDC's data processing and validation procedures.
#
#######################################################################

data_JUMKUZ
_chemical_formula_moiety         'C34 H33 Br1 N2 O7'
_chemical_name_systematic        
"1-t-butyl 4'-ethyl 5'-methyl 5'-benzyl-2'-(4-bromophenyl)-2-oxo-4',5'-dihydrospiro[indole-3,3'-pyrrole]-1,4',5'(2H)-tricarboxylate"
_symmetry_cell_setting           triclinic
_symmetry_space_group_name_H-M   'P 1'
_symmetry_Int_Tables_number      1
_space_group_name_Hall           'P 1'
loop_
_symmetry_equiv_pos_site_id
_symmetry_equiv_pos_as_xyz
1 x,y,z
_cell_length_a                   9.5019(6)
_cell_length_b                   10.4381(10)
_cell_length_c                   18.819(2)
_cell_angle_alpha                93.770(9)
_cell_angle_beta                 102.375(7)
_cell_angle_gamma                116.062(8)
_cell_volume                     1610.33
_exptl_crystal_colour            'light colorless'
_exptl_crystal_description       block
_cell_formula_units_Z            2
loop_
_atom_site_label
_atom_site_type_symbol
_atom_site_fract_x
_atom_site_fract_y
_atom_site_fract_z
Br1 Br 0.77271(5) 1.58583(5) 0.37936(3)
O1 O 0.0645(4) 0.9458(4) 0.3844(2)
O2 O 0.1939(4) 0.7922(4) 0.4448(3)
O3 O 0.2835(5) 0.6798(5) 0.3738(3)
O4 O -0.2025(4) 0.6270(4) 0.1974(2)
O5 O -0.3982(4) 0.6805(4) 0.1448(3)
O6 O -0.1839(5) 0.9373(5) 0.0793(2)
O7 O -0.3921(4) 0.9665(4) 0.0961(2)
N1 N 0.1639(4) 0.8115(4) 0.3249(3)
N2 N -0.0329(4) 1.1165(4) 0.2242(2)
C1 C 0.1745(5) 0.7895(5) 0.2518(3)
C2 C 0.2470(6) 0.7170(6) 0.2236(4)
H1 H 0.2966 0.6724 0.2533
C3 C 0.2439(7) 0.7124(8) 0.1499(5)
H2 H 0.2911 0.6628 0.1297
C4 C 0.1736(6) 0.7785(6) 0.1060(3)
H3 H 0.1744 0.7743 0.0566
C5 C 0.0999(5) 0.8528(6) 0.1345(3)
H4 H 0.0512 0.8980 0.1047
C6 C 0.1019(5) 0.8567(5) 0.2079(3)
C7 C 0.0294(5) 0.9247(5) 0.2527(3)
C8 C 0.0855(5) 0.8997(5) 0.3305(4)
C9 C -0.1602(5) 0.8629(5) 0.2319(3)
H5 H -0.1891 0.8540 0.2789
C10 C -0.1921(5) 0.9881(5) 0.2040(3)
C11 C 0.0806(5) 1.0841(5) 0.2511(3)
C12 C 0.2490(5) 1.2008(5) 0.2802(3)
C13 C 0.3831(5) 1.1779(5) 0.2958(3)
H6 H 0.3683 1.0836 0.2861
C14 C 0.5393(5) 1.2895(6) 0.3254(3)
H7 H 0.6286 1.2717 0.3361
C15 C 0.5576(5) 1.4281(6) 0.3384(3)
C16 C 0.4312(6) 1.4571(6) 0.3261(3)
H8 H 0.4471 1.5514 0.3376
C17 C 0.2761(5) 1.3432(6) 0.2958(3)
H9 H 0.1879 1.3624 0.2855
C18 C -0.2651(7) 0.7143(7) 0.1835(4)
C19 C -0.2968(6) 0.4795(6) 0.1560(3)
H10 H -0.3243 0.4806 0.1034
H11 H -0.3970 0.4301 0.1702
C20 C -0.1982(7) 0.4039(6) 0.1723(4)
H12 H -0.2576 0.3066 0.1446
H13 H -0.1737 0.4014 0.2242
H14 H -0.0986 0.4543 0.1586
C21 C -0.2552(6) 0.9594(5) 0.1183(3)
C22 C -0.4644(7) 0.9303(7) 0.0164(4)
H15 H -0.3808 0.9743 -0.0082
H16 H -0.5425 0.9659 0.0041
H17 H -0.5177 0.8270 0.0008
C23 C -0.3067(5) 1.0172(6) 0.2415(3)
H18 H -0.3160 1.1004 0.2256
H19 H -0.4142 0.9341 0.2254
C24 C -0.2491(6) 1.0456(7) 0.3247(4)
C25 C -0.1203(7) 1.1800(7) 0.3630(4)
H20 H -0.0744 1.2556 0.3381
C26 C -0.0632(8) 1.1969(9) 0.4393(5)
H21 H 0.0199 1.2866 0.4653
C27 C -0.1233(12) 1.0882(12) 0.4775(5)
H22 H -0.0784 1.1016 0.5282
C28 C -0.2531(10) 0.9570(10) 0.4392(5)
H23 H -0.2976 0.8811 0.4642
C29 C -0.3156(7) 0.9396(8) 0.3646(5)
H24 H -0.4062 0.8528 0.3399
C30 C 0.2205(6) 0.7542(6) 0.3836(4)
C31 C 0.2389(7) 0.7436(8) 0.5152(4)
C32 C 0.1804(10) 0.8115(10) 0.5658(4)
H25 H 0.2277 0.9139 0.5660
H26 H 0.2117 0.7949 0.6149
H27 H 0.0640 0.7696 0.5492
C33 C 0.4200(7) 0.7986(8) 0.5386(4)
H28 H 0.4490 0.7428 0.5076
H29 H 0.4527 0.7894 0.5892
H30 H 0.4739 0.8987 0.5341
C34 C 0.1518(7) 0.5806(8) 0.5057(5)
H31 H 0.0364 0.5472 0.4928
H32 H 0.1843 0.5517 0.5511
H33 H 0.1791 0.5392 0.4670
Br2 Br 0.39885(6) -0.47395(6) 0.70657(4)
O8 O 0.3180(4) 0.1590(4) 0.7113(2)
O9 O 0.7891(5) 0.4047(5) 0.6955(3)
O10 O 0.5277(4) 0.2983(4) 0.6369(3)
O11 O 0.3494(5) 0.4583(4) 0.9441(3)
O12 O 0.4196(4) 0.2231(4) 1.0275(2)
O13 O 0.1747(4) 0.2052(4) 1.0199(2)
O14 O 0.5482(4) 0.5005(4) 0.8924(2)
N3 N 0.2495(4) 0.0192(4) 0.8910(2)
N4 N 0.6005(5) 0.2954(4) 0.7578(3)
C35 C 0.4383(6) 0.2101(5) 0.7606(3)
C36 C 0.4444(5) 0.2017(5) 0.8430(3)
C37 C 0.6261(5) 0.2751(5) 0.8806(3)
C38 C 0.7059(6) 0.2915(6) 0.9521(3)
H34 H 0.6489 0.2522 0.9863
C39 C 0.8751(7) 0.3683(6) 0.9733(4)
H35 H 0.9318 0.3806 1.0221
C40 C 0.9570(7) 0.4247(7) 0.9240(4)
H36 H 1.0701 0.4750 0.9398
C41 C 0.8798(6) 0.4113(6) 0.8497(4)
H37 H 0.9376 0.4530 0.8161
C42 C 0.7091(6) 0.3308(5) 0.8290(3)
C43 C 0.3540(6) 0.0429(5) 0.8551(3)
C44 C 0.2261(5) 0.1474(5) 0.9075(3)
C45 C 0.3344(5) 0.2605(6) 0.8665(3)
H38 H 0.2595 0.2555 0.8203
C46 C 0.6498(7) 0.3382(6) 0.6926(4)
C47 C 0.5447(7) 0.3263(7) 0.5614(3)
C48 C 0.6267(8) 0.4859(6) 0.5628(4)
H39 H 0.5885 0.5323 0.5941
H40 H 0.6021 0.5045 0.5136
H41 H 0.7423 0.5236 0.5817
C49 C 0.6375(10) 0.2530(8) 0.5367(4)
H42 H 0.7481 0.3006 0.5668
H43 H 0.6358 0.2591 0.4858
H44 H 0.5873 0.1530 0.5417
C50 C 0.3709(7) 0.2585(8) 0.5170(4)
H45 H 0.3229 0.1552 0.5137
H46 H 0.3653 0.2813 0.4682
H47 H 0.3127 0.2955 0.5405
C51 C 0.4128(7) 0.4153(7) 0.9061(4)
C52 C 0.6349(7) 0.6500(6) 0.9303(4)
H48 H 0.5883 0.7058 0.9046
H49 H 0.6228 0.6549 0.9802
C53 C 0.8010(7) 0.7104(7) 0.9334(5)
H50 H 0.8130 0.7058 0.8840
H51 H 0.8479 0.6570 0.9600
H52 H 0.8556 0.8098 0.9581
C54 C 0.2879(7) 0.1961(5) 0.9920(3)
C55 C 0.2247(7) 0.2605(8) 1.0980(4)
H53 H 0.3076 0.3597 1.1081
H54 H 0.2669 0.2036 1.1243
H55 H 0.1329 0.2552 1.1137
C56 C 0.0436(5) 0.1045(6) 0.8778(3)
H56 H -0.0170 0.0354 0.9057
H57 H 0.0292 0.1901 0.8865
C57 C -0.0265(5) 0.0398(7) 0.7976(4)
C58 C -0.0578(6) -0.1009(7) 0.7707(4)
H58 H -0.0360 -0.1568 0.8035
C59 C -0.1205(7) -0.1571(8) 0.6965(5)
H59 H -0.1361 -0.2497 0.6801
C60 C -0.1602(8) -0.0842(12) 0.6464(5)
H60 H -0.2047 -0.1246 0.5963
C61 C -0.1316(7) 0.0540(10) 0.6732(5)
H61 H -0.1582 0.1070 0.6398
C62 C -0.0664(6) 0.1166(7) 0.7462(4)
H62 H -0.0487 0.2102 0.7616
C63 C 0.2609(6) -0.2181(6) 0.8198(4)
H63 H 0.1750 -0.2343 0.8402
C64 C 0.2684(6) -0.3363(6) 0.7852(4)
H64 H 0.1884 -0.4304 0.7824
C65 C 0.3934(7) -0.3117(6) 0.7561(3)
C66 C 0.5153(6) -0.1748(6) 0.7601(3)
H65 H 0.6018 -0.1607 0.7405
C67 C 0.5057(5) -0.0583(6) 0.7940(3)
H66 H 0.5869 0.0351 0.7967
C68 C 0.3780(5) -0.0769(5) 0.8243(3)
loop_
_geom_bond_atom_site_label_1
_geom_bond_atom_site_label_2
_geom_bond_site_symmetry_1
_geom_bond_site_symmetry_2
Br1 C15 1_555 1_555
O1 C8 1_555 1_555
O2 C30 1_555 1_555
O3 C30 1_555 1_555
O4 C18 1_555 1_555
O5 C18 1_555 1_555
O6 C21 1_555 1_555
O7 C21 1_555 1_555
N1 C1 1_555 1_555
N2 C10 1_555 1_555
C1 C2 1_555 1_555
C2 H1 1_555 1_555
C3 C2 1_555 1_555
H2 C3 1_555 1_555
C4 C3 1_555 1_555
H3 C4 1_555 1_555
C5 C4 1_555 1_555
H4 C5 1_555 1_555
C6 C1 1_555 1_555
C7 C6 1_555 1_555
C8 N1 1_555 1_555
C9 C7 1_555 1_555
H5 C9 1_555 1_555
C10 C9 1_555 1_555
C11 N2 1_555 1_555
C12 C11 1_555 1_555
C13 C12 1_555 1_555
H6 C13 1_555 1_555
C14 C13 1_555 1_555
H7 C14 1_555 1_555
C15 C14 1_555 1_555
C16 C15 1_555 1_555
H8 C16 1_555 1_555
C17 C12 1_555 1_555
H9 C17 1_555 1_555
C18 C9 1_555 1_555
C19 O4 1_555 1_555
H10 C19 1_555 1_555
H11 C19 1_555 1_555
C20 C19 1_555 1_555
H12 C20 1_555 1_555
H13 C20 1_555 1_555
H14 C20 1_555 1_555
C21 C10 1_555 1_555
C22 O7 1_555 1_555
H15 C22 1_555 1_555
H16 C22 1_555 1_555
H17 C22 1_555 1_555
C23 C10 1_555 1_555
H18 C23 1_555 1_555
H19 C23 1_555 1_555
C24 C23 1_555 1_555
C25 C24 1_555 1_555
H20 C25 1_555 1_555
C26 C25 1_555 1_555
H21 C26 1_555 1_555
C27 C26 1_555 1_555
H22 C27 1_555 1_555
C28 C27 1_555 1_555
H23 C28 1_555 1_555
C29 C24 1_555 1_555
H24 C29 1_555 1_555
C30 N1 1_555 1_555
C31 O2 1_555 1_555
C32 C31 1_555 1_555
H25 C32 1_555 1_555
H26 C32 1_555 1_555
H27 C32 1_555 1_555
C33 C31 1_555 1_555
H28 C33 1_555 1_555
H29 C33 1_555 1_555
H30 C33 1_555 1_555
C34 C31 1_555 1_555
H31 C34 1_555 1_555
H32 C34 1_555 1_555
H33 C34 1_555 1_555
Br2 C65 1_555 1_555
O8 C35 1_555 1_555
O9 C46 1_555 1_555
O10 C46 1_555 1_555
O11 C51 1_555 1_555
O12 C54 1_555 1_555
O13 C54 1_555 1_555
O14 C51 1_555 1_555
N3 C43 1_555 1_555
N4 C35 1_555 1_555
C35 C36 1_555 1_555
C36 C37 1_555 1_555
C37 C38 1_555 1_555
C38 H34 1_555 1_555
C39 C38 1_555 1_555
H35 C39 1_555 1_555
C40 C39 1_555 1_555
H36 C40 1_555 1_555
C41 C40 1_555 1_555
H37 C41 1_555 1_555
C42 N4 1_555 1_555
C43 C36 1_555 1_555
C44 N3 1_555 1_555
C45 C36 1_555 1_555
H38 C45 1_555 1_555
C46 N4 1_555 1_555
C47 O10 1_555 1_555
C48 C47 1_555 1_555
H39 C48 1_555 1_555
H40 C48 1_555 1_555
H41 C48 1_555 1_555
C49 C47 1_555 1_555
H42 C49 1_555 1_555
H43 C49 1_555 1_555
H44 C49 1_555 1_555
C50 C47 1_555 1_555
H45 C50 1_555 1_555
H46 C50 1_555 1_555
H47 C50 1_555 1_555
C51 C45 1_555 1_555
C52 O14 1_555 1_555
H48 C52 1_555 1_555
H49 C52 1_555 1_555
C53 C52 1_555 1_555
H50 C53 1_555 1_555
H51 C53 1_555 1_555
H52 C53 1_555 1_555
C54 C44 1_555 1_555
C55 O13 1_555 1_555
H53 C55 1_555 1_555
H54 C55 1_555 1_555
H55 C55 1_555 1_555
C56 C44 1_555 1_555
H56 C56 1_555 1_555
H57 C56 1_555 1_555
C57 C56 1_555 1_555
C58 C57 1_555 1_555
H58 C58 1_555 1_555
C59 C58 1_555 1_555
H59 C59 1_555 1_555
C60 C59 1_555 1_555
H60 C60 1_555 1_555
C61 C60 1_555 1_555
H61 C61 1_555 1_555
C62 C57 1_555 1_555
H62 C62 1_555 1_555
C63 H63 1_555 1_555
C64 C63 1_555 1_555
H64 C64 1_555 1_555
C65 C64 1_555 1_555
C66 C65 1_555 1_555
H65 C66 1_555 1_555
C67 C66 1_555 1_555
H66 C67 1_555 1_555
C68 C43 1_555 1_555
C5 C6 1_555 1_555
C7 C8 1_555 1_555
C7 C11 1_555 1_555
C16 C17 1_555 1_555
C28 C29 1_555 1_555
C37 C42 1_555 1_555
C41 C42 1_555 1_555
C44 C45 1_555 1_555
C61 C62 1_555 1_555
C63 C68 1_555 1_555
C67 C68 1_555 1_555

#END
