
#######################################################################
#
#                 Cambridge Crystallographic Data Centre
#                                CCDC 
#
#######################################################################
#
# If this CIF has been generated from an entry in the Cambridge 
# Structural Database, then it will include bibliographic, chemical, 
# crystal, experimental, refinement or atomic coordinate data resulting 
# from the CCDC's data processing and validation procedures.
#
#######################################################################

data_JUMSUH
_chemical_formula_moiety         'C22 H22'
_chemical_name_systematic        2,2',2'',5'-tetramethyl-1,1':4',1''-terphenyl
_symmetry_cell_setting           monoclinic
_symmetry_space_group_name_H-M   'P 21/n'
_symmetry_Int_Tables_number      14
_space_group_name_Hall           '-P 2yn'
loop_
_symmetry_equiv_pos_site_id
_symmetry_equiv_pos_as_xyz
1 x,y,z
2 1/2-x,1/2+y,1/2-z
3 -x,-y,-z
4 1/2+x,1/2-y,1/2+z
_cell_length_a                   10.193(3)
_cell_length_b                   7.345(3)
_cell_length_c                   11.531(6)
_cell_angle_alpha                90
_cell_angle_beta                 110.68(3)
_cell_angle_gamma                90
_cell_volume                     807.674
_exptl_crystal_colour            colorless
_exptl_crystal_description       prisms
_cell_formula_units_Z            2
loop_
_atom_site_label
_atom_site_type_symbol
_atom_site_fract_x
_atom_site_fract_y
_atom_site_fract_z
C1 C 0.44575(17) 0.2843(3) 0.15190(15)
C2 C 0.46103(18) 0.2554(3) 0.27656(16)
C3 C 0.4255(2) 0.3959(3) 0.34079(18)
H1 H 0.4348 0.3772 0.4249
C4 C 0.3771(2) 0.5614(3) 0.28603(19)
H2 H 0.3542 0.6552 0.3323
C5 C 0.3620(2) 0.5904(3) 0.1634(2)
H3 H 0.3290 0.7042 0.1251
C6 C 0.39550(19) 0.4522(3) 0.09720(17)
H4 H 0.3841 0.4718 0.0128
C7 C 0.5095(2) 0.0764(3) 0.33937(19)
H5 H 0.6030 0.0908 0.4026
H6 H 0.5135 -0.0136 0.2779
H7 H 0.4438 0.0349 0.3786
C8 C 0.47742(18) 0.1379(2) 0.07548(15)
C9 C 0.61501(18) 0.0873(3) 0.09007(15)
C10 C 0.63392(18) -0.0502(3) 0.01446(15)
H8 H 0.7269 -0.0861 0.0245
C11 C 0.74086(19) 0.1792(3) 0.18205(18)
H9 H 0.8265 0.1309 0.1733
H10 H 0.7426 0.1560 0.2663
H11 H 0.7354 0.3107 0.1664
C1B C 0.55425(17) -0.2843(3) -0.15190(15)
C2B C 0.53897(18) -0.2554(3) -0.27656(16)
C3B C 0.5745(2) -0.3959(3) -0.34079(18)
H1B H 0.5652 -0.3772 -0.4249
C4B C 0.6229(2) -0.5614(3) -0.28603(19)
H2B H 0.6458 -0.6552 -0.3323
C5B C 0.6380(2) -0.5904(3) -0.1634(2)
H3B H 0.6710 -0.7042 -0.1251
C6B C 0.60450(19) -0.4522(3) -0.09720(17)
H4B H 0.6159 -0.4718 -0.0128
C7B C 0.4905(2) -0.0764(3) -0.33937(19)
H5B H 0.3970 -0.0908 -0.4026
H6B H 0.4865 0.0136 -0.2779
H7B H 0.5562 -0.0349 -0.3786
C8B C 0.52258(18) -0.1379(2) -0.07548(15)
C9B C 0.38499(18) -0.0873(3) -0.09007(15)
C10B C 0.36608(18) 0.0502(3) -0.01446(15)
H8B H 0.2731 0.0861 -0.0245
C11B C 0.25914(19) -0.1792(3) -0.18205(18)
H9B H 0.1735 -0.1309 -0.1733
H10B H 0.2574 -0.1560 -0.2663
H11B H 0.2646 -0.3107 -0.1664
loop_
_geom_bond_atom_site_label_1
_geom_bond_atom_site_label_2
_geom_bond_site_symmetry_1
_geom_bond_site_symmetry_2
C1 C2 1_555 1_555
C2 C3 1_555 1_555
C3 H1 1_555 1_555
C4 C3 1_555 1_555
H2 C4 1_555 1_555
C5 C4 1_555 1_555
H3 C5 1_555 1_555
C6 C1 1_555 1_555
H4 C6 1_555 1_555
C7 C2 1_555 1_555
H5 C7 1_555 1_555
H6 C7 1_555 1_555
H7 C7 1_555 1_555
C8 C1 1_555 1_555
C9 C8 1_555 1_555
C10 C9 1_555 1_555
H8 C10 1_555 1_555
C11 C9 1_555 1_555
H9 C11 1_555 1_555
H10 C11 1_555 1_555
H11 C11 1_555 1_555
C1B C2B 1_555 1_555
C2B C3B 1_555 1_555
C3B H1B 1_555 1_555
C4B C3B 1_555 1_555
H2B C4B 1_555 1_555
C5B C4B 1_555 1_555
H3B C5B 1_555 1_555
C6B C1B 1_555 1_555
H4B C6B 1_555 1_555
C7B C2B 1_555 1_555
H5B C7B 1_555 1_555
H6B C7B 1_555 1_555
H7B C7B 1_555 1_555
C8B C10 1_555 1_555
C9B C8B 1_555 1_555
C10B C8 1_555 1_555
H8B C10B 1_555 1_555
C11B C9B 1_555 1_555
H9B C11B 1_555 1_555
H10B C11B 1_555 1_555
H11B C11B 1_555 1_555
C5 C6 1_555 1_555
C1B C8B 1_555 1_555
C5B C6B 1_555 1_555
C9B C10B 1_555 1_555

#END
