
#######################################################################
#
#                 Cambridge Crystallographic Data Centre
#                                CCDC 
#
#######################################################################
#
# If this CIF has been generated from an entry in the Cambridge 
# Structural Database, then it will include bibliographic, chemical, 
# crystal, experimental, refinement or atomic coordinate data resulting 
# from the CCDC's data processing and validation procedures.
#
#######################################################################

data_JUMTAO
_chemical_formula_moiety         'C22 H20 N2 O1 S1'
_chemical_name_systematic        
N-methyl-3-(methyl(phenyl)carbamothioyl)-N-phenylbenzamide
_symmetry_cell_setting           monoclinic
_symmetry_space_group_name_H-M   'P 21/c'
_symmetry_Int_Tables_number      14
_space_group_name_Hall           '-P 2ybc'
loop_
_symmetry_equiv_pos_site_id
_symmetry_equiv_pos_as_xyz
1 x,y,z
2 -x,1/2+y,1/2-z
3 -x,-y,-z
4 x,1/2-y,1/2+z
_cell_length_a                   10.076(1)
_cell_length_b                   10.085(1)
_cell_length_c                   18.939(1)
_cell_angle_alpha                90
_cell_angle_beta                 90.84(1)
_cell_angle_gamma                90
_cell_volume                     1924.31
_exptl_crystal_colour            yellow
_exptl_crystal_description       plates
_cell_formula_units_Z            4
loop_
_atom_site_label
_atom_site_type_symbol
_atom_site_fract_x
_atom_site_fract_y
_atom_site_fract_z
C1 C 0.2216(3) 0.6194(4) 0.23702(18)
H1 H 0.1954 0.7101 0.2306
H2 H 0.1599 0.5758 0.2674
H3 H 0.2223 0.5754 0.1921
N1 N 0.3553(2) 0.6145(2) 0.26925(11)
C2 C 0.4644(3) 0.6094(3) 0.22974(14)
S1 S 0.46212(9) 0.61339(9) 0.14221(4)
C3 C 0.5938(3) 0.5953(3) 0.26841(13)
C4 C 0.6901(3) 0.6932(3) 0.26320(13)
H4 H 0.6738 0.7671 0.2350
C5 C 0.8098(3) 0.6824(3) 0.29921(13)
C6 C 0.9107(3) 0.7896(3) 0.28917(14)
O1 O 0.9370(2) 0.8301(2) 0.22793(9)
N2 N 0.9743(2) 0.8380(3) 0.34736(12)
C7 C 1.0795(3) 0.9377(4) 0.33788(18)
H5 H 1.1154 0.9295 0.2914
H6 H 1.1487 0.9238 0.3725
H7 H 1.0430 1.0249 0.3436
C8 C 0.8368(3) 0.5686(3) 0.33890(14)
H8 H 0.9172 0.5600 0.3632
C9 C 0.7429(3) 0.4688(3) 0.34180(14)
H9 H 0.7619 0.3915 0.3667
C10 C 0.6217(3) 0.4825(3) 0.30823(13)
H10 H 0.5581 0.4162 0.3122
C11 C 0.3627(3) 0.6330(3) 0.34480(14)
C12 C 0.4081(3) 0.7516(3) 0.37184(15)
H11 H 0.4322 0.8200 0.3417
C13 C 0.4175(3) 0.7681(4) 0.44376(17)
H12 H 0.4483 0.8479 0.4623
C14 C 0.3815(4) 0.6668(4) 0.48855(17)
H13 H 0.3906 0.6774 0.5372
C15 C 0.3325(4) 0.5507(4) 0.46134(17)
H14 H 0.3061 0.4832 0.4915
C16 C 0.3220(3) 0.5334(3) 0.38899(16)
H15 H 0.2877 0.4550 0.3704
C17 C 0.9320(3) 0.8149(3) 0.41908(14)
C18 C 1.0173(4) 0.7571(4) 0.4663(2)
H16 H 1.1012 0.7304 0.4522
C19 C 0.9785(6) 0.7384(5) 0.5355(2)
H17 H 1.0364 0.6984 0.5677
C20 C 0.8565(6) 0.7780(4) 0.55658(18)
H18 H 0.8310 0.7656 0.6031
C21 C 0.7725(4) 0.8355(4) 0.50960(18)
H19 H 0.6887 0.8622 0.5239
C22 C 0.8098(3) 0.8549(3) 0.44053(15)
H20 H 0.7516 0.8953 0.4086
loop_
_geom_bond_atom_site_label_1
_geom_bond_atom_site_label_2
_geom_bond_site_symmetry_1
_geom_bond_site_symmetry_2
C1 H1 1_555 1_555
H2 C1 1_555 1_555
H3 C1 1_555 1_555
N1 C1 1_555 1_555
C2 N1 1_555 1_555
S1 C2 1_555 1_555
C3 C2 1_555 1_555
C4 C3 1_555 1_555
H4 C4 1_555 1_555
C5 C4 1_555 1_555
C6 C5 1_555 1_555
O1 C6 1_555 1_555
N2 C6 1_555 1_555
C7 N2 1_555 1_555
H5 C7 1_555 1_555
H6 C7 1_555 1_555
H7 C7 1_555 1_555
C8 C5 1_555 1_555
H8 C8 1_555 1_555
C9 C8 1_555 1_555
H9 C9 1_555 1_555
C10 C3 1_555 1_555
H10 C10 1_555 1_555
C11 N1 1_555 1_555
C12 C11 1_555 1_555
H11 C12 1_555 1_555
C13 C12 1_555 1_555
H12 C13 1_555 1_555
C14 C13 1_555 1_555
H13 C14 1_555 1_555
C15 C14 1_555 1_555
H14 C15 1_555 1_555
C16 C11 1_555 1_555
H15 C16 1_555 1_555
C17 N2 1_555 1_555
C18 C17 1_555 1_555
H16 C18 1_555 1_555
C19 C18 1_555 1_555
H17 C19 1_555 1_555
C20 C19 1_555 1_555
H18 C20 1_555 1_555
C21 C20 1_555 1_555
H19 C21 1_555 1_555
C22 C17 1_555 1_555
H20 C22 1_555 1_555
C9 C10 1_555 1_555
C15 C16 1_555 1_555
C21 C22 1_555 1_555

#END
