
#######################################################################
#
#                 Cambridge Crystallographic Data Centre
#                                CCDC 
#
#######################################################################
#
# If this CIF has been generated from an entry in the Cambridge 
# Structural Database, then it will include bibliographic, chemical, 
# crystal, experimental, refinement or atomic coordinate data resulting 
# from the CCDC's data processing and validation procedures.
#
#######################################################################

data_JUMVOC
_chemical_formula_moiety         'C12 H6 S2'
_chemical_name_systematic        Dibenzo(bc,fg)(1,4)dithiopentalene
_symmetry_cell_setting           monoclinic
_symmetry_space_group_name_H-M   'P 21/c'
_symmetry_Int_Tables_number      14
_space_group_name_Hall           '-P 2ybc'
loop_
_symmetry_equiv_pos_site_id
_symmetry_equiv_pos_as_xyz
1 x,y,z
2 -x,1/2+y,1/2-z
3 -x,-y,-z
4 x,1/2-y,1/2+z
_cell_length_a                   7.641(1)
_cell_length_b                   4.000(1)
_cell_length_c                   14.909(2)
_cell_angle_alpha                90
_cell_angle_beta                 95.23(6)
_cell_angle_gamma                90
_cell_volume                     453.782
_exptl_crystal_colour            yellow
_chemical_melting_point          165deg.C
_cell_formula_units_Z            2
loop_
_atom_site_label
_atom_site_type_symbol
_atom_site_fract_x
_atom_site_fract_y
_atom_site_fract_z
S1 S 0.20266(8) 0.2211(2) 0.40290(4)
C1 C -0.0227(3) 0.3486(6) 0.3865(2)
C2 C -0.1559(3) 0.3354(7) 0.3159(2)
C3 C -0.0664(3) 0.4945(6) 0.4651(2)
C4 C 0.2250(3) 0.3718(6) 0.5164(2)
C5 C -0.3188(3) 0.4705(7) 0.3326(2)
C6 C 0.3594(3) 0.3826(7) 0.5862(2)
H1 H -0.138(4) 0.235(9) 0.257(2)
H2 H -0.411(4) 0.467(9) 0.284(2)
H3 H 0.475(4) 0.293(9) 0.581(2)
C3B C 0.0664(3) 0.5055(6) 0.5349(2)
C4B C -0.2250(3) 0.6282(6) 0.4836(2)
C6B C -0.3594(3) 0.6174(7) 0.4138(2)
C5B C 0.3188(3) 0.5295(7) 0.6674(2)
C1B C 0.0227(3) 0.6514(6) 0.6135(2)
S1B S -0.20266(8) 0.7789(2) 0.59710(4)
H3B H -0.475(4) 0.707(9) 0.419(2)
C2B C 0.1559(3) 0.6646(7) 0.6841(2)
H2B H 0.411(4) 0.533(9) 0.716(2)
H1B H 0.138(4) 0.765(9) 0.743(2)
loop_
_geom_bond_atom_site_label_1
_geom_bond_atom_site_label_2
_geom_bond_site_symmetry_1
_geom_bond_site_symmetry_2
S1 C1 1_555 1_555
C1 C2 1_555 1_555
C2 C5 1_555 1_555
C3 C1 1_555 1_555
C4 S1 1_555 1_555
C5 H2 1_555 1_555
C6 C4 1_555 1_555
H1 C2 1_555 1_555
H3 C6 1_555 1_555
C3B C3 1_555 1_555
C4B C3 1_555 1_555
C6B C5 1_555 1_555
C5B C6 1_555 1_555
C1B C3B 1_555 1_555
S1B C4B 1_555 1_555
H3B C6B 1_555 1_555
C2B C5B 1_555 1_555
H2B C5B 1_555 1_555
H1B C2B 1_555 1_555
C4 C3B 1_555 1_555
C4B C6B 1_555 1_555
C1B S1B 1_555 1_555
C1B C2B 1_555 1_555

#END
