
#######################################################################
#
#                 Cambridge Crystallographic Data Centre
#                                CCDC 
#
#######################################################################
#
# If this CIF has been generated from an entry in the Cambridge 
# Structural Database, then it will include bibliographic, chemical, 
# crystal, experimental, refinement or atomic coordinate data resulting 
# from the CCDC's data processing and validation procedures.
#
#######################################################################

data_JUNBAX
_chemical_formula_moiety         'C10 H5 N3 S4'
_chemical_name_systematic        
2-(5H-[1,3]Dithiolo[4,5-c]pyrrol-2-ylidene)[1,3]dithiolo[4,5-b]pyrazine
_symmetry_cell_setting           monoclinic
_symmetry_space_group_name_H-M   'P 21/n'
_symmetry_Int_Tables_number      14
_space_group_name_Hall           '-P 2yn'
loop_
_symmetry_equiv_pos_site_id
_symmetry_equiv_pos_as_xyz
1 x,y,z
2 1/2-x,1/2+y,1/2-z
3 -x,-y,-z
4 1/2+x,1/2-y,1/2+z
_cell_length_a                   8.1660(4)
_cell_length_b                   9.3650(5)
_cell_length_c                   15.1600(9)
_cell_angle_alpha                90
_cell_angle_beta                 102.045(2)
_cell_angle_gamma                90
_cell_volume                     1133.83
_exptl_crystal_colour            orange
_exptl_crystal_description       Prism
_cell_formula_units_Z            4
_exptl_crystal_recrystallization_method dichloromethane
loop_
_atom_site_label
_atom_site_type_symbol
_atom_site_fract_x
_atom_site_fract_y
_atom_site_fract_z
S1 S 0.31977(13) -0.18526(12) 0.38133(7)
S2 S 0.47250(13) 0.01852(12) 0.27090(7)
S3 S 0.37887(12) 0.28034(11) 0.38634(7)
S4 S 0.21505(13) 0.07424(12) 0.49404(7)
N1 N 0.4552(4) -0.3988(4) 0.3024(2)
N2 N 0.5934(4) -0.2061(4) 0.1949(2)
N3 N 0.1770(4) 0.4721(4) 0.5700(2)
H1 H 0.1490 0.5431 0.6019
C1 C 0.3702(5) -0.0067(4) 0.3606(3)
C2 C 0.5082(4) -0.1633(4) 0.2563(3)
C3 C 0.6079(5) -0.3486(5) 0.1889(3)
H2 H 0.6662 -0.3862 0.1460
C4 C 0.5421(5) -0.4425(5) 0.2422(3)
H3 H 0.5593 -0.5420 0.2358
C5 C 0.4386(4) -0.2596(5) 0.3091(3)
C6 C 0.3292(4) 0.1022(4) 0.4080(3)
C7 C 0.2849(5) 0.3530(5) 0.4704(3)
C8 C 0.2677(5) 0.4868(5) 0.5015(3)
H4 H 0.3086 0.5730 0.4811
C9 C 0.1380(5) 0.3311(5) 0.5803(3)
H5 H 0.0764 0.2935 0.6216
C10 C 0.2051(4) 0.2558(4) 0.5196(3)
loop_
_geom_bond_atom_site_label_1
_geom_bond_atom_site_label_2
_geom_bond_site_symmetry_1
_geom_bond_site_symmetry_2
S1 C1 1_555 1_555
S2 C1 1_555 1_555
S3 C6 1_555 1_555
S4 C6 1_555 1_555
N1 C4 1_555 1_555
N2 C2 1_555 1_555
N3 H1 1_555 1_555
C1 C6 1_555 1_555
C2 S2 1_555 1_555
C3 N2 1_555 1_555
H2 C3 1_555 1_555
C4 C3 1_555 1_555
H3 C4 1_555 1_555
C5 S1 1_555 1_555
C7 S3 1_555 1_555
C8 N3 1_555 1_555
H4 C8 1_555 1_555
C9 N3 1_555 1_555
H5 C9 1_555 1_555
C10 S4 1_555 1_555
N1 C5 1_555 1_555
C2 C5 1_555 1_555
C7 C8 1_555 1_555
C7 C10 1_555 1_555
C9 C10 1_555 1_555

#END
