
#######################################################################
#
#                 Cambridge Crystallographic Data Centre
#                                CCDC 
#
#######################################################################
#
# If this CIF has been generated from an entry in the Cambridge 
# Structural Database, then it will include bibliographic, chemical, 
# crystal, experimental, refinement or atomic coordinate data resulting 
# from the CCDC's data processing and validation procedures.
#
#######################################################################

data_JUNLUZ
_chemical_formula_moiety         'C20 H19 N1 O8,0.5(H2 O1)'
_chemical_name_systematic        '4-Dedimethylaminotetracycline hemihydrate'
_symmetry_cell_setting           monoclinic
_symmetry_space_group_name_H-M   'P 21'
_symmetry_Int_Tables_number      4
_space_group_name_Hall           'P 2yb'
loop_
_symmetry_equiv_pos_site_id
_symmetry_equiv_pos_as_xyz
1 x,y,z
2 -x,1/2+y,-z
_cell_length_a                   7.174(5)
_cell_length_b                   12.029(9)
_cell_length_c                   21.12(2)
_cell_angle_alpha                90
_cell_angle_beta                 93.16(6)
_cell_angle_gamma                90
_cell_volume                     1819.8
_exptl_crystal_colour            'pale yellow'
_cell_formula_units_Z            4
loop_
_atom_site_label
_atom_site_type_symbol
_atom_site_fract_x
_atom_site_fract_y
_atom_site_fract_z
C1 C 0.5996(8) 0.2500 0.7809(3)
O1 O 0.7621(5) 0.2802(4) 0.7820(2)
C2 C 0.4510(8) 0.3008(5) 0.7431(3)
C3 C 0.4894(9) 0.3876(6) 0.6991(3)
O2 O 0.3549(6) 0.4273(4) 0.6641(2)
N1 N 0.6602(7) 0.4260(5) 0.6912(2)
C4 C 0.2663(8) 0.2750(5) 0.7530(3)
O3 O 0.1295(5) 0.3225(4) 0.7201(2)
C5 C 0.2119(8) 0.1878(5) 0.7980(3)
C6 C 0.3589(7) 0.1691(5) 0.8528(3)
C7 C 0.3747(7) 0.2666(5) 0.8989(3)
C8 C 0.5156(7) 0.2413(5) 0.9547(3)
C9 C 0.5605(8) 0.3470(5) 0.9941(3)
O4 O 0.6345(5) 0.4341(4) 0.9548(2)
C10 C 0.3860(9) 0.3947(6) 1.0199(3)
C11 C 0.7094(8) 0.3186(5) 1.0466(3)
C12 C 0.7117(8) 0.3745(5) 1.1034(3)
C13 C 0.8578(10) 0.3581(6) 1.1465(3)
C14 C 1.0009(10) 0.2871(6) 1.1383(3)
C15 C 0.9977(8) 0.2247(5) 1.0826(3)
O5 O 1.1392(5) 0.1534(4) 1.0753(2)
C16 C 0.8523(7) 0.2425(5) 1.0355(3)
C17 C 0.8482(8) 0.1777(5) 0.9770(3)
O6 O 0.9870(5) 0.1171(4) 0.9647(2)
C18 C 0.6881(7) 0.1881(5) 0.9338(3)
C19 C 0.6985(7) 0.1368(5) 0.8769(3)
O7 O 0.8392(5) 0.0753(5) 0.8594(2)
C20 C 0.5464(7) 0.1514(5) 0.8239(3)
O8 O 0.5372(5) 0.0533(4) 0.7847(2)
H1 H 0.6872 0.4582 0.6493
H2 H 0.6097 0.4236 1.1136
H3 H 0.8607 0.4009 1.1854
H4 H 1.1013 0.2814 1.1696
H5 H 0.7913 0.4233 0.7316
H7 H 0.1875 0.1146 0.7600
H8 H 0.0730 0.2151 0.8151
H9 H 0.2780 0.0998 0.8768
H10 H 0.2496 0.2855 0.9149
H11 H 0.4584 0.3490 0.8893
H12 H 0.4441 0.1825 0.9819
H13 H 0.7609 0.3931 0.9256
H14 H 0.2857 0.3912 0.9734
H15 H 0.3573 0.4492 1.0347
H16 H 0.2866 0.3395 1.0459
H17 H 1.1322 0.1413 1.0208
H18 H 0.9555 0.0640 0.8919
H19 H 0.6752 0.0168 0.7810
C21 C 0.4483(8) 0.7424(5) 0.7392(3)
O9 O 0.5994(6) 0.7585(4) 0.7664(2)
C22 C 0.3135(7) 0.6631(5) 0.7581(3)
C23 C 0.3488(8) 0.5912(5) 0.8138(3)
N2 N 0.5127(7) 0.5954(4) 0.8468(2)
O10 O 0.2268(5) 0.5214(4) 0.8282(2)
C24 C 0.1426(8) 0.6527(5) 0.7260(3)
O11 O 0.0172(5) 0.5828(4) 0.7421(2)
C25 C 0.0846(7) 0.7241(5) 0.6712(3)
C26 C 0.2492(7) 0.7677(5) 0.6342(3)
C27 C 0.3401(7) 0.6711(5) 0.5990(3)
C28 C 0.4895(7) 0.7183(5) 0.5568(3)
C29 C 0.6078(8) 0.6265(5) 0.5288(3)
O12 O 0.7158(5) 0.5748(3) 0.5799(2)
C30 C 0.4865(10) 0.5381(5) 0.4949(3)
C31 C 0.7448(7) 0.6796(5) 0.4861(3)
C32 C 0.7995(9) 0.6290(5) 0.4316(3)
C33 C 0.9418(9) 0.6741(6) 0.3972(3)
C34 C 1.0286(9) 0.7677(6) 0.4168(3)
C35 C 0.9753(9) 0.8238(6) 0.4691(3)
O13 O 1.0619(6) 0.9210(4) 0.4865(2)
C36 C 0.8319(8) 0.7789(5) 0.5047(3)
C37 C 0.7742(7) 0.8369(5) 0.5620(3)
O14 O 0.8730(5) 0.9173(3) 0.5842(2)
C38 C 0.6098(7) 0.8021(5) 0.5916(3)
C39 C 0.5658(7) 0.8494(5) 0.6463(3)
O15 O 0.6683(5) 0.9300(3) 0.6747(2)
C40 C 0.3957(7) 0.8188(5) 0.6810(3)
O16 O 0.3130(5) 0.9177(3) 0.7060(2)
H20 H 0.7372 0.5619 0.4174
H21 H 0.9784 0.6385 0.3584
H22 H 1.1315 0.7970 0.3938
H23 H 0.5613 0.5356 0.8794
H24 H 0.6027 0.6706 0.8567
H26 H -0.0007 0.7782 0.6889
H27 H -0.0099 0.6731 0.6363
H28 H 0.1906 0.7897 0.5896
H29 H 0.3911 0.6203 0.6333
H30 H 0.2291 0.6261 0.5831
H31 H 0.4142 0.7623 0.5141
H32 H 0.8236 0.4984 0.5872
H33 H 0.3968 0.5001 0.5251
H34 H 0.5978 0.4695 0.4816
H35 H 0.3910 0.5775 0.4747
H36 H 0.9481 0.9501 0.5185
H37 H 0.7601 0.9661 0.6446
H38 H 0.2451 0.9792 0.6865
O17 O 0.9489(6) 0.3934(4) 0.8910(2)
H39 H 0.8827 0.3961 0.8555
H40 H 1.0498 0.4747 0.8710
H6? H 0.2263 0.3736 0.6827
H25? H 0.0805 0.5400 0.7904
loop_
_geom_bond_atom_site_label_1
_geom_bond_atom_site_label_2
_geom_bond_site_symmetry_1
_geom_bond_site_symmetry_2
C1 O1 1_555 1_555
C2 C1 1_555 1_555
C3 C2 1_555 1_555
O2 C3 1_555 1_555
N1 C3 1_555 1_555
C4 C2 1_555 1_555
O3 C4 1_555 1_555
C5 C4 1_555 1_555
C6 C5 1_555 1_555
C7 C6 1_555 1_555
C8 C7 1_555 1_555
C9 C8 1_555 1_555
O4 C9 1_555 1_555
C10 C9 1_555 1_555
C11 C9 1_555 1_555
C12 C11 1_555 1_555
C13 C12 1_555 1_555
C14 C13 1_555 1_555
C15 C14 1_555 1_555
O5 C15 1_555 1_555
C16 C11 1_555 1_555
C17 C16 1_555 1_555
O6 C17 1_555 1_555
C18 C8 1_555 1_555
C19 C18 1_555 1_555
O7 C19 1_555 1_555
C20 C1 1_555 1_555
O8 C20 1_555 1_555
C21 O9 1_555 1_555
C22 C21 1_555 1_555
C23 C22 1_555 1_555
N2 C23 1_555 1_555
O10 C23 1_555 1_555
C24 C22 1_555 1_555
O11 C24 1_555 1_555
C25 C24 1_555 1_555
C26 C25 1_555 1_555
C27 C26 1_555 1_555
C28 C27 1_555 1_555
C29 C28 1_555 1_555
O12 C29 1_555 1_555
C30 C29 1_555 1_555
C31 C29 1_555 1_555
C32 C31 1_555 1_555
C33 C32 1_555 1_555
C34 C33 1_555 1_555
C35 C34 1_555 1_555
O13 C35 1_555 1_555
C36 C31 1_555 1_555
C37 C36 1_555 1_555
O14 C37 1_555 1_555
C38 C28 1_555 1_555
C39 C38 1_555 1_555
O15 C39 1_555 1_555
C40 C21 1_555 1_555
O16 C40 1_555 1_555
O17 H39 1_555 1_555
H1 N1 1_555 1_555
H2 C12 1_555 1_555
H3 C13 1_555 1_555
H4 C14 1_555 1_555
H5 N1 1_555 1_555
H7 C5 1_555 1_555
H8 C5 1_555 1_555
H9 C6 1_555 1_555
H10 C7 1_555 1_555
H11 C7 1_555 1_555
H12 C8 1_555 1_555
H13 O4 1_555 1_555
H14 C10 1_555 1_555
H15 C10 1_555 1_555
H16 C10 1_555 1_555
H17 O5 1_555 1_555
H18 O7 1_555 1_555
H19 O8 1_555 1_555
H20 C32 1_555 1_555
H21 C33 1_555 1_555
H22 C34 1_555 1_555
H23 N2 1_555 1_555
H24 N2 1_555 1_555
H26 C25 1_555 1_555
H27 C25 1_555 1_555
H28 C26 1_555 1_555
H29 C27 1_555 1_555
H30 C27 1_555 1_555
H31 C28 1_555 1_555
H32 O12 1_555 1_555
H33 C30 1_555 1_555
H34 C30 1_555 1_555
H35 C30 1_555 1_555
H36 O13 1_555 1_555
H37 O15 1_555 1_555
H38 O16 1_555 1_555
H40 O17 1_555 1_555
C6 C20 1_555 1_555
C15 C16 1_555 1_555
C17 C18 1_555 1_555
C19 C20 1_555 1_555
C26 C40 1_555 1_555
C35 C36 1_555 1_555
C37 C38 1_555 1_555
C39 C40 1_555 1_555

#END
