
#######################################################################
#
#                 Cambridge Crystallographic Data Centre
#                                CCDC 
#
#######################################################################
#
# If this CIF has been generated from an entry in the Cambridge 
# Structural Database, then it will include bibliographic, chemical, 
# crystal, experimental, refinement or atomic coordinate data resulting 
# from the CCDC's data processing and validation procedures.
#
#######################################################################

data_JUPCOO
_chemical_formula_moiety         'C10 H11 N4 O2 S1 1+,0.5(C2 H6 O1),Br1 1-'
_chemical_name_systematic        
'4-(Pyrimidin-2(1H)-ylidenesulfamoyl)anilinium bromide ethanol solvate'
_symmetry_cell_setting           triclinic
_symmetry_space_group_name_H-M   'P -1'
_symmetry_Int_Tables_number      2
_space_group_name_Hall           '-P 1'
loop_
_symmetry_equiv_pos_site_id
_symmetry_equiv_pos_as_xyz
1 x,y,z
2 -x,-y,-z
_cell_length_a                   5.709(3)
_cell_length_b                   11.532(6)
_cell_length_c                   12.116(6)
_cell_angle_alpha                62.675(8)
_cell_angle_beta                 79.693(9)
_cell_angle_gamma                77.507(9)
_cell_volume                     688.964
_exptl_crystal_colour            colorless
_exptl_crystal_description       plate
_cell_formula_units_Z            2
_exptl_crystal_recrystallization_method ethanol
loop_
_atom_site_label
_atom_site_type_symbol
_atom_site_fract_x
_atom_site_fract_y
_atom_site_fract_z
S1 S 0.4022(2) 0.22411(12) 0.22589(12)
O1 O 0.6485(6) 0.1857(3) 0.1867(3)
O2 O 0.2204(6) 0.2069(3) 0.1691(3)
N1 N 0.1847(7) 0.0547(4) 0.5662(4)
H1 H 0.3172 -0.0056 0.5901
N2 N -0.0199(7) 0.2376(4) 0.4070(4)
N3 N 0.3867(7) 0.1427(4) 0.3749(4)
N4 N 0.3155(7) 0.8054(4) 0.0530(4)
H2 H 0.3248 0.8333 -0.0318
H3 H 0.4467 0.8229 0.0736
H4 H 0.1743 0.8412 0.0794
C1 C 0.1797(9) 0.1487(5) 0.4463(5)
C2 C -0.0040(9) 0.0468(5) 0.6519(5)
H5 H 0.0049 -0.0193 0.7355
C3 C -0.2111(9) 0.1366(5) 0.6159(5)
H6 H -0.3493 0.1352 0.6731
C4 C -0.2073(9) 0.2289(5) 0.4923(5)
H7 H -0.3493 0.2909 0.4660
C5 C 0.3710(9) 0.3951(5) 0.1838(5)
C6 C 0.1774(9) 0.4779(5) 0.1214(5)
H8 H 0.0557 0.4425 0.1077
C7 C 0.1597(9) 0.6135(5) 0.0783(5)
H9 H 0.0286 0.6719 0.0332
C8 C 0.3354(9) 0.6613(5) 0.1021(5)
C9 C 0.5263(9) 0.5801(5) 0.1670(5)
H10 H 0.6425 0.6157 0.1846
C10 C 0.5476(9) 0.4447(5) 0.2069(5)
H11 H 0.6818 0.3869 0.2494
Br1 Br -0.24558(9) 0.87643(5) 0.14855(5)
O3? O -0.2360(15) 0.6560(8) 0.4401(9)
H12? H -0.2560 0.7147 0.3671
C11? C -0.040(2) 0.5526(11) 0.4364(14)
H13? H -0.0824 0.5101 0.3868
H14? H 0.1104 0.5879 0.3958
C12? C -0.077(5) 0.481(3) 0.553(3)
H15? H -0.2252 0.4437 0.5684
H16? H -0.0839 0.5209 0.6128
H17? H 0.0669 0.4121 0.5630
loop_
_geom_bond_atom_site_label_1
_geom_bond_atom_site_label_2
_geom_bond_site_symmetry_1
_geom_bond_site_symmetry_2
S1 O1 1_555 1_555
O2 S1 1_555 1_555
N1 H1 1_555 1_555
N2 C1 1_555 1_555
N3 S1 1_555 1_555
N4 H2 1_555 1_555
H3 N4 1_555 1_555
H4 N4 1_555 1_555
C1 N1 1_555 1_555
C2 N1 1_555 1_555
H5 C2 1_555 1_555
C3 C2 1_555 1_555
H6 C3 1_555 1_555
C4 N2 1_555 1_555
H7 C4 1_555 1_555
C5 S1 1_555 1_555
C6 C5 1_555 1_555
H8 C6 1_555 1_555
C7 C6 1_555 1_555
H9 C7 1_555 1_555
C8 N4 1_555 1_555
C9 C8 1_555 1_555
H10 C9 1_555 1_555
C10 C5 1_555 1_555
H11 C10 1_555 1_555
N3 C1 1_555 1_555
C3 C4 1_555 1_555
C7 C8 1_555 1_555
C9 C10 1_555 1_555

#END
