
#######################################################################
#
#                 Cambridge Crystallographic Data Centre
#                                CCDC 
#
#######################################################################
#
# If this CIF has been generated from an entry in the Cambridge 
# Structural Database, then it will include bibliographic, chemical, 
# crystal, experimental, refinement or atomic coordinate data resulting 
# from the CCDC's data processing and validation procedures.
#
#######################################################################

data_JUPCEE
_chemical_formula_moiety         'C10 H11 N4 O2 S1 1+,0.5(I2),Br1 1-'
_chemical_name_systematic        
'4-(Pyrimidin-2(1H)-ylidenesulfamoyl)anilinium bromide hemikis(di-iodine)'
_symmetry_cell_setting           triclinic
_symmetry_space_group_name_H-M   'P -1'
_symmetry_Int_Tables_number      2
_space_group_name_Hall           '-P 1'
loop_
_symmetry_equiv_pos_site_id
_symmetry_equiv_pos_as_xyz
1 x,y,z
2 -x,-y,-z
_cell_length_a                   5.7185(3)
_cell_length_b                   11.6440(6)
_cell_length_c                   12.3493(6)
_cell_angle_alpha                116.6971(6)
_cell_angle_beta                 91.7117(6)
_cell_angle_gamma                104.1699(7)
_cell_volume                     702.935
_exptl_crystal_colour            brown
_exptl_crystal_description       needle
_cell_formula_units_Z            2
_exptl_crystal_recrystallization_method methanol
loop_
_atom_site_label
_atom_site_type_symbol
_atom_site_fract_x
_atom_site_fract_y
_atom_site_fract_z
I1 I 0.58670(2) 0.49731(2) 0.10306(2)
I1A I 0.41330(2) 0.50269(2) -0.10306(2)
Br1 Br 0.73467(2) 0.48085(2) 0.35361(2)
S1 S 0.65234(6) 1.05216(3) 0.27278(3)
O1 O 0.4847(2) 1.13359(10) 0.31024(10)
O2 O 0.90558(19) 1.12122(11) 0.32689(10)
N1 N 0.6984(2) 0.87734(11) -0.06549(10)
H1 H 0.590(4) 0.920(2) -0.091(2)
N2 N 0.8863(2) 0.85753(12) 0.09559(11)
N3 N 0.6019(2) 0.98487(11) 0.12561(10)
N4 N 0.3318(2) 0.64853(11) 0.45163(12)
H2 H 0.369(4) 0.694(2) 0.530(2)
H3 H 0.170(4) 0.600(2) 0.429(2)
H4 H 0.425(4) 0.591(2) 0.428(2)
C1 C 0.7324(2) 0.90688(12) 0.05588(11)
C2 C 0.8163(2) 0.80052(13) -0.14801(13)
H5 H 0.782(4) 0.781(2) -0.223(2)
C3 C 0.9744(3) 0.74894(15) -0.11061(14)
H6 H 1.066(4) 0.697(2) -0.168(2)
C4 C 1.0006(3) 0.78071(14) 0.01340(14)
H7 H 1.110(4) 0.748(2) 0.043(2)
C5 C 0.5561(2) 0.92606(12) 0.31807(11)
C6 C 0.3087(2) 0.85722(13) 0.29572(13)
H8 H 0.194(4) 0.880(2) 0.261(2)
C7 C 0.2343(2) 0.76295(13) 0.33732(13)
H9 H 0.068(4) 0.711(2) 0.321(2)
C8 C 0.4073(2) 0.74363(12) 0.40344(12)
C9 C 0.6537(2) 0.81352(13) 0.42808(13)
H10 H 0.762(4) 0.799(2) 0.477(2)
C10 C 0.7282(2) 0.90439(13) 0.38321(12)
H11 H 0.881(4) 0.954(2) 0.395(2)
loop_
_geom_bond_atom_site_label_1
_geom_bond_atom_site_label_2
_geom_bond_site_symmetry_1
_geom_bond_site_symmetry_2
I1 I1A 1_555 1_555
S1 O1 1_555 1_555
O2 S1 1_555 1_555
N1 H1 1_555 1_555
N2 C1 1_555 1_555
N3 S1 1_555 1_555
N4 H2 1_555 1_555
H3 N4 1_555 1_555
H4 N4 1_555 1_555
C1 N1 1_555 1_555
C2 N1 1_555 1_555
H5 C2 1_555 1_555
C3 C2 1_555 1_555
H6 C3 1_555 1_555
C4 N2 1_555 1_555
H7 C4 1_555 1_555
C5 S1 1_555 1_555
C6 C5 1_555 1_555
H8 C6 1_555 1_555
C7 C6 1_555 1_555
H9 C7 1_555 1_555
C8 N4 1_555 1_555
C9 C8 1_555 1_555
H10 C9 1_555 1_555
C10 C5 1_555 1_555
H11 C10 1_555 1_555
N3 C1 1_555 1_555
C3 C4 1_555 1_555
C7 C8 1_555 1_555
C9 C10 1_555 1_555

#END
