
#######################################################################
#
#                 Cambridge Crystallographic Data Centre
#                                CCDC 
#
#######################################################################
#
# If this CIF has been generated from an entry in the Cambridge 
# Structural Database, then it will include bibliographic, chemical, 
# crystal, experimental, refinement or atomic coordinate data resulting 
# from the CCDC's data processing and validation procedures.
#
#######################################################################

data_JUPCII
_chemical_formula_moiety         'C10 H11 N4 O2 S1 1+,0.5(C2 H6 O2),Br1 1-'
_chemical_name_systematic        
'4-(Pyrimidin-2(1H)-ylidenesulfamoyl)anilinium bromide ethylene glycol solvate'
_symmetry_cell_setting           triclinic
_symmetry_space_group_name_H-M   'P -1'
_symmetry_Int_Tables_number      2
_space_group_name_Hall           '-P 1'
loop_
_symmetry_equiv_pos_site_id
_symmetry_equiv_pos_as_xyz
1 x,y,z
2 -x,-y,-z
_cell_length_a                   5.7078(5)
_cell_length_b                   11.5383(10)
_cell_length_c                   12.1980(10)
_cell_angle_alpha                62.8640(10)
_cell_angle_beta                 79.4180(12)
_cell_angle_gamma                76.9800(12)
_cell_volume                     693.496
_exptl_crystal_colour            colorless
_exptl_crystal_description       block
_cell_formula_units_Z            2
_exptl_crystal_recrystallization_method 'methanol/ethylene glycol'
loop_
_atom_site_label
_atom_site_type_symbol
_atom_site_fract_x
_atom_site_fract_y
_atom_site_fract_z
S1 S 0.10198(10) 0.77756(5) 0.27242(5)
O1 O -0.1461(3) 0.81773(17) 0.31178(16)
O2 O 0.2853(3) 0.79408(17) 0.32874(16)
N1 N 0.3167(4) 0.94391(19) -0.06698(18)
N2 N 0.1157(4) 0.85815(19) 0.12492(17)
N3 N 0.1814(4) 0.1965(2) 0.4493(2)
H1 H 0.165(6) 0.166(4) 0.527(4)
H2 H 0.312(7) 0.162(4) 0.427(4)
H3 H 0.059(8) 0.177(4) 0.428(4)
N4 N 0.5236(4) 0.7622(2) 0.09207(19)
C1 C 0.7135(4) 0.8609(2) -0.1167(2)
H4 H 0.8520 0.8620 -0.1737
C2 C 0.7113(5) 0.7686(2) 0.0070(2)
H5 H 0.8534 0.7058 0.0326
C3 C 0.3227(4) 0.8508(2) 0.0536(2)
C4 C 0.5060(4) 0.9500(2) -0.1519(2)
H6 H 0.4962 1.0149 -0.2351
C5 C 0.1328(4) 0.6067(2) 0.3148(2)
C6 C -0.0457(4) 0.5586(2) 0.2912(2)
H7 H -0.1783 0.6173 0.2477
C7 C -0.0267(4) 0.4225(2) 0.3325(2)
H8 H -0.1436 0.3875 0.3154
C8 C 0.1650(4) 0.3397(2) 0.3989(2)
C9 C 0.3424(4) 0.3870(2) 0.4236(2)
H9 H 0.4716 0.3279 0.4699
C10 C 0.3272(4) 0.5225(2) 0.3793(2)
H10 H 0.4489 0.5574 0.3931
H11 H 0.189(6) 1.000(3) -0.083(3)
O3 O 0.7166(5) 0.3483(2) 0.0648(2)
H12 H 0.7121 0.2841 0.1443
C11 C 0.5187(8) 0.4440(4) 0.0692(3)
H13 H 0.5721 0.4850 0.1144
H14 H 0.3717 0.4066 0.0906
O3A O 0.2834(5) 0.6517(2) -0.0648(2)
H12A H 0.2879 0.7159 -0.1443
C11A C 0.4813(8) 0.5560(4) -0.0692(3)
H13A H 0.4279 0.5150 -0.1144
H14A H 0.6283 0.5934 -0.0906
Br1 Br 0.74542(4) 0.12280(2) 0.35540(2)
loop_
_geom_bond_atom_site_label_1
_geom_bond_atom_site_label_2
_geom_bond_site_symmetry_1
_geom_bond_site_symmetry_2
S1 O1 1_555 1_555
O2 S1 1_555 1_555
N1 C3 1_555 1_555
N2 S1 1_555 1_555
N3 H1 1_555 1_555
H2 N3 1_555 1_555
H3 N3 1_555 1_555
N4 C2 1_555 1_555
C1 H4 1_555 1_555
C2 C1 1_555 1_555
H5 C2 1_555 1_555
C3 N2 1_555 1_555
C4 N1 1_555 1_555
H6 C4 1_555 1_555
C5 S1 1_555 1_555
C6 C5 1_555 1_555
H7 C6 1_555 1_555
C7 C6 1_555 1_555
H8 C7 1_555 1_555
C8 N3 1_555 1_555
C9 C8 1_555 1_555
H9 C9 1_555 1_555
C10 C5 1_555 1_555
H10 C10 1_555 1_555
H11 N1 1_555 1_555
O3 H12 1_555 1_555
C11 O3 1_555 1_555
H13 C11 1_555 1_555
H14 C11 1_555 1_555
O3A H12A 1_555 1_555
C11A C11 1_555 1_555
H13A C11A 1_555 1_555
H14A C11A 1_555 1_555
N4 C3 1_555 1_555
C1 C4 1_555 1_555
C7 C8 1_555 1_555
C9 C10 1_555 1_555
O3A C11A 1_555 1_555

#END
