
#######################################################################
#
#                 Cambridge Crystallographic Data Centre
#                                CCDC 
#
#######################################################################
#
# If this CIF has been generated from an entry in the Cambridge 
# Structural Database, then it will include bibliographic, chemical, 
# crystal, experimental, refinement or atomic coordinate data resulting 
# from the CCDC's data processing and validation procedures.
#
#######################################################################

data_JUPQUI
_chemical_formula_moiety         'C24 H35 N1 O4,C1 H4 O1'
_chemical_name_systematic        
'16-hydroxy-8-isobutyl-1,5,6-trimethyl-19-oxa-9-azapentacyclo[13.3.1.0^2,14^.0^3,11^.0^7,11^]nonadec-4-ene-10,12-dione methanol solvate'
_symmetry_cell_setting           orthorhombic
_symmetry_space_group_name_H-M   'P 21 21 21'
_symmetry_Int_Tables_number      19
_space_group_name_Hall           'P 2ac 2ab'
loop_
_symmetry_equiv_pos_site_id
_symmetry_equiv_pos_as_xyz
1 x,y,z
2 1/2-x,-y,1/2+z
3 1/2+x,1/2-y,-z
4 -x,1/2+y,1/2-z
_cell_length_a                   7.98525(13)
_cell_length_b                   11.08823(12)
_cell_length_c                   27.4530(3)
_cell_angle_alpha                90
_cell_angle_beta                 90
_cell_angle_gamma                90
_cell_volume                     2430.75
_exptl_crystal_colour            colorless
_exptl_crystal_description       block
_cell_formula_units_Z            4
loop_
_atom_site_label
_atom_site_type_symbol
_atom_site_fract_x
_atom_site_fract_y
_atom_site_fract_z
O1 O 0.9587(2) 0.27828(11) 0.12467(5)
O2 O 1.1257(2) -0.00966(11) 0.26340(5)
O3 O 1.2277(2) 0.31142(14) 0.30109(6)
N1 N 1.0408(2) 0.03769(14) 0.34019(6)
H1 H 1.0783 -0.0269 0.3537
C1 C 1.1455(2) 0.26381(15) 0.26944(7)
O4 O 1.1469(3) 0.18874(17) 0.04279(5)
H2 H 1.2263 0.2341 0.0381
C2 C 0.8697(2) 0.18305(15) 0.23753(6)
H3 H 0.8309 0.2658 0.2321
C3 C 1.0618(2) 0.05921(15) 0.29263(7)
C4 C 0.9518(3) 0.12861(18) 0.36790(7)
H4 H 0.8491 0.0935 0.3814
C5 C 1.1298(3) 0.18244(16) 0.18145(7)
H5 H 1.2073 0.1140 0.1832
C6 C 1.1853(3) 0.28159(18) 0.21676(7)
H6 H 1.3056 0.2910 0.2137
H7 H 1.1345 0.3568 0.2064
C7 C 0.9052(2) 0.22520(16) 0.32914(6)
H8 H 0.9533 0.3025 0.3394
C8 C 1.1251(3) 0.23297(18) 0.12932(7)
H9 H 1.2057 0.2992 0.1261
C9 C 0.6445(3) 0.13460(18) 0.29488(7)
C10 C 0.7206(2) 0.10972(17) 0.25311(7)
H10 H 0.6819 0.0472 0.2335
C11 C 0.7147(3) 0.24245(18) 0.32243(7)
H11 H 0.7009 0.3123 0.3009
C12 C 0.9930(2) 0.18586(15) 0.28126(6)
C13 C 0.6254(3) 0.2743(3) 0.37007(9)
H12 H 0.6309 0.2069 0.3919
H13 H 0.5103 0.2933 0.3634
H14 H 0.6790 0.3428 0.3847
C14 C 0.9473(2) 0.13848(15) 0.18986(6)
H15 H 0.9477 0.0501 0.1903
C15 C 0.6790(3) 0.2314(3) 0.14853(9)
H16 H 0.6823 0.3006 0.1695
H17 H 0.6073 0.1711 0.1625
H18 H 0.6365 0.2546 0.1172
C16 C 1.1588(4) 0.1378(2) 0.09046(8)
H19 H 1.2719 0.1055 0.0951
C17 C 1.0558(3) 0.1825(2) 0.40898(8)
H20 H 1.1468 0.2280 0.3945
H21 H 0.9859 0.2394 0.4265
C18 C 0.8538(3) 0.18087(18) 0.14284(7)
C19 C 0.8572(4) 0.0813(2) 0.10426(8)
H22 H 0.7880 0.0145 0.1150
H23 H 0.8103 0.1120 0.0741
C20 C 0.5037(3) 0.0607(2) 0.31526(10)
H24 H 0.4669 0.0036 0.2912
H25 H 0.4123 0.1128 0.3239
H26 H 0.5417 0.0184 0.3437
C21 C 1.0339(4) 0.0362(2) 0.09491(8)
H27 H 1.0674 -0.0164 0.1214
H28 H 1.0350 -0.0108 0.0651
C22 C 1.2357(6) 0.1675(5) 0.48198(14)
H29 H 1.3256 0.2070 0.4651
H30 H 1.2810 0.1136 0.5060
H31 H 1.1669 0.2268 0.4977
C23 C 1.0039(7) 0.0197(3) 0.47079(12)
H32 H 0.9260 0.0703 0.4879
H33 H 1.0593 -0.0326 0.4935
H34 H 0.9448 -0.0279 0.4472
C24 C 1.1302(5) 0.0961(3) 0.44564(9)
H35 H 1.2060 0.0421 0.4280
O5 O 0.5818(4) -0.1782(3) 0.47258(10)
H36 H 0.5169 -0.1891 0.4953
C25 C 0.5554(6) -0.0707(5) 0.45354(15)
H37 H 0.5921 -0.0702 0.4202
H38 H 0.6168 -0.0113 0.4716
H39 H 0.4380 -0.0522 0.4549
loop_
_geom_bond_atom_site_label_1
_geom_bond_atom_site_label_2
_geom_bond_site_symmetry_1
_geom_bond_site_symmetry_2
O1 C8 1_555 1_555
O2 C3 1_555 1_555
O3 C1 1_555 1_555
N1 H1 1_555 1_555
C1 C6 1_555 1_555
O4 H2 1_555 1_555
C2 H3 1_555 1_555
C3 N1 1_555 1_555
C4 N1 1_555 1_555
H4 C4 1_555 1_555
C5 H5 1_555 1_555
C6 C5 1_555 1_555
H6 C6 1_555 1_555
H7 C6 1_555 1_555
C7 C4 1_555 1_555
H8 C7 1_555 1_555
C8 C5 1_555 1_555
H9 C8 1_555 1_555
C9 C10 1_555 1_555
C10 C2 1_555 1_555
H10 C10 1_555 1_555
C11 C7 1_555 1_555
H11 C11 1_555 1_555
C12 C1 1_555 1_555
C13 C11 1_555 1_555
H12 C13 1_555 1_555
H13 C13 1_555 1_555
H14 C13 1_555 1_555
C14 C2 1_555 1_555
H15 C14 1_555 1_555
C15 H16 1_555 1_555
H17 C15 1_555 1_555
H18 C15 1_555 1_555
C16 O4 1_555 1_555
H19 C16 1_555 1_555
C17 C4 1_555 1_555
H20 C17 1_555 1_555
H21 C17 1_555 1_555
C18 O1 1_555 1_555
C19 C18 1_555 1_555
H22 C19 1_555 1_555
H23 C19 1_555 1_555
C20 C9 1_555 1_555
H24 C20 1_555 1_555
H25 C20 1_555 1_555
H26 C20 1_555 1_555
C21 C16 1_555 1_555
H27 C21 1_555 1_555
H28 C21 1_555 1_555
C22 H29 1_555 1_555
H30 C22 1_555 1_555
H31 C22 1_555 1_555
C23 H32 1_555 1_555
H33 C23 1_555 1_555
H34 C23 1_555 1_555
C24 C17 1_555 1_555
H35 C24 1_555 1_555
O5 H36 1_555 1_555
C25 O5 1_555 1_555
H37 C25 1_555 1_555
H38 C25 1_555 1_555
H39 C25 1_555 1_555
C2 C12 1_555 1_555
C3 C12 1_555 1_555
C5 C14 1_555 1_555
C7 C12 1_555 1_555
C8 C16 1_555 1_555
C9 C11 1_555 1_555
C14 C18 1_555 1_555
C15 C18 1_555 1_555
C19 C21 1_555 1_555
C22 C24 1_555 1_555
C23 C24 1_555 1_555

#END
