
#######################################################################
#
#                 Cambridge Crystallographic Data Centre
#                                CCDC 
#
#######################################################################
#
# If this CIF has been generated from an entry in the Cambridge 
# Structural Database, then it will include bibliographic, chemical, 
# crystal, experimental, refinement or atomic coordinate data resulting 
# from the CCDC's data processing and validation procedures.
#
#######################################################################

data_JUPVUL
_chemical_formula_moiety         'C24 H22 O5'
_chemical_name_systematic        
(1R,7R,8S)-8-Hydroxy-2,4,6,9-tetraoxa-8,10,10-triphenylbicyclo(5.3.0)decane
_symmetry_cell_setting           monoclinic
_symmetry_space_group_name_H-M   'P 21'
_symmetry_Int_Tables_number      4
_space_group_name_Hall           'P 2yb'
loop_
_symmetry_equiv_pos_site_id
_symmetry_equiv_pos_as_xyz
1 x,y,z
2 -x,1/2+y,-z
_cell_length_a                   8.397(4)
_cell_length_b                   13.275(7)
_cell_length_c                   18.042(9)
_cell_angle_alpha                90
_cell_angle_beta                 90.16(2)
_cell_angle_gamma                90
_cell_volume                     2011.14
_exptl_crystal_colour            colorless
_chemical_melting_point          129.5-131.0deg.C
_cell_formula_units_Z            4
loop_
_atom_site_label
_atom_site_type_symbol
_atom_site_fract_x
_atom_site_fract_y
_atom_site_fract_z
O1 O 0.8811(3) 0.9208 0.5817(2)
C1 C 0.8430(5) 0.8170(4) 0.5836(2)
H1 H 0.9470(5) 0.7747(4) 0.6001(2)
H2 H 0.8052(5) 0.7931(4) 0.5291(2)
C2 C 0.8110(5) 0.9774(4) 0.5250(2)
H3 H 0.8313(5) 1.0562(4) 0.5364(2)
H4 H 0.8673(5) 0.9574(4) 0.4733(2)
O2 O 0.7191(3) 0.7994(2) 0.6347(1)
O3 O 0.6436(3) 0.9616(2) 0.5174(1)
C3 C 0.5691(4) 0.8360(3) 0.6097(2)
H5 H 0.5463(4) 0.7861(3) 0.5636(2)
C4 C 0.5661(4) 0.9461(3) 0.5873(2)
H6 H 0.6305(4) 0.9955(3) 0.6243(2)
C5 C 0.4423(3) 0.8353(2) 0.6712(2)
C6 C 0.3876(4) 0.9696(3) 0.5859(2)
O4 O 0.3272(3) 0.9050(2) 0.6440(1)
O5 O 0.5191(3) 0.8715(2) 0.7351(1)
H7 H 0.443(7) 0.862(5) 0.773(3)
C7 C 0.3548(4) 0.7373(3) 0.6858(2)
C8 C 0.1978(5) 0.7409(3) 0.7107(2)
H8 H 0.1396(5) 0.8126(3) 0.7189(2)
C9 C 0.1164(5) 0.6517(4) 0.7251(2)
H9 H -0.0053(5) 0.6546(4) 0.7442(2)
C10 C 0.1899(6) 0.5591(3) 0.7151(3)
H10 H 0.1267(6) 0.4899(3) 0.7261(3)
C11 C 0.3449(7) 0.5573(4) 0.6908(4)
H11 H 0.4029(7) 0.4856(4) 0.6827(4)
C12 C 0.4289(6) 0.6451(3) 0.6764(3)
H12 H 0.5510(6) 0.6415(3) 0.6580(3)
C13 C 0.3071(3) 0.9388(3) 0.5121(3)
C14 C 0.2303(4) 0.8468(3) 0.5054(2)
H13 H 0.2266(4) 0.7956(3) 0.5519(2)
C15 C 0.1581(4) 0.8202(3) 0.4387(2)
H14 H 0.0993(4) 0.7481(3) 0.4339(2)
C16 C 0.1602(5) 0.8848(4) 0.3783(2)
H15 H 0.1043(5) 0.8637(4) 0.3266(2)
C17 C 0.2351(6) 0.9765(4) 0.3856(2)
H16 H 0.2367(6) 1.0283(4) 0.3395(2)
C18 C 0.3086(5) 1.0030(3) 0.4519(2)
H17 H 0.3680(5) 1.0750(3) 0.4563(2)
C19 C 0.3463(4) 1.0771(3) 0.6051(2)
C20 C 0.2056(4) 1.0977(3) 0.6430(2)
H18 H 0.1304(4) 1.0364(3) 0.6609(2)
C21 C 0.1623(5) 1.1950(3) 0.6577(2)
H19 H 0.0522(5) 1.2098(3) 0.6865(2)
C22 C 0.2575(5) 1.2742(3) 0.6361(2)
H20 H 0.2212(5) 1.3507(3) 0.6476(2)
C23 C 0.4004(5) 1.2559(3) 0.5996(2)
H21 H 0.4764(5) 1.3177(3) 0.5834(2)
C24 C 0.4442(5) 1.1572(3) 0.5842(2)
H22 H 0.5548(5) 1.1423(3) 0.5559(2)
O6 O 0.3431(3) 0.8928(3) 0.8683(2)
C25 C 0.2760(5) 0.9893(4) 0.8603(4)
H23 H 0.3539(5) 1.0354(4) 0.8269(4)
H24 H 0.2623(5) 1.0232(4) 0.9143(4)
C26 C 0.3111(5) 0.8393(8) 0.9339(3)
H25 H 0.3806(5) 0.8736(8) 0.9776(3)
H26 H 0.3507(5) 0.7628(8) 0.9255(3)
O7 O 0.1268(3) 0.9827(2) 0.8258(2)
O8 O 0.1599(3) 0.8351(3) 0.9573(1)
C27 C 0.0120(4) 0.9425(3) 0.8737(2)
H27 H 0.0172(4) 0.9968(3) 0.9183(2)
C28 C 0.0417(4) 0.8366(3) 0.9005(2)
H28 H 0.0893(4) 0.7865(3) 0.8590(2)
C29 C -0.1501(4) 0.9301(2) 0.8365(2)
C30 C -0.1248(4) 0.8021(3) 0.9265(2)
O9 O -0.2358(3) 0.8735(2) 0.8916(1)
O10 O -0.1271(3) 0.8752(2) 0.7722(1)
H29 H -0.188(7) 0.878(6) 0.752(4)
C31 C -0.2358(4) 1.0295(3) 0.8241(2)
C32 C -0.2232(5) 1.0751(3) 0.7538(3)
H30 H -0.1580(5) 1.0381(3) 0.7101(3)
C33 C -0.2939(6) 1.1666(4) 0.7410(3)
H31 H -0.2838(6) 1.2007(4) 0.6869(3)
C34 C -0.3778(6) 1.2164(3) 0.7959(3)
H32 H -0.4340(6) 1.2880(3) 0.7849(3)
C35 C -0.3879(6) 1.1723(4) 0.8647(4)
H33 H -0.4515(6) 1.2108(4) 0.9083(4)
C36 C -0.3169(6) 1.0777(3) 0.8797(3)
H34 H -0.3264(6) 1.0440(3) 0.9340(3)
C37 C -0.1518(4) 0.8096(3) 1.0111(2)
C38 C -0.2664(5) 0.8723(4) 1.0388(2)
H35 H -0.3331(5) 0.9198(4) 1.0013(2)
C39 C -0.2990(7) 0.8762(5) 1.1151(3)
H36 H -0.3912(7) 0.9251(5) 1.1361(3)
C40 C -0.2106(7) 0.8162(5) 1.1631(2)
H37 H -0.2328(7) 0.8190(5) 1.2220(2)
C41 C -0.0936(6) 0.7524(4) 1.1354(2)
H38 H -0.0253(6) 0.7055(4) 1.1726(2)
C42 C -0.0647(6) 0.7492(4) 1.0595(2)
H39 H 0.0260(6) 0.6995(4) 1.0381(2)
C43 C -0.1667(5) 0.6949(3) 0.9015(2)
C44 C -0.3126(6) 0.6744(4) 0.8723(4)
H40 H -0.3989(6) 0.7340(4) 0.8655(4)
C45 C -0.350(1) 0.5760(5) 0.8511(5)
H41 H -0.465(1) 0.5609(5) 0.8263(5)
C46 C -0.246(1) 0.4988(4) 0.8610(4)
H42 H -0.280(1) 0.4225(4) 0.8475(4)
C47 C -0.0955(8) 0.5190(4) 0.8885(3)
H43 H -0.0089(8) 0.4594(4) 0.8946(3)
C48 C -0.0574(6) 0.6177(3) 0.9082(2)
H44 H 0.0604(6) 0.6341(3) 0.9293(2)
loop_
_geom_bond_atom_site_label_1
_geom_bond_atom_site_label_2
_geom_bond_site_symmetry_1
_geom_bond_site_symmetry_2
O1 C1 1_555 1_555
C1 H1 1_555 1_555
H2 C1 1_555 1_555
C2 O1 1_555 1_555
H3 C2 1_555 1_555
H4 C2 1_555 1_555
O2 C1 1_555 1_555
O3 C2 1_555 1_555
C3 O2 1_555 1_555
H5 C3 1_555 1_555
C4 O3 1_555 1_555
H6 C4 1_555 1_555
C5 C3 1_555 1_555
C6 C4 1_555 1_555
O4 C5 1_555 1_555
O5 C5 1_555 1_555
H7 O5 1_555 1_555
C7 C5 1_555 1_555
C8 C7 1_555 1_555
H8 C8 1_555 1_555
C9 C8 1_555 1_555
H9 C9 1_555 1_555
C10 C9 1_555 1_555
H10 C10 1_555 1_555
C11 C10 1_555 1_555
H11 C11 1_555 1_555
C12 C7 1_555 1_555
H12 C12 1_555 1_555
C13 C6 1_555 1_555
C14 C13 1_555 1_555
H13 C14 1_555 1_555
C15 C14 1_555 1_555
H14 C15 1_555 1_555
C16 C15 1_555 1_555
H15 C16 1_555 1_555
C17 C16 1_555 1_555
H16 C17 1_555 1_555
C18 C13 1_555 1_555
H17 C18 1_555 1_555
C19 C6 1_555 1_555
C20 C19 1_555 1_555
H18 C20 1_555 1_555
C21 C20 1_555 1_555
H19 C21 1_555 1_555
C22 C21 1_555 1_555
H20 C22 1_555 1_555
C23 C22 1_555 1_555
H21 C23 1_555 1_555
C24 C19 1_555 1_555
H22 C24 1_555 1_555
O6 C25 1_555 1_555
C25 H23 1_555 1_555
H24 C25 1_555 1_555
C26 O6 1_555 1_555
H25 C26 1_555 1_555
H26 C26 1_555 1_555
O7 C25 1_555 1_555
O8 C26 1_555 1_555
C27 O7 1_555 1_555
H27 C27 1_555 1_555
C28 O8 1_555 1_555
H28 C28 1_555 1_555
C29 C27 1_555 1_555
C30 C28 1_555 1_555
O9 C29 1_555 1_555
O10 C29 1_555 1_555
H29 O10 1_555 1_555
C31 C29 1_555 1_555
C32 C31 1_555 1_555
H30 C32 1_555 1_555
C33 C32 1_555 1_555
H31 C33 1_555 1_555
C34 C33 1_555 1_555
H32 C34 1_555 1_555
C35 C34 1_555 1_555
H33 C35 1_555 1_555
C36 C31 1_555 1_555
H34 C36 1_555 1_555
C37 C30 1_555 1_555
C38 C37 1_555 1_555
H35 C38 1_555 1_555
C39 C38 1_555 1_555
H36 C39 1_555 1_555
C40 C39 1_555 1_555
H37 C40 1_555 1_555
C41 C40 1_555 1_555
H38 C41 1_555 1_555
C42 C37 1_555 1_555
H39 C42 1_555 1_555
C43 C30 1_555 1_555
C44 C43 1_555 1_555
H40 C44 1_555 1_555
C45 C44 1_555 1_555
H41 C45 1_555 1_555
C46 C45 1_555 1_555
H42 C46 1_555 1_555
C47 C46 1_555 1_555
H43 C47 1_555 1_555
C48 C43 1_555 1_555
H44 C48 1_555 1_555
C3 C4 1_555 1_555
C6 O4 1_555 1_555
C11 C12 1_555 1_555
C17 C18 1_555 1_555
C23 C24 1_555 1_555
C27 C28 1_555 1_555
C30 O9 1_555 1_555
C35 C36 1_555 1_555
C41 C42 1_555 1_555
C47 C48 1_555 1_555

#END
