
#######################################################################
#
#                 Cambridge Crystallographic Data Centre
#                                CCDC 
#
#######################################################################
#
# If this CIF has been generated from an entry in the Cambridge 
# Structural Database, then it will include bibliographic, chemical, 
# crystal, experimental, refinement or atomic coordinate data resulting 
# from the CCDC's data processing and validation procedures.
#
#######################################################################

data_JUPXOH
_chemical_formula_moiety         'C12 H32 N4 O12 P4'
_chemical_name_systematic        
'1,4,7,10-Tetra-azacyclododecane-1,4,7,10-tetrakis(methylenephosphonic acid)'
_symmetry_cell_setting           monoclinic
_symmetry_space_group_name_H-M   'P 21/n'
_symmetry_Int_Tables_number      14
_space_group_name_Hall           '-P 2yn'
loop_
_symmetry_equiv_pos_site_id
_symmetry_equiv_pos_as_xyz
1 x,y,z
2 1/2-x,1/2+y,1/2-z
3 -x,-y,-z
4 1/2+x,1/2-y,1/2+z
_cell_length_a                   9.834(2)
_cell_length_b                   16.452(3)
_cell_length_c                   13.493(9)
_cell_angle_alpha                90
_cell_angle_beta                 103.82(9)
_cell_angle_gamma                90
_cell_volume                     2119.82
_cell_formula_units_Z            4
loop_
_atom_site_label
_atom_site_type_symbol
_atom_site_fract_x
_atom_site_fract_y
_atom_site_fract_z
P1 P 0.1201(1) 0.11597(7) 0.29839(9)
P2 P 0.5687(1) 0.07338(7) 0.12865(9)
P3 P 0.3067(1) 0.37277(8) 0.19760(9)
P4 P -0.2586(1) 0.39227(8) 0.14915(9)
O1 O 0.2616(3) 0.0814(2) 0.3047(2)
O2 O 0.0440(3) 0.0821(2) 0.3774(2)
O3 O 0.1262(3) 0.2104(2) 0.3150(2)
O4 O 0.6107(3) 0.0861(2) 0.0296(2)
O5 O 0.6854(3) 0.0818(2) 0.2232(2)
O6 O 0.4914(4) -0.0083(2) 0.1318(2)
O7 O 0.1967(3) 0.4302(2) 0.2286(2)
O8 O 0.2629(4) 0.2869(2) 0.2114(2)
O9 O 0.4495(3) 0.3986(2) 0.2565(2)
O10 O -0.3518(3) 0.3609(2) 0.0530(2)
O11 O -0.3119(3) 0.3774(2) 0.2453(2)
O12 O -0.2191(4) 0.4813(2) 0.1388(2)
N1 N 0.0593(4) 0.1350(2) 0.0949(3)
N2 N 0.3357(4) 0.1806(2) 0.0544(3)
N3 N 0.2035(4) 0.3246(2) -0.0031(3)
N4 N -0.0443(4) 0.3022(2) 0.0900(3)
C1 C 0.0017(5) 0.0971(3) 0.1767(3)
C2 C 0.4471(5) 0.1536(3) 0.1450(3)
C3 C 0.2926(5) 0.3870(3) 0.0612(3)
C4 C -0.0966(5) 0.3332(3) 0.1799(3)
C5 C 0.1529(5) 0.0761(3) 0.0618(3)
C6 C 0.2448(5) 0.1133(3) -0.0009(3)
C7 C 0.3913(5) 0.2320(3) -0.0197(4)
C8 C 0.2749(5) 0.2874(3) -0.0760(3)
C9 C 0.0623(5) 0.3534(3) -0.0526(3)
C10 C -0.0252(5) 0.3731(3) 0.0219(3)
C11 C -0.1358(5) 0.2339(3) 0.0347(4)
C12 C -0.0523(5) 0.1635(3) 0.0086(3)
H1 H -0.089 0.119 0.176
H2 H -0.009 0.040 0.165
H3 H 0.502 0.200 0.171
H4 H 0.401 0.135 0.196
H5 H 0.384 0.385 0.048
H6 H 0.253 0.440 0.041
H7 H -0.111 0.287 0.220
H8 H -0.025 0.366 0.221
H9 H 0.097 0.034 0.022
H10 H 0.211 0.051 0.121
H11 H 0.304 0.072 -0.018
H12 H 0.187 0.134 -0.063
H13 H 0.423 0.198 -0.067
H14 H 0.469 0.264 0.016
H15 H 0.313 0.329 -0.111
H16 H 0.209 0.256 -0.125
H17 H 0.015 0.312 -0.099
H18 H 0.070 0.401 -0.092
H19 H 0.019 0.417 0.065
H20 H -0.116 0.391 -0.014
H21 H -0.195 0.255 -0.027
H22 H -0.195 0.215 0.077
H23 H -0.115 0.119 -0.015
H24 H -0.011 0.180 -0.046
H25 H 0.053 0.293 0.124
H26 H 0.278 0.231 0.082
H27 H 0.193 0.231 0.270
H28 H -0.418 0.375 0.250
H29 H 0.082 0.084 0.456
H30 H 0.445 -0.041 0.062
H31 H 0.223 0.500 0.209
H32 H -0.193 0.519 0.209
loop_
_geom_bond_atom_site_label_1
_geom_bond_atom_site_label_2
_geom_bond_site_symmetry_1
_geom_bond_site_symmetry_2
P1 O1 1_555 1_555
P2 O4 1_555 1_555
P3 O7 1_555 1_555
P4 O10 1_555 1_555
O2 P1 1_555 1_555
O3 P1 1_555 1_555
O5 P2 1_555 1_555
O6 P2 1_555 1_555
O7 H31 1_555 1_555
O8 P3 1_555 1_555
O9 P3 1_555 1_555
O11 P4 1_555 1_555
O12 P4 1_555 1_555
N1 C1 1_555 1_555
N2 C2 1_555 1_555
N3 C3 1_555 1_555
N4 C4 1_555 1_555
C1 P1 1_555 1_555
C2 P2 1_555 1_555
C3 P3 1_555 1_555
C4 P4 1_555 1_555
C5 N1 1_555 1_555
C6 N2 1_555 1_555
C7 N2 1_555 1_555
C8 N3 1_555 1_555
C9 N3 1_555 1_555
C10 N4 1_555 1_555
C11 N4 1_555 1_555
C12 N1 1_555 1_555
H1 C1 1_555 1_555
H2 C1 1_555 1_555
H3 C2 1_555 1_555
H4 C2 1_555 1_555
H5 C3 1_555 1_555
H6 C3 1_555 1_555
H7 C4 1_555 1_555
H8 C4 1_555 1_555
H9 C5 1_555 1_555
H10 C5 1_555 1_555
H11 C6 1_555 1_555
H12 C6 1_555 1_555
H13 C7 1_555 1_555
H14 C7 1_555 1_555
H15 C8 1_555 1_555
H16 C8 1_555 1_555
H17 C9 1_555 1_555
H18 C9 1_555 1_555
H19 C10 1_555 1_555
H20 C10 1_555 1_555
H21 C11 1_555 1_555
H22 C11 1_555 1_555
H23 C12 1_555 1_555
H24 C12 1_555 1_555
H25 N4 1_555 1_555
H26 N2 1_555 1_555
H27 O3 1_555 1_555
H28 O11 1_555 1_555
H29 O2 1_555 1_555
H30 O6 1_555 1_555
H32 O12 1_555 1_555
C5 C6 1_555 1_555
C7 C8 1_555 1_555
C9 C10 1_555 1_555
C11 C12 1_555 1_555

#END
