
#######################################################################
#
#                 Cambridge Crystallographic Data Centre
#                                CCDC 
#
#######################################################################
#
# If this CIF has been generated from an entry in the Cambridge 
# Structural Database, then it will include bibliographic, chemical, 
# crystal, experimental, refinement or atomic coordinate data resulting 
# from the CCDC's data processing and validation procedures.
#
#######################################################################

data_JUQCAZ
_chemical_formula_moiety         'C16 H20 O7'
_chemical_name_systematic        
(3aR*,6aR*,9aR*,9bR*)-Spiro[(1',3'-dioxolane)-2',6-(decahydro-9a-methoxycarbonyl-9-oxoazuleno(4,5-c)furan-1(3H)-one)]
_symmetry_cell_setting           orthorhombic
_symmetry_space_group_name_H-M   'P 21 21 21'
_symmetry_Int_Tables_number      19
_space_group_name_Hall           'P 2ac 2ab'
loop_
_symmetry_equiv_pos_site_id
_symmetry_equiv_pos_as_xyz
1 x,y,z
2 1/2-x,-y,1/2+z
3 1/2+x,1/2-y,-z
4 -x,1/2+y,1/2-z
_cell_length_a                   10.673(1)
_cell_length_b                   10.783(1)
_cell_length_c                   13.504(1)
_cell_angle_alpha                90
_cell_angle_beta                 90
_cell_angle_gamma                90
_cell_volume                     1554.13
_exptl_crystal_colour            colorless
_exptl_crystal_description       prism
_cell_formula_units_Z            4
loop_
_atom_site_label
_atom_site_type_symbol
_atom_site_fract_x
_atom_site_fract_y
_atom_site_fract_z
O1 O 0.04122(21) 0.74672(21) 0.96439(16)
C1 C 0.14142(28) 0.76203(26) 0.92610(21)
O2 O 0.21729(22) 0.66609(17) 0.90806(17)
C2 C 0.32581(31) 0.70648(27) 0.85568(25)
H1 H 0.39868(31) 0.66558(27) 0.88158(25)
H2 H 0.31745(31) 0.68778(27) 0.78650(25)
C3 C 0.33501(25) 0.84789(24) 0.86825(22)
H3 H 0.39152(25) 0.87742(24) 0.91828(22)
C4 C 0.38790(25) 0.90995(27) 0.77613(25)
H4 H 0.46480(25) 0.86935(27) 0.75856(25)
H5 H 0.32718(25) 0.89729(27) 0.72467(25)
C5 C 0.41224(25) 1.04898(28) 0.78608(29)
H6 H 0.43074(25) 1.08141(28) 0.72151(29)
H7 H 0.48373(25) 1.05966(28) 0.82838(29)
O3 O 0.30682(23) 1.12546(18) 0.93158(16)
C6 C 0.26866(45) 1.24351(30) 0.96376(27)
H8 H 0.18137(45) 1.24107(30) 0.98079(27)
H9 H 0.31626(45) 1.27143(30) 1.01981(27)
C7 C 0.28731(45) 1.32641(28) 0.87692(27)
H10 H 0.35135(45) 1.38616(28) 0.89162(27)
H11 H 0.21139(45) 1.36873(28) 0.85927(27)
O4 O 0.32644(22) 1.25117(19) 0.79858(16)
C8 C 0.30354(25) 1.12542(25) 0.82658(22)
C9 C 0.17190(23) 1.08941(22) 0.79059(17)
H12 H 0.12086(23) 1.15322(22) 0.81941(17)
C10 C 0.16300(30) 1.09061(28) 0.67580(19)
H13 H 0.24447(30) 1.07713(28) 0.64767(19)
H14 H 0.12996(30) 1.16800(28) 0.65227(19)
C11 C 0.07507(28) 0.98452(26) 0.64737(17)
H15 H 0.09800(28) 0.94939(26) 0.58461(17)
H16 H -0.01008(28) 1.01300(26) 0.64461(17)
C12 C 0.09222(22) 0.89078(23) 0.72824(18)
O5 O 0.09056(19) 0.77874(18) 0.72123(14)
C13 C 0.12025(19) 0.96033(20) 0.82594(16)
C14 C 0.20135(22) 0.88411(21) 0.89888(17)
H17 H 0.20513(22) 0.94365(21) 0.95165(17)
C15 C -0.00462(22) 0.98639(22) 0.88033(18)
O6 O -0.00975(18) 1.03864(21) 0.95849(15)
O7 O -0.10198(16) 0.94871(18) 0.82822(13)
C16 C -0.22397(22) 0.96943(33) 0.87067(25)
H18 H -0.28733(22) 0.93745(33) 0.82717(25)
H19 H -0.23657(22) 1.05683(33) 0.87989(25)
H20 H -0.22915(22) 0.92808(33) 0.93350(25)
loop_
_geom_bond_atom_site_label_1
_geom_bond_atom_site_label_2
_geom_bond_site_symmetry_1
_geom_bond_site_symmetry_2
O1 C1 1_555 1_555
C1 O2 1_555 1_555
O2 C2 1_555 1_555
C2 H1 1_555 1_555
H2 C2 1_555 1_555
C3 C2 1_555 1_555
H3 C3 1_555 1_555
C4 C3 1_555 1_555
H4 C4 1_555 1_555
H5 C4 1_555 1_555
C5 C4 1_555 1_555
H6 C5 1_555 1_555
H7 C5 1_555 1_555
O3 C6 1_555 1_555
C6 H8 1_555 1_555
H9 C6 1_555 1_555
C7 C6 1_555 1_555
H10 C7 1_555 1_555
H11 C7 1_555 1_555
O4 C7 1_555 1_555
C8 C5 1_555 1_555
C9 C8 1_555 1_555
H12 C9 1_555 1_555
C10 C9 1_555 1_555
H13 C10 1_555 1_555
H14 C10 1_555 1_555
C11 C10 1_555 1_555
H15 C11 1_555 1_555
H16 C11 1_555 1_555
C12 C11 1_555 1_555
O5 C12 1_555 1_555
C13 C9 1_555 1_555
C14 C1 1_555 1_555
H17 C14 1_555 1_555
C15 C13 1_555 1_555
O6 C15 1_555 1_555
O7 C15 1_555 1_555
C16 O7 1_555 1_555
H18 C16 1_555 1_555
H19 C16 1_555 1_555
H20 C16 1_555 1_555
C3 C14 1_555 1_555
O3 C8 1_555 1_555
O4 C8 1_555 1_555
C12 C13 1_555 1_555
C13 C14 1_555 1_555

#END
