
#######################################################################
#
#                 Cambridge Crystallographic Data Centre
#                                CCDC 
#
#######################################################################
#
# If this CIF has been generated from an entry in the Cambridge 
# Structural Database, then it will include bibliographic, chemical, 
# crystal, experimental, refinement or atomic coordinate data resulting 
# from the CCDC's data processing and validation procedures.
#
#######################################################################

data_JUQHUA
_chemical_formula_moiety         'C18 H16 Br1 N1 O3 S1'
_chemical_name_systematic        
6-(4-Bromophenyl)-1-((4-methylphenyl)sulfonyl)-5,6-dihydropyridin-2(1H)-one
_symmetry_cell_setting           orthorhombic
_symmetry_space_group_name_H-M   'P 21 21 21'
_symmetry_Int_Tables_number      19
_space_group_name_Hall           'P 2ac 2ab'
loop_
_symmetry_equiv_pos_site_id
_symmetry_equiv_pos_as_xyz
1 x,y,z
2 1/2+x,1/2-y,-z
3 -x,1/2+y,1/2-z
4 1/2-x,-y,1/2+z
_cell_length_a                   7.9153(9)
_cell_length_b                   11.4655(13)
_cell_length_c                   18.152(2)
_cell_angle_alpha                90
_cell_angle_beta                 90
_cell_angle_gamma                90
_cell_volume                     1647.35
_exptl_crystal_colour            colorless
_exptl_crystal_description       block
_cell_formula_units_Z            4
loop_
_atom_site_label
_atom_site_type_symbol
_atom_site_fract_x
_atom_site_fract_y
_atom_site_fract_z
Br1 Br 0.85549(5) 0.75946(3) -0.09119(2)
S1 S 0.53968(10) 0.85707(7) 0.27856(4)
O1 O 0.8571(3) 0.8449(2) 0.35253(11)
O2 O 0.5883(3) 0.7378(2) 0.27158(12)
O3 O 0.4144(3) 0.9024(2) 0.22985(13)
N1 N 0.7081(3) 0.9441(2) 0.26523(13)
C1 C 0.8542(5) 0.9199(3) 0.30490(16)
C2 C 1.0012(4) 0.9931(3) 0.28781(19)
H1 H 1.1087 0.9710 0.3064
C3 C 0.9891(5) 1.0882(3) 0.24756(18)
H2 H 1.0868 1.1347 0.2399
C4 C 0.8272(5) 1.1246(3) 0.21393(18)
H3 H 0.8505 1.1645 0.1667
H4 H 0.7706 1.1811 0.2470
C5 C 0.7084(4) 1.0218(3) 0.19990(17)
H5 H 0.5917 1.0540 0.1943
C6 C 0.7503(4) 0.9554(3) 0.12956(17)
C7 C 0.6973(4) 1.0016(3) 0.06274(19)
H6 H 0.6389 1.0740 0.0623
C8 C 0.7277(4) 0.9449(3) -0.00318(16)
H7 H 0.6894 0.9771 -0.0484
C9 C 0.8145(4) 0.8406(3) -0.00200(15)
C10 C 0.8740(4) 0.7940(3) 0.06306(17)
H8 H 0.9380 0.7239 0.0628
C11 C 0.8392(4) 0.8507(3) 0.12910(17)
H9 H 0.8766 0.8178 0.1743
C12 C 0.4766(4) 0.8852(3) 0.36934(17)
C13 C 0.5002(4) 0.8015(3) 0.42284(18)
H10 H 0.5579 0.7311 0.4114
C14 C 0.4392(5) 0.8207(3) 0.49349(17)
H11 H 0.4540 0.7629 0.5304
C15 C 0.3566(4) 0.9244(3) 0.51051(16)
C16 C 0.3367(4) 1.0083(3) 0.45541(18)
H12 H 0.2812 1.0796 0.4665
C17 C 0.3966(4) 0.9890(3) 0.38509(17)
H13 H 0.3827 1.0466 0.3479
C18 C 0.2947(4) 0.9479(3) 0.58693(17)
H14 H 0.3667 1.0069 0.6102
H15 H 0.2988 0.8757 0.6158
H16 H 0.1781 0.9764 0.5849
loop_
_geom_bond_atom_site_label_1
_geom_bond_atom_site_label_2
_geom_bond_site_symmetry_1
_geom_bond_site_symmetry_2
Br1 C9 1_555 1_555
S1 O2 1_555 1_555
O1 C1 1_555 1_555
O3 S1 1_555 1_555
N1 S1 1_555 1_555
C1 N1 1_555 1_555
C2 C1 1_555 1_555
H1 C2 1_555 1_555
C3 C2 1_555 1_555
H2 C3 1_555 1_555
C4 C3 1_555 1_555
H3 C4 1_555 1_555
H4 C4 1_555 1_555
C5 N1 1_555 1_555
H5 C5 1_555 1_555
C6 C5 1_555 1_555
C7 C6 1_555 1_555
H6 C7 1_555 1_555
C8 C7 1_555 1_555
H7 C8 1_555 1_555
C9 C8 1_555 1_555
C10 C9 1_555 1_555
H8 C10 1_555 1_555
C11 C6 1_555 1_555
H9 C11 1_555 1_555
C12 S1 1_555 1_555
C13 C12 1_555 1_555
H10 C13 1_555 1_555
C14 C13 1_555 1_555
H11 C14 1_555 1_555
C15 C14 1_555 1_555
C16 C15 1_555 1_555
H12 C16 1_555 1_555
C17 C12 1_555 1_555
H13 C17 1_555 1_555
C18 C15 1_555 1_555
H14 C18 1_555 1_555
H15 C18 1_555 1_555
H16 C18 1_555 1_555
C4 C5 1_555 1_555
C10 C11 1_555 1_555
C16 C17 1_555 1_555

#END
