
#######################################################################
#
#                 Cambridge Crystallographic Data Centre
#                                CCDC 
#
#######################################################################
#
# If this CIF has been generated from an entry in the Cambridge 
# Structural Database, then it will include bibliographic, chemical, 
# crystal, experimental, refinement or atomic coordinate data resulting 
# from the CCDC's data processing and validation procedures.
#
#######################################################################

data_JUQQAP
_chemical_formula_moiety         'C14 H10 B1 F2 N4 O1 1+,Cl1 O4 1-'
_chemical_name_systematic        
'(3-(imidazo[1,2-a]pyridin-2-yl)imidazo[1,2-a]pyridin-1-ium-2-olato)-difluoro-boron perchlorate'
_symmetry_cell_setting           monoclinic
_symmetry_space_group_name_H-M   'P 21/c'
_symmetry_Int_Tables_number      14
_space_group_name_Hall           '-P 2ybc'
loop_
_symmetry_equiv_pos_site_id
_symmetry_equiv_pos_as_xyz
1 x,y,z
2 -x,1/2+y,1/2-z
3 -x,-y,-z
4 x,1/2-y,1/2+z
_cell_length_a                   20.522(4)
_cell_length_b                   5.1557(9)
_cell_length_c                   15.049(3)
_cell_angle_alpha                90
_cell_angle_beta                 97.992(2)
_cell_angle_gamma                90
_cell_volume                     1576.8
_exptl_crystal_colour            white
_exptl_crystal_description       columnar
_cell_formula_units_Z            4
loop_
_atom_site_label
_atom_site_type_symbol
_atom_site_fract_x
_atom_site_fract_y
_atom_site_fract_z
C1 C 0.12987(10) 0.0198(5) 0.69699(15)
C2 C 0.06154(11) 0.0031(5) 0.67331(18)
H1 H 0.0333 0.0991 0.7038
C3 C 0.03744(12) -0.1564(7) 0.6049(2)
H2 H -0.0078 -0.1707 0.5886
C4 C 0.08026(13) -0.3010(7) 0.5581(2)
H3 H 0.0629 -0.4068 0.5105
C5 C 0.14594(12) -0.2869(6) 0.58166(18)
H4 H 0.1742 -0.3839 0.5515
C6 C 0.23528(10) -0.0763(4) 0.68670(15)
H5 H 0.2727 -0.1500 0.6687
C7 C 0.23315(9) 0.1006(4) 0.75242(14)
C8 C 0.27976(9) 0.2511(4) 0.81059(13)
C9 C 0.39318(10) 0.0905(4) 0.79434(13)
H6 H 0.3791 -0.0494 0.7576
C10 C 0.45824(10) 0.1369(4) 0.81859(13)
H7 H 0.4890 0.0249 0.7995
C11 C 0.47997(10) 0.3517(4) 0.87221(13)
H8 H 0.5248 0.3837 0.8867
C12 C 0.43521(10) 0.5145(4) 0.90332(13)
H9 H 0.4489 0.6565 0.9393
C13 C 0.36884(10) 0.4601(4) 0.87930(13)
C14 C 0.25992(10) 0.4544(4) 0.85894(14)
B1 B 0.14474(12) 0.3466(6) 0.83277(18)
F1 F 0.09198(7) 0.4889(3) 0.79557(11)
F2 F 0.12988(8) 0.2007(3) 0.90326(10)
N1 N 0.17036(9) -0.1259(4) 0.65138(13)
N2 N 0.16787(8) 0.1617(4) 0.75945(12)
N3 N 0.34849(8) 0.2536(3) 0.82496(10)
N4 N 0.31406(9) 0.5827(4) 0.89931(13)
H10 H 0.3119(12) 0.682(5) 0.9341(18)
O1 O 0.19974(7) 0.5290(3) 0.86483(11)
Cl1 Cl 0.35636(2) 0.42537(10) 0.57796(3)
O2 O 0.29494(10) 0.5126(5) 0.53075(15)
O3 O 0.36976(10) 0.5585(3) 0.66185(11)
O4 O 0.40584(11) 0.4923(4) 0.52367(13)
O5 O 0.35674(10) 0.1518(3) 0.59107(12)
loop_
_geom_bond_atom_site_label_1
_geom_bond_atom_site_label_2
_geom_bond_site_symmetry_1
_geom_bond_site_symmetry_2
C1 C2 1_555 1_555
C2 H1 1_555 1_555
C3 C2 1_555 1_555
H2 C3 1_555 1_555
C4 C3 1_555 1_555
H3 C4 1_555 1_555
C5 C4 1_555 1_555
H4 C5 1_555 1_555
C6 H5 1_555 1_555
C7 C6 1_555 1_555
C8 C7 1_555 1_555
C9 H6 1_555 1_555
C10 C9 1_555 1_555
H7 C10 1_555 1_555
C11 C10 1_555 1_555
H8 C11 1_555 1_555
C12 C11 1_555 1_555
H9 C12 1_555 1_555
C13 C12 1_555 1_555
C14 C8 1_555 1_555
B1 F1 1_555 1_555
F2 B1 1_555 1_555
N1 C1 1_555 1_555
N2 C1 1_555 1_555
N3 C8 1_555 1_555
N4 C13 1_555 1_555
H10 N4 1_555 1_555
O1 C14 1_555 1_555
Cl1 O2 1_555 1_555
O3 Cl1 1_555 1_555
O4 Cl1 1_555 1_555
O5 Cl1 1_555 1_555
C5 N1 1_555 1_555
C6 N1 1_555 1_555
C7 N2 1_555 1_555
C9 N3 1_555 1_555
C13 N3 1_555 1_555
C14 N4 1_555 1_555
B1 N2 1_555 1_555
B1 O1 1_555 1_555

#END
