
#######################################################################
#
#                 Cambridge Crystallographic Data Centre
#                                CCDC 
#
#######################################################################
#
# If this CIF has been generated from an entry in the Cambridge 
# Structural Database, then it will include bibliographic, chemical, 
# crystal, experimental, refinement or atomic coordinate data resulting 
# from the CCDC's data processing and validation procedures.
#
#######################################################################

data_JUQSET01
_chemical_formula_moiety         'C6 H12 O5'
_chemical_name_systematic        'Methyl \a-D-arabinofuranoside'
_symmetry_cell_setting           triclinic
_symmetry_space_group_name_H-M   'P 1'
_symmetry_Int_Tables_number      1
_space_group_name_Hall           'P 1'
loop_
_symmetry_equiv_pos_site_id
_symmetry_equiv_pos_as_xyz
1 x,y,z
_cell_length_a                   12.248(6)
_cell_length_b                   6.811(2)
_cell_length_c                   4.5780(10)
_cell_angle_alpha                89.54(2)
_cell_angle_beta                 100.59(2)
_cell_angle_gamma                86.35(2)
_cell_volume                     374.56
_exptl_crystal_colour            colorless
_exptl_crystal_description       arrowhead
_chemical_melting_point          325K
_cell_formula_units_Z            2
_exptl_crystal_recrystallization_method 'ethyl acetate'
loop_
_atom_site_label
_atom_site_type_symbol
_atom_site_fract_x
_atom_site_fract_y
_atom_site_fract_z
O1 O -0.6656 -1.3961 0.0268
O2 O -0.4531(6) -1.6322(11) -0.2395(16)
H1 H -0.4052(10) -1.5674(18) -0.3515(25)
O3 O -0.3231(6) -1.4868(11) 0.3930(17)
H2 H -0.2488(10) -1.4457(18) 0.4198(26)
O4 O -0.5384(6) -1.1643(11) -0.0404(16)
O5 O -0.3364(6) -0.9695(11) 0.0113(17)
H3 H -0.3824(10) -0.8580(17) -0.0961(27)
C1 C -0.5791(5) -1.3520(9) -0.1185(15)
H4 H -0.6078(9) -1.3463(17) -0.3640(25)
C2 C -0.4822(5) -1.5076(10) -0.0137(16)
H5 H -0.5098(10) -1.5992(17) 0.1490(27)
C3 C -0.3874(6) -1.3853(10) 0.1405(15)
H6 H -0.3343(9) -1.3504(17) -0.0222(26)
C4 C -0.4506(6) -1.1966(10) 0.2146(15)
H7 H -0.4839(10) -1.2232(16) 0.4208(24)
C5 C -0.3807(6) -1.0198(10) 0.2668(16)
H8 H -0.4316(11) -0.8930(17) 0.3306(28)
H9 H -0.3130(10) -1.0555(19) 0.4521(26)
C6 C -0.7674(6) -1.2812(10) -0.0733(16)
H10 H -0.8287(10) -1.3402(21) 0.0381(37)
H11 H -0.7922(11) -1.2951(23) -0.3104(32)
H12 H -0.7584(12) -1.1316(19) -0.0167(34)
O6 O 0.2058(6) -0.8787(12) -0.6179(16)
O7 O -0.0095(6) -1.0642(11) -0.3610(16)
H13 H -0.0532(10) -0.9879(17) -0.2441(25)
O8 O -0.1319(6) -0.8681(11) -1.0092(17)
H14 H -0.2049(10) -0.9068(19) -0.9816(28)
O9 O 0.0808(6) -0.6172(10) -0.5470(16)
O10 O -0.1215(6) -0.3722(11) -0.6046(17)
H15 H -0.0794(10) -0.2692(17) -0.5014(28)
C7 C 0.1191(6) -0.8170(10) -0.4733(15)
H16 H 0.1484(9) -0.8229(16) -0.2311(25)
C8 C 0.0216(5) -0.9441(10) -0.5830(15)
H17 H 0.0484(10) -1.0444(16) -0.7456(25)
C9 C -0.0705(5) -0.7975(10) -0.7414(15)
H18 H -0.1261(9) -0.7507(16) -0.5865(27)
C10 C -0.0045(6) -0.6236(10) -0.8043(16)
H19 H 0.0307(9) -0.6526(17) -1.0070(25)
C11 C -0.0732(6) -0.4285(10) -0.8552(16)
H20 H -0.0210(11) -0.3152(16) -0.9177(27)
H21 H -0.1404(10) -0.4453(18) -1.0477(26)
C12 C 0.3087(6) -0.7912(11) -0.5132(16)
H22 H 0.3713(11) -0.8614(20) -0.6254(33)
H23 H 0.3346(13) -0.8139(24) -0.2765(32)
H24 H 0.3001(12) -0.6401(20) -0.5716(34)
loop_
_geom_bond_atom_site_label_1
_geom_bond_atom_site_label_2
_geom_bond_site_symmetry_1
_geom_bond_site_symmetry_2
O1 C1 1_555 1_555
O2 H1 1_555 1_555
O3 H2 1_555 1_555
O4 C1 1_555 1_555
O5 H3 1_555 1_555
C1 H4 1_555 1_555
C2 O2 1_555 1_555
H5 C2 1_555 1_555
C3 O3 1_555 1_555
H6 C3 1_555 1_555
C4 O4 1_555 1_555
H7 C4 1_555 1_555
C5 O5 1_555 1_555
H8 C5 1_555 1_555
H9 C5 1_555 1_555
C6 O1 1_555 1_555
H10 C6 1_555 1_555
H11 C6 1_555 1_555
H12 C6 1_555 1_555
O6 C7 1_555 1_555
O7 H13 1_555 1_555
O8 H14 1_555 1_555
O9 C7 1_555 1_555
O10 H15 1_555 1_555
C7 H16 1_555 1_555
C8 O7 1_555 1_555
H17 C8 1_555 1_555
C9 O8 1_555 1_555
H18 C9 1_555 1_555
C10 O9 1_555 1_555
H19 C10 1_555 1_555
C11 O10 1_555 1_555
H20 C11 1_555 1_555
H21 C11 1_555 1_555
C12 O6 1_555 1_555
H22 C12 1_555 1_555
H23 C12 1_555 1_555
H24 C12 1_555 1_555
C1 C2 1_555 1_555
C2 C3 1_555 1_555
C3 C4 1_555 1_555
C4 C5 1_555 1_555
C7 C8 1_555 1_555
C8 C9 1_555 1_555
C9 C10 1_555 1_555
C10 C11 1_555 1_555

#END
