
#######################################################################
#
#                 Cambridge Crystallographic Data Centre
#                                CCDC 
#
#######################################################################
#
# If this CIF has been generated from an entry in the Cambridge 
# Structural Database, then it will include bibliographic, chemical, 
# crystal, experimental, refinement or atomic coordinate data resulting 
# from the CCDC's data processing and validation procedures.
#
#######################################################################

data_JUQSUJ01
_chemical_formula_moiety         'C6 H12 O5'
_chemical_name_systematic        'Methyl \a-D-xylofuranoside'
_symmetry_cell_setting           monoclinic
_symmetry_space_group_name_H-M   'P 21'
_symmetry_Int_Tables_number      4
_space_group_name_Hall           'P 2yb'
loop_
_symmetry_equiv_pos_site_id
_symmetry_equiv_pos_as_xyz
1 x,y,z
2 -x,1/2+y,-z
_cell_length_a                   6.2238(2)
_cell_length_b                   8.1389(2)
_cell_length_c                   7.3637(2)
_cell_angle_alpha                90
_cell_angle_beta                 101.1465(17)
_cell_angle_gamma                90
_cell_volume                     365.971
_exptl_crystal_colour            white
_exptl_crystal_description       'rectangular block'
_cell_formula_units_Z            2
_exptl_crystal_recrystallization_method acetonitrile
loop_
_atom_site_label
_atom_site_type_symbol
_atom_site_fract_x
_atom_site_fract_y
_atom_site_fract_z
C1 C 0.0947(2) 0.36155(15) 0.69963(15)
H1 H -0.0841(5) 0.3840(4) 0.6814(4)
C2 C 0.19469(19) 0.40631(15) 0.53273(16)
H2 H 0.1235(5) 0.5224(4) 0.4743(4)
C3 C 0.43401(19) 0.43370(15) 0.62512(16)
H3 H 0.5108(5) 0.3118(4) 0.6547(4)
C4 C 0.41324(19) 0.51615(15) 0.80960(16)
H4 H 0.5367(5) 0.4684(4) 0.9256(4)
C5 C 0.4280(2) 0.70172(15) 0.81958(16)
H5 H 0.5955(5) 0.7422(4) 0.8162(5)
H6 H 0.3906(6) 0.7377(4) 0.9542(4)
C6 C 0.0258(2) 0.13438(17) 0.87799(18)
H7 H 0.0639(7) 0.2035(6) 1.0071(5)
H8 H 0.0728(8) 0.0069(5) 0.9033(7)
H9 H -0.1517(6) 0.1376(7) 0.8236(6)
O1 O 0.1421(2) 0.19638(18) 0.74350(18)
O2 O 0.1612(2) 0.28913(19) 0.38810(19)
H10 H 0.2496(5) 0.1911(4) 0.4279(4)
O3 O 0.2872(2) 0.78399(19) 0.6721(2)
H11 H 0.1332(5) 0.7667(5) 0.6791(5)
O4 O 0.5571(2) 0.52824(19) 0.51914(19)
H12 H 0.6138(5) 0.4522(4) 0.4349(4)
O5 O 0.1974(2) 0.46977(17) 0.83997(19)
loop_
_geom_bond_atom_site_label_1
_geom_bond_atom_site_label_2
_geom_bond_site_symmetry_1
_geom_bond_site_symmetry_2
C1 H1 1_555 1_555
C2 C1 1_555 1_555
H2 C2 1_555 1_555
C3 C2 1_555 1_555
H3 C3 1_555 1_555
C4 C3 1_555 1_555
H4 C4 1_555 1_555
C5 C4 1_555 1_555
H5 C5 1_555 1_555
H6 C5 1_555 1_555
C6 H7 1_555 1_555
H8 C6 1_555 1_555
H9 C6 1_555 1_555
O1 C1 1_555 1_555
O2 C2 1_555 1_555
H10 O2 1_555 1_555
O3 C5 1_555 1_555
H11 O3 1_555 1_555
O4 C3 1_555 1_555
H12 O4 1_555 1_555
O5 C1 1_555 1_555
C4 O5 1_555 1_555
C6 O1 1_555 1_555

#END
