
#######################################################################
#
#                 Cambridge Crystallographic Data Centre
#                                CCDC 
#
#######################################################################
#
# If this CIF has been generated from an entry in the Cambridge 
# Structural Database, then it will include bibliographic, chemical, 
# crystal, experimental, refinement or atomic coordinate data resulting 
# from the CCDC's data processing and validation procedures.
#
#######################################################################

data_JUQSOD
_chemical_formula_moiety         'C6 H12 O5'
_chemical_name_systematic        'Methyl \a-D-lyxofuranoside'
_symmetry_cell_setting           orthorhombic
_symmetry_space_group_name_H-M   'P 21 21 21'
_symmetry_Int_Tables_number      19
_space_group_name_Hall           'P 2ac 2ab'
loop_
_symmetry_equiv_pos_site_id
_symmetry_equiv_pos_as_xyz
1 x,y,z
2 1/2-x,-y,1/2+z
3 1/2+x,1/2-y,-z
4 -x,1/2+y,1/2-z
_cell_length_a                   10.339(3)
_cell_length_b                   15.495(2)
_cell_length_c                   4.6265(10)
_cell_angle_alpha                90
_cell_angle_beta                 90
_cell_angle_gamma                90
_cell_volume                     741.178
_exptl_crystal_colour            colorless
_exptl_crystal_description       'elongated prism'
_chemical_melting_point          370K
_cell_formula_units_Z            4
_exptl_crystal_recrystallization_method acetonitrile
loop_
_atom_site_label
_atom_site_type_symbol
_atom_site_fract_x
_atom_site_fract_y
_atom_site_fract_z
O1 O -0.78568(9) 0.10156(6) 0.4411(2)
O2 O -0.48766(8) 0.11424(6) 0.2701(2)
O3 O -0.53131(9) 0.27303(6) -0.0155(2)
O4 O -0.77940(8) 0.23398(6) 0.1957(2)
O5 O -0.85635(8) 0.41554(6) 0.2350(2)
C1 C -0.71753(11) 0.15168(8) 0.2408(3)
C2 C -0.58427(12) 0.17265(8) 0.3689(3)
C3 C -0.56288(11) 0.26658(8) 0.2824(3)
C4 C -0.69958(12) 0.30083(8) 0.3239(3)
C5 C -0.72630(12) 0.38689(9) 0.1835(3)
C6 C -0.89110(13) 0.05319(9) 0.3201(4)
H1 H -0.7176(16) 0.1255(10) 0.056(4)
H2 H -0.5883(15) 0.1701(11) 0.574(4)
H3 H -0.5015(16) 0.2960(12) 0.403(4)
H4 H -0.7167(16) 0.3051(11) 0.518(4)
H5 H -0.7102(15) 0.3848(10) -0.021(4)
H6 H -0.6656(15) 0.4287(10) 0.276(4)
H7 H -0.9582(17) 0.0933(12) 0.240(4)
H8 H -0.8648(18) 0.0138(13) 0.172(5)
H9 H -0.929(2) 0.0219(14) 0.478(5)
H10 H -0.4428(19) 0.1016(13) 0.414(5)
H11 H -0.457(2) 0.2661(14) -0.034(5)
H12 H -0.8976(19) 0.4048(13) 0.087(5)
loop_
_geom_bond_atom_site_label_1
_geom_bond_atom_site_label_2
_geom_bond_site_symmetry_1
_geom_bond_site_symmetry_2
O1 C1 1_555 1_555
O2 C2 1_555 1_555
O3 C3 1_555 1_555
O4 C1 1_555 1_555
O5 C5 1_555 1_555
C1 C2 1_555 1_555
C2 C3 1_555 1_555
C3 C4 1_555 1_555
C4 O4 1_555 1_555
C5 C4 1_555 1_555
C6 O1 1_555 1_555
H1 C1 1_555 1_555
H2 C2 1_555 1_555
H3 C3 1_555 1_555
H4 C4 1_555 1_555
H5 C5 1_555 1_555
H6 C5 1_555 1_555
H7 C6 1_555 1_555
H8 C6 1_555 1_555
H9 C6 1_555 1_555
H10 O2 1_555 1_555
H11 O3 1_555 1_555
H12 O5 1_555 1_555

#END
