
#######################################################################
#
#                 Cambridge Crystallographic Data Centre
#                                CCDC 
#
#######################################################################
#
# If this CIF has been generated from an entry in the Cambridge 
# Structural Database, then it will include bibliographic, chemical, 
# crystal, experimental, refinement or atomic coordinate data resulting 
# from the CCDC's data processing and validation procedures.
#
#######################################################################

data_JUQSUJ
_chemical_formula_moiety         'C6 H12 O5'
_chemical_name_systematic        'Methyl \a-D-xylofuranoside'
_symmetry_cell_setting           monoclinic
_symmetry_space_group_name_H-M   'P 21'
_symmetry_Int_Tables_number      4
_space_group_name_Hall           'P 2yb'
loop_
_symmetry_equiv_pos_site_id
_symmetry_equiv_pos_as_xyz
1 x,y,z
2 -x,1/2+y,-z
_cell_length_a                   6.2242(10)
_cell_length_b                   8.142(2)
_cell_length_c                   7.4196(10)
_cell_angle_alpha                90
_cell_angle_beta                 100.99(3)
_cell_angle_gamma                90
_cell_volume                     369.111
_exptl_crystal_colour            colorless
_exptl_crystal_description       prism
_chemical_melting_point          357K
_cell_formula_units_Z            2
_exptl_crystal_recrystallization_method acetonitrile
loop_
_atom_site_label
_atom_site_type_symbol
_atom_site_fract_x
_atom_site_fract_y
_atom_site_fract_z
O1 O 0.28887(19) 0.78415(14) 0.67247(16)
H1 H 0.173(4) 0.771(3) 0.688(3)
O2 O 0.14126(18) 0.19649(13) 0.74277(15)
O3 O 0.55594(17) 0.52845(13) 0.51901(16)
H2 H 0.607(4) 0.463(4) 0.454(4)
O4 O 0.15975(17) 0.28886(14) 0.38929(15)
H3 H 0.234(5) 0.219(4) 0.414(4)
O5 O 0.19607(18) 0.47084(14) 0.83826(15)
C1 C 0.0935(2) 0.36197(19) 0.6989(2)
H4 H -0.055(4) 0.377(3) 0.689(3)
C2 C 0.4121(2) 0.51510(18) 0.80788(19)
C3 C 0.4290(2) 0.70115(19) 0.8182(2)
C4 C 0.4329(2) 0.43340(17) 0.62446(19)
H5 H 0.494(4) 0.328(3) 0.638(3)
C5 C 0.1943(2) 0.40630(18) 0.53312(19)
C6 C 0.0248(3) 0.1348(2) 0.8770(2)
H6 H 0.065(4) 0.194(4) 0.998(4)
H7 H 0.059(4) 0.029(4) 0.897(4)
H8 H -0.132(4) 0.135(4) 0.827(4)
H9 H 0.127(3) 0.509(3) 0.487(3)
H10 H 0.572(3) 0.733(3) 0.808(3)
H11 H 0.518(4) 0.476(3) 0.915(3)
H12 H 0.405(5) 0.732(4) 0.936(4)
loop_
_geom_bond_atom_site_label_1
_geom_bond_atom_site_label_2
_geom_bond_site_symmetry_1
_geom_bond_site_symmetry_2
O1 H1 1_555 1_555
O2 C1 1_555 1_555
O3 H2 1_555 1_555
O4 H3 1_555 1_555
O5 C1 1_555 1_555
C1 H4 1_555 1_555
C2 O5 1_555 1_555
C3 O1 1_555 1_555
C4 O3 1_555 1_555
H5 C4 1_555 1_555
C5 O4 1_555 1_555
C6 O2 1_555 1_555
H6 C6 1_555 1_555
H7 C6 1_555 1_555
H8 C6 1_555 1_555
H9 C5 1_555 1_555
H10 C3 1_555 1_555
H11 C2 1_555 1_555
H12 C3 1_555 1_555
C1 C5 1_555 1_555
C2 C3 1_555 1_555
C2 C4 1_555 1_555
C4 C5 1_555 1_555

#END
