
#######################################################################
#
#                 Cambridge Crystallographic Data Centre
#                                CCDC 
#
#######################################################################
#
# If this CIF has been generated from an entry in the Cambridge 
# Structural Database, then it will include bibliographic, chemical, 
# crystal, experimental, refinement or atomic coordinate data resulting 
# from the CCDC's data processing and validation procedures.
#
#######################################################################

data_JURZED
_chemical_formula_moiety         'C10 H9 F3 N2 O1'
_chemical_name_systematic        2-phenyl-5-(trifluoromethyl)pyrazolidin-3-one
_symmetry_cell_setting           monoclinic
_symmetry_space_group_name_H-M   'P 21'
_symmetry_Int_Tables_number      4
_space_group_name_Hall           'P 2yb'
loop_
_symmetry_equiv_pos_site_id
_symmetry_equiv_pos_as_xyz
1 x,y,z
2 -x,1/2+y,-z
_cell_length_a                   9.0634(15)
_cell_length_b                   5.8062(11)
_cell_length_c                   9.8369(15)
_cell_angle_alpha                90
_cell_angle_beta                 90.567(12)
_cell_angle_gamma                90
_cell_volume                     517.631
_exptl_crystal_colour            colorless
_exptl_crystal_description       block
_cell_formula_units_Z            2
loop_
_atom_site_label
_atom_site_type_symbol
_atom_site_fract_x
_atom_site_fract_y
_atom_site_fract_z
F1 F 0.7287(4) 0.6924(8) 0.4344(3)
F2 F 0.5975(3) 0.4132(7) 0.5056(2)
F3 F 0.7949(3) 0.3456(8) 0.3961(2)
N1 N 0.6981(3) 0.3655(5) 0.0713(3)
N2 N 0.6871(4) 0.5581(5) 0.1608(3)
H1 H 0.7282 0.6905 0.1513
O1 O 0.5981(3) 0.0050(5) 0.0444(3)
C1 C 0.6111(4) 0.1870(7) 0.1050(4)
C2 C 0.5322(5) 0.2506(8) 0.2346(4)
H2 H 0.4264 0.2566 0.2196
H3 H 0.5535 0.1397 0.3059
C3 C 0.5919(4) 0.4854(7) 0.2719(3)
H4 H 0.5097 0.5941 0.2802
C4 C 0.6802(5) 0.4838(9) 0.4021(4)
C5 C 0.7877(4) 0.3925(6) -0.0461(3)
C6 C 0.8702(4) 0.5930(7) -0.0605(4)
H5 H 0.8683 0.7060 0.0064
C7 C 0.9549(4) 0.6229(9) -0.1751(4)
H6 H 1.0097 0.7571 -0.1851
C8 C 0.9593(5) 0.4567(10) -0.2746(4)
H7 H 1.0161 0.4786 -0.3517
C9 C 0.8792(6) 0.2587(10) -0.2589(4)
H8 H 0.8821 0.1458 -0.3259
C10 C 0.7945(5) 0.2245(8) -0.1453(4)
H9 H 0.7418 0.0882 -0.1353
loop_
_geom_bond_atom_site_label_1
_geom_bond_atom_site_label_2
_geom_bond_site_symmetry_1
_geom_bond_site_symmetry_2
F1 C4 1_555 1_555
F2 C4 1_555 1_555
F3 C4 1_555 1_555
N1 N2 1_555 1_555
N2 H1 1_555 1_555
O1 C1 1_555 1_555
C1 N1 1_555 1_555
C2 C1 1_555 1_555
H2 C2 1_555 1_555
H3 C2 1_555 1_555
C3 N2 1_555 1_555
H4 C3 1_555 1_555
C4 C3 1_555 1_555
C5 N1 1_555 1_555
C6 C5 1_555 1_555
H5 C6 1_555 1_555
C7 C6 1_555 1_555
H6 C7 1_555 1_555
C8 C7 1_555 1_555
H7 C8 1_555 1_555
C9 C8 1_555 1_555
H8 C9 1_555 1_555
C10 C5 1_555 1_555
H9 C10 1_555 1_555
C2 C3 1_555 1_555
C9 C10 1_555 1_555

#END
