
#######################################################################
#
#                 Cambridge Crystallographic Data Centre
#                                CCDC 
#
#######################################################################
#
# If this CIF has been generated from an entry in the Cambridge 
# Structural Database, then it will include bibliographic, chemical, 
# crystal, experimental, refinement or atomic coordinate data resulting 
# from the CCDC's data processing and validation procedures.
#
#######################################################################

data_JURZIH
_chemical_formula_moiety         'C17 H15 F3 N2 O1'
_chemical_name_systematic        
4-benzyl-2-phenyl-5-(trifluoromethyl)pyrazolidin-3-one
_symmetry_cell_setting           orthorhombic
_symmetry_space_group_name_H-M   'P 21 21 21'
_symmetry_Int_Tables_number      19
_space_group_name_Hall           'P 2ac 2ab'
loop_
_symmetry_equiv_pos_site_id
_symmetry_equiv_pos_as_xyz
1 x,y,z
2 1/2+x,1/2-y,-z
3 -x,1/2+y,1/2-z
4 1/2-x,-y,1/2+z
_cell_length_a                   5.74670(10)
_cell_length_b                   9.45740(10)
_cell_length_c                   27.5934(4)
_cell_angle_alpha                90
_cell_angle_beta                 90
_cell_angle_gamma                90
_cell_volume                     1499.67
_exptl_crystal_colour            colorless
_cell_formula_units_Z            4
loop_
_atom_site_label
_atom_site_type_symbol
_atom_site_fract_x
_atom_site_fract_y
_atom_site_fract_z
F1 F 0.4961(4) 0.2941(2) 0.00483(7)
F2 F 0.2972(5) 0.4778(2) 0.02161(8)
F3 F 0.6571(5) 0.4666(3) 0.04261(8)
N1 N 0.5733(4) 0.4389(2) 0.14956(8)
N2 N 0.3598(4) 0.4368(2) 0.12281(8)
H1 H 0.2396 0.4895 0.1272
O1 O 0.9090(3) 0.3070(2) 0.15537(8)
C1 C 0.7126(4) 0.3270(3) 0.13982(9)
C2 C 0.5773(5) 0.2274(2) 0.10710(10)
H2 H 0.6765 0.1885 0.0815
C3 C 0.3905(5) 0.3250(3) 0.08630(9)
H3 H 0.2446 0.2728 0.0821
C4 C 0.4612(6) 0.3922(3) 0.03891(11)
C5 C 0.6154(4) 0.5582(3) 0.17986(8)
C6 C 0.4532(5) 0.6661(3) 0.18163(10)
H4 H 0.3193 0.6623 0.1628
C7 C 0.4941(6) 0.7807(3) 0.21220(10)
H5 H 0.3850 0.8531 0.2138
C8 C 0.6909(6) 0.7891(3) 0.23980(10)
H6 H 0.7155 0.8668 0.2598
C9 C 0.8517(6) 0.6824(4) 0.23788(10)
H7 H 0.9866 0.6887 0.2564
C10 C 0.8157(5) 0.5648(3) 0.20861(10)
H8 H 0.9234 0.4914 0.2081
C11 C 0.4745(5) 0.1096(3) 0.13904(10)
H9 H 0.6020 0.0611 0.1550
H10 H 0.3804 0.1533 0.1641
C12 C 0.3275(5) 0.0004(3) 0.11345(9)
C13 C 0.1149(5) -0.0371(3) 0.13309(11)
H11 H 0.0580 0.0122 0.1597
C14 C -0.0152(6) -0.1477(3) 0.11367(12)
H12 H -0.1565 -0.1729 0.1277
C15 C 0.0656(7) -0.2191(3) 0.07382(12)
H13 H -0.0203 -0.2932 0.0607
C16 C 0.2759(7) -0.1803(4) 0.05315(11)
H14 H 0.3306 -0.2279 0.0260
C17 C 0.4052(7) -0.0707(3) 0.07284(10)
H15 H 0.5455 -0.0448 0.0586
loop_
_geom_bond_atom_site_label_1
_geom_bond_atom_site_label_2
_geom_bond_site_symmetry_1
_geom_bond_site_symmetry_2
F1 C4 1_555 1_555
F2 C4 1_555 1_555
F3 C4 1_555 1_555
N1 N2 1_555 1_555
N2 H1 1_555 1_555
O1 C1 1_555 1_555
C1 N1 1_555 1_555
C2 C1 1_555 1_555
H2 C2 1_555 1_555
C3 N2 1_555 1_555
H3 C3 1_555 1_555
C4 C3 1_555 1_555
C5 N1 1_555 1_555
C6 C5 1_555 1_555
H4 C6 1_555 1_555
C7 C6 1_555 1_555
H5 C7 1_555 1_555
C8 C7 1_555 1_555
H6 C8 1_555 1_555
C9 C8 1_555 1_555
H7 C9 1_555 1_555
C10 C5 1_555 1_555
H8 C10 1_555 1_555
C11 C2 1_555 1_555
H9 C11 1_555 1_555
H10 C11 1_555 1_555
C12 C11 1_555 1_555
C13 C12 1_555 1_555
H11 C13 1_555 1_555
C14 C13 1_555 1_555
H12 C14 1_555 1_555
C15 C14 1_555 1_555
H13 C15 1_555 1_555
C16 C15 1_555 1_555
H14 C16 1_555 1_555
C17 C12 1_555 1_555
H15 C17 1_555 1_555
C2 C3 1_555 1_555
C9 C10 1_555 1_555
C16 C17 1_555 1_555

#END
