
#######################################################################
#
#                 Cambridge Crystallographic Data Centre
#                                CCDC 
#
#######################################################################
#
# If this CIF has been generated from an entry in the Cambridge 
# Structural Database, then it will include bibliographic, chemical, 
# crystal, experimental, refinement or atomic coordinate data resulting 
# from the CCDC's data processing and validation procedures.
#
#######################################################################

data_JUSPUK
_chemical_formula_moiety         'C54 H68 S4 Si2'
_chemical_name_systematic        
((2,10-Di-t-butylthiochromeno[2'',3'':4',5']thieno[2',3':5,6][1]benzothieno[3,2-b]thiochromene-8,16-diyl)diethyne-2,1-diyl)bis(tri-isopropylsilane)
_symmetry_cell_setting           monoclinic
_symmetry_space_group_name_H-M   'P 21/n'
_symmetry_Int_Tables_number      14
_space_group_name_Hall           '-P 2yn'
loop_
_symmetry_equiv_pos_site_id
_symmetry_equiv_pos_as_xyz
1 x,y,z
2 1/2-x,1/2+y,1/2-z
3 -x,-y,-z
4 1/2+x,1/2-y,1/2+z
_cell_length_a                   6.9436(2)
_cell_length_b                   21.6735(6)
_cell_length_c                   33.9795(8)
_cell_angle_alpha                90
_cell_angle_beta                 94.3960(10)
_cell_angle_gamma                90
_cell_volume                     5098.6
_exptl_crystal_colour            'dark green'
_exptl_crystal_description       Needle
_cell_formula_units_Z            4
_chemical_properties_physical    
'Air-sensitive, Oxygen-sensitive, Light-sensitive, Photo-sensitive'
_exptl_crystal_preparation       'Magnetic properties'
loop_
_atom_site_label
_atom_site_type_symbol
_atom_site_fract_x
_atom_site_fract_y
_atom_site_fract_z
Si1 Si 0.72008(11) 0.53853(4) 0.77898(2)
S1 S 0.41006(9) 0.68004(4) 0.96591(2)
S2 S 0.52025(9) 0.50823(4) 0.90887(2)
C1 C 0.3910(4) 0.71907(15) 0.92038(8)
C2 C 0.3517(4) 0.78169(16) 0.92182(10)
H1 H 0.3380 0.8008 0.9466
C3 C 0.3323(4) 0.81672(15) 0.88780(10)
H2 H 0.3062 0.8596 0.8897
C4 C 0.3501(4) 0.79054(15) 0.85078(9)
C5 C 0.3930(4) 0.72813(14) 0.84988(8)
H3 H 0.4076 0.7094 0.8250
C6 C 0.4160(4) 0.69121(14) 0.88376(8)
C7 C 0.4635(4) 0.62614(14) 0.88023(8)
C8 C 0.4688(3) 0.58688(14) 0.91249(8)
C9 C 0.4450(3) 0.60412(14) 0.95200(8)
C10 C 0.4684(3) 0.55524(14) 0.97857(8)
C11 C 0.4566(3) 0.55576(15) 1.02018(7)
H4 H 0.4280 0.5926 1.0337
C12 C 0.4877(3) 0.50164(15) 1.04007(7)
C13 C 0.3140(5) 0.82686(15) 0.81216(11)
C14 C 0.5217(4) 0.60156(13) 0.84414(8)
C15 C 0.5848(4) 0.57750(13) 0.81570(8)
C16 C 0.1480(13) 0.7972(4) 0.7920(3)
H5 H 0.1086 0.8202 0.7679
H6 H 0.0414 0.7966 0.8093
H7 H 0.1816 0.7549 0.7852
C17 C 0.2765(14) 0.8926(4) 0.8250(2)
H8 H 0.2422 0.9181 0.8017
H9 H 0.3931 0.9092 0.8393
H10 H 0.1699 0.8929 0.8423
C18 C 0.5014(12) 0.8216(4) 0.7929(2)
H11 H 0.5257 0.7783 0.7868
H12 H 0.6070 0.8374 0.8109
H13 H 0.4934 0.8458 0.7685
C19 C 0.8832(9) 0.4790(3) 0.7998(2)
H14 H 0.9845 0.4711 0.7810
C20 C 0.9812(12) 0.4938(4) 0.8396(2)
H15 H 0.8835 0.5025 0.8582
H16 H 1.0642 0.5300 0.8374
H17 H 1.0598 0.4585 0.8491
C21 C 0.7647(10) 0.4193(3) 0.8038(2)
H18 H 0.8485 0.3869 0.8157
H19 H 0.7118 0.4059 0.7776
H20 H 0.6586 0.4272 0.8205
C22 C 0.5611(9) 0.5114(3) 0.73561(17)
H21 H 0.4864 0.4759 0.7456
C23 C 0.6723(10) 0.4848(3) 0.70244(18)
H22 H 0.5820 0.4644 0.6830
H23 H 0.7672 0.4547 0.7134
H24 H 0.7391 0.5182 0.6896
C24 C 0.4088(10) 0.5575(3) 0.71890(19)
H25 H 0.4701 0.5882 0.7028
H26 H 0.3504 0.5783 0.7407
H27 H 0.3085 0.5355 0.7026
C25 C 0.8740(9) 0.6091(3) 0.7571(2)
H28 H 0.9381 0.5978 0.7327
C26 C 1.0297(10) 0.6136(3) 0.7981(2)
H29 H 1.1562 0.5977 0.7920
H30 H 0.9801 0.5890 0.8192
H31 H 1.0425 0.6567 0.8065
C27 C 0.7614(11) 0.6701(4) 0.7533(2)
H32 H 0.7467 0.6871 0.7796
H33 H 0.6336 0.6626 0.7399
H34 H 0.8321 0.6996 0.7379
Si1B Si 0.27992(11) 0.46147(4) 1.22102(2)
S1B S 0.58994(9) 0.31996(4) 1.03409(2)
S2B S 0.47975(9) 0.49177(4) 1.09113(2)
C1B C 0.6090(4) 0.28093(15) 1.07962(8)
C2B C 0.6483(4) 0.21831(16) 1.07818(10)
H1B H 0.6620 0.1992 1.0534
C3B C 0.6677(4) 0.18328(15) 1.11220(10)
H2B H 0.6938 0.1404 1.1103
C4B C 0.6499(4) 0.20946(15) 1.14922(9)
C5B C 0.6070(4) 0.27187(14) 1.15012(8)
H3B H 0.5924 0.2906 1.1750
C6B C 0.5840(4) 0.30879(14) 1.11624(8)
C7B C 0.5365(4) 0.37386(14) 1.11977(8)
C8B C 0.5312(3) 0.41312(14) 1.08751(8)
C9B C 0.5550(3) 0.39588(14) 1.04800(8)
C10B C 0.5316(3) 0.44476(14) 1.02143(8)
C11B C 0.5434(3) 0.44424(15) 0.97982(7)
H4B H 0.5720 0.4074 0.9663
C12B C 0.5123(3) 0.49836(15) 0.95993(7)
C13B C 0.6860(5) 0.17314(15) 1.18784(11)
C14B C 0.4783(4) 0.39844(13) 1.15586(8)
C15B C 0.4152(4) 0.42250(13) 1.18430(8)
C16B C 0.8520(13) 0.2028(4) 1.2080(3)
H5B H 0.8914 0.1798 1.2321
H6B H 0.9586 0.2034 1.1907
H7B H 0.8184 0.2451 1.2148
C17B C 0.7235(14) 0.1074(4) 1.1750(2)
H8B H 0.7578 0.0819 1.1983
H9B H 0.6069 0.0908 1.1607
H10B H 0.8301 0.1071 1.1577
C18B C 0.4986(12) 0.1784(4) 1.2071(2)
H11B H 0.4743 0.2217 1.2132
H12B H 0.3930 0.1626 1.1891
H13B H 0.5066 0.1542 1.2315
C19B C 0.1168(9) 0.5210(3) 1.2002(2)
H14B H 0.0155 0.5289 1.2190
C20B C 0.0188(12) 0.5062(4) 1.1604(2)
H15B H 0.1165 0.4975 1.1418
H16B H -0.0642 0.4700 1.1626
H17B H -0.0598 0.5415 1.1509
C21B C 0.2353(10) 0.5807(3) 1.1962(2)
H18B H 0.1515 0.6131 1.1843
H19B H 0.2882 0.5941 1.2224
H20B H 0.3414 0.5728 1.1795
C22B C 0.4389(9) 0.4886(3) 1.26439(17)
H21B H 0.5136 0.5241 1.2544
C23B C 0.3277(10) 0.5152(3) 1.29756(18)
H22B H 0.4180 0.5356 1.3170
H23B H 0.2328 0.5453 1.2866
H24B H 0.2609 0.4818 1.3104
C24B C 0.5912(10) 0.4425(3) 1.28110(19)
H25B H 0.5299 0.4118 1.2972
H26B H 0.6496 0.4217 1.2593
H27B H 0.6915 0.4645 1.2974
C25B C 0.1260(9) 0.3909(3) 1.2429(2)
H28B H 0.0619 0.4022 1.2673
C26B C -0.0297(10) 0.3864(3) 1.2019(2)
H29B H -0.1562 0.4023 1.2080
H30B H 0.0199 0.4110 1.1808
H31B H -0.0425 0.3433 1.1935
C27B C 0.2386(11) 0.3299(4) 1.2467(2)
H32B H 0.2533 0.3129 1.2204
H33B H 0.3664 0.3374 1.2601
H34B H 0.1679 0.3004 1.2621
S3 S 0.43051(8) 0.85177(3) 0.42543(2)
S4 S 0.41860(9) 0.88360(3) 0.55005(2)
C28 C 0.3892(3) 0.77215(11) 0.43167(7)
C29 C 0.3742(4) 0.73710(12) 0.39717(8)
H35 H 0.3835 0.7567 0.3724
C30 C 0.3459(4) 0.67382(12) 0.39881(8)
H36 H 0.3347 0.6506 0.3750
C31 C 0.3335(4) 0.64360(12) 0.43482(8)
C32 C 0.3426(4) 0.67956(12) 0.46861(8)
H37 H 0.3307 0.6598 0.4933
C33 C 0.3686(3) 0.74377(12) 0.46814(7)
C34 C 0.3678(3) 0.77850(11) 0.50479(7)
C35 C 0.4095(3) 0.84081(11) 0.50622(7)
C36 C 0.4436(3) 0.87887(11) 0.47361(7)
C37 C 0.4750(3) 0.94093(11) 0.48358(7)
C38 C 0.5115(3) 0.99110(11) 0.45832(7)
H38 H 0.5195 0.9852 0.4308
C39 C 0.5346(3) 1.04815(11) 0.47505(7)
C40 C 0.3181(4) 0.57291(13) 0.43755(8)
C41 C 0.3037(4) 0.75011(12) 0.53933(8)
C42 C 0.2321(4) 0.72939(15) 0.56760(9)
C43 C 0.5163(11) 0.5501(3) 0.4551(2)
H39 H 0.5472 0.5697 0.4808
H40 H 0.6153 0.5609 0.4372
H41 H 0.5127 0.5052 0.4584
C44 C 0.2836(10) 0.5437(3) 0.39531(19)
H42 H 0.2718 0.4989 0.3977
H43 H 0.3928 0.5536 0.3798
H44 H 0.1645 0.5605 0.3821
C45 C 0.1565(10) 0.5570(3) 0.4618(2)
H45 H 0.1493 0.5121 0.4647
H46 H 0.0349 0.5724 0.4489
H47 H 0.1785 0.5761 0.4879
Si2 Si 0.0839(3) 0.69033(10) 0.60150(5)
C46 C -0.1175(12) 0.6447(4) 0.5738(2)
H48 H -0.0666 0.6019 0.5707
C47 C -0.1732(10) 0.6685(3) 0.5321(2)
H49 H -0.2690 0.6408 0.5189
H50 H -0.0581 0.6700 0.5172
H51 H -0.2282 0.7100 0.5337
C48 C -0.2972(9) 0.6384(3) 0.5962(2)
H52 H -0.3615 0.6786 0.5973
H53 H -0.2606 0.6241 0.6232
H54 H -0.3854 0.6085 0.5828
C49 C 0.2381(10) 0.6361(3) 0.63288(19)
H55 H 0.3401 0.6619 0.6472
C50 C 0.3428(10) 0.5888(3) 0.6100(2)
H56 H 0.4222 0.5628 0.6285
H57 H 0.4257 0.6098 0.5922
H58 H 0.2486 0.5631 0.5947
C51 C 0.1263(10) 0.6047(3) 0.6648(2)
H59 H 0.0257 0.5780 0.6522
H60 H 0.0665 0.6363 0.6805
H61 H 0.2156 0.5799 0.6820
C52 C -0.0138(10) 0.7560(3) 0.63043(19)
H62 H -0.1120 0.7386 0.6474
C53 C -0.1157(11) 0.8031(4) 0.6026(2)
H63 H -0.1821 0.8335 0.6181
H64 H -0.2101 0.7819 0.5844
H65 H -0.0202 0.8240 0.5875
C54 C 0.1432(10) 0.7855(3) 0.6572(2)
H66 H 0.2349 0.8065 0.6412
H67 H 0.2109 0.7536 0.6734
H68 H 0.0858 0.8155 0.6744
S3B S 0.56949(8) 1.14823(3) 0.57457(2)
S4B S 0.58140(9) 1.11640(3) 0.44995(2)
C28B C 0.6108(3) 1.22785(11) 0.56833(7)
C29B C 0.6258(4) 1.26290(12) 0.60283(8)
H35B H 0.6165 1.2433 0.6276
C30B C 0.6541(4) 1.32618(12) 0.60119(8)
H36B H 0.6653 1.3494 0.6250
C31B C 0.6665(4) 1.35640(12) 0.56518(8)
C32B C 0.6574(4) 1.32044(12) 0.53139(8)
H37B H 0.6693 1.3402 0.5067
C33B C 0.6314(3) 1.25623(12) 0.53186(7)
C34B C 0.6322(3) 1.22150(11) 0.49521(7)
C35B C 0.5905(3) 1.15919(11) 0.49378(7)
C36B C 0.5564(3) 1.12113(11) 0.52639(7)
C37B C 0.5250(3) 1.05907(11) 0.51642(7)
C38B C 0.4885(3) 1.00890(11) 0.54168(7)
H38B H 0.4805 1.0148 0.5692
C39B C 0.4654(3) 0.95185(11) 0.52495(7)
C40B C 0.6819(4) 1.42709(13) 0.56245(8)
C41B C 0.6963(4) 1.24989(12) 0.46067(8)
C42B C 0.7679(4) 1.27061(15) 0.43240(9)
C43B C 0.4837(11) 1.4499(3) 0.5449(2)
H39B H 0.4528 1.4303 0.5192
H40B H 0.3847 1.4391 0.5628
H41B H 0.4873 1.4948 0.5416
C44B C 0.7164(10) 1.4563(3) 0.60469(19)
H42B H 0.7282 1.5011 0.6023
H43B H 0.6072 1.4464 0.6202
H44B H 0.8355 1.4395 0.6179
C45B C 0.8435(10) 1.4430(3) 0.5382(2)
H45B H 0.8507 1.4879 0.5353
H46B H 0.9651 1.4276 0.5511
H47B H 0.8215 1.4239 0.5121
Si2B Si 0.9161(3) 1.30967(10) 0.39850(5)
C46B C 1.1175(12) 1.3553(4) 0.4262(2)
H48B H 1.0666 1.3981 0.4293
C47B C 1.1732(10) 1.3315(3) 0.4679(2)
H49B H 1.2690 1.3592 0.4811
H50B H 1.0581 1.3300 0.4828
H51B H 1.2282 1.2900 0.4663
C48B C 1.2972(9) 1.3616(3) 0.4038(2)
H52B H 1.3615 1.3214 0.4027
H53B H 1.2606 1.3759 0.3768
H54B H 1.3854 1.3915 0.4172
C49B C 0.7619(10) 1.3639(3) 0.36712(19)
H55B H 0.6599 1.3381 0.3528
C50B C 0.6572(10) 1.4112(3) 0.3900(2)
H56B H 0.5778 1.4372 0.3715
H57B H 0.5743 1.3902 0.4078
H58B H 0.7514 1.4369 0.4053
C51B C 0.8737(10) 1.3953(3) 0.3352(2)
H59B H 0.9743 1.4220 0.3478
H60B H 0.9335 1.3637 0.3195
H61B H 0.7844 1.4201 0.3180
C52B C 1.0138(10) 1.2440(3) 0.36957(19)
H62B H 1.1120 1.2614 0.3526
C53B C 1.1157(11) 1.1969(4) 0.3974(2)
H63B H 1.1821 1.1665 0.3819
H64B H 1.2101 1.2181 0.4156
H65B H 1.0202 1.1760 0.4125
C54B C 0.8568(10) 1.2145(3) 0.3428(2)
H66B H 0.7651 1.1935 0.3588
H67B H 0.7891 1.2464 0.3266
H68B H 0.9142 1.1845 0.3256
C55? C 0.0908(13) 0.8258(5) 0.7958(3)
H69? H 0.0751 0.8485 0.7708
H70? H 0.0121 0.8451 0.8151
H71? H 0.0490 0.7829 0.7914
C56? C 0.3661(15) 0.8969(4) 0.8122(3)
H72? H 0.3304 0.9144 0.7861
H73? H 0.5053 0.9019 0.8186
H74? H 0.2953 0.9183 0.8320
C57? C 0.4123(15) 0.8005(4) 0.7749(2)
H75? H 0.3587 0.7597 0.7682
H76? H 0.5520 0.7970 0.7812
H77? H 0.3868 0.8285 0.7525
C58? C 0.9727(9) 0.5431(3) 0.79688(19)
H78? H 1.0341 0.5128 0.7795
C59? C 1.0630(10) 0.6208(4) 0.7778(2)
H79? H 1.1607 0.6380 0.7971
H80? H 0.9543 0.6496 0.7740
H81? H 1.1199 0.6144 0.7526
C60? C 1.0251(11) 0.5167(4) 0.8380(2)
H82? H 1.1629 0.5232 0.8452
H83? H 0.9968 0.4724 0.8381
H84? H 0.9491 0.5376 0.8572
C61? C 0.6300(9) 0.4511(3) 0.7901(2)
H85? H 0.6709 0.4427 0.8184
C62? C 0.7318(10) 0.4037(3) 0.7663(2)
H86? H 0.6955 0.3621 0.7744
H87? H 0.8719 0.4089 0.7709
H88? H 0.6937 0.4094 0.7381
C63? C 0.4131(9) 0.4444(3) 0.7860(2)
H89? H 0.3643 0.4562 0.7592
H90? H 0.3559 0.4713 0.8051
H91? H 0.3782 0.4015 0.7909
C64? C 0.6445(10) 0.5597(3) 0.72901(18)
H92? H 0.5215 0.5375 0.7210
C65? C 0.7960(10) 0.5411(3) 0.70096(18)
H93? H 0.7507 0.5523 0.6739
H94? H 0.8171 0.4964 0.7025
H95? H 0.9175 0.5626 0.7084
C66? C 0.6068(10) 0.6296(3) 0.7258(2)
H96? H 0.7287 0.6519 0.7312
H97? H 0.5159 0.6418 0.7451
H98? H 0.5519 0.6395 0.6991
C67? C 0.5099(11) 0.5442(3) 0.4303(3)
H99? H 0.6104 0.5611 0.4491
H100? H 0.5417 0.5536 0.4033
H101? H 0.5024 0.4994 0.4337
C68? C 0.1607(13) 0.5475(3) 0.4085(2)
H102? H 0.1610 0.5023 0.4098
H103? H 0.1846 0.5606 0.3817
H104? H 0.0349 0.5631 0.4152
C69? C 0.2673(13) 0.5486(3) 0.4796(2)
H105? H 0.1448 0.5667 0.4863
H106? H 0.3702 0.5604 0.4995
H107? H 0.2554 0.5035 0.4788
Si3? Si 0.0796(3) 0.71716(10) 0.61164(6)
C70? C -0.0274(9) 0.6383(3) 0.60023(19)
H108? H -0.1124 0.6274 0.6216
C71? C 0.1302(10) 0.5883(3) 0.5992(2)
H109? H 0.0694 0.5480 0.5939
H110? H 0.2061 0.5871 0.6247
H111? H 0.2152 0.5980 0.5783
C72? C -0.1538(12) 0.6397(4) 0.5606(2)
H112? H -0.0732 0.6501 0.5392
H113? H -0.2556 0.6707 0.5621
H114? H -0.2127 0.5990 0.5557
C73? C 0.2461(10) 0.7154(3) 0.65764(18)
H115? H 0.3311 0.6785 0.6552
C74? C 0.3810(10) 0.7707(3) 0.6625(2)
H116? H 0.3054 0.8080 0.6670
H117? H 0.4497 0.7759 0.6386
H118? H 0.4746 0.7640 0.6852
C75? C 0.1396(10) 0.7049(3) 0.69488(19)
H119? H 0.2338 0.7003 0.7177
H120? H 0.0611 0.6674 0.6918
H121? H 0.0558 0.7403 0.6990
C76? C -0.1249(11) 0.7765(3) 0.6094(2)
H122? H -0.1827 0.7761 0.5815
C77? C -0.0529(10) 0.8427(3) 0.6173(2)
H123? H -0.1614 0.8715 0.6132
H124? H 0.0456 0.8529 0.5992
H125? H 0.0030 0.8460 0.6446
C78? C -0.2882(10) 0.7603(3) 0.6349(2)
H126? H -0.2378 0.7579 0.6626
H127? H -0.3439 0.7204 0.6266
H128? H -0.3882 0.7923 0.6320
loop_
_geom_bond_atom_site_label_1
_geom_bond_atom_site_label_2
_geom_bond_site_symmetry_1
_geom_bond_site_symmetry_2
Si1 C15 1_555 1_555
S1 C1 1_555 1_555
S2 C8 1_555 1_555
C1 C2 1_555 1_555
C2 H1 1_555 1_555
C3 C2 1_555 1_555
H2 C3 1_555 1_555
C4 C3 1_555 1_555
C5 C4 1_555 1_555
H3 C5 1_555 1_555
C6 C1 1_555 1_555
C7 C6 1_555 1_555
C8 C7 1_555 1_555
C9 S1 1_555 1_555
C10 C9 1_555 1_555
C11 C10 1_555 1_555
H4 C11 1_555 1_555
C12 C11 1_555 1_555
C13 C4 1_555 1_555
C14 C7 1_555 1_555
C15 C14 1_555 1_555
C16 C13 1_555 1_555
H5 C16 1_555 1_555
H6 C16 1_555 1_555
H7 C16 1_555 1_555
C17 C13 1_555 1_555
H8 C17 1_555 1_555
H9 C17 1_555 1_555
H10 C17 1_555 1_555
C18 C13 1_555 1_555
H11 C18 1_555 1_555
H12 C18 1_555 1_555
H13 C18 1_555 1_555
C19 Si1 1_555 1_555
H14 C19 1_555 1_555
C20 C19 1_555 1_555
H15 C20 1_555 1_555
H16 C20 1_555 1_555
H17 C20 1_555 1_555
C21 C19 1_555 1_555
H18 C21 1_555 1_555
H19 C21 1_555 1_555
H20 C21 1_555 1_555
C22 Si1 1_555 1_555
H21 C22 1_555 1_555
C23 C22 1_555 1_555
H22 C23 1_555 1_555
H23 C23 1_555 1_555
H24 C23 1_555 1_555
C24 C22 1_555 1_555
H25 C24 1_555 1_555
H26 C24 1_555 1_555
H27 C24 1_555 1_555
C25 Si1 1_555 1_555
H28 C25 1_555 1_555
C26 C25 1_555 1_555
H29 C26 1_555 1_555
H30 C26 1_555 1_555
H31 C26 1_555 1_555
C27 C25 1_555 1_555
H32 C27 1_555 1_555
H33 C27 1_555 1_555
H34 C27 1_555 1_555
S3 C28 1_555 1_555
S4 C35 1_555 1_555
C28 C29 1_555 1_555
C29 H35 1_555 1_555
C30 C29 1_555 1_555
H36 C30 1_555 1_555
C31 C30 1_555 1_555
C32 C31 1_555 1_555
H37 C32 1_555 1_555
C33 C28 1_555 1_555
C34 C33 1_555 1_555
C35 C34 1_555 1_555
C36 S3 1_555 1_555
C37 C36 1_555 1_555
C38 C37 1_555 1_555
H38 C38 1_555 1_555
C39 C38 1_555 1_555
C40 C31 1_555 1_555
C41 C34 1_555 1_555
C42 C41 1_555 1_555
C43 C40 1_555 1_555
H39 C43 1_555 1_555
H40 C43 1_555 1_555
H41 C43 1_555 1_555
C44 C40 1_555 1_555
H42 C44 1_555 1_555
H43 C44 1_555 1_555
H44 C44 1_555 1_555
C45 C40 1_555 1_555
H45 C45 1_555 1_555
H46 C45 1_555 1_555
H47 C45 1_555 1_555
Si2 C42 1_555 1_555
C46 Si2 1_555 1_555
H48 C46 1_555 1_555
C47 C46 1_555 1_555
H49 C47 1_555 1_555
H50 C47 1_555 1_555
H51 C47 1_555 1_555
C48 C46 1_555 1_555
H52 C48 1_555 1_555
H53 C48 1_555 1_555
H54 C48 1_555 1_555
C49 Si2 1_555 1_555
H55 C49 1_555 1_555
C50 C49 1_555 1_555
H56 C50 1_555 1_555
H57 C50 1_555 1_555
H58 C50 1_555 1_555
C51 C49 1_555 1_555
H59 C51 1_555 1_555
H60 C51 1_555 1_555
H61 C51 1_555 1_555
C52 Si2 1_555 1_555
H62 C52 1_555 1_555
C53 C52 1_555 1_555
H63 C53 1_555 1_555
H64 C53 1_555 1_555
H65 C53 1_555 1_555
C54 C52 1_555 1_555
H66 C54 1_555 1_555
H67 C54 1_555 1_555
H68 C54 1_555 1_555
Si1B C15B 1_555 1_555
S1B C1B 1_555 1_555
S2B C12 1_555 1_555
C1B C2B 1_555 1_555
C2B H1B 1_555 1_555
C3B C2B 1_555 1_555
H2B C3B 1_555 1_555
C4B C3B 1_555 1_555
C5B C4B 1_555 1_555
H3B C5B 1_555 1_555
C6B C1B 1_555 1_555
C7B C6B 1_555 1_555
C8B S2B 1_555 1_555
C9B S1B 1_555 1_555
C10B C12 1_555 1_555
C11B C10B 1_555 1_555
H4B C11B 1_555 1_555
C12B S2 1_555 1_555
C13B C4B 1_555 1_555
C14B C7B 1_555 1_555
C15B C14B 1_555 1_555
C16B C13B 1_555 1_555
H5B C16B 1_555 1_555
H6B C16B 1_555 1_555
H7B C16B 1_555 1_555
C17B C13B 1_555 1_555
H8B C17B 1_555 1_555
H9B C17B 1_555 1_555
H10B C17B 1_555 1_555
C18B C13B 1_555 1_555
H11B C18B 1_555 1_555
H12B C18B 1_555 1_555
H13B C18B 1_555 1_555
C19B Si1B 1_555 1_555
H14B C19B 1_555 1_555
C20B C19B 1_555 1_555
H15B C20B 1_555 1_555
H16B C20B 1_555 1_555
H17B C20B 1_555 1_555
C21B C19B 1_555 1_555
H18B C21B 1_555 1_555
H19B C21B 1_555 1_555
H20B C21B 1_555 1_555
C22B Si1B 1_555 1_555
H21B C22B 1_555 1_555
C23B C22B 1_555 1_555
H22B C23B 1_555 1_555
H23B C23B 1_555 1_555
H24B C23B 1_555 1_555
C24B C22B 1_555 1_555
H25B C24B 1_555 1_555
H26B C24B 1_555 1_555
H27B C24B 1_555 1_555
C25B Si1B 1_555 1_555
H28B C25B 1_555 1_555
C26B C25B 1_555 1_555
H29B C26B 1_555 1_555
H30B C26B 1_555 1_555
H31B C26B 1_555 1_555
C27B C25B 1_555 1_555
H32B C27B 1_555 1_555
H33B C27B 1_555 1_555
H34B C27B 1_555 1_555
S3B C28B 1_555 1_555
S4B C39 1_555 1_555
C28B C29B 1_555 1_555
C29B H35B 1_555 1_555
C30B C29B 1_555 1_555
H36B C30B 1_555 1_555
C31B C30B 1_555 1_555
C32B C31B 1_555 1_555
H37B C32B 1_555 1_555
C33B C28B 1_555 1_555
C34B C33B 1_555 1_555
C35B S4B 1_555 1_555
C36B S3B 1_555 1_555
C37B C39 1_555 1_555
C38B C37B 1_555 1_555
H38B C38B 1_555 1_555
C39B S4 1_555 1_555
C40B C31B 1_555 1_555
C41B C34B 1_555 1_555
C42B C41B 1_555 1_555
C43B C40B 1_555 1_555
H39B C43B 1_555 1_555
H40B C43B 1_555 1_555
H41B C43B 1_555 1_555
C44B C40B 1_555 1_555
H42B C44B 1_555 1_555
H43B C44B 1_555 1_555
H44B C44B 1_555 1_555
C45B C40B 1_555 1_555
H45B C45B 1_555 1_555
H46B C45B 1_555 1_555
H47B C45B 1_555 1_555
Si2B C42B 1_555 1_555
C46B Si2B 1_555 1_555
H48B C46B 1_555 1_555
C47B C46B 1_555 1_555
H49B C47B 1_555 1_555
H50B C47B 1_555 1_555
H51B C47B 1_555 1_555
C48B C46B 1_555 1_555
H52B C48B 1_555 1_555
H53B C48B 1_555 1_555
H54B C48B 1_555 1_555
C49B Si2B 1_555 1_555
H55B C49B 1_555 1_555
C50B C49B 1_555 1_555
H56B C50B 1_555 1_555
H57B C50B 1_555 1_555
H58B C50B 1_555 1_555
C51B C49B 1_555 1_555
H59B C51B 1_555 1_555
H60B C51B 1_555 1_555
H61B C51B 1_555 1_555
C52B Si2B 1_555 1_555
H62B C52B 1_555 1_555
C53B C52B 1_555 1_555
H63B C53B 1_555 1_555
H64B C53B 1_555 1_555
H65B C53B 1_555 1_555
C54B C52B 1_555 1_555
H66B C54B 1_555 1_555
H67B C54B 1_555 1_555
H68B C54B 1_555 1_555
C5 C6 1_555 1_555
C8 C9 1_555 1_555
C10 C12B 1_555 1_555
C32 C33 1_555 1_555
C35 C36 1_555 1_555
C37 C39B 1_555 1_555
C5B C6B 1_555 1_555
C7B C8B 1_555 1_555
C8B C9B 1_555 1_555
C9B C10B 1_555 1_555
C11B C12B 1_555 1_555
C32B C33B 1_555 1_555
C34B C35B 1_555 1_555
C35B C36B 1_555 1_555
C36B C37B 1_555 1_555
C38B C39B 1_555 1_555

#END
