
#######################################################################
#
#                 Cambridge Crystallographic Data Centre
#                                CCDC 
#
#######################################################################
#
# If this CIF has been generated from an entry in the Cambridge 
# Structural Database, then it will include bibliographic, chemical, 
# crystal, experimental, refinement or atomic coordinate data resulting 
# from the CCDC's data processing and validation procedures.
#
#######################################################################

data_JUSPIY
_chemical_formula_moiety         'C50 H66 S4 Si2'
_chemical_name_systematic        
((2,9-Di-t-butylthiochromeno[2'',3'':4',5']thieno[2',3':4,5]thieno[3,2-b]thiochromene-7,14-diyl)diethyne-2,1-diyl)bis(tri-isopropylsilane)
_symmetry_cell_setting           triclinic
_symmetry_space_group_name_H-M   'P -1'
_symmetry_Int_Tables_number      2
_space_group_name_Hall           '-P 1'
loop_
_symmetry_equiv_pos_site_id
_symmetry_equiv_pos_as_xyz
1 x,y,z
2 -x,-y,-z
_cell_length_a                   7.4217(4)
_cell_length_b                   19.0953(11)
_cell_length_c                   19.1877(16)
_cell_angle_alpha                63.238(2)
_cell_angle_beta                 89.851(3)
_cell_angle_gamma                79.162(2)
_cell_volume                     2374.22
_exptl_crystal_colour            yellow
_exptl_crystal_description       rod
_cell_formula_units_Z            2
_chemical_properties_physical    
'Air-sensitive, Oxygen-sensitive, Light-sensitive, Photo-sensitive'
_exptl_crystal_preparation       'Magnetic properties'
loop_
_atom_site_label
_atom_site_type_symbol
_atom_site_fract_x
_atom_site_fract_y
_atom_site_fract_z
S1 S 0.8809(2) 0.60017(7) 0.01571(8)
S2 S 1.0050(2) 0.34804(8) 0.18040(8)
Si1 Si 0.5063(3) 0.73735(9) 0.17598(9)
C1 C 0.8940(9) 0.5147(3) 0.1076(3)
C2 C 0.9779(8) 0.4426(3) 0.1005(3)
C3 C 0.9171(8) 0.3703(4) 0.2558(3)
C4 C 0.9200(11) 0.3015(4) 0.3293(4)
H1 H 0.9547 0.2492 0.3334
C5 C 0.8721(11) 0.3114(4) 0.3941(4)
H2 H 0.8741 0.2653 0.4427
C6 C 0.8207(11) 0.3871(4) 0.3906(4)
C7 C 0.8070(10) 0.4532(4) 0.3169(4)
H3 H 0.7632 0.5052 0.3123
C8 C 0.8551(10) 0.4461(4) 0.2491(3)
C9 C 0.8353(9) 0.5186(3) 0.1720(3)
C10 C 0.7460(9) 0.5928(3) 0.1707(3)
C11 C 0.6663(10) 0.6535(4) 0.1718(3)
C12 C 0.9786(9) 0.5418(3) -0.0271(4)
C13 C 0.7824(9) 0.3998(4) 0.4631(3)
C14 C 0.9541(15) 0.3627(8) 0.5216(7)
H4 H 0.9288 0.3717 0.5674
H5 H 1.0564 0.3877 0.4966
H6 H 0.9873 0.3049 0.5382
C15 C 0.733(2) 0.4886(5) 0.4437(6)
H7 H 0.6159 0.5139 0.4105
H8 H 0.8302 0.5154 0.4159
H9 H 0.7203 0.4933 0.4924
C16 C 0.6254(17) 0.3615(8) 0.5047(7)
H10 H 0.6621 0.3031 0.5262
H11 H 0.5161 0.3814 0.4673
H12 H 0.5971 0.3754 0.5474
C17 C 0.2703(12) 0.7133(4) 0.1807(4)
H13 H 0.1802 0.7579 0.1833
C18 C 0.2616(13) 0.6345(4) 0.2545(4)
H14 H 0.1418 0.6207 0.2522
H15 H 0.2776 0.6416 0.3015
H16 H 0.3600 0.5912 0.2566
C19 C 0.2141(11) 0.7080(4) 0.1066(4)
H17 H 0.2184 0.7585 0.0602
H18 H 0.0887 0.6983 0.1088
H19 H 0.2994 0.6638 0.1035
C20 C 0.5184(11) 0.8302(3) 0.0820(4)
H20 H 0.4885 0.8190 0.0377
C21 C 0.3700(11) 0.9026(4) 0.0743(4)
H21 H 0.2477 0.8943 0.0651
H22 H 0.3915 0.9516 0.0302
H23 H 0.3769 0.9077 0.1227
C22 C 0.7103(12) 0.8515(4) 0.0718(5)
H24 H 0.8007 0.8065 0.0725
H25 H 0.7455 0.8621 0.1147
H26 H 0.7066 0.8993 0.0216
C23 C 0.5707(13) 0.7404(5) 0.2698(4)
H27 H 0.5636 0.6865 0.3129
C24 C 0.7721(16) 0.7483(9) 0.2780(7)
H28 H 0.8449 0.7307 0.2440
H29 H 0.8239 0.7148 0.3326
H30 H 0.7750 0.8044 0.2627
C25 C 0.4343(17) 0.7996(6) 0.2856(5)
H31 H 0.4561 0.7886 0.3402
H32 H 0.3088 0.7946 0.2759
H33 H 0.4492 0.8542 0.2507
S1A S 1.1191(2) 0.39983(7) -0.01571(8)
S2A S 0.9950(2) 0.65196(8) -0.18040(8)
Si1A Si 1.4937(3) 0.26265(9) -0.17598(9)
C1A C 1.1060(9) 0.4853(3) -0.1076(3)
C2A C 1.0221(8) 0.5574(3) -0.1005(3)
C3A C 1.0829(8) 0.6297(4) -0.2558(3)
C4A C 1.0800(11) 0.6985(4) -0.3293(4)
H1A H 1.0453 0.7508 -0.3334
C5A C 1.1279(11) 0.6886(4) -0.3941(4)
H2A H 1.1259 0.7347 -0.4427
C6A C 1.1793(11) 0.6129(4) -0.3906(4)
C7A C 1.1930(10) 0.5468(4) -0.3169(4)
H3A H 1.2368 0.4948 -0.3123
C8A C 1.1449(10) 0.5539(4) -0.2491(3)
C9A C 1.1647(9) 0.4814(3) -0.1720(3)
C10A C 1.2540(9) 0.4072(3) -0.1707(3)
C11A C 1.3337(10) 0.3465(4) -0.1718(3)
C12A C 1.0214(9) 0.4582(3) 0.0271(4)
C13A C 1.2176(9) 0.6002(4) -0.4631(3)
C14A C 1.0459(15) 0.6373(8) -0.5216(7)
H4A H 1.0712 0.6283 -0.5674
H5A H 0.9436 0.6123 -0.4966
H6A H 1.0127 0.6951 -0.5382
C15A C 1.267(2) 0.5114(5) -0.4437(6)
H7A H 1.3841 0.4861 -0.4105
H8A H 1.1698 0.4846 -0.4159
H9A H 1.2797 0.5067 -0.4924
C16A C 1.3746(17) 0.6385(8) -0.5047(7)
H10A H 1.3379 0.6969 -0.5262
H11A H 1.4839 0.6186 -0.4673
H12A H 1.4029 0.6246 -0.5474
C17A C 1.7297(12) 0.2867(4) -0.1807(4)
H13A H 1.8198 0.2421 -0.1833
C18A C 1.7384(13) 0.3655(4) -0.2545(4)
H14A H 1.8582 0.3793 -0.2522
H15A H 1.7224 0.3584 -0.3015
H16A H 1.6400 0.4088 -0.2566
C19A C 1.7859(11) 0.2920(4) -0.1066(4)
H17A H 1.7816 0.2415 -0.0602
H18A H 1.9113 0.3017 -0.1088
H19A H 1.7006 0.3362 -0.1035
C20A C 1.4816(11) 0.1698(3) -0.0820(4)
H20A H 1.5115 0.1810 -0.0377
C21A C 1.6300(11) 0.0974(4) -0.0743(4)
H21A H 1.7523 0.1057 -0.0651
H22A H 1.6085 0.0484 -0.0302
H23A H 1.6231 0.0923 -0.1227
C22A C 1.2897(12) 0.1485(4) -0.0718(5)
H24A H 1.1993 0.1935 -0.0725
H25A H 1.2545 0.1379 -0.1147
H26A H 1.2934 0.1007 -0.0216
C23A C 1.4293(13) 0.2596(5) -0.2698(4)
H27A H 1.4364 0.3135 -0.3129
C24A C 1.2279(16) 0.2517(9) -0.2780(7)
H28A H 1.1551 0.2693 -0.2440
H29A H 1.1761 0.2852 -0.3326
H30A H 1.2250 0.1956 -0.2627
C25A C 1.5657(17) 0.2004(6) -0.2856(5)
H31A H 1.5439 0.2114 -0.3402
H32A H 1.6912 0.2054 -0.2759
H33A H 1.5508 0.1458 -0.2507
S3 S 0.6219(2) 0.37975(7) 0.03054(8)
S4 S 0.3628(2) 0.48445(7) 0.17289(8)
Si2 Si 0.9065(2) 0.08671(8) 0.20596(9)
C29 C 0.5353(8) 0.3816(3) 0.1150(3)
C30 C 0.4488(8) 0.4619(3) 0.1009(3)
C31 C 0.3904(9) 0.3895(3) 0.2549(3)
C32 C 0.3234(10) 0.3888(3) 0.3215(3)
H43 H 0.2690 0.4381 0.3214
C33 C 0.3336(9) 0.3171(3) 0.3898(3)
H44 H 0.2827 0.3186 0.4347
C34 C 0.4158(9) 0.2439(3) 0.3939(3)
C35 C 0.4835(9) 0.2458(3) 0.3252(3)
H45 H 0.5381 0.1963 0.3259
C36 C 0.4757(8) 0.3170(3) 0.2547(3)
C37 C 0.5539(9) 0.3141(3) 0.1865(3)
C38 C 0.6591(9) 0.2393(3) 0.1919(3)
C39 C 0.7527(10) 0.1773(3) 0.1981(3)
C40 C 0.5480(9) 0.4827(3) -0.0235(3)
C41 C 0.4291(10) 0.1628(3) 0.4665(3)
C42 C 0.3259(12) 0.1740(4) 0.5322(4)
H46 H 0.3679 0.2153 0.5410
H47 H 0.3513 0.1232 0.5807
H48 H 0.1931 0.1906 0.5165
C43 C 0.3449(12) 0.1069(4) 0.4468(4)
H49 H 0.2169 0.1322 0.4248
H50 H 0.3481 0.0566 0.4945
H51 H 0.4152 0.0956 0.4084
C44 C 0.6316(11) 0.1265(4) 0.4978(4)
H52 H 0.6404 0.0777 0.5475
H53 H 0.6863 0.1652 0.5062
H54 H 0.6980 0.1132 0.4596
C45 C 1.1390(10) 0.1101(3) 0.1837(3)
H55 H 1.2170 0.0634 0.1799
C46 C 1.1280(11) 0.1838(4) 0.1035(4)
H56 H 1.0615 0.2317 0.1063
H57 H 1.0628 0.1763 0.0638
H58 H 1.2529 0.1903 0.0891
C47 C 1.2401(11) 0.1233(4) 0.2445(4)
H59 H 1.3422 0.1494 0.2214
H60 H 1.2884 0.0715 0.2900
H61 H 1.1545 0.1575 0.2610
C48 C 0.9015(10) 0.0044(3) 0.3075(4)
H62 H 0.7755 -0.0076 0.3098
C49 C 1.0350(13) -0.0734(4) 0.3266(4)
H63 H 1.0057 -0.0936 0.2902
H64 H 1.0251 -0.1129 0.3804
H65 H 1.1609 -0.0640 0.3215
C50 C 0.9252(14) 0.0289(4) 0.3727(4)
H66 H 0.9177 -0.0161 0.4237
H67 H 0.8274 0.0751 0.3641
H68 H 1.0455 0.0432 0.3717
C51 C 0.8127(10) 0.0628(3) 0.1296(4)
H69 H 0.7788 0.1144 0.0802
C52 C 0.6387(12) 0.0307(5) 0.1521(5)
H70 H 0.5737 0.0346 0.1057
H71 H 0.5590 0.0623 0.1732
H72 H 0.6706 -0.0255 0.1920
C53 C 0.9548(10) 0.0046(4) 0.1105(4)
H73 H 0.9839 -0.0483 0.1565
H74 H 1.0675 0.0256 0.0965
H75 H 0.9028 -0.0004 0.0664
S3A S 0.3781(2) 0.62025(7) -0.03054(8)
S4A S 0.6372(2) 0.51555(7) -0.17289(8)
Si2A Si 0.0935(2) 0.91329(8) -0.20596(9)
C29A C 0.4647(8) 0.6184(3) -0.1150(3)
C30A C 0.5512(8) 0.5381(3) -0.1009(3)
C31A C 0.6096(9) 0.6105(3) -0.2549(3)
C32A C 0.6766(10) 0.6112(3) -0.3215(3)
H43A H 0.7310 0.5619 -0.3214
C33A C 0.6664(9) 0.6829(3) -0.3898(3)
H44A H 0.7173 0.6814 -0.4347
C34A C 0.5842(9) 0.7561(3) -0.3939(3)
C35A C 0.5165(9) 0.7542(3) -0.3252(3)
H45A H 0.4619 0.8037 -0.3259
C36A C 0.5243(8) 0.6830(3) -0.2547(3)
C37A C 0.4461(9) 0.6859(3) -0.1865(3)
C38A C 0.3409(9) 0.7607(3) -0.1919(3)
C39A C 0.2473(10) 0.8227(3) -0.1981(3)
C40A C 0.4520(9) 0.5173(3) 0.0235(3)
C41A C 0.5709(10) 0.8372(3) -0.4665(3)
C42A C 0.6741(12) 0.8260(4) -0.5322(4)
H46A H 0.6321 0.7847 -0.5410
H47A H 0.6487 0.8768 -0.5807
H48A H 0.8069 0.8094 -0.5165
C43A C 0.6551(12) 0.8931(4) -0.4468(4)
H49A H 0.7831 0.8678 -0.4248
H50A H 0.6519 0.9434 -0.4945
H51A H 0.5848 0.9044 -0.4084
C44A C 0.3684(11) 0.8735(4) -0.4978(4)
H52A H 0.3596 0.9223 -0.5475
H53A H 0.3137 0.8348 -0.5062
H54A H 0.3020 0.8868 -0.4596
C45A C -0.1390(10) 0.8899(3) -0.1837(3)
H55A H -0.2170 0.9366 -0.1799
C46A C -0.1280(11) 0.8162(4) -0.1035(4)
H56A H -0.0615 0.7683 -0.1063
H57A H -0.0628 0.8237 -0.0638
H58A H -0.2529 0.8097 -0.0891
C47A C -0.2401(11) 0.8767(4) -0.2445(4)
H59A H -0.3422 0.8506 -0.2214
H60A H -0.2884 0.9285 -0.2900
H61A H -0.1545 0.8425 -0.2610
C48A C 0.0985(10) 0.9956(3) -0.3075(4)
H62A H 0.2245 1.0076 -0.3098
C49A C -0.0350(13) 1.0734(4) -0.3266(4)
H63A H -0.0057 1.0936 -0.2902
H64A H -0.0251 1.1129 -0.3804
H65A H -0.1609 1.0640 -0.3215
C50A C 0.0748(14) 0.9711(4) -0.3727(4)
H66A H 0.0823 1.0161 -0.4237
H67A H 0.1726 0.9249 -0.3641
H68A H -0.0455 0.9568 -0.3717
C51A C 0.1873(10) 0.9372(3) -0.1296(4)
H69A H 0.2212 0.8856 -0.0802
C52A C 0.3613(12) 0.9693(5) -0.1521(5)
H70A H 0.4263 0.9654 -0.1057
H71A H 0.4410 0.9377 -0.1732
H72A H 0.3294 1.0255 -0.1920
C53A C 0.0452(10) 0.9954(4) -0.1105(4)
H73A H 0.0161 1.0483 -0.1565
H74A H -0.0675 0.9744 -0.0965
H75A H 0.0972 1.0004 -0.0664
C26? C 0.915(3) 0.4404(12) 0.4845(15)
H34? H 1.0372 0.4048 0.5015
H35? H 0.8703 0.4518 0.5271
H36? H 0.9233 0.4906 0.4386
C27? C 0.5869(16) 0.4480(12) 0.4521(14)
H37? H 0.5603 0.4542 0.4993
H38? H 0.4995 0.4198 0.4429
H39? H 0.5753 0.5010 0.4069
C28? C 0.793(3) 0.3166(7) 0.5316(9)
H40? H 0.9016 0.2796 0.5296
H41? H 0.6817 0.2974 0.5279
H42? H 0.8024 0.3195 0.5811
loop_
_geom_bond_atom_site_label_1
_geom_bond_atom_site_label_2
_geom_bond_site_symmetry_1
_geom_bond_site_symmetry_2
S1 C1 1_555 1_555
S2 C2 1_555 1_555
Si1 C11 1_555 1_555
C1 C2 1_555 1_555
C2 C12A 1_555 1_555
C3 S2 1_555 1_555
C4 C3 1_555 1_555
H1 C4 1_555 1_555
C5 C4 1_555 1_555
H2 C5 1_555 1_555
C6 C5 1_555 1_555
C7 C6 1_555 1_555
H3 C7 1_555 1_555
C8 C3 1_555 1_555
C9 C1 1_555 1_555
C10 C9 1_555 1_555
C11 C10 1_555 1_555
C12 S1 1_555 1_555
C13 C6 1_555 1_555
C14 C13 1_555 1_555
H4 C14 1_555 1_555
H5 C14 1_555 1_555
H6 C14 1_555 1_555
C15 C13 1_555 1_555
H7 C15 1_555 1_555
H8 C15 1_555 1_555
H9 C15 1_555 1_555
C16 C13 1_555 1_555
H10 C16 1_555 1_555
H11 C16 1_555 1_555
H12 C16 1_555 1_555
C17 Si1 1_555 1_555
H13 C17 1_555 1_555
C18 C17 1_555 1_555
H14 C18 1_555 1_555
H15 C18 1_555 1_555
H16 C18 1_555 1_555
C19 C17 1_555 1_555
H17 C19 1_555 1_555
H18 C19 1_555 1_555
H19 C19 1_555 1_555
C20 Si1 1_555 1_555
H20 C20 1_555 1_555
C21 C20 1_555 1_555
H21 C21 1_555 1_555
H22 C21 1_555 1_555
H23 C21 1_555 1_555
C22 C20 1_555 1_555
H24 C22 1_555 1_555
H25 C22 1_555 1_555
H26 C22 1_555 1_555
C23 Si1 1_555 1_555
H27 C23 1_555 1_555
C24 C23 1_555 1_555
H28 C24 1_555 1_555
H29 C24 1_555 1_555
H30 C24 1_555 1_555
C25 C23 1_555 1_555
H31 C25 1_555 1_555
H32 C25 1_555 1_555
H33 C25 1_555 1_555
S3 C29 1_555 1_555
S4 C30 1_555 1_555
Si2 C39 1_555 1_555
C29 C30 1_555 1_555
C30 C40A 1_555 1_555
C31 S4 1_555 1_555
C32 C31 1_555 1_555
H43 C32 1_555 1_555
C33 C32 1_555 1_555
H44 C33 1_555 1_555
C34 C33 1_555 1_555
C35 C34 1_555 1_555
H45 C35 1_555 1_555
C36 C31 1_555 1_555
C37 C29 1_555 1_555
C38 C37 1_555 1_555
C39 C38 1_555 1_555
C40 S3 1_555 1_555
C41 C34 1_555 1_555
C42 C41 1_555 1_555
H46 C42 1_555 1_555
H47 C42 1_555 1_555
H48 C42 1_555 1_555
C43 C41 1_555 1_555
H49 C43 1_555 1_555
H50 C43 1_555 1_555
H51 C43 1_555 1_555
C44 C41 1_555 1_555
H52 C44 1_555 1_555
H53 C44 1_555 1_555
H54 C44 1_555 1_555
C45 Si2 1_555 1_555
H55 C45 1_555 1_555
C46 C45 1_555 1_555
H56 C46 1_555 1_555
H57 C46 1_555 1_555
H58 C46 1_555 1_555
C47 C45 1_555 1_555
H59 C47 1_555 1_555
H60 C47 1_555 1_555
H61 C47 1_555 1_555
C48 Si2 1_555 1_555
H62 C48 1_555 1_555
C49 C48 1_555 1_555
H63 C49 1_555 1_555
H64 C49 1_555 1_555
H65 C49 1_555 1_555
C50 C48 1_555 1_555
H66 C50 1_555 1_555
H67 C50 1_555 1_555
H68 C50 1_555 1_555
C51 Si2 1_555 1_555
H69 C51 1_555 1_555
C52 C51 1_555 1_555
H70 C52 1_555 1_555
H71 C52 1_555 1_555
H72 C52 1_555 1_555
C53 C51 1_555 1_555
H73 C53 1_555 1_555
H74 C53 1_555 1_555
H75 C53 1_555 1_555
S1A C1A 1_555 1_555
S2A C2A 1_555 1_555
Si1A C11A 1_555 1_555
C1A C2A 1_555 1_555
C2A C12 1_555 1_555
C3A S2A 1_555 1_555
C4A C3A 1_555 1_555
H1A C4A 1_555 1_555
C5A C4A 1_555 1_555
H2A C5A 1_555 1_555
C6A C5A 1_555 1_555
C7A C6A 1_555 1_555
H3A C7A 1_555 1_555
C8A C3A 1_555 1_555
C9A C1A 1_555 1_555
C10A C9A 1_555 1_555
C11A C10A 1_555 1_555
C12A C12 1_555 1_555
C13A C6A 1_555 1_555
C14A C13A 1_555 1_555
H4A C14A 1_555 1_555
H5A C14A 1_555 1_555
H6A C14A 1_555 1_555
C15A C13A 1_555 1_555
H7A C15A 1_555 1_555
H8A C15A 1_555 1_555
H9A C15A 1_555 1_555
C16A C13A 1_555 1_555
H10A C16A 1_555 1_555
H11A C16A 1_555 1_555
H12A C16A 1_555 1_555
C17A Si1A 1_555 1_555
H13A C17A 1_555 1_555
C18A C17A 1_555 1_555
H14A C18A 1_555 1_555
H15A C18A 1_555 1_555
H16A C18A 1_555 1_555
C19A C17A 1_555 1_555
H17A C19A 1_555 1_555
H18A C19A 1_555 1_555
H19A C19A 1_555 1_555
C20A Si1A 1_555 1_555
H20A C20A 1_555 1_555
C21A C20A 1_555 1_555
H21A C21A 1_555 1_555
H22A C21A 1_555 1_555
H23A C21A 1_555 1_555
C22A C20A 1_555 1_555
H24A C22A 1_555 1_555
H25A C22A 1_555 1_555
H26A C22A 1_555 1_555
C23A Si1A 1_555 1_555
H27A C23A 1_555 1_555
C24A C23A 1_555 1_555
H28A C24A 1_555 1_555
H29A C24A 1_555 1_555
H30A C24A 1_555 1_555
C25A C23A 1_555 1_555
H31A C25A 1_555 1_555
H32A C25A 1_555 1_555
H33A C25A 1_555 1_555
S3A C29A 1_555 1_555
S4A C30A 1_555 1_555
Si2A C39A 1_555 1_555
C29A C30A 1_555 1_555
C30A C40 1_555 1_555
C31A S4A 1_555 1_555
C32A C31A 1_555 1_555
H43A C32A 1_555 1_555
C33A C32A 1_555 1_555
H44A C33A 1_555 1_555
C34A C33A 1_555 1_555
C35A C34A 1_555 1_555
H45A C35A 1_555 1_555
C36A C31A 1_555 1_555
C37A C29A 1_555 1_555
C38A C37A 1_555 1_555
C39A C38A 1_555 1_555
C40A C40 1_555 1_555
C41A C34A 1_555 1_555
C42A C41A 1_555 1_555
H46A C42A 1_555 1_555
H47A C42A 1_555 1_555
H48A C42A 1_555 1_555
C43A C41A 1_555 1_555
H49A C43A 1_555 1_555
H50A C43A 1_555 1_555
H51A C43A 1_555 1_555
C44A C41A 1_555 1_555
H52A C44A 1_555 1_555
H53A C44A 1_555 1_555
H54A C44A 1_555 1_555
C45A Si2A 1_555 1_555
H55A C45A 1_555 1_555
C46A C45A 1_555 1_555
H56A C46A 1_555 1_555
H57A C46A 1_555 1_555
H58A C46A 1_555 1_555
C47A C45A 1_555 1_555
H59A C47A 1_555 1_555
H60A C47A 1_555 1_555
H61A C47A 1_555 1_555
C48A Si2A 1_555 1_555
H62A C48A 1_555 1_555
C49A C48A 1_555 1_555
H63A C49A 1_555 1_555
H64A C49A 1_555 1_555
H65A C49A 1_555 1_555
C50A C48A 1_555 1_555
H66A C50A 1_555 1_555
H67A C50A 1_555 1_555
H68A C50A 1_555 1_555
C51A Si2A 1_555 1_555
H69A C51A 1_555 1_555
C52A C51A 1_555 1_555
H70A C52A 1_555 1_555
H71A C52A 1_555 1_555
H72A C52A 1_555 1_555
C53A C51A 1_555 1_555
H73A C53A 1_555 1_555
H74A C53A 1_555 1_555
H75A C53A 1_555 1_555
C7 C8 1_555 1_555
C8 C9 1_555 1_555
C35 C36 1_555 1_555
C36 C37 1_555 1_555
S1A C12A 1_555 1_555
C7A C8A 1_555 1_555
C8A C9A 1_555 1_555
S3A C40A 1_555 1_555
C35A C36A 1_555 1_555
C36A C37A 1_555 1_555

#END
