
#######################################################################
#
#                 Cambridge Crystallographic Data Centre
#                                CCDC 
#
#######################################################################
#
# If this CIF has been generated from an entry in the Cambridge 
# Structural Database, then it will include bibliographic, chemical, 
# crystal, experimental, refinement or atomic coordinate data resulting 
# from the CCDC's data processing and validation procedures.
#
#######################################################################

data_JUSVAU
_chemical_formula_moiety         'C12 H16 O3'
_chemical_name_systematic        
1R*,2S*,4S*,8R*-2-Hydroxy-4-methoxytricyclo(6.3.0.0^1,5^)undec-5-en-7-one
_symmetry_cell_setting           orthorhombic
_symmetry_space_group_name_H-M   'P b c a'
_symmetry_Int_Tables_number      61
_space_group_name_Hall           '-P 2ac 2ab'
loop_
_symmetry_equiv_pos_site_id
_symmetry_equiv_pos_as_xyz
1 x,y,z
2 1/2-x,-y,1/2+z
3 1/2+x,1/2-y,-z
4 -x,1/2+y,1/2-z
5 -x,-y,-z
6 1/2+x,y,1/2-z
7 1/2-x,1/2+y,z
8 x,1/2-y,1/2+z
_cell_length_a                   7.628(1)
_cell_length_b                   16.578(1)
_cell_length_c                   17.213(2)
_cell_angle_alpha                90
_cell_angle_beta                 90
_cell_angle_gamma                90
_cell_volume                     2176.7
_exptl_crystal_colour            colorless
_chemical_melting_point          128-129deg.C
_cell_formula_units_Z            8
loop_
_atom_site_label
_atom_site_type_symbol
_atom_site_fract_x
_atom_site_fract_y
_atom_site_fract_z
C1 C 0.1862(7) 0.3532(4) 0.4092(3)
C2 C 0.2928(8) 0.3252(4) 0.3365(4)
C3 C 0.2013(10) 0.2512(5) 0.3061(4)
C4 C 0.1357(9) 0.2089(4) 0.3785(4)
C5 C 0.0716(8) 0.2800(4) 0.4287(4)
C6 C -0.1143(9) 0.3082(4) 0.4053(4)
C7 C -0.1086(9) 0.3943(4) 0.3871(4)
C8 C 0.0578(8) 0.4200(4) 0.3914(4)
C9 C 0.1451(8) 0.5006(4) 0.3934(3)
C10 C 0.3151(9) 0.4818(4) 0.4389(4)
C11 C 0.3015(8) 0.3966(4) 0.4700(4)
C12 C 0.0540(11) 0.5494(4) 0.2716(5)
O1 O -0.2420(6) 0.2638(3) 0.4016(2)
O2 O 0.1972(6) 0.5274(3) 0.3189(2)
O3 O 0.2235(6) 0.3983(2) 0.5448(2)
H1 H 0.213(7) 0.356(3) 0.565(3)
H2 H -0.017(7) 0.496(3) 0.264(3)
H3 H 0.092(7) 0.578(3) 0.227(3)
H4 H 0.013(7) 0.601(3) 0.293(3)
loop_
_geom_bond_atom_site_label_1
_geom_bond_atom_site_label_2
_geom_bond_site_symmetry_1
_geom_bond_site_symmetry_2
C1 C2 1_555 1_555
C2 C3 1_555 1_555
C3 C4 1_555 1_555
C4 C5 1_555 1_555
C5 C1 1_555 1_555
C6 C5 1_555 1_555
C7 C6 1_555 1_555
C8 C1 1_555 1_555
C9 C8 1_555 1_555
C10 C9 1_555 1_555
C11 C1 1_555 1_555
C12 O2 1_555 1_555
O1 C6 1_555 1_555
O2 C9 1_555 1_555
O3 C11 1_555 1_555
H1 O3 1_555 1_555
H2 C12 1_555 1_555
H3 C12 1_555 1_555
H4 C12 1_555 1_555
C7 C8 1_555 1_555
C10 C11 1_555 1_555

#END
