
#######################################################################
#
#                 Cambridge Crystallographic Data Centre
#                                CCDC 
#
#######################################################################
#
# If this CIF has been generated from an entry in the Cambridge 
# Structural Database, then it will include bibliographic, chemical, 
# crystal, experimental, refinement or atomic coordinate data resulting 
# from the CCDC's data processing and validation procedures.
#
#######################################################################

data_JUSXOK
_chemical_formula_moiety         'C39 H22 O4,C1 H2 Cl2,C4 H10 O1'
_chemical_name_systematic        
'7,4,6:11,12,14:18,19,21-Tri(1,3)butadien-1-yl-4-ylidene-8H-tribenzo(b,d,i)(1,6,11)trioxacyclo-octadecin-9(10H)-one dichloromethane diethyl ether clathrate'
_symmetry_cell_setting           monoclinic
_symmetry_space_group_name_H-M   'P 21/n'
_symmetry_Int_Tables_number      14
_space_group_name_Hall           '-P 2yn'
loop_
_symmetry_equiv_pos_site_id
_symmetry_equiv_pos_as_xyz
1 x,y,z
2 1/2-x,1/2+y,1/2-z
3 -x,-y,-z
4 1/2+x,1/2-y,1/2+z
_cell_length_a                   16.280(2)
_cell_length_b                   23.417(4)
_cell_length_c                   16.735(2)
_cell_angle_alpha                90
_cell_angle_beta                 102.715(4)
_cell_angle_gamma                90
_cell_volume                     6223.41
_exptl_crystal_colour            colorless
_chemical_melting_point          'above 300deg.C'
_cell_formula_units_Z            8
loop_
_atom_site_label
_atom_site_type_symbol
_atom_site_fract_x
_atom_site_fract_y
_atom_site_fract_z
O5 O 0.4607(25) -0.0289(18) 0.0807(24)
C40 C 0.3494(27) 0.0197(17) 0.1660(24)
C41 C 0.4116(36) -0.0005(24) 0.1231(34)
C42 C 0.4999(29) -0.0819(24) 0.0349(31)
C43 C 0.4948(31) -0.1395(23) -0.0508(34)
C44 C 0.2989(14) -0.0656(10) 0.7654(13)
C45 C 0.2141(19) -0.0780(14) 0.7113(17)
O6 O 0.2002(11) -0.1279(9) 0.6842(11)
C46 C 0.1434(13) -0.0348(9) 0.6920(13)
C47 C 0.1338(12) -0.0079(9) 0.6080(13)
C48 C 0.1670(13) -0.0311(9) 0.5440(14)
C49 C 0.1465(14) -0.0039(10) 0.4666(14)
C50 C 0.0955(13) 0.0447(9) 0.4469(13)
C51 C 0.0641(12) 0.0665(9) 0.5168(12)
C52 C 0.0832(12) 0.0383(9) 0.5894(12)
O7 O 0.0463(8) 0.0642(5) 0.6474(7)
C53 C -0.0015(13) 0.1077(9) 0.6057(13)
C54 C 0.0081(12) 0.1117(9) 0.5271(12)
C55 C -0.0381(15) 0.1542(11) 0.4718(14)
C56 C -0.0878(16) 0.1876(11) 0.5068(17)
C57 C -0.0987(15) 0.1868(11) 0.5898(16)
C58 C -0.0510(13) 0.1419(9) 0.6413(13)
C59 C -0.0626(14) 0.1333(9) 0.7250(14)
C60 C -0.1448(15) 0.1294(10) 0.7387(15)
C61 C -0.1512(15) 0.1201(10) 0.8214(16)
C62 C -0.0859(14) 0.1156(9) 0.8898(13)
C63 C -0.0027(13) 0.1228(8) 0.8724(12)
C64 C 0.0040(14) 0.1316(9) 0.7916(13)
O8 O 0.0867(8) 0.1393(5) 0.7891(8)
C65 C 0.1318(13) 0.1336(8) 0.8689(12)
C66 C 0.0781(13) 0.1242(8) 0.9181(12)
C67 C 0.1138(14) 0.1168(10) 1.0040(14)
C68 C 0.2035(16) 0.1236(10) 1.0343(14)
C69 C 0.2528(13) 0.1347(9) 0.9763(14)
C70 C 0.2165(12) 0.1422(8) 0.8945(12)
C71 C 0.2712(12) 0.1582(9) 0.8395(12)
C72 C 0.2946(13) 0.2158(9) 0.8291(12)
C73 C 0.3530(12) 0.2323(8) 0.7777(12)
C74 C 0.3894(11) 0.1911(9) 0.7361(11)
C75 C 0.3616(11) 0.1344(9) 0.7415(11)
C76 C 0.3074(11) 0.1202(8) 0.7911(11)
O9 O 0.2919(8) 0.0621(6) 0.7917(8)
C77 C 0.3389(12) 0.0369(9) 0.7382(12)
C78 C 0.3833(12) 0.0801(9) 0.7094(12)
C79 C 0.4315(13) 0.0660(10) 0.6491(13)
C80 C 0.4339(13) 0.0058(10) 0.6324(13)
C81 C 0.3928(14) -0.0353(10) 0.6671(14)
C82 C 0.3432(13) -0.0217(10) 0.7236(13)
C1 C 0.6606(16) 0.2192(11) 0.4827(17)
C2 C 0.5896(19) 0.2166(12) 0.4169(19)
O1 O 0.5916(11) 0.1979(8) 0.3458(12)
C3 C 0.5047(18) 0.2409(12) 0.4264(16)
C4 C 0.4402(16) 0.1928(11) 0.4390(14)
C5 C 0.4460(17) 0.1342(13) 0.4173(16)
C6 C 0.3820(15) 0.0944(10) 0.4285(14)
C7 C 0.3202(13) 0.1073(10) 0.4674(13)
C8 C 0.3225(14) 0.1654(10) 0.4963(13)
C9 C 0.3810(14) 0.2041(11) 0.4792(14)
O2 O 0.3723(9) 0.2578(6) 0.5111(8)
C10 C 0.3036(13) 0.2541(9) 0.5476(12)
C11 C 0.2729(14) 0.1974(9) 0.5419(13)
C12 C 0.2032(14) 0.1886(10) 0.5765(14)
C13 C 0.1678(13) 0.2315(11) 0.6122(13)
C14 C 0.2030(15) 0.2869(10) 0.6194(14)
C15 C 0.2753(13) 0.3000(10) 0.5824(13)
C16 C 0.3107(15) 0.3585(10) 0.5853(13)
C17 C 0.2547(14) 0.4032(11) 0.5415(14)
C18 C 0.3023(15) 0.4590(10) 0.5488(14)
C19 C 0.3787(14) 0.4718(10) 0.5869(13)
C20 C 0.4242(13) 0.4277(10) 0.6253(12)
C21 C 0.3897(14) 0.3712(9) 0.6234(12)
O3 O 0.4481(9) 0.3329(6) 0.6671(8)
C22 C 0.5238(16) 0.3645(11) 0.6988(14)
C23 C 0.5047(15) 0.4218(10) 0.6730(13)
C24 C 0.5756(16) 0.4606(11) 0.7011(14)
C25 C 0.6494(15) 0.4389(11) 0.7441(15)
C26 C 0.6649(15) 0.3838(11) 0.7698(14)
C27 C 0.5945(14) 0.3427(10) 0.7461(13)
C28 C 0.6011(13) 0.2842(11) 0.7733(15)
C29 C 0.6020(15) 0.2687(12) 0.8542(16)
C30 C 0.6052(15) 0.2125(12) 0.8809(15)
C31 C 0.6127(15) 0.1666(11) 0.8293(16)
C32 C 0.6183(14) 0.1827(11) 0.7486(15)
C33 C 0.6127(13) 0.2380(10) 0.7257(14)
O4 O 0.6195(8) 0.2416(6) 0.6449(8)
C34 C 0.6333(14) 0.1852(11) 0.6174(15)
C35 C 0.6290(13) 0.1471(11) 0.6783(14)
C36 C 0.6435(15) 0.0874(11) 0.6655(16)
C37 C 0.6577(14) 0.0758(10) 0.5903(16)
C38 C 0.6665(14) 0.1144(12) 0.5300(15)
C39 C 0.6495(15) 0.1716(12) 0.5415(16)
Cl1? Cl 0.3458(14) 0.1989(10) 0.2147(14)
Cl2? Cl 0.4744(16) 0.1601(11) 0.1336(17)
C83? C 0.4182(15) 0.1663(10) 0.1876(14)
loop_
_geom_bond_atom_site_label_1
_geom_bond_atom_site_label_2
_geom_bond_site_symmetry_1
_geom_bond_site_symmetry_2
C1 C2 1_555 1_555
C2 O1 1_555 1_555
C3 C2 1_555 1_555
C4 C3 1_555 1_555
C5 C4 1_555 1_555
C6 C5 1_555 1_555
C7 C6 1_555 1_555
C8 C7 1_555 1_555
C9 C4 1_555 1_555
O2 C9 1_555 1_555
C10 O2 1_555 1_555
C11 C8 1_555 1_555
C12 C11 1_555 1_555
C13 C12 1_555 1_555
C14 C13 1_555 1_555
C15 C10 1_555 1_555
C16 C15 1_555 1_555
C17 C16 1_555 1_555
C18 C17 1_555 1_555
C19 C18 1_555 1_555
C20 C19 1_555 1_555
C21 C16 1_555 1_555
O3 C21 1_555 1_555
C22 O3 1_555 1_555
C23 C20 1_555 1_555
C24 C23 1_555 1_555
C25 C24 1_555 1_555
C26 C25 1_555 1_555
C27 C22 1_555 1_555
C28 C27 1_555 1_555
C29 C28 1_555 1_555
C30 C29 1_555 1_555
C31 C30 1_555 1_555
C32 C31 1_555 1_555
C33 C28 1_555 1_555
O4 C33 1_555 1_555
C34 O4 1_555 1_555
C35 C32 1_555 1_555
C36 C35 1_555 1_555
C37 C36 1_555 1_555
C38 C37 1_555 1_555
C39 C1 1_555 1_555
O5 C41 1_555 1_555
C40 C41 1_555 1_555
C42 O5 1_555 1_555
C43 C42 1_555 1_555
C44 C45 1_555 1_555
C45 O6 1_555 1_555
C46 C45 1_555 1_555
C47 C46 1_555 1_555
C48 C47 1_555 1_555
C49 C48 1_555 1_555
C50 C49 1_555 1_555
C51 C50 1_555 1_555
C52 C47 1_555 1_555
O7 C52 1_555 1_555
C53 O7 1_555 1_555
C54 C51 1_555 1_555
C55 C54 1_555 1_555
C56 C55 1_555 1_555
C57 C56 1_555 1_555
C58 C53 1_555 1_555
C59 C58 1_555 1_555
C60 C59 1_555 1_555
C61 C60 1_555 1_555
C62 C61 1_555 1_555
C63 C62 1_555 1_555
C64 C59 1_555 1_555
O8 C64 1_555 1_555
C65 O8 1_555 1_555
C66 C63 1_555 1_555
C67 C66 1_555 1_555
C68 C67 1_555 1_555
C69 C68 1_555 1_555
C70 C65 1_555 1_555
C71 C70 1_555 1_555
C72 C71 1_555 1_555
C73 C72 1_555 1_555
C74 C73 1_555 1_555
C75 C74 1_555 1_555
C76 C71 1_555 1_555
O9 C76 1_555 1_555
C77 O9 1_555 1_555
C78 C75 1_555 1_555
C79 C78 1_555 1_555
C80 C79 1_555 1_555
C81 C80 1_555 1_555
C82 C44 1_555 1_555
C8 C9 1_555 1_555
C10 C11 1_555 1_555
C14 C15 1_555 1_555
C20 C21 1_555 1_555
C22 C23 1_555 1_555
C26 C27 1_555 1_555
C32 C33 1_555 1_555
C34 C35 1_555 1_555
C34 C39 1_555 1_555
C38 C39 1_555 1_555
C51 C52 1_555 1_555
C53 C54 1_555 1_555
C57 C58 1_555 1_555
C63 C64 1_555 1_555
C65 C66 1_555 1_555
C69 C70 1_555 1_555
C75 C76 1_555 1_555
C77 C78 1_555 1_555
C77 C82 1_555 1_555
C81 C82 1_555 1_555

#END
