
#######################################################################
#
#                 Cambridge Crystallographic Data Centre
#                                CCDC 
#
#######################################################################
#
# If this CIF has been generated from an entry in the Cambridge 
# Structural Database, then it will include bibliographic, chemical, 
# crystal, experimental, refinement or atomic coordinate data resulting 
# from the CCDC's data processing and validation procedures.
#
#######################################################################

data_JUSZII
_chemical_formula_moiety         'C50 H60 N2 O14'
_chemical_name_systematic        
4,4'-bis(2,3,5,6,8,9,11,12,14,15,17,18-Dodecahydro-1,4,7,10,13,16,19-benzoheptaoxacyclohenicosin-21-ylethynyl)-2,2'-bipyridine
_symmetry_cell_setting           monoclinic
_symmetry_space_group_name_H-M   'P 21/c'
_symmetry_Int_Tables_number      14
_space_group_name_Hall           '-P 2ybc'
loop_
_symmetry_equiv_pos_site_id
_symmetry_equiv_pos_as_xyz
1 x,y,z
2 -x,1/2+y,1/2-z
3 -x,-y,-z
4 x,1/2-y,1/2+z
_cell_length_a                   23.070(4)
_cell_length_b                   4.7745(5)
_cell_length_c                   20.5571(18)
_cell_angle_alpha                90
_cell_angle_beta                 96.740(11)
_cell_angle_gamma                90
_cell_volume                     2248.67
_exptl_crystal_colour            colorless
_exptl_crystal_description       plate
_cell_formula_units_Z            2
loop_
_atom_site_label
_atom_site_type_symbol
_atom_site_fract_x
_atom_site_fract_y
_atom_site_fract_z
O1 O 0.1885(3) 1.0187(13) 0.4115(3)
O2 O 0.2556(2) 1.3385(12) 0.3535(3)
O3 O 0.3714(3) 1.5270(15) 0.4178(3)
O4 O 0.4478(3) 1.2738(12) 0.6779(3)
O5 O 0.3358(3) 0.9934(13) 0.6706(3)
O6 O 0.4341(3) 1.4728(13) 0.5479(3)
O7 O 0.2239(3) 0.8064(15) 0.5417(3)
N1 N -0.0353(3) -0.1514(16) 0.0652(3)
C1 C 0.0009(3) 0.0174(19) 0.0361(4)
C2 C 0.0371(4) 0.2140(18) 0.0689(4)
H1 H 0.0611 0.3311 0.0459
C3 C 0.0378(3) 0.2378(18) 0.1377(4)
C4 C 0.0013(4) 0.0662(17) 0.1682(4)
H2 H 0.0004 0.0762 0.2142
C5 C -0.0341(4) -0.1204(18) 0.1308(4)
H3 H -0.0593 -0.2352 0.1526
C6 C 0.0757(4) 0.4351(18) 0.1734(4)
C7 C 0.1085(4) 0.5988(18) 0.2027(4)
C8 C 0.1463(3) 0.7949(17) 0.2396(4)
C9 C 0.1836(4) 0.9656(18) 0.2098(4)
H4 H 0.1836 0.9567 0.1636
C10 C 0.2213(3) 1.1519(17) 0.2463(4)
H5 H 0.2468 1.2684 0.2251
C11 C 0.2213(3) 1.1647(18) 0.3136(4)
C12 C 0.1836(3) 0.9922(18) 0.3444(4)
C13 C 0.1477(3) 0.8042(19) 0.3086(4)
H6 H 0.1239 0.6808 0.3301
C14 C 0.2958(4) 1.5128(17) 0.3245(4)
H7 H 0.2746 1.6372 0.2913
H8 H 0.3233 1.3962 0.3027
C15 C 0.3288(4) 1.685(2) 0.3784(5)
H9 H 0.3481 1.8434 0.3585
H10 H 0.3007 1.7639 0.4064
C16 C 0.3491(4) 1.394(2) 0.4720(5)
H11 H 0.3203 1.2485 0.4559
H12 H 0.3293 1.5334 0.4973
C17 C 0.3987(4) 1.263(2) 0.5148(4)
H13 H 0.3832 1.1382 0.5472
H14 H 0.4224 1.1477 0.4878
C18 C 0.4884(4) 1.368(2) 0.5797(4)
H15 H 0.5112 1.5268 0.6004
H16 H 0.5109 1.2866 0.5462
C19 C 0.4816(4) 1.148(2) 0.6315(5)
H17 H 0.4614 0.9808 0.6115
H18 H 0.5203 1.0903 0.6533
C20 C 0.4311(4) 1.083(2) 0.7267(5)
H19 H 0.4139 1.1914 0.7608
H20 H 0.4665 0.9880 0.7480
C21 C 0.3877(4) 0.864(2) 0.6995(5)
H21 H 0.4048 0.7500 0.6662
H22 H 0.3787 0.7371 0.7351
C22 C 0.3034(4) 0.815(2) 0.6255(4)
H23 H 0.2916 0.6450 0.6482
H24 H 0.3275 0.7567 0.5911
C23 C 0.2503(4) 0.969(2) 0.5953(5)
H25 H 0.2226 0.9960 0.6280
H26 H 0.2615 1.1554 0.5797
C24 C 0.1674(4) 0.902(2) 0.5180(4)
H27 H 0.1651 1.1076 0.5239
H28 H 0.1382 0.8131 0.5430
C25 C 0.1543(4) 0.830(2) 0.4460(4)
H29 H 0.1652 0.6331 0.4381
H30 H 0.1122 0.8537 0.4311
O1B O -0.1885(3) -1.0187(13) -0.4115(3)
O2B O -0.2556(2) -1.3385(12) -0.3535(3)
O3B O -0.3714(3) -1.5270(15) -0.4178(3)
O4B O -0.4478(3) -1.2738(12) -0.6779(3)
O5B O -0.3358(3) -0.9934(13) -0.6706(3)
O6B O -0.4341(3) -1.4728(13) -0.5479(3)
O7B O -0.2239(3) -0.8064(15) -0.5417(3)
N1B N 0.0353(3) 0.1514(16) -0.0652(3)
C1B C -0.0009(3) -0.0174(19) -0.0361(4)
C2B C -0.0371(4) -0.2140(18) -0.0689(4)
H1B H -0.0611 -0.3311 -0.0459
C3B C -0.0378(3) -0.2378(18) -0.1377(4)
C4B C -0.0013(4) -0.0662(17) -0.1682(4)
H2B H -0.0004 -0.0762 -0.2142
C5B C 0.0341(4) 0.1204(18) -0.1308(4)
H3B H 0.0593 0.2352 -0.1526
C6B C -0.0757(4) -0.4351(18) -0.1734(4)
C7B C -0.1085(4) -0.5988(18) -0.2027(4)
C8B C -0.1463(3) -0.7949(17) -0.2396(4)
C9B C -0.1836(4) -0.9656(18) -0.2098(4)
H4B H -0.1836 -0.9567 -0.1636
C10B C -0.2213(3) -1.1519(17) -0.2463(4)
H5B H -0.2468 -1.2684 -0.2251
C11B C -0.2213(3) -1.1647(18) -0.3136(4)
C12B C -0.1836(3) -0.9922(18) -0.3444(4)
C13B C -0.1477(3) -0.8042(19) -0.3086(4)
H6B H -0.1239 -0.6808 -0.3301
C14B C -0.2958(4) -1.5128(17) -0.3245(4)
H7B H -0.2746 -1.6372 -0.2913
H8B H -0.3233 -1.3962 -0.3027
C15B C -0.3288(4) -1.685(2) -0.3784(5)
H9B H -0.3481 -1.8434 -0.3585
H10B H -0.3007 -1.7639 -0.4064
C16B C -0.3491(4) -1.394(2) -0.4720(5)
H11B H -0.3203 -1.2485 -0.4559
H12B H -0.3293 -1.5334 -0.4973
C17B C -0.3987(4) -1.263(2) -0.5148(4)
H13B H -0.3832 -1.1382 -0.5472
H14B H -0.4224 -1.1477 -0.4878
C18B C -0.4884(4) -1.368(2) -0.5797(4)
H15B H -0.5112 -1.5268 -0.6004
H16B H -0.5109 -1.2866 -0.5462
C19B C -0.4816(4) -1.148(2) -0.6315(5)
H17B H -0.4614 -0.9808 -0.6115
H18B H -0.5203 -1.0903 -0.6533
C20B C -0.4311(4) -1.083(2) -0.7267(5)
H19B H -0.4139 -1.1914 -0.7608
H20B H -0.4665 -0.9880 -0.7480
C21B C -0.3877(4) -0.864(2) -0.6995(5)
H21B H -0.4048 -0.7500 -0.6662
H22B H -0.3787 -0.7371 -0.7351
C22B C -0.3034(4) -0.815(2) -0.6255(4)
H23B H -0.2916 -0.6450 -0.6482
H24B H -0.3275 -0.7567 -0.5911
C23B C -0.2503(4) -0.969(2) -0.5953(5)
H25B H -0.2226 -0.9960 -0.6280
H26B H -0.2615 -1.1554 -0.5797
C24B C -0.1674(4) -0.902(2) -0.5180(4)
H27B H -0.1651 -1.1076 -0.5239
H28B H -0.1382 -0.8131 -0.5430
C25B C -0.1543(4) -0.830(2) -0.4460(4)
H29B H -0.1652 -0.6331 -0.4381
H30B H -0.1122 -0.8537 -0.4311
loop_
_geom_bond_atom_site_label_1
_geom_bond_atom_site_label_2
_geom_bond_site_symmetry_1
_geom_bond_site_symmetry_2
O1 C12 1_555 1_555
O2 C11 1_555 1_555
O3 C15 1_555 1_555
O4 C19 1_555 1_555
O5 C21 1_555 1_555
O6 C17 1_555 1_555
O7 C23 1_555 1_555
N1 C1 1_555 1_555
C1 C2 1_555 1_555
C2 H1 1_555 1_555
C3 C2 1_555 1_555
C4 C3 1_555 1_555
H2 C4 1_555 1_555
C5 N1 1_555 1_555
H3 C5 1_555 1_555
C6 C3 1_555 1_555
C7 C6 1_555 1_555
C8 C7 1_555 1_555
C9 C8 1_555 1_555
H4 C9 1_555 1_555
C10 C9 1_555 1_555
H5 C10 1_555 1_555
C11 C10 1_555 1_555
C12 C11 1_555 1_555
C13 C8 1_555 1_555
H6 C13 1_555 1_555
C14 O2 1_555 1_555
H7 C14 1_555 1_555
H8 C14 1_555 1_555
C15 C14 1_555 1_555
H9 C15 1_555 1_555
H10 C15 1_555 1_555
C16 O3 1_555 1_555
H11 C16 1_555 1_555
H12 C16 1_555 1_555
C17 C16 1_555 1_555
H13 C17 1_555 1_555
H14 C17 1_555 1_555
C18 O6 1_555 1_555
H15 C18 1_555 1_555
H16 C18 1_555 1_555
C19 C18 1_555 1_555
H17 C19 1_555 1_555
H18 C19 1_555 1_555
C20 O4 1_555 1_555
H19 C20 1_555 1_555
H20 C20 1_555 1_555
C21 C20 1_555 1_555
H21 C21 1_555 1_555
H22 C21 1_555 1_555
C22 O5 1_555 1_555
H23 C22 1_555 1_555
H24 C22 1_555 1_555
C23 C22 1_555 1_555
H25 C23 1_555 1_555
H26 C23 1_555 1_555
C24 O7 1_555 1_555
H27 C24 1_555 1_555
H28 C24 1_555 1_555
C25 O1 1_555 1_555
H29 C25 1_555 1_555
H30 C25 1_555 1_555
O1B C12B 1_555 1_555
O2B C11B 1_555 1_555
O3B C15B 1_555 1_555
O4B C19B 1_555 1_555
O5B C21B 1_555 1_555
O6B C17B 1_555 1_555
O7B C23B 1_555 1_555
N1B C1B 1_555 1_555
C1B C1 1_555 1_555
C2B C1B 1_555 1_555
H1B C2B 1_555 1_555
C3B C2B 1_555 1_555
C4B C3B 1_555 1_555
H2B C4B 1_555 1_555
C5B N1B 1_555 1_555
H3B C5B 1_555 1_555
C6B C3B 1_555 1_555
C7B C6B 1_555 1_555
C8B C7B 1_555 1_555
C9B C8B 1_555 1_555
H4B C9B 1_555 1_555
C10B C9B 1_555 1_555
H5B C10B 1_555 1_555
C11B C10B 1_555 1_555
C12B C11B 1_555 1_555
C13B C8B 1_555 1_555
H6B C13B 1_555 1_555
C14B O2B 1_555 1_555
H7B C14B 1_555 1_555
H8B C14B 1_555 1_555
C15B C14B 1_555 1_555
H9B C15B 1_555 1_555
H10B C15B 1_555 1_555
C16B O3B 1_555 1_555
H11B C16B 1_555 1_555
H12B C16B 1_555 1_555
C17B C16B 1_555 1_555
H13B C17B 1_555 1_555
H14B C17B 1_555 1_555
C18B O6B 1_555 1_555
H15B C18B 1_555 1_555
H16B C18B 1_555 1_555
C19B C18B 1_555 1_555
H17B C19B 1_555 1_555
H18B C19B 1_555 1_555
C20B O4B 1_555 1_555
H19B C20B 1_555 1_555
H20B C20B 1_555 1_555
C21B C20B 1_555 1_555
H21B C21B 1_555 1_555
H22B C21B 1_555 1_555
C22B O5B 1_555 1_555
H23B C22B 1_555 1_555
H24B C22B 1_555 1_555
C23B C22B 1_555 1_555
H25B C23B 1_555 1_555
H26B C23B 1_555 1_555
C24B O7B 1_555 1_555
H27B C24B 1_555 1_555
H28B C24B 1_555 1_555
C25B O1B 1_555 1_555
H29B C25B 1_555 1_555
H30B C25B 1_555 1_555
C4 C5 1_555 1_555
C12 C13 1_555 1_555
C24 C25 1_555 1_555
C4B C5B 1_555 1_555
C12B C13B 1_555 1_555
C24B C25B 1_555 1_555

#END
