
#######################################################################
#
#                 Cambridge Crystallographic Data Centre
#                                CCDC 
#
#######################################################################
#
# If this CIF has been generated from an entry in the Cambridge 
# Structural Database, then it will include bibliographic, chemical, 
# crystal, experimental, refinement or atomic coordinate data resulting 
# from the CCDC's data processing and validation procedures.
#
#######################################################################

data_JUSZOO
_chemical_formula_moiety         'C22 H24 N2 O6 S1'
_chemical_name_systematic        
'4-(1-((4-Methylphenyl)sulfonyl)pyrrolidin-2-yl)but-3-en-2-yl 4-nitrobenzoate'
_symmetry_cell_setting           triclinic
_symmetry_space_group_name_H-M   'P 1'
_symmetry_Int_Tables_number      1
_space_group_name_Hall           'P 1'
loop_
_symmetry_equiv_pos_site_id
_symmetry_equiv_pos_as_xyz
1 x,y,z
_cell_length_a                   6.3533(8)
_cell_length_b                   8.1307(9)
_cell_length_c                   21.712(3)
_cell_angle_alpha                84.084(3)
_cell_angle_beta                 84.680(2)
_cell_angle_gamma                82.977(2)
_cell_volume                     1103.58
_exptl_crystal_colour            colorless
_exptl_crystal_description       prismatic
_cell_formula_units_Z            2
_exptl_crystal_recrystallization_method 'petroleum ether/ethyl acetate'
loop_
_atom_site_label
_atom_site_type_symbol
_atom_site_fract_x
_atom_site_fract_y
_atom_site_fract_z
S1 S -0.31030(12) 0.38516(11) 0.35665(4)
N1 N -0.2802(5) 0.3714(4) 0.43090(14)
N2 N 0.6880(7) 0.1773(5) 0.78176(16)
O1 O 0.0203(4) 0.6303(5) 0.61564(14)
O2 O 0.3244(4) 0.6485(3) 0.55639(12)
O3 O -0.2186(5) 0.5285(4) 0.33123(15)
O4 O -0.5281(4) 0.3720(4) 0.35169(14)
O5 O 0.5920(6) 0.1062(5) 0.82502(16)
O6 O 0.8788(6) 0.1592(6) 0.77258(18)
C1 C -0.3792(7) 0.2368(6) 0.4703(2)
H1 H -0.4638 0.1801 0.4461
H2 H -0.4703 0.2817 0.5044
C2 C -0.1991(8) 0.1200(8) 0.4942(3)
H3 H -0.2405 0.0648 0.5345
H4 H -0.1508 0.0364 0.4657
C3 C -0.0362(10) 0.2249(7) 0.4989(3)
H5 H 0.1030 0.1621 0.4931
H6 H -0.0504 0.2653 0.5397
C4 C -0.0580(6) 0.3733(5) 0.44857(18)
H7 H 0.0445 0.3528 0.4128
C5 C -0.0265(6) 0.5315(5) 0.47374(16)
H8 H -0.1429 0.5911 0.4936
C6 C 0.1574(6) 0.5900(5) 0.46909(16)
H9 H 0.2648 0.5410 0.4425
C7 C 0.2095(6) 0.7277(5) 0.50262(18)
H10 H 0.0793 0.7957 0.5168
C8 C 0.3621(9) 0.8353(7) 0.4659(3)
H11 H 0.3986 0.9153 0.4915
H12 H 0.2965 0.8922 0.4303
H13 H 0.4885 0.7669 0.4523
C9 C 0.2090(6) 0.5993(5) 0.60717(17)
C10 C 0.3395(6) 0.4920(5) 0.65254(16)
C11 C 0.5550(6) 0.4492(5) 0.64021(17)
H14 H 0.6235 0.4909 0.6032
C12 C 0.6690(6) 0.3453(6) 0.68226(18)
H15 H 0.8138 0.3145 0.6737
C13 C 0.5665(6) 0.2878(5) 0.73680(16)
C14 C 0.3525(7) 0.3275(5) 0.75096(18)
H16 H 0.2850 0.2853 0.7881
C15 C 0.2419(6) 0.4314(5) 0.70843(19)
H17 H 0.0973 0.4621 0.7174
C16 C -0.1571(6) 0.2106(4) 0.32676(16)
C17 C -0.2410(7) 0.0621(5) 0.3318(2)
H18 H -0.3824 0.0565 0.3466
C18 C -0.1159(9) -0.0780(6) 0.3151(2)
H19 H -0.1730 -0.1789 0.3190
C19 C 0.0927(8) -0.0722(6) 0.2925(2)
C20 C 0.1715(7) 0.0783(7) 0.28589(19)
H20 H 0.3112 0.0846 0.2696
C21 C 0.0495(6) 0.2205(5) 0.30272(18)
H21 H 0.1058 0.3219 0.2979
C22 C 0.2307(12) -0.2297(9) 0.2759(3)
H22 H 0.3758 -0.2210 0.2829
H23 H 0.2213 -0.2442 0.2330
H24 H 0.1823 -0.3235 0.3014
S2 S 0.25117(16) -0.02671(13) 1.08482(5)
N3 N 0.1779(5) -0.0338(4) 1.01529(16)
N4 N 0.2878(8) 1.0181(5) 0.64071(17)
O7 O 0.8215(6) 0.5338(6) 0.83629(19)
O8 O 0.4995(5) 0.5661(4) 0.88571(14)
O9 O 0.4627(5) 0.0154(5) 1.07859(17)
O10 O 0.2059(7) -0.1808(4) 1.11822(17)
O11 O 0.0962(8) 1.0465(8) 0.6417(2)
O12 O 0.4056(7) 1.0765(6) 0.59974(19)
C23 C 0.0007(9) -0.1285(7) 1.0084(2)
H25 H -0.1211 -0.0959 1.0367
H26 H 0.0421 -0.2470 1.0166
C24 C -0.0498(10) -0.0861(9) 0.9427(3)
H27 H -0.2010 -0.0523 0.9406
H28 H -0.0103 -0.1819 0.9191
C25 C 0.0771(9) 0.0565(8) 0.9160(2)
H29 H 0.1962 0.0171 0.8880
H30 H -0.0123 0.1435 0.8937
C26 C 0.1550(7) 0.1207(5) 0.97236(17)
H31 H 0.0433 0.2004 0.9901
C27 C 0.3535(7) 0.2014(6) 0.95741(18)
H32 H 0.4791 0.1338 0.9482
C28 C 0.3627(7) 0.3600(6) 0.95646(19)
H33 H 0.2394 0.4267 0.9686
C29 C 0.5597(8) 0.4425(6) 0.9370(2)
H34 H 0.6760 0.3611 0.9227
C30 C 0.6262(12) 0.5318(10) 0.9886(3)
H35 H 0.7343 0.6008 0.9722
H36 H 0.6812 0.4515 1.0204
H37 H 0.5052 0.5996 1.0059
C31 C 0.6421(7) 0.5933(6) 0.83840(19)
C32 C 0.5466(6) 0.7093(5) 0.78810(17)
C33 C 0.6752(7) 0.7556(6) 0.7357(2)
H38 H 0.8193 0.7164 0.7333
C34 C 0.5948(7) 0.8575(6) 0.6876(2)
H39 H 0.6821 0.8891 0.6527
C35 C 0.3810(7) 0.9122(5) 0.69205(17)
C36 C 0.2500(7) 0.8676(6) 0.7428(2)
H40 H 0.1058 0.9063 0.7449
C37 C 0.3342(7) 0.7647(6) 0.79087(19)
H41 H 0.2461 0.7324 0.8255
C38 C 0.0879(6) 0.1381(5) 1.11640(17)
C39 C -0.1163(7) 0.1141(7) 1.1410(2)
H42 H -0.1631 0.0094 1.1442
C40 C -0.2500(9) 0.2510(10) 1.1607(2)
H43 H -0.3885 0.2375 1.1766
C41 C -0.1795(10) 0.4078(9) 1.1570(2)
C42 C 0.0246(10) 0.4266(7) 1.1346(2)
H44 H 0.0745 0.5299 1.1330
C43 C 0.1578(8) 0.2916(6) 1.1140(2)
H45 H 0.2964 0.3056 1.0984
C44 C -0.3305(13) 0.5559(10) 1.1776(3)
H46 H -0.2625 0.6134 1.2053
H47 H -0.4575 0.5174 1.1987
H48 H -0.3666 0.6302 1.1419
loop_
_geom_bond_atom_site_label_1
_geom_bond_atom_site_label_2
_geom_bond_site_symmetry_1
_geom_bond_site_symmetry_2
S1 N1 1_555 1_555
N1 C1 1_555 1_555
N2 O5 1_555 1_555
O1 C9 1_555 1_555
O2 C7 1_555 1_555
O3 S1 1_555 1_555
O4 S1 1_555 1_555
O6 N2 1_555 1_555
C1 H1 1_555 1_555
H2 C1 1_555 1_555
C2 C1 1_555 1_555
H3 C2 1_555 1_555
H4 C2 1_555 1_555
C3 C2 1_555 1_555
H5 C3 1_555 1_555
H6 C3 1_555 1_555
C4 N1 1_555 1_555
H7 C4 1_555 1_555
C5 C4 1_555 1_555
H8 C5 1_555 1_555
C6 C5 1_555 1_555
H9 C6 1_555 1_555
C7 C6 1_555 1_555
H10 C7 1_555 1_555
C8 C7 1_555 1_555
H11 C8 1_555 1_555
H12 C8 1_555 1_555
H13 C8 1_555 1_555
C9 O2 1_555 1_555
C10 C9 1_555 1_555
C11 C10 1_555 1_555
H14 C11 1_555 1_555
C12 C11 1_555 1_555
H15 C12 1_555 1_555
C13 N2 1_555 1_555
C14 C13 1_555 1_555
H16 C14 1_555 1_555
C15 C10 1_555 1_555
H17 C15 1_555 1_555
C16 S1 1_555 1_555
C17 C16 1_555 1_555
H18 C17 1_555 1_555
C18 C17 1_555 1_555
H19 C18 1_555 1_555
C19 C18 1_555 1_555
C20 C19 1_555 1_555
H20 C20 1_555 1_555
C21 C16 1_555 1_555
H21 C21 1_555 1_555
C22 C19 1_555 1_555
H22 C22 1_555 1_555
H23 C22 1_555 1_555
H24 C22 1_555 1_555
S2 N3 1_555 1_555
N3 C23 1_555 1_555
N4 O11 1_555 1_555
O7 C31 1_555 1_555
O8 C29 1_555 1_555
O9 S2 1_555 1_555
O10 S2 1_555 1_555
O12 N4 1_555 1_555
C23 H25 1_555 1_555
H26 C23 1_555 1_555
C24 C23 1_555 1_555
H27 C24 1_555 1_555
H28 C24 1_555 1_555
C25 C24 1_555 1_555
H29 C25 1_555 1_555
H30 C25 1_555 1_555
C26 N3 1_555 1_555
H31 C26 1_555 1_555
C27 C26 1_555 1_555
H32 C27 1_555 1_555
C28 C27 1_555 1_555
H33 C28 1_555 1_555
C29 C28 1_555 1_555
H34 C29 1_555 1_555
C30 C29 1_555 1_555
H35 C30 1_555 1_555
H36 C30 1_555 1_555
H37 C30 1_555 1_555
C31 O8 1_555 1_555
C32 C31 1_555 1_555
C33 C32 1_555 1_555
H38 C33 1_555 1_555
C34 C33 1_555 1_555
H39 C34 1_555 1_555
C35 N4 1_555 1_555
C36 C35 1_555 1_555
H40 C36 1_555 1_555
C37 C32 1_555 1_555
H41 C37 1_555 1_555
C38 S2 1_555 1_555
C39 C38 1_555 1_555
H42 C39 1_555 1_555
C40 C39 1_555 1_555
H43 C40 1_555 1_555
C41 C40 1_555 1_555
C42 C41 1_555 1_555
H44 C42 1_555 1_555
C43 C38 1_555 1_555
H45 C43 1_555 1_555
C44 C41 1_555 1_555
H46 C44 1_555 1_555
H47 C44 1_555 1_555
H48 C44 1_555 1_555
C3 C4 1_555 1_555
C12 C13 1_555 1_555
C14 C15 1_555 1_555
C20 C21 1_555 1_555
C25 C26 1_555 1_555
C34 C35 1_555 1_555
C36 C37 1_555 1_555
C42 C43 1_555 1_555

#END
