
#######################################################################
#
#                 Cambridge Crystallographic Data Centre
#                                CCDC 
#
#######################################################################
#
# If this CIF has been generated from an entry in the Cambridge 
# Structural Database, then it will include bibliographic, chemical, 
# crystal, experimental, refinement or atomic coordinate data resulting 
# from the CCDC's data processing and validation procedures.
#
#######################################################################

data_JUTBEH
_chemical_formula_moiety         'C18 H16 N1 O1 1+,C7 H7 O3 S1 1-'
_chemical_name_systematic        
'2-(2-(4-Hydroxyphenyl)vinyl)-1-methylquinolinium 4-methylbenzenesulfonate'
_symmetry_cell_setting           monoclinic
_symmetry_space_group_name_H-M   'P n'
_symmetry_Int_Tables_number      7
_space_group_name_Hall           'P -2yac'
loop_
_symmetry_equiv_pos_site_id
_symmetry_equiv_pos_as_xyz
1 x,y,z
2 1/2+x,-y,1/2+z
_cell_length_a                   11.6144(5)
_cell_length_b                   7.0817(4)
_cell_length_c                   13.2463(6)
_cell_angle_alpha                90
_cell_angle_beta                 102.0425(13)
_cell_angle_gamma                90
_cell_volume                     1065.53
_exptl_crystal_colour            yellow
_exptl_crystal_description       Block
_cell_formula_units_Z            2
loop_
_atom_site_label
_atom_site_type_symbol
_atom_site_fract_x
_atom_site_fract_y
_atom_site_fract_z
S1 S 0.60649(5) 0.57219(9) 1.08900(5)
C1 C 0.71745(16) 0.6872(3) 1.18192(15)
C2 C 0.89065(19) 0.6611(4) 1.31703(17)
H1 H 0.9441 0.5856 1.3615
C3 C 0.79681(18) 0.5780(3) 1.24998(17)
H2 H 0.7871 0.4477 1.2507
C4 C 1.0104(3) 0.9413(5) 1.3910(3)
H3 H 1.0082 1.076 1.3829
H4 H 1.0818 0.8931 1.3751
H5 H 1.0077 0.9099 1.461
C5 C 0.8234(3) 0.9602(4) 1.2532(3)
H6 H 0.8303 1.0911 1.2553
C6 C 0.9060(2) 0.8546(4) 1.31880(17)
C7 C 0.7299(2) 0.8799(4) 1.1841(2)
H7 H 0.6764 0.9556 1.1399
O1 O 0.50301(16) 0.6952(5) 1.0790(2)
O2 O 0.6485(2) 0.5684(4) 0.99532(15)
O3 O 0.5905(2) 0.3905(3) 1.13072(16)
C8 C 0.86467(18) 0.7183(3) 0.77298(17)
H8 H 0.9284 0.6998 0.7417
C9 C 0.64666(18) 0.6857(3) 0.74922(16)
H9 H 0.6551 0.6567 0.8189
C10 C 0.99905(17) 0.7333(3) 0.94540(15)
C11 C 1.1104(2) 0.7655(3) 1.12034(15)
H10 H 1.1126 0.7902 1.1897
C12 C 1.21141(17) 0.6968(3) 0.98313(16)
H11 H 1.2809 0.674 0.9607
C13 C 0.52227(18) 0.7275(3) 0.58064(17)
C14 C 0.6094(2) 0.7957(3) 0.43306(17)
H12 H 0.6751 0.8186 0.405
C15 C 0.8359(2) 0.8173(4) 0.56409(18)
H13 H 0.8114 0.8419 0.4915
H14 H 0.8916 0.7153 0.5747
H15 H 0.872 0.9285 0.5983
C16 C 0.74711(17) 0.7248(3) 0.70835(15)
C17 C 0.88484(17) 0.7378(3) 0.87523(16)
H16 H 0.8195 0.756 0.9045
C18 C 0.3989(2) 0.7587(3) 0.4105(2)
H17 H 0.3251 0.7582 0.3665
C19 C 1.00536(18) 0.7654(3) 1.05118(16)
H18 H 0.9364 0.7871 1.0745
C20 C 0.62208(18) 0.7639(3) 0.53946(16)
C21 C 0.4995(2) 0.7925(3) 0.37149(18)
H19 H 0.4914 0.8136 0.3011
C22 C 1.21425(18) 0.7286(3) 1.08732(16)
C23 C 0.4090(2) 0.7261(3) 0.5139(2)
H20 H 0.3423 0.7033 0.5404
C24 C 1.10502(17) 0.6992(3) 0.91325(15)
H21 H 1.1035 0.6778 0.8437
C25 C 0.53836(18) 0.6903(3) 0.68731(18)
H22 H 0.4728 0.6685 0.7157
O4 O 1.31578(15) 0.7263(3) 1.15938(13)
H23 H 1.3716 0.7142 1.1309
N1 N 0.73284(13) 0.7656(2) 0.60658(12)
loop_
_geom_bond_atom_site_label_1
_geom_bond_atom_site_label_2
_geom_bond_site_symmetry_1
_geom_bond_site_symmetry_2
S1 C1 1_555 1_555
C1 C3 1_555 1_555
C2 H1 1_555 1_555
C3 C2 1_555 1_555
H2 C3 1_555 1_555
C4 H3 1_555 1_555
H4 C4 1_555 1_555
H5 C4 1_555 1_555
C5 H6 1_555 1_555
C6 C2 1_555 1_555
C7 C1 1_555 1_555
H7 C7 1_555 1_555
O1 S1 1_555 1_555
O2 S1 1_555 1_555
O3 S1 1_555 1_555
C8 H8 1_555 1_555
C9 H9 1_555 1_555
C10 C17 1_555 1_555
C11 H10 1_555 1_555
C12 H11 1_555 1_555
C13 C20 1_555 1_555
C14 H12 1_555 1_555
C15 H13 1_555 1_555
H14 C15 1_555 1_555
H15 C15 1_555 1_555
C16 C8 1_555 1_555
C17 C8 1_555 1_555
H16 C17 1_555 1_555
C18 H17 1_555 1_555
C19 C10 1_555 1_555
H18 C19 1_555 1_555
C20 C14 1_555 1_555
C21 C14 1_555 1_555
H19 C21 1_555 1_555
C22 C11 1_555 1_555
C23 C13 1_555 1_555
H20 C23 1_555 1_555
C24 C10 1_555 1_555
H21 C24 1_555 1_555
C25 C9 1_555 1_555
H22 C25 1_555 1_555
O4 C22 1_555 1_555
H23 O4 1_555 1_555
N1 C15 1_555 1_555
C4 C6 1_555 1_555
C5 C6 1_555 1_555
C5 C7 1_555 1_555
C9 C16 1_555 1_555
C11 C19 1_555 1_555
C12 C22 1_555 1_555
C12 C24 1_555 1_555
C13 C25 1_555 1_555
C16 N1 1_555 1_555
C18 C21 1_555 1_555
C18 C23 1_555 1_555
C20 N1 1_555 1_555

#END
