
#######################################################################
#
#                 Cambridge Crystallographic Data Centre
#                                CCDC 
#
#######################################################################
#
# If this CIF has been generated from an entry in the Cambridge 
# Structural Database, then it will include bibliographic, chemical, 
# crystal, experimental, refinement or atomic coordinate data resulting 
# from the CCDC's data processing and validation procedures.
#
#######################################################################

data_JUTBUX
_chemical_formula_moiety         'C20 H17 Br2 F1 O4'
_chemical_name_systematic        
'Dimethyl (1,3-bis(3-bromophenyl)prop-2-en-1-yl)(fluoro)malonate'
_symmetry_cell_setting           monoclinic
_symmetry_space_group_name_H-M   'P 21'
_symmetry_Int_Tables_number      4
_space_group_name_Hall           'P 2yb'
loop_
_symmetry_equiv_pos_site_id
_symmetry_equiv_pos_as_xyz
1 x,y,z
2 -x,1/2+y,-z
_cell_length_a                   11.651(4)
_cell_length_b                   5.9117(18)
_cell_length_c                   14.797(5)
_cell_angle_alpha                90
_cell_angle_beta                 96.518(4)
_cell_angle_gamma                90
_cell_volume                     1012.59
_exptl_crystal_colour            colorless
_exptl_crystal_description       prism
_cell_formula_units_Z            2
loop_
_atom_site_label
_atom_site_type_symbol
_atom_site_fract_x
_atom_site_fract_y
_atom_site_fract_z
Br1 Br -0.29631(6) 0.35823(17) 0.37166(6)
Br2 Br 0.20313(7) 0.52163(14) -0.17509(4)
F1 F 0.3030(3) 0.0762(6) 0.2499(2)
O1 O 0.3810(6) 0.2911(10) 0.3979(4)
O2 O 0.4018(4) 0.6088(8) 0.3221(3)
O3 O 0.4800(6) 0.1101(11) 0.1576(5)
O4 O 0.4655(4) 0.4801(9) 0.1508(3)
C1 C 0.2354(5) 0.4280(9) 0.1857(4)
H1 H 0.2627 0.5819 0.1759
C2 C 0.1366(5) 0.4466(10) 0.2424(4)
H2 H 0.0908 0.3196 0.2479
C3 C 0.1116(5) 0.6326(11) 0.2844(4)
H3 H 0.1613 0.7545 0.2805
C4 C 0.0134(6) 0.6687(11) 0.3369(4)
C5 C -0.0782(5) 0.5191(13) 0.3345(3)
H4 H -0.0772 0.3876 0.3001
C6 C -0.1706(5) 0.5612(12) 0.3819(4)
C7 C -0.1739(7) 0.7552(14) 0.4341(5)
H5 H -0.2366 0.7844 0.4660
C8 C -0.0825(7) 0.9041(14) 0.4379(5)
H6 H -0.0831 1.0335 0.4736
C9 C 0.0098(6) 0.8643(14) 0.3896(4)
H7 H 0.0700 0.9681 0.3920
C10 C 0.1959(4) 0.3285(10) 0.0929(4)
C11 C 0.2154(5) 0.4464(10) 0.0156(4)
H8 H 0.2539 0.5845 0.0205
C12 C 0.1776(4) 0.3583(12) -0.0695(4)
C13 C 0.1256(5) 0.1495(12) -0.0785(4)
H9 H 0.1051 0.0877 -0.1359
C14 C 0.1046(5) 0.0334(12) -0.0021(4)
H10 H 0.0666 -0.1051 -0.0076
C15 C 0.1395(5) 0.1209(11) 0.0831(4)
H11 H 0.1251 0.0402 0.1346
C16 C 0.3370(5) 0.2966(9) 0.2356(4)
C17 C 0.3766(5) 0.3967(12) 0.3284(4)
C18 C 0.4393(8) 0.7270(15) 0.4053(6)
H12 H 0.3785 0.7258 0.4440
H13 H 0.4580 0.8805 0.3917
H14 H 0.5063 0.6536 0.4357
C19 C 0.4387(6) 0.2809(12) 0.1773(4)
C20 C 0.5626(6) 0.498(2) 0.0980(5)
H15 H 0.5982 0.3525 0.0943
H16 H 0.6178 0.6034 0.1268
H17 H 0.5359 0.5504 0.0378
loop_
_geom_bond_atom_site_label_1
_geom_bond_atom_site_label_2
_geom_bond_site_symmetry_1
_geom_bond_site_symmetry_2
Br1 C6 1_555 1_555
Br2 C12 1_555 1_555
F1 C16 1_555 1_555
O1 C17 1_555 1_555
O2 C17 1_555 1_555
O3 C19 1_555 1_555
O4 C19 1_555 1_555
C1 H1 1_555 1_555
C2 C1 1_555 1_555
H2 C2 1_555 1_555
C3 C2 1_555 1_555
H3 C3 1_555 1_555
C4 C3 1_555 1_555
C5 C4 1_555 1_555
H4 C5 1_555 1_555
C6 C5 1_555 1_555
C7 C6 1_555 1_555
H5 C7 1_555 1_555
C8 C7 1_555 1_555
H6 C8 1_555 1_555
C9 C4 1_555 1_555
H7 C9 1_555 1_555
C10 C1 1_555 1_555
C11 C10 1_555 1_555
H8 C11 1_555 1_555
C12 C11 1_555 1_555
C13 C12 1_555 1_555
H9 C13 1_555 1_555
C14 C13 1_555 1_555
H10 C14 1_555 1_555
C15 C10 1_555 1_555
H11 C15 1_555 1_555
C16 C1 1_555 1_555
C17 C16 1_555 1_555
C18 O2 1_555 1_555
H12 C18 1_555 1_555
H13 C18 1_555 1_555
H14 C18 1_555 1_555
C19 C16 1_555 1_555
C20 O4 1_555 1_555
H15 C20 1_555 1_555
H16 C20 1_555 1_555
H17 C20 1_555 1_555
C8 C9 1_555 1_555
C14 C15 1_555 1_555

#END
