
#######################################################################
#
#                 Cambridge Crystallographic Data Centre
#                                CCDC 
#
#######################################################################
#
# If this CIF has been generated from an entry in the Cambridge 
# Structural Database, then it will include bibliographic, chemical, 
# crystal, experimental, refinement or atomic coordinate data resulting 
# from the CCDC's data processing and validation procedures.
#
#######################################################################

data_JUTDEJ
_chemical_formula_moiety         'C25 H26 N6 O5'
_chemical_name_systematic        
'(E)-Methyl 2-(4-benzyl-1-(3-(dimethylamino)propyl)-8-nitro-3-oxo-3,4-dihydropyrazino[2,3-b]quinoxalin-2(1H)-ylidene)acetate'
_symmetry_cell_setting           triclinic
_symmetry_space_group_name_H-M   'P -1'
_symmetry_Int_Tables_number      2
_space_group_name_Hall           '-P 1'
loop_
_symmetry_equiv_pos_site_id
_symmetry_equiv_pos_as_xyz
1 x,y,z
2 -x,-y,-z
_cell_length_a                   5.8603(5)
_cell_length_b                   11.0162(13)
_cell_length_c                   19.371(2)
_cell_angle_alpha                76.719(7)
_cell_angle_beta                 87.487(6)
_cell_angle_gamma                80.980(6)
_cell_volume                     1202.02
_exptl_crystal_colour            yellow
_exptl_crystal_description       block
_cell_formula_units_Z            2
_exptl_crystal_recrystallization_method chloroform/methanol
_exptl_crystal_preparation       Luminescent
loop_
_atom_site_label
_atom_site_type_symbol
_atom_site_fract_x
_atom_site_fract_y
_atom_site_fract_z
O1 O 1.1090(2) 0.42769(16) 0.10131(10)
O2 O 0.8958(3) 0.68216(16) 0.10617(9)
N1 N 0.5641(3) 0.74006(18) 0.16261(10)
N2 N 0.6927(3) 0.53781(17) 0.27926(10)
N3 N 0.2215(3) 0.79580(18) 0.22013(10)
N4 N 0.3500(3) 0.59198(18) 0.33674(10)
O3 O 1.3758(3) 0.50756(19) 0.14896(11)
N5 N 1.0638(3) 0.1789(2) 0.36782(13)
C1 C 0.4154(4) 0.7184(2) 0.22092(12)
O4 O -0.5572(3) 0.7766(2) 0.45265(11)
N6 N -0.3734(4) 0.7057(3) 0.45457(15)
C2 C 0.1445(3) 0.6722(2) 0.33696(13)
C3 C 0.4834(3) 0.6148(2) 0.28062(13)
C4 C 0.0794(3) 0.7723(2) 0.27900(13)
C5 C 0.8339(3) 0.5504(2) 0.21833(13)
C6 C 0.5778(4) 0.9670(2) 0.10731(12)
C7 C 0.7682(4) 0.6611(2) 0.15795(14)
C8 C 1.1870(4) 0.4756(2) 0.15175(15)
C9 C 1.0283(4) 0.4707(2) 0.21322(14)
H1 H 1.0673 0.4052 0.2526
C10 C -0.2114(4) 0.7297(3) 0.39460(14)
O5 O -0.3182(4) 0.6177(3) 0.50431(13)
C11 C -0.0044(4) 0.6519(2) 0.39603(14)
H2 H 0.0371 0.5867 0.4354
C12 C -0.1347(4) 0.8513(2) 0.27976(13)
H3 H -0.1772 0.9181 0.2413
C13 C 0.7551(4) 0.4303(2) 0.33984(13)
H4 H 0.6789 0.4498 0.3823
H5 H 0.9205 0.4184 0.3472
C14 C 0.4932(4) 0.8470(2) 0.10134(13)
H6 H 0.3260 0.8623 0.0984
H7 H 0.5539 0.8240 0.0579
C15 C -0.2797(4) 0.8298(3) 0.33706(15)
H8 H -0.4216 0.8810 0.3378
C16 C 0.7818(4) 1.0001(3) 0.07508(14)
H9 H 0.8670 0.9484 0.0484
C17 C 0.4572(4) 1.0474(3) 0.14687(15)
H10 H 0.3185 1.0288 0.1688
C18 C 0.6874(4) 0.3075(3) 0.32885(15)
H11 H 0.5222 0.3093 0.3360
H12 H 0.7239 0.3001 0.2805
C19 C 0.8139(4) 0.1944(3) 0.37982(16)
H13 H 0.7815 0.2038 0.4280
H14 H 0.7566 0.1190 0.3747
C20 C 0.8612(5) 1.1087(3) 0.08190(17)
H15 H 0.9982 1.1292 0.0595
C21 C 0.5407(5) 1.1548(3) 0.15415(17)
H16 H 0.4595 1.2061 0.1818
C22 C 0.7408(5) 1.1862(3) 0.12114(17)
H17 H 0.7944 1.2593 0.1253
C23 C 1.2523(4) 0.4310(3) 0.03806(15)
H18 H 1.1909 0.3865 0.0077
H19 H 1.4070 0.3916 0.0513
H20 H 1.2539 0.5171 0.0133
C24 C 1.1355(5) 0.1149(3) 0.31175(19)
H21 H 1.1029 0.0298 0.3253
H22 H 1.2984 0.1138 0.3034
H23 H 1.0531 0.1583 0.2692
C25 C 1.1841(5) 0.1082(4) 0.43276(19)
H24 H 1.1397 0.1506 0.4705
H25 H 1.3479 0.1029 0.4250
H26 H 1.1435 0.0248 0.4454
loop_
_geom_bond_atom_site_label_1
_geom_bond_atom_site_label_2
_geom_bond_site_symmetry_1
_geom_bond_site_symmetry_2
O1 C8 1_555 1_555
O2 C7 1_555 1_555
N1 C1 1_555 1_555
N2 C3 1_555 1_555
N3 C1 1_555 1_555
N4 C2 1_555 1_555
O3 C8 1_555 1_555
N5 C19 1_555 1_555
C1 C3 1_555 1_555
O4 N6 1_555 1_555
N6 C10 1_555 1_555
C2 C4 1_555 1_555
C3 N4 1_555 1_555
C4 N3 1_555 1_555
C5 N2 1_555 1_555
C6 C14 1_555 1_555
C7 N1 1_555 1_555
C8 C9 1_555 1_555
C9 C5 1_555 1_555
H1 C9 1_555 1_555
C10 C11 1_555 1_555
O5 N6 1_555 1_555
C11 C2 1_555 1_555
H2 C11 1_555 1_555
C12 C4 1_555 1_555
H3 C12 1_555 1_555
C13 N2 1_555 1_555
H4 C13 1_555 1_555
H5 C13 1_555 1_555
C14 N1 1_555 1_555
H6 C14 1_555 1_555
H7 C14 1_555 1_555
C15 C10 1_555 1_555
H8 C15 1_555 1_555
C16 C6 1_555 1_555
H9 C16 1_555 1_555
C17 C6 1_555 1_555
H10 C17 1_555 1_555
C18 C13 1_555 1_555
H11 C18 1_555 1_555
H12 C18 1_555 1_555
C19 C18 1_555 1_555
H13 C19 1_555 1_555
H14 C19 1_555 1_555
C20 C16 1_555 1_555
H15 C20 1_555 1_555
C21 C17 1_555 1_555
H16 C21 1_555 1_555
C22 C20 1_555 1_555
H17 C22 1_555 1_555
C23 O1 1_555 1_555
H18 C23 1_555 1_555
H19 C23 1_555 1_555
H20 C23 1_555 1_555
C24 N5 1_555 1_555
H21 C24 1_555 1_555
H22 C24 1_555 1_555
H23 C24 1_555 1_555
C25 N5 1_555 1_555
H24 C25 1_555 1_555
H25 C25 1_555 1_555
H26 C25 1_555 1_555
C5 C7 1_555 1_555
C12 C15 1_555 1_555
C21 C22 1_555 1_555

#END
