
#######################################################################
#
#                 Cambridge Crystallographic Data Centre
#                                CCDC 
#
#######################################################################
#
# If this CIF has been generated from an entry in the Cambridge 
# Structural Database, then it will include bibliographic, chemical, 
# crystal, experimental, refinement or atomic coordinate data resulting 
# from the CCDC's data processing and validation procedures.
#
#######################################################################

data_JUTLEP
_chemical_formula_moiety         'C9 H11 N1 S1'
_chemical_name_systematic        
(1aR*,7aS*,7bR*)-rac-1,1a,4,5,7a,7b-Hexahydro-2H-cycloprop(a)indolizine-2-thione
_symmetry_cell_setting           monoclinic
_symmetry_space_group_name_H-M   'P 21/n'
_symmetry_Int_Tables_number      14
_space_group_name_Hall           '-P 2yn'
loop_
_symmetry_equiv_pos_site_id
_symmetry_equiv_pos_as_xyz
1 x,y,z
2 1/2-x,1/2+y,1/2-z
3 -x,-y,-z
4 1/2+x,1/2-y,1/2+z
_cell_length_a                   7.496(1)
_cell_length_b                   9.021(1)
_cell_length_c                   12.643(2)
_cell_angle_alpha                90
_cell_angle_beta                 95.72(1)
_cell_angle_gamma                90
_cell_volume                     850.681
_exptl_crystal_colour            white
_chemical_melting_point          98-99deg.C
_cell_formula_units_Z            4
loop_
_atom_site_label
_atom_site_type_symbol
_atom_site_fract_x
_atom_site_fract_y
_atom_site_fract_z
S1 S 0.2037(3) 0.7143(3) 0.1102(1)
N1 N 0.0225(7) 0.5578(6) 0.2431(4)
C1 C 0.0736(9) 0.6742(9) 0.4099(5)
C2 C 0.1806(9) 0.7479(9) 0.3294(6)
C3 C 0.1315(8) 0.6697(8) 0.2262(5)
C4 C -0.0779(10) 0.4678(9) 0.1624(6)
C5 C -0.2713(10) 0.5303(11) 0.1482(6)
C6 C -0.3385(9) 0.5630(10) 0.2531(7)
C7 C -0.0344(9) 0.5517(8) 0.3509(5)
C8 C -0.2355(9) 0.5721(10) 0.3444(6)
C9 C 0.2741(9) 0.6502(10) 0.4167(6)
H1 H 0.0430 0.7207 0.4805
H2 H 0.2090 0.8594 0.3125
H3 H -0.0430 0.4727 0.0820
H4 H -0.0840 0.3613 0.1875
H5 H -0.2696 0.6291 0.1021
H6 H -0.3576 0.4538 0.1036
H7 H -0.4791 0.5779 0.2550
H8 H 0.0000 0.4453 0.3945
H9 H -0.2910 0.5840 0.4180
H10 H 0.3245 0.5437 0.3945
H11 H 0.3615 0.6931 0.4776
loop_
_geom_bond_atom_site_label_1
_geom_bond_atom_site_label_2
_geom_bond_site_symmetry_1
_geom_bond_site_symmetry_2
S1 C3 1_555 1_555
N1 C3 1_555 1_555
C1 C2 1_555 1_555
C2 C3 1_555 1_555
C4 N1 1_555 1_555
C5 C4 1_555 1_555
C6 C5 1_555 1_555
C7 N1 1_555 1_555
C8 C6 1_555 1_555
C9 C1 1_555 1_555
H1 C1 1_555 1_555
H2 C2 1_555 1_555
H3 C4 1_555 1_555
H4 C4 1_555 1_555
H5 C5 1_555 1_555
H6 C5 1_555 1_555
H7 C6 1_555 1_555
H8 C7 1_555 1_555
H9 C8 1_555 1_555
H10 C9 1_555 1_555
H11 C9 1_555 1_555
C1 C7 1_555 1_555
C2 C9 1_555 1_555
C7 C8 1_555 1_555

#END
