
#######################################################################
#
#                 Cambridge Crystallographic Data Centre
#                                CCDC 
#
#######################################################################
#
# If this CIF has been generated from an entry in the Cambridge 
# Structural Database, then it will include bibliographic, chemical, 
# crystal, experimental, refinement or atomic coordinate data resulting 
# from the CCDC's data processing and validation procedures.
#
#######################################################################

data_JUTXEB
_chemical_formula_moiety         'C23 H31 N1 O2'
_chemical_name_systematic        
'6,7,8,9-Tetrahydropyrido(1,2-a)indole-8(S)-carboxylic acid 1-menthyl ester'
_symmetry_cell_setting           orthorhombic
_symmetry_space_group_name_H-M   'P 21 21 21'
_symmetry_Int_Tables_number      19
_space_group_name_Hall           'P 2ac 2ab'
loop_
_symmetry_equiv_pos_site_id
_symmetry_equiv_pos_as_xyz
1 x,y,z
2 1/2+x,1/2-y,-z
3 -x,1/2+y,1/2-z
4 1/2-x,-y,1/2+z
_cell_length_a                   8.787(2)
_cell_length_b                   12.972(4)
_cell_length_c                   17.660(5)
_cell_angle_alpha                90
_cell_angle_beta                 90
_cell_angle_gamma                90
_cell_volume                     2012.97
_exptl_crystal_colour            colorless
_chemical_melting_point          117-118deg.C
_cell_formula_units_Z            4
loop_
_atom_site_label
_atom_site_type_symbol
_atom_site_fract_x
_atom_site_fract_y
_atom_site_fract_z
N1 N 0.0892(2) 0.1263(1) 1.1429(1)
C1 C 0.1281(2) 0.0613(2) 1.2015(1)
C2 C 0.1390(3) 0.0811(2) 1.2789(1)
C3 C 0.1836(3) 0.0005(2) 1.3254(1)
C4 C 0.2153(3) -0.0967(2) 1.2959(1)
C5 C 0.2018(3) -0.1169(2) 1.2191(1)
C6 C 0.1586(2) -0.0373(2) 1.1704(1)
C7 C 0.1377(3) -0.0276(2) 1.0900(1)
C8 C 0.0978(2) 0.0720(2) 1.0758(1)
C9 C 0.0630(3) 0.1255(1) 1.0029(1)
C10 C 0.1087(2) 0.2393(2) 1.0071(1)
C11 C 0.0329(2) 0.2880(2) 1.0766(1)
C12 C 0.0897(2) 0.2381(1) 1.1497(1)
C13 C 0.0591(2) 0.2963(2) 0.9374(1)
O1 O -0.0592(2) 0.2810(1) 0.9045(1)
O2 O 0.1598(2) 0.3688(1) 0.9164(1)
C14 C 0.1152(2) 0.4343(1) 0.8528(1)
C15 C 0.1473(3) 0.3796(2) 0.7787(1)
C16 C 0.0994(3) 0.4469(2) 0.7120(1)
C17 C 0.1781(3) 0.5509(2) 0.7162(1)
C18 C 0.1520(3) 0.6040(2) 0.7926(1)
C19 C 0.2026(2) 0.5355(1) 0.8590(1)
C20 C 0.1879(3) 0.5866(2) 0.9378(1)
C21 C 0.0233(3) 0.6004(2) 0.9639(1)
C22 C 0.2732(3) 0.6897(2) 0.9403(1)
C23 C 0.1294(4) 0.3933(2) 0.6365(1)
H1 H 0.1175 0.1482 1.2990
H2 H 0.1930 0.0117 1.3789
H3 H 0.2448 -0.1512 1.3297
H4 H 0.2234 -0.1842 1.1992
H5 H 0.1493 -0.0816 1.0533
H6 H -0.0441 0.1207 0.9927
H7 H 0.1168 0.0923 0.9623
H8 H 0.2173 0.2442 1.0121
H9 H -0.0753 0.2790 1.0728
H10 H 0.0537 0.3606 1.0775
H11 H 0.1913 0.2612 1.1601
H12 H 0.0257 0.2588 1.1911
H13 H 0.0083 0.4489 0.8561
H14 H 0.0936 0.3152 0.7772
H15 H 0.2544 0.3656 0.7751
H16 H -0.0080 0.4589 0.7165
H17 H 0.1405 0.5942 0.6763
H18 H 0.2852 0.5409 0.7084
H19 H 0.0457 0.6192 0.7984
H20 H 0.2070 0.6679 0.7941
H21 H 0.3082 0.5196 0.8514
H22 H 0.2358 0.5420 0.9740
H23 H 0.0211 0.6322 1.0129
H24 H -0.0289 0.6435 0.9281
H25 H -0.0261 0.5345 0.9664
H26 H 0.2620 0.7208 0.9893
H27 H 0.3791 0.6779 0.9302
H28 H 0.2320 0.7348 0.9024
H29 H 0.0974 0.4369 0.5956
H30 H 0.2361 0.3789 0.6317
H31 H 0.0731 0.3299 0.6351
loop_
_geom_bond_atom_site_label_1
_geom_bond_atom_site_label_2
_geom_bond_site_symmetry_1
_geom_bond_site_symmetry_2
N1 C1 1_555 1_555
C1 C2 1_555 1_555
C2 C3 1_555 1_555
C3 C4 1_555 1_555
C4 C5 1_555 1_555
C5 C6 1_555 1_555
C6 C1 1_555 1_555
C7 C6 1_555 1_555
C8 N1 1_555 1_555
C9 C8 1_555 1_555
C10 C9 1_555 1_555
C11 C10 1_555 1_555
C12 N1 1_555 1_555
C13 C10 1_555 1_555
O1 C13 1_555 1_555
O2 C13 1_555 1_555
C14 O2 1_555 1_555
C15 C14 1_555 1_555
C16 C15 1_555 1_555
C17 C16 1_555 1_555
C18 C17 1_555 1_555
C19 C14 1_555 1_555
C20 C19 1_555 1_555
C21 C20 1_555 1_555
C22 C20 1_555 1_555
C23 C16 1_555 1_555
H1 C2 1_555 1_555
H2 C3 1_555 1_555
H3 C4 1_555 1_555
H4 C5 1_555 1_555
H5 C7 1_555 1_555
H6 C9 1_555 1_555
H7 C9 1_555 1_555
H8 C10 1_555 1_555
H9 C11 1_555 1_555
H10 C11 1_555 1_555
H11 C12 1_555 1_555
H12 C12 1_555 1_555
H13 C14 1_555 1_555
H14 C15 1_555 1_555
H15 C15 1_555 1_555
H16 C16 1_555 1_555
H17 C17 1_555 1_555
H18 C17 1_555 1_555
H19 C18 1_555 1_555
H20 C18 1_555 1_555
H21 C19 1_555 1_555
H22 C20 1_555 1_555
H23 C21 1_555 1_555
H24 C21 1_555 1_555
H25 C21 1_555 1_555
H26 C22 1_555 1_555
H27 C22 1_555 1_555
H28 C22 1_555 1_555
H29 C23 1_555 1_555
H30 C23 1_555 1_555
H31 C23 1_555 1_555
C7 C8 1_555 1_555
C11 C12 1_555 1_555
C18 C19 1_555 1_555

#END
