
#######################################################################
#
#                 Cambridge Crystallographic Data Centre
#                                CCDC 
#
#######################################################################
#
# If this CIF has been generated from an entry in the Cambridge 
# Structural Database, then it will include bibliographic, chemical, 
# crystal, experimental, refinement or atomic coordinate data resulting 
# from the CCDC's data processing and validation procedures.
#
#######################################################################

data_JUTYUU
_chemical_formula_moiety         'C9 H16 N2 O1,H2 O1'
_chemical_name_systematic        
'1,5-Dimethyl-3,7-diazabicyclo[3.3.1]nonan-9-one monohydrate'
_symmetry_cell_setting           orthorhombic
_symmetry_space_group_name_H-M   'P n m a'
_symmetry_Int_Tables_number      62
_space_group_name_Hall           '-P 2ac 2n'
loop_
_symmetry_equiv_pos_site_id
_symmetry_equiv_pos_as_xyz
1 x,y,z
2 1/2-x,-y,1/2+z
3 -x,1/2+y,-z
4 1/2+x,1/2-y,1/2-z
5 -x,-y,-z
6 1/2+x,y,1/2-z
7 x,1/2-y,z
8 1/2-x,1/2+y,1/2+z
_cell_length_a                   10.256(2)
_cell_length_b                   8.0948(17)
_cell_length_c                   12.141(3)
_cell_angle_alpha                90
_cell_angle_beta                 90
_cell_angle_gamma                90
_cell_volume                     1007.95
_exptl_crystal_colour            colorless
_exptl_crystal_description       block
_cell_formula_units_Z            4
loop_
_atom_site_label
_atom_site_type_symbol
_atom_site_fract_x
_atom_site_fract_y
_atom_site_fract_z
O1 O 1.04212(11) 0.2500 0.48739(10)
N1 N 0.68450(9) 0.06308(12) 0.52465(8)
C1 C 0.92423(15) 0.2500 0.49947(12)
C2 C 0.74466(11) 0.09036(14) 0.41724(9)
C3 C 0.77349(11) 0.09017(13) 0.61607(9)
C4 C 0.82780(15) 0.2500 0.40554(12)
C5 C 0.85770(14) 0.2500 0.61031(12)
C6 C 0.8941(2) 0.2500 0.29303(14)
C7 C 0.95447(19) 0.2500 0.70554(15)
H1 H 0.8342(12) -0.0042(17) 0.6196(10)
H2 H 0.8015(12) -0.0040(16) 0.4020(10)
H3 H 0.7219(11) 0.0942(16) 0.6848(11)
H4 H 0.6154(14) 0.1235(19) 0.5296(11)
H5 H 0.6745(12) 0.0923(16) 0.3627(11)
H6 H 0.906(2) 0.2500 0.7716(18)
H7 H 0.830(2) 0.2500 0.2349(19)
H8 H 0.9466(13) 0.1515(17) 0.2828(12)
H9 H 1.0078(14) 0.1509(19) 0.7028(13)
N1F N 0.68450(9) 0.43692(12) 0.52465(8)
C2F C 0.74466(11) 0.40964(14) 0.41724(9)
C3F C 0.77349(11) 0.40983(13) 0.61607(9)
H1F H 0.8342(12) 0.5042(17) 0.6196(10)
H2F H 0.8015(12) 0.5040(16) 0.4020(10)
H3F H 0.7219(11) 0.4058(16) 0.6848(11)
H4F H 0.6154(14) 0.3765(19) 0.5296(11)
H5F H 0.6745(12) 0.4077(16) 0.3627(11)
H8F H 0.9466(13) 0.3485(17) 0.2828(12)
H9F H 1.0078(14) 0.3491(19) 0.7028(13)
O2 O 0.43516(12) 0.2500 0.50092(11)
H10 H 0.3862(16) 0.168(2) 0.4892(10)
H10F H 0.3862(16) 0.332(2) 0.4892(10)
loop_
_geom_bond_atom_site_label_1
_geom_bond_atom_site_label_2
_geom_bond_site_symmetry_1
_geom_bond_site_symmetry_2
O1 C1 1_555 1_555
N1 C2 1_555 1_555
C1 C4 1_555 1_555
C2 C4 1_555 1_555
C3 N1 1_555 1_555
C4 C6 1_555 1_555
C5 C1 1_555 1_555
C6 H7 1_555 1_555
C7 C5 1_555 1_555
H1 C3 1_555 1_555
H2 C2 1_555 1_555
H3 C3 1_555 1_555
H4 N1 1_555 1_555
H5 C2 1_555 1_555
H6 C7 1_555 1_555
H8 C6 1_555 1_555
H9 C7 1_555 1_555
O2 H10 1_555 1_555
N1F C2F 1_555 1_555
C2F C4 1_555 1_555
C3F C5 1_555 1_555
H1F C3F 1_555 1_555
H2F C2F 1_555 1_555
H3F C3F 1_555 1_555
H4F N1F 1_555 1_555
H5F C2F 1_555 1_555
H8F C6 1_555 1_555
H9F C7 1_555 1_555
H10F O2 1_555 1_555
C3 C5 1_555 1_555
N1F C3F 1_555 1_555

#END
