
#######################################################################
#
#                 Cambridge Crystallographic Data Centre
#                                CCDC 
#
#######################################################################
#
# If this CIF has been generated from an entry in the Cambridge 
# Structural Database, then it will include bibliographic, chemical, 
# crystal, experimental, refinement or atomic coordinate data resulting 
# from the CCDC's data processing and validation procedures.
#
#######################################################################

data_JUVLOD
_chemical_formula_moiety         'C16 H19 N1 O2 S1'
_chemical_name_systematic        
1-Ethynyl-6,6-dimethyl-3-((4-methylphenyl)sulfonyl)-3-azabicyclo[3.1.0]hexane
_symmetry_cell_setting           orthorhombic
_symmetry_space_group_name_H-M   'P 21 21 21'
_symmetry_Int_Tables_number      19
_space_group_name_Hall           'P 2ac 2ab'
loop_
_symmetry_equiv_pos_site_id
_symmetry_equiv_pos_as_xyz
1 x,y,z
2 1/2+x,1/2-y,-z
3 -x,1/2+y,1/2-z
4 1/2-x,-y,1/2+z
_cell_length_a                   5.92780(10)
_cell_length_b                   8.3994(2)
_cell_length_c                   31.263(2)
_cell_angle_alpha                90
_cell_angle_beta                 90
_cell_angle_gamma                90
_cell_volume                     1556.58
_exptl_crystal_colour            colorless
_exptl_crystal_description       prism
_cell_formula_units_Z            4
loop_
_atom_site_label
_atom_site_type_symbol
_atom_site_fract_x
_atom_site_fract_y
_atom_site_fract_z
S1 S 0.60848(12) 0.26605(9) 0.13735(2)
O1 O 0.6407(5) 0.4215(3) 0.11967(8)
O2 O 0.7987(4) 0.1678(4) 0.14735(8)
C1 C 0.0075(7) -0.3025(4) 0.09354(11)
H1 H -0.0783 -0.3923 0.0996
C2 C 0.1160(6) -0.1887(4) 0.08582(9)
C3 C 0.2468(5) -0.0477(3) 0.07620(9)
C4 C 0.4338(5) -0.0062(4) 0.10737(10)
H2 H 0.3923 -0.0351 0.1364
H3 H 0.5728 -0.0603 0.0998
N1 N 0.4584(4) 0.1678(3) 0.10306(7)
C5 C 0.4451(5) 0.2884(4) 0.18408(9)
C6 C 0.4812(7) 0.1896(5) 0.21860(11)
H4 H 0.5935 0.1123 0.2177
C7 C 0.3476(8) 0.2070(6) 0.25478(12)
H5 H 0.3746 0.1417 0.2783
C8 C 0.1775(7) 0.3170(5) 0.25709(12)
C9 C 0.0309(11) 0.3346(7) 0.29637(15)
H6 H 0.0816 0.2622 0.3181
H7 H -0.1228 0.3108 0.2891
H8 H 0.0408 0.4418 0.3068
C10 C 0.1392(5) 0.1074(3) 0.06215(9)
H9 H -0.0257 0.1106 0.0602
C11 C 0.2628(5) 0.0101(3) 0.02978(9)
C12 C 0.1204(6) -0.0770(4) -0.00279(9)
H10 H -0.0214 -0.1058 0.0099
H11 H 0.1978 -0.1713 -0.0120
H12 H 0.0942 -0.0090 -0.0270
C13 C 0.4856(6) 0.0645(4) 0.01145(11)
H13 H 0.4588 0.1380 -0.0115
H14 H 0.5673 -0.0259 0.0008
H15 H 0.5723 0.1159 0.0334
C14 C 0.2529(4) 0.2412(4) 0.08468(10)
H16 H 0.2916 0.3258 0.0649
H17 H 0.1571 0.2844 0.1070
C15 C 0.2778(7) 0.4018(4) 0.18611(12)
H18 H 0.2549 0.4705 0.1632
C16 C 0.1444(8) 0.4137(5) 0.22197(13)
H19 H 0.0291 0.4887 0.2226
loop_
_geom_bond_atom_site_label_1
_geom_bond_atom_site_label_2
_geom_bond_site_symmetry_1
_geom_bond_site_symmetry_2
S1 O1 1_555 1_555
O2 S1 1_555 1_555
C1 H1 1_555 1_555
C2 C1 1_555 1_555
C3 C2 1_555 1_555
C4 C3 1_555 1_555
H2 C4 1_555 1_555
H3 C4 1_555 1_555
N1 S1 1_555 1_555
C5 S1 1_555 1_555
C6 C5 1_555 1_555
H4 C6 1_555 1_555
C7 C6 1_555 1_555
H5 C7 1_555 1_555
C8 C7 1_555 1_555
C9 C8 1_555 1_555
H6 C9 1_555 1_555
H7 C9 1_555 1_555
H8 C9 1_555 1_555
C10 C3 1_555 1_555
H9 C10 1_555 1_555
C11 C3 1_555 1_555
C12 C11 1_555 1_555
H10 C12 1_555 1_555
H11 C12 1_555 1_555
H12 C12 1_555 1_555
C13 C11 1_555 1_555
H13 C13 1_555 1_555
H14 C13 1_555 1_555
H15 C13 1_555 1_555
C14 N1 1_555 1_555
H16 C14 1_555 1_555
H17 C14 1_555 1_555
C15 C5 1_555 1_555
H18 C15 1_555 1_555
C16 C8 1_555 1_555
H19 C16 1_555 1_555
C4 N1 1_555 1_555
C10 C11 1_555 1_555
C10 C14 1_555 1_555
C15 C16 1_555 1_555

#END
