
#######################################################################
#
#                 Cambridge Crystallographic Data Centre
#                                CCDC 
#
#######################################################################
#
# If this CIF has been generated from an entry in the Cambridge 
# Structural Database, then it will include bibliographic, chemical, 
# crystal, experimental, refinement or atomic coordinate data resulting 
# from the CCDC's data processing and validation procedures.
#
#######################################################################

data_JUVLIX
_chemical_formula_moiety         'C15 H20 I1 N1 O3 S1'
_chemical_name_systematic        
N-(2-Iodo-3-oxopropyl)-4-methyl-N-(3-methylbut-2-en-1-yl)benzenesulfonamide
_symmetry_cell_setting           monoclinic
_symmetry_space_group_name_H-M   'P 21/n'
_symmetry_Int_Tables_number      14
_space_group_name_Hall           '-P 2yn'
loop_
_symmetry_equiv_pos_site_id
_symmetry_equiv_pos_as_xyz
1 x,y,z
2 1/2-x,1/2+y,1/2-z
3 -x,-y,-z
4 1/2+x,1/2-y,1/2+z
_cell_length_a                   11.4472(4)
_cell_length_b                   5.3308(2)
_cell_length_c                   28.617(2)
_cell_angle_alpha                90
_cell_angle_beta                 95.192(7)
_cell_angle_gamma                90
_cell_volume                     1739.12
_exptl_crystal_colour            colorless
_exptl_crystal_description       prism
_cell_formula_units_Z            4
loop_
_atom_site_label
_atom_site_type_symbol
_atom_site_fract_x
_atom_site_fract_y
_atom_site_fract_z
I1 I 0.87989(4) 0.83535(10) 0.21543(2)
S1 S 0.89539(11) 1.0549(3) 0.39806(4)
C1 C 0.6824(5) 0.4695(12) 0.4677(2)
N1 N 0.9808(4) 0.9016(8) 0.36559(13)
O1 O 0.9700(4) 1.1751(7) 0.43378(13)
O2 O 0.8194(3) 1.2009(7) 0.36682(12)
C2 C 0.8100(4) 0.8339(10) 0.42556(16)
C3 C 0.7052(5) 0.7481(12) 0.40309(18)
H1 H 0.6772 0.8131 0.3740
C4 C 0.8501(5) 0.7387(12) 0.46891(17)
H2 H 0.9201 0.7960 0.4843
C5 C 0.6428(5) 0.5654(13) 0.4243(2)
H3 H 0.5730 0.5058 0.4091
C6 C 0.7847(6) 0.5563(13) 0.48930(19)
H4 H 0.8118 0.4920 0.5185
C7 C 0.6139(7) 0.2629(14) 0.4897(3)
H5 H 0.5442 0.2257 0.4697
H6 H 0.6616 0.1150 0.4937
H7 H 0.5925 0.3177 0.5198
C8 C 0.939(3) 0.813(5) 0.3220(9)
H8 H 0.8569 0.7706 0.3223
H9 H 0.9812 0.6605 0.3154
C9 C 0.9534(10) 1.002(3) 0.2834(4)
H10 H 0.9121 1.1578 0.2896
C10 C 1.0795(11) 1.056(3) 0.2765(3)
H11 H 1.1335 0.9348 0.2695
O3 O 1.1040(17) 1.291(4) 0.2815(9)
C11 C 1.0781(13) 0.749(5) 0.3962(5)
H12 H 1.0992 0.8348 0.4256
H13 H 1.0489 0.5832 0.4031
C12 C 1.1837(9) 0.727(2) 0.3684(4)
H14 H 1.1859 0.5898 0.3483
C13 C 1.272(3) 0.881(9) 0.3699(16)
C14 C 1.2733(15) 1.126(3) 0.3974(6)
H15 H 1.2720 1.2652 0.3760
H16 H 1.3431 1.1343 0.4186
H17 H 1.2056 1.1336 0.4148
C15 C 1.3784(12) 0.861(4) 0.3438(7)
H18 H 1.3764 0.7050 0.3269
H19 H 1.4473 0.8662 0.3655
H20 H 1.3801 0.9978 0.3221
C16? C 0.913(4) 0.799(8) 0.3185(13)
H21? H 0.9092 0.6168 0.3190
H22? H 0.8343 0.8653 0.3144
C17? C 0.9847(16) 0.888(4) 0.2792(5)
H23? H 1.0614 0.8058 0.2797
C18? C 0.9924(19) 1.169(3) 0.2785(5)
H24? H 0.9309 1.2797 0.2821
O4? O 1.100(4) 1.233(7) 0.2722(14)
C19? C 1.0745(15) 0.755(6) 0.3812(6)
H25? H 1.0901 0.6356 0.3570
H26? H 1.0555 0.6616 0.4086
C20? C 1.1824(10) 0.911(3) 0.3937(5)
H27? H 1.1792 1.0147 0.4196
C21? C 1.279(3) 0.921(12) 0.374(2)
C22? C 1.310(2) 0.763(4) 0.3324(6)
H28? H 1.3799 0.6673 0.3414
H29? H 1.3240 0.8705 0.3066
H30? H 1.2467 0.6508 0.3232
C23? C 1.3790(16) 1.088(4) 0.3901(8)
H31? H 1.3498 1.2303 0.4060
H32? H 1.4179 1.1444 0.3637
H33? H 1.4336 0.9974 0.4113
loop_
_geom_bond_atom_site_label_1
_geom_bond_atom_site_label_2
_geom_bond_site_symmetry_1
_geom_bond_site_symmetry_2
I1 C9 1_555 1_555
S1 N1 1_555 1_555
C1 C5 1_555 1_555
N1 C8 1_555 1_555
O1 S1 1_555 1_555
O2 S1 1_555 1_555
C2 S1 1_555 1_555
C3 C2 1_555 1_555
H1 C3 1_555 1_555
C4 C2 1_555 1_555
H2 C4 1_555 1_555
C5 C3 1_555 1_555
H3 C5 1_555 1_555
C6 C1 1_555 1_555
H4 C6 1_555 1_555
C7 C1 1_555 1_555
H5 C7 1_555 1_555
H6 C7 1_555 1_555
H7 C7 1_555 1_555
C8 H8 1_555 1_555
H9 C8 1_555 1_555
C9 C8 1_555 1_555
H10 C9 1_555 1_555
C10 C9 1_555 1_555
H11 C10 1_555 1_555
O3 C10 1_555 1_555
C11 N1 1_555 1_555
H12 C11 1_555 1_555
H13 C11 1_555 1_555
C12 C11 1_555 1_555
H14 C12 1_555 1_555
C13 C12 1_555 1_555
C14 C13 1_555 1_555
H15 C14 1_555 1_555
H16 C14 1_555 1_555
H17 C14 1_555 1_555
C15 C13 1_555 1_555
H18 C15 1_555 1_555
H19 C15 1_555 1_555
H20 C15 1_555 1_555
C4 C6 1_555 1_555

#END
