
#######################################################################
#
#                 Cambridge Crystallographic Data Centre
#                                CCDC 
#
#######################################################################
#
# If this CIF has been generated from an entry in the Cambridge 
# Structural Database, then it will include bibliographic, chemical, 
# crystal, experimental, refinement or atomic coordinate data resulting 
# from the CCDC's data processing and validation procedures.
#
#######################################################################

data_JUVRID
_chemical_formula_moiety         'C19 H19 N1 O1'
_chemical_name_systematic        
(S)-4-(1-(5-Methyl-1H-pyrrol-2-yl)-1-phenylethyl)phenol
_symmetry_cell_setting           orthorhombic
_symmetry_space_group_name_H-M   'P 21 21 21'
_symmetry_Int_Tables_number      19
_space_group_name_Hall           'P 2ac 2ab'
loop_
_symmetry_equiv_pos_site_id
_symmetry_equiv_pos_as_xyz
1 x,y,z
2 1/2-x,-y,1/2+z
3 1/2+x,1/2-y,-z
4 -x,1/2+y,1/2-z
_cell_length_a                   6.58819(9)
_cell_length_b                   20.5469(2)
_cell_length_c                   22.9855(3)
_cell_angle_alpha                90
_cell_angle_beta                 90
_cell_angle_gamma                90
_cell_volume                     3111.48
_exptl_crystal_colour            orange
_exptl_crystal_description       needle
_cell_formula_units_Z            8
_exptl_crystal_recrystallization_method 'hexane/diethyl ether'
loop_
_atom_site_label
_atom_site_type_symbol
_atom_site_fract_x
_atom_site_fract_y
_atom_site_fract_z
O1 O -0.03821(17) 0.57748(5) 0.24094(5)
H1 H 0.0623 0.5879 0.2205
N1 N 0.17032(17) 0.52360(5) 0.49483(5)
H2 H 0.0566 0.5359 0.4780
C1 C 0.2627(2) 0.55612(7) 0.53975(6)
C2 C 0.4349(2) 0.52182(7) 0.55396(6)
H3 H 0.5293 0.5327 0.5837
C3 C 0.4462(2) 0.46694(7) 0.51594(6)
H4 H 0.5498 0.4348 0.5157
C4 C 0.2804(2) 0.46900(6) 0.47973(6)
C5 C 0.1766(3) 0.61788(8) 0.56383(7)
H5 H 0.2061 0.6539 0.5372
H6 H 0.2379 0.6269 0.6018
H7 H 0.0293 0.6133 0.5683
C6 C 0.2104(2) 0.42131(6) 0.43345(6)
C7 C 0.1424(2) 0.45970(6) 0.37958(6)
C8 C -0.0528(2) 0.48609(6) 0.37657(6)
H8 H -0.1472 0.4771 0.4068
C9 C -0.1119(2) 0.52536(7) 0.33009(6)
H9 H -0.2450 0.5431 0.3288
C10 C 0.0247(2) 0.53830(6) 0.28604(6)
C11 C 0.2173(2) 0.51167(7) 0.28725(6)
H10 H 0.3097 0.5199 0.2564
C12 C 0.2752(2) 0.47274(7) 0.33402(6)
H11 H 0.4080 0.4548 0.3348
C13 C 0.3913(2) 0.37585(7) 0.41972(6)
H12 H 0.4201 0.3485 0.4537
H13 H 0.5112 0.4021 0.4104
H14 H 0.3572 0.3482 0.3864
C14 C 0.0406(2) 0.37667(6) 0.45589(6)
C15 C -0.0078(2) 0.37318(6) 0.51472(6)
H15 H 0.0543 0.4025 0.5413
C16 C -0.1462(2) 0.32722(7) 0.53533(6)
H16 H -0.1777 0.3255 0.5756
C17 C -0.2377(2) 0.28420(7) 0.49715(6)
H17 H -0.3311 0.2526 0.5111
C18 C -0.1916(2) 0.28751(7) 0.43802(6)
H18 H -0.2543 0.2582 0.4116
C19 C -0.0550(2) 0.33333(6) 0.41767(6)
H19 H -0.0257 0.3354 0.3772
O2 O 0.75392(16) 0.59399(5) 0.47927(4)
H20 H 0.6552 0.5722 0.4917
N2 N 0.56758(19) 0.62923(6) 0.21166(5)
H21 H 0.6862 0.6187 0.2266
C20 C 0.4682(2) 0.59400(7) 0.16993(6)
C21 C 0.2906(2) 0.62598(7) 0.15779(6)
H22 H 0.1909 0.6130 0.1303
C22 C 0.2829(2) 0.68256(7) 0.19424(6)
H23 H 0.1767 0.7138 0.1954
C23 C 0.4565(2) 0.68343(6) 0.22717(6)
C24 C 0.5577(3) 0.53278(7) 0.14615(6)
H24 H 0.6774 0.5433 0.1227
H25 H 0.4570 0.5106 0.1218
H26 H 0.5973 0.5042 0.1784
C25 C 0.5438(2) 0.73122(6) 0.27099(6)
C26 C 0.6030(2) 0.69434(6) 0.32694(6)
C27 C 0.7876(2) 0.70370(7) 0.35497(6)
H27 H 0.8835 0.7332 0.3390
C28 C 0.8346(2) 0.67055(7) 0.40618(7)
H28 H 0.9617 0.6776 0.4247
C29 C 0.6966(2) 0.62748(7) 0.43009(6)
C30 C 0.5098(2) 0.61780(6) 0.40326(6)
H29 H 0.4131 0.5889 0.4198
C31 C 0.4660(2) 0.65075(7) 0.35203(6)
H30 H 0.3392 0.6434 0.3335
C32 C 0.7333(2) 0.76331(7) 0.24296(6)
H31 H 0.8390 0.7303 0.2373
H32 H 0.7846 0.7977 0.2686
H33 H 0.6960 0.7822 0.2053
C33 C 0.3893(2) 0.78542(7) 0.28411(6)
C34 C 0.3205(2) 0.82607(7) 0.23954(6)
H34 H 0.3692 0.8195 0.2011
C35 C 0.1832(3) 0.87574(7) 0.25000(7)
H35 H 0.1378 0.9023 0.2188
C36 C 0.1114(3) 0.88693(7) 0.30602(7)
H36 H 0.0172 0.9209 0.3134
C37 C 0.1797(2) 0.84764(7) 0.35089(7)
H37 H 0.1329 0.8550 0.3894
C38 C 0.3164(2) 0.79749(7) 0.33997(6)
H38 H 0.3611 0.7709 0.3713
loop_
_geom_bond_atom_site_label_1
_geom_bond_atom_site_label_2
_geom_bond_site_symmetry_1
_geom_bond_site_symmetry_2
O1 H1 1_555 1_555
N1 H2 1_555 1_555
C1 N1 1_555 1_555
C2 C1 1_555 1_555
H3 C2 1_555 1_555
C3 C2 1_555 1_555
H4 C3 1_555 1_555
C4 N1 1_555 1_555
C5 C1 1_555 1_555
H5 C5 1_555 1_555
H6 C5 1_555 1_555
H7 C5 1_555 1_555
C6 C4 1_555 1_555
C7 C6 1_555 1_555
C8 C7 1_555 1_555
H8 C8 1_555 1_555
C9 C8 1_555 1_555
H9 C9 1_555 1_555
C10 O1 1_555 1_555
C11 C10 1_555 1_555
H10 C11 1_555 1_555
C12 C7 1_555 1_555
H11 C12 1_555 1_555
C13 C6 1_555 1_555
H12 C13 1_555 1_555
H13 C13 1_555 1_555
H14 C13 1_555 1_555
C14 C6 1_555 1_555
C15 C14 1_555 1_555
H15 C15 1_555 1_555
C16 C15 1_555 1_555
H16 C16 1_555 1_555
C17 C16 1_555 1_555
H17 C17 1_555 1_555
C18 C17 1_555 1_555
H18 C18 1_555 1_555
C19 C14 1_555 1_555
H19 C19 1_555 1_555
O2 H20 1_555 1_555
N2 H21 1_555 1_555
C20 N2 1_555 1_555
C21 C20 1_555 1_555
H22 C21 1_555 1_555
C22 C21 1_555 1_555
H23 C22 1_555 1_555
C23 N2 1_555 1_555
C24 C20 1_555 1_555
H24 C24 1_555 1_555
H25 C24 1_555 1_555
H26 C24 1_555 1_555
C25 C23 1_555 1_555
C26 C25 1_555 1_555
C27 C26 1_555 1_555
H27 C27 1_555 1_555
C28 C27 1_555 1_555
H28 C28 1_555 1_555
C29 O2 1_555 1_555
C30 C29 1_555 1_555
H29 C30 1_555 1_555
C31 C26 1_555 1_555
H30 C31 1_555 1_555
C32 C25 1_555 1_555
H31 C32 1_555 1_555
H32 C32 1_555 1_555
H33 C32 1_555 1_555
C33 C25 1_555 1_555
C34 C33 1_555 1_555
H34 C34 1_555 1_555
C35 C34 1_555 1_555
H35 C35 1_555 1_555
C36 C35 1_555 1_555
H36 C36 1_555 1_555
C37 C36 1_555 1_555
H37 C37 1_555 1_555
C38 C33 1_555 1_555
H38 C38 1_555 1_555
C3 C4 1_555 1_555
C9 C10 1_555 1_555
C11 C12 1_555 1_555
C18 C19 1_555 1_555
C22 C23 1_555 1_555
C28 C29 1_555 1_555
C30 C31 1_555 1_555
C37 C38 1_555 1_555

#END
