
#######################################################################
#
#                 Cambridge Crystallographic Data Centre
#                                CCDC 
#
#######################################################################
#
# If this CIF has been generated from an entry in the Cambridge 
# Structural Database, then it will include bibliographic, chemical, 
# crystal, experimental, refinement or atomic coordinate data resulting 
# from the CCDC's data processing and validation procedures.
#
#######################################################################

data_JUVWAA
_chemical_compound_source        'fungi Aspergillus fumigatus'
_chemical_name_common            isochaetominine
_chemical_formula_moiety         'C22 H18 N4 O4,H2 O1'
_chemical_name_systematic        
'5a-hydroxy-2-methyl-4-(4-oxoquinazolin-3(4H)-yl)-4,5,5a,9c-tetrahydro-3H-2a,9b-diazacyclopenta[jk]fluorene-1,3(2H)-dione monohydrate'
_symmetry_cell_setting           monoclinic
_symmetry_space_group_name_H-M   'C 2'
_symmetry_Int_Tables_number      5
_space_group_name_Hall           'C 2y'
loop_
_symmetry_equiv_pos_site_id
_symmetry_equiv_pos_as_xyz
1 x,y,z
2 -x,y,-z
3 1/2+x,1/2+y,z
4 1/2-x,1/2+y,-z
_cell_length_a                   27.4147(10)
_cell_length_b                   8.6159(3)
_cell_length_c                   8.8791(3)
_cell_angle_alpha                90
_cell_angle_beta                 97.3640(10)
_cell_angle_gamma                90
_cell_volume                     2079.97
_exptl_crystal_colour            colorless
_exptl_crystal_description       needle
_chemical_melting_point          '198-200 deg.C'
_cell_formula_units_Z            4
_exptl_crystal_recrystallization_method methanol
loop_
_atom_site_label
_atom_site_type_symbol
_atom_site_fract_x
_atom_site_fract_y
_atom_site_fract_z
O1 O 0.36828(7) 0.8706(2) 0.4592(2)
N1 N 0.27798(7) 0.9187(3) 0.1558(3)
O2 O 0.22498(8) 0.9153(5) -0.0658(3)
C1 C 0.33024(8) 0.8898(3) 0.2039(3)
H1 H 0.3478 0.9884 0.2228
O3 O 0.38324(8) 0.6200(3) -0.0406(2)
H2 H 0.3808(14) 0.796(5) 0.545(5)
C2 C 0.33340(8) 0.7945(3) 0.3524(2)
C3 C 0.28097(9) 0.8047(3) 0.3894(3)
O4 O 0.49093(7) 0.5856(3) 0.3049(4)
C4 C 0.26134(12) 0.7490(4) 0.5141(3)
H3 H 0.2815 0.7023 0.5935
C5 C 0.18131(12) 0.8324(4) 0.4026(4)
H4 H 0.1477 0.8397 0.4079
C6 C 0.21123(14) 0.7630(4) 0.5200(5)
H5 H 0.1977 0.7254 0.6037
C7 C 0.20007(10) 0.8916(4) 0.2766(4)
H6 H 0.1799 0.9399 0.1982
C8 C 0.25020(9) 0.8754(3) 0.2731(3)
C9 C 0.26578(10) 0.9016(4) 0.0030(3)
C10 C 0.31220(10) 0.8610(3) -0.0644(3)
H7 H 0.3056 0.7712 -0.1316
C11 C 0.33134(14) 0.9933(5) -0.1536(4)
H8 H 0.3614 0.9622 -0.1897
H9 H 0.3374 1.0824 -0.0890
H10 H 0.3073 1.0189 -0.2384
N2 N 0.34557(8) 0.8135(2) 0.0707(2)
C12 C 0.37445(9) 0.6875(3) 0.0741(3)
C13 C 0.39248(8) 0.6300(3) 0.2336(3)
H11 H 0.4167 0.7045 0.2814
C14 C 0.34878(8) 0.6275(3) 0.3249(2)
H12 H 0.3215 0.5714 0.2693
H13 H 0.3580 0.5754 0.4212
N3 N 0.41660(7) 0.4790(3) 0.2284(3)
C15 C 0.46650(9) 0.4683(3) 0.2702(4)
C16 C 0.48565(12) 0.3108(4) 0.2742(5)
C17 C 0.53420(15) 0.2788(5) 0.3298(8)
H14 H 0.5554 0.3601 0.3610
C18 C 0.55143(18) 0.1296(7) 0.3394(12)
H15 H 0.5833 0.1085 0.3840
C19 C 0.52063(19) 0.0109(7) 0.2818(13)
H16 H 0.5327 -0.0901 0.2830
C20 C 0.47319(18) 0.0385(5) 0.2236(10)
H17 H 0.4531 -0.0430 0.1850
C21 C 0.45447(13) 0.1898(4) 0.2218(6)
N4 N 0.40471(10) 0.2130(3) 0.1728(5)
C22 C 0.38914(11) 0.3516(3) 0.1795(4)
H18 H 0.3559 0.3681 0.1481
H19 H 0.4004(16) 0.659(6) 0.762(5)
H20 H 0.4349(19) 0.634(7) 0.667(6)
O5 O 0.40933(8) 0.6606(3) 0.6691(3)
loop_
_geom_bond_atom_site_label_1
_geom_bond_atom_site_label_2
_geom_bond_site_symmetry_1
_geom_bond_site_symmetry_2
O1 H2 1_555 1_555
N1 C1 1_555 1_555
O2 C9 1_555 1_555
C1 H1 1_555 1_555
O3 C12 1_555 1_555
C2 O1 1_555 1_555
C3 C2 1_555 1_555
O4 C15 1_555 1_555
C4 C3 1_555 1_555
H3 C4 1_555 1_555
C5 H4 1_555 1_555
C6 C4 1_555 1_555
H5 C6 1_555 1_555
C7 C5 1_555 1_555
H6 C7 1_555 1_555
C8 N1 1_555 1_555
C9 N1 1_555 1_555
C10 C9 1_555 1_555
H7 C10 1_555 1_555
C11 C10 1_555 1_555
H8 C11 1_555 1_555
H9 C11 1_555 1_555
H10 C11 1_555 1_555
N2 C1 1_555 1_555
C12 N2 1_555 1_555
C13 C12 1_555 1_555
H11 C13 1_555 1_555
C14 C2 1_555 1_555
H12 C14 1_555 1_555
H13 C14 1_555 1_555
N3 C13 1_555 1_555
C15 N3 1_555 1_555
C16 C15 1_555 1_555
C17 C16 1_555 1_555
H14 C17 1_555 1_555
C18 C17 1_555 1_555
H15 C18 1_555 1_555
C19 C18 1_555 1_555
H16 C19 1_555 1_555
C20 C19 1_555 1_555
H17 C20 1_555 1_555
C21 C16 1_555 1_555
N4 C21 1_555 1_555
C22 N3 1_555 1_555
H18 C22 1_555 1_555
H19 O5 1_555 1_555
H20 O5 1_555 1_555
C1 C2 1_555 1_555
C3 C8 1_555 1_555
C5 C6 1_555 1_555
C7 C8 1_555 1_555
C10 N2 1_555 1_555
C13 C14 1_555 1_555
C20 C21 1_555 1_555
N4 C22 1_555 1_555

#END
