
#######################################################################
#
#                 Cambridge Crystallographic Data Centre
#                                CCDC 
#
#######################################################################
#
# If this CIF has been generated from an entry in the Cambridge 
# Structural Database, then it will include bibliographic, chemical, 
# crystal, experimental, refinement or atomic coordinate data resulting 
# from the CCDC's data processing and validation procedures.
#
#######################################################################

data_JUVYAA01
_chemical_formula_moiety         'C60,C1 H2 I2,C6 H6'
_chemical_name_systematic        'C60Fullerene di-iodomethane benzene solvate'
_symmetry_cell_setting           monoclinic
_symmetry_space_group_name_H-M   'C 2/c'
_symmetry_Int_Tables_number      15
_space_group_name_Hall           '-C 2yn'
loop_
_symmetry_equiv_pos_site_id
_symmetry_equiv_pos_as_xyz
1 x,y,z
2 1/2+x,1/2+y,z
3 -x,y,1/2-z
4 1/2-x,1/2+y,1/2-z
5 -x,-y,-z
6 1/2-x,1/2-y,-z
7 x,-y,1/2+z
8 1/2+x,1/2-y,1/2+z
_cell_length_a                   21.239(7)
_cell_length_b                   17.403(4)
_cell_length_c                   10.106(2)
_cell_angle_alpha                90
_cell_angle_beta                 106.03(2)
_cell_angle_gamma                90
_cell_volume                     3590.16
_cell_formula_units_Z            4
loop_
_atom_site_label
_atom_site_type_symbol
_atom_site_fract_x
_atom_site_fract_y
_atom_site_fract_z
C1 C 0.2603(14) 0.127(2) 0.285(3)
C2 C 0.3218(15) 0.121(2) 0.261(3)
C3 C 0.367(2) 0.196(2) 0.304(3)
C4 C 0.3164(12) 0.2442(15) 0.362(2)
C5 C 0.2566(13) 0.199(2) 0.342(2)
C6 C 0.2077(12) 0.098(2) 0.187(3)
C7 C 0.1464(13) 0.1479(15) 0.157(3)
C8 C 0.115(2) 0.132(2) 0.001(4)
C9 C 0.1653(13) 0.074(2) -0.060(3)
C10 C 0.2171(12) 0.0602(14) 0.077(2)
C11 C 0.331(2) 0.083(2) 0.156(4)
C12 C 0.2029(15) 0.250(2) 0.304(3)
C13 C 0.149(2) 0.218(2) 0.216(3)
C14 C 0.2828(14) 0.051(2) 0.057(3)
C15 C 0.3898(14) 0.128(2) 0.101(3)
C16 C 0.4166(14) 0.196(2) 0.130(3)
C17 C 0.399(2) 0.240(2) 0.253(3)
C18 C 0.3059(13) 0.321(2) 0.335(3)
C19 C 0.246(2) 0.363(2) 0.295(4)
C20 C 0.201(2) 0.327(3) 0.275(4)
C21 C 0.1089(11) 0.2761(14) 0.117(2)
C22 C 0.4142(13) 0.251(2) 0.007(3)
C23 C 0.091(2) 0.169(3) -0.098(5)
C24 C 0.1867(14) 0.080(2) -0.177(3)
C25 C 0.246(2) 0.419(2) 0.181(4)
C26 C 0.288(2) 0.061(2) -0.079(3)
C27 C 0.3616(14) 0.105(2) -0.037(3)
C28 C 0.1397(14) 0.351(2) 0.142(3)
C29 C 0.3983(14) 0.317(2) 0.230(3)
C30 C 0.3453(15) 0.361(2) 0.277(3)
C22E C 0.0858(13) 0.249(2) -0.007(3)
C21E C 0.3911(11) 0.2239(14) -0.117(2)
C23E C 0.409(2) 0.331(3) 0.098(5)
C29E C 0.1017(14) 0.183(2) -0.230(3)
C25E C 0.254(2) 0.081(2) -0.181(4)
C30E C 0.1547(15) 0.139(2) -0.277(3)
C24E C 0.3133(14) 0.420(2) 0.177(3)
C26E C 0.212(2) 0.439(2) 0.079(3)
C28E C 0.3603(14) 0.149(2) -0.142(3)
C27E C 0.1384(14) 0.395(2) 0.037(3)
C16E C 0.0834(14) 0.304(2) -0.130(3)
C13E C 0.351(2) 0.282(2) -0.216(3)
C8E C 0.385(2) 0.368(2) -0.001(4)
C17E C 0.101(2) 0.260(2) -0.253(3)
C19E C 0.254(2) 0.137(2) -0.295(4)
C18E C 0.1941(13) 0.179(2) -0.335(3)
C9E C 0.3347(13) 0.426(2) 0.060(3)
C14E C 0.2172(14) 0.449(2) -0.057(3)
C20E C 0.299(2) 0.173(3) -0.275(4)
C15E C 0.1102(14) 0.372(2) -0.101(3)
C7E C 0.3536(13) 0.3521(15) -0.157(3)
C12E C 0.2971(15) 0.250(2) -0.304(3)
C3E C 0.133(2) 0.304(2) -0.304(3)
C4E C 0.1836(12) 0.2558(15) -0.362(2)
C10E C 0.2829(12) 0.4398(14) -0.077(2)
C11E C 0.169(2) 0.417(2) -0.156(4)
C6E C 0.2923(12) 0.402(2) -0.187(3)
C5E C 0.2434(13) 0.301(2) -0.342(2)
C2E C 0.1782(15) 0.379(2) -0.261(3)
C1E C 0.2397(14) 0.373(2) -0.285(3)
I1 I -0.05180(7) 0.41012(9) 0.07807(14)
C31 C 0.0000 0.473(2) 0.2500
I1B I 0.05180(7) 0.41012(9) 0.42193(14)
C32 C 0.0000 0.182(2) 0.2500
C33 C -0.0266(10) 0.146(2) 0.136(3)
C34 C -0.0322(13) 0.0689(14) 0.126(3)
C35 C 0.0000 0.027(2) 0.2500
C33B C 0.0266(10) 0.146(2) 0.364(3)
C34B C 0.0322(13) 0.0689(14) 0.374(3)
loop_
_geom_bond_atom_site_label_1
_geom_bond_atom_site_label_2
_geom_bond_site_symmetry_1
_geom_bond_site_symmetry_2
C1 C2 1_555 1_555
C2 C3 1_555 1_555
C3 C4 1_555 1_555
C4 C5 1_555 1_555
C5 C1 1_555 1_555
C6 C1 1_555 1_555
C7 C6 1_555 1_555
C8 C7 1_555 1_555
C9 C8 1_555 1_555
C10 C6 1_555 1_555
C11 C2 1_555 1_555
C12 C5 1_555 1_555
C13 C7 1_555 1_555
C14 C10 1_555 1_555
C15 C11 1_555 1_555
C16 C15 1_555 1_555
C17 C3 1_555 1_555
C18 C4 1_555 1_555
C19 C18 1_555 1_555
C20 C12 1_555 1_555
C21 C13 1_555 1_555
C22 C16 1_555 1_555
C23 C8 1_555 1_555
C24 C9 1_555 1_555
C25 C19 1_555 1_555
C26 C14 1_555 1_555
C27 C15 1_555 1_555
C28 C20 1_555 1_555
C29 C17 1_555 1_555
C30 C18 1_555 1_555
I1 C31 1_555 1_555
C31 I1B 1_555 1_555
C32 C33 1_555 1_555
C33 C34 1_555 1_555
C34 C35 1_555 1_555
C35 C34B 1_555 1_555
C22E C21 1_555 1_555
C21E C22 1_555 1_555
C23E C22 1_555 1_555
C29E C23 1_555 1_555
C25E C24 1_555 1_555
C30E C24 1_555 1_555
C24E C25 1_555 1_555
C26E C25 1_555 1_555
C28E C27 1_555 1_555
C27E C28 1_555 1_555
C16E C22E 1_555 1_555
C13E C21E 1_555 1_555
C8E C23E 1_555 1_555
C17E C29E 1_555 1_555
C19E C25E 1_555 1_555
C18E C30E 1_555 1_555
C9E C24E 1_555 1_555
C14E C26E 1_555 1_555
C20E C28E 1_555 1_555
C15E C27E 1_555 1_555
C7E C13E 1_555 1_555
C12E C13E 1_555 1_555
C3E C17E 1_555 1_555
C4E C18E 1_555 1_555
C10E C9E 1_555 1_555
C11E C14E 1_555 1_555
C6E C7E 1_555 1_555
C5E C12E 1_555 1_555
C2E C3E 1_555 1_555
C1E C6E 1_555 1_555
C33B C32 1_555 1_555
C34B C33B 1_555 1_555
C9 C10 1_555 1_555
C11 C14 1_555 1_555
C12 C13 1_555 1_555
C16 C17 1_555 1_555
C19 C20 1_555 1_555
C21 C28 1_555 1_555
C23 C22E 1_555 1_555
C26 C25E 1_555 1_555
C26 C27 1_555 1_555
C29 C23E 1_555 1_555
C29 C30 1_555 1_555
C30 C24E 1_555 1_555
C21E C28E 1_555 1_555
C29E C30E 1_555 1_555
C26E C27E 1_555 1_555
C16E C15E 1_555 1_555
C16E C17E 1_555 1_555
C8E C7E 1_555 1_555
C8E C9E 1_555 1_555
C19E C18E 1_555 1_555
C19E C20E 1_555 1_555
C14E C10E 1_555 1_555
C20E C12E 1_555 1_555
C15E C11E 1_555 1_555
C3E C4E 1_555 1_555
C4E C5E 1_555 1_555
C10E C6E 1_555 1_555
C11E C2E 1_555 1_555
C5E C1E 1_555 1_555
C2E C1E 1_555 1_555

#END
