
#######################################################################
#
#                 Cambridge Crystallographic Data Centre
#                                CCDC 
#
#######################################################################
#
# If this CIF has been generated from an entry in the Cambridge 
# Structural Database, then it will include bibliographic, chemical, 
# crystal, experimental, refinement or atomic coordinate data resulting 
# from the CCDC's data processing and validation procedures.
#
#######################################################################

data_JUWBUY
_chemical_formula_moiety         'C29 H44 O9'
_chemical_name_systematic        'Ajugavensin A'
_symmetry_cell_setting           orthorhombic
_symmetry_space_group_name_H-M   'P 21 21 21'
_symmetry_Int_Tables_number      19
_space_group_name_Hall           'P 2ac 2ab'
loop_
_symmetry_equiv_pos_site_id
_symmetry_equiv_pos_as_xyz
1 x,y,z
2 1/2+x,1/2-y,-z
3 -x,1/2+y,1/2-z
4 1/2-x,-y,1/2+z
_cell_length_a                   19.469(2)
_cell_length_b                   12.328(1)
_cell_length_c                   11.922(1)
_cell_angle_alpha                90
_cell_angle_beta                 90
_cell_angle_gamma                90
_cell_volume                     2861.44
_exptl_crystal_colour            colorless
_cell_formula_units_Z            4
loop_
_atom_site_label
_atom_site_type_symbol
_atom_site_fract_x
_atom_site_fract_y
_atom_site_fract_z
C1 C 0.9394(2) 0.3973(3) 0.5684(3)
C2 C 0.9820(2) 0.2936(3) 0.5736(4)
C3 C 0.9391(2) 0.1903(3) 0.5556(4)
C4 C 0.8638(2) 0.2078(2) 0.5796(3)
C5 C 0.8503(2) 0.2813(3) 0.6810(3)
C6 C 0.7737(2) 0.2954(3) 0.7105(3)
C7 C 0.7636(2) 0.3780(3) 0.8018(3)
C8 C 0.7895(2) 0.4917(3) 0.7686(3)
C9 C 0.8650(2) 0.4928(2) 0.7241(3)
C10 C 0.8723(2) 0.3979(2) 0.6373(3)
C11 C 0.8725(2) 0.6059(2) 0.6669(3)
C12 C 0.8331(2) 0.6304(3) 0.5593(4)
C13 C 0.8739(3) 0.7235(3) 0.5072(4)
C14 C 0.8499(4) 0.8368(4) 0.5402(9)
C15 C 0.9028(4) 0.8850(5) 0.5920(8)
C16 C 0.9433(2) 0.7158(3) 0.5627(4)
C17 C 0.7765(3) 0.5683(4) 0.8682(5)
C18 C 0.8146(2) 0.2005(3) 0.4856(3)
C19 C 0.8909(2) 0.2398(3) 0.7822(4)
C20 C 0.9187(2) 0.4880(3) 0.8173(3)
C21 C 0.8522(3) 0.0911(4) 0.8932(5)
C22 C 0.8453(4) -0.0285(5) 0.8955(7)
C23 C 0.6894(2) 0.1564(3) 0.6947(4)
C24 C 0.6737(3) 0.0412(4) 0.7280(6)
C25 C 0.9588(3) 0.4639(4) 0.3797(4)
C26 C 0.9277(4) 0.4654(6) 0.2617(5)
C27 C 0.9602(7) 0.5550(9) 0.1932(8)
C28 C 0.9566 0.3569 0.2212
C29 C 0.9042 0.3031 0.1350
O1 O 0.8220(1) 0.1132(2) 0.5634(3)
O2 O 0.8806(1) 0.1247(2) 0.7977(2)
O3 O 0.9426(1) 0.6270(2) 0.6376(3)
O4 O 0.9527(2) 0.8127(2) 0.6238(4)
O5 O 0.7449(1) 0.1931(2) 0.7479(2)
O6 O 0.9167(1) 0.4118(2) 0.4518(2)
O7 O 1.0136(2) 0.4990(4) 0.4067(4)
O8 O 0.8346(3) 0.1508(4) 0.9665(4)
O9 O 0.6579(2) 0.2075(3) 0.6267(4)
H1 H 0.972 0.460 0.570
H2 H 1.025 0.297 0.520
H3 H 1.009 0.290 0.649
H4 H 0.959 0.128 0.597
H5 H 0.947 0.164 0.476
H6 H 0.762 0.290 0.638
H7 H 0.790 0.355 0.882
H8 H 0.717 0.382 0.831
H9 H 0.754 0.507 0.691
H10 H 0.840 0.417 0.576
H11 H 0.871 0.669 0.725
H12 H 0.832 0.565 0.507
H13 H 0.784 0.649 0.571
H14 H 0.894 0.683 0.427
H15 H 0.806 0.837 0.590
H16 H 0.830 0.883 0.477
H17 H 0.923 0.948 0.545
H18 H 0.888 0.932 0.659
H19 H 0.987 0.704 0.504
H20 H 0.805 0.545 0.936
H21 H 0.728 0.573 0.890
H22 H 0.794 0.644 0.846
H23 H 0.830 0.198 0.405
H24 H 0.773 0.249 0.478
H25 H 0.879 0.283 0.853
H26 H 0.941 0.261 0.777
H27 H 0.913 0.420 0.862
H28 H 0.913 0.552 0.868
H29 H 0.968 0.489 0.790
H30 H 0.893 -0.065 0.887
H31 H 0.817 -0.055 0.830
H32 H 0.825 -0.059 0.966
H33 H 0.665 0.035 0.809
H34 H 0.713 -0.008 0.706
H35 H 0.631 0.011 0.688
H36 H 0.874 0.478 0.249
H37 H 1.010 0.544 0.188
H38 H 0.953 0.629 0.235
H39 H 0.938 0.560 0.119
H40 H 0.967 0.309 0.287
H41 H 1.004 0.365 0.189
H42 H 0.898 0.351 0.068
H43 H 0.859 0.291 0.172
H44 H 0.925 0.232 0.112
loop_
_geom_bond_atom_site_label_1
_geom_bond_atom_site_label_2
_geom_bond_site_symmetry_1
_geom_bond_site_symmetry_2
C1 C2 1_555 1_555
C2 C3 1_555 1_555
C3 C4 1_555 1_555
C4 C5 1_555 1_555
C5 C6 1_555 1_555
C6 C7 1_555 1_555
C7 C8 1_555 1_555
C8 C9 1_555 1_555
C9 C10 1_555 1_555
C10 C1 1_555 1_555
C11 C9 1_555 1_555
C12 C11 1_555 1_555
C13 C12 1_555 1_555
C14 C13 1_555 1_555
C15 C14 1_555 1_555
C16 C13 1_555 1_555
C17 C8 1_555 1_555
C18 C4 1_555 1_555
C19 C5 1_555 1_555
C20 C9 1_555 1_555
C21 C22 1_555 1_555
C22 H30 1_555 1_555
C23 C24 1_555 1_555
C24 H33 1_555 1_555
C25 C26 1_555 1_555
C26 C27 1_555 1_555
C27 H37 1_555 1_555
C28 C26 1_555 1_555
C29 C28 1_555 1_555
O1 C4 1_555 1_555
O2 C19 1_555 1_555
O3 C11 1_555 1_555
O4 C15 1_555 1_555
O5 C6 1_555 1_555
O6 C1 1_555 1_555
O7 C25 1_555 1_555
O8 C21 1_555 1_555
O9 C23 1_555 1_555
H1 C1 1_555 1_555
H2 C2 1_555 1_555
H3 C2 1_555 1_555
H4 C3 1_555 1_555
H5 C3 1_555 1_555
H6 C6 1_555 1_555
H7 C7 1_555 1_555
H8 C7 1_555 1_555
H9 C8 1_555 1_555
H10 C10 1_555 1_555
H11 C11 1_555 1_555
H12 C12 1_555 1_555
H13 C12 1_555 1_555
H14 C13 1_555 1_555
H15 C14 1_555 1_555
H16 C14 1_555 1_555
H17 C15 1_555 1_555
H18 C15 1_555 1_555
H19 C16 1_555 1_555
H20 C17 1_555 1_555
H21 C17 1_555 1_555
H22 C17 1_555 1_555
H23 C18 1_555 1_555
H24 C18 1_555 1_555
H25 C19 1_555 1_555
H26 C19 1_555 1_555
H27 C20 1_555 1_555
H28 C20 1_555 1_555
H29 C20 1_555 1_555
H31 C22 1_555 1_555
H32 C22 1_555 1_555
H34 C24 1_555 1_555
H35 C24 1_555 1_555
H36 C26 1_555 1_555
H38 C27 1_555 1_555
H39 C27 1_555 1_555
H40 C28 1_555 1_555
H41 C28 1_555 1_555
H42 C29 1_555 1_555
H43 C29 1_555 1_555
H44 C29 1_555 1_555
C5 C10 1_555 1_555
C16 O3 1_555 1_555
C16 O4 1_555 1_555
C18 O1 1_555 1_555
C21 O2 1_555 1_555
C23 O5 1_555 1_555
C25 O6 1_555 1_555

#END
