
#######################################################################
#
#                 Cambridge Crystallographic Data Centre
#                                CCDC 
#
#######################################################################
#
# If this CIF has been generated from an entry in the Cambridge 
# Structural Database, then it will include bibliographic, chemical, 
# crystal, experimental, refinement or atomic coordinate data resulting 
# from the CCDC's data processing and validation procedures.
#
#######################################################################

data_JUWCIN
_chemical_compound_source        'Fungus Drechslera portulacae'
_chemical_name_common            'Zeanol monohydrate'
_chemical_formula_moiety         'C19 H24 O7,H2 O1'
_chemical_name_systematic        
'(3S,5E,7S,8S,9S,11E)-3,4,7,8,9,10-Hexahydro-7,8,9,16-tetrahydroxy-14-methoxy-3-methyl-1H-2-benzoxacyclotetradecin-1-one monohydrate'
_symmetry_cell_setting           monoclinic
_symmetry_space_group_name_H-M   'C 2'
_symmetry_Int_Tables_number      5
_space_group_name_Hall           'C 2y'
loop_
_symmetry_equiv_pos_site_id
_symmetry_equiv_pos_as_xyz
1 x,y,z
2 1/2+x,1/2+y,z
3 -x,y,-z
4 1/2-x,1/2+y,-z
_cell_length_a                   16.891(3)
_cell_length_b                   5.006(1)
_cell_length_c                   23.360(5)
_cell_angle_alpha                90
_cell_angle_beta                 105.49(2)
_cell_angle_gamma                90
_cell_volume                     1903.49
_chemical_melting_point          198-200deg.C
_cell_formula_units_Z            4
loop_
_atom_site_label
_atom_site_type_symbol
_atom_site_fract_x
_atom_site_fract_y
_atom_site_fract_z
O1 O -0.0276(1) 0.1546(7) 0.2737(1)
O2 O -0.0513(2) -0.0676(9) 0.3504(1)
O3 O -0.0740(1) 0.8634(7) 0.0463(1)
O4 O 0.0997(1) 0.8466 0.0739(1)
O5 O 0.1710(1) 0.3393(6) 0.1192(1)
O6 O 0.3390(2) -0.0454(9) 0.4287(1)
O7 O 0.0665(2) -0.3017(9) 0.4238(1)
C1 C -0.0021(3) 0.0370(10) 0.3267(2)
C2 C -0.1179(2) 0.1791(9) 0.2497(2)
C3 C -0.1333(2) 0.2336(9) 0.1835(2)
C4 C -0.0893(2) 0.4729(9) 0.1679(2)
C5 C -0.0748(2) 0.5037(9) 0.1155(2)
C6 C -0.0272(2) 0.7312(8) 0.0994(1)
C7 C 0.0521(2) 0.6273(8) 0.0858(1)
C8 C 0.1030(2) 0.4610(8) 0.1367(1)
C9 C 0.1364(2) 0.6136(9) 0.1945(2)
C10 C 0.1631(2) 0.4255(10) 0.2456(2)
C11 C 0.1229(2) 0.3895(9) 0.2865(2)
C12 C 0.1460(2) 0.1900(9) 0.3347(2)
C13 C 0.2292(2) 0.1634(11) 0.3624(2)
C14 C 0.2553(3) -0.0307(1) 0.4071(2)
C15 C 0.2009(3) -0.1856(12) 0.4272(2)
C16 C 0.1167(3) -0.1485(11) 0.4010(2)
C17 C 0.0876(2) 0.0309(9) 0.3536(2)
C18 C -0.1499(3) 0.3911(11) 0.2830(2)
C19 C 0.3717(3) -0.2652(14) 0.4694(2)
H1 H -0.117(3) 0.851(12) 0.046(2)
H2 H 0.090(2) 0.876(11) 0.034(2)
H3 H 0.155(2) 0.160(12) 0.109(2)
H4 H 0.013(3) -0.267(14) 0.399(2)
H5 H -0.141(2) -0.032(10) 0.252(2)
H6 H -0.118(2) 0.064(10) 0.163(2)
H7 H -0.198(2) 0.258(10) 0.165(2)
H8 H -0.069(2) 0.637(11) 0.202(2)
H9 H -0.089(2) 0.332(10) 0.088(2)
H10 H -0.008(2) 0.873(10) 0.137(2)
H11 H 0.034(2) 0.495(9) 0.047(1)
H12 H 0.071(2) 0.299(9) 0.146(2)
H13 H 0.094(2) 0.760(10) 0.204(2)
H14 H 0.179(2) 0.756(10) 0.192(2)
H15 H 0.212(2) 0.291(10) 0.242(2)
H16 H 0.076(2) 0.544(10) 0.286(2)
H17 H 0.267(3) 0.317(11) 0.352(2)
H18 H 0.217(2) -0.364(11) 0.464(2)
H19 H -0.119(2) 0.574(10) 0.287(2)
H20 H -0.136(2) 0.365(11) 0.326(2)
H21 H -0.199(3) 0.436(12) 0.268(2)
H22 H 0.359(2) -0.249(10) 0.506(2)
H23 H 0.425(3) -0.223(11) 0.470(2)
H24 H 0.346(3) -0.466(11) 0.445(2)
O8 O 0.2599(2) 0.4673(7) 0.0338(1)
H25 H 0.240(3) 0.487(11) 0.059(2)
H26 H 0.258(3) 0.638(11) 0.019(2)
loop_
_geom_bond_atom_site_label_1
_geom_bond_atom_site_label_2
_geom_bond_site_symmetry_1
_geom_bond_site_symmetry_2
O1 C1 1_555 1_555
O2 C1 1_555 1_555
O3 C6 1_555 1_555
O4 C7 1_555 1_555
O5 C8 1_555 1_555
O6 C14 1_555 1_555
O7 C16 1_555 1_555
C1 C17 1_555 1_555
C2 O1 1_555 1_555
C3 C2 1_555 1_555
C4 C3 1_555 1_555
C5 C4 1_555 1_555
C6 C5 1_555 1_555
C7 C6 1_555 1_555
C8 C7 1_555 1_555
C9 C8 1_555 1_555
C10 C9 1_555 1_555
C11 C10 1_555 1_555
C12 C11 1_555 1_555
C13 C12 1_555 1_555
C14 C13 1_555 1_555
C15 C14 1_555 1_555
C16 C15 1_555 1_555
C17 C12 1_555 1_555
C18 C2 1_555 1_555
C19 O6 1_555 1_555
H1 O3 1_555 1_555
H2 O4 1_555 1_555
H3 O5 1_555 1_555
H4 O7 1_555 1_555
H5 C2 1_555 1_555
H6 C3 1_555 1_555
H7 C3 1_555 1_555
H8 C4 1_555 1_555
H9 C5 1_555 1_555
H10 C6 1_555 1_555
H11 C7 1_555 1_555
H12 C8 1_555 1_555
H13 C9 1_555 1_555
H14 C9 1_555 1_555
H15 C10 1_555 1_555
H16 C11 1_555 1_555
H17 C13 1_555 1_555
H18 C15 1_555 1_555
H19 C18 1_555 1_555
H20 C18 1_555 1_555
H21 C18 1_555 1_555
H22 C19 1_555 1_555
H23 C19 1_555 1_555
H24 C19 1_555 1_555
O8 H25 1_555 1_555
H26 O8 1_555 1_555
C16 C17 1_555 1_555

#END
