
#######################################################################
#
#                 Cambridge Crystallographic Data Centre
#                                CCDC 
#
#######################################################################
#
# If this CIF has been generated from an entry in the Cambridge 
# Structural Database, then it will include bibliographic, chemical, 
# crystal, experimental, refinement or atomic coordinate data resulting 
# from the CCDC's data processing and validation procedures.
#
#######################################################################

data_JUWWUT
_chemical_formula_moiety         'C18 H22 O2'
_chemical_name_systematic        rac-4-Methoxy-9a-carbomorphinan-15-one
_symmetry_cell_setting           triclinic
_symmetry_space_group_name_H-M   'P -1'
_symmetry_Int_Tables_number      2
_space_group_name_Hall           '-P 1'
loop_
_symmetry_equiv_pos_site_id
_symmetry_equiv_pos_as_xyz
1 x,y,z
2 -x,-y,-z
_cell_length_a                   9.607(3)
_cell_length_b                   11.170(4)
_cell_length_c                   7.518(2)
_cell_angle_alpha                107.35(2)
_cell_angle_beta                 92.99(3)
_cell_angle_gamma                70.04(3)
_cell_volume                     722.687
_chemical_melting_point          120deg.C
_cell_formula_units_Z            2
loop_
_atom_site_label
_atom_site_type_symbol
_atom_site_fract_x
_atom_site_fract_y
_atom_site_fract_z
O1 O 0.3368(1) 0.3331(1) 0.0953(2)
O2 O 0.2325(2) -0.1899(1) 0.1755(2)
C1 C 0.3555(2) 0.2976(2) 0.2563(2)
C2 C 0.4614(2) 0.3248(2) 0.3785(3)
C3 C 0.4837(2) 0.2803(2) 0.5332(3)
C4 C 0.4023(2) 0.2084(2) 0.5637(3)
C5 C 0.2956(2) 0.1798(2) 0.4420(2)
C6 C 0.2669(2) 0.2272(2) 0.2870(2)
C7 C 0.1530(2) 0.1914(2) 0.1484(2)
C8 C 0.0593(2) 0.3014(2) 0.0638(3)
C9 C -0.0399(2) 0.4227(2) 0.2078(4)
C10 C -0.1479(2) 0.3859(2) 0.3020(4)
C11 C -0.0657(2) 0.2746(2) 0.3851(3)
C12 C 0.0422(2) 0.1541(2) 0.2433(2)
C13 C 0.1259(2) 0.0427(2) 0.3272(3)
C14 C 0.2156(2) 0.0958(2) 0.4856(2)
C15 C 0.2264(2) -0.0784(2) 0.1827(3)
C16 C 0.3189(2) -0.0538(2) 0.0530(3)
C17 C 0.2378(2) 0.0668(2) -0.0117(2)
C18 C 0.3931(3) 0.4301(2) 0.0761(3)
H1 H 0.520(2) 0.378(2) 0.356(2)
H2 H 0.559(2) 0.295(2) 0.619(3)
H3 H 0.419(2) 0.172(2) 0.668(2)
H4 H -0.005(2) 0.262(2) -0.026(2)
H5 H 0.124(2) 0.325(2) -0.011(2)
H6 H 0.021(2) 0.460(2) 0.298(3)
H7 H -0.091(3) 0.498(2) 0.144(3)
H8 H -0.209(3) 0.463(2) 0.397(3)
H9 H -0.216(2) 0.357(2) 0.205(3)
H10 H -0.135(2) 0.243(2) 0.433(3)
H11 H -0.009(2) 0.310(2) 0.492(2)
H12 H -0.018(2) 0.121(1) 0.144(2)
H13 H 0.056(2) 0.014(2) 0.378(3)
H14 H 0.284(2) 0.027(2) 0.516(3)
H15 H 0.149(2) 0.149(2) 0.601(2)
H16 H 0.406(2) -0.040(2) 0.131(3)
H17 H 0.357(2) -0.135(2) -0.050(2)
H18 H 0.313(2) 0.090(2) -0.076(2)
H19 H 0.161(2) 0.053(2) -0.102(2)
H20 H 0.353(3) 0.455(2) -0.048(3)
H21 H 0.500(3) 0.402(2) 0.080(3)
H22 H 0.346(3) 0.510(2) 0.184(3)
loop_
_geom_bond_atom_site_label_1
_geom_bond_atom_site_label_2
_geom_bond_site_symmetry_1
_geom_bond_site_symmetry_2
O1 C1 1_555 1_555
O2 C15 1_555 1_555
C1 C2 1_555 1_555
C2 C3 1_555 1_555
C3 C4 1_555 1_555
C4 C5 1_555 1_555
C5 C6 1_555 1_555
C6 C1 1_555 1_555
C7 C6 1_555 1_555
C8 C7 1_555 1_555
C9 C8 1_555 1_555
C10 C9 1_555 1_555
C11 C10 1_555 1_555
C12 C7 1_555 1_555
C13 C12 1_555 1_555
C14 C5 1_555 1_555
C15 C13 1_555 1_555
C16 C15 1_555 1_555
C17 C7 1_555 1_555
C18 O1 1_555 1_555
H1 C2 1_555 1_555
H2 C3 1_555 1_555
H3 C4 1_555 1_555
H4 C8 1_555 1_555
H5 C8 1_555 1_555
H6 C9 1_555 1_555
H7 C9 1_555 1_555
H8 C10 1_555 1_555
H9 C10 1_555 1_555
H10 C11 1_555 1_555
H11 C11 1_555 1_555
H12 C12 1_555 1_555
H13 C13 1_555 1_555
H14 C14 1_555 1_555
H15 C14 1_555 1_555
H16 C16 1_555 1_555
H17 C16 1_555 1_555
H18 C17 1_555 1_555
H19 C17 1_555 1_555
H20 C18 1_555 1_555
H21 C18 1_555 1_555
H22 C18 1_555 1_555
C11 C12 1_555 1_555
C13 C14 1_555 1_555
C16 C17 1_555 1_555

#END
