
#######################################################################
#
#                 Cambridge Crystallographic Data Centre
#                                CCDC 
#
#######################################################################
#
# If this CIF has been generated from an entry in the Cambridge 
# Structural Database, then it will include bibliographic, chemical, 
# crystal, experimental, refinement or atomic coordinate data resulting 
# from the CCDC's data processing and validation procedures.
#
#######################################################################

data_JUXBEJ
_chemical_formula_moiety         'C1 H5 N2 S1 1+,Cl1 O4 1-'
_chemical_name_systematic        'Thiourea hydrogen perchlorate'
_symmetry_cell_setting           triclinic
_symmetry_space_group_name_H-M   'P -1'
_symmetry_Int_Tables_number      2
_space_group_name_Hall           '-P 1'
loop_
_symmetry_equiv_pos_site_id
_symmetry_equiv_pos_as_xyz
1 x,y,z
2 -x,-y,-z
_cell_length_a                   4.985(1)
_cell_length_b                   7.905(2)
_cell_length_c                   8.251(2)
_cell_angle_alpha                105.05(3)
_cell_angle_beta                 91.80(3)
_cell_angle_gamma                100.29(3)
_cell_volume                     307.903
_cell_formula_units_Z            2
loop_
_atom_site_label
_atom_site_type_symbol
_atom_site_fract_x
_atom_site_fract_y
_atom_site_fract_z
Cl1 Cl 0.9427(1) -0.2225(1) 0.7162(1)
O1 O 0.9445(5) -0.0757(3) 0.6430(4)
O2 O 0.8473(4) -0.1816(4) 0.8798(3)
O3 O 0.7632(4) -0.3721(3) 0.6092(3)
O4 O 1.2165(4) -0.2530(3) 0.7252(3)
S1 S 0.7159(1) -0.3841(1) 0.1900(1)
N1 N 0.3846(4) -0.2037(3) 0.3789(3)
N2 N 0.4048(5) -0.1780(3) 0.1097(3)
C1 C 0.4829(4) -0.2428(3) 0.2322(3)
H1 H 0.2851(78) -0.1220(57) 0.3821(49)
H2 H 0.4460(77) -0.2516(59) 0.4585(51)
H3 H 0.2959(77) -0.0977(61) 0.1323(51)
H4 H 0.4515(78) -0.2039(59) 0.0272(53)
H5 H 0.7318(72) -0.4171(58) 0.3282(51)
loop_
_geom_bond_atom_site_label_1
_geom_bond_atom_site_label_2
_geom_bond_site_symmetry_1
_geom_bond_site_symmetry_2
Cl1 O1 1_555 1_555
O2 Cl1 1_555 1_555
O3 Cl1 1_555 1_555
O4 Cl1 1_555 1_555
S1 C1 1_555 1_555
N1 C1 1_555 1_555
N2 C1 1_555 1_555
H1 N1 1_555 1_555
H2 N1 1_555 1_555
H3 N2 1_555 1_555
H4 N2 1_555 1_555
H5 S1 1_555 1_555

#END
