
#######################################################################
#
#                 Cambridge Crystallographic Data Centre
#                                CCDC 
#
#######################################################################
#
# If this CIF has been generated from an entry in the Cambridge 
# Structural Database, then it will include bibliographic, chemical, 
# crystal, experimental, refinement or atomic coordinate data resulting 
# from the CCDC's data processing and validation procedures.
#
#######################################################################

data_JUXGUG
_chemical_formula_moiety         'C14 H13 F3 N2'
_chemical_name_systematic        
(S)-1-Phenyl-2-(2,2,2-trifluoro-1-phenylethyl)hydrazine
_symmetry_cell_setting           orthorhombic
_symmetry_space_group_name_H-M   'P 21 21 21'
_symmetry_Int_Tables_number      19
_space_group_name_Hall           'P 2ac 2ab'
loop_
_symmetry_equiv_pos_site_id
_symmetry_equiv_pos_as_xyz
1 x,y,z
2 1/2+x,1/2-y,-z
3 -x,1/2+y,1/2-z
4 1/2-x,-y,1/2+z
_cell_length_a                   5.52610(10)
_cell_length_b                   9.0334(2)
_cell_length_c                   25.9046(6)
_cell_angle_alpha                90
_cell_angle_beta                 90
_cell_angle_gamma                90
_cell_volume                     1293.14
_exptl_crystal_colour            colorless
_exptl_crystal_description       block
_chemical_melting_point          '44-45 deg.C'
_cell_formula_units_Z            4
_exptl_crystal_recrystallization_method dichloromethane/n-hexane
loop_
_atom_site_label
_atom_site_type_symbol
_atom_site_fract_x
_atom_site_fract_y
_atom_site_fract_z
F1 F 0.3847(3) 0.64673(16) 0.06217(5)
F2 F 0.7355(3) 0.72158(15) 0.03816(6)
F3 F 0.5760(3) 0.53102(15) 0.00230(4)
N1 N 0.7349(4) 0.58911(19) 0.13469(6)
H1 H 0.584(5) 0.613(3) 0.1457(9)
N2 N 0.8688(3) 0.51713(18) 0.17382(6)
H2 H 0.781(5) 0.455(3) 0.1937(9)
C1 C 0.3800(4) 0.3370(2) 0.11930(8)
H3 H 0.3166 0.4192 0.1377
C2 C 0.2615(5) 0.2019(3) 0.12104(9)
H4 H 0.1174 0.1916 0.1407
C3 C 0.3527(5) 0.0819(3) 0.09413(9)
H5 H 0.2711 -0.0106 0.0952
C4 C 0.5626(5) 0.0971(2) 0.06575(9)
H6 H 0.6256 0.0148 0.0473
C5 C 0.6815(4) 0.2317(2) 0.06419(8)
H7 H 0.8264 0.2412 0.0447
C6 C 0.5910(4) 0.3528(2) 0.09074(7)
C7 C 0.7209(4) 0.5010(2) 0.08762(7)
H8 H 0.8905 0.4808 0.0761
C8 C 0.6052(5) 0.6000(2) 0.04735(8)
C9 C 1.0401(4) 0.6034(2) 0.19958(7)
C10 C 1.1500(4) 0.7240(2) 0.17587(7)
H9 H 1.0958 0.7563 0.1429
C11 C 1.3384(4) 0.7972(2) 0.20026(8)
H10 H 1.4141 0.8786 0.1836
C12 C 1.4180(4) 0.7535(2) 0.24849(8)
H11 H 1.5495 0.8030 0.2646
C13 C 1.3036(4) 0.6366(2) 0.27299(8)
H12 H 1.3534 0.6078 0.3066
C14 C 1.1169(4) 0.5612(2) 0.24879(8)
H13 H 1.0408 0.4805 0.2658
loop_
_geom_bond_atom_site_label_1
_geom_bond_atom_site_label_2
_geom_bond_site_symmetry_1
_geom_bond_site_symmetry_2
F1 C8 1_555 1_555
F2 C8 1_555 1_555
F3 C8 1_555 1_555
N1 H1 1_555 1_555
N2 N1 1_555 1_555
H2 N2 1_555 1_555
C1 H3 1_555 1_555
C2 C1 1_555 1_555
H4 C2 1_555 1_555
C3 C2 1_555 1_555
H5 C3 1_555 1_555
C4 C3 1_555 1_555
H6 C4 1_555 1_555
C5 C4 1_555 1_555
H7 C5 1_555 1_555
C6 C1 1_555 1_555
C7 N1 1_555 1_555
H8 C7 1_555 1_555
C8 C7 1_555 1_555
C9 N2 1_555 1_555
C10 C9 1_555 1_555
H9 C10 1_555 1_555
C11 C10 1_555 1_555
H10 C11 1_555 1_555
C12 C11 1_555 1_555
H11 C12 1_555 1_555
C13 C12 1_555 1_555
H12 C13 1_555 1_555
C14 C9 1_555 1_555
H13 C14 1_555 1_555
C5 C6 1_555 1_555
C6 C7 1_555 1_555
C13 C14 1_555 1_555

#END
