
#######################################################################
#
#                 Cambridge Crystallographic Data Centre
#                                CCDC 
#
#######################################################################
#
# If this CIF has been generated from an entry in the Cambridge 
# Structural Database, then it will include bibliographic, chemical, 
# crystal, experimental, refinement or atomic coordinate data resulting 
# from the CCDC's data processing and validation procedures.
#
#######################################################################

data_JUXPUP
_chemical_formula_moiety         'C14 H10 Cl1 F3 N2 O3 S1'
_chemical_name_systematic        
(R)-3-(4-Chlorophenyl)-4,4,4-trifluoro-3-(nitromethyl)-1-(thiazol-2-yl)butan-1-one
_symmetry_cell_setting           orthorhombic
_symmetry_space_group_name_H-M   'P 21 21 21'
_symmetry_Int_Tables_number      19
_space_group_name_Hall           'P 2ac 2ab'
loop_
_symmetry_equiv_pos_site_id
_symmetry_equiv_pos_as_xyz
1 x,y,z
2 1/2-x,-y,1/2+z
3 1/2+x,1/2-y,-z
4 -x,1/2+y,1/2-z
_cell_length_a                   10.2939(5)
_cell_length_b                   10.7278(3)
_cell_length_c                   14.0751(7)
_cell_angle_alpha                90
_cell_angle_beta                 90
_cell_angle_gamma                90
_cell_volume                     1554.33
_exptl_crystal_colour            colorless
_chemical_melting_point          '384-386 K'
_cell_formula_units_Z            4
_exptl_crystal_recrystallization_method 'Petroleum ether/dichloromethane'
loop_
_atom_site_label
_atom_site_type_symbol
_atom_site_fract_x
_atom_site_fract_y
_atom_site_fract_z
Cl1 Cl 0.19602(4) 0.56407(5) 0.83719(4)
S1 S -0.52524(6) 0.70605(5) 1.03146(3)
F1 F -0.28169(11) 0.50827(11) 0.53728(8)
F2 F -0.48245(11) 0.47657(10) 0.57544(7)
F3 F -0.33076(11) 0.37609(10) 0.64716(8)
O1 O -0.38386(13) 0.74757(13) 0.84744(10)
O2 O -0.52995(16) 0.71902(13) 0.50955(10)
C1 C -0.45363(15) 0.56307(16) 0.76387(12)
H1 H -0.5404 0.5709 0.7377
H2 H -0.4424 0.4775 0.7845
O3 O -0.60313(13) 0.75209(14) 0.65188(11)
C2 C -0.05550(17) 0.49646(17) 0.82952(13)
H3 H -0.0345 0.4379 0.8757
N1 N -0.56209(15) 0.49648(16) 0.94734(11)
C3 C 0.03779(16) 0.57748(18) 0.79559(13)
C4 C 0.00740(18) 0.66739(19) 0.72844(14)
H4 H 0.0707 0.7223 0.7068
N2 N -0.51524(16) 0.73010(14) 0.59555(12)
C5 C -0.6216(2) 0.4902(2) 1.03421(14)
H5 H -0.6654 0.4192 1.0545
C6 C -0.21427(16) 0.59152(17) 0.72518(12)
C7 C -0.50826(17) 0.60617(17) 0.93651(12)
C8 C -0.35332(16) 0.59212(16) 0.68530(12)
C9 C -0.18066(17) 0.50337(17) 0.79400(12)
H6 H -0.2435 0.4484 0.8163
C10 C -0.11866(17) 0.67444(17) 0.69398(13)
H7 H -0.1398 0.7352 0.6495
C11 C -0.6125(2) 0.5936(2) 1.08850(14)
H8 H -0.6488 0.6023 1.1486
C12 C -0.36121(17) 0.48721(18) 0.61093(12)
C13 C -0.37976(17) 0.71835(16) 0.63431(13)
H9 H -0.3645 0.7858 0.6788
H10 H -0.3184 0.7277 0.5825
C14 C -0.44107(16) 0.64886(17) 0.84926(13)
loop_
_geom_bond_atom_site_label_1
_geom_bond_atom_site_label_2
_geom_bond_site_symmetry_1
_geom_bond_site_symmetry_2
Cl1 C3 1_555 1_555
S1 C7 1_555 1_555
F1 C12 1_555 1_555
F2 C12 1_555 1_555
F3 C12 1_555 1_555
O1 C14 1_555 1_555
O2 N2 1_555 1_555
C1 H1 1_555 1_555
H2 C1 1_555 1_555
O3 N2 1_555 1_555
C2 H3 1_555 1_555
N1 C5 1_555 1_555
C3 C2 1_555 1_555
C4 C3 1_555 1_555
H4 C4 1_555 1_555
N2 C13 1_555 1_555
C5 H5 1_555 1_555
C6 C8 1_555 1_555
C7 N1 1_555 1_555
C8 C1 1_555 1_555
C9 C2 1_555 1_555
H6 C9 1_555 1_555
C10 C4 1_555 1_555
H7 C10 1_555 1_555
C11 S1 1_555 1_555
H8 C11 1_555 1_555
C12 C8 1_555 1_555
C13 C8 1_555 1_555
H9 C13 1_555 1_555
H10 C13 1_555 1_555
C14 C1 1_555 1_555
C5 C11 1_555 1_555
C6 C9 1_555 1_555
C6 C10 1_555 1_555
C7 C14 1_555 1_555

#END
