
#######################################################################
#
#                 Cambridge Crystallographic Data Centre
#                                CCDC 
#
#######################################################################
#
# If this CIF has been generated from an entry in the Cambridge 
# Structural Database, then it will include bibliographic, chemical, 
# crystal, experimental, refinement or atomic coordinate data resulting 
# from the CCDC's data processing and validation procedures.
#
#######################################################################

data_JUXRIF
_chemical_formula_moiety         'C16 H14 F2 N2'
_chemical_name_systematic        
3,6-bis(3-fluorophenyl)-1,4,5,6-tetrahydropyridazine
_symmetry_cell_setting           triclinic
_symmetry_space_group_name_H-M   'P -1'
_symmetry_Int_Tables_number      2
_space_group_name_Hall           '-P 1'
loop_
_symmetry_equiv_pos_site_id
_symmetry_equiv_pos_as_xyz
1 x,y,z
2 -x,-y,-z
_cell_length_a                   5.633(2)
_cell_length_b                   10.581(4)
_cell_length_c                   11.330(5)
_cell_angle_alpha                97.097(6)
_cell_angle_beta                 103.762(8)
_cell_angle_gamma                92.953(4)
_cell_volume                     648.591
_exptl_crystal_colour            colorless
_exptl_crystal_description       block
_cell_formula_units_Z            2
loop_
_atom_site_label
_atom_site_type_symbol
_atom_site_fract_x
_atom_site_fract_y
_atom_site_fract_z
F1 F 0.1950(2) 1.16712(11) 1.08268(11)
F2 F 0.4556(4) 0.42212(19) 0.28885(19)
N1 N 0.4109(3) 0.94759(15) 0.61408(14)
N2 N 0.3556(3) 0.85494(17) 0.51199(16)
C1 C 0.3730(3) 1.04495(16) 0.80574(15)
C2 C 0.2408(3) 1.06046(16) 0.89559(16)
H1 H 0.0991 1.0080 0.8886
C3 C 0.3231(3) 1.15446(17) 0.99458(17)
C4 C 0.5282(3) 1.23682(17) 1.01040(17)
H2 H 0.5765 1.3004 1.0778
C5 C 0.6605(3) 1.22092(18) 0.92114(17)
H3 H 0.8006 1.2748 0.9287
C6 C 0.5865(3) 1.12634(17) 0.82172(16)
H4 H 0.6798 1.1162 0.7641
C7 C 0.2898(3) 0.94578(16) 0.69668(16)
C8 C 0.0756(3) 0.85079(17) 0.68904(17)
H5 H -0.0744 0.8939 0.6754
H6 H 0.0963 0.8172 0.7664
C9 C 0.0529(3) 0.74037(17) 0.58556(17)
H7 H 0.1644 0.6773 0.6136
H8 H -0.1128 0.6995 0.5633
C10 C 0.1123(4) 0.78780(17) 0.47411(17)
H9 H -0.0071 0.8476 0.4435
C11 C 0.1058(3) 0.67978(16) 0.37198(16)
C12 C -0.0946(4) 0.65627(17) 0.27216(18)
H10 H -0.2233 0.7086 0.2664
C13 C -0.1045(4) 0.55514(19) 0.18078(19)
H11 H -0.2410 0.5405 0.1144
C14 C 0.0816(4) 0.47578(18) 0.18538(19)
H12 H 0.0737 0.4081 0.1235
C15 C 0.2795(4) 0.50010(19) 0.2846(2)
C16 C 0.2968(4) 0.59987(19) 0.37815(18)
H13 H 0.4339 0.6136 0.4443
H14 H 0.403(5) 0.886(2) 0.454(2)
H15? H 0.4075 0.4473 0.2893
F3? F -0.2758(9) 0.5287(4) 0.0866(4)
loop_
_geom_bond_atom_site_label_1
_geom_bond_atom_site_label_2
_geom_bond_site_symmetry_1
_geom_bond_site_symmetry_2
F1 C3 1_555 1_555
F2 C15 1_555 1_555
N1 N2 1_555 1_555
N2 C10 1_555 1_555
C1 C2 1_555 1_555
C2 H1 1_555 1_555
C3 C2 1_555 1_555
C4 C3 1_555 1_555
H2 C4 1_555 1_555
C5 C4 1_555 1_555
H3 C5 1_555 1_555
C6 C1 1_555 1_555
H4 C6 1_555 1_555
C7 N1 1_555 1_555
C8 C7 1_555 1_555
H5 C8 1_555 1_555
H6 C8 1_555 1_555
C9 C8 1_555 1_555
H7 C9 1_555 1_555
H8 C9 1_555 1_555
C10 C9 1_555 1_555
H9 C10 1_555 1_555
C11 C10 1_555 1_555
C12 C11 1_555 1_555
H10 C12 1_555 1_555
C13 C12 1_555 1_555
H11 C13 1_555 1_555
C14 C13 1_555 1_555
H12 C14 1_555 1_555
C15 C14 1_555 1_555
C16 C11 1_555 1_555
H13 C16 1_555 1_555
H14 N2 1_555 1_555
C1 C7 1_555 1_555
C5 C6 1_555 1_555
C15 C16 1_555 1_555

#END
