
#######################################################################
#
#                 Cambridge Crystallographic Data Centre
#                                CCDC 
#
#######################################################################
#
# If this CIF has been generated from an entry in the Cambridge 
# Structural Database, then it will include bibliographic, chemical, 
# crystal, experimental, refinement or atomic coordinate data resulting 
# from the CCDC's data processing and validation procedures.
#
#######################################################################

data_JUYWOP
_chemical_formula_moiety         'C23 H39 N1 Si3'
_chemical_name_systematic        
1-Dimethylethylamino-1,1-dimethyl-2,2-bis(dimethylphenylsilyl)-1-silaethene
_symmetry_cell_setting           orthorhombic
_symmetry_space_group_name_H-M   'P n a 21'
_symmetry_Int_Tables_number      33
_space_group_name_Hall           'P 2c -2n'
loop_
_symmetry_equiv_pos_site_id
_symmetry_equiv_pos_as_xyz
1 x,y,z
2 1/2-x,1/2+y,1/2+z
3 1/2+x,1/2-y,z
4 -x,-y,1/2+z
_cell_length_a                   15.480(4)
_cell_length_b                   13.427(3)
_cell_length_c                   12.231(3)
_cell_angle_alpha                90
_cell_angle_beta                 90
_cell_angle_gamma                90
_cell_volume                     2542.21
_exptl_crystal_colour            colorless
_chemical_melting_point          102-105deg.C
_cell_formula_units_Z            4
loop_
_atom_site_label
_atom_site_type_symbol
_atom_site_fract_x
_atom_site_fract_y
_atom_site_fract_z
Si1 Si 0.79898(6) 0.44184(7) 0.491
Si2 Si 0.89894(7) 0.37571(8) 0.2790(1)
Si3 Si 0.82180(7) 0.21844(8) 0.43721(9)
N1 N 0.6920(2) 0.5062(2) 0.4356(2)
C1 C 0.8342(2) 0.3491(3) 0.3998(3)
C2 C 0.9442(3) 0.5062(3) 0.2666(4)
C3 C 0.9982(3) 0.2956(3) 0.2658(4)
C4 C 0.8344(3) 0.3610(3) 0.1469(3)
C5 C 0.8686(3) 0.3874(4) 0.0463(4)
C6 C 0.8219(4) 0.3805(4) -0.0486(4)
C7 C 0.7403(3) 0.3485(4) -0.0485(4)
C8 C 0.7014(3) 0.3211(3) 0.0491(4)
C9 C 0.7499(3) 0.3279(3) 0.1454(3)
C10 C 0.7164(3) 0.1807(3) 0.5003(5)
C11 C 0.8312(4) 0.1291(3) 0.3198(4)
C12 C 0.9055(2) 0.1752(3) 0.5406(3)
C13 C 0.9635(3) 0.2388(3) 0.5909(3)
C14 C 1.0203(3) 0.2065(3) 0.6711(4)
C15 C 1.0224(3) 0.1073(4) 0.7006(4)
C16 C 0.9683(3) 0.0423(3) 0.6496(4)
C17 C 0.9102(3) 0.0745(3) 0.5724(3)
C18 C 0.7638(3) 0.3992(3) 0.6299(3)
C19 C 0.8674(2) 0.5542(3) 0.5178(3)
C20 C 0.6273(2) 0.4269(3) 0.4140(3)
C21 C 0.7134(3) 0.5562(3) 0.3303(3)
C22 C 0.6555(3) 0.5803(3) 0.5150(3)
C23 C 0.5751(3) 0.6345(3) 0.4781(4)
H1 H 0.977 0.512 0.201
H2 H 0.898 0.553 0.265
H3 H 0.981 0.520 0.327
H4 H 1.028 0.314 0.201
H5 H 1.035 0.304 0.327
H6 H 0.981 0.228 0.261
H7 H 0.930 0.409 0.041
H8 H 0.850 0.402 -0.118
H9 H 0.707 0.340 -0.119
H10 H 0.638 0.309 0.049
H11 H 0.725 0.307 0.217
H12 H 0.717 0.111 0.516
H13 H 0.709 0.217 0.566
H14 H 0.670 0.195 0.452
H15 H 0.824 0.063 0.346
H16 H 0.788 0.144 0.267
H17 H 0.886 0.136 0.287
H18 H 0.964 0.307 0.570
H19 H 1.058 0.253 0.705
H20 H 1.062 0.086 0.756
H21 H 0.971 -0.026 0.668
H22 H 0.873 0.028 0.538
H23 H 0.746 0.455 0.672
H24 H 0.717 0.355 0.622
H25 H 0.810 0.366 0.665
H26 H 0.839 0.596 0.569
H27 H 0.922 0.535 0.547
H28 H 0.876 0.589 0.451
H29 H 0.575 0.455 0.387
H30 H 0.651 0.383 0.361
H31 H 0.616 0.391 0.480
H32 H 0.663 0.588 0.302
H33 H 0.757 0.605 0.342
H34 H 0.734 0.509 0.279
H35 H 0.699 0.629 0.528
H36 H 0.643 0.546 0.581
H37 H 0.556 0.680 0.533
H38 H 0.587 0.670 0.412
H39 H 0.531 0.587 0.465
loop_
_geom_bond_atom_site_label_1
_geom_bond_atom_site_label_2
_geom_bond_site_symmetry_1
_geom_bond_site_symmetry_2
Si1 N1 1_555 1_555
Si2 C1 1_555 1_555
Si3 C1 1_555 1_555
N1 C20 1_555 1_555
C1 Si1 1_555 1_555
C2 Si2 1_555 1_555
C3 Si2 1_555 1_555
C4 Si2 1_555 1_555
C5 C4 1_555 1_555
C6 C5 1_555 1_555
C7 C6 1_555 1_555
C8 C7 1_555 1_555
C9 C4 1_555 1_555
C10 Si3 1_555 1_555
C11 Si3 1_555 1_555
C12 Si3 1_555 1_555
C13 C12 1_555 1_555
C14 C13 1_555 1_555
C15 C14 1_555 1_555
C16 C15 1_555 1_555
C17 C12 1_555 1_555
C18 Si1 1_555 1_555
C19 Si1 1_555 1_555
C20 H29 1_555 1_555
C21 N1 1_555 1_555
C22 N1 1_555 1_555
C23 C22 1_555 1_555
H1 C2 1_555 1_555
H2 C2 1_555 1_555
H3 C2 1_555 1_555
H4 C3 1_555 1_555
H5 C3 1_555 1_555
H6 C3 1_555 1_555
H7 C5 1_555 1_555
H8 C6 1_555 1_555
H9 C7 1_555 1_555
H10 C8 1_555 1_555
H11 C9 1_555 1_555
H12 C10 1_555 1_555
H13 C10 1_555 1_555
H14 C10 1_555 1_555
H15 C11 1_555 1_555
H16 C11 1_555 1_555
H17 C11 1_555 1_555
H18 C13 1_555 1_555
H19 C14 1_555 1_555
H20 C15 1_555 1_555
H21 C16 1_555 1_555
H22 C17 1_555 1_555
H23 C18 1_555 1_555
H24 C18 1_555 1_555
H25 C18 1_555 1_555
H26 C19 1_555 1_555
H27 C19 1_555 1_555
H28 C19 1_555 1_555
H30 C20 1_555 1_555
H31 C20 1_555 1_555
H32 C21 1_555 1_555
H33 C21 1_555 1_555
H34 C21 1_555 1_555
H35 C22 1_555 1_555
H36 C22 1_555 1_555
H37 C23 1_555 1_555
H38 C23 1_555 1_555
H39 C23 1_555 1_555
C8 C9 1_555 1_555
C16 C17 1_555 1_555

#END
