
#######################################################################
#
#                 Cambridge Crystallographic Data Centre
#                                CCDC 
#
#######################################################################
#
# If this CIF has been generated from an entry in the Cambridge 
# Structural Database, then it will include bibliographic, chemical, 
# crystal, experimental, refinement or atomic coordinate data resulting 
# from the CCDC's data processing and validation procedures.
#
#######################################################################

data_JUYXAC
_chemical_formula_moiety         'C34 H32 O2'
_chemical_name_systematic        (3.2.3.2)(1,4)Cyclophane-2,19-dione
_symmetry_cell_setting           monoclinic
_symmetry_space_group_name_H-M   'P 21'
_symmetry_Int_Tables_number      4
_space_group_name_Hall           'P 2yb'
loop_
_symmetry_equiv_pos_site_id
_symmetry_equiv_pos_as_xyz
1 x,y,z
2 -x,1/2+y,-z
_cell_length_a                   6.923(1)
_cell_length_b                   11.399(2)
_cell_length_c                   16.835(3)
_cell_angle_alpha                90
_cell_angle_beta                 99.91(1)
_cell_angle_gamma                90
_cell_volume                     1308.72
_exptl_crystal_colour            colorless
_chemical_melting_point          212-214deg.C
_cell_formula_units_Z            2
loop_
_atom_site_label
_atom_site_type_symbol
_atom_site_fract_x
_atom_site_fract_y
_atom_site_fract_z
O1 O -0.0292(6) 0.0000 0.2478(3)
O2 O 0.3871(4) 0.7845(5) 0.3578(2)
C1 C -0.2384(6) 0.5165(5) 0.5249(2)
C2 C -0.4379(5) 0.4647(5) 0.4850(2)
C3 C -0.4140(5) 0.3775(5) 0.4215(2)
C4 C -0.3494(5) 0.2640(5) 0.4413(2)
C5 C -0.3119(5) 0.1860(5) 0.3828(3)
C6 C -0.3380(5) 0.2190(5) 0.3025(2)
C7 C -0.4072(5) 0.3293(5) 0.2830(2)
C8 C -0.4455(5) 0.4073(5) 0.3408(2)
C9 C -0.2856(6) 0.1368(5) 0.2394(3)
C10 C -0.0730(7) 0.1005(5) 0.2523(2)
C11 C 0.0779(6) 0.1965(5) 0.2648(2)
C12 C 0.1059(5) 0.2512(5) 0.1863(2)
C13 C 0.2049(5) 0.1916(5) 0.1339(2)
C14 C 0.2324(5) 0.2420(5) 0.0620(2)
C15 C 0.1627(5) 0.3518(5) 0.0397(2)
C16 C 0.0617(5) 0.4105(5) 0.0918(2)
C17 C 0.0326(5) 0.3603(5) 0.1636(2)
C18 C 0.2001(7) 0.4077(5) -0.0381(2)
C19 C 0.3999(6) 0.4745(5) -0.0248(2)
C20 C 0.4102(5) 0.5697(5) 0.0360(2)
C21 C 0.5399(5) 0.5645(5) 0.1088(2)
C22 C 0.5414(6) 0.6492(5) 0.1673(3)
C23 C 0.4118(5) 0.7416(5) 0.1557(2)
C24 C 0.2869(5) 0.7485(5) 0.0823(3)
C25 C 0.2878(5) 0.6644(5) 0.0242(2)
C26 C 0.4030(6) 0.8277(5) 0.2227(3)
C27 C 0.3092(6) 0.7767(5) 0.2895(3)
C28 C 0.1136(6) 0.7177(6) 0.2653(3)
C29 C 0.0296(5) 0.6684(5) 0.3355(2)
C30 C -0.0963(6) 0.7335(5) 0.3737(3)
C31 C -0.1745(6) 0.6855(5) 0.4369(3)
C32 C -0.1342(5) 0.5732(5) 0.4627(2)
C33 C -0.0038(5) 0.5091(5) 0.4262(2)
C34 C 0.0740(5) 0.5569(5) 0.3630(3)
H1 H -0.1578 0.4538 0.5502
H2 H -0.2541 0.5728 0.5657
H3 H -0.5214 0.5275 0.4617
H4 H -0.4986 0.4272 0.5255
H5 H -0.3348 0.2394 0.4965
H6 H -0.2627 0.1089 0.3977
H7 H -0.4294 0.3526 0.2274
H8 H -0.4943 0.4841 0.3248
H9 H -0.3211 0.1713 0.1869
H10 H -0.3628 0.0672 0.2409
H11 H 0.2014 0.1662 0.2916
H12 H 0.0355 0.2552 0.2989
H13 H 0.2511 0.1135 0.1474
H14 H 0.3030 0.1997 0.0268
H15 H 0.1004 0.4872 0.0772
H16 H -0.0415 0.4016 0.1979
H17 H 0.0953 0.4612 -0.0572
H18 H 0.2011 0.3479 -0.0782
H19 H 0.4198 0.5080 -0.0750
H20 H 0.5037 0.4193 -0.0081
H21 H 0.6308 0.5003 0.1179
H22 H 0.6302 0.6431 0.2177
H23 H 0.1965 0.8129 0.0728
H24 H 0.2016 0.6725 -0.0267
H25 H 0.3275 0.8941 0.2001
H26 H 0.5326 0.8545 0.2448
H27 H 0.1245 0.6564 0.2273
H28 H 0.0231 0.7751 0.2391
H29 H -0.1294 0.8119 0.3554
H30 H -0.2584 0.7322 0.4641
H31 H 0.0322 0.4315 0.4454
H32 H 0.1612 0.5108 0.3371
loop_
_geom_bond_atom_site_label_1
_geom_bond_atom_site_label_2
_geom_bond_site_symmetry_1
_geom_bond_site_symmetry_2
O1 C10 1_555 1_555
O2 C27 1_555 1_555
C1 C2 1_555 1_555
C2 C3 1_555 1_555
C3 C4 1_555 1_555
C4 C5 1_555 1_555
C5 C6 1_555 1_555
C6 C7 1_555 1_555
C7 C8 1_555 1_555
C8 C3 1_555 1_555
C9 C6 1_555 1_555
C10 C9 1_555 1_555
C11 C10 1_555 1_555
C12 C11 1_555 1_555
C13 C12 1_555 1_555
C14 C13 1_555 1_555
C15 C14 1_555 1_555
C16 C15 1_555 1_555
C17 C12 1_555 1_555
C18 C15 1_555 1_555
C19 C18 1_555 1_555
C20 C19 1_555 1_555
C21 C20 1_555 1_555
C22 C21 1_555 1_555
C23 C22 1_555 1_555
C24 C23 1_555 1_555
C25 C20 1_555 1_555
C26 C23 1_555 1_555
C27 C26 1_555 1_555
C28 C27 1_555 1_555
C29 C28 1_555 1_555
C30 C29 1_555 1_555
C31 C30 1_555 1_555
C32 C1 1_555 1_555
C33 C32 1_555 1_555
C34 C29 1_555 1_555
H1 C1 1_555 1_555
H2 C1 1_555 1_555
H3 C2 1_555 1_555
H4 C2 1_555 1_555
H5 C4 1_555 1_555
H6 C5 1_555 1_555
H7 C7 1_555 1_555
H8 C8 1_555 1_555
H9 C9 1_555 1_555
H10 C9 1_555 1_555
H11 C11 1_555 1_555
H12 C11 1_555 1_555
H13 C13 1_555 1_555
H14 C14 1_555 1_555
H15 C16 1_555 1_555
H16 C17 1_555 1_555
H17 C18 1_555 1_555
H18 C18 1_555 1_555
H19 C19 1_555 1_555
H20 C19 1_555 1_555
H21 C21 1_555 1_555
H22 C22 1_555 1_555
H23 C24 1_555 1_555
H24 C25 1_555 1_555
H25 C26 1_555 1_555
H26 C26 1_555 1_555
H27 C28 1_555 1_555
H28 C28 1_555 1_555
H29 C30 1_555 1_555
H30 C31 1_555 1_555
H31 C33 1_555 1_555
H32 C34 1_555 1_555
C16 C17 1_555 1_555
C24 C25 1_555 1_555
C31 C32 1_555 1_555
C33 C34 1_555 1_555

#END
