
#######################################################################
#
#                 Cambridge Crystallographic Data Centre
#                                CCDC 
#
#######################################################################
#
# If this CIF has been generated from an entry in the Cambridge 
# Structural Database, then it will include bibliographic, chemical, 
# crystal, experimental, refinement or atomic coordinate data resulting 
# from the CCDC's data processing and validation procedures.
#
#######################################################################

data_JUZFAN01
_chemical_formula_moiety         'C38 H26'
_chemical_name_systematic        
9-(2-(3-(2-(9-Anthryl)vinyl)phenyl)vinyl)phenanthrene
_symmetry_cell_setting           monoclinic
_symmetry_space_group_name_H-M   'P 21'
_symmetry_Int_Tables_number      4
_space_group_name_Hall           'P 2yb'
loop_
_symmetry_equiv_pos_site_id
_symmetry_equiv_pos_as_xyz
1 x,y,z
2 -x,1/2+y,-z
_cell_length_a                   10.9201(6)
_cell_length_b                   5.6944(2)
_cell_length_c                   20.5440(11)
_cell_angle_alpha                90
_cell_angle_beta                 96.198(5)
_cell_angle_gamma                90
_cell_volume                     1270.03
_cell_formula_units_Z            2
loop_
_atom_site_label
_atom_site_type_symbol
_atom_site_fract_x
_atom_site_fract_y
_atom_site_fract_z
C1 C 0.2292(2) 1.1781(5) 0.13882(13)
C2 C 0.2010(2) 1.3555(5) 0.08852(13)
C3 C 0.4744(3) -0.4207(5) 0.41634(14)
C4 C 0.3686(4) -0.5512(6) 0.42878(17)
H1 H 0.3783 -0.6851 0.4548
C5 C 0.5929(3) -0.4902(6) 0.44009(14)
H2 H 0.6030 -0.6269 0.4649
C6 C 0.1629(3) 1.1760(6) 0.19063(14)
H3 H 0.1789 1.0581 0.2217
C7 C 0.3355(3) -0.1528(7) 0.35148(15)
H4 H 0.3224 -0.0186 0.3259
C8 C 0.9163(3) -0.2988(7) 0.44643(16)
H5 H 0.9943 -0.3451 0.4645
C9 C 0.2554(4) -0.4862(8) 0.4040(2)
H6 H 0.1878 -0.5752 0.4130
C10 C 0.2373(3) -0.2834(8) 0.36430(19)
H7 H 0.1583 -0.2400 0.3471
C11 C 0.0698(2) 1.3441(6) 0.20050(14)
C12 C 0.6958(3) -0.3643(5) 0.42823(13)
C13 C 0.6506(3) 0.3406(6) 0.16215(14)
H8 H 0.7145 0.2337 0.1602
C14 C 0.4832(2) 0.4910(5) 0.21337(13)
H9 H 0.4330 0.4842 0.2471
C15 C 0.5787(2) 0.3286(5) 0.21249(12)
C16 C 0.1463(3) 1.6965(6) -0.00812(15)
H10 H 0.1285 1.8104 -0.0402
C17 C 0.9014(3) -0.0900(6) 0.40943(15)
H11 H 0.9700 0.0014 0.4038
C18 C 0.6001(3) 0.1421(5) 0.26213(13)
H12 H 0.6610 0.0333 0.2555
C19 C 0.7888(3) -0.0202(6) 0.38187(14)
H13 H 0.7820 0.1189 0.3580
C20 C 0.3304(3) 1.0108(6) 0.13359(14)
H14 H 0.3812 1.0416 0.1011
C21 C 0.4605(2) 0.6628(5) 0.16542(13)
C22 C 0.0829(3) 1.6942(5) 0.04542(15)
H15 H 0.0213 1.8049 0.0489
C23 C 0.0070(3) 1.3391(7) 0.25626(16)
H16 H 0.0232 1.2184 0.2865
C24 C 0.5629(3) -0.0880(5) 0.36077(13)
C25 C 0.6817(3) -0.1536(5) 0.38852(13)
C26 C 0.8171(3) -0.4310(6) 0.45543(15)
H17 H 0.8276 -0.5684 0.4798
C27 C 0.6293(3) 0.5117(7) 0.11344(16)
H18 H 0.6796 0.5191 0.0797
C28 C 0.0445(2) 1.5246(5) 0.15359(14)
C29 C 0.5350(3) 0.6679(6) 0.11516(14)
H19 H 0.5206 0.7792 0.0821
C30 C 0.3572(3) 0.8243(5) 0.16923(13)
H20 H 0.3046 0.7900 0.2007
C31 C 0.2625(3) 1.3643(6) 0.03234(13)
H21 H 0.3230 1.2530 0.0270
C32 C 0.4589(3) -0.2148(5) 0.37605(13)
C33 C 0.1090(2) 1.5262(5) 0.09600(13)
C34 C 0.5433(3) 0.1115(5) 0.31431(13)
H22 H 0.4858 0.2244 0.3231
C35 C 0.2366(3) 1.5319(6) -0.01534(15)
H23 H 0.2795 1.5343 -0.0521
C36 C -0.0417(3) 1.6973(6) 0.16738(17)
H24 H -0.0589 1.8211 0.1383
C37 C -0.1000(3) 1.6853(7) 0.22261(19)
H25 H -0.1567 1.8011 0.2303
C38 C -0.0771(3) 1.5058(8) 0.26745(18)
H26 H -0.1185 1.4993 0.3047
loop_
_geom_bond_atom_site_label_1
_geom_bond_atom_site_label_2
_geom_bond_site_symmetry_1
_geom_bond_site_symmetry_2
C1 C2 1_555 1_555
C2 C31 1_555 1_555
C3 C4 1_555 1_555
C4 H1 1_555 1_555
C5 C3 1_555 1_555
H2 C5 1_555 1_555
C6 C1 1_555 1_555
H3 C6 1_555 1_555
C7 H4 1_555 1_555
C8 H5 1_555 1_555
C9 C4 1_555 1_555
H6 C9 1_555 1_555
C10 C7 1_555 1_555
H7 C10 1_555 1_555
C11 C6 1_555 1_555
C12 C5 1_555 1_555
C13 H8 1_555 1_555
C14 H9 1_555 1_555
C15 C13 1_555 1_555
C16 H10 1_555 1_555
C17 C8 1_555 1_555
H11 C17 1_555 1_555
C18 C15 1_555 1_555
H12 C18 1_555 1_555
C19 C17 1_555 1_555
H13 C19 1_555 1_555
C20 C1 1_555 1_555
H14 C20 1_555 1_555
C21 C14 1_555 1_555
C22 C16 1_555 1_555
H15 C22 1_555 1_555
C23 C11 1_555 1_555
H16 C23 1_555 1_555
C24 C25 1_555 1_555
C25 C12 1_555 1_555
C26 C8 1_555 1_555
H17 C26 1_555 1_555
C27 C13 1_555 1_555
H18 C27 1_555 1_555
C28 C11 1_555 1_555
C29 C21 1_555 1_555
H19 C29 1_555 1_555
C30 C20 1_555 1_555
H20 C30 1_555 1_555
C31 H21 1_555 1_555
C32 C3 1_555 1_555
C33 C2 1_555 1_555
C34 C18 1_555 1_555
H22 C34 1_555 1_555
C35 C16 1_555 1_555
H23 C35 1_555 1_555
C36 C28 1_555 1_555
H24 C36 1_555 1_555
C37 C36 1_555 1_555
H25 C37 1_555 1_555
C38 C23 1_555 1_555
H26 C38 1_555 1_555
C7 C32 1_555 1_555
C9 C10 1_555 1_555
C12 C26 1_555 1_555
C14 C15 1_555 1_555
C19 C25 1_555 1_555
C21 C30 1_555 1_555
C22 C33 1_555 1_555
C24 C32 1_555 1_555
C24 C34 1_555 1_555
C27 C29 1_555 1_555
C28 C33 1_555 1_555
C31 C35 1_555 1_555
C37 C38 1_555 1_555

#END
