
#######################################################################
#
#                 Cambridge Crystallographic Data Centre
#                                CCDC 
#
#######################################################################
#
# If this CIF has been generated from an entry in the Cambridge 
# Structural Database, then it will include bibliographic, chemical, 
# crystal, experimental, refinement or atomic coordinate data resulting 
# from the CCDC's data processing and validation procedures.
#
#######################################################################

data_JUZLAT
_chemical_formula_moiety         'C38 H20 N2'
_chemical_name_systematic        5,5'-bitetracene-11,11'-dicarbonitrile
_symmetry_cell_setting           triclinic
_symmetry_space_group_name_H-M   'P -1'
_symmetry_Int_Tables_number      2
_space_group_name_Hall           '-P 1'
loop_
_symmetry_equiv_pos_site_id
_symmetry_equiv_pos_as_xyz
1 x,y,z
2 -x,-y,-z
_cell_length_a                   8.8113(16)
_cell_length_b                   11.6799(12)
_cell_length_c                   12.7645(11)
_cell_angle_alpha                87.855(8)
_cell_angle_beta                 88.966(10)
_cell_angle_gamma                70.781(13)
_cell_volume                     1239.55
_exptl_crystal_colour            red
_exptl_crystal_description       rod
_cell_formula_units_Z            2
loop_
_atom_site_label
_atom_site_type_symbol
_atom_site_fract_x
_atom_site_fract_y
_atom_site_fract_z
C1 C 1.0450(7) 0.1634(6) 0.4591(4)
C2 C 0.8207(7) 0.2726(5) 0.1283(4)
C3 C 1.0529(8) 0.2411(6) 0.5400(5)
C4 C 0.9436(8) 0.1730(6) -0.0331(5)
C5 C 1.0537(7) 0.3129(6) 0.0505(5)
C6 C 1.1827(8) 0.2119(6) -0.1074(5)
H1 H 1.1889 0.1585 -0.1608
C7 C 0.8184(7) 0.3236(6) 0.3799(5)
C8 C 0.5948(8) 0.4874(6) 0.3008(5)
N1 N 0.9345(8) 0.0388(6) -0.1880(5)
C9 C 0.7122(8) 0.5214(6) 0.4653(5)
H2 H 0.7149 0.5710 0.5201
C10 C 0.9278(8) 0.2069(6) 0.3803(5)
H3 H 0.9238 0.1558 0.3271
C11 C 1.2828(9) 0.3567(7) -0.0252(5)
H4 H 1.3553 0.3993 -0.0258
C12 C 0.7089(8) 0.1288(6) 0.0475(5)
H5 H 0.7104 0.0763 -0.0059
C13 C 0.3569(9) 0.1909(7) 0.2878(6)
H6 H 0.2763 0.2067 0.3386
C14 C 0.8220(7) 0.1898(6) 0.0475(5)
C15 C 0.8225(8) 0.4027(6) 0.4629(5)
C16 C 1.1778(8) 0.1967(6) 0.6167(5)
H7 H 1.1855 0.2458 0.6707
C17 C 0.5902(8) 0.2283(6) 0.2104(6)
C18 C 0.9349(8) 0.3316(6) 0.1275(5)
H8 H 0.9316 0.3852 0.1802
C19 C 0.3621(9) 0.1091(7) 0.2087(6)
H9 H 0.2855 0.0701 0.2084
C20 C 0.9387(8) 0.3571(6) 0.5436(5)
C21 C 1.0574(8) 0.2301(6) -0.0304(5)
C22 C 0.5984(8) 0.5650(6) 0.3857(6)
C23 C 1.2744(9) 0.0023(7) 0.5320(6)
H10 H 1.3461 -0.0766 0.5312
N2 N 0.9428(9) 0.4932(7) 0.6991(6)
C24 C 0.5937(8) 0.1468(7) 0.1276(5)
C25 C 0.4765(9) 0.0860(8) 0.1330(7)
H11 H 0.4793 0.0292 0.0832
C26 C 0.7039(8) 0.2892(6) 0.2099(5)
C27 C 0.7035(8) 0.3716(7) 0.2978(5)
C28 C 1.1668(8) 0.3752(7) 0.0509(5)
H12 H 1.1621 0.4294 0.1034
C29 C 0.9365(9) 0.0961(7) -0.1184(6)
C30 C 1.1542(9) 0.0439(7) 0.4562(5)
H13 H 1.1463 -0.0072 0.4039
C31 C 0.9405(9) 0.4350(7) 0.6287(6)
C32 C 1.2910(9) 0.2694(7) -0.1050(6)
H14 H 1.3727 0.2532 -0.1550
C33 C 0.3657(9) 0.6495(7) 0.2290(7)
H15 H 0.2860 0.6778 0.1786
C34 C 0.4693(8) 0.2468(7) 0.2901(6)
H16 H 0.4678 0.2981 0.3445
C35 C 1.2850(10) 0.0824(8) 0.6100(6)
H17 H 1.3680 0.0560 0.6583
C36 C 0.4734(9) 0.5359(7) 0.2225(6)
H18 H 0.4684 0.4887 0.1664
C37 C 0.4848(9) 0.6844(7) 0.3864(7)
H19 H 0.4875 0.7356 0.4399
C38 C 0.3727(11) 0.7244(8) 0.3099(7)
H20 H 0.2996 0.8028 0.3116
loop_
_geom_bond_atom_site_label_1
_geom_bond_atom_site_label_2
_geom_bond_site_symmetry_1
_geom_bond_site_symmetry_2
C1 C3 1_555 1_555
C2 C14 1_555 1_555
C3 C16 1_555 1_555
C4 C14 1_555 1_555
C5 C18 1_555 1_555
C6 H1 1_555 1_555
C7 C10 1_555 1_555
C8 C22 1_555 1_555
N1 C29 1_555 1_555
C9 H2 1_555 1_555
C10 C1 1_555 1_555
H3 C10 1_555 1_555
C11 H4 1_555 1_555
C12 H5 1_555 1_555
C13 H6 1_555 1_555
C14 C12 1_555 1_555
C15 C7 1_555 1_555
C16 H7 1_555 1_555
C17 C24 1_555 1_555
C18 C2 1_555 1_555
H8 C18 1_555 1_555
C19 C13 1_555 1_555
H9 C19 1_555 1_555
C20 C3 1_555 1_555
C21 C4 1_555 1_555
C22 C9 1_555 1_555
C23 H10 1_555 1_555
N2 C31 1_555 1_555
C24 C12 1_555 1_555
C25 C19 1_555 1_555
H11 C25 1_555 1_555
C26 C2 1_555 1_555
C27 C7 1_555 1_555
C28 C5 1_555 1_555
H12 C28 1_555 1_555
C29 C4 1_555 1_555
C30 C1 1_555 1_555
H13 C30 1_555 1_555
C31 C20 1_555 1_555
C32 C6 1_555 1_555
H14 C32 1_555 1_555
C33 H15 1_555 1_555
C34 C13 1_555 1_555
H16 C34 1_555 1_555
C35 C16 1_555 1_555
H17 C35 1_555 1_555
C36 C8 1_555 1_555
H18 C36 1_555 1_555
C37 C22 1_555 1_555
H19 C37 1_555 1_555
C38 C33 1_555 1_555
H20 C38 1_555 1_555
C5 C21 1_555 1_555
C6 C21 1_555 1_555
C8 C27 1_555 1_555
C9 C15 1_555 1_555
C11 C28 1_555 1_555
C11 C32 1_555 1_555
C15 C20 1_555 1_555
C17 C26 1_555 1_555
C17 C34 1_555 1_555
C23 C30 1_555 1_555
C23 C35 1_555 1_555
C24 C25 1_555 1_555
C26 C27 1_555 1_555
C33 C36 1_555 1_555
C37 C38 1_555 1_555

#END
