
#######################################################################
#
#                 Cambridge Crystallographic Data Centre
#                                CCDC 
#
#######################################################################
#
# If this CIF has been generated from an entry in the Cambridge 
# Structural Database, then it will include bibliographic, chemical, 
# crystal, experimental, refinement or atomic coordinate data resulting 
# from the CCDC's data processing and validation procedures.
#
#######################################################################

data_KABCUN
_chemical_name_common            
"N'',N'''-bis(1-(2-hydroxyphenyl)ethylidene)carbonohydrazide N,N-dimethylformamide solvate"
_chemical_formula_moiety         'C17 H18 N4 O3,C3 H7 N1 O1'
_chemical_name_systematic        
'1,5-bis[1-(2-hydroxyphenyl)ethylidene]carbonohydrazide N,N-dimethylformamide solvate'
_symmetry_cell_setting           monoclinic
_symmetry_space_group_name_H-M   'P 21/c'
_symmetry_Int_Tables_number      14
_space_group_name_Hall           '-P 2ybc'
loop_
_symmetry_equiv_pos_site_id
_symmetry_equiv_pos_as_xyz
1 x,y,z
2 -x,1/2+y,1/2-z
3 -x,-y,-z
4 x,1/2-y,1/2+z
_cell_length_a                   16.6372(15)
_cell_length_b                   7.5880(9)
_cell_length_c                   16.2967(14)
_cell_angle_alpha                90
_cell_angle_beta                 94.4720(10)
_cell_angle_gamma                90
_cell_volume                     2051.08
_exptl_crystal_colour            colorless
_exptl_crystal_description       block
_cell_formula_units_Z            4
loop_
_atom_site_label
_atom_site_type_symbol
_atom_site_fract_x
_atom_site_fract_y
_atom_site_fract_z
N1 N 0.15121(15) 0.6195(3) 0.48890(15)
H1 H 0.1563 0.6254 0.5417
N2 N 0.08378(15) 0.6805(3) 0.44431(15)
N3 N 0.27455(15) 0.4912(4) 0.49563(15)
H2 H 0.2756 0.5015 0.5483
N4 N 0.33674(15) 0.4171(3) 0.45841(15)
O1 O 0.20609(13) 0.5357(3) 0.37093(14)
O2 O 0.02424(14) 0.7754(4) 0.30242(13)
H3 H 0.0592 0.7362 0.3357
O3 O 0.38946(14) 0.3282(4) 0.32185(14)
H4 H 0.3577 0.3729 0.3518
C1 C 0.20997(19) 0.5488(4) 0.4450(2)
C2 C 0.0191(2) 0.7253(5) 0.57328(18)
H5 H 0.0483 0.6243 0.5950
H6 H -0.0361 0.7172 0.5863
H7 H 0.0428 0.8305 0.5973
C3 C 0.02260(19) 0.7313(4) 0.48137(18)
C4 C -0.04633(18) 0.7964(4) 0.42688(19)
C5 C -0.04176(19) 0.8178(4) 0.3417(2)
C6 C -0.1065(2) 0.8871(5) 0.2935(2)
H8 H -0.1023 0.9033 0.2374
C7 C -0.1762(2) 0.9319(5) 0.3270(2)
H9 H -0.2193 0.9779 0.2940
C8 C -0.1824(2) 0.9086(5) 0.4098(3)
H10 H -0.2299 0.9381 0.4330
C9 C -0.1183(2) 0.8417(5) 0.4584(2)
H11 H -0.1235 0.8264 0.5143
C10 C 0.40492(19) 0.3582(5) 0.59426(19)
H12 H 0.4233 0.4721 0.6132
H13 H 0.4426 0.2699 0.6148
H14 H 0.3531 0.3346 0.6139
C11 C 0.39830(18) 0.3552(4) 0.50206(19)
C12 C 0.46219(18) 0.2798(4) 0.4551(2)
C13 C 0.4547(2) 0.2668(5) 0.3684(2)
C14 C 0.5149(2) 0.1875(5) 0.3275(2)
H15 H 0.5082 0.1747 0.2706
C15 C 0.5839(2) 0.1277(5) 0.3690(3)
H16 H 0.6244 0.0772 0.3404
C16 C 0.5933(2) 0.1423(5) 0.4528(3)
H17 H 0.6404 0.1021 0.4813
C17 C 0.5336(2) 0.2159(4) 0.4947(2)
H18 H 0.5410 0.2237 0.5517
N5 N 0.23936(17) 0.5436(4) 0.78637(16)
O4 O 0.22303(16) 0.6047(4) 0.65032(15)
C18 C 0.1982(2) 0.5477(5) 0.7144(2)
H19 H 0.1458 0.5041 0.7116
C19 C 0.3198(2) 0.6151(6) 0.7959(2)
H20 H 0.3380 0.6399 0.7427
H21 H 0.3553 0.5311 0.8239
H22 H 0.3195 0.7218 0.8275
C20 C 0.2055(2) 0.4702(6) 0.8576(2)
H23 H 0.1503 0.4381 0.8436
H24 H 0.2080 0.5561 0.9010
H25 H 0.2356 0.3676 0.8757
loop_
_geom_bond_atom_site_label_1
_geom_bond_atom_site_label_2
_geom_bond_site_symmetry_1
_geom_bond_site_symmetry_2
N1 H1 1_555 1_555
N2 N1 1_555 1_555
N3 H2 1_555 1_555
N4 N3 1_555 1_555
N5 C18 1_555 1_555
O1 C1 1_555 1_555
O2 H3 1_555 1_555
O3 H4 1_555 1_555
O4 C18 1_555 1_555
C1 N1 1_555 1_555
C2 H5 1_555 1_555
H6 C2 1_555 1_555
H7 C2 1_555 1_555
C3 N2 1_555 1_555
C4 C3 1_555 1_555
C5 O2 1_555 1_555
C6 C5 1_555 1_555
H8 C6 1_555 1_555
C7 C6 1_555 1_555
H9 C7 1_555 1_555
C8 C7 1_555 1_555
H10 C8 1_555 1_555
C9 C4 1_555 1_555
H11 C9 1_555 1_555
C10 H12 1_555 1_555
H13 C10 1_555 1_555
H14 C10 1_555 1_555
C11 N4 1_555 1_555
C12 C11 1_555 1_555
C13 O3 1_555 1_555
C14 C13 1_555 1_555
H15 C14 1_555 1_555
C15 C14 1_555 1_555
H16 C15 1_555 1_555
C16 C15 1_555 1_555
H17 C16 1_555 1_555
C17 C12 1_555 1_555
H18 C17 1_555 1_555
C18 H19 1_555 1_555
C19 N5 1_555 1_555
H20 C19 1_555 1_555
H21 C19 1_555 1_555
H22 C19 1_555 1_555
C20 N5 1_555 1_555
H23 C20 1_555 1_555
H24 C20 1_555 1_555
H25 C20 1_555 1_555
N3 C1 1_555 1_555
C2 C3 1_555 1_555
C4 C5 1_555 1_555
C8 C9 1_555 1_555
C10 C11 1_555 1_555
C12 C13 1_555 1_555
C16 C17 1_555 1_555

#END
