
#######################################################################
#
#                 Cambridge Crystallographic Data Centre
#                                CCDC 
#
#######################################################################
#
# If this CIF has been generated from an entry in the Cambridge 
# Structural Database, then it will include bibliographic, chemical, 
# crystal, experimental, refinement or atomic coordinate data resulting 
# from the CCDC's data processing and validation procedures.
#
#######################################################################

data_KABDAV
_chemical_formula_moiety         'C22 H32 O2,0.5(C4 H8 O2)'
_chemical_name_systematic        
'1,1,4a,10b-Tetramethyl-1,2,3,4,4a,4b,5,6,10b,11,12,12a-dodecahydrochrysene-2,9-diol ethyl acetate solvate'
_symmetry_cell_setting           triclinic
_symmetry_space_group_name_H-M   'P -1'
_symmetry_Int_Tables_number      2
_space_group_name_Hall           '-P 1'
loop_
_symmetry_equiv_pos_site_id
_symmetry_equiv_pos_as_xyz
1 x,y,z
2 -x,-y,-z
_cell_length_a                   10.8453(11)
_cell_length_b                   14.7085(14)
_cell_length_c                   26.026(3)
_cell_angle_alpha                86.350(4)
_cell_angle_beta                 83.418(6)
_cell_angle_gamma                89.845(5)
_cell_volume                     4115.84
_exptl_crystal_colour            colorless
_exptl_crystal_description       Prism
_cell_formula_units_Z            8
loop_
_atom_site_label
_atom_site_type_symbol
_atom_site_fract_x
_atom_site_fract_y
_atom_site_fract_z
O1 O -0.06586(8) 0.70208(6) 0.07200(3)
H1 H -0.0512 0.6462 0.0767
O2 O 0.14437(8) 0.71312(6) 0.47818(3)
H2 H 0.0766 0.7269 0.4948
C1 C 0.05996(10) 0.70981(8) 0.14252(4)
H3 H 0.0519 0.6459 0.1499
C2 C 0.00357(11) 0.75049(8) 0.10172(4)
C3 C 0.01410(12) 0.84386(8) 0.09036(5)
H4 H -0.0255 0.8725 0.0629
C4 C 0.08334(11) 0.89405(8) 0.11977(5)
H5 H 0.0918 0.9578 0.1118
C5 C 0.14164(10) 0.85474(8) 0.16094(4)
C6 C 0.21289(11) 0.91565(8) 0.19165(4)
H6 H 0.1537 0.9558 0.2112
H7 H 0.2696 0.9550 0.1673
C7 C 0.28840(10) 0.86347(8) 0.22954(4)
H8 H 0.3135 0.9048 0.2551
H9 H 0.3645 0.8390 0.2106
C8 C 0.20914(10) 0.78499(7) 0.25750(4)
H10 H 0.1254 0.8125 0.2659
C9 C 0.24749(10) 0.74947(7) 0.31135(4)
C10 C 0.24089(10) 0.83058(8) 0.34652(4)
H11 H 0.3123 0.8717 0.3352
H12 H 0.1641 0.8653 0.3421
C11 C 0.24209(11) 0.80194(8) 0.40398(4)
H13 H 0.3233 0.7742 0.4093
H14 H 0.2323 0.8566 0.4243
C12 C 0.13944(10) 0.73435(8) 0.42365(4)
H15 H 0.0582 0.7646 0.4194
C13 C 0.14575(10) 0.64728(7) 0.39346(4)
C14 C 0.14594(10) 0.67902(7) 0.33503(4)
H16 H 0.0661 0.7128 0.3337
C15 C 0.13695(10) 0.60194(7) 0.29879(4)
H17 H 0.0752 0.5563 0.3151
H18 H 0.2183 0.5713 0.2931
C16 C 0.09851(10) 0.63910(7) 0.24670(4)
H19 H 0.0144 0.6655 0.2526
H20 H 0.0940 0.5879 0.2240
C17 C 0.18800(10) 0.71245(7) 0.21846(4)
C18 C 0.12854(10) 0.76092(7) 0.17311(4)
C19 C 0.30691(10) 0.66551(8) 0.19451(4)
H21 H 0.2862 0.6271 0.1673
H22 H 0.3423 0.6278 0.2215
H23 H 0.3676 0.7120 0.1796
C20 C 0.38120(10) 0.71249(8) 0.30658(5)
H24 H 0.4312 0.7458 0.2777
H25 H 0.3800 0.6476 0.3002
H26 H 0.4174 0.7206 0.3388
C21 C 0.02722(11) 0.59135(8) 0.41168(4)
H27 H 0.0354 0.5307 0.3981
H28 H -0.0444 0.6224 0.3989
H29 H 0.0152 0.5853 0.4496
C22 C 0.25661(11) 0.58784(8) 0.40536(5)
H30 H 0.2425 0.5619 0.4412
H31 H 0.3323 0.6251 0.4009
H32 H 0.2659 0.5385 0.3816
O3 O 0.45401(8) 1.02363(6) 0.08864(3)
H33 H 0.4231 1.0034 0.0635
O4 O 0.64266(8) 0.79697(6) 0.48565(3)
H34 H 0.5760 0.7738 0.5003
C23 C 0.57055(10) 0.97492(8) 0.15624(4)
H35 H 0.5589 1.0336 0.1693
C24 C 0.52126(10) 0.95615(8) 0.11145(4)
C25 C 0.53864(11) 0.87190(8) 0.09072(5)
H36 H 0.5053 0.8589 0.0598
C26 C 0.60589(11) 0.80754(8) 0.11642(5)
H37 H 0.6192 0.7498 0.1024
C27 C 0.65525(10) 0.82373(8) 0.16224(4)
C28 C 0.72252(11) 0.74753(8) 0.18861(5)
H38 H 0.7798 0.7182 0.1623
H39 H 0.6613 0.7011 0.2044
C29 C 0.79605(10) 0.78003(8) 0.23037(4)
H40 H 0.8711 0.8135 0.2142
H41 H 0.8226 0.7272 0.2519
C30 C 0.71320(10) 0.84271(7) 0.26425(4)
H42 H 0.6304 0.8117 0.2693
C31 C 0.74821(10) 0.84975(7) 0.32029(4)
C32 C 0.74654(11) 0.75259(8) 0.34668(4)
H43 H 0.6719 0.7201 0.3387
H44 H 0.8203 0.7193 0.3318
C33 C 0.74607(11) 0.75073(8) 0.40533(4)
H45 H 0.7403 0.6868 0.4198
H46 H 0.8251 0.7767 0.4135
C34 C 0.63874(11) 0.80430(8) 0.43047(4)
H47 H 0.5599 0.7751 0.4232
C35 C 0.63786(10) 0.90483(8) 0.40953(4)
C36 C 0.64175(10) 0.90445(7) 0.34947(4)
H48 H 0.5644 0.8712 0.3441
C37 C 0.62872(10) 0.99812(7) 0.32164(4)
H49 H 0.7076 1.0323 0.3204
H50 H 0.5628 1.0328 0.3413
C38 C 0.59639(10) 0.98990(7) 0.26624(4)
H51 H 0.5918 1.0518 0.2492
H52 H 0.5133 0.9614 0.2679
C39 C 0.69059(10) 0.93332(7) 0.23270(4)
C40 C 0.63719(10) 0.90943(7) 0.18283(4)
C41 C 0.80821(11) 0.99206(8) 0.21544(4)
H53 H 0.7884 1.0414 0.1907
H54 H 0.8736 0.9539 0.1990
H55 H 0.8370 1.0179 0.2458
C42 C 0.87918(10) 0.89053(8) 0.32040(5)
H56 H 0.9145 0.8672 0.3516
H57 H 0.8737 0.9571 0.3200
H58 H 0.9325 0.8732 0.2896
C43 C 0.51482(10) 0.94618(8) 0.43189(4)
H59 H 0.5015 0.9315 0.4694
H60 H 0.4465 0.9210 0.4156
H61 H 0.5178 1.0125 0.4250
C44 C 0.74305(11) 0.95969(8) 0.42791(5)
H62 H 0.7257 0.9666 0.4653
H63 H 0.7487 1.0200 0.4095
H64 H 0.8218 0.9275 0.4208
O5 O 0.52483(8) 0.20129(6) 0.07109(3)
H65 H 0.5092 0.1454 0.0765
O6 O 0.10540(8) 0.21754(6) 0.47793(3)
H66 H 0.1706 0.2098 0.4922
C45 C 0.36059(10) 0.20939(8) 0.14192(4)
H67 H 0.3648 0.1454 0.1493
C46 C 0.43918(10) 0.24995(8) 0.10102(4)
C47 C 0.43475(11) 0.34325(8) 0.08945(4)
H68 H 0.4891 0.3717 0.0619
C48 C 0.34920(11) 0.39355(8) 0.11905(4)
H69 H 0.3450 0.4573 0.1111
C49 C 0.26838(10) 0.35438(8) 0.16035(4)
C50 C 0.18080(11) 0.41554(8) 0.19132(4)
H70 H 0.1367 0.4549 0.1672
H71 H 0.2297 0.4556 0.2106
C51 C 0.08538(10) 0.36349(8) 0.22968(4)
H72 H 0.0192 0.3391 0.2111
H73 H 0.0467 0.4049 0.2554
C52 C 0.15021(10) 0.28508(7) 0.25729(4)
H74 H 0.2296 0.3125 0.2652
C53 C 0.08435(10) 0.24975(7) 0.31150(4)
C54 C 0.07310(10) 0.33108(8) 0.34657(4)
H75 H 0.1521 0.3658 0.3413
H76 H 0.0069 0.3721 0.3358
C55 C 0.04378(11) 0.30283(8) 0.40420(4)
H77 H 0.0433 0.3577 0.4244
H78 H -0.0402 0.2752 0.4104
C56 C 0.13698(10) 0.23550(8) 0.42299(4)
H79 H 0.2205 0.2655 0.4174
C57 C 0.14477(10) 0.14793(8) 0.39320(4)
C58 C 0.17349(9) 0.17901(7) 0.33450(4)
H80 H 0.2543 0.2124 0.3323
C59 C 0.20054(10) 0.10175(7) 0.29826(4)
H81 H 0.1218 0.0718 0.2930
H82 H 0.2536 0.0557 0.3142
C60 C 0.26620(10) 0.13863(7) 0.24596(4)
H83 H 0.2823 0.0874 0.2233
H84 H 0.3474 0.1646 0.2515
C61 C 0.19203(10) 0.21223(7) 0.21805(4)
C62 C 0.27524(10) 0.26054(7) 0.17259(4)
C63 C 0.08496(10) 0.16594(8) 0.19473(4)
H85 H 0.1196 0.1274 0.1673
H86 H 0.0321 0.2127 0.1802
H87 H 0.0355 0.1284 0.2220
C64 C -0.04708(10) 0.21299(8) 0.30782(4)
H88 H -0.0994 0.2206 0.3405
H89 H -0.0424 0.1482 0.3011
H90 H -0.0830 0.2467 0.2795
C65 C 0.25463(11) 0.09157(8) 0.40990(4)
H91 H 0.3326 0.1228 0.3966
H92 H 0.2534 0.0313 0.3959
H93 H 0.2479 0.0847 0.4478
C66 C 0.02742(11) 0.08919(9) 0.40693(5)
H94 H 0.0316 0.0372 0.3851
H95 H -0.0458 0.1258 0.4010
H96 H 0.0216 0.0671 0.4435
O7 O 0.99815(8) 0.52505(6) 0.08808(3)
H97 H 1.0425 0.5055 0.0625
O8 O 0.60749(8) 0.28917(7) 0.48346(3)
H98 H 0.6727 0.2915 0.4979
C67 C 0.84331(10) 0.47562(8) 0.15526(4)
H99 H 0.8470 0.5341 0.1685
C68 C 0.91844(10) 0.45723(8) 0.11038(4)
C69 C 0.91338(11) 0.37345(8) 0.08943(4)
H100 H 0.9641 0.3608 0.0585
C70 C 0.83235(11) 0.30859(8) 0.11478(5)
H101 H 0.8277 0.2510 0.1006
C71 C 0.75705(10) 0.32453(8) 0.16048(4)
C72 C 0.67603(11) 0.24752(8) 0.18649(5)
H102 H 0.7293 0.2005 0.2015
H103 H 0.6325 0.2192 0.1601
C73 C 0.58048(10) 0.27870(8) 0.22913(4)
H104 H 0.5442 0.2253 0.2507
H105 H 0.5126 0.3118 0.2137
C74 C 0.64501(10) 0.34150(7) 0.26267(4)
H106 H 0.7263 0.3112 0.2668
C75 C 0.58101(10) 0.34674(7) 0.31920(4)
C76 C 0.57424(10) 0.24919(8) 0.34506(4)
H107 H 0.5092 0.2147 0.3307
H108 H 0.6544 0.2185 0.3360
C77 C 0.54601(11) 0.24553(8) 0.40390(5)
H109 H 0.4612 0.2689 0.4132
H110 H 0.5484 0.1814 0.4178
C78 C 0.63782(11) 0.30118(8) 0.42851(4)
H111 H 0.7222 0.2751 0.4196
C79 C 0.64160(10) 0.40227(8) 0.40817(4)
C80 C 0.66962(10) 0.40347(7) 0.34801(4)
H112 H 0.7516 0.3722 0.3421
C81 C 0.69215(10) 0.49786(7) 0.32036(4)
H113 H 0.7455 0.5340 0.3399
H114 H 0.6119 0.5299 0.3194
C82 C 0.75490(10) 0.49085(7) 0.26478(4)
H115 H 0.8383 0.4639 0.2662
H116 H 0.7661 0.5530 0.2479
C83 C 0.68103(10) 0.43288(7) 0.23136(4)
C84 C 0.76232(10) 0.40986(7) 0.18139(4)
C85 C 0.57071(10) 0.48961(8) 0.21450(4)
H117 H 0.5233 0.5134 0.2451
H118 H 0.5168 0.4509 0.1973
H119 H 0.6021 0.5405 0.1905
C86 C 0.44771(10) 0.38423(8) 0.32019(5)
H120 H 0.4119 0.3670 0.2893
H121 H 0.4498 0.4508 0.3206
H122 H 0.3968 0.3587 0.3513
C87 C 0.74971(11) 0.44867(8) 0.42997(5)
H123 H 0.7464 0.5146 0.4221
H124 H 0.8287 0.4250 0.4141
H125 H 0.7429 0.4359 0.4676
C88 C 0.52214(11) 0.45139(9) 0.42786(5)
H126 H 0.4504 0.4196 0.4176
H127 H 0.5246 0.5142 0.4128
H128 H 0.5151 0.4517 0.4657
O9 O 0.15818(8) 0.47275(6) 0.00909(3)
O10 O 0.32318(8) 0.56609(6) 0.00462(3)
C89 C 0.34311(13) 0.43870(10) -0.04528(6)
H129 H 0.3055 0.3785 -0.0466
H130 H 0.4261 0.4316 -0.0342
H131 H 0.3495 0.4704 -0.0798
C90 C 0.26418(11) 0.49282(9) -0.00768(5)
C91 C 0.25136(11) 0.62784(9) 0.03806(5)
H132 H 0.2220 0.5958 0.0718
H133 H 0.1782 0.6504 0.0217
C92 C 0.33476(13) 0.70590(9) 0.04580(5)
H134 H 0.4046 0.6831 0.0637
H135 H 0.2878 0.7502 0.0668
H136 H 0.3663 0.7354 0.0120
O11 O 0.33851(8) -0.02800(6) 0.00919(3)
O12 O 0.17512(8) 0.06491(6) 0.00461(3)
C93 C 0.18377(14) -0.06277(11) -0.04507(6)
H137 H 0.1939 -0.0305 -0.0794
H138 H 0.0952 -0.0713 -0.0334
H139 H 0.2242 -0.1223 -0.0470
C94 C 0.24160(12) -0.00823(9) -0.00766(5)
C95 C 0.22777(12) 0.12712(9) 0.03783(5)
H140 H 0.3097 0.1498 0.0214
H141 H 0.2390 0.0953 0.0717
C96 C 0.13959(13) 0.20499(9) 0.04543(5)
H142 H 0.1247 0.2333 0.0116
H143 H 0.1755 0.2502 0.0656
H144 H 0.0609 0.1825 0.0641
loop_
_geom_bond_atom_site_label_1
_geom_bond_atom_site_label_2
_geom_bond_site_symmetry_1
_geom_bond_site_symmetry_2
O1 H1 1_555 1_555
O2 H2 1_555 1_555
C1 H3 1_555 1_555
C2 O1 1_555 1_555
C3 C2 1_555 1_555
H4 C3 1_555 1_555
C4 C3 1_555 1_555
H5 C4 1_555 1_555
C5 C4 1_555 1_555
C6 C5 1_555 1_555
H6 C6 1_555 1_555
H7 C6 1_555 1_555
C7 C6 1_555 1_555
H8 C7 1_555 1_555
H9 C7 1_555 1_555
C8 C7 1_555 1_555
H10 C8 1_555 1_555
C9 C8 1_555 1_555
C10 C9 1_555 1_555
H11 C10 1_555 1_555
H12 C10 1_555 1_555
C11 C10 1_555 1_555
H13 C11 1_555 1_555
H14 C11 1_555 1_555
C12 O2 1_555 1_555
H15 C12 1_555 1_555
C13 C12 1_555 1_555
C14 C9 1_555 1_555
H16 C14 1_555 1_555
C15 C14 1_555 1_555
H17 C15 1_555 1_555
H18 C15 1_555 1_555
C16 C15 1_555 1_555
H19 C16 1_555 1_555
H20 C16 1_555 1_555
C17 C8 1_555 1_555
C18 C1 1_555 1_555
C19 C17 1_555 1_555
H21 C19 1_555 1_555
H22 C19 1_555 1_555
H23 C19 1_555 1_555
C20 C9 1_555 1_555
H24 C20 1_555 1_555
H25 C20 1_555 1_555
H26 C20 1_555 1_555
C21 C13 1_555 1_555
H27 C21 1_555 1_555
H28 C21 1_555 1_555
H29 C21 1_555 1_555
C22 C13 1_555 1_555
H30 C22 1_555 1_555
H31 C22 1_555 1_555
H32 C22 1_555 1_555
O3 H33 1_555 1_555
O4 H34 1_555 1_555
C23 H35 1_555 1_555
C24 O3 1_555 1_555
C25 C24 1_555 1_555
H36 C25 1_555 1_555
C26 C25 1_555 1_555
H37 C26 1_555 1_555
C27 C26 1_555 1_555
C28 C27 1_555 1_555
H38 C28 1_555 1_555
H39 C28 1_555 1_555
C29 C28 1_555 1_555
H40 C29 1_555 1_555
H41 C29 1_555 1_555
C30 C29 1_555 1_555
H42 C30 1_555 1_555
C31 C30 1_555 1_555
C32 C31 1_555 1_555
H43 C32 1_555 1_555
H44 C32 1_555 1_555
C33 C32 1_555 1_555
H45 C33 1_555 1_555
H46 C33 1_555 1_555
C34 O4 1_555 1_555
H47 C34 1_555 1_555
C35 C34 1_555 1_555
C36 C31 1_555 1_555
H48 C36 1_555 1_555
C37 C36 1_555 1_555
H49 C37 1_555 1_555
H50 C37 1_555 1_555
C38 C37 1_555 1_555
H51 C38 1_555 1_555
H52 C38 1_555 1_555
C39 C30 1_555 1_555
C40 C23 1_555 1_555
C41 C39 1_555 1_555
H53 C41 1_555 1_555
H54 C41 1_555 1_555
H55 C41 1_555 1_555
C42 C31 1_555 1_555
H56 C42 1_555 1_555
H57 C42 1_555 1_555
H58 C42 1_555 1_555
C43 C35 1_555 1_555
H59 C43 1_555 1_555
H60 C43 1_555 1_555
H61 C43 1_555 1_555
C44 C35 1_555 1_555
H62 C44 1_555 1_555
H63 C44 1_555 1_555
H64 C44 1_555 1_555
O5 H65 1_555 1_555
O6 H66 1_555 1_555
C45 H67 1_555 1_555
C46 O5 1_555 1_555
C47 C46 1_555 1_555
H68 C47 1_555 1_555
C48 C47 1_555 1_555
H69 C48 1_555 1_555
C49 C48 1_555 1_555
C50 C49 1_555 1_555
H70 C50 1_555 1_555
H71 C50 1_555 1_555
C51 C50 1_555 1_555
H72 C51 1_555 1_555
H73 C51 1_555 1_555
C52 C51 1_555 1_555
H74 C52 1_555 1_555
C53 C52 1_555 1_555
C54 C53 1_555 1_555
H75 C54 1_555 1_555
H76 C54 1_555 1_555
C55 C54 1_555 1_555
H77 C55 1_555 1_555
H78 C55 1_555 1_555
C56 O6 1_555 1_555
H79 C56 1_555 1_555
C57 C56 1_555 1_555
C58 C53 1_555 1_555
H80 C58 1_555 1_555
C59 C58 1_555 1_555
H81 C59 1_555 1_555
H82 C59 1_555 1_555
C60 C59 1_555 1_555
H83 C60 1_555 1_555
H84 C60 1_555 1_555
C61 C52 1_555 1_555
C62 C45 1_555 1_555
C63 C61 1_555 1_555
H85 C63 1_555 1_555
H86 C63 1_555 1_555
H87 C63 1_555 1_555
C64 C53 1_555 1_555
H88 C64 1_555 1_555
H89 C64 1_555 1_555
H90 C64 1_555 1_555
C65 C57 1_555 1_555
H91 C65 1_555 1_555
H92 C65 1_555 1_555
H93 C65 1_555 1_555
C66 C57 1_555 1_555
H94 C66 1_555 1_555
H95 C66 1_555 1_555
H96 C66 1_555 1_555
O7 H97 1_555 1_555
O8 H98 1_555 1_555
C67 H99 1_555 1_555
C68 O7 1_555 1_555
C69 C68 1_555 1_555
H100 C69 1_555 1_555
C70 C69 1_555 1_555
H101 C70 1_555 1_555
C71 C70 1_555 1_555
C72 C71 1_555 1_555
H102 C72 1_555 1_555
H103 C72 1_555 1_555
C73 C72 1_555 1_555
H104 C73 1_555 1_555
H105 C73 1_555 1_555
C74 C73 1_555 1_555
H106 C74 1_555 1_555
C75 C74 1_555 1_555
C76 C75 1_555 1_555
H107 C76 1_555 1_555
H108 C76 1_555 1_555
C77 C76 1_555 1_555
H109 C77 1_555 1_555
H110 C77 1_555 1_555
C78 O8 1_555 1_555
H111 C78 1_555 1_555
C79 C78 1_555 1_555
C80 C75 1_555 1_555
H112 C80 1_555 1_555
C81 C80 1_555 1_555
H113 C81 1_555 1_555
H114 C81 1_555 1_555
C82 C81 1_555 1_555
H115 C82 1_555 1_555
H116 C82 1_555 1_555
C83 C74 1_555 1_555
C84 C67 1_555 1_555
C85 C83 1_555 1_555
H117 C85 1_555 1_555
H118 C85 1_555 1_555
H119 C85 1_555 1_555
C86 C75 1_555 1_555
H120 C86 1_555 1_555
H121 C86 1_555 1_555
H122 C86 1_555 1_555
C87 C79 1_555 1_555
H123 C87 1_555 1_555
H124 C87 1_555 1_555
H125 C87 1_555 1_555
C88 C79 1_555 1_555
H126 C88 1_555 1_555
H127 C88 1_555 1_555
H128 C88 1_555 1_555
O9 C90 1_555 1_555
O10 C90 1_555 1_555
C89 H129 1_555 1_555
H130 C89 1_555 1_555
H131 C89 1_555 1_555
C90 C89 1_555 1_555
C91 O10 1_555 1_555
H132 C91 1_555 1_555
H133 C91 1_555 1_555
C92 C91 1_555 1_555
H134 C92 1_555 1_555
H135 C92 1_555 1_555
H136 C92 1_555 1_555
O11 C94 1_555 1_555
O12 C94 1_555 1_555
C93 H137 1_555 1_555
H138 C93 1_555 1_555
H139 C93 1_555 1_555
C94 C93 1_555 1_555
C95 O12 1_555 1_555
H140 C95 1_555 1_555
H141 C95 1_555 1_555
C96 C95 1_555 1_555
H142 C96 1_555 1_555
H143 C96 1_555 1_555
H144 C96 1_555 1_555
C1 C2 1_555 1_555
C5 C18 1_555 1_555
C11 C12 1_555 1_555
C13 C14 1_555 1_555
C16 C17 1_555 1_555
C17 C18 1_555 1_555
C23 C24 1_555 1_555
C27 C40 1_555 1_555
C33 C34 1_555 1_555
C35 C36 1_555 1_555
C38 C39 1_555 1_555
C39 C40 1_555 1_555
C45 C46 1_555 1_555
C49 C62 1_555 1_555
C55 C56 1_555 1_555
C57 C58 1_555 1_555
C60 C61 1_555 1_555
C61 C62 1_555 1_555
C67 C68 1_555 1_555
C71 C84 1_555 1_555
C77 C78 1_555 1_555
C79 C80 1_555 1_555
C82 C83 1_555 1_555
C83 C84 1_555 1_555

#END
