
#######################################################################
#
#                 Cambridge Crystallographic Data Centre
#                                CCDC 
#
#######################################################################
#
# If this CIF has been generated from an entry in the Cambridge 
# Structural Database, then it will include bibliographic, chemical, 
# crystal, experimental, refinement or atomic coordinate data resulting 
# from the CCDC's data processing and validation procedures.
#
#######################################################################

data_KABJAB
_chemical_formula_moiety         'C30 H20 N6 O6,2(C3 H7 N1 O1)'
_chemical_name_systematic        
"7',9'-bis(4-Nitrophenyl)-3-phenyl-1',6',7',9'-tetrahydrospiro[1,2-oxazole-4,8'-pyrazolo[3,4-f]quinolin]-5-one N,N-dimethylformamide solvate"
_symmetry_cell_setting           monoclinic
_symmetry_space_group_name_H-M   'P 21/c'
_symmetry_Int_Tables_number      14
_space_group_name_Hall           '-P 2ybc'
loop_
_symmetry_equiv_pos_site_id
_symmetry_equiv_pos_as_xyz
1 x,y,z
2 -x,1/2+y,1/2-z
3 -x,-y,-z
4 x,1/2-y,1/2+z
_cell_length_a                   13.3904(15)
_cell_length_b                   10.3762(13)
_cell_length_c                   25.883(3)
_cell_angle_alpha                90
_cell_angle_beta                 101.104(6)
_cell_angle_gamma                90
_cell_volume                     3528.9
_exptl_crystal_colour            yellow
_exptl_crystal_description       block
_cell_formula_units_Z            4
loop_
_atom_site_label
_atom_site_type_symbol
_atom_site_fract_x
_atom_site_fract_y
_atom_site_fract_z
N1 N 0.13883(12) 0.18574(17) 0.24382(6)
N2 N 0.41583(12) 0.44429(16) 0.29512(7)
N3 N 0.15881(14) 0.30662(19) 0.06349(6)
H1 H 0.1943(16) 0.3764(15) 0.0648(9)
N4 N 0.10966(16) 0.2623(2) 0.01554(7)
N5 N 0.62272(17) 0.2866(3) 0.10784(10)
N6 N 0.32608(18) 0.2872(3) 0.49011(8)
O1 O 0.36268(11) 0.13203(14) 0.25585(6)
O2 O 0.43569(10) 0.30774(13) 0.29611(6)
O3 O 0.67689(19) 0.3794(3) 0.10690(13)
O4 O 0.64774(18) 0.1805(2) 0.09676(12)
O5 O 0.3288(2) 0.3878(2) 0.51446(7)
O6 O 0.35715(17) 0.1837(2) 0.50984(7)
C1 C 0.11604(14) 0.17517(19) 0.18950(7)
C2 C 0.04540(15) 0.0784(2) 0.16651(8)
H2 H 0.0162 0.0253 0.1884
C3 C 0.01972(16) 0.0619(2) 0.11360(8)
H3 H -0.0252 -0.0030 0.0994
C4 C 0.06239(16) 0.1447(2) 0.08069(8)
C5 C 0.05289(19) 0.1655(3) 0.02580(8)
H4 H 0.0115 0.1167 0.0001
C6 C 0.13200(14) 0.2396(2) 0.10378(7)
C7 C 0.16400(13) 0.25431(19) 0.15861(7)
C8 C 0.24673(13) 0.34939(19) 0.18124(7)
H5 H 0.2204 0.4361 0.1717
C9 C 0.27557(13) 0.34323(18) 0.24283(7)
C10 C 0.17978(14) 0.30603(19) 0.26703(7)
H6 H 0.1280 0.3734 0.2580
C11 C 0.35828(14) 0.2455(2) 0.26314(7)
C12 C 0.32826(13) 0.46487(19) 0.26566(7)
C13 C 0.29510(14) 0.60004(19) 0.25509(7)
C14 C 0.36894(16) 0.6938(2) 0.25346(8)
H7 H 0.4370 0.6702 0.2577
C15 C 0.34144(18) 0.8220(2) 0.24552(9)
H8 H 0.3911 0.8840 0.2443
C16 C 0.24044(18) 0.8583(2) 0.23933(10)
H9 H 0.2223 0.9447 0.2350
C17 C 0.16701(17) 0.7656(2) 0.23961(10)
H10 H 0.0990 0.7897 0.2349
C18 C 0.19317(15) 0.6371(2) 0.24689(9)
H11 H 0.1427 0.5752 0.2463
C19 C 0.34383(14) 0.33271(19) 0.15889(7)
C20 C 0.40674(15) 0.4386(2) 0.15589(8)
H12 H 0.3870 0.5198 0.1653
C21 C 0.49822(16) 0.4244(2) 0.13905(9)
H13 H 0.5404 0.4949 0.1375
C22 C 0.52526(15) 0.3038(2) 0.12474(8)
C23 C 0.46477(16) 0.1969(2) 0.12677(8)
H14 H 0.4848 0.1163 0.1168
C24 C 0.37438(15) 0.2123(2) 0.14378(8)
H15 H 0.3329 0.1410 0.1452
C25 C 0.20974(14) 0.2970(2) 0.32635(7)
C26 C 0.20979(16) 0.4075(2) 0.35677(8)
H16 H 0.1847 0.4843 0.3407
C27 C 0.24648(17) 0.4051(2) 0.41044(8)
H17 H 0.2470 0.4794 0.4306
C28 C 0.28235(16) 0.2900(2) 0.43343(8)
C29 C 0.28114(16) 0.1779(2) 0.40500(8)
H18 H 0.3043 0.1011 0.4216
C30 C 0.24482(15) 0.1814(2) 0.35130(8)
H19 H 0.2437 0.1064 0.3316
H20 H 0.1037(14) 0.1424(19) 0.2622(7)
N7 N 0.05083(14) -0.0037(2) 0.38611(7)
O7 O 0.02637(11) -0.00926(17) 0.29673(6)
C31 C -0.0007(2) 0.1191(4) 0.38766(11)
H21 H -0.0279 0.1470 0.3524
H22 H 0.0468 0.1821 0.4049
H23 H -0.0551 0.1094 0.4067
C32 C 0.0954(2) -0.0634(3) 0.43610(10)
H24 H 0.1267 -0.1436 0.4297
H25 H 0.0432 -0.0791 0.4560
H26 H 0.1458 -0.0070 0.4556
C33 C 0.05877(17) -0.0554(3) 0.34054(9)
H27 H 0.0921 -0.1343 0.3416
N8 N 0.3339(2) 0.7394(3) 0.06497(11)
O8 O 0.22960(16) 0.5681(2) 0.06524(9)
C34 C 0.2766(5) 0.8219(5) 0.0923(3)
H28 H 0.2169 0.7774 0.0981
H29 H 0.2569 0.8978 0.0716
H30 H 0.3175 0.8460 0.1255
C35 C 0.4259(4) 0.7926(5) 0.0516(2)
H31 H 0.4596 0.7274 0.0350
H32 H 0.4703 0.8215 0.0831
H33 H 0.4086 0.8639 0.0280
C36 C 0.3040(3) 0.6209(3) 0.05381(12)
H34 H 0.3433 0.5718 0.0353
loop_
_geom_bond_atom_site_label_1
_geom_bond_atom_site_label_2
_geom_bond_site_symmetry_1
_geom_bond_site_symmetry_2
N1 C1 1_555 1_555
N2 O2 1_555 1_555
N3 H1 1_555 1_555
N4 N3 1_555 1_555
N5 O3 1_555 1_555
N6 O5 1_555 1_555
O1 C11 1_555 1_555
O2 C11 1_555 1_555
O4 N5 1_555 1_555
O6 N6 1_555 1_555
C1 C2 1_555 1_555
C2 H2 1_555 1_555
C3 C2 1_555 1_555
H3 C3 1_555 1_555
C4 C3 1_555 1_555
C5 N4 1_555 1_555
H4 C5 1_555 1_555
C6 N3 1_555 1_555
C7 C1 1_555 1_555
C8 C7 1_555 1_555
H5 C8 1_555 1_555
C9 C8 1_555 1_555
C10 N1 1_555 1_555
H6 C10 1_555 1_555
C11 C9 1_555 1_555
C12 N2 1_555 1_555
C13 C12 1_555 1_555
C14 C13 1_555 1_555
H7 C14 1_555 1_555
C15 C14 1_555 1_555
H8 C15 1_555 1_555
C16 C15 1_555 1_555
H9 C16 1_555 1_555
C17 C16 1_555 1_555
H10 C17 1_555 1_555
C18 C13 1_555 1_555
H11 C18 1_555 1_555
C19 C8 1_555 1_555
C20 C19 1_555 1_555
H12 C20 1_555 1_555
C21 C20 1_555 1_555
H13 C21 1_555 1_555
C22 N5 1_555 1_555
C23 C22 1_555 1_555
H14 C23 1_555 1_555
C24 C19 1_555 1_555
H15 C24 1_555 1_555
C25 C10 1_555 1_555
C26 C25 1_555 1_555
H16 C26 1_555 1_555
C27 C26 1_555 1_555
H17 C27 1_555 1_555
C28 N6 1_555 1_555
C29 C28 1_555 1_555
H18 C29 1_555 1_555
C30 C25 1_555 1_555
H19 C30 1_555 1_555
H20 N1 1_555 1_555
N7 C31 1_555 1_555
O7 C33 1_555 1_555
C31 H21 1_555 1_555
H22 C31 1_555 1_555
H23 C31 1_555 1_555
C32 N7 1_555 1_555
H24 C32 1_555 1_555
H25 C32 1_555 1_555
H26 C32 1_555 1_555
C33 N7 1_555 1_555
H27 C33 1_555 1_555
N8 C34 1_555 1_555
O8 C36 1_555 1_555
C34 H28 1_555 1_555
H29 C34 1_555 1_555
H30 C34 1_555 1_555
C35 N8 1_555 1_555
H31 C35 1_555 1_555
H32 C35 1_555 1_555
H33 C35 1_555 1_555
C36 N8 1_555 1_555
H34 C36 1_555 1_555
C4 C5 1_555 1_555
C4 C6 1_555 1_555
C6 C7 1_555 1_555
C9 C10 1_555 1_555
C9 C12 1_555 1_555
C17 C18 1_555 1_555
C21 C22 1_555 1_555
C23 C24 1_555 1_555
C27 C28 1_555 1_555
C29 C30 1_555 1_555

#END
