
#######################################################################
#
#                 Cambridge Crystallographic Data Centre
#                                CCDC 
#
#######################################################################
#
# If this CIF has been generated from an entry in the Cambridge 
# Structural Database, then it will include bibliographic, chemical, 
# crystal, experimental, refinement or atomic coordinate data resulting 
# from the CCDC's data processing and validation procedures.
#
#######################################################################

data_KABKAC
_chemical_formula_moiety         'C25 H24 Cl2 N2 O3 S1,0.5(C1 H2 Cl2)'
_chemical_name_systematic        
'(R)-N-(1-(2,6-Dichlorobenzyl)-2-oxo-3-phenyl-2,3-dihydro-1H-indol-3-yl)-2-methylpropane-2-sulfonamide dichloromethane solvate'
_symmetry_cell_setting           orthorhombic
_symmetry_space_group_name_H-M   'P 21 21 21'
_symmetry_Int_Tables_number      19
_space_group_name_Hall           'P 2ac 2ab'
loop_
_symmetry_equiv_pos_site_id
_symmetry_equiv_pos_as_xyz
1 x,y,z
2 1/2-x,-y,1/2+z
3 1/2+x,1/2-y,-z
4 -x,1/2+y,1/2-z
_cell_length_a                   9.4307(5)
_cell_length_b                   15.3888(8)
_cell_length_c                   35.4348(18)
_cell_angle_alpha                90
_cell_angle_beta                 90
_cell_angle_gamma                90
_cell_volume                     5142.55
_exptl_crystal_colour            colorless
_exptl_crystal_description       block
_cell_formula_units_Z            8
_exptl_crystal_recrystallization_method 'dichloromethane/petroleum ether'
loop_
_atom_site_label
_atom_site_type_symbol
_atom_site_fract_x
_atom_site_fract_y
_atom_site_fract_z
S1 S -0.22073(6) 0.64955(4) 0.25160(2)
Cl1 Cl -0.55590(7) 0.62378(5) 0.09006(2)
Cl2 Cl 0.01386(8) 0.61172(6) 0.06581(2)
O1 O -0.42960(19) 0.72138(11) 0.17299(4)
O2 O -0.15894(18) 0.67394(12) 0.21609(5)
O3 O -0.14252(19) 0.59209(12) 0.27587(5)
N1 N -0.3034(2) 0.60899(13) 0.14633(5)
N2 N -0.3780(2) 0.60671(13) 0.24259(5)
H1 H -0.4400 0.6014 0.2610
C1 C -0.2635(2) 0.52388(15) 0.15658(6)
C2 C -0.4163(2) 0.57732(15) 0.20441(6)
C3 C -0.3839(2) 0.64774(15) 0.17375(6)
C4 C -0.3283(2) 0.50173(15) 0.19028(6)
C5 C -0.1740(3) 0.46696(17) 0.13782(6)
H2 H -0.1280 0.4831 0.1150
C6 C -0.8689(3) 0.53851(19) 0.19523(8)
H3 H -0.9685 0.5307 0.1929
C7 C -0.5764(3) 0.56053(16) 0.20279(6)
C8 C -0.1543(3) 0.38501(17) 0.15385(7)
H4 H -0.0946 0.3441 0.1415
C9 C -0.2480(3) 0.65767(15) 0.11434(7)
H5 H -0.1448 0.6660 0.1179
H6 H -0.2927 0.7159 0.1141
C10 C -0.6692(3) 0.59782(18) 0.22865(7)
H7 H -0.6332 0.6312 0.2491
C11 C -0.3083(3) 0.42070(16) 0.20621(7)
H8 H -0.3532 0.4054 0.2292
C12 C -0.2202(3) 0.36214(16) 0.18748(8)
H9 H -0.2051 0.3060 0.1978
C13 C -0.1616(3) 0.59496(17) 0.05186(7)
C14 C -0.4338(3) 0.56326(18) 0.02725(7)
H10 H -0.5279 0.5519 0.0191
C15 C -0.8141(3) 0.5863(2) 0.22463(8)
H11 H -0.8767 0.6118 0.2425
C16 C -0.2730(3) 0.61463(16) 0.07651(7)
C17 C -0.6318(3) 0.51213(17) 0.17319(7)
H12 H -0.5694 0.4857 0.1555
C18 C -0.7773(3) 0.50180(19) 0.16907(8)
H13 H -0.8140 0.4697 0.1484
C19 C -0.1826(3) 0.56205(18) 0.01597(7)
H14 H -0.1041 0.5509 -0.0001
C20 C -0.2619(3) 0.74672(16) 0.27848(7)
C21 C -0.3195(4) 0.54553(19) 0.00386(7)
H15 H -0.3353 0.5220 -0.0206
C22 C -0.4088(3) 0.59800(17) 0.06292(7)
C23 C -0.3558(3) 0.72119(19) 0.31199(7)
H16 H -0.4469 0.6994 0.3027
H17 H -0.3086 0.6757 0.3267
H18 H -0.3720 0.7722 0.3280
C24 C -0.3360(3) 0.81195(18) 0.25273(8)
H19 H -0.4275 0.7882 0.2446
H20 H -0.3514 0.8664 0.2665
H21 H -0.2766 0.8231 0.2306
C25 C -0.1190(3) 0.78105(19) 0.29175(8)
H22 H -0.0739 0.7380 0.3082
H23 H -0.0582 0.7920 0.2698
H24 H -0.1330 0.8353 0.3058
S2 S 0.65549(6) 0.41851(4) 0.33402(2)
Cl3 Cl 0.49374(9) 0.85609(4) 0.39994(2)
Cl4 Cl 0.35435(8) 0.57399(4) 0.48526(2)
O4 O 0.64754(19) 0.49487(11) 0.43072(4)
O5 O 0.6849(2) 0.50669(11) 0.34504(5)
O6 O 0.5937(2) 0.40475(15) 0.29737(5)
N3 N 0.4800(2) 0.58500(13) 0.40437(5)
N4 N 0.5532(2) 0.37734(13) 0.36740(5)
H25 H 0.5543 0.3213 0.3724
C26 C 0.3831(2) 0.38395(14) 0.41910(6)
C27 C 0.3772(2) 0.57898(15) 0.37572(6)
C28 C 0.3622(2) 0.49185(15) 0.36494(6)
C29 C 0.5295(3) 0.66407(15) 0.42239(7)
H26 H 0.5745 0.7015 0.4031
H27 H 0.6030 0.6487 0.4412
C30 C 0.4603(2) 0.43659(14) 0.38845(6)
C31 C 0.4636(3) 0.33507(15) 0.44447(7)
H28 H 0.5631 0.3297 0.4410
C32 C 0.2043(3) 0.61948(18) 0.33058(7)
H29 H 0.1482 0.6628 0.3187
C33 C 0.1889(3) 0.53382(19) 0.31956(7)
H30 H 0.1234 0.5193 0.3002
C34 C 0.2690(3) 0.46869(17) 0.33673(7)
H31 H 0.2595 0.4098 0.3292
C35 C 0.2998(3) 0.64433(17) 0.35865(7)
H32 H 0.3111 0.7035 0.3657
C36 C 0.8150(3) 0.35331(16) 0.33763(7)
C37 C 0.4138(3) 0.71545(16) 0.44194(6)
C38 C 0.2526(3) 0.30012(17) 0.47964(7)
H33 H 0.2082 0.2725 0.5005
C39 C 0.2378(3) 0.38886(16) 0.42383(7)
H34 H 0.1822 0.4213 0.4065
C40 C 0.5459(2) 0.50699(15) 0.41034(6)
C41 C 0.1722(3) 0.34634(17) 0.45400(7)
H35 H 0.0721 0.3492 0.4569
C42 C 0.3881(3) 0.80287(16) 0.43293(7)
C43 C 0.3982(3) 0.29414(17) 0.47486(7)
H36 H 0.4536 0.2620 0.4924
C44 C 0.3273(3) 0.68072(18) 0.47030(7)
C45 C 0.7766(3) 0.25771(18) 0.34155(11)
H37 H 0.7237 0.2389 0.3192
H38 H 0.8634 0.2231 0.3439
H39 H 0.7178 0.2495 0.3641
C46 C 0.8974(3) 0.3841(2) 0.37213(9)
H40 H 0.9215 0.4456 0.3692
H41 H 0.8391 0.3763 0.3948
H42 H 0.9847 0.3499 0.3746
C47 C 0.1963(4) 0.8122(2) 0.47652(9)
H43 H 0.1213 0.8444 0.4877
C48 C 0.2811(4) 0.85052(19) 0.44945(8)
H44 H 0.2658 0.9093 0.4423
C49 C 0.2201(4) 0.7270(2) 0.48741(8)
H45 H 0.1634 0.7009 0.5064
C50 C 0.8976(3) 0.3690(2) 0.30111(8)
H46 H 0.9215 0.4308 0.2991
H47 H 0.9850 0.3345 0.3014
H48 H 0.8393 0.3518 0.2795
Cl5 Cl 0.02580(9) 0.58000(6) 0.42972(3)
Cl6 Cl -0.11270(9) 0.74011(5) 0.40558(3)
C51 C -0.0915(3) 0.6279(2) 0.39712(9)
H49 H -0.1850 0.5989 0.3988
H50 H -0.0547 0.6192 0.3712
loop_
_geom_bond_atom_site_label_1
_geom_bond_atom_site_label_2
_geom_bond_site_symmetry_1
_geom_bond_site_symmetry_2
S1 O2 1_555 1_555
Cl1 C22 1_555 1_555
Cl2 C13 1_555 1_555
O1 C3 1_555 1_555
O3 S1 1_555 1_555
N1 C1 1_555 1_555
N2 S1 1_555 1_555
H1 N2 1_555 1_555
C1 C4 1_555 1_555
C2 N2 1_555 1_555
C3 N1 1_555 1_555
C4 C2 1_555 1_555
C5 C1 1_555 1_555
H2 C5 1_555 1_555
C6 H3 1_555 1_555
C7 C2 1_555 1_555
C8 C5 1_555 1_555
H4 C8 1_555 1_555
C9 N1 1_555 1_555
H5 C9 1_555 1_555
H6 C9 1_555 1_555
C10 C7 1_555 1_555
H7 C10 1_555 1_555
C11 C4 1_555 1_555
H8 C11 1_555 1_555
C12 C8 1_555 1_555
H9 C12 1_555 1_555
C13 C16 1_555 1_555
C14 H10 1_555 1_555
C15 C6 1_555 1_555
H11 C15 1_555 1_555
C16 C9 1_555 1_555
C17 C7 1_555 1_555
H12 C17 1_555 1_555
C18 C6 1_555 1_555
H13 C18 1_555 1_555
C19 C13 1_555 1_555
H14 C19 1_555 1_555
C20 S1 1_555 1_555
C21 C14 1_555 1_555
H15 C21 1_555 1_555
C22 C14 1_555 1_555
C23 C20 1_555 1_555
H16 C23 1_555 1_555
H17 C23 1_555 1_555
H18 C23 1_555 1_555
C24 C20 1_555 1_555
H19 C24 1_555 1_555
H20 C24 1_555 1_555
H21 C24 1_555 1_555
C25 C20 1_555 1_555
H22 C25 1_555 1_555
H23 C25 1_555 1_555
H24 C25 1_555 1_555
S2 O5 1_555 1_555
Cl3 C42 1_555 1_555
Cl4 C44 1_555 1_555
O4 C40 1_555 1_555
O6 S2 1_555 1_555
N3 C27 1_555 1_555
N4 S2 1_555 1_555
H25 N4 1_555 1_555
C26 C30 1_555 1_555
C27 C28 1_555 1_555
C28 C30 1_555 1_555
C29 N3 1_555 1_555
H26 C29 1_555 1_555
H27 C29 1_555 1_555
C30 N4 1_555 1_555
C31 C26 1_555 1_555
H28 C31 1_555 1_555
C32 H29 1_555 1_555
C33 C32 1_555 1_555
H30 C33 1_555 1_555
C34 C28 1_555 1_555
H31 C34 1_555 1_555
C35 C27 1_555 1_555
H32 C35 1_555 1_555
C36 S2 1_555 1_555
C37 C29 1_555 1_555
C38 H33 1_555 1_555
C39 C26 1_555 1_555
H34 C39 1_555 1_555
C40 N3 1_555 1_555
C41 C38 1_555 1_555
H35 C41 1_555 1_555
C42 C37 1_555 1_555
C43 C31 1_555 1_555
H36 C43 1_555 1_555
C44 C37 1_555 1_555
C45 C36 1_555 1_555
H37 C45 1_555 1_555
H38 C45 1_555 1_555
H39 C45 1_555 1_555
C46 C36 1_555 1_555
H40 C46 1_555 1_555
H41 C46 1_555 1_555
H42 C46 1_555 1_555
C47 H43 1_555 1_555
C48 C42 1_555 1_555
H44 C48 1_555 1_555
C49 C44 1_555 1_555
H45 C49 1_555 1_555
C50 C36 1_555 1_555
H46 C50 1_555 1_555
H47 C50 1_555 1_555
H48 C50 1_555 1_555
Cl5 C51 1_555 1_555
Cl6 C51 1_555 1_555
C51 H49 1_555 1_555
H50 C51 1_555 1_555
C2 C3 1_555 1_555
C10 C15 1_555 1_555
C11 C12 1_555 1_555
C16 C22 1_555 1_555
C17 C18 1_555 1_555
C19 C21 1_555 1_555
C30 C40 1_555 1_555
C32 C35 1_555 1_555
C33 C34 1_555 1_555
C38 C43 1_555 1_555
C39 C41 1_555 1_555
C47 C48 1_555 1_555
C47 C49 1_555 1_555

#END
