
#######################################################################
#
#                 Cambridge Crystallographic Data Centre
#                                CCDC 
#
#######################################################################
#
# If this CIF has been generated from an entry in the Cambridge 
# Structural Database, then it will include bibliographic, chemical, 
# crystal, experimental, refinement or atomic coordinate data resulting 
# from the CCDC's data processing and validation procedures.
#
#######################################################################

data_KABMOR
_chemical_name_common            1-(1-Phenylethylidene)carbonohydrazide
_chemical_formula_moiety         'C9 H12 N4 O1'
_chemical_name_systematic        N''-(1-Phenylethylidene)carbonohydrazide
_symmetry_cell_setting           monoclinic
_symmetry_space_group_name_H-M   'P 21/c'
_symmetry_Int_Tables_number      14
_space_group_name_Hall           '-P 2ybc'
loop_
_symmetry_equiv_pos_site_id
_symmetry_equiv_pos_as_xyz
1 x,y,z
2 -x,1/2+y,1/2-z
3 -x,-y,-z
4 x,1/2-y,1/2+z
_cell_length_a                   9.7744(8)
_cell_length_b                   7.3163(7)
_cell_length_c                   28.2761(3)
_cell_angle_alpha                90
_cell_angle_beta                 90.7960(10)
_cell_angle_gamma                90
_cell_volume                     2021.9
_exptl_crystal_colour            colorless
_exptl_crystal_description       block
_cell_formula_units_Z            8
loop_
_atom_site_label
_atom_site_type_symbol
_atom_site_fract_x
_atom_site_fract_y
_atom_site_fract_z
O1 O 0.8472(3) 0.1813(5) 0.45497(9)
N1 N 0.6814(3) 0.3386(5) 0.55616(12)
N2 N 0.7850(3) 0.3042(5) 0.52501(12)
H1 H 0.8681 0.3330 0.5320
N3 N 0.6226(3) 0.1926(5) 0.47282(11)
H2 H 0.5607 0.2305 0.4918
N4 N 0.5831(3) 0.0984(6) 0.43144(11)
H3 H 0.6347 0.1350 0.4075
H4 H 0.5948 -0.0210 0.4360
C10 C 0.7539(4) 0.2242(6) 0.48324(16)
C11 C 0.7111(4) 0.4054(6) 0.59662(15)
C12 C 0.5943(5) 0.4406(6) 0.62839(16)
C13 C 0.4626(5) 0.4533(7) 0.60913(17)
H17 H 0.4496 0.4393 0.5767
C14 C 0.3502(6) 0.4868(8) 0.6376(2)
H18 H 0.2631 0.4944 0.6241
C15 C 0.3676(7) 0.5084(9) 0.6855(2)
H19 H 0.2926 0.5326 0.7045
C16 C 0.4968(8) 0.4940(8) 0.7055(2)
H20 H 0.5093 0.5049 0.7381
C17 C 0.6091(6) 0.4628(6) 0.67616(17)
H21 H 0.6963 0.4571 0.6897
C18 C 0.8554(4) 0.4505(6) 0.61330(15)
H22 H 0.9043 0.3393 0.6198
H23 H 0.8517 0.5230 0.6416
H24 H 0.9015 0.5178 0.5891
O2 O 0.3489(2) 0.2384(4) 0.50884(9)
N5 N 0.1757(3) 0.0963(5) 0.40633(11)
N6 N 0.2815(3) 0.1455(5) 0.43539(11)
H5 H 0.3642 0.1413 0.4254
N7 N 0.1225(3) 0.2228(5) 0.49114(11)
H6 H 0.0802 0.1160 0.4849
N8 N 0.0871(3) 0.2698(6) 0.53820(12)
H7 H 0.1197 0.1869 0.5584
H8 H 0.1239 0.3782 0.5448
C1 C 0.2557(4) 0.2014(6) 0.48027(15)
C2 C 0.2023(4) 0.0482(5) 0.36361(14)
C3 C 0.0833(4) -0.0052(6) 0.33345(14)
C4 C 0.0951(5) -0.0984(6) 0.29212(15)
H9 H 0.1824 -0.1264 0.2817
C5 C -0.0154(6) -0.1537(7) 0.26486(17)
H10 H -0.0020 -0.2153 0.2365
C6 C -0.1446(6) -0.1168(8) 0.27995(18)
H11 H -0.2203 -0.1574 0.2626
C7 C -0.1616(5) -0.0192(8) 0.32097(18)
H12 H -0.2494 0.0110 0.3306
C8 C -0.0505(5) 0.0345(7) 0.34802(15)
H13 H -0.0639 0.0976 0.3761
C9 C 0.3434(4) 0.0465(6) 0.34318(14)
H14 H 0.3935 0.1513 0.3543
H15 H 0.3368 0.0498 0.3093
H16 H 0.3903 -0.0629 0.3529
loop_
_geom_bond_atom_site_label_1
_geom_bond_atom_site_label_2
_geom_bond_site_symmetry_1
_geom_bond_site_symmetry_2
O1 C10 1_555 1_555
O2 C1 1_555 1_555
N1 N2 1_555 1_555
N2 H1 1_555 1_555
N3 H2 1_555 1_555
N4 N3 1_555 1_555
H3 N4 1_555 1_555
H4 N4 1_555 1_555
N5 N6 1_555 1_555
N6 H5 1_555 1_555
N7 H6 1_555 1_555
N8 N7 1_555 1_555
H7 N8 1_555 1_555
H8 N8 1_555 1_555
C1 N6 1_555 1_555
C2 N5 1_555 1_555
C3 C2 1_555 1_555
C4 C3 1_555 1_555
H9 C4 1_555 1_555
C5 C4 1_555 1_555
H10 C5 1_555 1_555
C6 C5 1_555 1_555
H11 C6 1_555 1_555
C7 C6 1_555 1_555
H12 C7 1_555 1_555
C8 C3 1_555 1_555
H13 C8 1_555 1_555
C9 C2 1_555 1_555
H14 C9 1_555 1_555
H15 C9 1_555 1_555
H16 C9 1_555 1_555
C10 N2 1_555 1_555
C11 N1 1_555 1_555
C12 C11 1_555 1_555
C13 C12 1_555 1_555
H17 C13 1_555 1_555
C14 C13 1_555 1_555
H18 C14 1_555 1_555
C15 C14 1_555 1_555
H19 C15 1_555 1_555
C16 C15 1_555 1_555
H20 C16 1_555 1_555
C17 C12 1_555 1_555
H21 C17 1_555 1_555
C18 C11 1_555 1_555
H22 C18 1_555 1_555
H23 C18 1_555 1_555
H24 C18 1_555 1_555
N3 C10 1_555 1_555
N7 C1 1_555 1_555
C7 C8 1_555 1_555
C16 C17 1_555 1_555

#END
