
#######################################################################
#
#                 Cambridge Crystallographic Data Centre
#                                CCDC 
#
#######################################################################
#
# If this CIF has been generated from an entry in the Cambridge 
# Structural Database, then it will include bibliographic, chemical, 
# crystal, experimental, refinement or atomic coordinate data resulting 
# from the CCDC's data processing and validation procedures.
#
#######################################################################

data_KABNIM
_chemical_name_common            
'4-Benzyl-4-methylmorpholinium hexafluorophosphate'
_chemical_formula_moiety         'C12 H18 N1 O1 1+,F6 P1 1-'
_chemical_name_systematic        
'4-Benzyl-4-methylmorpholin-4-ium hexafluorophosphate'
_symmetry_cell_setting           triclinic
_symmetry_space_group_name_H-M   'P -1'
_symmetry_Int_Tables_number      2
_space_group_name_Hall           '-P 1'
loop_
_symmetry_equiv_pos_site_id
_symmetry_equiv_pos_as_xyz
1 x,y,z
2 -x,-y,-z
_cell_length_a                   9.7268(14)
_cell_length_b                   10.7183(16)
_cell_length_c                   14.537(2)
_cell_angle_alpha                104.307(5)
_cell_angle_beta                 96.816(8)
_cell_angle_gamma                95.633(7)
_cell_volume                     1445.31
_exptl_crystal_colour            colorless
_exptl_crystal_description       block
_cell_formula_units_Z            4
_exptl_crystal_recrystallization_method ethanol
loop_
_atom_site_label
_atom_site_type_symbol
_atom_site_fract_x
_atom_site_fract_y
_atom_site_fract_z
P1 P 0.30855(6) 0.37650(5) 0.09741(4)
F1 F 0.42358(14) 0.39964(13) 0.03267(9)
F2 F 0.40636(15) 0.46701(15) 0.19023(9)
F3 F 0.23988(14) 0.49934(12) 0.07859(9)
F4 F 0.20934(16) 0.28651(14) 0.00513(10)
F5 F 0.37474(17) 0.25367(14) 0.11626(10)
F6 F 0.19177(15) 0.35492(14) 0.16311(10)
P2 P 0.78163(6) 0.24754(6) 0.46477(4)
F7 F 0.8866(8) 0.1865(7) 0.5320(5)
F8 F 0.8069(6) 0.1427(5) 0.3741(3)
F9 F 0.6552(6) 0.1530(5) 0.4805(4)
F10 F 0.7621(6) 0.3542(5) 0.5615(4)
F11 F 0.9139(4) 0.3438(5) 0.4548(4)
F12 F 0.6806(7) 0.3126(7) 0.4031(6)
O1 O 1.00560(16) 0.81093(14) 0.22635(11)
N1 N 0.85004(17) 0.55784(16) 0.20963(12)
C1 C 0.9767(2) 0.5774(2) 0.16140(15)
H1 H 0.9459 0.5845 0.0957
H2 H 1.0272 0.5007 0.1559
C2 C 1.0748(2) 0.6979(2) 0.21631(17)
H3 H 1.1104 0.6888 0.2807
H4 H 1.1556 0.7076 0.1820
C3 C 0.8918(2) 0.8002(2) 0.27847(16)
H5 H 0.8457 0.8797 0.2861
H6 H 0.9276 0.7928 0.3433
C4 C 0.7860(2) 0.6831(2) 0.22778(16)
H7 H 0.7435 0.6950 0.1657
H8 H 0.7107 0.6769 0.2673
C5 C 0.7400(2) 0.4531(2) 0.14237(15)
H9 H 0.6536 0.4513 0.1721
H10 H 0.7180 0.4783 0.0817
C6 C 0.7801(2) 0.3181(2) 0.11851(15)
C7 C 0.7297(2) 0.2279(2) 0.16439(17)
H11 H 0.6761 0.2540 0.2147
C8 C 0.7564(3) 0.1000(2) 0.13772(19)
H12 H 0.7215 0.0391 0.1697
C9 C 0.8342(3) 0.0617(2) 0.0645(2)
H13 H 0.8526 -0.0257 0.0457
C10 C 0.8852(3) 0.1513(3) 0.01851(19)
H14 H 0.9394 0.1252 -0.0314
C11 C 0.8581(2) 0.2777(2) 0.04457(16)
H15 H 0.8927 0.3380 0.0120
C12 C 0.8884(2) 0.5197(2) 0.30086(14)
H16 H 0.9362 0.4423 0.2874
H17 H 0.8035 0.5008 0.3279
H18 H 0.9505 0.5912 0.3470
O2 O 0.27675(18) 0.27512(15) 0.54849(10)
N2 N 0.23494(18) 0.16209(16) 0.34181(12)
C13 C 0.2326(2) 0.3049(2) 0.38787(16)
H19 H 0.1351 0.3204 0.3943
H20 H 0.2675 0.3568 0.3457
C14 C 0.3215(3) 0.3497(2) 0.48603(16)
H21 H 0.4204 0.3410 0.4792
H22 H 0.3151 0.4426 0.5144
C15 C 0.2877(3) 0.1415(2) 0.50940(15)
H23 H 0.2595 0.0912 0.5543
H24 H 0.3861 0.1314 0.5018
C16 C 0.1962(2) 0.0883(2) 0.41301(15)
H25 H 0.2060 -0.0045 0.3877
H26 H 0.0972 0.0943 0.4212
C17 C 0.3792(2) 0.1439(2) 0.31398(15)
H27 H 0.4005 0.2021 0.2728
H28 H 0.4486 0.1724 0.3731
C18 C 0.3991(2) 0.0077(2) 0.26190(15)
C19 C 0.4247(2) -0.0859(2) 0.31083(15)
H29 H 0.4245 -0.0661 0.3782
C20 C 0.4506(2) -0.2080(2) 0.26217(16)
H30 H 0.4643 -0.2723 0.2959
C21 C 0.4564(2) -0.2362(2) 0.16470(16)
H31 H 0.4756 -0.3193 0.1316
C22 C 0.4341(2) -0.1434(2) 0.11574(16)
H32 H 0.4394 -0.1622 0.0490
C23 C 0.4040(2) -0.0223(2) 0.16372(15)
H33 H 0.3866 0.0405 0.1292
C24 C 0.1262(2) 0.1182(2) 0.25385(15)
H34 H 0.1221 0.0244 0.2269
H35 H 0.1508 0.1637 0.2061
H36 H 0.0350 0.1380 0.2712
F13? F 0.8134(9) 0.3697(7) 0.5478(6)
F14? F 0.9009(7) 0.2907(8) 0.4109(5)
F15? F 0.6762(11) 0.3186(11) 0.4054(8)
F16? F 0.8809(11) 0.1709(11) 0.5169(8)
F17? F 0.7411(7) 0.1201(7) 0.3742(5)
F18? F 0.6530(9) 0.1932(7) 0.5062(6)
loop_
_geom_bond_atom_site_label_1
_geom_bond_atom_site_label_2
_geom_bond_site_symmetry_1
_geom_bond_site_symmetry_2
P1 F1 1_555 1_555
P2 F7 1_555 1_555
F2 P1 1_555 1_555
F3 P1 1_555 1_555
F4 P1 1_555 1_555
F5 P1 1_555 1_555
F6 P1 1_555 1_555
F8 P2 1_555 1_555
F9 P2 1_555 1_555
F10 P2 1_555 1_555
F11 P2 1_555 1_555
F12 P2 1_555 1_555
O1 C2 1_555 1_555
O2 C14 1_555 1_555
N1 C1 1_555 1_555
N2 C13 1_555 1_555
C1 H1 1_555 1_555
H2 C1 1_555 1_555
C2 C1 1_555 1_555
H3 C2 1_555 1_555
H4 C2 1_555 1_555
C3 O1 1_555 1_555
H5 C3 1_555 1_555
H6 C3 1_555 1_555
C4 N1 1_555 1_555
H7 C4 1_555 1_555
H8 C4 1_555 1_555
C5 N1 1_555 1_555
H9 C5 1_555 1_555
H10 C5 1_555 1_555
C6 C5 1_555 1_555
C7 C6 1_555 1_555
H11 C7 1_555 1_555
C8 C7 1_555 1_555
H12 C8 1_555 1_555
C9 C8 1_555 1_555
H13 C9 1_555 1_555
C10 C9 1_555 1_555
H14 C10 1_555 1_555
C11 C6 1_555 1_555
H15 C11 1_555 1_555
C12 N1 1_555 1_555
H16 C12 1_555 1_555
H17 C12 1_555 1_555
H18 C12 1_555 1_555
C13 H19 1_555 1_555
H20 C13 1_555 1_555
C14 C13 1_555 1_555
H21 C14 1_555 1_555
H22 C14 1_555 1_555
C15 O2 1_555 1_555
H23 C15 1_555 1_555
H24 C15 1_555 1_555
C16 N2 1_555 1_555
H25 C16 1_555 1_555
H26 C16 1_555 1_555
C17 N2 1_555 1_555
H27 C17 1_555 1_555
H28 C17 1_555 1_555
C18 C17 1_555 1_555
C19 C18 1_555 1_555
H29 C19 1_555 1_555
C20 C19 1_555 1_555
H30 C20 1_555 1_555
C21 C20 1_555 1_555
H31 C21 1_555 1_555
C22 C21 1_555 1_555
H32 C22 1_555 1_555
C23 C18 1_555 1_555
H33 C23 1_555 1_555
C24 N2 1_555 1_555
H34 C24 1_555 1_555
H35 C24 1_555 1_555
H36 C24 1_555 1_555
C3 C4 1_555 1_555
C10 C11 1_555 1_555
C15 C16 1_555 1_555
C22 C23 1_555 1_555

#END
