
#######################################################################
#
#                 Cambridge Crystallographic Data Centre
#                                CCDC 
#
#######################################################################
#
# If this CIF has been generated from an entry in the Cambridge 
# Structural Database, then it will include bibliographic, chemical, 
# crystal, experimental, refinement or atomic coordinate data resulting 
# from the CCDC's data processing and validation procedures.
#
#######################################################################

data_KABNUY
_chemical_name_common            
N-(2-[4-(2-Methoxyphenyl)piperazin-1-yl]ethyl)-4-nitro-N-(2-pyridyl)benzamide
_chemical_formula_moiety         'C25 H27 N5 O4'
_chemical_name_systematic        
N-(2-(4-(2-Methoxyphenyl)piperazin-1-yl)ethyl)-4-nitro-N-(pyridin-2-yl)benzamide
_symmetry_cell_setting           monoclinic
_symmetry_space_group_name_H-M   'P 21/n'
_symmetry_Int_Tables_number      14
_space_group_name_Hall           '-P 2yn'
loop_
_symmetry_equiv_pos_site_id
_symmetry_equiv_pos_as_xyz
1 x,y,z
2 1/2-x,1/2+y,1/2-z
3 -x,-y,-z
4 1/2+x,1/2-y,1/2+z
_cell_length_a                   11.480(2)
_cell_length_b                   15.512(3)
_cell_length_c                   13.235(2)
_cell_angle_alpha                90
_cell_angle_beta                 108.505(3)
_cell_angle_gamma                90
_cell_volume                     2235
_exptl_crystal_colour            yellow
_exptl_crystal_description       block
_cell_formula_units_Z            4
loop_
_atom_site_label
_atom_site_type_symbol
_atom_site_fract_x
_atom_site_fract_y
_atom_site_fract_z
O1 O 0.63130(9) 0.66210(6) 0.68937(8)
O2 O 0.27919(9) 0.13878(6) 0.52481(7)
O3 O 0.25952(9) -0.31358(6) 0.59155(8)
O4 O 0.35176(10) -0.30235(6) 0.47275(9)
N1 N 0.53263(10) 0.53783(7) 0.77943(8)
N2 N 0.44755(10) 0.36714(6) 0.70911(8)
N3 N 0.39572(10) 0.12774(6) 0.69878(8)
N4 N 0.57867(10) 0.05037(7) 0.73066(9)
N5 N 0.30875(10) -0.27110(7) 0.53821(9)
C1 C 0.57913(11) 0.68987(8) 0.76307(10)
C2 C 0.57713(12) 0.77550(8) 0.79298(11)
H1 H 0.6113 0.8187 0.7600
C3 C 0.52534(13) 0.79824(9) 0.87100(11)
H2 H 0.5244 0.8569 0.8913
C4 C 0.47553(13) 0.73621(9) 0.91885(11)
H3 H 0.4405 0.7518 0.9724
C5 C 0.47655(12) 0.64994(9) 0.88842(10)
H4 H 0.4417 0.6073 0.9217
C6 C 0.52736(11) 0.62517(8) 0.81082(10)
C7 C 0.51121(12) 0.47400(8) 0.85260(10)
H5 H 0.4262 0.4796 0.8549
H6 H 0.5683 0.4844 0.9253
C8 C 0.53066(13) 0.38377(8) 0.81686(10)
H7 H 0.6168 0.3773 0.8179
H8 H 0.5155 0.3411 0.8669
C9 C 0.47539(12) 0.42937(8) 0.63708(10)
H9 H 0.4223 0.4183 0.5631
H10 H 0.5620 0.4229 0.6396
C10 C 0.45397(12) 0.52014(8) 0.66945(10)
H11 H 0.4726 0.5620 0.6202
H12 H 0.3666 0.5271 0.6645
C11 C 0.45819(12) 0.27806(8) 0.67654(10)
H13 H 0.5445 0.2587 0.7063
H14 H 0.4342 0.2748 0.5979
C12 C 0.37576(12) 0.21947(8) 0.71606(10)
H15 H 0.3916 0.2297 0.7931
H16 H 0.2888 0.2342 0.6785
C13 C 0.49869(11) 0.08612(8) 0.77229(10)
C14 C 0.51295(12) 0.08617(8) 0.88043(10)
H17 H 0.4544 0.1134 0.9069
C15 C 0.61517(13) 0.04521(9) 0.94863(11)
H18 H 0.6285 0.0446 1.0232
C16 C 0.69744(13) 0.00529(9) 0.90684(11)
H19 H 0.7670 -0.0245 0.9517
C17 C 0.67581(12) 0.00988(9) 0.79809(11)
H20 H 0.7328 -0.0171 0.7695
C18 C 0.33804(11) 0.09378(8) 0.59942(10)
C19 C 0.33808(11) -0.00235(8) 0.58734(10)
C20 C 0.31415(12) -0.05593(8) 0.66290(10)
H21 H 0.3063 -0.0319 0.7265
C21 C 0.30169(12) -0.14415(8) 0.64579(10)
H22 H 0.2827 -0.1809 0.6958
C22 C 0.31762(11) -0.17711(8) 0.55421(10)
C23 C 0.34266(12) -0.12582(8) 0.47817(10)
H23 H 0.3541 -0.1504 0.4163
C24 C 0.35056(12) -0.03751(8) 0.49471(10)
H24 H 0.3646 -0.0007 0.4424
C25 C 0.68011(14) 0.72601(9) 0.63702(12)
H25 H 0.6140 0.7646 0.5969
H26 H 0.7169 0.6981 0.5880
H27 H 0.7430 0.7593 0.6901
loop_
_geom_bond_atom_site_label_1
_geom_bond_atom_site_label_2
_geom_bond_site_symmetry_1
_geom_bond_site_symmetry_2
O1 C1 1_555 1_555
O2 C18 1_555 1_555
O3 N5 1_555 1_555
O4 N5 1_555 1_555
N1 C6 1_555 1_555
N2 C8 1_555 1_555
N3 C12 1_555 1_555
N4 C13 1_555 1_555
N5 C22 1_555 1_555
C1 C2 1_555 1_555
C2 H1 1_555 1_555
C3 C2 1_555 1_555
H2 C3 1_555 1_555
C4 C3 1_555 1_555
H3 C4 1_555 1_555
C5 C4 1_555 1_555
H4 C5 1_555 1_555
C6 C1 1_555 1_555
C7 N1 1_555 1_555
H5 C7 1_555 1_555
H6 C7 1_555 1_555
C8 C7 1_555 1_555
H7 C8 1_555 1_555
H8 C8 1_555 1_555
C9 N2 1_555 1_555
H9 C9 1_555 1_555
H10 C9 1_555 1_555
C10 N1 1_555 1_555
H11 C10 1_555 1_555
H12 C10 1_555 1_555
C11 N2 1_555 1_555
H13 C11 1_555 1_555
H14 C11 1_555 1_555
C12 C11 1_555 1_555
H15 C12 1_555 1_555
H16 C12 1_555 1_555
C13 N3 1_555 1_555
C14 C13 1_555 1_555
H17 C14 1_555 1_555
C15 C14 1_555 1_555
H18 C15 1_555 1_555
C16 C15 1_555 1_555
H19 C16 1_555 1_555
C17 N4 1_555 1_555
H20 C17 1_555 1_555
C18 N3 1_555 1_555
C19 C18 1_555 1_555
C20 C19 1_555 1_555
H21 C20 1_555 1_555
C21 C20 1_555 1_555
H22 C21 1_555 1_555
C22 C21 1_555 1_555
C23 C22 1_555 1_555
H23 C23 1_555 1_555
C24 C19 1_555 1_555
H24 C24 1_555 1_555
C25 O1 1_555 1_555
H25 C25 1_555 1_555
H26 C25 1_555 1_555
H27 C25 1_555 1_555
C5 C6 1_555 1_555
C9 C10 1_555 1_555
C16 C17 1_555 1_555
C23 C24 1_555 1_555

#END
