
#######################################################################
#
#                 Cambridge Crystallographic Data Centre
#                                CCDC 
#
#######################################################################
#
# If this CIF has been generated from an entry in the Cambridge 
# Structural Database, then it will include bibliographic, chemical, 
# crystal, experimental, refinement or atomic coordinate data resulting 
# from the CCDC's data processing and validation procedures.
#
#######################################################################

data_KABQAI
_chemical_formula_moiety         'C32 H42 B2 Li1 N1 O2 P2'
_chemical_name_systematic        
(bis(Diphenyl(trihydridoboranidyl)phosphonio)amino)-bis(tetrahydrofuran)-lithium
_symmetry_cell_setting           orthorhombic
_symmetry_space_group_name_H-M   'P c a 21'
_symmetry_Int_Tables_number      29
_space_group_name_Hall           'P 2c -2ac'
loop_
_symmetry_equiv_pos_site_id
_symmetry_equiv_pos_as_xyz
1 x,y,z
2 -x,-y,1/2+z
3 1/2-x,y,1/2+z
4 1/2+x,-y,z
_cell_length_a                   17.8254(10)
_cell_length_b                   10.6111(7)
_cell_length_c                   17.0236(12)
_cell_angle_alpha                90
_cell_angle_beta                 90
_cell_angle_gamma                90
_cell_volume                     3219.96
_exptl_crystal_colour            yellow
_exptl_crystal_description       block
_cell_formula_units_Z            4
loop_
_atom_site_label
_atom_site_type_symbol
_atom_site_fract_x
_atom_site_fract_y
_atom_site_fract_z
Li1 Li 0.8607(11) 0.678(2) 0.4762(13)
P1 P 0.95196(12) 0.6212(2) 0.31973(16)
P2 P 0.89393(12) 0.8780(2) 0.36927(15)
O1 O 0.7862(4) 0.5469(7) 0.4839(5)
O2 O 0.9187(5) 0.6508(9) 0.5692(5)
N1 N 0.9131(4) 0.7284(7) 0.3718(5)
B1 B 1.0310(7) 0.5369(11) 0.3755(9)
H1 H 1.0126 0.5090 0.4256
H2 H 1.0721 0.5940 0.3832
H3 H 1.0477 0.4655 0.3456
B2 B 0.8257(7) 0.9113(16) 0.4540(10)
C1 C 0.8782(6) 0.5102(10) 0.2927(7)
C2 C 0.8016(5) 0.5482(9) 0.2947(7)
H4 H 0.7884 0.6305 0.3074
C3 C 0.7471(6) 0.4590(12) 0.2771(6)
H5 H 0.6968 0.4821 0.2788
C4 C 0.7657(6) 0.3381(11) 0.2571(7)
H6 H 0.7280 0.2802 0.2457
C5 C 0.8398(6) 0.3013(10) 0.2539(7)
H7 H 0.8523 0.2195 0.2393
C6 C 0.8954(5) 0.3867(9) 0.2723(7)
H8 H 0.9453 0.3612 0.2710
C7 C 0.9860(5) 0.6787(9) 0.2260(7)
C8 C 0.9478(6) 0.6670(11) 0.1562(7)
H9 H 0.9013 0.6271 0.1568
C9 C 0.9740(6) 0.7099(11) 0.0876(7)
H10 H 0.9460 0.6988 0.0421
C10 C 1.0436(7) 0.7717(13) 0.0841(8)
H11 H 1.0623 0.8036 0.0371
C11 C 1.0822(6) 0.7826(10) 0.1520(7)
H12 H 1.1289 0.8218 0.1506
C12 C 1.0567(6) 0.7396(11) 0.2219(7)
H13 H 1.0855 0.7500 0.2671
C13 C 0.9796(5) 0.9703(9) 0.3794(6)
C14 C 1.0472(5) 0.9130(10) 0.3994(7)
H14 H 1.0500 0.8258 0.4039
C15 C 1.1102(6) 0.9862(12) 0.4127(8)
H15 H 1.1555 0.9481 0.4257
C16 C 1.1060(6) 1.1135(13) 0.4066(7)
H16 H 1.1491 1.1612 0.4150
C17 C 1.0398(6) 1.1745(11) 0.3885(7)
H17 H 1.0380 1.2619 0.3848
C18 C 0.9745(6) 1.1003(9) 0.3757(6)
H18 H 0.9288 1.1388 0.3649
C19 C 0.8584(5) 0.9307(9) 0.2740(6)
C20 C 0.7791(6) 0.9392(11) 0.2642(9)
H19 H 0.7467 0.9227 0.3057
C21 C 0.7521(8) 0.9722(13) 0.1919(10)
H20 H 0.7004 0.9795 0.1856
C22 C 0.7962(9) 0.9948(12) 0.1294(9)
H21 H 0.7752 1.0133 0.0807
C23 C 0.8750(8) 0.9899(10) 0.1387(7)
H22 H 0.9071 1.0075 0.0971
C24 C 0.9021(6) 0.9588(10) 0.2103(7)
H23 H 0.9539 0.9563 0.2167
C25 C 0.7062(6) 0.5623(12) 0.4974(9)
H24 H 0.6795 0.5683 0.4479
H25 H 0.6966 0.6380 0.5276
C26 C 0.6821(7) 0.4510(14) 0.5409(9)
H26 H 0.6289 0.4352 0.5338
H27 H 0.6928 0.4593 0.5965
C27 C 0.7280(9) 0.3501(14) 0.5047(11)
H28 H 0.7045 0.3183 0.4573
H29 H 0.7355 0.2808 0.5410
C28 C 0.8015(7) 0.4149(12) 0.4861(9)
H30 H 0.8385 0.3963 0.5262
H31 H 0.8207 0.3865 0.4358
C29 C 0.8888(11) 0.6149(17) 0.6412(9)
H32 H 0.9177 0.5453 0.6624
H33 H 0.8376 0.5863 0.6339
C30 C 0.8898(7) 0.7161(14) 0.6950(9)
H34 H 0.9018 0.6872 0.7475
H35 H 0.8418 0.7591 0.6960
C31 C 0.9513(7) 0.8017(13) 0.6627(9)
H36 H 0.9310 0.8831 0.6478
H37 H 0.9905 0.8143 0.7014
C32 C 0.9807(7) 0.7330(16) 0.5926(10)
H38 H 0.9934 0.7913 0.5508
H39 H 1.0249 0.6841 0.6061
H40 H 0.810(8) 0.972(12) 0.436(8)
H41 H 0.880(6) 0.902(10) 0.520(6)
H42 H 0.897(4) 0.861(6) 0.434(4)
loop_
_geom_bond_atom_site_label_1
_geom_bond_atom_site_label_2
_geom_bond_site_symmetry_1
_geom_bond_site_symmetry_2
Li1 O1 1_555 1_555
P1 N1 1_555 1_555
P2 N1 1_555 1_555
O1 C25 1_555 1_555
O2 Li1 1_555 1_555
N1 Li1 1_555 1_555
B1 P1 1_555 1_555
H1 B1 1_555 1_555
H2 B1 1_555 1_555
H3 B1 1_555 1_555
B2 P2 1_555 1_555
C1 P1 1_555 1_555
C2 C1 1_555 1_555
H4 C2 1_555 1_555
C3 C2 1_555 1_555
H5 C3 1_555 1_555
C4 C3 1_555 1_555
H6 C4 1_555 1_555
C5 C4 1_555 1_555
H7 C5 1_555 1_555
C6 C1 1_555 1_555
H8 C6 1_555 1_555
C7 P1 1_555 1_555
C8 C7 1_555 1_555
H9 C8 1_555 1_555
C9 C8 1_555 1_555
H10 C9 1_555 1_555
C10 C9 1_555 1_555
H11 C10 1_555 1_555
C11 C10 1_555 1_555
H12 C11 1_555 1_555
C12 C7 1_555 1_555
H13 C12 1_555 1_555
C13 P2 1_555 1_555
C14 C13 1_555 1_555
H14 C14 1_555 1_555
C15 C14 1_555 1_555
H15 C15 1_555 1_555
C16 C15 1_555 1_555
H16 C16 1_555 1_555
C17 C16 1_555 1_555
H17 C17 1_555 1_555
C18 C13 1_555 1_555
H18 C18 1_555 1_555
C19 P2 1_555 1_555
C20 C19 1_555 1_555
H19 C20 1_555 1_555
C21 C20 1_555 1_555
H20 C21 1_555 1_555
C22 C21 1_555 1_555
H21 C22 1_555 1_555
C23 C22 1_555 1_555
H22 C23 1_555 1_555
C24 C19 1_555 1_555
H23 C24 1_555 1_555
C25 H24 1_555 1_555
H25 C25 1_555 1_555
C26 C25 1_555 1_555
H26 C26 1_555 1_555
H27 C26 1_555 1_555
C27 C26 1_555 1_555
H28 C27 1_555 1_555
H29 C27 1_555 1_555
C28 O1 1_555 1_555
H30 C28 1_555 1_555
H31 C28 1_555 1_555
C29 O2 1_555 1_555
H32 C29 1_555 1_555
H33 C29 1_555 1_555
C30 C29 1_555 1_555
H34 C30 1_555 1_555
H35 C30 1_555 1_555
C31 C30 1_555 1_555
H36 C31 1_555 1_555
H37 C31 1_555 1_555
C32 O2 1_555 1_555
H38 C32 1_555 1_555
H39 C32 1_555 1_555
H40 B2 1_555 1_555
H41 B2 1_555 1_555
H42 Li1 1_555 1_555
B2 H42 1_555 1_555
C5 C6 1_555 1_555
C11 C12 1_555 1_555
C17 C18 1_555 1_555
C23 C24 1_555 1_555
C27 C28 1_555 1_555
C31 C32 1_555 1_555

#END
