
#######################################################################
#
#                 Cambridge Crystallographic Data Centre
#                                CCDC 
#
#######################################################################
#
# If this CIF has been generated from an entry in the Cambridge 
# Structural Database, then it will include bibliographic, chemical, 
# crystal, experimental, refinement or atomic coordinate data resulting 
# from the CCDC's data processing and validation procedures.
#
#######################################################################

data_KABQUB01
_chemical_formula_moiety         'C15 H18 Cl1 N1 O4 S1'
_chemical_name_systematic        
'(2R,4R)-3-(t-Butoxycarbonyl)-2-(4-chlorophenyl)-1,3-thiazolidine-4-carboxylic acid'
_symmetry_cell_setting           monoclinic
_symmetry_space_group_name_H-M   'P 21'
_symmetry_Int_Tables_number      4
_space_group_name_Hall           'P 2yb'
loop_
_symmetry_equiv_pos_site_id
_symmetry_equiv_pos_as_xyz
1 x,y,z
2 -x,1/2+y,-z
_cell_length_a                   6.4600(13)
_cell_length_b                   10.641(2)
_cell_length_c                   12.411(3)
_cell_angle_alpha                90
_cell_angle_beta                 94.52(3)
_cell_angle_gamma                90
_cell_volume                     850.489
_exptl_crystal_colour            colorless
_exptl_crystal_description       Block
_cell_formula_units_Z            2
loop_
_atom_site_label
_atom_site_type_symbol
_atom_site_fract_x
_atom_site_fract_y
_atom_site_fract_z
C1 C 0.3231(12) 0.3336(8) 0.7816(6)
H1 H 0.4185 0.2863 0.7465
C2 C 0.1505(12) 0.2766(8) 0.8162(7)
C3 C 0.0020(13) 0.3440(8) 0.8654(6)
H2 H -0.1164 0.3055 0.8879
C4 C 0.0369(11) 0.4720(7) 0.8800(6)
H3 H -0.0603 0.5195 0.9136
C5 C 0.2109(9) 0.5308(6) 0.8464(5)
C6 C 0.3575(11) 0.4607(7) 0.7980(6)
H4 H 0.4776 0.4983 0.7767
C7 C 0.2361(9) 0.6676(6) 0.8692(4)
H5 H 0.1036 0.7023 0.8887
C8 C 0.4826(11) 0.8470(7) 0.9375(5)
H6 H 0.3758 0.9042 0.9583
H7 H 0.6169 0.8773 0.9671
C9 C 0.4769(9) 0.8350(7) 0.8161(5)
H8 H 0.4364 0.9165 0.7843
O1 O 0.8408(8) 0.8639(5) 0.8108(4)
C10 C 0.6910(9) 0.8031(8) 0.7835(5)
C11 C 0.2163(9) 0.7473(7) 0.6838(5)
C12 C 0.2096(11) 0.8500(8) 0.5098(5)
C13 C 0.2564(14) 0.7386(9) 0.4443(8)
H9 H 0.3998 0.7161 0.4587
H10 H 0.2294 0.7580 0.3689
H11 H 0.1703 0.6696 0.4628
C14 C -0.0195(13) 0.8804(9) 0.4998(8)
H12 H -0.0976 0.8057 0.5120
H13 H -0.0582 0.9121 0.4287
H14 H -0.0483 0.9428 0.5525
C15 C 0.3316(15) 0.9649(9) 0.4750(7)
H15 H 0.2946 1.0370 0.5158
H16 H 0.2989 0.9804 0.3994
H17 H 0.4778 0.9491 0.4881
Cl1 Cl 0.1155(5) 0.1156(2) 0.7961(2)
N1 N 0.3167(7) 0.7456(5) 0.7847(4)
O2 O 0.6980(6) 0.7002(6) 0.7256(4)
H18 H 0.8184 0.6859 0.7129
O3 O 0.0721(6) 0.6749(5) 0.6573(3)
O4 O 0.2916(7) 0.8324(5) 0.6216(3)
S1 S 0.4357(3) 0.68989(18) 0.98363(12)
loop_
_geom_bond_atom_site_label_1
_geom_bond_atom_site_label_2
_geom_bond_site_symmetry_1
_geom_bond_site_symmetry_2
C1 H1 1_555 1_555
C2 C1 1_555 1_555
C3 C2 1_555 1_555
H2 C3 1_555 1_555
C4 C3 1_555 1_555
H3 C4 1_555 1_555
C5 C4 1_555 1_555
C6 C1 1_555 1_555
H4 C6 1_555 1_555
C7 C5 1_555 1_555
H5 C7 1_555 1_555
C8 H6 1_555 1_555
H7 C8 1_555 1_555
C9 C8 1_555 1_555
H8 C9 1_555 1_555
O1 C10 1_555 1_555
C10 C9 1_555 1_555
C11 N1 1_555 1_555
C12 C13 1_555 1_555
C13 H9 1_555 1_555
H10 C13 1_555 1_555
H11 C13 1_555 1_555
C14 C12 1_555 1_555
H12 C14 1_555 1_555
H13 C14 1_555 1_555
H14 C14 1_555 1_555
C15 C12 1_555 1_555
H15 C15 1_555 1_555
H16 C15 1_555 1_555
H17 C15 1_555 1_555
Cl1 C2 1_555 1_555
N1 C7 1_555 1_555
O2 C10 1_555 1_555
H18 O2 1_555 1_555
O3 C11 1_555 1_555
O4 C11 1_555 1_555
S1 C7 1_555 1_555
C5 C6 1_555 1_555
C8 S1 1_555 1_555
C9 N1 1_555 1_555
C12 O4 1_555 1_555

#END
