
#######################################################################
#
#                 Cambridge Crystallographic Data Centre
#                                CCDC 
#
#######################################################################
#
# If this CIF has been generated from an entry in the Cambridge 
# Structural Database, then it will include bibliographic, chemical, 
# crystal, experimental, refinement or atomic coordinate data resulting 
# from the CCDC's data processing and validation procedures.
#
#######################################################################

data_KABQEL
_chemical_formula_moiety         'C9 H8 N2 O1 S1'
_chemical_name_systematic        
2-Amino-7-oxo-4,5,6,7-tetrahydro-1-benzothiophene-3-carbonitrile
_symmetry_cell_setting           monoclinic
_symmetry_space_group_name_H-M   'P 21/n'
_symmetry_Int_Tables_number      14
_space_group_name_Hall           '-P 2yn'
loop_
_symmetry_equiv_pos_site_id
_symmetry_equiv_pos_as_xyz
1 x,y,z
2 1/2-x,1/2+y,1/2-z
3 -x,-y,-z
4 1/2+x,1/2-y,1/2+z
_cell_length_a                   7.2986(3)
_cell_length_b                   8.7555(3)
_cell_length_c                   14.7307(6)
_cell_angle_alpha                90
_cell_angle_beta                 94.1510(10)
_cell_angle_gamma                90
_cell_volume                     938.865
_exptl_crystal_colour            yellow
_exptl_crystal_description       block
_cell_formula_units_Z            4
loop_
_atom_site_label
_atom_site_type_symbol
_atom_site_fract_x
_atom_site_fract_y
_atom_site_fract_z
C1 C -0.0414(3) 1.0457(2) 0.33340(13)
C2 C 0.1087(3) 0.7962(2) 0.37011(13)
C3 C -0.0580(3) 0.8166(2) 0.41027(13)
C4 C -0.3211(3) 1.0145(3) 0.42024(14)
H1 H -0.3036 1.0483 0.4830
H2 H -0.4087 0.9310 0.4176
C5 C -0.3979(3) 1.1460(3) 0.3610(2)
H3 H -0.4533 1.1044 0.3045
H4 H -0.4942 1.1960 0.3921
C6 C -0.2579(3) 1.2634(3) 0.33910(19)
H5 H -0.2179 1.3181 0.3943
H6 H -0.3147 1.3366 0.2964
C7 C -0.0921(3) 1.1943(2) 0.29875(14)
C8 C -0.1417(3) 0.9590(2) 0.38916(13)
C9 C -0.1327(3) 0.7027(3) 0.46592(16)
N1 N 0.2242(3) 0.6773(2) 0.37766(13)
H7 H 0.1994 0.6002 0.4108
H8 H 0.3233 0.6781 0.3494
N2 N -0.1907(3) 0.6114(3) 0.51076(18)
O1 O -0.0078(2) 1.2613(2) 0.24138(12)
S1 S 0.15957(6) 0.95344(6) 0.30522(3)
loop_
_geom_bond_atom_site_label_1
_geom_bond_atom_site_label_2
_geom_bond_site_symmetry_1
_geom_bond_site_symmetry_2
C1 C7 1_555 1_555
C2 C3 1_555 1_555
C3 C8 1_555 1_555
C4 H1 1_555 1_555
H2 C4 1_555 1_555
C5 C4 1_555 1_555
H3 C5 1_555 1_555
H4 C5 1_555 1_555
C6 C5 1_555 1_555
H5 C6 1_555 1_555
H6 C6 1_555 1_555
C7 C6 1_555 1_555
C8 C1 1_555 1_555
C9 C3 1_555 1_555
N1 C2 1_555 1_555
H7 N1 1_555 1_555
H8 N1 1_555 1_555
N2 C9 1_555 1_555
O1 C7 1_555 1_555
S1 C1 1_555 1_555
C2 S1 1_555 1_555
C4 C8 1_555 1_555

#END
