
#######################################################################
#
#                 Cambridge Crystallographic Data Centre
#                                CCDC 
#
#######################################################################
#
# If this CIF has been generated from an entry in the Cambridge 
# Structural Database, then it will include bibliographic, chemical, 
# crystal, experimental, refinement or atomic coordinate data resulting 
# from the CCDC's data processing and validation procedures.
#
#######################################################################

data_KABQAH
_chemical_name_common            
'Methyl 13-nitro-7-oxo-12-(propylamino)podocarpa-8,11,13-trien-15-oate'
_chemical_formula_moiety         'C21 H28 N2 O5'
_chemical_name_systematic        
'methyl 1,4a-dimethyl-7-nitro-9-oxo-6-propylamino-1,2,3,4,4a,9,10,10a-octahydrophenanthrene-1-carboxylate'
_symmetry_cell_setting           orthorhombic
_symmetry_space_group_name_H-M   'P 21 21 21'
_symmetry_Int_Tables_number      19
_space_group_name_Hall           'P 2ac 2ab'
loop_
_symmetry_equiv_pos_site_id
_symmetry_equiv_pos_as_xyz
1 x,y,z
2 1/2+x,1/2-y,-z
3 -x,1/2+y,1/2-z
4 1/2-x,-y,1/2+z
_cell_length_a                   8.2915(15)
_cell_length_b                   11.344(2)
_cell_length_c                   20.288(4)
_cell_angle_alpha                90
_cell_angle_beta                 90
_cell_angle_gamma                90
_cell_volume                     1908.26
_exptl_crystal_colour            yellow
_exptl_crystal_description       block
_chemical_melting_point          '455-456 K'
_cell_formula_units_Z            4
_exptl_crystal_recrystallization_method ethanol
loop_
_atom_site_label
_atom_site_type_symbol
_atom_site_fract_x
_atom_site_fract_y
_atom_site_fract_z
O1 O -0.0800(3) 0.5805(2) 0.50671(13)
O2 O 0.1082(3) 0.8201(2) 0.32927(14)
O3 O 0.3574(3) 0.8723(2) 0.31899(13)
O4 O 0.1294(4) 0.3814(3) 0.75394(15)
O5 O 0.2387(3) 0.5514(2) 0.72342(13)
N1 N 0.5809(3) 0.7320(3) 0.37018(15)
H1 H 0.552(4) 0.784(3) 0.3368(19)
N2 N 0.2510(3) 0.8110(3) 0.34543(14)
C1 C 0.4799(4) 0.5968(3) 0.45202(16)
H2 H 0.5847 0.5672 0.4583
C2 C 0.4562(4) 0.6880(3) 0.40463(16)
C3 C 0.2948(4) 0.7264(3) 0.39580(16)
C4 C 0.1710(4) 0.6826(3) 0.43411(16)
H3 H 0.0662 0.7126 0.4284
C5 C 0.1976(4) 0.5958(3) 0.48066(16)
C6 C 0.3556(4) 0.5500(3) 0.48907(15)
C7 C 0.0594(4) 0.5512(3) 0.51883(17)
C8 C 0.0933(4) 0.4657(3) 0.57383(17)
H4 H 0.0626 0.3863 0.5595
H5 H 0.0262 0.4863 0.6119
C9 C 0.2698(4) 0.4647(3) 0.59499(15)
H6 H 0.2930 0.5455 0.6106
C10 C 0.2965(4) 0.3826(3) 0.65599(17)
C11 C 0.4779(4) 0.3807(3) 0.67347(18)
H7 H 0.5099 0.4585 0.6899
H8 H 0.4962 0.3233 0.7088
C12 C 0.5822(5) 0.3488(4) 0.61471(19)
H9 H 0.5536 0.2697 0.5992
H10 H 0.6958 0.3477 0.6281
C13 C 0.5592(4) 0.4378(3) 0.55853(18)
H11 H 0.6285 0.4154 0.5214
H12 H 0.5933 0.5160 0.5737
C14 C 0.3833(4) 0.4444(3) 0.53470(16)
C15 C 0.7445(4) 0.6817(3) 0.36949(17)
H13 H 0.7771 0.6639 0.4148
H14 H 0.8197 0.7406 0.3520
C16 C 0.7571(4) 0.5698(3) 0.32818(18)
H15 H 0.7319 0.5881 0.2821
H16 H 0.6781 0.5120 0.3439
C17 C 0.9260(4) 0.5170(3) 0.33244(19)
H17 H 1.0049 0.5762 0.3202
H18 H 0.9340 0.4504 0.3026
H19 H 0.9465 0.4909 0.3772
C18 C 0.2105(4) 0.4364(3) 0.71584(18)
C19 C 0.1741(5) 0.6042(4) 0.7827(2)
H20 H 0.0574 0.5989 0.7821
H21 H 0.2061 0.6864 0.7848
H22 H 0.2156 0.5627 0.8210
C20 C 0.2305(5) 0.2577(3) 0.6477(2)
H23 H 0.2449 0.2143 0.6885
H24 H 0.2882 0.2182 0.6125
H25 H 0.1167 0.2613 0.6369
C21 C 0.3452(5) 0.3342(3) 0.49327(18)
H26 H 0.4110 0.3344 0.4538
H27 H 0.2321 0.3347 0.4811
H28 H 0.3684 0.2640 0.5189
loop_
_geom_bond_atom_site_label_1
_geom_bond_atom_site_label_2
_geom_bond_site_symmetry_1
_geom_bond_site_symmetry_2
O1 C7 1_555 1_555
O2 N2 1_555 1_555
O3 N2 1_555 1_555
O4 C18 1_555 1_555
O5 C18 1_555 1_555
N1 H1 1_555 1_555
N2 C3 1_555 1_555
C1 H2 1_555 1_555
C2 N1 1_555 1_555
C3 C2 1_555 1_555
C4 C3 1_555 1_555
H3 C4 1_555 1_555
C5 C4 1_555 1_555
C6 C1 1_555 1_555
C7 C5 1_555 1_555
C8 C7 1_555 1_555
H4 C8 1_555 1_555
H5 C8 1_555 1_555
C9 C8 1_555 1_555
H6 C9 1_555 1_555
C10 C9 1_555 1_555
C11 C10 1_555 1_555
H7 C11 1_555 1_555
H8 C11 1_555 1_555
C12 C11 1_555 1_555
H9 C12 1_555 1_555
H10 C12 1_555 1_555
C13 C12 1_555 1_555
H11 C13 1_555 1_555
H12 C13 1_555 1_555
C14 C6 1_555 1_555
C15 N1 1_555 1_555
H13 C15 1_555 1_555
H14 C15 1_555 1_555
C16 C15 1_555 1_555
H15 C16 1_555 1_555
H16 C16 1_555 1_555
C17 C16 1_555 1_555
H17 C17 1_555 1_555
H18 C17 1_555 1_555
H19 C17 1_555 1_555
C18 C10 1_555 1_555
C19 O5 1_555 1_555
H20 C19 1_555 1_555
H21 C19 1_555 1_555
H22 C19 1_555 1_555
C20 C10 1_555 1_555
H23 C20 1_555 1_555
H24 C20 1_555 1_555
H25 C20 1_555 1_555
C21 C14 1_555 1_555
H26 C21 1_555 1_555
H27 C21 1_555 1_555
H28 C21 1_555 1_555
C1 C2 1_555 1_555
C5 C6 1_555 1_555
C9 C14 1_555 1_555
C13 C14 1_555 1_555

#END
