
#######################################################################
#
#                 Cambridge Crystallographic Data Centre
#                                CCDC 
#
#######################################################################
#
# If this CIF has been generated from an entry in the Cambridge 
# Structural Database, then it will include bibliographic, chemical, 
# crystal, experimental, refinement or atomic coordinate data resulting 
# from the CCDC's data processing and validation procedures.
#
#######################################################################

data_KACJIK
_chemical_formula_moiety         'C23 H14 Cl2 N2 O1'
_chemical_name_systematic        
1,5-bis(4-Chlorophenyl)-1,5-dihydro-4H-pyrrolo[3,2-c]quinolin-4-one
_symmetry_cell_setting           monoclinic
_symmetry_space_group_name_H-M   'P 21/c'
_symmetry_Int_Tables_number      14
_space_group_name_Hall           '-P 2ybc'
loop_
_symmetry_equiv_pos_site_id
_symmetry_equiv_pos_as_xyz
1 x,y,z
2 -x,1/2+y,1/2-z
3 -x,-y,-z
4 x,1/2-y,1/2+z
_cell_length_a                   8.9936(3)
_cell_length_b                   20.9137(5)
_cell_length_c                   10.6975(4)
_cell_angle_alpha                90
_cell_angle_beta                 112.585(4)
_cell_angle_gamma                90
_cell_volume                     1857.78
_exptl_crystal_colour            colorless
_cell_formula_units_Z            4
loop_
_atom_site_label
_atom_site_type_symbol
_atom_site_fract_x
_atom_site_fract_y
_atom_site_fract_z
Cl1 Cl 0.24031(7) 0.26286(3) 0.96111(6)
Cl2 Cl 1.14724(8) 0.72117(3) 0.37707(6)
O1 O 1.15368(17) 0.50987(7) 0.78516(15)
C1 C 0.4108(3) 0.55285(10) 0.6507(2)
H1 H 0.3035 0.5543 0.6408
N1 N 0.8968(2) 0.54941(8) 0.69179(18)
C2 C 1.0134(2) 0.50798(10) 0.7758(2)
N2 N 0.7769(2) 0.40484(9) 0.89601(18)
C3 C 0.6746(3) 0.50293(10) 0.7431(2)
C4 C 0.9533(2) 0.46117(10) 0.8453(2)
C5 C 1.0674(3) 0.67230(10) 0.4686(2)
C6 C 1.0563(3) 0.64171(10) 0.6791(2)
H2 H 1.0863 0.6477 0.7717
C7 C 0.4719(3) 0.59824(11) 0.5877(2)
H3 H 0.4040 0.6300 0.5352
C8 C 0.7341(2) 0.54967(10) 0.6787(2)
C9 C 1.1171(3) 0.68153(10) 0.6068(2)
H4 H 1.1898 0.7138 0.6502
C10 C 0.6345(3) 0.37576(10) 0.9036(2)
C11 C 0.4730(3) 0.35342(10) 1.0327(2)
H5 H 0.4467 0.3609 1.1074
C12 C 0.3907(3) 0.30771(10) 0.9376(2)
C13 C 0.9033(3) 0.58414(11) 0.4758(2)
H6 H 0.8331 0.5511 0.4328
C14 C 1.0392(3) 0.41142(10) 0.9319(2)
H7 H 1.1492 0.4035 0.9627
C15 C 0.9263(3) 0.37712(10) 0.9613(2)
H8 H 0.9471 0.3411 1.0163
C16 C 0.9511(3) 0.59315(10) 0.6139(2)
C17 C 0.5120(3) 0.50568(10) 0.7282(2)
H9 H 0.4724 0.4754 0.7711
C18 C 0.9606(3) 0.62458(11) 0.4020(2)
H10 H 0.9274 0.6196 0.3088
C19 C 0.7920(3) 0.45690(10) 0.8240(2)
C20 C 0.5957(3) 0.38805(10) 1.0150(2)
H11 H 0.6513 0.4192 1.0775
C21 C 0.6304(3) 0.59717(11) 0.6014(2)
H12 H 0.6686 0.6282 0.5590
C22 C 0.5481(3) 0.33110(11) 0.8069(2)
H13 H 0.5725 0.3242 0.7310
C23 C 0.4250(3) 0.29672(11) 0.8238(2)
H14 H 0.3663 0.2667 0.7596
loop_
_geom_bond_atom_site_label_1
_geom_bond_atom_site_label_2
_geom_bond_site_symmetry_1
_geom_bond_site_symmetry_2
Cl1 C12 1_555 1_555
Cl2 C5 1_555 1_555
O1 C2 1_555 1_555
C1 H1 1_555 1_555
N1 C2 1_555 1_555
C2 C4 1_555 1_555
N2 C10 1_555 1_555
C3 C8 1_555 1_555
C4 C14 1_555 1_555
C5 C9 1_555 1_555
C6 H2 1_555 1_555
C7 C1 1_555 1_555
H3 C7 1_555 1_555
C8 N1 1_555 1_555
C9 C6 1_555 1_555
H4 C9 1_555 1_555
C10 C20 1_555 1_555
C11 H5 1_555 1_555
C12 C11 1_555 1_555
C13 H6 1_555 1_555
C14 H7 1_555 1_555
C15 N2 1_555 1_555
H8 C15 1_555 1_555
C16 N1 1_555 1_555
C17 C1 1_555 1_555
H9 C17 1_555 1_555
C18 C5 1_555 1_555
H10 C18 1_555 1_555
C19 N2 1_555 1_555
C20 C11 1_555 1_555
H11 C20 1_555 1_555
C21 C7 1_555 1_555
H12 C21 1_555 1_555
C22 C10 1_555 1_555
H13 C22 1_555 1_555
C23 C12 1_555 1_555
H14 C23 1_555 1_555
C3 C17 1_555 1_555
C3 C19 1_555 1_555
C4 C19 1_555 1_555
C6 C16 1_555 1_555
C8 C21 1_555 1_555
C13 C16 1_555 1_555
C13 C18 1_555 1_555
C14 C15 1_555 1_555
C22 C23 1_555 1_555

#END
