
#######################################################################
#
#                 Cambridge Crystallographic Data Centre
#                                CCDC 
#
#######################################################################
#
# If this CIF has been generated from an entry in the Cambridge 
# Structural Database, then it will include bibliographic, chemical, 
# crystal, experimental, refinement or atomic coordinate data resulting 
# from the CCDC's data processing and validation procedures.
#
#######################################################################

data_KACPAI
_chemical_formula_moiety         'C20 H16 Cl1 N3 O2 S2'
_chemical_name_systematic        
2-((5-(3-chlorophenyl)-1-phenyl-1H-pyrazol-3-yl)oxy)-1-(2-thioxo-1,3-thiazolidin-3-yl)ethanone
_symmetry_cell_setting           orthorhombic
_symmetry_space_group_name_H-M   'P b c a'
_symmetry_Int_Tables_number      61
_space_group_name_Hall           '-P 2ac 2ab'
loop_
_symmetry_equiv_pos_site_id
_symmetry_equiv_pos_as_xyz
1 x,y,z
2 1/2-x,-y,1/2+z
3 -x,1/2+y,1/2-z
4 1/2+x,1/2-y,-z
5 -x,-y,-z
6 1/2+x,y,1/2-z
7 x,1/2-y,1/2+z
8 1/2-x,1/2+y,z
_cell_length_a                   13.698(3)
_cell_length_b                   7.6260(15)
_cell_length_c                   38.908(8)
_cell_angle_alpha                90
_cell_angle_beta                 90
_cell_angle_gamma                90
_cell_volume                     4064.37
_cell_formula_units_Z            8
loop_
_atom_site_label
_atom_site_type_symbol
_atom_site_fract_x
_atom_site_fract_y
_atom_site_fract_z
Cl1 Cl 0.69445(18) 0.6279(3) 0.00307(5)
S1 S 0.79977(11) 0.0841(2) 0.29228(4)
S2 S 0.95065(11) 0.2236(2) 0.33700(4)
O1 O 0.7685(2) 0.4237(5) 0.19979(8)
N1 N 0.9244(3) 0.3482(5) 0.13231(10)
C1 C 1.1708(5) 0.1629(10) 0.12092(18)
H1 H 1.2306 0.1608 0.1322
N2 N 0.8986(3) 0.3180(5) 0.16568(9)
O2 O 0.9174(3) 0.5548(5) 0.23442(9)
C2 C 1.1616(5) 0.0762(10) 0.09075(18)
H2 H 1.2144 0.0151 0.0816
N3 N 0.9224(3) 0.3556(5) 0.27730(10)
C3 C 1.0732(5) 0.0790(9) 0.07361(17)
H3 H 1.0667 0.0212 0.0527
C4 C 0.9948(4) 0.1674(7) 0.08746(15)
H4 H 0.9349 0.1673 0.0762
C5 C 1.0055(3) 0.2551(6) 0.11777(13)
C6 C 1.0935(4) 0.2552(8) 0.13554(14)
H5 H 1.1005 0.3143 0.1563
C7 C 0.8736(4) 0.5309(7) 0.08148(13)
C8 C 0.9628(5) 0.5839(8) 0.06839(17)
H6 H 1.0185 0.5767 0.0819
C9 C 0.9692(6) 0.6484(9) 0.0348(2)
H7 H 1.0292 0.6830 0.0259
C10 C 0.8861(7) 0.6606(9) 0.01494(18)
H8 H 0.8900 0.7030 -0.0074
C11 C 0.7982(6) 0.6103(8) 0.02816(16)
C12 C 0.7913(4) 0.5430(7) 0.06102(13)
H9 H 0.7312 0.5058 0.0694
C13 C 0.8625(3) 0.4670(6) 0.11710(12)
C14 C 0.7941(4) 0.5103(7) 0.14091(13)
H10 H 0.7413 0.5858 0.1382
C15 C 0.8204(3) 0.4169(6) 0.17029(13)
C16 C 0.8035(3) 0.3215(6) 0.22781(12)
H11 H 0.8283 0.2103 0.2194
H12 H 0.7506 0.2978 0.2437
C17 C 0.8840(3) 0.4200(6) 0.24607(12)
C18 C 0.8879(3) 0.2249(6) 0.29871(12)
C19 C 1.0439(4) 0.3702(7) 0.32234(15)
H13 H 1.0608 0.4536 0.3402
H14 H 1.1022 0.3056 0.3160
C20 C 1.0022(4) 0.4629(7) 0.29174(14)
H15 H 0.9774 0.5769 0.2985
H16 H 1.0526 0.4803 0.2746
loop_
_geom_bond_atom_site_label_1
_geom_bond_atom_site_label_2
_geom_bond_site_symmetry_1
_geom_bond_site_symmetry_2
Cl1 C11 1_555 1_555
S1 C18 1_555 1_555
S2 C18 1_555 1_555
O1 C15 1_555 1_555
N1 N2 1_555 1_555
C1 H1 1_555 1_555
N2 C15 1_555 1_555
O2 C17 1_555 1_555
C2 C1 1_555 1_555
H2 C2 1_555 1_555
N3 C17 1_555 1_555
C3 C2 1_555 1_555
H3 C3 1_555 1_555
C4 C3 1_555 1_555
H4 C4 1_555 1_555
C5 N1 1_555 1_555
C6 C1 1_555 1_555
H5 C6 1_555 1_555
C7 C8 1_555 1_555
C8 H6 1_555 1_555
C9 C8 1_555 1_555
H7 C9 1_555 1_555
C10 C9 1_555 1_555
H8 C10 1_555 1_555
C11 C10 1_555 1_555
C12 C7 1_555 1_555
H9 C12 1_555 1_555
C13 N1 1_555 1_555
C14 C13 1_555 1_555
H10 C14 1_555 1_555
C15 C14 1_555 1_555
C16 O1 1_555 1_555
H11 C16 1_555 1_555
H12 C16 1_555 1_555
C17 C16 1_555 1_555
C18 N3 1_555 1_555
C19 S2 1_555 1_555
H13 C19 1_555 1_555
H14 C19 1_555 1_555
C20 N3 1_555 1_555
H15 C20 1_555 1_555
H16 C20 1_555 1_555
C4 C5 1_555 1_555
C5 C6 1_555 1_555
C7 C13 1_555 1_555
C11 C12 1_555 1_555
C19 C20 1_555 1_555

#END
