
#######################################################################
#
#                 Cambridge Crystallographic Data Centre
#                                CCDC 
#
#######################################################################
#
# If this CIF has been generated from an entry in the Cambridge 
# Structural Database, then it will include bibliographic, chemical, 
# crystal, experimental, refinement or atomic coordinate data resulting 
# from the CCDC's data processing and validation procedures.
#
#######################################################################

data_KACQAH
_chemical_name_common            Tribenzo(b,n,rs)-21-crown-6
_chemical_formula_moiety         'C26 H28 O6'
_chemical_name_systematic        
2,5,8,11,13,17-Hexaoxa-1,12(1,2),15(1,3)-tribenzenacycloheptadecaphane
_symmetry_cell_setting           monoclinic
_symmetry_space_group_name_H-M   'P 21/c'
_symmetry_Int_Tables_number      14
_space_group_name_Hall           '-P 2ybc'
loop_
_symmetry_equiv_pos_site_id
_symmetry_equiv_pos_as_xyz
1 x,y,z
2 x,1/2-y,1/2+z
3 -x,-y,-z
4 -x,1/2+y,1/2-z
_cell_length_a                   15.5825(13)
_cell_length_b                   15.8648(16)
_cell_length_c                   8.8266(7)
_cell_angle_alpha                90
_cell_angle_beta                 95.247(6)
_cell_angle_gamma                90
_cell_volume                     2172.91
_exptl_crystal_colour            colorless
_exptl_crystal_description       needle
_cell_formula_units_Z            4
_exptl_crystal_recrystallization_method acetonitrile
loop_
_atom_site_label
_atom_site_type_symbol
_atom_site_fract_x
_atom_site_fract_y
_atom_site_fract_z
O1 O 0.31724(6) 0.55929(6) 0.12748(11)
O2 O 0.15257(6) 0.56639(6) 0.15303(11)
O3 O 0.03123(6) 0.42659(6) 0.23129(11)
O4 O 0.08545(7) 0.25540(7) 0.41028(12)
O5 O 0.23442(6) 0.15336(6) 0.36500(11)
O6 O 0.33794(6) 0.20716(6) 0.17757(11)
C1 C 0.43980(9) 0.46958(9) 0.16867(16)
C2 C 0.40513(8) 0.39594(9) 0.10188(16)
H1 H 0.3589 0.3997 0.0242
C3 C 0.43694(9) 0.31737(9) 0.14675(16)
C4 C 0.50527(9) 0.31268(9) 0.25989(17)
H2 H 0.5278 0.2592 0.2913
C5 C 0.54060(9) 0.38500(10) 0.32690(17)
H3 H 0.5875 0.3811 0.4033
C6 C 0.50739(9) 0.46358(10) 0.28221(17)
H4 H 0.5310 0.5132 0.3295
C7 C 0.40756(9) 0.55371(9) 0.11071(18)
H5 H 0.4387 0.5994 0.1690
H6 H 0.4178 0.5600 0.0022
C8 C 0.27502(9) 0.62661(9) 0.05770(15)
C9 C 0.18537(9) 0.62994(8) 0.06981(15)
C10 C 0.13764(9) 0.69542(9) 0.00237(16)
H7 H 0.0772 0.6978 0.0097
C11 C 0.17793(10) 0.75814(10) -0.07661(17)
H8 H 0.1448 0.8030 -0.1230
C12 C 0.26536(10) 0.75526(10) -0.08752(17)
H9 H 0.2925 0.7983 -0.1409
C13 C 0.31419(10) 0.68939(9) -0.02037(16)
H10 H 0.3746 0.6875 -0.0282
C14 C 0.06244(8) 0.57093(9) 0.17067(16)
H11 H 0.0290 0.5574 0.0729
H12 H 0.0472 0.6288 0.2004
C15 C 0.04026(9) 0.50964(9) 0.29070(15)
H13 H 0.0862 0.5104 0.3760
H14 H -0.0143 0.5271 0.3308
C16 C -0.00569(10) 0.37117(9) 0.33626(17)
H15 H -0.0346 0.3242 0.2780
H16 H -0.0505 0.4026 0.3855
C17 C 0.05700(10) 0.33429(9) 0.45918(17)
H17 H 0.1068 0.3726 0.4801
H18 H 0.0285 0.3274 0.5542
C18 C 0.13878(9) 0.21312(9) 0.52791(17)
H19 H 0.1054 0.2014 0.6158
H20 H 0.1887 0.2490 0.5630
C19 C 0.16927(9) 0.13226(9) 0.46358(17)
H21 H 0.1934 0.0948 0.5465
H22 H 0.1208 0.1028 0.4057
C20 C 0.24937(8) 0.09818(9) 0.25175(15)
C21 C 0.30270(9) 0.12947(9) 0.14381(16)
C22 C 0.31472(9) 0.08266(9) 0.01517(16)
H23 H 0.3473 0.1052 -0.0612
C23 C 0.27873(9) 0.00212(10) -0.00195(18)
H24 H 0.2861 -0.0297 -0.0910
C24 C 0.23267(9) -0.03123(10) 0.10969(18)
H25 H 0.2113 -0.0873 0.1001
C25 C 0.21712(9) 0.01688(9) 0.23700(17)
H26 H 0.1846 -0.0061 0.3131
C26 C 0.39788(9) 0.23849(9) 0.07640(16)
H27 H 0.3677 0.2510 -0.0247
H28 H 0.4433 0.1961 0.0636
loop_
_geom_bond_atom_site_label_1
_geom_bond_atom_site_label_2
_geom_bond_site_symmetry_1
_geom_bond_site_symmetry_2
O1 C7 1_555 1_555
O2 C9 1_555 1_555
O3 C15 1_555 1_555
O4 C17 1_555 1_555
O5 C19 1_555 1_555
O6 C21 1_555 1_555
C1 C2 1_555 1_555
C2 H1 1_555 1_555
C3 C2 1_555 1_555
C4 C3 1_555 1_555
H2 C4 1_555 1_555
C5 C4 1_555 1_555
H3 C5 1_555 1_555
C6 C1 1_555 1_555
H4 C6 1_555 1_555
C7 C1 1_555 1_555
H5 C7 1_555 1_555
H6 C7 1_555 1_555
C8 O1 1_555 1_555
C9 C8 1_555 1_555
C10 C9 1_555 1_555
H7 C10 1_555 1_555
C11 C10 1_555 1_555
H8 C11 1_555 1_555
C12 C11 1_555 1_555
H9 C12 1_555 1_555
C13 C8 1_555 1_555
H10 C13 1_555 1_555
C14 O2 1_555 1_555
H11 C14 1_555 1_555
H12 C14 1_555 1_555
C15 C14 1_555 1_555
H13 C15 1_555 1_555
H14 C15 1_555 1_555
C16 O3 1_555 1_555
H15 C16 1_555 1_555
H16 C16 1_555 1_555
C17 C16 1_555 1_555
H17 C17 1_555 1_555
H18 C17 1_555 1_555
C18 O4 1_555 1_555
H19 C18 1_555 1_555
H20 C18 1_555 1_555
C19 C18 1_555 1_555
H21 C19 1_555 1_555
H22 C19 1_555 1_555
C20 O5 1_555 1_555
C21 C20 1_555 1_555
C22 C21 1_555 1_555
H23 C22 1_555 1_555
C23 C22 1_555 1_555
H24 C23 1_555 1_555
C24 C23 1_555 1_555
H25 C24 1_555 1_555
C25 C20 1_555 1_555
H26 C25 1_555 1_555
C26 O6 1_555 1_555
H27 C26 1_555 1_555
H28 C26 1_555 1_555
C3 C26 1_555 1_555
C5 C6 1_555 1_555
C12 C13 1_555 1_555
C24 C25 1_555 1_555

#END
