
#######################################################################
#
#                 Cambridge Crystallographic Data Centre
#                                CCDC 
#
#######################################################################
#
# If this CIF has been generated from an entry in the Cambridge 
# Structural Database, then it will include bibliographic, chemical, 
# crystal, experimental, refinement or atomic coordinate data resulting 
# from the CCDC's data processing and validation procedures.
#
#######################################################################

data_KACRUC
_chemical_formula_moiety         'C11 H12 O3'
_chemical_name_systematic        
3-Hydroxy-4,4-dimethyl-3,4-dihydro-2-benzopyran-1-one
_symmetry_cell_setting           monoclinic
_symmetry_space_group_name_H-M   'P 21/c'
_symmetry_Int_Tables_number      14
_space_group_name_Hall           '-P 2ybc'
loop_
_symmetry_equiv_pos_site_id
_symmetry_equiv_pos_as_xyz
1 x,y,z
2 -x,1/2+y,1/2-z
3 -x,-y,-z
4 x,1/2-y,1/2+z
_cell_length_a                   11.509(4)
_cell_length_b                   12.429(4)
_cell_length_c                   6.933(2)
_cell_angle_alpha                90
_cell_angle_beta                 91.117(3)
_cell_angle_gamma                90
_cell_volume                     991.545
_exptl_crystal_colour            colorless
_exptl_crystal_description       prism
_cell_formula_units_Z            4
_exptl_crystal_recrystallization_method sublimation
loop_
_atom_site_label
_atom_site_type_symbol
_atom_site_fract_x
_atom_site_fract_y
_atom_site_fract_z
O1 O 0.93129(13) 0.18343(12) 0.0364(2)
O2 O 0.93772(11) 0.03506(11) 0.2084(2)
O3 O 0.84952(12) -0.12078(12) 0.0950(2)
H1 H 0.9095 -0.1402 0.0434
C1 C 0.8769(2) 0.11244(18) 0.1164(3)
C2 C 0.87705(17) -0.06309(16) 0.2608(3)
H2 H 0.9281 -0.1068 0.3441
C3 C 0.76578(15) -0.03808(15) 0.3675(3)
C4 C 0.69298(16) 0.03694(14) 0.2431(2)
C5 C 0.57269(17) 0.04053(16) 0.2477(2)
H3 H 0.5336 -0.0060 0.3290
C6 C 0.50959(18) 0.11180(19) 0.1339(3)
H4 H 0.4289 0.1129 0.1393
C7 C 0.5661(2) 0.18075(19) 0.0133(3)
H5 H 0.5235 0.2282 -0.0642
C8 C 0.6856(2) 0.18009(16) 0.0063(3)
H6 H 0.7236 0.2270 -0.0758
C9 C 0.74962(17) 0.10943(15) 0.1218(3)
C10 C 0.79628(18) 0.01857(19) 0.5593(3)
H7 H 0.8422 -0.0287 0.6393
H8 H 0.7260 0.0369 0.6242
H9 H 0.8396 0.0829 0.5339
C11 C 0.70358(17) -0.14473(16) 0.4081(3)
H10 H 0.7529 -0.1895 0.4873
H11 H 0.6864 -0.1808 0.2884
H12 H 0.6326 -0.1306 0.4739
loop_
_geom_bond_atom_site_label_1
_geom_bond_atom_site_label_2
_geom_bond_site_symmetry_1
_geom_bond_site_symmetry_2
O1 C1 1_555 1_555
O2 C1 1_555 1_555
O3 H1 1_555 1_555
C1 C9 1_555 1_555
C2 O2 1_555 1_555
H2 C2 1_555 1_555
C3 C2 1_555 1_555
C4 C3 1_555 1_555
C5 C4 1_555 1_555
H3 C5 1_555 1_555
C6 C5 1_555 1_555
H4 C6 1_555 1_555
C7 C6 1_555 1_555
H5 C7 1_555 1_555
C8 C7 1_555 1_555
H6 C8 1_555 1_555
C9 C4 1_555 1_555
C10 C3 1_555 1_555
H7 C10 1_555 1_555
H8 C10 1_555 1_555
H9 C10 1_555 1_555
C11 C3 1_555 1_555
H10 C11 1_555 1_555
H11 C11 1_555 1_555
H12 C11 1_555 1_555
O3 C2 1_555 1_555
C8 C9 1_555 1_555

#END
