
#######################################################################
#
#                 Cambridge Crystallographic Data Centre
#                                CCDC 
#
#######################################################################
#
# If this CIF has been generated from an entry in the Cambridge 
# Structural Database, then it will include bibliographic, chemical, 
# crystal, experimental, refinement or atomic coordinate data resulting 
# from the CCDC's data processing and validation procedures.
#
#######################################################################

data_KACRAK
_chemical_formula_moiety         'C26 H22 O3'
_chemical_name_systematic        
'ethyl 2-benzylidene-3-oxo-4,5-diphenylpent-4-enoate'
_symmetry_cell_setting           monoclinic
_symmetry_space_group_name_H-M   'C c'
_symmetry_Int_Tables_number      9
_space_group_name_Hall           'C -2yc'
loop_
_symmetry_equiv_pos_site_id
_symmetry_equiv_pos_as_xyz
1 x,y,z
2 x,-y,1/2+z
3 1/2+x,1/2+y,z
4 1/2+x,1/2-y,1/2+z
_cell_length_a                   10.6608(8)
_cell_length_b                   20.7410(15)
_cell_length_c                   9.9455(7)
_cell_angle_alpha                90
_cell_angle_beta                 102.307(2)
_cell_angle_gamma                90
_cell_volume                     2148.57
_exptl_crystal_colour            colorless
_exptl_crystal_description       prismatic
_cell_formula_units_Z            4
loop_
_atom_site_label
_atom_site_type_symbol
_atom_site_fract_x
_atom_site_fract_y
_atom_site_fract_z
O1 O 1.05225(14) 0.22347(7) 0.42277(17)
O2 O 0.74397(19) 0.35908(8) 0.3256(2)
O3 O 0.85928(16) 0.30322(7) 0.20301(17)
C1 C 0.7889(2) 0.25806(10) 0.5228(3)
H1 H 0.7325 0.2916 0.5287
C2 C 0.84259(19) 0.25989(9) 0.4142(2)
C3 C 0.93921(19) 0.21170(9) 0.3849(2)
C4 C 0.89399(19) 0.15180(9) 0.3084(2)
C5 C 0.7677(2) 0.14165(9) 0.2621(2)
H2 H 0.7153 0.1727 0.2893
C6 C 0.6979(2) 0.09028(10) 0.1764(2)
C7 C 0.7499(3) 0.03101(10) 0.1502(3)
H3 H 0.8343 0.0213 0.1925
C8 C 0.6788(3) -0.01326(12) 0.0634(4)
H4 H 0.7155 -0.0523 0.0466
C9 C 0.5539(3) -0.00007(15) 0.0013(4)
H5 H 0.5057 -0.0301 -0.0574
C10 C 0.5004(3) 0.05743(18) 0.0258(4)
H6 H 0.4159 0.0666 -0.0170
C11 C 0.5704(3) 0.10182(14) 0.1132(3)
H7 H 0.5319 0.1403 0.1305
C12 C 0.8054(2) 0.21088(10) 0.6346(2)
C13 C 0.9130(3) 0.17244(12) 0.6743(3)
H8 H 0.9816 0.1772 0.6309
C14 C 0.9200(3) 0.12720(15) 0.7772(3)
H9 H 0.9929 0.1016 0.8025
C15 C 0.8201(3) 0.11981(15) 0.8420(3)
H10 H 0.8238 0.0885 0.9097
C16 C 0.7145(3) 0.15877(16) 0.8069(3)
H11 H 0.6472 0.1544 0.8523
C17 C 0.7072(3) 0.20402(13) 0.7055(3)
H12 H 0.6355 0.2306 0.6838
C18 C 0.99930(18) 0.10969(8) 0.2809(2)
C19 C 1.0485(2) 0.12057(9) 0.1654(2)
H13 H 1.0140 0.1533 0.1048
C20 C 1.1478(3) 0.08373(10) 0.1386(3)
H14 H 1.1804 0.0919 0.0607
C21 C 1.1984(3) 0.03529(11) 0.2262(3)
H15 H 1.2642 0.0098 0.2071
C22 C 1.1522(2) 0.02433(10) 0.3422(3)
H16 H 1.1871 -0.0085 0.4022
C23 C 1.0540(2) 0.06165(10) 0.3710(2)
H17 H 1.0246 0.0545 0.4512
C24 C 0.8084(2) 0.31331(10) 0.3119(2)
C25 C 0.8301(3) 0.35004(13) 0.0918(3)
H18 H 0.8719 0.3907 0.1212
H19 H 0.7382 0.3574 0.0666
C26 C 0.8761(4) 0.32487(16) -0.0262(3)
H20 H 0.9682 0.3235 -0.0046
H21 H 0.8474 0.3524 -0.1043
H22 H 0.8428 0.2822 -0.0473
loop_
_geom_bond_atom_site_label_1
_geom_bond_atom_site_label_2
_geom_bond_site_symmetry_1
_geom_bond_site_symmetry_2
O1 C3 1_555 1_555
O2 C24 1_555 1_555
O3 C24 1_555 1_555
C1 H1 1_555 1_555
C2 C1 1_555 1_555
C3 C2 1_555 1_555
C4 C3 1_555 1_555
C5 C4 1_555 1_555
H2 C5 1_555 1_555
C6 C5 1_555 1_555
C7 C6 1_555 1_555
H3 C7 1_555 1_555
C8 C7 1_555 1_555
H4 C8 1_555 1_555
C9 C8 1_555 1_555
H5 C9 1_555 1_555
C10 C9 1_555 1_555
H6 C10 1_555 1_555
C11 C6 1_555 1_555
H7 C11 1_555 1_555
C12 C1 1_555 1_555
C13 C12 1_555 1_555
H8 C13 1_555 1_555
C14 C13 1_555 1_555
H9 C14 1_555 1_555
C15 C14 1_555 1_555
H10 C15 1_555 1_555
C16 C15 1_555 1_555
H11 C16 1_555 1_555
C17 C12 1_555 1_555
H12 C17 1_555 1_555
C18 C4 1_555 1_555
C19 C18 1_555 1_555
H13 C19 1_555 1_555
C20 C19 1_555 1_555
H14 C20 1_555 1_555
C21 C20 1_555 1_555
H15 C21 1_555 1_555
C22 C21 1_555 1_555
H16 C22 1_555 1_555
C23 C18 1_555 1_555
H17 C23 1_555 1_555
C24 C2 1_555 1_555
C25 O3 1_555 1_555
H18 C25 1_555 1_555
H19 C25 1_555 1_555
C26 C25 1_555 1_555
H20 C26 1_555 1_555
H21 C26 1_555 1_555
H22 C26 1_555 1_555
C10 C11 1_555 1_555
C16 C17 1_555 1_555
C22 C23 1_555 1_555

#END
