
#######################################################################
#
#                 Cambridge Crystallographic Data Centre
#                                CCDC 
#
#######################################################################
#
# If this CIF has been generated from an entry in the Cambridge 
# Structural Database, then it will include bibliographic, chemical, 
# crystal, experimental, refinement or atomic coordinate data resulting 
# from the CCDC's data processing and validation procedures.
#
#######################################################################

data_KACSEN
_chemical_formula_moiety         'C11 H11 N1 O5'
_chemical_name_systematic        
3-Hydroxy-7-nitro-4,4-dimethyl-3,4-dihydro-2-benzopyran-1-one
_symmetry_cell_setting           monoclinic
_symmetry_space_group_name_H-M   'C 2/c'
_symmetry_Int_Tables_number      15
_space_group_name_Hall           '-C 2yn'
loop_
_symmetry_equiv_pos_site_id
_symmetry_equiv_pos_as_xyz
1 x,y,z
2 1/2+x,1/2+y,z
3 x,-y,1/2+z
4 1/2+x,1/2-y,1/2+z
5 -x,-y,-z
6 1/2-x,1/2-y,-z
7 -x,y,1/2-z
8 1/2-x,1/2+y,1/2-z
_cell_length_a                   19.365(5)
_cell_length_b                   8.4247(19)
_cell_length_c                   13.464(4)
_cell_angle_alpha                90
_cell_angle_beta                 92.62(2)
_cell_angle_gamma                90
_cell_volume                     2194.28
_exptl_crystal_colour            yellow
_exptl_crystal_description       prism
_chemical_melting_point          '459.1 K'
_cell_formula_units_Z            8
loop_
_atom_site_label
_atom_site_type_symbol
_atom_site_fract_x
_atom_site_fract_y
_atom_site_fract_z
O1 O 0.30575(8) -0.0451(2) 0.37307(13)
C1 C 0.32490(11) 0.0915(3) 0.36145(17)
O2 O 0.27726(7) 0.2024(2) 0.34246(12)
C2 C 0.30039(11) 0.3595(3) 0.31053(19)
H1 H 0.2619 0.4343 0.3153
O3 O 0.31744(8) 0.3493(2) 0.21194(12)
H2 H 0.2829 0.3653 0.1759
C3 C 0.36084(12) 0.4193(3) 0.37555(18)
C4 C 0.41802(10) 0.2971(3) 0.37454(15)
C5 C 0.48788(11) 0.3328(3) 0.38204(17)
H3 H 0.5016 0.4385 0.3865
C6 C 0.53798(11) 0.2146(3) 0.38298(16)
H4 H 0.5848 0.2397 0.3872
C7 C 0.51613(11) 0.0599(3) 0.37752(16)
N1 N 0.56928(11) -0.0685(3) 0.37584(16)
O4 O 0.62950(9) -0.0293(3) 0.38211(16)
O5 O 0.54873(10) -0.2042(3) 0.37111(16)
C8 C 0.44772(10) 0.0190(3) 0.37042(15)
H5 H 0.4345 -0.0871 0.3668
C9 C 0.39869(10) 0.1374(3) 0.36867(15)
C10 C 0.38332(14) 0.5802(3) 0.3349(2)
H6 H 0.3456 0.6539 0.3369
H7 H 0.3966 0.5678 0.2675
H8 H 0.4219 0.6197 0.3749
C11 C 0.33699(13) 0.4390(3) 0.48206(19)
H9 H 0.3007 0.5166 0.4827
H10 H 0.3752 0.4735 0.5246
H11 H 0.3202 0.3393 0.5055
loop_
_geom_bond_atom_site_label_1
_geom_bond_atom_site_label_2
_geom_bond_site_symmetry_1
_geom_bond_site_symmetry_2
O1 C1 1_555 1_555
C1 O2 1_555 1_555
O2 C2 1_555 1_555
C2 H1 1_555 1_555
O3 C2 1_555 1_555
H2 O3 1_555 1_555
C3 C2 1_555 1_555
C4 C3 1_555 1_555
C5 C4 1_555 1_555
H3 C5 1_555 1_555
C6 C5 1_555 1_555
H4 C6 1_555 1_555
C7 C6 1_555 1_555
N1 C7 1_555 1_555
O4 N1 1_555 1_555
O5 N1 1_555 1_555
C8 C7 1_555 1_555
H5 C8 1_555 1_555
C9 C1 1_555 1_555
C10 C3 1_555 1_555
H6 C10 1_555 1_555
H7 C10 1_555 1_555
H8 C10 1_555 1_555
C11 C3 1_555 1_555
H9 C11 1_555 1_555
H10 C11 1_555 1_555
H11 C11 1_555 1_555
C4 C9 1_555 1_555
C8 C9 1_555 1_555

#END
