
#######################################################################
#
#                 Cambridge Crystallographic Data Centre
#                                CCDC 
#
#######################################################################
#
# If this CIF has been generated from an entry in the Cambridge 
# Structural Database, then it will include bibliographic, chemical, 
# crystal, experimental, refinement or atomic coordinate data resulting 
# from the CCDC's data processing and validation procedures.
#
#######################################################################

data_KACVES01
_chemical_compound_source        'commercially available tea tree oil'
_chemical_name_common            p-Menthane-1,2,4-triol
_chemical_formula_moiety         'C10 H20 O3'
_chemical_name_systematic        4-Isopropyl-1-methylcyclohexane-1,2,4-triol
_symmetry_cell_setting           monoclinic
_symmetry_space_group_name_H-M   'P 21/c'
_symmetry_Int_Tables_number      14
_space_group_name_Hall           '-P 2ybc'
loop_
_symmetry_equiv_pos_site_id
_symmetry_equiv_pos_as_xyz
1 x,y,z
2 -x,1/2+y,1/2-z
3 -x,-y,-z
4 x,1/2-y,1/2+z
_cell_length_a                   16.4638(14)
_cell_length_b                   6.3346(3)
_cell_length_c                   10.9922(7)
_cell_angle_alpha                90
_cell_angle_beta                 106.369(8)
_cell_angle_gamma                90
_cell_volume                     1099.93
_exptl_crystal_colour            colorless
_exptl_crystal_description       block
_cell_formula_units_Z            4
loop_
_atom_site_label
_atom_site_type_symbol
_atom_site_fract_x
_atom_site_fract_y
_atom_site_fract_z
C1 C -0.63847(18) -0.7267(4) -0.4510(2)
C2 C -0.6898(2) -0.6827(4) -0.3565(2)
H1 H -0.6980 -0.8178 -0.3182
C3 C -0.7756(2) -0.5946(5) -0.4203(3)
H2 H -0.8036 -0.5595 -0.3561
H3 H -0.8091 -0.7024 -0.4745
C4 C -0.7734(2) -0.3984(4) -0.4998(3)
C5 C -0.7238(2) -0.4462(4) -0.5927(3)
H4 H -0.7184 -0.3181 -0.6381
H5 H -0.7548 -0.5483 -0.6542
C6 C -0.6363(2) -0.5325(5) -0.5292(3)
H6 H -0.6085 -0.5666 -0.5936
H7 H -0.6031 -0.4242 -0.4749
C7 C -0.5501(2) -0.8053(6) -0.3852(4)
H8 H -0.5186 -0.6954 -0.3324
H9 H -0.5536 -0.9258 -0.3340
H10 H -0.5222 -0.8445 -0.4476
C8 C -0.8623(3) -0.3124(7) -0.5683(5)
H11 H -0.8496 -0.2087 -0.6265
C9 C -0.9180(4) -0.4669(11) -0.6587(6)
H12 H -0.8844 -0.5457 -0.7015
H13 H -0.9436 -0.5620 -0.6123
H14 H -0.9614 -0.3915 -0.7200
C10 C -0.9032(4) -0.1977(13) -0.5057(9)
H15 H -0.8645 -0.1030 -0.4500
H16 H -0.9465 -0.1178 -0.5644
H17 H -0.9287 -0.2883 -0.4567
O1 O -0.68561(15) -0.8916(3) -0.53008(17)
H18 H -0.668(2) -0.910(5) -0.5923(19)
O2 O -0.64378(16) -0.5481(3) -0.25691(18)
H19 H -0.654(2) -0.426(2) -0.284(3)
O3 O -0.72983(16) -0.2431(3) -0.41089(19)
H20 H -0.7030(19) -0.145(4) -0.430(3)
loop_
_geom_bond_atom_site_label_1
_geom_bond_atom_site_label_2
_geom_bond_site_symmetry_1
_geom_bond_site_symmetry_2
C1 C2 1_555 1_555
C2 H1 1_555 1_555
C3 C2 1_555 1_555
H2 C3 1_555 1_555
H3 C3 1_555 1_555
C4 C3 1_555 1_555
C5 C4 1_555 1_555
H4 C5 1_555 1_555
H5 C5 1_555 1_555
C6 C1 1_555 1_555
H6 C6 1_555 1_555
H7 C6 1_555 1_555
C7 C1 1_555 1_555
H8 C7 1_555 1_555
H9 C7 1_555 1_555
H10 C7 1_555 1_555
C8 C4 1_555 1_555
H11 C8 1_555 1_555
C9 C8 1_555 1_555
H12 C9 1_555 1_555
H13 C9 1_555 1_555
H14 C9 1_555 1_555
C10 C8 1_555 1_555
H15 C10 1_555 1_555
H16 C10 1_555 1_555
H17 C10 1_555 1_555
O1 C1 1_555 1_555
H18 O1 1_555 1_555
O2 C2 1_555 1_555
H19 O2 1_555 1_555
O3 C4 1_555 1_555
H20 O3 1_555 1_555
C5 C6 1_555 1_555

#END
