
#######################################################################
#
#                 Cambridge Crystallographic Data Centre
#                                CCDC 
#
#######################################################################
#
# If this CIF has been generated from an entry in the Cambridge 
# Structural Database, then it will include bibliographic, chemical, 
# crystal, experimental, refinement or atomic coordinate data resulting 
# from the CCDC's data processing and validation procedures.
#
#######################################################################

data_KACWAP
_chemical_formula_moiety         'C21 H18 Cl1 N3 O3 S2'
_chemical_name_systematic        
2-((4-Chloro-5-(4-methoxyphenyl)-1-phenyl-1H-pyrazol-3-yl)oxy)-1-(2-thioxo-1,3-thiazolidin-3-yl)ethanone
_symmetry_cell_setting           triclinic
_symmetry_space_group_name_H-M   'P -1'
_symmetry_Int_Tables_number      2
_space_group_name_Hall           '-P 1'
loop_
_symmetry_equiv_pos_site_id
_symmetry_equiv_pos_as_xyz
1 x,y,z
2 -x,-y,-z
_cell_length_a                   6.0180(12)
_cell_length_b                   8.2370(16)
_cell_length_c                   21.600(4)
_cell_angle_alpha                87.08(3)
_cell_angle_beta                 87.46(3)
_cell_angle_gamma                82.30(3)
_cell_volume                     1058.93
_exptl_crystal_colour            yellow
_exptl_crystal_description       needle
_cell_formula_units_Z            2
loop_
_atom_site_label
_atom_site_type_symbol
_atom_site_fract_x
_atom_site_fract_y
_atom_site_fract_z
S1 S 0.3580(5) 0.2937(3) 0.55860(10)
O1 O 0.8672(9) 0.0932(6) 0.3974(2)
N1 N 0.6141(10) 0.2198(6) 0.4632(2)
C1 C 0.6332(18) 0.1960(10) 0.5754(3)
H1 H 0.7185 0.2727 0.5933
H2 H 0.6247 0.1038 0.6048
S2 S 0.2025(4) 0.3916(3) 0.43581(11)
N2 N 0.5238(9) 0.0397(6) 0.2829(2)
O2 O 0.7317(9) 0.2564(6) 0.2939(2)
C2 C 0.7488(14) 0.1360(9) 0.5128(3)
H3 H 0.9009 0.1631 0.5089
H4 H 0.7541 0.0181 0.5109
Cl1 Cl 0.9517(3) 0.1900(2) 0.15966(9)
N3 N 0.5126(8) -0.0670(6) 0.2377(2)
O3 O 0.7251(10) -0.3642(6) -0.0351(2)
C3 C 0.4011(13) 0.3032(8) 0.4790(3)
C4 C 0.7031(12) 0.1923(8) 0.4023(3)
C5 C 0.6019(13) 0.2922(8) 0.3489(3)
H5 H 0.4501 0.2684 0.3442
H6 H 0.5948 0.4078 0.3565
C6 C 0.6709(11) 0.1353(8) 0.2632(3)
C7 C 0.7544(10) 0.0928(8) 0.2028(3)
C8 C 0.6471(10) -0.0345(7) 0.1873(3)
C9 C 0.6640(11) -0.1207(7) 0.1285(3)
C10 C 0.4864(12) -0.1144(8) 0.0921(3)
H7 H 0.3517 -0.0549 0.1051
C11 C 0.4928(12) -0.1910(8) 0.0367(3)
H8 H 0.3663 -0.1816 0.0129
C12 C 0.6885(14) -0.2810(9) 0.0174(3)
C13 C 0.8745(14) -0.2911(10) 0.0538(4)
H9 H 1.0080 -0.3518 0.0404
C14 C 0.8676(12) -0.2126(8) 0.1102(3)
H10 H 0.9930 -0.2212 0.1344
C15 C 0.5420(16) -0.3565(10) -0.0758(3)
H11 H 0.5887 -0.4197 -0.1113
H12 H 0.4961 -0.2445 -0.0890
H13 H 0.4184 -0.4001 -0.0542
C16 C 0.3698(10) -0.1913(8) 0.2460(3)
C17 C 0.1632(11) -0.1518(9) 0.2779(3)
H14 H 0.1221 -0.0464 0.2916
C18 C 0.0202(12) -0.2692(11) 0.2891(3)
H15 H -0.1153 -0.2428 0.3110
C19 C 0.0771(14) -0.4246(11) 0.2680(3)
H16 H -0.0208 -0.5027 0.2742
C20 C 0.2867(12) -0.4627(9) 0.2370(3)
H17 H 0.3287 -0.5676 0.2229
C21 C 0.4305(11) -0.3462(8) 0.2272(3)
H18 H 0.5702 -0.3740 0.2077
loop_
_geom_bond_atom_site_label_1
_geom_bond_atom_site_label_2
_geom_bond_site_symmetry_1
_geom_bond_site_symmetry_2
S1 C1 1_555 1_555
O1 C4 1_555 1_555
N1 C2 1_555 1_555
C1 H1 1_555 1_555
H2 C1 1_555 1_555
S2 C3 1_555 1_555
N2 N3 1_555 1_555
O2 C5 1_555 1_555
C2 C1 1_555 1_555
H3 C2 1_555 1_555
H4 C2 1_555 1_555
Cl1 C7 1_555 1_555
N3 C8 1_555 1_555
O3 C12 1_555 1_555
C3 S1 1_555 1_555
C4 N1 1_555 1_555
C5 C4 1_555 1_555
H5 C5 1_555 1_555
H6 C5 1_555 1_555
C6 N2 1_555 1_555
C7 C6 1_555 1_555
C8 C7 1_555 1_555
C9 C8 1_555 1_555
C10 C9 1_555 1_555
H7 C10 1_555 1_555
C11 C10 1_555 1_555
H8 C11 1_555 1_555
C12 C11 1_555 1_555
C13 C12 1_555 1_555
H9 C13 1_555 1_555
C14 C9 1_555 1_555
H10 C14 1_555 1_555
C15 O3 1_555 1_555
H11 C15 1_555 1_555
H12 C15 1_555 1_555
H13 C15 1_555 1_555
C16 N3 1_555 1_555
C17 C16 1_555 1_555
H14 C17 1_555 1_555
C18 C17 1_555 1_555
H15 C18 1_555 1_555
C19 C18 1_555 1_555
H16 C19 1_555 1_555
C20 C19 1_555 1_555
H17 C20 1_555 1_555
C21 C16 1_555 1_555
H18 C21 1_555 1_555
N1 C3 1_555 1_555
O2 C6 1_555 1_555
C13 C14 1_555 1_555
C20 C21 1_555 1_555

#END
