
#######################################################################
#
#                 Cambridge Crystallographic Data Centre
#                                CCDC 
#
#######################################################################
#
# If this CIF has been generated from an entry in the Cambridge 
# Structural Database, then it will include bibliographic, chemical, 
# crystal, experimental, refinement or atomic coordinate data resulting 
# from the CCDC's data processing and validation procedures.
#
#######################################################################

data_KACYOE
_chemical_formula_moiety         'C62 H46 O12 S6,C4 H10 O1'
_chemical_name_systematic        
'11,18,38,45,56,63-Hexaoxa-14,15,41,42,59,60-hexathiaoctacyclo[26.26.10.2^6,9^.2^20,23^.2^33,36^.2^47,50^.1^3,53^.1^26,30^]tetraheptaconta-1,3(65),6,8,20,22,26(70),27,29,33,35,47,49,53,66,68,71,73-octadecaene-4,24,31,51-tetrayne-10,19,37,46,55,64-hexone diethyl ether solvate'
_symmetry_cell_setting           monoclinic
_symmetry_space_group_name_H-M   'P 21/c'
_symmetry_Int_Tables_number      14
_space_group_name_Hall           '-P 2ybc'
loop_
_symmetry_equiv_pos_site_id
_symmetry_equiv_pos_as_xyz
1 x,y,z
2 -x,1/2+y,1/2-z
3 -x,-y,-z
4 x,1/2-y,1/2+z
_cell_length_a                   7.6656(15)
_cell_length_b                   27.416(6)
_cell_length_c                   29.336(6)
_cell_angle_alpha                90
_cell_angle_beta                 92.51(3)
_cell_angle_gamma                90
_cell_volume                     6159.34
_exptl_crystal_colour            colorless
_exptl_crystal_description       block
_cell_formula_units_Z            4
loop_
_atom_site_label
_atom_site_type_symbol
_atom_site_fract_x
_atom_site_fract_y
_atom_site_fract_z
S1 S 0.05659(16) 0.54332(4) 0.12244(4)
S2 S 0.03883(16) 0.61723(4) 0.12549(4)
S3 S -0.41329(17) 1.01244(4) -0.20294(4)
S4 S -0.62997(17) 1.03310(4) -0.24073(4)
S5 S -1.11201(19) 0.57781(5) -0.63410(5)
S6 S -1.03979(18) 0.50948(5) -0.61648(5)
O1 O 0.2080(4) 0.64288(10) 0.02614(10)
O2 O 0.3906(4) 0.70704(11) 0.03232(11)
O3 O -0.3853(4) 0.91566(10) -0.33602(10)
O4 O -0.2443(4) 0.93691(10) -0.27002(10)
O5 O -0.7887(4) 0.89425(11) -0.23766(10)
O6 O -0.6858(5) 0.86860(12) -0.16936(12)
O7 O -1.3912(4) 0.72017(13) -0.56293(12)
O8 O -1.2622(4) 0.64689(13) -0.55787(11)
O9 O -0.6991(4) 0.57333(11) -0.52903(11)
O10 O -0.6789(4) 0.51133(11) -0.47923(10)
O11 O -0.2965(4) 0.49567(11) -0.01412(10)
O12 O -0.3063(4) 0.56420(11) 0.02720(10)
C1 C -0.2454(6) 0.53778(19) 0.06711(16)
H1 H -0.3058 0.5059 0.0680
H2 H -0.2745 0.5563 0.0947
C2 C -0.0499(6) 0.52949(18) 0.06736(17)
H3 H 0.0007 0.5503 0.0437
H4 H -0.0269 0.4950 0.0595
C3 C 0.2554(6) 0.63603(16) 0.10963(15)
H5 H 0.2611 0.6721 0.1108
H6 H 0.3415 0.6234 0.1328
C4 C 0.3097(6) 0.61982(16) 0.06337(15)
H7 H 0.4347 0.6276 0.0603
H8 H 0.2963 0.5840 0.0610
C5 C 0.2690(6) 0.68671(16) 0.01307(16)
C6 C 0.1698(5) 0.70701(15) -0.02736(15)
C7 C 0.2193(6) 0.75216(16) -0.04360(15)
H9 H 0.3108 0.7697 -0.0281
C8 C 0.1371(6) 0.77197(16) -0.08206(15)
H10 H 0.1729 0.8029 -0.0928
C9 C 0.0024(6) 0.74700(16) -0.10520(15)
C10 C -0.0492(6) 0.70199(16) -0.08840(15)
H11 H -0.1421 0.6847 -0.1035
C11 C 0.0336(6) 0.68231(16) -0.04988(16)
H12 H -0.0030 0.6516 -0.0387
C12 C -0.0803(6) 0.76612(16) -0.14686(17)
C13 C -0.1454(6) 0.77957(16) -0.18143(17)
C14 C -0.2209(6) 0.79351(16) -0.22556(15)
C15 C -0.2294(5) 0.84190(15) -0.23990(15)
H13 H -0.1894 0.8672 -0.2199
C16 C -0.2966(6) 0.85344(15) -0.28376(15)
C17 C -0.3489(5) 0.81606(16) -0.31333(15)
H14 H -0.3904 0.8238 -0.3435
C18 C -0.3414(5) 0.76771(14) -0.29962(15)
C19 C -0.2793(5) 0.75706(16) -0.25557(15)
H15 H -0.2765 0.7241 -0.2457
C20 C -0.3139(6) 0.90445(15) -0.29979(16)
C21 C -0.2558(6) 0.98777(14) -0.28359(16)
H16 H -0.3693 0.9940 -0.3000
H17 H -0.1614 0.9957 -0.3043
C22 C -0.2393(6) 1.01869(16) -0.24211(15)
H18 H -0.2333 1.0532 -0.2517
H19 H -0.1274 1.0107 -0.2256
C23 C -0.7196(6) 0.97517(16) -0.26066(16)
H20 H -0.8217 0.9813 -0.2817
H21 H -0.6307 0.9575 -0.2778
C24 C -0.7742(7) 0.94425(16) -0.22187(16)
H22 H -0.6867 0.9465 -0.1961
H23 H -0.8880 0.9556 -0.2112
C25 C -0.7350(6) 0.85990(17) -0.20833(18)
C26 C -0.7384(6) 0.81057(15) -0.22850(15)
C27 C -0.8078(6) 0.80179(16) -0.27238(15)
H24 H -0.8540 0.8280 -0.2903
C28 C -0.8096(6) 0.75417(16) -0.29010(15)
C29 C -0.7422(6) 0.71585(16) -0.26291(16)
H25 H -0.7420 0.6835 -0.2746
C30 C -0.6760(6) 0.72502(16) -0.21899(17)
C31 C -0.6736(6) 0.77238(16) -0.20187(16)
H26 H -0.6274 0.7785 -0.1718
C32 C -0.8812(6) 0.74485(16) -0.33524(17)
C33 C -0.9448(6) 0.73593(16) -0.37230(18)
C34 C -1.0250(6) 0.72537(17) -0.41646(15)
C35 C -1.1313(6) 0.76007(17) -0.43908(16)
H27 H -1.1469 0.7915 -0.4262
C36 C -1.2131(6) 0.74803(18) -0.48035(16)
H28 H -1.2871 0.7712 -0.4956
C37 C -1.1895(6) 0.70322(18) -0.49982(16)
C38 C -1.0818(6) 0.66915(18) -0.47809(16)
H29 H -1.0645 0.6383 -0.4919
C39 C -0.9994(6) 0.67981(17) -0.43658(16)
H30 H -0.9256 0.6563 -0.4217
C40 C -1.2922(6) 0.69229(19) -0.54357(17)
C41 C -1.3705(7) 0.6327(2) -0.59834(17)
H31 H -1.4958 0.6357 -0.5920
H32 H -1.3457 0.6542 -0.6244
C42 C -1.3288(6) 0.58291(19) -0.60898(19)
H33 H -1.4192 0.5697 -0.6308
H34 H -1.3298 0.5631 -0.5808
C43 C -0.9294(6) 0.51936(18) -0.56181(16)
H35 H -1.0003 0.5416 -0.5435
H36 H -0.9193 0.4879 -0.5454
C44 C -0.7519(6) 0.54060(18) -0.56578(17)
H37 H -0.6662 0.5137 -0.5668
H38 H -0.7486 0.5585 -0.5950
C45 C -0.6635(6) 0.55414(17) -0.48761(16)
C46 C -0.6052(5) 0.59208(15) -0.45428(15)
C47 C -0.5712(6) 0.57912(16) -0.40873(15)
H39 H -0.5845 0.5462 -0.3994
C48 C -0.5185(6) 0.61385(16) -0.37734(16)
H40 H -0.4940 0.6044 -0.3466
C49 C -0.5003(6) 0.66255(15) -0.38953(15)
C50 C -0.5364(6) 0.67562(15) -0.43530(15)
H41 H -0.5241 0.7086 -0.4446
C51 C -0.5899(6) 0.64060(15) -0.46697(16)
H42 H -0.6163 0.6499 -0.4977
C52 C -0.4446(6) 0.69861(16) -0.35705(15)
C53 C -0.3984(6) 0.72957(16) -0.33111(16)
C54 C -0.6092(6) 0.68676(17) -0.19007(17)
C55 C -0.5551(6) 0.65797(18) -0.16195(18)
C56 C -0.4950(6) 0.62748(16) -0.12473(17)
C57 C -0.4582(6) 0.57788(16) -0.13079(17)
H43 H -0.4703 0.5637 -0.1603
C58 C -0.4044(6) 0.54956(16) -0.09375(16)
H44 H -0.3815 0.5158 -0.0978
C59 C -0.3838(6) 0.57045(15) -0.05052(15)
C60 C -0.4167(6) 0.61978(16) -0.04494(17)
H45 H -0.4012 0.6342 -0.0156
C61 C -0.4717(6) 0.64788(17) -0.08162(17)
H46 H -0.4940 0.6816 -0.0774
C62 C -0.3245(6) 0.53902(17) -0.01187(16)
O13 O -0.0236(4) 0.60758(11) -0.24179(11)
C63 C 0.0046(7) 0.59292(18) -0.16206(18)
H47 H -0.0212 0.6061 -0.1320
H48 H 0.1312 0.5899 -0.1644
H49 H -0.0498 0.5607 -0.1659
C64 C -0.0671(7) 0.62681(17) -0.19870(18)
H50 H -0.1955 0.6295 -0.1970
H51 H -0.0160 0.6597 -0.1944
C65 C -0.1038(6) 0.63390(16) -0.27922(18)
H52 H -0.0678 0.6686 -0.2777
H53 H -0.2325 0.6324 -0.2777
C66 C -0.0480(7) 0.61143(18) -0.32299(17)
H54 H -0.0971 0.6302 -0.3489
H55 H -0.0903 0.5777 -0.3250
H56 H 0.0797 0.6117 -0.3235
loop_
_geom_bond_atom_site_label_1
_geom_bond_atom_site_label_2
_geom_bond_site_symmetry_1
_geom_bond_site_symmetry_2
S1 S2 1_555 1_555
S2 C3 1_555 1_555
S3 S4 1_555 1_555
S4 C23 1_555 1_555
S5 S6 1_555 1_555
S6 C43 1_555 1_555
O1 C4 1_555 1_555
O2 C5 1_555 1_555
O3 C20 1_555 1_555
O4 C20 1_555 1_555
O5 C24 1_555 1_555
O6 C25 1_555 1_555
O7 C40 1_555 1_555
O8 C40 1_555 1_555
O9 C44 1_555 1_555
O10 C45 1_555 1_555
O11 C62 1_555 1_555
O12 C1 1_555 1_555
O13 C64 1_555 1_555
C1 H1 1_555 1_555
H2 C1 1_555 1_555
C2 S1 1_555 1_555
H3 C2 1_555 1_555
H4 C2 1_555 1_555
C3 H5 1_555 1_555
H6 C3 1_555 1_555
C4 C3 1_555 1_555
H7 C4 1_555 1_555
H8 C4 1_555 1_555
C5 O1 1_555 1_555
C6 C5 1_555 1_555
C7 C6 1_555 1_555
H9 C7 1_555 1_555
C8 C7 1_555 1_555
H10 C8 1_555 1_555
C9 C8 1_555 1_555
C10 C9 1_555 1_555
H11 C10 1_555 1_555
C11 C6 1_555 1_555
H12 C11 1_555 1_555
C12 C9 1_555 1_555
C13 C12 1_555 1_555
C14 C13 1_555 1_555
C15 C14 1_555 1_555
H13 C15 1_555 1_555
C16 C15 1_555 1_555
C17 C16 1_555 1_555
H14 C17 1_555 1_555
C18 C17 1_555 1_555
C19 C14 1_555 1_555
H15 C19 1_555 1_555
C20 C16 1_555 1_555
C21 O4 1_555 1_555
H16 C21 1_555 1_555
H17 C21 1_555 1_555
C22 S3 1_555 1_555
H18 C22 1_555 1_555
H19 C22 1_555 1_555
C23 H20 1_555 1_555
H21 C23 1_555 1_555
C24 C23 1_555 1_555
H22 C24 1_555 1_555
H23 C24 1_555 1_555
C25 O5 1_555 1_555
C26 C25 1_555 1_555
C27 C26 1_555 1_555
H24 C27 1_555 1_555
C28 C27 1_555 1_555
C29 C28 1_555 1_555
H25 C29 1_555 1_555
C30 C29 1_555 1_555
C31 C26 1_555 1_555
H26 C31 1_555 1_555
C32 C28 1_555 1_555
C33 C32 1_555 1_555
C34 C33 1_555 1_555
C35 C34 1_555 1_555
H27 C35 1_555 1_555
C36 C35 1_555 1_555
H28 C36 1_555 1_555
C37 C36 1_555 1_555
C38 C37 1_555 1_555
H29 C38 1_555 1_555
C39 C34 1_555 1_555
H30 C39 1_555 1_555
C40 C37 1_555 1_555
C41 O8 1_555 1_555
H31 C41 1_555 1_555
H32 C41 1_555 1_555
C42 S5 1_555 1_555
H33 C42 1_555 1_555
H34 C42 1_555 1_555
C43 H35 1_555 1_555
H36 C43 1_555 1_555
C44 C43 1_555 1_555
H37 C44 1_555 1_555
H38 C44 1_555 1_555
C45 O9 1_555 1_555
C46 C45 1_555 1_555
C47 C46 1_555 1_555
H39 C47 1_555 1_555
C48 C47 1_555 1_555
H40 C48 1_555 1_555
C49 C48 1_555 1_555
C50 C49 1_555 1_555
H41 C50 1_555 1_555
C51 C46 1_555 1_555
H42 C51 1_555 1_555
C52 C49 1_555 1_555
C53 C18 1_555 1_555
C54 C30 1_555 1_555
C55 C54 1_555 1_555
C56 C55 1_555 1_555
C57 C56 1_555 1_555
H43 C57 1_555 1_555
C58 C57 1_555 1_555
H44 C58 1_555 1_555
C59 C58 1_555 1_555
C60 C59 1_555 1_555
H45 C60 1_555 1_555
C61 C56 1_555 1_555
H46 C61 1_555 1_555
C62 O12 1_555 1_555
C63 H47 1_555 1_555
H48 C63 1_555 1_555
H49 C63 1_555 1_555
C64 C63 1_555 1_555
H50 C64 1_555 1_555
H51 C64 1_555 1_555
C65 O13 1_555 1_555
H52 C65 1_555 1_555
H53 C65 1_555 1_555
C66 C65 1_555 1_555
H54 C66 1_555 1_555
H55 C66 1_555 1_555
H56 C66 1_555 1_555
C1 C2 1_555 1_555
C10 C11 1_555 1_555
C18 C19 1_555 1_555
C21 C22 1_555 1_555
C30 C31 1_555 1_555
C38 C39 1_555 1_555
C41 C42 1_555 1_555
C50 C51 1_555 1_555
C52 C53 1_555 1_555
C59 C62 1_555 1_555
C60 C61 1_555 1_555

#END
