
#######################################################################
#
#                 Cambridge Crystallographic Data Centre
#                                CCDC 
#
#######################################################################
#
# If this CIF has been generated from an entry in the Cambridge 
# Structural Database, then it will include bibliographic, chemical, 
# crystal, experimental, refinement or atomic coordinate data resulting 
# from the CCDC's data processing and validation procedures.
#
#######################################################################

data_KACYIY
_chemical_formula_moiety         'C68 H60 O16 S4'
_chemical_name_systematic        
'bis(2-(2-Methoxyethoxy)ethyl) 15,24,42,51-tetraoxo-16,23,43,50-tetraoxa-19,20,46,47-tetrathiaheptacyclo[50.2.2.2^11,14^.2^25,28^.2^38,41^.1^4,8^.1^31,35^]tetrahexaconta-1(54),4(64),5,7,11,13,25,27,31(59),32,34,38,40,52,55,57,60,62-octadecaene-2,9,29,36-tetrayne-6,33-dicarboxylate'
_symmetry_cell_setting           orthorhombic
_symmetry_space_group_name_H-M   'P b c n'
_symmetry_Int_Tables_number      60
_space_group_name_Hall           '-P 2n 2ab'
loop_
_symmetry_equiv_pos_site_id
_symmetry_equiv_pos_as_xyz
1 x,y,z
2 1/2-x,1/2-y,1/2+z
3 -x,y,1/2-z
4 1/2+x,1/2-y,-z
5 -x,-y,-z
6 1/2+x,1/2+y,1/2-z
7 x,-y,1/2+z
8 1/2-x,1/2+y,z
_cell_length_a                   16.300(3)
_cell_length_b                   24.855(5)
_cell_length_c                   15.010(3)
_cell_angle_alpha                90
_cell_angle_beta                 90
_cell_angle_gamma                90
_cell_volume                     6081.1
_exptl_crystal_colour            colorless
_exptl_crystal_description       plate
_cell_formula_units_Z            4
loop_
_atom_site_label
_atom_site_type_symbol
_atom_site_fract_x
_atom_site_fract_y
_atom_site_fract_z
S1 S 0.07061(10) 0.18840(7) 0.34517(10)
S2 S 0.00836(9) 0.25400(6) 0.39045(10)
O1 O -0.1414(3) 0.1100(2) 0.4389(3)
O2 O -0.2118(3) 0.18678(18) 0.4594(3)
C1 C -0.4094(6) 0.1021(2) 0.5652(9)
H1 H -0.4592 0.1202 0.5788
C2 C -0.3439(5) 0.1307(3) 0.5307(6)
H2 H -0.3483 0.1684 0.5222
C3 C -0.2718(4) 0.1042(3) 0.5086(5)
C4 C -0.2645(5) 0.0496(3) 0.5232(7)
H3 H -0.2144 0.0318 0.5099
C5 C -0.3292(4) 0.0212(3) 0.5568(10)
H4 H -0.3242 -0.0166 0.5644
C6 C -0.2006(4) 0.1330(2) 0.4664(5)
C7 C -0.1489(4) 0.2147(3) 0.4076(4)
H5 H -0.1720 0.2486 0.3839
H6 H -0.1329 0.1920 0.3563
C8 C -0.0740(4) 0.2272(3) 0.4620(5)
H7 H -0.0546 0.1941 0.4921
H8 H -0.0880 0.2540 0.5084
O3 O -0.5412(2) -0.22332(13) 0.6574(2)
O4 O -0.65102(19) -0.23361(12) 0.7463(2)
O5 O -0.7470(2) -0.33241(15) 0.7038(2)
O6 O -0.8654(2) -0.34653(14) 0.5652(3)
O7 O -1.1736(2) 0.07257(15) 0.9724(3)
O8 O -1.0875(2) 0.14356(14) 0.9552(2)
C9 C -0.5806(3) -0.05479(18) 0.6681(3)
C10 C -0.5649(3) -0.10993(18) 0.6664(3)
H9 H -0.5142 -0.1224 0.6429
C11 C -0.6212(2) -0.14692(17) 0.6979(3)
C12 C -0.6959(3) -0.12882(17) 0.7308(3)
H10 H -0.7349 -0.1540 0.7524
C13 C -0.7145(3) -0.07339(17) 0.7326(3)
C14 C -0.6562(3) -0.03720(17) 0.7012(3)
H11 H -0.6679 0.0002 0.7022
C15 C -0.5199(3) -0.01747(18) 0.6370(3)
C16 C -0.4676(3) 0.01310(18) 0.6129(3)
C17 C -0.4028(2) 0.04661(16) 0.5802(3)
C18 C -0.5991(3) -0.20497(19) 0.6965(3)
C19 C -0.6304(3) -0.28856(17) 0.7632(4)
H12 H -0.5920 -0.2911 0.8141
H13 H -0.6041 -0.3048 0.7102
C20 C -0.7089(3) -0.31706(19) 0.7843(3)
H14 H -0.6975 -0.3493 0.8210
H15 H -0.7456 -0.2930 0.8184
C21 C -0.8251(3) -0.3575(2) 0.7157(4)
H16 H -0.8668 -0.3300 0.7312
H17 H -0.8222 -0.3839 0.7650
C22 C -0.8487(3) -0.3852(2) 0.6315(4)
H18 H -0.8035 -0.4089 0.6118
H19 H -0.8979 -0.4077 0.6418
C23 C -0.8722(4) -0.3703(2) 0.4801(4)
H20 H -0.8840 -0.3425 0.4358
H21 H -0.9169 -0.3967 0.4806
H22 H -0.8206 -0.3884 0.4650
C24 C -0.7907(3) -0.05352(19) 0.7684(3)
C25 C -0.8509(3) -0.03430(19) 0.7985(3)
C26 C -0.9183(3) -0.00460(19) 0.8349(3)
C27 C -0.9890(3) -0.02836(19) 0.8667(3)
H23 H -0.9950 -0.0663 0.8641
C28 C -1.0509(3) 0.0026(2) 0.9022(3)
H24 H -1.0995 -0.0141 0.9237
C29 C -1.0429(3) 0.0578(2) 0.9068(3)
C30 C -0.9725(3) 0.0818(2) 0.8735(3)
H25 H -0.9667 0.1199 0.8752
C31 C -0.9116(3) 0.05067(19) 0.8382(3)
H26 H -0.8637 0.0674 0.8153
C32 C -1.1097(3) 0.0912(2) 0.9494(3)
C33 C -1.1473(3) 0.1831(2) 0.9877(4)
H27 H -1.1285 0.2196 0.9710
H28 H -1.2005 0.1766 0.9578
C34 C 0.1595(3) 0.1810(2) 0.4156(3)
H29 H 0.1856 0.1461 0.4011
H30 H 0.1990 0.2096 0.3994
S1B S -1.07061(10) 0.18840(7) 1.15483(10)
S2B S -1.00836(9) 0.25400(6) 1.10955(10)
O1B O -0.8586(3) 0.1100(2) 1.0611(3)
O2B O -0.7882(3) 0.18678(18) 1.0406(3)
C1B C -0.5906(6) 0.1021(2) 0.9348(9)
H1B H -0.5408 0.1202 0.9212
C2B C -0.6561(5) 0.1307(3) 0.9693(6)
H2B H -0.6517 0.1684 0.9778
C3B C -0.7282(4) 0.1042(3) 0.9914(5)
C4B C -0.7355(5) 0.0496(3) 0.9768(7)
H3B H -0.7856 0.0318 0.9901
C5B C -0.6708(4) 0.0212(3) 0.9432(10)
H4B H -0.6758 -0.0166 0.9356
C6B C -0.7994(4) 0.1330(2) 1.0336(5)
C7B C -0.8511(4) 0.2147(3) 1.0924(4)
H5B H -0.8280 0.2486 1.1161
H6B H -0.8671 0.1920 1.1437
C8B C -0.9260(4) 0.2272(3) 1.0380(5)
H7B H -0.9454 0.1941 1.0079
H8B H -0.9120 0.2540 0.9916
O3B O -0.4588(2) -0.22332(13) 0.8426(2)
O4B O -0.34898(19) -0.23361(12) 0.7537(2)
O5B O -0.2530(2) -0.33241(15) 0.7962(2)
O6B O -0.1346(2) -0.34653(14) 0.9348(3)
O7B O 0.1736(2) 0.07257(15) 0.5276(3)
O8B O 0.0875(2) 0.14356(14) 0.5448(2)
C9B C -0.4194(3) -0.05479(18) 0.8319(3)
C10B C -0.4351(3) -0.10993(18) 0.8336(3)
H9B H -0.4858 -0.1224 0.8571
C11B C -0.3788(2) -0.14692(17) 0.8021(3)
C12B C -0.3041(3) -0.12882(17) 0.7692(3)
H10B H -0.2651 -0.1540 0.7476
C13B C -0.2855(3) -0.07339(17) 0.7674(3)
C14B C -0.3438(3) -0.03720(17) 0.7988(3)
H11B H -0.3321 0.0002 0.7978
C15B C -0.4801(3) -0.01747(18) 0.8630(3)
C16B C -0.5324(3) 0.01310(18) 0.8871(3)
C17B C -0.5972(2) 0.04661(16) 0.9198(3)
C18B C -0.4009(3) -0.20497(19) 0.8035(3)
C19B C -0.3696(3) -0.28856(17) 0.7368(4)
H12B H -0.4080 -0.2911 0.6859
H13B H -0.3959 -0.3048 0.7898
C20B C -0.2911(3) -0.31706(19) 0.7157(3)
H14B H -0.3025 -0.3493 0.6790
H15B H -0.2544 -0.2930 0.6816
C21B C -0.1749(3) -0.3575(2) 0.7843(4)
H16B H -0.1332 -0.3300 0.7688
H17B H -0.1778 -0.3839 0.7350
C22B C -0.1513(3) -0.3852(2) 0.8685(4)
H18B H -0.1965 -0.4089 0.8882
H19B H -0.1021 -0.4077 0.8582
C23B C -0.1278(4) -0.3703(2) 1.0199(4)
H20B H -0.1160 -0.3425 1.0642
H21B H -0.0831 -0.3967 1.0194
H22B H -0.1794 -0.3884 1.0350
C24B C -0.2093(3) -0.05352(19) 0.7316(3)
C25B C -0.1491(3) -0.03430(19) 0.7015(3)
C26B C -0.0817(3) -0.00460(19) 0.6651(3)
C27B C -0.0110(3) -0.02836(19) 0.6333(3)
H23B H -0.0050 -0.0663 0.6359
C28B C 0.0509(3) 0.0026(2) 0.5978(3)
H24B H 0.0995 -0.0141 0.5763
C29B C 0.0429(3) 0.0578(2) 0.5932(3)
C30B C -0.0275(3) 0.0818(2) 0.6265(3)
H25B H -0.0333 0.1199 0.6248
C31B C -0.0884(3) 0.05067(19) 0.6618(3)
H26B H -0.1363 0.0674 0.6847
C32B C 0.1097(3) 0.0912(2) 0.5506(3)
C33B C 0.1473(3) 0.1831(2) 0.5123(4)
H27B H 0.1285 0.2196 0.5290
H28B H 0.2005 0.1766 0.5422
C34B C -1.1595(3) 0.1810(2) 1.0844(3)
H29B H -1.1856 0.1461 1.0989
H30B H -1.1990 0.2096 1.1006
C35? C -0.6786(9) 0.0319(7) 0.938(3)
C36? C -0.7320(12) 0.0686(6) 0.9766(19)
C37? C -0.7077(9) 0.1221(5) 0.9851(16)
C38? C -0.6311(10) 0.1382(7) 0.9574(18)
C39? C -0.5782(15) 0.1017(4) 0.921(3)
C40? C -0.7632(9) 0.1647(5) 1.0232(13)
C41? C -0.8836(9) 0.1809(7) 1.1076(10)
C42? C -0.9367(13) 0.2126(9) 1.0456(10)
H31? H -0.6972 -0.0033 0.9241
H32? H -0.7845 0.0575 0.9969
H33? H -0.6150 0.1747 0.9636
H34? H -0.5278 0.1137 0.8961
H35? H -0.8482 0.2057 1.1420
H36? H -0.9185 0.1609 1.1502
H37? H -0.9676 0.1878 1.0063
H38? H -0.9021 0.2360 1.0076
O9? O -0.7467(8) 0.2113(5) 1.0275(10)
O10? O -0.8324(7) 0.1430(5) 1.0576(10)
loop_
_geom_bond_atom_site_label_1
_geom_bond_atom_site_label_2
_geom_bond_site_symmetry_1
_geom_bond_site_symmetry_2
S1 S2 1_555 1_555
S2 C8 1_555 1_555
O1 C6 1_555 1_555
O2 C6 1_555 1_555
C1 H1 1_555 1_555
C2 C1 1_555 1_555
H2 C2 1_555 1_555
C3 C2 1_555 1_555
C4 C3 1_555 1_555
H3 C4 1_555 1_555
C5 C4 1_555 1_555
H4 C5 1_555 1_555
C6 C3 1_555 1_555
C7 O2 1_555 1_555
H5 C7 1_555 1_555
H6 C7 1_555 1_555
C8 C7 1_555 1_555
H7 C8 1_555 1_555
H8 C8 1_555 1_555
O3 C18 1_555 1_555
O4 C18 1_555 1_555
O5 C20 1_555 1_555
O6 C22 1_555 1_555
O7 C32 1_555 1_555
O8 C32 1_555 1_555
C9 C10 1_555 1_555
C10 H9 1_555 1_555
C11 C10 1_555 1_555
C12 C11 1_555 1_555
H10 C12 1_555 1_555
C13 C12 1_555 1_555
C14 C9 1_555 1_555
H11 C14 1_555 1_555
C15 C9 1_555 1_555
C16 C15 1_555 1_555
C17 C1 1_555 1_555
C18 C11 1_555 1_555
C19 O4 1_555 1_555
H12 C19 1_555 1_555
H13 C19 1_555 1_555
C20 C19 1_555 1_555
H14 C20 1_555 1_555
H15 C20 1_555 1_555
C21 O5 1_555 1_555
H16 C21 1_555 1_555
H17 C21 1_555 1_555
C22 C21 1_555 1_555
H18 C22 1_555 1_555
H19 C22 1_555 1_555
C23 O6 1_555 1_555
H20 C23 1_555 1_555
H21 C23 1_555 1_555
H22 C23 1_555 1_555
C24 C13 1_555 1_555
C25 C24 1_555 1_555
C26 C25 1_555 1_555
C27 C26 1_555 1_555
H23 C27 1_555 1_555
C28 C27 1_555 1_555
H24 C28 1_555 1_555
C29 C28 1_555 1_555
C30 C29 1_555 1_555
H25 C30 1_555 1_555
C31 C26 1_555 1_555
H26 C31 1_555 1_555
C32 C29 1_555 1_555
C33 O8 1_555 1_555
H27 C33 1_555 1_555
H28 C33 1_555 1_555
C34 S1 1_555 1_555
H29 C34 1_555 1_555
H30 C34 1_555 1_555
S1B S2B 1_555 1_555
S2B C8B 1_555 1_555
O1B C6B 1_555 1_555
O2B C6B 1_555 1_555
C1B H1B 1_555 1_555
C2B C1B 1_555 1_555
H2B C2B 1_555 1_555
C3B C2B 1_555 1_555
C4B C3B 1_555 1_555
H3B C4B 1_555 1_555
C5B C4B 1_555 1_555
H4B C5B 1_555 1_555
C6B C3B 1_555 1_555
C7B O2B 1_555 1_555
H5B C7B 1_555 1_555
H6B C7B 1_555 1_555
C8B C7B 1_555 1_555
H7B C8B 1_555 1_555
H8B C8B 1_555 1_555
O3B C18B 1_555 1_555
O4B C18B 1_555 1_555
O5B C20B 1_555 1_555
O6B C22B 1_555 1_555
O7B C32B 1_555 1_555
O8B C32B 1_555 1_555
C9B C10B 1_555 1_555
C10B H9B 1_555 1_555
C11B C10B 1_555 1_555
C12B C11B 1_555 1_555
H10B C12B 1_555 1_555
C13B C12B 1_555 1_555
C14B C9B 1_555 1_555
H11B C14B 1_555 1_555
C15B C9B 1_555 1_555
C16B C15B 1_555 1_555
C17B C1B 1_555 1_555
C18B C11B 1_555 1_555
C19B O4B 1_555 1_555
H12B C19B 1_555 1_555
H13B C19B 1_555 1_555
C20B C19B 1_555 1_555
H14B C20B 1_555 1_555
H15B C20B 1_555 1_555
C21B O5B 1_555 1_555
H16B C21B 1_555 1_555
H17B C21B 1_555 1_555
C22B C21B 1_555 1_555
H18B C22B 1_555 1_555
H19B C22B 1_555 1_555
C23B O6B 1_555 1_555
H20B C23B 1_555 1_555
H21B C23B 1_555 1_555
H22B C23B 1_555 1_555
C24B C13B 1_555 1_555
C25B C24B 1_555 1_555
C26B C25B 1_555 1_555
C27B C26B 1_555 1_555
H23B C27B 1_555 1_555
C28B C27B 1_555 1_555
H24B C28B 1_555 1_555
C29B C28B 1_555 1_555
C30B C29B 1_555 1_555
H25B C30B 1_555 1_555
C31B C26B 1_555 1_555
H26B C31B 1_555 1_555
C32B C29B 1_555 1_555
C33B C34 1_555 1_555
H27B C33B 1_555 1_555
H28B C33B 1_555 1_555
C34B C33 1_555 1_555
H29B C34B 1_555 1_555
H30B C34B 1_555 1_555
C5 C17 1_555 1_555
C13 C14 1_555 1_555
C16 C17 1_555 1_555
C30 C31 1_555 1_555
S1B C34B 1_555 1_555
C5B C17B 1_555 1_555
O8B C33B 1_555 1_555
C13B C14B 1_555 1_555
C16B C17B 1_555 1_555
C30B C31B 1_555 1_555

#END
