
#######################################################################
#
#                 Cambridge Crystallographic Data Centre
#                                CCDC 
#
#######################################################################
#
# If this CIF has been generated from an entry in the Cambridge 
# Structural Database, then it will include bibliographic, chemical, 
# crystal, experimental, refinement or atomic coordinate data resulting 
# from the CCDC's data processing and validation procedures.
#
#######################################################################

data_KADCEZ
_chemical_formula_moiety         'C11 H8 O1 S5'
_chemical_name_systematic        
4-Benzoylthiolato-5-methylthiolato-1,2-dithiole-3-thione
_symmetry_cell_setting           monoclinic
_symmetry_space_group_name_H-M   'P 21/c'
_symmetry_Int_Tables_number      14
_space_group_name_Hall           '-P 2ybc'
loop_
_symmetry_equiv_pos_site_id
_symmetry_equiv_pos_as_xyz
1 x,y,z
2 -x,1/2+y,1/2-z
3 -x,-y,-z
4 x,1/2-y,1/2+z
_cell_length_a                   12.3633(5)
_cell_length_b                   6.9736(3)
_cell_length_c                   15.8021(5)
_cell_angle_alpha                90
_cell_angle_beta                 109.918(2)
_cell_angle_gamma                90
_cell_volume                     1280.91
_exptl_crystal_colour            yellow
_exptl_crystal_description       plate
_chemical_melting_point          '201-203 deg.C'
_cell_formula_units_Z            4
_exptl_crystal_recrystallization_method chloroform/methanol
loop_
_atom_site_label
_atom_site_type_symbol
_atom_site_fract_x
_atom_site_fract_y
_atom_site_fract_z
S1 S 0.60294(4) 0.70408(7) 0.04158(3)
S2 S 0.50646(4) 0.72980(8) -0.09333(3)
S3 S 0.26431(5) 0.81985(8) -0.17397(3)
S4 S 0.26503(5) 0.87020(8) 0.04003(4)
S5 S 0.50978(5) 0.77427(8) 0.19020(3)
O1 O 0.27510(13) 0.4939(2) 0.06484(10)
C1 C 0.37690(18) 0.7909(3) -0.08045(14)
C2 C 0.38543(18) 0.8051(3) 0.01144(13)
C3 C 0.49019(18) 0.7665(3) 0.07710(13)
C4 C 0.22267(18) 0.6375(3) 0.06871(13)
C5 C 0.11863(18) 0.6392(3) 0.09593(13)
C6 C 0.07908(19) 0.4629(4) 0.11474(14)
H1 H 0.1181 0.3485 0.1097
C7 C -0.0172(2) 0.4537(4) 0.14087(15)
H2 H -0.0439 0.3335 0.1541
C8 C -0.0740(2) 0.6210(5) 0.14751(16)
H3 H -0.1398 0.6147 0.1655
C9 C -0.0365(2) 0.7973(4) 0.12832(16)
H4 H -0.0765 0.9110 0.1327
C10 C 0.0605(2) 0.8067(4) 0.10247(15)
H5 H 0.0869 0.9272 0.0893
C11 C 0.65774(19) 0.7002(3) 0.24167(14)
H6 H 0.6673 0.5706 0.2213
H7 H 0.6783 0.7006 0.3073
H8 H 0.7079 0.7892 0.2243
loop_
_geom_bond_atom_site_label_1
_geom_bond_atom_site_label_2
_geom_bond_site_symmetry_1
_geom_bond_site_symmetry_2
S1 S2 1_555 1_555
S2 C1 1_555 1_555
S3 C1 1_555 1_555
S4 C2 1_555 1_555
S5 C3 1_555 1_555
O1 C4 1_555 1_555
C1 C2 1_555 1_555
C2 C3 1_555 1_555
C3 S1 1_555 1_555
C4 S4 1_555 1_555
C5 C4 1_555 1_555
C6 C5 1_555 1_555
H1 C6 1_555 1_555
C7 C6 1_555 1_555
H2 C7 1_555 1_555
C8 C7 1_555 1_555
H3 C8 1_555 1_555
C9 C8 1_555 1_555
H4 C9 1_555 1_555
C10 C5 1_555 1_555
H5 C10 1_555 1_555
C11 S5 1_555 1_555
H6 C11 1_555 1_555
H7 C11 1_555 1_555
H8 C11 1_555 1_555
C9 C10 1_555 1_555

#END
