
#######################################################################
#
#                 Cambridge Crystallographic Data Centre
#                                CCDC 
#
#######################################################################
#
# If this CIF has been generated from an entry in the Cambridge 
# Structural Database, then it will include bibliographic, chemical, 
# crystal, experimental, refinement or atomic coordinate data resulting 
# from the CCDC's data processing and validation procedures.
#
#######################################################################

data_KADDEA
_chemical_formula_moiety         'C13 H12 N4 O2'
_chemical_name_systematic        
'4-Methoxybenzaldehyde (pyrazin-2-ylcarbonyl)hydrazone'
_symmetry_cell_setting           triclinic
_symmetry_space_group_name_H-M   'P 1'
_symmetry_Int_Tables_number      1
_space_group_name_Hall           'P 1'
loop_
_symmetry_equiv_pos_site_id
_symmetry_equiv_pos_as_xyz
1 x,y,z
_cell_length_a                   6.0482(3)
_cell_length_b                   6.8837(3)
_cell_length_c                   7.7232(4)
_cell_angle_alpha                86.784(4)
_cell_angle_beta                 68.183(2)
_cell_angle_gamma                81.196(3)
_cell_volume                     295
_exptl_crystal_colour            colorless
_exptl_crystal_description       plate
_chemical_melting_point          '463-464 K'
_cell_formula_units_Z            1
_exptl_crystal_recrystallization_method ethanol
loop_
_atom_site_label
_atom_site_type_symbol
_atom_site_fract_x
_atom_site_fract_y
_atom_site_fract_z
O1 O 0.0900(3) 0.6695(3) 0.3825(3)
O2 O 0.7423(3) -0.2970(2) 0.8893(2)
N1 N 0.1235(4) 1.2284(3) 0.1458(3)
N2 N 0.4958(4) 1.0222(3) 0.2465(3)
N3 N 0.4506(4) 0.6709(3) 0.4145(3)
H1 H 0.5720 0.7366 0.3930
N4 N 0.4517(4) 0.4896(3) 0.5015(3)
C1 C 0.2930(5) 0.9484(4) 0.2737(4)
C2 C 0.1082(4) 1.0496(4) 0.2253(3)
H2 H -0.0327 0.9913 0.2488
C3 C 0.3260(5) 1.3007(4) 0.1172(4)
H3 H 0.3453 1.4259 0.0598
C4 C 0.5112(5) 1.2000(4) 0.1681(3)
H4 H 0.6510 1.2593 0.1466
C5 C 0.2656(4) 0.7489(3) 0.3618(3)
C6 C 0.6376(4) 0.4332(3) 0.5439(3)
H5 H 0.7584 0.5160 0.5165
C7 C 0.6660(5) 0.2434(3) 0.6336(3)
C8 C 0.5043(4) 0.1082(4) 0.6637(3)
H6 H 0.3708 0.1400 0.6256
C9 C 0.5361(4) -0.0695(4) 0.7474(3)
H7 H 0.4249 -0.1596 0.7662
C10 C 0.7306(4) -0.1187(3) 0.8051(3)
C11 C 0.8948(5) 0.0132(4) 0.7753(4)
H8 H 1.0283 -0.0191 0.8134
C12 C 0.8615(4) 0.1928(3) 0.6892(3)
H9 H 0.9740 0.2822 0.6681
C13 C 0.9467(5) -0.3607(4) 0.9402(4)
H10 H 1.0937 -0.3704 0.8281
H11 H 0.9316 -0.4897 1.0005
H12 H 0.9546 -0.2656 1.0268
loop_
_geom_bond_atom_site_label_1
_geom_bond_atom_site_label_2
_geom_bond_site_symmetry_1
_geom_bond_site_symmetry_2
O1 C5 1_555 1_555
O2 C10 1_555 1_555
N1 C2 1_555 1_555
N2 C1 1_555 1_555
N3 H1 1_555 1_555
N4 N3 1_555 1_555
C1 C2 1_555 1_555
C2 H2 1_555 1_555
C3 N1 1_555 1_555
H3 C3 1_555 1_555
C4 N2 1_555 1_555
H4 C4 1_555 1_555
C5 N3 1_555 1_555
C6 N4 1_555 1_555
H5 C6 1_555 1_555
C7 C6 1_555 1_555
C8 C7 1_555 1_555
H6 C8 1_555 1_555
C9 C8 1_555 1_555
H7 C9 1_555 1_555
C10 C9 1_555 1_555
C11 C10 1_555 1_555
H8 C11 1_555 1_555
C12 C7 1_555 1_555
H9 C12 1_555 1_555
C13 O2 1_555 1_555
H10 C13 1_555 1_555
H11 C13 1_555 1_555
H12 C13 1_555 1_555
C1 C5 1_555 1_555
C3 C4 1_555 1_555
C11 C12 1_555 1_555

#END
