
#######################################################################
#
#                 Cambridge Crystallographic Data Centre
#                                CCDC 
#
#######################################################################
#
# If this CIF has been generated from an entry in the Cambridge 
# Structural Database, then it will include bibliographic, chemical, 
# crystal, experimental, refinement or atomic coordinate data resulting 
# from the CCDC's data processing and validation procedures.
#
#######################################################################

data_KADHAY
_chemical_formula_moiety         'C26 H43 N1 O5'
_chemical_name_systematic        
4-(2-(1-t-Butoxycarbonyl-6-methyl-2-piperidinyl)-1-hydroxyethyl)-3-methylperhydronaphtho(2,3-c)furanone
_symmetry_cell_setting           orthorhombic
_symmetry_space_group_name_H-M   'P 21 21 21'
_symmetry_Int_Tables_number      19
_space_group_name_Hall           'P 2ac 2ab'
loop_
_symmetry_equiv_pos_site_id
_symmetry_equiv_pos_as_xyz
1 x,y,z
2 1/2-x,-y,1/2+z
3 1/2+x,1/2-y,-z
4 -x,1/2+y,1/2-z
_cell_length_a                   16.895(3)
_cell_length_b                   25.817(5)
_cell_length_c                   5.901(1)
_cell_angle_alpha                90
_cell_angle_beta                 90
_cell_angle_gamma                90
_cell_volume                     2573.89
_cell_formula_units_Z            4
loop_
_atom_site_label
_atom_site_type_symbol
_atom_site_fract_x
_atom_site_fract_y
_atom_site_fract_z
C1 C 0.4892(4) 0.5504(2) -0.3118(12)
O1 O 0.4515(3) 0.5619(1) -0.1167(7)
C2 C 0.4445(4) 0.5161(2) 0.0283(11)
C3 C 0.4581(3) 0.4708(2) -0.1411(10)
C4 C 0.4866(3) 0.4178(2) -0.0534(9)
C5 C 0.5730(3) 0.4208(2) 0.0357(10)
C6 C 0.6019(3) 0.3685(2) 0.1292(11)
C7 C 0.6889(4) 0.3700(3) 0.2002(13)
C8 C 0.7426(4) 0.3882(3) 0.0080(15)
C9 C 0.7148(4) 0.4409(3) -0.0796(12)
C10 C 0.6278(3) 0.4401(2) -0.1540(11)
C11 C 0.6018(4) 0.4937(2) -0.2309(11)
C12 C 0.5157(3) 0.4955(2) -0.3081(10)
O2 O 0.5008(3) 0.5840(2) -0.4502(9)
C13 C 0.3651(4) 0.5199(3) 0.1419(14)
C14 C 0.4313(3) 0.3895(2) 0.1088(9)
C15 C 0.3456(3) 0.3870(2) 0.0311(10)
O3 O 0.4382(2) 0.4130(1) 0.3299(6)
N1 N 0.3007(2) 0.3057(2) 0.2313(8)
C16 C 0.2890(3) 0.3620(2) 0.2022(10)
C17 C 0.2022(3) 0.3718(2) 0.1422(11)
C18 C 0.1761(4) 0.3441(2) -0.0751(13)
C19 C 0.2198(4) 0.2929(2) -0.1096(10)
C20 C 0.2484(3) 0.2689(2) 0.1109(9)
C21 C 0.1804(4) 0.2504(2) 0.2607(11)
C22 C 0.3548(3) 0.2890(2) 0.3840(10)
O4 O 0.3958(2) 0.3176(2) 0.5011(7)
O5 O 0.3569(2) 0.2372(2) 0.3937(7)
C23 C 0.4243(3) 0.2086(2) 0.4933(11)
C24 C 0.4257(5) 0.2167(3) 0.7505(12)
C25 C 0.4045(5) 0.1533(3) 0.4329(14)
C26 C 0.4999(4) 0.2267(4) 0.3845(13)
H1 H 0.4845 0.5113 0.1629
H2 H 0.4035 0.4583 -0.2058
H3 H 0.4855 0.3939 -0.1972
H4 H 0.5743 0.4472 0.1712
H5 H 0.5948 0.3402 0.0031
H6 H 0.5674 0.3587 0.2709
H7 H 0.7063 0.3326 0.2497
H8 H 0.6950 0.3955 0.3377
H9 H 0.7407 0.3611 -0.1247
H10 H 0.8009 0.3915 0.0681
H11 H 0.7500 0.4515 -0.2188
H12 H 0.7215 0.4684 0.0501
H13 H 0.6234 0.4141 -0.2902
H14 H 0.6379 0.5053 -0.3665
H15 H 0.6090 0.5196 -0.0952
H16 H 0.5149 0.4761 -0.4645
H17 H 0.3645 0.5521 0.2507
H18 H 0.3208 0.5242 0.0185
H19 H 0.3545 0.4861 0.2359
H20 H 0.4492 0.3506 0.1139
H21 H 0.3433 0.3655 -0.1197
H22 H 0.3261 0.4249 -0.0002
H23 H 0.4250 0.3847 0.4256
H24 H 0.3030 0.3801 0.3564
H25 H 0.1939 0.4118 0.1204
H26 H 0.1668 0.3587 0.2767
H27 H 0.1876 0.3683 -0.2141
H28 H 0.1151 0.3366 -0.0654
H29 H 0.2690 0.2996 -0.2141
H30 H 0.1813 0.2667 -0.1895
H31 H 0.2811 0.2356 0.0706
H32 H 0.2033 0.2342 0.4102
H33 H 0.1438 0.2819 0.3014
H34 H 0.1473 0.2223 0.1736
H35 H 0.4736 0.1963 0.8205
H36 H 0.4318 0.2563 0.7862
H37 H 0.3726 0.2030 0.8210
H38 H 0.4488 0.1286 0.4955
H39 H 0.3498 0.1432 0.5052
H40 H 0.4011 0.1496 0.2560
H41 H 0.5479 0.2065 0.4547
H42 H 0.4975 0.2197 0.2094
H43 H 0.5071 0.2666 0.4134
loop_
_geom_bond_atom_site_label_1
_geom_bond_atom_site_label_2
_geom_bond_site_symmetry_1
_geom_bond_site_symmetry_2
C1 O1 1_555 1_555
O1 C2 1_555 1_555
C2 C3 1_555 1_555
C3 C4 1_555 1_555
C4 C5 1_555 1_555
C5 C6 1_555 1_555
C6 C7 1_555 1_555
C7 C8 1_555 1_555
C8 C9 1_555 1_555
C9 C10 1_555 1_555
C10 C5 1_555 1_555
C11 C10 1_555 1_555
C12 C1 1_555 1_555
O2 C1 1_555 1_555
C13 C2 1_555 1_555
C14 C4 1_555 1_555
C15 C14 1_555 1_555
O3 C14 1_555 1_555
N1 C16 1_555 1_555
C16 C15 1_555 1_555
C17 C16 1_555 1_555
C18 C17 1_555 1_555
C19 C18 1_555 1_555
C20 N1 1_555 1_555
C21 C20 1_555 1_555
C22 N1 1_555 1_555
O4 C22 1_555 1_555
O5 C22 1_555 1_555
C23 O5 1_555 1_555
C24 C23 1_555 1_555
C25 C23 1_555 1_555
C26 C23 1_555 1_555
H1 C2 1_555 1_555
H2 C3 1_555 1_555
H3 C4 1_555 1_555
H4 C5 1_555 1_555
H5 C6 1_555 1_555
H6 C6 1_555 1_555
H7 C7 1_555 1_555
H8 C7 1_555 1_555
H9 C8 1_555 1_555
H10 C8 1_555 1_555
H11 C9 1_555 1_555
H12 C9 1_555 1_555
H13 C10 1_555 1_555
H14 C11 1_555 1_555
H15 C11 1_555 1_555
H16 C12 1_555 1_555
H17 C13 1_555 1_555
H18 C13 1_555 1_555
H19 C13 1_555 1_555
H20 C14 1_555 1_555
H21 C15 1_555 1_555
H22 C15 1_555 1_555
H23 O3 1_555 1_555
H24 C16 1_555 1_555
H25 C17 1_555 1_555
H26 C17 1_555 1_555
H27 C18 1_555 1_555
H28 C18 1_555 1_555
H29 C19 1_555 1_555
H30 C19 1_555 1_555
H31 C20 1_555 1_555
H32 C21 1_555 1_555
H33 C21 1_555 1_555
H34 C21 1_555 1_555
H35 C24 1_555 1_555
H36 C24 1_555 1_555
H37 C24 1_555 1_555
H38 C25 1_555 1_555
H39 C25 1_555 1_555
H40 C25 1_555 1_555
H41 C26 1_555 1_555
H42 C26 1_555 1_555
H43 C26 1_555 1_555
C3 C12 1_555 1_555
C11 C12 1_555 1_555
C19 C20 1_555 1_555

#END
