
#######################################################################
#
#                 Cambridge Crystallographic Data Centre
#                                CCDC 
#
#######################################################################
#
# If this CIF has been generated from an entry in the Cambridge 
# Structural Database, then it will include bibliographic, chemical, 
# crystal, experimental, refinement or atomic coordinate data resulting 
# from the CCDC's data processing and validation procedures.
#
#######################################################################

data_KADMUY
_chemical_formula_moiety         'C30 H38 N2 O2,2(C2 H4 O2)'
_chemical_name_systematic        
'2,5-bis(2,6-Di-isopropylanilino)-p-benzoquinone acetic acid solvate'
_symmetry_cell_setting           triclinic
_symmetry_space_group_name_H-M   'P -1'
_symmetry_Int_Tables_number      2
_space_group_name_Hall           '-P 1'
loop_
_symmetry_equiv_pos_site_id
_symmetry_equiv_pos_as_xyz
1 x,y,z
2 -x,-y,-z
_cell_length_a                   8.417(3)
_cell_length_b                   8.827(3)
_cell_length_c                   12.866(4)
_cell_angle_alpha                75.39(3)
_cell_angle_beta                 80.48(3)
_cell_angle_gamma                67.92(3)
_cell_volume                     854.496
_exptl_crystal_colour            red
_exptl_crystal_description       block
_cell_formula_units_Z            1
loop_
_atom_site_label
_atom_site_type_symbol
_atom_site_fract_x
_atom_site_fract_y
_atom_site_fract_z
O1 O 0.2276(2) 1.0259(2) -0.16857(13)
N1 N -0.0806(2) 1.2651(2) -0.17304(14)
H2 H 0.0065 1.2707 -0.2174
C1 C -0.2470(3) 1.3925(3) -0.19716(19)
C2 C -0.3481(4) 1.3659(3) -0.2605(2)
C3 C -0.5079(4) 1.4913(3) -0.2826(2)
H3 H -0.5799 1.4762 -0.3235
C4 C -0.5598(4) 1.6359(3) -0.2448(2)
H4 H -0.6661 1.7178 -0.2606
C5 C -0.4561(4) 1.6608(3) -0.1837(2)
H5 H -0.4926 1.7599 -0.1592
C6 C -0.2972(3) 1.5398(3) -0.15809(19)
C7 C -0.2930(4) 1.2083(3) -0.3048(2)
H6 H -0.1778 1.1375 -0.2823
C8 C -0.2829(4) 1.2468(4) -0.4290(2)
H7 H -0.2063 1.3077 -0.4572
H8 H -0.2407 1.1440 -0.4541
H9 H -0.3953 1.3126 -0.4531
C9 C -0.4143(4) 1.1123(4) -0.2564(2)
H10 H -0.5308 1.1851 -0.2675
H11 H -0.3869 1.0196 -0.2905
H12 H -0.4016 1.0718 -0.1805
C10 C -0.1818(3) 1.5712(3) -0.09411(19)
H13 H -0.1096 1.4619 -0.0559
C11 C -0.0601(3) 1.6531(4) -0.1690(2)
H14 H -0.1267 1.7585 -0.2105
H15 H 0.0126 1.6706 -0.1265
H16 H 0.0097 1.5811 -0.2167
C12 C -0.2795(4) 1.6733(3) -0.0090(2)
H17 H -0.3514 1.6187 0.0384
H18 H -0.1990 1.6827 0.0317
H19 H -0.3494 1.7829 -0.0437
C13 C -0.0532(3) 1.1395(3) -0.08640(18)
C14 C 0.1719(3) 0.8773(3) 0.00304(17)
H20 H 0.2837 0.8007 0.0058
C15 C 0.1274(3) 1.0104(3) -0.08815(18)
C14A C -0.1719(3) 1.1227(3) -0.00304(17)
H20A H -0.2837 1.1993 -0.0058
C15A C -0.1274(3) 0.9896(3) 0.08815(18)
O1A O -0.2276(2) 0.9741(2) 0.16857(13)
C13A C 0.0532(3) 0.8605(3) 0.08640(18)
N1A N 0.0806(2) 0.7349(2) 0.17304(14)
H2A H -0.0065 0.7293 0.2174
C1A C 0.2470(3) 0.6075(3) 0.19716(19)
C2A C 0.3481(4) 0.6341(3) 0.2605(2)
C3A C 0.5079(4) 0.5087(3) 0.2826(2)
H3A H 0.5799 0.5238 0.3235
C4A C 0.5598(4) 0.3641(3) 0.2448(2)
H4A H 0.6661 0.2822 0.2606
C5A C 0.4561(4) 0.3392(3) 0.1837(2)
H5A H 0.4926 0.2401 0.1592
C6A C 0.2972(3) 0.4602(3) 0.15809(19)
C10A C 0.1818(3) 0.4288(3) 0.09411(19)
H13A H 0.1096 0.5381 0.0559
C11A C 0.0601(3) 0.3469(4) 0.1690(2)
H14A H 0.1267 0.2415 0.2105
H15A H -0.0126 0.3294 0.1265
H16A H -0.0097 0.4189 0.2167
C12A C 0.2795(4) 0.3267(3) 0.0090(2)
H17A H 0.3514 0.3813 -0.0384
H18A H 0.1990 0.3173 -0.0317
H19A H 0.3494 0.2171 0.0437
C7A C 0.2930(4) 0.7917(3) 0.3048(2)
H6A H 0.1778 0.8625 0.2823
C8A C 0.2829(4) 0.7532(4) 0.4290(2)
H7A H 0.2063 0.6923 0.4572
H8A H 0.2407 0.8560 0.4541
H9A H 0.3953 0.6874 0.4531
C9A C 0.4143(4) 0.8877(4) 0.2564(2)
H10A H 0.5308 0.8149 0.2675
H11A H 0.3869 0.9804 0.2905
H12A H 0.4016 0.9282 0.1805
O2 O -0.2576(3) 0.9246(3) 0.38959(16)
H1 H -0.2466 0.9402 0.3236
O3 O -0.1240(3) 0.6579(2) 0.37692(15)
C16 C -0.1924(5) 0.7588(4) 0.4318(3)
C17 C -0.2047(5) 0.7204(4) 0.5501(2)
H21 H -0.1175 0.6151 0.5754
H22 H -0.3161 0.7144 0.5769
H23 H -0.1885 0.8066 0.5754
loop_
_geom_bond_atom_site_label_1
_geom_bond_atom_site_label_2
_geom_bond_site_symmetry_1
_geom_bond_site_symmetry_2
O1 C15 1_555 1_555
O2 H1 1_555 1_555
O3 C16 1_555 1_555
N1 H2 1_555 1_555
C1 N1 1_555 1_555
C2 C1 1_555 1_555
C3 C2 1_555 1_555
H3 C3 1_555 1_555
C4 C3 1_555 1_555
H4 C4 1_555 1_555
C5 C4 1_555 1_555
H5 C5 1_555 1_555
C6 C1 1_555 1_555
C7 C2 1_555 1_555
H6 C7 1_555 1_555
C8 C7 1_555 1_555
H7 C8 1_555 1_555
H8 C8 1_555 1_555
H9 C8 1_555 1_555
C9 C7 1_555 1_555
H10 C9 1_555 1_555
H11 C9 1_555 1_555
H12 C9 1_555 1_555
C10 C6 1_555 1_555
H13 C10 1_555 1_555
C11 C10 1_555 1_555
H14 C11 1_555 1_555
H15 C11 1_555 1_555
H16 C11 1_555 1_555
C12 C10 1_555 1_555
H17 C12 1_555 1_555
H18 C12 1_555 1_555
H19 C12 1_555 1_555
C13 N1 1_555 1_555
C14 H20 1_555 1_555
C15 C13 1_555 1_555
C16 O2 1_555 1_555
C17 C16 1_555 1_555
H21 C17 1_555 1_555
H22 C17 1_555 1_555
H23 C17 1_555 1_555
C14A C13 1_555 1_555
H20A C14A 1_555 1_555
C15A C14A 1_555 1_555
O1A C15A 1_555 1_555
C13A C14 1_555 1_555
N1A C13A 1_555 1_555
H2A N1A 1_555 1_555
C1A N1A 1_555 1_555
C2A C1A 1_555 1_555
C3A C2A 1_555 1_555
H3A C3A 1_555 1_555
C4A C3A 1_555 1_555
H4A C4A 1_555 1_555
C5A C4A 1_555 1_555
H5A C5A 1_555 1_555
C6A C1A 1_555 1_555
C10A C6A 1_555 1_555
H13A C10A 1_555 1_555
C11A C10A 1_555 1_555
H14A C11A 1_555 1_555
H15A C11A 1_555 1_555
H16A C11A 1_555 1_555
C12A C10A 1_555 1_555
H17A C12A 1_555 1_555
H18A C12A 1_555 1_555
H19A C12A 1_555 1_555
C7A C2A 1_555 1_555
H6A C7A 1_555 1_555
C8A C7A 1_555 1_555
H7A C8A 1_555 1_555
H8A C8A 1_555 1_555
H9A C8A 1_555 1_555
C9A C7A 1_555 1_555
H10A C9A 1_555 1_555
H11A C9A 1_555 1_555
H12A C9A 1_555 1_555
C5 C6 1_555 1_555
C14 C15 1_555 1_555
C15A C13A 1_555 1_555
C5A C6A 1_555 1_555

#END
