
#######################################################################
#
#                 Cambridge Crystallographic Data Centre
#                                CCDC 
#
#######################################################################
#
# If this CIF has been generated from an entry in the Cambridge 
# Structural Database, then it will include bibliographic, chemical, 
# crystal, experimental, refinement or atomic coordinate data resulting 
# from the CCDC's data processing and validation procedures.
#
#######################################################################

data_KADPAH
_chemical_formula_moiety         'C37 H33 N3 O4'
_chemical_name_systematic        
2'-((4-Benzyl-2-oxo-1,3-oxazolidin-3-yl)carbonyl)-1,1'-diphenyl-1',2',5',6',7',7a'-hexahydrospiro(indole-3,3'-pyrrolizin)-2(1H)-one
_symmetry_cell_setting           monoclinic
_symmetry_space_group_name_H-M   'P 21'
_symmetry_Int_Tables_number      4
_space_group_name_Hall           'P 2yb'
loop_
_symmetry_equiv_pos_site_id
_symmetry_equiv_pos_as_xyz
1 x,y,z
2 -x,1/2+y,-z
_cell_length_a                   14.265(2)
_cell_length_b                   10.241(1)
_cell_length_c                   10.583(1)
_cell_angle_alpha                90
_cell_angle_beta                 101.60(1)
_cell_angle_gamma                90
_cell_volume                     1514.47
_exptl_crystal_colour            colorless
_chemical_melting_point          468-469K
_cell_formula_units_Z            2
_exptl_crystal_recrystallization_method ether/hexane
loop_
_atom_site_label
_atom_site_type_symbol
_atom_site_fract_x
_atom_site_fract_y
_atom_site_fract_z
N1 N 0.2406(2) 0.4453(3) 0.2484(3)
C1 C 0.3044(3) 0.3987(4) 0.1748(3)
O1 O 0.3382(2) 0.5000 0.1167(3)
C2 C 0.3007(4) 0.6211(5) 0.1549(4)
C3 C 0.2242(3) 0.5873(4) 0.2299(4)
O2 O 0.3268(2) 0.2881(3) 0.1594(2)
C4 C 0.1818(2) 0.3695(4) 0.3094(3)
O3 O 0.1135(2) 0.4208(3) 0.3408(3)
C5 C 0.2310(3) 0.6654(4) 0.3548(4)
C6 C 0.3240(3) 0.6512(4) 0.4515(4)
C7 C 0.3402(3) 0.5432(4) 0.5314(4)
C8 C 0.4263(4) 0.5282(5) 0.6185(4)
C9 C 0.4964(3) 0.6228(5) 0.6278(4)
C10 C 0.4806(3) 0.7318(5) 0.5509(4)
C11 C 0.3950(3) 0.7449(4) 0.4630(4)
C12 C 0.2073(2) 0.2274(4) 0.3354(3)
C13 C 0.1528(2) 0.1339(3) 0.2263(3)
N2 N 0.0881(2) 0.0527(3) 0.2872(2)
C14 C -0.0094(3) 0.1063(5) 0.2841(4)
C15 C -0.0379(3) 0.0449(7) 0.4011(4)
C16 C 0.0525(3) 0.0060(6) 0.4922(4)
C17 C 0.1339(3) 0.0429(4) 0.4250(3)
C18 C 0.1770(3) 0.1795(4) 0.4602(3)
C19 C 0.2578(3) 0.1799(4) 0.5789(3)
C20 C 0.2538(3) 0.2599(5) 0.6829(3)
C21 C 0.3286(4) 0.2572(6) 0.7928(4)
C22 C 0.4055(4) 0.1767(6) 0.7968(4)
C23 C 0.4102(4) 0.0983(6) 0.6927(5)
C24 C 0.3372(3) 0.0986(5) 0.5849(4)
C25 C 0.2246(2) 0.0365(4) 0.1878(3)
N3 N 0.2084(2) 0.0269(3) 0.0564(2)
C26 C 0.1375(2) 0.1193(4) 0.0002(3)
C27 C 0.1038(3) 0.1415(5) -0.1293(3)
C28 C 0.0364(3) 0.2403(5) -0.1618(4)
C29 C 0.0045(3) 0.3122(5) -0.0701(4)
C30 C 0.0393(3) 0.2873(5) 0.0609(3)
C31 C 0.1050(2) 0.1879(4) 0.0963(3)
O4 O 0.2842(2) -0.0257(3) 0.2621(2)
C32 C 0.2629(3) -0.0531(4) -0.0125(3)
C33 C 0.3609(3) -0.0484(5) 0.0189(4)
C34 C 0.4139(3) -0.1284(6) -0.0479(5)
C35 C 0.3675(4) -0.2087(7) -0.1439(4)
C36 C 0.2710(5) -0.2126(6) -0.1738(4)
C37 C 0.2171(4) -0.1353(5) -0.1089(4)
H1 H 0.2710 0.6762 0.0730
H2 H 0.3555 0.6749 0.2133
H3 H 0.1543 0.6112 0.1828
H4 H 0.1753 0.6347 0.3993
H5 H 0.2219 0.7646 0.3303
H6 H 0.2893 0.4752 0.5264
H7 H 0.4376 0.4488 0.6746
H8 H 0.5585 0.6119 0.6904
H9 H 0.5306 0.8013 0.5583
H10 H 0.3843 0.8240 0.4065
H11 H 0.2816 0.2233 0.3414
H12 H -0.0568 0.0789 0.1990
H13 H -0.0076 0.2085 0.2917
H14 H -0.0807 -0.0377 0.3733
H15 H -0.0760 0.1126 0.4457
H16 H 0.0529 -0.0949 0.5098
H17 H 0.0590 0.0566 0.5798
H18 H 0.1888 -0.0262 0.4508
H19 H 0.1274 0.2433 0.4885
H20 H 0.1980 0.3196 0.6803
H21 H 0.3253 0.3146 0.8682
H22 H 0.4581 0.1748 0.8750
H23 H 0.4670 0.0405 0.6951
H24 H 0.3412 0.0401 0.5105
H25 H 0.1267 0.0890 -0.1968
H26 H 0.0105 0.2593 -0.2550
H27 H -0.0439 0.3828 -0.0967
H28 H 0.0169 0.3407 0.1282
H29 H 0.3940 0.0113 0.0885
H30 H 0.4854 -0.1270 -0.0256
H31 H 0.4055 -0.2650 -0.1923
H32 H 0.2382 -0.2722 -0.2438
H33 H 0.1456 -0.1387 -0.1314
loop_
_geom_bond_atom_site_label_1
_geom_bond_atom_site_label_2
_geom_bond_site_symmetry_1
_geom_bond_site_symmetry_2
N1 C1 1_555 1_555
C1 O1 1_555 1_555
O1 C2 1_555 1_555
C2 C3 1_555 1_555
C3 N1 1_555 1_555
O2 C1 1_555 1_555
C4 N1 1_555 1_555
O3 C4 1_555 1_555
C5 C3 1_555 1_555
C6 C5 1_555 1_555
C7 C6 1_555 1_555
C8 C7 1_555 1_555
C9 C8 1_555 1_555
C10 C9 1_555 1_555
C11 C6 1_555 1_555
C12 C4 1_555 1_555
C13 C12 1_555 1_555
N2 C13 1_555 1_555
C14 N2 1_555 1_555
C15 C14 1_555 1_555
C16 C15 1_555 1_555
C17 N2 1_555 1_555
C18 C12 1_555 1_555
C19 C18 1_555 1_555
C20 C19 1_555 1_555
C21 C20 1_555 1_555
C22 C21 1_555 1_555
C23 C22 1_555 1_555
C24 C19 1_555 1_555
C25 C13 1_555 1_555
N3 C25 1_555 1_555
C26 N3 1_555 1_555
C27 C26 1_555 1_555
C28 C27 1_555 1_555
C29 C28 1_555 1_555
C30 C29 1_555 1_555
C31 C13 1_555 1_555
O4 C25 1_555 1_555
C32 N3 1_555 1_555
C33 C32 1_555 1_555
C34 C33 1_555 1_555
C35 C34 1_555 1_555
C36 C35 1_555 1_555
C37 C32 1_555 1_555
H1 C2 1_555 1_555
H2 C2 1_555 1_555
H3 C3 1_555 1_555
H4 C5 1_555 1_555
H5 C5 1_555 1_555
H6 C7 1_555 1_555
H7 C8 1_555 1_555
H8 C9 1_555 1_555
H9 C10 1_555 1_555
H10 C11 1_555 1_555
H11 C12 1_555 1_555
H12 C14 1_555 1_555
H13 C14 1_555 1_555
H14 C15 1_555 1_555
H15 C15 1_555 1_555
H16 C16 1_555 1_555
H17 C16 1_555 1_555
H18 C17 1_555 1_555
H19 C18 1_555 1_555
H20 C20 1_555 1_555
H21 C21 1_555 1_555
H22 C22 1_555 1_555
H23 C23 1_555 1_555
H24 C24 1_555 1_555
H25 C27 1_555 1_555
H26 C28 1_555 1_555
H27 C29 1_555 1_555
H28 C30 1_555 1_555
H29 C33 1_555 1_555
H30 C34 1_555 1_555
H31 C35 1_555 1_555
H32 C36 1_555 1_555
H33 C37 1_555 1_555
C10 C11 1_555 1_555
C16 C17 1_555 1_555
C17 C18 1_555 1_555
C23 C24 1_555 1_555
C26 C31 1_555 1_555
C30 C31 1_555 1_555
C36 C37 1_555 1_555

#END
