
#######################################################################
#
#                 Cambridge Crystallographic Data Centre
#                                CCDC 
#
#######################################################################
#
# If this CIF has been generated from an entry in the Cambridge 
# Structural Database, then it will include bibliographic, chemical, 
# crystal, experimental, refinement or atomic coordinate data resulting 
# from the CCDC's data processing and validation procedures.
#
#######################################################################

data_KAFDIE
_chemical_formula_moiety         'C10 H14 N4 S1'
_chemical_name_systematic        
'4-(N,N-Dimethylamino)benzaldehyde thiosemicarbazone'
_symmetry_cell_setting           triclinic
_symmetry_space_group_name_H-M   'P -1'
_symmetry_Int_Tables_number      2
_space_group_name_Hall           '-P 1'
loop_
_symmetry_equiv_pos_site_id
_symmetry_equiv_pos_as_xyz
1 x,y,z
2 -x,-y,-z
_cell_length_a                   8.532(1)
_cell_length_b                   9.391(1)
_cell_length_c                   15.592(4)
_cell_angle_alpha                73.81(2)
_cell_angle_beta                 79.59(2)
_cell_angle_gamma                82.85(2)
_cell_volume                     1176.37
_cell_formula_units_Z            4
loop_
_atom_site_label
_atom_site_type_symbol
_atom_site_fract_x
_atom_site_fract_y
_atom_site_fract_z
S1 S 1.0792(1) 0.8112(1) 1.10270(5)
N1 N 0.8568(3) 1.0255(3) 1.1296(2)
N2 N 0.9573(3) 0.8820(3) 1.2545(2)
N3 N 0.8588(3) 0.9677(2) 1.3056(1)
N4 N 0.5032(3) 1.2157(3) 1.6428(2)
C1 C 0.7748(3) 1.0051(3) 1.4537(2)
C2 C 0.7936(4) 0.9610(4) 1.5443(2)
C3 C 0.7063(4) 1.0299(4) 1.6063(2)
C4 C 0.5930(3) 1.1479(3) 1.5813(2)
C5 C 0.5746(4) 1.1933(3) 1.4891(2)
C6 C 0.6621(3) 1.1229(3) 1.4284(2)
C7 C 0.9562(3) 0.9129(3) 1.1656(2)
C8 C 0.8697(3) 0.9292(3) 1.3898(2)
C9 C 0.3959(6) 1.3447(5) 1.6158(4)
C10 C 0.5155(6) 1.1629(6) 1.7378(3)
H1 H 0.864(3) 0.881(3) 1.564(2)
H2 H 0.732(3) 1.002(3) 1.662(2)
H3 H 0.495(3) 1.271(3) 1.470(2)
H4 H 0.643(3) 1.150(3) 1.367(2)
H5 H 0.943(3) 0.844(3) 1.415(2)
H6 H 0.318(5) 1.327(5) 1.589(3)
H7 H 0.452(5) 1.438(5) 1.576(3)
H8 H 0.343(5) 1.374(4) 1.663(3)
H9 H 0.621(4) 1.168(4) 1.752(2)
H10 H 0.441(5) 1.212(4) 1.771(3)
H11 H 0.503(5) 1.058(5) 1.764(3)
H12 H 0.799(4) 1.080(3) 1.160(2)
H13 H 0.872(3) 1.054(3) 1.068(2)
H14 H 1.020(3) 0.804(3) 1.281(2)
S2 S 0.8355(1) 0.4318(1) 0.63030(5)
N5 N 1.0743(3) 0.6082(3) 0.5826(2)
N6 N 1.0073(3) 0.5044(3) 0.7331(2)
N7 N 1.1394(3) 0.5609(2) 0.7477(1)
N8 N 1.6538(4) 0.7606(3) 0.9374(2)
C11 C 1.2861(3) 0.5950(3) 0.8564(2)
C12 C 1.2747(4) 0.6126(3) 0.9434(2)
C13 C 1.3941(4) 0.6663(3) 0.9698(2)
C14 C 1.5344(4) 0.7057(3) 0.9111(2)
C15 C 1.5488(4) 0.6833(3) 0.8248(2)
C16 C 1.4280(4) 0.6296(3) 0.7980(2)
C17 C 0.9815(3) 0.5202(3) 0.6479(2)
C18 C 1.1531(3) 0.5441(3) 0.8305(2)
C19 C 1.8010(7) 0.7933(8) 0.8788(5)
C20 C 1.6301(7) 0.7986(6) 1.0229(4)
H15 H 1.175(3) 0.586(3) 0.985(2)
H16 H 1.380(3) 0.675(3) 1.028(2)
H17 H 1.636(3) 0.702(3) 0.781(2)
H18 H 1.446(3) 0.616(3) 0.734(2)
H19 H 1.073(3) 0.492(3) 0.878(2)
H20 H 1.875(5) 0.808(4) 0.917(3)
H21 H 1.838(6) 0.723(6) 0.846(4)
H22 H 1.792(6) 0.876(6) 0.834(4)
H23 H 1.706(5) 0.842(5) 1.032(3)
H24 H 1.603(5) 0.717(4) 1.077(3)
H25 H 1.521(6) 0.867(5) 1.034(3)
H26 H 1.147(3) 0.645(3) 0.596(2)
H27 H 1.077(4) 0.607(3) 0.525(2)
H28 H 0.958(3) 0.437(3) 0.776(2)
loop_
_geom_bond_atom_site_label_1
_geom_bond_atom_site_label_2
_geom_bond_site_symmetry_1
_geom_bond_site_symmetry_2
S1 C7 1_555 1_555
N1 C7 1_555 1_555
N2 N3 1_555 1_555
N3 C8 1_555 1_555
N4 C4 1_555 1_555
C1 C2 1_555 1_555
C2 C3 1_555 1_555
C3 C4 1_555 1_555
C4 C5 1_555 1_555
C5 C6 1_555 1_555
C6 C1 1_555 1_555
C7 N2 1_555 1_555
C8 C1 1_555 1_555
C9 N4 1_555 1_555
C10 N4 1_555 1_555
S2 C17 1_555 1_555
N5 C17 1_555 1_555
N6 N7 1_555 1_555
N7 C18 1_555 1_555
N8 C14 1_555 1_555
C11 C12 1_555 1_555
C12 C13 1_555 1_555
C13 C14 1_555 1_555
C14 C15 1_555 1_555
C15 C16 1_555 1_555
C16 C11 1_555 1_555
C17 N6 1_555 1_555
C18 C11 1_555 1_555
C19 N8 1_555 1_555
C20 N8 1_555 1_555
H1 C2 1_555 1_555
H2 C3 1_555 1_555
H3 C5 1_555 1_555
H4 C6 1_555 1_555
H5 C8 1_555 1_555
H6 C9 1_555 1_555
H7 C9 1_555 1_555
H8 C9 1_555 1_555
H9 C10 1_555 1_555
H10 C10 1_555 1_555
H11 C10 1_555 1_555
H12 N1 1_555 1_555
H13 N1 1_555 1_555
H14 N2 1_555 1_555
H15 C12 1_555 1_555
H16 C13 1_555 1_555
H17 C15 1_555 1_555
H18 C16 1_555 1_555
H19 C18 1_555 1_555
H20 C19 1_555 1_555
H21 C19 1_555 1_555
H22 C19 1_555 1_555
H23 C20 1_555 1_555
H24 C20 1_555 1_555
H25 C20 1_555 1_555
H26 N5 1_555 1_555
H27 N5 1_555 1_555
H28 N6 1_555 1_555

#END
