
#######################################################################
#
#                 Cambridge Crystallographic Data Centre
#                                CCDC 
#
#######################################################################
#
# If this CIF has been generated from an entry in the Cambridge 
# Structural Database, then it will include bibliographic, chemical, 
# crystal, experimental, refinement or atomic coordinate data resulting 
# from the CCDC's data processing and validation procedures.
#
#######################################################################

data_KAFROB
_chemical_formula_moiety         'C50 Cl10 O1'
_chemical_name_systematic        decachloro-epoxy-C50fullerene
_symmetry_cell_setting           monoclinic
_symmetry_space_group_name_H-M   'C 2/c'
_symmetry_Int_Tables_number      15
_space_group_name_Hall           '-C 2yn'
loop_
_symmetry_equiv_pos_site_id
_symmetry_equiv_pos_as_xyz
1 x,y,z
2 -x,y,1/2-z
3 1/2+x,1/2+y,z
4 1/2-x,1/2+y,1/2-z
5 -x,-y,-z
6 x,-y,1/2+z
7 1/2-x,1/2-y,-z
8 1/2+x,1/2-y,1/2+z
_cell_length_a                   13.882(3)
_cell_length_b                   17.661(4)
_cell_length_c                   13.003(3)
_cell_angle_alpha                90
_cell_angle_beta                 93.67(3)
_cell_angle_gamma                90
_cell_volume                     3181.41
_exptl_crystal_description       Block
_cell_formula_units_Z            4
loop_
_atom_site_label
_atom_site_type_symbol
_atom_site_fract_x
_atom_site_fract_y
_atom_site_fract_z
C1 C 0.0492(10) 0.8466(7) 0.4654(14)
C2 C 0.4239(6) 0.8761(6) 0.4711(11)
C3 C 0.1799(6) 0.8599(3) 0.3426(4)
C4 C 0.2826(6) 0.8672(3) 0.3438(4)
C5 C 0.2800(7) 0.9335(5) 0.5127(8)
C6 C 0.3101(4) 0.6221(3) 0.3127(4)
C7 C 0.0816(3) 0.7449(2) 0.3417(3)
C8 C 0.3486(3) 0.6983(2) 0.3012(3)
C9 C 0.1438(3) 0.6820(2) 0.2978(3)
C10 C 0.3214(5) 0.8000(5) 0.3025(5)
C11 C 0.1301(3) 0.8877(2) 0.4252(3)
C12 C 0.0681(3) 0.8151(2) 0.3790(3)
C13 C 0.3319(3) 0.9031(2) 0.4295(4)
C14 C 0.0259(4) 0.7448(3) 0.3986(4)
C15 C 0.4598(3) 0.6353(3) 0.4244(3)
C16 C 0.4611(4) 0.8103(3) 0.4291(4)
C17 C 0.4088(3) 0.7705(2) 0.3473(3)
C18 C 0.1461(4) 0.8197(5) 0.3147(5)
C19 C 0.1844(6) 0.7521(3) 0.2739(3)
C20 C 0.0644(6) 0.6772(8) 0.3618(9)
C21 C 0.3738(4) 0.5781(3) 0.3934(4)
C22 C 0.4569(4) 0.7784(3) 0.4064(4)
C23 C 0.2018(5) 0.6127(4) 0.3106(5)
C24 C 0.0268(4) 0.7765(3) 0.4212(4)
C25 C 0.2891(6) 0.7599(3) 0.2755(4)
C26 C 0.1810(4) 0.9266(3) 0.5087(5)
C27 C 0.1555(4) 0.7874(6) 0.2997(4)
C28 C 0.0609(3) 0.6046(3) 0.4173(3)
C29 C 0.1573(4) 0.5617(2) 0.3902(3)
Cl1 Cl -0.14167(4) 0.71794(4) 0.49393(4)
Cl2 Cl -0.05011(4) 0.56088(4) 0.39311(5)
Cl3 Cl 0.40055(5) 0.49035(3) 0.34632(4)
Cl4 Cl 0.5769(4) 0.6020(3) 0.3988(4)
Cl5 Cl 0.15425(6) 0.47034(3) 0.34541(5)
O1 O 0.2566(2) 0.58198(18) 0.2284(2)
C30 C 0.4318(11) 0.7084(8) 0.3661(14)
C31 C -0.0098(4) 0.7134(3) 0.4890(5)
C32 C 0.2534(3) 0.6720(2) 0.2945(3)
C33 C 0.1764(5) 0.6304(4) 0.3314(5)
C34 C 0.2429(8) 0.7499(3) 0.2753(3)
C35 C 0.3445(4) 0.6432(3) 0.3355(4)
C36 C 0.3294(4) 0.5713(3) 0.3964(5)
C37 C 0.2856(4) 0.9382(2) 0.6059(3)
C38 C 0.1412(5) 0.9118(3) 0.4919(5)
C39 C 0.3081(7) 0.9249(5) 0.4932(6)
C40 C 0.2226(3) 0.9135(2) 0.4316(3)
C41 C 0.2249(8) 0.8697(3) 0.3418(4)
C42 C 0.0659(10) 0.8637(7) 0.4632(13)
C43 C 0.4208(12) 0.6911(8) 0.3612(15)
C44 C 0.3933(6) 0.8888(6) 0.4694(10)
C45 C 0.0933(6) 0.6668(8) 0.3538(9)
C46 C 0.4919(3) 0.6737(3) 0.4510(3)
Cl6 Cl 0.5923(4) 0.6183(3) 0.4154(4)
C47 C 0.0339(4) 0.6373(3) 0.4426(4)
C48 C -0.0199(5) 0.7451(4) 0.5018(5)
C49 C 0.3952(3) 0.8408(2) 0.3845(3)
C50 C 0.3127(4) 0.8322(5) 0.3178(5)
C1F C 0.4508(10) 0.6534(7) 0.5346(14)
C2F C 0.0761(6) 0.6239(6) 0.5289(11)
C3F C 0.3201(6) 0.6401(3) 0.6574(4)
C4F C 0.2174(6) 0.6328(3) 0.6562(4)
C5F C 0.2200(7) 0.5665(5) 0.4873(8)
C6F C 0.1899(4) 0.8779(3) 0.6873(4)
C7F C 0.4184(3) 0.7551(2) 0.6583(3)
C8F C 0.1514(3) 0.8017(2) 0.6988(3)
C9F C 0.3562(3) 0.8180(2) 0.7022(3)
C10F C 0.1786(5) 0.7000(5) 0.6975(5)
C11F C 0.3699(3) 0.6123(2) 0.5748(3)
C12F C 0.4319(3) 0.6849(2) 0.6210(3)
C13F C 0.1681(3) 0.5969(2) 0.5705(4)
C14F C 0.4741(4) 0.7552(3) 0.6014(4)
C15F C 0.0402(3) 0.8647(3) 0.5756(3)
C16F C 0.0389(4) 0.6897(3) 0.5709(4)
C17F C 0.0912(3) 0.7295(2) 0.6527(3)
C18F C 0.3539(4) 0.6803(5) 0.6853(5)
C19F C 0.3156(6) 0.7479(3) 0.7261(3)
C20F C 0.4356(6) 0.8228(8) 0.6382(9)
C21F C 0.1262(4) 0.9219(3) 0.6066(4)
C22F C 0.0431(4) 0.7216(3) 0.5936(4)
C23F C 0.2982(5) 0.8873(4) 0.6894(5)
C24F C 0.4732(4) 0.7235(3) 0.5788(4)
C25F C 0.2109(6) 0.7401(3) 0.7245(4)
C26F C 0.3190(4) 0.5734(3) 0.4913(5)
C27F C 0.3445(4) 0.7126(6) 0.7003(4)
C28F C 0.4391(3) 0.8954(3) 0.5827(3)
C29F C 0.3427(4) 0.9383(2) 0.6098(3)
Cl1F Cl 0.64167(4) 0.78206(4) 0.50607(4)
Cl2F Cl 0.55011(4) 0.93912(4) 0.60689(5)
Cl3F Cl 0.09945(5) 1.00965(3) 0.65368(4)
Cl4F Cl -0.0769(4) 0.8980(3) 0.6012(4)
Cl5F Cl 0.34575(6) 1.02966(3) 0.65459(5)
O1F O 0.2434(2) 0.91802(18) 0.7716(2)
C30F C 0.0682(11) 0.7916(8) 0.6339(14)
C31F C 0.5098(4) 0.7866(3) 0.5110(5)
C32F C 0.2466(3) 0.8280(2) 0.7055(3)
C33F C 0.3236(5) 0.8696(4) 0.6686(5)
C34F C 0.2571(8) 0.7501(3) 0.7247(3)
C35F C 0.1555(4) 0.8568(3) 0.6645(4)
C36F C 0.1706(4) 0.9287(3) 0.6036(5)
C37F C 0.2144(4) 0.5618(2) 0.3941(3)
C38F C 0.3588(5) 0.5882(3) 0.5081(5)
C39F C 0.1919(7) 0.5751(5) 0.5068(6)
C40F C 0.2774(3) 0.5865(2) 0.5684(3)
C41F C 0.2751(8) 0.6303(3) 0.6582(4)
C42F C 0.4341(10) 0.6363(7) 0.5368(13)
C43F C 0.0792(12) 0.8089(8) 0.6388(15)
C44F C 0.1067(6) 0.6112(6) 0.5306(10)
C45F C 0.4067(6) 0.8332(8) 0.6462(9)
C46F C 0.0081(3) 0.8263(3) 0.5490(3)
Cl6F Cl -0.0923(4) 0.8817(3) 0.5846(4)
C47F C 0.4661(4) 0.8627(3) 0.5574(4)
C48F C 0.5199(5) 0.7549(4) 0.4982(5)
C49F C 0.1048(3) 0.6592(2) 0.6155(3)
C50F C 0.1873(4) 0.6678(5) 0.6822(5)
loop_
_geom_bond_atom_site_label_1
_geom_bond_atom_site_label_2
_geom_bond_site_symmetry_1
_geom_bond_site_symmetry_2
C1 C11 1_555 1_555
C2 C13 1_555 1_555
C3 C4 1_555 1_555
C4 C10 1_555 1_555
C5 C13 1_555 1_555
C6 C8 1_555 1_555
C7 C9 1_555 1_555
C8 C17 1_555 1_555
C9 C19 1_555 1_555
C10 C17 1_555 1_555
C11 C3 1_555 1_555
C12 C1 1_555 1_555
C13 C4 1_555 1_555
C14 C7 1_555 1_555
C15 C21 1_555 1_555
C16 C2 1_555 1_555
C17 C22 1_555 1_555
C18 C3 1_555 1_555
C19 C18 1_555 1_555
C20 C7 1_555 1_555
C21 C6 1_555 1_555
C22 C16 1_555 1_555
C23 C6 1_555 1_555
C24 C1 1_555 1_555
C25 C8 1_555 1_555
C26 C5 1_555 1_555
C27 C3 1_555 1_555
C28 C20 1_555 1_555
C29 C23 1_555 1_555
Cl1 C31 1_555 1_555
Cl2 C28 1_555 1_555
Cl3 C21 1_555 1_555
Cl4 C15 1_555 1_555
Cl5 C29 1_555 1_555
O1 C6 1_555 1_555
C30 C8 1_555 1_555
C31 C14 1_555 1_555
C32 C6 1_555 1_555
C33 C9 1_555 1_555
C34 C10 1_555 1_555
C35 C6 1_555 1_555
C36 C6 1_555 1_555
C37 C5 1_555 1_555
C38 C1 1_555 1_555
C39 C13 1_555 1_555
C40 C5 1_555 1_555
C41 C3 1_555 1_555
C42 C11 1_555 1_555
C43 C8 1_555 1_555
C44 C13 1_555 1_555
C45 C7 1_555 1_555
C46 C15 1_555 1_555
Cl6 C15 1_555 1_555
C47 C20 1_555 1_555
C48 C24 1_555 1_555
C49 C2 1_555 1_555
C50 C4 1_555 1_555
C1F C15 1_555 1_555
C2F C28 1_555 1_555
C3F C4F 1_555 1_555
C4F C10F 1_555 1_555
C5F C29 1_555 1_555
C6F C8F 1_555 1_555
C7F C9F 1_555 1_555
C8F C17F 1_555 1_555
C9F C19F 1_555 1_555
C10F C17F 1_555 1_555
C11F C1F 1_555 1_555
C12F C1F 1_555 1_555
C13F C2F 1_555 1_555
C14F C7F 1_555 1_555
C15F C1 1_555 1_555
C16F C31 1_555 1_555
C17F C22F 1_555 1_555
C18F C3F 1_555 1_555
C19F C18F 1_555 1_555
C20F C7F 1_555 1_555
C21F C38 1_555 1_555
C22F C48 1_555 1_555
C23F C37 1_555 1_555
C24F C1F 1_555 1_555
C25F C8F 1_555 1_555
C26F C36 1_555 1_555
C27F C3F 1_555 1_555
C28F C2 1_555 1_555
C29F C5 1_555 1_555
Cl1F C31F 1_555 1_555
Cl2F C28F 1_555 1_555
Cl3F C21F 1_555 1_555
Cl4F C15F 1_555 1_555
Cl5F C37 1_555 1_555
O1F C6F 1_555 1_555
C30F C8F 1_555 1_555
C31F C16 1_555 1_555
C32F C6F 1_555 1_555
C33F C37 1_555 1_555
C34F C10F 1_555 1_555
C35F C6F 1_555 1_555
C36F C26 1_555 1_555
C37F C23 1_555 1_555
C38F C21 1_555 1_555
C39F C29 1_555 1_555
C40F C5F 1_555 1_555
C41F C3F 1_555 1_555
C42F C15 1_555 1_555
C43F C8F 1_555 1_555
C44F C28 1_555 1_555
C45F C7F 1_555 1_555
C46F C1 1_555 1_555
Cl6F C15F 1_555 1_555
C47F C2 1_555 1_555
C48F C22 1_555 1_555
C49F C2F 1_555 1_555
C50F C4F 1_555 1_555
C4 C41 1_555 1_555
C7 C12 1_555 1_555
C7 C27 1_555 1_555
C8 C32 1_555 1_555
C8 C35 1_555 1_555
C9 C20 1_555 1_555
C9 C23 1_555 1_555
C9 C32 1_555 1_555
C9 C45 1_555 1_555
C10 C25 1_555 1_555
C10 C50 1_555 1_555
C11 C12 1_555 1_555
C11 C38 1_555 1_555
C11 C40 1_555 1_555
C12 C18 1_555 1_555
C12 C24 1_555 1_555
C12 C42 1_555 1_555
C13 C40 1_555 1_555
C13 C49 1_555 1_555
C14 C20 1_555 1_555
C14 C24 1_555 1_555
C14 C45 1_555 1_555
C15 C30 1_555 1_555
C15 C43 1_555 1_555
C16 C44 1_555 1_555
C16 C49 1_555 1_555
C17 C30 1_555 1_555
C17 C43 1_555 1_555
C17 C49 1_555 1_555
C18 C27 1_555 1_555
C18 C41 1_555 1_555
C19 C25 1_555 1_555
C19 C27 1_555 1_555
C19 C34 1_555 1_555
C21 C35 1_555 1_555
C21 C36 1_555 1_555
C22 C30 1_555 1_555
C22 C43 1_555 1_555
C23 O1 1_555 1_555
C23 C32 1_555 1_555
C23 C33 1_555 1_555
C24 C42 1_555 1_555
C25 C34 1_555 1_555
C25 C50 1_555 1_555
C26 C38 1_555 1_555
C26 C39 1_555 1_555
C26 C40 1_555 1_555
C27 C34 1_555 1_555
C27 C41 1_555 1_555
C28 C29 1_555 1_555
C28 C45 1_555 1_555
C28 C47 1_555 1_555
C29 C33 1_555 1_555
C29 C37F 1_555 1_555
Cl1 C48 1_555 1_555
Cl2 C47 1_555 1_555
Cl3 C36 1_555 1_555
Cl4 C46 1_555 1_555
Cl5 C37F 1_555 1_555
O1 C32 1_555 1_555
C30 C35 1_555 1_555
C30 C46 1_555 1_555
C31 C47 1_555 1_555
C31 C48 1_555 1_555
C32 C33 1_555 1_555
C32 C34 1_555 1_555
C32 C35 1_555 1_555
C33 C45 1_555 1_555
C33 C37F 1_555 1_555
C35 C36 1_555 1_555
C35 C43 1_555 1_555
C36 C37F 1_555 1_555
C37 C39 1_555 1_555
C37 C29F 1_555 1_555
C37 C36F 1_555 1_555
C38 C42 1_555 1_555
C39 C40 1_555 1_555
C39 C44 1_555 1_555
C39 C29F 1_555 1_555
C40 C41 1_555 1_555
C41 C50 1_555 1_555
C42 C15F 1_555 1_555
C42 C46F 1_555 1_555
C43 C46 1_555 1_555
C44 C49 1_555 1_555
C44 C28F 1_555 1_555
C44 C47F 1_555 1_555
C45 C47 1_555 1_555
C46 Cl6 1_555 1_555
C46 C1F 1_555 1_555
C46 C42F 1_555 1_555
C46 C48F 1_555 1_555
C47 C2F 1_555 1_555
C47 C44F 1_555 1_555
C48 C46F 1_555 1_555
C49 C50 1_555 1_555
C1F C38F 1_555 1_555
C2F C16F 1_555 1_555
C3F C11F 1_555 1_555
C4F C13F 1_555 1_555
C4F C41F 1_555 1_555
C5F C13F 1_555 1_555
C5F C26F 1_555 1_555
C5F C37F 1_555 1_555
C6F C21F 1_555 1_555
C6F C23F 1_555 1_555
C6F C36F 1_555 1_555
C7F C12F 1_555 1_555
C7F C27F 1_555 1_555
C8F C32F 1_555 1_555
C8F C35F 1_555 1_555
C9F C20F 1_555 1_555
C9F C23F 1_555 1_555
C9F C32F 1_555 1_555
C9F C33F 1_555 1_555
C9F C45F 1_555 1_555
C10F C25F 1_555 1_555
C10F C50F 1_555 1_555
C11F C12F 1_555 1_555
C11F C38F 1_555 1_555
C11F C40F 1_555 1_555
C11F C42F 1_555 1_555
C12F C18F 1_555 1_555
C12F C24F 1_555 1_555
C12F C42F 1_555 1_555
C13F C39F 1_555 1_555
C13F C40F 1_555 1_555
C13F C44F 1_555 1_555
C13F C49F 1_555 1_555
C14F C20F 1_555 1_555
C14F C24F 1_555 1_555
C14F C31F 1_555 1_555
C14F C45F 1_555 1_555
C15F C21F 1_555 1_555
C15F C30F 1_555 1_555
C15F C43F 1_555 1_555
C15F C46F 1_555 1_555
C16F C22F 1_555 1_555
C16F C44F 1_555 1_555
C16F C49F 1_555 1_555
C17F C30F 1_555 1_555
C17F C43F 1_555 1_555
C17F C49F 1_555 1_555
C18F C27F 1_555 1_555
C18F C41F 1_555 1_555
C19F C25F 1_555 1_555
C19F C27F 1_555 1_555
C19F C34F 1_555 1_555
C20F C28F 1_555 1_555
C20F C47F 1_555 1_555
C21F C35F 1_555 1_555
C21F C36F 1_555 1_555
C22F C30F 1_555 1_555
C22F C43F 1_555 1_555
C23F C29F 1_555 1_555
C23F O1F 1_555 1_555
C23F C32F 1_555 1_555
C23F C33F 1_555 1_555
C24F C42F 1_555 1_555
C24F C48F 1_555 1_555
C25F C34F 1_555 1_555
C25F C50F 1_555 1_555
C26F C38F 1_555 1_555
C26F C39F 1_555 1_555
C26F C40F 1_555 1_555
C27F C34F 1_555 1_555
C27F C41F 1_555 1_555
C28F C29F 1_555 1_555
C28F C45F 1_555 1_555
C28F C47F 1_555 1_555
C29F Cl5F 1_555 1_555
C29F C33F 1_555 1_555
Cl1F C48F 1_555 1_555
Cl2F C47F 1_555 1_555
Cl3F C36F 1_555 1_555
Cl4F C46F 1_555 1_555
O1F C32F 1_555 1_555
C30F C35F 1_555 1_555
C30F C46F 1_555 1_555
C31F C47F 1_555 1_555
C31F C48F 1_555 1_555
C32F C33F 1_555 1_555
C32F C34F 1_555 1_555
C32F C35F 1_555 1_555
C33F C45F 1_555 1_555
C35F C36F 1_555 1_555
C35F C43F 1_555 1_555
C37F C39F 1_555 1_555
C38F C42F 1_555 1_555
C39F C40F 1_555 1_555
C39F C44F 1_555 1_555
C40F C41F 1_555 1_555
C41F C50F 1_555 1_555
C43F C46F 1_555 1_555
C44F C49F 1_555 1_555
C45F C47F 1_555 1_555
C46F Cl6F 1_555 1_555
C49F C50F 1_555 1_555

#END
