
#######################################################################
#
#                 Cambridge Crystallographic Data Centre
#                                CCDC 
#
#######################################################################
#
# If this CIF has been generated from an entry in the Cambridge 
# Structural Database, then it will include bibliographic, chemical, 
# crystal, experimental, refinement or atomic coordinate data resulting 
# from the CCDC's data processing and validation procedures.
#
#######################################################################

data_KAGTEU
_chemical_formula_moiety         'C16 H17 N3 O5 S1'
_chemical_name_systematic        
2-((2-(3,4-dimethoxybenzylidene)hydrazino)carbonyl)benzenesulfonamide
_symmetry_cell_setting           monoclinic
_symmetry_space_group_name_H-M   'P 21/n'
_symmetry_Int_Tables_number      14
_space_group_name_Hall           '-P 2yn'
loop_
_symmetry_equiv_pos_site_id
_symmetry_equiv_pos_as_xyz
1 x,y,z
2 1/2-x,1/2+y,1/2-z
3 -x,-y,-z
4 1/2+x,1/2-y,1/2+z
_cell_length_a                   18.8205(18)
_cell_length_b                   9.6272(7)
_cell_length_c                   19.6232(19)
_cell_angle_alpha                90
_cell_angle_beta                 110.675(11)
_cell_angle_gamma                90
_cell_volume                     3326.52
_exptl_crystal_colour            colorless
_exptl_crystal_description       block
_cell_formula_units_Z            8
loop_
_atom_site_label
_atom_site_type_symbol
_atom_site_fract_x
_atom_site_fract_y
_atom_site_fract_z
S1 S 0.33230(3) -0.31578(6) 0.25665(3)
O1 O 0.31490(9) -0.27294(17) 0.18223(8)
O2 O 0.33398(9) -0.46145(16) 0.27114(10)
O3 O 0.33227(9) 0.01362(17) 0.25309(10)
O4 O 0.20884(11) 0.5540(2) 0.00915(11)
O5 O 0.27641(11) 0.64798(19) -0.07472(10)
N1 N 0.27608(11) -0.2470(2) 0.29282(11)
H1 H 0.2421(11) -0.305(2) 0.2942(14)
H2 H 0.2662(15) -0.1631(13) 0.2782(14)
N2 N 0.42385(11) 0.06337(19) 0.20593(11)
H3 H 0.4662(9) 0.043(3) 0.2005(14)
N3 N 0.38209(10) 0.16966(18) 0.16219(11)
C1 C 0.42456(12) -0.2493(2) 0.30505(11)
C2 C 0.47633(14) -0.3432(3) 0.34879(13)
H4 H 0.4601 -0.4337 0.3559
C3 C 0.55218(14) -0.3055(3) 0.38244(14)
H5 H 0.5875 -0.3705 0.4124
C4 C 0.57616(14) -0.1753(3) 0.37258(14)
H6 H 0.6280 -0.1501 0.3955
C5 C 0.52450(13) -0.0802(3) 0.32906(13)
H7 H 0.5413 0.0103 0.3227
C6 C 0.44839(12) -0.1155(2) 0.29449(12)
C7 C 0.39498(12) -0.0078(2) 0.24912(12)
C8 C 0.41129(13) 0.2150(2) 0.11615(13)
H8 H 0.4571 0.1748 0.1153
C9 C 0.37591(13) 0.3259(2) 0.06569(13)
C10 C 0.30764(13) 0.3858(2) 0.06384(13)
H9 H 0.2832 0.3531 0.0956
C11 C 0.27605(14) 0.4917(3) 0.01627(13)
C12 C 0.31315(15) 0.5424(2) -0.02990(13)
C13 C 0.38009(15) 0.4823(3) -0.02872(13)
H10 H 0.4046 0.5145 -0.0605
C14 C 0.41126(14) 0.3741(3) 0.01945(13)
H11 H 0.4575 0.3327 0.0206
C15 C 0.16645(17) 0.4967(4) 0.05028(17)
H12 H 0.1624 0.3958 0.0432
H13 H 0.1155 0.5376 0.0338
H14 H 0.1925 0.5172 0.1021
C16 C 0.31220(19) 0.7047(3) -0.12152(16)
H15 H 0.3642 0.7323 -0.0925
H16 H 0.2837 0.7860 -0.1468
H17 H 0.3133 0.6346 -0.1573
S2 S 0.61304(3) -0.07181(6) 0.15640(3)
O6 O 0.68921(9) -0.05814(18) 0.20729(9)
O7 O 0.55891(9) 0.02812(17) 0.16293(10)
O8 O 0.46253(9) -0.1401(2) 0.02299(9)
O9 O 0.13053(10) 0.26323(19) -0.15559(10)
O10 O 0.01264(11) 0.2578(2) -0.11964(12)
N4 N 0.61835(12) -0.0814(2) 0.07670(12)
H18 H 0.6415(14) -0.0104(19) 0.0681(14)
H19 H 0.5726(8) -0.092(3) 0.0473(12)
N5 N 0.37726(11) -0.1609(2) 0.08033(10)
H20 H 0.3642(14) -0.192(2) 0.1155(10)
N6 N 0.32358(10) -0.07671(19) 0.03062(10)
C17 C 0.57620(13) -0.2364(2) 0.16706(11)
C18 C 0.62553(14) -0.3254(2) 0.21708(12)
H21 H 0.6777 -0.3017 0.2393
C19 C 0.59857(16) -0.4489(3) 0.23458(14)
H22 H 0.6326 -0.5108 0.2683
C20 C 0.52344(16) -0.4827(3) 0.20376(14)
H23 H 0.5052 -0.5666 0.2171
C21 C 0.47361(15) -0.3948(2) 0.15302(13)
H24 H 0.4216 -0.4197 0.1314
C22 C 0.49910(13) -0.2710(2) 0.13362(11)
C23 C 0.44485(13) -0.1837(2) 0.07375(12)
C24 C 0.26703(13) -0.0474(2) 0.04972(12)
H25 H 0.2664 -0.0845 0.0944
C25 C 0.20345(13) 0.0396(2) 0.00698(12)
C26 C 0.20176(13) 0.1117(2) -0.05553(12)
H26 H 0.2444 0.1090 -0.0707
C27 C 0.13820(14) 0.1865(2) -0.09488(13)
C28 C 0.07417(14) 0.1878(3) -0.07375(14)
C29 C 0.07670(15) 0.1219(3) -0.01064(15)
H27 H 0.0343 0.1254 0.0049
C30 C 0.14216(15) 0.0500(3) 0.03001(14)
H28 H 0.1448 0.0072 0.0745
C31 C 0.19778(15) 0.2935(3) -0.17023(15)
H29 H 0.2366 0.3297 -0.1261
H30 H 0.1865 0.3630 -0.2091
H31 H 0.2165 0.2084 -0.1856
C32 C -0.0542(2) 0.2572(4) -0.1020(3)
H32 H -0.0697 0.1611 -0.0984
H33 H -0.0949 0.3057 -0.1402
H34 H -0.0443 0.3044 -0.0553
loop_
_geom_bond_atom_site_label_1
_geom_bond_atom_site_label_2
_geom_bond_site_symmetry_1
_geom_bond_site_symmetry_2
S1 O1 1_555 1_555
O2 S1 1_555 1_555
O3 C7 1_555 1_555
O4 C11 1_555 1_555
O5 C12 1_555 1_555
N1 S1 1_555 1_555
H1 N1 1_555 1_555
H2 N1 1_555 1_555
N2 H3 1_555 1_555
N3 N2 1_555 1_555
C1 S1 1_555 1_555
C2 C1 1_555 1_555
H4 C2 1_555 1_555
C3 C2 1_555 1_555
H5 C3 1_555 1_555
C4 C3 1_555 1_555
H6 C4 1_555 1_555
C5 C4 1_555 1_555
H7 C5 1_555 1_555
C6 C1 1_555 1_555
C7 N2 1_555 1_555
C8 N3 1_555 1_555
H8 C8 1_555 1_555
C9 C8 1_555 1_555
C10 C9 1_555 1_555
H9 C10 1_555 1_555
C11 C10 1_555 1_555
C12 C11 1_555 1_555
C13 C12 1_555 1_555
H10 C13 1_555 1_555
C14 C9 1_555 1_555
H11 C14 1_555 1_555
C15 O4 1_555 1_555
H12 C15 1_555 1_555
H13 C15 1_555 1_555
H14 C15 1_555 1_555
C16 O5 1_555 1_555
H15 C16 1_555 1_555
H16 C16 1_555 1_555
H17 C16 1_555 1_555
S2 O6 1_555 1_555
O7 S2 1_555 1_555
O8 C23 1_555 1_555
O9 C27 1_555 1_555
O10 C28 1_555 1_555
N4 S2 1_555 1_555
H18 N4 1_555 1_555
H19 N4 1_555 1_555
N5 H20 1_555 1_555
N6 N5 1_555 1_555
C17 S2 1_555 1_555
C18 C17 1_555 1_555
H21 C18 1_555 1_555
C19 C18 1_555 1_555
H22 C19 1_555 1_555
C20 C19 1_555 1_555
H23 C20 1_555 1_555
C21 C20 1_555 1_555
H24 C21 1_555 1_555
C22 C17 1_555 1_555
C23 N5 1_555 1_555
C24 N6 1_555 1_555
H25 C24 1_555 1_555
C25 C24 1_555 1_555
C26 C25 1_555 1_555
H26 C26 1_555 1_555
C27 C26 1_555 1_555
C28 C27 1_555 1_555
C29 C28 1_555 1_555
H27 C29 1_555 1_555
C30 C25 1_555 1_555
H28 C30 1_555 1_555
C31 O9 1_555 1_555
H29 C31 1_555 1_555
H30 C31 1_555 1_555
H31 C31 1_555 1_555
C32 O10 1_555 1_555
H32 C32 1_555 1_555
H33 C32 1_555 1_555
H34 C32 1_555 1_555
C5 C6 1_555 1_555
C6 C7 1_555 1_555
C13 C14 1_555 1_555
C21 C22 1_555 1_555
C22 C23 1_555 1_555
C29 C30 1_555 1_555

#END
