
#######################################################################
#
#                 Cambridge Crystallographic Data Centre
#                                CCDC 
#
#######################################################################
#
# If this CIF has been generated from an entry in the Cambridge 
# Structural Database, then it will include bibliographic, chemical, 
# crystal, experimental, refinement or atomic coordinate data resulting 
# from the CCDC's data processing and validation procedures.
#
#######################################################################

data_KAGVET
_chemical_formula_moiety         'C19 H24 N2 O6,2(H2 O1)'
_chemical_name_systematic        
'Methyl 3,6,13,16-tetraoxa-9,23-diazatricyclo(16.3.1.1^8,11^)tricosa-1(22),8,10,18,20-pentaene-22-carboxylate dihydrate clathrate'
_symmetry_cell_setting           monoclinic
_symmetry_space_group_name_H-M   'P 21/c'
_symmetry_Int_Tables_number      14
_space_group_name_Hall           '-P 2ybc'
loop_
_symmetry_equiv_pos_site_id
_symmetry_equiv_pos_as_xyz
1 x,y,z
2 -x,1/2+y,1/2-z
3 -x,-y,-z
4 x,1/2-y,1/2+z
_cell_length_a                   8.021(3)
_cell_length_b                   27.292(6)
_cell_length_c                   9.906(4)
_cell_angle_alpha                90
_cell_angle_beta                 106.52
_cell_angle_gamma                90
_cell_volume                     2079
_exptl_crystal_colour            off-white
_chemical_melting_point          79-80deg.C
_cell_formula_units_Z            4
loop_
_atom_site_label
_atom_site_type_symbol
_atom_site_fract_x
_atom_site_fract_y
_atom_site_fract_z
O1 O -0.0858(2) -0.14583(8) -0.2724(2)
O2 O -0.0634(3) -0.07249(9) -0.0487(2)
O3 O 0.4443(3) -0.11529(8) 0.3587(2)
O4 O 0.5679(3) -0.16296(8) 0.1484(2)
O5 O 0.0404(3) -0.23553(9) -0.0817(2)
O6 O 0.1715(3) -0.17352(8) 0.0558(2)
N1 N -0.0593(4) -0.0366(1) 0.2996(3)
N2 N 0.1462(3) -0.06194(9) 0.2077(3)
C1 C 0.0020(4) -0.1743(2) -0.3507(4)
C2 C -0.0529(5) -0.0949(1) -0.2758(4)
C3 C -0.1546(5) -0.0691(2) -0.1933(4)
C4 C -0.1478(5) -0.0506(2) 0.0412(4)
C5 C -0.0231(4) -0.0496(1) 0.1833(3)
C6 C 0.0955(5) -0.0421(2) 0.4027(4)
C7 C 0.2259(4) -0.0575(1) 0.3492(3)
C8 C 0.4119(5) -0.0682(2) 0.4090(4)
C9 C 0.6211(5) -0.1258(2) 0.3720(4)
C10 C 0.6296(6) -0.1723(2) 0.2952(3)
C11 C 0.5279(5) -0.2068(1) 0.0684(4)
C12 C 0.4457(4) -0.1937(1) -0.0836(3)
C13 C 0.5544(5) -0.1838(1) -0.1672(4)
C14 C 0.4849(5) -0.1704(1) -0.3065(4)
C15 C 0.3080(5) -0.1674(1) -0.3630(4)
C16 C 0.1961(4) -0.1776(1) -0.2832(3)
C17 C 0.2657(4) -0.1905(1) -0.1418(3)
C18 C 0.1452(4) -0.2030(1) -0.0554(3)
C19 C 0.0678(7) -0.1830(2) 0.1509(5)
H1 H -0.017(4) -0.157(1) -0.445(4)
H2 H -0.055(4) -0.209(1) -0.355(3)
H3 H 0.073(5) -0.090(1) -0.229(3)
H4 H -0.096(4) -0.083(1) -0.378(4)
H5 H -0.275(5) -0.086(1) -0.212(4)
H6 H -0.183(4) -0.037(1) -0.223(3)
H7 H -0.194(5) -0.018(1) 0.008(4)
H8 H -0.252(5) -0.072(1) 0.046(4)
H9 H 0.124(5) -0.038(1) 0.491(4)
H10 H 0.484(5) -0.046(1) 0.383(3)
H11 H 0.446(4) -0.070(1) 0.511(4)
H12 H 0.671(4) -0.100(1) 0.338(3)
H13 H 0.685(4) -0.131(1) 0.472(3)
H14 H 0.552(5) -0.198(1) 0.324(4)
H15 H 0.749(5) -0.186(1) 0.318(3)
H16 H 0.639(4) -0.224(1) 0.080(3)
H17 H 0.452(3) -0.228(1) 0.106(3)
H18 H 0.682(4) -0.187(1) -0.130(3)
H19 H 0.563(4) -0.166(1) -0.364(3)
H20 H 0.256(4) -0.161(1) -0.459(3)
H21 H -0.062(8) -0.167(3) 0.103(6)
H22 H 0.134(9) -0.162(2) 0.245(6)
H23 H 0.058(9) -0.221(2) 0.174(6)
H27 H 0.207(4) -0.072(1) 0.143(3)
O7 O 0.4008(3) -0.0675(1) 0.0473(4)
H28 H 0.439(5) -0.103(2) 0.072(4)
H30 H 0.49(2) -0.033(6) 0.12(1)
O8 O 0.3963(5) -0.0141(2) -0.2061(3)
H31 H 0.307(6) 0.003(2) -0.235(5)
H33 H 0.35(1) -0.050(4) -0.227(8)
H24? H -0.16(1) 0.291(3) 0.288(8)
H25? H 0.05(1) 0.301(4) 0.388(8)
H26? H -0.05(1) 0.344(3) 0.31(1)
H29? H 0.395(7) -0.060(2) -0.024(6)
H32? H 0.52(2) -0.012(5) -0.24(1)
loop_
_geom_bond_atom_site_label_1
_geom_bond_atom_site_label_2
_geom_bond_site_symmetry_1
_geom_bond_site_symmetry_2
O1 C1 1_555 1_555
O2 C3 1_555 1_555
O3 C8 1_555 1_555
O4 C10 1_555 1_555
O5 C18 1_555 1_555
O6 C18 1_555 1_555
O7 H28 1_555 1_555
O8 H31 1_555 1_555
N1 C5 1_555 1_555
N2 C5 1_555 1_555
C1 C16 1_555 1_555
C2 O1 1_555 1_555
C3 C2 1_555 1_555
C4 O2 1_555 1_555
C5 C4 1_555 1_555
C6 N1 1_555 1_555
C7 N2 1_555 1_555
C8 C7 1_555 1_555
C9 O3 1_555 1_555
C10 C9 1_555 1_555
C11 O4 1_555 1_555
C12 C11 1_555 1_555
C13 C12 1_555 1_555
C14 C13 1_555 1_555
C15 C14 1_555 1_555
C16 C15 1_555 1_555
C17 C12 1_555 1_555
C18 C17 1_555 1_555
C19 O6 1_555 1_555
H1 C1 1_555 1_555
H2 C1 1_555 1_555
H3 C2 1_555 1_555
H4 C2 1_555 1_555
H5 C3 1_555 1_555
H6 C3 1_555 1_555
H7 C4 1_555 1_555
H8 C4 1_555 1_555
H9 C6 1_555 1_555
H10 C8 1_555 1_555
H11 C8 1_555 1_555
H12 C9 1_555 1_555
H13 C9 1_555 1_555
H14 C10 1_555 1_555
H15 C10 1_555 1_555
H16 C11 1_555 1_555
H17 C11 1_555 1_555
H18 C13 1_555 1_555
H19 C14 1_555 1_555
H20 C15 1_555 1_555
H21 C19 1_555 1_555
H22 C19 1_555 1_555
H23 C19 1_555 1_555
H27 N2 1_555 1_555
H30 O7 1_555 1_555
H33 O8 1_555 1_555
C6 C7 1_555 1_555
C16 C17 1_555 1_555

#END
