
#######################################################################
#
#                 Cambridge Crystallographic Data Centre
#                                CCDC 
#
#######################################################################
#
# If this CIF has been generated from an entry in the Cambridge 
# Structural Database, then it will include bibliographic, chemical, 
# crystal, experimental, refinement or atomic coordinate data resulting 
# from the CCDC's data processing and validation procedures.
#
#######################################################################

data_KAGVIA
_chemical_formula_moiety         'C27 H23 N1 O5'
_chemical_name_systematic        
5-(3-cinnamoylphenyl)-4,5,6,7-tetrahydro-3H-2,8,5-benzodioxazacycloundecine-1,9-dione
_symmetry_cell_setting           monoclinic
_symmetry_space_group_name_H-M   'P 21/n'
_symmetry_Int_Tables_number      14
_space_group_name_Hall           '-P 2yn'
loop_
_symmetry_equiv_pos_site_id
_symmetry_equiv_pos_as_xyz
1 x,y,z
2 1/2-x,1/2+y,1/2-z
3 -x,-y,-z
4 1/2+x,1/2-y,1/2+z
_cell_length_a                   8.2118(11)
_cell_length_b                   21.194(3)
_cell_length_c                   12.9119(16)
_cell_angle_alpha                90
_cell_angle_beta                 91.247(3)
_cell_angle_gamma                90
_cell_volume                     2246.67
_cell_formula_units_Z            4
loop_
_atom_site_label
_atom_site_type_symbol
_atom_site_fract_x
_atom_site_fract_y
_atom_site_fract_z
C1 C 0.6384(5) 0.17016(19) 0.6792(3)
H1 H 0.7159 0.1693 0.7328
C2 C 0.4884(4) 0.19815(18) 0.6962(3)
C3 C 0.6757(5) 0.1436(2) 0.5850(3)
C4 C 0.5594(5) 0.1450(2) 0.5036(3)
H2 H 0.5833 0.1280 0.4393
C5 C 0.4130(5) 0.1713(2) 0.5199(3)
H3 H 0.3357 0.1714 0.4662
C6 C 0.3738(5) 0.19797(19) 0.6130(3)
H4 H 0.2716 0.2160 0.6213
C7 C 0.8386(5) 0.1145(2) 0.5643(3)
C8 C 0.9442(5) 0.0925(2) 0.6504(3)
H5 H 0.9089 0.0959 0.7182
C9 C 1.0893(6) 0.0678(2) 0.6322(4)
H6 H 1.1168 0.0660 0.5628
C10 C 1.2102(6) 0.0435(2) 0.7037(5)
C11 C 1.4827(9) 0.0009(4) 0.7329(8)
H7 H 1.5830 -0.0109 0.7071
C12 C 1.1856(7) 0.0379(2) 0.8091(5)
H8 H 1.0865 0.0511 0.8351
C13 C 1.4504(12) -0.0043(4) 0.8379(8)
H9 H 1.5307 -0.0202 0.8826
C14 C 1.3601(8) 0.0243(3) 0.6682(6)
H10 H 1.3795 0.0273 0.5977
C15 C 1.3020(10) 0.0136(3) 0.8778(6)
H11 H 1.2811 0.0094 0.9479
C16 C 0.2622(5) 0.15492(18) 1.1265(3)
C17 C 0.1093(5) 0.14620(18) 1.0775(3)
C18 C 0.0054(6) 0.1028(2) 1.2345(3)
H12 H -0.0805 0.0846 1.2696
C19 C -0.0139(5) 0.1198(2) 1.1323(3)
H13 H -0.1142 0.1131 1.0992
C20 C 0.2812(5) 0.1388(2) 1.2301(3)
H14 H 0.3810 0.1452 1.2640
C21 C 0.1511(6) 0.1129(2) 1.2841(3)
H15 H 0.1643 0.1026 1.3538
C22 C 0.4085(5) 0.1783(2) 1.0756(3)
C23 C 0.0700(5) 0.1655(2) 0.9692(3)
O1 O -0.0433(3) 0.14567(17) 0.9189(2)
O2 O 0.4951(4) 0.21946(19) 1.1116(2)
O3 O 0.8820(4) 0.1093(2) 0.4748(2)
O4 O 0.1721(3) 0.20947(13) 0.93446(18)
O5 O 0.4414(3) 0.14656(12) 0.98925(19)
C24 C 0.3002(5) 0.26364(19) 0.7995(3)
H16 H 0.2791 0.2851 0.7342
H17 H 0.3186 0.2957 0.8521
C25 C 0.1544(5) 0.2268(2) 0.8262(3)
H18 H 0.0568 0.2519 0.8151
H19 H 0.1461 0.1893 0.7834
C26 C 0.5688(5) 0.2262(2) 0.8757(3)
H20 H 0.5386 0.2588 0.9243
H21 H 0.6738 0.2376 0.8483
C27 C 0.5880(5) 0.1651(2) 0.9343(3)
H22 H 0.6157 0.1319 0.8860
H23 H 0.6778 0.1692 0.9839
N1 N 0.4492(4) 0.22579(15) 0.7904(2)
loop_
_geom_bond_atom_site_label_1
_geom_bond_atom_site_label_2
_geom_bond_site_symmetry_1
_geom_bond_site_symmetry_2
C1 H1 1_555 1_555
C2 C1 1_555 1_555
C3 C1 1_555 1_555
C4 C3 1_555 1_555
H2 C4 1_555 1_555
C5 C4 1_555 1_555
H3 C5 1_555 1_555
C6 C2 1_555 1_555
H4 C6 1_555 1_555
C7 C3 1_555 1_555
C8 C7 1_555 1_555
H5 C8 1_555 1_555
C9 C8 1_555 1_555
H6 C9 1_555 1_555
C10 C9 1_555 1_555
C11 H7 1_555 1_555
C12 C10 1_555 1_555
H8 C12 1_555 1_555
C13 C11 1_555 1_555
H9 C13 1_555 1_555
C14 C10 1_555 1_555
H10 C14 1_555 1_555
C15 C12 1_555 1_555
H11 C15 1_555 1_555
C16 C17 1_555 1_555
C17 C19 1_555 1_555
C18 H12 1_555 1_555
C19 C18 1_555 1_555
H13 C19 1_555 1_555
C20 C16 1_555 1_555
H14 C20 1_555 1_555
C21 C18 1_555 1_555
H15 C21 1_555 1_555
C22 C16 1_555 1_555
C23 C17 1_555 1_555
O1 C23 1_555 1_555
O2 C22 1_555 1_555
O3 C7 1_555 1_555
O4 C23 1_555 1_555
O5 C22 1_555 1_555
C24 H16 1_555 1_555
H17 C24 1_555 1_555
C25 O4 1_555 1_555
H18 C25 1_555 1_555
H19 C25 1_555 1_555
C26 H20 1_555 1_555
H21 C26 1_555 1_555
C27 O5 1_555 1_555
H22 C27 1_555 1_555
H23 C27 1_555 1_555
N1 C2 1_555 1_555
C5 C6 1_555 1_555
C11 C14 1_555 1_555
C13 C15 1_555 1_555
C20 C21 1_555 1_555
C24 C25 1_555 1_555
C24 N1 1_555 1_555
C26 C27 1_555 1_555
C26 N1 1_555 1_555

#END
