
#######################################################################
#
#                 Cambridge Crystallographic Data Centre
#                                CCDC 
#
#######################################################################
#
# If this CIF has been generated from an entry in the Cambridge 
# Structural Database, then it will include bibliographic, chemical, 
# crystal, experimental, refinement or atomic coordinate data resulting 
# from the CCDC's data processing and validation procedures.
#
#######################################################################

data_KAHBIH
_chemical_formula_moiety         'C15 H37 N6 3+,2(Br1 1-),H1 O1 1-,H2 O1'
_chemical_name_systematic        
"N-(3-(Dimethylazaniumyl)propyl)-N-(N,N,N',N'-tetramethylformamidinio)-N',N',N'',N''-tetramethylguanidinium dibromide hydroxide monohydrate"
_symmetry_cell_setting           monoclinic
_symmetry_space_group_name_H-M   'P 21'
_symmetry_Int_Tables_number      4
_space_group_name_Hall           'P 2yb'
loop_
_symmetry_equiv_pos_site_id
_symmetry_equiv_pos_as_xyz
1 x,y,z
2 -x,1/2+y,-z
_cell_length_a                   9.1584(6)
_cell_length_b                   12.2932(7)
_cell_length_c                   10.6633(6)
_cell_angle_alpha                90
_cell_angle_beta                 97.454(3)
_cell_angle_gamma                90
_cell_volume                     1190.39
_exptl_crystal_colour            colorless
_exptl_crystal_description       prism
_cell_formula_units_Z            2
loop_
_atom_site_label
_atom_site_type_symbol
_atom_site_fract_x
_atom_site_fract_y
_atom_site_fract_z
Br1 Br 0.93762(4) 0.22807(3) 0.49250(4)
Br2 Br 0.53705(4) 0.94972(3) 0.87115(3)
Br3 Br 0.05637(7) 0.84749(5) 0.00432(6)
O1 O 0.7750(3) 0.7662(2) 0.8224(3)
H1 H 0.720(5) 0.809(4) 0.831(4)
C1 C 0.3100(3) 0.4939(2) 0.7726(2)
N1 N 0.4205(3) 0.5645(2) 0.7784(2)
N2 N 0.1715(3) 0.5246(2) 0.7743(2)
C2 C 0.5739(3) 0.5375(3) 0.8281(3)
H2 H 0.5747 0.4800 0.8919
H3 H 0.6231 0.6023 0.8668
H4 H 0.6258 0.5122 0.7588
C3 C 0.4007(4) 0.6751(2) 0.7265(3)
H5 H 0.3067 0.6796 0.6712
H6 H 0.4814 0.6922 0.6777
H7 H 0.4009 0.7274 0.7959
C4 C 0.1345(4) 0.6237(3) 0.8414(3)
H8 H 0.2218 0.6491 0.8965
H9 H 0.0558 0.6074 0.8926
H10 H 0.1013 0.6804 0.7797
C5 C 0.0433(3) 0.4656(3) 0.7104(3)
H11 H 0.0770 0.4034 0.6643
H12 H -0.0150 0.5144 0.6508
H13 H -0.0175 0.4396 0.7734
C6 C 0.4445(3) 0.3476(2) 0.6899(3)
N3 N 0.5375(3) 0.26813(19) 0.7292(2)
N4 N 0.4440(3) 0.3922(2) 0.5757(2)
C7 C 0.5991(3) 0.2503(3) 0.8627(3)
H14 H 0.5651 0.3081 0.9152
H15 H 0.7069 0.2514 0.8704
H16 H 0.5661 0.1796 0.8909
C8 C 0.5846(4) 0.1889(2) 0.6400(3)
H17 H 0.5175 0.1916 0.5606
H18 H 0.5832 0.1157 0.6763
H19 H 0.6848 0.2064 0.6234
C9 C 0.3103(3) 0.4361(3) 0.5014(3)
H20 H 0.2244 0.3945 0.5200
H21 H 0.3193 0.4304 0.4110
H22 H 0.2983 0.5126 0.5236
C10 C 0.5804(3) 0.4063(3) 0.5171(3)
H23 H 0.6647 0.3800 0.5752
H24 H 0.5941 0.4835 0.4990
H25 H 0.5729 0.3646 0.4381
N5 N 0.3413(3) 0.38281(19) 0.7657(2)
C11 C 0.2721(3) 0.3039(2) 0.8469(3)
H26 H 0.1924 0.3411 0.8846
H27 H 0.3469 0.2800 0.9169
C12 C 0.2085(3) 0.2040(2) 0.7739(3)
H28 H 0.1152 0.2233 0.7209
H29 H 0.2786 0.1771 0.7178
C13 C 0.1805(3) 0.1162(2) 0.8688(3)
H30 H 0.2761 0.0846 0.9054
H31 H 0.1352 0.1501 0.9385
N6 N 0.0827(3) 0.0267(2) 0.8125(2)
H32 H 0.084(4) -0.022(3) 0.870(4)
C14 C -0.0748(3) 0.0601(3) 0.7838(3)
H33 H -0.1061 0.0957 0.8581
H34 H -0.1359 -0.0043 0.7621
H35 H -0.0857 0.1109 0.7123
C15 C 0.1372(4) -0.0259(3) 0.7013(3)
H36 H 0.1264 0.0247 0.6297
H37 H 0.0797 -0.0918 0.6783
H38 H 0.2412 -0.0452 0.7229
O2 O 0.2652(3) 0.1697(2) 0.4200(3)
H39 H 0.185(6) 0.177(4) 0.442(4)
H40 H 0.252(5) 0.200(4) 0.346(5)
loop_
_geom_bond_atom_site_label_1
_geom_bond_atom_site_label_2
_geom_bond_site_symmetry_1
_geom_bond_site_symmetry_2
O1 H1 1_555 1_555
C1 N1 1_555 1_555
N1 C2 1_555 1_555
N2 C1 1_555 1_555
C2 H2 1_555 1_555
H3 C2 1_555 1_555
H4 C2 1_555 1_555
C3 N1 1_555 1_555
H5 C3 1_555 1_555
H6 C3 1_555 1_555
H7 C3 1_555 1_555
C4 N2 1_555 1_555
H8 C4 1_555 1_555
H9 C4 1_555 1_555
H10 C4 1_555 1_555
C5 N2 1_555 1_555
H11 C5 1_555 1_555
H12 C5 1_555 1_555
H13 C5 1_555 1_555
C6 N3 1_555 1_555
N3 C7 1_555 1_555
N4 C6 1_555 1_555
C7 H14 1_555 1_555
H15 C7 1_555 1_555
H16 C7 1_555 1_555
C8 N3 1_555 1_555
H17 C8 1_555 1_555
H18 C8 1_555 1_555
H19 C8 1_555 1_555
C9 N4 1_555 1_555
H20 C9 1_555 1_555
H21 C9 1_555 1_555
H22 C9 1_555 1_555
C10 N4 1_555 1_555
H23 C10 1_555 1_555
H24 C10 1_555 1_555
H25 C10 1_555 1_555
N5 C1 1_555 1_555
C11 N5 1_555 1_555
H26 C11 1_555 1_555
H27 C11 1_555 1_555
C12 C11 1_555 1_555
H28 C12 1_555 1_555
H29 C12 1_555 1_555
C13 C12 1_555 1_555
H30 C13 1_555 1_555
H31 C13 1_555 1_555
N6 C13 1_555 1_555
H32 N6 1_555 1_555
C14 N6 1_555 1_555
H33 C14 1_555 1_555
H34 C14 1_555 1_555
H35 C14 1_555 1_555
C15 N6 1_555 1_555
H36 C15 1_555 1_555
H37 C15 1_555 1_555
H38 C15 1_555 1_555
O2 H39 1_555 1_555
H40 O2 1_555 1_555
C6 N5 1_555 1_555

#END
