
#######################################################################
#
#                 Cambridge Crystallographic Data Centre
#                                CCDC 
#
#######################################################################
#
# If this CIF has been generated from an entry in the Cambridge 
# Structural Database, then it will include bibliographic, chemical, 
# crystal, experimental, refinement or atomic coordinate data resulting 
# from the CCDC's data processing and validation procedures.
#
#######################################################################

data_KAHBED
_chemical_formula_moiety         'C10 H15 N1 O1'
_chemical_name_systematic        3-(Diethylamino)phenol
_symmetry_cell_setting           orthorhombic
_symmetry_space_group_name_H-M   'P b c a'
_symmetry_Int_Tables_number      61
_space_group_name_Hall           '-P 2ac 2ab'
loop_
_symmetry_equiv_pos_site_id
_symmetry_equiv_pos_as_xyz
1 x,y,z
2 1/2-x,-y,1/2+z
3 -x,1/2+y,1/2-z
4 1/2+x,1/2-y,-z
5 -x,-y,-z
6 1/2+x,y,1/2-z
7 x,1/2-y,1/2+z
8 1/2-x,1/2+y,z
_cell_length_a                   14.5166(17)
_cell_length_b                   15.9102(18)
_cell_length_c                   16.0527(18)
_cell_angle_alpha                90
_cell_angle_beta                 90
_cell_angle_gamma                90
_cell_volume                     3707.56
_exptl_crystal_colour            colorless
_exptl_crystal_description       shard
_cell_formula_units_Z            16
loop_
_atom_site_label
_atom_site_type_symbol
_atom_site_fract_x
_atom_site_fract_y
_atom_site_fract_z
O1 O 0.53496(8) 0.52600(7) 0.61994(7)
H1 H 0.5319(14) 0.5635(10) 0.5812(10)
N1 N 0.82785(10) 0.66193(9) 0.66954(9)
C1 C 0.61885(11) 0.53018(10) 0.66024(10)
C2 C 0.68001(11) 0.59514(10) 0.64446(10)
H2 H 0.6639 0.6379 0.6058
C3 C 0.76619(12) 0.59821(9) 0.68541(10)
C4 C 0.78585(12) 0.53347(10) 0.74327(10)
H3 H 0.8423 0.5342 0.7732
C5 C 0.72339(12) 0.46927(10) 0.75652(10)
H4 H 0.7385 0.4260 0.7950
C6 C 0.63954(12) 0.46591(10) 0.71552(10)
H5 H 0.5976 0.4211 0.7249
C7 C 0.92033(12) 0.66198(11) 0.70474(11)
H6 H 0.9631 0.6884 0.6644
H7 H 0.9405 0.6031 0.7130
C8 C 0.92687(14) 0.70839(12) 0.78718(12)
H8 H 0.9910 0.7089 0.8061
H9 H 0.8885 0.6800 0.8287
H10 H 0.9053 0.7663 0.7799
C9 C 0.80758(12) 0.72813(10) 0.60980(11)
H11 H 0.8460 0.7778 0.6230
H12 H 0.7422 0.7448 0.6159
C10 C 0.82475(13) 0.70291(11) 0.52001(11)
H13 H 0.8167 0.7520 0.4838
H14 H 0.7809 0.6590 0.5038
H15 H 0.8877 0.6814 0.5144
O2 O 0.50614(8) 0.61366(7) 0.47501(7)
N2 N 0.63804(10) 0.88712(8) 0.50028(8)
C11 C 0.55769(11) 0.67627(9) 0.43824(10)
H16 H 0.4968(13) 0.5730(9) 0.4404(10)
C12 C 0.57128(10) 0.74811(9) 0.48544(9)
H17 H 0.5458 0.7517 0.5398
C13 C 0.62260(11) 0.81588(9) 0.45334(9)
C14 C 0.65707(11) 0.80848(10) 0.37146(10)
H18 H 0.6905 0.8536 0.3473
C15 C 0.64237(11) 0.73569(10) 0.32641(10)
H19 H 0.6669 0.7317 0.2717
C16 C 0.59298(11) 0.66813(10) 0.35830(10)
H20 H 0.5837 0.6184 0.3266
C17 C 0.68674(12) 0.95955(10) 0.46599(11)
H21 H 0.6678 1.0105 0.4969
H22 H 0.6681 0.9671 0.4071
C18 C 0.79083(12) 0.95156(11) 0.47007(11)
H23 H 0.8192 1.0041 0.4512
H24 H 0.8109 0.9053 0.4340
H25 H 0.8096 0.9401 0.5276
C19 C 0.61651(12) 0.89193(10) 0.58880(10)
H26 H 0.6664 0.9230 0.6175
H27 H 0.6150 0.8343 0.6120
C20 C 0.52551(13) 0.93469(12) 0.60712(12)
H28 H 0.5179 0.9405 0.6675
H29 H 0.4750 0.9008 0.5846
H30 H 0.5248 0.9904 0.5812
loop_
_geom_bond_atom_site_label_1
_geom_bond_atom_site_label_2
_geom_bond_site_symmetry_1
_geom_bond_site_symmetry_2
O1 H1 1_555 1_555
N1 C3 1_555 1_555
C1 O1 1_555 1_555
C2 C1 1_555 1_555
H2 C2 1_555 1_555
C3 C2 1_555 1_555
C4 C3 1_555 1_555
H3 C4 1_555 1_555
C5 C4 1_555 1_555
H4 C5 1_555 1_555
C6 C1 1_555 1_555
H5 C6 1_555 1_555
C7 N1 1_555 1_555
H6 C7 1_555 1_555
H7 C7 1_555 1_555
C8 C7 1_555 1_555
H8 C8 1_555 1_555
H9 C8 1_555 1_555
H10 C8 1_555 1_555
C9 N1 1_555 1_555
H11 C9 1_555 1_555
H12 C9 1_555 1_555
C10 C9 1_555 1_555
H13 C10 1_555 1_555
H14 C10 1_555 1_555
H15 C10 1_555 1_555
O2 C11 1_555 1_555
N2 C13 1_555 1_555
C11 C12 1_555 1_555
H16 O2 1_555 1_555
C12 H17 1_555 1_555
C13 C12 1_555 1_555
C14 C13 1_555 1_555
H18 C14 1_555 1_555
C15 C14 1_555 1_555
H19 C15 1_555 1_555
C16 C11 1_555 1_555
H20 C16 1_555 1_555
C17 N2 1_555 1_555
H21 C17 1_555 1_555
H22 C17 1_555 1_555
C18 C17 1_555 1_555
H23 C18 1_555 1_555
H24 C18 1_555 1_555
H25 C18 1_555 1_555
C19 N2 1_555 1_555
H26 C19 1_555 1_555
H27 C19 1_555 1_555
C20 C19 1_555 1_555
H28 C20 1_555 1_555
H29 C20 1_555 1_555
H30 C20 1_555 1_555
C5 C6 1_555 1_555
C15 C16 1_555 1_555

#END
