
#######################################################################
#
#                 Cambridge Crystallographic Data Centre
#                                CCDC 
#
#######################################################################
#
# If this CIF has been generated from an entry in the Cambridge 
# Structural Database, then it will include bibliographic, chemical, 
# crystal, experimental, refinement or atomic coordinate data resulting 
# from the CCDC's data processing and validation procedures.
#
#######################################################################

data_KAHFIK
_chemical_name_common            
'3-Aminomethyl-4-methoxyimino-3-methylpiperidine dihydrochloride'
_chemical_formula_moiety         'C8 H19 N3 O1 2+,2(Cl1 1-)'
_chemical_name_systematic        
'3-(Ammoniomethyl)-4-(methoxyimino)-3-methylpiperidinium dichloride'
_symmetry_cell_setting           orthorhombic
_symmetry_space_group_name_H-M   'P b c a'
_symmetry_Int_Tables_number      61
_space_group_name_Hall           '-P 2ac 2ab'
loop_
_symmetry_equiv_pos_site_id
_symmetry_equiv_pos_as_xyz
1 x,y,z
2 1/2-x,-y,1/2+z
3 -x,1/2+y,1/2-z
4 1/2+x,1/2-y,-z
5 -x,-y,-z
6 1/2+x,y,1/2-z
7 x,1/2-y,1/2+z
8 1/2-x,1/2+y,z
_cell_length_a                   7.6449(12)
_cell_length_b                   26.311(3)
_cell_length_c                   27.302(3)
_cell_angle_alpha                90
_cell_angle_beta                 90
_cell_angle_gamma                90
_cell_volume                     5491.66
_exptl_crystal_colour            colorless
_cell_formula_units_Z            16
_chemical_properties_physical    Moisture-sensitive
_exptl_crystal_recrystallization_method Methanol/Dichloromethane
loop_
_atom_site_label
_atom_site_type_symbol
_atom_site_fract_x
_atom_site_fract_y
_atom_site_fract_z
Cl1 Cl 0.8503(2) 0.45209(5) 0.08622(4)
Cl2 Cl 0.4071(2) 0.38323(5) 0.01657(5)
Cl3 Cl 0.1790(3) 0.70018(6) 0.03347(6)
Cl4 Cl 0.3657(3) 0.36734(7) 0.19249(6)
N1 N 0.1948(6) 0.57771(15) 0.02357(13)
H1 H 0.2522 0.6067 0.0303
H2 H 0.1895 0.5744 -0.0092
N2 N 0.1050(6) 0.53023(17) 0.16661(15)
N3 N 0.2680(6) 0.44218(15) 0.11072(13)
H3 H 0.1573 0.4526 0.1096
H4 H 0.2804 0.4194 0.1345
H5 H 0.2969 0.4281 0.0822
O1 O -0.0565(6) 0.54898(17) 0.18711(13)
C1 C 0.2948(7) 0.53393(18) 0.04435(15)
H11 H 0.4104 0.5329 0.0297
H12 H 0.2354 0.5025 0.0361
C2 C 0.3133(7) 0.53800(18) 0.10146(15)
C3 C 0.1367(7) 0.55187(19) 0.12448(17)
C4 C 0.0197(8) 0.5899(2) 0.09905(18)
H13 H 0.0622 0.6239 0.1056
H14 H -0.0977 0.5872 0.1123
C5 C 0.0135(8) 0.5812(2) 0.04343(19)
H15 H -0.0495 0.5501 0.0364
H16 H -0.0478 0.6092 0.0278
C6 C -0.1108(11) 0.5124(4) 0.2244(3)
H17 H -0.1552 0.4824 0.2088
H18 H -0.2006 0.5272 0.2445
H19 H -0.0122 0.5037 0.2445
C7 C 0.3849(7) 0.4867(2) 0.12054(18)
H20 H 0.4977 0.4805 0.1054
H21 H 0.4034 0.4894 0.1556
C8 C 0.4467(7) 0.5803(2) 0.11409(17)
H22 H 0.4039 0.6124 0.1024
H23 H 0.5567 0.5729 0.0987
H24 H 0.4622 0.5819 0.1489
N4 N 0.7793(7) 0.84926(16) 0.13733(15)
H6 H 0.7767 0.8788 0.1208
H7 H 0.8825 0.8476 0.1531
N5 N 0.5076(8) 0.7155(2) 0.16869(16)
N6 N 0.5789(17) 0.7213(3) 0.0535(3)
H8 H 0.4882 0.7316 0.0714
H9 H 0.5525 0.6922 0.0387
H10 H 0.6039 0.7448 0.0311
O2 O 0.3988(7) 0.71841(18) 0.21084(16)
C9 C 0.7709(10) 0.8067(2) 0.10129(18)
H25 H 0.8764 0.8070 0.0815
H26 H 0.6723 0.8122 0.0796
C10 C 0.7525(10) 0.7550(2) 0.1253(2)
C11 C 0.6074(9) 0.7539(2) 0.16509(19)
C12 C 0.6120(10) 0.8000(2) 0.1995(2)
H27 H 0.5041 0.8007 0.2181
H28 H 0.7073 0.7954 0.2225
C13 C 0.6339(10) 0.8498(2) 0.1751(2)
H29 H 0.6597 0.8754 0.1997
H30 H 0.5250 0.8591 0.1593
C14 C 0.3016(11) 0.6722(3) 0.2153(3)
H31 H 0.2281 0.6680 0.1871
H32 H 0.2304 0.6736 0.2442
H33 H 0.3810 0.6441 0.2176
C15 C 0.734(3) 0.7136(14) 0.0861(15)
H34 H 0.8390 0.7130 0.0662
H35 H 0.7237 0.6808 0.1021
C16 C 0.9360(10) 0.7409(3) 0.1502(2)
H36 H 1.0256 0.7401 0.1256
H37 H 0.9274 0.7082 0.1655
H38 H 0.9647 0.7660 0.1744
C17? C 0.655(8) 0.710(4) 0.086(4)
H39? H 0.6733 0.6758 0.0987
H40? H 0.5299 0.7157 0.0840
H41? H 0.7056 0.7433 0.0234
H42? H 0.6867 0.6886 0.0176
H43? H 0.8465 0.7095 0.0383
N7? N 0.731(4) 0.7131(6) 0.0364(7)
loop_
_geom_bond_atom_site_label_1
_geom_bond_atom_site_label_2
_geom_bond_site_symmetry_1
_geom_bond_site_symmetry_2
N1 H1 1_555 1_555
H2 N1 1_555 1_555
N2 O1 1_555 1_555
N3 H3 1_555 1_555
H4 N3 1_555 1_555
H5 N3 1_555 1_555
N4 H6 1_555 1_555
H7 N4 1_555 1_555
N5 O2 1_555 1_555
N6 H8 1_555 1_555
H9 N6 1_555 1_555
H10 N6 1_555 1_555
O1 C6 1_555 1_555
O2 C14 1_555 1_555
C1 N1 1_555 1_555
H11 C1 1_555 1_555
H12 C1 1_555 1_555
C2 C1 1_555 1_555
C3 N2 1_555 1_555
C4 C3 1_555 1_555
H13 C4 1_555 1_555
H14 C4 1_555 1_555
C5 N1 1_555 1_555
H15 C5 1_555 1_555
H16 C5 1_555 1_555
C6 H17 1_555 1_555
H18 C6 1_555 1_555
H19 C6 1_555 1_555
C7 N3 1_555 1_555
H20 C7 1_555 1_555
H21 C7 1_555 1_555
C8 C2 1_555 1_555
H22 C8 1_555 1_555
H23 C8 1_555 1_555
H24 C8 1_555 1_555
C9 N4 1_555 1_555
H25 C9 1_555 1_555
H26 C9 1_555 1_555
C10 C9 1_555 1_555
C11 N5 1_555 1_555
C12 C11 1_555 1_555
H27 C12 1_555 1_555
H28 C12 1_555 1_555
C13 N4 1_555 1_555
H29 C13 1_555 1_555
H30 C13 1_555 1_555
C14 H31 1_555 1_555
H32 C14 1_555 1_555
H33 C14 1_555 1_555
C15 N6 1_555 1_555
H34 C15 1_555 1_555
H35 C15 1_555 1_555
C16 C10 1_555 1_555
H36 C16 1_555 1_555
H37 C16 1_555 1_555
H38 C16 1_555 1_555
C2 C3 1_555 1_555
C2 C7 1_555 1_555
C4 C5 1_555 1_555
C10 C11 1_555 1_555
C10 C15 1_555 1_555
C12 C13 1_555 1_555

#END
