
#######################################################################
#
#                 Cambridge Crystallographic Data Centre
#                                CCDC 
#
#######################################################################
#
# If this CIF has been generated from an entry in the Cambridge 
# Structural Database, then it will include bibliographic, chemical, 
# crystal, experimental, refinement or atomic coordinate data resulting 
# from the CCDC's data processing and validation procedures.
#
#######################################################################

data_KAHFEH
_chemical_compound_source        'aerial parts of Itea ilicifolia'
_chemical_name_common            'Iteafuranal A'
_chemical_formula_moiety         'C18 H14 O5'
_chemical_name_systematic        
(E)-2-(3,4-Dihydroxyphenyl)-4-hydroxy-5-(prop-1-en-1-yl)-1-benzofuran-3-carbaldehyde
_chemical_properties_biological  'DPPH free radical scavenging activity'
_symmetry_cell_setting           monoclinic
_symmetry_space_group_name_H-M   'C c'
_symmetry_Int_Tables_number      9
_space_group_name_Hall           'C -2yc'
loop_
_symmetry_equiv_pos_site_id
_symmetry_equiv_pos_as_xyz
1 x,y,z
2 x,-y,1/2+z
3 1/2+x,1/2+y,z
4 1/2+x,1/2-y,1/2+z
_cell_length_a                   15.1119(11)
_cell_length_b                   14.3209(9)
_cell_length_c                   14.7996(8)
_cell_angle_alpha                90
_cell_angle_beta                 116.284(8)
_cell_angle_gamma                90
_cell_volume                     2871.73
_exptl_crystal_colour            yellow
_exptl_crystal_description       needle
_cell_formula_units_Z            8
_exptl_crystal_recrystallization_method methanol
loop_
_atom_site_label
_atom_site_type_symbol
_atom_site_fract_x
_atom_site_fract_y
_atom_site_fract_z
O1 O 0.81524(17) 0.72092(17) 0.67548(16)
O2 O 0.8175(2) 1.16424(17) 0.7077(2)
H1 H 0.7955 1.1724 0.7502
O3 O 0.7309(2) 1.03946(17) 0.78249(18)
H2 H 0.6942 0.9988 0.7892
O4 O 0.7866(2) 0.56811(17) 0.38341(16)
H3 H 0.7872 0.6245 0.3679
O5 O 0.7845(2) 0.75080(17) 0.35282(18)
C1 C 0.8143(3) 1.0713(3) 0.6853(2)
C2 C 0.7703(3) 1.0054(2) 0.7219(2)
C3 C 0.7691(3) 0.9123(3) 0.6970(2)
H4 H 0.7401 0.8674 0.7230
C4 C 0.8103(2) 0.8838(2) 0.6336(2)
C5 C 0.8563(3) 0.9501(3) 0.5989(3)
H5 H 0.8860 0.9314 0.5571
C6 C 0.8582(3) 1.0427(3) 0.6258(3)
H6 H 0.8902 1.0873 0.6029
C7 C 0.8069(3) 0.7857(3) 0.6050(2)
C8 C 0.7993(2) 0.7431(2) 0.5178(2)
C9 C 0.8044(2) 0.6434(2) 0.5365(2)
C10 C 0.8156(3) 0.6330(2) 0.6348(2)
C11 C 0.8267(3) 0.5479(3) 0.6833(2)
H7 H 0.8350 0.5434 0.7506
C12 C 0.8250(3) 0.4706(3) 0.6278(2)
H8 H 0.8339 0.4111 0.6590
C13 C 0.8108(3) 0.4744(2) 0.5269(2)
C14 C 0.8002(2) 0.5621(2) 0.4819(2)
C15 C 0.8111(3) 0.3904(3) 0.4698(3)
H9 H 0.8081 0.4011 0.4052
C16 C 0.8149(3) 0.3018(3) 0.4971(3)
H10 H 0.8155 0.2883 0.5602
C17 C 0.8182(3) 0.2220(3) 0.4336(3)
H11 H 0.8052 0.2449 0.3665
H12 H 0.7680 0.1758 0.4275
H13 H 0.8836 0.1928 0.4652
C18 C 0.7852(3) 0.7902(3) 0.4277(2)
H14 H 0.7758 0.8559 0.4247
O6 O 0.54671(17) 0.21769(17) 0.55218(16)
O7 O 0.5614(2) 0.66154(17) 0.58655(17)
H15 H 0.5849 0.6696 0.6491
O8 O 0.6395(2) 0.53609(17) 0.73842(16)
H16 H 0.6716 0.4936 0.7788
O9 O 0.5793(2) 0.06550(17) 0.28785(18)
H17 H 0.5683 0.1204 0.2657
O10 O 0.5846(2) 0.24917(17) 0.26129(18)
C19 C 0.5589(3) 0.5684(2) 0.5664(3)
C20 C 0.5997(3) 0.5022(2) 0.6422(2)
C21 C 0.5986(3) 0.4086(3) 0.6181(2)
H18 H 0.6276 0.3635 0.6701
C22 C 0.5545(3) 0.3806(3) 0.5168(2)
C23 C 0.5098(3) 0.4470(2) 0.4411(2)
H19 H 0.4777 0.4281 0.3726
C24 C 0.5123(3) 0.5409(3) 0.4661(3)
H20 H 0.4822 0.5862 0.4145
C25 C 0.5560(3) 0.2829(3) 0.4900(2)
C26 C 0.5643(3) 0.2401(2) 0.4101(3)
C27 C 0.5591(2) 0.1403(2) 0.4236(2)
C28 C 0.5486(3) 0.1299(3) 0.5121(2)
C29 C 0.5392(3) 0.0453(3) 0.5511(3)
H21 H 0.5314 0.0409 0.6112
C30 C 0.5418(3) -0.0324(2) 0.4981(2)
H22 H 0.5348 -0.0920 0.5225
C31 C 0.5544(3) -0.0283(2) 0.4085(2)
C32 C 0.5643(2) 0.0592(2) 0.3729(2)
C33 C 0.5558(3) -0.1123(3) 0.3525(3)
H23 H 0.5600 -0.1020 0.2911
C34 C 0.5520(3) -0.2008(3) 0.3767(3)
H24 H 0.5505 -0.2138 0.4390
C35 C 0.5498(3) -0.2814(3) 0.3115(3)
H25 H 0.5609 -0.2587 0.2548
H26 H 0.4854 -0.3123 0.2857
H27 H 0.6018 -0.3260 0.3511
C36 C 0.5808(3) 0.2883(3) 0.3339(2)
H28 H 0.5893 0.3542 0.3396
loop_
_geom_bond_atom_site_label_1
_geom_bond_atom_site_label_2
_geom_bond_site_symmetry_1
_geom_bond_site_symmetry_2
O1 C7 1_555 1_555
O2 H1 1_555 1_555
O3 H2 1_555 1_555
O4 H3 1_555 1_555
O5 C18 1_555 1_555
C1 O2 1_555 1_555
C2 O3 1_555 1_555
C3 C2 1_555 1_555
H4 C3 1_555 1_555
C4 C3 1_555 1_555
C5 C4 1_555 1_555
H5 C5 1_555 1_555
C6 C1 1_555 1_555
H6 C6 1_555 1_555
C7 C4 1_555 1_555
C8 C7 1_555 1_555
C9 C8 1_555 1_555
C10 O1 1_555 1_555
C11 C10 1_555 1_555
H7 C11 1_555 1_555
C12 C11 1_555 1_555
H8 C12 1_555 1_555
C13 C12 1_555 1_555
C14 O4 1_555 1_555
C15 C13 1_555 1_555
H9 C15 1_555 1_555
C16 C15 1_555 1_555
H10 C16 1_555 1_555
C17 C16 1_555 1_555
H11 C17 1_555 1_555
H12 C17 1_555 1_555
H13 C17 1_555 1_555
C18 C8 1_555 1_555
H14 C18 1_555 1_555
O6 C25 1_555 1_555
O7 H15 1_555 1_555
O8 H16 1_555 1_555
O9 H17 1_555 1_555
O10 C36 1_555 1_555
C19 O7 1_555 1_555
C20 O8 1_555 1_555
C21 C20 1_555 1_555
H18 C21 1_555 1_555
C22 C21 1_555 1_555
C23 C22 1_555 1_555
H19 C23 1_555 1_555
C24 C19 1_555 1_555
H20 C24 1_555 1_555
C25 C22 1_555 1_555
C26 C25 1_555 1_555
C27 C26 1_555 1_555
C28 O6 1_555 1_555
C29 C28 1_555 1_555
H21 C29 1_555 1_555
C30 C29 1_555 1_555
H22 C30 1_555 1_555
C31 C30 1_555 1_555
C32 O9 1_555 1_555
C33 C31 1_555 1_555
H23 C33 1_555 1_555
C34 C33 1_555 1_555
H24 C34 1_555 1_555
C35 C34 1_555 1_555
H25 C35 1_555 1_555
H26 C35 1_555 1_555
H27 C35 1_555 1_555
C36 C26 1_555 1_555
H28 C36 1_555 1_555
C1 C2 1_555 1_555
C5 C6 1_555 1_555
C9 C10 1_555 1_555
C9 C14 1_555 1_555
C13 C14 1_555 1_555
C19 C20 1_555 1_555
C23 C24 1_555 1_555
C27 C28 1_555 1_555
C27 C32 1_555 1_555
C31 C32 1_555 1_555

#END
