
#######################################################################
#
#                 Cambridge Crystallographic Data Centre
#                                CCDC 
#
#######################################################################
#
# If this CIF has been generated from an entry in the Cambridge 
# Structural Database, then it will include bibliographic, chemical, 
# crystal, experimental, refinement or atomic coordinate data resulting 
# from the CCDC's data processing and validation procedures.
#
#######################################################################

data_KAHHUZ01
_chemical_formula_moiety         'C31 H21 N1 O2'
_chemical_name_systematic        
(2,6-diphenylpyridine-3,5-diyl)bis(phenylmethanone)
_symmetry_cell_setting           monoclinic
_symmetry_space_group_name_H-M   'P 21/n'
_symmetry_Int_Tables_number      14
_space_group_name_Hall           '-P 2yn'
loop_
_symmetry_equiv_pos_site_id
_symmetry_equiv_pos_as_xyz
1 x,y,z
2 1/2-x,1/2+y,1/2-z
3 -x,-y,-z
4 1/2+x,1/2-y,1/2+z
_cell_length_a                   6.0329(2)
_cell_length_b                   20.9117(7)
_cell_length_c                   18.2330(7)
_cell_angle_alpha                90
_cell_angle_beta                 96.126(3)
_cell_angle_gamma                90
_cell_volume                     2287.11
_exptl_crystal_colour            white
_exptl_crystal_description       block
_cell_formula_units_Z            4
loop_
_atom_site_label
_atom_site_type_symbol
_atom_site_fract_x
_atom_site_fract_y
_atom_site_fract_z
N1 N 0.9089(3) 0.63395(8) 0.73678(10)
O1 O 1.0409(3) 0.71263(9) 0.53069(10)
O2 O 0.2368(3) 0.55020(9) 0.64325(13)
C1 C 0.9362(3) 0.67882(10) 0.68585(11)
C2 C 0.7496(4) 0.58957(10) 0.72244(12)
C3 C 0.7005(4) 0.76916(11) 0.52103(12)
C4 C 0.5095(4) 0.47331(11) 0.62159(12)
C5 C 1.1108(4) 0.72776(10) 0.70722(12)
C6 C 0.8044(4) 0.68036(10) 0.61771(12)
C7 C 0.6070(4) 0.58907(10) 0.65702(12)
C8 C 0.7290(4) 0.54201(10) 0.78238(12)
C9 C 0.8620(4) 0.72154(11) 0.55448(12)
C10 C 0.6359(4) 0.63568(11) 0.60497(12)
H1 H 0.5415 0.6369 0.5612
C11 C 1.0730(4) 0.79209(11) 0.69216(12)
H2 H 0.9375 0.8051 0.6676
C12 C 0.4332(4) 0.53811(11) 0.64080(13)
C13 C 0.5091(4) 0.78534(11) 0.55289(13)
H3 H 0.4793 0.7660 0.5967
C14 C 0.7430(5) 0.79882(12) 0.45521(13)
H4 H 0.8714 0.7887 0.4336
C15 C 1.3129(4) 0.70983(12) 0.74495(13)
H5 H 1.3394 0.6670 0.7564
C16 C 1.2356(4) 0.83710(12) 0.71352(14)
H6 H 1.2085 0.8801 0.7034
C17 C 1.4760(4) 0.75496(13) 0.76582(14)
H7 H 1.6115 0.7423 0.7907
C18 C 1.4370(5) 0.81850(13) 0.74966(14)
H8 H 1.5466 0.8488 0.7632
C19 C 0.7121(4) 0.46390(13) 0.59340(16)
H9 H 0.8060 0.4984 0.5878
C20 C 0.3748(4) 0.42120(12) 0.63079(14)
H10 H 0.2380 0.4270 0.6490
C21 C 0.9058(4) 0.50371(13) 0.80731(15)
H11 H 1.0377 0.5063 0.7853
C22 C 0.3626(5) 0.83011(13) 0.51951(15)
H12 H 0.2345 0.8408 0.5409
C23 C 0.7737(5) 0.40311(15) 0.57364(17)
H13 H 0.9064 0.3971 0.5529
C24 C 0.6397(5) 0.35161(13) 0.58459(15)
H14 H 0.6838 0.3107 0.5725
C25 C 0.5353(4) 0.53694(12) 0.81608(15)
H15 H 0.4120 0.5616 0.7991
C26 C 0.5223(5) 0.49558(14) 0.87497(16)
H16 H 0.3925 0.4937 0.8982
C27 C 0.4416(5) 0.36059(13) 0.61321(16)
H17 H 0.3515 0.3256 0.6208
C28 C 0.8904(5) 0.46134(15) 0.86475(18)
H18 H 1.0109 0.4352 0.8804
C29 C 0.6995(5) 0.45756(14) 0.89882(17)
H19 H 0.6904 0.4294 0.9378
C30 C 0.5950(5) 0.84302(14) 0.42225(15)
H20 H 0.6224 0.8622 0.3781
C31 C 0.4060(5) 0.85878(14) 0.45479(16)
H21 H 0.3073 0.8890 0.4327
loop_
_geom_bond_atom_site_label_1
_geom_bond_atom_site_label_2
_geom_bond_site_symmetry_1
_geom_bond_site_symmetry_2
N1 C1 1_555 1_555
O1 C9 1_555 1_555
O2 C12 1_555 1_555
C1 C5 1_555 1_555
C2 N1 1_555 1_555
C3 C9 1_555 1_555
C4 C12 1_555 1_555
C5 C11 1_555 1_555
C6 C1 1_555 1_555
C7 C2 1_555 1_555
C8 C2 1_555 1_555
C9 C6 1_555 1_555
C10 C6 1_555 1_555
H1 C10 1_555 1_555
C11 H2 1_555 1_555
C12 C7 1_555 1_555
C13 C3 1_555 1_555
H3 C13 1_555 1_555
C14 C3 1_555 1_555
H4 C14 1_555 1_555
C15 C5 1_555 1_555
H5 C15 1_555 1_555
C16 C11 1_555 1_555
H6 C16 1_555 1_555
C17 C15 1_555 1_555
H7 C17 1_555 1_555
C18 C16 1_555 1_555
H8 C18 1_555 1_555
C19 C4 1_555 1_555
H9 C19 1_555 1_555
C20 C4 1_555 1_555
H10 C20 1_555 1_555
C21 C8 1_555 1_555
H11 C21 1_555 1_555
C22 C13 1_555 1_555
H12 C22 1_555 1_555
C23 C19 1_555 1_555
H13 C23 1_555 1_555
C24 C23 1_555 1_555
H14 C24 1_555 1_555
C25 C8 1_555 1_555
H15 C25 1_555 1_555
C26 C25 1_555 1_555
H16 C26 1_555 1_555
C27 C20 1_555 1_555
H17 C27 1_555 1_555
C28 C21 1_555 1_555
H18 C28 1_555 1_555
C29 C26 1_555 1_555
H19 C29 1_555 1_555
C30 C14 1_555 1_555
H20 C30 1_555 1_555
C31 C22 1_555 1_555
H21 C31 1_555 1_555
C7 C10 1_555 1_555
C17 C18 1_555 1_555
C24 C27 1_555 1_555
C28 C29 1_555 1_555
C30 C31 1_555 1_555

#END
