
#######################################################################
#
#                 Cambridge Crystallographic Data Centre
#                                CCDC 
#
#######################################################################
#
# If this CIF has been generated from an entry in the Cambridge 
# Structural Database, then it will include bibliographic, chemical, 
# crystal, experimental, refinement or atomic coordinate data resulting 
# from the CCDC's data processing and validation procedures.
#
#######################################################################

data_KAHHOT
_chemical_formula_moiety         'C17 H13 N1'
_chemical_name_systematic        2,4-Diphenylpyridine
_symmetry_cell_setting           monoclinic
_symmetry_space_group_name_H-M   'P 21/c'
_symmetry_Int_Tables_number      14
_space_group_name_Hall           '-P 2ybc'
loop_
_symmetry_equiv_pos_site_id
_symmetry_equiv_pos_as_xyz
1 x,y,z
2 -x,1/2+y,1/2-z
3 -x,-y,-z
4 x,1/2-y,1/2+z
_cell_length_a                   12.591(2)
_cell_length_b                   7.6472(13)
_cell_length_c                   26.201(4)
_cell_angle_alpha                90
_cell_angle_beta                 102.210(2)
_cell_angle_gamma                90
_cell_volume                     2465.72
_exptl_crystal_colour            colorless
_exptl_crystal_description       block
_cell_formula_units_Z            8
loop_
_atom_site_label
_atom_site_type_symbol
_atom_site_fract_x
_atom_site_fract_y
_atom_site_fract_z
C1 C 0.15115(12) 0.0494(2) 0.19484(6)
C2 C 0.04961(13) -0.0282(2) 0.18391(6)
H1 H 0.0121 -0.0379 0.1494
C3 C 0.00299(16) -0.0917(3) 0.22374(8)
H2 H -0.0656 -0.1426 0.2159
C4 C 0.05841(18) -0.0794(3) 0.27474(8)
H3 H 0.0277 -0.1229 0.3015
C5 C 0.15909(18) -0.0029(3) 0.28612(7)
H4 H 0.1962 0.0059 0.3207
C6 C 0.20593(14) 0.0612(2) 0.24690(6)
H5 H 0.2744 0.1126 0.2552
C7 C 0.20294(12) 0.1120(2) 0.15225(6)
C8 C 0.14274(12) 0.1756(2) 0.10539(6)
H6 H 0.0676 0.1847 0.1006
C9 C 0.19358(12) 0.2259(2) 0.06547(6)
C10 C 0.35916(14) 0.1595(3) 0.11665(7)
H7 H 0.4344 0.1552 0.1211
C11 C 0.31456(13) 0.1046(3) 0.15730(7)
H8 H 0.3587 0.0628 0.1879
C12 C 0.13124(12) 0.2861(2) 0.01385(6)
C13 C 0.18117(15) 0.3886(2) -0.01807(6)
H9 H 0.2534 0.4214 -0.0067
C14 C 0.12436(18) 0.4423(3) -0.06645(7)
H10 H 0.1585 0.5121 -0.0872
C15 C 0.01799(17) 0.3936(3) -0.08422(7)
H11 H -0.0197 0.4293 -0.1170
C16 C -0.03220(16) 0.2918(3) -0.05329(7)
H12 H -0.1041 0.2579 -0.0652
C17 C 0.02345(14) 0.2394(2) -0.00450(6)
H13 H -0.0118 0.1718 0.0163
N1 N 0.30239(11) 0.2188(2) 0.07119(5)
C18 C 0.63420(12) 0.2845(2) 0.51646(6)
C19 C 0.73042(13) 0.3772(2) 0.52096(6)
H14 H 0.7534 0.4110 0.4910
C20 C 0.79279(13) 0.4203(2) 0.56947(6)
H15 H 0.8563 0.4847 0.5719
C21 C 0.76036(14) 0.3673(2) 0.61414(6)
H16 H 0.8027 0.3939 0.6468
C22 C 0.66528(14) 0.2751(3) 0.61020(6)
H17 H 0.6434 0.2399 0.6403
C23 C 0.60202(13) 0.2344(2) 0.56195(6)
H18 H 0.5375 0.1730 0.5598
C24 C 0.56637(12) 0.24259(19) 0.46442(6)
C25 C 0.61250(12) 0.1858(2) 0.42365(5)
H19 H 0.6874 0.1716 0.4291
C26 C 0.54816(12) 0.1500(2) 0.37483(6)
C27 C 0.39592(13) 0.2199(3) 0.40465(7)
H20 H 0.3208 0.2324 0.3984
C28 C 0.45405(13) 0.2584(2) 0.45395(6)
H21 H 0.4186 0.2945 0.4799
C29 C 0.59537(12) 0.0925(2) 0.33017(5)
C30 C 0.69971(14) 0.1393(2) 0.32653(6)
H22 H 0.7422 0.2049 0.3531
C31 C 0.74187(16) 0.0899(3) 0.28393(7)
H23 H 0.8121 0.1224 0.2820
C32 C 0.67962(17) -0.0071(3) 0.24448(7)
H24 H 0.7073 -0.0393 0.2156
C33 C 0.57632(16) -0.0563(3) 0.24779(7)
H25 H 0.5346 -0.1235 0.2214
C34 C 0.53413(14) -0.0065(2) 0.29005(6)
H26 H 0.4639 -0.0397 0.2917
N2 N 0.43900(10) 0.16621(19) 0.36509(5)
loop_
_geom_bond_atom_site_label_1
_geom_bond_atom_site_label_2
_geom_bond_site_symmetry_1
_geom_bond_site_symmetry_2
C1 C2 1_555 1_555
C2 H1 1_555 1_555
C3 C2 1_555 1_555
H2 C3 1_555 1_555
C4 C3 1_555 1_555
H3 C4 1_555 1_555
C5 C4 1_555 1_555
H4 C5 1_555 1_555
C6 C1 1_555 1_555
H5 C6 1_555 1_555
C7 C1 1_555 1_555
C8 C7 1_555 1_555
H6 C8 1_555 1_555
C9 C8 1_555 1_555
C10 H7 1_555 1_555
C11 C7 1_555 1_555
H8 C11 1_555 1_555
C12 C9 1_555 1_555
C13 C12 1_555 1_555
H9 C13 1_555 1_555
C14 C13 1_555 1_555
H10 C14 1_555 1_555
C15 C14 1_555 1_555
H11 C15 1_555 1_555
C16 C15 1_555 1_555
H12 C16 1_555 1_555
C17 C12 1_555 1_555
H13 C17 1_555 1_555
N1 C9 1_555 1_555
C18 C19 1_555 1_555
C19 H14 1_555 1_555
C20 C19 1_555 1_555
H15 C20 1_555 1_555
C21 C20 1_555 1_555
H16 C21 1_555 1_555
C22 C21 1_555 1_555
H17 C22 1_555 1_555
C23 C18 1_555 1_555
H18 C23 1_555 1_555
C24 C18 1_555 1_555
C25 C24 1_555 1_555
H19 C25 1_555 1_555
C26 C25 1_555 1_555
C27 H20 1_555 1_555
C28 C24 1_555 1_555
H21 C28 1_555 1_555
C29 C26 1_555 1_555
C30 C29 1_555 1_555
H22 C30 1_555 1_555
C31 C30 1_555 1_555
H23 C31 1_555 1_555
C32 C31 1_555 1_555
H24 C32 1_555 1_555
C33 C32 1_555 1_555
H25 C33 1_555 1_555
C34 C29 1_555 1_555
H26 C34 1_555 1_555
N2 C26 1_555 1_555
C5 C6 1_555 1_555
C10 C11 1_555 1_555
C10 N1 1_555 1_555
C16 C17 1_555 1_555
C22 C23 1_555 1_555
C27 C28 1_555 1_555
C27 N2 1_555 1_555
C33 C34 1_555 1_555

#END
