
#######################################################################
#
#                 Cambridge Crystallographic Data Centre
#                                CCDC 
#
#######################################################################
#
# If this CIF has been generated from an entry in the Cambridge 
# Structural Database, then it will include bibliographic, chemical, 
# crystal, experimental, refinement or atomic coordinate data resulting 
# from the CCDC's data processing and validation procedures.
#
#######################################################################

data_KAHHUZ
_chemical_name_common            
(2,6-Diphenylpyridine-3,5-diyl)bis(phenylmethanone)
_chemical_formula_moiety         'C31 H21 N1 O2'
_chemical_name_systematic        3,5-Dibenzoyl-2,6-diphenylpyridine
_symmetry_cell_setting           monoclinic
_symmetry_space_group_name_H-M   'P 21/n'
_symmetry_Int_Tables_number      14
_space_group_name_Hall           '-P 2yn'
loop_
_symmetry_equiv_pos_site_id
_symmetry_equiv_pos_as_xyz
1 x,y,z
2 1/2-x,1/2+y,1/2-z
3 -x,-y,-z
4 1/2+x,1/2-y,1/2+z
_cell_length_a                   6.0374(8)
_cell_length_b                   20.900(3)
_cell_length_c                   18.217(2)
_cell_angle_alpha                90
_cell_angle_beta                 96.072(2)
_cell_angle_gamma                90
_cell_volume                     2285.76
_exptl_crystal_colour            colorless
_exptl_crystal_description       block
_cell_formula_units_Z            4
loop_
_atom_site_label
_atom_site_type_symbol
_atom_site_fract_x
_atom_site_fract_y
_atom_site_fract_z
C1 C 0.0631(2) 0.17873(5) 0.31420(6)
C2 C 0.1953(2) 0.18035(6) 0.38222(7)
C3 C 0.3647(2) 0.13579(6) 0.39515(7)
H1 H 0.4596 0.1373 0.4388
C4 C 0.3929(2) 0.08902(6) 0.34301(7)
C5 C 0.2502(2) 0.08959(5) 0.27755(7)
C6 C 0.1377(2) 0.22156(6) 0.44541(7)
C7 C 0.2996(2) 0.26923(6) 0.47887(6)
C8 C 0.4912(2) 0.28527(6) 0.44710(7)
H2 H 0.5213 0.2657 0.4034
C9 C 0.6374(3) 0.33020(7) 0.48023(9)
H3 H 0.7649 0.3412 0.4586
C10 C 0.5938(3) 0.35864(8) 0.54537(9)
H4 H 0.6927 0.3887 0.5677
C11 C 0.4053(3) 0.34291(9) 0.57764(9)
H5 H 0.3778 0.3621 0.6218
C12 C 0.2576(3) 0.29894(7) 0.54485(8)
H6 H 0.1293 0.2889 0.5665
C13 C 0.5674(2) 0.03807(6) 0.35913(7)
C14 C 0.4901(2) -0.02656(6) 0.37844(7)
C15 C 0.6254(3) -0.07883(7) 0.36911(8)
H7 H 0.7623 -0.0730 0.3510
C16 C 0.5582(3) -0.13960(8) 0.38659(9)
H8 H 0.6475 -0.1747 0.3786
C17 C 0.3612(3) -0.14830(8) 0.41555(9)
H9 H 0.3178 -0.1892 0.4281
C18 C 0.2261(3) -0.09682(9) 0.42636(10)
H10 H 0.0931 -0.1029 0.4469
C19 C 0.2882(2) -0.03601(8) 0.40670(9)
H11 H 0.1945 -0.0015 0.4124
C20 C 0.2714(2) 0.04204(6) 0.21761(7)
C21 C 0.4647(3) 0.03701(7) 0.18396(9)
H12 H 0.5879 0.0616 0.2010
C22 C 0.4775(3) -0.00438(9) 0.12494(10)
H13 H 0.6067 -0.0061 0.1014
C23 C 0.3010(3) -0.04249(8) 0.10145(10)
H14 H 0.3107 -0.0709 0.0627
C24 C 0.1098(3) -0.03869(9) 0.13517(11)
H15 H -0.0105 -0.0648 0.1192
C25 C 0.0933(3) 0.00365(8) 0.19294(9)
H16 H -0.0383 0.0062 0.2151
C26 C -0.1107(2) 0.22759(6) 0.29272(6)
C27 C -0.3133(2) 0.20977(7) 0.25496(8)
H17 H -0.3402 0.1669 0.2435
C28 C -0.4757(2) 0.25488(8) 0.23416(8)
H18 H -0.6110 0.2422 0.2092
C29 C -0.4370(3) 0.31844(7) 0.25031(8)
H19 H -0.5466 0.3487 0.2368
C30 C -0.2358(3) 0.33704(7) 0.28655(8)
H20 H -0.2090 0.3801 0.2968
C31 C -0.0729(2) 0.29220(6) 0.30781(7)
H21 H 0.0625 0.3053 0.3323
N1 N 0.09119(17) 0.13390(5) 0.26317(6)
O1 O -0.04092(18) 0.21252(5) 0.46921(6)
O2 O 0.76271(18) 0.05027(6) 0.35690(8)
loop_
_geom_bond_atom_site_label_1
_geom_bond_atom_site_label_2
_geom_bond_site_symmetry_1
_geom_bond_site_symmetry_2
C1 C2 1_555 1_555
C2 C3 1_555 1_555
C3 H1 1_555 1_555
C4 C3 1_555 1_555
C5 C4 1_555 1_555
C6 C2 1_555 1_555
C7 C6 1_555 1_555
C8 C7 1_555 1_555
H2 C8 1_555 1_555
C9 C8 1_555 1_555
H3 C9 1_555 1_555
C10 C9 1_555 1_555
H4 C10 1_555 1_555
C11 C10 1_555 1_555
H5 C11 1_555 1_555
C12 C7 1_555 1_555
H6 C12 1_555 1_555
C13 C4 1_555 1_555
C14 C13 1_555 1_555
C15 C14 1_555 1_555
H7 C15 1_555 1_555
C16 C15 1_555 1_555
H8 C16 1_555 1_555
C17 C16 1_555 1_555
H9 C17 1_555 1_555
C18 C17 1_555 1_555
H10 C18 1_555 1_555
C19 C14 1_555 1_555
H11 C19 1_555 1_555
C20 C5 1_555 1_555
C21 C20 1_555 1_555
H12 C21 1_555 1_555
C22 C21 1_555 1_555
H13 C22 1_555 1_555
C23 C22 1_555 1_555
H14 C23 1_555 1_555
C24 C23 1_555 1_555
H15 C24 1_555 1_555
C25 C20 1_555 1_555
H16 C25 1_555 1_555
C26 C1 1_555 1_555
C27 C26 1_555 1_555
H17 C27 1_555 1_555
C28 C27 1_555 1_555
H18 C28 1_555 1_555
C29 C28 1_555 1_555
H19 C29 1_555 1_555
C30 C29 1_555 1_555
H20 C30 1_555 1_555
C31 C26 1_555 1_555
H21 C31 1_555 1_555
N1 C1 1_555 1_555
O1 C6 1_555 1_555
O2 C13 1_555 1_555
C5 N1 1_555 1_555
C11 C12 1_555 1_555
C18 C19 1_555 1_555
C24 C25 1_555 1_555
C30 C31 1_555 1_555

#END
