
#######################################################################
#
#                 Cambridge Crystallographic Data Centre
#                                CCDC 
#
#######################################################################
#
# If this CIF has been generated from an entry in the Cambridge 
# Structural Database, then it will include bibliographic, chemical, 
# crystal, experimental, refinement or atomic coordinate data resulting 
# from the CCDC's data processing and validation procedures.
#
#######################################################################

data_KAHHAC10
_chemical_formula_moiety         'C18 H24 N6 2+,2(B1 F4 1-)'
_chemical_name_systematic        
'Hexa-azaoctadecahydrocoronene bis(tetrafluoroborate)'
_symmetry_cell_setting           monoclinic
_symmetry_space_group_name_H-M   'P 21/n'
_symmetry_Int_Tables_number      14
_space_group_name_Hall           '-P 2yn'
loop_
_symmetry_equiv_pos_site_id
_symmetry_equiv_pos_as_xyz
1 x,y,z
2 1/2-x,1/2+y,1/2-z
3 -x,-y,-z
4 1/2+x,1/2-y,1/2+z
_cell_length_a                   6.604(1)
_cell_length_b                   10.929(2)
_cell_length_c                   14.255(3)
_cell_angle_alpha                90
_cell_angle_beta                 91.33(1)
_cell_angle_gamma                90
_cell_volume                     1028.58
_cell_formula_units_Z            2
loop_
_atom_site_label
_atom_site_type_symbol
_atom_site_fract_x
_atom_site_fract_y
_atom_site_fract_z
F1 F 0.2192(3) 0.5436(2) 0.8666(1)
F2 F 0.5502(3) 0.4885(2) 0.8699(2)
F3 F 0.3882(3) 0.5282(2) 0.7326(1)
F4 F 0.3129(3) 0.3578(2) 0.8147(1)
B1 B 0.3681(6) 0.4793(3) 0.8202(3)
N1 N 0.2561(3) 0.3736(2) 0.3738(2)
N2 N 0.5418(3) 0.2517(2) 0.4828(2)
N3 N 0.1915(3) 0.6251(2) 0.3958(2)
C1 C 0.3686(4) 0.4374(3) 0.4361(2)
C2 C 0.5296(4) 0.3724(3) 0.4896(2)
C3 C 0.3393(4) 0.5615(3) 0.4497(2)
C4 C 0.1095(5) 0.4375(3) 0.3122(2)
C5 C 0.3239(5) 0.2527(3) 0.3441(2)
C6 C 0.3918(5) 0.1803(3) 0.4283(2)
C7 C 0.6894(5) 0.1832(3) 0.5406(2)
C8 C 0.1272(5) 0.7378(3) 0.4393(2)
C9 C 0.0246(4) 0.5480(3) 0.3619(2)
H1 H 0.1803(43) 0.4652(26) 0.2531(21)
H2 H -0.0027(43) 0.3781(27) 0.2957(18)
H3 H 0.2168(50) 0.2113(30) 0.3131(22)
H4 H 0.4386(45) 0.2580(28) 0.2998(21)
H5 H 0.4552(45) 0.1012(30) 0.4107(20)
H6 H 0.2779(45) 0.1663(25) 0.4725(19)
H7 H 0.6220(42) 0.1591(26) 0.6002(20)
H8 H 0.7167(41) 0.1122(27) 0.5092(18)
H9 H 0.0396(46) 0.7809(27) 0.3962(21)
H10 H 0.0628(41) 0.7250(26) 0.4992(20)
H11 H -0.0580(43) 0.5196(26) 0.4183(20)
H12 H -0.0578(36) 0.5973(22) 0.3153(16)
C3B C 0.6607(4) 0.4385(3) 0.5503(2)
C2B C 0.4704(4) 0.6276(3) 0.5104(2)
C8B C 0.8728(5) 0.2622(3) 0.5607(2)
C7B C 0.3106(5) 0.8168(3) 0.4594(2)
N3B N 0.8085(3) 0.3749(2) 0.6042(2)
C1B C 0.6314(4) 0.5626(3) 0.5639(2)
N2B N 0.4582(3) 0.7483(2) 0.5172(2)
H9B H 0.9604(46) 0.2191(27) 0.6038(21)
H10B H 0.9372(41) 0.2750(26) 0.5008(20)
H7B H 0.3780(42) 0.8409(26) 0.3998(20)
H8B H 0.2833(41) 0.8878(27) 0.4908(18)
C9B C 0.9754(4) 0.4520(3) 0.6381(2)
N1B N 0.7439(3) 0.6264(2) 0.6262(2)
C6B C 0.6082(5) 0.8197(3) 0.5717(2)
C4B C 0.8905(5) 0.5625(3) 0.6878(2)
H11B H 1.0580(43) 0.4804(26) 0.5817(20)
H12B H 1.0578(36) 0.4027(22) 0.6847(16)
C5B C 0.6761(5) 0.7473(3) 0.6559(2)
H5B H 0.5448(45) 0.8988(30) 0.5893(20)
H6B H 0.7221(45) 0.8337(25) 0.5275(19)
H1B H 0.8197(43) 0.5348(26) 0.7469(21)
H2B H 1.0027(43) 0.6219(27) 0.7043(18)
H3B H 0.7832(50) 0.7887(30) 0.6869(22)
H4B H 0.5614(45) 0.7420(28) 0.7002(21)
loop_
_geom_bond_atom_site_label_1
_geom_bond_atom_site_label_2
_geom_bond_site_symmetry_1
_geom_bond_site_symmetry_2
F1 B1 1_555 1_555
F2 B1 1_555 1_555
F3 B1 1_555 1_555
F4 B1 1_555 1_555
N1 C1 1_555 1_555
N2 C2 1_555 1_555
N3 C3 1_555 1_555
C1 C2 1_555 1_555
C2 C3B 1_555 1_555
C3 C1 1_555 1_555
C4 N1 1_555 1_555
C5 N1 1_555 1_555
C6 N2 1_555 1_555
C7 N2 1_555 1_555
C8 N3 1_555 1_555
C9 N3 1_555 1_555
H1 C4 1_555 1_555
H2 C4 1_555 1_555
H3 C5 1_555 1_555
H4 C5 1_555 1_555
H5 C6 1_555 1_555
H6 C6 1_555 1_555
H7 C7 1_555 1_555
H8 C7 1_555 1_555
H9 C8 1_555 1_555
H10 C8 1_555 1_555
H11 C9 1_555 1_555
H12 C9 1_555 1_555
C3B N3B 1_555 1_555
C2B C3 1_555 1_555
C8B C7 1_555 1_555
C7B C8 1_555 1_555
N3B C8B 1_555 1_555
C1B C3B 1_555 1_555
N2B C2B 1_555 1_555
H9B C8B 1_555 1_555
H10B C8B 1_555 1_555
H7B C7B 1_555 1_555
H8B C7B 1_555 1_555
C9B N3B 1_555 1_555
N1B C1B 1_555 1_555
C6B N2B 1_555 1_555
C4B C9B 1_555 1_555
H11B C9B 1_555 1_555
H12B C9B 1_555 1_555
C5B N1B 1_555 1_555
H5B C6B 1_555 1_555
H6B C6B 1_555 1_555
H1B C4B 1_555 1_555
H2B C4B 1_555 1_555
H3B C5B 1_555 1_555
H4B C5B 1_555 1_555
C4 C9 1_555 1_555
C5 C6 1_555 1_555
C2B C1B 1_555 1_555
C7B N2B 1_555 1_555
N1B C4B 1_555 1_555
C6B C5B 1_555 1_555

#END
