
#######################################################################
#
#                 Cambridge Crystallographic Data Centre
#                                CCDC 
#
#######################################################################
#
# If this CIF has been generated from an entry in the Cambridge 
# Structural Database, then it will include bibliographic, chemical, 
# crystal, experimental, refinement or atomic coordinate data resulting 
# from the CCDC's data processing and validation procedures.
#
#######################################################################

data_KAHSAQ
_chemical_formula_moiety         'C20 H30 O2'
_chemical_name_systematic        5-hydroxyrosa-1(10),15-dien-2-one
_symmetry_cell_setting           monoclinic
_symmetry_space_group_name_H-M   'P 21'
_symmetry_Int_Tables_number      4
_space_group_name_Hall           'P 2yb'
loop_
_symmetry_equiv_pos_site_id
_symmetry_equiv_pos_as_xyz
1 x,y,z
2 -x,1/2+y,-z
_cell_length_a                   10.046(3)
_cell_length_b                   6.594(2)
_cell_length_c                   13.521(5)
_cell_angle_alpha                90
_cell_angle_beta                 91.895(5)
_cell_angle_gamma                90
_cell_volume                     895.186
_exptl_crystal_colour            colorless
_exptl_crystal_description       block
_cell_formula_units_Z            2
loop_
_atom_site_label
_atom_site_type_symbol
_atom_site_fract_x
_atom_site_fract_y
_atom_site_fract_z
C1 C 0.4646(5) 0.3488(8) 0.5773(4)
H1 H 0.5469 0.2876 0.5692
C2 C 0.3772(5) 0.3708(8) 0.4913(4)
C3 C 0.2388(5) 0.4508(10) 0.5044(4)
H2 H 0.1775 0.3742 0.4620
H3 H 0.2356 0.5909 0.4826
C4 C 0.1912(5) 0.4406(8) 0.6101(4)
C5 C 0.3031(5) 0.5275(8) 0.6816(4)
C6 C 0.2621(5) 0.5295(10) 0.7896(4)
H4 H 0.2344 0.3940 0.8078
H5 H 0.1861 0.6188 0.7957
C7 C 0.3737(5) 0.5995(10) 0.8625(4)
H6 H 0.3609 0.7422 0.8768
H7 H 0.3659 0.5254 0.9240
C8 C 0.5141(5) 0.5699(8) 0.8255(4)
H8 H 0.5332 0.6888 0.7848
C9 C 0.5290(5) 0.3846(7) 0.7584(3)
C10 C 0.4342(5) 0.4114(7) 0.6684(4)
C11 C 0.6748(4) 0.3734(8) 0.7275(3)
H9 H 0.6874 0.2505 0.6896
H10 H 0.6932 0.4878 0.6850
C12 C 0.7745(5) 0.3750(8) 0.8162(4)
H11 H 0.7618 0.2538 0.8554
H12 H 0.8643 0.3716 0.7920
C13 C 0.7595(6) 0.5616(10) 0.8823(4)
C14 C 0.6136(5) 0.5731(10) 0.9106(4)
H13 H 0.5951 0.4599 0.9539
H14 H 0.6008 0.6966 0.9481
C15 C 0.8436(8) 0.5279(13) 0.9698(7)
H15 H 0.8755 0.3957 0.9672
C16 C 0.8908(9) 0.6087(19) 1.0488(7)
H16 H 0.8695 0.7422 1.0640
H17 H 0.9467 0.5345 1.0914
C17 C 0.8013(6) 0.7591(11) 0.8288(5)
H18 H 0.7473 0.7762 0.7694
H19 H 0.8933 0.7499 0.8121
H20 H 0.7892 0.8732 0.8717
C18 C 0.0619(5) 0.5672(12) 0.6155(5)
H21 H 0.0000 0.5248 0.5640
H22 H 0.0825 0.7082 0.6072
H23 H 0.0232 0.5470 0.6787
C19 C 0.1586(6) 0.2199(9) 0.6365(5)
H24 H 0.0908 0.1692 0.5913
H25 H 0.1273 0.2142 0.7028
H26 H 0.2374 0.1384 0.6320
C20 C 0.4897(5) 0.1854(8) 0.8093(4)
H27 H 0.4000 0.1959 0.8312
H28 H 0.5490 0.1610 0.8652
H29 H 0.4956 0.0752 0.7633
O1 O 0.4136(3) 0.3286(6) 0.4078(3)
O2 O 0.3240(3) 0.7368(5) 0.6542(3)
H30 H 0.3999 0.7506 0.6347
loop_
_geom_bond_atom_site_label_1
_geom_bond_atom_site_label_2
_geom_bond_site_symmetry_1
_geom_bond_site_symmetry_2
C1 H1 1_555 1_555
C2 C1 1_555 1_555
C3 C2 1_555 1_555
H2 C3 1_555 1_555
H3 C3 1_555 1_555
C4 C3 1_555 1_555
C5 C4 1_555 1_555
C6 C5 1_555 1_555
H4 C6 1_555 1_555
H5 C6 1_555 1_555
C7 C6 1_555 1_555
H6 C7 1_555 1_555
H7 C7 1_555 1_555
C8 C7 1_555 1_555
H8 C8 1_555 1_555
C9 C8 1_555 1_555
C10 C1 1_555 1_555
C11 C9 1_555 1_555
H9 C11 1_555 1_555
H10 C11 1_555 1_555
C12 C11 1_555 1_555
H11 C12 1_555 1_555
H12 C12 1_555 1_555
C13 C12 1_555 1_555
C14 C8 1_555 1_555
H13 C14 1_555 1_555
H14 C14 1_555 1_555
C15 C13 1_555 1_555
H15 C15 1_555 1_555
C16 C15 1_555 1_555
H16 C16 1_555 1_555
H17 C16 1_555 1_555
C17 C13 1_555 1_555
H18 C17 1_555 1_555
H19 C17 1_555 1_555
H20 C17 1_555 1_555
C18 C4 1_555 1_555
H21 C18 1_555 1_555
H22 C18 1_555 1_555
H23 C18 1_555 1_555
C19 C4 1_555 1_555
H24 C19 1_555 1_555
H25 C19 1_555 1_555
H26 C19 1_555 1_555
C20 C9 1_555 1_555
H27 C20 1_555 1_555
H28 C20 1_555 1_555
H29 C20 1_555 1_555
O1 C2 1_555 1_555
O2 C5 1_555 1_555
H30 O2 1_555 1_555
C5 C10 1_555 1_555
C9 C10 1_555 1_555
C13 C14 1_555 1_555

#END
