
#######################################################################
#
#                 Cambridge Crystallographic Data Centre
#                                CCDC 
#
#######################################################################
#
# If this CIF has been generated from an entry in the Cambridge 
# Structural Database, then it will include bibliographic, chemical, 
# crystal, experimental, refinement or atomic coordinate data resulting 
# from the CCDC's data processing and validation procedures.
#
#######################################################################

data_KAHVIB
_chemical_formula_moiety         'C26 H34 O3 S1'
_chemical_name_systematic        
'17-oxoandrost-5-en-3-yl 4-methylbenzenesulfinate'
_symmetry_cell_setting           orthorhombic
_symmetry_space_group_name_H-M   'P 21 21 2'
_symmetry_Int_Tables_number      18
_space_group_name_Hall           'P 2 2ab'
loop_
_symmetry_equiv_pos_site_id
_symmetry_equiv_pos_as_xyz
1 x,y,z
2 -x,-y,z
3 1/2-x,1/2+y,-z
4 1/2+x,1/2-y,-z
_cell_length_a                   9.7748(10)
_cell_length_b                   36.406(3)
_cell_length_c                   6.5704(6)
_cell_angle_alpha                90
_cell_angle_beta                 90
_cell_angle_gamma                90
_cell_volume                     2338.15
_exptl_crystal_colour            white
_exptl_crystal_description       Prism
_cell_formula_units_Z            4
loop_
_atom_site_label
_atom_site_type_symbol
_atom_site_fract_x
_atom_site_fract_y
_atom_site_fract_z
C1 C -0.3473(3) 0.22613(7) -1.5128(5)
C2 C -0.2656(3) 0.19301(6) -1.4454(4)
C3 C -0.1447(3) 0.19160(8) -1.5945(5)
H1 H -0.1783 0.1928 -1.7316
H2 H -0.0952 0.1691 -1.5755
H3 H -0.0849 0.2120 -1.5696
C4 C -0.2204(3) 0.19116(6) -1.2246(5)
H4 H -0.2978 0.1959 -1.1361
H5 H -0.1515 0.2098 -1.1989
C5 C -0.1613(3) 0.15291(6) -1.1788(5)
H6 H -0.0770 0.1499 -1.2550
H7 H -0.1387 0.1516 -1.0352
C6 C -0.2577(2) 0.12103(5) -1.2311(4)
H8 H -0.3367 0.1235 -1.1403
C7 C -0.1950(3) 0.08266(6) -1.1857(4)
C8 C -0.1816(3) 0.07816(7) -0.9517(4)
H9 H -0.1107 0.0947 -0.9035
H10 H -0.2669 0.0856 -0.8889
C9 C -0.0539(3) 0.07796(7) -1.2860(5)
H11 H -0.0625 0.0808 -1.4307
H12 H -0.0188 0.0539 -1.2560
H13 H 0.0078 0.0962 -1.2339
C10 C -0.1471(4) 0.03898(6) -0.8809(5)
H14 H -0.0568 0.0322 -0.9291
H15 H -0.1465 0.0380 -0.7334
C11 C -0.2509(3) 0.01245(6) -0.9618(5)
H16 H -0.3404 0.0177 -0.9015
C12 C -0.2615(3) 0.01393(6) -1.1885(5)
H17 H -0.3347 -0.0022 -1.2328
H18 H -0.1769 0.0050 -1.2477
C13 C -0.2893(2) 0.05253(6) -1.2652(4)
C14 C -0.3913(3) 0.05845(6) -1.3925(5)
H19 H -0.4455 0.0385 -1.4286
C15 C -0.4260(3) 0.09497(7) -1.4825(5)
H20 H -0.5107 0.1037 -1.4226
H21 H -0.4410 0.0920 -1.6275
C16 C -0.3142(2) 0.12383(6) -1.4489(4)
H22 H -0.2396 0.1194 -1.5455
C17 C -0.3707(3) 0.16234(6) -1.4834(4)
H23 H -0.4426 0.1658 -1.3812
C18 C -0.4359(3) 0.17230(7) -1.6887(5)
H24 H -0.5238 0.1604 -1.7060
H25 H -0.3766 0.1657 -1.8014
C19 C -0.4516(4) 0.21415(8) -1.6704(6)
H26 H -0.4338 0.2259 -1.8001
H27 H -0.5435 0.2205 -1.6267
C20 C -0.2661(2) -0.09146(6) -0.8488(4)
C21 C -0.2114(3) -0.11701(7) -0.7177(4)
H28 H -0.1896 -0.1105 -0.5847
C22 C -0.1888(3) -0.15272(7) -0.7855(5)
H29 H -0.1510 -0.1700 -0.6974
C23 C -0.2218(3) -0.16281(7) -0.9810(5)
C24 C -0.1985(5) -0.20168(8) -1.0502(8)
H30 H -0.2263 -0.2041 -1.1897
H31 H -0.2512 -0.2181 -0.9670
H32 H -0.1032 -0.2076 -1.0380
C25 C -0.2767(4) -0.13667(8) -1.1096(5)
H33 H -0.2993 -0.1432 -1.2423
C26 C -0.2987(3) -0.10078(7) -1.0445(4)
H34 H -0.3351 -0.0834 -1.1329
O1 O -0.3319(3) 0.25725(5) -1.4492(4)
O2 O -0.2093(2) -0.02532(4) -0.9091(4)
O3 O -0.2592(4) -0.04568(7) -0.5493(4)
S1 S -0.30950(8) -0.046852(17) -0.75445(12)
loop_
_geom_bond_atom_site_label_1
_geom_bond_atom_site_label_2
_geom_bond_site_symmetry_1
_geom_bond_site_symmetry_2
C1 C2 1_555 1_555
C2 C3 1_555 1_555
C3 H1 1_555 1_555
H2 C3 1_555 1_555
H3 C3 1_555 1_555
C4 C2 1_555 1_555
H4 C4 1_555 1_555
H5 C4 1_555 1_555
C5 C4 1_555 1_555
H6 C5 1_555 1_555
H7 C5 1_555 1_555
C6 C5 1_555 1_555
H8 C6 1_555 1_555
C7 C6 1_555 1_555
C8 C7 1_555 1_555
H9 C8 1_555 1_555
H10 C8 1_555 1_555
C9 C7 1_555 1_555
H11 C9 1_555 1_555
H12 C9 1_555 1_555
H13 C9 1_555 1_555
C10 C8 1_555 1_555
H14 C10 1_555 1_555
H15 C10 1_555 1_555
C11 C10 1_555 1_555
H16 C11 1_555 1_555
C12 C11 1_555 1_555
H17 C12 1_555 1_555
H18 C12 1_555 1_555
C13 C7 1_555 1_555
C14 C13 1_555 1_555
H19 C14 1_555 1_555
C15 C14 1_555 1_555
H20 C15 1_555 1_555
H21 C15 1_555 1_555
C16 C6 1_555 1_555
H22 C16 1_555 1_555
C17 C2 1_555 1_555
H23 C17 1_555 1_555
C18 C17 1_555 1_555
H24 C18 1_555 1_555
H25 C18 1_555 1_555
C19 C1 1_555 1_555
H26 C19 1_555 1_555
H27 C19 1_555 1_555
C20 C21 1_555 1_555
C21 H28 1_555 1_555
C22 C21 1_555 1_555
H29 C22 1_555 1_555
C23 C22 1_555 1_555
C24 C23 1_555 1_555
H30 C24 1_555 1_555
H31 C24 1_555 1_555
H32 C24 1_555 1_555
C25 C23 1_555 1_555
H33 C25 1_555 1_555
C26 C20 1_555 1_555
H34 C26 1_555 1_555
O1 C1 1_555 1_555
O2 C11 1_555 1_555
O3 S1 1_555 1_555
S1 C20 1_555 1_555
C12 C13 1_555 1_555
C15 C16 1_555 1_555
C16 C17 1_555 1_555
C18 C19 1_555 1_555
C25 C26 1_555 1_555
O2 S1 1_555 1_555

#END
