
#######################################################################
#
#                 Cambridge Crystallographic Data Centre
#                                CCDC 
#
#######################################################################
#
# If this CIF has been generated from an entry in the Cambridge 
# Structural Database, then it will include bibliographic, chemical, 
# crystal, experimental, refinement or atomic coordinate data resulting 
# from the CCDC's data processing and validation procedures.
#
#######################################################################

data_KAJCIJ
_chemical_formula_moiety         'C36 H42 N2 O2'
_chemical_name_systematic        
4,6,25,27-Tetramethyl-9,22-diazahexacyclo[20.10.2.0^3,8^.0^9,32^.0^23,28^.0^30,34^]tetratriaconta-1(32),3,5,7,23,25,27,30,33-nonaene-2,29-dione
_symmetry_cell_setting           triclinic
_symmetry_space_group_name_H-M   'P -1'
_symmetry_Int_Tables_number      2
_space_group_name_Hall           '-P 1'
loop_
_symmetry_equiv_pos_site_id
_symmetry_equiv_pos_as_xyz
1 x,y,z
2 -x,-y,-z
_cell_length_a                   8.3832(17)
_cell_length_b                   12.547(3)
_cell_length_c                   13.805(3)
_cell_angle_alpha                87.60(3)
_cell_angle_beta                 83.31(3)
_cell_angle_gamma                85.67(3)
_cell_volume                     1437.26
_exptl_crystal_colour            red
_exptl_crystal_description       block
_cell_formula_units_Z            2
_exptl_crystal_recrystallization_method chloroform
loop_
_atom_site_label
_atom_site_type_symbol
_atom_site_fract_x
_atom_site_fract_y
_atom_site_fract_z
C1 C 0.6730(3) -0.2115(3) 0.7856(2)
C2 C 0.7722(3) -0.2929(3) 0.8269(2)
H1 H 0.8830 -0.2874 0.8208
C3 C 0.7086(4) -0.3792(3) 0.8753(3)
C4 C 0.5440(4) -0.3887(3) 0.8833(3)
H2 H 0.5023 -0.4487 0.9158
C5 C 0.4402(3) -0.3127(3) 0.8452(2)
C6 C 0.5043(3) -0.2210(3) 0.7955(2)
C7 C 0.4008(3) -0.1364(3) 0.7546(2)
C8 C 0.4822(3) -0.0548(2) 0.6910(2)
C9 C 0.3890(3) 0.0203(3) 0.6417(2)
H3 H 0.2779 0.0166 0.6482
C10 C 0.4581(3) 0.1010(3) 0.5828(2)
C11 C 0.4367(3) 0.2640(3) 0.4823(2)
C12 C 0.3412(4) 0.3480(3) 0.4429(2)
H4 H 0.2297 0.3465 0.4525
C13 C 0.4080(4) 0.4318(3) 0.3907(2)
C14 C 0.5749(4) 0.4344(3) 0.3769(2)
H5 H 0.6198 0.4923 0.3426
C15 C 0.6756(4) 0.3540(3) 0.4125(2)
C16 C 0.6074(3) 0.2665(3) 0.4657(2)
C17 C 0.7089(3) 0.1787(3) 0.5035(2)
C18 C 0.6263(3) 0.1006(3) 0.5710(2)
C19 C 0.7195(3) 0.0256(3) 0.6199(2)
H6 H 0.8310 0.0269 0.6106
C20 C 0.6502(3) -0.0515(2) 0.6825(2)
C21 C 0.8176(4) -0.4654(3) 0.9189(3)
H7 H 0.9264 -0.4599 0.8895
H8 H 0.7832 -0.5345 0.9068
H9 H 0.8125 -0.4567 0.9879
C22 C 0.2630(4) -0.3304(3) 0.8568(3)
H10 H 0.2469 -0.4011 0.8836
H11 H 0.2231 -0.3225 0.7943
H12 H 0.2062 -0.2788 0.9000
C23 C 0.3026(4) 0.5225(3) 0.3507(3)
H13 H 0.1916 0.5071 0.3643
H14 H 0.3302 0.5302 0.2814
H15 H 0.3191 0.5877 0.3809
C24 C 0.8547(4) 0.3655(3) 0.3955(3)
H16 H 0.8750 0.4307 0.3588
H17 H 0.9062 0.3059 0.3597
H18 H 0.8968 0.3671 0.4571
C25 C 0.9046(3) -0.0959(3) 0.7523(3)
H19 H 0.9682 -0.0845 0.6898
H20 H 0.9577 -0.1548 0.7867
C26 C 0.8986(4) 0.0025(3) 0.8099(3)
H21 H 0.8622 0.0631 0.7701
H22 H 1.0070 0.0138 0.8232
C27 C 0.7916(5) 0.0007(3) 0.9048(3)
H23 H 0.8363 -0.0530 0.9486
H24 H 0.6864 -0.0198 0.8932
C28 C 0.7720(6) 0.1076(4) 0.9538(3)
H25 H 0.8781 0.1324 0.9570
H26 H 0.7225 0.0970 1.0203
C29 C 0.6709(5) 0.1955(4) 0.9032(3)
H27 H 0.6821 0.2628 0.9329
H28 H 0.7158 0.2018 0.8354
C30 C 0.4948(5) 0.1800(4) 0.9062(3)
H29 H 0.4479 0.1782 0.9738
H30 H 0.4829 0.1109 0.8799
C31 C 0.3996(5) 0.2653(4) 0.8502(4)
H31 H 0.4161 0.3349 0.8740
H32 H 0.4424 0.2643 0.7819
C32 C 0.2213(5) 0.2524(4) 0.8583(3)
H33 H 0.1766 0.2630 0.9255
H34 H 0.2057 0.1793 0.8433
C33 C 0.1261(5) 0.3270(4) 0.7931(3)
H35 H 0.1429 0.4000 0.8075
H36 H 0.0126 0.3168 0.8101
C34 C 0.1661(5) 0.3137(3) 0.6838(3)
H37 H 0.1148 0.3736 0.6496
H38 H 0.2816 0.3153 0.6670
C35 C 0.1131(4) 0.2119(3) 0.6495(3)
H39 H -0.0027 0.2201 0.6484
H40 H 0.1349 0.1555 0.6974
C36 C 0.1891(3) 0.1749(3) 0.5498(2)
H41 H 0.1630 0.1020 0.5420
H42 H 0.1426 0.2194 0.4997
N1 N 0.7426(3) -0.1250(2) 0.73532(19)
N2 N 0.3646(2) 0.1794(2) 0.53543(18)
O1 O 0.2535(2) -0.1304(2) 0.7702(2)
O2 O 0.8563(2) 0.1670(2) 0.48368(18)
loop_
_geom_bond_atom_site_label_1
_geom_bond_atom_site_label_2
_geom_bond_site_symmetry_1
_geom_bond_site_symmetry_2
C1 C2 1_555 1_555
C2 H1 1_555 1_555
C3 C2 1_555 1_555
C4 C3 1_555 1_555
H2 C4 1_555 1_555
C5 C4 1_555 1_555
C6 C1 1_555 1_555
C7 C6 1_555 1_555
C8 C7 1_555 1_555
C9 C8 1_555 1_555
H3 C9 1_555 1_555
C10 C9 1_555 1_555
C11 C12 1_555 1_555
C12 H4 1_555 1_555
C13 C12 1_555 1_555
C14 C13 1_555 1_555
H5 C14 1_555 1_555
C15 C14 1_555 1_555
C16 C11 1_555 1_555
C17 C16 1_555 1_555
C18 C10 1_555 1_555
C19 C18 1_555 1_555
H6 C19 1_555 1_555
C20 C8 1_555 1_555
C21 C3 1_555 1_555
H7 C21 1_555 1_555
H8 C21 1_555 1_555
H9 C21 1_555 1_555
C22 C5 1_555 1_555
H10 C22 1_555 1_555
H11 C22 1_555 1_555
H12 C22 1_555 1_555
C23 C13 1_555 1_555
H13 C23 1_555 1_555
H14 C23 1_555 1_555
H15 C23 1_555 1_555
C24 C15 1_555 1_555
H16 C24 1_555 1_555
H17 C24 1_555 1_555
H18 C24 1_555 1_555
C25 H19 1_555 1_555
H20 C25 1_555 1_555
C26 C25 1_555 1_555
H21 C26 1_555 1_555
H22 C26 1_555 1_555
C27 C26 1_555 1_555
H23 C27 1_555 1_555
H24 C27 1_555 1_555
C28 C27 1_555 1_555
H25 C28 1_555 1_555
H26 C28 1_555 1_555
C29 C28 1_555 1_555
H27 C29 1_555 1_555
H28 C29 1_555 1_555
C30 C29 1_555 1_555
H29 C30 1_555 1_555
H30 C30 1_555 1_555
C31 C30 1_555 1_555
H31 C31 1_555 1_555
H32 C31 1_555 1_555
C32 C31 1_555 1_555
H33 C32 1_555 1_555
H34 C32 1_555 1_555
C33 C32 1_555 1_555
H35 C33 1_555 1_555
H36 C33 1_555 1_555
C34 C33 1_555 1_555
H37 C34 1_555 1_555
H38 C34 1_555 1_555
C35 C34 1_555 1_555
H39 C35 1_555 1_555
H40 C35 1_555 1_555
C36 C35 1_555 1_555
H41 C36 1_555 1_555
H42 C36 1_555 1_555
N1 C1 1_555 1_555
N2 C10 1_555 1_555
O1 C7 1_555 1_555
O2 C17 1_555 1_555
C5 C6 1_555 1_555
C11 N2 1_555 1_555
C15 C16 1_555 1_555
C17 C18 1_555 1_555
C19 C20 1_555 1_555
C20 N1 1_555 1_555
C25 N1 1_555 1_555
C36 N2 1_555 1_555

#END
