
#######################################################################
#
#                 Cambridge Crystallographic Data Centre
#                                CCDC 
#
#######################################################################
#
# If this CIF has been generated from an entry in the Cambridge 
# Structural Database, then it will include bibliographic, chemical, 
# crystal, experimental, refinement or atomic coordinate data resulting 
# from the CCDC's data processing and validation procedures.
#
#######################################################################

data_KAJJEN
_chemical_formula_moiety         'C18 H16 B1 F2 P1'
_chemical_name_systematic        'bis(4-fluorophenyl)(phenyl)phosphine borane'
_symmetry_cell_setting           monoclinic
_symmetry_space_group_name_H-M   'P 21/n'
_symmetry_Int_Tables_number      14
_space_group_name_Hall           '-P 2yn'
loop_
_symmetry_equiv_pos_site_id
_symmetry_equiv_pos_as_xyz
1 x,y,z
2 1/2-x,1/2+y,1/2-z
3 -x,-y,-z
4 1/2+x,1/2-y,1/2+z
_cell_length_a                   10.7473(3)
_cell_length_b                   11.0201(3)
_cell_length_c                   13.6436(4)
_cell_angle_alpha                90
_cell_angle_beta                 95.3341(10)
_cell_angle_gamma                90
_cell_volume                     1608.9
_exptl_crystal_colour            colorless
_exptl_crystal_description       prism
_cell_formula_units_Z            4
loop_
_atom_site_label
_atom_site_type_symbol
_atom_site_fract_x
_atom_site_fract_y
_atom_site_fract_z
B1 B -0.22300(17) 0.67131(19) 0.84751(15)
C1 C 0.02604(14) 0.53951(14) 0.81257(11)
C2 C -0.03652(15) 0.43910(15) 0.76955(12)
H1 H -0.1214 0.4465 0.7439
C3 C 0.02397(17) 0.32873(15) 0.76393(13)
H2 H -0.0177 0.2608 0.7332
C4 C 0.14626(18) 0.31991(16) 0.80398(13)
C5 C 0.21035(17) 0.41602(17) 0.84867(13)
H3 H 0.2941 0.4066 0.8767
C6 C 0.14982(15) 0.52736(16) 0.85187(12)
H4 H 0.1931 0.5954 0.8810
C7 C 0.04010(11) 0.78378(10) 0.88978(7)
C8 C 0.04567(13) 0.76443(11) 0.99077(8)
H5 H 0.0004 0.6993 1.0161
C9 C 0.11751(15) 0.84035(13) 1.05471(6)
H6 H 0.1213 0.8271 1.1237
C10 C 0.18380(13) 0.93563(12) 1.01767(9)
H7 H 0.2329 0.9875 1.0614
C11 C 0.17823(14) 0.95498(12) 0.91668(9)
H8 H 0.2235 1.0201 0.8914
C12 C 0.10639(13) 0.87906(13) 0.85274(6)
H9 H 0.1026 0.8923 0.7837
C13 C -0.05017(14) 0.73852(14) 0.68573(11)
C14 C -0.11407(16) 0.84534(16) 0.65910(12)
H10 H -0.1572 0.8874 0.7064
C15 C -0.11530(18) 0.89089(17) 0.56428(13)
H11 H -0.1583 0.9641 0.5463
C16 C -0.05314(17) 0.82813(16) 0.49677(12)
C17 C 0.01117(17) 0.72277(17) 0.52043(12)
H12 H 0.0538 0.6813 0.4725
C18 C 0.01268(16) 0.67795(15) 0.61571(12)
H13 H 0.0570 0.6054 0.6332
F1 F 0.20338(16) 0.21315(14) 0.79735(13)
F2 F -0.05878(17) 0.87374(17) 0.40578(12)
P1 P -0.05565(4) 0.68289(4) 0.81017(3)
H14 H -0.274(2) 0.608(2) 0.7912(17)
H15 H -0.217(2) 0.637(2) 0.9222(17)
H16 H -0.257(2) 0.768(2) 0.8418(17)
H17? H 0.1880 0.2442 0.8006
H18? H -0.0547 0.8586 0.4315
F3? F 0.2550(2) 1.00577(18) 1.07472(16)
loop_
_geom_bond_atom_site_label_1
_geom_bond_atom_site_label_2
_geom_bond_site_symmetry_1
_geom_bond_site_symmetry_2
B1 P1 1_555 1_555
C1 C2 1_555 1_555
C2 H1 1_555 1_555
C3 C2 1_555 1_555
H2 C3 1_555 1_555
C4 C3 1_555 1_555
C5 C4 1_555 1_555
H3 C5 1_555 1_555
C6 C1 1_555 1_555
H4 C6 1_555 1_555
C7 C8 1_555 1_555
C8 H5 1_555 1_555
C9 C8 1_555 1_555
H6 C9 1_555 1_555
C10 C9 1_555 1_555
H7 C10 1_555 1_555
C11 C10 1_555 1_555
H8 C11 1_555 1_555
C12 C7 1_555 1_555
H9 C12 1_555 1_555
C13 C14 1_555 1_555
C14 H10 1_555 1_555
C15 C14 1_555 1_555
H11 C15 1_555 1_555
C16 C15 1_555 1_555
C17 C16 1_555 1_555
H12 C17 1_555 1_555
C18 C13 1_555 1_555
H13 C18 1_555 1_555
F1 C4 1_555 1_555
F2 C16 1_555 1_555
P1 C1 1_555 1_555
H14 B1 1_555 1_555
H15 B1 1_555 1_555
H16 B1 1_555 1_555
C5 C6 1_555 1_555
C7 P1 1_555 1_555
C11 C12 1_555 1_555
C13 P1 1_555 1_555
C17 C18 1_555 1_555

#END
