
#######################################################################
#
#                 Cambridge Crystallographic Data Centre
#                                CCDC 
#
#######################################################################
#
# If this CIF has been generated from an entry in the Cambridge 
# Structural Database, then it will include bibliographic, chemical, 
# crystal, experimental, refinement or atomic coordinate data resulting 
# from the CCDC's data processing and validation procedures.
#
#######################################################################

data_KAJJOU
_chemical_formula_moiety         'C17 H15 N1 O4 S1'
_chemical_name_systematic        
5-Methyl-2-phenylsulfonyl-2-aza-7-oxa-benzo(c)bicyclo(3.2.1)octan-6-one
_symmetry_cell_setting           monoclinic
_symmetry_space_group_name_H-M   'P 21/c'
_symmetry_Int_Tables_number      14
_space_group_name_Hall           '-P 2ybc'
loop_
_symmetry_equiv_pos_site_id
_symmetry_equiv_pos_as_xyz
1 x,y,z
2 -x,1/2+y,1/2-z
3 -x,-y,-z
4 x,1/2-y,1/2+z
_cell_length_a                   10.581(2)
_cell_length_b                   9.157(3)
_cell_length_c                   16.395(5)
_cell_angle_alpha                90
_cell_angle_beta                 98.50(2)
_cell_angle_gamma                90
_cell_volume                     1571.07
_cell_formula_units_Z            4
loop_
_atom_site_label
_atom_site_type_symbol
_atom_site_fract_x
_atom_site_fract_y
_atom_site_fract_z
S1 S 0.3931(1) 0.7047(2) 0.5995(1)
O1 O 0.3991(3) 0.8546(4) 0.6244(2)
O2 O 0.4976(3) 0.6441(4) 0.5644(2)
C1 C 0.2520(4) 0.6763(5) 0.5292(3)
C2 C 0.1418(5) 0.7495(6) 0.5414(3)
C3 C 0.0335(5) 0.7298(7) 0.4860(4)
C4 C 0.0346(6) 0.6420(8) 0.4191(4)
C5 C 0.1429(6) 0.5695(6) 0.4069(3)
C6 C 0.2535(5) 0.5864(6) 0.4624(3)
N1 N 0.3776(3) 0.6105(4) 0.6844(2)
C7 C 0.3431(4) 0.4577(5) 0.6797(3)
C8 C 0.3756(4) 0.3686(6) 0.6185(3)
C9 C 0.3387(5) 0.2236(7) 0.6148(4)
C10 C 0.2725(5) 0.1665(6) 0.6730(4)
C11 C 0.2411(4) 0.2558(6) 0.7343(4)
C12 C 0.2752(4) 0.4001(6) 0.7394(3)
C13 C 0.2434(4) 0.4993(6) 0.8085(3)
C14 C 0.3570(5) 0.5999(6) 0.8296(3)
C15 C 0.3402(5) 0.6917(6) 0.7533(3)
O3 O 0.2038(3) 0.7214(4) 0.7379(2)
C16 C 0.1427(5) 0.6062(7) 0.7675(3)
O4 O 0.0297(3) 0.5964(5) 0.7596(2)
C17 C 0.2005(6) 0.4177(9) 0.8798(4)
H1 H 0.1460(39) 0.8020(46) 0.5861(25)
H2 H -0.0413(35) 0.7881(44) 0.4915(23)
H3 H -0.0386(39) 0.6264(48) 0.3862(25)
H4 H 0.1443(38) 0.5097(45) 0.3594(25)
H5 H 0.3328(37) 0.5493(44) 0.4503(24)
H6 H 0.4296(37) 0.4095(46) 0.5826(24)
H7 H 0.3594(37) 0.1652(45) 0.5718(24)
H8 H 0.2435(38) 0.0716(45) 0.6656(25)
H9 H 0.1908(37) 0.2191(45) 0.7738(24)
H10 H 0.4383(37) 0.5521(43) 0.8401(23)
H11 H 0.3466(35) 0.6609(42) 0.8767(24)
H12 H 0.3833(37) 0.7825(45) 0.7564(23)
H13 H 0.2655(37) 0.3492(44) 0.9090(25)
H14 H 0.1169(37) 0.3830(48) 0.8629(25)
H15 H 0.1925(39) 0.4879(45) 0.9226(26)
loop_
_geom_bond_atom_site_label_1
_geom_bond_atom_site_label_2
_geom_bond_site_symmetry_1
_geom_bond_site_symmetry_2
S1 O1 1_555 1_555
O2 S1 1_555 1_555
C1 S1 1_555 1_555
C2 C1 1_555 1_555
C3 C2 1_555 1_555
C4 C3 1_555 1_555
C5 C4 1_555 1_555
C6 C1 1_555 1_555
N1 S1 1_555 1_555
C7 N1 1_555 1_555
C8 C7 1_555 1_555
C9 C8 1_555 1_555
C10 C9 1_555 1_555
C11 C10 1_555 1_555
C12 C7 1_555 1_555
C13 C12 1_555 1_555
C14 C13 1_555 1_555
C15 N1 1_555 1_555
O3 C15 1_555 1_555
C16 C13 1_555 1_555
O4 C16 1_555 1_555
C17 C13 1_555 1_555
H1 C2 1_555 1_555
H2 C3 1_555 1_555
H3 C4 1_555 1_555
H4 C5 1_555 1_555
H5 C6 1_555 1_555
H6 C8 1_555 1_555
H7 C9 1_555 1_555
H8 C10 1_555 1_555
H9 C11 1_555 1_555
H10 C14 1_555 1_555
H11 C14 1_555 1_555
H12 C15 1_555 1_555
H13 C17 1_555 1_555
H14 C17 1_555 1_555
H15 C17 1_555 1_555
C5 C6 1_555 1_555
C11 C12 1_555 1_555
C14 C15 1_555 1_555
O3 C16 1_555 1_555

#END
