
#######################################################################
#
#                 Cambridge Crystallographic Data Centre
#                                CCDC 
#
#######################################################################
#
# If this CIF has been generated from an entry in the Cambridge 
# Structural Database, then it will include bibliographic, chemical, 
# crystal, experimental, refinement or atomic coordinate data resulting 
# from the CCDC's data processing and validation procedures.
#
#######################################################################

data_KAJKOX
_chemical_formula_moiety         'C86 H84 Li4 N4 P4,C7 H8'
_chemical_name_systematic        
'bis(\m~4~-bis(Mesitylimino(diphenyl)phosphino)methane)-tetra-lithium toluene solvate'
_symmetry_cell_setting           monoclinic
_symmetry_space_group_name_H-M   'P 21/n'
_symmetry_Int_Tables_number      14
_space_group_name_Hall           '-P 2yn'
loop_
_symmetry_equiv_pos_site_id
_symmetry_equiv_pos_as_xyz
1 x,y,z
2 1/2-x,1/2+y,1/2-z
3 -x,-y,-z
4 1/2+x,1/2-y,1/2+z
_cell_length_a                   13.512(2)
_cell_length_b                   20.928(3)
_cell_length_c                   27.872(4)
_cell_angle_alpha                90
_cell_angle_beta                 102.544(3)
_cell_angle_gamma                90
_cell_volume                     7693.48
_exptl_crystal_colour            colorless
_exptl_crystal_description       column
_cell_formula_units_Z            4
loop_
_atom_site_label
_atom_site_type_symbol
_atom_site_fract_x
_atom_site_fract_y
_atom_site_fract_z
C1 C 0.9574(3) 0.2899(2) 0.17508(18)
P1 P 1.03588(9) 0.35122(6) 0.19750(5)
C2 C 1.0889(4) 0.3440(2) 0.26391(17)
C3 C 1.0266(4) 0.3543(2) 0.29648(17)
H1 H 0.9576 0.3653 0.2841
C4 C 1.0625(4) 0.3489(2) 0.34654(19)
H2 H 1.0191 0.3573 0.3684
C5 C 1.1623(4) 0.3313(2) 0.3646(2)
H3 H 1.1874 0.3278 0.3991
C6 C 1.2251(4) 0.3187(2) 0.3334(2)
H4 H 1.2930 0.3055 0.3462
C7 C 1.1895(4) 0.3252(2) 0.28262(19)
H5 H 1.2333 0.3169 0.2609
C8 C 1.1479(3) 0.3560(2) 0.17078(17)
C9 C 1.1563(4) 0.3166(2) 0.13142(18)
H6 H 1.1104 0.2821 0.1223
C10 C 1.2318(4) 0.3279(2) 0.10565(19)
H7 H 1.2362 0.3013 0.0786
C11 C 1.3000(4) 0.3768(2) 0.11863(19)
H8 H 1.3504 0.3844 0.1003
C12 C 1.2950(4) 0.4151(2) 0.15869(19)
H9 H 1.3434 0.4481 0.1687
C13 C 1.2182(3) 0.4047(2) 0.18410(18)
H10 H 1.2138 0.4316 0.2111
N1 N 0.9707(3) 0.41534(17) 0.18065(14)
C14 C 1.0037(3) 0.4804(2) 0.18015(18)
C15 C 1.0199(3) 0.5080(2) 0.13590(17)
C16 C 1.0409(3) 0.5732(2) 0.13363(19)
H11 H 1.0532 0.5902 0.1039
C17 C 1.0445(4) 0.6136(2) 0.1729(2)
C18 C 1.0294(3) 0.5865(2) 0.21620(19)
H12 H 1.0320 0.6134 0.2439
C19 C 1.0105(3) 0.5217(2) 0.22074(18)
C20 C 1.0160(4) 0.4689(2) 0.09078(17)
H13 H 1.0299 0.4962 0.0645
H14 H 0.9484 0.4498 0.0804
H15 H 1.0670 0.4349 0.0978
C21 C 1.0669(4) 0.6841(2) 0.1713(2)
H16 H 1.0666 0.6967 0.1374
H17 H 1.1336 0.6930 0.1923
H18 H 1.0149 0.7083 0.1832
C22 C 1.0004(4) 0.4983(2) 0.27019(18)
H19 H 0.9928 0.5349 0.2911
H20 H 1.0612 0.4740 0.2854
H21 H 0.9407 0.4707 0.2665
P2 P 0.93893(9) 0.22012(6) 0.20267(5)
C23 C 0.8981(3) 0.2297(2) 0.26137(17)
C24 C 0.9556(4) 0.2098(2) 0.30638(17)
H22 H 1.0181 0.1883 0.3077
C25 C 0.9229(4) 0.2209(2) 0.34911(18)
H23 H 0.9631 0.2069 0.3796
C26 C 0.8328(4) 0.2519(2) 0.34832(19)
H24 H 0.8103 0.2589 0.3779
C27 C 0.7751(4) 0.2730(2) 0.30356(18)
H25 H 0.7131 0.2949 0.3025
C28 C 0.8079(4) 0.2619(2) 0.26099(18)
H26 H 0.7681 0.2766 0.2306
C29 C 1.0449(4) 0.1647(2) 0.22106(17)
C30 C 1.0282(4) 0.1039(2) 0.23890(17)
H27 H 0.9627 0.0926 0.2434
C31 C 1.1062(4) 0.0605(2) 0.24995(18)
H28 H 1.0943 0.0194 0.2621
C32 C 1.2025(4) 0.0765(2) 0.2435(2)
H29 H 1.2562 0.0464 0.2513
C33 C 1.2196(4) 0.1361(2) 0.22569(19)
H30 H 1.2852 0.1471 0.2212
C34 C 1.1414(4) 0.1800(2) 0.21444(18)
H31 H 1.1536 0.2208 0.2021
N2 N 0.8519(3) 0.18589(18) 0.16012(14)
C35 C 0.8261(3) 0.1197(2) 0.15460(17)
C36 C 0.7401(3) 0.0959(2) 0.16970(17)
C37 C 0.7035(4) 0.0355(2) 0.15582(18)
H32 H 0.6455 0.0206 0.1666
C38 C 0.7484(4) -0.0044(2) 0.12678(19)
C39 C 0.8360(4) 0.0180(2) 0.11419(18)
H33 H 0.8704 -0.0093 0.0959
C40 C 0.8758(3) 0.0782(2) 0.12701(17)
C41 C 0.6871(4) 0.1350(2) 0.2020(2)
H34 H 0.6182 0.1186 0.1994
H35 H 0.6838 0.1797 0.1913
H36 H 0.7247 0.1322 0.2362
C42 C 0.7055(4) -0.0697(2) 0.1124(2)
H37 H 0.6323 -0.0694 0.1106
H38 H 0.7379 -0.1010 0.1370
H39 H 0.7184 -0.0813 0.0803
C43 C 0.9729(4) 0.0967(2) 0.11174(19)
H40 H 0.9855 0.0669 0.0866
H41 H 1.0296 0.0949 0.1404
H42 H 0.9665 0.1402 0.0984
C44 C 0.7536(3) 0.3386(2) 0.08391(17)
P3 P 0.75842(9) 0.29911(6) 0.03177(5)
C45 C 0.7372(3) 0.3468(2) -0.02435(17)
C46 C 0.7412(4) 0.3204(2) -0.06995(18)
H43 H 0.7558 0.2762 -0.0720
C47 C 0.7244(4) 0.3569(3) -0.11205(19)
H44 H 0.7251 0.3378 -0.1429
C48 C 0.7067(4) 0.4216(3) -0.1091(2)
H45 H 0.6964 0.4472 -0.1378
C49 C 0.7038(4) 0.4491(3) -0.0641(2)
H46 H 0.6917 0.4937 -0.0622
C50 C 0.7184(4) 0.4119(2) -0.02231(19)
H47 H 0.7155 0.4310 0.0083
C51 C 0.6602(3) 0.2368(2) 0.01695(16)
C52 C 0.6605(4) 0.1883(2) 0.05168(18)
H48 H 0.7126 0.1879 0.0807
C53 C 0.5881(4) 0.1415(2) 0.04514(18)
H49 H 0.5902 0.1091 0.0692
C54 C 0.5113(4) 0.1418(2) 0.00286(18)
H50 H 0.4604 0.1097 -0.0020
C55 C 0.5093(4) 0.1884(2) -0.03161(18)
H51 H 0.4573 0.1883 -0.0607
C56 C 0.5821(3) 0.2358(2) -0.02453(17)
H52 H 0.5786 0.2684 -0.0486
N3 N 0.8727(3) 0.26840(18) 0.04237(13)
C57 C 0.9219(3) 0.2481(2) 0.00348(17)
C58 C 0.9906(4) 0.2896(2) -0.01140(18)
C59 C 1.0476(4) 0.2690(2) -0.04465(18)
H53 H 1.0940 0.2977 -0.0544
C60 C 1.0380(4) 0.2076(3) -0.06380(19)
C61 C 0.9684(4) 0.1680(3) -0.05055(18)
H54 H 0.9591 0.1266 -0.0648
C62 C 0.9093(4) 0.1858(2) -0.01662(18)
C63 C 1.0053(4) 0.3571(2) 0.00761(19)
H55 H 1.0532 0.3793 -0.0085
H56 H 1.0322 0.3564 0.0432
H57 H 0.9401 0.3796 0.0004
C64 C 1.1043(4) 0.1865(3) -0.0980(2)
H58 H 1.0882 0.1422 -0.1082
H59 H 1.1758 0.1894 -0.0810
H60 H 1.0922 0.2142 -0.1271
C65 C 0.8366(4) 0.1373(2) -0.00433(19)
H61 H 0.8611 0.0942 -0.0092
H62 H 0.7696 0.1436 -0.0258
H63 H 0.8318 0.1425 0.0300
P4 P 0.65221(9) 0.36673(6) 0.10323(5)
C66 C 0.5285(3) 0.3579(2) 0.05988(17)
C67 C 0.4927(4) 0.4078(2) 0.02727(18)
H64 H 0.5298 0.4466 0.0293
C68 C 0.4040(4) 0.4012(3) -0.0077(2)
H65 H 0.3802 0.4358 -0.0293
C69 C 0.3497(4) 0.3453(2) -0.01192(19)
H66 H 0.2886 0.3410 -0.0361
C70 C 0.3855(4) 0.2952(3) 0.01976(18)
H67 H 0.3484 0.2564 0.0174
C71 C 0.4742(3) 0.3015(2) 0.05462(18)
H68 H 0.4985 0.2663 0.0755
C72 C 0.6582(4) 0.4537(2) 0.11258(17)
C73 C 0.7463(3) 0.4866(2) 0.11127(17)
H69 H 0.7974 0.4659 0.0984
C74 C 0.7623(4) 0.5485(2) 0.12808(19)
H70 H 0.8236 0.5701 0.1269
C75 C 0.6867(4) 0.5788(2) 0.1469(2)
H71 H 0.6974 0.6208 0.1599
C76 C 0.5967(4) 0.5477(2) 0.1464(2)
H72 H 0.5441 0.5695 0.1574
C77 C 0.5817(4) 0.4857(2) 0.13022(18)
H73 H 0.5198 0.4645 0.1310
N4 N 0.6646(3) 0.33499(17) 0.15822(14)
C78 C 0.6069(3) 0.3515(2) 0.19438(17)
C79 C 0.6421(3) 0.4007(2) 0.22841(17)
C80 C 0.5860(4) 0.4173(2) 0.26325(17)
H74 H 0.6083 0.4520 0.2848
C81 C 0.4988(4) 0.3845(2) 0.26727(18)
C82 C 0.4714(4) 0.3328(2) 0.23690(18)
H75 H 0.4152 0.3076 0.2410
C83 C 0.5227(3) 0.3154(2) 0.20016(18)
C84 C 0.7426(3) 0.4330(2) 0.23233(18)
H76 H 0.7502 0.4671 0.2570
H77 H 0.7462 0.4514 0.2004
H78 H 0.7972 0.4017 0.2422
C85 C 0.4381(4) 0.4043(3) 0.30432(19)
H79 H 0.4307 0.3677 0.3253
H80 H 0.3709 0.4189 0.2871
H81 H 0.4733 0.4390 0.3247
C86 C 0.4869(4) 0.2566(2) 0.17106(19)
H82 H 0.5405 0.2411 0.1553
H83 H 0.4263 0.2667 0.1458
H84 H 0.4706 0.2235 0.1930
Li1 Li 0.7565(7) 0.2643(4) 0.1420(3)
Li2 Li 0.8336(6) 0.3721(4) 0.1692(3)
Li3 Li 0.9143(6) 0.3428(4) 0.1006(3)
Li4 Li 0.9123(6) 0.2278(4) 0.1080(3)
C87 C 0.3417(3) 0.04815(18) 0.06864(16)
C88 C 0.3446(3) 0.0992(2) 0.10083(13)
H85 H 0.3973 0.1019 0.1295
C89 C 0.2704(3) 0.14628(18) 0.09104(15)
H86 H 0.2724 0.1812 0.1130
C90 C 0.1933(3) 0.14232(19) 0.04906(17)
H87 H 0.1425 0.1745 0.0424
C91 C 0.1903(3) 0.0913(2) 0.01687(13)
H88 H 0.1376 0.0886 -0.0118
C92 C 0.2646(3) 0.04420(18) 0.02666(14)
H89 H 0.2626 0.0093 0.0047
C93 C 0.4218(5) -0.0019(3) 0.0787(3)
H90 H 0.4257 -0.0198 0.1116
H91 H 0.4873 0.0170 0.0770
H92 H 0.4052 -0.0360 0.0541
loop_
_geom_bond_atom_site_label_1
_geom_bond_atom_site_label_2
_geom_bond_site_symmetry_1
_geom_bond_site_symmetry_2
C1 P1 1_555 1_555
P1 C2 1_555 1_555
C2 C3 1_555 1_555
C3 H1 1_555 1_555
C4 C3 1_555 1_555
H2 C4 1_555 1_555
C5 C4 1_555 1_555
H3 C5 1_555 1_555
C6 C5 1_555 1_555
H4 C6 1_555 1_555
C7 C2 1_555 1_555
H5 C7 1_555 1_555
C8 P1 1_555 1_555
C9 C8 1_555 1_555
H6 C9 1_555 1_555
C10 C9 1_555 1_555
H7 C10 1_555 1_555
C11 C10 1_555 1_555
H8 C11 1_555 1_555
C12 C11 1_555 1_555
H9 C12 1_555 1_555
C13 C8 1_555 1_555
H10 C13 1_555 1_555
N1 P1 1_555 1_555
C14 N1 1_555 1_555
C15 C14 1_555 1_555
C16 C15 1_555 1_555
H11 C16 1_555 1_555
C17 C16 1_555 1_555
C18 C17 1_555 1_555
H12 C18 1_555 1_555
C19 C14 1_555 1_555
C20 C15 1_555 1_555
H13 C20 1_555 1_555
H14 C20 1_555 1_555
H15 C20 1_555 1_555
C21 C17 1_555 1_555
H16 C21 1_555 1_555
H17 C21 1_555 1_555
H18 C21 1_555 1_555
C22 C19 1_555 1_555
H19 C22 1_555 1_555
H20 C22 1_555 1_555
H21 C22 1_555 1_555
P2 C1 1_555 1_555
C23 P2 1_555 1_555
C24 C23 1_555 1_555
H22 C24 1_555 1_555
C25 C24 1_555 1_555
H23 C25 1_555 1_555
C26 C25 1_555 1_555
H24 C26 1_555 1_555
C27 C26 1_555 1_555
H25 C27 1_555 1_555
C28 C23 1_555 1_555
H26 C28 1_555 1_555
C29 P2 1_555 1_555
C30 C29 1_555 1_555
H27 C30 1_555 1_555
C31 C30 1_555 1_555
H28 C31 1_555 1_555
C32 C31 1_555 1_555
H29 C32 1_555 1_555
C33 C32 1_555 1_555
H30 C33 1_555 1_555
C34 C29 1_555 1_555
H31 C34 1_555 1_555
N2 P2 1_555 1_555
C35 N2 1_555 1_555
C36 C35 1_555 1_555
C37 C36 1_555 1_555
H32 C37 1_555 1_555
C38 C37 1_555 1_555
C39 C38 1_555 1_555
H33 C39 1_555 1_555
C40 C35 1_555 1_555
C41 C36 1_555 1_555
H34 C41 1_555 1_555
H35 C41 1_555 1_555
H36 C41 1_555 1_555
C42 C38 1_555 1_555
H37 C42 1_555 1_555
H38 C42 1_555 1_555
H39 C42 1_555 1_555
C43 C40 1_555 1_555
H40 C43 1_555 1_555
H41 C43 1_555 1_555
H42 C43 1_555 1_555
C44 P3 1_555 1_555
P3 C45 1_555 1_555
C45 C46 1_555 1_555
C46 H43 1_555 1_555
C47 C46 1_555 1_555
H44 C47 1_555 1_555
C48 C47 1_555 1_555
H45 C48 1_555 1_555
C49 C48 1_555 1_555
H46 C49 1_555 1_555
C50 C45 1_555 1_555
H47 C50 1_555 1_555
C51 P3 1_555 1_555
C52 C51 1_555 1_555
H48 C52 1_555 1_555
C53 C52 1_555 1_555
H49 C53 1_555 1_555
C54 C53 1_555 1_555
H50 C54 1_555 1_555
C55 C54 1_555 1_555
H51 C55 1_555 1_555
C56 C51 1_555 1_555
H52 C56 1_555 1_555
N3 P3 1_555 1_555
C57 N3 1_555 1_555
C58 C57 1_555 1_555
C59 C58 1_555 1_555
H53 C59 1_555 1_555
C60 C59 1_555 1_555
C61 C60 1_555 1_555
H54 C61 1_555 1_555
C62 C57 1_555 1_555
C63 C58 1_555 1_555
H55 C63 1_555 1_555
H56 C63 1_555 1_555
H57 C63 1_555 1_555
C64 C60 1_555 1_555
H58 C64 1_555 1_555
H59 C64 1_555 1_555
H60 C64 1_555 1_555
C65 C62 1_555 1_555
H61 C65 1_555 1_555
H62 C65 1_555 1_555
H63 C65 1_555 1_555
P4 C44 1_555 1_555
C66 P4 1_555 1_555
C67 C66 1_555 1_555
H64 C67 1_555 1_555
C68 C67 1_555 1_555
H65 C68 1_555 1_555
C69 C68 1_555 1_555
H66 C69 1_555 1_555
C70 C69 1_555 1_555
H67 C70 1_555 1_555
C71 C66 1_555 1_555
H68 C71 1_555 1_555
C72 P4 1_555 1_555
C73 C72 1_555 1_555
H69 C73 1_555 1_555
C74 C73 1_555 1_555
H70 C74 1_555 1_555
C75 C74 1_555 1_555
H71 C75 1_555 1_555
C76 C75 1_555 1_555
H72 C76 1_555 1_555
C77 C72 1_555 1_555
H73 C77 1_555 1_555
N4 P4 1_555 1_555
C78 N4 1_555 1_555
C79 C78 1_555 1_555
C80 C79 1_555 1_555
H74 C80 1_555 1_555
C81 C80 1_555 1_555
C82 C81 1_555 1_555
H75 C82 1_555 1_555
C83 C78 1_555 1_555
C84 C79 1_555 1_555
H76 C84 1_555 1_555
H77 C84 1_555 1_555
H78 C84 1_555 1_555
C85 C81 1_555 1_555
H79 C85 1_555 1_555
H80 C85 1_555 1_555
H81 C85 1_555 1_555
C86 C83 1_555 1_555
H82 C86 1_555 1_555
H83 C86 1_555 1_555
H84 C86 1_555 1_555
C87 C88 1_555 1_555
C88 H85 1_555 1_555
C89 C88 1_555 1_555
H86 C89 1_555 1_555
C90 C89 1_555 1_555
H87 C90 1_555 1_555
C91 C90 1_555 1_555
H88 C91 1_555 1_555
C92 C87 1_555 1_555
H89 C92 1_555 1_555
C93 C87 1_555 1_555
H90 C93 1_555 1_555
H91 C93 1_555 1_555
H92 C93 1_555 1_555
Li1 C1 1_555 1_555
Li2 C1 1_555 1_555
Li3 C1 1_555 1_555
Li4 C1 1_555 1_555
C6 C7 1_555 1_555
C12 C13 1_555 1_555
N1 Li2 1_555 1_555
N1 Li3 1_555 1_555
C18 C19 1_555 1_555
C27 C28 1_555 1_555
C33 C34 1_555 1_555
N2 Li1 1_555 1_555
N2 Li4 1_555 1_555
C39 C40 1_555 1_555
C44 Li1 1_555 1_555
C44 Li2 1_555 1_555
C44 Li3 1_555 1_555
C49 C50 1_555 1_555
C55 C56 1_555 1_555
N3 Li3 1_555 1_555
N3 Li4 1_555 1_555
C61 C62 1_555 1_555
C70 C71 1_555 1_555
C76 C77 1_555 1_555
N4 Li1 1_555 1_555
N4 Li2 1_555 1_555
C82 C83 1_555 1_555
C91 C92 1_555 1_555

#END
