
#######################################################################
#
#                 Cambridge Crystallographic Data Centre
#                                CCDC 
#
#######################################################################
#
# If this CIF has been generated from an entry in the Cambridge 
# Structural Database, then it will include bibliographic, chemical, 
# crystal, experimental, refinement or atomic coordinate data resulting 
# from the CCDC's data processing and validation procedures.
#
#######################################################################

data_KAJRAQ
_chemical_formula_moiety         'C34 H27 N1 O1'
_chemical_name_systematic        
1-(3-(1-Benzyl-1H-indol-3-yl)-1,3-diphenylpropadienyl)cyclopropanecarbaldehyde
_symmetry_cell_setting           triclinic
_symmetry_space_group_name_H-M   'P -1'
_symmetry_Int_Tables_number      2
_space_group_name_Hall           '-P 1'
loop_
_symmetry_equiv_pos_site_id
_symmetry_equiv_pos_as_xyz
1 x,y,z
2 -x,-y,-z
_cell_length_a                   9.6175(10)
_cell_length_b                   12.5672(12)
_cell_length_c                   12.7864(14)
_cell_angle_alpha                105.959(2)
_cell_angle_beta                 106.957(2)
_cell_angle_gamma                109.062(2)
_cell_volume                     1274.67
_exptl_crystal_colour            colorless
_exptl_crystal_description       prismatic
_chemical_melting_point          '147-148 deg.C'
_cell_formula_units_Z            2
loop_
_atom_site_label
_atom_site_type_symbol
_atom_site_fract_x
_atom_site_fract_y
_atom_site_fract_z
O1 O 1.1046(3) 0.9067(3) 0.3844(3)
N1 N 0.3117(3) 0.6971(2) 0.3521(3)
C1 C 0.5711(4) 0.8991(3) 0.2571(3)
C2 C 0.7009(4) 0.9076(3) 0.2378(3)
C3 C 0.8395(4) 0.9288(3) 0.2288(3)
C4 C 0.9903(4) 1.0347(3) 0.3293(3)
C5 C 1.0532(5) 1.1568(3) 0.3174(4)
H1 H 1.1698 1.2051 0.3504
H2 H 0.9925 1.1611 0.2446
C6 C 0.9794(5) 1.1479(3) 0.4018(4)
H3 H 0.8733 1.1466 0.3808
H4 H 1.0505 1.1906 0.4867
C7 C 1.1158(5) 1.0088(4) 0.3977(4)
H5 H 1.2119 1.0759 0.4560
C8 C 0.4914(4) 0.8079(3) 0.2977(3)
C9 C 0.3593(4) 0.7947(3) 0.3214(3)
H6 H 0.3078 0.8455 0.3172
C10 C 0.4153(4) 0.6442(3) 0.3474(3)
C11 C 0.5301(4) 0.7106(3) 0.3143(3)
C12 C 0.6502(4) 0.6740(3) 0.3040(3)
H7 H 0.7269 0.7159 0.2811
C13 C 0.6515(5) 0.5741(3) 0.3287(3)
H8 H 0.7303 0.5487 0.3220
C14 C 0.5389(5) 0.5109(3) 0.3632(4)
H9 H 0.5455 0.4453 0.3811
C15 C 0.4169(5) 0.5427(3) 0.3717(3)
H10 H 0.3393 0.4986 0.3928
C16 C 0.1761(4) 0.6577(3) 0.3844(4)
H11 H 0.1465 0.7248 0.4053
H12 H 0.2109 0.6412 0.4550
C17 C 0.0295(5) 0.5454(3) 0.2876(4)
C18 C -0.0389(5) 0.4410(4) 0.3065(5)
H13 H 0.0104 0.4387 0.3796
C19 C -0.1794(6) 0.3401(5) 0.2184(7)
H14 H -0.2240 0.2703 0.2320
C20 C -0.2516(6) 0.3436(5) 0.1121(7)
H15 H -0.3468 0.2758 0.0535
C21 C -0.1882(6) 0.4440(5) 0.0886(5)
H16 H -0.2384 0.4449 0.0149
C22 C -0.0460(6) 0.5453(4) 0.1783(5)
H17 H -0.0013 0.6144 0.1637
C23 C 0.5038(4) 0.9875(3) 0.2369(3)
C24 C 0.5037(4) 1.0713(3) 0.3339(4)
H18 H 0.5397 1.0685 0.4085
C25 C 0.4508(4) 1.1586(3) 0.3213(4)
H19 H 0.4531 1.2150 0.3873
C26 C 0.3953(4) 1.1620(4) 0.2121(4)
H20 H 0.3590 1.2204 0.2031
C27 C 0.3931(5) 1.0792(4) 0.1153(4)
H21 H 0.3540 1.0806 0.0402
C28 C 0.4491(4) 0.9940(3) 0.1297(4)
H22 H 0.4492 0.9394 0.0639
C29 C 0.8494(4) 0.8493(3) 0.1238(3)
C30 C 0.9873(5) 0.8849(4) 0.1022(4)
H23 H 1.0746 0.9617 0.1525
C31 C 0.9961(5) 0.8072(4) 0.0067(4)
H24 H 1.0893 0.8330 -0.0065
C32 C 0.8716(5) 0.6938(4) -0.0683(4)
H25 H 0.8789 0.6421 -0.1321
C33 C 0.7344(5) 0.6574(4) -0.0477(4)
H26 H 0.6481 0.5801 -0.0983
C34 C 0.7235(4) 0.7336(3) 0.0467(3)
H27 H 0.6297 0.7070 0.0590
loop_
_geom_bond_atom_site_label_1
_geom_bond_atom_site_label_2
_geom_bond_site_symmetry_1
_geom_bond_site_symmetry_2
O1 C7 1_555 1_555
N1 C9 1_555 1_555
C1 C2 1_555 1_555
C2 C3 1_555 1_555
C3 C4 1_555 1_555
C4 C5 1_555 1_555
C5 H1 1_555 1_555
H2 C5 1_555 1_555
C6 C4 1_555 1_555
H3 C6 1_555 1_555
H4 C6 1_555 1_555
C7 C4 1_555 1_555
H5 C7 1_555 1_555
C8 C1 1_555 1_555
C9 C8 1_555 1_555
H6 C9 1_555 1_555
C10 N1 1_555 1_555
C11 C8 1_555 1_555
C12 C11 1_555 1_555
H7 C12 1_555 1_555
C13 C12 1_555 1_555
H8 C13 1_555 1_555
C14 C13 1_555 1_555
H9 C14 1_555 1_555
C15 C10 1_555 1_555
H10 C15 1_555 1_555
C16 N1 1_555 1_555
H11 C16 1_555 1_555
H12 C16 1_555 1_555
C17 C16 1_555 1_555
C18 C17 1_555 1_555
H13 C18 1_555 1_555
C19 C18 1_555 1_555
H14 C19 1_555 1_555
C20 C19 1_555 1_555
H15 C20 1_555 1_555
C21 C20 1_555 1_555
H16 C21 1_555 1_555
C22 C17 1_555 1_555
H17 C22 1_555 1_555
C23 C1 1_555 1_555
C24 C23 1_555 1_555
H18 C24 1_555 1_555
C25 C24 1_555 1_555
H19 C25 1_555 1_555
C26 C25 1_555 1_555
H20 C26 1_555 1_555
C27 C26 1_555 1_555
H21 C27 1_555 1_555
C28 C23 1_555 1_555
H22 C28 1_555 1_555
C29 C3 1_555 1_555
C30 C29 1_555 1_555
H23 C30 1_555 1_555
C31 C30 1_555 1_555
H24 C31 1_555 1_555
C32 C31 1_555 1_555
H25 C32 1_555 1_555
C33 C32 1_555 1_555
H26 C33 1_555 1_555
C34 C29 1_555 1_555
H27 C34 1_555 1_555
C5 C6 1_555 1_555
C10 C11 1_555 1_555
C14 C15 1_555 1_555
C21 C22 1_555 1_555
C27 C28 1_555 1_555
C33 C34 1_555 1_555

#END
