
#######################################################################
#
#                 Cambridge Crystallographic Data Centre
#                                CCDC 
#
#######################################################################
#
# If this CIF has been generated from an entry in the Cambridge 
# Structural Database, then it will include bibliographic, chemical, 
# crystal, experimental, refinement or atomic coordinate data resulting 
# from the CCDC's data processing and validation procedures.
#
#######################################################################

data_KAJREU
_chemical_formula_moiety         'C35 H29 N1 O2'
_chemical_name_systematic        
1-(3-(1-Benzyl-1H-indol-3-yl)-3-(4-methoxyphenyl)-1-phenylpropadienyl)cyclopropanecarbaldehyde
_symmetry_cell_setting           monoclinic
_symmetry_space_group_name_H-M   'P 21/n'
_symmetry_Int_Tables_number      14
_space_group_name_Hall           '-P 2yn'
loop_
_symmetry_equiv_pos_site_id
_symmetry_equiv_pos_as_xyz
1 x,y,z
2 1/2-x,1/2+y,1/2-z
3 -x,-y,-z
4 1/2+x,1/2-y,1/2+z
_cell_length_a                   9.7594(10)
_cell_length_b                   18.7562(19)
_cell_length_c                   15.1482(16)
_cell_angle_alpha                90
_cell_angle_beta                 103.799(2)
_cell_angle_gamma                90
_cell_volume                     2692.84
_exptl_crystal_colour            colorless
_exptl_crystal_description       prismatic
_cell_formula_units_Z            4
loop_
_atom_site_label
_atom_site_type_symbol
_atom_site_fract_x
_atom_site_fract_y
_atom_site_fract_z
N1 N 0.3606(2) 0.00567(10) 0.24326(14)
O1 O -0.26883(19) 0.04540(9) 0.39587(13)
O2 O 0.6707(2) 0.23531(10) 0.65684(13)
C1 C 0.2129(3) 0.11550(12) 0.39713(16)
C2 C 0.0847(3) 0.13229(12) 0.40476(15)
C3 C -0.0379(2) 0.14893(12) 0.42173(15)
C4 C -0.0843(2) 0.10944(12) 0.49543(15)
C5 C -0.0672(3) 0.14589(14) 0.58687(16)
H1 H -0.0271 0.1935 0.5936
H2 H -0.1392 0.1375 0.6201
C6 C 0.0266(3) 0.08633(14) 0.57848(16)
H3 H 0.0122 0.0414 0.6066
H4 H 0.1243 0.0974 0.5802
C7 C -0.2036(3) 0.06053(13) 0.47137(19)
H5 H -0.2320 0.0388 0.5193
C8 C 0.2407(3) 0.06660(12) 0.32868(15)
C9 C 0.3711(3) 0.05076(12) 0.31568(16)
H6 H 0.4556 0.0682 0.3512
C10 C 0.2200(3) -0.00682(12) 0.20531(17)
C11 C 0.1421(3) 0.03030(12) 0.25753(16)
C12 C -0.0058(3) 0.02772(13) 0.23025(18)
H7 H -0.0606 0.0519 0.2630
C13 C -0.0685(3) -0.01122(15) 0.1542(2)
H8 H -0.1664 -0.0127 0.1353
C14 C 0.0117(4) -0.04826(16) 0.1055(2)
H9 H -0.0339 -0.0747 0.0551
C15 C 0.1566(3) -0.04712(14) 0.12933(19)
H10 H 0.2099 -0.0721 0.0963
C16 C 0.4787(3) -0.01060(13) 0.20217(18)
H11 H 0.4575 -0.0538 0.1664
H12 H 0.5626 -0.0194 0.2501
C17 C 0.5084(3) 0.04884(14) 0.14210(17)
C18 C 0.4243(3) 0.05969(15) 0.05584(19)
H13 H 0.3484 0.0294 0.0337
C19 C 0.4515(4) 0.11476(17) 0.00201(19)
H14 H 0.3933 0.1219 -0.0556
C20 C 0.5642(4) 0.15887(16) 0.0335(2)
H15 H 0.5843 0.1953 -0.0031
C21 C 0.6463(4) 0.14918(17) 0.1181(2)
H16 H 0.7225 0.1794 0.1399
C22 C 0.6178(3) 0.09477(17) 0.1725(2)
H17 H 0.6743 0.0893 0.2309
C23 C 0.3351(2) 0.14904(12) 0.46276(16)
C24 C 0.3575(3) 0.22161(13) 0.46527(18)
H18 H 0.2968 0.2505 0.4236
C25 C 0.4682(3) 0.25281(14) 0.5284(2)
H19 H 0.4813 0.3019 0.5286
C26 C 0.5577(3) 0.21099(15) 0.59025(18)
C27 C 0.5372(3) 0.13805(13) 0.58964(16)
H20 H 0.5977 0.1093 0.6316
C28 C 0.4274(3) 0.10825(12) 0.52688(16)
H21 H 0.4143 0.0591 0.5273
C29 C -0.1276(3) 0.20686(12) 0.37251(15)
C30 C -0.2572(3) 0.22354(13) 0.39025(17)
H22 H -0.2891 0.1974 0.4336
C31 C -0.3393(3) 0.27822(14) 0.34468(19)
H23 H -0.4264 0.2881 0.3569
C32 C -0.2935(3) 0.31787(15) 0.28188(19)
H24 H -0.3478 0.3555 0.2526
C33 C -0.1676(3) 0.30206(14) 0.26228(18)
H25 H -0.1372 0.3283 0.2184
C34 C -0.0849(3) 0.24726(13) 0.30721(16)
H26 H 0.0010 0.2373 0.2934
C35 C 0.7129(4) 0.30675(16) 0.6499(2)
H27 H 0.7362 0.3137 0.5924
H28 H 0.7939 0.3169 0.6982
H29 H 0.6371 0.3381 0.6544
loop_
_geom_bond_atom_site_label_1
_geom_bond_atom_site_label_2
_geom_bond_site_symmetry_1
_geom_bond_site_symmetry_2
N1 C9 1_555 1_555
O1 C7 1_555 1_555
O2 C26 1_555 1_555
C1 C2 1_555 1_555
C2 C3 1_555 1_555
C3 C4 1_555 1_555
C4 C5 1_555 1_555
C5 H1 1_555 1_555
H2 C5 1_555 1_555
C6 C4 1_555 1_555
H3 C6 1_555 1_555
H4 C6 1_555 1_555
C7 C4 1_555 1_555
H5 C7 1_555 1_555
C8 C1 1_555 1_555
C9 C8 1_555 1_555
H6 C9 1_555 1_555
C10 N1 1_555 1_555
C11 C8 1_555 1_555
C12 C11 1_555 1_555
H7 C12 1_555 1_555
C13 C12 1_555 1_555
H8 C13 1_555 1_555
C14 C13 1_555 1_555
H9 C14 1_555 1_555
C15 C10 1_555 1_555
H10 C15 1_555 1_555
C16 N1 1_555 1_555
H11 C16 1_555 1_555
H12 C16 1_555 1_555
C17 C16 1_555 1_555
C18 C17 1_555 1_555
H13 C18 1_555 1_555
C19 C18 1_555 1_555
H14 C19 1_555 1_555
C20 C19 1_555 1_555
H15 C20 1_555 1_555
C21 C20 1_555 1_555
H16 C21 1_555 1_555
C22 C17 1_555 1_555
H17 C22 1_555 1_555
C23 C1 1_555 1_555
C24 C23 1_555 1_555
H18 C24 1_555 1_555
C25 C24 1_555 1_555
H19 C25 1_555 1_555
C26 C25 1_555 1_555
C27 C26 1_555 1_555
H20 C27 1_555 1_555
C28 C23 1_555 1_555
H21 C28 1_555 1_555
C29 C3 1_555 1_555
C30 C29 1_555 1_555
H22 C30 1_555 1_555
C31 C30 1_555 1_555
H23 C31 1_555 1_555
C32 C31 1_555 1_555
H24 C32 1_555 1_555
C33 C32 1_555 1_555
H25 C33 1_555 1_555
C34 C29 1_555 1_555
H26 C34 1_555 1_555
C35 O2 1_555 1_555
H27 C35 1_555 1_555
H28 C35 1_555 1_555
H29 C35 1_555 1_555
C5 C6 1_555 1_555
C10 C11 1_555 1_555
C14 C15 1_555 1_555
C21 C22 1_555 1_555
C27 C28 1_555 1_555
C33 C34 1_555 1_555

#END
