
#######################################################################
#
#                 Cambridge Crystallographic Data Centre
#                                CCDC 
#
#######################################################################
#
# If this CIF has been generated from an entry in the Cambridge 
# Structural Database, then it will include bibliographic, chemical, 
# crystal, experimental, refinement or atomic coordinate data resulting 
# from the CCDC's data processing and validation procedures.
#
#######################################################################

data_KAJSAR
_chemical_formula_moiety         'C21 H12 N4 O3,C1 H4 O1'
_chemical_name_systematic        
'5-Methyl-7-(pyridin-3-ylcarbonyl)-4H-isoquinolino[4,5-gh]quinazoline-4,6(5H)-dione methanol solvate'
_symmetry_cell_setting           monoclinic
_symmetry_space_group_name_H-M   'P 21/c'
_symmetry_Int_Tables_number      14
_space_group_name_Hall           '-P 2ybc'
loop_
_symmetry_equiv_pos_site_id
_symmetry_equiv_pos_as_xyz
1 x,y,z
2 -x,1/2+y,1/2-z
3 -x,-y,-z
4 x,1/2-y,1/2+z
_cell_length_a                   8.5310(17)
_cell_length_b                   26.709(5)
_cell_length_c                   8.8690(18)
_cell_angle_alpha                90
_cell_angle_beta                 106.52(3)
_cell_angle_gamma                90
_cell_volume                     1937.42
_exptl_crystal_colour            'light yellow'
_exptl_crystal_description       block
_cell_formula_units_Z            4
loop_
_atom_site_label
_atom_site_type_symbol
_atom_site_fract_x
_atom_site_fract_y
_atom_site_fract_z
O1 O 0.0990(5) -0.15179(17) 0.0538(5)
N1 N 0.6168(6) 0.0212(2) 0.3651(5)
C1 C 0.5658(8) 0.0601(3) 0.2659(8)
H1 H 0.6243 0.0896 0.2945
O2 O -0.2079(5) -0.07644(18) -0.3893(5)
N2 N 0.4468(6) 0.06222(19) 0.1362(6)
C2 C 0.5327(7) -0.0200(2) 0.3238(6)
H2 H 0.5617 -0.0481 0.3880
O3 O 0.3207(5) -0.11427(18) 0.3749(5)
N3 N -0.0565(6) -0.11350(19) -0.1669(6)
C3 C 0.3986(6) -0.0240(2) 0.1852(6)
C4 C 0.3611(6) 0.0191(2) 0.0935(6)
N4 N 0.6941(10) -0.2068(3) 0.3198(11)
C5 C 0.3058(6) -0.0693(2) 0.1426(6)
C6 C 0.1750(6) -0.0694(2) 0.0097(6)
C7 C 0.1363(6) -0.0266(2) -0.0872(6)
C8 C 0.2260(6) 0.0178(2) -0.0498(6)
C9 C 0.0743(7) -0.1151(2) -0.0290(7)
C10 C -0.0939(7) -0.0737(2) -0.2688(6)
C11 C 0.0040(7) -0.0273(2) -0.2278(6)
C12 C -0.0351(7) 0.0142(2) -0.3208(7)
H3 H -0.1240 0.0132 -0.4105
C13 C 0.0564(7) 0.0579(2) -0.2830(7)
H4 H 0.0303 0.0855 -0.3492
C14 C 0.1845(7) 0.0605(2) -0.1490(7)
H5 H 0.2440 0.0900 -0.1230
C15 C -0.1581(9) -0.1587(3) -0.2111(9)
H6 H -0.2430 -0.1526 -0.3067
H7 H -0.2061 -0.1671 -0.1287
H8 H -0.0912 -0.1861 -0.2268
C16 C 0.3571(7) -0.1133(2) 0.2536(7)
C17 C 0.4682(7) -0.1506(2) 0.2142(8)
C18 C 0.5839(10) -0.1725(3) 0.3396(9)
H9 H 0.5862 -0.1632 0.4413
C19 C 0.6872(12) -0.2176(3) 0.1681(14)
H10 H 0.7629 -0.2402 0.1501
C20 C 0.5785(9) -0.1979(3) 0.0441(10)
H11 H 0.5768 -0.2080 -0.0567
C21 C 0.4691(8) -0.1628(2) 0.0636(8)
H12 H 0.3969 -0.1475 -0.0228
O4 O 0.1983(12) -0.1871(4) 0.6201(12)
C22 C 0.1608(17) -0.2131(5) 0.4803(15)
H13 H 0.0955 -0.1923 0.3976
H14 H 0.1007 -0.2428 0.4894
H15 H 0.2599 -0.2222 0.4563
loop_
_geom_bond_atom_site_label_1
_geom_bond_atom_site_label_2
_geom_bond_site_symmetry_1
_geom_bond_site_symmetry_2
O1 C9 1_555 1_555
N1 C1 1_555 1_555
C1 H1 1_555 1_555
O2 C10 1_555 1_555
N2 C1 1_555 1_555
C2 N1 1_555 1_555
H2 C2 1_555 1_555
O3 C16 1_555 1_555
N3 C9 1_555 1_555
C3 C2 1_555 1_555
C4 N2 1_555 1_555
N4 C18 1_555 1_555
C5 C3 1_555 1_555
C6 C5 1_555 1_555
C7 C6 1_555 1_555
C8 C4 1_555 1_555
C9 C6 1_555 1_555
C10 N3 1_555 1_555
C11 C7 1_555 1_555
C12 C11 1_555 1_555
H3 C12 1_555 1_555
C13 C12 1_555 1_555
H4 C13 1_555 1_555
C14 C8 1_555 1_555
H5 C14 1_555 1_555
C15 N3 1_555 1_555
H6 C15 1_555 1_555
H7 C15 1_555 1_555
H8 C15 1_555 1_555
C16 C5 1_555 1_555
C17 C16 1_555 1_555
C18 C17 1_555 1_555
H9 C18 1_555 1_555
C19 N4 1_555 1_555
H10 C19 1_555 1_555
C20 C19 1_555 1_555
H11 C20 1_555 1_555
C21 C17 1_555 1_555
H12 C21 1_555 1_555
O4 C22 1_555 1_555
C22 H13 1_555 1_555
H14 C22 1_555 1_555
H15 C22 1_555 1_555
C3 C4 1_555 1_555
C7 C8 1_555 1_555
C10 C11 1_555 1_555
C13 C14 1_555 1_555
C20 C21 1_555 1_555

#END
