
#######################################################################
#
#                 Cambridge Crystallographic Data Centre
#                                CCDC 
#
#######################################################################
#
# If this CIF has been generated from an entry in the Cambridge 
# Structural Database, then it will include bibliographic, chemical, 
# crystal, experimental, refinement or atomic coordinate data resulting 
# from the CCDC's data processing and validation procedures.
#
#######################################################################

data_KAJVEZ
_chemical_formula_moiety         'C52 H55 N3 O1'
_chemical_name_systematic        
(2,5-bis(3,6-di-t-butyl-9H-carbazol-9-yl)phenyl)(pyridin-4-yl)methanone
_symmetry_cell_setting           monoclinic
_symmetry_space_group_name_H-M   'P 21/c'
_symmetry_Int_Tables_number      14
_space_group_name_Hall           '-P 2ybc'
loop_
_symmetry_equiv_pos_site_id
_symmetry_equiv_pos_as_xyz
1 x,y,z
2 -x,1/2+y,1/2-z
3 -x,-y,-z
4 x,1/2-y,1/2+z
_cell_length_a                   16.3143(3)
_cell_length_b                   19.5553(4)
_cell_length_c                   13.7512(2)
_cell_angle_alpha                90
_cell_angle_beta                 93.0260(10)
_cell_angle_gamma                90
_cell_volume                     4380.94
_exptl_crystal_colour            yellow
_cell_formula_units_Z            4
loop_
_atom_site_label
_atom_site_type_symbol
_atom_site_fract_x
_atom_site_fract_y
_atom_site_fract_z
N1 N 0.48269(9) 0.43701(9) 0.36475(11)
N2 N 0.66652(11) 0.47222(9) 0.03439(11)
O1 O 0.72966(10) 0.58272(9) 0.26439(12)
C1 C 0.39953(11) 0.45237(10) 0.37108(13)
C2 C 0.34677(13) 0.48754(12) 0.30719(14)
H1 H 0.3638 0.5031 0.2476
C3 C 0.26792(13) 0.49882(12) 0.33480(14)
H2 H 0.2323 0.5233 0.2928
C4 C 0.23868(12) 0.47548(12) 0.42254(14)
C5 C 0.29300(12) 0.43999(11) 0.48520(13)
H3 H 0.2753 0.4234 0.5439
C6 C 0.37365(11) 0.42902(10) 0.46079(12)
C7 C 0.44387(11) 0.39821(10) 0.51148(13)
C8 C 0.45515(12) 0.36693(11) 0.60201(13)
H4 H 0.4110 0.3628 0.6418
C9 C 0.53144(13) 0.34188(11) 0.63365(14)
C10 C 0.59568(13) 0.34835(13) 0.57120(15)
H5 H 0.6470 0.3312 0.5914
C11 C 0.58670(13) 0.37907(13) 0.48035(15)
H6 H 0.6307 0.3825 0.4403
C12 C 0.51011(11) 0.40449(10) 0.45116(13)
C13 C 0.52844(12) 0.44764(11) 0.28142(13)
C14 C 0.60353(12) 0.48048(10) 0.28975(13)
H7 H 0.6228 0.4971 0.3500
C15 C 0.65082(12) 0.48899(10) 0.20892(13)
C16 C 0.61949(12) 0.46560(10) 0.11809(13)
C17 C 0.54273(13) 0.43611(12) 0.10990(14)
H8 H 0.5212 0.4224 0.0490
C18 C 0.49718(13) 0.42660(12) 0.19076(14)
H9 H 0.4457 0.4061 0.1843
C19 C 0.72916(12) 0.52849(11) 0.22135(13)
C20 C 0.80626(12) 0.50072(12) 0.18305(13)
C21 C 0.82492(15) 0.43215(13) 0.18672(16)
H10 H 0.7885 0.4009 0.2116
C22 C 0.89901(18) 0.41052(16) 0.1527(2)
H11 H 0.9115 0.3642 0.1577
N3 N 0.95289(14) 0.45068(15) 0.11386(18)
C23 C 0.93299(16) 0.51616(17) 0.1082(2)
H12 H 0.9689 0.5454 0.0782
C24 C 0.86285(14) 0.54419(14) 0.14345(17)
H13 H 0.8537 0.5911 0.1408
C25 C 0.71265(13) 0.41952(10) -0.00332(13)
C26 C 0.71062(16) 0.35038(12) 0.01669(15)
H14 H 0.6730 0.3323 0.0582
C27 C 0.76651(17) 0.30902(12) -0.02709(17)
H15 H 0.7658 0.2623 -0.0142
C28 C 0.82399(16) 0.33415(11) -0.08979(16)
C29 C 0.82415(13) 0.40364(11) -0.10925(14)
H16 H 0.8616 0.4215 -0.1512
C30 C 0.76880(12) 0.44686(10) -0.06648(12)
C31 C 0.75578(12) 0.52030(10) -0.06790(12)
C32 C 0.79211(13) 0.57454(10) -0.11459(14)
H17 H 0.8343 0.5661 -0.1559
C33 C 0.76625(14) 0.64111(11) -0.10031(16)
C34 C 0.70315(14) 0.65197(11) -0.03680(17)
H18 H 0.6853 0.6965 -0.0270
C35 C 0.66647(13) 0.59972(11) 0.01170(15)
H19 H 0.6252 0.6084 0.0541
C36 C 0.69313(12) 0.53374(10) -0.00476(13)
C37 C 0.1511(5) 0.4892(3) 0.4506(4)
C38 C 0.0938(2) 0.5038(4) 0.3629(3)
H20 H 0.0381 0.5035 0.3822
H21 H 0.1006 0.4693 0.3143
H22 H 0.1064 0.5478 0.3367
C39 C 0.1533(3) 0.5484(4) 0.5198(5)
H23 H 0.1941 0.5402 0.5715
H24 H 0.1005 0.5536 0.5466
H25 H 0.1669 0.5894 0.4857
C40 C 0.1154(3) 0.4282(3) 0.5030(5)
H26 H 0.1466 0.4205 0.5632
H27 H 0.1180 0.3883 0.4626
H28 H 0.0593 0.4375 0.5162
C41 C 0.5392(6) 0.3067(5) 0.7392(10)
C42 C 0.4618(5) 0.2656(4) 0.7625(5)
H29 H 0.4493 0.2334 0.7112
H30 H 0.4164 0.2963 0.7680
H31 H 0.4716 0.2416 0.8229
C43 C 0.5499(7) 0.3629(5) 0.8155(8)
H32 H 0.5507 0.3430 0.8794
H33 H 0.5052 0.3947 0.8080
H34 H 0.6007 0.3864 0.8072
C44 C 0.6102(5) 0.2567(5) 0.7476(6)
H35 H 0.6607 0.2808 0.7396
H36 H 0.6031 0.2225 0.6979
H37 H 0.6118 0.2354 0.8105
C45 C 0.8030(5) 0.7001(5) -0.1551(6)
C46 C 0.8957(3) 0.6938(4) -0.1510(8)
H38 H 0.9167 0.6980 -0.0848
H39 H 0.9183 0.7293 -0.1896
H40 H 0.9107 0.6500 -0.1762
C47 C 0.7686(5) 0.6982(3) -0.2623(4)
H41 H 0.7888 0.6582 -0.2937
H42 H 0.7861 0.7383 -0.2957
H43 H 0.7098 0.6968 -0.2639
C48 C 0.7780(5) 0.7696(2) -0.1181(5)
H44 H 0.7192 0.7734 -0.1230
H45 H 0.8016 0.8047 -0.1565
H46 H 0.7972 0.7746 -0.0513
C49 C 0.8856(9) 0.2853(6) -0.1294(9)
C50 C 0.9286(6) 0.3166(4) -0.2152(7)
H47 H 0.8883 0.3345 -0.2618
H48 H 0.9604 0.2821 -0.2454
H49 H 0.9641 0.3529 -0.1920
C51 C 0.8427(5) 0.2209(4) -0.1665(7)
H50 H 0.8172 0.1986 -0.1137
H51 H 0.8821 0.1906 -0.1930
H52 H 0.8016 0.2326 -0.2163
C52 C 0.9466(5) 0.2655(5) -0.0468(6)
H53 H 0.9717 0.3060 -0.0193
H54 H 0.9881 0.2364 -0.0715
H55 H 0.9185 0.2416 0.0025
H56? H 0.0789 0.5820 0.4415
H57? H 0.1253 0.5689 0.3463
H58? H 0.1725 0.5996 0.4385
H59? H 0.1889 0.5198 0.5906
H60? H 0.1486 0.4472 0.5812
H61? H 0.0934 0.5129 0.5757
H62? H 0.1253 0.3987 0.4074
H63? H 0.0772 0.4538 0.3441
H64? H 0.0496 0.4361 0.4487
H65? H 0.4496 0.2460 0.6986
H66? H 0.5075 0.2203 0.7857
H67? H 0.5340 0.2118 0.6784
H68? H 0.5343 0.3983 0.8060
H69? H 0.5233 0.3325 0.8691
H70? H 0.4525 0.3563 0.7952
H71? H 0.6626 0.2716 0.7071
H72? H 0.6435 0.2752 0.8176
H73? H 0.6657 0.3420 0.7616
C53? C 0.8065(12) 0.7011(13) -0.1544(15)
C54? C 0.8701(10) 0.6778(6) -0.2245(12)
H74? H 0.9158 0.6574 -0.1884
H75? H 0.8888 0.7164 -0.2602
H76? H 0.8458 0.6448 -0.2690
C55? C 0.7382(9) 0.7365(8) -0.2175(12)
H77? H 0.7057 0.7026 -0.2521
H78? H 0.7625 0.7665 -0.2632
H79? H 0.7040 0.7625 -0.1765
C56? C 0.8389(10) 0.7522(8) -0.0799(11)
H80? H 0.7944 0.7690 -0.0435
H81? H 0.8640 0.7897 -0.1123
H82? H 0.8789 0.7306 -0.0363
C57? C 0.8866(10) 0.2870(8) -0.1401(10)
C58? C 0.8594(7) 0.2797(5) -0.2499(6)
H83? H 0.8081 0.2556 -0.2561
H84? H 0.9003 0.2547 -0.2828
H85? H 0.8530 0.3243 -0.2786
C59? C 0.8902(8) 0.2153(4) -0.1026(9)
H86? H 0.9078 0.2157 -0.0348
H87? H 0.9284 0.1894 -0.1385
H88? H 0.8368 0.1949 -0.1102
C60? C 0.9708(5) 0.3188(5) -0.1387(9)
H89? H 0.9673 0.3632 -0.1682
H90? H 1.0066 0.2903 -0.1743
H91? H 0.9922 0.3230 -0.0726
C61? C 0.1521(18) 0.4962(10) 0.4515(14)
C62? C 0.1301(10) 0.5684(8) 0.4161(13)
C63? C 0.1451(8) 0.4938(11) 0.5594(10)
C64? C 0.0959(8) 0.4412(10) 0.4091(14)
C65? C 0.5469(7) 0.3101(7) 0.7278(12)
C66? C 0.5057(7) 0.2407(4) 0.7221(6)
C67? C 0.5109(7) 0.3533(6) 0.8068(8)
C68? C 0.6382(5) 0.2987(6) 0.7562(6)
loop_
_geom_bond_atom_site_label_1
_geom_bond_atom_site_label_2
_geom_bond_site_symmetry_1
_geom_bond_site_symmetry_2
N1 C1 1_555 1_555
N2 C16 1_555 1_555
O1 C19 1_555 1_555
C1 C2 1_555 1_555
C2 H1 1_555 1_555
C3 C2 1_555 1_555
H2 C3 1_555 1_555
C4 C3 1_555 1_555
C5 C4 1_555 1_555
H3 C5 1_555 1_555
C6 C1 1_555 1_555
C7 C6 1_555 1_555
C8 C7 1_555 1_555
H4 C8 1_555 1_555
C9 C8 1_555 1_555
C10 C9 1_555 1_555
H5 C10 1_555 1_555
C11 C10 1_555 1_555
H6 C11 1_555 1_555
C12 N1 1_555 1_555
C13 N1 1_555 1_555
C14 C13 1_555 1_555
H7 C14 1_555 1_555
C15 C14 1_555 1_555
C16 C15 1_555 1_555
C17 C16 1_555 1_555
H8 C17 1_555 1_555
C18 C13 1_555 1_555
H9 C18 1_555 1_555
C19 C15 1_555 1_555
C20 C19 1_555 1_555
C21 C20 1_555 1_555
H10 C21 1_555 1_555
C22 C21 1_555 1_555
H11 C22 1_555 1_555
N3 C22 1_555 1_555
C23 N3 1_555 1_555
H12 C23 1_555 1_555
C24 C20 1_555 1_555
H13 C24 1_555 1_555
C25 N2 1_555 1_555
C26 C25 1_555 1_555
H14 C26 1_555 1_555
C27 C26 1_555 1_555
H15 C27 1_555 1_555
C28 C27 1_555 1_555
C29 C28 1_555 1_555
H16 C29 1_555 1_555
C30 C25 1_555 1_555
C31 C30 1_555 1_555
C32 C31 1_555 1_555
H17 C32 1_555 1_555
C33 C32 1_555 1_555
C34 C33 1_555 1_555
H18 C34 1_555 1_555
C35 C34 1_555 1_555
H19 C35 1_555 1_555
C36 N2 1_555 1_555
C37 C4 1_555 1_555
C38 C37 1_555 1_555
H20 C38 1_555 1_555
H21 C38 1_555 1_555
H22 C38 1_555 1_555
C39 C37 1_555 1_555
H23 C39 1_555 1_555
H24 C39 1_555 1_555
H25 C39 1_555 1_555
C40 C37 1_555 1_555
H26 C40 1_555 1_555
H27 C40 1_555 1_555
H28 C40 1_555 1_555
C41 C9 1_555 1_555
C42 C41 1_555 1_555
H29 C42 1_555 1_555
H30 C42 1_555 1_555
H31 C42 1_555 1_555
C43 C41 1_555 1_555
H32 C43 1_555 1_555
H33 C43 1_555 1_555
H34 C43 1_555 1_555
C44 C41 1_555 1_555
H35 C44 1_555 1_555
H36 C44 1_555 1_555
H37 C44 1_555 1_555
C45 C33 1_555 1_555
C46 C45 1_555 1_555
H38 C46 1_555 1_555
H39 C46 1_555 1_555
H40 C46 1_555 1_555
C47 C45 1_555 1_555
H41 C47 1_555 1_555
H42 C47 1_555 1_555
H43 C47 1_555 1_555
C48 C45 1_555 1_555
H44 C48 1_555 1_555
H45 C48 1_555 1_555
H46 C48 1_555 1_555
C49 C28 1_555 1_555
C50 C49 1_555 1_555
H47 C50 1_555 1_555
H48 C50 1_555 1_555
H49 C50 1_555 1_555
C51 C49 1_555 1_555
H50 C51 1_555 1_555
H51 C51 1_555 1_555
H52 C51 1_555 1_555
C52 C49 1_555 1_555
H53 C52 1_555 1_555
H54 C52 1_555 1_555
H55 C52 1_555 1_555
C5 C6 1_555 1_555
C7 C12 1_555 1_555
C11 C12 1_555 1_555
C17 C18 1_555 1_555
C23 C24 1_555 1_555
C29 C30 1_555 1_555
C31 C36 1_555 1_555
C35 C36 1_555 1_555

#END
