
#######################################################################
#
#                 Cambridge Crystallographic Data Centre
#                                CCDC 
#
#######################################################################
#
# If this CIF has been generated from an entry in the Cambridge 
# Structural Database, then it will include bibliographic, chemical, 
# crystal, experimental, refinement or atomic coordinate data resulting 
# from the CCDC's data processing and validation procedures.
#
#######################################################################

data_KAKCOR
_chemical_formula_moiety         'C20 H24 O3'
_chemical_name_systematic        
9-hydroxy-7-(hydroxymethyl)-2,7,8-trimethyl-4-methylene-1,2,4,5,6,6a,7,7a-octahydro-3H-cyclopropa[3,4]cyclohepta[1,2-e]inden-3-one
_symmetry_cell_setting           orthorhombic
_symmetry_space_group_name_H-M   'P 21 21 21'
_symmetry_Int_Tables_number      19
_space_group_name_Hall           'P 2ac 2ab'
loop_
_symmetry_equiv_pos_site_id
_symmetry_equiv_pos_as_xyz
1 x,y,z
2 1/2-x,-y,1/2+z
3 1/2+x,1/2-y,-z
4 -x,1/2+y,1/2-z
_cell_length_a                   10.3652(4)
_cell_length_b                   13.0480(8)
_cell_length_c                   16.5094(7)
_cell_angle_alpha                90
_cell_angle_beta                 90
_cell_angle_gamma                90
_cell_volume                     2232.82
_cell_formula_units_Z            4
loop_
_atom_site_label
_atom_site_type_symbol
_atom_site_fract_x
_atom_site_fract_y
_atom_site_fract_z
O1 O -1.5425(2) -0.5145(3) 0.23898(16)
O2 O -1.6508(2) -0.6148(2) -0.10251(14)
H1 H -1.6146 -0.6457 -0.1393
O3 O -0.9045(2) -0.5686(2) -0.11149(16)
H2 H -0.8781 -0.5464 -0.0681
C1 C -1.7473(3) -0.5558(3) 0.0650(2)
H3 H -1.8049 -0.6126 0.0536
H4 H -1.7796 -0.4949 0.0380
C2 C -1.7355(3) -0.5379(4) 0.1569(2)
H5 H -1.7762 -0.5960 0.1846
C3 C -1.5912(3) -0.5405(3) 0.1756(2)
C4 C -1.5230(3) -0.5742(3) 0.10173(19)
C5 C -1.3907(3) -0.5946(3) 0.0911(2)
C6 C -1.2993(3) -0.5984(3) 0.16098(19)
C7 C -1.2063(4) -0.5115(3) 0.1697(2)
H6 H -1.1355 -0.5325 0.2044
H7 H -1.2493 -0.4541 0.1954
C8 C -1.1520(3) -0.4773(3) 0.0860(2)
H8 H -1.2181 -0.4406 0.0562
H9 H -1.0795 -0.4314 0.0939
C9 C -1.1097(3) -0.5684(3) 0.0386(2)
H10 H -1.0343 -0.6042 0.0606
C10 C -1.1217(3) -0.5721(3) -0.0530(2)
C11 C -1.2093(3) -0.6374(3) -0.00113(19)
H11 H -1.1861 -0.7102 -0.0006
C12 C -1.3495(3) -0.6178(3) 0.01183(19)
C13 C -1.4383(3) -0.6266(3) -0.05265(19)
C14 C -1.5699(3) -0.6068(3) -0.03861(18)
C15 C -1.6111(3) -0.5799(3) 0.0380(2)
C16 C -1.7991(5) -0.4405(5) 0.1868(3)
H12 H -1.7859 -0.3868 0.1479
H13 H -1.7617 -0.4209 0.2377
H14 H -1.8899 -0.4520 0.1937
C17 C -1.2954(4) -0.6802(4) 0.2088(2)
H15 H -1.3498 -0.7355 0.1988
H16 H -1.2383 -0.6822 0.2522
C18 C -1.0169(3) -0.6294(3) -0.0981(2)
H17 H -0.9932 -0.6899 -0.0674
H18 H -1.0506 -0.6519 -0.1499
C19 C -1.1729(4) -0.4789(3) -0.0972(2)
H19 H -1.1879 -0.4959 -0.1529
H20 H -1.1109 -0.4244 -0.0939
H21 H -1.2524 -0.4573 -0.0726
C20 C -1.3994(4) -0.6615(4) -0.1358(2)
H22 H -1.4270 -0.6118 -0.1750
H23 H -1.4392 -0.7263 -0.1473
H24 H -1.3073 -0.6686 -0.1381
loop_
_geom_bond_atom_site_label_1
_geom_bond_atom_site_label_2
_geom_bond_site_symmetry_1
_geom_bond_site_symmetry_2
O1 C3 1_555 1_555
O2 H1 1_555 1_555
O3 H2 1_555 1_555
C1 H3 1_555 1_555
H4 C1 1_555 1_555
C2 C1 1_555 1_555
H5 C2 1_555 1_555
C3 C2 1_555 1_555
C4 C3 1_555 1_555
C5 C4 1_555 1_555
C6 C5 1_555 1_555
C7 C6 1_555 1_555
H6 C7 1_555 1_555
H7 C7 1_555 1_555
C8 C7 1_555 1_555
H8 C8 1_555 1_555
H9 C8 1_555 1_555
C9 C8 1_555 1_555
H10 C9 1_555 1_555
C10 C9 1_555 1_555
C11 C9 1_555 1_555
H11 C11 1_555 1_555
C12 C5 1_555 1_555
C13 C12 1_555 1_555
C14 O2 1_555 1_555
C15 C1 1_555 1_555
C16 C2 1_555 1_555
H12 C16 1_555 1_555
H13 C16 1_555 1_555
H14 C16 1_555 1_555
C17 C6 1_555 1_555
H15 C17 1_555 1_555
H16 C17 1_555 1_555
C18 O3 1_555 1_555
H17 C18 1_555 1_555
H18 C18 1_555 1_555
C19 C10 1_555 1_555
H19 C19 1_555 1_555
H20 C19 1_555 1_555
H21 C19 1_555 1_555
C20 C13 1_555 1_555
H22 C20 1_555 1_555
H23 C20 1_555 1_555
H24 C20 1_555 1_555
C4 C15 1_555 1_555
C10 C11 1_555 1_555
C10 C18 1_555 1_555
C11 C12 1_555 1_555
C13 C14 1_555 1_555
C14 C15 1_555 1_555

#END
