
#######################################################################
#
#                 Cambridge Crystallographic Data Centre
#                                CCDC 
#
#######################################################################
#
# If this CIF has been generated from an entry in the Cambridge 
# Structural Database, then it will include bibliographic, chemical, 
# crystal, experimental, refinement or atomic coordinate data resulting 
# from the CCDC's data processing and validation procedures.
#
#######################################################################

data_KAKDEF
_chemical_formula_moiety         'C23 H20 N2 O4'
_chemical_name_systematic        
Pyridazinio-(1,2-bis(methoxycarbonyl)-3,3-diphenyl-2-propenide)
_symmetry_cell_setting           triclinic
_symmetry_space_group_name_H-M   'P -1'
_symmetry_Int_Tables_number      2
_space_group_name_Hall           '-P 1'
loop_
_symmetry_equiv_pos_site_id
_symmetry_equiv_pos_as_xyz
1 x,y,z
2 -x,-y,-z
_cell_length_a                   7.128(2)
_cell_length_b                   10.037(2)
_cell_length_c                   15.485(5)
_cell_angle_alpha                72.55(2)
_cell_angle_beta                 83.82(2)
_cell_angle_gamma                70.53(2)
_cell_volume                     996.398
_exptl_crystal_colour            yellow-brown
_chemical_melting_point          152deg.C
_cell_formula_units_Z            2
loop_
_atom_site_label
_atom_site_type_symbol
_atom_site_fract_x
_atom_site_fract_y
_atom_site_fract_z
O1 O 0.1246(3) 1.0362(2) 0.1456(1)
O2 O 0.0038(2) 0.8787(1) 0.2530(1)
O3 O -0.1123(2) 0.6799(2) 0.0951(1)
O4 O 0.0970(2) 0.4512(1) 0.1459(1)
N1 N 0.2647(2) 0.8151(2) 0.0493(1)
N2 N 0.3530(3) 0.6875(2) 0.0251(1)
C1 C 0.2548(3) 0.5662(2) 0.2610(1)
C2 C 0.1662(3) 0.6458(2) 0.1806(1)
C3 C 0.1734(3) 0.7957(2) 0.1339(1)
C4 C 0.1035(3) 0.9150(2) 0.1737(1)
C5 C -0.0500(4) 0.9841(3) 0.3035(2)
C6 C 0.0351(3) 0.5957(2) 0.1359(1)
C7 C -0.0393(4) 0.3924(3) 0.1183(2)
C8 C 0.4530(3) 0.6984(2) -0.0532(2)
C9 C 0.4746(4) 0.8264(3) -0.1106(2)
C10 C 0.3783(4) 0.9529(2) -0.0866(2)
C11 C 0.2717(3) 0.9482(2) -0.0080(1)
C12 C 0.3758(3) 0.6239(2) 0.3051(1)
C13 C 0.3362(3) 0.6278(2) 0.3946(1)
C14 C 0.4430(4) 0.6850(3) 0.4354(2)
C15 C 0.5914(4) 0.7373(3) 0.3882(2)
C16 C 0.6341(3) 0.7319(2) 0.3001(2)
C17 C 0.5270(3) 0.6758(2) 0.2581(1)
C18 C 0.2371(3) 0.4197(2) 0.3160(1)
C19 C 0.0593(3) 0.4005(2) 0.3523(2)
C20 C 0.0534(4) 0.2622(3) 0.4040(2)
C21 C 0.2193(5) 0.1435(2) 0.4190(2)
C22 C 0.3965(4) 0.1610(2) 0.3841(2)
C23 C 0.4073(3) 0.2974(2) 0.3338(2)
H1 H 0.0567 1.0084 0.3100
H2 H -0.1109 0.9427 0.3619
H3 H -0.1393 1.0777 0.2670
H4 H 0.0219 0.2915 0.1144
H5 H -0.0996 0.4585 0.0563
H6 H -0.1425 0.3994 0.1607
H7 H 0.5077 0.5994 -0.0666
H8 H 0.5554 0.8160 -0.1606
H9 H 0.3825 1.0500 -0.1225
H10 H 0.2014 1.0309 0.0141
H11 H 0.2250 0.5904 0.4295
H12 H 0.4093 0.6871 0.4977
H13 H 0.6713 0.7707 0.4187
H14 H 0.7431 0.7671 0.2684
H15 H 0.5596 0.6699 0.1944
H16 H -0.0520 0.4846 0.3399
H17 H -0.0727 0.2524 0.4260
H18 H 0.2122 0.0454 0.4525
H19 H 0.5114 0.0787 0.3945
H20 H 0.5340 0.3100 0.3010
loop_
_geom_bond_atom_site_label_1
_geom_bond_atom_site_label_2
_geom_bond_site_symmetry_1
_geom_bond_site_symmetry_2
O1 C4 1_555 1_555
O2 C4 1_555 1_555
O3 C6 1_555 1_555
O4 C6 1_555 1_555
N1 N2 1_555 1_555
N2 C8 1_555 1_555
C1 C2 1_555 1_555
C2 C3 1_555 1_555
C3 N1 1_555 1_555
C4 C3 1_555 1_555
C5 O2 1_555 1_555
C6 C2 1_555 1_555
C7 O4 1_555 1_555
C8 C9 1_555 1_555
C9 C10 1_555 1_555
C10 C11 1_555 1_555
C11 N1 1_555 1_555
C12 C1 1_555 1_555
C13 C12 1_555 1_555
C14 C13 1_555 1_555
C15 C14 1_555 1_555
C16 C15 1_555 1_555
C17 C12 1_555 1_555
C18 C1 1_555 1_555
C19 C18 1_555 1_555
C20 C19 1_555 1_555
C21 C20 1_555 1_555
C22 C21 1_555 1_555
C23 C18 1_555 1_555
H1 C5 1_555 1_555
H2 C5 1_555 1_555
H3 C5 1_555 1_555
H4 C7 1_555 1_555
H5 C7 1_555 1_555
H6 C7 1_555 1_555
H7 C8 1_555 1_555
H8 C9 1_555 1_555
H9 C10 1_555 1_555
H10 C11 1_555 1_555
H11 C13 1_555 1_555
H12 C14 1_555 1_555
H13 C15 1_555 1_555
H14 C16 1_555 1_555
H15 C17 1_555 1_555
H16 C19 1_555 1_555
H17 C20 1_555 1_555
H18 C21 1_555 1_555
H19 C22 1_555 1_555
H20 C23 1_555 1_555
C16 C17 1_555 1_555
C22 C23 1_555 1_555

#END
