
#######################################################################
#
#                 Cambridge Crystallographic Data Centre
#                                CCDC 
#
#######################################################################
#
# If this CIF has been generated from an entry in the Cambridge 
# Structural Database, then it will include bibliographic, chemical, 
# crystal, experimental, refinement or atomic coordinate data resulting 
# from the CCDC's data processing and validation procedures.
#
#######################################################################

data_KAKDIM
_chemical_formula_moiety         'C22 H32 O5'
_chemical_name_systematic        
'2-(4-Hydroxy-1,2,4a,5-tetramethyl-1,2,3,4,4a,7,8,8a-octahydronaphthalen-1-yl)-1-(5-oxo-2,5-dihydrofuran-3-yl)ethyl acetate'
_symmetry_cell_setting           orthorhombic
_symmetry_space_group_name_H-M   'P 21 21 21'
_symmetry_Int_Tables_number      19
_space_group_name_Hall           'P 2ac 2ab'
loop_
_symmetry_equiv_pos_site_id
_symmetry_equiv_pos_as_xyz
1 x,y,z
2 1/2-x,-y,1/2+z
3 1/2+x,1/2-y,-z
4 -x,1/2+y,1/2-z
_cell_length_a                   10.4315(2)
_cell_length_b                   13.7830(2)
_cell_length_c                   14.4293(2)
_cell_angle_alpha                90
_cell_angle_beta                 90
_cell_angle_gamma                90
_cell_volume                     2074.61
_exptl_crystal_colour            colorless
_exptl_crystal_description       prism
_chemical_melting_point          '162-163 deg.C'
_cell_formula_units_Z            4
loop_
_atom_site_label
_atom_site_type_symbol
_atom_site_fract_x
_atom_site_fract_y
_atom_site_fract_z
C1 C -0.2999(5) 0.2246(3) 0.1621(3)
C2 C -0.2818(4) 0.1653(2) 0.2439(2)
H1 H -0.3474 0.1403 0.2804
C3 C -0.1571(3) 0.1519(2) 0.2591(2)
C4 C -0.0854(4) 0.2036(3) 0.1837(3)
H2 H -0.0297 0.2531 0.2094
H3 H -0.0340 0.1584 0.1480
C5 C -0.0905(3) 0.0981(2) 0.3348(2)
H4 H -0.0246 0.0556 0.3085
C6 C -0.1938(4) -0.0536(3) 0.3626(3)
C7 C -0.2920(4) -0.1028(3) 0.4177(4)
H5 H -0.3364 -0.1490 0.3795
H6 H -0.3519 -0.0559 0.4410
H7 H -0.2521 -0.1359 0.4686
C8 C -0.0290(3) 0.1693(2) 0.4041(2)
H8 H -0.0929 0.1849 0.4506
H9 H -0.0102 0.2289 0.3710
C9 C 0.0950(3) 0.1378(2) 0.4556(2)
C10 C 0.1265(4) 0.2223(2) 0.5221(2)
H10 H 0.2085 0.2111 0.5504
H11 H 0.0618 0.2262 0.5692
H12 H 0.1290 0.2820 0.4879
C11 C 0.0697(3) 0.0389(2) 0.5072(2)
H13 H 0.0362 -0.0049 0.4595
C12 C 0.1906(3) -0.0135(2) 0.5467(2)
C13 C 0.2870(3) -0.0215(2) 0.4677(2)
H14 H 0.2454 -0.0589 0.4184
C14 C 0.3217(3) 0.0755(3) 0.4267(3)
H15 H 0.3871 0.0666 0.3797
H16 H 0.3568 0.1169 0.4748
C15 C 0.2052(3) 0.1245(2) 0.3837(2)
H17 H 0.1728 0.0801 0.3360
C16 C 0.2460(4) 0.2163(3) 0.3339(3)
H18 H 0.2878 0.2590 0.3769
H19 H 0.1719 0.2479 0.3086
H20 H 0.3042 0.2001 0.2848
C17 C 0.1536(4) -0.1184(2) 0.5753(3)
H21 H 0.2287 -0.1523 0.5960
H22 H 0.1175 -0.1516 0.5230
H23 H 0.0918 -0.1161 0.6245
C18 C -0.0343(4) 0.0423(3) 0.5820(2)
H24 H -0.1013 0.0860 0.5612
H25 H -0.0720 -0.0218 0.5869
C19 C 0.0079(5) 0.0742(4) 0.6788(3)
H26 H -0.0225 0.1398 0.6897
H27 H -0.0325 0.0324 0.7243
C20 C 0.1493(4) 0.0719(3) 0.6936(3)
H28 H 0.1791 0.0965 0.7496
C21 C 0.2371(4) 0.0383(2) 0.6352(2)
C22 C 0.3773(4) 0.0422(3) 0.6595(3)
H29 H 0.3880 0.0752 0.7176
H30 H 0.4230 0.0765 0.6120
H31 H 0.4104 -0.0226 0.6645
O1 O -0.3961(3) 0.2550(2) 0.1260(2)
O2 O -0.1829(3) 0.2464(2) 0.12697(17)
O3 O -0.1836(2) 0.04125(15) 0.38424(14)
O4 O -0.1265(4) -0.0897(2) 0.3068(3)
O5 O 0.4007(3) -0.0742(2) 0.4937(2)
H32 H 0.4091 -0.1215 0.4597
loop_
_geom_bond_atom_site_label_1
_geom_bond_atom_site_label_2
_geom_bond_site_symmetry_1
_geom_bond_site_symmetry_2
C1 C2 1_555 1_555
C2 H1 1_555 1_555
C3 C2 1_555 1_555
C4 C3 1_555 1_555
H2 C4 1_555 1_555
H3 C4 1_555 1_555
C5 C3 1_555 1_555
H4 C5 1_555 1_555
C6 C7 1_555 1_555
C7 H5 1_555 1_555
H6 C7 1_555 1_555
H7 C7 1_555 1_555
C8 C5 1_555 1_555
H8 C8 1_555 1_555
H9 C8 1_555 1_555
C9 C8 1_555 1_555
C10 C9 1_555 1_555
H10 C10 1_555 1_555
H11 C10 1_555 1_555
H12 C10 1_555 1_555
C11 C9 1_555 1_555
H13 C11 1_555 1_555
C12 C11 1_555 1_555
C13 C12 1_555 1_555
H14 C13 1_555 1_555
C14 C13 1_555 1_555
H15 C14 1_555 1_555
H16 C14 1_555 1_555
C15 C9 1_555 1_555
H17 C15 1_555 1_555
C16 C15 1_555 1_555
H18 C16 1_555 1_555
H19 C16 1_555 1_555
H20 C16 1_555 1_555
C17 C12 1_555 1_555
H21 C17 1_555 1_555
H22 C17 1_555 1_555
H23 C17 1_555 1_555
C18 C11 1_555 1_555
H24 C18 1_555 1_555
H25 C18 1_555 1_555
C19 C18 1_555 1_555
H26 C19 1_555 1_555
H27 C19 1_555 1_555
C20 C19 1_555 1_555
H28 C20 1_555 1_555
C21 C12 1_555 1_555
C22 C21 1_555 1_555
H29 C22 1_555 1_555
H30 C22 1_555 1_555
H31 C22 1_555 1_555
O1 C1 1_555 1_555
O2 C1 1_555 1_555
O3 C5 1_555 1_555
O4 C6 1_555 1_555
O5 C13 1_555 1_555
H32 O5 1_555 1_555
C4 O2 1_555 1_555
C6 O3 1_555 1_555
C14 C15 1_555 1_555
C20 C21 1_555 1_555

#END
