
#######################################################################
#
#                 Cambridge Crystallographic Data Centre
#                                CCDC 
#
#######################################################################
#
# If this CIF has been generated from an entry in the Cambridge 
# Structural Database, then it will include bibliographic, chemical, 
# crystal, experimental, refinement or atomic coordinate data resulting 
# from the CCDC's data processing and validation procedures.
#
#######################################################################

data_KAKFOU
_chemical_formula_moiety         'C17 H20 O6'
_chemical_name_systematic        'Horriperfin A'
_symmetry_cell_setting           monoclinic
_symmetry_space_group_name_H-M   'C 2/c'
_symmetry_Int_Tables_number      15
_space_group_name_Hall           '-C 2yn'
loop_
_symmetry_equiv_pos_site_id
_symmetry_equiv_pos_as_xyz
1 x,y,z
2 -x,y,1/2-z
3 1/2+x,1/2+y,z
4 1/2-x,1/2+y,1/2-z
5 -x,-y,-z
6 x,-y,1/2+z
7 1/2-x,1/2-y,-z
8 1/2+x,1/2-y,1/2+z
_cell_length_a                   9.4767(6)
_cell_length_b                   16.1607(8)
_cell_length_c                   20.6748(9)
_cell_angle_alpha                90
_cell_angle_beta                 98.347(5)
_cell_angle_gamma                90
_cell_volume                     3132.81
_exptl_crystal_colour            colorless
_exptl_crystal_description       block
_cell_formula_units_Z            8
loop_
_atom_site_label
_atom_site_type_symbol
_atom_site_fract_x
_atom_site_fract_y
_atom_site_fract_z
O1 O 0.39569(15) 0.34382(8) 0.03815(6)
O2 O 0.37996(17) 0.41205(9) -0.15247(6)
O3 O 0.29149(17) 0.56168(9) -0.11772(6)
O4 O 0.22792(16) 0.60244(9) 0.10248(6)
O5 O 0.28960(18) 0.46998(9) 0.24894(7)
H1 H 0.3163 0.5017 0.2792
O6 O 0.23868(17) 0.36969(9) 0.14497(7)
C1 C 0.4250(2) 0.28936(13) -0.00818(10)
C2 C 0.4217(2) 0.31210(13) -0.07056(10)
H2 H 0.4456 0.2731 -0.1002
C3 C 0.3828(2) 0.39420(13) -0.09408(9)
C4 C 0.3448(2) 0.45100(13) -0.04383(9)
C5 C 0.2983(2) 0.53422(12) -0.05542(9)
C6 C 0.2618(2) 0.58236(13) -0.00568(9)
H3 H 0.2322 0.6367 -0.0140
C7 C 0.2693(2) 0.54983(12) 0.05741(9)
C8 C 0.3168(2) 0.47048(13) 0.07267(9)
C9 C 0.3529(2) 0.42300(13) 0.02059(9)
C10 C 0.4562(2) 0.20579(13) 0.01988(11)
H4 H 0.4602 0.1668 -0.0148
H5 H 0.3825 0.1899 0.0447
H6 H 0.5463 0.2066 0.0479
C11 C 0.2327(3) 0.64213(14) -0.13277(11)
H7 H 0.1391 0.6451 -0.1203
H8 H 0.2267 0.6521 -0.1789
H9 H 0.2929 0.6832 -0.1092
C12 C 0.3023(3) 0.30325(15) 0.18383(11)
H10 H 0.3746 0.2779 0.1624
H11 H 0.2307 0.2630 0.1896
H12 H 0.3445 0.3240 0.2257
C13 C 0.3351(2) 0.43715(12) 0.14149(9)
H13 H 0.4328 0.4164 0.1525
C14 C 0.3126(2) 0.50664(13) 0.18929(9)
H14 H 0.4004 0.5395 0.1974
C15 C 0.1891(2) 0.56480(13) 0.16231(9)
C16 C 0.1816(3) 0.63818(14) 0.20709(11)
H15 H 0.2719 0.6662 0.2135
H16 H 0.1593 0.6194 0.2485
H17 H 0.1087 0.6756 0.1877
C17 C 0.0461(2) 0.52204(16) 0.14623(11)
H18 H -0.0264 0.5625 0.1326
H19 H 0.0239 0.4937 0.1843
H20 H 0.0501 0.4829 0.1116
loop_
_geom_bond_atom_site_label_1
_geom_bond_atom_site_label_2
_geom_bond_site_symmetry_1
_geom_bond_site_symmetry_2
O1 C1 1_555 1_555
O2 C3 1_555 1_555
O3 C5 1_555 1_555
O4 C7 1_555 1_555
O5 H1 1_555 1_555
O6 C12 1_555 1_555
C1 C2 1_555 1_555
C2 H2 1_555 1_555
C3 C2 1_555 1_555
C4 C3 1_555 1_555
C5 C4 1_555 1_555
C6 C5 1_555 1_555
H3 C6 1_555 1_555
C7 C6 1_555 1_555
C8 C7 1_555 1_555
C9 O1 1_555 1_555
C10 C1 1_555 1_555
H4 C10 1_555 1_555
H5 C10 1_555 1_555
H6 C10 1_555 1_555
C11 O3 1_555 1_555
H7 C11 1_555 1_555
H8 C11 1_555 1_555
H9 C11 1_555 1_555
C12 H10 1_555 1_555
H11 C12 1_555 1_555
H12 C12 1_555 1_555
C13 O6 1_555 1_555
H13 C13 1_555 1_555
C14 O5 1_555 1_555
H14 C14 1_555 1_555
C15 O4 1_555 1_555
C16 C15 1_555 1_555
H15 C16 1_555 1_555
H16 C16 1_555 1_555
H17 C16 1_555 1_555
C17 C15 1_555 1_555
H18 C17 1_555 1_555
H19 C17 1_555 1_555
H20 C17 1_555 1_555
C4 C9 1_555 1_555
C8 C9 1_555 1_555
C8 C13 1_555 1_555
C13 C14 1_555 1_555
C14 C15 1_555 1_555

#END
