
#######################################################################
#
#                 Cambridge Crystallographic Data Centre
#                                CCDC 
#
#######################################################################
#
# If this CIF has been generated from an entry in the Cambridge 
# Structural Database, then it will include bibliographic, chemical, 
# crystal, experimental, refinement or atomic coordinate data resulting 
# from the CCDC's data processing and validation procedures.
#
#######################################################################

data_KAKHUC
_chemical_formula_moiety         'C38 H22 F1 N1,H2 O1'
_chemical_name_systematic        
'N-(4-Fluorophenyl)-N-(pyren-1-yl)pyren-1-amine monohydrate'
_symmetry_cell_setting           monoclinic
_symmetry_space_group_name_H-M   'P 21/c'
_symmetry_Int_Tables_number      14
_space_group_name_Hall           '-P 2ybc'
loop_
_symmetry_equiv_pos_site_id
_symmetry_equiv_pos_as_xyz
1 x,y,z
2 -x,1/2+y,1/2-z
3 -x,-y,-z
4 x,1/2-y,1/2+z
_cell_length_a                   11.218(3)
_cell_length_b                   19.743(5)
_cell_length_c                   13.558(4)
_cell_angle_alpha                90
_cell_angle_beta                 113.822(9)
_cell_angle_gamma                90
_cell_volume                     2746.96
_exptl_crystal_colour            yellow
_exptl_crystal_description       Strip
_cell_formula_units_Z            4
loop_
_atom_site_label
_atom_site_type_symbol
_atom_site_fract_x
_atom_site_fract_y
_atom_site_fract_z
N1 N 0.3017(3) 0.72369(15) 0.6324(2)
C1 C 0.4038(3) 0.73921(18) 0.5971(3)
C2 C 0.4393(3) 0.69140(17) 0.5375(3)
C3 C 0.3769(3) 0.62650(18) 0.5059(3)
H1 H 0.3096 0.6148 0.5261
C4 C 0.4135(4) 0.5825(2) 0.4480(3)
H2 H 0.374(4) 0.545(2) 0.437(3)
C5 C 0.5175(4) 0.59604(18) 0.4154(3)
C6 C 0.5594(4) 0.5501(2) 0.3576(3)
H3 H 0.5183 0.5083 0.3382
C7 C 0.6603(5) 0.5659(2) 0.3290(4)
H4 H 0.6862 0.5347 0.2902
C8 C 0.7240(4) 0.6274(2) 0.3571(4)
H5 H 0.7926 0.6371 0.3374
C9 C 0.6859(4) 0.6754(2) 0.4153(3)
C10 C 0.7494(4) 0.7388(2) 0.4461(4)
H6 H 0.8191 0.7492 0.4280
C11 C 0.7110(4) 0.7839(2) 0.5003(3)
H7 H 0.7536 0.8254 0.5179
C12 C 0.6071(4) 0.77064(18) 0.5324(3)
C13 C 0.5643(4) 0.8171(2) 0.5889(3)
H8 H 0.6032 0.8596 0.6051
C14 C 0.4658(4) 0.80126(19) 0.6211(3)
H9 H 0.4406 0.8330 0.6597
C15 C 0.5423(3) 0.70729(17) 0.5050(3)
C16 C 0.5814(3) 0.65982(18) 0.4442(3)
C17 C 0.2122(4) 0.77708(17) 0.6249(3)
C18 C 0.2207(4) 0.8118(2) 0.7165(3)
H10 H 0.2841 0.7996 0.7833
C19 C 0.1362(4) 0.86424(19) 0.7096(3)
H11 H 0.1419 0.8859 0.7723
C20 C 0.0430(3) 0.88512(18) 0.6109(3)
C21 C -0.0461(4) 0.9403(2) 0.5993(3)
H12 H -0.0432 0.9626 0.6607
C22 C -0.1321(4) 0.9601(2) 0.5032(3)
H13 H -0.1860 0.9968 0.4989
C23 C -0.1443(4) 0.92642(18) 0.4056(3)
C24 C -0.2335(4) 0.9463(2) 0.3036(4)
H14 H -0.2864 0.9838 0.2973
C25 C -0.2445(4) 0.9118(2) 0.2127(4)
H15 H -0.3056 0.9258 0.1459
C26 C -0.1667(4) 0.8567(2) 0.2186(3)
H16 H -0.1760 0.8335 0.1562
C27 C -0.0729(3) 0.83538(18) 0.3191(3)
C28 C 0.0093(4) 0.77831(19) 0.3289(3)
H17 H 0.0008 0.7541 0.2676
C29 C 0.0991(4) 0.75912(19) 0.4257(3)
H18 H 0.1503 0.7213 0.4297
C30 C 0.1182(3) 0.79526(17) 0.5231(3)
C31 C 0.0346(3) 0.85070(17) 0.5163(3)
C32 C -0.0611(3) 0.87114(17) 0.4131(3)
C33 C 0.3222(4) 0.67259(18) 0.7115(3)
C34 C 0.2162(4) 0.6480(2) 0.7285(3)
H19 H 0.1335 0.6649 0.6875
C35 C 0.2310(5) 0.5991(2) 0.8045(4)
H20 H 0.1597 0.5836 0.8165
C36 C 0.3520(5) 0.5738(2) 0.8616(4)
C37 C 0.4590(4) 0.5951(2) 0.8465(3)
H21 H 0.5405 0.5762 0.8859
C38 C 0.4435(4) 0.64551(19) 0.7708(3)
H22 H 0.5155 0.6611 0.7601
F1 F 0.3667(3) 0.52452(17) 0.9366(3)
O1 O 0.0491(3) 0.9738(2) 0.9243(3)
H23 H 0.0460 0.9400 0.9621
H24 H 0.0633 1.0161 0.9226
loop_
_geom_bond_atom_site_label_1
_geom_bond_atom_site_label_2
_geom_bond_site_symmetry_1
_geom_bond_site_symmetry_2
N1 C1 1_555 1_555
C1 C2 1_555 1_555
C2 C3 1_555 1_555
C3 H1 1_555 1_555
C4 C3 1_555 1_555
H2 C4 1_555 1_555
C5 C4 1_555 1_555
C6 C5 1_555 1_555
H3 C6 1_555 1_555
C7 C6 1_555 1_555
H4 C7 1_555 1_555
C8 C7 1_555 1_555
H5 C8 1_555 1_555
C9 C8 1_555 1_555
C10 C9 1_555 1_555
H6 C10 1_555 1_555
C11 C10 1_555 1_555
H7 C11 1_555 1_555
C12 C11 1_555 1_555
C13 C12 1_555 1_555
H8 C13 1_555 1_555
C14 C1 1_555 1_555
H9 C14 1_555 1_555
C15 C2 1_555 1_555
C16 C5 1_555 1_555
C17 N1 1_555 1_555
C18 C17 1_555 1_555
H10 C18 1_555 1_555
C19 C18 1_555 1_555
H11 C19 1_555 1_555
C20 C19 1_555 1_555
C21 C20 1_555 1_555
H12 C21 1_555 1_555
C22 C21 1_555 1_555
H13 C22 1_555 1_555
C23 C22 1_555 1_555
C24 C23 1_555 1_555
H14 C24 1_555 1_555
C25 C24 1_555 1_555
H15 C25 1_555 1_555
C26 C25 1_555 1_555
H16 C26 1_555 1_555
C27 C26 1_555 1_555
C28 C27 1_555 1_555
H17 C28 1_555 1_555
C29 C28 1_555 1_555
H18 C29 1_555 1_555
C30 C17 1_555 1_555
C31 C20 1_555 1_555
C32 C23 1_555 1_555
C33 N1 1_555 1_555
C34 C33 1_555 1_555
H19 C34 1_555 1_555
C35 C34 1_555 1_555
H20 C35 1_555 1_555
C36 C35 1_555 1_555
C37 C36 1_555 1_555
H21 C37 1_555 1_555
C38 C33 1_555 1_555
H22 C38 1_555 1_555
F1 C36 1_555 1_555
O1 H23 1_555 1_555
H24 O1 1_555 1_555
C9 C16 1_555 1_555
C12 C15 1_555 1_555
C13 C14 1_555 1_555
C15 C16 1_555 1_555
C27 C32 1_555 1_555
C29 C30 1_555 1_555
C30 C31 1_555 1_555
C31 C32 1_555 1_555
C37 C38 1_555 1_555

#END
