
#######################################################################
#
#                 Cambridge Crystallographic Data Centre
#                                CCDC 
#
#######################################################################
#
# If this CIF has been generated from an entry in the Cambridge 
# Structural Database, then it will include bibliographic, chemical, 
# crystal, experimental, refinement or atomic coordinate data resulting 
# from the CCDC's data processing and validation procedures.
#
#######################################################################

data_KAKHIQ
_chemical_formula_moiety         'C39 H25 N1'
_chemical_name_systematic        
N-(4-Methylphenyl)-N-(pyren-1-yl)pyren-1-amine
_symmetry_cell_setting           triclinic
_symmetry_space_group_name_H-M   'P -1'
_symmetry_Int_Tables_number      2
_space_group_name_Hall           '-P 1'
loop_
_symmetry_equiv_pos_site_id
_symmetry_equiv_pos_as_xyz
1 x,y,z
2 -x,-y,-z
_cell_length_a                   10.979(2)
_cell_length_b                   11.264(2)
_cell_length_c                   12.763(3)
_cell_angle_alpha                115.84(3)
_cell_angle_beta                 110.99(3)
_cell_angle_gamma                90.42(3)
_cell_volume                     1300.96
_exptl_crystal_colour            yellow
_exptl_crystal_description       Strip
_cell_formula_units_Z            2
loop_
_atom_site_label
_atom_site_type_symbol
_atom_site_fract_x
_atom_site_fract_y
_atom_site_fract_z
N1 N -0.06435(11) 0.42127(11) 0.18071(11)
C1 C -0.02427(14) 0.55164(14) 0.19782(13)
C2 C -0.08029(13) 0.66118(14) 0.25649(13)
C3 C -0.17593(14) 0.65204(14) 0.30678(13)
H1 H -0.2032 0.5703 0.3012
C4 C -0.22726(14) 0.75915(14) 0.36197(14)
H2 H -0.2894 0.7490 0.3929
C5 C -0.18881(13) 0.88761(14) 0.37426(13)
C6 C -0.23975(14) 1.00024(14) 0.43189(13)
H3 H -0.3028 0.9924 0.4627
C7 C -0.19764(14) 1.12313(15) 0.44368(14)
H4 H -0.2322 1.1971 0.4827
C8 C -0.10480(14) 1.13711(14) 0.39808(14)
H5 H -0.0782 1.2203 0.4061
C9 C -0.05025(14) 1.02809(14) 0.34000(13)
C10 C 0.05019(15) 1.04066(15) 0.29607(14)
H6 H 0.0773 1.1228 0.3024
C11 C 0.10539(14) 0.93635(15) 0.24623(13)
H7 H 0.1723 0.9485 0.2213
C12 C 0.06431(14) 0.80621(14) 0.23021(13)
C13 C 0.11991(14) 0.69617(14) 0.17788(13)
H8 H 0.1884 0.7070 0.1543
C14 C 0.07558(14) 0.57169(15) 0.16039(13)
H9 H 0.1129 0.4995 0.1229
C15 C -0.09261(13) 0.90126(14) 0.32769(13)
C16 C -0.03716(13) 0.78849(14) 0.26988(13)
C17 C 0.03834(14) 0.34455(14) 0.19642(14)
C18 C 0.03923(15) 0.23037(14) 0.09273(14)
H10 H -0.0310 0.1999 0.0138
C19 C 0.14234(15) 0.16148(14) 0.10469(14)
H11 H 0.1403 0.0851 0.0339
C20 C 0.24976(14) 0.20442(14) 0.22142(14)
C21 C 0.35839(15) 0.13494(15) 0.23802(15)
H12 H 0.3610 0.0612 0.1677
C22 C 0.45661(15) 0.17422(16) 0.35317(15)
H13 H 0.5250 0.1262 0.3607
C23 C 0.45869(14) 0.28814(15) 0.46462(14)
C24 C 0.55872(15) 0.33052(17) 0.58594(15)
H14 H 0.6271 0.2829 0.5962
C25 C 0.55769(16) 0.44170(17) 0.69049(16)
H15 H 0.6254 0.4683 0.7701
C26 C 0.45679(15) 0.51414(15) 0.67811(15)
H16 H 0.4577 0.5893 0.7493
C27 C 0.35388(14) 0.47525(14) 0.55979(14)
C28 C 0.24407(15) 0.54370(14) 0.54364(14)
H17 H 0.2426 0.6183 0.6140
C29 C 0.14311(15) 0.50271(14) 0.42922(14)
H18 H 0.0729 0.5485 0.4228
C30 C 0.14177(14) 0.38983(13) 0.31709(13)
C31 C 0.24890(14) 0.31953(14) 0.32945(13)
C32 C 0.35452(14) 0.36144(14) 0.45122(14)
C33 C -0.19960(14) 0.35417(14) 0.11239(13)
C34 C -0.29385(14) 0.39522(15) 0.03496(13)
H19 H -0.2674 0.4641 0.0215
C35 C -0.42684(15) 0.33441(15) -0.02231(14)
H20 H -0.4882 0.3640 -0.0732
C36 C -0.47110(15) 0.23071(15) -0.00593(14)
C37 C -0.37528(15) 0.18759(15) 0.06843(14)
H21 H -0.4015 0.1165 0.0793
C38 C -0.24205(15) 0.24738(14) 0.12669(14)
H22 H -0.1805 0.2161 0.1757
C39 C -0.61671(16) 0.16972(18) -0.06342(16)
H23 H -0.6369 0.0885 -0.1414
H24 H -0.6689 0.2323 -0.0804
H25 H -0.6371 0.1495 -0.0051
loop_
_geom_bond_atom_site_label_1
_geom_bond_atom_site_label_2
_geom_bond_site_symmetry_1
_geom_bond_site_symmetry_2
N1 C1 1_555 1_555
C1 C2 1_555 1_555
C2 C3 1_555 1_555
C3 H1 1_555 1_555
C4 C3 1_555 1_555
H2 C4 1_555 1_555
C5 C4 1_555 1_555
C6 C5 1_555 1_555
H3 C6 1_555 1_555
C7 C6 1_555 1_555
H4 C7 1_555 1_555
C8 C7 1_555 1_555
H5 C8 1_555 1_555
C9 C8 1_555 1_555
C10 C9 1_555 1_555
H6 C10 1_555 1_555
C11 C10 1_555 1_555
H7 C11 1_555 1_555
C12 C11 1_555 1_555
C13 C12 1_555 1_555
H8 C13 1_555 1_555
C14 C1 1_555 1_555
H9 C14 1_555 1_555
C15 C5 1_555 1_555
C16 C2 1_555 1_555
C17 N1 1_555 1_555
C18 C17 1_555 1_555
H10 C18 1_555 1_555
C19 C18 1_555 1_555
H11 C19 1_555 1_555
C20 C19 1_555 1_555
C21 C20 1_555 1_555
H12 C21 1_555 1_555
C22 C21 1_555 1_555
H13 C22 1_555 1_555
C23 C22 1_555 1_555
C24 C23 1_555 1_555
H14 C24 1_555 1_555
C25 C24 1_555 1_555
H15 C25 1_555 1_555
C26 C25 1_555 1_555
H16 C26 1_555 1_555
C27 C26 1_555 1_555
C28 C27 1_555 1_555
H17 C28 1_555 1_555
C29 C28 1_555 1_555
H18 C29 1_555 1_555
C30 C17 1_555 1_555
C31 C20 1_555 1_555
C32 C23 1_555 1_555
C33 N1 1_555 1_555
C34 C33 1_555 1_555
H19 C34 1_555 1_555
C35 C34 1_555 1_555
H20 C35 1_555 1_555
C36 C35 1_555 1_555
C37 C36 1_555 1_555
H21 C37 1_555 1_555
C38 C33 1_555 1_555
H22 C38 1_555 1_555
C39 C36 1_555 1_555
H23 C39 1_555 1_555
H24 C39 1_555 1_555
H25 C39 1_555 1_555
C9 C15 1_555 1_555
C12 C16 1_555 1_555
C13 C14 1_555 1_555
C15 C16 1_555 1_555
C27 C32 1_555 1_555
C29 C30 1_555 1_555
C30 C31 1_555 1_555
C31 C32 1_555 1_555
C37 C38 1_555 1_555

#END
