
#######################################################################
#
#                 Cambridge Crystallographic Data Centre
#                                CCDC 
#
#######################################################################
#
# If this CIF has been generated from an entry in the Cambridge 
# Structural Database, then it will include bibliographic, chemical, 
# crystal, experimental, refinement or atomic coordinate data resulting 
# from the CCDC's data processing and validation procedures.
#
#######################################################################

data_KAKKOX
_chemical_formula_moiety         'C23 H25 N3 O6,C2 H3 N1,H2 O1'
_chemical_name_systematic        
'(5R,15R)-5,15-Diethyl-3,17-dioxa-6,14,23-triazatricyclo(17.3.1.1^8,12^)tetracosa-1(22),8,10,12(24),19(23),20-hexaene-2,7,13,18-tetraone acetonitrile solvate monohydrate'
_symmetry_cell_setting           orthorhombic
_symmetry_space_group_name_H-M   'P 21 21 21'
_symmetry_Int_Tables_number      19
_space_group_name_Hall           'P 2ac 2ab'
loop_
_symmetry_equiv_pos_site_id
_symmetry_equiv_pos_as_xyz
1 x,y,z
2 1/2-x,-y,1/2+z
3 -x,1/2+y,1/2-z
4 1/2+x,1/2-y,-z
_cell_length_a                   11.5847(9)
_cell_length_b                   15.1972(12)
_cell_length_c                   28.369(2)
_cell_angle_alpha                90
_cell_angle_beta                 90
_cell_angle_gamma                90
_cell_volume                     4994.5
_exptl_crystal_colour            colorless
_exptl_crystal_description       'trigonal prismatic'
_cell_formula_units_Z            8
loop_
_atom_site_label
_atom_site_type_symbol
_atom_site_fract_x
_atom_site_fract_y
_atom_site_fract_z
C1 C 0.4319(2) 0.83763(16) 0.84075(8)
C2 C 0.3786(2) 0.90745(19) 0.81804(10)
H1 H 0.2967 0.9104 0.8165
C3 C 0.4454(3) 0.97301(19) 0.79755(11)
H2 H 0.4088 1.0210 0.7821
C4 C 0.5643(2) 0.96929(18) 0.79938(10)
H3 H 0.6091 1.0148 0.7855
C5 C 0.6184(2) 0.89880(17) 0.82153(9)
C6 C 0.5523(2) 0.83431(17) 0.84268(8)
H4 H 0.5891 0.7872 0.8587
C7 C 0.7483(2) 0.89416(17) 0.82121(9)
C8 C 0.9181(2) 0.79739(17) 0.82660(9)
H5 H 0.9576 0.8553 0.8221
C9 C 0.9468(2) 0.73993(18) 0.78368(9)
H6 H 0.9200 0.6791 0.7896
H7 H 0.9047 0.7626 0.7559
C10 C 1.0755(3) 0.7384(2) 0.77287(11)
H8 H 1.1179 0.7185 0.8008
H9 H 1.1011 0.7977 0.7642
H10 H 1.0902 0.6980 0.7466
C11 C 0.9594(2) 0.75942(17) 0.87282(9)
H11 H 1.0427 0.7452 0.8707
H12 H 0.9486 0.8031 0.8984
C12 C 0.9484(2) 0.61914(17) 0.90930(9)
C13 C 0.8722(2) 0.54505(18) 0.92471(8)
C14 C 0.9249(2) 0.47069(18) 0.94316(9)
H13 H 1.0066 0.4670 0.9449
C15 C 0.8569(2) 0.40199(19) 0.95893(9)
H14 H 0.8912 0.3501 0.9713
C16 C 0.7391(2) 0.41000(19) 0.95644(9)
H15 H 0.6901 0.3637 0.9668
C17 C 0.6926(2) 0.48827(17) 0.93816(9)
C18 C 0.5632(2) 0.49584(17) 0.93893(9)
C19 C 0.4023(2) 0.59393(19) 0.93802(9)
H16 H 0.3891 0.6439 0.9598
H17 H 0.3650 0.5411 0.9516
C20 C 0.3489(2) 0.61433(17) 0.89050(10)
H18 H 0.2667 0.6317 0.8959
C21 C 0.3493(2) 0.53544(19) 0.85726(9)
H19 H 0.4300 0.5168 0.8517
H20 H 0.3082 0.4859 0.8725
C22 C 0.2924(3) 0.5555(2) 0.81012(11)
H21 H 0.3349 0.6027 0.7942
H22 H 0.2124 0.5742 0.8154
H23 H 0.2931 0.5026 0.7904
C23 C 0.3572(2) 0.76759(17) 0.86254(9)
N1 N 0.79369(18) 0.81411(14) 0.82820(8)
H24 H 0.7469 0.7698 0.8340
N2 N 0.75690(18) 0.55467(14) 0.92233(7)
N3 N 0.40802(18) 0.68925(14) 0.86920(8)
H25 H 0.4803 0.6827 0.8603
O1 O 0.80734(16) 0.95998(12) 0.81394(7)
O2 O 0.89379(15) 0.67984(12) 0.88336(6)
O3 O 1.04948(17) 0.62167(13) 0.91973(7)
O4 O 0.50127(17) 0.43353(12) 0.94585(7)
O5 O 0.52655(15) 0.57838(12) 0.93317(6)
O6 O 0.25606(16) 0.78268(13) 0.87269(7)
C24 C 0.8114(2) 0.40007(17) 0.82567(9)
C25 C 0.8654(2) 0.47293(18) 0.80643(9)
H26 H 0.8204 0.5197 0.7940
C26 C 0.9850(3) 0.47782(19) 0.80531(11)
H27 H 1.0219 0.5274 0.7916
C27 C 1.0502(2) 0.41042(18) 0.82414(10)
H28 H 1.1321 0.4142 0.8236
C28 C 0.9975(2) 0.33732(17) 0.84378(9)
C29 C 0.8779(2) 0.33342(17) 0.84527(9)
H29 H 0.8412 0.2846 0.8599
C30 C 1.0724(2) 0.26623(17) 0.86401(9)
C31 C 1.0794(2) 0.11176(18) 0.89035(10)
H30 H 1.1626 0.1273 0.8949
C32 C 1.0735(2) 0.03155(18) 0.85875(9)
H31 H 0.9917 0.0142 0.8548
H32 H 1.1142 -0.0178 0.8743
C33 C 1.1263(3) 0.0463(2) 0.81045(11)
H33 H 1.2073 0.0638 0.8140
H34 H 1.0838 0.0929 0.7940
H35 H 1.1220 -0.0082 0.7921
C34 C 1.0270(2) 0.09471(19) 0.93821(10)
H36 H 1.0646 0.0429 0.9527
H37 H 1.0406 0.1461 0.9589
C35 C 0.8678(2) -0.00462(18) 0.93914(9)
C36 C 0.7386(2) -0.01382(18) 0.93771(9)
C37 C 0.6925(3) -0.09174(19) 0.95521(10)
H38 H 0.7417 -0.1379 0.9656
C38 C 0.5742(3) -0.10087(19) 0.95727(10)
H39 H 0.5402 -0.1530 0.9695
C39 C 0.5064(2) -0.03268(19) 0.94119(9)
H40 H 0.4246 -0.0368 0.9424
C40 C 0.5590(2) 0.04186(17) 0.92324(8)
C41 C 0.4829(2) 0.11687(18) 0.90812(9)
C42 C 0.4738(2) 0.25842(17) 0.87345(9)
H41 H 0.4876 0.3023 0.8986
H42 H 0.3901 0.2455 0.8723
C43 C 0.5136(2) 0.29472(17) 0.82650(9)
H43 H 0.4735 0.3523 0.8217
C44 C 0.4845(2) 0.23652(19) 0.78427(9)
H44 H 0.5192 0.2623 0.7555
H45 H 0.5191 0.1776 0.7890
C45 C 0.3557(3) 0.2266(2) 0.77700(11)
H46 H 0.3208 0.2848 0.7729
H47 H 0.3216 0.1977 0.8046
H48 H 0.3414 0.1909 0.7489
C46 C 0.6818(2) 0.39391(16) 0.82488(8)
N4 N 1.02174(19) 0.18692(15) 0.86855(8)
H49 H 0.9509 0.1801 0.8579
N5 N 0.67456(19) 0.05237(14) 0.92133(7)
N6 N 0.63786(19) 0.31240(15) 0.82741(8)
H50 H 0.6857 0.2676 0.8297
O7 O 1.17320(16) 0.28042(13) 0.87469(7)
O8 O 0.90308(15) 0.07887(12) 0.93406(6)
O9 O 0.93015(17) -0.06618(13) 0.94665(7)
O10 O 0.38161(17) 0.11829(14) 0.91765(8)
O11 O 0.53802(15) 0.17836(12) 0.88340(6)
O12 O 0.62125(15) 0.46044(12) 0.82180(7)
C47 C 0.2645(3) 0.80109(18) 0.98823(10)
C48 C 0.1475(3) 0.8167(2) 0.97187(11)
H51 H 0.0993 0.8352 0.9985
H52 H 0.1163 0.7625 0.9582
H53 H 0.1481 0.8631 0.9479
N7 N 0.3557(2) 0.78771(16) 1.00137(9)
C49 C 0.2847(2) 0.3147(2) 0.97239(11)
H54 H 0.3122 0.2609 0.9570
H55 H 0.3347 0.3284 0.9993
H56 H 0.2865 0.3635 0.9499
C50 C 0.1668(3) 0.30151(18) 0.98890(9)
N8 N 0.0759(2) 0.28975(16) 1.00213(9)
O13 O 0.77659(17) 0.13875(13) 0.83799(8)
H57 H 0.788(4) 0.090(3) 0.8242(15)
H58 H 0.742(3) 0.127(2) 0.8646(13)
O14 O 0.65338(17) 0.64030(14) 0.84097(8)
H59 H 0.644(3) 0.591(3) 0.8291(13)
H60 H 0.685(3) 0.629(2) 0.8661(14)
loop_
_geom_bond_atom_site_label_1
_geom_bond_atom_site_label_2
_geom_bond_site_symmetry_1
_geom_bond_site_symmetry_2
C1 C2 1_555 1_555
C2 H1 1_555 1_555
C3 C2 1_555 1_555
H2 C3 1_555 1_555
C4 C3 1_555 1_555
H3 C4 1_555 1_555
C5 C4 1_555 1_555
C6 C1 1_555 1_555
H4 C6 1_555 1_555
C7 C5 1_555 1_555
C8 H5 1_555 1_555
C9 C8 1_555 1_555
H6 C9 1_555 1_555
H7 C9 1_555 1_555
C10 C9 1_555 1_555
H8 C10 1_555 1_555
H9 C10 1_555 1_555
H10 C10 1_555 1_555
C11 C8 1_555 1_555
H11 C11 1_555 1_555
H12 C11 1_555 1_555
C12 C13 1_555 1_555
C13 C14 1_555 1_555
C14 H13 1_555 1_555
C15 C14 1_555 1_555
H14 C15 1_555 1_555
C16 C15 1_555 1_555
H15 C16 1_555 1_555
C17 C16 1_555 1_555
C18 C17 1_555 1_555
C19 H16 1_555 1_555
H17 C19 1_555 1_555
C20 C19 1_555 1_555
H18 C20 1_555 1_555
C21 C20 1_555 1_555
H19 C21 1_555 1_555
H20 C21 1_555 1_555
C22 C21 1_555 1_555
H21 C22 1_555 1_555
H22 C22 1_555 1_555
H23 C22 1_555 1_555
C23 C1 1_555 1_555
N1 C7 1_555 1_555
H24 N1 1_555 1_555
N2 C13 1_555 1_555
N3 C20 1_555 1_555
H25 N3 1_555 1_555
O1 C7 1_555 1_555
O2 C11 1_555 1_555
O3 C12 1_555 1_555
O4 C18 1_555 1_555
O5 C18 1_555 1_555
O6 C23 1_555 1_555
C24 C25 1_555 1_555
C25 H26 1_555 1_555
C26 C25 1_555 1_555
H27 C26 1_555 1_555
C27 C26 1_555 1_555
H28 C27 1_555 1_555
C28 C27 1_555 1_555
C29 C24 1_555 1_555
H29 C29 1_555 1_555
C30 C28 1_555 1_555
C31 H30 1_555 1_555
C32 C31 1_555 1_555
H31 C32 1_555 1_555
H32 C32 1_555 1_555
C33 C32 1_555 1_555
H33 C33 1_555 1_555
H34 C33 1_555 1_555
H35 C33 1_555 1_555
C34 C31 1_555 1_555
H36 C34 1_555 1_555
H37 C34 1_555 1_555
C35 C36 1_555 1_555
C36 C37 1_555 1_555
C37 H38 1_555 1_555
C38 C37 1_555 1_555
H39 C38 1_555 1_555
C39 C38 1_555 1_555
H40 C39 1_555 1_555
C40 C39 1_555 1_555
C41 C40 1_555 1_555
C42 H41 1_555 1_555
H42 C42 1_555 1_555
C43 C42 1_555 1_555
H43 C43 1_555 1_555
C44 C43 1_555 1_555
H44 C44 1_555 1_555
H45 C44 1_555 1_555
C45 C44 1_555 1_555
H46 C45 1_555 1_555
H47 C45 1_555 1_555
H48 C45 1_555 1_555
C46 C24 1_555 1_555
N4 C30 1_555 1_555
H49 N4 1_555 1_555
N5 C36 1_555 1_555
N6 C43 1_555 1_555
H50 N6 1_555 1_555
O7 C30 1_555 1_555
O8 C34 1_555 1_555
O9 C35 1_555 1_555
O10 C41 1_555 1_555
O11 C41 1_555 1_555
O12 C46 1_555 1_555
C47 C48 1_555 1_555
C48 H51 1_555 1_555
H52 C48 1_555 1_555
H53 C48 1_555 1_555
N7 C47 1_555 1_555
C49 H54 1_555 1_555
H55 C49 1_555 1_555
H56 C49 1_555 1_555
C50 C49 1_555 1_555
N8 C50 1_555 1_555
O13 H57 1_555 1_555
H58 O13 1_555 1_555
O14 H59 1_555 1_555
H60 O14 1_555 1_555
C5 C6 1_555 1_555
C8 N1 1_555 1_555
C12 O2 1_555 1_555
C17 N2 1_555 1_555
C19 O5 1_555 1_555
C23 N3 1_555 1_555
C28 C29 1_555 1_555
C31 N4 1_555 1_555
C35 O8 1_555 1_555
C40 N5 1_555 1_555
C42 O11 1_555 1_555
C46 N6 1_555 1_555

#END
