
#######################################################################
#
#                 Cambridge Crystallographic Data Centre
#                                CCDC 
#
#######################################################################
#
# If this CIF has been generated from an entry in the Cambridge 
# Structural Database, then it will include bibliographic, chemical, 
# crystal, experimental, refinement or atomic coordinate data resulting 
# from the CCDC's data processing and validation procedures.
#
#######################################################################

data_KAKKUD
_chemical_formula_moiety         'C23 H25 N3 O6,0.5(C3 H6 O1),H2 O1'
_chemical_name_systematic        
'(5R,15R)-5,15-Diethyl-3,17-dioxa-6,14,23-triazatricyclo(17.3.1.1^8,12^)tetracosa-1(22),8,10,12(24),19(23),20-hexaene-2,7,13,18-tetraone acetone solvate monohydrate'
_symmetry_cell_setting           monoclinic
_symmetry_space_group_name_H-M   'P 21/n'
_symmetry_Int_Tables_number      14
_space_group_name_Hall           '-P 2yn'
loop_
_symmetry_equiv_pos_site_id
_symmetry_equiv_pos_as_xyz
1 x,y,z
2 1/2-x,1/2+y,1/2-z
3 -x,-y,-z
4 1/2+x,1/2-y,1/2+z
_cell_length_a                   11.6729(11)
_cell_length_b                   15.0192(14)
_cell_length_c                   27.323(3)
_cell_angle_alpha                90
_cell_angle_beta                 93.263(2)
_cell_angle_gamma                90
_cell_volume                     4782.44
_cell_formula_units_Z            8
loop_
_atom_site_label
_atom_site_type_symbol
_atom_site_fract_x
_atom_site_fract_y
_atom_site_fract_z
O1 O 1.1175(2) 0.90600(16) 0.67728(9)
O2 O 1.19315(19) 0.63319(17) 0.60289(9)
O3 O 1.3533(2) 0.55456(19) 0.59161(11)
O4 O 0.8050(2) 0.38511(18) 0.53132(9)
O5 O 0.83439(19) 0.52789(16) 0.55345(8)
O6 O 0.5705(2) 0.72607(17) 0.61712(9)
N1 N 1.1063(2) 0.75667(19) 0.66934(11)
H1 H 1.0602 0.7103 0.6670
N2 N 1.0597(2) 0.4994(2) 0.56965(10)
N3 N 0.7194(2) 0.6293(2) 0.62398(10)
H2 H 0.7899 0.6211 0.6363
C1 C 0.8637(3) 0.7741(2) 0.65459(12)
H3 H 0.8985 0.7264 0.6381
C2 C 0.7455(3) 0.7765(2) 0.65621(12)
C3 C 0.6955(3) 0.8459(2) 0.68106(13)
H4 H 0.6145 0.8483 0.6828
C4 C 0.7629(3) 0.9109(2) 0.70311(14)
H5 H 0.7280 0.9577 0.7203
C5 C 0.8810(3) 0.9094(2) 0.70071(13)
H6 H 0.9267 0.9556 0.7154
C6 C 0.9323(3) 0.8396(2) 0.67651(12)
C7 C 1.0600(3) 0.8374(2) 0.67450(12)
C8 C 1.2292(3) 0.7417(2) 0.66746(13)
H7 H 1.2683 0.8000 0.6743
C9 C 1.2710(3) 0.6772(3) 0.70770(13)
H8 H 1.2428 0.6977 0.7393
H9 H 1.2372 0.6179 0.7005
C10 C 1.3994(3) 0.6682(3) 0.71305(14)
H10 H 1.4202 0.6259 0.7394
H11 H 1.4337 0.7263 0.7210
H12 H 1.4281 0.6464 0.6822
C11 C 1.2584(3) 0.7130(3) 0.61641(13)
H13 H 1.2392 0.7613 0.5927
H14 H 1.3416 0.7006 0.6158
C12 C 1.2501(3) 0.5608(3) 0.59096(12)
C13 C 1.1738(3) 0.4852(2) 0.57534(12)
C14 C 1.2233(3) 0.4035(3) 0.56671(12)
H15 H 1.3040 0.3959 0.5713
C15 C 1.1542(3) 0.3329(3) 0.55139(13)
H16 H 1.1861 0.2760 0.5455
C16 C 1.0380(3) 0.3475(3) 0.54495(12)
H17 H 0.9881 0.3005 0.5345
C17 C 0.9944(3) 0.4312(2) 0.55385(12)
C18 C 0.8682(3) 0.4449(3) 0.54535(12)
C19 C 0.7122(3) 0.5464(2) 0.54783(13)
H18 H 0.6729 0.4974 0.5294
H19 H 0.6994 0.6021 0.5289
C20 C 0.6628(3) 0.5558(2) 0.59741(12)
H20 H 0.5797 0.5713 0.5920
C21 C 0.6710(3) 0.4712(2) 0.62746(13)
H21 H 0.7527 0.4545 0.6330
H22 H 0.6316 0.4226 0.6088
C22 C 0.6178(3) 0.4808(3) 0.67689(14)
H23 H 0.6253 0.4244 0.6949
H24 H 0.5364 0.4960 0.6717
H25 H 0.6576 0.5280 0.6959
C23 C 0.6700(3) 0.7087(2) 0.63066(13)
N4 N 1.0567(2) 0.7404(2) 0.32292(11)
H26 H 1.0116 0.7866 0.3267
N5 N 1.0386(2) 0.9900(2) 0.42769(10)
N6 N 0.6795(2) 0.8668(2) 0.36974(11)
H27 H 0.7464 0.8762 0.3574
C24 C 0.8173(3) 0.7238(2) 0.33689(12)
H28 H 0.8564 0.7729 0.3520
C25 C 0.6986(3) 0.7199(2) 0.33649(13)
C26 C 0.6428(3) 0.6482(3) 0.31375(13)
H29 H 0.5614 0.6448 0.3130
C27 C 0.7041(3) 0.5818(3) 0.29228(14)
H30 H 0.6649 0.5333 0.2765
C28 C 0.8221(3) 0.5856(2) 0.29358(13)
H31 H 0.8639 0.5389 0.2794
C29 C 0.8802(3) 0.6568(2) 0.31548(12)
C30 C 1.0082(3) 0.6600(2) 0.31637(13)
C31 C 1.1806(3) 0.7553(2) 0.32416(13)
H32 H 1.2175 0.6980 0.3151
C32 C 1.2090(3) 0.8244(3) 0.28589(13)
H33 H 1.1667 0.8098 0.2545
H34 H 1.1825 0.8836 0.2965
C33 C 1.3358(3) 0.8294(3) 0.27759(15)
H35 H 1.3491 0.8747 0.2528
H36 H 1.3623 0.7714 0.2663
H37 H 1.3781 0.8452 0.3084
C34 C 1.2246(3) 0.7789(3) 0.37560(14)
H38 H 1.2133 0.7280 0.3978
H39 H 1.3077 0.7922 0.3760
C35 C 1.2235(3) 0.9279(3) 0.40631(13)
C36 C 1.1522(3) 1.0026(3) 0.42413(12)
C37 C 1.2065(3) 1.0815(3) 0.43668(12)
H40 H 1.2868 1.0877 0.4337
C38 C 1.1433(3) 1.1514(3) 0.45367(13)
H41 H 1.1791 1.2063 0.4625
C39 C 1.0271(3) 1.1396(3) 0.45751(13)
H42 H 0.9810 1.1866 0.4689
C40 C 0.9788(3) 1.0584(2) 0.44449(12)
C41 C 0.8524(3) 1.0480(3) 0.45012(13)
C42 C 0.6920(3) 0.9491(3) 0.44570(14)
H43 H 0.6587 0.9991 0.4637
H44 H 0.6836 0.8941 0.4652
C43 C 0.6288(3) 0.9388(2) 0.39687(13)
H45 H 0.5482 0.9212 0.4029
C44 C 0.6231(3) 1.0233(3) 0.36644(13)
H46 H 0.7019 1.0409 0.3588
H47 H 0.5904 1.0717 0.3859
C45 C 0.5506(3) 1.0121(3) 0.31878(14)
H48 H 0.5495 1.0682 0.3004
H49 H 0.4721 0.9959 0.3261
H50 H 0.5836 0.9651 0.2991
C46 C 0.6296(3) 0.7867(3) 0.36254(13)
O7 O 1.0658(2) 0.59167(17) 0.31102(9)
O8 O 1.1626(2) 0.85674(17) 0.39250(9)
O9 O 1.3260(2) 0.9340(2) 0.40495(12)
O10 O 0.7946(2) 1.10824(18) 0.46414(10)
O11 O 0.81399(19) 0.96632(16) 0.43967(9)
O12 O 0.5342(2) 0.76887(18) 0.37618(10)
O13 O 0.6376(2) 0.75043(17) 0.49887(9)
C47 C 0.4692(3) 0.8323(3) 0.51080(17)
H51 H 0.5231 0.8816 0.5167
H52 H 0.4259 0.8226 0.5400
H53 H 0.4160 0.8467 0.4829
C48 C 0.5338(3) 0.7500(3) 0.49982(13)
C49 C 0.4654(3) 0.6684(3) 0.48992(16)
H54 H 0.5168 0.6188 0.4832
H55 H 0.4120 0.6782 0.4614
H56 H 0.4220 0.6541 0.5186
O14 O 0.96861(19) 0.58220(17) 0.65688(9)
H57 H 0.9636 0.5277 0.6720
H58 H 0.9916 0.5739 0.6252
O15 O 0.9250(2) 0.91507(16) 0.33983(9)
H59 H 0.9700 0.9241 0.3690
H60 H 0.9048 0.9764 0.3340
loop_
_geom_bond_atom_site_label_1
_geom_bond_atom_site_label_2
_geom_bond_site_symmetry_1
_geom_bond_site_symmetry_2
O1 C7 1_555 1_555
O2 C11 1_555 1_555
O3 C12 1_555 1_555
O4 C18 1_555 1_555
O5 C18 1_555 1_555
O6 C23 1_555 1_555
N1 H1 1_555 1_555
N2 C13 1_555 1_555
N3 H2 1_555 1_555
C1 H3 1_555 1_555
C2 C1 1_555 1_555
C3 C2 1_555 1_555
H4 C3 1_555 1_555
C4 C3 1_555 1_555
H5 C4 1_555 1_555
C5 C4 1_555 1_555
H6 C5 1_555 1_555
C6 C1 1_555 1_555
C7 N1 1_555 1_555
C8 N1 1_555 1_555
H7 C8 1_555 1_555
C9 C8 1_555 1_555
H8 C9 1_555 1_555
H9 C9 1_555 1_555
C10 C9 1_555 1_555
H10 C10 1_555 1_555
H11 C10 1_555 1_555
H12 C10 1_555 1_555
C11 C8 1_555 1_555
H13 C11 1_555 1_555
H14 C11 1_555 1_555
C12 O2 1_555 1_555
C13 C12 1_555 1_555
C14 C13 1_555 1_555
H15 C14 1_555 1_555
C15 C14 1_555 1_555
H16 C15 1_555 1_555
C16 C15 1_555 1_555
H17 C16 1_555 1_555
C17 N2 1_555 1_555
C18 C17 1_555 1_555
C19 O5 1_555 1_555
H18 C19 1_555 1_555
H19 C19 1_555 1_555
C20 N3 1_555 1_555
H20 C20 1_555 1_555
C21 C20 1_555 1_555
H21 C21 1_555 1_555
H22 C21 1_555 1_555
C22 C21 1_555 1_555
H23 C22 1_555 1_555
H24 C22 1_555 1_555
H25 C22 1_555 1_555
C23 N3 1_555 1_555
N4 H26 1_555 1_555
N5 C36 1_555 1_555
N6 H27 1_555 1_555
C24 H28 1_555 1_555
C25 C24 1_555 1_555
C26 C25 1_555 1_555
H29 C26 1_555 1_555
C27 C26 1_555 1_555
H30 C27 1_555 1_555
C28 C27 1_555 1_555
H31 C28 1_555 1_555
C29 C24 1_555 1_555
C30 N4 1_555 1_555
C31 N4 1_555 1_555
H32 C31 1_555 1_555
C32 C31 1_555 1_555
H33 C32 1_555 1_555
H34 C32 1_555 1_555
C33 C32 1_555 1_555
H35 C33 1_555 1_555
H36 C33 1_555 1_555
H37 C33 1_555 1_555
C34 C31 1_555 1_555
H38 C34 1_555 1_555
H39 C34 1_555 1_555
C35 C36 1_555 1_555
C36 C37 1_555 1_555
C37 H40 1_555 1_555
C38 C37 1_555 1_555
H41 C38 1_555 1_555
C39 C38 1_555 1_555
H42 C39 1_555 1_555
C40 N5 1_555 1_555
C41 C40 1_555 1_555
C42 H43 1_555 1_555
H44 C42 1_555 1_555
C43 N6 1_555 1_555
H45 C43 1_555 1_555
C44 C43 1_555 1_555
H46 C44 1_555 1_555
H47 C44 1_555 1_555
C45 C44 1_555 1_555
H48 C45 1_555 1_555
H49 C45 1_555 1_555
H50 C45 1_555 1_555
C46 N6 1_555 1_555
O7 C30 1_555 1_555
O8 C34 1_555 1_555
O9 C35 1_555 1_555
O10 C41 1_555 1_555
O11 C41 1_555 1_555
O12 C46 1_555 1_555
O13 C48 1_555 1_555
C47 H51 1_555 1_555
H52 C47 1_555 1_555
H53 C47 1_555 1_555
C48 C47 1_555 1_555
C49 C48 1_555 1_555
H54 C49 1_555 1_555
H55 C49 1_555 1_555
H56 C49 1_555 1_555
O14 H57 1_555 1_555
H58 O14 1_555 1_555
O15 H59 1_555 1_555
H60 O15 1_555 1_555
C2 C23 1_555 1_555
C5 C6 1_555 1_555
C6 C7 1_555 1_555
C16 C17 1_555 1_555
C19 C20 1_555 1_555
C25 C46 1_555 1_555
C28 C29 1_555 1_555
C29 C30 1_555 1_555
C35 O8 1_555 1_555
C39 C40 1_555 1_555
C42 C43 1_555 1_555
C42 O11 1_555 1_555

#END
