
#######################################################################
#
#                 Cambridge Crystallographic Data Centre
#                                CCDC 
#
#######################################################################
#
# If this CIF has been generated from an entry in the Cambridge 
# Structural Database, then it will include bibliographic, chemical, 
# crystal, experimental, refinement or atomic coordinate data resulting 
# from the CCDC's data processing and validation procedures.
#
#######################################################################

data_KAKLAK
_chemical_formula_moiety         'C25 H29 N3 O6,0.5(C3 H6 O1),H2 O1'
_chemical_name_systematic        
'(5S,15S)-5,15-Di-isopropyl-3,17-dioxa-6,14,23-triazatricyclo(17.3.1.1^8,12^)tetracosa-1(22),8,10,12(24),19(23),20-hexaene-2,7,13,18-tetraone acetone solvate monohydrate'
_symmetry_cell_setting           monoclinic
_symmetry_space_group_name_H-M   'C 2'
_symmetry_Int_Tables_number      5
_space_group_name_Hall           'C 2y'
loop_
_symmetry_equiv_pos_site_id
_symmetry_equiv_pos_as_xyz
1 x,y,z
2 -x,y,-z
3 1/2+x,1/2+y,z
4 1/2-x,1/2+y,-z
_cell_length_a                   22.583(14)
_cell_length_b                   9.505(6)
_cell_length_c                   12.450(8)
_cell_angle_alpha                90
_cell_angle_beta                 93.869(10)
_cell_angle_gamma                90
_cell_volume                     2666.32
_exptl_crystal_colour            colorless
_exptl_crystal_description       plate
_chemical_melting_point          262-264deg.C
_cell_formula_units_Z            4
loop_
_atom_site_label
_atom_site_type_symbol
_atom_site_fract_x
_atom_site_fract_y
_atom_site_fract_z
O1 O 0.08041(6) 0.1051(2) 0.66094(13)
O2 O 0.26100(6) 0.27705(19) 0.60805(13)
O3 O 0.29271(7) 0.4293(2) 0.48555(14)
O4 O 0.49031(8) 0.0897(4) 0.8605(2)
O5 O 0.39398(7) 0.0496(2) 0.85524(14)
O6 O 0.27286(7) -0.2095(2) 1.06833(13)
N1 N 0.15920(7) 0.2297(2) 0.73258(15)
H1 H 0.1819 0.2503 0.7860
N2 N 0.37234(7) 0.2293(2) 0.68916(15)
N3 N 0.30319(8) -0.1346(2) 0.90881(15)
H2 H 0.2923 -0.1072 0.8460
C1 C 0.18897(9) -0.0147(3) 0.85969(18)
H3 H 0.2214 0.0309 0.8294
C2 C 0.13134(9) 0.0198(3) 0.82281(18)
C3 C 0.08432(10) -0.0460(3) 0.86929(19)
H4 H 0.0447 -0.0240 0.8447
C4 C 0.09491(10) -0.1429(3) 0.9508(2)
H5 H 0.0624 -0.1866 0.9822
C5 C 0.15281(10) -0.1775(3) 0.98749(18)
H6 H 0.1598 -0.2433 1.0444
C6 C 0.20021(9) -0.1149(3) 0.94015(18)
C7 C 0.12080(9) 0.1222(3) 0.73226(18)
C8 C 0.15919(9) 0.3348(3) 0.64683(18)
H7 H 0.1180 0.3372 0.6118
C9 C 0.17185(11) 0.4812(3) 0.6931(2)
H8 H 0.2103 0.4783 0.7380
C10 C 0.12281(18) 0.5228(4) 0.7645(3)
H9 H 0.1338 0.6102 0.8026
H10 H 0.1172 0.4479 0.8170
H11 H 0.0858 0.5372 0.7201
C11 C 0.17613(13) 0.5931(3) 0.6072(2)
H12 H 0.1396 0.5933 0.5600
H13 H 0.2101 0.5728 0.5646
H14 H 0.1815 0.6854 0.6414
C12 C 0.19969(9) 0.2859(3) 0.56174(18)
H15 H 0.1866 0.1925 0.5342
H16 H 0.1974 0.3528 0.5007
C13 C 0.30195(9) 0.3499(3) 0.56090(18)
C14 C 0.36396(9) 0.3261(3) 0.61100(18)
C15 C 0.42862(9) 0.2134(3) 0.73095(18)
C16 C 0.47595(9) 0.2904(3) 0.69778(19)
H17 H 0.5149 0.2745 0.7291
C17 C 0.46593(10) 0.3907(3) 0.6187(2)
H18 H 0.4977 0.4465 0.5959
C18 C 0.40882(9) 0.4087(3) 0.57286(19)
H19 H 0.4005 0.4755 0.5171
C19 C 0.44136(9) 0.1097(3) 0.82173(19)
C20 C 0.40163(11) -0.0424(3) 0.9492(2)
H20 H 0.3882 0.0064 1.0135
H21 H 0.4441 -0.0669 0.9630
C21 C 0.36534(9) -0.1747(3) 0.92764(18)
H22 H 0.3691 -0.2343 0.9940
C22 C 0.38430(11) -0.2634(3) 0.8333(2)
H23 H 0.3832 -0.2021 0.7679
C23 C 0.34250(16) -0.3856(4) 0.8100(3)
H24 H 0.3407 -0.4435 0.8748
H25 H 0.3569 -0.4427 0.7516
H26 H 0.3028 -0.3497 0.7884
C24 C 0.44794(14) -0.3152(4) 0.8559(3)
H27 H 0.4747 -0.2343 0.8644
H28 H 0.4593 -0.3734 0.7957
H29 H 0.4506 -0.3712 0.9222
C25 C 0.26214(9) -0.1572(3) 0.97819(18)
O7 O 0.29631(7) -0.0254(2) 0.69136(12)
H30 H 0.3118 0.0678 0.6920
H31 H 0.2679 -0.0243 0.6378
O8 O 0.5000 1.0441(5) 0.5000
C26 C 0.5000 0.9182(5) 0.5000
C27 C 0.46742(12) 0.8350(4) 0.5778(2)
H32 H 0.4957 0.7938 0.6320
H33 H 0.4451 0.7597 0.5395
H34 H 0.4398 0.8964 0.6132
C27A C 0.53258(12) 0.8350(4) 0.4222(2)
H32A H 0.5043 0.7938 0.3680
H33A H 0.5549 0.7597 0.4605
H34A H 0.5602 0.8964 0.3868
loop_
_geom_bond_atom_site_label_1
_geom_bond_atom_site_label_2
_geom_bond_site_symmetry_1
_geom_bond_site_symmetry_2
O1 C7 1_555 1_555
O2 C12 1_555 1_555
O3 C13 1_555 1_555
O4 C19 1_555 1_555
O5 C19 1_555 1_555
O6 C25 1_555 1_555
N1 H1 1_555 1_555
N2 C14 1_555 1_555
N3 H2 1_555 1_555
C1 H3 1_555 1_555
C2 C1 1_555 1_555
C3 C2 1_555 1_555
H4 C3 1_555 1_555
C4 C3 1_555 1_555
H5 C4 1_555 1_555
C5 C4 1_555 1_555
H6 C5 1_555 1_555
C6 C1 1_555 1_555
C7 N1 1_555 1_555
C8 N1 1_555 1_555
H7 C8 1_555 1_555
C9 C8 1_555 1_555
H8 C9 1_555 1_555
C10 C9 1_555 1_555
H9 C10 1_555 1_555
H10 C10 1_555 1_555
H11 C10 1_555 1_555
C11 C9 1_555 1_555
H12 C11 1_555 1_555
H13 C11 1_555 1_555
H14 C11 1_555 1_555
C12 C8 1_555 1_555
H15 C12 1_555 1_555
H16 C12 1_555 1_555
C13 O2 1_555 1_555
C14 C13 1_555 1_555
C15 N2 1_555 1_555
C16 C15 1_555 1_555
H17 C16 1_555 1_555
C17 C16 1_555 1_555
H18 C17 1_555 1_555
C18 C14 1_555 1_555
H19 C18 1_555 1_555
C19 C15 1_555 1_555
C20 O5 1_555 1_555
H20 C20 1_555 1_555
H21 C20 1_555 1_555
C21 N3 1_555 1_555
H22 C21 1_555 1_555
C22 C21 1_555 1_555
H23 C22 1_555 1_555
C23 C22 1_555 1_555
H24 C23 1_555 1_555
H25 C23 1_555 1_555
H26 C23 1_555 1_555
C24 C22 1_555 1_555
H27 C24 1_555 1_555
H28 C24 1_555 1_555
H29 C24 1_555 1_555
C25 N3 1_555 1_555
O7 H30 1_555 1_555
H31 O7 1_555 1_555
O8 C26 1_555 1_555
C26 C27 1_555 1_555
C27 H32 1_555 1_555
H33 C27 1_555 1_555
H34 C27 1_555 1_555
C27A C26 1_555 1_555
H32A C27A 1_555 1_555
H33A C27A 1_555 1_555
H34A C27A 1_555 1_555
C2 C7 1_555 1_555
C5 C6 1_555 1_555
C6 C25 1_555 1_555
C17 C18 1_555 1_555
C20 C21 1_555 1_555

#END
