
#######################################################################
#
#                 Cambridge Crystallographic Data Centre
#                                CCDC 
#
#######################################################################
#
# If this CIF has been generated from an entry in the Cambridge 
# Structural Database, then it will include bibliographic, chemical, 
# crystal, experimental, refinement or atomic coordinate data resulting 
# from the CCDC's data processing and validation procedures.
#
#######################################################################

data_KALBUW
_chemical_formula_moiety         'C22 H22 Cl2 N4 O2'
_chemical_name_systematic        
2,5-Dichloro-3,6-bis(methyl(2-(pyridin-2-yl)ethyl)amino)-1,4-benzoquinone
_symmetry_cell_setting           triclinic
_symmetry_space_group_name_H-M   'P -1'
_symmetry_Int_Tables_number      2
_space_group_name_Hall           '-P 1'
loop_
_symmetry_equiv_pos_site_id
_symmetry_equiv_pos_as_xyz
1 x,y,z
2 -x,-y,-z
_cell_length_a                   7.6897(14)
_cell_length_b                   8.1112(15)
_cell_length_c                   9.3234(17)
_cell_angle_alpha                69.349(2)
_cell_angle_beta                 82.020(3)
_cell_angle_gamma                75.700(3)
_cell_volume                     526.441
_exptl_crystal_colour            red
_exptl_crystal_description       block
_cell_formula_units_Z            1
loop_
_atom_site_label
_atom_site_type_symbol
_atom_site_fract_x
_atom_site_fract_y
_atom_site_fract_z
C1 C -0.11832(16) 1.09701(16) 0.09026(13)
O1 O -0.19968(15) 1.18125(13) 0.17323(11)
C2 C -0.07011(16) 0.90072(17) 0.14686(13)
Cl1 Cl -0.14581(5) 0.80718(5) 0.33539(4)
C3 C 0.04905(16) 0.80191(16) 0.06995(13)
N1 N 0.10303(15) 0.61856(14) 0.11669(13)
C4 C -0.0142(3) 0.4986(2) 0.2096(2)
H1 H 0.005(3) 0.451(3) 0.317(3)
H2 H 0.010(3) 0.397(3) 0.176(3)
H3 H -0.136(3) 0.555(3) 0.191(2)
C5 C 0.2939(2) 0.53321(18) 0.10714(16)
H4 H 0.353(2) 0.611(2) 0.0225(19)
H5 H 0.303(2) 0.423(2) 0.0878(19)
C6 C 0.3869(2) 0.49588(18) 0.25364(16)
H6 H 0.334(2) 0.409(2) 0.338(2)
H7 H 0.512(3) 0.438(2) 0.238(2)
C7 C 0.37702(17) 0.66682(17) 0.28714(14)
C8 C 0.3155(2) 0.6833(2) 0.42859(16)
H8 H 0.281(3) 0.590(3) 0.503(2)
C9 C 0.3040(3) 0.8439(2) 0.45252(19)
H9 H 0.261(3) 0.854(3) 0.547(3)
C10 C 0.3546(3) 0.9837(2) 0.3338(2)
H10 H 0.348(3) 1.095(3) 0.344(3)
C11 C 0.4157(3) 0.9574(2) 0.1966(2)
H11 H 0.459(3) 1.050(3) 0.111(3)
N2 N 0.42822(19) 0.80250(17) 0.17104(14)
C1A C 0.11832(16) 0.90299(16) -0.09026(13)
O1A O 0.19968(15) 0.81875(13) -0.17323(11)
C2A C 0.07011(16) 1.09928(17) -0.14686(13)
Cl1A Cl 0.14581(5) 1.19282(5) -0.33539(4)
C3A C -0.04905(16) 1.19809(16) -0.06995(13)
N1A N -0.10303(15) 1.38144(14) -0.11669(13)
C4A C 0.0142(3) 1.5014(2) -0.2096(2)
H1A H -0.005(3) 1.549(3) -0.317(3)
H2A H -0.010(3) 1.603(3) -0.176(3)
H3A H 0.136(3) 1.445(3) -0.191(2)
C5A C -0.2939(2) 1.46679(18) -0.10714(16)
H4A H -0.353(2) 1.389(2) -0.0225(19)
H5A H -0.303(2) 1.577(2) -0.0878(19)
C6A C -0.3869(2) 1.50412(18) -0.25364(16)
H6A H -0.334(2) 1.591(2) -0.338(2)
H7A H -0.512(3) 1.562(2) -0.238(2)
C7A C -0.37702(17) 1.33318(17) -0.28714(14)
C8A C -0.3155(2) 1.3167(2) -0.42859(16)
H8A H -0.281(3) 1.410(3) -0.503(2)
C9A C -0.3040(3) 1.1561(2) -0.45252(19)
H9A H -0.261(3) 1.146(3) -0.547(3)
C10A C -0.3546(3) 1.0163(2) -0.3338(2)
H10A H -0.348(3) 0.905(3) -0.344(3)
C11A C -0.4157(3) 1.0426(2) -0.1966(2)
H11A H -0.459(3) 0.950(3) -0.111(3)
N2A N -0.42822(19) 1.19750(17) -0.17104(14)
loop_
_geom_bond_atom_site_label_1
_geom_bond_atom_site_label_2
_geom_bond_site_symmetry_1
_geom_bond_site_symmetry_2
C1 O1 1_555 1_555
C2 C1 1_555 1_555
Cl1 C2 1_555 1_555
C3 C2 1_555 1_555
N1 C3 1_555 1_555
C4 N1 1_555 1_555
H1 C4 1_555 1_555
H2 C4 1_555 1_555
H3 C4 1_555 1_555
C5 N1 1_555 1_555
H4 C5 1_555 1_555
H5 C5 1_555 1_555
C6 C5 1_555 1_555
H6 C6 1_555 1_555
H7 C6 1_555 1_555
C7 C6 1_555 1_555
C8 C7 1_555 1_555
H8 C8 1_555 1_555
C9 C8 1_555 1_555
H9 C9 1_555 1_555
C10 C9 1_555 1_555
H10 C10 1_555 1_555
C11 C10 1_555 1_555
H11 C11 1_555 1_555
N2 C7 1_555 1_555
C1A C3 1_555 1_555
O1A C1A 1_555 1_555
C2A C1A 1_555 1_555
Cl1A C2A 1_555 1_555
C3A C1 1_555 1_555
N1A C3A 1_555 1_555
C4A N1A 1_555 1_555
H1A C4A 1_555 1_555
H2A C4A 1_555 1_555
H3A C4A 1_555 1_555
C5A N1A 1_555 1_555
H4A C5A 1_555 1_555
H5A C5A 1_555 1_555
C6A C5A 1_555 1_555
H6A C6A 1_555 1_555
H7A C6A 1_555 1_555
C7A C6A 1_555 1_555
C8A C7A 1_555 1_555
H8A C8A 1_555 1_555
C9A C8A 1_555 1_555
H9A C9A 1_555 1_555
C10A C9A 1_555 1_555
H10A C10A 1_555 1_555
C11A C10A 1_555 1_555
H11A C11A 1_555 1_555
N2A C7A 1_555 1_555
C11 N2 1_555 1_555
C2A C3A 1_555 1_555
C11A N2A 1_555 1_555

#END
