
#######################################################################
#
#                 Cambridge Crystallographic Data Centre
#                                CCDC 
#
#######################################################################
#
# If this CIF has been generated from an entry in the Cambridge 
# Structural Database, then it will include bibliographic, chemical, 
# crystal, experimental, refinement or atomic coordinate data resulting 
# from the CCDC's data processing and validation procedures.
#
#######################################################################

data_KALBIL
_chemical_formula_moiety         'C19 H20 O4'
_chemical_name_systematic        
2,3,7,8-tetramethoxy-5H-dibenzo[a,d][7]annulene
_symmetry_cell_setting           orthorhombic
_symmetry_space_group_name_H-M   'P n m a'
_symmetry_Int_Tables_number      62
_space_group_name_Hall           '-P 2ac 2n'
loop_
_symmetry_equiv_pos_site_id
_symmetry_equiv_pos_as_xyz
1 x,y,z
2 1/2+x,1/2-y,1/2-z
3 -x,1/2+y,-z
4 1/2-x,-y,1/2+z
5 -x,-y,-z
6 1/2-x,1/2+y,1/2+z
7 x,1/2-y,z
8 1/2+x,y,1/2-z
_cell_length_a                   10.2063(6)
_cell_length_b                   26.4494(15)
_cell_length_c                   6.0198(4)
_cell_angle_alpha                90
_cell_angle_beta                 90
_cell_angle_gamma                90
_cell_volume                     1625.05
_exptl_crystal_colour            colorless
_cell_formula_units_Z            4
loop_
_atom_site_label
_atom_site_type_symbol
_atom_site_fract_x
_atom_site_fract_y
_atom_site_fract_z
O1 O 0.74057(12) 0.56176(4) 0.77972(19)
O2 O 0.87279(11) 0.58463(4) 1.12739(19)
C1 C 0.6560(2) 0.54425(7) 0.6083(3)
H1 H 0.5667 0.5460 0.6581
H2 H 0.6774 0.5099 0.5723
H3 H 0.6666 0.5650 0.4789
C2 C 0.71762(16) 0.60914(5) 0.8628(2)
C3 C 0.62960(16) 0.64337(5) 0.7788(2)
H4 H 0.5823 0.6351 0.6518
C4 C 0.60919(15) 0.69068(5) 0.8802(2)
C5 C 0.67935(15) 0.70234(5) 1.0723(2)
C6 C 0.6493(3) 0.7500 1.2000(4)
H5 H 0.6999 0.7500 1.3365
H6 H 0.5573 0.7500 1.2402
C7 C 0.77066(15) 0.66783(5) 1.1546(2)
H7 H 0.8192 0.6761 1.2800
C8 C 0.79035(15) 0.62164(5) 1.0537(2)
C9 C 0.94702(18) 0.59478(7) 1.3223(3)
H8 H 1.0044 0.6229 1.2958
H9 H 0.9980 0.5655 1.3603
H10 H 0.8888 0.6027 1.4426
C10 C 0.51158(16) 0.72470(6) 0.7834(3)
H11 H 0.4409 0.7093 0.7134
O1F O 0.74057(12) 0.93824(4) 0.77972(19)
O2F O 0.87279(11) 0.91537(4) 1.12739(19)
C1F C 0.6560(2) 0.95575(7) 0.6083(3)
H1F H 0.5667 0.9540 0.6581
H2F H 0.6774 0.9901 0.5723
H3F H 0.6666 0.9350 0.4789
C2F C 0.71762(16) 0.89086(5) 0.8628(2)
C3F C 0.62960(16) 0.85663(5) 0.7788(2)
H4F H 0.5823 0.8649 0.6518
C4F C 0.60919(15) 0.80932(5) 0.8802(2)
C5F C 0.67935(15) 0.79766(5) 1.0723(2)
C7F C 0.77066(15) 0.83217(5) 1.1546(2)
H7F H 0.8192 0.8239 1.2800
C8F C 0.79035(15) 0.87836(5) 1.0537(2)
C9F C 0.94702(18) 0.90522(7) 1.3223(3)
H8F H 1.0044 0.8771 1.2958
H9F H 0.9980 0.9345 1.3603
H10F H 0.8888 0.8973 1.4426
C10F C 0.51158(16) 0.77530(6) 0.7834(3)
H11F H 0.4409 0.7907 0.7134
loop_
_geom_bond_atom_site_label_1
_geom_bond_atom_site_label_2
_geom_bond_site_symmetry_1
_geom_bond_site_symmetry_2
O1 C1 1_555 1_555
O2 C8 1_555 1_555
C1 H1 1_555 1_555
H2 C1 1_555 1_555
H3 C1 1_555 1_555
C2 O1 1_555 1_555
C3 C2 1_555 1_555
H4 C3 1_555 1_555
C4 C3 1_555 1_555
C5 C4 1_555 1_555
C6 C5 1_555 1_555
H5 C6 1_555 1_555
H6 C6 1_555 1_555
C7 C5 1_555 1_555
H7 C7 1_555 1_555
C8 C2 1_555 1_555
C9 O2 1_555 1_555
H8 C9 1_555 1_555
H9 C9 1_555 1_555
H10 C9 1_555 1_555
C10 C4 1_555 1_555
H11 C10 1_555 1_555
O1F C1F 1_555 1_555
O2F C8F 1_555 1_555
C1F H1F 1_555 1_555
H2F C1F 1_555 1_555
H3F C1F 1_555 1_555
C2F O1F 1_555 1_555
C3F C2F 1_555 1_555
H4F C3F 1_555 1_555
C4F C3F 1_555 1_555
C5F C6 1_555 1_555
C7F C5F 1_555 1_555
H7F C7F 1_555 1_555
C8F C2F 1_555 1_555
C9F O2F 1_555 1_555
H8F C9F 1_555 1_555
H9F C9F 1_555 1_555
H10F C9F 1_555 1_555
C10F C10 1_555 1_555
H11F C10F 1_555 1_555
C7 C8 1_555 1_555
C4F C5F 1_555 1_555
C4F C10F 1_555 1_555
C7F C8F 1_555 1_555

#END
