
#######################################################################
#
#                 Cambridge Crystallographic Data Centre
#                                CCDC 
#
#######################################################################
#
# If this CIF has been generated from an entry in the Cambridge 
# Structural Database, then it will include bibliographic, chemical, 
# crystal, experimental, refinement or atomic coordinate data resulting 
# from the CCDC's data processing and validation procedures.
#
#######################################################################

data_KALCEH
_chemical_formula_moiety         'C20 H16 Cl2 N2 O4'
_chemical_name_systematic        
2,5-Dichloro-3,6-bis((2-(hydroxymethyl)phenyl)amino)-1,4-benzoquinone
_symmetry_cell_setting           triclinic
_symmetry_space_group_name_H-M   'P -1'
_symmetry_Int_Tables_number      2
_space_group_name_Hall           '-P 1'
loop_
_symmetry_equiv_pos_site_id
_symmetry_equiv_pos_as_xyz
1 x,y,z
2 -x,-y,-z
_cell_length_a                   4.6723(10)
_cell_length_b                   14.242(3)
_cell_length_c                   14.424(3)
_cell_angle_alpha                74.493(4)
_cell_angle_beta                 81.922(4)
_cell_angle_gamma                83.146(5)
_cell_volume                     912.329
_exptl_crystal_colour            black
_exptl_crystal_description       block
_cell_formula_units_Z            2
loop_
_atom_site_label
_atom_site_type_symbol
_atom_site_fract_x
_atom_site_fract_y
_atom_site_fract_z
C1 C 0.6813(4) 0.57039(11) -0.06390(12)
O1 O 0.8347(3) 0.62724(9) -0.12441(9)
C2 C 0.6523(4) 0.56161(11) 0.03749(12)
Cl1 Cl 0.85788(9) 0.63797(3) 0.07124(3)
C3 C 0.4837(4) 0.49549(11) 0.10208(11)
N1 N 0.4367(3) 0.47583(10) 0.19789(10)
H1 H 0.336(5) 0.4314(15) 0.2246(15)
C4 C 0.5180(4) 0.52488(11) 0.26340(11)
C5 C 0.6921(4) 0.47444(12) 0.33321(12)
C6 C 0.7996(4) 0.36802(13) 0.34291(15)
H2 H 0.6876 0.3261 0.3989
H3 H 0.7731 0.3488 0.2838
O2 O 1.0981(3) 0.35551(9) 0.35655(9)
H4 H 1.156(5) 0.2902(17) 0.3660(16)
C7 C 0.7585(5) 0.52297(14) 0.39772(15)
H5 H 0.8823 0.4901 0.4454
C8 C 0.6488(5) 0.61814(15) 0.39434(14)
H6 H 0.6992 0.6503 0.4388
C9 C 0.4669(4) 0.66612(13) 0.32658(14)
H7 H 0.3862 0.7309 0.3252
C10 C 0.4020(4) 0.61982(13) 0.26064(14)
H8 H 0.2777 0.6529 0.2132
C1A C 0.3187(4) 0.42961(11) 0.06390(12)
O1A O 0.1653(3) 0.37276(9) 0.12441(9)
C2A C 0.3477(4) 0.43839(11) -0.03749(12)
Cl1A Cl 0.14212(9) 0.36203(3) -0.07124(3)
C3A C 0.5163(4) 0.50451(11) -0.10208(11)
N1A N 0.5633(3) 0.52417(10) -0.19789(10)
H1A H 0.664(5) 0.5686(15) -0.2246(15)
C4A C 0.4820(4) 0.47512(11) -0.26340(11)
C5A C 0.3079(4) 0.52556(12) -0.33321(12)
C6A C 0.2004(4) 0.63198(13) -0.34291(15)
H2A H 0.3124 0.6739 -0.3989
H3A H 0.2269 0.6512 -0.2838
O2A O -0.0981(3) 0.64449(9) -0.35655(9)
H4A H -0.156(5) 0.7098(17) -0.3660(16)
C7A C 0.2415(5) 0.47703(14) -0.39772(15)
H5A H 0.1177 0.5099 -0.4454
C8A C 0.3512(5) 0.38186(15) -0.39434(14)
H6A H 0.3008 0.3497 -0.4388
C9A C 0.5331(4) 0.33388(13) -0.32658(14)
H7A H 0.6138 0.2691 -0.3252
C10A C 0.5980(4) 0.38018(13) -0.26064(14)
H8A H 0.7223 0.3471 -0.2132
C11 C 0.5815(4) 0.90990(11) 0.56648(11)
O3 O 0.6359(3) 0.83357(8) 0.62824(9)
C12 C 0.7310(3) 0.93344(11) 0.47112(11)
Cl2 Cl 1.02607(9) 0.85296(3) 0.45004(3)
C13 C 0.6527(3) 1.01705(11) 0.40321(11)
N2 N 0.7579(3) 1.04708(11) 0.31005(10)
H9 H 0.710(5) 1.1036(15) 0.2853(15)
C14 C 0.8843(4) 0.99196(12) 0.24414(11)
C15 C 1.0771(4) 1.03641(14) 0.16629(13)
C16 C 1.1486(4) 1.13991(14) 0.15353(15)
H10 H 1.2463 1.1441 0.2087
H11 H 1.2806 1.1609 0.0932
O4 O 0.8850(3) 1.20126(10) 0.14878(10)
H12 H 0.926(6) 1.2523(18) 0.1424(19)
C17 C 1.1891(6) 0.98377(17) 0.09990(16)
H13 H 1.3195 1.0130 0.0460
C18 C 1.1181(6) 0.89012(16) 0.10910(16)
H14 H 1.2060 0.8546 0.0639
C19 C 0.9196(5) 0.84869(14) 0.18407(14)
H15 H 0.8638 0.7853 0.1895
C20 C 0.8010(4) 0.89976(13) 0.25180(13)
H16 H 0.6625 0.8715 0.3035
C11A C 0.4185(4) 1.09010(11) 0.43352(11)
O3A O 0.3641(3) 1.16643(8) 0.37176(9)
C12A C 0.2690(3) 1.06656(11) 0.52888(11)
Cl2A Cl -0.02607(9) 1.14704(3) 0.54996(3)
C13A C 0.3473(3) 0.98295(11) 0.59679(11)
N2A N 0.2421(3) 0.95292(11) 0.68995(10)
H9A H 0.290(5) 0.8964(15) 0.7147(15)
C14A C 0.1157(4) 1.00804(12) 0.75586(11)
C15A C -0.0771(4) 0.96359(14) 0.83371(13)
C16A C -0.1486(4) 0.86009(14) 0.84647(15)
H10A H -0.2463 0.8559 0.7913
H11A H -0.2806 0.8391 0.9068
O4A O 0.1150(3) 0.79874(10) 0.85122(10)
H12A H 0.074(6) 0.7477(18) 0.8576(19)
C17A C -0.1891(6) 1.01623(17) 0.90010(16)
H13A H -0.3195 0.9870 0.9540
C18A C -0.1181(6) 1.10988(16) 0.89090(16)
H14A H -0.2060 1.1454 0.9361
C19A C 0.0804(5) 1.15131(14) 0.81593(14)
H15A H 0.1362 1.2147 0.8105
C20A C 0.1990(4) 1.10024(13) 0.74820(13)
H16A H 0.3375 1.1285 0.6965
loop_
_geom_bond_atom_site_label_1
_geom_bond_atom_site_label_2
_geom_bond_site_symmetry_1
_geom_bond_site_symmetry_2
C1 O1 1_555 1_555
C2 C1 1_555 1_555
Cl1 C2 1_555 1_555
C3 C2 1_555 1_555
N1 C3 1_555 1_555
H1 N1 1_555 1_555
C4 N1 1_555 1_555
C5 C4 1_555 1_555
C6 C5 1_555 1_555
H2 C6 1_555 1_555
H3 C6 1_555 1_555
O2 C6 1_555 1_555
H4 O2 1_555 1_555
C7 C5 1_555 1_555
H5 C7 1_555 1_555
C8 C7 1_555 1_555
H6 C8 1_555 1_555
C9 C8 1_555 1_555
H7 C9 1_555 1_555
C10 C4 1_555 1_555
H8 C10 1_555 1_555
C11 O3 1_555 1_555
C12 C11 1_555 1_555
Cl2 C12 1_555 1_555
C13 C12 1_555 1_555
N2 C13 1_555 1_555
H9 N2 1_555 1_555
C14 N2 1_555 1_555
C15 C14 1_555 1_555
C16 C15 1_555 1_555
H10 C16 1_555 1_555
H11 C16 1_555 1_555
O4 C16 1_555 1_555
H12 O4 1_555 1_555
C17 C15 1_555 1_555
H13 C17 1_555 1_555
C18 C17 1_555 1_555
H14 C18 1_555 1_555
C19 C18 1_555 1_555
H15 C19 1_555 1_555
C20 C14 1_555 1_555
H16 C20 1_555 1_555
C1A C3 1_555 1_555
O1A C1A 1_555 1_555
C2A C1A 1_555 1_555
Cl1A C2A 1_555 1_555
C3A C1 1_555 1_555
N1A C3A 1_555 1_555
H1A N1A 1_555 1_555
C4A N1A 1_555 1_555
C5A C4A 1_555 1_555
C6A C5A 1_555 1_555
H2A C6A 1_555 1_555
H3A C6A 1_555 1_555
O2A C6A 1_555 1_555
H4A O2A 1_555 1_555
C7A C5A 1_555 1_555
H5A C7A 1_555 1_555
C8A C7A 1_555 1_555
H6A C8A 1_555 1_555
C9A C8A 1_555 1_555
H7A C9A 1_555 1_555
C10A C4A 1_555 1_555
H8A C10A 1_555 1_555
C11A C13 1_555 1_555
O3A C11A 1_555 1_555
C12A C11A 1_555 1_555
Cl2A C12A 1_555 1_555
C13A C11 1_555 1_555
N2A C13A 1_555 1_555
H9A N2A 1_555 1_555
C14A N2A 1_555 1_555
C15A C14A 1_555 1_555
C16A C15A 1_555 1_555
H10A C16A 1_555 1_555
H11A C16A 1_555 1_555
O4A C16A 1_555 1_555
H12A O4A 1_555 1_555
C17A C15A 1_555 1_555
H13A C17A 1_555 1_555
C18A C17A 1_555 1_555
H14A C18A 1_555 1_555
C19A C18A 1_555 1_555
H15A C19A 1_555 1_555
C20A C14A 1_555 1_555
H16A C20A 1_555 1_555
C9 C10 1_555 1_555
C19 C20 1_555 1_555
C2A C3A 1_555 1_555
C9A C10A 1_555 1_555
C12A C13A 1_555 1_555
C19A C20A 1_555 1_555

#END
