
#######################################################################
#
#                 Cambridge Crystallographic Data Centre
#                                CCDC 
#
#######################################################################
#
# If this CIF has been generated from an entry in the Cambridge 
# Structural Database, then it will include bibliographic, chemical, 
# crystal, experimental, refinement or atomic coordinate data resulting 
# from the CCDC's data processing and validation procedures.
#
#######################################################################

data_KALCOR
_chemical_formula_moiety         'C18 H24 Cl2 N2 O6'
_chemical_name_systematic        
"Diethyl 4,4'-((2,5-dichloro-3,6-dioxocyclohexa-1,4-diene-1,4-diyl)diimino)dibutanoate"
_symmetry_cell_setting           triclinic
_symmetry_space_group_name_H-M   'P -1'
_symmetry_Int_Tables_number      2
_space_group_name_Hall           '-P 1'
loop_
_symmetry_equiv_pos_site_id
_symmetry_equiv_pos_as_xyz
1 x,y,z
2 -x,-y,-z
_cell_length_a                   4.5376(2)
_cell_length_b                   7.5416(3)
_cell_length_c                   14.7862(5)
_cell_angle_alpha                91.133(3)
_cell_angle_beta                 90.018(3)
_cell_angle_gamma                102.172(3)
_cell_volume                     494.518
_exptl_crystal_colour            red
_exptl_crystal_description       rod
_cell_formula_units_Z            1
loop_
_atom_site_label
_atom_site_type_symbol
_atom_site_fract_x
_atom_site_fract_y
_atom_site_fract_z
C1 C -0.0847(3) 0.31300(15) 0.47180(8)
O1 O -0.1519(2) 0.14942(11) 0.45332(6)
C2 C -0.2106(3) 0.44457(15) 0.42604(8)
Cl1 Cl -0.45751(6) 0.35616(3) 0.338869(18)
C3 C -0.1423(3) 0.62568(15) 0.45130(8)
N1 N -0.2434(2) 0.76540(13) 0.41927(7)
H1 H -0.164(4) 0.867(2) 0.4466(11)
C4 C -0.4472(3) 0.77500(16) 0.34377(8)
H2 H -0.5437 0.8798 0.3539
H3 H -0.6084 0.6637 0.3420
C5 C -0.2855(3) 0.79447(16) 0.25262(8)
H4 H -0.1677 0.6985 0.2458
H5 H -0.4371 0.7773 0.2033
C6 C -0.0748(3) 0.97972(16) 0.24402(8)
H6 H -0.1959 1.0747 0.2456
H7 H 0.0641 1.0012 0.2966
C7 C 0.1078(3) 0.99693(17) 0.15835(8)
O2 O 0.0998(2) 0.87957(14) 0.10142(7)
O3 O 0.2857(2) 1.16276(13) 0.15390(6)
C8 C 0.4718(3) 1.1980(2) 0.07300(9)
H8 H 0.3428 1.1963 0.0188
H9 H 0.5925 1.1039 0.0647
C9 C 0.6738(4) 1.3798(2) 0.08548(12)
H10 H 0.5519 1.4717 0.0941
H11 H 0.8004 1.4081 0.0318
H12 H 0.8023 1.3794 0.1387
C1A C 0.0847(3) 0.68700(15) 0.52820(8)
O1A O 0.1519(2) 0.85058(11) 0.54668(6)
C2A C 0.2106(3) 0.55543(15) 0.57396(8)
Cl1A Cl 0.45751(6) 0.64384(3) 0.661131(18)
C3A C 0.1423(3) 0.37432(15) 0.54870(8)
N1A N 0.2434(2) 0.23460(13) 0.58073(7)
H1A H 0.164(4) 0.133(2) 0.5534(11)
C4A C 0.4472(3) 0.22500(16) 0.65623(8)
H2A H 0.5437 0.1202 0.6461
H3A H 0.6084 0.3363 0.6580
C5A C 0.2855(3) 0.20553(16) 0.74738(8)
H4A H 0.1677 0.3015 0.7542
H5A H 0.4371 0.2227 0.7967
C6A C 0.0748(3) 0.02028(16) 0.75598(8)
H6A H 0.1959 -0.0747 0.7544
H7A H -0.0641 -0.0012 0.7034
C7A C -0.1078(3) 0.00307(17) 0.84165(8)
O2A O -0.0998(2) 0.12043(14) 0.89858(7)
O3A O -0.2857(2) -0.16276(13) 0.84610(6)
C8A C -0.4718(3) -0.1980(2) 0.92700(9)
H8A H -0.3428 -0.1963 0.9812
H9A H -0.5925 -0.1039 0.9353
C9A C -0.6738(4) -0.3798(2) 0.91452(12)
H10A H -0.5519 -0.4717 0.9059
H11A H -0.8004 -0.4081 0.9682
H12A H -0.8023 -0.3794 0.8613
loop_
_geom_bond_atom_site_label_1
_geom_bond_atom_site_label_2
_geom_bond_site_symmetry_1
_geom_bond_site_symmetry_2
C1 O1 1_555 1_555
C2 C1 1_555 1_555
Cl1 C2 1_555 1_555
C3 C2 1_555 1_555
N1 C3 1_555 1_555
H1 N1 1_555 1_555
C4 N1 1_555 1_555
H2 C4 1_555 1_555
H3 C4 1_555 1_555
C5 C4 1_555 1_555
H4 C5 1_555 1_555
H5 C5 1_555 1_555
C6 C5 1_555 1_555
H6 C6 1_555 1_555
H7 C6 1_555 1_555
C7 C6 1_555 1_555
O2 C7 1_555 1_555
O3 C7 1_555 1_555
C8 O3 1_555 1_555
H8 C8 1_555 1_555
H9 C8 1_555 1_555
C9 C8 1_555 1_555
H10 C9 1_555 1_555
H11 C9 1_555 1_555
H12 C9 1_555 1_555
C1A C3 1_555 1_555
O1A C1A 1_555 1_555
C2A C1A 1_555 1_555
Cl1A C2A 1_555 1_555
C3A C1 1_555 1_555
N1A C3A 1_555 1_555
H1A N1A 1_555 1_555
C4A N1A 1_555 1_555
H2A C4A 1_555 1_555
H3A C4A 1_555 1_555
C5A C4A 1_555 1_555
H4A C5A 1_555 1_555
H5A C5A 1_555 1_555
C6A C5A 1_555 1_555
H6A C6A 1_555 1_555
H7A C6A 1_555 1_555
C7A C6A 1_555 1_555
O2A C7A 1_555 1_555
O3A C7A 1_555 1_555
C8A O3A 1_555 1_555
H8A C8A 1_555 1_555
H9A C8A 1_555 1_555
C9A C8A 1_555 1_555
H10A C9A 1_555 1_555
H11A C9A 1_555 1_555
H12A C9A 1_555 1_555
C2A C3A 1_555 1_555

#END
