
#######################################################################
#
#                 Cambridge Crystallographic Data Centre
#                                CCDC 
#
#######################################################################
#
# If this CIF has been generated from an entry in the Cambridge 
# Structural Database, then it will include bibliographic, chemical, 
# crystal, experimental, refinement or atomic coordinate data resulting 
# from the CCDC's data processing and validation procedures.
#
#######################################################################

data_KALDAF
_chemical_formula_moiety         'C15 H10 F3 N3 O3 S1,0.5(C2 H6 O1)'
_chemical_name_systematic        
'4-nitro-N-((4-(trifluoromethyl)phenyl)carbamothioyl)benzamide ethanol solvate'
_symmetry_cell_setting           monoclinic
_symmetry_space_group_name_H-M   'C 2/c'
_symmetry_Int_Tables_number      15
_space_group_name_Hall           '-C 2yn'
loop_
_symmetry_equiv_pos_site_id
_symmetry_equiv_pos_as_xyz
1 x,y,z
2 -x,y,1/2-z
3 1/2+x,1/2+y,z
4 1/2-x,1/2+y,1/2-z
5 -x,-y,-z
6 x,-y,1/2+z
7 1/2-x,1/2-y,-z
8 1/2+x,1/2-y,1/2+z
_cell_length_a                   30.380(7)
_cell_length_b                   7.5658(17)
_cell_length_c                   15.421(3)
_cell_angle_alpha                90
_cell_angle_beta                 102.474(4)
_cell_angle_gamma                90
_cell_volume                     3460.83
_exptl_crystal_colour            colorless
_exptl_crystal_description       block
_cell_formula_units_Z            8
loop_
_atom_site_label
_atom_site_type_symbol
_atom_site_fract_x
_atom_site_fract_y
_atom_site_fract_z
O4 O 0.4940(5) 1.0962(10) 0.7761(5)
H11 H 0.5029 1.1499 0.7369
C16 C 0.4891(3) 0.9150(14) 0.7535(12)
H12 H 0.4630 0.9010 0.7051
H13 H 0.4832 0.8501 0.8041
C17 C 0.5281(4) 0.8372(16) 0.7274(9)
H14 H 0.5298 0.8797 0.6696
H15 H 0.5252 0.7108 0.7258
H16 H 0.5550 0.8697 0.7695
O4A O 0.5060(5) 1.0962(10) 0.7239(5)
H11A H 0.4971 1.1499 0.7631
C16A C 0.5109(3) 0.9150(14) 0.7465(12)
H12A H 0.5370 0.9010 0.7949
H13A H 0.5168 0.8501 0.6959
C17A C 0.4719(4) 0.8372(16) 0.7726(9)
H14A H 0.4702 0.8797 0.8304
H15A H 0.4748 0.7108 0.7742
H16A H 0.4450 0.8697 0.7305
S1 S 0.44453(4) 0.10452(18) 0.51883(8)
N1 N 0.42372(13) 0.3895(5) 1.0601(2)
F1 F 0.30752(11) 0.1042(5) 0.08498(18)
N2 N 0.35863(12) 0.2061(5) 0.5036(2)
H1 H 0.3393 0.2424 0.5328
O1 O 0.33175(10) 0.2883(5) 0.65015(18)
O2 O 0.39521(11) 0.3706(5) 1.1031(2)
N3 N 0.40313(11) 0.2084(4) 0.6437(2)
H2 H 0.4293 0.1894 0.6770
C1 C 0.34172(14) 0.1890(5) 0.4109(2)
C2 C 0.41075(14) 0.3579(5) 0.9635(2)
C3 C 0.38693(14) 0.2983(5) 0.7847(2)
C4 C 0.44173(15) 0.3851(6) 0.9126(3)
H3 H 0.4707 0.4225 0.9386
C5 C 0.36763(14) 0.3019(6) 0.9272(3)
H4 H 0.3470 0.2833 0.9629
O3 O 0.46175(12) 0.4360(5) 1.0920(2)
C6 C 0.30199(14) 0.1678(5) 0.2312(2)
C7 C 0.37134(15) 0.2662(5) 0.6871(3)
C8 C 0.35576(13) 0.2741(6) 0.8375(3)
H5 H 0.3266 0.2387 0.8117
C9 C 0.28102(17) 0.1614(6) 0.1355(3)
C10 C 0.39975(15) 0.1752(5) 0.5530(3)
C11 C 0.34671(16) 0.2045(6) 0.2590(3)
H6 H 0.3640 0.2233 0.2168
C12 C 0.29622(14) 0.1497(6) 0.3827(3)
H7 H 0.2789 0.1303 0.4247
C13 C 0.36714(15) 0.2146(6) 0.3479(3)
H8 H 0.3978 0.2385 0.3652
C14 C 0.42967(15) 0.3567(6) 0.8229(3)
H9 H 0.4504 0.3769 0.7876
C15 C 0.27627(15) 0.1388(6) 0.2937(3)
H10 H 0.2458 0.1122 0.2758
F2 F 0.2678(2) 0.3120(6) 0.1025(2)
F3 F 0.24594(13) 0.0597(8) 0.1151(2)
loop_
_geom_bond_atom_site_label_1
_geom_bond_atom_site_label_2
_geom_bond_site_symmetry_1
_geom_bond_site_symmetry_2
S1 C10 1_555 1_555
N1 O2 1_555 1_555
F1 C9 1_555 1_555
N2 H1 1_555 1_555
O1 C7 1_555 1_555
N3 H2 1_555 1_555
C1 N2 1_555 1_555
C2 N1 1_555 1_555
C3 C7 1_555 1_555
C4 C2 1_555 1_555
H3 C4 1_555 1_555
C5 C2 1_555 1_555
H4 C5 1_555 1_555
O3 N1 1_555 1_555
C6 C9 1_555 1_555
C7 N3 1_555 1_555
C8 C3 1_555 1_555
H5 C8 1_555 1_555
C9 F2 1_555 1_555
C10 N2 1_555 1_555
C11 C6 1_555 1_555
H6 C11 1_555 1_555
C12 C1 1_555 1_555
H7 C12 1_555 1_555
C13 C1 1_555 1_555
H8 C13 1_555 1_555
C14 C3 1_555 1_555
H9 C14 1_555 1_555
C15 C6 1_555 1_555
H10 C15 1_555 1_555
F3 C9 1_555 1_555
O4 H11 1_555 1_555
C16 O4 1_555 1_555
H12 C16 1_555 1_555
H13 C16 1_555 1_555
C17 C16 1_555 1_555
H14 C17 1_555 1_555
H15 C17 1_555 1_555
H16 C17 1_555 1_555
O4A O4 1_555 1_555
H11A O4A 1_555 1_555
C16A O4 1_555 1_555
H12A C17 1_555 1_555
H13A C16A 1_555 1_555
C17A C16 1_555 1_555
H14A C17A 1_555 1_555
H15A C17A 1_555 1_555
H16A C16 1_555 1_555
N3 C10 1_555 1_555
C4 C14 1_555 1_555
C5 C8 1_555 1_555
C11 C13 1_555 1_555
C12 C15 1_555 1_555
C16 O4A 1_555 1_555
C16 C16A 1_555 1_555
H12 C17A 1_555 1_555
C17 C16A 1_555 1_555
H16 C16A 1_555 1_555
O4A C16A 1_555 1_555
C16A H12A 1_555 1_555
C16A C17A 1_555 1_555
C17A H16A 1_555 1_555

#END
