
#######################################################################
#
#                 Cambridge Crystallographic Data Centre
#                                CCDC 
#
#######################################################################
#
# If this CIF has been generated from an entry in the Cambridge 
# Structural Database, then it will include bibliographic, chemical, 
# crystal, experimental, refinement or atomic coordinate data resulting 
# from the CCDC's data processing and validation procedures.
#
#######################################################################

data_KALDIN
_chemical_formula_moiety         'C34 H25 N1 O3'
_chemical_name_systematic        
'ethyl (2,6-bis(2-(1-naphthyl)vinyl)-4H-pyran-4-ylidene)(cyano)acetate'
_symmetry_cell_setting           monoclinic
_symmetry_space_group_name_H-M   'P 21/c'
_symmetry_Int_Tables_number      14
_space_group_name_Hall           '-P 2ybc'
loop_
_symmetry_equiv_pos_site_id
_symmetry_equiv_pos_as_xyz
1 x,y,z
2 -x,1/2+y,1/2-z
3 -x,-y,-z
4 x,1/2-y,1/2+z
_cell_length_a                   12.11430(10)
_cell_length_b                   23.3545(3)
_cell_length_c                   9.56030(10)
_cell_angle_alpha                90
_cell_angle_beta                 107.4520(10)
_cell_angle_gamma                90
_cell_volume                     2580.33
_exptl_crystal_colour            yellow
_exptl_crystal_description       Prism
_cell_formula_units_Z            4
loop_
_atom_site_label
_atom_site_type_symbol
_atom_site_fract_x
_atom_site_fract_y
_atom_site_fract_z
O1 O 0.16337(10) 0.02751(5) 0.72077(15)
O2 O 0.43315(17) 0.20456(8) 0.8912(2)
O3 O 0.56721(16) 0.21062(8) 0.7764(2)
N1 N 0.56667(18) 0.09839(9) 0.5579(3)
C1 C -0.19234(16) 0.03646(8) 0.8862(2)
C2 C -0.21197(17) -0.01070(10) 0.7889(3)
H1 H -0.1558 -0.0207 0.7451
C3 C -0.3116(2) -0.04160(11) 0.7582(3)
H2 H -0.3227 -0.0722 0.6932
C4 C -0.3979(2) -0.02795(12) 0.8231(3)
H3 H -0.4651 -0.0498 0.8027
C5 C -0.38285(19) 0.01694(11) 0.9151(3)
H4 H -0.4406 0.0261 0.9572
C6 C -0.28099(17) 0.05058(9) 0.9495(2)
C7 C -0.2670(2) 0.09748(11) 1.0445(3)
H5 H -0.3251 0.1065 1.0861
C8 C -0.1698(2) 0.12989(12) 1.0765(3)
H6 H -0.1622 0.1614 1.1382
C9 C -0.0815(2) 0.11622(11) 1.0174(3)
H7 H -0.0148 0.1385 1.0424
C10 C -0.08955(16) 0.07066(9) 0.9228(2)
C11 C 0.00380(16) 0.05824(9) 0.8597(2)
H8 H -0.0028 0.0244 0.8066
C12 C 0.09665(16) 0.08972(9) 0.8698(2)
H9 H 0.1059 0.1229 0.9258
C13 C 0.18436(15) 0.07699(8) 0.8015(2)
C14 C 0.27679(15) 0.11022(8) 0.8090(2)
H10 H 0.2889 0.1430 0.8668
C15 C 0.35650(15) 0.09640(8) 0.7307(2)
C16 C 0.33240(15) 0.04385(8) 0.6507(2)
H11 H 0.3820 0.0317 0.5990
C17 C 0.23945(14) 0.01134(8) 0.6482(2)
C18 C 0.21012(16) -0.04182(8) 0.5694(2)
H12 H 0.2597 -0.0551 0.5189
C19 C 0.11752(15) -0.07336(8) 0.5635(2)
H13 H 0.0685 -0.0596 0.6143
C20 C 0.08479(16) -0.12747(8) 0.4854(2)
C21 C 0.15003(17) -0.15003(9) 0.4029(2)
H14 H 0.2172 -0.1312 0.4010
C22 C 0.1181(2) -0.20034(10) 0.3223(3)
H15 H 0.1639 -0.2145 0.2677
C23 C 0.0208(2) -0.22869(10) 0.3229(3)
H16 H -0.0004 -0.2617 0.2669
C24 C -0.04856(17) -0.20888(8) 0.4071(2)
C25 C -0.01768(15) -0.15736(8) 0.4900(2)
C26 C -0.09138(16) -0.13880(8) 0.5708(2)
H17 H -0.0734 -0.1053 0.6257
C27 C -0.18825(18) -0.16865(9) 0.5704(2)
H18 H -0.2350 -0.1552 0.6247
C28 C -0.21814(19) -0.21922(10) 0.4892(3)
H19 H -0.2841 -0.2395 0.4897
C29 C -0.1503(2) -0.23825(10) 0.4104(3)
H20 H -0.1708 -0.2718 0.3563
C30 C 0.44907(15) 0.13093(8) 0.7259(2)
C31 C 0.51585(17) 0.11397(9) 0.6338(3)
C32 C 0.47927(18) 0.18497(10) 0.8065(3)
C33 C 0.6097(3) 0.26306(13) 0.8567(4)
H21 H 0.6936 0.2636 0.8871
H22 H 0.5844 0.2651 0.9437
C34 C 0.5633(6) 0.31300(15) 0.7588(4)
H23 H 0.5481 0.3016 0.6583
H24 H 0.6192 0.3434 0.7805
H25 H 0.4929 0.3260 0.7747
loop_
_geom_bond_atom_site_label_1
_geom_bond_atom_site_label_2
_geom_bond_site_symmetry_1
_geom_bond_site_symmetry_2
O1 C13 1_555 1_555
O2 C32 1_555 1_555
O3 C32 1_555 1_555
N1 C31 1_555 1_555
C1 C2 1_555 1_555
C2 H1 1_555 1_555
C3 C2 1_555 1_555
H2 C3 1_555 1_555
C4 C3 1_555 1_555
H3 C4 1_555 1_555
C5 C4 1_555 1_555
H4 C5 1_555 1_555
C6 C1 1_555 1_555
C7 C6 1_555 1_555
H5 C7 1_555 1_555
C8 C7 1_555 1_555
H6 C8 1_555 1_555
C9 C8 1_555 1_555
H7 C9 1_555 1_555
C10 C1 1_555 1_555
C11 C10 1_555 1_555
H8 C11 1_555 1_555
C12 C11 1_555 1_555
H9 C12 1_555 1_555
C13 C12 1_555 1_555
C14 C13 1_555 1_555
H10 C14 1_555 1_555
C15 C14 1_555 1_555
C16 C15 1_555 1_555
H11 C16 1_555 1_555
C17 O1 1_555 1_555
C18 C17 1_555 1_555
H12 C18 1_555 1_555
C19 C18 1_555 1_555
H13 C19 1_555 1_555
C20 C19 1_555 1_555
C21 C20 1_555 1_555
H14 C21 1_555 1_555
C22 C21 1_555 1_555
H15 C22 1_555 1_555
C23 C22 1_555 1_555
H16 C23 1_555 1_555
C24 C23 1_555 1_555
C25 C20 1_555 1_555
C26 C25 1_555 1_555
H17 C26 1_555 1_555
C27 C26 1_555 1_555
H18 C27 1_555 1_555
C28 C27 1_555 1_555
H19 C28 1_555 1_555
C29 C24 1_555 1_555
H20 C29 1_555 1_555
C30 C15 1_555 1_555
C31 C30 1_555 1_555
C32 C30 1_555 1_555
C33 O3 1_555 1_555
H21 C33 1_555 1_555
H22 C33 1_555 1_555
C34 C33 1_555 1_555
H23 C34 1_555 1_555
H24 C34 1_555 1_555
H25 C34 1_555 1_555
C5 C6 1_555 1_555
C9 C10 1_555 1_555
C16 C17 1_555 1_555
C24 C25 1_555 1_555
C28 C29 1_555 1_555

#END
