
#######################################################################
#
#                 Cambridge Crystallographic Data Centre
#                                CCDC 
#
#######################################################################
#
# If this CIF has been generated from an entry in the Cambridge 
# Structural Database, then it will include bibliographic, chemical, 
# crystal, experimental, refinement or atomic coordinate data resulting 
# from the CCDC's data processing and validation procedures.
#
#######################################################################

data_KALFUB
_chemical_formula_moiety         'C34 H25 N1 O3'
_chemical_name_systematic        
'ethyl (2,6-bis(2-(2-naphthyl)vinyl)-4H-pyran-4-ylidene)(cyano)acetate'
_symmetry_cell_setting           monoclinic
_symmetry_space_group_name_H-M   'P 21/c'
_symmetry_Int_Tables_number      14
_space_group_name_Hall           '-P 2ybc'
loop_
_symmetry_equiv_pos_site_id
_symmetry_equiv_pos_as_xyz
1 x,y,z
2 -x,1/2+y,1/2-z
3 -x,-y,-z
4 x,1/2-y,1/2+z
_cell_length_a                   27.0264(16)
_cell_length_b                   26.0048(17)
_cell_length_c                   7.6159(5)
_cell_angle_alpha                90
_cell_angle_beta                 83.362(4)
_cell_angle_gamma                90
_cell_volume                     5316.7
_exptl_crystal_colour            green
_exptl_crystal_description       prismatic
_cell_formula_units_Z            8
loop_
_atom_site_label
_atom_site_type_symbol
_atom_site_fract_x
_atom_site_fract_y
_atom_site_fract_z
N1 N 0.5414(3) 0.8163(3) 0.6204(10)
O1 O 0.72907(18) 0.7764(3) 0.2039(6)
O2 O 0.5979(2) 0.6473(3) 0.5224(7)
O3 O 0.5304(2) 0.6907(2) 0.6491(7)
C1 C 0.8398(4) 0.9795(5) -0.0794(10)
C2 C 0.8863(4) 0.9846(4) -0.1814(13)
H1 H 0.9031 0.9553 -0.2256
C3 C 0.9075(4) 1.0326(5) -0.2172(14)
H2 H 0.9385 1.0355 -0.2831
C4 C 0.8821(5) 1.0757(5) -0.1542(14)
H3 H 0.8961 1.1079 -0.1791
C5 C 0.8377(4) 1.0723(4) -0.0578(12)
H4 H 0.8215 1.1022 -0.0164
C6 C 0.8144(4) 1.0237(4) -0.0169(11)
C7 C 0.7677(3) 1.0188(4) 0.0830(10)
H5 H 0.7500 1.0481 0.1211
C8 C 0.7481(3) 0.9719(4) 0.1249(10)
H6 H 0.7169 0.9695 0.1905
C9 C 0.7741(3) 0.9272(4) 0.0706(10)
C10 C 0.8180(3) 0.9320(3) -0.0335(10)
H7 H 0.8344 0.9023 -0.0764
C11 C 0.7551(3) 0.8776(3) 0.1195(9)
H8 H 0.7748 0.8501 0.0756
C12 C 0.7131(3) 0.8649(3) 0.2193(9)
H9 H 0.6924 0.8917 0.2615
C13 C 0.6965(3) 0.8133(4) 0.2685(9)
C14 C 0.6543(3) 0.8015(3) 0.3668(9)
H10 H 0.6336 0.8281 0.4113
C15 C 0.6392(3) 0.7499(4) 0.4079(9)
C16 C 0.6752(3) 0.7115(3) 0.3363(9)
H11 H 0.6685 0.6768 0.3569
C17 C 0.7174(3) 0.7253(4) 0.2422(10)
C18 C 0.7551(3) 0.6906(3) 0.1626(10)
H12 H 0.7507 0.6556 0.1843
C19 C 0.7961(3) 0.7054(3) 0.0593(10)
H13 H 0.8000 0.7406 0.0410
C20 C 0.8353(3) 0.6727(4) -0.0275(11)
C21 C 0.8767(4) 0.6955(4) -0.1237(13)
H14 H 0.8783 0.7311 -0.1344
C22 C 0.9150(4) 0.6661(5) -0.2020(13)
H15 H 0.9434 0.6825 -0.2554
C23 C 0.9132(4) 0.6112(5) -0.2054(12)
C24 C 0.8702(4) 0.5893(5) -0.1140(11)
C25 C 0.8325(3) 0.6205(4) -0.0298(10)
H16 H 0.8042 0.6048 0.0273
C26 C 0.9534(4) 0.5808(5) -0.2829(15)
H17 H 0.9826 0.5961 -0.3346
C27 C 0.9486(4) 0.5303(5) -0.2806(14)
H18 H 0.9742 0.5101 -0.3362
C28 C 0.9063(4) 0.5066(4) -0.1969(14)
H19 H 0.9040 0.4709 -0.1925
C29 C 0.8675(3) 0.5366(5) -0.1205(11)
H20 H 0.8384 0.5205 -0.0713
C30 C 0.5946(3) 0.7380(4) 0.5052(10)
C31 C 0.5635(3) 0.7803(4) 0.5678(11)
C32 C 0.5757(4) 0.6862(5) 0.5576(11)
C33 C 0.5089(3) 0.6412(3) 0.7070(12)
H21 H 0.5291 0.6246 0.7877
H22 H 0.5066 0.6187 0.6067
C34 C 0.4569(3) 0.6536(4) 0.8004(11)
H23 H 0.4592 0.6815 0.8816
H24 H 0.4436 0.6239 0.8639
H25 H 0.4354 0.6632 0.7141
N2 N 0.0387(3) 0.6860(4) 0.5618(13)
O4 O 0.22820(18) 0.7322(3) 0.1817(6)
O5 O 0.0923(3) 0.8563(3) 0.5130(9)
O6 O 0.0235(2) 0.8087(3) 0.6066(8)
C35 C 0.3405(4) 0.5196(4) -0.0327(10)
C36 C 0.3884(4) 0.5030(4) -0.0098(10)
H26 H 0.4095 0.5245 0.0446
C37 C 0.4046(4) 0.4555(5) -0.0663(13)
H27 H 0.4362 0.4441 -0.0474
C38 C 0.3730(5) 0.4240(4) -0.1535(13)
H28 H 0.3842 0.3921 -0.1965
C39 C 0.3265(4) 0.4398(4) -0.1751(10)
H29 H 0.3059 0.4184 -0.2324
C40 C 0.3087(4) 0.4879(4) -0.1125(10)
C41 C 0.2605(4) 0.5060(3) -0.1282(10)
H30 H 0.2393 0.4855 -0.1863
C42 C 0.2437(3) 0.5517(4) -0.0626(11)
H31 H 0.2112 0.5620 -0.0728
C43 C 0.2760(4) 0.5839(3) 0.0223(10)
C44 C 0.3235(3) 0.5676(4) 0.0323(10)
H32 H 0.3453 0.5891 0.0838
C45 C 0.2575(3) 0.6332(3) 0.1004(9)
H33 H 0.2813 0.6588 0.1070
C46 C 0.2111(3) 0.6456(3) 0.1622(9)
H34 H 0.1873 0.6197 0.1626
C47 C 0.1945(3) 0.6938(3) 0.2269(10)
C48 C 0.1506(3) 0.7046(3) 0.3171(9)
H35 H 0.1287 0.6776 0.3469
C49 C 0.1354(3) 0.7547(4) 0.3702(9)
C50 C 0.1708(3) 0.7953(3) 0.3107(9)
H36 H 0.1629 0.8297 0.3330
C51 C 0.2157(3) 0.7817(4) 0.2219(10)
C52 C 0.2547(3) 0.8185(3) 0.1582(10)
H37 H 0.2503 0.8531 0.1881
C53 C 0.2962(3) 0.8041(3) 0.0587(10)
H38 H 0.2986 0.7694 0.0293
C54 C 0.3385(3) 0.8363(4) -0.0098(10)
C55 C 0.3788(3) 0.8135(4) -0.1112(11)
H39 H 0.3777 0.7787 -0.1389
C56 C 0.4196(4) 0.8416(4) -0.1699(11)
H40 H 0.4466 0.8253 -0.2331
C57 C 0.4225(3) 0.8950(4) -0.1384(10)
C58 C 0.3809(3) 0.9177(4) -0.0419(10)
C59 C 0.3397(3) 0.8879(4) 0.0232(9)
H41 H 0.3128 0.9034 0.0899
C60 C 0.4653(4) 0.9228(5) -0.1994(11)
H42 H 0.4929 0.9067 -0.2602
C61 C 0.4652(3) 0.9743(5) -0.1665(12)
H43 H 0.4930 0.9935 -0.2089
C62 C 0.4240(4) 1.0000(3) -0.0695(11)
H44 H 0.4249 1.0351 -0.0466
C63 C 0.3837(3) 0.9711(4) -0.0125(10)
H45 H 0.3564 0.9874 0.0493
C64 C 0.0889(3) 0.7643(4) 0.4659(10)
C65 C 0.0578(4) 0.7219(5) 0.5209(13)
C66 C 0.0725(4) 0.8160(5) 0.5223(12)
C67 C 0.0007(4) 0.8575(4) 0.6798(14)
H46 H -0.0038 0.8820 0.5867
H47 H 0.0206 0.8732 0.7634
C68 C -0.0502(4) 0.8382(4) 0.7729(14)
H48 H -0.0728 0.8326 0.6861
H49 H -0.0639 0.8635 0.8565
H50 H -0.0454 0.8065 0.8334
loop_
_geom_bond_atom_site_label_1
_geom_bond_atom_site_label_2
_geom_bond_site_symmetry_1
_geom_bond_site_symmetry_2
N1 C31 1_555 1_555
O1 C13 1_555 1_555
O2 C32 1_555 1_555
O3 C32 1_555 1_555
C1 C2 1_555 1_555
C2 H1 1_555 1_555
C3 C2 1_555 1_555
H2 C3 1_555 1_555
C4 C3 1_555 1_555
H3 C4 1_555 1_555
C5 C4 1_555 1_555
H4 C5 1_555 1_555
C6 C1 1_555 1_555
C7 C6 1_555 1_555
H5 C7 1_555 1_555
C8 C7 1_555 1_555
H6 C8 1_555 1_555
C9 C8 1_555 1_555
C10 C1 1_555 1_555
H7 C10 1_555 1_555
C11 C9 1_555 1_555
H8 C11 1_555 1_555
C12 C11 1_555 1_555
H9 C12 1_555 1_555
C13 C12 1_555 1_555
C14 C13 1_555 1_555
H10 C14 1_555 1_555
C15 C14 1_555 1_555
C16 C15 1_555 1_555
H11 C16 1_555 1_555
C17 O1 1_555 1_555
C18 C17 1_555 1_555
H12 C18 1_555 1_555
C19 C18 1_555 1_555
H13 C19 1_555 1_555
C20 C19 1_555 1_555
C21 C20 1_555 1_555
H14 C21 1_555 1_555
C22 C21 1_555 1_555
H15 C22 1_555 1_555
C23 C22 1_555 1_555
C24 C23 1_555 1_555
C25 C20 1_555 1_555
H16 C25 1_555 1_555
C26 C23 1_555 1_555
H17 C26 1_555 1_555
C27 C26 1_555 1_555
H18 C27 1_555 1_555
C28 C27 1_555 1_555
H19 C28 1_555 1_555
C29 C24 1_555 1_555
H20 C29 1_555 1_555
C30 C15 1_555 1_555
C31 C30 1_555 1_555
C32 C30 1_555 1_555
C33 O3 1_555 1_555
H21 C33 1_555 1_555
H22 C33 1_555 1_555
C34 C33 1_555 1_555
H23 C34 1_555 1_555
H24 C34 1_555 1_555
H25 C34 1_555 1_555
N2 C65 1_555 1_555
O4 C47 1_555 1_555
O5 C66 1_555 1_555
O6 C66 1_555 1_555
C35 C36 1_555 1_555
C36 H26 1_555 1_555
C37 C36 1_555 1_555
H27 C37 1_555 1_555
C38 C37 1_555 1_555
H28 C38 1_555 1_555
C39 C38 1_555 1_555
H29 C39 1_555 1_555
C40 C35 1_555 1_555
C41 C40 1_555 1_555
H30 C41 1_555 1_555
C42 C41 1_555 1_555
H31 C42 1_555 1_555
C43 C42 1_555 1_555
C44 C35 1_555 1_555
H32 C44 1_555 1_555
C45 C43 1_555 1_555
H33 C45 1_555 1_555
C46 C45 1_555 1_555
H34 C46 1_555 1_555
C47 C46 1_555 1_555
C48 C47 1_555 1_555
H35 C48 1_555 1_555
C49 C48 1_555 1_555
C50 C49 1_555 1_555
H36 C50 1_555 1_555
C51 O4 1_555 1_555
C52 C51 1_555 1_555
H37 C52 1_555 1_555
C53 C52 1_555 1_555
H38 C53 1_555 1_555
C54 C53 1_555 1_555
C55 C54 1_555 1_555
H39 C55 1_555 1_555
C56 C55 1_555 1_555
H40 C56 1_555 1_555
C57 C56 1_555 1_555
C58 C57 1_555 1_555
C59 C54 1_555 1_555
H41 C59 1_555 1_555
C60 C57 1_555 1_555
H42 C60 1_555 1_555
C61 C60 1_555 1_555
H43 C61 1_555 1_555
C62 C61 1_555 1_555
H44 C62 1_555 1_555
C63 C58 1_555 1_555
H45 C63 1_555 1_555
C64 C49 1_555 1_555
C65 C64 1_555 1_555
C66 C64 1_555 1_555
C67 O6 1_555 1_555
H46 C67 1_555 1_555
H47 C67 1_555 1_555
C68 C67 1_555 1_555
H48 C68 1_555 1_555
H49 C68 1_555 1_555
H50 C68 1_555 1_555
C5 C6 1_555 1_555
C9 C10 1_555 1_555
C16 C17 1_555 1_555
C24 C25 1_555 1_555
C28 C29 1_555 1_555
C39 C40 1_555 1_555
C43 C44 1_555 1_555
C50 C51 1_555 1_555
C58 C59 1_555 1_555
C62 C63 1_555 1_555

#END
