
#######################################################################
#
#                 Cambridge Crystallographic Data Centre
#                                CCDC 
#
#######################################################################
#
# If this CIF has been generated from an entry in the Cambridge 
# Structural Database, then it will include bibliographic, chemical, 
# crystal, experimental, refinement or atomic coordinate data resulting 
# from the CCDC's data processing and validation procedures.
#
#######################################################################

data_KALKOA
_chemical_formula_moiety         '2(C7 H10 N1 1+),C9 H4 O6 2-'
_chemical_name_systematic        
'bis(phenylmethanaminium) 5-carboxyisophthalate'
_symmetry_cell_setting           triclinic
_symmetry_space_group_name_H-M   'P -1'
_symmetry_Int_Tables_number      2
_space_group_name_Hall           '-P 1'
loop_
_symmetry_equiv_pos_site_id
_symmetry_equiv_pos_as_xyz
1 x,y,z
2 -x,-y,-z
_cell_length_a                   9.5898(7)
_cell_length_b                   10.5101(8)
_cell_length_c                   11.0182(9)
_cell_angle_alpha                102.765(2)
_cell_angle_beta                 92.4220(10)
_cell_angle_gamma                105.594(2)
_cell_volume                     1037.08
_exptl_crystal_colour            colorless
_exptl_crystal_description       block
_cell_formula_units_Z            2
loop_
_atom_site_label
_atom_site_type_symbol
_atom_site_fract_x
_atom_site_fract_y
_atom_site_fract_z
N1 N 0.3263(3) 0.8575(2) 0.4704(2)
H1 H 0.4087 0.8443 0.4434
H2 H 0.3074 0.8220 0.5362
H3 H 0.3357 0.9463 0.4925
C1 C 0.2048(3) 0.7903(3) 0.3688(3)
H4 H 0.1234 0.8266 0.3888
H5 H 0.1731 0.6936 0.3650
C2 C 0.2455(3) 0.8098(3) 0.2435(3)
C3 C 0.3084(4) 0.9378(4) 0.2249(4)
H6 H 0.3309 1.0137 0.2922
C4 C 0.3381(4) 0.9531(5) 0.1060(4)
H7 H 0.3801 1.0394 0.0937
C5 C 0.3064(4) 0.8429(5) 0.0073(4)
H8 H 0.3266 0.8536 -0.0722
C6 C 0.2446(5) 0.7163(5) 0.0251(4)
H9 H 0.2226 0.6408 -0.0427
C7 C 0.2148(4) 0.6994(4) 0.1427(4)
H10 H 0.1735 0.6125 0.1539
N2 N 0.0315(3) -0.0842(2) 0.6731(3)
H11 H 0.0670 -0.0112 0.6432
H12 H -0.0590 -0.1269 0.6376
H13 H 0.0869 -0.1402 0.6559
C8 C 0.0308(4) -0.0414(4) 0.8100(4)
H14 H 0.0545 -0.1088 0.8481
H15 H -0.0666 -0.0386 0.8281
C9 C 0.1351(4) 0.0940(3) 0.8676(3)
C10 C 0.0838(5) 0.1931(4) 0.9376(4)
H16 H -0.0149 0.1747 0.9474
C11 C 0.1749(7) 0.3174(5) 0.9928(5)
H17 H 0.1383 0.3837 1.0398
C12 C 0.3172(7) 0.3454(6) 0.9800(5)
H18 H 0.3792 0.4307 1.0195
C13 C 0.3727(5) 0.2496(6) 0.9091(5)
H19 H 0.4715 0.2705 0.8992
C14 C 0.2822(4) 0.1229(4) 0.8531(4)
H20 H 0.3192 0.0570 0.8059
O1 O 0.1538(2) 0.1314(2) 0.5578(2)
O2 O 0.3842(2) 0.1304(2) 0.5603(2)
O3 O 0.7706(2) 0.5408(2) 0.6777(2)
H21 H 0.8568 0.5839 0.6845
O4 O 0.7375(2) 0.7449(2) 0.6926(2)
O5 O 0.2153(2) 0.7589(2) 0.6637(2)
O6 O 0.0472(2) 0.5806(2) 0.6912(3)
C15 C 0.2865(3) 0.1904(3) 0.5764(3)
C16 C 0.6899(3) 0.6243(3) 0.6819(3)
C17 C 0.1712(3) 0.6375(3) 0.6738(3)
C18 C 0.3362(3) 0.3429(3) 0.6182(3)
C19 C 0.4830(3) 0.4123(3) 0.6388(3)
H22 H 0.5508 0.3631 0.6322
C20 C 0.5313(3) 0.5527(3) 0.6688(3)
C21 C 0.4296(3) 0.6253(3) 0.6797(3)
H23 H 0.4609 0.7199 0.6981
C22 C 0.2826(3) 0.5594(3) 0.6635(3)
C23 C 0.2374(3) 0.4186(3) 0.6340(3)
H24 H 0.1383 0.3737 0.6244
loop_
_geom_bond_atom_site_label_1
_geom_bond_atom_site_label_2
_geom_bond_site_symmetry_1
_geom_bond_site_symmetry_2
N1 H1 1_555 1_555
H2 N1 1_555 1_555
H3 N1 1_555 1_555
C1 N1 1_555 1_555
H4 C1 1_555 1_555
H5 C1 1_555 1_555
C2 C1 1_555 1_555
C3 C2 1_555 1_555
H6 C3 1_555 1_555
C4 C3 1_555 1_555
H7 C4 1_555 1_555
C5 C4 1_555 1_555
H8 C5 1_555 1_555
C6 C5 1_555 1_555
H9 C6 1_555 1_555
C7 C2 1_555 1_555
H10 C7 1_555 1_555
N2 H11 1_555 1_555
H12 N2 1_555 1_555
H13 N2 1_555 1_555
C8 N2 1_555 1_555
H14 C8 1_555 1_555
H15 C8 1_555 1_555
C9 C8 1_555 1_555
C10 C9 1_555 1_555
H16 C10 1_555 1_555
C11 C10 1_555 1_555
H17 C11 1_555 1_555
C12 C11 1_555 1_555
H18 C12 1_555 1_555
C13 C12 1_555 1_555
H19 C13 1_555 1_555
C14 C9 1_555 1_555
H20 C14 1_555 1_555
O1 C15 1_555 1_555
O2 C15 1_555 1_555
O3 H21 1_555 1_555
O4 C16 1_555 1_555
O5 C17 1_555 1_555
O6 C17 1_555 1_555
C15 C18 1_555 1_555
C16 O3 1_555 1_555
C17 C22 1_555 1_555
C18 C19 1_555 1_555
C19 H22 1_555 1_555
C20 C16 1_555 1_555
C21 C20 1_555 1_555
H23 C21 1_555 1_555
C22 C21 1_555 1_555
C23 C18 1_555 1_555
H24 C23 1_555 1_555
C6 C7 1_555 1_555
C13 C14 1_555 1_555
C19 C20 1_555 1_555
C22 C23 1_555 1_555

#END
