
#######################################################################
#
#                 Cambridge Crystallographic Data Centre
#                                CCDC 
#
#######################################################################
#
# If this CIF has been generated from an entry in the Cambridge 
# Structural Database, then it will include bibliographic, chemical, 
# crystal, experimental, refinement or atomic coordinate data resulting 
# from the CCDC's data processing and validation procedures.
#
#######################################################################

data_KALLUH
_chemical_formula_moiety         'C18 H18 O4'
_chemical_name_systematic        1,2,6,7-tetramethoxyanthracene
_symmetry_cell_setting           triclinic
_symmetry_space_group_name_H-M   'P -1'
_symmetry_Int_Tables_number      2
_space_group_name_Hall           '-P 1'
loop_
_symmetry_equiv_pos_site_id
_symmetry_equiv_pos_as_xyz
1 x,y,z
2 -x,-y,-z
_cell_length_a                   6.8802(3)
_cell_length_b                   12.3630(6)
_cell_length_c                   18.9082(9)
_cell_angle_alpha                73.391(2)
_cell_angle_beta                 80.387(2)
_cell_angle_gamma                88.981(2)
_cell_volume                     1518.82
_exptl_crystal_colour            colorless
_cell_formula_units_Z            4
loop_
_atom_site_label
_atom_site_type_symbol
_atom_site_fract_x
_atom_site_fract_y
_atom_site_fract_z
O1 O 0.7837(2) -0.15289(10) 0.16011(8)
O2 O 0.3115(2) 0.63190(11) 0.13553(9)
O3 O 1.07865(19) -0.02097(11) 0.09277(8)
O4 O 0.67251(18) 0.54239(10) 0.10266(7)
C1 C 0.6224(4) -0.23097(19) 0.19398(18)
H1 H 0.5763 -0.2271 0.2440
H2 H 0.6644 -0.3060 0.1956
H3 H 0.5176 -0.2125 0.1652
C2 C 0.7480(3) -0.04173(14) 0.15240(9)
C3 C 0.5730(3) 0.00105(15) 0.17457(9)
H4 H 0.4649 -0.0477 0.1979
C4 C 0.5524(2) 0.11979(14) 0.16259(9)
C5 C 0.3731(3) 0.16664(15) 0.18201(9)
H5 H 0.2628 0.1190 0.2038
C6 C 0.3536(2) 0.28252(15) 0.16986(9)
C7 C 0.5249(2) 0.35569(14) 0.13871(9)
C8 C 0.5039(3) 0.47427(15) 0.12818(9)
C9 C 0.3234(3) 0.51734(16) 0.14509(10)
C10 C 0.1572(4) 0.68714(19) 0.09930(15)
H6 H 0.1695 0.6762 0.0505
H7 H 0.1653 0.7664 0.0945
H8 H 0.0322 0.6561 0.1284
C11 C 0.9158(3) 0.03248(15) 0.11546(10)
C12 C 1.2305(3) 0.04673(18) 0.03881(11)
H9 H 1.1745 0.0934 -0.0023
H10 H 1.3258 -0.0011 0.0209
H11 H 1.2938 0.0936 0.0614
C13 C 0.9023(3) 0.14533(15) 0.10543(9)
H12 H 1.0132 0.1922 0.0829
C14 C 0.7222(2) 0.19349(14) 0.12857(9)
C15 C 0.7047(2) 0.30936(14) 0.11888(9)
H13 H 0.8158 0.3568 0.0987
C16 C 0.6920(4) 0.6112(2) 0.02766(13)
H14 H 0.6979 0.5642 -0.0052
H15 H 0.8108 0.6571 0.0153
H16 H 0.5806 0.6589 0.0221
C17 C 0.1548(3) 0.44376(17) 0.17544(11)
H17 H 0.0326 0.4736 0.1871
C18 C 0.1695(3) 0.33128(17) 0.18759(10)
H18 H 0.0574 0.2847 0.2079
O5 O 1.2175(2) -0.23777(11) 0.32811(7)
O6 O 0.6981(2) 0.50173(12) 0.39159(10)
O7 O 1.02574(18) 0.38598(10) 0.41996(7)
O8 O 1.44941(19) -0.17176(11) 0.40115(8)
C19 C 1.0835(4) -0.2854(2) 0.29393(15)
H19 H 0.9554 -0.2960 0.3247
H20 H 1.1301 -0.3569 0.2888
H21 H 1.0752 -0.2353 0.2454
C20 C 1.1707(3) -0.13687(15) 0.34141(10)
C21 C 1.0127(3) -0.07482(15) 0.32217(9)
H22 H 0.9269 -0.1005 0.2969
C22 C 0.9763(2) 0.02893(14) 0.34004(9)
C23 C 1.1114(2) 0.06871(14) 0.37781(9)
C24 C 1.0817(2) 0.17192(14) 0.39292(9)
H23 H 1.1728 0.1987 0.4156
C25 C 0.9183(2) 0.23683(14) 0.37487(9)
C26 C 0.8857(3) 0.34273(15) 0.38979(10)
C27 C 0.7203(3) 0.40165(16) 0.37388(11)
C28 C 0.5167(4) 0.5543(2) 0.38929(19)
H24 H 0.4886 0.5732 0.3392
H25 H 0.5222 0.6218 0.4044
H26 H 0.4148 0.5038 0.4227
C29 C 0.9852(3) 0.35688(19) 0.49935(12)
H27 H 0.8573 0.3827 0.5151
H28 H 1.0833 0.3919 0.5170
H29 H 0.9875 0.2764 0.5197
C30 C 0.8127(2) 0.09266(15) 0.32275(9)
H30 H 0.7235 0.0665 0.2990
C31 C 0.7788(2) 0.19468(15) 0.34001(9)
C32 C 0.6101(3) 0.25870(17) 0.32400(10)
H31 H 0.5175 0.2318 0.3020
C33 C 0.5815(3) 0.35868(17) 0.34018(11)
H32 H 0.4700 0.3993 0.3291
C34 C 1.3022(3) -0.09924(15) 0.38189(10)
C35 C 1.5458(3) -0.15830(17) 0.45926(11)
H33 H 1.6254 -0.0899 0.4413
H34 H 1.6281 -0.2214 0.4743
H35 H 1.4488 -0.1546 0.5013
C36 C 1.2735(3) 0.00020(15) 0.39834(10)
H36 H 1.3613 0.0243 0.4236
loop_
_geom_bond_atom_site_label_1
_geom_bond_atom_site_label_2
_geom_bond_site_symmetry_1
_geom_bond_site_symmetry_2
O1 C1 1_555 1_555
O2 C9 1_555 1_555
O3 C11 1_555 1_555
O4 C8 1_555 1_555
C1 H1 1_555 1_555
H2 C1 1_555 1_555
H3 C1 1_555 1_555
C2 O1 1_555 1_555
C3 C2 1_555 1_555
H4 C3 1_555 1_555
C4 C3 1_555 1_555
C5 C4 1_555 1_555
H5 C5 1_555 1_555
C6 C5 1_555 1_555
C7 C6 1_555 1_555
C8 C7 1_555 1_555
C9 C8 1_555 1_555
C10 O2 1_555 1_555
H6 C10 1_555 1_555
H7 C10 1_555 1_555
H8 C10 1_555 1_555
C11 C2 1_555 1_555
C12 O3 1_555 1_555
H9 C12 1_555 1_555
H10 C12 1_555 1_555
H11 C12 1_555 1_555
C13 C11 1_555 1_555
H12 C13 1_555 1_555
C14 C4 1_555 1_555
C15 C7 1_555 1_555
H13 C15 1_555 1_555
C16 O4 1_555 1_555
H14 C16 1_555 1_555
H15 C16 1_555 1_555
H16 C16 1_555 1_555
C17 C9 1_555 1_555
H17 C17 1_555 1_555
C18 C6 1_555 1_555
H18 C18 1_555 1_555
O5 C19 1_555 1_555
O6 C27 1_555 1_555
O7 C26 1_555 1_555
O8 C34 1_555 1_555
C19 H19 1_555 1_555
H20 C19 1_555 1_555
H21 C19 1_555 1_555
C20 O5 1_555 1_555
C21 C20 1_555 1_555
H22 C21 1_555 1_555
C22 C21 1_555 1_555
C23 C22 1_555 1_555
C24 C23 1_555 1_555
H23 C24 1_555 1_555
C25 C24 1_555 1_555
C26 C25 1_555 1_555
C27 C26 1_555 1_555
C28 O6 1_555 1_555
H24 C28 1_555 1_555
H25 C28 1_555 1_555
H26 C28 1_555 1_555
C29 O7 1_555 1_555
H27 C29 1_555 1_555
H28 C29 1_555 1_555
H29 C29 1_555 1_555
C30 C22 1_555 1_555
H30 C30 1_555 1_555
C31 C25 1_555 1_555
C32 C31 1_555 1_555
H31 C32 1_555 1_555
C33 C27 1_555 1_555
H32 C33 1_555 1_555
C34 C20 1_555 1_555
C35 O8 1_555 1_555
H33 C35 1_555 1_555
H34 C35 1_555 1_555
H35 C35 1_555 1_555
C36 C23 1_555 1_555
H36 C36 1_555 1_555
C13 C14 1_555 1_555
C14 C15 1_555 1_555
C17 C18 1_555 1_555
C30 C31 1_555 1_555
C32 C33 1_555 1_555
C34 C36 1_555 1_555

#END
