
#######################################################################
#
#                 Cambridge Crystallographic Data Centre
#                                CCDC 
#
#######################################################################
#
# If this CIF has been generated from an entry in the Cambridge 
# Structural Database, then it will include bibliographic, chemical, 
# crystal, experimental, refinement or atomic coordinate data resulting 
# from the CCDC's data processing and validation procedures.
#
#######################################################################

data_KALLAN
_chemical_formula_moiety         'C30 H20'
_chemical_name_systematic        9,9'-ethene-1,2-diyldiphenanthrene
_symmetry_cell_setting           monoclinic
_symmetry_space_group_name_H-M   'P 21/n'
_symmetry_Int_Tables_number      14
_space_group_name_Hall           '-P 2yn'
loop_
_symmetry_equiv_pos_site_id
_symmetry_equiv_pos_as_xyz
1 x,y,z
2 1/2-x,1/2+y,1/2-z
3 -x,-y,-z
4 1/2+x,1/2-y,1/2+z
_cell_length_a                   7.1703(3)
_cell_length_b                   11.4453(4)
_cell_length_c                   12.2814(5)
_cell_angle_alpha                90
_cell_angle_beta                 104.539(4)
_cell_angle_gamma                90
_cell_volume                     975.613
_cell_formula_units_Z            2
loop_
_atom_site_label
_atom_site_type_symbol
_atom_site_fract_x
_atom_site_fract_y
_atom_site_fract_z
C1 C 0.14624(19) 0.14210(11) 0.03260(11)
C2 C 0.01006(19) 0.07449(12) 0.18935(11)
C3 C 0.00420(19) 0.15172(11) 0.09460(11)
C4 C 0.1715(2) -0.08193(13) 0.31231(12)
H1 H 0.2740 -0.1338 0.3340
C5 C 0.16370(19) -0.00587(12) 0.22061(11)
C6 C -0.1326(2) 0.07331(13) 0.24997(12)
H2 H -0.2356 0.1250 0.2301
C7 C -0.1514(2) 0.30595(14) -0.03129(13)
H3 H -0.2491 0.3611 -0.0520
C8 C -0.1411(2) 0.23649(13) 0.06081(12)
H4 H -0.2325 0.2455 0.1021
C9 C 0.1298(2) 0.21388(13) -0.06238(12)
H5 H 0.2200 0.2067 -0.1048
C10 C 0.3076(2) -0.00994(12) 0.15912(11)
H6 H 0.4104 -0.0612 0.1829
C11 C 0.3016(2) 0.05785(12) 0.06711(11)
C12 C -0.0153(2) 0.29393(14) -0.09394(13)
H7 H -0.0232 0.3403 -0.1571
C13 C 0.0311(2) -0.08055(14) 0.36951(13)
H8 H 0.0379 -0.1313 0.4295
C14 C -0.1229(2) -0.00251(15) 0.33758(13)
H9 H -0.2193 -0.0020 0.3760
C15 C 0.4507(2) 0.04782(12) 0.00423(12)
H10 H 0.4777 0.1143 -0.0326
C1B C 0.85376(19) -0.14210(11) -0.03260(11)
C2B C 0.98994(19) -0.07449(12) -0.18935(11)
C3B C 0.99580(19) -0.15172(11) -0.09460(11)
C4B C 0.8285(2) 0.08193(13) -0.31231(12)
H1B H 0.7260 0.1338 -0.3340
C5B C 0.83630(19) 0.00587(12) -0.22061(11)
C6B C 1.1326(2) -0.07331(13) -0.24997(12)
H2B H 1.2356 -0.1250 -0.2301
C7B C 1.1514(2) -0.30595(14) 0.03129(13)
H3B H 1.2491 -0.3611 0.0520
C8B C 1.1411(2) -0.23649(13) -0.06081(12)
H4B H 1.2325 -0.2455 -0.1021
C9B C 0.8702(2) -0.21388(13) 0.06238(12)
H5B H 0.7800 -0.2067 0.1048
C10B C 0.6924(2) 0.00994(12) -0.15912(11)
H6B H 0.5896 0.0612 -0.1829
C11B C 0.6984(2) -0.05785(12) -0.06711(11)
C12B C 1.0153(2) -0.29393(14) 0.09394(13)
H7B H 1.0232 -0.3403 0.1571
C13B C 0.9689(2) 0.08055(14) -0.36951(13)
H8B H 0.9621 0.1313 -0.4295
C14B C 1.1229(2) 0.00251(15) -0.33758(13)
H9B H 1.2193 0.0020 -0.3760
C15B C 0.5493(2) -0.04782(12) -0.00423(12)
H10B H 0.5223 -0.1143 0.0326
loop_
_geom_bond_atom_site_label_1
_geom_bond_atom_site_label_2
_geom_bond_site_symmetry_1
_geom_bond_site_symmetry_2
C1 C3 1_555 1_555
C2 C3 1_555 1_555
C3 C8 1_555 1_555
C4 H1 1_555 1_555
C5 C2 1_555 1_555
C6 C2 1_555 1_555
H2 C6 1_555 1_555
C7 H3 1_555 1_555
C8 C7 1_555 1_555
H4 C8 1_555 1_555
C9 C1 1_555 1_555
H5 C9 1_555 1_555
C10 C5 1_555 1_555
H6 C10 1_555 1_555
C11 C1 1_555 1_555
C12 C7 1_555 1_555
H7 C12 1_555 1_555
C13 C4 1_555 1_555
H8 C13 1_555 1_555
C14 C6 1_555 1_555
H9 C14 1_555 1_555
C15 C11 1_555 1_555
H10 C15 1_555 1_555
C1B C3B 1_555 1_555
C2B C3B 1_555 1_555
C3B C8B 1_555 1_555
C4B H1B 1_555 1_555
C5B C2B 1_555 1_555
C6B C2B 1_555 1_555
H2B C6B 1_555 1_555
C7B H3B 1_555 1_555
C8B C7B 1_555 1_555
H4B C8B 1_555 1_555
C9B C1B 1_555 1_555
H5B C9B 1_555 1_555
C10B C5B 1_555 1_555
H6B C10B 1_555 1_555
C11B C1B 1_555 1_555
C12B C7B 1_555 1_555
H7B C12B 1_555 1_555
C13B C4B 1_555 1_555
H8B C13B 1_555 1_555
C14B C6B 1_555 1_555
H9B C14B 1_555 1_555
C15B C15 1_555 1_555
H10B C15B 1_555 1_555
C4 C5 1_555 1_555
C9 C12 1_555 1_555
C10 C11 1_555 1_555
C13 C14 1_555 1_555
C4B C5B 1_555 1_555
C9B C12B 1_555 1_555
C10B C11B 1_555 1_555
C11B C15B 1_555 1_555
C13B C14B 1_555 1_555

#END
