
#######################################################################
#
#                 Cambridge Crystallographic Data Centre
#                                CCDC 
#
#######################################################################
#
# If this CIF has been generated from an entry in the Cambridge 
# Structural Database, then it will include bibliographic, chemical, 
# crystal, experimental, refinement or atomic coordinate data resulting 
# from the CCDC's data processing and validation procedures.
#
#######################################################################

data_KALPUK
_chemical_formula_moiety         'C21 H20 O5'
_chemical_name_systematic        
'Ethyl 4-oxo-1,3-diphenyldihydro-1H,3H-furo[3,4-c]furan-3a(4H)-carboxylate'
_symmetry_cell_setting           orthorhombic
_symmetry_space_group_name_H-M   'P 21 21 21'
_symmetry_Int_Tables_number      19
_space_group_name_Hall           'P 2ac 2ab'
loop_
_symmetry_equiv_pos_site_id
_symmetry_equiv_pos_as_xyz
1 x,y,z
2 1/2+x,1/2-y,-z
3 -x,1/2+y,1/2-z
4 1/2-x,-y,1/2+z
_cell_length_a                   5.7269(3)
_cell_length_b                   8.3487(5)
_cell_length_c                   35.6555(17)
_cell_angle_alpha                90
_cell_angle_beta                 90
_cell_angle_gamma                90
_cell_volume                     1704.77
_exptl_crystal_colour            colorless
_exptl_crystal_description       plate
_cell_formula_units_Z            4
loop_
_atom_site_label
_atom_site_type_symbol
_atom_site_fract_x
_atom_site_fract_y
_atom_site_fract_z
O1 O 0.3164(3) -0.1026(2) 0.80642(5)
O2 O 0.3644(3) 0.2426(2) 0.90623(5)
O3 O 0.7232(3) -0.0701(2) 0.88465(5)
O4 O 0.8486(3) 0.0872(2) 0.83834(5)
O5 O 0.3588(4) 0.1559(2) 0.78938(5)
C1 C 0.0237(6) -0.0972(4) 0.75600(8)
H1 H 0.0115 0.0199 0.7561
H2 H -0.0902 -0.1423 0.7736
H3 H -0.0080 -0.1377 0.7307
C2 C 0.2645(5) -0.1454(3) 0.76761(7)
H4 H 0.2816 -0.2626 0.7645
H5 H 0.3793 -0.0928 0.7509
C3 C 0.3607(5) 0.0527(3) 0.81273(7)
C4 C 0.4312(5) 0.0793(3) 0.85347(7)
C5 C 0.3110(5) -0.0232(3) 0.88380(7)
H6 H 0.1760 -0.0838 0.8730
C6 C 0.2265(5) 0.1019(3) 0.91295(7)
H7 H 0.0601 0.1285 0.9072
C7 C 0.2406(5) 0.0547(3) 0.95348(7)
C8 C 0.0693(5) -0.0459(3) 0.96790(8)
H8 H -0.0563 -0.0790 0.9523
C9 C 0.0796(5) -0.0987(4) 1.00489(8)
H9 H -0.0373 -0.1686 1.0144
C10 C 0.2603(6) -0.0490(3) 1.02772(8)
H10 H 0.2685 -0.0848 1.0530
C11 C 0.8906(5) 0.6163(3) 0.83944(8)
H11 H 1.0046 0.6943 0.8330
C12 C 0.6966(5) 0.5947(3) 0.81707(7)
H12 H 0.6765 0.6590 0.7953
C13 C 0.5307(5) 0.4800(3) 0.82600(7)
H13 H 0.3961 0.4676 0.8107
C14 C 0.5615(5) 0.3832(3) 0.85732(7)
C15 C 0.7544(5) 0.4075(3) 0.88029(7)
H14 H 0.7741 0.3443 0.9022
C16 C 0.9180(5) 0.5235(3) 0.87138(7)
H15 H 1.0495 0.5395 0.8872
C17 C 0.3834(5) 0.2559(3) 0.86645(7)
H16 H 0.2288 0.2904 0.8562
C18 C 0.5038(5) -0.1382(3) 0.89696(7)
H17 H 0.5014 -0.1486 0.9246
H18 H 0.4810 -0.2457 0.8858
C19 C 0.6893(5) 0.0360(3) 0.85679(7)
C20 C 0.4287(6) 0.0524(3) 1.01376(8)
H19 H 0.5519 0.0874 1.0296
C21 C 0.4205(5) 0.1042(3) 0.97680(8)
H20 H 0.5383 0.1737 0.9675
loop_
_geom_bond_atom_site_label_1
_geom_bond_atom_site_label_2
_geom_bond_site_symmetry_1
_geom_bond_site_symmetry_2
O1 C2 1_555 1_555
O2 C6 1_555 1_555
O3 C18 1_555 1_555
O4 C19 1_555 1_555
O5 C3 1_555 1_555
C1 H1 1_555 1_555
H2 C1 1_555 1_555
H3 C1 1_555 1_555
C2 C1 1_555 1_555
H4 C2 1_555 1_555
H5 C2 1_555 1_555
C3 O1 1_555 1_555
C4 C3 1_555 1_555
C5 C4 1_555 1_555
H6 C5 1_555 1_555
C6 C5 1_555 1_555
H7 C6 1_555 1_555
C7 C6 1_555 1_555
C8 C7 1_555 1_555
H8 C8 1_555 1_555
C9 C8 1_555 1_555
H9 C9 1_555 1_555
C10 C9 1_555 1_555
H10 C10 1_555 1_555
C11 H11 1_555 1_555
C12 C11 1_555 1_555
H12 C12 1_555 1_555
C13 C12 1_555 1_555
H13 C13 1_555 1_555
C14 C13 1_555 1_555
C15 C14 1_555 1_555
H14 C15 1_555 1_555
C16 C11 1_555 1_555
H15 C16 1_555 1_555
C17 O2 1_555 1_555
H16 C17 1_555 1_555
C18 C5 1_555 1_555
H17 C18 1_555 1_555
H18 C18 1_555 1_555
C19 O3 1_555 1_555
C20 C10 1_555 1_555
H19 C20 1_555 1_555
C21 C7 1_555 1_555
H20 C21 1_555 1_555
C4 C17 1_555 1_555
C4 C19 1_555 1_555
C14 C17 1_555 1_555
C15 C16 1_555 1_555
C20 C21 1_555 1_555

#END
