
#######################################################################
#
#                 Cambridge Crystallographic Data Centre
#                                CCDC 
#
#######################################################################
#
# If this CIF has been generated from an entry in the Cambridge 
# Structural Database, then it will include bibliographic, chemical, 
# crystal, experimental, refinement or atomic coordinate data resulting 
# from the CCDC's data processing and validation procedures.
#
#######################################################################

data_KAMBIL
_chemical_formula_moiety         'C21 H30 O6'
_chemical_name_systematic        
rac-2,6,10-Trimethoxy-2,6,10-trimethyl-3,4,7,8,11,12-hexahydro-2H,6H,10H-dipyrano[2,3-f:2',3'-h]chromene
_symmetry_cell_setting           triclinic
_symmetry_space_group_name_H-M   'P -1'
_symmetry_Int_Tables_number      2
_space_group_name_Hall           '-P 1'
loop_
_symmetry_equiv_pos_site_id
_symmetry_equiv_pos_as_xyz
1 x,y,z
2 -x,-y,-z
_cell_length_a                   11.4386(14)
_cell_length_b                   11.5578(14)
_cell_length_c                   15.1715(19)
_cell_angle_alpha                87.833(2)
_cell_angle_beta                 86.873(2)
_cell_angle_gamma                85.602(2)
_cell_volume                     1995.73
_exptl_crystal_colour            colorless
_exptl_crystal_description       block
_cell_formula_units_Z            4
loop_
_atom_site_label
_atom_site_type_symbol
_atom_site_fract_x
_atom_site_fract_y
_atom_site_fract_z
C1 C -0.00281(16) 0.28962(15) 0.46230(12)
C2 C -0.11184(16) 0.34492(16) 0.50873(12)
H1 H -0.1818 0.3107 0.4881
H2 H -0.1188 0.4291 0.4936
C3 C -0.10834(16) 0.32693(17) 0.60835(12)
H3 H -0.1708 0.3783 0.6376
H4 H -0.1232 0.2456 0.6251
C4 C 0.00924(15) 0.35335(14) 0.63897(11)
C5 C 0.10620(15) 0.35678(14) 0.58005(11)
C6 C 0.02669(15) 0.37244(15) 0.72751(11)
C7 C 0.13487(16) 0.39628(15) 0.75737(12)
C8 C 0.15094(17) 0.41240(18) 0.85391(12)
H5 H 0.1561 0.4958 0.8645
H6 H 0.2251 0.3699 0.8713
C9 C 0.04831(18) 0.36729(18) 0.90953(12)
H7 H 0.0565 0.2814 0.9126
H8 H 0.0493 0.3952 0.9704
C10 C -0.06707(18) 0.40785(18) 0.87078(12)
C11 C 0.22730(15) 0.40362(15) 0.69383(12)
C12 C 0.21717(15) 0.38188(14) 0.60541(11)
C13 C 0.32021(15) 0.38604(17) 0.53945(12)
H9 H 0.3098 0.4563 0.5004
H10 H 0.3243 0.3171 0.5023
C14 C 0.43373(16) 0.38826(17) 0.58693(13)
H11 H 0.4568 0.3095 0.6111
H12 H 0.4972 0.4118 0.5446
C15 C 0.41764(16) 0.47266(16) 0.66134(13)
C16 C 0.00136(19) 0.30928(18) 0.36310(12)
H13 H 0.0801 0.2853 0.3385
H14 H -0.0170 0.3918 0.3488
H15 H -0.0563 0.2635 0.3377
C17 C 0.10316(18) 0.10244(17) 0.45611(15)
H16 H 0.1042 0.1017 0.3915
H17 H 0.1012 0.0228 0.4805
H18 H 0.1739 0.1360 0.4742
C18 C -0.1729(2) 0.3630(2) 0.92215(14)
H19 H -0.1801 0.3959 0.9809
H20 H -0.1630 0.2781 0.9281
H21 H -0.2440 0.3859 0.8906
C19 C -0.1724(2) 0.5890(2) 0.83241(18)
H22 H -0.1907 0.5538 0.7776
H23 H -0.1592 0.6711 0.8206
H24 H -0.2382 0.5828 0.8760
C20 C 0.52752(18) 0.4822(2) 0.71112(15)
H25 H 0.5877 0.5157 0.6717
H26 H 0.5568 0.4048 0.7324
H27 H 0.5092 0.5322 0.7615
C21 C 0.3332(2) 0.66785(19) 0.68151(16)
H28 H 0.2689 0.6390 0.7195
H29 H 0.3042 0.7372 0.6478
H30 H 0.3964 0.6875 0.7181
O1 O 0.09988(11) 0.33976(10) 0.49058(8)
O2 O 0.00175(11) 0.17043(10) 0.48833(9)
O3 O -0.07226(11) 0.36371(12) 0.78366(8)
O4 O -0.06974(13) 0.53031(12) 0.86587(9)
O5 O 0.33165(11) 0.43390(11) 0.72617(8)
O6 O 0.37688(12) 0.58071(11) 0.62232(9)
C22 C 0.39287(17) 0.93748(18) 0.35816(15)
C23 C 0.33833(17) 0.84945(19) 0.30608(16)
H31 H 0.2518 0.8600 0.3147
H32 H 0.3637 0.7705 0.3285
C24 C 0.37217(17) 0.86015(19) 0.20869(15)
H33 H 0.3566 0.7878 0.1800
H34 H 0.3233 0.9249 0.1815
C25 C 0.50009(15) 0.88195(16) 0.19305(13)
C26 C 0.56575(15) 0.91460(16) 0.26053(12)
C27 C 0.68497(15) 0.93410(15) 0.24866(12)
C28 C 0.75460(16) 0.96476(17) 0.32458(12)
H35 H 0.7344 0.9155 0.3772
H36 H 0.7344 1.0469 0.3392
C29 C 0.88551(16) 0.94662(17) 0.30086(13)
H37 H 0.9295 0.9856 0.3441
H38 H 0.9100 0.8626 0.3043
C30 C 0.91535(16) 0.99451(18) 0.20899(13)
C31 C 0.73630(15) 0.92197(15) 0.16443(12)
C32 C 0.67457(16) 0.89054(16) 0.09311(12)
C33 C 0.55746(16) 0.87028(17) 0.11026(13)
C34 C 0.5476(2) 0.7866(2) -0.02972(15)
C35 C 0.6397(2) 0.8653(2) -0.06555(14)
H39 H 0.6014 0.9426 -0.0812
H40 H 0.6785 0.8327 -0.1200
C36 C 0.73207(18) 0.8789(2) 0.00192(13)
H41 H 0.7895 0.8103 0.0012
H42 H 0.7748 0.9485 -0.0142
C37 C 0.3682(2) 0.9199(2) 0.45728(16)
H43 H 0.3981 0.9836 0.4882
H44 H 0.4073 0.8459 0.4773
H45 H 0.2834 0.9189 0.4700
C38 C 0.4022(2) 1.1441(2) 0.3509(2)
H46 H 0.3969 1.1464 0.4156
H47 H 0.3621 1.2148 0.3259
H48 H 0.4849 1.1391 0.3299
C39 C 1.04388(18) 0.9712(2) 0.18091(16)
H49 H 1.0563 0.9939 0.1184
H50 H 1.0669 0.8883 0.1895
H51 H 1.0916 1.0162 0.2167
C40 C 0.8928(3) 1.1783(2) 0.12906(19)
H52 H 0.9767 1.1808 0.1130
H53 H 0.8572 1.2575 0.1358
H54 H 0.8546 1.1409 0.0826
C41 C 0.4523(2) 0.7712(3) -0.09368(18)
H55 H 0.3902 0.7283 -0.0636
H56 H 0.4863 0.7278 -0.1444
H57 H 0.4191 0.8476 -0.1142
C42 C 0.5471(2) 0.6078(2) 0.06137(19)
H58 H 0.5449 0.6454 0.1183
H59 H 0.5890 0.5308 0.0664
H60 H 0.4667 0.5997 0.0445
O7 O 0.51882(11) 0.92669(12) 0.34625(9)
O8 O 0.34852(13) 1.04622(12) 0.32421(11)
O9 O 0.85352(11) 0.93864(12) 0.14456(8)
O10 O 0.87807(13) 1.11393(12) 0.21015(10)
O11 O 0.48727(12) 0.83699(13) 0.04552(10)
O12 O 0.60714(14) 0.67796(15) -0.00531(11)
loop_
_geom_bond_atom_site_label_1
_geom_bond_atom_site_label_2
_geom_bond_site_symmetry_1
_geom_bond_site_symmetry_2
C1 C2 1_555 1_555
C2 H1 1_555 1_555
H2 C2 1_555 1_555
C3 C2 1_555 1_555
H3 C3 1_555 1_555
H4 C3 1_555 1_555
C4 C3 1_555 1_555
C5 C4 1_555 1_555
C6 C4 1_555 1_555
C7 C6 1_555 1_555
C8 C7 1_555 1_555
H5 C8 1_555 1_555
H6 C8 1_555 1_555
C9 C8 1_555 1_555
H7 C9 1_555 1_555
H8 C9 1_555 1_555
C10 C9 1_555 1_555
C11 C7 1_555 1_555
C12 C5 1_555 1_555
C13 C12 1_555 1_555
H9 C13 1_555 1_555
H10 C13 1_555 1_555
C14 C13 1_555 1_555
H11 C14 1_555 1_555
H12 C14 1_555 1_555
C15 C14 1_555 1_555
C16 C1 1_555 1_555
H13 C16 1_555 1_555
H14 C16 1_555 1_555
H15 C16 1_555 1_555
C17 H16 1_555 1_555
H17 C17 1_555 1_555
H18 C17 1_555 1_555
C18 C10 1_555 1_555
H19 C18 1_555 1_555
H20 C18 1_555 1_555
H21 C18 1_555 1_555
C19 H22 1_555 1_555
H23 C19 1_555 1_555
H24 C19 1_555 1_555
C20 C15 1_555 1_555
H25 C20 1_555 1_555
H26 C20 1_555 1_555
H27 C20 1_555 1_555
C21 H28 1_555 1_555
H29 C21 1_555 1_555
H30 C21 1_555 1_555
C22 C23 1_555 1_555
C23 H31 1_555 1_555
H32 C23 1_555 1_555
C24 C23 1_555 1_555
H33 C24 1_555 1_555
H34 C24 1_555 1_555
C25 C24 1_555 1_555
C26 C25 1_555 1_555
C27 C26 1_555 1_555
C28 C27 1_555 1_555
H35 C28 1_555 1_555
H36 C28 1_555 1_555
C29 C28 1_555 1_555
H37 C29 1_555 1_555
H38 C29 1_555 1_555
C30 C29 1_555 1_555
C31 C27 1_555 1_555
C32 C31 1_555 1_555
C33 C25 1_555 1_555
C34 C35 1_555 1_555
C35 H39 1_555 1_555
H40 C35 1_555 1_555
C36 C32 1_555 1_555
H41 C36 1_555 1_555
H42 C36 1_555 1_555
C37 C22 1_555 1_555
H43 C37 1_555 1_555
H44 C37 1_555 1_555
H45 C37 1_555 1_555
C38 H46 1_555 1_555
H47 C38 1_555 1_555
H48 C38 1_555 1_555
C39 C30 1_555 1_555
H49 C39 1_555 1_555
H50 C39 1_555 1_555
H51 C39 1_555 1_555
C40 H52 1_555 1_555
H53 C40 1_555 1_555
H54 C40 1_555 1_555
C41 C34 1_555 1_555
H55 C41 1_555 1_555
H56 C41 1_555 1_555
H57 C41 1_555 1_555
C42 H58 1_555 1_555
H59 C42 1_555 1_555
H60 C42 1_555 1_555
O1 C1 1_555 1_555
O2 C1 1_555 1_555
O3 C6 1_555 1_555
O4 C10 1_555 1_555
O5 C11 1_555 1_555
O6 C15 1_555 1_555
O7 C22 1_555 1_555
O8 C22 1_555 1_555
O9 C30 1_555 1_555
O10 C30 1_555 1_555
O11 C33 1_555 1_555
O12 C34 1_555 1_555
C5 O1 1_555 1_555
C10 O3 1_555 1_555
C11 C12 1_555 1_555
C15 O5 1_555 1_555
C17 O2 1_555 1_555
C19 O4 1_555 1_555
C21 O6 1_555 1_555
C26 O7 1_555 1_555
C31 O9 1_555 1_555
C32 C33 1_555 1_555
C34 O11 1_555 1_555
C35 C36 1_555 1_555
C38 O8 1_555 1_555
C40 O10 1_555 1_555
C42 O12 1_555 1_555

#END
