
#######################################################################
#
#                 Cambridge Crystallographic Data Centre
#                                CCDC 
#
#######################################################################
#
# If this CIF has been generated from an entry in the Cambridge 
# Structural Database, then it will include bibliographic, chemical, 
# crystal, experimental, refinement or atomic coordinate data resulting 
# from the CCDC's data processing and validation procedures.
#
#######################################################################

data_KAMGIQ
_chemical_formula_moiety         'C21 H22 N1 O2 S1 1+,Cl1 O4 1-,C4 H8 O2'
_chemical_name_systematic        
'2-(4-(3,4-Dimethoxyphenyl)buta-1,3-dien-1-yl)-3-ethyl-1,3-benzothiazol-3-ium perchlorate 1,4-dioxane solvate'
_symmetry_cell_setting           triclinic
_symmetry_space_group_name_H-M   'P -1'
_symmetry_Int_Tables_number      2
_space_group_name_Hall           '-P 1'
loop_
_symmetry_equiv_pos_site_id
_symmetry_equiv_pos_as_xyz
1 x,y,z
2 -x,-y,-z
_cell_length_a                   7.4432(3)
_cell_length_b                   12.2096(5)
_cell_length_c                   15.3156(7)
_cell_angle_alpha                69.272(2)
_cell_angle_beta                 77.037(2)
_cell_angle_gamma                80.226(2)
_cell_volume                     1262.34
_exptl_crystal_colour            red
_exptl_crystal_description       block
_cell_formula_units_Z            2
loop_
_atom_site_label
_atom_site_type_symbol
_atom_site_fract_x
_atom_site_fract_y
_atom_site_fract_z
Cl1 Cl 0.67173(11) 0.30859(5) 0.31452(4)
O1 O 0.4967(6) 0.2636(4) 0.3556(2)
O2 O 0.8050(6) 0.2323(3) 0.3674(2)
O3 O 0.7197(3) 0.31154(18) 0.21720(13)
O4 O 0.6631(3) 0.42317(18) 0.31927(15)
S1 S 0.97216(7) 0.70598(4) 0.27415(3)
O5 O 0.3587(2) 0.19407(13) 0.88621(10)
O6 O 0.4327(2) -0.02038(13) 0.88844(11)
N1 N 0.8120(2) 0.85847(15) 0.35341(12)
C1 C 1.0005(3) 0.85304(17) 0.21136(14)
C2 C 1.1035(3) 0.9018(2) 0.12092(15)
C3 C 1.1087(3) 1.0221(2) 0.08536(16)
C4 C 1.0138(3) 1.0933(2) 0.13996(16)
C5 C 0.9128(3) 1.0463(2) 0.22938(16)
C6 C 0.9064(3) 0.92449(18) 0.26466(14)
C7 C 0.7015(3) 0.9127(2) 0.42313(15)
C8 C 0.8182(3) 0.9214(3) 0.48951(19)
C9 C 0.8354(3) 0.74186(18) 0.36912(14)
C10 C 0.7579(3) 0.65625(18) 0.45475(14)
C11 C 0.7777(3) 0.53938(18) 0.46580(14)
C12 C 0.6994(3) 0.45383(18) 0.55108(14)
C13 C 0.7175(3) 0.33792(18) 0.56152(14)
C14 C 0.6422(3) 0.24542(17) 0.64529(14)
C15 C 0.6805(3) 0.12829(18) 0.64815(15)
C16 C 0.6121(3) 0.03687(19) 0.72748(15)
C17 C 0.5053(3) 0.06077(18) 0.80643(14)
C18 C 0.4652(3) 0.17950(18) 0.80508(14)
C19 C 0.5322(3) 0.26964(18) 0.72606(14)
C20 C 0.3267(4) 0.3116(2) 0.89004(17)
C21 C 0.4818(4) -0.1420(2) 0.89540(18)
H1 H 1.164(4) 0.849(3) 0.090(2)
H2 H 1.174(4) 1.058(2) 0.025(2)
H3 H 1.016(4) 1.181(2) 0.1125(19)
H4 H 0.854(4) 1.098(3) 0.266(2)
H5 H 0.597(4) 0.865(2) 0.4615(18)
H6 H 0.659(3) 0.990(2) 0.3896(15)
H7 H 0.746(4) 0.952(3) 0.533(2)
H8 H 0.918(5) 0.971(3) 0.455(2)
H9 H 0.876(4) 0.846(3) 0.523(2)
H10 H 0.693(3) 0.682(2) 0.5047(18)
H11 H 0.836(4) 0.515(2) 0.4159(19)
H12 H 0.641(4) 0.481(2) 0.6009(18)
H13 H 0.786(4) 0.319(3) 0.506(2)
H14 H 0.752(4) 0.112(2) 0.594(2)
H15 H 0.641(5) -0.047(3) 0.726(2)
H16 H 0.508(4) 0.347(2) 0.7251(19)
H17 H 0.266(4) 0.310(2) 0.948(2)
H18 H 0.266(4) 0.365(3) 0.842(2)
H19 H 0.433(5) 0.342(3) 0.884(2)
H20 H 0.434(4) -0.181(3) 0.957(2)
H21 H 0.619(4) -0.163(2) 0.8873(19)
H22 H 0.431(4) -0.161(3) 0.851(2)
O7 O 0.7962(3) -0.6016(2) 0.86834(18)
O8 O 0.7876(9) -0.3915(6) 0.9166(6)
C22 C 0.7334(11) -0.4904(5) 0.8110(4)
H23 H 0.5966 -0.4798 0.8273
H24 H 0.7660 -0.4877 0.7440
C23 C 0.8126(9) -0.3863(6) 0.8199(4)
H25 H 0.9464 -0.3877 0.7924
H26 H 0.7499 -0.3113 0.7831
C24 C 0.8548(10) -0.5037(5) 0.9737(4)
H27 H 0.8247 -0.5067 1.0408
H28 H 0.9914 -0.5132 0.9559
C25 C 0.7770(15) -0.6063(6) 0.9656(6)
H29 H 0.8421 -0.6809 1.0013
H30 H 0.6441 -0.6060 0.9950
C26? C 0.836(2) -0.4804(12) 0.7994(10)
C27? C 0.702(3) -0.3996(14) 0.8380(10)
C28? C 0.6958(14) -0.5290(12) 0.9934(7)
C29? C 0.817(3) -0.610(2) 0.9424(12)
H31? H 0.9648 -0.4654 0.7962
H32? H 0.8195 -0.4722 0.7350
H33? H 0.7213 -0.3176 0.7970
H34? H 0.5754 -0.4140 0.8378
H35? H 0.5644 -0.5447 1.0073
H36? H 0.7360 -0.5405 1.0537
H37? H 0.9475 -0.5974 0.9373
H38? H 0.8001 -0.6917 0.9838
O9? O 0.719(2) -0.4135(14) 0.9300(10)
loop_
_geom_bond_atom_site_label_1
_geom_bond_atom_site_label_2
_geom_bond_site_symmetry_1
_geom_bond_site_symmetry_2
Cl1 O1 1_555 1_555
O2 Cl1 1_555 1_555
O3 Cl1 1_555 1_555
O4 Cl1 1_555 1_555
S1 C1 1_555 1_555
O5 C18 1_555 1_555
O6 C17 1_555 1_555
N1 C6 1_555 1_555
C1 C2 1_555 1_555
C2 C3 1_555 1_555
C3 C4 1_555 1_555
C4 C5 1_555 1_555
C5 C6 1_555 1_555
C6 C1 1_555 1_555
C7 N1 1_555 1_555
C8 C7 1_555 1_555
C9 S1 1_555 1_555
C10 C9 1_555 1_555
C11 C10 1_555 1_555
C12 C11 1_555 1_555
C13 C12 1_555 1_555
C14 C13 1_555 1_555
C15 C14 1_555 1_555
C16 C15 1_555 1_555
C17 C16 1_555 1_555
C18 C17 1_555 1_555
C19 C14 1_555 1_555
C20 O5 1_555 1_555
C21 O6 1_555 1_555
H1 C2 1_555 1_555
H2 C3 1_555 1_555
H3 C4 1_555 1_555
H4 C5 1_555 1_555
H5 C7 1_555 1_555
H6 C7 1_555 1_555
H7 C8 1_555 1_555
H8 C8 1_555 1_555
H9 C8 1_555 1_555
H10 C10 1_555 1_555
H11 C11 1_555 1_555
H12 C12 1_555 1_555
H13 C13 1_555 1_555
H14 C15 1_555 1_555
H15 C16 1_555 1_555
H16 C19 1_555 1_555
H17 C20 1_555 1_555
H18 C20 1_555 1_555
H19 C20 1_555 1_555
H20 C21 1_555 1_555
H21 C21 1_555 1_555
H22 C21 1_555 1_555
O7 C22 1_555 1_555
O8 C23 1_555 1_555
C22 H23 1_555 1_555
H24 C22 1_555 1_555
C23 C22 1_555 1_555
H25 C23 1_555 1_555
H26 C23 1_555 1_555
C24 O8 1_555 1_555
H27 C24 1_555 1_555
H28 C24 1_555 1_555
C25 O7 1_555 1_555
H29 C25 1_555 1_555
H30 C25 1_555 1_555
N1 C9 1_555 1_555
C18 C19 1_555 1_555
C24 C25 1_555 1_555

#END
