
#######################################################################
#
#                 Cambridge Crystallographic Data Centre
#                                CCDC 
#
#######################################################################
#
# If this CIF has been generated from an entry in the Cambridge 
# Structural Database, then it will include bibliographic, chemical, 
# crystal, experimental, refinement or atomic coordinate data resulting 
# from the CCDC's data processing and validation procedures.
#
#######################################################################

data_KAMNOC
_chemical_formula_moiety         'C18 H22 N4 O2'
_chemical_name_systematic        1,6-bis(Pyridine-4-carboxamido)hexane
_symmetry_cell_setting           monoclinic
_symmetry_space_group_name_H-M   'P 21/c'
_symmetry_Int_Tables_number      14
_space_group_name_Hall           '-P 2ybc'
loop_
_symmetry_equiv_pos_site_id
_symmetry_equiv_pos_as_xyz
1 x,y,z
2 -x,1/2+y,1/2-z
3 -x,-y,-z
4 x,1/2-y,1/2+z
_cell_length_a                   5.0940(9)
_cell_length_b                   5.2911(10)
_cell_length_c                   30.759(6)
_cell_angle_alpha                90
_cell_angle_beta                 91.067(3)
_cell_angle_gamma                90
_cell_volume                     828.899
_exptl_crystal_colour            yellow
_exptl_crystal_description       plate
_cell_formula_units_Z            2
_exptl_crystal_recrystallization_method ethanol
loop_
_atom_site_label
_atom_site_type_symbol
_atom_site_fract_x
_atom_site_fract_y
_atom_site_fract_z
O1 O 0.19333(19) 0.6683(2) 0.10242(4)
N1 N -0.2033(3) 1.1864(3) 0.22080(4)
N2 N -0.2330(2) 0.5678(2) 0.09456(4)
H1 H -0.3908 0.5915 0.1031
C1 C -0.3122(3) 0.8210(3) 0.17818(5)
H2 H -0.4231 0.6835 0.1736
C2 C -0.3530(3) 0.9858(3) 0.21231(5)
H3 H -0.4935 0.9544 0.2304
C3 C -0.0032(3) 1.2257(3) 0.19426(5)
H4 H 0.1037 1.3653 0.1995
C4 C 0.0546(3) 1.0715(3) 0.15957(5)
H5 H 0.1977 1.1065 0.1422
C5 C -0.1032(3) 0.8642(3) 0.15094(4)
C6 C -0.0357(3) 0.6926(3) 0.11385(5)
C7 C -0.1848(3) 0.3914(3) 0.05915(5)
H6 H -0.0487 0.2733 0.0682
H7 H -0.1217 0.4844 0.0343
C8 C -0.4277(3) 0.2463(3) 0.04592(5)
H8 H -0.5662 0.3644 0.0381
H9 H -0.4865 0.1473 0.0704
C9 C -0.3782(3) 0.0712(3) 0.00769(5)
H10 H -0.3121 0.1701 -0.0163
H11 H -0.2435 -0.0500 0.0160
O1B O -1.19333(19) -0.6683(2) -0.10242(4)
N1B N -0.7967(3) -1.1864(3) -0.22080(4)
N2B N -0.7670(2) -0.5678(2) -0.09456(4)
H1B H -0.6092 -0.5915 -0.1031
C1B C -0.6878(3) -0.8210(3) -0.17818(5)
H2B H -0.5769 -0.6835 -0.1736
C2B C -0.6470(3) -0.9858(3) -0.21231(5)
H3B H -0.5065 -0.9544 -0.2304
C3B C -0.9968(3) -1.2257(3) -0.19426(5)
H4B H -1.1037 -1.3653 -0.1995
C4B C -1.0546(3) -1.0715(3) -0.15957(5)
H5B H -1.1977 -1.1065 -0.1422
C5B C -0.8968(3) -0.8642(3) -0.15094(4)
C6B C -0.9643(3) -0.6926(3) -0.11385(5)
C7B C -0.8152(3) -0.3914(3) -0.05915(5)
H6B H -0.9513 -0.2733 -0.0682
H7B H -0.8783 -0.4844 -0.0343
C8B C -0.5723(3) -0.2463(3) -0.04592(5)
H8B H -0.4338 -0.3644 -0.0381
H9B H -0.5135 -0.1473 -0.0704
C9B C -0.6218(3) -0.0712(3) -0.00769(5)
H10B H -0.6879 -0.1701 0.0163
H11B H -0.7565 0.0500 -0.0160
loop_
_geom_bond_atom_site_label_1
_geom_bond_atom_site_label_2
_geom_bond_site_symmetry_1
_geom_bond_site_symmetry_2
O1 C6 1_555 1_555
N1 C2 1_555 1_555
N2 H1 1_555 1_555
C1 H2 1_555 1_555
C2 C1 1_555 1_555
H3 C2 1_555 1_555
C3 N1 1_555 1_555
H4 C3 1_555 1_555
C4 C3 1_555 1_555
H5 C4 1_555 1_555
C5 C1 1_555 1_555
C6 N2 1_555 1_555
C7 N2 1_555 1_555
H6 C7 1_555 1_555
H7 C7 1_555 1_555
C8 C7 1_555 1_555
H8 C8 1_555 1_555
H9 C8 1_555 1_555
C9 C8 1_555 1_555
H10 C9 1_555 1_555
H11 C9 1_555 1_555
O1B C6B 1_555 1_555
N1B C2B 1_555 1_555
N2B H1B 1_555 1_555
C1B H2B 1_555 1_555
C2B C1B 1_555 1_555
H3B C2B 1_555 1_555
C3B N1B 1_555 1_555
H4B C3B 1_555 1_555
C4B C3B 1_555 1_555
H5B C4B 1_555 1_555
C5B C1B 1_555 1_555
C6B N2B 1_555 1_555
C7B N2B 1_555 1_555
H6B C7B 1_555 1_555
H7B C7B 1_555 1_555
C8B C7B 1_555 1_555
H8B C8B 1_555 1_555
H9B C8B 1_555 1_555
C9B C9 1_555 1_555
H10B C9B 1_555 1_555
H11B C9B 1_555 1_555
C4 C5 1_555 1_555
C5 C6 1_555 1_555
C4B C5B 1_555 1_555
C5B C6B 1_555 1_555
C8B C9B 1_555 1_555

#END
