
#######################################################################
#
#                 Cambridge Crystallographic Data Centre
#                                CCDC 
#
#######################################################################
#
# If this CIF has been generated from an entry in the Cambridge 
# Structural Database, then it will include bibliographic, chemical, 
# crystal, experimental, refinement or atomic coordinate data resulting 
# from the CCDC's data processing and validation procedures.
#
#######################################################################

data_KAMQOH
_chemical_name_common            'bis(baicalein) caffeine'
_chemical_formula_moiety         '2(C15 H10 O5),C8 H10 N4 O2'
_chemical_name_systematic        
'bis(5,6,7-trihydroxy-2-phenyl-4H-chromen-4-one) 1,3,7-trimethyl-3,7-dihydro-1H-purine-2,6-dione'
_symmetry_cell_setting           monoclinic
_symmetry_space_group_name_H-M   'P 21/c'
_symmetry_Int_Tables_number      14
_space_group_name_Hall           '-P 2ybc'
loop_
_symmetry_equiv_pos_site_id
_symmetry_equiv_pos_as_xyz
1 x,y,z
2 -x,1/2+y,1/2-z
3 -x,-y,-z
4 x,1/2-y,1/2+z
_cell_length_a                   24.669(3)
_cell_length_b                   4.5593(5)
_cell_length_c                   28.267(3)
_cell_angle_alpha                90
_cell_angle_beta                 90.320(8)
_cell_angle_gamma                90
_cell_volume                     3179.24
_exptl_crystal_colour            yellowish
_exptl_crystal_description       needle
_cell_formula_units_Z            4
loop_
_atom_site_label
_atom_site_type_symbol
_atom_site_fract_x
_atom_site_fract_y
_atom_site_fract_z
O1 O 0.16236(12) 1.1997(7) 0.23951(10)
O2 O 0.11384(10) 0.5574(6) 0.36817(10)
O3 O 0.25431(11) 1.3652(8) 0.29205(12)
O4 O 0.07551(11) 0.8795(7) 0.23731(11)
O5 O 0.26849(11) 1.1571(7) 0.38019(10)
H1 H 0.2872 1.2665 0.3640
C1 C 0.06826(16) 0.4620(10) 0.34451(16)
C2 C 0.05528(17) 0.5620(10) 0.30110(16)
H2 H 0.0243 0.4905 0.2863
C3 C 0.08772(16) 0.7749(10) 0.27703(16)
C4 C 0.17167(16) 1.0818(10) 0.28315(15)
C5 C 0.21677(16) 1.1710(10) 0.30835(15)
C6 C 0.22533(16) 1.0611(10) 0.35409(15)
C7 C 0.19109(16) 0.8575(10) 0.37387(15)
H3 H 0.1973 0.7851 0.4042
C8 C 0.14720(15) 0.7640(10) 0.34736(15)
C9 C 0.13576(16) 0.8733(10) 0.30209(15)
C10 C 0.03775(16) 0.2502(10) 0.37311(15)
C11 C 0.05787(17) 0.1535(10) 0.41663(16)
H4 H 0.0910 0.2225 0.4278
C12 C 0.02849(17) -0.0449(11) 0.44321(17)
H5 H 0.0423 -0.1089 0.4721
C13 C -0.02115(17) -0.1498(11) 0.42747(17)
H6 H -0.0410 -0.2813 0.4456
C14 C -0.04064(17) -0.0541(11) 0.38392(17)
H7 H -0.0736 -0.1258 0.3726
C15 C -0.01201(16) 0.1455(10) 0.35703(16)
H8 H -0.0260 0.2097 0.3282
H9 H 0.1303(16) 1.111(9) 0.2313(14)
H10 H 0.248(2) 1.469(13) 0.2655(19)
O6 O 0.28729(11) 0.6399(7) 0.08070(10)
O7 O 0.41927(12) 1.4128(8) 0.17722(11)
O8 O 0.43018(11) 1.3384(7) 0.08233(12)
O9 O 0.34118(12) 1.1263(8) 0.22478(11)
O10 O 0.26233(11) 0.7480(7) 0.22219(10)
C16 C 0.24790(16) 0.4843(10) 0.10344(16)
C17 C 0.23897(16) 0.5151(10) 0.15017(16)
H11 H 0.2116 0.4063 0.1644
C18 C 0.27078(17) 0.7124(10) 0.17846(16)
C19 C 0.34706(16) 1.0701(10) 0.17773(15)
C20 C 0.38671(16) 1.2215(10) 0.15336(16)
C21 C 0.39135(17) 1.1759(10) 0.10433(15)
C22 C 0.35797(16) 0.9801(10) 0.08091(16)
H12 H 0.3616 0.9497 0.0486
C23 C 0.31955(16) 0.8317(10) 0.10602(15)
C24 C 0.31282(16) 0.8708(10) 0.15429(15)
C25 C 0.21681(16) 0.2955(10) 0.07026(16)
C26 C 0.22646(17) 0.3096(11) 0.02176(16)
H13 H 0.2535 0.4323 0.0104
C27 C 0.19616(17) 0.1428(11) -0.00972(17)
H14 H 0.2027 0.1562 -0.0420
C28 C 0.15636(17) -0.0431(11) 0.00675(17)
H15 H 0.1361 -0.1551 -0.0144
C29 C 0.14654(16) -0.0628(11) 0.05495(17)
H16 H 0.1198 -0.1883 0.0661
C30 C 0.17681(16) 0.1059(10) 0.08657(17)
H17 H 0.1702 0.0918 0.1189
H18 H 0.314(2) 1.008(15) 0.234(2)
H19 H 0.4430(18) 1.513(11) 0.1599(17)
H20 H 0.426(3) 1.323(16) 0.049(2)
O11 O 0.60159(12) 0.5340(7) 0.00721(11)
O12 O 0.51033(11) 0.7283(7) 0.14502(10)
N1 N 0.58745(13) 0.2760(8) 0.19097(12)
N2 N 0.65231(13) 0.0561(8) 0.14761(13)
N3 N 0.63078(13) 0.2970(8) 0.07320(12)
N4 N 0.55704(13) 0.6278(8) 0.07612(12)
C31 C 0.62916(16) 0.0845(10) 0.19072(16)
H21 H 0.6408 -0.0175 0.2174
C32 C 0.62282(16) 0.2463(10) 0.12074(15)
C33 C 0.55316(17) 0.3506(11) 0.23140(15)
H22 H 0.5628 0.2296 0.2579
H23 H 0.5158 0.3180 0.2232
H24 H 0.5583 0.5532 0.2395
C34 C 0.54671(17) 0.5908(10) 0.12574(15)
C35 C 0.52142(17) 0.8292(10) 0.05043(17)
H25 H 0.5429 0.9580 0.0313
H26 H 0.5008 0.9427 0.0726
H27 H 0.4971 0.7191 0.0306
C36 C 0.59682(17) 0.4894(11) 0.05045(17)
C37 C 0.67616(16) 0.1584(11) 0.04881(16)
H28 H 0.6677 -0.0437 0.0428
H29 H 0.7081 0.1704 0.0683
H30 H 0.6825 0.2575 0.0194
C38 C 0.58279(16) 0.3828(10) 0.14536(15)
loop_
_geom_bond_atom_site_label_1
_geom_bond_atom_site_label_2
_geom_bond_site_symmetry_1
_geom_bond_site_symmetry_2
O1 C4 1_555 1_555
O2 C1 1_555 1_555
O3 C5 1_555 1_555
O4 C3 1_555 1_555
O5 H1 1_555 1_555
C1 C2 1_555 1_555
C2 H2 1_555 1_555
C3 C2 1_555 1_555
C4 C5 1_555 1_555
C5 C6 1_555 1_555
C6 O5 1_555 1_555
C7 C6 1_555 1_555
H3 C7 1_555 1_555
C8 O2 1_555 1_555
C9 C3 1_555 1_555
C10 C1 1_555 1_555
C11 C10 1_555 1_555
H4 C11 1_555 1_555
C12 C11 1_555 1_555
H5 C12 1_555 1_555
C13 C12 1_555 1_555
H6 C13 1_555 1_555
C14 C13 1_555 1_555
H7 C14 1_555 1_555
C15 C10 1_555 1_555
H8 C15 1_555 1_555
H9 O1 1_555 1_555
H10 O3 1_555 1_555
O6 C16 1_555 1_555
O7 C20 1_555 1_555
O8 C21 1_555 1_555
O9 C19 1_555 1_555
O10 C18 1_555 1_555
C16 C17 1_555 1_555
C17 H11 1_555 1_555
C18 C17 1_555 1_555
C19 C20 1_555 1_555
C20 C21 1_555 1_555
C21 C22 1_555 1_555
C22 H12 1_555 1_555
C23 O6 1_555 1_555
C24 C18 1_555 1_555
C25 C16 1_555 1_555
C26 C25 1_555 1_555
H13 C26 1_555 1_555
C27 C26 1_555 1_555
H14 C27 1_555 1_555
C28 C27 1_555 1_555
H15 C28 1_555 1_555
C29 C28 1_555 1_555
H16 C29 1_555 1_555
C30 C25 1_555 1_555
H17 C30 1_555 1_555
H18 O9 1_555 1_555
H19 O7 1_555 1_555
H20 O8 1_555 1_555
O11 C36 1_555 1_555
O12 C34 1_555 1_555
N1 C31 1_555 1_555
N2 C31 1_555 1_555
N3 C32 1_555 1_555
N4 C34 1_555 1_555
C31 H21 1_555 1_555
C32 N2 1_555 1_555
C33 N1 1_555 1_555
H22 C33 1_555 1_555
H23 C33 1_555 1_555
H24 C33 1_555 1_555
C34 C38 1_555 1_555
C35 N4 1_555 1_555
H25 C35 1_555 1_555
H26 C35 1_555 1_555
H27 C35 1_555 1_555
C36 N3 1_555 1_555
C37 N3 1_555 1_555
H28 C37 1_555 1_555
H29 C37 1_555 1_555
H30 C37 1_555 1_555
C38 N1 1_555 1_555
C4 C9 1_555 1_555
C7 C8 1_555 1_555
C8 C9 1_555 1_555
C14 C15 1_555 1_555
C19 C24 1_555 1_555
C22 C23 1_555 1_555
C23 C24 1_555 1_555
C29 C30 1_555 1_555
N4 C36 1_555 1_555
C32 C38 1_555 1_555

#END
