
#######################################################################
#
#                 Cambridge Crystallographic Data Centre
#                                CCDC 
#
#######################################################################
#
# If this CIF has been generated from an entry in the Cambridge 
# Structural Database, then it will include bibliographic, chemical, 
# crystal, experimental, refinement or atomic coordinate data resulting 
# from the CCDC's data processing and validation procedures.
#
#######################################################################

data_KAMQOF
_chemical_formula_moiety         'C18 H8 Cl3 F3 N4'
_chemical_name_systematic        
5-(((4-Chlorophenyl)methylene)amino)-1-(2,6-dichloro-4-trifluoromethylphenyl)-1H-pyrazole-3-carbonitrile
_symmetry_cell_setting           triclinic
_symmetry_space_group_name_H-M   'P -1'
_symmetry_Int_Tables_number      2
_space_group_name_Hall           '-P 1'
loop_
_symmetry_equiv_pos_site_id
_symmetry_equiv_pos_as_xyz
1 x,y,z
2 -x,-y,-z
_cell_length_a                   9.7553(9)
_cell_length_b                   9.7554(9)
_cell_length_c                   11.7319(11)
_cell_angle_alpha                68.5820(10)
_cell_angle_beta                 68.5800(10)
_cell_angle_gamma                69.340(10)
_cell_volume                     936.054
_exptl_crystal_colour            colorless
_exptl_crystal_description       block
_chemical_melting_point          '452-454 K'
_cell_formula_units_Z            2
_exptl_crystal_recrystallization_method 'ethyl acetate/petroleum ether'
loop_
_atom_site_label
_atom_site_type_symbol
_atom_site_fract_x
_atom_site_fract_y
_atom_site_fract_z
Cl1 Cl 0.69522(9) 0.20876(9) -0.08804(7)
Cl2 Cl 0.60998(8) 0.64567(10) 0.55743(7)
Cl3 Cl 0.38934(9) 1.06139(9) 0.17613(8)
F1 F -0.05082(19) 0.8122(3) 0.5542(3)
F2 F 0.0577(2) 0.6560(3) 0.44158(18)
F3 F 0.0703(2) 0.5894(3) 0.63096(18)
N1 N 0.7026(2) 0.7042(2) 0.18512(17)
N2 N 0.62946(19) 0.8782(2) 0.30674(16)
N3 N 0.6697(2) 0.9861(2) 0.32414(18)
N4 N 0.9575(3) 1.1709(3) 0.2101(3)
C1 C 0.7158(3) 0.3477(3) -0.0400(2)
C2 C 0.8177(3) 0.4326(3) -0.1200(2)
H1 H 0.8742 0.4170 -0.1995
C3 C 0.8352(3) 0.5410(3) -0.0810(2)
H2 H 0.9041 0.5989 -0.1343
C4 C 0.7503(2) 0.5646(2) 0.0380(2)
C5 C 0.6458(2) 0.4789(3) 0.1155(2)
H3 H 0.5867 0.4959 0.1940
C6 C 0.6284(3) 0.3694(3) 0.0780(2)
H4 H 0.5595 0.3113 0.1308
C7 C 0.7718(2) 0.6790(3) 0.0771(2)
H5 H 0.8396 0.7366 0.0202
C8 C 0.7333(2) 0.8156(2) 0.2122(2)
C9 C 0.8500(2) 0.8847(3) 0.1676(2)
H6 H 0.9396 0.8668 0.1037
C10 C 0.8047(2) 0.9876(2) 0.2390(2)
C11 C 0.8875(3) 1.0910(3) 0.2260(2)
C12 C 0.4846(2) 0.8461(2) 0.37182(19)
C13 C 0.4637(3) 0.7328(3) 0.4854(2)
C14 C 0.3302(3) 0.6870(3) 0.5382(2)
H7 H 0.3179 0.6087 0.6129
C15 C 0.2156(3) 0.7585(3) 0.4788(2)
C16 C 0.2300(3) 0.8774(3) 0.3699(2)
H8 H 0.1497 0.9283 0.3330
C17 C 0.3651(3) 0.9195(3) 0.3168(2)
C18 C 0.0723(3) 0.7048(3) 0.5269(3)
loop_
_geom_bond_atom_site_label_1
_geom_bond_atom_site_label_2
_geom_bond_site_symmetry_1
_geom_bond_site_symmetry_2
Cl1 C1 1_555 1_555
Cl2 C13 1_555 1_555
Cl3 C17 1_555 1_555
F1 C18 1_555 1_555
F2 C18 1_555 1_555
F3 C18 1_555 1_555
N1 C7 1_555 1_555
N2 N3 1_555 1_555
N3 C10 1_555 1_555
N4 C11 1_555 1_555
C1 C2 1_555 1_555
C2 H1 1_555 1_555
C3 C2 1_555 1_555
H2 C3 1_555 1_555
C4 C3 1_555 1_555
C5 C4 1_555 1_555
H3 C5 1_555 1_555
C6 C1 1_555 1_555
H4 C6 1_555 1_555
C7 C4 1_555 1_555
H5 C7 1_555 1_555
C8 N1 1_555 1_555
C9 C8 1_555 1_555
H6 C9 1_555 1_555
C10 C9 1_555 1_555
C11 C10 1_555 1_555
C12 N2 1_555 1_555
C13 C12 1_555 1_555
C14 C13 1_555 1_555
H7 C14 1_555 1_555
C15 C14 1_555 1_555
C16 C15 1_555 1_555
H8 C16 1_555 1_555
C17 C12 1_555 1_555
C18 C15 1_555 1_555
N2 C8 1_555 1_555
C5 C6 1_555 1_555
C16 C17 1_555 1_555

#END
