
#######################################################################
#
#                 Cambridge Crystallographic Data Centre
#                                CCDC 
#
#######################################################################
#
# If this CIF has been generated from an entry in the Cambridge 
# Structural Database, then it will include bibliographic, chemical, 
# crystal, experimental, refinement or atomic coordinate data resulting 
# from the CCDC's data processing and validation procedures.
#
#######################################################################

data_KAMROH
_chemical_formula_moiety         'C14 H19 N3 O5'
_chemical_name_systematic        
't-Butyl (3-((3-nitrophenyl)amino)-3-oxopropyl)carbamate'
_symmetry_cell_setting           monoclinic
_symmetry_space_group_name_H-M   'P 21'
_symmetry_Int_Tables_number      4
_space_group_name_Hall           'P 2yb'
loop_
_symmetry_equiv_pos_site_id
_symmetry_equiv_pos_as_xyz
1 x,y,z
2 -x,1/2+y,-z
_cell_length_a                   5.0378(3)
_cell_length_b                   26.2742(14)
_cell_length_c                   5.5682(3)
_cell_angle_alpha                90
_cell_angle_beta                 96.056(2)
_cell_angle_gamma                90
_cell_volume                     732.917
_exptl_crystal_colour            colorless
_exptl_crystal_description       block
_cell_formula_units_Z            2
loop_
_atom_site_label
_atom_site_type_symbol
_atom_site_fract_x
_atom_site_fract_y
_atom_site_fract_z
C1 C -0.0309(4) -0.05281(7) 0.1401(4)
C2 C -0.2047(4) -0.05701(7) -0.0697(4)
H1 H -0.1871 -0.0835 -0.1830
C3 C -0.4054(4) -0.02077(8) -0.1070(4)
H2 H -0.5296 -0.0228 -0.2474
C4 C -0.4280(4) 0.01830(7) 0.0574(4)
H3 H -0.5661 0.0429 0.0285
C5 C -0.2473(3) 0.02153(7) 0.2657(3)
C6 C -0.0482(4) -0.01481(7) 0.3081(3)
H4 H 0.0739 -0.0135 0.4502
C7 C -0.0631(3) 0.08613(7) 0.5567(3)
C8 C -0.1365(4) 0.13005(8) 0.7124(4)
H5 H -0.3265 0.1272 0.7414
H6 H -0.1127 0.1626 0.6274
C9 C 0.0374(4) 0.12991(7) 0.9522(4)
H7 H -0.0023 0.0991 1.0444
H8 H 0.2273 0.1284 0.9219
C10 C 0.2023(4) 0.19989(7) 1.2110(3)
C11 C 0.3054(3) 0.27698(7) 1.4529(4)
C12 C 0.4429(4) 0.30352(7) 1.2589(4)
H9 H 0.5677 0.2799 1.1936
H10 H 0.5409 0.3332 1.3286
H11 H 0.3090 0.3146 1.1290
C13 C 0.4977(4) 0.25169(8) 1.6441(4)
H12 H 0.3978 0.2303 1.7472
H13 H 0.5957 0.2778 1.7428
H14 H 0.6241 0.2306 1.5660
C14 C 0.1260(4) 0.31396(9) 1.5685(5)
H15 H -0.0054 0.3282 1.4442
H16 H 0.2341 0.3415 1.6465
H17 H 0.0331 0.2961 1.6895
N1 N 0.1858(3) -0.09040(6) 0.1862(3)
N2 N -0.2718(3) 0.06201(6) 0.4297(3)
H18 H -0.4339 0.0723 0.4510
N3 N -0.0056(3) 0.17470(6) 1.0953(3)
H19 H -0.1692 0.1855 1.1064
O1 O 0.2034(3) -0.12428(6) 0.0368(3)
O2 O 0.3372(3) -0.08627(6) 0.3730(3)
O3 O 0.1702(2) 0.07404(5) 0.5443(3)
O4 O 0.4364(2) 0.18830(5) 1.2021(3)
O5 O 0.1142(2) 0.23872(5) 1.3398(3)
loop_
_geom_bond_atom_site_label_1
_geom_bond_atom_site_label_2
_geom_bond_site_symmetry_1
_geom_bond_site_symmetry_2
C1 C2 1_555 1_555
C2 H1 1_555 1_555
C3 C2 1_555 1_555
H2 C3 1_555 1_555
C4 C3 1_555 1_555
H3 C4 1_555 1_555
C5 C4 1_555 1_555
C6 C1 1_555 1_555
H4 C6 1_555 1_555
C7 C8 1_555 1_555
C8 H5 1_555 1_555
H6 C8 1_555 1_555
C9 C8 1_555 1_555
H7 C9 1_555 1_555
H8 C9 1_555 1_555
C10 N3 1_555 1_555
C11 C12 1_555 1_555
C12 H9 1_555 1_555
H10 C12 1_555 1_555
H11 C12 1_555 1_555
C13 C11 1_555 1_555
H12 C13 1_555 1_555
H13 C13 1_555 1_555
H14 C13 1_555 1_555
C14 C11 1_555 1_555
H15 C14 1_555 1_555
H16 C14 1_555 1_555
H17 C14 1_555 1_555
N1 C1 1_555 1_555
N2 C5 1_555 1_555
H18 N2 1_555 1_555
N3 C9 1_555 1_555
H19 N3 1_555 1_555
O1 N1 1_555 1_555
O2 N1 1_555 1_555
O3 C7 1_555 1_555
O4 C10 1_555 1_555
O5 C10 1_555 1_555
C5 C6 1_555 1_555
C7 N2 1_555 1_555
C11 O5 1_555 1_555

#END
