
#######################################################################
#
#                 Cambridge Crystallographic Data Centre
#                                CCDC 
#
#######################################################################
#
# If this CIF has been generated from an entry in the Cambridge 
# Structural Database, then it will include bibliographic, chemical, 
# crystal, experimental, refinement or atomic coordinate data resulting 
# from the CCDC's data processing and validation procedures.
#
#######################################################################

data_KAMREW
_chemical_formula_moiety         'C4 H12 N1 O1 1+,C4 H5 O6 1-'
_chemical_name_systematic        '(S)-2-Ammonio-1-butanol (2R,3R)-tartrate'
_symmetry_cell_setting           orthorhombic
_symmetry_space_group_name_H-M   'P 21 21 21'
_symmetry_Int_Tables_number      19
_space_group_name_Hall           'P 2ac 2ab'
loop_
_symmetry_equiv_pos_site_id
_symmetry_equiv_pos_as_xyz
1 x,y,z
2 1/2-x,-y,1/2+z
3 -x,1/2+y,1/2-z
4 1/2+x,1/2-y,-z
_cell_length_a                   7.2959(7)
_cell_length_b                   9.4843(9)
_cell_length_c                   16.0204(16)
_cell_angle_alpha                90
_cell_angle_beta                 90
_cell_angle_gamma                90
_cell_volume                     1108.56
_exptl_crystal_colour            colorless
_exptl_crystal_description       block
_cell_formula_units_Z            4
_exptl_crystal_recrystallization_method methanol/dioxane
loop_
_atom_site_label
_atom_site_type_symbol
_atom_site_fract_x
_atom_site_fract_y
_atom_site_fract_z
O1 O 0.7237(2) 0.46675(13) 0.95856(8)
O2 O 0.86184(19) 0.31069(15) 1.04027(7)
H1 H 0.803(3) 0.350(3) 1.0806(13)
O3 O 0.83865(17) 0.33572(13) 0.81953(7)
H2 H 0.909(3) 0.389(2) 0.7916(14)
O4 O 0.72321(19) 0.08494(14) 0.89742(11)
H3 H 0.657(4) 0.147(2) 0.9162(18)
O5 O 1.19287(16) 0.08658(13) 0.83771(7)
O6 O 0.94647(18) -0.01134(14) 0.78128(8)
C1 C 0.8234(2) 0.36644(16) 0.96787(10)
C2 C 0.9190(2) 0.29293(15) 0.89484(9)
H4 H 1.0485 0.3203 0.8945
C3 C 0.9062(2) 0.13169(16) 0.90305(10)
H5 H 0.9557 0.1039 0.9575
C4 C 1.0217(2) 0.06315(16) 0.83462(10)
C5 C 0.4666(3) 0.29497(17) 0.64838(11)
H6 H 0.5503 0.3680 0.6298
H7 H 0.3816 0.2744 0.6034
C6 C 0.5719(2) 0.16340(15) 0.67218(9)
H8 H 0.6479 0.1849 0.7210
C7 C 0.6958(3) 0.10806(19) 0.60294(12)
H9 H 0.7301 0.0116 0.6156
H10 H 0.6280 0.1074 0.5509
C8 C 0.8674(3) 0.1948(3) 0.59189(15)
H11 H 0.8349 0.2879 0.5735
H12 H 0.9450 0.1510 0.5510
H13 H 0.9313 0.2009 0.6441
N1 N 0.4361(2) 0.05364(15) 0.69611(9)
H14 H 0.357(3) 0.085(2) 0.7347(11)
H15 H 0.494(3) -0.0194(17) 0.7180(12)
H16 H 0.365(2) 0.024(2) 0.6543(10)
O7 O 0.36965(18) 0.34047(13) 0.72031(9)
H17 H 0.280(2) 0.395(2) 0.7049(15)
loop_
_geom_bond_atom_site_label_1
_geom_bond_atom_site_label_2
_geom_bond_site_symmetry_1
_geom_bond_site_symmetry_2
O1 C1 1_555 1_555
O2 H1 1_555 1_555
O3 H2 1_555 1_555
O4 H3 1_555 1_555
O5 C4 1_555 1_555
O6 C4 1_555 1_555
C1 O2 1_555 1_555
C2 O3 1_555 1_555
H4 C2 1_555 1_555
C3 O4 1_555 1_555
H5 C3 1_555 1_555
C4 C3 1_555 1_555
C5 H6 1_555 1_555
H7 C5 1_555 1_555
C6 C5 1_555 1_555
H8 C6 1_555 1_555
C7 C6 1_555 1_555
H9 C7 1_555 1_555
H10 C7 1_555 1_555
C8 C7 1_555 1_555
H11 C8 1_555 1_555
H12 C8 1_555 1_555
H13 C8 1_555 1_555
N1 C6 1_555 1_555
H14 N1 1_555 1_555
H15 N1 1_555 1_555
H16 N1 1_555 1_555
O7 C5 1_555 1_555
H17 O7 1_555 1_555
C1 C2 1_555 1_555
C2 C3 1_555 1_555

#END
