
#######################################################################
#
#                 Cambridge Crystallographic Data Centre
#                                CCDC 
#
#######################################################################
#
# If this CIF has been generated from an entry in the Cambridge 
# Structural Database, then it will include bibliographic, chemical, 
# crystal, experimental, refinement or atomic coordinate data resulting 
# from the CCDC's data processing and validation procedures.
#
#######################################################################

data_KAMRAU
_chemical_formula_moiety         'C15 H10 O5,2(C6 H6 N2 O1)'
_chemical_name_systematic        
'bis(isonicotinamide) 5,6,7-trihydroxy-2-phenyl-4H-chromen-4-one'
_symmetry_cell_setting           monoclinic
_symmetry_space_group_name_H-M   'P 21/n'
_symmetry_Int_Tables_number      14
_space_group_name_Hall           '-P 2yn'
loop_
_symmetry_equiv_pos_site_id
_symmetry_equiv_pos_as_xyz
1 x,y,z
2 1/2-x,1/2+y,1/2-z
3 -x,-y,-z
4 1/2+x,1/2-y,1/2+z
_cell_length_a                   6.1137(3)
_cell_length_b                   19.6757(9)
_cell_length_c                   19.9136(9)
_cell_angle_alpha                90
_cell_angle_beta                 93.638(3)
_cell_angle_gamma                90
_cell_volume                     2390.61
_exptl_crystal_description       prism
_cell_formula_units_Z            4
loop_
_atom_site_label
_atom_site_type_symbol
_atom_site_fract_x
_atom_site_fract_y
_atom_site_fract_z
O1 O 0.23395(18) 0.75731(6) -0.03139(6)
H1 H 0.1788 0.7213 -0.0444
O2 O 1.01001(17) 0.72445(6) 0.12006(6)
O3 O 0.38034(18) 0.62622(6) -0.00131(6)
H2 H 0.4404 0.5910 0.0121
O4 O 0.68061(19) 0.55114(6) 0.06288(6)
O5 O 0.46753(19) 0.86564(6) 0.01941(6)
H3 H 0.3586 0.8647 -0.0068
C1 C 0.4245(2) 0.74474(9) 0.00517(8)
C2 C 0.5434(3) 0.80153(8) 0.03003(8)
C3 C 0.7414(3) 0.79380(9) 0.06731(8)
H4 H 0.8218 0.8316 0.0823
C4 C 0.8163(2) 0.72931(8) 0.08157(8)
C5 C 1.0903(2) 0.66259(8) 0.13899(8)
C6 C 1.2980(2) 0.66889(8) 0.18049(8)
C7 C 1.4013(3) 0.73147(9) 0.18895(9)
H5 H 1.3372 0.7701 0.1692
C8 C 0.7010(2) 0.67123(8) 0.06001(8)
C9 C 0.9848(3) 0.60492(9) 0.12061(8)
H6 H 1.0452 0.5635 0.1347
C10 C 0.7814(3) 0.60497(9) 0.07991(8)
C11 C 1.5991(3) 0.73686(10) 0.22654(9)
H7 H 1.6682 0.7788 0.2314
C12 C 1.6934(3) 0.68005(10) 0.25679(9)
H8 H 1.8259 0.6837 0.2822
C13 C 0.5015(2) 0.68043(8) 0.02096(8)
C14 C 1.5920(3) 0.61812(11) 0.24946(10)
H9 H 1.6553 0.5799 0.2702
C15 C 1.3960(3) 0.61225(10) 0.21131(9)
H10 H 1.3291 0.5700 0.2062
N1 N 0.5417(3) 1.07507(8) 0.84234(9)
O6 O 0.5410(2) 0.98419(7) 0.77400(7)
N2 N 1.1157(2) 0.91373(8) 0.94677(7)
C16 C 0.6122(3) 1.01446(9) 0.82482(9)
C17 C 0.7874(3) 0.98117(9) 0.86990(8)
C18 C 0.7629(3) 0.91426(9) 0.88832(9)
H11 H 0.6358 0.8906 0.8751
C19 C 0.9296(3) 0.88276(9) 0.92677(9)
H12 H 0.9106 0.8377 0.9393
C20 C 1.1380(3) 0.97845(10) 0.92903(10)
H13 H 1.2675 1.0007 0.9426
C21 C 0.9784(3) 1.01433(10) 0.89141(10)
H14 H 0.9994 1.0598 0.8809
H15 H 0.424(4) 1.0921(10) 0.8167(11)
H16 H 0.572(4) 1.0903(11) 0.8819(12)
N3 N 0.2909(3) 0.53809(8) 0.81809(9)
C22 C 0.8969(3) 0.60516(9) 0.91747(8)
H17 H 0.9761 0.5791 0.9495
C23 C 0.7156(3) 0.57635(9) 0.88351(8)
H18 H 0.6717 0.5325 0.8937
O7 O 0.3586(2) 0.61262(6) 0.73648(6)
C24 C 0.4051(3) 0.58762(8) 0.79239(8)
N4 N 0.9634(2) 0.66824(8) 0.90661(7)
C25 C 0.8498(3) 0.70408(10) 0.85948(9)
H19 H 0.8935 0.7485 0.8517
C26 C 0.6710(3) 0.67883(9) 0.82166(9)
H20 H 0.5994 0.7052 0.7884
C27 C 0.6005(3) 0.61384(8) 0.83411(8)
H21 H 0.180(4) 0.5215(10) 0.7913(11)
H22 H 0.320(3) 0.5218(10) 0.8577(11)
loop_
_geom_bond_atom_site_label_1
_geom_bond_atom_site_label_2
_geom_bond_site_symmetry_1
_geom_bond_site_symmetry_2
O1 H1 1_555 1_555
O2 C4 1_555 1_555
O3 H2 1_555 1_555
O4 C10 1_555 1_555
O5 H3 1_555 1_555
C1 O1 1_555 1_555
C2 O5 1_555 1_555
C3 C2 1_555 1_555
H4 C3 1_555 1_555
C4 C3 1_555 1_555
C5 O2 1_555 1_555
C6 C5 1_555 1_555
C7 C6 1_555 1_555
H5 C7 1_555 1_555
C8 C4 1_555 1_555
C9 C5 1_555 1_555
H6 C9 1_555 1_555
C10 C8 1_555 1_555
C11 C7 1_555 1_555
H7 C11 1_555 1_555
C12 C11 1_555 1_555
H8 C12 1_555 1_555
C13 O3 1_555 1_555
C14 C12 1_555 1_555
H9 C14 1_555 1_555
C15 C6 1_555 1_555
H10 C15 1_555 1_555
N1 C16 1_555 1_555
O6 C16 1_555 1_555
N2 C19 1_555 1_555
C16 C17 1_555 1_555
C17 C18 1_555 1_555
C18 H11 1_555 1_555
C19 C18 1_555 1_555
H12 C19 1_555 1_555
C20 N2 1_555 1_555
H13 C20 1_555 1_555
C21 C17 1_555 1_555
H14 C21 1_555 1_555
H15 N1 1_555 1_555
H16 N1 1_555 1_555
N3 C24 1_555 1_555
C22 H17 1_555 1_555
C23 C22 1_555 1_555
H18 C23 1_555 1_555
O7 C24 1_555 1_555
C24 C27 1_555 1_555
N4 C22 1_555 1_555
C25 N4 1_555 1_555
H19 C25 1_555 1_555
C26 C25 1_555 1_555
H20 C26 1_555 1_555
C27 C23 1_555 1_555
H21 N3 1_555 1_555
H22 N3 1_555 1_555
C1 C2 1_555 1_555
C1 C13 1_555 1_555
C8 C13 1_555 1_555
C9 C10 1_555 1_555
C14 C15 1_555 1_555
C20 C21 1_555 1_555
C26 C27 1_555 1_555

#END
