
#######################################################################
#
#                 Cambridge Crystallographic Data Centre
#                                CCDC 
#
#######################################################################
#
# If this CIF has been generated from an entry in the Cambridge 
# Structural Database, then it will include bibliographic, chemical, 
# crystal, experimental, refinement or atomic coordinate data resulting 
# from the CCDC's data processing and validation procedures.
#
#######################################################################

data_KAMYAA
_chemical_formula_moiety         'C54 H84 B4 N4 Si2,1.5(C4 H8 O1)'
_chemical_name_systematic        
'(\m~2~-Dihydroborylene)-trihydrido-bis(1,3-bis(2,6-di-isopropylphenyl)imidazol-2-ylidene)-(heptahydrocyclotriboranyl)-di-silicon tetrahydrofuran solvate'
_symmetry_cell_setting           monoclinic
_symmetry_space_group_name_H-M   'P 21/n'
_symmetry_Int_Tables_number      14
_space_group_name_Hall           '-P 2yn'
loop_
_symmetry_equiv_pos_site_id
_symmetry_equiv_pos_as_xyz
1 x,y,z
2 1/2-x,1/2+y,1/2-z
3 -x,-y,-z
4 1/2+x,1/2-y,1/2+z
_cell_length_a                   13.9722(16)
_cell_length_b                   22.691(3)
_cell_length_c                   21.080(2)
_cell_angle_alpha                90
_cell_angle_beta                 95.694(2)
_cell_angle_gamma                90
_cell_volume                     6650.29
_exptl_crystal_colour            colorless
_exptl_crystal_description       plate
_cell_formula_units_Z            4
loop_
_atom_site_label
_atom_site_type_symbol
_atom_site_fract_x
_atom_site_fract_y
_atom_site_fract_z
Si1 Si 0.97918(8) 0.02573(5) 0.72606(6)
H1 H 0.971(3) 0.0175(15) 0.6554(18)
Si2 Si 0.82739(9) 0.13103(5) 0.72331(8)
H2 H 0.795(4) 0.126(3) 0.6542(11)
H3 H 0.749(3) 0.1051(19) 0.751(2)
B1 B 0.9596(5) 0.1103(3) 0.7468(4)
H4 H 0.978(3) 0.1164(18) 0.8006(11)
H5 H 1.012(2) 0.1385(16) 0.7237(16)
B2 B 0.9141(4) -0.0382(3) 0.7677(4)
H6 H 0.947(4) -0.0892(13) 0.756(2)
H7 H 0.940(6) -0.012(3) 0.823(2)
B3 B 0.7967(5) -0.0341(3) 0.7295(4)
H8 H 0.804(3) -0.0586(18) 0.6702(13)
H9 H 0.787(3) 0.006(2) 0.698(2)
H10 H 0.729(4) -0.036(3) 0.751(2)
B4 B 0.8086(6) -0.0288(4) 0.8100(5)
H11 H 0.801(4) 0.0224(15) 0.838(3)
H12 H 0.797(5) -0.070(2) 0.848(3)
N1 N 1.1753(2) -0.00299(15) 0.69290(15)
N2 N 1.1769(2) 0.01192(15) 0.79340(15)
N3 N 0.8134(3) 0.25889(15) 0.69435(17)
N4 N 0.7353(2) 0.23667(14) 0.77289(16)
C1 C 1.1167(3) 0.01065(17) 0.73855(18)
C2 C 1.2685(3) -0.0097(2) 0.7193(2)
H13 H 1.3213 -0.0188 0.6975
C3 C 1.2696(3) -0.0010(2) 0.7817(2)
H14 H 1.3230 -0.0031 0.8117
C4 C 1.1521(3) 0.0198(2) 0.8580(2)
C5 C 1.1302(3) -0.0301(3) 0.8923(2)
C6 C 1.1148(4) -0.0221(3) 0.9550(3)
H15 H 1.1000 -0.0546 0.9791
C7 C 1.1205(5) 0.0320(4) 0.9830(3)
H16 H 1.1101 0.0359 1.0257
C8 C 1.1416(4) 0.0806(3) 0.9484(3)
H17 H 1.1444 0.1174 0.9679
C9 C 1.1590(3) 0.0759(3) 0.8845(2)
C10 C 1.1895(4) 0.1289(3) 0.8487(3)
H18 H 1.1759 0.1209 0.8030
C11 C 1.2967(5) 0.1394(4) 0.8624(4)
H19 H 1.3147 0.1733 0.8391
H20 H 1.3311 0.1055 0.8495
H21 H 1.3122 0.1460 0.9072
C12 C 1.1375(5) 0.1861(3) 0.8636(3)
H22 H 1.1595 0.2177 0.8384
H23 H 1.1511 0.1954 0.9080
H24 H 1.0694 0.1811 0.8538
C13 C 1.1274(4) -0.0912(3) 0.8646(3)
H25 H 1.1178 -0.0874 0.8181
C14 C 1.0441(5) -0.1292(3) 0.8857(3)
H26 H 1.0445 -0.1671 0.8654
H27 H 0.9839 -0.1099 0.8736
H28 H 1.0523 -0.1342 0.9311
C15 C 1.2239(5) -0.1224(3) 0.8815(4)
H29 H 1.2216 -0.1611 0.8629
H30 H 1.2361 -0.1257 0.9270
H31 H 1.2745 -0.1001 0.8653
C16 C 1.1491(3) -0.0127(2) 0.6256(2)
C17 C 1.1644(3) 0.0322(3) 0.5834(2)
C18 C 1.1492(4) 0.0196(3) 0.5178(3)
H32 H 1.1593 0.0487 0.4881
C19 C 1.1201(4) -0.0343(4) 0.4980(3)
H33 H 1.1107 -0.0420 0.4545
C20 C 1.1040(4) -0.0780(3) 0.5399(3)
H34 H 1.0833 -0.1147 0.5245
C21 C 1.1180(3) -0.0688(2) 0.6062(2)
C22 C 1.0983(4) -0.1181(2) 0.6517(2)
H35 H 1.0915 -0.0999 0.6932
C23 C 1.0050(5) -0.1514(3) 0.6322(3)
H36 H 0.9958 -0.1813 0.6632
H37 H 1.0086 -0.1694 0.5913
H38 H 0.9519 -0.1243 0.6297
C24 C 1.1843(5) -0.1600(3) 0.6609(3)
H39 H 1.1714 -0.1905 0.6904
H40 H 1.2405 -0.1384 0.6773
H41 H 1.1950 -0.1774 0.6207
C25 C 1.1956(5) 0.0929(3) 0.6053(3)
H42 H 1.1948 0.0945 0.6517
C26 C 1.1289(5) 0.1407(3) 0.5763(3)
H43 H 1.1513 0.1784 0.5920
H44 H 1.0651 0.1339 0.5878
H45 H 1.1283 0.1398 0.5307
C27 C 1.2995(5) 0.1060(4) 0.5896(4)
H46 H 1.3182 0.1446 0.6049
H47 H 1.3022 0.1043 0.5444
H48 H 1.3426 0.0772 0.6100
C28 C 0.7914(3) 0.21287(17) 0.7304(2)
C29 C 0.7700(4) 0.3097(2) 0.7136(3)
H49 H 0.7738 0.3469 0.6955
C30 C 0.7221(4) 0.29560(19) 0.7623(2)
H50 H 0.6862 0.3210 0.7852
C31 C 0.6879(4) 0.2050(2) 0.8209(3)
C32 C 0.7296(5) 0.2057(3) 0.8833(3)
C33 C 0.6774(7) 0.1778(4) 0.9280(4)
H51 H 0.7014 0.1754 0.9706
C34 C 0.5864(10) 0.1532(5) 0.9062(8)
H52 H 0.5475 0.1387 0.9360
C35 C 0.5562(9) 0.1503(6) 0.8463(6)
H53 H 0.5019 0.1278 0.8338
C36 C 0.6009(5) 0.1790(3) 0.8009(4)
C37 C 0.5539(14) 0.1760(7) 0.7350(7)
H54 H 0.6024 0.1852 0.7060
C38 C 0.466(2) 0.2159(12) 0.7173(15)
H55 H 0.4431 0.2101 0.6733
H56 H 0.4839 0.2564 0.7243
H57 H 0.4157 0.2059 0.7435
C39 C 0.5234(11) 0.1103(9) 0.7240(19)
H58 H 0.4912 0.1059 0.6819
H59 H 0.4807 0.0990 0.7549
H60 H 0.5795 0.0857 0.7285
C40 C 0.8157(14) 0.2460(11) 0.9023(9)
H61 H 0.8352 0.2600 0.8615
C41 C 0.801(3) 0.3023(18) 0.9397(18)
H62 H 0.8616 0.3227 0.9474
H63 H 0.7780 0.2925 0.9797
H64 H 0.7555 0.3272 0.9156
C42 C 0.9013(17) 0.211(2) 0.9309(13)
H65 H 0.9096 0.1766 0.9048
H66 H 0.8903 0.1980 0.9731
H67 H 0.9581 0.2345 0.9330
C43 C 0.8630(5) 0.2567(2) 0.6372(2)
C44 C 0.9579(5) 0.2744(3) 0.6405(3)
C45 C 0.9987(6) 0.2777(3) 0.5839(4)
H68 H 1.0619 0.2906 0.5841
C46 C 0.9494(7) 0.2627(3) 0.5282(4)
H69 H 0.9791 0.2651 0.4907
C47 C 0.8571(6) 0.2441(3) 0.5260(3)
H70 H 0.8247 0.2333 0.4871
C48 C 0.8099(5) 0.2409(2) 0.5810(3)
C49 C 0.7051(5) 0.2226(3) 0.5787(3)
H71 H 0.6925 0.2094 0.6214
C50 C 0.6380(6) 0.2760(5) 0.5598(4)
H72 H 0.6514 0.3073 0.5900
H73 H 0.5721 0.2641 0.5598
H74 H 0.6493 0.2894 0.5180
C51 C 0.6808(6) 0.1730(5) 0.5327(5)
H75 H 0.6140 0.1632 0.5325
H76 H 0.7193 0.1392 0.5454
H77 H 0.6937 0.1850 0.4907
C52 C 1.0278(10) 0.2801(10) 0.7032(7)
H78 H 0.9945 0.2609 0.7364
C53 C 1.0357(16) 0.3450(11) 0.7228(12)
H79 H 1.0784 0.3487 0.7612
H80 H 0.9733 0.3596 0.7301
H81 H 1.0604 0.3674 0.6894
C54 C 1.1305(11) 0.2521(11) 0.7086(10)
H82 H 1.1255 0.2111 0.6973
H83 H 1.1598 0.2559 0.7515
H84 H 1.1693 0.2720 0.6801
O1 O 0.5532(14) 0.0498(13) 0.3552(10)
C55 C 0.4599(17) 0.0436(12) 0.3461(9)
H85 H 0.4431 0.0099 0.3190
H86 H 0.4305 0.0785 0.3259
C56 C 0.4261(15) 0.0347(15) 0.4120(9)
H87 H 0.3624 0.0511 0.4141
H88 H 0.4249 -0.0069 0.4228
C57 C 0.4974(14) 0.0661(19) 0.4544(10)
H89 H 0.5141 0.0441 0.4934
H90 H 0.4741 0.1048 0.4650
C58 C 0.5821(13) 0.0708(15) 0.4155(12)
H91 H 0.6026 0.1115 0.4132
H92 H 0.6355 0.0476 0.4349
O2? O 0.9623(18) 0.5253(12) 0.4574(12)
C59? C 0.9821(13) 0.5168(8) 0.3930(8)
H93? H 0.9497 0.5481 0.3680
H94? H 0.9515 0.4801 0.3786
C60? C 1.079(2) 0.5147(12) 0.3768(12)
H95? H 1.1070 0.4755 0.3771
H96? H 1.0903 0.5362 0.3384
C61? C 1.102(2) 0.5498(13) 0.4396(13)
H97? H 1.0765 0.5894 0.4339
H98? H 1.1714 0.5529 0.4489
C62? C 1.066(2) 0.5247(14) 0.4887(11)
H99? H 1.0899 0.4852 0.4973
H100? H 1.0740 0.5485 0.5271
B5? B 0.9502(13) 0.1082(7) 0.7030(12)
C63? C 0.568(3) 0.1853(18) 0.7290(11)
C64? C 0.483(4) 0.228(2) 0.734(3)
C65? C 0.5363(19) 0.138(2) 0.678(3)
C66? C 0.8352(14) 0.2198(15) 0.9007(13)
C67? C 0.822(3) 0.2654(18) 0.9537(16)
C68? C 0.8891(17) 0.1661(18) 0.9312(9)
C69? C 0.9906(18) 0.3116(10) 0.6990(9)
C70? C 1.001(2) 0.3779(10) 0.6908(14)
C71? C 1.091(2) 0.2835(13) 0.7084(15)
C72? C 0.458(2) 0.0280(13) 0.3622(17)
C73? C 0.4213(18) 0.0869(14) 0.3852(17)
C74? C 0.509(2) 0.1164(13) 0.412(2)
C75? C 0.577(2) 0.0648(16) 0.4225(19)
H101? H 0.916(11) 0.107(7) 0.651(3)
H102? H 0.6175 0.2086 0.7111
H103? H 0.4537 0.2374 0.6924
H104? H 0.5060 0.2633 0.7555
H105? H 0.4361 0.2095 0.7583
H106? H 0.5317 0.1552 0.6361
H107? H 0.4749 0.1218 0.6855
H108? H 0.5831 0.1065 0.6798
H109? H 0.8662 0.2364 0.8650
H110? H 0.8842 0.2786 0.9719
H111? H 0.7885 0.2475 0.9862
H112? H 0.7860 0.2984 0.9358
H113? H 0.8958 0.1367 0.8992
H114? H 0.8535 0.1500 0.9639
H115? H 0.9517 0.1781 0.9496
H116? H 0.9532 0.3025 0.7347
H117? H 1.0250 0.3952 0.7309
H118? H 0.9397 0.3946 0.6767
H119? H 1.0455 0.3856 0.6598
H120? H 1.0842 0.2418 0.7144
H121? H 1.1263 0.3003 0.7452
H122? H 1.1238 0.2907 0.6714
H123? H 0.4295 -0.0042 0.3839
H124? H 0.4404 0.0237 0.3167
H125? H 0.3891 0.1092 0.3501
H126? H 0.3772 0.0811 0.4174
H127? H 0.5004 0.1364 0.4515
H128? H 0.5321 0.1445 0.3820
H129? H 0.6433 0.0776 0.4217
H130? H 0.5704 0.0465 0.4634
O3? O 0.552(2) 0.0266(18) 0.374(2)
loop_
_geom_bond_atom_site_label_1
_geom_bond_atom_site_label_2
_geom_bond_site_symmetry_1
_geom_bond_site_symmetry_2
Si1 H1 1_555 1_555
Si2 H2 1_555 1_555
H3 Si2 1_555 1_555
B1 Si1 1_555 1_555
H4 B1 1_555 1_555
H5 B1 1_555 1_555
B2 Si1 1_555 1_555
H6 B2 1_555 1_555
H7 B2 1_555 1_555
B3 B2 1_555 1_555
H8 B3 1_555 1_555
H9 B3 1_555 1_555
H10 B3 1_555 1_555
B4 B2 1_555 1_555
H11 B4 1_555 1_555
H12 B4 1_555 1_555
N1 C1 1_555 1_555
N2 C1 1_555 1_555
N3 C28 1_555 1_555
N4 C28 1_555 1_555
C1 Si1 1_555 1_555
C2 N1 1_555 1_555
H13 C2 1_555 1_555
C3 N2 1_555 1_555
H14 C3 1_555 1_555
C4 N2 1_555 1_555
C5 C4 1_555 1_555
C6 C5 1_555 1_555
H15 C6 1_555 1_555
C7 C6 1_555 1_555
H16 C7 1_555 1_555
C8 C7 1_555 1_555
H17 C8 1_555 1_555
C9 C4 1_555 1_555
C10 C9 1_555 1_555
H18 C10 1_555 1_555
C11 C10 1_555 1_555
H19 C11 1_555 1_555
H20 C11 1_555 1_555
H21 C11 1_555 1_555
C12 C10 1_555 1_555
H22 C12 1_555 1_555
H23 C12 1_555 1_555
H24 C12 1_555 1_555
C13 C5 1_555 1_555
H25 C13 1_555 1_555
C14 C13 1_555 1_555
H26 C14 1_555 1_555
H27 C14 1_555 1_555
H28 C14 1_555 1_555
C15 C13 1_555 1_555
H29 C15 1_555 1_555
H30 C15 1_555 1_555
H31 C15 1_555 1_555
C16 N1 1_555 1_555
C17 C16 1_555 1_555
C18 C17 1_555 1_555
H32 C18 1_555 1_555
C19 C18 1_555 1_555
H33 C19 1_555 1_555
C20 C19 1_555 1_555
H34 C20 1_555 1_555
C21 C16 1_555 1_555
C22 C21 1_555 1_555
H35 C22 1_555 1_555
C23 C22 1_555 1_555
H36 C23 1_555 1_555
H37 C23 1_555 1_555
H38 C23 1_555 1_555
C24 C22 1_555 1_555
H39 C24 1_555 1_555
H40 C24 1_555 1_555
H41 C24 1_555 1_555
C25 C17 1_555 1_555
H42 C25 1_555 1_555
C26 C25 1_555 1_555
H43 C26 1_555 1_555
H44 C26 1_555 1_555
H45 C26 1_555 1_555
C27 C25 1_555 1_555
H46 C27 1_555 1_555
H47 C27 1_555 1_555
H48 C27 1_555 1_555
C28 Si2 1_555 1_555
C29 N3 1_555 1_555
H49 C29 1_555 1_555
C30 N4 1_555 1_555
H50 C30 1_555 1_555
C31 N4 1_555 1_555
C32 C31 1_555 1_555
C33 C32 1_555 1_555
H51 C33 1_555 1_555
C34 C33 1_555 1_555
H52 C34 1_555 1_555
C35 C34 1_555 1_555
H53 C35 1_555 1_555
C36 C31 1_555 1_555
C37 C36 1_555 1_555
H54 C37 1_555 1_555
C38 C37 1_555 1_555
H55 C38 1_555 1_555
H56 C38 1_555 1_555
H57 C38 1_555 1_555
C39 C37 1_555 1_555
H58 C39 1_555 1_555
H59 C39 1_555 1_555
H60 C39 1_555 1_555
C40 C32 1_555 1_555
H61 C40 1_555 1_555
C41 C40 1_555 1_555
H62 C41 1_555 1_555
H63 C41 1_555 1_555
H64 C41 1_555 1_555
C42 C40 1_555 1_555
H65 C42 1_555 1_555
H66 C42 1_555 1_555
H67 C42 1_555 1_555
C43 N3 1_555 1_555
C44 C43 1_555 1_555
C45 C44 1_555 1_555
H68 C45 1_555 1_555
C46 C45 1_555 1_555
H69 C46 1_555 1_555
C47 C46 1_555 1_555
H70 C47 1_555 1_555
C48 C43 1_555 1_555
C49 C48 1_555 1_555
H71 C49 1_555 1_555
C50 C49 1_555 1_555
H72 C50 1_555 1_555
H73 C50 1_555 1_555
H74 C50 1_555 1_555
C51 C49 1_555 1_555
H75 C51 1_555 1_555
H76 C51 1_555 1_555
H77 C51 1_555 1_555
C52 C44 1_555 1_555
H78 C52 1_555 1_555
C53 C52 1_555 1_555
H79 C53 1_555 1_555
H80 C53 1_555 1_555
H81 C53 1_555 1_555
C54 C52 1_555 1_555
H82 C54 1_555 1_555
H83 C54 1_555 1_555
H84 C54 1_555 1_555
O1 C55 1_555 1_555
C55 H85 1_555 1_555
H86 C55 1_555 1_555
C56 C55 1_555 1_555
H87 C56 1_555 1_555
H88 C56 1_555 1_555
C57 C56 1_555 1_555
H89 C57 1_555 1_555
H90 C57 1_555 1_555
C58 O1 1_555 1_555
H91 C58 1_555 1_555
H92 C58 1_555 1_555
Si2 B1 1_555 1_555
B3 B4 1_555 1_555
C2 C3 1_555 1_555
C8 C9 1_555 1_555
C20 C21 1_555 1_555
C29 C30 1_555 1_555
C35 C36 1_555 1_555
C47 C48 1_555 1_555
C57 C58 1_555 1_555

#END
