
#######################################################################
#
#                 Cambridge Crystallographic Data Centre
#                                CCDC 
#
#######################################################################
#
# If this CIF has been generated from an entry in the Cambridge 
# Structural Database, then it will include bibliographic, chemical, 
# crystal, experimental, refinement or atomic coordinate data resulting 
# from the CCDC's data processing and validation procedures.
#
#######################################################################

data_KAMYEE
_chemical_formula_moiety         'C54 H78 B2 N4 Si1,C4 H10 O2'
_chemical_name_systematic        
'(Trihydroboryl)-(1,3-bis(2,6-di-isopropylphenyl)imidazol-2-ylidene)-(2-(trihydroborylidene)-1,3-bis(2,6-di-isopropylphenyl)imidazoline-4,5-diyl)-silicon 1,2-dimethoxyethane solvate'
_symmetry_cell_setting           orthorhombic
_symmetry_space_group_name_H-M   'P n a 21'
_symmetry_Int_Tables_number      33
_space_group_name_Hall           'P 2c -2n'
loop_
_symmetry_equiv_pos_site_id
_symmetry_equiv_pos_as_xyz
1 x,y,z
2 -x,-y,1/2+z
3 1/2+x,1/2-y,z
4 1/2-x,1/2+y,1/2+z
_cell_length_a                   20.195(6)
_cell_length_b                   12.590(4)
_cell_length_c                   22.879(6)
_cell_angle_alpha                90
_cell_angle_beta                 90
_cell_angle_gamma                90
_cell_volume                     5817.1
_exptl_crystal_colour            colorless
_exptl_crystal_description       plate
_cell_formula_units_Z            4
loop_
_atom_site_label
_atom_site_type_symbol
_atom_site_fract_x
_atom_site_fract_y
_atom_site_fract_z
Si1 Si 0.60110(4) 0.48488(6) 0.42646(4)
B1 B 0.4880(2) 0.4338(3) 0.61450(18)
H1 H 0.4926(18) 0.509(2) 0.6411(15)
H2 H 0.5204(19) 0.364(3) 0.629(2)
H3 H 0.4368(15) 0.392(4) 0.618(2)
B2 B 0.6898(2) 0.4313(4) 0.4511(2)
H4 H 0.7029(15) 0.362(2) 0.4230(13)
H5 H 0.6870(17) 0.403(3) 0.4981(10)
H6 H 0.7255(18) 0.504(2) 0.446(2)
N1 N 0.49510(11) 0.40029(16) 0.50204(10)
N2 N 0.52986(11) 0.55564(18) 0.52965(10)
N3 N 0.61202(11) 0.46966(19) 0.29960(10)
N4 N 0.57316(12) 0.62299(18) 0.32148(10)
C1 C 0.50501(14) 0.4630(2) 0.54845(12)
C2 C 0.51207(15) 0.4512(2) 0.44638(13)
H7 H 0.4775(12) 0.4472(18) 0.4173(11)
C3 C 0.53427(15) 0.5621(2) 0.46547(13)
H8 H 0.5123(13) 0.619(2) 0.4476(12)
C4 C 0.54019(18) 0.6508(2) 0.56405(13)
C5 C 0.4877(2) 0.7221(3) 0.56835(16)
C6 C 0.5020(3) 0.8207(3) 0.5950(2)
H9 H 0.4690 0.8718 0.5987
C7 C 0.5660(4) 0.8414(4) 0.6160(2)
H10 H 0.5755 0.9074 0.6323
C8 C 0.6136(3) 0.7676(4) 0.6130(2)
H11 H 0.6551 0.7823 0.6286
C9 C 0.6027(2) 0.6714(3) 0.58755(15)
C10 C 0.65663(19) 0.5891(4) 0.5883(2)
H12 H 0.6446 0.5325 0.5609
C11 C 0.7245(2) 0.6292(5) 0.5722(3)
H13 H 0.7556 0.5717 0.5739
H14 H 0.7376 0.6837 0.5992
H15 H 0.7235 0.6578 0.5333
C12 C 0.6610(3) 0.5408(6) 0.6501(3)
H16 H 0.6949 0.4873 0.6508
H17 H 0.6193 0.5094 0.6602
H18 H 0.6717 0.5955 0.6777
C13 C 0.4182(2) 0.6958(3) 0.55041(19)
H19 H 0.4193 0.6292 0.5283
C14 C 0.3737(3) 0.6793(5) 0.6036(3)
H20 H 0.3296 0.6625 0.5908
H21 H 0.3727 0.7431 0.6265
H22 H 0.3907 0.6220 0.6268
C15 C 0.3873(3) 0.7808(5) 0.5116(3)
H23 H 0.3430 0.7601 0.5013
H24 H 0.4132 0.7888 0.4768
H25 H 0.3860 0.8471 0.5323
C16 C 0.46427(15) 0.2971(2) 0.50283(14)
C17 C 0.39646(15) 0.2905(2) 0.49151(15)
C18 C 0.36819(19) 0.1893(3) 0.48935(17)
H26 H 0.3231 0.1821 0.4823
C19 C 0.4059(2) 0.1010(3) 0.49743(18)
H27 H 0.3864 0.0343 0.4948
C20 C 0.4714(2) 0.1088(2) 0.50920(16)
H28 H 0.4958 0.0472 0.5155
C21 C 0.50334(16) 0.2075(2) 0.51207(13)
C22 C 0.57677(18) 0.2128(3) 0.52444(17)
H29 H 0.5893 0.2880 0.5241
C23 C 0.5940(3) 0.1692(5) 0.5852(2)
H30 H 0.6409 0.1747 0.5915
H31 H 0.5809 0.0961 0.5877
H32 H 0.5711 0.2097 0.6145
C24 C 0.6162(2) 0.1588(4) 0.4771(2)
H33 H 0.6625 0.1638 0.4860
H34 H 0.6075 0.1928 0.4403
H35 H 0.6035 0.0854 0.4748
C25 C 0.35290(17) 0.3865(3) 0.48230(19)
H36 H 0.3817 0.4491 0.4807
C26 C 0.3143(2) 0.3813(4) 0.4246(2)
H37 H 0.2879 0.4442 0.4204
H38 H 0.2861 0.3200 0.4247
H39 H 0.3449 0.3766 0.3926
C27 C 0.3054(2) 0.4013(4) 0.5336(3)
H40 H 0.2785 0.4631 0.5271
H41 H 0.3303 0.4102 0.5690
H42 H 0.2775 0.3399 0.5370
C28 C 0.59298(13) 0.5291(2) 0.34564(12)
C29 C 0.60320(18) 0.5244(3) 0.24837(14)
H43 H 0.6124 0.4995 0.2110
C30 C 0.57916(17) 0.6193(3) 0.26179(14)
H44 H 0.5684 0.6732 0.2357
C31 C 0.54495(18) 0.7154(2) 0.34920(13)
C32 C 0.4769(2) 0.7314(3) 0.34131(15)
C33 C 0.4509(3) 0.8250(4) 0.3629(2)
H45 H 0.4059 0.8389 0.3584
C34 C 0.4898(4) 0.8968(4) 0.3906(2)
H46 H 0.4711 0.9594 0.4045
C35 C 0.5555(4) 0.8794(4) 0.3984(2)
H47 H 0.5809 0.9297 0.4181
C36 C 0.5857(2) 0.7867(3) 0.37727(17)
C37 C 0.6578(7) 0.7571(15) 0.3813(7)
H48 H 0.6581 0.6793 0.3834
C38 C 0.6968(14) 0.793(2) 0.4346(7)
H49 H 0.7411 0.7661 0.4324
H50 H 0.6758 0.7673 0.4694
H51 H 0.6980 0.8696 0.4356
C39 C 0.7015(7) 0.784(2) 0.3286(5)
H52 H 0.7449 0.7548 0.3342
H53 H 0.7047 0.8599 0.3246
H54 H 0.6822 0.7548 0.2938
C40 C 0.4324(2) 0.6534(4) 0.3110(2)
H55 H 0.4594 0.5922 0.2995
C41 C 0.3782(3) 0.6134(5) 0.3522(3)
H56 H 0.3508 0.5629 0.3320
H57 H 0.3515 0.6722 0.3648
H58 H 0.3981 0.5800 0.3855
C42 C 0.4028(3) 0.7009(6) 0.2554(3)
H59 H 0.3751 0.6490 0.2367
H60 H 0.4378 0.7213 0.2293
H61 H 0.3768 0.7622 0.2653
C43 C 0.63845(17) 0.3629(2) 0.30040(14)
C44 C 0.59459(18) 0.2790(3) 0.30514(15)
C45 C 0.6220(3) 0.1772(3) 0.3032(2)
H62 H 0.5947 0.1181 0.3067
C46 C 0.6892(3) 0.1638(4) 0.2962(3)
H63 H 0.7066 0.0954 0.2955
C47 C 0.7307(2) 0.2487(4) 0.2901(2)
H64 H 0.7757 0.2372 0.2841
C48 C 0.70689(17) 0.3514(3) 0.29281(17)
C49 C 0.75377(18) 0.4426(3) 0.28502(18)
H65 H 0.7299 0.5073 0.2962
C50 C 0.8151(2) 0.4347(5) 0.3247(3)
H66 H 0.8429 0.4955 0.3185
H67 H 0.8393 0.3713 0.3154
H68 H 0.8014 0.4325 0.3648
C51 C 0.7747(3) 0.4560(5) 0.2213(3)
H69 H 0.8038 0.5161 0.2179
H70 H 0.7362 0.4673 0.1975
H71 H 0.7974 0.3932 0.2084
C52 C 0.52011(18) 0.2945(3) 0.30842(16)
H72 H 0.5117 0.3642 0.3260
C53 C 0.4853(2) 0.2109(4) 0.3458(2)
H73 H 0.4386 0.2252 0.3466
H74 H 0.5025 0.2131 0.3849
H75 H 0.4928 0.1417 0.3294
C54 C 0.4903(2) 0.2946(5) 0.2475(2)
H76 H 0.4434 0.3060 0.2501
H77 H 0.4987 0.2274 0.2290
H78 H 0.5100 0.3503 0.2247
C55 C 0.5265(10) 0.9477(8) 0.2281(5)
H79 H 0.4969 0.9217 0.2577
H80 H 0.5013 0.9764 0.1962
H81 H 0.5541 1.0022 0.2443
O1 O 0.5654(3) 0.8656(6) 0.2081(3)
C56 C 0.6029(8) 0.9200(12) 0.1644(5)
H82 H 0.5748 0.9433 0.1325
H83 H 0.6256 0.9811 0.1807
C57 C 0.6467(7) 0.8448(11) 0.1463(4)
H84 H 0.6225 0.7832 0.1325
H85 H 0.6724 0.8726 0.1140
O2 O 0.6872(5) 0.8157(9) 0.1888(4)
C58 C 0.7433(8) 0.7476(12) 0.1731(8)
H86 H 0.7650 0.7235 0.2080
H87 H 0.7741 0.7873 0.1497
H88 H 0.7277 0.6875 0.1513
C59? C 0.6613(8) 0.7869(19) 0.3850(9)
C60? C 0.677(2) 0.833(3) 0.4456(10)
C61? C 0.6839(9) 0.874(2) 0.3417(9)
H89? H 0.6819 0.7176 0.3778
H90? H 0.7233 0.8285 0.4528
H91? H 0.6533 0.7925 0.4748
H92? H 0.6626 0.9055 0.4472
H93? H 0.7313 0.8803 0.3427
H94? H 0.6645 0.9411 0.3528
H95? H 0.6699 0.8561 0.3029
loop_
_geom_bond_atom_site_label_1
_geom_bond_atom_site_label_2
_geom_bond_site_symmetry_1
_geom_bond_site_symmetry_2
Si1 B2 1_555 1_555
B1 H1 1_555 1_555
H2 B1 1_555 1_555
H3 B1 1_555 1_555
B2 H4 1_555 1_555
H5 B2 1_555 1_555
H6 B2 1_555 1_555
N1 C1 1_555 1_555
N2 C1 1_555 1_555
N3 C28 1_555 1_555
N4 C28 1_555 1_555
C1 B1 1_555 1_555
C2 Si1 1_555 1_555
H7 C2 1_555 1_555
C3 Si1 1_555 1_555
H8 C3 1_555 1_555
C4 N2 1_555 1_555
C5 C4 1_555 1_555
C6 C5 1_555 1_555
H9 C6 1_555 1_555
C7 C6 1_555 1_555
H10 C7 1_555 1_555
C8 C7 1_555 1_555
H11 C8 1_555 1_555
C9 C4 1_555 1_555
C10 C9 1_555 1_555
H12 C10 1_555 1_555
C11 C10 1_555 1_555
H13 C11 1_555 1_555
H14 C11 1_555 1_555
H15 C11 1_555 1_555
C12 C10 1_555 1_555
H16 C12 1_555 1_555
H17 C12 1_555 1_555
H18 C12 1_555 1_555
C13 C5 1_555 1_555
H19 C13 1_555 1_555
C14 C13 1_555 1_555
H20 C14 1_555 1_555
H21 C14 1_555 1_555
H22 C14 1_555 1_555
C15 C13 1_555 1_555
H23 C15 1_555 1_555
H24 C15 1_555 1_555
H25 C15 1_555 1_555
C16 N1 1_555 1_555
C17 C16 1_555 1_555
C18 C17 1_555 1_555
H26 C18 1_555 1_555
C19 C18 1_555 1_555
H27 C19 1_555 1_555
C20 C19 1_555 1_555
H28 C20 1_555 1_555
C21 C16 1_555 1_555
C22 C21 1_555 1_555
H29 C22 1_555 1_555
C23 C22 1_555 1_555
H30 C23 1_555 1_555
H31 C23 1_555 1_555
H32 C23 1_555 1_555
C24 C22 1_555 1_555
H33 C24 1_555 1_555
H34 C24 1_555 1_555
H35 C24 1_555 1_555
C25 C17 1_555 1_555
H36 C25 1_555 1_555
C26 C25 1_555 1_555
H37 C26 1_555 1_555
H38 C26 1_555 1_555
H39 C26 1_555 1_555
C27 C25 1_555 1_555
H40 C27 1_555 1_555
H41 C27 1_555 1_555
H42 C27 1_555 1_555
C28 Si1 1_555 1_555
C29 N3 1_555 1_555
H43 C29 1_555 1_555
C30 N4 1_555 1_555
H44 C30 1_555 1_555
C31 N4 1_555 1_555
C32 C31 1_555 1_555
C33 C32 1_555 1_555
H45 C33 1_555 1_555
C34 C33 1_555 1_555
H46 C34 1_555 1_555
C35 C34 1_555 1_555
H47 C35 1_555 1_555
C36 C31 1_555 1_555
C37 C36 1_555 1_555
H48 C37 1_555 1_555
C38 C37 1_555 1_555
H49 C38 1_555 1_555
H50 C38 1_555 1_555
H51 C38 1_555 1_555
C39 C37 1_555 1_555
H52 C39 1_555 1_555
H53 C39 1_555 1_555
H54 C39 1_555 1_555
C40 C32 1_555 1_555
H55 C40 1_555 1_555
C41 C40 1_555 1_555
H56 C41 1_555 1_555
H57 C41 1_555 1_555
H58 C41 1_555 1_555
C42 C40 1_555 1_555
H59 C42 1_555 1_555
H60 C42 1_555 1_555
H61 C42 1_555 1_555
C43 N3 1_555 1_555
C44 C43 1_555 1_555
C45 C44 1_555 1_555
H62 C45 1_555 1_555
C46 C45 1_555 1_555
H63 C46 1_555 1_555
C47 C46 1_555 1_555
H64 C47 1_555 1_555
C48 C43 1_555 1_555
C49 C48 1_555 1_555
H65 C49 1_555 1_555
C50 C49 1_555 1_555
H66 C50 1_555 1_555
H67 C50 1_555 1_555
H68 C50 1_555 1_555
C51 C49 1_555 1_555
H69 C51 1_555 1_555
H70 C51 1_555 1_555
H71 C51 1_555 1_555
C52 C44 1_555 1_555
H72 C52 1_555 1_555
C53 C52 1_555 1_555
H73 C53 1_555 1_555
H74 C53 1_555 1_555
H75 C53 1_555 1_555
C54 C52 1_555 1_555
H76 C54 1_555 1_555
H77 C54 1_555 1_555
H78 C54 1_555 1_555
C55 H79 1_555 1_555
H80 C55 1_555 1_555
H81 C55 1_555 1_555
O1 C55 1_555 1_555
C56 O1 1_555 1_555
H82 C56 1_555 1_555
H83 C56 1_555 1_555
C57 C56 1_555 1_555
H84 C57 1_555 1_555
H85 C57 1_555 1_555
O2 C57 1_555 1_555
C58 O2 1_555 1_555
H86 C58 1_555 1_555
H87 C58 1_555 1_555
H88 C58 1_555 1_555
N1 C2 1_555 1_555
N2 C3 1_555 1_555
C2 C3 1_555 1_555
C8 C9 1_555 1_555
C20 C21 1_555 1_555
C29 C30 1_555 1_555
C35 C36 1_555 1_555
C47 C48 1_555 1_555

#END
