
#######################################################################
#
#                 Cambridge Crystallographic Data Centre
#                                CCDC 
#
#######################################################################
#
# If this CIF has been generated from an entry in the Cambridge 
# Structural Database, then it will include bibliographic, chemical, 
# crystal, experimental, refinement or atomic coordinate data resulting 
# from the CCDC's data processing and validation procedures.
#
#######################################################################

data_KANDAE
_chemical_formula_moiety         'C13 H28 N5 O2 1+,N3 1-'
_chemical_name_systematic        
'15,15-Dimethyl-1,4,7,13-tetra-aza-10-azoniacyclohexadecane-14,16-dione azide'
_symmetry_cell_setting           monoclinic
_symmetry_space_group_name_H-M   'P 21/c'
_symmetry_Int_Tables_number      14
_space_group_name_Hall           '-P 2ybc'
loop_
_symmetry_equiv_pos_site_id
_symmetry_equiv_pos_as_xyz
1 x,y,z
2 -x,1/2+y,1/2-z
3 -x,-y,-z
4 x,1/2-y,1/2+z
_cell_length_a                   8.710(1)
_cell_length_b                   9.819(1)
_cell_length_c                   21.635(3)
_cell_angle_alpha                90
_cell_angle_beta                 101.97(1)
_cell_angle_gamma                90
_cell_volume                     1810.07
_cell_formula_units_Z            4
loop_
_atom_site_label
_atom_site_type_symbol
_atom_site_fract_x
_atom_site_fract_y
_atom_site_fract_z
N1 N 0.1945(2) 0.0645(2) 0.9535(1)
C1 C 0.1133(3) -0.0645(2) 0.9383(1)
C2 C 0.1919(3) -0.1574(2) 0.8983(1)
N2 N 0.1451(2) -0.1225(1) 0.8303(1)
C3 C 0.2373(2) -0.1924(2) 0.7892(1)
C4 C 0.1999(2) -0.1326(2) 0.7237(1)
N3 N 0.2263(2) 0.0134(2) 0.7282(1)
C5 C 0.2021(2) 0.0847(2) 0.6679(1)
C6 C 0.2526(2) 0.2310(2) 0.6794(1)
N4 N 0.1597(2) 0.3007(2) 0.7196(1)
C7 C 0.2205(2) 0.4359(2) 0.7422(1)
C8 C 0.3727(2) 0.4331(2) 0.7919(1)
N5 N 0.3566(2) 0.3552(2) 0.8473(1)
C9 C 0.2705(2) 0.3998(2) 0.8876(1)
C10 C 0.2538(3) 0.3038(2) 0.9414(1)
C11 C 0.1785(2) 0.1695(2) 0.9140(1)
O1 O 0.2102(2) 0.5140(1) 0.8823(1)
O2 O 0.1025(2) 0.1623(1) 0.8593(1)
C12 C 0.1392(4) 0.3681(3) 0.9786(1)
C13 C 0.4177(4) 0.2828(3) 0.9846(1)
H1 H 0.254(3) 0.072(3) 0.993(1)
H2 H -0.002(3) -0.042(3) 0.916(1)
H3 H 0.115(3) -0.109(3) 0.978(1)
H4 H 0.161(3) -0.248(3) 0.904(1)
H5 H 0.309(3) -0.150(3) 0.910(1)
H6 H 0.029(3) -0.151(3) 0.814(1)
H7 H 0.153(3) -0.032(2) 0.824(1)
H8 H 0.211(3) -0.290(3) 0.789(1)
H9 H 0.350(3) -0.177(3) 0.809(1)
H10 H 0.086(3) -0.149(3) 0.705(1)
H11 H 0.265(3) -0.180(3) 0.698(1)
H12 H 0.326(3) 0.033(3) 0.751(1)
H13 H 0.086(3) 0.077(3) 0.647(1)
H14 H 0.266(3) 0.036(3) 0.637(1)
H15 H 0.373(3) 0.234(3) 0.700(1)
H16 H 0.247(3) 0.280(3) 0.640(1)
H17 H 0.151(3) 0.245(2) 0.754(1)
H18 H 0.240(3) 0.488(3) 0.705(1)
H19 H 0.139(3) 0.481(3) 0.760(1)
H20 H 0.460(3) 0.389(3) 0.774(1)
H21 H 0.406(3) 0.532(3) 0.804(1)
H22 H 0.397(3) 0.273(3) 0.854(1)
H23 H 0.133(4) 0.312(3) 1.015(2)
H24 H 0.023(4) 0.383(3) 0.947(2)
H25 H 0.171(4) 0.456(3) 0.995(2)
H26 H 0.410(4) 0.232(3) 1.024(1)
H27 H 0.486(4) 0.232(3) 0.962(2)
H28 H 0.465(4) 0.372(3) 0.997(2)
N6 N 0.6741(4) -0.0076(4) 0.9181(1)
N7 N 0.5817(2) 0.0394(2) 0.8791(1)
N8 N 0.4958(3) 0.0878(3) 0.8383(1)
loop_
_geom_bond_atom_site_label_1
_geom_bond_atom_site_label_2
_geom_bond_site_symmetry_1
_geom_bond_site_symmetry_2
N1 C1 1_555 1_555
C1 C2 1_555 1_555
C2 N2 1_555 1_555
N2 C3 1_555 1_555
C3 C4 1_555 1_555
C4 N3 1_555 1_555
N3 C5 1_555 1_555
C5 C6 1_555 1_555
C6 N4 1_555 1_555
N4 C7 1_555 1_555
C7 C8 1_555 1_555
C8 N5 1_555 1_555
N5 C9 1_555 1_555
C9 C10 1_555 1_555
C10 C11 1_555 1_555
C11 N1 1_555 1_555
O1 C9 1_555 1_555
O2 C11 1_555 1_555
C12 C10 1_555 1_555
C13 C10 1_555 1_555
N6 N7 1_555 1_555
N7 N8 1_555 1_555
H1 N1 1_555 1_555
H2 C1 1_555 1_555
H3 C1 1_555 1_555
H4 C2 1_555 1_555
H5 C2 1_555 1_555
H6 N2 1_555 1_555
H7 N2 1_555 1_555
H8 C3 1_555 1_555
H9 C3 1_555 1_555
H10 C4 1_555 1_555
H11 C4 1_555 1_555
H12 N3 1_555 1_555
H13 C5 1_555 1_555
H14 C5 1_555 1_555
H15 C6 1_555 1_555
H16 C6 1_555 1_555
H17 N4 1_555 1_555
H18 C7 1_555 1_555
H19 C7 1_555 1_555
H20 C8 1_555 1_555
H21 C8 1_555 1_555
H22 N5 1_555 1_555
H23 C12 1_555 1_555
H24 C12 1_555 1_555
H25 C12 1_555 1_555
H26 C13 1_555 1_555
H27 C13 1_555 1_555
H28 C13 1_555 1_555

#END
