
#######################################################################
#
#                 Cambridge Crystallographic Data Centre
#                                CCDC 
#
#######################################################################
#
# If this CIF has been generated from an entry in the Cambridge 
# Structural Database, then it will include bibliographic, chemical, 
# crystal, experimental, refinement or atomic coordinate data resulting 
# from the CCDC's data processing and validation procedures.
#
#######################################################################

data_KANJIV
_chemical_formula_moiety         'C29 H20 O2'
_chemical_name_systematic        
(Z)-3-(1,2-diphenylvinyl)-2-phenyl-4H-chromen-4-one
_symmetry_cell_setting           monoclinic
_symmetry_space_group_name_H-M   'P 21/c'
_symmetry_Int_Tables_number      14
_space_group_name_Hall           '-P 2ybc'
loop_
_symmetry_equiv_pos_site_id
_symmetry_equiv_pos_as_xyz
1 x,y,z
2 -x,1/2+y,1/2-z
3 -x,-y,-z
4 x,1/2-y,1/2+z
_cell_length_a                   10.1572(14)
_cell_length_b                   9.7577(14)
_cell_length_c                   21.796(3)
_cell_angle_alpha                90
_cell_angle_beta                 98.391(3)
_cell_angle_gamma                90
_cell_volume                     2137.1
_exptl_crystal_colour            colorless
_exptl_crystal_description       prismatic
_chemical_melting_point          '187-188 deg.C'
_cell_formula_units_Z            4
loop_
_atom_site_label
_atom_site_type_symbol
_atom_site_fract_x
_atom_site_fract_y
_atom_site_fract_z
O1 O 0.46120(10) 0.71329(13) 0.12150(5)
O2 O 0.11206(9) 0.52331(11) 0.13522(5)
C1 C 0.22600(14) 0.48132(17) 0.17186(7)
C2 C 0.21205(17) 0.37460(19) 0.21209(8)
H1 H 0.1303 0.3316 0.2119
C3 C 0.3208(2) 0.3339(2) 0.25200(9)
H2 H 0.3132 0.2627 0.2796
C4 C 0.44191(19) 0.3970(2) 0.25194(8)
H3 H 0.5148 0.3693 0.2801
C5 C 0.45607(16) 0.49905(19) 0.21128(8)
H4 H 0.5389 0.5396 0.2111
C6 C 0.34665(14) 0.54374(16) 0.16954(7)
C7 C 0.35582(14) 0.65431(16) 0.12518(7)
C8 C 0.23076(13) 0.69525(15) 0.08835(6)
C9 C 0.11660(13) 0.62990(16) 0.09515(6)
C10 C -0.01931(14) 0.66187(15) 0.06492(7)
C11 C -0.05096(15) 0.67292(16) 0.00141(7)
H5 H 0.0150 0.6631 -0.0237
C12 C -0.18038(18) 0.69855(17) -0.02479(8)
H6 H -0.2015 0.7058 -0.0676
C13 C -0.27821(17) 0.71340(18) 0.01183(10)
H7 H -0.3655 0.7298 -0.0062
C14 C -0.24758(16) 0.7041(2) 0.07452(9)
H8 H -0.3137 0.7159 0.0994
C15 C -0.11918(15) 0.67741(19) 0.10115(8)
H9 H -0.0992 0.6697 0.1440
C16 C 0.23307(13) 0.81688(16) 0.04726(7)
C17 C 0.17780(14) 0.93485(16) 0.06059(7)
H10 H 0.1770 1.0033 0.0308
C18 C 0.11807(15) 0.97201(16) 0.11557(7)
C19 C 0.17217(18) 0.9356(2) 0.17533(8)
H11 H 0.2478 0.8807 0.1815
C20 C 0.1159(2) 0.9792(2) 0.22584(9)
H12 H 0.1539 0.9539 0.2656
C21 C 0.0043(2) 1.0597(2) 0.21750(10)
H13 H -0.0338 1.0894 0.2515
C22 C -0.05038(18) 1.0958(2) 0.15905(10)
H14 H -0.1270 1.1493 0.1530
C23 C 0.00634(17) 1.05400(19) 0.10904(8)
H15 H -0.0315 1.0816 0.0695
C24 C 0.29959(14) 0.80052(16) -0.00859(7)
C25 C 0.35401(16) 0.91227(19) -0.03517(8)
H16 H 0.3505 0.9983 -0.0171
C26 C 0.41333(17) 0.8981(2) -0.08795(8)
H17 H 0.4481 0.9746 -0.1054
C27 C 0.42117(19) 0.7728(2) -0.11459(8)
H18 H 0.4606 0.7633 -0.1503
C28 C 0.37065(19) 0.6612(2) -0.08846(8)
H19 H 0.3770 0.5751 -0.1061
C29 C 0.31025(16) 0.67456(18) -0.03609(8)
H20 H 0.2761 0.5973 -0.0190
loop_
_geom_bond_atom_site_label_1
_geom_bond_atom_site_label_2
_geom_bond_site_symmetry_1
_geom_bond_site_symmetry_2
O1 C7 1_555 1_555
O2 C1 1_555 1_555
C1 C2 1_555 1_555
C2 H1 1_555 1_555
C3 C2 1_555 1_555
H2 C3 1_555 1_555
C4 C3 1_555 1_555
H3 C4 1_555 1_555
C5 C4 1_555 1_555
H4 C5 1_555 1_555
C6 C1 1_555 1_555
C7 C6 1_555 1_555
C8 C7 1_555 1_555
C9 O2 1_555 1_555
C10 C9 1_555 1_555
C11 C10 1_555 1_555
H5 C11 1_555 1_555
C12 C11 1_555 1_555
H6 C12 1_555 1_555
C13 C12 1_555 1_555
H7 C13 1_555 1_555
C14 C13 1_555 1_555
H8 C14 1_555 1_555
C15 C10 1_555 1_555
H9 C15 1_555 1_555
C16 C8 1_555 1_555
C17 C16 1_555 1_555
H10 C17 1_555 1_555
C18 C17 1_555 1_555
C19 C18 1_555 1_555
H11 C19 1_555 1_555
C20 C19 1_555 1_555
H12 C20 1_555 1_555
C21 C20 1_555 1_555
H13 C21 1_555 1_555
C22 C21 1_555 1_555
H14 C22 1_555 1_555
C23 C18 1_555 1_555
H15 C23 1_555 1_555
C24 C16 1_555 1_555
C25 C24 1_555 1_555
H16 C25 1_555 1_555
C26 C25 1_555 1_555
H17 C26 1_555 1_555
C27 C26 1_555 1_555
H18 C27 1_555 1_555
C28 C27 1_555 1_555
H19 C28 1_555 1_555
C29 C24 1_555 1_555
H20 C29 1_555 1_555
C5 C6 1_555 1_555
C8 C9 1_555 1_555
C14 C15 1_555 1_555
C22 C23 1_555 1_555
C28 C29 1_555 1_555

#END
