
#######################################################################
#
#                 Cambridge Crystallographic Data Centre
#                                CCDC 
#
#######################################################################
#
# If this CIF has been generated from an entry in the Cambridge 
# Structural Database, then it will include bibliographic, chemical, 
# crystal, experimental, refinement or atomic coordinate data resulting 
# from the CCDC's data processing and validation procedures.
#
#######################################################################

data_KANJUH
_chemical_formula_moiety         'C20 H20 N2 O6 S6'
_chemical_name_systematic        
"diethyl 2,2'-((2-(4,5-bis(methylsulfanyl)-1,3-dithiol-2-ylidene)-1,3-benzodithiole-5,6-diyl)diimino)bis(oxoacetate)"
_symmetry_cell_setting           monoclinic
_symmetry_space_group_name_H-M   'P 21/c'
_symmetry_Int_Tables_number      14
_space_group_name_Hall           '-P 2ybc'
loop_
_symmetry_equiv_pos_site_id
_symmetry_equiv_pos_as_xyz
1 x,y,z
2 -x,1/2+y,1/2-z
3 -x,-y,-z
4 x,1/2-y,1/2+z
_cell_length_a                   18.933(7)
_cell_length_b                   4.897(2)
_cell_length_c                   27.689(11)
_cell_angle_alpha                90
_cell_angle_beta                 103.623(6)
_cell_angle_gamma                90
_cell_volume                     2494.96
_exptl_crystal_colour            yellow
_exptl_crystal_description       block
_cell_formula_units_Z            4
loop_
_atom_site_label
_atom_site_type_symbol
_atom_site_fract_x
_atom_site_fract_y
_atom_site_fract_z
C1 C -0.1046(6) -0.468(2) 0.2124(3)
H1 H -0.0703 -0.3215 0.2219
H2 H -0.1119 -0.5579 0.2416
H3 H -0.1500 -0.3949 0.1938
C2 C -0.1965(5) -0.194(2) 0.0507(4)
H4 H -0.1951 -0.1187 0.0189
H5 H -0.1747 -0.0683 0.0765
H6 H -0.2460 -0.2270 0.0519
C3 C -0.0307(3) -0.4862(12) 0.1383(2)
C4 C -0.0637(3) -0.3923(12) 0.0934(3)
C5 C 0.0613(3) -0.1574(12) 0.11524(17)
C6 C 0.1194(3) -0.0001(11) 0.11630(17)
C7 C 0.2468(2) 0.2156(10) 0.14103(19)
C8 C 0.2132(2) 0.3387(10) 0.09675(18)
C9 C 0.2503(3) 0.5305(11) 0.07517(19)
H7 H 0.2278 0.6119 0.0451
C10 C 0.3213(2) 0.6001(9) 0.09878(17)
C11 C 0.3552(2) 0.4682(9) 0.14203(16)
C12 C 0.3175(2) 0.2823(10) 0.16492(18)
H8 H 0.3394 0.2052 0.1955
C13 C 0.3511(3) 0.8422(11) 0.02913(19)
C14 C 0.3976(3) 1.0755(11) 0.01587(18)
C15 C 0.4340(4) 1.3135(15) -0.04548(18)
H9 H 0.4851 1.2784 -0.0313
H10 H 0.4216 1.4893 -0.0336
C16 C 0.4197(9) 1.312(4) -0.0974(6)
H11 H 0.4479 1.1718 -0.1081
H12 H 0.4325 1.4865 -0.1089
H13 H 0.3690 1.2783 -0.1109
C17 C 0.4752(2) 0.3008(10) 0.17426(18)
C18 C 0.5509(2) 0.3710(9) 0.20255(16)
C19 C 0.6750(3) 0.2404(15) 0.2255(3)
H14 H 0.6921 0.4130 0.2154
H15 H 0.6760 0.2520 0.2606
C20 C 0.7204(7) 0.033(3) 0.2178(5)
H16 H 0.7333 -0.0789 0.2470
H17 H 0.7636 0.1103 0.2109
H18 H 0.6960 -0.0761 0.1900
N1 N 0.4312(2) 0.5089(8) 0.16565(14)
H19 H 0.4473 0.6705 0.1740
N2 N 0.3593(2) 0.7957(8) 0.07713(14)
H20 H 0.3909 0.8939 0.0971
O1 O 0.46179(19) 0.0605(7) 0.16044(14)
O2 O 0.5636(2) 0.5721(8) 0.22923(15)
O3 O 0.5999(2) 0.1920(8) 0.19715(16)
O4 O 0.3131(2) 0.7046(10) -0.00520(14)
O5 O 0.4361(3) 1.2101(9) 0.04797(16)
O6 O 0.3894(2) 1.0979(9) -0.03136(15)
S1 S -0.06959(11) -0.7106(4) 0.17415(8)
S2 S -0.14916(9) -0.4970(4) 0.05926(8)
S3 S 0.05641(8) -0.3774(3) 0.16381(5)
S4 S -0.01520(8) -0.1613(4) 0.06555(6)
S5 S 0.19532(7) -0.0135(3) 0.16659(5)
S6 S 0.12656(7) 0.2254(3) 0.06856(5)
C21? C -0.2087(15) -0.248(6) 0.0819(11)
H21? H -0.2586 -0.2856 0.0662
H22? H -0.1967 -0.0662 0.0737
H23? H -0.2014 -0.2652 0.1172
C22? C 0.7230(7) 0.085(3) 0.1959(6)
H24? H 0.7733 0.1045 0.2127
H25? H 0.7153 0.1601 0.1631
H26? H 0.7102 -0.1048 0.1939
C23? C 0.3863(7) 1.429(5) -0.1067(3)
H27? H 0.3541 1.5756 -0.1035
H28? H 0.3588 1.2807 -0.1245
H29? H 0.4209 1.4925 -0.1246
loop_
_geom_bond_atom_site_label_1
_geom_bond_atom_site_label_2
_geom_bond_site_symmetry_1
_geom_bond_site_symmetry_2
C1 H1 1_555 1_555
H2 C1 1_555 1_555
H3 C1 1_555 1_555
C2 H4 1_555 1_555
H5 C2 1_555 1_555
H6 C2 1_555 1_555
C3 C4 1_555 1_555
C4 S2 1_555 1_555
C5 C6 1_555 1_555
C6 S5 1_555 1_555
C7 C8 1_555 1_555
C8 C9 1_555 1_555
C9 H7 1_555 1_555
C10 C9 1_555 1_555
C11 C10 1_555 1_555
C12 C7 1_555 1_555
H8 C12 1_555 1_555
C13 C14 1_555 1_555
C14 O5 1_555 1_555
C15 H9 1_555 1_555
H10 C15 1_555 1_555
C16 C15 1_555 1_555
H11 C16 1_555 1_555
H12 C16 1_555 1_555
H13 C16 1_555 1_555
C17 C18 1_555 1_555
C18 O2 1_555 1_555
C19 H14 1_555 1_555
H15 C19 1_555 1_555
C20 C19 1_555 1_555
H16 C20 1_555 1_555
H17 C20 1_555 1_555
H18 C20 1_555 1_555
N1 C11 1_555 1_555
H19 N1 1_555 1_555
N2 C10 1_555 1_555
H20 N2 1_555 1_555
O1 C17 1_555 1_555
O3 C18 1_555 1_555
O4 C13 1_555 1_555
O6 C14 1_555 1_555
S1 C1 1_555 1_555
S2 C2 1_555 1_555
S3 C3 1_555 1_555
S4 C4 1_555 1_555
S5 C7 1_555 1_555
S6 C6 1_555 1_555
C3 S1 1_555 1_555
C5 S3 1_555 1_555
C5 S4 1_555 1_555
C8 S6 1_555 1_555
C11 C12 1_555 1_555
C13 N2 1_555 1_555
C15 O6 1_555 1_555
C17 N1 1_555 1_555
C19 O3 1_555 1_555

#END
