
#######################################################################
#
#                 Cambridge Crystallographic Data Centre
#                                CCDC 
#
#######################################################################
#
# If this CIF has been generated from an entry in the Cambridge 
# Structural Database, then it will include bibliographic, chemical, 
# crystal, experimental, refinement or atomic coordinate data resulting 
# from the CCDC's data processing and validation procedures.
#
#######################################################################

data_KANLEQ
_chemical_formula_moiety         'C32 H34 O4 S6,C1 H2 Cl2'
_chemical_name_systematic        
'2-(9-(4,5-Dimethyl-1,3-dithiol-2-ylidene)-9,10-dihydroanthracen-10-ylidene)-(3,6,9,12-tetraoxatetradecane-1,14-disulfanyl)-1,3-dithiole dichloromethane solvate'
_symmetry_cell_setting           triclinic
_symmetry_space_group_name_H-M   'P -1'
_symmetry_Int_Tables_number      2
_space_group_name_Hall           '-P 1'
loop_
_symmetry_equiv_pos_site_id
_symmetry_equiv_pos_as_xyz
1 x,y,z
2 -x,-y,-z
_cell_length_a                   11.891(2)
_cell_length_b                   12.546(1)
_cell_length_c                   12.691(2)
_cell_angle_alpha                104.928(4)
_cell_angle_beta                 97.021(5)
_cell_angle_gamma                106.602(4)
_cell_volume                     1713.48
_exptl_crystal_colour            orange
_exptl_crystal_description       rhomb
_chemical_melting_point          496-498K
_cell_formula_units_Z            2
_exptl_crystal_recrystallization_method dichloromethane/hexane
loop_
_atom_site_label
_atom_site_type_symbol
_atom_site_fract_x
_atom_site_fract_y
_atom_site_fract_z
S1 S 0.28050(5) 0.79719(5) 0.87402(5)
S2 S 0.50579(5) 0.95960(5) 0.85522(5)
S3 S 0.43936(5) 0.35227(5) 0.61745(5)
S4 S 0.67500(5) 0.50698(5) 0.61680(5)
S5 S 0.12478(5) 0.91094(5) 0.76955(5)
S6 S 0.38412(5) 1.09812(5) 0.75146(5)
O1 O -0.01418(14) 0.81987(14) 0.51263(14)
O2 O 0.0027(2) 0.80666(15) 0.28117(15)
O3 O 0.2451(2) 0.8274(2) 0.1961(2)
O4 O 0.3307(2) 0.8923(2) 0.4367(2)
C1 C 0.7114(2) 0.8796(2) 0.9419(2)
H1 H 0.6919(23) 0.9459(23) 0.9793(22)
C2 C 0.8318(2) 0.8929(2) 0.9400(2)
H2 H 0.8895(26) 0.9677(26) 0.9705(24)
C3 C 0.8646(2) 0.7968(2) 0.8930(2)
H3 H 0.9485(27) 0.8066(25) 0.8980(24)
C4 C 0.7773(2) 0.6870(2) 0.8451(2)
H4 H 0.8013(21) 0.6236(21) 0.8174(20)
C5 C 0.3988(2) 0.4264(2) 0.8590(2)
H5 H 0.4217(24) 0.3640(25) 0.8262(23)
C6 C 0.3106(2) 0.4125(2) 0.9218(2)
H6 H 0.2719(23) 0.3366(23) 0.9276(21)
C7 C 0.2844(2) 0.5094(2) 0.9813(2)
H7 H 0.2287(28) 0.5010(26) 1.0285(26)
C8 C 0.3442(2) 0.6203(2) 0.9752(2)
H8 H 0.3313(22) 0.6891(22) 1.0192(21)
C9 C 0.4939(2) 0.7497(2) 0.8966(2)
C10 C 0.5588(2) 0.5577(2) 0.7905(2)
C11 C 0.6224(2) 0.7700(2) 0.8942(2)
C12 C 0.6552(2) 0.6719(2) 0.8427(2)
C13 C 0.4595(2) 0.5367(2) 0.8510(2)
C14 C 0.4298(2) 0.6346(2) 0.9082(2)
C15 C 0.4367(2) 0.8257(2) 0.8805(2)
C16 C 0.2680(2) 0.9034(2) 0.8095(2)
C17 C 0.3713(2) 0.9788(2) 0.8030(2)
C18 C 0.5591(2) 0.4821(2) 0.6915(2)
C19 C 0.4906(2) 0.3227(2) 0.4916(2)
C20 C 0.5988(2) 0.3938(2) 0.4920(2)
C21 C 0.4070(2) 0.2207(2) 0.3973(2)
H9 H 0.3393(30) 0.2396(28) 0.3678(28)
H10 H 0.3805(34) 0.1539(35) 0.4210(32)
H11 H 0.4459(31) 0.2038(30) 0.3413(30)
C22 C 0.6663(3) 0.3871(3) 0.3993(2)
H12 H 0.7424(31) 0.3868(28) 0.4239(27)
H13 H 0.6799(30) 0.4561(31) 0.3771(28)
H14 H 0.6258(33) 0.3191(34) 0.3372(32)
C23 C 0.0468(2) 0.7638(2) 0.6716(2)
H15 H 0.1060(26) 0.7400(24) 0.6309(24)
H16 H 0.0166(26) 0.7118(25) 0.7131(25)
C24 C -0.0582(2) 0.7645(2) 0.5911(2)
H17 H -0.1081(28) 0.6801(28) 0.5520(26)
H18 H -0.1054(27) 0.8039(26) 0.6332(25)
C25 C -0.1096(2) 0.8093(2) 0.4267(2)
H19 H -0.1629(24) 0.8469(23) 0.4592(22)
H20 H -0.1566(26) 0.7224(26) 0.3879(25)
C26 C -0.0610(3) 0.8699(2) 0.3459(2)
H21 H -0.1335(27) 0.8765(26) 0.2935(26)
H22 H -0.0102(25) 0.9449(25) 0.3811(23)
C27 C 0.0514(3) 0.8631(3) 0.2048(3)
H23 H 0.1057(29) 0.9444(30) 0.2431(27)
H24 H -0.0116(28) 0.8676(27) 0.1508(27)
C28 C 0.1235(3) 0.7981(3) 0.1405(2)
H25 H 0.0844(25) 0.7121(26) 0.1176(24)
H26 H 0.1291(31) 0.8215(30) 0.0713(31)
C29 C 0.2698(2) 0.7515(2) 0.2552(2)
H27 H 0.3540(30) 0.7587(28) 0.2551(27)
H28 H 0.2185(26) 0.6722(26) 0.2141(24)
C30 C 0.2494(2) 0.7795(2) 0.3728(2)
H29 H 0.1685(27) 0.7790(25) 0.3747(24)
H30 H 0.2647(25) 0.7223(25) 0.4074(24)
C31 C 0.3042(2) 0.9308(2) 0.5436(2)
H31 H 0.2932(31) 0.8674(31) 0.5800(30)
H32 H 0.2277(27) 0.9510(26) 0.5314(25)
C32 C 0.4107(2) 1.0347(2) 0.6141(2)
H33 H 0.4265(27) 1.0969(27) 0.5846(26)
H34 H 0.4800(28) 1.0126(26) 0.6232(25)
Cl1 Cl 1.00556(6) 0.46329(5) 0.62008(6)
Cl2 Cl 1.01162(6) 0.54767(6) 0.85972(6)
C33 C 1.0762(2) 0.4758(2) 0.7561(2)
H35 H 1.1573(29) 0.5237(27) 0.7682(25)
H36 H 1.0631(28) 0.3973(29) 0.7580(26)
loop_
_geom_bond_atom_site_label_1
_geom_bond_atom_site_label_2
_geom_bond_site_symmetry_1
_geom_bond_site_symmetry_2
S1 C15 1_555 1_555
S2 C15 1_555 1_555
S3 C18 1_555 1_555
S4 C18 1_555 1_555
S5 C16 1_555 1_555
S6 C17 1_555 1_555
O1 C24 1_555 1_555
O2 C26 1_555 1_555
O3 C28 1_555 1_555
O4 C30 1_555 1_555
C1 H1 1_555 1_555
C2 C1 1_555 1_555
H2 C2 1_555 1_555
C3 C2 1_555 1_555
H3 C3 1_555 1_555
C4 C3 1_555 1_555
H4 C4 1_555 1_555
C5 H5 1_555 1_555
C6 C5 1_555 1_555
H6 C6 1_555 1_555
C7 C6 1_555 1_555
H7 C7 1_555 1_555
C8 C7 1_555 1_555
H8 C8 1_555 1_555
C9 C11 1_555 1_555
C10 C12 1_555 1_555
C11 C1 1_555 1_555
C12 C4 1_555 1_555
C13 C5 1_555 1_555
C14 C8 1_555 1_555
C15 C9 1_555 1_555
C16 S1 1_555 1_555
C17 S2 1_555 1_555
C18 C10 1_555 1_555
C19 S3 1_555 1_555
C20 S4 1_555 1_555
C21 C19 1_555 1_555
H9 C21 1_555 1_555
H10 C21 1_555 1_555
H11 C21 1_555 1_555
C22 C20 1_555 1_555
H12 C22 1_555 1_555
H13 C22 1_555 1_555
H14 C22 1_555 1_555
C23 S5 1_555 1_555
H15 C23 1_555 1_555
H16 C23 1_555 1_555
C24 C23 1_555 1_555
H17 C24 1_555 1_555
H18 C24 1_555 1_555
C25 O1 1_555 1_555
H19 C25 1_555 1_555
H20 C25 1_555 1_555
C26 C25 1_555 1_555
H21 C26 1_555 1_555
H22 C26 1_555 1_555
C27 O2 1_555 1_555
H23 C27 1_555 1_555
H24 C27 1_555 1_555
C28 C27 1_555 1_555
H25 C28 1_555 1_555
H26 C28 1_555 1_555
C29 O3 1_555 1_555
H27 C29 1_555 1_555
H28 C29 1_555 1_555
C30 C29 1_555 1_555
H29 C30 1_555 1_555
H30 C30 1_555 1_555
C31 O4 1_555 1_555
H31 C31 1_555 1_555
H32 C31 1_555 1_555
C32 S6 1_555 1_555
H33 C32 1_555 1_555
H34 C32 1_555 1_555
Cl1 C33 1_555 1_555
Cl2 C33 1_555 1_555
C33 H35 1_555 1_555
H36 C33 1_555 1_555
C9 C14 1_555 1_555
C10 C13 1_555 1_555
C11 C12 1_555 1_555
C13 C14 1_555 1_555
C16 C17 1_555 1_555
C19 C20 1_555 1_555
C31 C32 1_555 1_555

#END
