
#######################################################################
#
#                 Cambridge Crystallographic Data Centre
#                                CCDC 
#
#######################################################################
#
# If this CIF has been generated from an entry in the Cambridge 
# Structural Database, then it will include bibliographic, chemical, 
# crystal, experimental, refinement or atomic coordinate data resulting 
# from the CCDC's data processing and validation procedures.
#
#######################################################################

data_KANLET
_chemical_formula_moiety         'C28 H24 Cl1 N1 O1'
_chemical_name_systematic        
1-(4-t-butylphenyl)-7-chloro-2-phenyl-1,2-dihydro-3H-benzo[e]isoindol-3-one
_symmetry_cell_setting           monoclinic
_symmetry_space_group_name_H-M   'C 2/c'
_symmetry_Int_Tables_number      15
_space_group_name_Hall           '-C 2yn'
loop_
_symmetry_equiv_pos_site_id
_symmetry_equiv_pos_as_xyz
1 x,y,z
2 -x,y,1/2-z
3 1/2+x,1/2+y,z
4 1/2-x,1/2+y,1/2-z
5 -x,-y,-z
6 x,-y,1/2+z
7 1/2-x,1/2-y,-z
8 1/2+x,1/2-y,1/2+z
_cell_length_a                   26.22(3)
_cell_length_b                   6.695(7)
_cell_length_c                   28.76(3)
_cell_angle_alpha                90
_cell_angle_beta                 115.874(16)
_cell_angle_gamma                90
_cell_volume                     4542.52
_exptl_crystal_colour            white
_exptl_crystal_description       block
_cell_formula_units_Z            8
loop_
_atom_site_label
_atom_site_type_symbol
_atom_site_fract_x
_atom_site_fract_y
_atom_site_fract_z
Cl1 Cl 0.49034(7) 0.5594(3) 0.18196(8)
N1 N 0.15386(17) 0.2393(7) 0.02150(14)
O1 O 0.15658(16) -0.0840(6) -0.00709(14)
C1 C 0.1808(2) 0.0669(9) 0.0183(2)
C2 C 0.2410(2) 0.0938(8) 0.04925(18)
C3 C 0.2515(2) 0.2800(8) 0.07216(17)
C4 C 0.1959(2) 0.3874(7) 0.05686(17)
H1 H 0.1953 0.5083 0.0374
C5 C 0.2851(3) -0.0346(8) 0.05504(19)
H2 H 0.2773 -0.1608 0.0401
C6 C 0.3398(3) 0.0254(9) 0.0827(2)
H3 H 0.3692 -0.0600 0.0862
C7 C 0.3524(2) 0.2170(9) 0.10622(19)
C8 C 0.3078(2) 0.3475(8) 0.10213(18)
C9 C 0.3227(2) 0.5364(8) 0.12692(19)
H4 H 0.2942 0.6213 0.1262
C10 C 0.3781(2) 0.5958(9) 0.15192(19)
H5 H 0.3868 0.7211 0.1674
C11 C 0.4215(2) 0.4697(11) 0.1544(2)
C12 C 0.4089(3) 0.2841(11) 0.1319(2)
H6 H 0.4381 0.2011 0.1337
C13 C 0.0954(2) 0.2884(10) -0.00758(19)
C14 C 0.0548(3) 0.1375(10) -0.0255(2)
H7 H 0.0655 0.0050 -0.0171
C15 C -0.0007(3) 0.1849(12) -0.0556(2)
H8 H -0.0276 0.0834 -0.0678
C16 C -0.0178(3) 0.3816(14) -0.0683(2)
H9 H -0.0557 0.4121 -0.0888
C17 C 0.0222(3) 0.5309(10) -0.0500(2)
H10 H 0.0111 0.6631 -0.0584
C18 C 0.0779(2) 0.4877(9) -0.0198(2)
H11 H 0.1043 0.5904 -0.0073
C19 C 0.18249(18) 0.4417(8) 0.10191(17)
C20 C 0.1706(2) 0.2954(8) 0.13019(19)
H12 H 0.1697 0.1620 0.1208
C21 C 0.1599(2) 0.3449(9) 0.17230(19)
H13 H 0.1528 0.2429 0.1906
C22 C 0.15950(18) 0.5398(8) 0.18763(16)
C23 C 0.17104(19) 0.6850(8) 0.15944(19)
H14 H 0.1721 0.8182 0.1690
C24 C 0.18115(19) 0.6369(8) 0.11687(18)
H15 H 0.1872 0.7395 0.0980
C25 C 0.1474(2) 0.5867(9) 0.23417(19)
C26 C 0.1922(3) 0.4864(10) 0.2823(2)
H16 H 0.2291 0.5345 0.2883
H17 H 0.1907 0.3444 0.2772
H18 H 0.1852 0.5173 0.3115
C27 C 0.0887(2) 0.5062(11) 0.2232(3)
H19 H 0.0801 0.5385 0.2515
H20 H 0.0882 0.3639 0.2190
H21 H 0.0609 0.5659 0.1921
C28 C 0.1485(3) 0.8109(10) 0.2440(3)
H22 H 0.1863 0.8604 0.2548
H23 H 0.1365 0.8360 0.2705
H24 H 0.1234 0.8773 0.2127
loop_
_geom_bond_atom_site_label_1
_geom_bond_atom_site_label_2
_geom_bond_site_symmetry_1
_geom_bond_site_symmetry_2
Cl1 C11 1_555 1_555
N1 C1 1_555 1_555
O1 C1 1_555 1_555
C1 C2 1_555 1_555
C2 C3 1_555 1_555
C3 C4 1_555 1_555
C4 N1 1_555 1_555
H1 C4 1_555 1_555
C5 C2 1_555 1_555
H2 C5 1_555 1_555
C6 C5 1_555 1_555
H3 C6 1_555 1_555
C7 C6 1_555 1_555
C8 C3 1_555 1_555
C9 C8 1_555 1_555
H4 C9 1_555 1_555
C10 C9 1_555 1_555
H5 C10 1_555 1_555
C11 C10 1_555 1_555
C12 C7 1_555 1_555
H6 C12 1_555 1_555
C13 N1 1_555 1_555
C14 C13 1_555 1_555
H7 C14 1_555 1_555
C15 C14 1_555 1_555
H8 C15 1_555 1_555
C16 C15 1_555 1_555
H9 C16 1_555 1_555
C17 C16 1_555 1_555
H10 C17 1_555 1_555
C18 C13 1_555 1_555
H11 C18 1_555 1_555
C19 C4 1_555 1_555
C20 C19 1_555 1_555
H12 C20 1_555 1_555
C21 C20 1_555 1_555
H13 C21 1_555 1_555
C22 C21 1_555 1_555
C23 C22 1_555 1_555
H14 C23 1_555 1_555
C24 C19 1_555 1_555
H15 C24 1_555 1_555
C25 C22 1_555 1_555
C26 C25 1_555 1_555
H16 C26 1_555 1_555
H17 C26 1_555 1_555
H18 C26 1_555 1_555
C27 C25 1_555 1_555
H19 C27 1_555 1_555
H20 C27 1_555 1_555
H21 C27 1_555 1_555
C28 C25 1_555 1_555
H22 C28 1_555 1_555
H23 C28 1_555 1_555
H24 C28 1_555 1_555
C7 C8 1_555 1_555
C11 C12 1_555 1_555
C17 C18 1_555 1_555
C23 C24 1_555 1_555

#END
