
#######################################################################
#
#                 Cambridge Crystallographic Data Centre
#                                CCDC 
#
#######################################################################
#
# If this CIF has been generated from an entry in the Cambridge 
# Structural Database, then it will include bibliographic, chemical, 
# crystal, experimental, refinement or atomic coordinate data resulting 
# from the CCDC's data processing and validation procedures.
#
#######################################################################

data_KANNAQ
_chemical_formula_moiety         'C60 H64 N2 O12,C1 H2 Cl2'
_chemical_name_systematic        
'3,6,26,29,43,46,49,52,55,58-Decaoxa-9,23-diazadecacyclo[39.28.1.1^14,18^.1^31,60^.0^2,66^.0^10,15^.0^17,22^.0^30,35^.0^37,42^.0^59,64^]doheptaconta-1,10,12,14,17,19,21,30,32,34,37,39,41,59,61,63,66,68-octadecaene-16,72-dione dichloromethane solvate'
_symmetry_cell_setting           triclinic
_symmetry_space_group_name_H-M   'P -1'
_symmetry_Int_Tables_number      2
_space_group_name_Hall           '-P 1'
loop_
_symmetry_equiv_pos_site_id
_symmetry_equiv_pos_as_xyz
1 x,y,z
2 -x,-y,-z
_cell_length_a                   10.0354(11)
_cell_length_b                   10.7628(12)
_cell_length_c                   25.060(3)
_cell_angle_alpha                88.766(2)
_cell_angle_beta                 86.217(2)
_cell_angle_gamma                80.902(2)
_cell_volume                     2666.66
_exptl_crystal_colour            purple
_exptl_crystal_description       plate
_cell_formula_units_Z            2
loop_
_atom_site_label
_atom_site_type_symbol
_atom_site_fract_x
_atom_site_fract_y
_atom_site_fract_z
N1 N 0.9941(2) 0.4641(2) 0.11784(8)
H1 H 0.9342 0.5322 0.1137
N2 N 0.58846(19) 0.69593(19) 0.01826(8)
H2 H 0.6366 0.6889 0.0466
O1 O 0.8723(2) 0.2175(2) -0.08268(9)
O2 O 0.78448(16) 0.57072(17) 0.06925(7)
O3 O 0.88345(16) 0.58545(16) 0.21112(7)
O4 O 0.76240(15) 0.86523(15) 0.28966(7)
O5 O 0.80721(15) 1.21216(15) 0.28921(6)
O6 O 0.6649(2) 1.41580(19) 0.35783(8)
O7 O 0.46315(16) 1.38582(16) 0.45046(7)
O8 O 0.18817(17) 1.42998(17) 0.48760(7)
O9 O 0.1547(2) 1.17408(18) 0.44373(8)
O10 O 0.40495(16) 1.07666(15) 0.33777(7)
O11 O 0.57424(15) 1.09925(15) 0.19270(6)
O12 O 0.60343(16) 0.92069(16) 0.06990(7)
C1 C 0.8576(3) 0.3006(3) -0.04906(12)
C2 C 0.9459(3) 0.2939(3) -0.00418(11)
C3 C 1.0526(3) 0.1964(3) -0.00259(12)
H3 H 1.0675 0.1350 -0.0299
C4 C 1.1380(3) 0.1884(3) 0.03888(13)
H4 H 1.2112 0.1208 0.0399
C5 C 1.1186(3) 0.2765(3) 0.07861(11)
H5 H 1.1790 0.2692 0.1065
C6 C 1.0102(2) 0.3779(2) 0.07864(10)
C7 C 0.9226(2) 0.3874(2) 0.03589(10)
C8 C 0.8087(2) 0.4912(2) 0.03277(10)
C9 C 0.7236(2) 0.5016(2) -0.01282(10)
C10 C 0.6150(2) 0.6029(2) -0.01840(10)
C11 C 0.5367(3) 0.6045(2) -0.06256(10)
H6 H 0.4638 0.6713 -0.0665
C12 C 0.5624(3) 0.5120(3) -0.10035(11)
H7 H 0.5067 0.5152 -0.1297
C13 C 0.6681(3) 0.4145(3) -0.09611(11)
H8 H 0.6862 0.3516 -0.1228
C14 C 0.7471(3) 0.4083(2) -0.05318(10)
C15 C 1.0672(3) 0.4538(3) 0.16621(11)
H9 H 1.1658 0.4419 0.1569
H10 H 1.0466 0.3802 0.1877
C16 C 1.0251(2) 0.5723(3) 0.19788(11)
H11 H 1.0748 0.5676 0.2309
H12 H 1.0463 0.6459 0.1765
C17 C 0.8193(2) 0.7101(2) 0.22375(10)
H13 H 0.7216 0.7180 0.2181
H14 H 0.8580 0.7705 0.1993
C18 C 0.8373(2) 0.7427(2) 0.28080(10)
H15 H 0.8028 0.6809 0.3058
H16 H 0.9342 0.7422 0.2864
C19 C 0.7700(2) 0.9129(2) 0.34038(10)
C20 C 0.8785(3) 0.9738(2) 0.35085(11)
C21 C 0.8829(3) 1.0193(3) 0.40198(12)
H17 H 0.9565 1.0600 0.4100
C22 C 0.7840(3) 1.0071(3) 0.44112(11)
H18 H 0.7901 1.0376 0.4760
C23 C 0.6747(3) 0.9499(2) 0.42959(10)
H19 H 0.6048 0.9441 0.4566
C24 C 0.6658(3) 0.9012(2) 0.37943(10)
C25 C 0.9917(3) 0.9901(3) 0.30913(11)
H20 H 1.0450 1.0504 0.3234
H21 H 1.0522 0.9082 0.3057
C26 C 0.9555(2) 1.0343(2) 0.25369(11)
C27 C 0.8680(2) 1.1454(2) 0.24491(10)
C28 C 0.8342(2) 1.1864(2) 0.19373(10)
C29 C 0.8983(2) 1.1167(3) 0.15065(11)
H22 H 0.8789 1.1445 0.1154
C30 C 0.9888(3) 1.0087(3) 0.15773(12)
H23 H 1.0330 0.9633 0.1278
C31 C 1.0144(2) 0.9673(3) 0.20878(12)
H24 H 1.0739 0.8906 0.2137
C32 C 0.7330(2) 1.3027(2) 0.18329(10)
H25 H 0.7218 1.3085 0.1443
H26 H 0.7729 1.3768 0.1931
C33 C 0.5934(2) 1.3132(2) 0.21152(10)
C34 C 0.5162(2) 1.2164(2) 0.21289(10)
C35 C 0.3839(2) 1.2310(2) 0.23613(10)
C36 C 0.3294(2) 1.3482(2) 0.25677(10)
H27 H 0.2392 1.3611 0.2721
C37 C 0.4024(2) 1.4458(2) 0.25552(10)
H28 H 0.3631 1.5252 0.2698
C38 C 0.5336(2) 1.4276(2) 0.23332(10)
H29 H 0.5842 1.4952 0.2330
C39 C 0.2960(2) 1.1278(2) 0.23742(10)
H30 H 0.2157 1.1542 0.2621
H31 H 0.2632 1.1223 0.2013
C40 C 0.3601(2) 0.9975(2) 0.25414(10)
C41 C 0.4141(2) 0.9751(2) 0.30351(10)
C42 C 0.4802(2) 0.8556(2) 0.31845(10)
C43 C 0.4785(2) 0.7571(2) 0.28321(10)
H32 H 0.5194 0.6746 0.2927
C44 C 0.4193(2) 0.7763(2) 0.23511(11)
H33 H 0.4180 0.7076 0.2121
C45 C 0.3620(2) 0.8963(2) 0.22055(10)
H34 H 0.3231 0.9099 0.1870
C46 C 0.5517(2) 0.8295(2) 0.36947(10)
H35 H 0.5883 0.7386 0.3706
H36 H 0.4830 0.8461 0.3997
C47 C 0.8637(3) 1.3204(3) 0.30193(10)
H37 H 0.8464 1.3853 0.2736
H38 H 0.9628 1.2975 0.3039
C48 C 0.8012(3) 1.3718(3) 0.35477(12)
H39 H 0.8190 1.3046 0.3822
H40 H 0.8486 1.4413 0.3644
C49 C 0.5834(3) 1.3172(3) 0.36833(12)
H41 H 0.6289 1.2398 0.3501
H42 H 0.4952 1.3426 0.3525
C50 C 0.5585(3) 1.2878(3) 0.42649(11)
H43 H 0.5234 1.2070 0.4306
H44 H 0.6444 1.2795 0.4445
C51 C 0.4205(2) 1.3556(3) 0.50394(10)
H45 H 0.4924 1.3632 0.5283
H46 H 0.4017 1.2679 0.5060
C52 C 0.2959(2) 1.4446(3) 0.51982(11)
H47 H 0.2686 1.4295 0.5578
H48 H 0.3149 1.5320 0.5162
C53 C 0.1035(3) 1.3428(3) 0.50833(10)
H49 H 0.0246 1.3882 0.5295
H50 H 0.1546 1.2808 0.5322
C54 C 0.0564(3) 1.2762(3) 0.46262(11)
H51 H -0.0281 1.2443 0.4744
H52 H 0.0360 1.3370 0.4329
C55 C 0.2308(2) 1.1932(2) 0.39612(10)
H53 H 0.2859 1.2605 0.4004
H54 H 0.1711 1.2166 0.3664
C56 C 0.3200(2) 1.0684(2) 0.38568(10)
H55 H 0.3767 1.0451 0.4163
H56 H 0.2632 1.0022 0.3818
C57 C 0.5535(3) 1.0817(2) 0.13780(10)
H57 H 0.5909 1.1462 0.1152
H58 H 0.4558 1.0887 0.1324
C58 C 0.6261(2) 0.9511(2) 0.12328(10)
H59 H 0.7243 0.9472 0.1269
H60 H 0.5935 0.8885 0.1483
C59 C 0.4766(2) 0.8798(2) 0.06454(11)
H61 H 0.4039 0.9534 0.0631
H62 H 0.4551 0.8265 0.0956
C60 C 0.4863(2) 0.8058(2) 0.01379(10)
H63 H 0.3980 0.7799 0.0081
H64 H 0.5107 0.8583 -0.0171
C61 C 0.2531(3) 0.6078(3) 0.38822(11)
H65 H 0.3315 0.6141 0.3627
H66 H 0.2801 0.5377 0.4135
Cl1 Cl 0.11821(8) 0.57436(9) 0.35294(3)
Cl2 Cl 0.21136(8) 0.74837(8) 0.42392(4)
loop_
_geom_bond_atom_site_label_1
_geom_bond_atom_site_label_2
_geom_bond_site_symmetry_1
_geom_bond_site_symmetry_2
N1 H1 1_555 1_555
N2 H2 1_555 1_555
O1 C1 1_555 1_555
O2 C8 1_555 1_555
O3 C16 1_555 1_555
O4 C18 1_555 1_555
O5 C27 1_555 1_555
O6 C48 1_555 1_555
O7 C50 1_555 1_555
O8 C52 1_555 1_555
O9 C54 1_555 1_555
O10 C41 1_555 1_555
O11 C34 1_555 1_555
O12 C58 1_555 1_555
C1 C2 1_555 1_555
C2 C3 1_555 1_555
C3 H3 1_555 1_555
C4 C3 1_555 1_555
H4 C4 1_555 1_555
C5 C4 1_555 1_555
H5 C5 1_555 1_555
C6 N1 1_555 1_555
C7 C2 1_555 1_555
C8 C7 1_555 1_555
C9 C8 1_555 1_555
C10 N2 1_555 1_555
C11 C10 1_555 1_555
H6 C11 1_555 1_555
C12 C11 1_555 1_555
H7 C12 1_555 1_555
C13 C12 1_555 1_555
H8 C13 1_555 1_555
C14 C1 1_555 1_555
C15 N1 1_555 1_555
H9 C15 1_555 1_555
H10 C15 1_555 1_555
C16 C15 1_555 1_555
H11 C16 1_555 1_555
H12 C16 1_555 1_555
C17 O3 1_555 1_555
H13 C17 1_555 1_555
H14 C17 1_555 1_555
C18 C17 1_555 1_555
H15 C18 1_555 1_555
H16 C18 1_555 1_555
C19 O4 1_555 1_555
C20 C19 1_555 1_555
C21 C20 1_555 1_555
H17 C21 1_555 1_555
C22 C21 1_555 1_555
H18 C22 1_555 1_555
C23 C22 1_555 1_555
H19 C23 1_555 1_555
C24 C19 1_555 1_555
C25 C20 1_555 1_555
H20 C25 1_555 1_555
H21 C25 1_555 1_555
C26 C25 1_555 1_555
C27 C26 1_555 1_555
C28 C27 1_555 1_555
C29 C28 1_555 1_555
H22 C29 1_555 1_555
C30 C29 1_555 1_555
H23 C30 1_555 1_555
C31 C26 1_555 1_555
H24 C31 1_555 1_555
C32 C28 1_555 1_555
H25 C32 1_555 1_555
H26 C32 1_555 1_555
C33 C32 1_555 1_555
C34 C33 1_555 1_555
C35 C34 1_555 1_555
C36 C35 1_555 1_555
H27 C36 1_555 1_555
C37 C36 1_555 1_555
H28 C37 1_555 1_555
C38 C33 1_555 1_555
H29 C38 1_555 1_555
C39 C35 1_555 1_555
H30 C39 1_555 1_555
H31 C39 1_555 1_555
C40 C39 1_555 1_555
C41 C40 1_555 1_555
C42 C41 1_555 1_555
C43 C42 1_555 1_555
H32 C43 1_555 1_555
C44 C43 1_555 1_555
H33 C44 1_555 1_555
C45 C40 1_555 1_555
H34 C45 1_555 1_555
C46 C24 1_555 1_555
H35 C46 1_555 1_555
H36 C46 1_555 1_555
C47 O5 1_555 1_555
H37 C47 1_555 1_555
H38 C47 1_555 1_555
C48 C47 1_555 1_555
H39 C48 1_555 1_555
H40 C48 1_555 1_555
C49 O6 1_555 1_555
H41 C49 1_555 1_555
H42 C49 1_555 1_555
C50 C49 1_555 1_555
H43 C50 1_555 1_555
H44 C50 1_555 1_555
C51 O7 1_555 1_555
H45 C51 1_555 1_555
H46 C51 1_555 1_555
C52 C51 1_555 1_555
H47 C52 1_555 1_555
H48 C52 1_555 1_555
C53 O8 1_555 1_555
H49 C53 1_555 1_555
H50 C53 1_555 1_555
C54 C53 1_555 1_555
H51 C54 1_555 1_555
H52 C54 1_555 1_555
C55 O9 1_555 1_555
H53 C55 1_555 1_555
H54 C55 1_555 1_555
C56 O10 1_555 1_555
H55 C56 1_555 1_555
H56 C56 1_555 1_555
C57 O11 1_555 1_555
H57 C57 1_555 1_555
H58 C57 1_555 1_555
C58 C57 1_555 1_555
H59 C58 1_555 1_555
H60 C58 1_555 1_555
C59 O12 1_555 1_555
H61 C59 1_555 1_555
H62 C59 1_555 1_555
C60 N2 1_555 1_555
H63 C60 1_555 1_555
H64 C60 1_555 1_555
C61 H65 1_555 1_555
H66 C61 1_555 1_555
Cl1 C61 1_555 1_555
Cl2 C61 1_555 1_555
C5 C6 1_555 1_555
C6 C7 1_555 1_555
C9 C10 1_555 1_555
C9 C14 1_555 1_555
C13 C14 1_555 1_555
C23 C24 1_555 1_555
C30 C31 1_555 1_555
C37 C38 1_555 1_555
C42 C46 1_555 1_555
C44 C45 1_555 1_555
C55 C56 1_555 1_555
C59 C60 1_555 1_555

#END
