
#######################################################################
#
#                 Cambridge Crystallographic Data Centre
#                                CCDC 
#
#######################################################################
#
# If this CIF has been generated from an entry in the Cambridge 
# Structural Database, then it will include bibliographic, chemical, 
# crystal, experimental, refinement or atomic coordinate data resulting 
# from the CCDC's data processing and validation procedures.
#
#######################################################################

data_KANVEC
_chemical_name_common            
5-(4-chlorophenyl)-4,5-dihydro-3-(5-methyl-1-p-tolyl-1H-1,2,3-triazol-4-yl)-1-(4-phenylthiazol-2-yl)pyrazole
_chemical_formula_moiety         'C28 H23 Cl1 N6 S1'
_chemical_name_systematic        
4-(5-(4-Chlorophenyl)-1-(4-phenyl-1,3-thiazol-2-yl)-4,5-dihydro-1H-pyrazol-3-yl)-5-methyl-1-(4-methylphenyl)-1H-1,2,3-triazole
_symmetry_cell_setting           triclinic
_symmetry_space_group_name_H-M   'P -1'
_symmetry_Int_Tables_number      2
_space_group_name_Hall           '-P 1'
loop_
_symmetry_equiv_pos_site_id
_symmetry_equiv_pos_as_xyz
1 x,y,z
2 -x,-y,-z
_cell_length_a                   11.276(11)
_cell_length_b                   11.690(11)
_cell_length_c                   11.757(11)
_cell_angle_alpha                64.111(14)
_cell_angle_beta                 67.034(14)
_cell_angle_gamma                79.882(13)
_cell_volume                     1283.7
_exptl_crystal_colour            colorless
_exptl_crystal_description       block
_chemical_melting_point          203-205deg.C
_cell_formula_units_Z            2
loop_
_atom_site_label
_atom_site_type_symbol
_atom_site_fract_x
_atom_site_fract_y
_atom_site_fract_z
C1 C 1.1891(10) 1.1851(12) -0.2673(15)
C2 C 1.0227(10) 1.2466(11) -0.3574(14)
C3 C 1.1993(8) 1.4188(8) -0.4613(9)
H1 H 1.1444 1.4702 -0.5103
H2 H 1.2825 1.4108 -0.5238
H3 H 1.2081 1.4582 -0.4084
C4 C 1.1405(8) 1.2876(7) -0.3682(8)
S1 S 0.38467(19) 0.69855(14) 0.0868(2)
Cl1 Cl 0.5190(2) 0.0272(2) 0.7363(3)
C5 C 0.8570(6) 0.8782(6) -0.0635(8)
C6 C 0.7420(8) 0.9624(7) -0.0746(13)
H4 H 0.6655 0.9116 -0.0257
H5 H 0.7506 1.0071 -0.1679
H6 H 0.7361 1.0225 -0.0372
C7 C 0.8648(6) 0.7484(6) 0.0016(7)
C8 C 0.7671(6) 0.6502(5) 0.0723(7)
C9 C 0.7972(6) 0.5105(5) 0.1325(8)
H7 H 0.8245 0.4893 0.2080
H8 H 0.8637 0.4847 0.0655
C10 C 0.6687(6) 0.4486(5) 0.1789(8)
H9 H 0.6725 0.4146 0.1146
C11 C 0.6280(6) 0.3448(5) 0.3189(8)
C12 C 0.5893(6) 0.3717(6) 0.4287(9)
H10 H 0.5840 0.4560 0.4176
C13 C 0.5572(6) 0.2752(7) 0.5580(9)
H11 H 0.5307 0.2948 0.6330
C14 C 0.5647(6) 0.1507(7) 0.5745(10)
C15 C 0.6085(9) 0.1222(7) 0.4662(12)
H12 H 0.6180 0.0378 0.4770
C16 C 0.6397(9) 0.2200(6) 0.3374(10)
H13 H 0.6690 0.2001 0.2624
C17 C 0.4631(6) 0.5579(5) 0.1565(7)
C18 C 0.2594(7) 0.6049(5) 0.1288(8)
H14 H 0.1836 0.6372 0.1120
C19 C 0.2834(7) 0.4780(5) 0.1895(7)
C20 C 0.1981(7) 0.3699(5) 0.2453(7)
C21 C 0.0708(7) 0.3860(6) 0.2571(8)
H15 H 0.0376 0.4679 0.2260
C22 C -0.0085(8) 0.2833(6) 0.3140(8)
H16 H -0.0941 0.2970 0.3201
C23 C 0.0363(8) 0.1625(6) 0.3614(8)
H17 H -0.0184 0.0935 0.4027
C24 C 0.1643(9) 0.1442(6) 0.3471(10)
H18 H 0.1976 0.0621 0.3751
C25 C 0.2425(8) 0.2456(6) 0.2922(9)
H19 H 0.3281 0.2312 0.2859
N1 N 0.9802(5) 0.9201(5) -0.1166(6)
N2 N 1.0598(5) 0.8191(5) -0.0841(6)
N3 N 0.9916(5) 0.7167(5) -0.0137(6)
N4 N 0.6481(5) 0.6760(4) 0.0895(6)
N5 N 0.5827(5) 0.5613(4) 0.1637(6)
N6 N 0.4057(5) 0.4542(4) 0.2004(6)
C26 C 1.0323(5) 1.0448(6) -0.2000(7)
C27 C 1.1370(9) 1.0660(10) -0.1880(13)
C28 C 0.9702(9) 1.1269(9) -0.2767(12)
H20 H 1.178(8) 0.997(8) -0.135(9)
H21 H 1.253(9) 1.207(8) -0.255(9)
H22 H 1.003(11) 1.300(11) -0.430(12)
H23 H 0.879(9) 1.115(7) -0.279(8)
C29? C 1.034(2) 1.289(2) -0.297(3)
C30? C 0.9783(18) 1.1698(16) -0.208(2)
C31? C 1.1702(14) 1.0775(19) -0.318(3)
C32? C 1.219(2) 1.201(2) -0.400(4)
H24? H 0.9895 1.3639 -0.2997
H25? H 0.8964 1.1705 -0.1456
H26? H 1.2212 1.0104 -0.3339
H27? H 1.2988 1.2194 -0.4699
loop_
_geom_bond_atom_site_label_1
_geom_bond_atom_site_label_2
_geom_bond_site_symmetry_1
_geom_bond_site_symmetry_2
C1 C4 1_555 1_555
C2 C4 1_555 1_555
C3 H1 1_555 1_555
H2 C3 1_555 1_555
H3 C3 1_555 1_555
C4 C3 1_555 1_555
S1 C17 1_555 1_555
Cl1 C14 1_555 1_555
C5 C6 1_555 1_555
C6 H4 1_555 1_555
H5 C6 1_555 1_555
H6 C6 1_555 1_555
C7 C5 1_555 1_555
C8 C7 1_555 1_555
C9 C8 1_555 1_555
H7 C9 1_555 1_555
H8 C9 1_555 1_555
C10 C9 1_555 1_555
H9 C10 1_555 1_555
C11 C10 1_555 1_555
C12 C11 1_555 1_555
H10 C12 1_555 1_555
C13 C12 1_555 1_555
H11 C13 1_555 1_555
C14 C13 1_555 1_555
C15 C14 1_555 1_555
H12 C15 1_555 1_555
C16 C11 1_555 1_555
H13 C16 1_555 1_555
C17 N5 1_555 1_555
C18 S1 1_555 1_555
H14 C18 1_555 1_555
C19 C18 1_555 1_555
C20 C19 1_555 1_555
C21 C20 1_555 1_555
H15 C21 1_555 1_555
C22 C21 1_555 1_555
H16 C22 1_555 1_555
C23 C22 1_555 1_555
H17 C23 1_555 1_555
C24 C23 1_555 1_555
H18 C24 1_555 1_555
C25 C20 1_555 1_555
H19 C25 1_555 1_555
N1 C5 1_555 1_555
N2 N1 1_555 1_555
N3 C7 1_555 1_555
N4 C8 1_555 1_555
N5 C10 1_555 1_555
N6 C17 1_555 1_555
C26 N1 1_555 1_555
C27 C1 1_555 1_555
C28 C2 1_555 1_555
H20 C27 1_555 1_555
H21 C1 1_555 1_555
H22 C2 1_555 1_555
H23 C28 1_555 1_555
C15 C16 1_555 1_555
C19 N6 1_555 1_555
C24 C25 1_555 1_555
N2 N3 1_555 1_555
N4 N5 1_555 1_555
C26 C27 1_555 1_555
C26 C28 1_555 1_555

#END
