
#######################################################################
#
#                 Cambridge Crystallographic Data Centre
#                                CCDC 
#
#######################################################################
#
# If this CIF has been generated from an entry in the Cambridge 
# Structural Database, then it will include bibliographic, chemical, 
# crystal, experimental, refinement or atomic coordinate data resulting 
# from the CCDC's data processing and validation procedures.
#
#######################################################################

data_KANWEE
_chemical_formula_moiety         'C18 H23 N2 O5 P1'
_chemical_name_systematic        
'diethyl (((4-methylphenyl)amino)(4-nitrophenyl)methyl)phosphonate'
_symmetry_cell_setting           monoclinic
_symmetry_space_group_name_H-M   'C 2/c'
_symmetry_Int_Tables_number      15
_space_group_name_Hall           '-C 2yn'
loop_
_symmetry_equiv_pos_site_id
_symmetry_equiv_pos_as_xyz
1 x,y,z
2 -x,y,1/2-z
3 1/2+x,1/2+y,z
4 1/2-x,1/2+y,1/2-z
5 -x,-y,-z
6 x,-y,1/2+z
7 1/2-x,1/2-y,-z
8 1/2+x,1/2-y,1/2+z
_cell_length_a                   22.5011(9)
_cell_length_b                   8.2336(3)
_cell_length_c                   21.3721(9)
_cell_angle_alpha                90
_cell_angle_beta                 98.489(2)
_cell_angle_gamma                90
_cell_volume                     3916.12
_cell_formula_units_Z            8
loop_
_atom_site_label
_atom_site_type_symbol
_atom_site_fract_x
_atom_site_fract_y
_atom_site_fract_z
P1 P 0.18748(6) 0.28035(18) 0.17589(6)
O1 O 0.0343(3) -0.5103(7) 0.1807(4)
O2 O -0.0411(3) -0.3678(7) 0.1453(4)
O3 O 0.1424(3) 0.2632(6) 0.11456(18)
O4 O 0.2381(3) 0.1561(10) 0.1747(4)
O5 O 0.2108(2) 0.4423(6) 0.18945(19)
N1 N 0.18645(17) 0.1882(5) 0.29434(18)
H1 H 0.2197 0.1300 0.2920
N2 N 0.0112(3) -0.3812(7) 0.1683(3)
C1 C 0.11034(19) 0.0460(6) 0.21520(19)
C2 C 0.0505(2) 0.0545(6) 0.1894(2)
H2 H 0.0321 0.1554 0.1828
C3 C 0.0175(2) -0.0850(7) 0.1730(2)
H3 H -0.0229 -0.0786 0.1557
C4 C 0.0453(2) -0.2320(6) 0.1829(2)
C5 C 0.1057(3) -0.2444(7) 0.2069(3)
H4 H 0.1244 -0.3453 0.2123
C6 C 0.1375(2) -0.1044(7) 0.2225(3)
H5 H 0.1782 -0.1109 0.2384
C7 C 0.14559(19) 0.1993(6) 0.2354(2)
H6 H 0.1158 0.2821 0.2419
C8 C 0.1627(2) 0.1778(6) 0.3517(2)
C9 C 0.1064(2) 0.2292(8) 0.3590(3)
H7 H 0.0808 0.2681 0.3241
C10 C 0.0863(3) 0.2247(9) 0.4182(3)
H8 H 0.0483 0.2639 0.4221
C11 C 0.1217(4) 0.1639(9) 0.4697(3)
C12 C 0.1785(5) 0.1169(11) 0.4622(3)
H9 H 0.2042 0.0792 0.4972
C13 C 0.1992(3) 0.1231(9) 0.4046(3)
H10 H 0.2382 0.0900 0.4016
C14 C 0.0998(6) 0.1565(13) 0.5334(4)
H11 H 0.0743 0.0635 0.5347
H12 H 0.0776 0.2534 0.5395
H13 H 0.1337 0.1480 0.5663
C15 C 0.1357(4) 0.3665(12) 0.0618(4)
H14 H 0.1684 0.3467 0.0378
H15 H 0.1388 0.4782 0.0763
C16 C 0.0793(5) 0.3455(16) 0.0205(5)
H16 H 0.0815 0.3977 -0.0193
H17 H 0.0475 0.3932 0.0397
H18 H 0.0716 0.2318 0.0137
C17 C 0.2784(6) 0.1033(17) 0.1501(5)
H19 H 0.2729 -0.0131 0.1532
H20 H 0.3133 0.1276 0.1810
C18 C 0.3005(4) 0.1175(13) 0.0947(4)
H21 H 0.2849 0.2143 0.0732
H22 H 0.2887 0.0247 0.0686
H23 H 0.3435 0.1236 0.1030
loop_
_geom_bond_atom_site_label_1
_geom_bond_atom_site_label_2
_geom_bond_site_symmetry_1
_geom_bond_site_symmetry_2
P1 O3 1_555 1_555
O1 N2 1_555 1_555
O2 N2 1_555 1_555
O3 C15 1_555 1_555
O4 P1 1_555 1_555
O5 P1 1_555 1_555
N1 H1 1_555 1_555
N2 C4 1_555 1_555
C1 C2 1_555 1_555
C2 H2 1_555 1_555
C3 C2 1_555 1_555
H3 C3 1_555 1_555
C4 C3 1_555 1_555
C5 C4 1_555 1_555
H4 C5 1_555 1_555
C6 C1 1_555 1_555
H5 C6 1_555 1_555
C7 P1 1_555 1_555
H6 C7 1_555 1_555
C8 N1 1_555 1_555
C9 C8 1_555 1_555
H7 C9 1_555 1_555
C10 C9 1_555 1_555
H8 C10 1_555 1_555
C11 C10 1_555 1_555
C12 C11 1_555 1_555
H9 C12 1_555 1_555
C13 C8 1_555 1_555
H10 C13 1_555 1_555
C14 C11 1_555 1_555
H11 C14 1_555 1_555
H12 C14 1_555 1_555
H13 C14 1_555 1_555
C15 H14 1_555 1_555
H15 C15 1_555 1_555
C16 C15 1_555 1_555
H16 C16 1_555 1_555
H17 C16 1_555 1_555
H18 C16 1_555 1_555
C17 O4 1_555 1_555
H19 C17 1_555 1_555
H20 C17 1_555 1_555
C18 C17 1_555 1_555
H21 C18 1_555 1_555
H22 C18 1_555 1_555
H23 C18 1_555 1_555
N1 C7 1_555 1_555
C1 C7 1_555 1_555
C5 C6 1_555 1_555
C12 C13 1_555 1_555

#END
