
#######################################################################
#
#                 Cambridge Crystallographic Data Centre
#                                CCDC 
#
#######################################################################
#
# If this CIF has been generated from an entry in the Cambridge 
# Structural Database, then it will include bibliographic, chemical, 
# crystal, experimental, refinement or atomic coordinate data resulting 
# from the CCDC's data processing and validation procedures.
#
#######################################################################

data_KANXAY
_chemical_formula_moiety         'C24 H62 B8 Na2 O2 Si4'
_chemical_name_systematic        
bis(\m~2~-2,3-bis(Trimethylsilyl)-4,5-\mH-2,3-dicarba-nido-hexaborate(5))-bis(tetrahydrofuran)-di-sodium(i)
_symmetry_cell_setting           triclinic
_symmetry_space_group_name_H-M   'P -1'
_symmetry_Int_Tables_number      2
_space_group_name_Hall           '-P 1'
loop_
_symmetry_equiv_pos_site_id
_symmetry_equiv_pos_as_xyz
1 x,y,z
2 -x,-y,-z
_cell_length_a                   6.326(17)
_cell_length_b                   11.82(4)
_cell_length_c                   14.16(5)
_cell_angle_alpha                75.47(25)
_cell_angle_beta                 80.58(23)
_cell_angle_gamma                80.50(22)
_cell_volume                     1002.55
_exptl_crystal_colour            white
_cell_formula_units_Z            1
_chemical_properties_physical    'Extremely air-sensitive'
loop_
_atom_site_label
_atom_site_type_symbol
_atom_site_fract_x
_atom_site_fract_y
_atom_site_fract_z
Na1 Na -0.2328(3) 0.5320(2) 0.3810(1)
O1 O -0.1392(7) 0.3974(3) 0.2796(3)
C1 C -0.1533(15) 0.4232(9) 0.1780(5)
C2 C 0.0181(17) 0.3496(10) 0.1339(7)
C3 C 0.0955(22) 0.2580(8) 0.2120(7)
C4 C -0.0092(14) 0.2855(6) 0.3047(5)
H1 H -0.2923 0.4101 0.1672
H2 H -0.1338 0.5043 0.1503
H3 H -0.0405 0.3160 0.0903
H4 H 0.1319 0.3937 0.0976
H5 H 0.0622 0.1832 0.2078
H6 H 0.2492 0.2552 0.2079
H7 H 0.0971 0.2902 0.3444
H8 H -0.0986 0.2264 0.3403
Si1 Si -0.5521(2) 0.8577(1) 0.3710(1)
Si2 Si -0.5353(3) 0.7670(2) 0.1261(1)
C5 C -0.5849(7) 0.7126(4) 0.3469(3)
C6 C -0.5786(8) 0.6750(4) 0.2539(4)
B1 B -0.6680(10) 0.5572(6) 0.2721(5)
B2 B -0.7546(9) 0.5206(5) 0.4001(5)
B3 B -0.6793(9) 0.6257(5) 0.4379(4)
B4 B -0.8164(9) 0.6649(5) 0.3300(4)
C7 C -0.3781(10) 0.9565(5) 0.2768(5)
C8 C -0.4201(11) 0.8246(5) 0.4843(5)
C9 C -0.8261(9) 0.9437(5) 0.3900(5)
C10 C -0.7136(11) 0.9118(6) 0.1068(5)
C11 C -0.6003(11) 0.6889(7) 0.0376(4)
C12 C -0.2429(9) 0.7871(6) 0.0957(5)
H9 H -0.4371 0.9777 0.2156
H10 H -0.2347 0.9156 0.2680
H11 H -0.3730 1.0266 0.2986
H12 H -0.5010 0.7742 0.5366
H13 H -0.4143 0.8968 0.5027
H14 H -0.2760 0.7858 0.4720
H15 H -0.9197 0.8958 0.4381
H16 H -0.8855 0.9676 0.3288
H17 H -0.8130 1.0122 0.4123
H18 H -0.6885 0.9568 0.1508
H19 H -0.8622 0.8982 0.1190
H20 H -0.6815 0.9546 0.0401
H21 H -0.5683 0.7343 -0.0282
H22 H -0.7508 0.6792 0.0502
H23 H -0.5146 0.6130 0.0451
H24 H -0.2050 0.8273 0.1403
H25 H -0.2182 0.8331 0.0296
H26 H -0.1557 0.7117 0.1011
H27 H -0.7145(90) 0.5212(49) 0.2208(39)
H28 H -0.8759(90) 0.4561(48) 0.4284(39)
H29 H -0.7448(90) 0.6502(47) 0.5109(39)
H30 H -0.9644(94) 0.7172(48) 0.3154(38)
H31 H -0.5895(90) 0.4849(49) 0.3454(39)
Na1A Na -0.7672(3) 0.4680(2) 0.6190(1)
O1A O -0.8608(7) 0.6026(3) 0.7204(3)
C1A C -0.8467(15) 0.5768(9) 0.8220(5)
C2A C -1.0181(17) 0.6504(10) 0.8661(7)
C3A C -1.0955(22) 0.7420(8) 0.7880(7)
C4A C -0.9908(14) 0.7145(6) 0.6953(5)
H1A H -0.7077 0.5899 0.8328
H2A H -0.8662 0.4957 0.8497
H3A H -0.9595 0.6840 0.9097
H4A H -1.1319 0.6063 0.9024
H5A H -1.0622 0.8168 0.7922
H6A H -1.2492 0.7448 0.7921
H7A H -1.0971 0.7098 0.6556
H8A H -0.9014 0.7736 0.6597
Si1A Si -0.4479(2) 0.1423(1) 0.6290(1)
Si2A Si -0.4647(3) 0.2330(2) 0.8739(1)
C5A C -0.4151(7) 0.2874(4) 0.6531(3)
C6A C -0.4214(8) 0.3250(4) 0.7461(4)
B1A B -0.3320(10) 0.4428(6) 0.7279(5)
B2A B -0.2454(9) 0.4794(5) 0.5999(5)
B3A B -0.3207(9) 0.3743(5) 0.5621(4)
B4A B -0.1836(9) 0.3351(5) 0.6700(4)
C7A C -0.6219(10) 0.0435(5) 0.7232(5)
C8A C -0.5799(11) 0.1754(5) 0.5157(5)
C9A C -0.1739(9) 0.0563(5) 0.6100(5)
C10A C -0.2864(11) 0.0882(6) 0.8932(5)
C11A C -0.3997(11) 0.3111(7) 0.9624(4)
C12A C -0.7571(9) 0.2129(6) 0.9043(5)
H9A H -0.5629 0.0223 0.7844
H10A H -0.7653 0.0844 0.7320
H11A H -0.6270 -0.0266 0.7014
H12A H -0.4990 0.2258 0.4634
H13A H -0.5857 0.1032 0.4973
H14A H -0.7240 0.2142 0.5280
H15A H -0.0803 0.1042 0.5619
H16A H -0.1145 0.0324 0.6712
H17A H -0.1870 -0.0122 0.5877
H18A H -0.3115 0.0432 0.8492
H19A H -0.1378 0.1018 0.8810
H20A H -0.3185 0.0454 0.9599
H21A H -0.4317 0.2657 1.0282
H22A H -0.2492 0.3208 0.9498
H23A H -0.4854 0.3870 0.9549
H24A H -0.7950 0.1727 0.8597
H25A H -0.7818 0.1669 0.9704
H26A H -0.8443 0.2883 0.8989
H27A H -0.2855(90) 0.4788(49) 0.7792(39)
H28A H -0.1241(90) 0.5439(48) 0.5716(39)
H29A H -0.2552(90) 0.3498(47) 0.4891(39)
H30A H -0.0356(94) 0.2828(48) 0.6846(38)
H31A H -0.4105(90) 0.5151(49) 0.6546(39)
loop_
_geom_bond_atom_site_label_1
_geom_bond_atom_site_label_2
_geom_bond_site_symmetry_1
_geom_bond_site_symmetry_2
Na1 O1 1_555 1_555
O1 C1 1_555 1_555
C1 C2 1_555 1_555
C2 C3 1_555 1_555
C3 C4 1_555 1_555
C4 O1 1_555 1_555
H1 C1 1_555 1_555
H2 C1 1_555 1_555
H3 C2 1_555 1_555
H4 C2 1_555 1_555
H5 C3 1_555 1_555
H6 C3 1_555 1_555
H7 C4 1_555 1_555
H8 C4 1_555 1_555
Si1 C5 1_555 1_555
Si2 C6 1_555 1_555
C5 Na1 1_555 1_555
C6 C5 1_555 1_555
B1 C6 1_555 1_555
B2 B1 1_555 1_555
B3 Na1 1_555 1_555
B4 C5 1_555 1_555
C7 Si1 1_555 1_555
C8 Si1 1_555 1_555
C9 Si1 1_555 1_555
C10 Si2 1_555 1_555
C11 Si2 1_555 1_555
C12 Si2 1_555 1_555
H9 C7 1_555 1_555
H10 C7 1_555 1_555
H11 C7 1_555 1_555
H12 C8 1_555 1_555
H13 C8 1_555 1_555
H14 C8 1_555 1_555
H15 C9 1_555 1_555
H16 C9 1_555 1_555
H17 C9 1_555 1_555
H18 C10 1_555 1_555
H19 C10 1_555 1_555
H20 C10 1_555 1_555
H21 C11 1_555 1_555
H22 C11 1_555 1_555
H23 C11 1_555 1_555
H24 C12 1_555 1_555
H25 C12 1_555 1_555
H26 C12 1_555 1_555
H27 B1 1_555 1_555
H28 B2 1_555 1_555
H29 B3 1_555 1_555
H30 B4 1_555 1_555
H31 B1 1_555 1_555
Na1A B2 1_555 1_555
O1A Na1A 1_555 1_555
C1A O1A 1_555 1_555
C2A C1A 1_555 1_555
C3A C2A 1_555 1_555
C4A O1A 1_555 1_555
H1A C1A 1_555 1_555
H2A C1A 1_555 1_555
H3A C2A 1_555 1_555
H4A C2A 1_555 1_555
H5A C3A 1_555 1_555
H6A C3A 1_555 1_555
H7A C4A 1_555 1_555
H8A C4A 1_555 1_555
Si1A C5A 1_555 1_555
Si2A C6A 1_555 1_555
C5A Na1A 1_555 1_555
C6A C5A 1_555 1_555
B1A C6A 1_555 1_555
B2A Na1 1_555 1_555
B3A Na1 1_555 1_555
B4A C5A 1_555 1_555
C7A Si1A 1_555 1_555
C8A Si1A 1_555 1_555
C9A Si1A 1_555 1_555
C10A Si2A 1_555 1_555
C11A Si2A 1_555 1_555
C12A Si2A 1_555 1_555
H9A C7A 1_555 1_555
H10A C7A 1_555 1_555
H11A C7A 1_555 1_555
H12A C8A 1_555 1_555
H13A C8A 1_555 1_555
H14A C8A 1_555 1_555
H15A C9A 1_555 1_555
H16A C9A 1_555 1_555
H17A C9A 1_555 1_555
H18A C10A 1_555 1_555
H19A C10A 1_555 1_555
H20A C10A 1_555 1_555
H21A C11A 1_555 1_555
H22A C11A 1_555 1_555
H23A C11A 1_555 1_555
H24A C12A 1_555 1_555
H25A C12A 1_555 1_555
H26A C12A 1_555 1_555
H27A B1A 1_555 1_555
H28A B2A 1_555 1_555
H29A B3A 1_555 1_555
H30A B4A 1_555 1_555
H31A B1A 1_555 1_555
C5 B3 1_555 1_555
C6 B4 1_555 1_555
B1 B4 1_555 1_555
B2 B3 1_555 1_555
B2 B4 1_555 1_555
B2 H31 1_555 1_555
B3 B4 1_555 1_555
B3 Na1A 1_555 1_555
Na1A B3A 1_555 1_555
C3A C4A 1_555 1_555
C5A B3A 1_555 1_555
C6A B4A 1_555 1_555
B1A B2A 1_555 1_555
B1A B4A 1_555 1_555
B2A B3A 1_555 1_555
B2A B4A 1_555 1_555
B2A H31A 1_555 1_555
B3A B4A 1_555 1_555

#END
