
#######################################################################
#
#                 Cambridge Crystallographic Data Centre
#                                CCDC 
#
#######################################################################
#
# If this CIF has been generated from an entry in the Cambridge 
# Structural Database, then it will include bibliographic, chemical, 
# crystal, experimental, refinement or atomic coordinate data resulting 
# from the CCDC's data processing and validation procedures.
#
#######################################################################

data_KANZUX
_chemical_formula_moiety         'C33 H36 N6'
_chemical_name_systematic        
2-{1,3-bis[2,6-bis(propan-2-yl)phenyl]-1H-imidazol-3-ium-2-yl}-1,1,2,2-tetracyanoethan-1-ide
_symmetry_cell_setting           monoclinic
_symmetry_space_group_name_H-M   'P 21/c'
_symmetry_Int_Tables_number      14
_space_group_name_Hall           '-P 2ybc'
loop_
_symmetry_equiv_pos_site_id
_symmetry_equiv_pos_as_xyz
1 x,y,z
2 -x,1/2+y,1/2-z
3 -x,-y,-z
4 x,1/2-y,1/2+z
_cell_length_a                   11.3603(6)
_cell_length_b                   14.1968(6)
_cell_length_c                   19.0440(8)
_cell_angle_alpha                90
_cell_angle_beta                 107.171(2)
_cell_angle_gamma                90
_cell_volume                     2934.52
_exptl_crystal_colour            yellow
_exptl_crystal_description       block
_cell_formula_units_Z            4
_chemical_properties_physical    Moisture-sensitive,Heat-sensitive
_exptl_crystal_recrystallization_method tetrahydrofuran
_exptl_crystal_preparation       'Decomposed slowly in homogeneous solution'
loop_
_atom_site_label
_atom_site_type_symbol
_atom_site_fract_x
_atom_site_fract_y
_atom_site_fract_z
N1 N 0.7956(2) 0.71474(13) 0.23130(11)
N2 N 0.6115(2) 0.67293(13) 0.23115(10)
N3 N 0.5829(2) 0.40991(15) 0.19825(13)
N4 N 0.8023(3) 0.52059(15) 0.08149(13)
N5 N 0.8269(3) 0.48312(18) 0.39535(14)
N6 N 1.0625(2) 0.45618(14) 0.24556(12)
C1 C 0.7158(3) 0.64184(15) 0.21971(12)
C2 C 0.6259(3) 0.76702(15) 0.25137(13)
H1 H 0.5664 0.8060 0.2630
C3 C 0.7392(3) 0.79264(16) 0.25137(13)
H2 H 0.7748 0.8534 0.2630
C4 C 0.4924(3) 0.62501(15) 0.21140(13)
C5 C 0.4532(3) 0.58251(16) 0.26769(13)
C6 C 0.3392(3) 0.53900(16) 0.24585(14)
H3 H 0.3082 0.5105 0.2819
C7 C 0.2692(3) 0.53593(16) 0.17294(14)
H4 H 0.1925 0.5037 0.1595
C8 C 0.3101(3) 0.57946(16) 0.11929(14)
H5 H 0.2616 0.5761 0.0693
C9 C 0.4213(3) 0.62805(15) 0.13797(13)
C10 C 0.5302(3) 0.58558(16) 0.34807(13)
H6 H 0.6165 0.6025 0.3499
C11 C 0.4816(3) 0.6620(2) 0.38835(15)
H7 H 0.4812 0.7225 0.3636
H8 H 0.5348 0.6664 0.4392
H9 H 0.3975 0.6462 0.3882
C12 C 0.5337(3) 0.49003(19) 0.38612(15)
H10 H 0.5664 0.4421 0.3599
H11 H 0.4501 0.4724 0.3858
H12 H 0.5867 0.4944 0.4370
C13 C 0.4565(3) 0.68599(16) 0.07987(13)
H13 H 0.5355 0.7194 0.1042
C14 C 0.3569(3) 0.76026(18) 0.04846(15)
H14 H 0.3462 0.7994 0.0885
H15 H 0.2789 0.7288 0.0235
H16 H 0.3819 0.8000 0.0133
C15 C 0.4763(3) 0.62382(18) 0.01840(15)
H17 H 0.5407 0.5773 0.0396
H18 H 0.5014 0.6632 -0.0169
H19 H 0.3993 0.5912 -0.0067
C16 C 0.9164(3) 0.72040(15) 0.22006(14)
C17 C 1.0215(3) 0.71559(15) 0.28254(14)
C18 C 1.1337(3) 0.72995(17) 0.27050(15)
H20 H 1.2065 0.7265 0.3109
C19 C 1.1437(3) 0.74930(17) 0.20092(15)
H21 H 1.2225 0.7577 0.1940
C20 C 1.0381(3) 0.75626(17) 0.14147(15)
H22 H 1.0458 0.7708 0.0943
C21 C 0.9224(3) 0.74265(16) 0.14920(14)
C22 C 1.0132(3) 0.70276(16) 0.36049(14)
H23 H 0.9276 0.6824 0.3574
C23 C 1.1034(3) 0.62859(17) 0.40403(15)
H24 H 1.0861 0.5678 0.3786
H25 H 1.0938 0.6225 0.4533
H26 H 1.1879 0.6479 0.4080
C24 C 1.0380(3) 0.79833(17) 0.40069(14)
H27 H 0.9788 0.8451 0.3731
H28 H 1.1219 0.8192 0.4045
H29 H 1.0291 0.7915 0.4501
C25 C 0.8073(3) 0.76206(17) 0.08479(14)
H30 H 0.7370 0.7267 0.0938
C26 C 0.8197(3) 0.7306(2) 0.01035(15)
H31 H 0.7433 0.7448 -0.0284
H32 H 0.8355 0.6627 0.0114
H33 H 0.8884 0.7643 0.0004
C27 C 0.7761(3) 0.86765(18) 0.08191(15)
H34 H 0.7677 0.8876 0.1295
H35 H 0.6984 0.8790 0.0434
H36 H 0.8422 0.9037 0.0711
C28 C 0.7517(3) 0.54000(15) 0.20659(14)
C29 C 0.8627(3) 0.50639(16) 0.26948(14)
C30 C 0.6482(3) 0.47128(16) 0.20059(14)
C31 C 0.7818(3) 0.53257(16) 0.13590(14)
C32 C 0.8437(3) 0.49288(18) 0.33848(16)
C33 C 0.9710(3) 0.47810(16) 0.25568(14)
loop_
_geom_bond_atom_site_label_1
_geom_bond_atom_site_label_2
_geom_bond_site_symmetry_1
_geom_bond_site_symmetry_2
N1 C1 1_555 1_555
N2 C1 1_555 1_555
N3 C30 1_555 1_555
N4 C31 1_555 1_555
N5 C32 1_555 1_555
N6 C33 1_555 1_555
C1 C28 1_555 1_555
C2 N2 1_555 1_555
H1 C2 1_555 1_555
C3 N1 1_555 1_555
H2 C3 1_555 1_555
C4 N2 1_555 1_555
C5 C4 1_555 1_555
C6 C5 1_555 1_555
H3 C6 1_555 1_555
C7 C6 1_555 1_555
H4 C7 1_555 1_555
C8 C7 1_555 1_555
H5 C8 1_555 1_555
C9 C4 1_555 1_555
C10 C5 1_555 1_555
H6 C10 1_555 1_555
C11 C10 1_555 1_555
H7 C11 1_555 1_555
H8 C11 1_555 1_555
H9 C11 1_555 1_555
C12 C10 1_555 1_555
H10 C12 1_555 1_555
H11 C12 1_555 1_555
H12 C12 1_555 1_555
C13 C9 1_555 1_555
H13 C13 1_555 1_555
C14 C13 1_555 1_555
H14 C14 1_555 1_555
H15 C14 1_555 1_555
H16 C14 1_555 1_555
C15 C13 1_555 1_555
H17 C15 1_555 1_555
H18 C15 1_555 1_555
H19 C15 1_555 1_555
C16 N1 1_555 1_555
C17 C16 1_555 1_555
C18 C17 1_555 1_555
H20 C18 1_555 1_555
C19 C18 1_555 1_555
H21 C19 1_555 1_555
C20 C19 1_555 1_555
H22 C20 1_555 1_555
C21 C16 1_555 1_555
C22 C17 1_555 1_555
H23 C22 1_555 1_555
C23 C22 1_555 1_555
H24 C23 1_555 1_555
H25 C23 1_555 1_555
H26 C23 1_555 1_555
C24 C22 1_555 1_555
H27 C24 1_555 1_555
H28 C24 1_555 1_555
H29 C24 1_555 1_555
C25 C21 1_555 1_555
H30 C25 1_555 1_555
C26 C25 1_555 1_555
H31 C26 1_555 1_555
H32 C26 1_555 1_555
H33 C26 1_555 1_555
C27 C25 1_555 1_555
H34 C27 1_555 1_555
H35 C27 1_555 1_555
H36 C27 1_555 1_555
C28 C29 1_555 1_555
C29 C32 1_555 1_555
C30 C28 1_555 1_555
C31 C28 1_555 1_555
C33 C29 1_555 1_555
C2 C3 1_555 1_555
C8 C9 1_555 1_555
C20 C21 1_555 1_555

#END
