
#######################################################################
#
#                 Cambridge Crystallographic Data Centre
#                                CCDC 
#
#######################################################################
#
# If this CIF has been generated from an entry in the Cambridge 
# Structural Database, then it will include bibliographic, chemical, 
# crystal, experimental, refinement or atomic coordinate data resulting 
# from the CCDC's data processing and validation procedures.
#
#######################################################################

data_KAPBAH
_chemical_formula_moiety         'C39 H36 N10'
_chemical_name_systematic        
2-{1,3-bis[2,6-bis(propan-2-yl)phenyl]-1H-imidazol-3-ium-2-yl}-3,4-dicyano-5-[(dicyanomethanidyl)(dicyanomethylidene)azaniumyl]pyrrol-1-ide
_symmetry_cell_setting           monoclinic
_symmetry_space_group_name_H-M   'P 21/n'
_symmetry_Int_Tables_number      14
_space_group_name_Hall           '-P 2yn'
loop_
_symmetry_equiv_pos_site_id
_symmetry_equiv_pos_as_xyz
1 x,y,z
2 1/2-x,1/2+y,1/2-z
3 -x,-y,-z
4 1/2+x,1/2-y,1/2+z
_cell_length_a                   11.414(2)
_cell_length_b                   19.971(4)
_cell_length_c                   16.317(3)
_cell_angle_alpha                90
_cell_angle_beta                 103.51(3)
_cell_angle_gamma                90
_cell_volume                     3616.52
_exptl_crystal_colour            red
_exptl_crystal_description       block
_cell_formula_units_Z            4
_exptl_crystal_recrystallization_method tetrahydrofuran/pentane
loop_
_atom_site_label
_atom_site_type_symbol
_atom_site_fract_x
_atom_site_fract_y
_atom_site_fract_z
N1 N 0.1894(3) 0.26020(18) 0.1129(2)
N2 N 0.2177(3) 0.20419(18) 0.0052(2)
N3 N 0.4090(3) 0.33426(19) 0.1143(2)
N4 N 0.5726(3) 0.41297(19) 0.1467(2)
N5 N 0.5735(3) 0.1301(2) 0.0286(3)
N6 N 0.8093(4) 0.2859(2) 0.0862(3)
N7 N 0.4827(4) 0.3578(2) 0.3241(3)
N8 N 0.5915(4) 0.5559(2) 0.2765(3)
N9 N 0.5842(4) 0.4381(3) -0.0614(3)
N10 N 0.8045(4) 0.5305(2) 0.1635(3)
C1 C 0.2023(4) 0.2956(2) 0.1916(3)
C2 C 0.1640(4) 0.3627(3) 0.1868(3)
C3 C 0.2355(4) 0.2585(3) 0.2655(3)
C4 C 0.1554(5) 0.3921(3) 0.2615(4)
H1 H 0.1313 0.4376 0.2616
C5 C 0.2237(5) 0.2918(4) 0.3397(3)
H2 H 0.2449 0.2695 0.3926
C6 C 0.1807(6) 0.3573(4) 0.3348(4)
H3 H 0.1688 0.3783 0.3845
C7 C 0.1345(4) 0.4021(3) 0.1054(4)
H4 H 0.1574 0.3740 0.0608
C8 C 0.2054(5) 0.4668(3) 0.1120(5)
H5 H 0.1837 0.4908 0.0581
H6 H 0.2918 0.4568 0.1256
H7 H 0.1865 0.4949 0.1565
C9 C -0.0001(4) 0.4178(3) 0.0764(5)
H8 H -0.0150 0.4433 0.0237
H9 H -0.0256 0.4443 0.1198
H10 H -0.0459 0.3758 0.0673
C10 C 0.2791(5) 0.1868(3) 0.2667(3)
H11 H 0.3159 0.1812 0.2172
C11 C 0.3769(5) 0.1696(4) 0.3458(4)
H12 H 0.4014 0.1228 0.3430
H13 H 0.3451 0.1762 0.3960
H14 H 0.4468 0.1988 0.3489
C12 C 0.1755(5) 0.1365(3) 0.2560(4)
H15 H 0.2075 0.0909 0.2571
H16 H 0.1182 0.1444 0.2019
H17 H 0.1345 0.1421 0.3020
C13 C 0.0793(4) 0.2338(2) 0.0721(3)
H18 H 0.0051 0.2391 0.0882
C14 C 0.0966(4) 0.1992(2) 0.0055(3)
H19 H 0.0368 0.1755 -0.0342
C15 C 0.2697(4) 0.1675(2) -0.0542(3)
C16 C 0.2988(4) 0.2022(2) -0.1215(3)
C17 C 0.2826(4) 0.0987(2) -0.0426(3)
C18 C 0.3459(4) 0.1638(3) -0.1776(3)
H20 H 0.3680 0.1852 -0.2238
C19 C 0.3284(4) 0.0631(3) -0.1021(3)
H21 H 0.3371 0.0159 -0.0971
C20 C 0.3611(4) 0.0955(3) -0.1675(3)
H22 H 0.3944 0.0706 -0.2063
C21 C 0.2787(4) 0.2769(3) -0.1356(3)
H23 H 0.2515 0.2956 -0.0863
C22 C 0.3936(5) 0.3134(3) -0.1419(4)
H24 H 0.4569 0.3046 -0.0910
H25 H 0.3780 0.3616 -0.1471
H26 H 0.4199 0.2974 -0.1915
C23 C 0.1808(5) 0.2905(3) -0.2143(4)
H27 H 0.1696 0.3389 -0.2219
H28 H 0.1052 0.2700 -0.2084
H29 H 0.2043 0.2714 -0.2634
C24 C 0.2511(4) 0.0619(3) 0.0309(3)
H30 H 0.2084 0.0942 0.0605
C25 C 0.3622(5) 0.0384(3) 0.0935(4)
H31 H 0.4163 0.0764 0.1114
H32 H 0.4034 0.0044 0.0672
H33 H 0.3391 0.0190 0.1426
C26 C 0.1681(5) 0.0032(4) 0.0035(4)
H34 H 0.0956 0.0184 -0.0372
H35 H 0.1451 -0.0161 0.0527
H36 H 0.2094 -0.0307 -0.0227
C27 C 0.2725(4) 0.2421(2) 0.0701(3)
C28 C 0.3949(4) 0.2700(2) 0.0861(3)
C29 C 0.5034(4) 0.2445(2) 0.0707(3)
C30 C 0.5863(4) 0.2969(2) 0.0902(3)
C31 C 0.5244(4) 0.3497(2) 0.1164(3)
C32 C 0.5358(4) 0.1803(3) 0.0459(3)
C33 C 0.7100(5) 0.2929(3) 0.0875(3)
C34 C 0.5531(4) 0.4349(2) 0.2209(3)
C35 C 0.5147(4) 0.3905(3) 0.2759(3)
C36 C 0.5764(4) 0.5027(3) 0.2489(3)
C37 C 0.6367(4) 0.4477(2) 0.0993(3)
C38 C 0.6072(5) 0.4392(3) 0.0112(3)
C39 C 0.7265(5) 0.4942(3) 0.1355(3)
loop_
_geom_bond_atom_site_label_1
_geom_bond_atom_site_label_2
_geom_bond_site_symmetry_1
_geom_bond_site_symmetry_2
N1 C1 1_555 1_555
N2 C14 1_555 1_555
N3 C28 1_555 1_555
N4 C31 1_555 1_555
N5 C32 1_555 1_555
N6 C33 1_555 1_555
N7 C35 1_555 1_555
N8 C36 1_555 1_555
N9 C38 1_555 1_555
N10 C39 1_555 1_555
C1 C2 1_555 1_555
C2 C4 1_555 1_555
C3 C1 1_555 1_555
C4 H1 1_555 1_555
C5 C3 1_555 1_555
H2 C5 1_555 1_555
C6 C4 1_555 1_555
H3 C6 1_555 1_555
C7 C2 1_555 1_555
H4 C7 1_555 1_555
C8 C7 1_555 1_555
H5 C8 1_555 1_555
H6 C8 1_555 1_555
H7 C8 1_555 1_555
C9 C7 1_555 1_555
H8 C9 1_555 1_555
H9 C9 1_555 1_555
H10 C9 1_555 1_555
C10 C3 1_555 1_555
H11 C10 1_555 1_555
C11 C10 1_555 1_555
H12 C11 1_555 1_555
H13 C11 1_555 1_555
H14 C11 1_555 1_555
C12 C10 1_555 1_555
H15 C12 1_555 1_555
H16 C12 1_555 1_555
H17 C12 1_555 1_555
C13 N1 1_555 1_555
H18 C13 1_555 1_555
C14 C13 1_555 1_555
H19 C14 1_555 1_555
C15 N2 1_555 1_555
C16 C15 1_555 1_555
C17 C15 1_555 1_555
C18 C16 1_555 1_555
H20 C18 1_555 1_555
C19 C17 1_555 1_555
H21 C19 1_555 1_555
C20 C18 1_555 1_555
H22 C20 1_555 1_555
C21 C16 1_555 1_555
H23 C21 1_555 1_555
C22 C21 1_555 1_555
H24 C22 1_555 1_555
H25 C22 1_555 1_555
H26 C22 1_555 1_555
C23 C21 1_555 1_555
H27 C23 1_555 1_555
H28 C23 1_555 1_555
H29 C23 1_555 1_555
C24 C17 1_555 1_555
H30 C24 1_555 1_555
C25 C24 1_555 1_555
H31 C25 1_555 1_555
H32 C25 1_555 1_555
H33 C25 1_555 1_555
C26 C24 1_555 1_555
H34 C26 1_555 1_555
H35 C26 1_555 1_555
H36 C26 1_555 1_555
C27 N1 1_555 1_555
C28 C27 1_555 1_555
C29 C28 1_555 1_555
C30 C29 1_555 1_555
C31 N3 1_555 1_555
C32 C29 1_555 1_555
C33 C30 1_555 1_555
C34 N4 1_555 1_555
C35 C34 1_555 1_555
C36 C34 1_555 1_555
C37 N4 1_555 1_555
C38 C37 1_555 1_555
C39 C37 1_555 1_555
N2 C27 1_555 1_555
C5 C6 1_555 1_555
C19 C20 1_555 1_555
C30 C31 1_555 1_555

#END
