
#######################################################################
#
#                 Cambridge Crystallographic Data Centre
#                                CCDC 
#
#######################################################################
#
# If this CIF has been generated from an entry in the Cambridge 
# Structural Database, then it will include bibliographic, chemical, 
# crystal, experimental, refinement or atomic coordinate data resulting 
# from the CCDC's data processing and validation procedures.
#
#######################################################################

data_KAPDUD
_chemical_formula_moiety         'C20 H13 F7 N2 O1'
_chemical_name_systematic        
N-(5-(heptafluoropropyl)-2-methylquinolin-8-yl)benzamide
_symmetry_cell_setting           monoclinic
_symmetry_space_group_name_H-M   'P 21/c'
_symmetry_Int_Tables_number      14
_space_group_name_Hall           '-P 2ybc'
loop_
_symmetry_equiv_pos_site_id
_symmetry_equiv_pos_as_xyz
1 x,y,z
2 -x,1/2+y,1/2-z
3 -x,-y,-z
4 x,1/2-y,1/2+z
_cell_length_a                   7.858(3)
_cell_length_b                   26.656(8)
_cell_length_c                   8.984(3)
_cell_angle_alpha                90
_cell_angle_beta                 90.0010(10)
_cell_angle_gamma                90
_cell_volume                     1881.81
_exptl_crystal_colour            colorless
_exptl_crystal_description       block
_cell_formula_units_Z            4
loop_
_atom_site_label
_atom_site_type_symbol
_atom_site_fract_x
_atom_site_fract_y
_atom_site_fract_z
F1 F 0.3532(5) 0.73191(9) 0.1464(4)
F2 F 0.4745(6) 0.71648(17) -0.0546(6)
F3 F 0.2345(5) 0.68878(11) -0.0141(4)
F4 F 0.6068(3) 0.69107(5) 0.30294(19)
F5 F 0.7363(3) 0.67783(6) 0.0941(2)
F6 F 0.4719(4) 0.61780(7) 0.0064(2)
F7 F 0.3415(3) 0.63256(7) 0.2106(2)
O1 O 1.0026(3) 0.43638(7) 0.1560(2)
N1 N 0.7021(3) 0.51610(7) 0.5605(2)
N2 N 0.8826(3) 0.46546(7) 0.3681(2)
H1 H 0.8632 0.4579 0.4596
C1 C 0.6084(3) 0.53825(9) 0.6619(2)
C2 C 0.5296(4) 0.58492(9) 0.6338(3)
H2 H 0.4610 0.5995 0.7062
C3 C 0.5535(4) 0.60847(9) 0.5022(3)
H3 H 0.5008 0.6392 0.4845
C4 C 0.6578(3) 0.58685(8) 0.3910(2)
C5 C 0.7281(3) 0.53940(8) 0.4272(2)
C6 C 0.8321(3) 0.51327(8) 0.3235(2)
C7 C 0.8726(4) 0.53513(9) 0.1907(3)
H4 H 0.9436 0.5187 0.1237
C8 C 0.8068(4) 0.58224(9) 0.1563(3)
H5 H 0.8364 0.5969 0.0660
C9 C 0.7004(3) 0.60787(8) 0.2499(3)
C10 C 0.6278(4) 0.65670(9) 0.1950(3)
C11 C 0.4588(5) 0.65154(11) 0.1141(3)
C12 C 0.3772(7) 0.69820(16) 0.0478(6)
C13 C 0.5901(4) 0.51288(10) 0.8102(3)
H6 H 0.6034 0.4773 0.7981
H7 H 0.4795 0.5199 0.8505
H8 H 0.6758 0.5252 0.8770
C14 C 0.9582(3) 0.42954(9) 0.2852(3)
C15 C 0.9888(3) 0.38023(9) 0.3602(3)
C16 C 0.9330(4) 0.36817(10) 0.4992(3)
H9 H 0.8720 0.3916 0.5543
C17 C 0.9662(5) 0.32137(11) 0.5594(4)
H10 H 0.9278 0.3136 0.6546
C18 C 1.0543(5) 0.28681(10) 0.4803(4)
H11 H 1.0737 0.2552 0.5205
C19 C 1.1145(6) 0.29820(11) 0.3424(4)
H12 H 1.1781 0.2747 0.2897
C20 C 1.0811(5) 0.34477(11) 0.2804(3)
H13 H 1.1204 0.3523 0.1854
loop_
_geom_bond_atom_site_label_1
_geom_bond_atom_site_label_2
_geom_bond_site_symmetry_1
_geom_bond_site_symmetry_2
F1 C12 1_555 1_555
F2 C12 1_555 1_555
F3 C12 1_555 1_555
F4 C10 1_555 1_555
F5 C10 1_555 1_555
F6 C11 1_555 1_555
F7 C11 1_555 1_555
O1 C14 1_555 1_555
N1 C1 1_555 1_555
N2 H1 1_555 1_555
C1 C2 1_555 1_555
C2 H2 1_555 1_555
C3 C2 1_555 1_555
H3 C3 1_555 1_555
C4 C3 1_555 1_555
C5 N1 1_555 1_555
C6 N2 1_555 1_555
C7 C6 1_555 1_555
H4 C7 1_555 1_555
C8 C7 1_555 1_555
H5 C8 1_555 1_555
C9 C4 1_555 1_555
C10 C9 1_555 1_555
C11 C10 1_555 1_555
C12 C11 1_555 1_555
C13 C1 1_555 1_555
H6 C13 1_555 1_555
H7 C13 1_555 1_555
H8 C13 1_555 1_555
C14 N2 1_555 1_555
C15 C14 1_555 1_555
C16 C15 1_555 1_555
H9 C16 1_555 1_555
C17 C16 1_555 1_555
H10 C17 1_555 1_555
C18 C17 1_555 1_555
H11 C18 1_555 1_555
C19 C18 1_555 1_555
H12 C19 1_555 1_555
C20 C15 1_555 1_555
H13 C20 1_555 1_555
C4 C5 1_555 1_555
C5 C6 1_555 1_555
C8 C9 1_555 1_555
C19 C20 1_555 1_555

#END
