
#######################################################################
#
#                 Cambridge Crystallographic Data Centre
#                                CCDC 
#
#######################################################################
#
# If this CIF has been generated from an entry in the Cambridge 
# Structural Database, then it will include bibliographic, chemical, 
# crystal, experimental, refinement or atomic coordinate data resulting 
# from the CCDC's data processing and validation procedures.
#
#######################################################################

data_KAPKIW
_chemical_formula_moiety         'C13 H16 N2 2+,2(C2 H8 N1 O6 P2 1-)'
_chemical_name_systematic        
"4,4'-Trimethylenedipyridinedi-ium bis(iminio-bis(methylhydrogenphosphonate))"
_symmetry_cell_setting           monoclinic
_symmetry_space_group_name_H-M   'C 2/c'
_symmetry_Int_Tables_number      15
_space_group_name_Hall           '-C 2yn'
loop_
_symmetry_equiv_pos_site_id
_symmetry_equiv_pos_as_xyz
1 x,y,z
2 1/2+x,1/2+y,z
3 -x,y,1/2-z
4 1/2-x,1/2+y,1/2-z
5 -x,-y,-z
6 1/2-x,1/2-y,-z
7 x,-y,1/2+z
8 1/2+x,1/2-y,1/2+z
_cell_length_a                   29.267(5)
_cell_length_b                   5.4416(10)
_cell_length_c                   18.067(3)
_cell_angle_alpha                90.00
_cell_angle_beta                 120.093(3)
_cell_angle_gamma                90.00
_cell_volume                     2489.51
_exptl_crystal_colour            'light yellow'
_exptl_crystal_description       plate
_cell_formula_units_Z            4
loop_
_atom_site_label
_atom_site_type_symbol
_atom_site_fract_x
_atom_site_fract_y
_atom_site_fract_z
P1 P 0.17742(2) 0.30576(12) 0.35021(4)
P2 P 0.34758(2) 0.05364(12) 0.42185(4)
O1 O 0.40025(6) -0.0716(3) 0.45589(10)
O2 O 0.32659(7) 0.1472(3) 0.32745(11)
H1 H 0.3366(13) 0.060(7) 0.300(2)
O3 O 0.34403(6) 0.2619(3) 0.47275(10)
O4 O 0.14311(6) 0.4121(3) 0.26269(10)
O5 O 0.14368(7) 0.1485(3) 0.37812(12)
H2 H 0.1510(12) 0.178(6) 0.425(2)
O6 O 0.21242(6) 0.4807(3) 0.42065(10)
N2 N 0.25239(8) -0.0735(4) 0.41100(13)
H3 H 0.2337(11) -0.208(6) 0.4089(18)
C8 C 0.30027(9) -0.1798(5) 0.41274(16)
H12 H 0.2894 -0.2745 0.3618
H13 H 0.3174(10) -0.288(5) 0.4597(17)
C9 C 0.21879(10) 0.0856(5) 0.33519(15)
H14 H 0.2405(11) 0.179(5) 0.3220(17)
H15 H 0.1975(11) -0.022(6) 0.2900(19)
H16 H 0.2615(10) 0.004(6) 0.4591(19)
N1 N 0.04750(8) 0.1637(4) 0.09492(13)
H4 H 0.0643(12) 0.269(6) 0.0798(19)
C1 C -0.00474(9) -0.1634(5) 0.14343(14)
C2 C 0.04808(10) -0.1998(5) 0.16677(15)
H5 H 0.0678(10) -0.335(5) 0.2003(17)
C3 C 0.07317(10) -0.0324(5) 0.14229(15)
H6 H 0.1125(11) -0.062(5) 0.1553(17)
C4 C -0.00381(10) 0.2014(5) 0.06948(16)
H7 H -0.0199(10) 0.347(5) 0.0377(17)
C5 C -0.03050(9) 0.0414(5) 0.09292(15)
H8 H -0.0653(10) 0.074(5) 0.0755(16)
C6 C -0.03440(10) -0.3360(5) 0.16978(15)
H9 H -0.0554 -0.4442 0.1228
H10 H -0.0619(10) -0.239(5) 0.1750(17)
C7 C 0.0000 -0.4906(7) 0.2500
H11 H 0.0225 -0.5947 0.2392
N1B N -0.04750(8) 0.1637(4) 0.40508(13)
H4B H -0.0643(12) 0.269(6) 0.4202(19)
C1B C 0.00474(9) -0.1634(5) 0.35657(14)
C2B C -0.04808(10) -0.1998(5) 0.33323(15)
H5B H -0.0678(10) -0.335(5) 0.2997(17)
C3B C -0.07317(10) -0.0324(5) 0.35771(15)
H6B H -0.1125(11) -0.062(5) 0.3447(17)
C4B C 0.00381(10) 0.2014(5) 0.43052(16)
H7B H 0.0199(10) 0.347(5) 0.4623(17)
C5B C 0.03050(9) 0.0414(5) 0.40708(15)
H8B H 0.0653(10) 0.074(5) 0.4245(16)
C6B C 0.03440(10) -0.3360(5) 0.33022(15)
H9B H 0.0554 -0.4442 0.3772
H10B H 0.0619(10) -0.239(5) 0.3250(17)
H11B H -0.0225 -0.5947 0.2608
loop_
_geom_bond_atom_site_label_1
_geom_bond_atom_site_label_2
_geom_bond_site_symmetry_1
_geom_bond_site_symmetry_2
P1 O4 1_555 1_555
P2 O1 1_555 1_555
O2 P2 1_555 1_555
H1 O2 1_555 1_555
O3 P2 1_555 1_555
O5 P1 1_555 1_555
H2 O5 1_555 1_555
O6 P1 1_555 1_555
N1 H4 1_555 1_555
N2 H3 1_555 1_555
C1 C2 1_555 1_555
C2 H5 1_555 1_555
C3 N1 1_555 1_555
H6 C3 1_555 1_555
C4 N1 1_555 1_555
H7 C4 1_555 1_555
C5 C1 1_555 1_555
H8 C5 1_555 1_555
C6 C1 1_555 1_555
H9 C6 1_555 1_555
H10 C6 1_555 1_555
C7 C6 1_555 1_555
H11 C7 1_555 1_555
C8 P2 1_555 1_555
H12 C8 1_555 1_555
H13 C8 1_555 1_555
C9 P1 1_555 1_555
H14 C9 1_555 1_555
H15 C9 1_555 1_555
H16 N2 1_555 1_555
N1B H4B 1_555 1_555
C1B C2B 1_555 1_555
C2B H5B 1_555 1_555
C3B N1B 1_555 1_555
H6B C3B 1_555 1_555
C4B N1B 1_555 1_555
H7B C4B 1_555 1_555
C5B C1B 1_555 1_555
H8B C5B 1_555 1_555
C6B C7 1_555 1_555
H9B C6B 1_555 1_555
H10B C6B 1_555 1_555
H11B C7 1_555 1_555
N2 C8 1_555 1_555
N2 C9 1_555 1_555
C2 C3 1_555 1_555
C4 C5 1_555 1_555
C1B C6B 1_555 1_555
C2B C3B 1_555 1_555
C4B C5B 1_555 1_555

#END
