
#######################################################################
#
#                 Cambridge Crystallographic Data Centre
#                                CCDC 
#
#######################################################################
#
# If this CIF has been generated from an entry in the Cambridge 
# Structural Database, then it will include bibliographic, chemical, 
# crystal, experimental, refinement or atomic coordinate data resulting 
# from the CCDC's data processing and validation procedures.
#
#######################################################################

data_KAPLIY01
_chemical_formula_moiety         'C29 H44 O2'
_chemical_name_systematic        4,4'-methylenebis(2,6-di-t-butylphenol)
_symmetry_cell_setting           tetragonal
_symmetry_space_group_name_H-M   'I 41/a'
_symmetry_Int_Tables_number      88
_space_group_name_Hall           '-I 4ad'
loop_
_symmetry_equiv_pos_site_id
_symmetry_equiv_pos_as_xyz
1 x,y,z
2 1/2-x,-y,1/2+z
3 3/4-y,1/4+x,1/4+z
4 3/4+y,3/4-x,3/4+z
5 1/2+x,1/2+y,1/2+z
6 -x,1/2-y,z
7 1/4-y,3/4+x,3/4+z
8 1/4+y,1/4-x,1/4+z
9 -x,-y,-z
10 1/2+x,y,1/2-z
11 1/4+y,3/4-x,3/4-z
12 1/4-y,1/4+x,1/4-z
13 1/2-x,1/2-y,1/2-z
14 x,1/2+y,-z
15 3/4+y,1/4-x,1/4-z
16 3/4-y,3/4+x,3/4-z
_cell_length_a                   21.1552(12)
_cell_length_b                   21.1552(12)
_cell_length_c                   23.7623(17)
_cell_angle_alpha                90
_cell_angle_beta                 90
_cell_angle_gamma                90
_cell_volume                     10634.6
_exptl_crystal_colour            colorless
_exptl_crystal_description       prismatic
_cell_formula_units_Z            16
loop_
_atom_site_label
_atom_site_type_symbol
_atom_site_fract_x
_atom_site_fract_y
_atom_site_fract_z
O1 O 0.80895(6) 0.31788(7) 1.09410(6)
O2 O 0.52797(7) 0.63680(8) 0.94744(7)
C1 C 0.83301(7) 0.45029(8) 1.00029(7)
C2 C 0.84654(7) 0.40297(7) 1.03878(7)
C3 C 0.79637(8) 0.36379(8) 1.05449(7)
C4 C 0.73548(7) 0.36965(8) 1.03227(7)
C5 C 0.72631(8) 0.41764(8) 0.99318(7)
C6 C 0.77393(8) 0.45852(8) 0.97698(7)
C7 C 0.76258(8) 0.51016(9) 0.93396(8)
C8 C 0.69962(8) 0.54375(8) 0.93788(7)
C9 C 0.67259(8) 0.55824(9) 0.98906(7)
C10 C 0.61511(8) 0.58868(9) 0.99431(7)
C11 C 0.58493(8) 0.60571(8) 0.94429(7)
C12 C 0.60971(8) 0.59233(8) 0.89126(7)
C13 C 0.66732(8) 0.56088(8) 0.88984(7)
C14 C 0.91328(8) 0.39419(8) 1.06301(7)
C15 C 0.95945(9) 0.44280(11) 1.03967(9)
C16 C 0.93935(10) 0.32922(10) 1.04737(10)
C17 C 0.91221(9) 0.40279(11) 1.12703(8)
C18 C 0.68073(8) 0.32687(9) 1.05162(7)
C19 C 0.69485(11) 0.25681(10) 1.04122(11)
C20 C 0.66679(11) 0.33904(12) 1.11404(9)
C21 C 0.61995(9) 0.34182(12) 1.01994(10)
C22 C 0.58535(10) 0.60055(10) 1.05251(8)
C23 C 0.62762(14) 0.57580(18) 1.09948(10)
C24 C 0.52262(13) 0.56523(13) 1.05777(10)
C25 C 0.57411(16) 0.67114(13) 1.06276(11)
C26 C 0.57474(9) 0.61018(9) 0.83660(7)
C27 C 0.51019(11) 0.57700(13) 0.83386(10)
C28 C 0.56685(13) 0.68203(11) 0.83248(10)
C29 C 0.61111(12) 0.58931(13) 0.78478(8)
H1 H 0.7846(8) 0.2960(11) 1.1099(10)
H2 H 0.8652 0.4777 0.9897
H3 H 0.5029(12) 0.6458(11) 0.9711(7)
H4 H 0.6864 0.4225 0.9772
H5 H 0.7959 0.5414 0.9377
H6 H 0.7662 0.4918 0.8967
H7 H 0.6941 0.5470 1.0217
H8 H 0.6848 0.5510 0.8550
H9 H 1.0008 0.4351 1.0549
H10 H 0.9458 0.4845 1.0500
H11 H 0.9609 0.4394 0.9994
H12 H 0.9130 0.2970 1.0635
H13 H 0.9816 0.3250 1.0616
H14 H 0.9398 0.3248 1.0072
H15 H 0.8839 0.3725 1.1434
H16 H 0.8981 0.4448 1.1359
H17 H 0.9540 0.3965 1.1418
H18 H 0.7289 0.2436 1.0651
H19 H 0.7066 0.2508 1.0026
H20 H 0.6579 0.2322 1.0494
H21 H 0.7028 0.3271 1.1362
H22 H 0.6308 0.3145 1.1254
H23 H 0.6580 0.3831 1.1196
H24 H 0.5868 0.3145 1.0329
H25 H 0.6265 0.3354 0.9804
H26 H 0.6083 0.3850 1.0266
H27 H 0.6069 0.5817 1.1351
H28 H 0.6669 0.5985 1.0993
H29 H 0.6357 0.5316 1.0937
H30 H 0.4933 0.5813 1.0305
H31 H 0.5057 0.5713 1.0949
H32 H 0.5294 0.5210 1.0513
H33 H 0.5460 0.6873 1.0345
H34 H 0.6137 0.6933 1.0609
H35 H 0.5557 0.6770 1.0993
H36 H 0.4903 0.5863 0.7985
H37 H 0.4839 0.5918 0.8641
H38 H 0.5160 0.5322 0.8373
H39 H 0.5445 0.6924 0.7985
H40 H 0.6077 0.7017 0.8320
H41 H 0.5433 0.6970 0.8644
H42 H 0.6162 0.5442 0.7854
H43 H 0.6519 0.6092 0.7845
H44 H 0.5882 0.6013 0.7516
loop_
_geom_bond_atom_site_label_1
_geom_bond_atom_site_label_2
_geom_bond_site_symmetry_1
_geom_bond_site_symmetry_2
O1 C3 1_555 1_555
O2 C11 1_555 1_555
C1 C2 1_555 1_555
C2 C3 1_555 1_555
C3 C4 1_555 1_555
C4 C5 1_555 1_555
C5 C6 1_555 1_555
C6 C1 1_555 1_555
C7 C6 1_555 1_555
C8 C7 1_555 1_555
C9 C8 1_555 1_555
C10 C9 1_555 1_555
C11 C10 1_555 1_555
C12 C11 1_555 1_555
C13 C8 1_555 1_555
C14 C2 1_555 1_555
C15 C14 1_555 1_555
C16 C14 1_555 1_555
C17 C14 1_555 1_555
C18 C4 1_555 1_555
C19 C18 1_555 1_555
C20 C18 1_555 1_555
C21 C18 1_555 1_555
C22 C10 1_555 1_555
C23 C22 1_555 1_555
C24 C22 1_555 1_555
C25 C22 1_555 1_555
C26 C12 1_555 1_555
C27 C26 1_555 1_555
C28 C26 1_555 1_555
C29 C26 1_555 1_555
H1 O1 1_555 1_555
H2 C1 1_555 1_555
H3 O2 1_555 1_555
H4 C5 1_555 1_555
H5 C7 1_555 1_555
H6 C7 1_555 1_555
H7 C9 1_555 1_555
H8 C13 1_555 1_555
H9 C15 1_555 1_555
H10 C15 1_555 1_555
H11 C15 1_555 1_555
H12 C16 1_555 1_555
H13 C16 1_555 1_555
H14 C16 1_555 1_555
H15 C17 1_555 1_555
H16 C17 1_555 1_555
H17 C17 1_555 1_555
H18 C19 1_555 1_555
H19 C19 1_555 1_555
H20 C19 1_555 1_555
H21 C20 1_555 1_555
H22 C20 1_555 1_555
H23 C20 1_555 1_555
H24 C21 1_555 1_555
H25 C21 1_555 1_555
H26 C21 1_555 1_555
H27 C23 1_555 1_555
H28 C23 1_555 1_555
H29 C23 1_555 1_555
H30 C24 1_555 1_555
H31 C24 1_555 1_555
H32 C24 1_555 1_555
H33 C25 1_555 1_555
H34 C25 1_555 1_555
H35 C25 1_555 1_555
H36 C27 1_555 1_555
H37 C27 1_555 1_555
H38 C27 1_555 1_555
H39 C28 1_555 1_555
H40 C28 1_555 1_555
H41 C28 1_555 1_555
H42 C29 1_555 1_555
H43 C29 1_555 1_555
H44 C29 1_555 1_555
C12 C13 1_555 1_555

#END
