
#######################################################################
#
#                 Cambridge Crystallographic Data Centre
#                                CCDC 
#
#######################################################################
#
# If this CIF has been generated from an entry in the Cambridge 
# Structural Database, then it will include bibliographic, chemical, 
# crystal, experimental, refinement or atomic coordinate data resulting 
# from the CCDC's data processing and validation procedures.
#
#######################################################################

data_KAPNOF
_chemical_formula_moiety         'C14 H13 Cl2 N3'
_chemical_name_systematic        2',6'-Dichloro-4-(dimethylamino)azobenzene
_symmetry_cell_setting           monoclinic
_symmetry_space_group_name_H-M   'P 21/c'
_symmetry_Int_Tables_number      14
_space_group_name_Hall           '-P 2ybc'
loop_
_symmetry_equiv_pos_site_id
_symmetry_equiv_pos_as_xyz
1 x,y,z
2 -x,1/2+y,1/2-z
3 -x,-y,-z
4 x,1/2-y,1/2+z
_cell_length_a                   10.782(1)
_cell_length_b                   8.9610(9)
_cell_length_c                   15.108(2)
_cell_angle_alpha                90
_cell_angle_beta                 103.008(5)
_cell_angle_gamma                90
_cell_volume                     1422.24
_exptl_crystal_colour            red
_exptl_crystal_description       chunk
_chemical_melting_point          '396-397 K'
_cell_formula_units_Z            4
_exptl_crystal_recrystallization_method ethanol/water
loop_
_atom_site_label
_atom_site_type_symbol
_atom_site_fract_x
_atom_site_fract_y
_atom_site_fract_z
Cl1 Cl 0.64540(5) 0.11658(5) 0.24443(3)
Cl2 Cl 0.70273(6) 0.03905(6) 0.60649(3)
N1 N 0.7594(2) -0.0280(2) 0.42848(10)
N2 N 0.7149(1) -0.1396(2) 0.38188(10)
N3 N 1.0394(2) -0.6203(2) 0.36611(13)
C1 C 0.6652(2) 0.0859(2) 0.42568(11)
C2 C 0.6086(2) 0.1633(2) 0.34718(11)
C3 C 0.5268(2) 0.2830(2) 0.34784(13)
C4 C 0.4996(2) 0.3246(2) 0.42953(13)
C5 C 0.5524(2) 0.2490(2) 0.50928(13)
C6 C 0.6354(2) 0.1322(2) 0.50677(12)
C7 C 0.8040(2) -0.2534(2) 0.37830(11)
C8 C 0.9357(2) -0.2415(2) 0.41016(12)
C9 C 1.0145(2) -0.3609(2) 0.40561(13)
C10 C 0.9641(2) -0.4997(2) 0.37001(11)
C11 C 0.8300(2) -0.5102(2) 0.33759(13)
C12 C 0.7534(2) -0.3878(2) 0.34089(13)
C13 C 1.1769(2) -0.6106(3) 0.3955(2)
C14 C 0.9849(2) -0.7647(3) 0.3351(2)
H1 H 0.4876(2) 0.3411(2) 0.28611(13)
H2 H 0.4550(2) 0.4150(2) 0.42786(13)
H3 H 0.5246(2) 0.2670(2) 0.56660(13)
H4 H 0.9722(2) -0.1452(2) 0.43566(12)
H5 H 1.1019(2) -0.3466(2) 0.42558(13)
H6 H 0.7880(2) -0.6086(2) 0.30997(13)
H7 H 0.6549(2) -0.3935(2) 0.31789(13)
H8 H 1.2041(2) -0.5736(3) 0.4613(2)
H9 H 1.2031(2) -0.5396(3) 0.3603(2)
H10 H 1.2131(2) -0.6986(3) 0.3943(2)
H11 H 0.9136(2) -0.7988(3) 0.3758(2)
H12 H 1.0586(2) -0.8278(3) 0.3398(2)
H13 H 0.9216(2) -0.7678(3) 0.2728(2)
loop_
_geom_bond_atom_site_label_1
_geom_bond_atom_site_label_2
_geom_bond_site_symmetry_1
_geom_bond_site_symmetry_2
Cl1 C2 1_555 1_555
Cl2 C6 1_555 1_555
N1 N2 1_555 1_555
N2 C7 1_555 1_555
N3 C10 1_555 1_555
C1 N1 1_555 1_555
C2 C1 1_555 1_555
C3 C2 1_555 1_555
C4 C3 1_555 1_555
C5 C4 1_555 1_555
C6 C1 1_555 1_555
C7 C8 1_555 1_555
C8 C9 1_555 1_555
C9 C10 1_555 1_555
C10 C11 1_555 1_555
C11 C12 1_555 1_555
C12 C7 1_555 1_555
C13 N3 1_555 1_555
C14 N3 1_555 1_555
H1 C3 1_555 1_555
H2 C4 1_555 1_555
H3 C5 1_555 1_555
H4 C8 1_555 1_555
H5 C9 1_555 1_555
H6 C11 1_555 1_555
H7 C12 1_555 1_555
H8 C13 1_555 1_555
H9 C13 1_555 1_555
H10 C13 1_555 1_555
H11 C14 1_555 1_555
H12 C14 1_555 1_555
H13 C14 1_555 1_555
C5 C6 1_555 1_555

#END
