
#######################################################################
#
#                 Cambridge Crystallographic Data Centre
#                                CCDC 
#
#######################################################################
#
# If this CIF has been generated from an entry in the Cambridge 
# Structural Database, then it will include bibliographic, chemical, 
# crystal, experimental, refinement or atomic coordinate data resulting 
# from the CCDC's data processing and validation procedures.
#
#######################################################################

data_KAPTED
_chemical_formula_moiety         'C22 H21 Br1 N2 O3 S1'
_chemical_name_systematic        
5-({4-bromo-1-[(4-methylphenyl)sulfonyl]-1H-indol-3-yl}methyl)-1-methyl-3-methylidenepyrrolidin-2-one
_symmetry_cell_setting           orthorhombic
_symmetry_space_group_name_H-M   'P 21 21 21'
_symmetry_Int_Tables_number      19
_space_group_name_Hall           'P 2ac 2ab'
loop_
_symmetry_equiv_pos_site_id
_symmetry_equiv_pos_as_xyz
1 x,y,z
2 1/2-x,-y,1/2+z
3 1/2+x,1/2-y,-z
4 -x,1/2+y,1/2-z
_cell_length_a                   6.7286(5)
_cell_length_b                   15.8258(9)
_cell_length_c                   19.8430(10)
_cell_angle_alpha                90
_cell_angle_beta                 90
_cell_angle_gamma                90
_cell_volume                     2112.99
_exptl_crystal_colour            colorless
_exptl_crystal_description       block
_cell_formula_units_Z            4
loop_
_atom_site_label
_atom_site_type_symbol
_atom_site_fract_x
_atom_site_fract_y
_atom_site_fract_z
Br1 Br 0.24436(12) 0.61791(4) 0.13701(3)
S1 S 0.5063(2) 0.54883(7) -0.18539(5)
O1 O -0.2461(6) 0.2610(2) 0.12154(16)
O2 O 0.7154(5) 0.56465(19) -0.18655(15)
O3 O 0.4244(5) 0.47510(18) -0.21610(15)
N1 N 0.4443(6) 0.5405(2) -0.10453(17)
N2 N -0.1007(6) 0.3873(3) 0.09596(18)
C1 C 0.5105(7) 0.5917(2) -0.0515(2)
C2 C 0.6776(7) 0.6427(3) -0.0469(2)
H1 H 0.7643 0.6489 -0.0830
C3 C 0.7101(8) 0.6840(3) 0.0132(2)
H2 H 0.8205 0.7188 0.0177
C4 C 0.5808(8) 0.6743(3) 0.0672(2)
H3 H 0.6068 0.7024 0.1074
C5 C 0.4153(8) 0.6240(3) 0.0623(2)
C6 C 0.3756(7) 0.5804(3) 0.0027(2)
C7 C 0.2215(8) 0.5233(3) -0.0198(2)
C8 C 0.2665(9) 0.5024(3) -0.0837(2)
H4 H 0.1895 0.4672 -0.1106
C9 C 0.0420(7) 0.4905(3) 0.0161(2)
H5 H -0.0501 0.4684 -0.0171
H6 H -0.0229 0.5372 0.0387
C10 C 0.0846(8) 0.4208(3) 0.0683(2)
H7 H 0.1659 0.4439 0.1049
C11 C 0.1870(8) 0.3434(3) 0.0387(2)
H8 H 0.1790 0.3438 -0.0101
H9 H 0.3257 0.3415 0.0519
C12 C 0.0750(8) 0.2695(3) 0.0674(2)
C13 C -0.1095(9) 0.3018(3) 0.0980(2)
C14 C 0.1222(9) 0.1896(3) 0.0663(3)
H10 H 0.0375 0.1498 0.0854
H11 H 0.2406 0.1723 0.0463
C15 C -0.2487(10) 0.4414(3) 0.1263(2)
H12 H -0.3227 0.4695 0.0916
H13 H -0.1844 0.4826 0.1543
H14 H -0.3373 0.4079 0.1532
C16 C 0.3804(7) 0.6380(3) -0.21512(19)
C17 C 0.4760(8) 0.7128(3) -0.2220(2)
H15 H 0.6094 0.7168 -0.2102
C18 C 0.3788(8) 0.7824(3) -0.2462(2)
H16 H 0.4471 0.8332 -0.2509
C19 C 0.1811(7) 0.7783(3) -0.2636(2)
C20 C 0.0845(8) 0.7020(3) -0.2559(2)
H17 H -0.0493 0.6981 -0.2672
C21 C 0.1818(7) 0.6314(3) -0.2320(2)
H18 H 0.1150 0.5803 -0.2273
C22 C 0.0719(8) 0.8536(3) -0.2917(2)
H19 H 0.1051 0.8605 -0.3384
H20 H 0.1097 0.9035 -0.2672
H21 H -0.0687 0.8449 -0.2873
loop_
_geom_bond_atom_site_label_1
_geom_bond_atom_site_label_2
_geom_bond_site_symmetry_1
_geom_bond_site_symmetry_2
Br1 C5 1_555 1_555
S1 O2 1_555 1_555
O1 C13 1_555 1_555
O3 S1 1_555 1_555
N1 S1 1_555 1_555
N2 C10 1_555 1_555
C1 N1 1_555 1_555
C2 C1 1_555 1_555
H1 C2 1_555 1_555
C3 C2 1_555 1_555
H2 C3 1_555 1_555
C4 C3 1_555 1_555
H3 C4 1_555 1_555
C5 C4 1_555 1_555
C6 C1 1_555 1_555
C7 C6 1_555 1_555
C8 N1 1_555 1_555
H4 C8 1_555 1_555
C9 C7 1_555 1_555
H5 C9 1_555 1_555
H6 C9 1_555 1_555
C10 C9 1_555 1_555
H7 C10 1_555 1_555
C11 C10 1_555 1_555
H8 C11 1_555 1_555
H9 C11 1_555 1_555
C12 C11 1_555 1_555
C13 N2 1_555 1_555
C14 C12 1_555 1_555
H10 C14 1_555 1_555
H11 C14 1_555 1_555
C15 N2 1_555 1_555
H12 C15 1_555 1_555
H13 C15 1_555 1_555
H14 C15 1_555 1_555
C16 S1 1_555 1_555
C17 C16 1_555 1_555
H15 C17 1_555 1_555
C18 C17 1_555 1_555
H16 C18 1_555 1_555
C19 C18 1_555 1_555
C20 C19 1_555 1_555
H17 C20 1_555 1_555
C21 C16 1_555 1_555
H18 C21 1_555 1_555
C22 C19 1_555 1_555
H19 C22 1_555 1_555
H20 C22 1_555 1_555
H21 C22 1_555 1_555
C5 C6 1_555 1_555
C7 C8 1_555 1_555
C12 C13 1_555 1_555
C20 C21 1_555 1_555

#END
