
#######################################################################
#
#                 Cambridge Crystallographic Data Centre
#                                CCDC 
#
#######################################################################
#
# If this CIF has been generated from an entry in the Cambridge 
# Structural Database, then it will include bibliographic, chemical, 
# crystal, experimental, refinement or atomic coordinate data resulting 
# from the CCDC's data processing and validation procedures.
#
#######################################################################

data_KAQCAJ
_chemical_formula_moiety         'C12 H10 N4'
_chemical_name_systematic        
2,2'-(hydrazine-1,2-diylidenedimethylylidene)dipyridine
_symmetry_cell_setting           monoclinic
_symmetry_space_group_name_H-M   'P 21/n'
_symmetry_Int_Tables_number      14
_space_group_name_Hall           '-P 2yn'
loop_
_symmetry_equiv_pos_site_id
_symmetry_equiv_pos_as_xyz
1 x,y,z
2 1/2-x,1/2+y,1/2-z
3 -x,-y,-z
4 1/2+x,1/2-y,1/2+z
_cell_length_a                   11.286(5)
_cell_length_b                   3.981(5)
_cell_length_c                   23.865(5)
_cell_angle_alpha                90
_cell_angle_beta                 100.043(5)
_cell_angle_gamma                90
_cell_volume                     1055.81
_exptl_crystal_colour            yellow
_exptl_crystal_description       rod
_cell_formula_units_Z            4
loop_
_atom_site_label
_atom_site_type_symbol
_atom_site_fract_x
_atom_site_fract_y
_atom_site_fract_z
N1 N 0.5039(3) 0.0191(9) 0.47105(13)
C1 C 0.7657(3) 0.5010(10) 0.35558(17)
H1 H 0.8368 0.6173 0.3546
C2 C 0.7320(4) 0.4199(10) 0.40422(18)
H2 H 0.7815 0.4847 0.4378
N2 N 0.5536(4) 0.1459(10) 0.35830(16)
C3 C 0.6282(3) 0.2455(9) 0.40844(16)
C4 C 0.5880(4) 0.2311(12) 0.30767(18)
H3 H 0.5412 0.1707 0.2731
C5 C 0.5996(3) 0.1718(10) 0.46454(16)
H4 H 0.6533 0.2390 0.4967
C6 C 0.6946(5) 0.4101(11) 0.3092(2)
H5 H 0.7164 0.4686 0.2747
N1B N 0.4961(3) -0.0191(9) 0.52895(13)
C1B C 0.2343(3) -0.5010(10) 0.64442(17)
H1B H 0.1632 -0.6173 0.6454
C2B C 0.2680(4) -0.4199(10) 0.59578(18)
H2B H 0.2185 -0.4847 0.5622
N2B N 0.4464(4) -0.1459(10) 0.64170(16)
C3B C 0.3718(3) -0.2455(9) 0.59156(16)
C4B C 0.4120(4) -0.2311(12) 0.69233(18)
H3B H 0.4588 -0.1707 0.7269
C5B C 0.4004(3) -0.1718(10) 0.53546(16)
H4B H 0.3467 -0.2390 0.5033
C6B C 0.3054(5) -0.4101(11) 0.6908(2)
H5B H 0.2836 -0.4686 0.7253
C7 C 0.0916(3) 0.1719(9) 0.39380(14)
N3 N 0.0437(3) 0.0719(9) 0.48553(14)
N4 N 0.2019(4) 0.3245(10) 0.41401(17)
C8 C 0.0152(3) 0.0400(10) 0.43189(16)
H6 H -0.0559 -0.0698 0.4167
C9 C 0.1196(4) 0.2626(12) 0.29752(16)
H7 H 0.0926 0.2403 0.2586
C10 C 0.2686(4) 0.4443(11) 0.37516(19)
H8 H 0.3424 0.5478 0.3873
C11 C 0.0560(4) 0.1504(12) 0.33537(17)
H9 H -0.0178 0.0501 0.3217
C12 C 0.2240(5) 0.4085(12) 0.31803(19)
H10 H 0.2697 0.4914 0.2922
C7B C -0.0916(3) -0.1719(9) 0.60620(14)
N3B N -0.0437(3) -0.0719(9) 0.51447(14)
N4B N -0.2019(4) -0.3245(10) 0.58599(17)
C8B C -0.0152(3) -0.0400(10) 0.56811(16)
H6B H 0.0559 0.0698 0.5833
C9B C -0.1196(4) -0.2626(12) 0.70248(16)
H7B H -0.0926 -0.2403 0.7414
C10B C -0.2686(4) -0.4443(11) 0.62484(19)
H8B H -0.3424 -0.5478 0.6127
C11B C -0.0560(4) -0.1504(12) 0.66463(17)
H9B H 0.0178 -0.0501 0.6783
C12B C -0.2240(5) -0.4085(12) 0.68197(19)
H10B H -0.2697 -0.4914 0.7078
loop_
_geom_bond_atom_site_label_1
_geom_bond_atom_site_label_2
_geom_bond_site_symmetry_1
_geom_bond_site_symmetry_2
N1 C5 1_555 1_555
C1 H1 1_555 1_555
C2 C1 1_555 1_555
H2 C2 1_555 1_555
N2 C3 1_555 1_555
C3 C2 1_555 1_555
C4 N2 1_555 1_555
H3 C4 1_555 1_555
C5 C3 1_555 1_555
H4 C5 1_555 1_555
C6 C1 1_555 1_555
H5 C6 1_555 1_555
C7 N4 1_555 1_555
N3 C8 1_555 1_555
N4 C10 1_555 1_555
C8 C7 1_555 1_555
H6 C8 1_555 1_555
C9 H7 1_555 1_555
C10 H8 1_555 1_555
C11 C7 1_555 1_555
H9 C11 1_555 1_555
C12 C9 1_555 1_555
H10 C12 1_555 1_555
N1B N1 1_555 1_555
C1B H1B 1_555 1_555
C2B C1B 1_555 1_555
H2B C2B 1_555 1_555
N2B C3B 1_555 1_555
C3B C2B 1_555 1_555
C4B N2B 1_555 1_555
H3B C4B 1_555 1_555
C5B N1B 1_555 1_555
H4B C5B 1_555 1_555
C6B C1B 1_555 1_555
H5B C6B 1_555 1_555
C7B N4B 1_555 1_555
N3B N3 1_555 1_555
N4B C10B 1_555 1_555
C8B C7B 1_555 1_555
H6B C8B 1_555 1_555
C9B H7B 1_555 1_555
C10B H8B 1_555 1_555
C11B C7B 1_555 1_555
H9B C11B 1_555 1_555
C12B C9B 1_555 1_555
H10B C12B 1_555 1_555
C4 C6 1_555 1_555
C9 C11 1_555 1_555
C10 C12 1_555 1_555
C3B C5B 1_555 1_555
C4B C6B 1_555 1_555
N3B C8B 1_555 1_555
C9B C11B 1_555 1_555
C10B C12B 1_555 1_555

#END
