
#######################################################################
#
#                 Cambridge Crystallographic Data Centre
#                                CCDC 
#
#######################################################################
#
# If this CIF has been generated from an entry in the Cambridge 
# Structural Database, then it will include bibliographic, chemical, 
# crystal, experimental, refinement or atomic coordinate data resulting 
# from the CCDC's data processing and validation procedures.
#
#######################################################################

data_KAQCUC
_chemical_formula_moiety         
'1.34(C14 H13 N1),C6 H6 O2,0.66(C13 H10 Cl1 N1)'
_chemical_name_systematic        
'4-(2-(4-methylphenyl)vinyl)pyridine 4-[2-(4-chlorophenyl)ethenyl]pyridine resorcinol solvate'
_symmetry_cell_setting           triclinic
_symmetry_space_group_name_H-M   'P -1'
_symmetry_Int_Tables_number      2
_space_group_name_Hall           '-P 1'
loop_
_symmetry_equiv_pos_site_id
_symmetry_equiv_pos_as_xyz
1 x,y,z
2 -x,-y,-z
_cell_length_a                   9.9438(11)
_cell_length_b                   10.1775(11)
_cell_length_c                   14.0261(15)
_cell_angle_alpha                105.642(5)
_cell_angle_beta                 98.420(5)
_cell_angle_gamma                92.492(5)
_cell_volume                     1347.04
_exptl_crystal_colour            colorless
_exptl_crystal_description       plate
_cell_formula_units_Z            2
loop_
_atom_site_label
_atom_site_type_symbol
_atom_site_fract_x
_atom_site_fract_y
_atom_site_fract_z
C14 C 0.1846(2) 0.40588(19) 0.04535(13)
C15 C 0.23437(19) 0.43586(18) 0.14617(13)
C16 C 0.15232(18) 0.40666(16) 0.21121(12)
C17 C 0.02042(18) 0.34741(17) 0.16801(13)
C18 C -0.02104(19) 0.32150(17) 0.06590(13)
C19 C 0.20688(18) 0.44031(17) 0.31824(12)
C20 C 0.14693(17) 0.40830(17) 0.38830(13)
C21 C 0.20007(16) 0.44323(12) 0.49610(12)
C22 C 0.32638(17) 0.51545(13) 0.53958(12)
C23 C 0.37173(17) 0.54638(13) 0.64207(12)
C24 C 0.29206(16) 0.50606(11) 0.70480(12)
C25 C 0.16636(17) 0.43422(13) 0.66200(13)
C26 C 0.12168(17) 0.40356(14) 0.55974(13)
C27 C 0.3421(3) 0.54001(19) 0.8168(3)
H11 H 0.2434 0.4266 0.0028
H12 H 0.3249 0.4766 0.1714
H13 H -0.0404 0.3251 0.2087
H14 H -0.1113 0.2816 0.0382
H15 H 0.2941 0.4901 0.3397
H17 H 0.0604 0.3573 0.3664
H18 H 0.3824 0.544 0.4982
H19 H 0.4582 0.5957 0.6699
H20 H 0.1103 0.4057 0.7034
H21 H 0.0352 0.3541 0.5322
H22 H 0.2747 0.5014 0.8485
H23 H 0.3547 0.6397 0.8455
H24 H 0.4292 0.5009 0.8288
N2 N 0.05894(16) 0.34950(15) 0.00360(10)
C29 C 0.82428(15) 0.04223(17) 0.20617(11)
C30 C 0.87008(15) -0.08545(16) 0.16877(11)
C31 C 0.94480(16) -0.14861(17) 0.23313(11)
C32 C 0.97147(18) -0.08402(19) 0.33574(12)
C33 C 0.92404(19) 0.04247(19) 0.37161(12)
C34 C 0.85065(17) 0.10769(18) 0.30856(12)
H16 H 0.7418 0.0563 0.0849
H28 H 0.8503 -0.13 0.0988
H29 H 0.98 -0.2963 0.1365
H30 H 1.0217 -0.1264 0.3805
H31 H 0.9422 0.0863 0.4417
H32 H 0.8192 0.1949 0.3347
O1 O 0.75326(12) 0.10669(12) 0.14426(8)
O2 O 0.99523(12) -0.27140(12) 0.19950(8)
C1 C 0.41709(17) 0.09144(16) 0.10610(12)
C2 C 0.44703(16) 0.12250(16) 0.20905(11)
C3 C 0.34322(15) 0.11086(15) 0.26411(11)
C4 C 0.21258(16) 0.06931(16) 0.20902(12)
C5 C 0.19268(17) 0.03725(17) 0.10617(12)
C6 C 0.36425(16) 0.13675(16) 0.37312(11)
C7 C 0.48324(16) 0.15649(15) 0.43412(11)
C8 C 0.50467(16) 0.17539(10) 0.54296(11)
C9 C 0.63587(16) 0.20648(11) 0.59784(12)
C10 C 0.66053(17) 0.22990(10) 0.70116(12)
C11 C 0.55248(18) 0.22230(8) 0.75190(11)
C12 C 0.42075(17) 0.19149(11) 0.69906(12)
C13 C 0.39711(16) 0.16842(12) 0.59590(12)
C28 C 0.5777(3) 0.24761(16) 0.8636(5)
H1 H 0.4891 0.1027 0.0705
H2 H 0.5379 0.1517 0.2425
H3 H 0.1373 0.0632 0.2427
H4 H 0.1029 0.0069 0.0707
H5 H 0.2846 0.1398 0.4034
H6 H 0.5628 0.1586 0.4042
H7 H 0.7107 0.2118 0.5636
H8 H 0.7511 0.2511 0.7369
H9 H 0.3464 0.1862 0.7337
H10 H 0.3063 0.1475 0.5605
H25 H 0.5701 0.3446 0.896
H26 H 0.6694 0.2236 0.885
H27 H 0.5099 0.1912 0.8829
N1 N 0.29228(14) 0.04615(14) 0.05288(10)
Cl1? Cl 0.58205(12) 0.25217(8) 0.88254(11)
Cl2? Cl 0.3543(4) 0.5477(3) 0.8343(3)
loop_
_geom_bond_atom_site_label_1
_geom_bond_atom_site_label_2
_geom_bond_site_symmetry_1
_geom_bond_site_symmetry_2
C1 C2 1_555 1_555
C2 C3 1_555 1_555
C3 C4 1_555 1_555
C4 C5 1_555 1_555
C5 H4 1_555 1_555
C6 C3 1_555 1_555
C7 C6 1_555 1_555
C8 C7 1_555 1_555
C9 C8 1_555 1_555
C10 C9 1_555 1_555
C11 C10 1_555 1_555
C12 C11 1_555 1_555
C13 C8 1_555 1_555
C14 C15 1_555 1_555
C15 C16 1_555 1_555
C16 C17 1_555 1_555
C17 C18 1_555 1_555
C18 H14 1_555 1_555
C19 C16 1_555 1_555
C20 C19 1_555 1_555
C21 C20 1_555 1_555
C22 C21 1_555 1_555
C23 C22 1_555 1_555
C24 C23 1_555 1_555
C25 C24 1_555 1_555
C26 C21 1_555 1_555
C27 C24 1_555 1_555
C28 C11 1_555 1_555
C29 C30 1_555 1_555
C30 C31 1_555 1_555
C31 C32 1_555 1_555
C32 C33 1_555 1_555
C33 C34 1_555 1_555
C34 C29 1_555 1_555
H1 C1 1_555 1_555
H2 C2 1_555 1_555
H3 C4 1_555 1_555
H5 C6 1_555 1_555
H6 C7 1_555 1_555
H7 C9 1_555 1_555
H8 C10 1_555 1_555
H9 C12 1_555 1_555
H10 C13 1_555 1_555
H11 C14 1_555 1_555
H12 C15 1_555 1_555
H13 C17 1_555 1_555
H15 C19 1_555 1_555
H16 O1 1_555 1_555
H17 C20 1_555 1_555
H18 C22 1_555 1_555
H19 C23 1_555 1_555
H20 C25 1_555 1_555
H21 C26 1_555 1_555
H22 C27 1_555 1_555
H23 C27 1_555 1_555
H24 C27 1_555 1_555
H25 C28 1_555 1_555
H26 C28 1_555 1_555
H27 C28 1_555 1_555
H28 C30 1_555 1_555
H29 O2 1_555 1_555
H30 C32 1_555 1_555
H31 C33 1_555 1_555
H32 C34 1_555 1_555
N1 C1 1_555 1_555
N2 C14 1_555 1_555
O1 C29 1_555 1_555
O2 C31 1_555 1_555
C5 N1 1_555 1_555
C12 C13 1_555 1_555
C18 N2 1_555 1_555
C25 C26 1_555 1_555

#END
