
#######################################################################
#
#                 Cambridge Crystallographic Data Centre
#                                CCDC 
#
#######################################################################
#
# If this CIF has been generated from an entry in the Cambridge 
# Structural Database, then it will include bibliographic, chemical, 
# crystal, experimental, refinement or atomic coordinate data resulting 
# from the CCDC's data processing and validation procedures.
#
#######################################################################

data_KAQDEN
_chemical_formula_moiety         'C13 H10 Cl1 N1'
_chemical_name_systematic        4-(2-(4-Chlorophenyl)vinyl)pyridine
_symmetry_cell_setting           triclinic
_symmetry_space_group_name_H-M   'P -1'
_symmetry_Int_Tables_number      2
_space_group_name_Hall           '-P 1'
loop_
_symmetry_equiv_pos_site_id
_symmetry_equiv_pos_as_xyz
1 x,y,z
2 -x,-y,-z
_cell_length_a                   9.4815(10)
_cell_length_b                   9.6019(12)
_cell_length_c                   14.2885(18)
_cell_angle_alpha                71.745(5)
_cell_angle_beta                 76.746(6)
_cell_angle_gamma                62.801(5)
_cell_volume                     1093.04
_exptl_crystal_colour            colorless
_exptl_crystal_description       plate
_cell_formula_units_Z            4
loop_
_atom_site_label
_atom_site_type_symbol
_atom_site_fract_x
_atom_site_fract_y
_atom_site_fract_z
C1 C 0.3936(7) 0.6439(9) -0.4154(5)
C2 C 0.3816(6) 0.6643(8) -0.3235(4)
C3 C 0.2342(6) 0.7536(7) -0.2797(4)
C4 C 0.1057(6) 0.8191(8) -0.3351(4)
C5 C 0.1313(7) 0.7900(8) -0.4264(5)
C6 C 0.2117(7) 0.7704(7) -0.1758(4)
C7 C 0.3156(7) 0.7265(7) -0.1194(5)
C8 C 0.2970(8) 0.7368(7) -0.0156(5)
C9 C 0.4297(7) 0.6958(7) 0.0299(4)
C10 C 0.4164(7) 0.7064(7) 0.1233(5)
C11 C 0.2719(8) 0.7610(7) 0.1773(5)
C12 C 0.1351(8) 0.8016(8) 0.1331(5)
C13 C 0.1496(7) 0.7918(8) 0.0365(5)
H1 H 0.4943 0.5843 -0.4431
H2 H 0.4719 0.6184 -0.2901
H3 H 0.0039 0.8817 -0.3103
H4 H 0.0435 0.8346 -0.4619
H5 H 0.1066 0.8199 -0.1498
H6 H 0.4204 0.6804 -0.1469
H7 H 0.5302 0.6602 -0.005
H8 H 0.5082 0.6757 0.1519
H9 H 0.0351 0.835 0.169
H10 H 0.0589 0.8227 0.0067
N1 N 0.2713(7) 0.7033(8) -0.4686(4)
Cl1 Cl 0.2576(2) 0.7694(2) 0.29823(13)
C14 C 0.1313(15) 0.4109(12) 0.8909(6)
C15 C 0.158(4) 0.3873(10) 0.7981(8)
C16 C 0.249(2) 0.2321(9) 0.7840(5)
C17 C 0.3082(14) 0.1118(10) 0.8674(5)
C18 C 0.276(4) 0.1494(16) 0.9563(8)
C19 C 0.2706(12) 0.1960(8) 0.6856(5)
C20 C 0.2238(11) 0.3043(10) 0.6041(4)
C21 C 0.2457(17) 0.2723(12) 0.5043(5)
C22 C 0.2012(18) 0.4077(11) 0.4257(6)
C23 C 0.2022(15) 0.3913(10) 0.3322(5)
C24 C 0.2477(10) 0.2395(11) 0.3174(5)
C25 C 0.2922(15) 0.1041(10) 0.3961(6)
C26 C 0.2912(17) 0.1205(11) 0.4895(5)
H11 H 0.0699 0.5156 0.8984
H12 H 0.1154 0.4735 0.745
H13 H 0.3697 0.0057 0.8625
H14 H 0.3196 0.0665 1.0106
H15 H 0.3211 0.0884 0.6826
H16 H 0.172 0.4114 0.608
H17 H 0.1708 0.5093 0.4355
H18 H 0.1725 0.4819 0.2796
H19 H 0.3226 0.0025 0.3862
H20 H 0.3209 0.0299 0.5421
N2 N 0.186(4) 0.2967(16) 0.9713(8)
Cl2 Cl 0.261(2) 0.2177(17) 0.1990(5)
C27? C 0.143(3) 0.395(2) 0.9161(12)
C28? C 0.144(7) 0.418(2) 0.8169(13)
C29? C 0.224(4) 0.2849(17) 0.7754(10)
C30? C 0.303(3) 0.1380(17) 0.8391(11)
C31? C 0.294(8) 0.129(3) 0.9370(14)
C32? C 0.231(2) 0.3020(17) 0.6667(9)
C33? C 0.265(2) 0.1884(17) 0.6231(10)
C34? C 0.246(3) 0.212(2) 0.5172(8)
C35? C 0.196(3) 0.363(2) 0.4508(9)
C36? C 0.212(3) 0.3739(19) 0.3498(9)
C37? C 0.2795(18) 0.235(2) 0.3152(9)
C38? C 0.330(3) 0.0841(19) 0.3816(12)
C39? C 0.313(3) 0.073(2) 0.4826(11)
Cl3? Cl 0.274(4) 0.249(3) 0.1917(10)
H21? H 0.0849 0.4849 0.9427
H22? H 0.0914 0.5202 0.7777
H23? H 0.362 0.0459 0.8149
H24? H 0.3424 0.0281 0.9786
H25? H 0.2073 0.4051 0.6261
H26? H 0.3061 0.0827 0.661
H27? H 0.1507 0.4562 0.474
H28? H 0.179 0.4746 0.3054
H29? H 0.3745 -0.0091 0.3585
H30? H 0.3462 -0.0275 0.527
N3? N 0.220(7) 0.256(3) 0.9775(14)
loop_
_geom_bond_atom_site_label_1
_geom_bond_atom_site_label_2
_geom_bond_site_symmetry_1
_geom_bond_site_symmetry_2
C1 C2 1_555 1_555
C2 C3 1_555 1_555
C3 C4 1_555 1_555
C4 C5 1_555 1_555
C5 H4 1_555 1_555
C6 C3 1_555 1_555
C7 C6 1_555 1_555
C8 C7 1_555 1_555
C9 C8 1_555 1_555
C10 C9 1_555 1_555
C11 C10 1_555 1_555
C12 C11 1_555 1_555
C13 C8 1_555 1_555
C14 C15 1_555 1_555
C15 C16 1_555 1_555
C16 C17 1_555 1_555
C17 C18 1_555 1_555
C18 H14 1_555 1_555
C19 C16 1_555 1_555
C20 C19 1_555 1_555
C21 C20 1_555 1_555
C22 C21 1_555 1_555
C23 C22 1_555 1_555
C24 C23 1_555 1_555
C25 C24 1_555 1_555
C26 C21 1_555 1_555
H1 C1 1_555 1_555
H2 C2 1_555 1_555
H3 C4 1_555 1_555
H5 C6 1_555 1_555
H6 C7 1_555 1_555
H7 C9 1_555 1_555
H8 C10 1_555 1_555
H9 C12 1_555 1_555
H10 C13 1_555 1_555
H11 C14 1_555 1_555
H12 C15 1_555 1_555
H13 C17 1_555 1_555
H15 C19 1_555 1_555
H16 C20 1_555 1_555
H17 C22 1_555 1_555
H18 C23 1_555 1_555
H19 C25 1_555 1_555
H20 C26 1_555 1_555
N1 C1 1_555 1_555
N2 C14 1_555 1_555
Cl1 C11 1_555 1_555
Cl2 C24 1_555 1_555
C5 N1 1_555 1_555
C12 C13 1_555 1_555
C18 N2 1_555 1_555
C25 C26 1_555 1_555

#END
