
#######################################################################
#
#                 Cambridge Crystallographic Data Centre
#                                CCDC 
#
#######################################################################
#
# If this CIF has been generated from an entry in the Cambridge 
# Structural Database, then it will include bibliographic, chemical, 
# crystal, experimental, refinement or atomic coordinate data resulting 
# from the CCDC's data processing and validation procedures.
#
#######################################################################

data_KAQDAJ
_chemical_formula_moiety         'C27 H25 Cl1 N2 2+,0.63(H2 O1),2(Br1 1-)'
_chemical_name_systematic        
"4,4'-[3-(4-chlorophenyl)-4-(4-methylphenyl)cyclobutane-1,2-diyl]dipyridinium dibromo hydrate"
_symmetry_cell_setting           monoclinic
_symmetry_space_group_name_H-M   'P 21/c'
_symmetry_Int_Tables_number      14
_space_group_name_Hall           '-P 2ybc'
loop_
_symmetry_equiv_pos_site_id
_symmetry_equiv_pos_as_xyz
1 x,y,z
2 -x,1/2+y,1/2-z
3 -x,-y,-z
4 x,1/2-y,1/2+z
_cell_length_a                   18.3233(19)
_cell_length_b                   9.8023(11)
_cell_length_c                   14.3984(15)
_cell_angle_alpha                90
_cell_angle_beta                 93.253(5)
_cell_angle_gamma                90
_cell_volume                     2581.94
_exptl_crystal_colour            colorless
_exptl_crystal_description       plate
_cell_formula_units_Z            4
loop_
_atom_site_label
_atom_site_type_symbol
_atom_site_fract_x
_atom_site_fract_y
_atom_site_fract_z
C1 C 0.0173(2) 0.0481(5) 0.6225(3)
C2 C 0.0906(2) 0.0837(5) 0.6288(3)
C3 C 0.1108(2) 0.2156(4) 0.6588(3)
C4 C 0.0552(2) 0.3042(4) 0.6799(3)
C5 C -0.0155(2) 0.2637(5) 0.6717(3)
C6 C 0.1891(2) 0.2613(4) 0.6726(3)
C7 C 0.2398(2) 0.1777(4) 0.7436(3)
C8 C 0.2761(2) 0.1073(4) 0.6623(3)
C9 C 0.2402(2) 0.2183(4) 0.5952(3)
C10 C 0.29289(18) 0.3256(4) 0.5631(2)
C11 C 0.33253(19) 0.2932(5) 0.4877(3)
C12 C 0.37888(19) 0.3879(5) 0.4507(3)
C13 C 0.38638(18) 0.5147(5) 0.4891(3)
C14 C 0.3477(2) 0.5498(5) 0.5645(3)
C15 C 0.3004(2) 0.4537(5) 0.6024(3)
C16 C 0.4363(5) 0.6188(15) 0.4493(10)
C18 C 0.2080(2) 0.0917(4) 0.8180(3)
C19 C 0.1534(2) 0.1407(5) 0.8698(3)
C20 C 0.1264(3) 0.0623(6) 0.9378(3)
C21 C 0.2068(3) -0.1132(5) 0.9079(4)
C22 C 0.2345(3) -0.0372(5) 0.8372(3)
C23 C 0.3581(2) 0.0840(4) 0.6653(2)
C24 C 0.3865(3) -0.0262(4) 0.6201(2)
C25 C 0.4611(3) -0.0455(5) 0.6171(3)
C26 C 0.5099(2) 0.0455(4) 0.6596(2)
C27 C 0.4827(2) 0.1564(4) 0.7053(2)
C28 C 0.4065(2) 0.1740(4) 0.7074(2)
H1 H 0.0029 -0.041 0.6032
H2 H 0.1268 0.0197 0.6131
H3 H 0.0668 0.3942 0.7003
H4 H -0.0531 0.3255 0.6863
H5 H 0.190(3) 0.3583(14) 0.689(3)
H6 H 0.2761 0.2419 0.7743
H7 H 0.251 0.0181 0.6494
H8 H 0.212 0.1754 0.5413
H9 H 0.328 0.2049 0.4608
H10 H 0.4056 0.3644 0.3984
H11 H 0.3528 0.6383 0.591
H12 H 0.277(3) 0.485(5) 0.654(2)
H13 H 0.4451 0.5948 0.3848
H14 H 0.4829 0.6204 0.4862
H15 H 0.4135 0.7091 0.4509
H19 H 0.1343 0.2296 0.8583
H20 H 0.0878 0.0962 0.9727
H21 H -0.0840(5) 0.127(6) 0.641(4)
H22 H 0.2256 -0.2016 0.9223
H23 H 0.272 -0.074 0.8017
H24 H 0.3542 -0.0904 0.5904
H25 H 0.4791 -0.1224 0.5854
H26 H 0.5151 0.2203 0.7352
H27 H 0.3882 0.2508 0.739
H28 H 0.1304 -0.105(5) 1.005(2)
N1 N -0.03256(19) 0.1391(4) 0.6436(2)
N2 N 0.1530(2) -0.0601(5) 0.9558(3)
Cl1 Cl 0.60452(13) 0.0217(3) 0.65578(17)
H29 H 0.177(3) 0.770(8) 0.703(6)
H30 H 0.233(3) 0.667(7) 0.726(6)
O1 O 0.2210(5) 0.7369(7) 0.6874(5)
Br1 Br 0.19285(2) 0.51508(5) 0.87740(3)
Br2 Br 0.94693(3) 0.19206(6) 0.89810(3)
C17? C 0.5912(6) 0.0241(18) 0.6561(8)
H16? H 0.614 0.1079 0.6345
H17? H 0.6006 -0.0507 0.6132
H18? H 0.6119 0.0011 0.7184
Cl2? Cl 0.44311(19) 0.6370(5) 0.4448(4)
loop_
_geom_bond_atom_site_label_1
_geom_bond_atom_site_label_2
_geom_bond_site_symmetry_1
_geom_bond_site_symmetry_2
C1 C2 1_555 1_555
C2 C3 1_555 1_555
C3 C4 1_555 1_555
C4 C5 1_555 1_555
C5 H4 1_555 1_555
C6 C3 1_555 1_555
C7 C6 1_555 1_555
C8 C7 1_555 1_555
C9 C6 1_555 1_555
C10 C9 1_555 1_555
C11 C10 1_555 1_555
C12 C11 1_555 1_555
C13 C12 1_555 1_555
C14 C13 1_555 1_555
C15 C10 1_555 1_555
C16 C13 1_555 1_555
C18 C7 1_555 1_555
C19 C18 1_555 1_555
C20 C19 1_555 1_555
C21 C22 1_555 1_555
C22 C18 1_555 1_555
C23 C8 1_555 1_555
C24 C23 1_555 1_555
C25 C24 1_555 1_555
C26 C25 1_555 1_555
C27 C26 1_555 1_555
C28 C23 1_555 1_555
H1 C1 1_555 1_555
H2 C2 1_555 1_555
H3 C4 1_555 1_555
H5 C6 1_555 1_555
H6 C7 1_555 1_555
H7 C8 1_555 1_555
H8 C9 1_555 1_555
H9 C11 1_555 1_555
H10 C12 1_555 1_555
H11 C14 1_555 1_555
H12 C15 1_555 1_555
H13 C16 1_555 1_555
H14 C16 1_555 1_555
H15 C16 1_555 1_555
H19 C19 1_555 1_555
H20 C20 1_555 1_555
H21 N1 1_555 1_555
H22 C21 1_555 1_555
H23 C22 1_555 1_555
H24 C24 1_555 1_555
H25 C25 1_555 1_555
H26 C27 1_555 1_555
H27 C28 1_555 1_555
H28 N2 1_555 1_555
H29 O1 1_555 1_555
H30 O1 1_555 1_555
N1 C1 1_555 1_555
N2 C20 1_555 1_555
Cl1 C26 1_555 1_555
C5 N1 1_555 1_555
C8 C9 1_555 1_555
C14 C15 1_555 1_555
C21 N2 1_555 1_555
C27 C28 1_555 1_555

#END
