
#######################################################################
#
#                 Cambridge Crystallographic Data Centre
#                                CCDC 
#
#######################################################################
#
# If this CIF has been generated from an entry in the Cambridge 
# Structural Database, then it will include bibliographic, chemical, 
# crystal, experimental, refinement or atomic coordinate data resulting 
# from the CCDC's data processing and validation procedures.
#
#######################################################################

data_KAQFEP
_chemical_formula_moiety         'C23 H25 N1 O5'
_chemical_name_systematic        
'Dimethyl 4,8b-dimethyl-1-(4-methylphenyl)-1,3a,4,8b-tetrahydro-3H-furo[3,4-b]indole-3,3-dicarboxylate'
_symmetry_cell_setting           orthorhombic
_symmetry_space_group_name_H-M   'P 21 21 21'
_symmetry_Int_Tables_number      19
_space_group_name_Hall           'P 2ac 2ab'
loop_
_symmetry_equiv_pos_site_id
_symmetry_equiv_pos_as_xyz
1 x,y,z
2 1/2-x,-y,1/2+z
3 -x,1/2+y,1/2-z
4 1/2+x,1/2-y,-z
_cell_length_a                   7.9672(3)
_cell_length_b                   12.0266(5)
_cell_length_c                   21.1513(9)
_cell_angle_alpha                90
_cell_angle_beta                 90
_cell_angle_gamma                90
_cell_volume                     2026.68
_exptl_crystal_colour            colorless
_exptl_crystal_description       block
_cell_formula_units_Z            4
loop_
_atom_site_label
_atom_site_type_symbol
_atom_site_fract_x
_atom_site_fract_y
_atom_site_fract_z
O1 O 0.27483(14) 0.03241(9) 0.17528(5)
O2 O 0.30930(16) 0.08794(10) 0.29801(5)
O3 O 0.10420(17) -0.03585(12) 0.31426(6)
O4 O 0.56968(15) -0.08383(12) 0.19080(6)
O5 O 0.48509(15) -0.13177(10) 0.28840(5)
N1 N 0.25991(19) -0.25452(11) 0.18955(7)
C1 C 0.2262(2) -0.29403(13) 0.12841(8)
C2 C 0.2691(2) -0.39731(14) 0.10401(9)
H1 H 0.3272 -0.4490 0.1283
C3 C 0.2228(3) -0.42120(15) 0.04234(9)
H2 H 0.2497 -0.4903 0.0253
C4 C 0.1383(2) -0.34536(16) 0.00576(9)
H3 H 0.1090 -0.3633 -0.0356
C5 C 0.0960(2) -0.24106(14) 0.03043(8)
H4 H 0.0382 -0.1894 0.0060
C6 C 0.1420(2) -0.21636(13) 0.09184(8)
C7 C 0.11532(19) -0.11190(12) 0.13005(7)
C8 C 0.24825(19) -0.02122(12) 0.11528(7)
H5 H 0.3528 -0.0577 0.1024
C9 C 0.2814(2) -0.05224(12) 0.22166(7)
C10 C 0.1696(2) -0.14937(13) 0.19735(7)
H6 H 0.0715 -0.1593 0.2247
C11 C 0.2416(2) 0.04564(14) 0.00362(7)
H7 H 0.2879 -0.0221 -0.0084
C12 C 0.2100(2) 0.12655(15) -0.04153(8)
H8 H 0.2329 0.1113 -0.0838
C13 C 0.1452(2) 0.22971(15) -0.02532(8)
C14 C 0.1055(2) 0.24756(14) 0.03817(8)
H9 H 0.0595 0.3154 0.0503
C15 C 0.1330(2) 0.16666(14) 0.08339(8)
H10 H 0.1035 0.1802 0.1252
C16 C 0.2040(2) 0.06555(13) 0.06697(7)
C17 C 0.1259(3) 0.32054(17) -0.07356(9)
H11 H 0.1586 0.2931 -0.1144
H12 H 0.1959 0.3823 -0.0622
H13 H 0.0109 0.3442 -0.0749
C18 C -0.0625(2) -0.06534(14) 0.12835(8)
H14 H -0.1411 -0.1235 0.1378
H15 H -0.0854 -0.0360 0.0870
H16 H -0.0731 -0.0072 0.1592
C19 C 0.2496(3) -0.33342(16) 0.24190(9)
H17 H 0.3129 -0.3989 0.2317
H18 H 0.1344 -0.3533 0.2490
H19 H 0.2947 -0.2999 0.2794
C20 C 0.2177(2) -0.00088(13) 0.28365(7)
C21 C 0.2698(3) 0.14340(15) 0.35677(8)
H20 H 0.3430 0.2061 0.3622
H21 H 0.2848 0.0926 0.3913
H22 H 0.1554 0.1684 0.3558
C22 C 0.4633(2) -0.09102(13) 0.23048(7)
C23 C 0.6505(3) -0.17486(17) 0.30240(10)
H23 H 0.6530 -0.2021 0.3451
H24 H 0.7320 -0.1166 0.2977
H25 H 0.6764 -0.2344 0.2738
loop_
_geom_bond_atom_site_label_1
_geom_bond_atom_site_label_2
_geom_bond_site_symmetry_1
_geom_bond_site_symmetry_2
O1 C8 1_555 1_555
O2 C20 1_555 1_555
O3 C20 1_555 1_555
O4 C22 1_555 1_555
O5 C22 1_555 1_555
N1 C1 1_555 1_555
C1 C2 1_555 1_555
C2 H1 1_555 1_555
C3 C2 1_555 1_555
H2 C3 1_555 1_555
C4 C3 1_555 1_555
H3 C4 1_555 1_555
C5 C4 1_555 1_555
H4 C5 1_555 1_555
C6 C1 1_555 1_555
C7 C6 1_555 1_555
C8 C7 1_555 1_555
H5 C8 1_555 1_555
C9 O1 1_555 1_555
C10 N1 1_555 1_555
H6 C10 1_555 1_555
C11 H7 1_555 1_555
C12 C11 1_555 1_555
H8 C12 1_555 1_555
C13 C12 1_555 1_555
C14 C13 1_555 1_555
H9 C14 1_555 1_555
C15 C14 1_555 1_555
H10 C15 1_555 1_555
C16 C8 1_555 1_555
C17 C13 1_555 1_555
H11 C17 1_555 1_555
H12 C17 1_555 1_555
H13 C17 1_555 1_555
C18 C7 1_555 1_555
H14 C18 1_555 1_555
H15 C18 1_555 1_555
H16 C18 1_555 1_555
C19 N1 1_555 1_555
H17 C19 1_555 1_555
H18 C19 1_555 1_555
H19 C19 1_555 1_555
C20 C9 1_555 1_555
C21 O2 1_555 1_555
H20 C21 1_555 1_555
H21 C21 1_555 1_555
H22 C21 1_555 1_555
C22 C9 1_555 1_555
C23 O5 1_555 1_555
H23 C23 1_555 1_555
H24 C23 1_555 1_555
H25 C23 1_555 1_555
C5 C6 1_555 1_555
C7 C10 1_555 1_555
C9 C10 1_555 1_555
C11 C16 1_555 1_555
C15 C16 1_555 1_555

#END
