
#######################################################################
#
#                 Cambridge Crystallographic Data Centre
#                                CCDC 
#
#######################################################################
#
# If this CIF has been generated from an entry in the Cambridge 
# Structural Database, then it will include bibliographic, chemical, 
# crystal, experimental, refinement or atomic coordinate data resulting 
# from the CCDC's data processing and validation procedures.
#
#######################################################################

data_KAQFEP01
_chemical_formula_moiety         'C23 H25 N1 O5'
_chemical_name_systematic        
'dimethyl 4,8b-dimethyl-1-(4-methylphenyl)-1,3a,4,8b-tetrahydro-3H-furo[3,4-b]indole-3,3-dicarboxylate'
_symmetry_cell_setting           orthorhombic
_symmetry_space_group_name_H-M   'P 21 21 21'
_symmetry_Int_Tables_number      19
_space_group_name_Hall           'P 2ac 2ab'
loop_
_symmetry_equiv_pos_site_id
_symmetry_equiv_pos_as_xyz
1 x,y,z
2 1/2-x,-y,1/2+z
3 -x,1/2+y,1/2-z
4 1/2+x,1/2-y,-z
_cell_length_a                   8.00570(10)
_cell_length_b                   12.17010(10)
_cell_length_c                   21.3157(2)
_cell_angle_alpha                90
_cell_angle_beta                 90
_cell_angle_gamma                90
_cell_volume                     2076.79
_exptl_crystal_colour            colorless
_cell_formula_units_Z            4
loop_
_atom_site_label
_atom_site_type_symbol
_atom_site_fract_x
_atom_site_fract_y
_atom_site_fract_z
O1 O 0.7241(2) 0.53017(12) 0.32407(6)
O2 O 0.5169(2) 0.36635(15) 0.21193(8)
O3 O 0.6928(3) 0.58468(14) 0.20191(8)
O4 O 0.4318(2) 0.4158(2) 0.30776(10)
O5 O 0.8967(3) 0.4625(2) 0.18699(10)
N1 N 0.7421(3) 0.24604(16) 0.31063(10)
C1 C 0.5378(3) 0.40804(18) 0.26885(10)
C2 C 0.7834(3) 0.49703(19) 0.21675(10)
C3 C 0.8624(3) 0.6637(2) 0.41575(10)
H1 H 0.8924 0.6773 0.3743
C4 C 0.7926(3) 0.56348(18) 0.43168(9)
C5 C 0.7185(3) 0.44631(17) 0.27797(9)
C6 C 0.7758(3) 0.20767(18) 0.37112(12)
C7 C 0.8842(2) 0.38817(17) 0.36913(10)
C8 C 0.7509(2) 0.47757(17) 0.38361(9)
H2 H 0.6472 0.4409 0.3962
C9 C 0.8883(3) 0.7441(2) 0.46089(12)
H3 H 0.9330 0.8114 0.4490
C10 C 0.8585(3) 0.28501(18) 0.40712(11)
C11 C 0.8305(3) 0.35079(18) 0.30263(10)
H4 H 0.9285 0.3412 0.2756
C12 C 1.0612(3) 0.4348(2) 0.37119(13)
H5 H 1.0677 0.4984 0.3447
H6 H 1.1386 0.3802 0.3566
H7 H 1.0885 0.4549 0.4135
C13 C 0.7540(3) 0.5442(2) 0.49441(11)
H8 H 0.7076 0.4773 0.5062
C14 C 0.7840(4) 0.6236(2) 0.53918(11)
H9 H 0.7603 0.6083 0.5810
C15 C 0.8486(3) 0.7258(2) 0.52339(11)
C16 C 0.9036(4) 0.2614(2) 0.46817(12)
H10 H 0.9598 0.3130 0.4925
C17 C 0.8630(4) 0.1579(3) 0.49282(15)
H11 H 0.8930 0.1403 0.5337
C18 C 0.7790(5) 0.0826(2) 0.45679(16)
H12 H 0.7518 0.0146 0.4740
C19 C 0.7342(4) 0.1052(2) 0.39579(15)
H13 H 0.6776 0.0536 0.3717
C20 C 0.3537(4) 0.3236(3) 0.19745(18)
H14 H 0.3391 0.3214 0.1528
H15 H 0.2700 0.3701 0.2157
H16 H 0.3433 0.2507 0.2142
C21 C 0.8680(5) 0.8152(3) 0.57166(15)
H17 H 0.9398 0.8717 0.5555
H18 H 0.9160 0.7851 0.6092
H19 H 0.7605 0.8460 0.5811
C22 C 0.7513(6) 0.1679(3) 0.25852(16)
H20 H 0.8643 0.1429 0.2538
H21 H 0.7157 0.2033 0.2206
H22 H 0.6799 0.1063 0.2671
C23 C 0.7351(5) 0.6407(3) 0.14445(14)
H23 H 0.6984 0.5977 0.1093
H24 H 0.8540 0.6505 0.1422
H25 H 0.6812 0.7111 0.1435
loop_
_geom_bond_atom_site_label_1
_geom_bond_atom_site_label_2
_geom_bond_site_symmetry_1
_geom_bond_site_symmetry_2
O1 C5 1_555 1_555
O2 C1 1_555 1_555
O3 C2 1_555 1_555
O4 C1 1_555 1_555
O5 C2 1_555 1_555
N1 C6 1_555 1_555
C1 C5 1_555 1_555
C2 C5 1_555 1_555
C3 H1 1_555 1_555
C4 C3 1_555 1_555
C5 C11 1_555 1_555
C6 C10 1_555 1_555
C7 C8 1_555 1_555
C8 O1 1_555 1_555
H2 C8 1_555 1_555
C9 C3 1_555 1_555
H3 C9 1_555 1_555
C10 C7 1_555 1_555
C11 N1 1_555 1_555
H4 C11 1_555 1_555
C12 C7 1_555 1_555
H5 C12 1_555 1_555
H6 C12 1_555 1_555
H7 C12 1_555 1_555
C13 C4 1_555 1_555
H8 C13 1_555 1_555
C14 C13 1_555 1_555
H9 C14 1_555 1_555
C15 C9 1_555 1_555
C16 C10 1_555 1_555
H10 C16 1_555 1_555
C17 C16 1_555 1_555
H11 C17 1_555 1_555
C18 C17 1_555 1_555
H12 C18 1_555 1_555
C19 C6 1_555 1_555
H13 C19 1_555 1_555
C20 O2 1_555 1_555
H14 C20 1_555 1_555
H15 C20 1_555 1_555
H16 C20 1_555 1_555
C21 C15 1_555 1_555
H17 C21 1_555 1_555
H18 C21 1_555 1_555
H19 C21 1_555 1_555
C22 N1 1_555 1_555
H20 C22 1_555 1_555
H21 C22 1_555 1_555
H22 C22 1_555 1_555
C23 O3 1_555 1_555
H23 C23 1_555 1_555
H24 C23 1_555 1_555
H25 C23 1_555 1_555
C4 C8 1_555 1_555
C7 C11 1_555 1_555
C14 C15 1_555 1_555
C18 C19 1_555 1_555

#END
