
#######################################################################
#
#                 Cambridge Crystallographic Data Centre
#                                CCDC 
#
#######################################################################
#
# If this CIF has been generated from an entry in the Cambridge 
# Structural Database, then it will include bibliographic, chemical, 
# crystal, experimental, refinement or atomic coordinate data resulting 
# from the CCDC's data processing and validation procedures.
#
#######################################################################

data_KAQMEW
_chemical_formula_moiety         'C52 H42 F12 N4,C1 H1 Cl3'
_chemical_name_systematic        
"2,2'-(5,12-Dihexyl-5,12-dihydroquinolino[2,3-b]acridine-7,14-diylidene)bis((3,5-bis(trifluoromethyl)phenyl)acetonitrile) chloroform solvate"
_symmetry_cell_setting           monoclinic
_symmetry_space_group_name_H-M   'C 2/c'
_symmetry_Int_Tables_number      15
_space_group_name_Hall           '-C 2yn'
loop_
_symmetry_equiv_pos_site_id
_symmetry_equiv_pos_as_xyz
1 x,y,z
2 -x,y,1/2-z
3 1/2+x,1/2+y,z
4 1/2-x,1/2+y,1/2-z
5 -x,-y,-z
6 x,-y,1/2+z
7 1/2-x,1/2-y,-z
8 1/2+x,1/2-y,1/2+z
_cell_length_a                   35.547(7)
_cell_length_b                   12.551(3)
_cell_length_c                   27.190(5)
_cell_angle_alpha                90
_cell_angle_beta                 121.67(3)
_cell_angle_gamma                90
_cell_volume                     10324.4
_cell_formula_units_Z            8
loop_
_atom_site_label
_atom_site_type_symbol
_atom_site_fract_x
_atom_site_fract_y
_atom_site_fract_z
C1 C 0.15010(9) 0.9045(3) 0.10609(11)
C2 C 0.14140(11) 1.0022(3) 0.12309(14)
H1 H 0.1635 1.0356 0.1564
C3 C 0.10062(11) 1.0491(3) 0.09094(17)
H2 H 0.0951 1.1132 0.1031
C4 C 0.06759(11) 1.0019(3) 0.04063(15)
H3 H 0.0406 1.0363 0.0177
C5 C 0.07490(10) 0.9050(3) 0.02500(13)
H4 H 0.0523 0.8729 -0.0084
C6 C 0.11537(8) 0.8520(3) 0.05765(11)
C7 C 0.12398(9) 0.7466(2) 0.04302(10)
C8 C 0.16949(8) 0.7305(2) 0.05894(10)
C9 C 0.18127(9) 0.6671(2) 0.02764(11)
H5 H 0.1590 0.6404 -0.0078
C10 C 0.22506(8) 0.6412(2) 0.04677(10)
C11 C 0.27938(9) 0.5705(3) 0.02875(11)
C12 C 0.29020(10) 0.5249(3) -0.00938(12)
H6 H 0.2681 0.4952 -0.0440
C13 C 0.33312(11) 0.5240(3) 0.00415(13)
H7 H 0.3400 0.4911 -0.0208
C14 C 0.36634(11) 0.5709(3) 0.05399(13)
H8 H 0.3951 0.5730 0.0616
C15 C 0.35654(9) 0.6143(3) 0.09202(13)
H9 H 0.3788 0.6474 0.1253
C16 C 0.31362(9) 0.6101(3) 0.08215(11)
C17 C 0.30326(8) 0.6406(2) 0.12552(11)
C18 C 0.25847(8) 0.6818(2) 0.10135(11)
C19 C 0.24684(8) 0.7551(2) 0.12925(11)
H10 H 0.2692 0.7868 0.1630
C20 C 0.20328(9) 0.7835(2) 0.10901(11)
C21 C 0.09281(9) 0.6666(3) 0.01907(11)
C22 C 0.10479(10) 0.5642(3) 0.00933(15)
C23 C 0.04666(9) 0.6699(3) 0.00595(12)
C24 C 0.03736(10) 0.6988(3) 0.04757(13)
H11 H 0.0603 0.7190 0.0841
C25 C -0.00532(11) 0.6981(3) 0.03545(14)
C26 C -0.03987(10) 0.6674(3) -0.01835(15)
H12 H -0.0687 0.6672 -0.0264
C27 C -0.03094(9) 0.6371(3) -0.05963(13)
C28 C 0.01232(9) 0.6368(3) -0.04741(13)
H13 H 0.0181 0.6142 -0.0754
C29 C -0.01498(17) 0.7277(5) 0.0808(2)
F1 F 0.0085(6) 0.8080(14) 0.1095(8)
F2 F -0.0558(3) 0.7557(14) 0.0583(6)
F3 F -0.0266(5) 0.6415(10) 0.0986(5)
C30 C -0.06777(11) 0.6048(4) -0.11761(17)
F7 F -0.0926(3) 0.6830(7) -0.1474(4)
F8 F -0.0552(2) 0.5608(16) -0.1495(4)
F9 F -0.0932(4) 0.5355(9) -0.1151(4)
C31 C 0.33179(9) 0.6229(3) 0.18336(11)
C32 C 0.32062(10) 0.6520(3) 0.22514(13)
C33 C 0.37401(9) 0.5623(3) 0.21005(11)
C34 C 0.37617(9) 0.4646(3) 0.18787(12)
H14 H 0.3512 0.4374 0.1552
C35 C 0.41503(10) 0.4079(3) 0.21397(14)
C36 C 0.45249(10) 0.4459(3) 0.26348(14)
H15 H 0.4787 0.4072 0.2809
C37 C 0.45017(10) 0.5413(3) 0.28610(13)
C38 C 0.41118(9) 0.5993(3) 0.25981(12)
H16 H 0.4100 0.6638 0.2758
C39 C 0.41789(15) 0.3060(4) 0.18865(19)
F13 F 0.3808(2) 0.2698(8) 0.1502(6)
F14 F 0.4424(5) 0.3133(9) 0.1672(7)
F15 F 0.4365(6) 0.2300(8) 0.2290(4)
C40 C 0.48986(13) 0.5839(5) 0.3385(2)
F19 F 0.5254(3) 0.545(2) 0.3470(9)
F20 F 0.4937(5) 0.6877(8) 0.3391(7)
F21 F 0.4872(5) 0.563(3) 0.3848(4)
C41 C 0.22654(10) 0.9026(3) 0.19222(12)
H17 H 0.2467 0.8457 0.2149
H18 H 0.2127 0.9278 0.2128
C42 C 0.25300(11) 0.9933(3) 0.18801(14)
H19 H 0.2674 0.9681 0.1682
H20 H 0.2329 1.0501 0.1650
C43 C 0.28745(12) 1.0372(4) 0.24604(15)
H21 H 0.3084 0.9812 0.2683
H22 H 0.2732 1.0589 0.2667
C44 C 0.31276(15) 1.1333(4) 0.24177(17)
H23 H 0.3281 1.1097 0.2229
H24 H 0.2913 1.1864 0.2170
C45 C 0.34465(15) 1.1839(4) 0.29576(17)
H25 H 0.3668 1.1319 0.3203
H26 H 0.3297 1.2067 0.3153
C46 C 0.36673(16) 1.2761(4) 0.2888(2)
H27 H 0.3886 1.2520 0.2808
H28 H 0.3807 1.3173 0.3238
H29 H 0.3453 1.3193 0.2574
C47 C 0.20103(9) 0.5156(3) -0.03408(11)
H30 H 0.1787 0.4954 -0.0256
H31 H 0.2137 0.4506 -0.0385
C48 C 0.17875(11) 0.5754(3) -0.09099(12)
H32 H 0.2006 0.5958 -0.1003
H33 H 0.1651 0.6397 -0.0877
C49 C 0.14381(15) 0.5055(4) -0.13888(15)
H34 H 0.1586 0.4513 -0.1481
H35 H 0.1274 0.4694 -0.1244
C50 C 0.1117(3) 0.5626(9) -0.1932(2)
H36 H 0.0966 0.5106 -0.2239
H37 H 0.1280 0.6096 -0.2038
C51 C 0.0755(4) 0.6311(10) -0.1893(6)
H38 H 0.0892 0.6933 -0.1652
H39 H 0.0528 0.6551 -0.2275
C52 C 0.0575(8) 0.5693(19) -0.1665(8)
H40 H 0.0499 0.5013 -0.1855
H41 H 0.0314 0.6031 -0.1717
H42 H 0.0784 0.5595 -0.1260
N1 N 0.19211(7) 0.8590(2) 0.13622(9)
N2 N 0.23581(7) 0.5748(2) 0.01532(9)
N3 N 0.11290(11) 0.4791(3) 0.00170(16)
N4 N 0.31372(11) 0.6703(3) 0.26094(12)
C53 C 0.20671(17) 0.3398(4) 0.0884(2)
H43 H 0.1829 0.3847 0.0591
Cl1 Cl 0.18020(19) 0.2406(5) 0.0963(5)
Cl2 Cl 0.2459(3) 0.2912(8) 0.0722(4)
Cl3 Cl 0.2359(5) 0.4228(7) 0.1415(3)
F4? F 0.0184(6) 0.756(3) 0.1311(8)
F5? F -0.0458(9) 0.804(2) 0.0654(9)
F6? F -0.0009(9) 0.6602(17) 0.1225(8)
F10? F -0.0715(9) 0.6620(19) -0.1595(4)
F11? F -0.0599(7) 0.5113(12) -0.1330(9)
F12? F -0.1059(4) 0.596(3) -0.1221(7)
F16? F 0.4062(15) 0.3196(16) 0.1321(8)
F17? F 0.4547(4) 0.2615(17) 0.2107(17)
F18? F 0.3881(11) 0.2369(18) 0.1806(18)
F22? F 0.5185(7) 0.5164(12) 0.3740(8)
F23? F 0.5154(9) 0.636(3) 0.3224(6)
F24? F 0.4818(4) 0.642(3) 0.3705(11)
Cl4? Cl 0.19171(13) 0.2818(4) 0.1376(2)
Cl5? Cl 0.2077(6) 0.2458(5) 0.0476(4)
Cl6? Cl 0.2533(2) 0.4055(7) 0.1315(4)
loop_
_geom_bond_atom_site_label_1
_geom_bond_atom_site_label_2
_geom_bond_site_symmetry_1
_geom_bond_site_symmetry_2
C1 C2 1_555 1_555
C2 H1 1_555 1_555
C3 C2 1_555 1_555
H2 C3 1_555 1_555
C4 C3 1_555 1_555
H3 C4 1_555 1_555
C5 C4 1_555 1_555
H4 C5 1_555 1_555
C6 C1 1_555 1_555
C7 C6 1_555 1_555
C8 C7 1_555 1_555
C9 C8 1_555 1_555
H5 C9 1_555 1_555
C10 C9 1_555 1_555
C11 C12 1_555 1_555
C12 H6 1_555 1_555
C13 C12 1_555 1_555
H7 C13 1_555 1_555
C14 C13 1_555 1_555
H8 C14 1_555 1_555
C15 C14 1_555 1_555
H9 C15 1_555 1_555
C16 C11 1_555 1_555
C17 C16 1_555 1_555
C18 C10 1_555 1_555
C19 C18 1_555 1_555
H10 C19 1_555 1_555
C20 C8 1_555 1_555
C21 C7 1_555 1_555
C22 C21 1_555 1_555
C23 C21 1_555 1_555
C24 C23 1_555 1_555
H11 C24 1_555 1_555
C25 C24 1_555 1_555
C26 C25 1_555 1_555
H12 C26 1_555 1_555
C27 C26 1_555 1_555
C28 C23 1_555 1_555
H13 C28 1_555 1_555
C29 C25 1_555 1_555
F1 C29 1_555 1_555
F2 C29 1_555 1_555
F3 C29 1_555 1_555
C30 C27 1_555 1_555
F7 C30 1_555 1_555
F8 C30 1_555 1_555
F9 C30 1_555 1_555
C31 C17 1_555 1_555
C32 C31 1_555 1_555
C33 C31 1_555 1_555
C34 C33 1_555 1_555
H14 C34 1_555 1_555
C35 C34 1_555 1_555
C36 C35 1_555 1_555
H15 C36 1_555 1_555
C37 C36 1_555 1_555
C38 C33 1_555 1_555
H16 C38 1_555 1_555
C39 C35 1_555 1_555
F13 C39 1_555 1_555
F14 C39 1_555 1_555
F15 C39 1_555 1_555
C40 C37 1_555 1_555
F19 C40 1_555 1_555
F20 C40 1_555 1_555
F21 C40 1_555 1_555
C41 H17 1_555 1_555
H18 C41 1_555 1_555
C42 C41 1_555 1_555
H19 C42 1_555 1_555
H20 C42 1_555 1_555
C43 C42 1_555 1_555
H21 C43 1_555 1_555
H22 C43 1_555 1_555
C44 C43 1_555 1_555
H23 C44 1_555 1_555
H24 C44 1_555 1_555
C45 C44 1_555 1_555
H25 C45 1_555 1_555
H26 C45 1_555 1_555
C46 C45 1_555 1_555
H27 C46 1_555 1_555
H28 C46 1_555 1_555
H29 C46 1_555 1_555
C47 H30 1_555 1_555
H31 C47 1_555 1_555
C48 C47 1_555 1_555
H32 C48 1_555 1_555
H33 C48 1_555 1_555
C49 C48 1_555 1_555
H34 C49 1_555 1_555
H35 C49 1_555 1_555
C50 C49 1_555 1_555
H36 C50 1_555 1_555
H37 C50 1_555 1_555
C51 C50 1_555 1_555
H38 C51 1_555 1_555
H39 C51 1_555 1_555
C52 C51 1_555 1_555
H40 C52 1_555 1_555
H41 C52 1_555 1_555
H42 C52 1_555 1_555
C53 H43 1_555 1_555
Cl1 C53 1_555 1_555
Cl2 C53 1_555 1_555
Cl3 C53 1_555 1_555
N1 C1 1_555 1_555
N2 C10 1_555 1_555
N3 C22 1_555 1_555
N4 C32 1_555 1_555
C5 C6 1_555 1_555
C11 N2 1_555 1_555
C15 C16 1_555 1_555
C17 C18 1_555 1_555
C19 C20 1_555 1_555
C20 N1 1_555 1_555
C27 C28 1_555 1_555
C37 C38 1_555 1_555
C41 N1 1_555 1_555
C47 N2 1_555 1_555

#END
