
#######################################################################
#
#                 Cambridge Crystallographic Data Centre
#                                CCDC 
#
#######################################################################
#
# If this CIF has been generated from an entry in the Cambridge 
# Structural Database, then it will include bibliographic, chemical, 
# crystal, experimental, refinement or atomic coordinate data resulting 
# from the CCDC's data processing and validation procedures.
#
#######################################################################

data_KAQQEA
_chemical_formula_moiety         'C20 H13 O1 P1 S4,C1 H1 Cl3'
_chemical_name_systematic        
"3,6-Dimethyl-9-phenyl-9H-thieno[3,2-b]thieno[2'',3'':4',5']thieno[2',3':4,5]phospholo[2,3-d]thiophene 9-oxide chloroform solvate"
_symmetry_cell_setting           orthorhombic
_symmetry_space_group_name_H-M   'P c a 21'
_symmetry_Int_Tables_number      29
_space_group_name_Hall           'P 2c -2ac'
loop_
_symmetry_equiv_pos_site_id
_symmetry_equiv_pos_as_xyz
1 x,y,z
2 -x,-y,1/2+z
3 1/2-x,y,1/2+z
4 1/2+x,-y,z
_cell_length_a                   20.6692(4)
_cell_length_b                   7.93121(18)
_cell_length_c                   29.3363(8)
_cell_angle_alpha                90
_cell_angle_beta                 90
_cell_angle_gamma                90
_cell_volume                     4809.15
_exptl_crystal_colour            yellow
_exptl_crystal_description       block
_cell_formula_units_Z            8
loop_
_atom_site_label
_atom_site_type_symbol
_atom_site_fract_x
_atom_site_fract_y
_atom_site_fract_z
Cl1 Cl 0.26946(15) 0.5315(5) 0.07928(11)
Cl2 Cl 0.17284(19) 0.2737(5) 0.08253(15)
Cl3 Cl 0.1363(2) 0.6158(8) 0.09062(16)
C41 C 0.1972(5) 0.4757(14) 0.1030(4)
H27 H 0.2025 0.4697 0.1362
Cl4 Cl 0.01545(16) 0.9564(5) 0.04662(12)
Cl5 Cl -0.0936(2) 1.1533(10) 0.03259(15)
Cl6 Cl -0.1057(3) 0.8033(13) 0.0334(2)
C42 C -0.0589(6) 0.962(2) 0.0201(4)
H28 H -0.0514 0.9581 -0.0129
S1 S 0.59924(7) 0.1959(2) 0.29096(6)
S2 S 0.41340(7) 0.0492(2) 0.25430(5)
S3 S 0.29260(7) -0.09255(19) 0.33984(5)
S4 S 0.33875(8) -0.1375(3) 0.47725(6)
P1 P 0.47774(7) 0.03467(19) 0.39107(6)
O1 O 0.52749(18) -0.0715(5) 0.41290(14)
C1 C 0.5109(4) 0.1932(11) 0.1678(2)
H1 H 0.4822 0.1013 0.1610
H2 H 0.5482 0.1869 0.1485
H3 H 0.4889 0.2981 0.1627
C2 C 0.5904(3) 0.2315(9) 0.2331(3)
H4 H 0.6227 0.2792 0.2152
C3 C 0.5313(3) 0.1828(7) 0.2162(2)
C4 C 0.4922(3) 0.1190(8) 0.2518(2)
C5 C 0.5209(3) 0.1174(7) 0.2951(2)
C6 C 0.4794(2) 0.0619(7) 0.3301(2)
C7 C 0.4204(3) 0.0203(7) 0.3116(2)
C8 C 0.3721(3) -0.0332(7) 0.3464(2)
C9 C 0.3952(3) -0.0442(7) 0.3898(2)
C10 C 0.3461(3) -0.0977(7) 0.4197(2)
C11 C 0.2879(3) -0.1294(7) 0.3976(2)
C12 C 0.2371(3) -0.1884(8) 0.4268(2)
C13 C 0.2582(3) -0.1987(9) 0.4696(3)
H5 H 0.2322 -0.2356 0.4934
C14 C 0.1701(3) -0.2291(10) 0.4103(3)
H6 H 0.1527 -0.1337 0.3944
H7 H 0.1430 -0.2553 0.4360
H8 H 0.1718 -0.3244 0.3902
C15 C 0.4738(3) 0.2434(7) 0.4152(2)
C16 C 0.4421(4) 0.2689(9) 0.4552(2)
H9 H 0.4209 0.1795 0.4693
C17 C 0.4410(5) 0.4305(11) 0.4755(3)
H10 H 0.4194 0.4486 0.5029
C18 C 0.4734(4) 0.5634(10) 0.4534(4)
H11 H 0.4737 0.6710 0.4659
C19 C 0.5042(4) 0.5318(10) 0.4135(3)
H12 H 0.5254 0.6197 0.3988
C20 C 0.5050(3) 0.3764(7) 0.3943(3)
H13 H 0.5267 0.3593 0.3670
S5 S 0.41624(8) 0.6319(2) 0.14465(6)
S6 S 0.46328(7) 0.58784(19) 0.28189(5)
S7 S 0.34307(7) 0.4476(2) 0.36781(5)
S8 S 0.15681(7) 0.3013(2) 0.33201(7)
P2 P 0.27852(7) 0.45708(19) 0.23124(5)
O2 O 0.22763(19) 0.5636(5) 0.20883(15)
C21 C 0.5855(3) 0.7290(10) 0.2106(3)
H14 H 0.6125 0.6306 0.2097
H15 H 0.5837 0.7714 0.2413
H16 H 0.6030 0.8140 0.1909
C22 C 0.4957(3) 0.6929(9) 0.1515(3)
H17 H 0.5213 0.7294 0.1274
C23 C 0.5179(3) 0.6833(8) 0.1949(2)
C24 C 0.4681(3) 0.6241(7) 0.2237(2)
C25 C 0.4099(3) 0.5896(8) 0.2022(2)
C26 C 0.3604(3) 0.5323(7) 0.2327(2)
C27 C 0.3830(3) 0.5311(7) 0.2775(2)
C28 C 0.3377(3) 0.4737(8) 0.3088(2)
C29 C 0.2770(2) 0.4324(7) 0.2923(2)
C30 C 0.2347(3) 0.3778(7) 0.32815(19)
C31 C 0.2637(3) 0.3784(7) 0.3697(2)
C32 C 0.2244(3) 0.3195(8) 0.4060(2)
C33 C 0.1667(3) 0.2722(9) 0.3903(3)
H18 H 0.1346 0.2274 0.4089
C34 C 0.2809(3) 0.2506(7) 0.2075(2)
C35 C 0.2494(3) 0.1176(7) 0.2287(2)
H19 H 0.2271 0.1354 0.2558
C36 C 0.2510(4) -0.0417(9) 0.2094(3)
H20 H 0.2297 -0.1309 0.2235
C37 C 0.2835(4) -0.0673(9) 0.1700(3)
H21 H 0.2845 -0.1742 0.1570
C38 C 0.3139(4) 0.0584(10) 0.1499(3)
H22 H 0.3354 0.0376 0.1226
C39 C 0.3151(4) 0.2189(8) 0.1674(2)
H23 H 0.3382 0.3043 0.1530
C40 C 0.2474(4) 0.3050(11) 0.4556(2)
H24 H 0.2463 0.4142 0.4697
H25 H 0.2908 0.2622 0.4562
H26 H 0.2194 0.2295 0.4720
loop_
_geom_bond_atom_site_label_1
_geom_bond_atom_site_label_2
_geom_bond_site_symmetry_1
_geom_bond_site_symmetry_2
Cl1 C41 1_555 1_555
Cl2 C41 1_555 1_555
Cl3 C41 1_555 1_555
Cl4 C42 1_555 1_555
Cl5 C42 1_555 1_555
Cl6 C42 1_555 1_555
S1 C2 1_555 1_555
S2 C4 1_555 1_555
S3 C8 1_555 1_555
S4 C10 1_555 1_555
S5 C22 1_555 1_555
S6 C24 1_555 1_555
S7 C28 1_555 1_555
S8 C30 1_555 1_555
P1 O1 1_555 1_555
P2 O2 1_555 1_555
C1 H1 1_555 1_555
H2 C1 1_555 1_555
H3 C1 1_555 1_555
C2 H4 1_555 1_555
C3 C1 1_555 1_555
C4 C3 1_555 1_555
C5 S1 1_555 1_555
C6 P1 1_555 1_555
C7 S2 1_555 1_555
C8 C7 1_555 1_555
C9 P1 1_555 1_555
C10 C9 1_555 1_555
C11 S3 1_555 1_555
C12 C11 1_555 1_555
C13 S4 1_555 1_555
H5 C13 1_555 1_555
C14 C12 1_555 1_555
H6 C14 1_555 1_555
H7 C14 1_555 1_555
H8 C14 1_555 1_555
C15 P1 1_555 1_555
C16 C15 1_555 1_555
H9 C16 1_555 1_555
C17 C16 1_555 1_555
H10 C17 1_555 1_555
C18 C17 1_555 1_555
H11 C18 1_555 1_555
C19 C18 1_555 1_555
H12 C19 1_555 1_555
C20 C15 1_555 1_555
H13 C20 1_555 1_555
C21 H14 1_555 1_555
H15 C21 1_555 1_555
H16 C21 1_555 1_555
C22 H17 1_555 1_555
C23 C21 1_555 1_555
C24 C23 1_555 1_555
C25 S5 1_555 1_555
C26 P2 1_555 1_555
C27 S6 1_555 1_555
C28 C27 1_555 1_555
C29 P2 1_555 1_555
C30 C29 1_555 1_555
C31 S7 1_555 1_555
C32 C31 1_555 1_555
C33 S8 1_555 1_555
H18 C33 1_555 1_555
C34 P2 1_555 1_555
C35 C34 1_555 1_555
H19 C35 1_555 1_555
C36 C35 1_555 1_555
H20 C36 1_555 1_555
C37 C36 1_555 1_555
H21 C37 1_555 1_555
C38 C37 1_555 1_555
H22 C38 1_555 1_555
C39 C34 1_555 1_555
H23 C39 1_555 1_555
C40 C32 1_555 1_555
H24 C40 1_555 1_555
H25 C40 1_555 1_555
H26 C40 1_555 1_555
C41 H27 1_555 1_555
C42 H28 1_555 1_555
C2 C3 1_555 1_555
C4 C5 1_555 1_555
C5 C6 1_555 1_555
C6 C7 1_555 1_555
C8 C9 1_555 1_555
C10 C11 1_555 1_555
C12 C13 1_555 1_555
C19 C20 1_555 1_555
C22 C23 1_555 1_555
C24 C25 1_555 1_555
C25 C26 1_555 1_555
C26 C27 1_555 1_555
C28 C29 1_555 1_555
C30 C31 1_555 1_555
C32 C33 1_555 1_555
C38 C39 1_555 1_555

#END
