
#######################################################################
#
#                 Cambridge Crystallographic Data Centre
#                                CCDC 
#
#######################################################################
#
# If this CIF has been generated from an entry in the Cambridge 
# Structural Database, then it will include bibliographic, chemical, 
# crystal, experimental, refinement or atomic coordinate data resulting 
# from the CCDC's data processing and validation procedures.
#
#######################################################################

data_KAQREC
_chemical_formula_moiety         'C23 H19 N1 O1'
_chemical_name_systematic        8-((4-methoxyphenyl)(phenyl)methyl)quinoline
_symmetry_cell_setting           orthorhombic
_symmetry_space_group_name_H-M   'P 21 21 21'
_symmetry_Int_Tables_number      19
_space_group_name_Hall           'P 2ac 2ab'
loop_
_symmetry_equiv_pos_site_id
_symmetry_equiv_pos_as_xyz
1 x,y,z
2 1/2-x,-y,1/2+z
3 -x,1/2+y,1/2-z
4 1/2+x,1/2-y,-z
_cell_length_a                   5.73360(10)
_cell_length_b                   16.8181(5)
_cell_length_c                   17.4381(6)
_cell_angle_alpha                90
_cell_angle_beta                 90
_cell_angle_gamma                90
_cell_volume                     1681.53
_exptl_crystal_colour            colorless
_exptl_crystal_description       needle
_cell_formula_units_Z            4
loop_
_atom_site_label
_atom_site_type_symbol
_atom_site_fract_x
_atom_site_fract_y
_atom_site_fract_z
N1 N 0.2928(5) 0.50624(17) 0.75390(17)
O1 O 0.6989(5) 0.71833(15) 0.34893(15)
C1 C 0.1726(7) 0.4926(2) 0.8168(2)
H1 H 0.0469 0.4569 0.8136
C2 C 0.2181(7) 0.5273(2) 0.8880(2)
H2 H 0.1247 0.5156 0.9309
C3 C 0.3997(7) 0.5782(2) 0.8938(2)
H3 H 0.4349 0.6019 0.9412
C4 C 0.5362(6) 0.59564(19) 0.8290(2)
C5 C 0.7304(7) 0.6473(2) 0.8306(2)
H4 H 0.7750 0.6712 0.8770
C6 C 0.8535(7) 0.6628(2) 0.7658(2)
H5 H 0.9812 0.6978 0.7674
C7 C 0.7902(6) 0.6267(2) 0.6964(2)
H6 H 0.8768 0.6383 0.6520
C8 C 0.6057(6) 0.57494(19) 0.6913(2)
C9 C 0.4757(6) 0.55842(19) 0.7585(2)
C10 C 0.5373(6) 0.53404(19) 0.6170(2)
H7 H 0.3654 0.5286 0.6183
C11 C 0.5929(6) 0.5830(2) 0.5460(2)
C12 C 0.4412(6) 0.6442(2) 0.5231(2)
H8 H 0.3090 0.6555 0.5530
C13 C 0.4817(7) 0.6881(2) 0.4576(2)
H9 H 0.3775 0.7286 0.4433
C14 C 0.6750(7) 0.6725(2) 0.4134(2)
C15 C 0.8303(7) 0.6144(2) 0.4347(2)
H10 H 0.9642 0.6045 0.4051
C16 C 0.7870(6) 0.5704(2) 0.5004(2)
H11 H 0.8934 0.5305 0.5145
C17 C 0.9034(7) 0.7064(3) 0.3039(2)
H12 H 0.9028 0.6529 0.2831
H13 H 1.0404 0.7136 0.3358
H14 H 0.9062 0.7446 0.2622
C18 C 0.6343(6) 0.44983(19) 0.6121(2)
C19 C 0.5062(7) 0.3918(2) 0.5752(2)
H15 H 0.3606 0.4049 0.5539
C20 C 0.5876(8) 0.3148(2) 0.5690(2)
H16 H 0.4983 0.2760 0.5436
C21 C 0.8024(8) 0.2950(2) 0.6005(2)
H17 H 0.8590 0.2427 0.5967
C22 C 0.9308(7) 0.3517(2) 0.6370(2)
H18 H 1.0762 0.3384 0.6583
C23 C 0.8481(6) 0.4291(2) 0.6427(2)
H19 H 0.9385 0.4678 0.6678
loop_
_geom_bond_atom_site_label_1
_geom_bond_atom_site_label_2
_geom_bond_site_symmetry_1
_geom_bond_site_symmetry_2
N1 C1 1_555 1_555
O1 C14 1_555 1_555
C1 H1 1_555 1_555
C2 C1 1_555 1_555
H2 C2 1_555 1_555
C3 C2 1_555 1_555
H3 C3 1_555 1_555
C4 C3 1_555 1_555
C5 C4 1_555 1_555
H4 C5 1_555 1_555
C6 C5 1_555 1_555
H5 C6 1_555 1_555
C7 C6 1_555 1_555
H6 C7 1_555 1_555
C8 C7 1_555 1_555
C9 N1 1_555 1_555
C10 C8 1_555 1_555
H7 C10 1_555 1_555
C11 C10 1_555 1_555
C12 C11 1_555 1_555
H8 C12 1_555 1_555
C13 C12 1_555 1_555
H9 C13 1_555 1_555
C14 C13 1_555 1_555
C15 C14 1_555 1_555
H10 C15 1_555 1_555
C16 C11 1_555 1_555
H11 C16 1_555 1_555
C17 O1 1_555 1_555
H12 C17 1_555 1_555
H13 C17 1_555 1_555
H14 C17 1_555 1_555
C18 C10 1_555 1_555
C19 C18 1_555 1_555
H15 C19 1_555 1_555
C20 C19 1_555 1_555
H16 C20 1_555 1_555
C21 C20 1_555 1_555
H17 C21 1_555 1_555
C22 C21 1_555 1_555
H18 C22 1_555 1_555
C23 C18 1_555 1_555
H19 C23 1_555 1_555
C4 C9 1_555 1_555
C8 C9 1_555 1_555
C15 C16 1_555 1_555
C22 C23 1_555 1_555

#END
