
#######################################################################
#
#                 Cambridge Crystallographic Data Centre
#                                CCDC 
#
#######################################################################
#
# If this CIF has been generated from an entry in the Cambridge 
# Structural Database, then it will include bibliographic, chemical, 
# crystal, experimental, refinement or atomic coordinate data resulting 
# from the CCDC's data processing and validation procedures.
#
#######################################################################

data_KAQSED
_chemical_formula_moiety         'C7 H5 O4 P1'
_chemical_name_systematic        2H,4H-1,3,2-benzodioxaphosphinine-2,4-dione
_symmetry_cell_setting           monoclinic
_symmetry_space_group_name_H-M   'P 21/n'
_symmetry_Int_Tables_number      14
_space_group_name_Hall           '-P 2yn'
loop_
_symmetry_equiv_pos_site_id
_symmetry_equiv_pos_as_xyz
1 x,y,z
2 1/2-x,1/2+y,1/2-z
3 -x,-y,-z
4 1/2+x,1/2-y,1/2+z
_cell_length_a                   4.5729(2)
_cell_length_b                   14.1363(5)
_cell_length_c                   11.7191(4)
_cell_angle_alpha                90
_cell_angle_beta                 100.6306(8)
_cell_angle_gamma                90
_cell_volume                     744.566
_exptl_crystal_colour            colorless
_exptl_crystal_description       prism
_cell_formula_units_Z            4
loop_
_atom_site_label
_atom_site_type_symbol
_atom_site_fract_x
_atom_site_fract_y
_atom_site_fract_z
C1 C 0.4644(5) 0.69674(14) 0.27310(18)
C2 C 0.5688(6) 0.78858(16) 0.2830(2)
H1 H 0.4745 0.8367 0.2327
C3 C 0.8131(6) 0.80908(17) 0.3676(2)
H2 H 0.8879 0.8719 0.3748
C4 C 0.9513(6) 0.7396(2) 0.4421(2)
H3 H 1.1173 0.7552 0.5006
C5 C 0.8470(5) 0.64809(17) 0.43091(19)
H4 H 0.9423 0.6002 0.4814
C6 C 0.6013(4) 0.62540(14) 0.34538(17)
C7 C 0.5013(5) 0.52652(15) 0.33365(19)
O1 O 0.2129(4) 0.67948(11) 0.18912(15)
O2 O -0.1967(4) 0.56536(15) 0.10471(18)
O3 O 0.2519(4) 0.50945(11) 0.24756(16)
O4 O 0.6079(5) 0.46094(12) 0.38976(17)
P1 P 0.12283(12) 0.57711(4) 0.14241(5)
H5 H 0.281(6) 0.549(2) 0.071(2)
loop_
_geom_bond_atom_site_label_1
_geom_bond_atom_site_label_2
_geom_bond_site_symmetry_1
_geom_bond_site_symmetry_2
C1 C2 1_555 1_555
C2 H1 1_555 1_555
C3 C2 1_555 1_555
H2 C3 1_555 1_555
C4 C3 1_555 1_555
H3 C4 1_555 1_555
C5 C4 1_555 1_555
H4 C5 1_555 1_555
C6 C1 1_555 1_555
C7 C6 1_555 1_555
O1 C1 1_555 1_555
O2 P1 1_555 1_555
O3 C7 1_555 1_555
O4 C7 1_555 1_555
P1 O1 1_555 1_555
H5 P1 1_555 1_555
C5 C6 1_555 1_555
O3 P1 1_555 1_555

#END
