
#######################################################################
#
#                 Cambridge Crystallographic Data Centre
#                                CCDC 
#
#######################################################################
#
# If this CIF has been generated from an entry in the Cambridge 
# Structural Database, then it will include bibliographic, chemical, 
# crystal, experimental, refinement or atomic coordinate data resulting 
# from the CCDC's data processing and validation procedures.
#
#######################################################################

data_KAQVAB
_chemical_formula_moiety         'C24 H21 N5 O2'
_chemical_name_systematic        
4-(4-Methoxyphenyl)-6,6-dimethyl-3,6a-bis(pyridin-2-yl)-6,6a-dihydropyrrolo[3,2-c]pyrazol-5(4H)-one
_symmetry_cell_setting           monoclinic
_symmetry_space_group_name_H-M   'P 21/c'
_symmetry_Int_Tables_number      14
_space_group_name_Hall           '-P 2ybc'
loop_
_symmetry_equiv_pos_site_id
_symmetry_equiv_pos_as_xyz
1 x,y,z
2 -x,1/2+y,1/2-z
3 -x,-y,-z
4 x,1/2-y,1/2+z
_cell_length_a                   8.9350(18)
_cell_length_b                   20.224(4)
_cell_length_c                   11.920(2)
_cell_angle_alpha                90
_cell_angle_beta                 108.98(3)
_cell_angle_gamma                90
_cell_volume                     2036.85
_exptl_crystal_colour            colorless
_exptl_crystal_description       prism
_cell_formula_units_Z            4
loop_
_atom_site_label
_atom_site_type_symbol
_atom_site_fract_x
_atom_site_fract_y
_atom_site_fract_z
N1 N -0.00336(12) 0.84897(5) 0.19296(10)
N2 N 0.09901(13) 0.98662(6) 0.39499(10)
N3 N 0.19928(13) 0.94243(6) 0.44774(10)
N4 N 0.35477(14) 0.83979(6) 0.25770(11)
N5 N -0.19648(13) 0.99385(6) 0.09474(11)
O1 O 0.03825(11) 0.73624(5) 0.23026(9)
O2 O -0.35678(12) 0.82179(5) -0.28539(8)
C1 C 0.05102(14) 0.90538(7) 0.25855(11)
C2 C 0.19073(15) 0.88791(7) 0.36369(11)
C3 C 0.14371(16) 0.81728(7) 0.39230(12)
C4 C 0.05981(15) 0.79259(7) 0.26468(12)
C5 C 0.00358(15) 0.96705(7) 0.27702(12)
C6 C 0.27544(17) 0.77132(7) 0.46281(13)
H1 H 0.3288 0.7905 0.5411
H2 H 0.3520 0.7655 0.4205
H3 H 0.2305 0.7283 0.4722
C7 C 0.01576(17) 0.82215(8) 0.45303(12)
H4 H -0.0383 0.7795 0.4472
H5 H -0.0613 0.8563 0.4138
H6 H 0.0655 0.8338 0.5368
C8 C -0.09626(14) 0.84427(7) 0.07021(12)
C9 C -0.22970(15) 0.80415(7) 0.03484(12)
H7 H -0.2625 0.7811 0.0922
C10 C -0.31467(15) 0.79806(7) -0.08506(12)
H8 H -0.4057 0.7705 -0.1098
C11 C -0.26707(15) 0.83206(7) -0.16903(12)
C12 C -0.13457(16) 0.87277(7) -0.13270(13)
H9 H -0.1027 0.8967 -0.1897
C13 C -0.04913(16) 0.87832(7) -0.01297(12)
H10 H 0.0422 0.9057 0.0119
C14 C -0.3130(2) 0.85849(8) -0.37263(13)
H11 H -0.3190 0.9059 -0.3579
H12 H -0.3855 0.8477 -0.4518
H13 H -0.2046 0.8470 -0.3679
C15 C 0.34095(15) 0.88958(7) 0.32726(11)
C16 C 0.45076(16) 0.94053(7) 0.36170(12)
H14 H 0.4366 0.9754 0.4107
C17 C 0.58113(17) 0.93952(8) 0.32325(13)
H15 H 0.6590 0.9733 0.3466
C18 C 0.59652(16) 0.88859(8) 0.25031(13)
H16 H 0.6840 0.8870 0.2217
C19 C 0.48116(17) 0.84002(7) 0.22015(13)
H17 H 0.4919 0.8050 0.1702
C20 C -0.12404(15) 1.01059(6) 0.20911(12)
C21 C -0.16861(17) 1.06539(7) 0.26172(14)
H18 H -0.1142 1.0761 0.3423
C22 C -0.29361(19) 1.10397(8) 0.19431(15)
H19 H -0.3267 1.1415 0.2280
C23 C -0.36931(19) 1.08705(8) 0.07756(15)
H20 H -0.4560 1.1124 0.0295
C24 C -0.31607(17) 1.03227(8) 0.03199(14)
H21 H -0.3678 1.0213 -0.0489
loop_
_geom_bond_atom_site_label_1
_geom_bond_atom_site_label_2
_geom_bond_site_symmetry_1
_geom_bond_site_symmetry_2
N1 C1 1_555 1_555
N2 N3 1_555 1_555
N3 C2 1_555 1_555
N4 C15 1_555 1_555
N5 C20 1_555 1_555
O1 C4 1_555 1_555
O2 C11 1_555 1_555
C1 C2 1_555 1_555
C2 C3 1_555 1_555
C3 C4 1_555 1_555
C4 N1 1_555 1_555
C5 N2 1_555 1_555
C6 C3 1_555 1_555
H1 C6 1_555 1_555
H2 C6 1_555 1_555
H3 C6 1_555 1_555
C7 C3 1_555 1_555
H4 C7 1_555 1_555
H5 C7 1_555 1_555
H6 C7 1_555 1_555
C8 N1 1_555 1_555
C9 C8 1_555 1_555
H7 C9 1_555 1_555
C10 C9 1_555 1_555
H8 C10 1_555 1_555
C11 C10 1_555 1_555
C12 C11 1_555 1_555
H9 C12 1_555 1_555
C13 C8 1_555 1_555
H10 C13 1_555 1_555
C14 O2 1_555 1_555
H11 C14 1_555 1_555
H12 C14 1_555 1_555
H13 C14 1_555 1_555
C15 C2 1_555 1_555
C16 C15 1_555 1_555
H14 C16 1_555 1_555
C17 C16 1_555 1_555
H15 C17 1_555 1_555
C18 C17 1_555 1_555
H16 C18 1_555 1_555
C19 N4 1_555 1_555
H17 C19 1_555 1_555
C20 C5 1_555 1_555
C21 C20 1_555 1_555
H18 C21 1_555 1_555
C22 C21 1_555 1_555
H19 C22 1_555 1_555
C23 C22 1_555 1_555
H20 C23 1_555 1_555
C24 N5 1_555 1_555
H21 C24 1_555 1_555
C1 C5 1_555 1_555
C12 C13 1_555 1_555
C18 C19 1_555 1_555
C23 C24 1_555 1_555

#END
