
#######################################################################
#
#                 Cambridge Crystallographic Data Centre
#                                CCDC 
#
#######################################################################
#
# If this CIF has been generated from an entry in the Cambridge 
# Structural Database, then it will include bibliographic, chemical, 
# crystal, experimental, refinement or atomic coordinate data resulting 
# from the CCDC's data processing and validation procedures.
#
#######################################################################

data_KAQVIJ
_chemical_formula_moiety         'C40 H42 N4 O4,0.5(C1 H4 O1)'
_chemical_name_systematic        
"6-(3,3-Diethyl-1-(4-methoxyphenyl)-4-oxoazetidin-2-yl)-3,3-diethyl-1-(4-methoxyphenyl)-8-(pyridin-4-yl)-3,6-dihydropyrrolo[3',2':3,4]cyclopenta[1,2-c]pyridin-2(1H)-one methanol solvate"
_symmetry_cell_setting           triclinic
_symmetry_space_group_name_H-M   'P -1'
_symmetry_Int_Tables_number      2
_space_group_name_Hall           '-P 1'
loop_
_symmetry_equiv_pos_site_id
_symmetry_equiv_pos_as_xyz
1 x,y,z
2 -x,-y,-z
_cell_length_a                   11.7220(17)
_cell_length_b                   11.8090(18)
_cell_length_c                   14.7910(18)
_cell_angle_alpha                96.802(8)
_cell_angle_beta                 93.368(2)
_cell_angle_gamma                119.634(9)
_cell_volume                     1750.72
_exptl_crystal_colour            colorless
_exptl_crystal_description       prism
_cell_formula_units_Z            2
loop_
_atom_site_label
_atom_site_type_symbol
_atom_site_fract_x
_atom_site_fract_y
_atom_site_fract_z
O1 O 0.79733(14) 1.21865(14) 0.31422(11)
O2 O -0.11875(15) 0.21857(14) 0.01310(10)
O3 O 1.03525(15) 1.14651(16) 0.68080(11)
O4 O -0.45159(14) 0.53439(15) 0.14608(10)
N1 N 0.67089(15) 1.02877(15) 0.37380(11)
N2 N -0.07057(15) 0.38227(15) 0.14082(11)
N3 N 0.14500(15) 0.55778(15) 0.22337(11)
N4 N 0.5329(3) 0.61513(19) 0.59453(14)
C1 C 0.6950(2) 1.11255(19) 0.30995(14)
C2 C 0.57458(19) 1.05413(18) 0.23493(13)
C3 C 0.48312(19) 0.92676(18) 0.26657(13)
C4 C 0.54398(18) 0.91490(18) 0.34717(13)
C5 C 0.46533(18) 0.79622(18) 0.37804(13)
C6 C 0.34798(18) 0.72924(17) 0.31008(13)
C7 C 0.36287(18) 0.81199(18) 0.24042(13)
C8 C 0.26063(19) 0.75998(18) 0.16526(13)
H1 H 0.2653 0.8122 0.1199
C9 C 0.15659(19) 0.63640(19) 0.15807(13)
H2 H 0.0894 0.6023 0.1068
C10 C 0.23893(18) 0.60412(18) 0.29850(13)
H3 H 0.2289 0.5495 0.3432
C11 C 0.76186(18) 1.06059(18) 0.45434(14)
C12 C 0.7218(2) 1.05587(19) 0.54030(14)
H4 H 0.6332 1.0333 0.5464
C13 C 0.8099(2) 1.08376(19) 0.61813(14)
H5 H 0.7811 1.0781 0.6770
C14 C 0.9401(2) 1.1198(2) 0.60925(15)
C15 C 0.9808(2) 1.1281(3) 0.52296(17)
H6 H 1.0707 1.1555 0.5171
C16 C 0.8928(2) 1.0972(2) 0.44568(16)
H7 H 0.9212 1.1008 0.3867
C17 C 0.5249(2) 1.15418(19) 0.24020(15)
H8 H 0.5034 1.1666 0.3030
H9 H 0.5984 1.2404 0.2307
C18 C 0.4045(2) 1.1163(2) 0.17195(17)
H10 H 0.4239 1.1034 0.1093
H11 H 0.3832 1.1871 0.1794
H12 H 0.3289 1.0342 0.1832
C19 C 0.6174(2) 1.0353(2) 0.14019(14)
H13 H 0.5414 1.0056 0.0921
H14 H 0.6892 1.1220 0.1298
C20 C 0.6656(2) 0.9366(2) 0.12875(16)
H15 H 0.7369 0.9614 0.1785
H16 H 0.6989 0.9370 0.0695
H17 H 0.5920 0.8479 0.1310
C21 C 0.9996(2) 1.1441(2) 0.77129(15)
H18 H 0.9759 1.2121 0.7869
H19 H 1.0747 1.1615 0.8151
H20 H 0.9237 1.0570 0.7741
C22 C -0.05460(19) 0.29104(19) 0.08367(13)
C23 C 0.06681(19) 0.31574(18) 0.14714(13)
C24 C 0.04120(18) 0.41752(18) 0.20904(13)
H21 H 0.0118 0.3878 0.2683
C25 C -0.16819(18) 0.41967(18) 0.14409(13)
C26 C -0.16314(19) 0.50240(18) 0.22083(13)
H22 H -0.0951 0.5328 0.2712
C27 C -0.2585(2) 0.54132(19) 0.22426(14)
H23 H -0.2554 0.5973 0.2772
C28 C -0.35680(19) 0.49834(19) 0.15064(14)
C29 C -0.3614(2) 0.4153(2) 0.07396(14)
H24 H -0.4292 0.3854 0.0235
C30 C -0.26826(19) 0.37568(19) 0.07014(14)
H25 H -0.2724 0.3187 0.0174
C31 C -0.4529(2) 0.6140(2) 0.22670(16)
H26 H -0.4708 0.5648 0.2780
H27 H -0.5222 0.6360 0.2150
H28 H -0.3666 0.6955 0.2422
C32 C 0.0377(2) 0.19585(19) 0.19262(14)
H29 H -0.0501 0.1610 0.2141
H30 H 0.0332 0.1256 0.1462
C33 C 0.1406(2) 0.2274(2) 0.27323(15)
H31 H 0.2267 0.2559 0.2517
H32 H 0.1145 0.1483 0.3012
H33 H 0.1472 0.2983 0.3189
C34 C 0.1969(2) 0.3752(2) 0.10511(15)
H34 H 0.2068 0.4509 0.0767
H35 H 0.2720 0.4094 0.1548
C35 C 0.2038(2) 0.2760(2) 0.03260(16)
H36 H 0.2010 0.2041 0.0612
H37 H 0.2865 0.3206 0.0060
H38 H 0.1283 0.2397 -0.0160
C36 C 0.4903(2) 0.73793(18) 0.45347(13)
C37 C 0.3911(2) 0.6687(2) 0.50693(14)
H39 H 0.3071 0.6622 0.4969
C38 C 0.4174(3) 0.6101(2) 0.57453(16)
H40 H 0.3484 0.5628 0.6094
C39 C 0.6264(3) 0.6807(2) 0.54289(17)
H41 H 0.7093 0.6854 0.5547
C40 C 0.6104(2) 0.7423(2) 0.47340(15)
H42 H 0.6811 0.7875 0.4392
O5? O 1.0160(5) 0.4307(5) 0.4332(3)
H43? H 0.9432 0.3612 0.4139
C41? C 0.9925(10) 0.5309(8) 0.4776(5)
H44? H 1.0271 0.5526 0.5431
H45? H 0.8970 0.4980 0.4707
H46? H 1.0372 0.6103 0.4494
loop_
_geom_bond_atom_site_label_1
_geom_bond_atom_site_label_2
_geom_bond_site_symmetry_1
_geom_bond_site_symmetry_2
O1 C1 1_555 1_555
O2 C22 1_555 1_555
O3 C14 1_555 1_555
O4 C28 1_555 1_555
N1 C1 1_555 1_555
N2 C22 1_555 1_555
N3 C9 1_555 1_555
N4 C38 1_555 1_555
C1 C2 1_555 1_555
C2 C3 1_555 1_555
C3 C4 1_555 1_555
C4 N1 1_555 1_555
C5 C4 1_555 1_555
C6 C5 1_555 1_555
C7 C3 1_555 1_555
C8 C7 1_555 1_555
H1 C8 1_555 1_555
C9 C8 1_555 1_555
H2 C9 1_555 1_555
C10 N3 1_555 1_555
H3 C10 1_555 1_555
C11 N1 1_555 1_555
C12 C11 1_555 1_555
H4 C12 1_555 1_555
C13 C12 1_555 1_555
H5 C13 1_555 1_555
C14 C13 1_555 1_555
C15 C14 1_555 1_555
H6 C15 1_555 1_555
C16 C11 1_555 1_555
H7 C16 1_555 1_555
C17 C2 1_555 1_555
H8 C17 1_555 1_555
H9 C17 1_555 1_555
C18 C17 1_555 1_555
H10 C18 1_555 1_555
H11 C18 1_555 1_555
H12 C18 1_555 1_555
C19 C2 1_555 1_555
H13 C19 1_555 1_555
H14 C19 1_555 1_555
C20 C19 1_555 1_555
H15 C20 1_555 1_555
H16 C20 1_555 1_555
H17 C20 1_555 1_555
C21 O3 1_555 1_555
H18 C21 1_555 1_555
H19 C21 1_555 1_555
H20 C21 1_555 1_555
C22 C23 1_555 1_555
C23 C24 1_555 1_555
C24 N2 1_555 1_555
H21 C24 1_555 1_555
C25 N2 1_555 1_555
C26 C25 1_555 1_555
H22 C26 1_555 1_555
C27 C26 1_555 1_555
H23 C27 1_555 1_555
C28 C27 1_555 1_555
C29 C28 1_555 1_555
H24 C29 1_555 1_555
C30 C25 1_555 1_555
H25 C30 1_555 1_555
C31 O4 1_555 1_555
H26 C31 1_555 1_555
H27 C31 1_555 1_555
H28 C31 1_555 1_555
C32 C23 1_555 1_555
H29 C32 1_555 1_555
H30 C32 1_555 1_555
C33 C32 1_555 1_555
H31 C33 1_555 1_555
H32 C33 1_555 1_555
H33 C33 1_555 1_555
C34 C23 1_555 1_555
H34 C34 1_555 1_555
H35 C34 1_555 1_555
C35 C34 1_555 1_555
H36 C35 1_555 1_555
H37 C35 1_555 1_555
H38 C35 1_555 1_555
C36 C5 1_555 1_555
C37 C36 1_555 1_555
H39 C37 1_555 1_555
C38 C37 1_555 1_555
H40 C38 1_555 1_555
C39 N4 1_555 1_555
H41 C39 1_555 1_555
C40 C36 1_555 1_555
H42 C40 1_555 1_555
N3 C24 1_555 1_555
C6 C7 1_555 1_555
C6 C10 1_555 1_555
C15 C16 1_555 1_555
C29 C30 1_555 1_555
C39 C40 1_555 1_555

#END
