
#######################################################################
#
#                 Cambridge Crystallographic Data Centre
#                                CCDC 
#
#######################################################################
#
# If this CIF has been generated from an entry in the Cambridge 
# Structural Database, then it will include bibliographic, chemical, 
# crystal, experimental, refinement or atomic coordinate data resulting 
# from the CCDC's data processing and validation procedures.
#
#######################################################################

data_KAQWOP
_chemical_compound_source        'seed kernels of Azadirachta excelsa'
_chemical_name_common            1,3-Diacetylazadirachtol
_chemical_formula_moiety         'C32 H40 O15'
_chemical_name_systematic        'Azadirachtin Q'
_chemical_properties_biological  
'activity against diamondback moth, Plutella xylostella'
_symmetry_cell_setting           orthorhombic
_symmetry_space_group_name_H-M   'P 21 21 21'
_symmetry_Int_Tables_number      19
_space_group_name_Hall           'P 2ac 2ab'
loop_
_symmetry_equiv_pos_site_id
_symmetry_equiv_pos_as_xyz
1 x,y,z
2 1/2-x,-y,1/2+z
3 1/2+x,1/2-y,-z
4 -x,1/2+y,1/2-z
_cell_length_a                   7.5715(2)
_cell_length_b                   9.4360(3)
_cell_length_c                   43.9343(13)
_cell_angle_alpha                90
_cell_angle_beta                 90
_cell_angle_gamma                90
_cell_volume                     3138.87
_exptl_crystal_colour            colorless
_exptl_crystal_description       Prism
_chemical_melting_point          '218-219 deg.C'
_cell_formula_units_Z            4
loop_
_atom_site_label
_atom_site_type_symbol
_atom_site_fract_x
_atom_site_fract_y
_atom_site_fract_z
O1 O -0.0427(3) 0.0857(2) 0.10995(5)
O2 O -0.0420(3) -0.0712(3) 0.16538(5)
O3 O 0.2022(3) 0.3944(2) 0.14956(6)
O4 O -0.0192(3) 0.3010(3) 0.19969(5)
O5 O 0.0371(4) -0.1406(3) 0.04948(6)
C1 C 0.3406(4) 0.1642(4) 0.15117(7)
C2 C 0.1734(4) 0.0970(3) 0.16256(7)
C3 C 0.2620(4) 0.0285(3) 0.09974(7)
O6 O 0.6284(3) 0.1083(4) 0.13308(7)
C4 C 0.2795(5) -0.0049(4) 0.21387(8)
O7 O 0.3287(4) 0.1691(3) 0.05135(6)
C5 C 0.3414(4) 0.1628(4) 0.11574(7)
O8 O -0.2422(5) 0.1720(3) 0.04065(7)
C6 C 0.3395(4) 0.3165(4) 0.16476(8)
C7 C -0.0358(5) -0.0007(4) 0.19504(8)
O9 O 0.3847(4) 0.0415(4) 0.23162(6)
C8 C 0.2217(5) 0.0601(4) 0.06581(8)
O10 O -0.2513(5) -0.1625(3) 0.03388(8)
C9 C 0.1182(4) -0.0406(3) 0.14913(7)
C10 C -0.1289(6) 0.0669(4) 0.02669(8)
O11 O 0.0137(4) 0.4747(4) 0.23417(6)
C11 C 0.1413(4) 0.2325(4) 0.21044(8)
C12 C 0.3030(4) 0.3143(4) 0.19937(8)
C13 C 0.0857(4) -0.0184(3) 0.11522(7)
C14 C 0.1407(4) 0.0811(4) 0.19680(7)
C15 C -0.1259(6) -0.0660(4) 0.04735(9)
O12 O 0.2698(5) -0.1412(3) 0.20689(7)
O13 O 0.5250(4) 0.4052(3) 0.08601(7)
C16 C 0.2201(5) 0.5290(4) 0.14522(10)
C17 C 0.5187(4) 0.0930(5) 0.15907(9)
C18 C 0.5396(4) 0.1812(4) 0.10912(9)
C19 C 0.1779(6) 0.0123(4) 0.01246(8)
O14 O 0.7173(4) 0.3817(4) 0.12372(8)
C20 C 0.1351(5) 0.1842(4) 0.05168(8)
C21 C 0.0538(6) 0.1321(4) 0.02170(8)
C22 C 0.6039(5) 0.3346(5) 0.10803(9)
C23 C 0.3892(5) -0.1010(4) 0.10041(9)
O15 O 0.3507(5) 0.5945(4) 0.15330(10)
C24 C -0.2161(7) 0.0090(5) -0.00089(9)
C25 C -0.0653(5) 0.4234(4) 0.21286(8)
C26 C 0.1968(5) -0.0630(4) 0.04288(9)
C27 C 0.0674(6) 0.3176(4) 0.06607(8)
C28 C 0.0665(6) 0.5932(5) 0.12888(12)
C29 C -0.2212(6) 0.4891(5) 0.19790(11)
C30 C 0.5892(8) 0.5465(5) 0.08069(13)
C31 C 0.3928(10) -0.2355(6) 0.22221(14)
C32 C -0.2782(8) -0.1149(6) 0.00436(11)
H1 H -0.1199 0.0794 0.1229
H2 H 0.0923 0.1698 0.1565
H3 H 0.2771 0.2448 0.1091
H4 H -0.3451 0.1455 0.0396
H5 H 0.4519 0.3606 0.1612
H6 H -0.1338 0.0633 0.1968
H7 H -0.0424 -0.0707 0.2108
H8 H 0.2093 -0.1098 0.1523
H9 H 0.1437 0.2298 0.2323
H10 H 0.4017 0.2724 0.2097
H11 H 0.2867 0.4097 0.2064
H12 H 0.0467 -0.1065 0.1066
H13 H -0.1678 -0.0410 0.0672
H14 H 0.5699 0.1402 0.1763
H15 H 0.4975 -0.0046 0.1640
H16 H 0.5644 0.1405 0.0896
H17 H 0.1238 -0.0446 -0.0030
H18 H 0.2850 0.0532 0.0047
H19 H 0.0494 0.2028 0.0060
H20 H 0.3344 -0.1804 0.0906
H21 H 0.4147 -0.1249 0.1212
H22 H 0.4969 -0.0776 0.0901
H23 H -0.2183 0.0655 -0.0190
H24 H -0.0593 0.3182 0.0653
H25 H 0.1124 0.3970 0.0548
H26 H 0.1057 0.3240 0.0868
H27 H 0.0878 0.6923 0.1256
H28 H -0.0373 0.5816 0.1412
H29 H 0.0494 0.5469 0.1097
H30 H -0.2514 0.5765 0.2078
H31 H -0.3190 0.4247 0.1992
H32 H -0.1942 0.5073 0.1769
H33 H 0.5249 0.5907 0.0644
H34 H 0.7126 0.5440 0.0757
H35 H 0.5727 0.5997 0.0991
H36 H 0.3721 -0.3313 0.2158
H37 H 0.3760 -0.2286 0.2438
H38 H 0.5116 -0.2087 0.2172
H39 H -0.3426 -0.1732 -0.0097
loop_
_geom_bond_atom_site_label_1
_geom_bond_atom_site_label_2
_geom_bond_site_symmetry_1
_geom_bond_site_symmetry_2
O1 C13 1_555 1_555
O2 C7 1_555 1_555
O3 C6 1_555 1_555
O4 C11 1_555 1_555
O5 C15 1_555 1_555
C1 C2 1_555 1_555
C2 C9 1_555 1_555
C3 C5 1_555 1_555
O6 C17 1_555 1_555
C4 O9 1_555 1_555
O7 C8 1_555 1_555
C5 C1 1_555 1_555
O8 C10 1_555 1_555
C6 C1 1_555 1_555
C7 C14 1_555 1_555
C8 C3 1_555 1_555
O10 C15 1_555 1_555
C9 O2 1_555 1_555
C10 C15 1_555 1_555
O11 C25 1_555 1_555
C11 C12 1_555 1_555
C12 C6 1_555 1_555
C13 C3 1_555 1_555
C14 C2 1_555 1_555
C15 H13 1_555 1_555
O12 C4 1_555 1_555
O13 C22 1_555 1_555
C16 O3 1_555 1_555
C17 C1 1_555 1_555
C18 O6 1_555 1_555
C19 C21 1_555 1_555
O14 C22 1_555 1_555
C20 O7 1_555 1_555
C21 C10 1_555 1_555
C22 C18 1_555 1_555
C23 C3 1_555 1_555
O15 C16 1_555 1_555
C24 C10 1_555 1_555
C25 O4 1_555 1_555
C26 O5 1_555 1_555
C27 C20 1_555 1_555
C28 C16 1_555 1_555
C29 C25 1_555 1_555
C30 O13 1_555 1_555
C31 O12 1_555 1_555
C32 O10 1_555 1_555
H1 O1 1_555 1_555
H2 C2 1_555 1_555
H3 C5 1_555 1_555
H4 O8 1_555 1_555
H5 C6 1_555 1_555
H6 C7 1_555 1_555
H7 C7 1_555 1_555
H8 C9 1_555 1_555
H9 C11 1_555 1_555
H10 C12 1_555 1_555
H11 C12 1_555 1_555
H12 C13 1_555 1_555
H14 C17 1_555 1_555
H15 C17 1_555 1_555
H16 C18 1_555 1_555
H17 C19 1_555 1_555
H18 C19 1_555 1_555
H19 C21 1_555 1_555
H20 C23 1_555 1_555
H21 C23 1_555 1_555
H22 C23 1_555 1_555
H23 C24 1_555 1_555
H24 C27 1_555 1_555
H25 C27 1_555 1_555
H26 C27 1_555 1_555
H27 C28 1_555 1_555
H28 C28 1_555 1_555
H29 C28 1_555 1_555
H30 C29 1_555 1_555
H31 C29 1_555 1_555
H32 C29 1_555 1_555
H33 C30 1_555 1_555
H34 C30 1_555 1_555
H35 C30 1_555 1_555
H36 C31 1_555 1_555
H37 C31 1_555 1_555
H38 C31 1_555 1_555
H39 C32 1_555 1_555
C4 C14 1_555 1_555
C5 C18 1_555 1_555
C8 C20 1_555 1_555
C8 C26 1_555 1_555
C9 C13 1_555 1_555
C11 C14 1_555 1_555
C19 C26 1_555 1_555
C20 C21 1_555 1_555
C24 C32 1_555 1_555

#END
