
#######################################################################
#
#                 Cambridge Crystallographic Data Centre
#                                CCDC 
#
#######################################################################
#
# If this CIF has been generated from an entry in the Cambridge 
# Structural Database, then it will include bibliographic, chemical, 
# crystal, experimental, refinement or atomic coordinate data resulting 
# from the CCDC's data processing and validation procedures.
#
#######################################################################

data_KAQXIM
_chemical_formula_moiety         'C22 H24 O6'
_chemical_name_systematic        
9-(3,4-dimethoxyphenyl)-6,7-dimethoxy-3,3a,9,9a-tetrahydronaphtho[2,3-c]furan-4(1H)-one
_symmetry_cell_setting           monoclinic
_symmetry_space_group_name_H-M   'P 21/c'
_symmetry_Int_Tables_number      14
_space_group_name_Hall           '-P 2ybc'
loop_
_symmetry_equiv_pos_site_id
_symmetry_equiv_pos_as_xyz
1 x,y,z
2 -x,1/2+y,1/2-z
3 -x,-y,-z
4 x,1/2-y,1/2+z
_cell_length_a                   12.7894(9)
_cell_length_b                   10.6893(7)
_cell_length_c                   14.2151(10)
_cell_angle_alpha                90
_cell_angle_beta                 99.5700(10)
_cell_angle_gamma                90
_cell_volume                     1916.3
_exptl_crystal_colour            'light colorless'
_exptl_crystal_description       block
_cell_formula_units_Z            4
_exptl_crystal_recrystallization_method 'solvent penetration'
_exptl_crystal_preparation       'solvent penetration'
loop_
_atom_site_label
_atom_site_type_symbol
_atom_site_fract_x
_atom_site_fract_y
_atom_site_fract_z
O1 O 0.22460(8) 0.12834(10) 0.17421(8)
O2 O 0.07884(9) 0.29755(10) 0.14770(8)
O3 O 0.02497(10) -0.29083(11) 0.12880(10)
O4 O -0.3113(2) -0.3367(2) 0.0710(2)
O5 O -0.32449(9) 0.21822(11) 0.35966(8)
O6 O -0.47511(9) 0.32886(11) 0.24704(9)
C1 C 0.30675(12) 0.03764(16) 0.20049(13)
H1 H 0.3065 -0.0209 0.1492
H2 H 0.2946 -0.0061 0.2567
H3 H 0.3742 0.0791 0.2132
C2 C 0.12286(11) 0.08420(14) 0.15427(10)
C3 C 0.09349(12) -0.03991(14) 0.14682(10)
H4 H 0.1454 -0.1018 0.1553
C4 C -0.01418(12) -0.07402(14) 0.12649(10)
C5 C -0.09324(11) 0.01765(14) 0.11406(10)
C6 C -0.06254(12) 0.14349(14) 0.11959(10)
H5 H -0.1142 0.2055 0.1096
C7 C 0.04299(12) 0.17734(14) 0.13951(10)
C8 C 0.00185(13) 0.39475(15) 0.12288(12)
H6 H -0.0315 0.3847 0.0577
H7 H 0.0363 0.4747 0.1307
H8 H -0.0508 0.3898 0.1636
C9 C -0.04092(12) -0.20923(14) 0.11721(11)
C10 C -0.1520(2) -0.2303(2) 0.0716(2)
H9 H -0.1615 -0.2058 0.0043
C11 C -0.21097(12) -0.01548(15) 0.09199(11)
H10 H -0.2312 -0.0164 0.0224
C12 C -0.22865(13) -0.14700(16) 0.12728(17)
H11 H -0.2102 -0.1544 0.1968
C13 C -0.33579(15) -0.20599(17) 0.08833(18)
H12 H -0.3836 -0.1998 0.1344
H13 H -0.3681 -0.1654 0.0296
C14 C -0.1995(2) -0.3575(3) 0.0812(2)
H14 H -0.1948 -0.3860 0.1465
H15 H -0.1748 -0.4213 0.0415
C15 C -0.26538(11) 0.10761(13) 0.22807(10)
H16 H -0.2092 0.0707 0.2685
C16 C -0.25939(13) 0.13854(17) 0.42578(11)
H17 H -0.2784 0.0528 0.4118
H18 H -0.2698 0.1582 0.4895
H19 H -0.1863 0.1511 0.4204
C17 C -0.28167(11) 0.07949(14) 0.13024(11)
C18 C -0.36417(12) 0.13702(15) 0.07087(11)
H20 H -0.3761 0.1186 0.0060
C19 C -0.42999(12) 0.22262(16) 0.10715(12)
H21 H -0.4843 0.2621 0.0662
C20 C -0.41464(11) 0.24875(14) 0.20368(11)
C21 C -0.33161(12) 0.18927(13) 0.26517(10)
C22 C -0.55646(15) 0.39436(19) 0.18651(16)
H22 H -0.5259 0.4420 0.1406
H23 H -0.5919 0.4498 0.2241
H24 H -0.6066 0.3356 0.1539
O7? O -0.3248(4) -0.2916(6) 0.0319(4)
C23? C -0.1573(3) -0.2548(3) 0.1242(3)
H25? H -0.1588 -0.3130 0.1772
H26? H -0.2305 -0.1358 0.1954
H27? H -0.3674 -0.2389 0.1407
H28? H -0.3830 -0.1428 0.0559
C24? C -0.2153(3) -0.3062(4) 0.0289(3)
H29? H -0.2280 -0.2435 -0.0210
H30? H -0.1813 -0.3793 0.0070
loop_
_geom_bond_atom_site_label_1
_geom_bond_atom_site_label_2
_geom_bond_site_symmetry_1
_geom_bond_site_symmetry_2
O1 C1 1_555 1_555
O2 C7 1_555 1_555
O3 C9 1_555 1_555
O4 C13 1_555 1_555
O5 C16 1_555 1_555
O6 C20 1_555 1_555
C1 H1 1_555 1_555
H2 C1 1_555 1_555
H3 C1 1_555 1_555
C2 O1 1_555 1_555
C3 C2 1_555 1_555
H4 C3 1_555 1_555
C4 C3 1_555 1_555
C5 C4 1_555 1_555
C6 C5 1_555 1_555
H5 C6 1_555 1_555
C7 C2 1_555 1_555
C8 O2 1_555 1_555
H6 C8 1_555 1_555
H7 C8 1_555 1_555
H8 C8 1_555 1_555
C9 C4 1_555 1_555
C10 C9 1_555 1_555
H9 C10 1_555 1_555
C11 C5 1_555 1_555
H10 C11 1_555 1_555
C12 C10 1_555 1_555
H11 C12 1_555 1_555
C13 C12 1_555 1_555
H12 C13 1_555 1_555
H13 C13 1_555 1_555
C14 O4 1_555 1_555
H14 C14 1_555 1_555
H15 C14 1_555 1_555
C15 H16 1_555 1_555
C16 H17 1_555 1_555
H18 C16 1_555 1_555
H19 C16 1_555 1_555
C17 C11 1_555 1_555
C18 C17 1_555 1_555
H20 C18 1_555 1_555
C19 C18 1_555 1_555
H21 C19 1_555 1_555
C20 C19 1_555 1_555
C21 O5 1_555 1_555
C22 O6 1_555 1_555
H22 C22 1_555 1_555
H23 C22 1_555 1_555
H24 C22 1_555 1_555
C6 C7 1_555 1_555
C10 C14 1_555 1_555
C11 C12 1_555 1_555
C15 C17 1_555 1_555
C15 C21 1_555 1_555
C20 C21 1_555 1_555

#END
