
#######################################################################
#
#                 Cambridge Crystallographic Data Centre
#                                CCDC 
#
#######################################################################
#
# If this CIF has been generated from an entry in the Cambridge 
# Structural Database, then it will include bibliographic, chemical, 
# crystal, experimental, refinement or atomic coordinate data resulting 
# from the CCDC's data processing and validation procedures.
#
#######################################################################

data_KARCIQ
_chemical_formula_moiety         'C12 H10 N2,C10 F8'
_chemical_name_systematic        'octafluoronaphthalene trans-azobenzene'
_symmetry_cell_setting           triclinic
_symmetry_space_group_name_H-M   'P -1'
_symmetry_Int_Tables_number      2
_space_group_name_Hall           '-P 1'
loop_
_symmetry_equiv_pos_site_id
_symmetry_equiv_pos_as_xyz
1 x,y,z
2 -x,-y,-z
_cell_length_a                   6.5167(7)
_cell_length_b                   7.0987(7)
_cell_length_c                   10.5549(11)
_cell_angle_alpha                93.94(1)
_cell_angle_beta                 104.90(1)
_cell_angle_gamma                101.20(1)
_cell_volume                     459.227
_exptl_crystal_colour            orange
_exptl_crystal_description       block
_chemical_melting_point          '402 K'
_cell_formula_units_Z            1
loop_
_atom_site_label
_atom_site_type_symbol
_atom_site_fract_x
_atom_site_fract_y
_atom_site_fract_z
F1 F 0.73927(13) 0.50037(13) 0.29008(8)
F2 F 0.35538(15) 0.29965(13) 0.13401(7)
F3 F 0.00843(13) 0.20710(13) 0.22855(8)
F4 F 0.03616(13) 0.30688(12) 0.48247(8)
C7 C 0.5694(2) 0.46055(18) 0.34114(12)
C8 C 0.3764(2) 0.35821(18) 0.26041(12)
C9 C 0.1952(2) 0.30999(18) 0.30971(13)
C10 C 0.2118(2) 0.36431(18) 0.43857(13)
C11 C 0.59277(19) 0.52473(16) 0.47484(11)
F1A F 0.26073(13) 0.49963(13) 0.70992(8)
F2A F 0.64462(15) 0.70035(13) 0.86599(7)
F3A F 0.99157(13) 0.79290(13) 0.77145(8)
F4A F 0.96384(13) 0.69312(12) 0.51753(8)
C7A C 0.4306(2) 0.53945(18) 0.65886(12)
C8A C 0.6236(2) 0.64179(18) 0.73959(12)
C9A C 0.8048(2) 0.69001(18) 0.69029(13)
C10A C 0.7882(2) 0.63569(18) 0.56143(13)
C11A C 0.40723(19) 0.47527(16) 0.52516(11)
N1 N 0.40580(18) 0.96367(16) 0.46547(11)
C1 C 0.3905(2) 0.89865(17) 0.33148(12)
C2 C 0.1838(2) 0.8085(2) 0.25409(14)
H1 H 0.0633 0.7930 0.2909
C3 C 0.1514(3) 0.7405(2) 0.12233(14)
H2 H 0.0093 0.6787 0.0689
C4 C 0.3260(3) 0.7630(2) 0.06889(13)
H3 H 0.3048 0.7155 -0.0211
C5 C 0.5330(3) 0.8540(2) 0.14584(14)
H4 H 0.6529 0.8697 0.1085
C6 C 0.5670(2) 0.92231(19) 0.27715(13)
H5 H 0.7089 0.9855 0.3301
N1A N 0.59420(18) 1.03633(16) 0.53453(11)
C1A C 0.6095(2) 1.10135(17) 0.66852(12)
C2A C 0.8162(2) 1.1915(2) 0.74591(14)
H1A H 0.9367 1.2070 0.7091
C3A C 0.8486(3) 1.2595(2) 0.87767(14)
H2A H 0.9907 1.3213 0.9311
C4A C 0.6740(3) 1.2370(2) 0.93111(13)
H3A H 0.6952 1.2845 1.0211
C5A C 0.4670(3) 1.1460(2) 0.85416(14)
H4A H 0.3471 1.1303 0.8915
C6A C 0.4330(2) 1.07769(19) 0.72285(13)
H5A H 0.2911 1.0145 0.6699
loop_
_geom_bond_atom_site_label_1
_geom_bond_atom_site_label_2
_geom_bond_site_symmetry_1
_geom_bond_site_symmetry_2
F1 C7 1_555 1_555
F2 C8 1_555 1_555
F3 C9 1_555 1_555
F4 C10 1_555 1_555
N1 C1 1_555 1_555
C1 C2 1_555 1_555
C2 H1 1_555 1_555
C3 C2 1_555 1_555
H2 C3 1_555 1_555
C4 C3 1_555 1_555
H3 C4 1_555 1_555
C5 C4 1_555 1_555
H4 C5 1_555 1_555
C6 C1 1_555 1_555
H5 C6 1_555 1_555
C7 C8 1_555 1_555
C8 C9 1_555 1_555
C9 C10 1_555 1_555
C10 C11A 1_555 1_555
C11 C7 1_555 1_555
F1A C7A 1_555 1_555
F2A C8A 1_555 1_555
F3A C9A 1_555 1_555
F4A C10A 1_555 1_555
N1A N1 1_555 1_555
C1A N1A 1_555 1_555
C2A C1A 1_555 1_555
H1A C2A 1_555 1_555
C3A C2A 1_555 1_555
H2A C3A 1_555 1_555
C4A C3A 1_555 1_555
H3A C4A 1_555 1_555
C5A C4A 1_555 1_555
H4A C5A 1_555 1_555
C6A C1A 1_555 1_555
H5A C6A 1_555 1_555
C7A C8A 1_555 1_555
C8A C9A 1_555 1_555
C9A C10A 1_555 1_555
C10A C11 1_555 1_555
C11A C11 1_555 1_555
C5 C6 1_555 1_555
C5A C6A 1_555 1_555
C7A C11A 1_555 1_555

#END
