
#######################################################################
#
#                 Cambridge Crystallographic Data Centre
#                                CCDC 
#
#######################################################################
#
# If this CIF has been generated from an entry in the Cambridge 
# Structural Database, then it will include bibliographic, chemical, 
# crystal, experimental, refinement or atomic coordinate data resulting 
# from the CCDC's data processing and validation procedures.
#
#######################################################################

data_KARLUN
_chemical_formula_moiety         'C22 H20 Br1 F3 N2 O6'
_chemical_name_systematic        
'4-ethyl 2-methyl 5-(4-bromophenyl)-3-(4-nitrophenyl)-4-(trifluoromethyl)pyrrolidine-2,4-dicarboxylate'
_symmetry_cell_setting           tetragonal
_symmetry_space_group_name_H-M   'P 41 21 2'
_symmetry_Int_Tables_number      92
_space_group_name_Hall           'P 4abw 2nw'
loop_
_symmetry_equiv_pos_site_id
_symmetry_equiv_pos_as_xyz
1 x,y,z
2 -x,-y,1/2+z
3 1/2-y,1/2+x,1/4+z
4 1/2+y,1/2-x,3/4+z
5 1/2-x,1/2+y,1/4-z
6 1/2+x,1/2-y,3/4-z
7 y,x,-z
8 -y,-x,1/2-z
_cell_length_a                   8.6873(3)
_cell_length_b                   8.6873(3)
_cell_length_c                   60.377(3)
_cell_angle_alpha                90
_cell_angle_beta                 90
_cell_angle_gamma                90
_cell_volume                     4556.6
_exptl_crystal_colour            colorless
_exptl_crystal_description       block
_cell_formula_units_Z            8
loop_
_atom_site_label
_atom_site_type_symbol
_atom_site_fract_x
_atom_site_fract_y
_atom_site_fract_z
Br1 Br 0.74561(7) -0.00202(8) 0.121535(8)
F1 F -0.0337(3) -0.3567(3) 0.18915(4)
F2 F -0.1727(3) -0.1909(3) 0.17171(4)
F3 F 0.0225(3) -0.2945(3) 0.15577(4)
O1 O 0.0067(4) 0.3369(4) 0.21159(6)
O2 O -0.2438(4) 0.3045(4) 0.20559(6)
O3 O 0.3002(4) -0.0992(4) 0.20636(5)
O4 O 0.2794(4) -0.2811(3) 0.17999(5)
O5 O -0.5324(5) -0.2741(6) 0.26653(6)
O6 O -0.3268(5) -0.3598(5) 0.28254(6)
N1 N 0.0498(4) 0.1634(4) 0.17240(6)
H1 H 0.0872 0.2543 0.1688
N2 N -0.3930(5) -0.2915(5) 0.26745(7)
C1 C 0.2576(5) 0.0155(5) 0.15363(6)
C2 C 0.2857(5) -0.0756(5) 0.13511(7)
H2 H 0.2040 -0.1336 0.1288
C3 C 0.4307(6) -0.0831(6) 0.12576(7)
H3 H 0.4499 -0.1473 0.1133
C4 C 0.5471(5) 0.0046(6) 0.13485(7)
C5 C 0.5216(6) 0.0977(6) 0.15282(8)
H4 H 0.6023 0.1591 0.1587
C6 C 0.3776(6) 0.1008(5) 0.16220(7)
H5 H 0.3603 0.1631 0.1749
C7 C -0.1167(5) -0.0877(5) 0.21777(7)
C8 C -0.2761(5) -0.0696(5) 0.21743(7)
H6 H -0.3227 -0.0100 0.2061
C9 C -0.3671(5) -0.1375(5) 0.23350(8)
H7 H -0.4758 -0.1262 0.2332
C10 C -0.2967(5) -0.2218(5) 0.25000(7)
C11 C -0.1406(5) -0.2456(6) 0.25054(7)
H8 H -0.0953 -0.3069 0.2618
C12 C -0.0509(5) -0.1785(5) 0.23431(7)
H9 H 0.0573 -0.1944 0.2344
C13 C -0.0725(5) 0.1313(5) 0.18816(7)
H10 H -0.1700 0.1037 0.1803
C14 C -0.0098(5) -0.0084(5) 0.20146(6)
H11 H 0.0750 0.0348 0.2108
C15 C 0.0731(5) -0.1072(5) 0.18350(7)
C16 C 0.0979(5) 0.0152(5) 0.16371(6)
H12 H 0.0242 -0.0128 0.1516
C17 C -0.0970(5) 0.2696(5) 0.20315(7)
C18 C -0.2725(7) 0.4316(6) 0.22089(10)
H13 H -0.3834 0.4515 0.2217
H14 H -0.2195 0.5241 0.2156
H15 H -0.2339 0.4043 0.2356
C19 C 0.2285(5) -0.1626(5) 0.19216(7)
C20 C 0.4373(6) -0.3309(6) 0.18455(8)
H16 H 0.4493 -0.3579 0.2004
H17 H 0.5112 -0.2480 0.1809
C21 C 0.4643(7) -0.4684(7) 0.17029(9)
H18 H 0.5688 -0.5073 0.1728
H19 H 0.4523 -0.4396 0.1547
H20 H 0.3895 -0.5488 0.1740
C22 C -0.0268(5) -0.2378(6) 0.17500(7)
loop_
_geom_bond_atom_site_label_1
_geom_bond_atom_site_label_2
_geom_bond_site_symmetry_1
_geom_bond_site_symmetry_2
Br1 C4 1_555 1_555
F1 C22 1_555 1_555
F2 C22 1_555 1_555
F3 C22 1_555 1_555
O1 C17 1_555 1_555
O2 C17 1_555 1_555
O3 C19 1_555 1_555
O4 C19 1_555 1_555
O5 N2 1_555 1_555
O6 N2 1_555 1_555
N1 H1 1_555 1_555
N2 C10 1_555 1_555
C1 C2 1_555 1_555
C2 H2 1_555 1_555
C3 C2 1_555 1_555
H3 C3 1_555 1_555
C4 C3 1_555 1_555
C5 C4 1_555 1_555
H4 C5 1_555 1_555
C6 C1 1_555 1_555
H5 C6 1_555 1_555
C7 C8 1_555 1_555
C8 H6 1_555 1_555
C9 C8 1_555 1_555
H7 C9 1_555 1_555
C10 C9 1_555 1_555
C11 C10 1_555 1_555
H8 C11 1_555 1_555
C12 C7 1_555 1_555
H9 C12 1_555 1_555
C13 N1 1_555 1_555
H10 C13 1_555 1_555
C14 C7 1_555 1_555
H11 C14 1_555 1_555
C15 C14 1_555 1_555
C16 N1 1_555 1_555
H12 C16 1_555 1_555
C17 C13 1_555 1_555
C18 O2 1_555 1_555
H13 C18 1_555 1_555
H14 C18 1_555 1_555
H15 C18 1_555 1_555
C19 C15 1_555 1_555
C20 O4 1_555 1_555
H16 C20 1_555 1_555
H17 C20 1_555 1_555
C21 C20 1_555 1_555
H18 C21 1_555 1_555
H19 C21 1_555 1_555
H20 C21 1_555 1_555
C22 C15 1_555 1_555
C1 C16 1_555 1_555
C5 C6 1_555 1_555
C11 C12 1_555 1_555
C13 C14 1_555 1_555
C15 C16 1_555 1_555

#END
