
#######################################################################
#
#                 Cambridge Crystallographic Data Centre
#                                CCDC 
#
#######################################################################
#
# If this CIF has been generated from an entry in the Cambridge 
# Structural Database, then it will include bibliographic, chemical, 
# crystal, experimental, refinement or atomic coordinate data resulting 
# from the CCDC's data processing and validation procedures.
#
#######################################################################

data_KARNOI
_chemical_formula_moiety         'C23 H23 Br1 N2 O4'
_chemical_name_systematic        
1-(4-Bromobenzoyl)-3-ethyl-3-(3-(3-nitrophenyl)prop-2-en-1-yl)piperidin-2-one
_symmetry_cell_setting           triclinic
_symmetry_space_group_name_H-M   'P 1'
_symmetry_Int_Tables_number      1
_space_group_name_Hall           'P 1'
loop_
_symmetry_equiv_pos_site_id
_symmetry_equiv_pos_as_xyz
1 x,y,z
_cell_length_a                   7.6908(3)
_cell_length_b                   9.4093(4)
_cell_length_c                   15.2774(6)
_cell_angle_alpha                72.754(2)
_cell_angle_beta                 80.131(2)
_cell_angle_gamma                88.671(2)
_cell_volume                     1039.77
_exptl_crystal_colour            colorless
_exptl_crystal_description       block
_cell_formula_units_Z            2
loop_
_atom_site_label
_atom_site_type_symbol
_atom_site_fract_x
_atom_site_fract_y
_atom_site_fract_z
Br1 Br 1.505096(12) 0.169504(11) -0.306920(8)
O1 O 0.69294(11) 0.34150(10) -0.12392(6)
O2 O 0.88032(14) 0.00800(10) 0.04217(7)
O3 O 0.88458(12) 0.05014(9) 0.62044(6)
O4 O 0.86080(14) -0.11568(11) 0.75473(7)
N1 N 0.76950(13) 0.24059(10) 0.01823(7)
N2 N 0.84982(14) -0.07679(12) 0.67204(7)
C1 C 1.28846(16) 0.19479(12) -0.23257(8)
C2 C 1.29069(16) 0.23005(12) -0.15095(8)
H1 H 1.3993 0.2426 -0.1321
C3 C 1.13106(16) 0.24660(12) -0.09739(8)
H2 H 1.1299 0.2672 -0.0401
C4 C 0.97243(15) 0.23319(12) -0.12705(8)
C5 C 0.97424(16) 0.19966(13) -0.20980(8)
H3 H 0.8661 0.1915 -0.2303
C6 C 1.13200(17) 0.17797(13) -0.26270(9)
H4 H 1.1331 0.1521 -0.3184
C7 C 0.79988(16) 0.27163(12) -0.07883(8)
C8 C 0.62373(17) 0.32536(14) 0.05457(9)
H5 H 0.5093 0.2831 0.0511
H6 H 0.6336 0.4302 0.0148
C9 C 0.62663(18) 0.32111(15) 0.15397(9)
H7 H 0.5155 0.3612 0.1792
H8 H 0.7259 0.3850 0.1555
C10 C 0.64707(17) 0.16353(14) 0.21427(8)
H9 H 0.5434 0.1016 0.2161
H10 H 0.6500 0.1646 0.2786
C11 C 0.81567(15) 0.09373(12) 0.17796(8)
C12 C 0.82456(14) 0.10633(12) 0.07539(8)
C13 C 0.81507(19) -0.07286(13) 0.23230(9)
H11 H 0.7103 -0.1227 0.2235
H12 H 0.9212 -0.1174 0.2056
C14 C 0.81264(17) -0.10384(13) 0.33478(8)
H13 H 0.8890 -0.0453 0.3539
C15 C 0.71075(17) -0.20763(14) 0.40020(8)
H14 H 0.6272 -0.2602 0.3814
C16 C 0.71860(16) -0.24677(13) 0.50025(8)
C17 C 0.67428(17) -0.39146(14) 0.55803(9)
H15 H 0.6314 -0.4623 0.5330
C18 C 0.69166(18) -0.43387(14) 0.65134(9)
H16 H 0.6624 -0.5333 0.6889
C19 C 0.75135(17) -0.33224(14) 0.68978(9)
H17 H 0.7654 -0.3604 0.7532
C20 C 0.78979(16) -0.18820(13) 0.63258(8)
C21 C 0.77474(16) -0.14322(13) 0.53942(8)
H18 H 0.8023 -0.0431 0.5026
C22 C 0.98181(16) 0.17812(14) 0.18475(9)
H19 H 0.9880 0.2787 0.1394
H20 H 0.9664 0.1909 0.2476
C23 C 1.15754(17) 0.10421(16) 0.16723(9)
H21 H 1.1614 0.0118 0.2177
H22 H 1.2545 0.1718 0.1648
H23 H 1.1696 0.0815 0.1079
Br2 Br -0.366669(13) 0.307339(11) 1.429302(9)
O5 O 0.43438(12) 0.65028(10) 1.25397(6)
O6 O 0.25380(13) 0.49117(10) 1.08158(7)
O7 O 0.28991(12) 1.12721(10) 0.50240(6)
O8 O 0.28835(15) 1.08797(11) 0.36993(7)
N3 N 0.35731(13) 0.69432(10) 1.11146(7)
N4 N 0.28090(14) 1.04407(12) 0.45463(7)
C24 C -0.15144(16) 0.40403(13) 1.35856(8)
C25 C -0.15692(16) 0.52056(13) 1.27844(8)
H24 H -0.2665 0.5531 1.2600
C26 C 0.00057(16) 0.58861(13) 1.22580(8)
H25 H -0.0002 0.6665 1.1696
C27 C 0.15986(16) 0.54284(12) 1.25518(8)
C28 C 0.16207(17) 0.42719(13) 1.33597(8)
H26 H 0.2710 0.3970 1.3561
C29 C 0.00466(18) 0.35495(14) 1.38795(9)
H27 H 0.0053 0.2736 1.4425
C30 C 0.32868(16) 0.62733(12) 1.20839(8)
C31 C 0.49419(17) 0.81532(14) 1.07748(9)
H28 H 0.6125 0.7714 1.0756
H29 H 0.4829 0.8755 1.1213
C32 C 0.4778(2) 0.91495(14) 0.98171(9)
H30 H 0.3699 0.9737 0.9856
H31 H 0.5807 0.9853 0.9574
C33 C 0.46895(17) 0.82362(14) 0.91611(9)
H32 H 0.5801 0.7695 0.9098
H33 H 0.4586 0.8913 0.8539
C34 C 0.31271(15) 0.71123(12) 0.94965(8)
C35 C 0.30600(15) 0.62058(12) 1.05159(8)
C36 C 0.33227(19) 0.60225(14) 0.89076(9)
H34 H 0.4475 0.5538 0.8947
H35 H 0.2386 0.5235 0.9176
C37 C 0.32098(16) 0.67489(14) 0.79003(8)
H36 H 0.3868 0.7651 0.7586
C38 C 0.22504(17) 0.62094(14) 0.74243(9)
H37 H 0.1523 0.5352 0.7755
C39 C 0.22225(16) 0.68332(13) 0.64235(8)
C40 C 0.1893(2) 0.58909(15) 0.59107(10)
H38 H 0.1638 0.4863 0.6220
C41 C 0.1932(2) 0.64310(16) 0.49582(10)
H39 H 0.1719 0.5767 0.4623
C42 C 0.22758(19) 0.79198(15) 0.44929(9)
H40 H 0.2320 0.8297 0.3839
C43 C 0.25532(16) 0.88403(13) 0.50115(8)
C44 C 0.25510(16) 0.83385(13) 0.59592(8)
H41 H 0.2770 0.9011 0.6287
C45 C 0.13548(17) 0.79319(14) 0.94347(9)
H42 H 0.1205 0.8521 0.9881
H43 H 0.1439 0.8642 0.8803
C46 C -0.02873(18) 0.69470(18) 0.96287(10)
H44 H -0.0243 0.6468 0.9137
H45 H -0.1338 0.7555 0.9644
H46 H -0.0341 0.6183 1.0231
loop_
_geom_bond_atom_site_label_1
_geom_bond_atom_site_label_2
_geom_bond_site_symmetry_1
_geom_bond_site_symmetry_2
Br1 C1 1_555 1_555
O1 C7 1_555 1_555
O2 C12 1_555 1_555
O3 N2 1_555 1_555
O4 N2 1_555 1_555
N1 C7 1_555 1_555
N2 C20 1_555 1_555
C1 C2 1_555 1_555
C2 H1 1_555 1_555
C3 C2 1_555 1_555
H2 C3 1_555 1_555
C4 C3 1_555 1_555
C5 C4 1_555 1_555
H3 C5 1_555 1_555
C6 C1 1_555 1_555
H4 C6 1_555 1_555
C7 C4 1_555 1_555
C8 N1 1_555 1_555
H5 C8 1_555 1_555
H6 C8 1_555 1_555
C9 C8 1_555 1_555
H7 C9 1_555 1_555
H8 C9 1_555 1_555
C10 C9 1_555 1_555
H9 C10 1_555 1_555
H10 C10 1_555 1_555
C11 C10 1_555 1_555
C12 N1 1_555 1_555
C13 C11 1_555 1_555
H11 C13 1_555 1_555
H12 C13 1_555 1_555
C14 C13 1_555 1_555
H13 C14 1_555 1_555
C15 C14 1_555 1_555
H14 C15 1_555 1_555
C16 C15 1_555 1_555
C17 C16 1_555 1_555
H15 C17 1_555 1_555
C18 C17 1_555 1_555
H16 C18 1_555 1_555
C19 C18 1_555 1_555
H17 C19 1_555 1_555
C20 C19 1_555 1_555
C21 C16 1_555 1_555
H18 C21 1_555 1_555
C22 C11 1_555 1_555
H19 C22 1_555 1_555
H20 C22 1_555 1_555
C23 C22 1_555 1_555
H21 C23 1_555 1_555
H22 C23 1_555 1_555
H23 C23 1_555 1_555
Br2 C24 1_555 1_555
O5 C30 1_555 1_555
O6 C35 1_555 1_555
O7 N4 1_555 1_555
O8 N4 1_555 1_555
N3 C30 1_555 1_555
N4 C43 1_555 1_555
C24 C25 1_555 1_555
C25 H24 1_555 1_555
C26 C25 1_555 1_555
H25 C26 1_555 1_555
C27 C26 1_555 1_555
C28 C27 1_555 1_555
H26 C28 1_555 1_555
C29 C24 1_555 1_555
H27 C29 1_555 1_555
C30 C27 1_555 1_555
C31 N3 1_555 1_555
H28 C31 1_555 1_555
H29 C31 1_555 1_555
C32 C31 1_555 1_555
H30 C32 1_555 1_555
H31 C32 1_555 1_555
C33 C32 1_555 1_555
H32 C33 1_555 1_555
H33 C33 1_555 1_555
C34 C33 1_555 1_555
C35 N3 1_555 1_555
C36 C34 1_555 1_555
H34 C36 1_555 1_555
H35 C36 1_555 1_555
C37 C36 1_555 1_555
H36 C37 1_555 1_555
C38 C37 1_555 1_555
H37 C38 1_555 1_555
C39 C38 1_555 1_555
C40 C39 1_555 1_555
H38 C40 1_555 1_555
C41 C40 1_555 1_555
H39 C41 1_555 1_555
C42 C41 1_555 1_555
H40 C42 1_555 1_555
C43 C42 1_555 1_555
C44 C39 1_555 1_555
H41 C44 1_555 1_555
C45 C34 1_555 1_555
H42 C45 1_555 1_555
H43 C45 1_555 1_555
C46 C45 1_555 1_555
H44 C46 1_555 1_555
H45 C46 1_555 1_555
H46 C46 1_555 1_555
C5 C6 1_555 1_555
C11 C12 1_555 1_555
C20 C21 1_555 1_555
C28 C29 1_555 1_555
C34 C35 1_555 1_555
C43 C44 1_555 1_555

#END
