
#######################################################################
#
#                 Cambridge Crystallographic Data Centre
#                                CCDC 
#
#######################################################################
#
# If this CIF has been generated from an entry in the Cambridge 
# Structural Database, then it will include bibliographic, chemical, 
# crystal, experimental, refinement or atomic coordinate data resulting 
# from the CCDC's data processing and validation procedures.
#
#######################################################################

data_KARPIE
_chemical_formula_moiety         'C35 H50 N8 O9,6(H2 O1)'
_chemical_name_systematic        
'Cyclo-(glycyl-seryl-prolyl-seryl-tryptophyl-leucyl-valyl) hexahydrate'
_symmetry_cell_setting           orthorhombic
_symmetry_space_group_name_H-M   'P 21 21 21'
_symmetry_Int_Tables_number      19
_space_group_name_Hall           'P 2ac 2ab'
loop_
_symmetry_equiv_pos_site_id
_symmetry_equiv_pos_as_xyz
1 x,y,z
2 1/2-x,-y,1/2+z
3 1/2+x,1/2-y,-z
4 -x,1/2+y,1/2-z
_cell_length_a                   10.798(17)
_cell_length_b                   15.09(2)
_cell_length_c                   27.46(4)
_cell_angle_alpha                90
_cell_angle_beta                 90
_cell_angle_gamma                90
_cell_volume                     4474.38
_exptl_crystal_colour            colorless
_exptl_crystal_description       column
_cell_formula_units_Z            4
loop_
_atom_site_label
_atom_site_type_symbol
_atom_site_fract_x
_atom_site_fract_y
_atom_site_fract_z
O1 O 0.33440(8) 0.09921(6) 0.53352(4)
O2 O 0.33510(9) 0.34247(7) 0.46446(5)
O3 O 0.47954(12) 0.47386(12) 0.35589(4)
O4 O 0.62516(11) 0.26106(6) 0.32100(3)
O5 O 0.77402(10) 0.19715(9) 0.22765(4)
O6 O 0.73821(16) -0.06839(8) 0.29856(5)
O7 O 0.46478(9) 0.05954(8) 0.38094(3)
O8 O 0.67361(9) 0.29627(6) 0.53827(4)
H1 H 0.7162 0.2513 0.5374
O9 O 0.68647(11) 0.19842(6) 0.41127(3)
H2 H 0.6444 0.2157 0.3883
N1 N 0.56571(10) 0.01840(6) 0.44895(4)
N2 N 0.48293(9) 0.17297(6) 0.49236(3)
H3 H 0.5264(9) 0.1717(7) 0.4661(3)
N3 N 0.53191(9) 0.38409(6) 0.46987(3)
H4 H 0.6012(7) 0.3774(6) 0.4816(3)
N4 N 0.66158(11) 0.41548(7) 0.37744(3)
H5 H 0.7137(9) 0.4022(7) 0.4006(3)
N5 N 0.62722(13) 0.34619(9) 0.25341(4)
H6 H 0.6693(7) 0.3877(3) 0.2393(3)
N6 N 0.60129(12) 0.11365(9) 0.23152(4)
H7 H 0.5260(4) 0.1006(3) 0.2386(2)
N7 N 0.66398(11) 0.06318(7) 0.32393(4)
H8 H 0.6261(10) 0.1113(5) 0.3199(3)
N8 N 0.52652(13) 0.58316(10) 0.59052(4)
H9 H 0.5359 0.5742 0.6212
C1 C 0.45234(13) 0.01424(8) 0.47794(5)
H10 H 0.3831 -0.0058 0.4576
C2 C 0.48483(16) -0.05667(9) 0.51529(7)
H11 H 0.4397 -0.0473 0.5454
H12 H 0.4656 -0.1153 0.5029
C3 C 0.6170(2) -0.04671(15) 0.52293(8)
H13 H 0.6524 -0.1016 0.5350
H14 H 0.6332 -0.0002 0.5465
C4 C 0.67267(15) -0.02299(11) 0.47416(5)
H15 H 0.7407 0.0185 0.4777
H16 H 0.7015 -0.0753 0.4570
C5 C 0.41849(12) 0.09959(8) 0.50359(4)
C6 C 0.46029(12) 0.25685(7) 0.51784(4)
H17 H 0.3821 0.2488 0.5354
C7 C 0.55757(12) 0.27571(9) 0.55667(5)
H18 H 0.5292 0.3247 0.5766
H19 H 0.5650 0.2241 0.5776
C8 C 0.43728(11) 0.33095(8) 0.48174(4)
C9 C 0.51610(12) 0.46329(8) 0.44042(4)
H20 H 0.4285 0.4802 0.4419
C10 C 0.59202(12) 0.54008(8) 0.46156(4)
H21 H 0.6780 0.5218 0.4638
H22 H 0.5880 0.5898 0.4392
C11 C 0.54931(13) 0.57050(8) 0.51114(5)
C12 C 0.45830(12) 0.63639(8) 0.51978(5)
C13 C 0.38608(14) 0.68932(8) 0.49076(6)
H23 H 0.3922 0.6862 0.4570
C14 C 0.30287(18) 0.74826(11) 0.51280(8)
H24 H 0.2541 0.7849 0.4935
C15 C 0.29275(19) 0.75241(12) 0.56193(8)
H25 H 0.2353 0.7910 0.5756
C16 C 0.36415(18) 0.70180(12) 0.59195(7)
H26 H 0.3579 0.7061 0.6257
C17 C 0.44547(16) 0.64433(10) 0.57032(5)
C18 C 0.58794(16) 0.54016(12) 0.55543(5)
H27 H 0.6475 0.4965 0.5604
C19 C 0.54925(15) 0.44965(9) 0.38738(4)
C20 C 0.70805(15) 0.41073(10) 0.32727(4)
H28 H 0.6855 0.4657 0.3104
C21 C 0.84835(15) 0.40210(11) 0.32684(5)
H29 H 0.8707 0.3480 0.3438
H30 H 0.8754 0.3960 0.2933
C22 C 0.9178(2) 0.47771(14) 0.34954(6)
H31 H 0.8984 0.4791 0.3844
C23 C 1.0570(2) 0.4577(2) 0.34361(10)
H32 H 1.0685 0.3952 0.3388
H33 H 1.1004 0.4761 0.3724
H34 H 1.0886 0.4894 0.3160
C24 C 0.8893(4) 0.56720(15) 0.32836(11)
H35 H 0.8982 0.5650 0.2936
H36 H 0.9456 0.6103 0.3415
H37 H 0.8059 0.5835 0.3365
C25 C 0.64788(15) 0.33339(10) 0.30076(4)
C26 C 0.57588(15) 0.27375(10) 0.22383(5)
H38 H 0.4943 0.2585 0.2370
C27 C 0.55809(19) 0.30701(15) 0.17088(5)
H39 H 0.5157 0.3644 0.1727
C28 C 0.4747(2) 0.24525(18) 0.14344(7)
H40 H 0.4622 0.2675 0.1110
H41 H 0.3964 0.2412 0.1598
H42 H 0.5121 0.1876 0.1419
C29 C 0.6768(2) 0.32171(17) 0.14399(6)
H43 H 0.7212 0.2668 0.1416
H44 H 0.7263 0.3643 0.1612
H45 H 0.6591 0.3435 0.1119
C30 C 0.65888(15) 0.19260(11) 0.22829(4)
C31 C 0.66470(18) 0.03135(11) 0.23759(5)
H46 H 0.7428 0.0348 0.2202
H47 H 0.6158 -0.0148 0.2222
C32 C 0.69142(16) 0.00331(11) 0.28969(5)
C33 C 0.68746(13) 0.04931(9) 0.37500(4)
H48 H 0.7347 -0.0056 0.3794
C34 C 0.75995(13) 0.12662(9) 0.39630(5)
H49 H 0.8071 0.1055 0.4240
H50 H 0.8185 0.1474 0.3721
C35 C 0.56239(13) 0.04123(8) 0.40130(5)
O10 O 0.35480(15) 0.02846(9) 0.28820(5)
H51 H 0.4256(3) 0.0080(2) 0.28595(17)
H52 H 0.3254(4) 0.0613(4) 0.31016(13)
O11 O 0.96667(19) 0.32807(13) 0.20825(8)
H53 H 0.9413(4) 0.2790(3) 0.2180(4)
H54 H 0.9612(5) 0.3782(3) 0.22123(16)
O12 O 0.5889(2) 0.49624(19) 0.69020(6)
H55 H 0.5362(5) 0.4562(3) 0.6864(4)
H56 H 0.6489(4) 0.5024(6) 0.7086(2)
O13 O 0.8043(2) -0.21406(12) 0.24762(9)
H57 H 0.8713(3) -0.1920(5) 0.2553(3)
H58 H 0.7773(4) -0.2258(3) 0.21974(11)
O14 O 0.97618(17) 0.16234(19) 0.29350(8)
H59 H 0.9056(4) 0.166(2) 0.2819(4)
H60 H 1.0460(4) 0.1814(3) 0.2874(4)
O15 O 0.3148(3) 0.26664(19) 0.34925(12)
H61 H 0.3297(8) 0.3186(3) 0.3437(2)
H62 H 0.3252(8) 0.2153(3) 0.3414(2)
O16 O 0.3468(6) 0.1386(2) 0.23202(17)
H63 H 0.3245(7) 0.0862(3) 0.23127(14)
H64 H 0.3565(4) 0.1756(3) 0.2541(2)
loop_
_geom_bond_atom_site_label_1
_geom_bond_atom_site_label_2
_geom_bond_site_symmetry_1
_geom_bond_site_symmetry_2
O1 C5 1_555 1_555
O2 C8 1_555 1_555
O3 C19 1_555 1_555
O4 C25 1_555 1_555
O5 C30 1_555 1_555
O6 C32 1_555 1_555
O7 C35 1_555 1_555
O8 H1 1_555 1_555
O9 H2 1_555 1_555
N1 C1 1_555 1_555
N2 H3 1_555 1_555
N3 H4 1_555 1_555
N4 H5 1_555 1_555
N5 H6 1_555 1_555
N6 H7 1_555 1_555
N7 H8 1_555 1_555
N8 H9 1_555 1_555
C1 H10 1_555 1_555
C2 C1 1_555 1_555
H11 C2 1_555 1_555
H12 C2 1_555 1_555
C3 C2 1_555 1_555
H13 C3 1_555 1_555
H14 C3 1_555 1_555
C4 N1 1_555 1_555
H15 C4 1_555 1_555
H16 C4 1_555 1_555
C5 N2 1_555 1_555
C6 N2 1_555 1_555
H17 C6 1_555 1_555
C7 O8 1_555 1_555
H18 C7 1_555 1_555
H19 C7 1_555 1_555
C8 N3 1_555 1_555
C9 N3 1_555 1_555
H20 C9 1_555 1_555
C10 C9 1_555 1_555
H21 C10 1_555 1_555
H22 C10 1_555 1_555
C11 C10 1_555 1_555
C12 C11 1_555 1_555
C13 C12 1_555 1_555
H23 C13 1_555 1_555
C14 C13 1_555 1_555
H24 C14 1_555 1_555
C15 C14 1_555 1_555
H25 C15 1_555 1_555
C16 C15 1_555 1_555
H26 C16 1_555 1_555
C17 N8 1_555 1_555
C18 N8 1_555 1_555
H27 C18 1_555 1_555
C19 N4 1_555 1_555
C20 N4 1_555 1_555
H28 C20 1_555 1_555
C21 C20 1_555 1_555
H29 C21 1_555 1_555
H30 C21 1_555 1_555
C22 C21 1_555 1_555
H31 C22 1_555 1_555
C23 C22 1_555 1_555
H32 C23 1_555 1_555
H33 C23 1_555 1_555
H34 C23 1_555 1_555
C24 C22 1_555 1_555
H35 C24 1_555 1_555
H36 C24 1_555 1_555
H37 C24 1_555 1_555
C25 N5 1_555 1_555
C26 N5 1_555 1_555
H38 C26 1_555 1_555
C27 C26 1_555 1_555
H39 C27 1_555 1_555
C28 C27 1_555 1_555
H40 C28 1_555 1_555
H41 C28 1_555 1_555
H42 C28 1_555 1_555
C29 C27 1_555 1_555
H43 C29 1_555 1_555
H44 C29 1_555 1_555
H45 C29 1_555 1_555
C30 N6 1_555 1_555
C31 N6 1_555 1_555
H46 C31 1_555 1_555
H47 C31 1_555 1_555
C32 N7 1_555 1_555
C33 N7 1_555 1_555
H48 C33 1_555 1_555
C34 O9 1_555 1_555
H49 C34 1_555 1_555
H50 C34 1_555 1_555
C35 N1 1_555 1_555
O10 H51 1_555 1_555
H52 O10 1_555 1_555
O11 H53 1_555 1_555
H54 O11 1_555 1_555
O12 H55 1_555 1_555
H56 O12 1_555 1_555
O13 H57 1_555 1_555
H58 O13 1_555 1_555
O14 H59 1_555 1_555
H60 O14 1_555 1_555
O15 H61 1_555 1_555
H62 O15 1_555 1_555
O16 H63 1_555 1_555
H64 O16 1_555 1_555
C1 C5 1_555 1_555
C3 C4 1_555 1_555
C6 C7 1_555 1_555
C6 C8 1_555 1_555
C9 C19 1_555 1_555
C11 C18 1_555 1_555
C12 C17 1_555 1_555
C16 C17 1_555 1_555
C20 C25 1_555 1_555
C26 C30 1_555 1_555
C31 C32 1_555 1_555
C33 C34 1_555 1_555
C33 C35 1_555 1_555

#END
