
#######################################################################
#
#                 Cambridge Crystallographic Data Centre
#                                CCDC 
#
#######################################################################
#
# If this CIF has been generated from an entry in the Cambridge 
# Structural Database, then it will include bibliographic, chemical, 
# crystal, experimental, refinement or atomic coordinate data resulting 
# from the CCDC's data processing and validation procedures.
#
#######################################################################

data_KARSOM
_chemical_formula_moiety         'C40 H56 N2 O2'
_chemical_name_systematic        
(E,E)-1,4-bis(4'-(N,N-Di-n-butylamino)styryl)-2,5-dimethoxybenzene
_symmetry_cell_setting           triclinic
_symmetry_space_group_name_H-M   'P -1'
_symmetry_Int_Tables_number      2
_space_group_name_Hall           '-P 1'
loop_
_symmetry_equiv_pos_site_id
_symmetry_equiv_pos_as_xyz
1 x,y,z
2 -x,-y,-z
_cell_length_a                   9.303(2)
_cell_length_b                   9.625(2)
_cell_length_c                   10.442(2)
_cell_angle_alpha                81.493(12)
_cell_angle_beta                 78.387(12)
_cell_angle_gamma                87.876(11)
_cell_volume                     905.749
_exptl_crystal_colour            yellow
_exptl_crystal_description       'rectangular prism'
_cell_formula_units_Z            1
loop_
_atom_site_label
_atom_site_type_symbol
_atom_site_fract_x
_atom_site_fract_y
_atom_site_fract_z
O1 O -0.0319(3) -0.1075(3) 0.2641(2)
N1 N 0.7509(4) 0.2337(4) 0.4160(3)
C1 C -0.0200(4) -0.0548(4) 0.1322(3)
C2 C 0.1034(4) 0.0265(4) 0.0747(3)
C3 C -0.1211(4) -0.0811(4) 0.0584(4)
H1 H -0.197(4) -0.139(4) 0.090(3)
C4 C -0.1679(4) -0.1664(5) 0.3336(4)
H2 H -0.1614 -0.1990 0.4237
H3 H -0.1906 -0.2439 0.2929
H4 H -0.2438 -0.0963 0.3312
C5 C 0.2119(4) 0.0545(4) 0.1535(4)
H5 H 0.1825 0.0339 0.2448
C6 C 0.3460(4) 0.1053(4) 0.1095(3)
H6 H 0.3785 0.1203 0.0184
C7 C 0.4483(4) 0.1401(3) 0.1891(3)
C8 C 0.5920(4) 0.1734(4) 0.1327(4)
H7 H 0.6232 0.1747 0.0421
C9 C 0.6909(4) 0.2046(4) 0.2055(4)
H8 H 0.7868 0.2259 0.1624
C10 C 0.6540(4) 0.2056(4) 0.3388(4)
C11 C 0.5079(5) 0.1750(4) 0.3962(4)
H9 H 0.4764 0.1755 0.4865
C12 C 0.4089(4) 0.1440(4) 0.3229(4)
H10 H 0.3123 0.1251 0.3651
C13 C 0.9071(5) 0.2584(6) 0.3564(5)
H11 H 0.9358 0.2042 0.2839
H12 H 0.9665 0.2271 0.4218
C14 C 0.9347(7) 0.4121(8) 0.3059(8)
H13 H 0.8629 0.4480 0.2534
H14 H 0.9241 0.4643 0.3800
C15 C 1.0870(8) 0.4324(8) 0.2230(11)
H15 H 1.1567 0.4272 0.2813
H16 H 1.1091 0.3557 0.1712
C16 C 1.1079(9) 0.5653(10) 0.1333(9)
H17 H 1.2058 0.5687 0.0816
H18 H 1.0928 0.6421 0.1838
H19 H 1.0386 0.5722 0.0757
C17 C 0.7076(5) 0.2288(5) 0.5557(4)
H20 H 0.7957 0.2189 0.5927
H21 H 0.6503 0.1444 0.5899
C18 C 0.6222(5) 0.3484(5) 0.6056(5)
H22 H 0.5441 0.3718 0.5567
H23 H 0.6855 0.4294 0.5904
C19 C 0.5562(7) 0.3169(6) 0.7511(5)
H24 H 0.4950 0.2344 0.7653
H25 H 0.6352 0.2935 0.7989
C20 C 0.4692(7) 0.4289(7) 0.8074(6)
H26 H 0.4301 0.3984 0.8992
H27 H 0.3900 0.4529 0.7616
H28 H 0.5297 0.5097 0.7988
O1A O 0.0319(3) 0.1075(3) -0.2641(2)
N1A N -0.7509(4) -0.2337(4) -0.4160(3)
C1A C 0.0200(4) 0.0548(4) -0.1322(3)
C2A C -0.1034(4) -0.0265(4) -0.0747(3)
C3A C 0.1211(4) 0.0811(4) -0.0584(4)
H1A H 0.197(4) 0.139(4) -0.090(3)
C4A C 0.1679(4) 0.1664(5) -0.3336(4)
H2A H 0.1614 0.1990 -0.4237
H3A H 0.1906 0.2439 -0.2929
H4A H 0.2438 0.0963 -0.3312
C5A C -0.2119(4) -0.0545(4) -0.1535(4)
H5A H -0.1825 -0.0339 -0.2448
C6A C -0.3460(4) -0.1053(4) -0.1095(3)
H6A H -0.3785 -0.1203 -0.0184
C7A C -0.4483(4) -0.1401(3) -0.1891(3)
C8A C -0.5920(4) -0.1734(4) -0.1327(4)
H7A H -0.6232 -0.1747 -0.0421
C9A C -0.6909(4) -0.2046(4) -0.2055(4)
H8A H -0.7868 -0.2259 -0.1624
C10A C -0.6540(4) -0.2056(4) -0.3388(4)
C11A C -0.5079(5) -0.1750(4) -0.3962(4)
H9A H -0.4764 -0.1755 -0.4865
C12A C -0.4089(4) -0.1440(4) -0.3229(4)
H10A H -0.3123 -0.1251 -0.3651
C13A C -0.9071(5) -0.2584(6) -0.3564(5)
H11A H -0.9358 -0.2042 -0.2839
H12A H -0.9665 -0.2271 -0.4218
C14A C -0.9347(7) -0.4121(8) -0.3059(8)
H13A H -0.8629 -0.4480 -0.2534
H14A H -0.9241 -0.4643 -0.3800
C15A C -1.0870(8) -0.4324(8) -0.2230(11)
H15A H -1.1567 -0.4272 -0.2813
H16A H -1.1091 -0.3557 -0.1712
C16A C -1.1079(9) -0.5653(10) -0.1333(9)
H17A H -1.2058 -0.5687 -0.0816
H18A H -1.0928 -0.6421 -0.1838
H19A H -1.0386 -0.5722 -0.0757
C17A C -0.7076(5) -0.2288(5) -0.5557(4)
H20A H -0.7957 -0.2189 -0.5927
H21A H -0.6503 -0.1444 -0.5899
C18A C -0.6222(5) -0.3484(5) -0.6056(5)
H22A H -0.5441 -0.3718 -0.5567
H23A H -0.6855 -0.4294 -0.5904
C19A C -0.5562(7) -0.3169(6) -0.7511(5)
H24A H -0.4950 -0.2344 -0.7653
H25A H -0.6352 -0.2935 -0.7989
C20A C -0.4692(7) -0.4289(7) -0.8074(6)
H26A H -0.4301 -0.3984 -0.8992
H27A H -0.3900 -0.4529 -0.7616
H28A H -0.5297 -0.5097 -0.7988
loop_
_geom_bond_atom_site_label_1
_geom_bond_atom_site_label_2
_geom_bond_site_symmetry_1
_geom_bond_site_symmetry_2
O1 C1 1_555 1_555
N1 C10 1_555 1_555
C1 C2 1_555 1_555
C2 C5 1_555 1_555
C3 C1 1_555 1_555
H1 C3 1_555 1_555
C4 O1 1_555 1_555
H2 C4 1_555 1_555
H3 C4 1_555 1_555
H4 C4 1_555 1_555
C5 H5 1_555 1_555
C6 C5 1_555 1_555
H6 C6 1_555 1_555
C7 C6 1_555 1_555
C8 C7 1_555 1_555
H7 C8 1_555 1_555
C9 C8 1_555 1_555
H8 C9 1_555 1_555
C10 C9 1_555 1_555
C11 C10 1_555 1_555
H9 C11 1_555 1_555
C12 C7 1_555 1_555
H10 C12 1_555 1_555
C13 N1 1_555 1_555
H11 C13 1_555 1_555
H12 C13 1_555 1_555
C14 C13 1_555 1_555
H13 C14 1_555 1_555
H14 C14 1_555 1_555
C15 C14 1_555 1_555
H15 C15 1_555 1_555
H16 C15 1_555 1_555
C16 C15 1_555 1_555
H17 C16 1_555 1_555
H18 C16 1_555 1_555
H19 C16 1_555 1_555
C17 N1 1_555 1_555
H20 C17 1_555 1_555
H21 C17 1_555 1_555
C18 C17 1_555 1_555
H22 C18 1_555 1_555
H23 C18 1_555 1_555
C19 C18 1_555 1_555
H24 C19 1_555 1_555
H25 C19 1_555 1_555
C20 C19 1_555 1_555
H26 C20 1_555 1_555
H27 C20 1_555 1_555
H28 C20 1_555 1_555
O1A C1A 1_555 1_555
N1A C10A 1_555 1_555
C1A C2A 1_555 1_555
C2A C3 1_555 1_555
C3A C2 1_555 1_555
H1A C3A 1_555 1_555
C4A O1A 1_555 1_555
H2A C4A 1_555 1_555
H3A C4A 1_555 1_555
H4A C4A 1_555 1_555
C5A C2A 1_555 1_555
H5A C5A 1_555 1_555
C6A C5A 1_555 1_555
H6A C6A 1_555 1_555
C7A C6A 1_555 1_555
C8A C7A 1_555 1_555
H7A C8A 1_555 1_555
C9A C8A 1_555 1_555
H8A C9A 1_555 1_555
C10A C9A 1_555 1_555
C11A C10A 1_555 1_555
H9A C11A 1_555 1_555
C12A C7A 1_555 1_555
H10A C12A 1_555 1_555
C13A N1A 1_555 1_555
H11A C13A 1_555 1_555
H12A C13A 1_555 1_555
C14A C13A 1_555 1_555
H13A C14A 1_555 1_555
H14A C14A 1_555 1_555
C15A C14A 1_555 1_555
H15A C15A 1_555 1_555
H16A C15A 1_555 1_555
C16A C15A 1_555 1_555
H17A C16A 1_555 1_555
H18A C16A 1_555 1_555
H19A C16A 1_555 1_555
C17A N1A 1_555 1_555
H20A C17A 1_555 1_555
H21A C17A 1_555 1_555
C18A C17A 1_555 1_555
H22A C18A 1_555 1_555
H23A C18A 1_555 1_555
C19A C18A 1_555 1_555
H24A C19A 1_555 1_555
H25A C19A 1_555 1_555
C20A C19A 1_555 1_555
H26A C20A 1_555 1_555
H27A C20A 1_555 1_555
H28A C20A 1_555 1_555
C11 C12 1_555 1_555
C1A C3A 1_555 1_555
C11A C12A 1_555 1_555

#END
