
#######################################################################
#
#                 Cambridge Crystallographic Data Centre
#                                CCDC 
#
#######################################################################
#
# If this CIF has been generated from an entry in the Cambridge 
# Structural Database, then it will include bibliographic, chemical, 
# crystal, experimental, refinement or atomic coordinate data resulting 
# from the CCDC's data processing and validation procedures.
#
#######################################################################

data_KASDIU
_chemical_formula_moiety         'C23 H20 B1 Br1 F2 N2 O1 S1 Se1'
_chemical_name_systematic        
10-[5-bromo-2-(phenylseleninyl)thiophen-3-yl]-5,5-difluoro-1,3,7,9-tetramethyl-5H-6\l^5^,5\l^5^-dipyrrolo[1,2-c:2',1'-f][1,3,2]diazaborinine
_symmetry_cell_setting           triclinic
_symmetry_space_group_name_H-M   'P -1'
_symmetry_Int_Tables_number      2
_space_group_name_Hall           '-P 1'
loop_
_symmetry_equiv_pos_site_id
_symmetry_equiv_pos_as_xyz
1 x,y,z
2 -x,-y,-z
_cell_length_a                   8.9526(2)
_cell_length_b                   10.2532(3)
_cell_length_c                   14.7976(4)
_cell_angle_alpha                94.4778(14)
_cell_angle_beta                 106.8774(12)
_cell_angle_gamma                114.9387(12)
_cell_volume                     1146.72
_exptl_crystal_colour            brown
_exptl_crystal_description       platy
_cell_formula_units_Z            2
loop_
_atom_site_label
_atom_site_type_symbol
_atom_site_fract_x
_atom_site_fract_y
_atom_site_fract_z
Se1 Se 0.91805(3) 0.81047(3) 0.436398(17)
Br1 Br 0.26919(5) 0.90371(4) 0.31480(3)
S1 S 0.61601(8) 0.89272(7) 0.42026(4)
B1 B 0.7520(5) 0.4916(5) 0.0854(2)
F1 F 0.8931(3) 0.4703(3) 0.13765(14)
F2 F 0.6973(3) 0.4274(3) -0.01194(13)
N1 N 0.8082(3) 0.6583(3) 0.10047(16)
N2 N 0.6000(3) 0.4228(3) 0.12405(17)
O1 O 0.9315(3) 0.8709(2) 0.54733(13)
C1 C 1.0055(6) 0.7178(6) 0.0032(3)
H1 H 0.9649 0.6130 -0.0091
H2 H 1.1312 0.7685 0.0357
H3 H 0.9752 0.7459 -0.0572
C2 C 0.9196(4) 0.7584(4) 0.0662(2)
C3 C 0.9436(4) 0.8981(4) 0.1014(2)
H4 H 1.0138 0.9851 0.0874
C4 C 0.8466(4) 0.8867(3) 0.16032(18)
C5 C 0.8410(5) 1.0158(3) 0.2123(2)
H5 H 0.9151 1.1051 0.1981
H6 H 0.8823 1.0232 0.2810
H7 H 0.7219 1.0014 0.1910
C6 C 0.7593(4) 0.7341(3) 0.15966(17)
C7 C 0.5217(7) 0.1589(5) 0.0650(3)
H8 H 0.6103 0.2025 0.0370
H9 H 0.4108 0.0943 0.0144
H10 H 0.5550 0.1034 0.1088
C8 C 0.5046(5) 0.2788(4) 0.1195(3)
C9 C 0.3945(5) 0.2623(4) 0.1717(3)
H11 H 0.3153 0.1727 0.1786
C10 C 0.4209(4) 0.4000(3) 0.2118(2)
C11 C 0.3261(5) 0.4271(4) 0.2725(3)
H12 H 0.2463 0.3345 0.2806
H13 H 0.2610 0.4754 0.2413
H14 H 0.4098 0.4888 0.3349
C12 C 0.5520(4) 0.5025(3) 0.18137(18)
C13 C 0.6355(3) 0.6559(3) 0.19998(16)
C14 C 0.5937(3) 0.7397(3) 0.26658(17)
C15 C 0.4439(4) 0.7653(3) 0.23924(19)
H15 H 0.3588 0.7310 0.1772
C16 C 0.4414(3) 0.8457(3) 0.3151(2)
C17 C 0.6968(3) 0.8017(2) 0.36160(16)
C18 C 0.8310(4) 0.6002(3) 0.4244(2)
C19 C 0.8817(5) 0.5277(4) 0.3669(2)
H16 H 0.9519 0.5783 0.3330
C20 C 0.8263(7) 0.3784(5) 0.3605(4)
H17 H 0.8604 0.3275 0.3228
C21 C 0.7213(8) 0.3059(5) 0.4097(5)
H18 H 0.6829 0.2052 0.4048
C22 C 0.6720(7) 0.3797(6) 0.4663(5)
H19 H 0.5994 0.3283 0.4988
C23 C 0.7283(5) 0.5298(4) 0.4759(3)
H20 H 0.6977 0.5810 0.5157
loop_
_geom_bond_atom_site_label_1
_geom_bond_atom_site_label_2
_geom_bond_site_symmetry_1
_geom_bond_site_symmetry_2
Se1 O1 1_555 1_555
Br1 C16 1_555 1_555
S1 C16 1_555 1_555
B1 F1 1_555 1_555
F2 B1 1_555 1_555
N1 B1 1_555 1_555
N2 B1 1_555 1_555
C1 H1 1_555 1_555
H2 C1 1_555 1_555
H3 C1 1_555 1_555
C2 N1 1_555 1_555
C3 C2 1_555 1_555
H4 C3 1_555 1_555
C4 C3 1_555 1_555
C5 C4 1_555 1_555
H5 C5 1_555 1_555
H6 C5 1_555 1_555
H7 C5 1_555 1_555
C6 N1 1_555 1_555
C7 H8 1_555 1_555
H9 C7 1_555 1_555
H10 C7 1_555 1_555
C8 N2 1_555 1_555
C9 C8 1_555 1_555
H11 C9 1_555 1_555
C10 C9 1_555 1_555
C11 C10 1_555 1_555
H12 C11 1_555 1_555
H13 C11 1_555 1_555
H14 C11 1_555 1_555
C12 N2 1_555 1_555
C13 C6 1_555 1_555
C14 C13 1_555 1_555
C15 C14 1_555 1_555
H15 C15 1_555 1_555
C16 C15 1_555 1_555
C17 Se1 1_555 1_555
C18 Se1 1_555 1_555
C19 C18 1_555 1_555
H16 C19 1_555 1_555
C20 C19 1_555 1_555
H17 C20 1_555 1_555
C21 C20 1_555 1_555
H18 C21 1_555 1_555
C22 C21 1_555 1_555
H19 C22 1_555 1_555
C23 C18 1_555 1_555
H20 C23 1_555 1_555
S1 C17 1_555 1_555
C1 C2 1_555 1_555
C4 C6 1_555 1_555
C7 C8 1_555 1_555
C10 C12 1_555 1_555
C12 C13 1_555 1_555
C14 C17 1_555 1_555
C22 C23 1_555 1_555

#END
