
#######################################################################
#
#                 Cambridge Crystallographic Data Centre
#                                CCDC 
#
#######################################################################
#
# If this CIF has been generated from an entry in the Cambridge 
# Structural Database, then it will include bibliographic, chemical, 
# crystal, experimental, refinement or atomic coordinate data resulting 
# from the CCDC's data processing and validation procedures.
#
#######################################################################

data_KASDIS
_chemical_formula_moiety         'C30 H44 S5 Si2'
_chemical_name_systematic        2,7-bis(Tri-isopropylsilanyl)pentathienoacene
_symmetry_cell_setting           tetragonal
_symmetry_space_group_name_H-M   'P -4 21 c'
_symmetry_Int_Tables_number      114
_space_group_name_Hall           'P -4 2n'
loop_
_symmetry_equiv_pos_site_id
_symmetry_equiv_pos_as_xyz
1 x,y,z
2 -x,-y,z
3 y,-x,-z
4 -y,x,-z
5 1/2-x,1/2+y,1/2-z
6 1/2+x,1/2-y,1/2-z
7 1/2-y,1/2-x,1/2+z
8 1/2+y,1/2+x,1/2+z
_cell_length_a                   16.2367(15)
_cell_length_b                   16.2367(15)
_cell_length_c                   13.0410(17)
_cell_angle_alpha                90
_cell_angle_beta                 90
_cell_angle_gamma                90
_cell_volume                     3438
_exptl_crystal_colour            colorless
_exptl_crystal_description       block
_chemical_melting_point          '222-223 deg.C'
_cell_formula_units_Z            4
loop_
_atom_site_label
_atom_site_type_symbol
_atom_site_fract_x
_atom_site_fract_y
_atom_site_fract_z
C1 C 0.77221(16) 0.83700(17) 0.2782(2)
C2 C 0.74081(18) 0.85266(18) 0.3741(2)
H1 H 0.7665 0.8356 0.4360
C3 C 0.66608(18) 0.89700(18) 0.3703(2)
C4 C 0.63965(16) 0.91453(16) 0.2721(2)
C5 C 0.56420(16) 0.96000(15) 0.2720(2)
C6 C 0.53726(16) 0.97719(17) 0.3707(2)
C7 C 0.90526(19) 0.8144(2) 0.1165(2)
H2 H 0.8569 0.8080 0.0697
C8 C 0.9299(2) 0.9048(2) 0.1108(3)
H3 H 0.8856 0.9389 0.1390
H4 H 0.9396 0.9201 0.0391
H5 H 0.9804 0.9135 0.1505
C9 C 0.9737(2) 0.7603(2) 0.0715(3)
H6 H 0.9571 0.7023 0.0749
H7 H 1.0245 0.7682 0.1110
H8 H 0.9833 0.7758 -0.0002
C10 C 0.94226(19) 0.80109(19) 0.3557(2)
H9 H 0.9164 0.7766 0.4184
C11 C 0.9566(3) 0.8925(2) 0.3797(4)
H10 H 0.9034 0.9201 0.3890
H11 H 0.9864 0.9183 0.3227
H12 H 0.9892 0.8976 0.4426
C12 C 1.02602(19) 0.7583(2) 0.3428(3)
H13 H 1.0174 0.6997 0.3286
H14 H 1.0582 0.7644 0.4059
H15 H 1.0559 0.7836 0.2856
C13 C 0.84466(18) 0.66621(17) 0.2413(2)
H16 H 0.8971 0.6365 0.2255
C14 C 0.8136(3) 0.6337(2) 0.3446(3)
H17 H 0.8533 0.6476 0.3984
H18 H 0.8072 0.5738 0.3409
H19 H 0.7603 0.6590 0.3606
C15 C 0.7831(2) 0.6452(2) 0.1556(3)
H20 H 0.8039 0.6662 0.0901
H21 H 0.7298 0.6707 0.1708
H22 H 0.7765 0.5853 0.1513
S1 S 0.70758(4) 0.87615(4) 0.18361(5)
S2 S 0.60158(5) 0.93770(5) 0.46446(6)
S3 S 0.5000 1.0000 0.17838(7)
Si1 Si 0.86954(4) 0.77947(4) 0.24641(6)
C1A C 0.22779(16) 1.16300(17) 0.2782(2)
C2A C 0.25919(18) 1.14734(18) 0.3741(2)
H1A H 0.2335 1.1644 0.4360
C3A C 0.33392(18) 1.10300(18) 0.3703(2)
C4A C 0.36035(16) 1.08547(16) 0.2721(2)
C5A C 0.43580(16) 1.04000(15) 0.2720(2)
C6A C 0.46274(16) 1.02281(17) 0.3707(2)
C7A C 0.09474(19) 1.1856(2) 0.1165(2)
H2A H 0.1431 1.1920 0.0697
C8A C 0.0701(2) 1.0952(2) 0.1108(3)
H3A H 0.1144 1.0611 0.1390
H4A H 0.0604 1.0799 0.0391
H5A H 0.0196 1.0865 0.1505
C9A C 0.0263(2) 1.2397(2) 0.0715(3)
H6A H 0.0429 1.2977 0.0749
H7A H -0.0245 1.2318 0.1110
H8A H 0.0167 1.2242 -0.0002
C10A C 0.05774(19) 1.19891(19) 0.3557(2)
H9A H 0.0836 1.2234 0.4184
C11A C 0.0434(3) 1.1075(2) 0.3797(4)
H10A H 0.0966 1.0799 0.3890
H11A H 0.0136 1.0817 0.3227
H12A H 0.0108 1.1024 0.4426
C12A C -0.02602(19) 1.2417(2) 0.3428(3)
H13A H -0.0174 1.3003 0.3286
H14A H -0.0582 1.2356 0.4059
H15A H -0.0559 1.2164 0.2856
C13A C 0.15534(18) 1.33379(17) 0.2413(2)
H16A H 0.1029 1.3635 0.2255
C14A C 0.1864(3) 1.3663(2) 0.3446(3)
H17A H 0.1467 1.3524 0.3984
H18A H 0.1928 1.4262 0.3409
H19A H 0.2397 1.3410 0.3606
C15A C 0.2169(2) 1.3548(2) 0.1556(3)
H20A H 0.1961 1.3338 0.0901
H21A H 0.2702 1.3293 0.1708
H22A H 0.2235 1.4147 0.1513
S1A S 0.29242(4) 1.12385(4) 0.18361(5)
S2A S 0.39842(5) 1.06230(5) 0.46446(6)
Si1A Si 0.13046(4) 1.22053(4) 0.24641(6)
loop_
_geom_bond_atom_site_label_1
_geom_bond_atom_site_label_2
_geom_bond_site_symmetry_1
_geom_bond_site_symmetry_2
C1 C2 1_555 1_555
C2 H1 1_555 1_555
C3 C2 1_555 1_555
C4 C3 1_555 1_555
C5 C4 1_555 1_555
C6 C5 1_555 1_555
C7 H2 1_555 1_555
C8 C7 1_555 1_555
H3 C8 1_555 1_555
H4 C8 1_555 1_555
H5 C8 1_555 1_555
C9 C7 1_555 1_555
H6 C9 1_555 1_555
H7 C9 1_555 1_555
H8 C9 1_555 1_555
C10 H9 1_555 1_555
C11 C10 1_555 1_555
H10 C11 1_555 1_555
H11 C11 1_555 1_555
H12 C11 1_555 1_555
C12 C10 1_555 1_555
H13 C12 1_555 1_555
H14 C12 1_555 1_555
H15 C12 1_555 1_555
C13 H16 1_555 1_555
C14 C13 1_555 1_555
H17 C14 1_555 1_555
H18 C14 1_555 1_555
H19 C14 1_555 1_555
C15 C13 1_555 1_555
H20 C15 1_555 1_555
H21 C15 1_555 1_555
H22 C15 1_555 1_555
S1 C1 1_555 1_555
S2 C3 1_555 1_555
S3 C5 1_555 1_555
Si1 C1 1_555 1_555
C1A C2A 1_555 1_555
C2A H1A 1_555 1_555
C3A C2A 1_555 1_555
C4A C3A 1_555 1_555
C5A S3 1_555 1_555
C6A C6 1_555 1_555
C7A H2A 1_555 1_555
C8A C7A 1_555 1_555
H3A C8A 1_555 1_555
H4A C8A 1_555 1_555
H5A C8A 1_555 1_555
C9A C7A 1_555 1_555
H6A C9A 1_555 1_555
H7A C9A 1_555 1_555
H8A C9A 1_555 1_555
C10A H9A 1_555 1_555
C11A C10A 1_555 1_555
H10A C11A 1_555 1_555
H11A C11A 1_555 1_555
H12A C11A 1_555 1_555
C12A C10A 1_555 1_555
H13A C12A 1_555 1_555
H14A C12A 1_555 1_555
H15A C12A 1_555 1_555
C13A H16A 1_555 1_555
C14A C13A 1_555 1_555
H17A C14A 1_555 1_555
H18A C14A 1_555 1_555
H19A C14A 1_555 1_555
C15A C13A 1_555 1_555
H20A C15A 1_555 1_555
H21A C15A 1_555 1_555
H22A C15A 1_555 1_555
S1A C1A 1_555 1_555
S2A C3A 1_555 1_555
Si1A C1A 1_555 1_555
C4 S1 1_555 1_555
C6 S2 1_555 1_555
C7 Si1 1_555 1_555
C10 Si1 1_555 1_555
C13 Si1 1_555 1_555
C4A C5A 1_555 1_555
C4A S1A 1_555 1_555
C5A C6A 1_555 1_555
C6A S2A 1_555 1_555
C7A Si1A 1_555 1_555
C10A Si1A 1_555 1_555
C13A Si1A 1_555 1_555

#END
