
#######################################################################
#
#                 Cambridge Crystallographic Data Centre
#                                CCDC 
#
#######################################################################
#
# If this CIF has been generated from an entry in the Cambridge 
# Structural Database, then it will include bibliographic, chemical, 
# crystal, experimental, refinement or atomic coordinate data resulting 
# from the CCDC's data processing and validation procedures.
#
#######################################################################

data_KASDOY
_chemical_formula_moiety         'C34 H44 S7 Si2'
_chemical_name_systematic        2,8-bis(Tri-isopropylsilanyl)heptathienoacene
_symmetry_cell_setting           orthorhombic
_symmetry_space_group_name_H-M   'P c c n'
_symmetry_Int_Tables_number      56
_space_group_name_Hall           '-P 2ab 2ac'
loop_
_symmetry_equiv_pos_site_id
_symmetry_equiv_pos_as_xyz
1 x,y,z
2 1/2-x,1/2-y,z
3 -x,1/2+y,1/2-z
4 1/2+x,-y,1/2-z
5 -x,-y,-z
6 1/2+x,1/2+y,-z
7 x,1/2-y,1/2+z
8 1/2-x,y,1/2+z
_cell_length_a                   17.9934(16)
_cell_length_b                   29.790(3)
_cell_length_c                   13.4276(12)
_cell_angle_alpha                90
_cell_angle_beta                 90
_cell_angle_gamma                90
_cell_volume                     7197.51
_exptl_crystal_colour            yellow
_exptl_crystal_description       plate
_chemical_melting_point          '340 deg.C(dec.)'
_cell_formula_units_Z            8
loop_
_atom_site_label
_atom_site_type_symbol
_atom_site_fract_x
_atom_site_fract_y
_atom_site_fract_z
C1 C 0.35852(12) 0.58529(7) 0.70104(16)
C2 C 0.33707(12) 0.56840(7) 0.61019(16)
H1 H 0.3450 0.5836 0.5489
C3 C 0.30194(12) 0.52597(7) 0.61749(15)
C4 C 0.29579(11) 0.51034(7) 0.71426(15)
C5 C 0.26783(11) 0.46581(7) 0.71806(15)
C6 C 0.25471(11) 0.44850(7) 0.62362(15)
C7 C 0.23433(11) 0.40275(7) 0.62697(15)
C8 C 0.23153(11) 0.38646(7) 0.72382(15)
C9 C 0.20794(11) 0.34116(7) 0.72783(15)
C10 C 0.19474(11) 0.32372(7) 0.63372(15)
C11 C 0.16630(11) 0.27949(7) 0.63804(15)
C12 C 0.15667(11) 0.26456(6) 0.73534(15)
C13 C 0.12088(11) 0.22175(7) 0.73880(15)
C14 C 0.10579(12) 0.20531(7) 0.64410(15)
C15 C 0.06466(12) 0.16470(7) 0.64440(16)
H2 H 0.0511 0.1490 0.5855
C16 C 0.04648(12) 0.15031(7) 0.73824(16)
C17 C 0.40499(14) 0.65848(8) 0.84865(18)
H3 H 0.4075 0.6330 0.8969
C18 C 0.52116(12) 0.60971(7) 0.72183(17)
H4 H 0.5559 0.6356 0.7302
C19 C 0.41244(13) 0.67127(7) 0.61100(18)
H5 H 0.4199 0.6516 0.5516
C20 C 0.32767(18) 0.67832(11) 0.8596(2)
H6 H 0.3188 0.6861 0.9295
H7 H 0.2906 0.6563 0.8379
H8 H 0.3236 0.7054 0.8184
C21 C 0.46538(18) 0.69185(10) 0.8812(2)
H9 H 0.4633 0.7186 0.8388
H10 H 0.5143 0.6777 0.8749
H11 H 0.4571 0.7005 0.9507
C22 C 0.53618(14) 0.57748(8) 0.80831(18)
H12 H 0.5024 0.5518 0.8038
H13 H 0.5281 0.5931 0.8716
H14 H 0.5877 0.5669 0.8049
C23 C 0.54077(14) 0.58748(8) 0.62271(18)
H15 H 0.5920 0.5764 0.6252
H16 H 0.5360 0.6095 0.5688
H17 H 0.5069 0.5623 0.6105
C24 C 0.47326(15) 0.70744(8) 0.6044(2)
H18 H 0.4677 0.7242 0.5420
H19 H 0.5223 0.6931 0.6061
H20 H 0.4686 0.7281 0.6609
C25 C 0.33548(14) 0.69204(8) 0.5980(2)
H21 H 0.3269 0.7142 0.6508
H22 H 0.2976 0.6684 0.6020
H23 H 0.3325 0.7068 0.5329
C26 C -0.01764(13) 0.08391(7) 0.89320(16)
H24 H -0.0127 0.1096 0.9407
C27 C -0.03422(12) 0.06960(7) 0.65699(17)
H25 H -0.0404 0.0889 0.5966
C28 C -0.11906(13) 0.14399(8) 0.76660(19)
H26 H -0.1617 0.1225 0.7695
C29 C 0.05271(15) 0.05615(9) 0.90461(19)
H27 H 0.0603 0.0489 0.9751
H28 H 0.0953 0.0733 0.8799
H29 H 0.0479 0.0283 0.8662
C30 C -0.08561(15) 0.05666(9) 0.9284(2)
H30 H -0.0897 0.0291 0.8889
H31 H -0.1307 0.0747 0.9199
H32 H -0.0796 0.0489 0.9989
C31 C 0.03693(14) 0.04286(8) 0.63967(18)
H33 H 0.0436 0.0212 0.6939
H34 H 0.0795 0.0634 0.6378
H35 H 0.0334 0.0268 0.5762
C32 C -0.10188(14) 0.03848(8) 0.65841(19)
H36 H -0.1030 0.0207 0.5970
H37 H -0.1473 0.0565 0.6632
H38 H -0.0986 0.0183 0.7159
C33 C -0.12422(15) 0.17431(9) 0.8584(2)
H39 H -0.0810 0.1943 0.8605
H40 H -0.1253 0.1558 0.9186
H41 H -0.1697 0.1923 0.8547
C34 C -0.12747(17) 0.17136(11) 0.6713(2)
H42 H -0.1732 0.1892 0.6747
H43 H -0.1299 0.1510 0.6139
H44 H -0.0847 0.1915 0.6639
S1 S 0.33266(3) 0.548586(17) 0.79662(4)
S2 S 0.27274(3) 0.486844(18) 0.52963(4)
S3 S 0.25377(3) 0.426627(17) 0.81164(4)
S4 S 0.20988(3) 0.362365(17) 0.53911(4)
S5 S 0.18642(3) 0.303678(16) 0.82281(4)
S6 S 0.13548(3) 0.241405(17) 0.55003(4)
S7 S 0.08373(3) 0.186721(17) 0.82764(4)
Si1 Si 0.42385(3) 0.633519(19) 0.72258(5)
Si2 Si -0.03052(3) 0.109576(19) 0.76615(5)
loop_
_geom_bond_atom_site_label_1
_geom_bond_atom_site_label_2
_geom_bond_site_symmetry_1
_geom_bond_site_symmetry_2
C1 C2 1_555 1_555
C2 H1 1_555 1_555
C3 C2 1_555 1_555
C4 C3 1_555 1_555
C5 C4 1_555 1_555
C6 C5 1_555 1_555
C7 C6 1_555 1_555
C8 C7 1_555 1_555
C9 C8 1_555 1_555
C10 C9 1_555 1_555
C11 C10 1_555 1_555
C12 C11 1_555 1_555
C13 C12 1_555 1_555
C14 C13 1_555 1_555
C15 C14 1_555 1_555
H2 C15 1_555 1_555
C16 C15 1_555 1_555
C17 H3 1_555 1_555
C18 H4 1_555 1_555
C19 H5 1_555 1_555
C20 C17 1_555 1_555
H6 C20 1_555 1_555
H7 C20 1_555 1_555
H8 C20 1_555 1_555
C21 C17 1_555 1_555
H9 C21 1_555 1_555
H10 C21 1_555 1_555
H11 C21 1_555 1_555
C22 C18 1_555 1_555
H12 C22 1_555 1_555
H13 C22 1_555 1_555
H14 C22 1_555 1_555
C23 C18 1_555 1_555
H15 C23 1_555 1_555
H16 C23 1_555 1_555
H17 C23 1_555 1_555
C24 C19 1_555 1_555
H18 C24 1_555 1_555
H19 C24 1_555 1_555
H20 C24 1_555 1_555
C25 C19 1_555 1_555
H21 C25 1_555 1_555
H22 C25 1_555 1_555
H23 C25 1_555 1_555
C26 H24 1_555 1_555
C27 H25 1_555 1_555
C28 H26 1_555 1_555
C29 C26 1_555 1_555
H27 C29 1_555 1_555
H28 C29 1_555 1_555
H29 C29 1_555 1_555
C30 C26 1_555 1_555
H30 C30 1_555 1_555
H31 C30 1_555 1_555
H32 C30 1_555 1_555
C31 C27 1_555 1_555
H33 C31 1_555 1_555
H34 C31 1_555 1_555
H35 C31 1_555 1_555
C32 C27 1_555 1_555
H36 C32 1_555 1_555
H37 C32 1_555 1_555
H38 C32 1_555 1_555
C33 C28 1_555 1_555
H39 C33 1_555 1_555
H40 C33 1_555 1_555
H41 C33 1_555 1_555
C34 C28 1_555 1_555
H42 C34 1_555 1_555
H43 C34 1_555 1_555
H44 C34 1_555 1_555
S1 C1 1_555 1_555
S2 C3 1_555 1_555
S3 C5 1_555 1_555
S4 C7 1_555 1_555
S5 C9 1_555 1_555
S6 C11 1_555 1_555
S7 C13 1_555 1_555
Si1 C1 1_555 1_555
Si2 C16 1_555 1_555
C4 S1 1_555 1_555
C6 S2 1_555 1_555
C8 S3 1_555 1_555
C10 S4 1_555 1_555
C12 S5 1_555 1_555
C14 S6 1_555 1_555
C16 S7 1_555 1_555
C17 Si1 1_555 1_555
C18 Si1 1_555 1_555
C19 Si1 1_555 1_555
C26 Si2 1_555 1_555
C27 Si2 1_555 1_555
C28 Si2 1_555 1_555

#END
