
#######################################################################
#
#                 Cambridge Crystallographic Data Centre
#                                CCDC 
#
#######################################################################
#
# If this CIF has been generated from an entry in the Cambridge 
# Structural Database, then it will include bibliographic, chemical, 
# crystal, experimental, refinement or atomic coordinate data resulting 
# from the CCDC's data processing and validation procedures.
#
#######################################################################

data_KASHUI
_chemical_formula_moiety         'C34 H30 N6 2+,2(F6 P1 1-)'
_chemical_name_systematic        
'9,10-bis(3-(2-Pyridylmethyl)imidazolium-1-ylmethyl)anthracene bis(hexafluorophosphate)'
_symmetry_cell_setting           triclinic
_symmetry_space_group_name_H-M   'P -1'
_symmetry_Int_Tables_number      2
_space_group_name_Hall           '-P 1'
loop_
_symmetry_equiv_pos_site_id
_symmetry_equiv_pos_as_xyz
1 x,y,z
2 -x,-y,-z
_cell_length_a                   9.2564(15)
_cell_length_b                   9.7534(15)
_cell_length_c                   11.4425(18)
_cell_angle_alpha                65.621(2)
_cell_angle_beta                 75.971(3)
_cell_angle_gamma                76.993(2)
_cell_volume                     903.687
_exptl_crystal_colour            yellow
_exptl_crystal_description       block
_cell_formula_units_Z            1
_exptl_crystal_recrystallization_method 'acetonitrile/diethyl ether'
loop_
_atom_site_label
_atom_site_type_symbol
_atom_site_fract_x
_atom_site_fract_y
_atom_site_fract_z
C1 C -0.0541(4) 0.5881(4) 0.2586(3)
H1 H -0.0454 0.4864 0.3252
H2 H -0.0950 0.5854 0.1892
C2 C 0.1915(4) 0.6274(4) 0.2788(3)
H3 H 0.1783 0.5821 0.3691
C3 C 0.2874(5) 0.7442(6) 0.0785(4)
H4 H 0.3529 0.7943 0.0046
C4 C 0.1537(5) 0.7115(7) 0.0810(4)
H5 H 0.1090 0.7350 0.0092
C5 C 0.4390(4) 0.7153(4) 0.2433(3)
H6 H 0.4210 0.8170 0.2436
H7 H 0.5287 0.7083 0.1801
C6 C 0.4664(3) 0.6013(4) 0.3769(3)
C7 C 0.3958(3) 0.6344(4) 0.4869(3)
C8 C 0.2848(4) 0.7640(4) 0.4814(4)
H8 H 0.2584 0.8300 0.4013
C9 C 0.2171(5) 0.7940(6) 0.5883(5)
H9 H 0.1430 0.8777 0.5820
C10 C 0.5675(3) 0.4676(4) 0.3875(3)
C11 C 0.6374(4) 0.4268(5) 0.2785(4)
H10 H 0.6112 0.4876 0.1972
C12 C 0.2593(5) 0.6981(6) 0.7089(5)
H11 H 0.2149 0.7211 0.7820
C13 C -0.1572(3) 0.6957(4) 0.3152(3)
C14 C -0.2304(4) 0.8303(5) 0.2382(4)
H12 H -0.2207 0.8561 0.1492
C15 C -0.3186(5) 0.9262(6) 0.2975(7)
H13 H -0.3711 1.0176 0.2491
C16 C -0.3272(6) 0.8843(7) 0.4272(7)
H14 H -0.3828 0.9488 0.4685
C17 C -0.2548(6) 0.7491(6) 0.4961(5)
H15 H -0.2648 0.7209 0.5856
N1 N 0.3100(3) 0.6911(3) 0.2029(2)
N2 N 0.0953(3) 0.6380(3) 0.2070(2)
N3 N -0.1699(4) 0.6540(4) 0.4426(3)
C1A C 1.0541(4) 0.4119(4) 0.7414(3)
H1A H 1.0454 0.5136 0.6748
H2A H 1.0950 0.4146 0.8108
C2A C 0.8085(4) 0.3726(4) 0.7212(3)
H3A H 0.8217 0.4179 0.6309
C3A C 0.7126(5) 0.2558(6) 0.9215(4)
H4A H 0.6471 0.2057 0.9954
C4A C 0.8463(5) 0.2885(7) 0.9190(4)
H5A H 0.8910 0.2650 0.9908
C5A C 0.5610(4) 0.2847(4) 0.7567(3)
H6A H 0.5790 0.1830 0.7564
H7A H 0.4713 0.2917 0.8199
C6A C 0.5336(3) 0.3987(4) 0.6231(3)
C7A C 0.6042(3) 0.3656(4) 0.5131(3)
C8A C 0.7152(4) 0.2360(4) 0.5186(4)
H8A H 0.7416 0.1700 0.5987
C9A C 0.7829(5) 0.2060(6) 0.4117(5)
H9A H 0.8570 0.1223 0.4180
C10A C 0.4325(3) 0.5324(4) 0.6125(3)
C11A C 0.3626(4) 0.5732(5) 0.7215(4)
H10A H 0.3888 0.5124 0.8028
C12A C 0.7407(5) 0.3019(6) 0.2911(5)
H11A H 0.7851 0.2789 0.2180
C13A C 1.1572(3) 0.3043(4) 0.6848(3)
C14A C 1.2304(4) 0.1697(5) 0.7618(4)
H12A H 1.2207 0.1439 0.8508
C15A C 1.3186(5) 0.0738(6) 0.7025(7)
H13A H 1.3711 -0.0176 0.7509
C16A C 1.3272(6) 0.1157(7) 0.5728(7)
H14A H 1.3828 0.0512 0.5315
C17A C 1.2548(6) 0.2509(6) 0.5039(5)
H15A H 1.2648 0.2791 0.4144
N1A N 0.6900(3) 0.3089(3) 0.7971(2)
N2A N 0.9047(3) 0.3620(3) 0.7930(2)
N3A N 1.1699(4) 0.3460(4) 0.5574(3)
P1 P 0.23998(11) 0.20890(12) 0.13911(9)
F1 F 0.1500(9) 0.2917(9) 0.2240(8)
F2 F 0.3426(8) 0.3376(8) 0.0658(10)
F3 F 0.3513(7) 0.1258(9) 0.2385(7)
F4 F 0.1501(8) 0.0731(8) 0.2081(10)
F5 F 0.1334(11) 0.2873(11) 0.0409(9)
F6 F 0.3432(10) 0.1268(11) 0.0496(9)
F7? F 0.1092(12) 0.3219(12) 0.1774(13)
F8? F 0.3541(14) 0.2868(15) 0.1601(13)
F9? F 0.225(2) 0.0980(11) 0.2812(6)
F10? F 0.1207(13) 0.1351(16) 0.1167(12)
F11? F 0.2522(15) 0.3191(12) -0.0053(6)
F12? F 0.3669(13) 0.0959(12) 0.0991(14)
loop_
_geom_bond_atom_site_label_1
_geom_bond_atom_site_label_2
_geom_bond_site_symmetry_1
_geom_bond_site_symmetry_2
C1 H1 1_555 1_555
H2 C1 1_555 1_555
C2 H3 1_555 1_555
C3 H4 1_555 1_555
C4 C3 1_555 1_555
H5 C4 1_555 1_555
C5 H6 1_555 1_555
H7 C5 1_555 1_555
C6 C5 1_555 1_555
C7 C6 1_555 1_555
C8 C7 1_555 1_555
H8 C8 1_555 1_555
C9 C8 1_555 1_555
H9 C9 1_555 1_555
C10 C6 1_555 1_555
C11 C10 1_555 1_555
H10 C11 1_555 1_555
C12 C9 1_555 1_555
H11 C12 1_555 1_555
C13 C1 1_555 1_555
C14 C13 1_555 1_555
H12 C14 1_555 1_555
C15 C14 1_555 1_555
H13 C15 1_555 1_555
C16 C15 1_555 1_555
H14 C16 1_555 1_555
C17 C16 1_555 1_555
H15 C17 1_555 1_555
N1 C2 1_555 1_555
N2 C1 1_555 1_555
N3 C13 1_555 1_555
P1 F1 1_555 1_555
F2 P1 1_555 1_555
F3 P1 1_555 1_555
F4 P1 1_555 1_555
F5 P1 1_555 1_555
F6 P1 1_555 1_555
C1A H1A 1_555 1_555
H2A C1A 1_555 1_555
C2A H3A 1_555 1_555
C3A H4A 1_555 1_555
C4A C3A 1_555 1_555
H5A C4A 1_555 1_555
C5A H6A 1_555 1_555
H7A C5A 1_555 1_555
C6A C5A 1_555 1_555
C7A C10 1_555 1_555
C8A C7A 1_555 1_555
H8A C8A 1_555 1_555
C9A C8A 1_555 1_555
H9A C9A 1_555 1_555
C10A C7 1_555 1_555
C11A C12 1_555 1_555
H10A C11A 1_555 1_555
C12A C11 1_555 1_555
H11A C12A 1_555 1_555
C13A C1A 1_555 1_555
C14A C13A 1_555 1_555
H12A C14A 1_555 1_555
C15A C14A 1_555 1_555
H13A C15A 1_555 1_555
C16A C15A 1_555 1_555
H14A C16A 1_555 1_555
C17A C16A 1_555 1_555
H15A C17A 1_555 1_555
N1A C2A 1_555 1_555
N2A C1A 1_555 1_555
N3A C13A 1_555 1_555
C2 N2 1_555 1_555
C3 N1 1_555 1_555
C4 N2 1_555 1_555
C5 N1 1_555 1_555
C17 N3 1_555 1_555
C2A N2A 1_555 1_555
C3A N1A 1_555 1_555
C4A N2A 1_555 1_555
C5A N1A 1_555 1_555
C6A C7A 1_555 1_555
C6A C10A 1_555 1_555
C9A C12A 1_555 1_555
C10A C11A 1_555 1_555
C17A N3A 1_555 1_555

#END
