
#######################################################################
#
#                 Cambridge Crystallographic Data Centre
#                                CCDC 
#
#######################################################################
#
# If this CIF has been generated from an entry in the Cambridge 
# Structural Database, then it will include bibliographic, chemical, 
# crystal, experimental, refinement or atomic coordinate data resulting 
# from the CCDC's data processing and validation procedures.
#
#######################################################################

data_KASJIX
_chemical_formula_moiety         'C23 H22 Br2 O6'
_chemical_name_systematic        
'Perhydro-2-((3-methyleneoxiran-2-yl)methyl)pyran-3-yl bis(p-bromobenzoate)'
_symmetry_cell_setting           triclinic
_symmetry_space_group_name_H-M   'P -1'
_symmetry_Int_Tables_number      2
_space_group_name_Hall           '-P 1'
loop_
_symmetry_equiv_pos_site_id
_symmetry_equiv_pos_as_xyz
1 x,y,z
2 -x,-y,-z
_cell_length_a                   7.900(1)
_cell_length_b                   10.960(3)
_cell_length_c                   13.479(3)
_cell_angle_alpha                90.90(2)
_cell_angle_beta                 99.09(2)
_cell_angle_gamma                92.51(2)
_cell_volume                     1151
_cell_formula_units_Z            2
loop_
_atom_site_label
_atom_site_type_symbol
_atom_site_fract_x
_atom_site_fract_y
_atom_site_fract_z
Br1 Br 0.9957(1) 0.66742(9) 0.12943(8)
Br2 Br 0.7812(2) -0.7191(1) 0.56859(9)
C1 C 0.8028(9) 0.5578(7) 0.1293(6)
C2 C 0.651(1) 0.6056(7) 0.1442(6)
C3 C 0.510(1) 0.5268(8) 0.1411(6)
C4 C 0.5223(9) 0.4021(7) 0.1261(5)
C5 C 0.678(1) 0.3577(7) 0.1111(7)
C6 C 0.817(1) 0.4343(8) 0.1132(7)
C7 C 0.365(1) 0.3223(7) 0.1251(6)
C8 C 0.243(1) 0.1213(8) 0.0969(7)
C9 C 0.290(1) 0.0051(8) 0.0504(6)
C10 C 0.364(1) -0.0941(8) 0.1068(6)
C11 C 0.416(1) -0.0919(8) 0.2211(6)
C12 C 0.586(1) -0.0222(8) 0.2509(6)
C13 C 0.658(1) -0.0238(8) 0.3622(6)
C14 C 0.831(1) 0.0438(9) 0.3822(7)
C15 C 0.951(1) -0.0087(9) 0.3142(7)
C16 C 0.866(1) -0.0081(9) 0.2061(7)
C17 C 0.686(1) -0.1789(9) 0.4863(6)
C18 C 0.714(1) -0.3078(8) 0.5038(6)
C19 C 0.714(1) -0.394(1) 0.4264(7)
C20 C 0.736(2) -0.512(1) 0.4460(7)
C21 C 0.758(1) -0.5526(9) 0.5419(7)
C22 C 0.763(1) -0.469(1) 0.6202(7)
C23 C 0.739(1) -0.349(1) 0.6004(7)
O1 O 0.2333(7) 0.3539(6) 0.1466(5)
O2 O 0.3890(6) 0.2060(5) 0.0971(4)
O3 O 0.1842(6) -0.0985(5) 0.0670(4)
O4 O 0.7049(6) -0.0726(5) 0.1931(4)
O5 O 0.6742(7) -0.1499(5) 0.3879(4)
O6 O 0.6791(8) -0.1010(6) 0.5508(4)
H1 H 0.6420 0.6924 0.1554
H2 H 0.4025 0.5583 0.1506
H3 H 0.6879 0.2727 0.1000
H4 H 0.9256 0.4037 0.1038
H5 H 0.1402 0.1534 0.0583
H6 H 0.2192 0.1076 0.1631
H7 H 0.3281 -0.0558 0.2518
H8 H 0.4259 -0.1747 0.2455
H9 H 0.5675 0.0626 0.2356
H10 H 0.5864 0.0172 0.4028
H11 H 0.8178 0.1293 0.3682
H12 H 0.8799 0.0378 0.4514
H13 H 1.0587 0.0367 0.3229
H14 H 0.9741 -0.0919 0.3325
H15 H 0.8523 0.0751 0.1864
H16 H 0.9394 -0.0441 0.1640
H17 H 0.7056 -0.3666 0.3589
H18 H 0.7416 -0.5682 0.3922
H19 H 0.7782 -0.4972 0.6885
H20 H 0.7417 -0.2913 0.6541
H21 H 0.3236 0.0488 -0.0067
H22 H 0.4639 -0.1413 0.1006
loop_
_geom_bond_atom_site_label_1
_geom_bond_atom_site_label_2
_geom_bond_site_symmetry_1
_geom_bond_site_symmetry_2
Br1 C1 1_555 1_555
Br2 C21 1_555 1_555
C1 C2 1_555 1_555
C2 C3 1_555 1_555
C3 C4 1_555 1_555
C4 C5 1_555 1_555
C5 C6 1_555 1_555
C6 C1 1_555 1_555
C7 C4 1_555 1_555
C8 C9 1_555 1_555
C9 C10 1_555 1_555
C10 C11 1_555 1_555
C11 C12 1_555 1_555
C12 C13 1_555 1_555
C13 C14 1_555 1_555
C14 C15 1_555 1_555
C15 C16 1_555 1_555
C16 O4 1_555 1_555
C17 C18 1_555 1_555
C18 C19 1_555 1_555
C19 C20 1_555 1_555
C20 C21 1_555 1_555
C21 C22 1_555 1_555
C22 C23 1_555 1_555
C23 C18 1_555 1_555
O1 C7 1_555 1_555
O2 C7 1_555 1_555
O3 C9 1_555 1_555
O4 C12 1_555 1_555
O5 C13 1_555 1_555
O6 C17 1_555 1_555
H1 C2 1_555 1_555
H2 C3 1_555 1_555
H3 C5 1_555 1_555
H4 C6 1_555 1_555
H5 C8 1_555 1_555
H6 C8 1_555 1_555
H7 C11 1_555 1_555
H8 C11 1_555 1_555
H9 C12 1_555 1_555
H10 C13 1_555 1_555
H11 C14 1_555 1_555
H12 C14 1_555 1_555
H13 C15 1_555 1_555
H14 C15 1_555 1_555
H15 C16 1_555 1_555
H16 C16 1_555 1_555
H17 C19 1_555 1_555
H18 C20 1_555 1_555
H19 C22 1_555 1_555
H20 C23 1_555 1_555
H21 C9 1_555 1_555
H22 C10 1_555 1_555
C8 O2 1_555 1_555
C10 O3 1_555 1_555
C17 O5 1_555 1_555

#END
