
#######################################################################
#
#                 Cambridge Crystallographic Data Centre
#                                CCDC 
#
#######################################################################
#
# If this CIF has been generated from an entry in the Cambridge 
# Structural Database, then it will include bibliographic, chemical, 
# crystal, experimental, refinement or atomic coordinate data resulting 
# from the CCDC's data processing and validation procedures.
#
#######################################################################

data_KASLUM
_chemical_formula_moiety         'C18 H14 N2 S2'
_chemical_name_systematic        bis(Benzylthio)maleonitrile
_symmetry_cell_setting           monoclinic
_symmetry_space_group_name_H-M   'P 21/c'
_symmetry_Int_Tables_number      14
_space_group_name_Hall           '-P 2ybc'
loop_
_symmetry_equiv_pos_site_id
_symmetry_equiv_pos_as_xyz
1 x,y,z
2 -x,1/2+y,1/2-z
3 -x,-y,-z
4 x,1/2-y,1/2+z
_cell_length_a                   18.1665(13)
_cell_length_b                   11.0409(8)
_cell_length_c                   32.197(2)
_cell_angle_alpha                90
_cell_angle_beta                 90.1380(10)
_cell_angle_gamma                90
_cell_volume                     6457.88
_exptl_crystal_colour            colorless
_exptl_crystal_description       chunk
_chemical_melting_point          '344.0-345.4 K'
_cell_formula_units_Z            16
_exptl_crystal_recrystallization_method chloroform/hexane
loop_
_atom_site_label
_atom_site_type_symbol
_atom_site_fract_x
_atom_site_fract_y
_atom_site_fract_z
S1 S 0.64586(2) 0.15639(3) 0.595891(11)
S2 S 0.51163(2) 0.02208(3) 0.634366(12)
N1 N 0.57483(9) 0.47216(13) 0.61111(5)
N2 N 0.41168(8) 0.30274(13) 0.66923(5)
C1 C 0.57238(8) 0.36846(14) 0.61324(5)
C2 C 0.57090(8) 0.23901(13) 0.61474(4)
C3 C 0.51401(8) 0.18020(13) 0.63330(4)
C4 C 0.45699(8) 0.24808(14) 0.65299(5)
C5 C 0.67266(8) 0.24682(14) 0.55108(5)
H1 H 0.6810 0.3314 0.5602
H2 H 0.7197 0.2153 0.5400
C6 C 0.61609(8) 0.24625(16) 0.51682(5)
C7 C 0.58823(10) 0.35564(17) 0.50163(6)
H3 H 0.6034 0.4302 0.5137
C8 C 0.53795(11) 0.3551(2) 0.46864(6)
H4 H 0.5192 0.4295 0.4582
C9 C 0.51557(11) 0.2473(2) 0.45132(6)
H5 H 0.4818 0.2474 0.4287
C10 C 0.54209(12) 0.1390(2) 0.46673(7)
H6 H 0.5260 0.0647 0.4549
C11 C 0.59205(11) 0.13820(18) 0.49939(6)
H7 H 0.6099 0.0633 0.5099
C12 C 0.42512(8) -0.01143(14) 0.66088(5)
H8 H 0.4291 0.0081 0.6908
H9 H 0.3844 0.0367 0.6488
C13 C 0.41119(8) -0.14492(13) 0.65490(5)
C14 C 0.46320(9) -0.23014(15) 0.66744(5)
H10 H 0.5079 -0.2040 0.6799
C15 C 0.45014(10) -0.35316(15) 0.66194(5)
H11 H 0.4861 -0.4106 0.6704
C16 C 0.38483(10) -0.39206(15) 0.64409(5)
H12 H 0.3758 -0.4761 0.6404
C17 C 0.33282(9) -0.30777(16) 0.63167(6)
H13 H 0.2878 -0.3343 0.6197
C18 C 0.34601(9) -0.18444(15) 0.63664(6)
H14 H 0.3104 -0.1272 0.6275
S3 S 0.78619(2) 0.51543(3) 0.517058(12)
S4 S 0.67765(2) 0.65692(3) 0.572155(13)
N3 N 0.88763(8) 0.78255(13) 0.47459(5)
N4 N 0.74866(8) 0.96838(13) 0.54927(5)
C19 C 0.84358(8) 0.73487(13) 0.49407(4)
C20 C 0.79077(8) 0.67275(13) 0.51902(4)
C21 C 0.74476(8) 0.73567(13) 0.54421(5)
C22 C 0.74753(8) 0.86488(14) 0.54633(5)
C23 C 0.86394(9) 0.47570(14) 0.48425(5)
H15 H 0.8603 0.5177 0.4572
H16 H 0.9107 0.4996 0.4978
C24 C 0.86134(10) 0.34045(14) 0.47817(5)
C25 C 0.92249(11) 0.26994(17) 0.48752(5)
H17 H 0.9659 0.3069 0.4981
C26 C 0.92031(14) 0.14550(17) 0.48140(6)
H18 H 0.9625 0.0978 0.4875
C27 C 0.85709(15) 0.09057(16) 0.46649(6)
H19 H 0.8558 0.0053 0.4626
C28 C 0.79574(13) 0.15974(17) 0.45733(6)
H20 H 0.7523 0.1221 0.4471
C29 C 0.79782(10) 0.28432(15) 0.46305(5)
H21 H 0.7557 0.3318 0.4566
C30 C 0.66938(9) 0.74897(15) 0.61900(5)
H22 H 0.6546 0.8320 0.6109
H23 H 0.6296 0.7151 0.6364
C31 C 0.73861(9) 0.75647(14) 0.64466(5)
C32 C 0.76851(9) 0.86838(15) 0.65495(5)
H24 H 0.7461 0.9402 0.6447
C33 C 0.83086(11) 0.87678(18) 0.68005(6)
H25 H 0.8505 0.9540 0.6870
C34 C 0.86420(11) 0.7726(2) 0.69491(6)
H26 H 0.9068 0.7779 0.7120
C35 C 0.83503(12) 0.6606(2) 0.68461(6)
H27 H 0.8578 0.5890 0.6948
C36 C 0.77309(11) 0.65185(16) 0.65973(6)
H28 H 0.7538 0.5744 0.6528
N5 N 0.61317(8) 0.71434(12) 0.72450(4)
N6 N 0.75029(9) 0.53207(13) 0.79761(5)
S5 S 0.71423(2) 0.98469(3) 0.765582(12)
S6 S 0.82377(2) 0.84282(3) 0.822084(12)
C37 C 0.65769(8) 0.76350(13) 0.74323(4)
C38 C 0.71136(8) 0.82743(13) 0.76762(4)
C39 C 0.75732(8) 0.76481(13) 0.79315(4)
C40 C 0.75337(8) 0.63577(14) 0.79516(5)
C41 C 0.63999(9) 1.02045(14) 0.72953(5)
H29 H 0.6482 0.9794 0.7026
H30 H 0.5922 0.9931 0.7409
C42 C 0.63991(9) 1.15595(13) 0.72379(5)
C43 C 0.57672(10) 1.22231(15) 0.73201(5)
H31 H 0.5334 1.1822 0.7412
C44 C 0.57662(12) 1.34762(16) 0.72682(6)
H32 H 0.5329 1.3925 0.7319
C45 C 0.63979(13) 1.40676(15) 0.71435(6)
H33 H 0.6397 1.4923 0.7112
C46 C 0.70297(12) 1.34152(16) 0.70640(6)
H34 H 0.7465 1.3824 0.6980
C47 C 0.70323(9) 1.21651(15) 0.71068(5)
H35 H 0.7466 1.1719 0.7047
C48 C 0.82918(8) 0.75206(14) 0.86930(5)
H36 H 0.8414 0.6677 0.8616
H37 H 0.8700 0.7833 0.8867
C49 C 0.75983(8) 0.75105(14) 0.89483(5)
C50 C 0.72906(10) 0.64118(15) 0.90690(5)
H38 H 0.7504 0.5673 0.8978
C51 C 0.66712(11) 0.63910(19) 0.93224(6)
H39 H 0.6465 0.5637 0.9404
C52 C 0.63544(11) 0.7456(2) 0.94550(6)
H40 H 0.5933 0.7437 0.9629
C53 C 0.66530(11) 0.85568(19) 0.93330(6)
H41 H 0.6433 0.9293 0.9422
C54 C 0.72721(10) 0.85861(15) 0.90808(5)
H42 H 0.7474 0.9342 0.8998
S7 S 0.84993(2) 0.35269(3) 0.843815(12)
S8 S 0.99443(2) 0.47910(3) 0.873956(12)
N7 N 0.89912(8) 0.03909(13) 0.87790(5)
N8 N 1.07861(8) 0.19801(14) 0.92159(5)
C55 C 0.90961(8) 0.14063(14) 0.87345(5)
C56 C 0.92019(8) 0.26772(13) 0.86722(4)
C57 C 0.98150(8) 0.32443(13) 0.88205(4)
C58 C 1.03563(8) 0.25505(14) 0.90409(5)
C59 C 0.82186(8) 0.25123(14) 0.80179(5)
H43 H 0.8100 0.1708 0.8136
H44 H 0.7766 0.2835 0.7886
C60 C 0.88029(8) 0.23679(14) 0.76924(5)
C61 C 0.90017(10) 0.33487(15) 0.74439(5)
H45 H 0.8770 0.4111 0.7483
C62 C 0.95337(11) 0.32206(18) 0.71401(6)
H46 H 0.9665 0.3893 0.6972
C63 C 0.98759(10) 0.21090(17) 0.70811(5)
H47 H 1.0242 0.2021 0.6873
C64 C 0.96832(10) 0.11302(17) 0.73258(6)
H48 H 0.9915 0.0368 0.7284
C65 C 0.91499(9) 0.12596(15) 0.76326(5)
H49 H 0.9023 0.0587 0.7802
C66 C 1.07367(8) 0.51472(14) 0.90685(5)
H50 H 1.0626 0.4965 0.9363
H51 H 1.1170 0.4665 0.8983
C67 C 1.08855(8) 0.64843(13) 0.90123(5)
C68 C 1.03452(9) 0.73406(15) 0.91044(5)
H52 H 0.9875 0.7082 0.9197
C69 C 1.04909(10) 0.85668(15) 0.90619(5)
H53 H 1.0118 0.9143 0.9123
C70 C 1.11758(10) 0.89576(15) 0.89308(5)
H54 H 1.1276 0.9799 0.8904
C71 C 1.17154(9) 0.81116(16) 0.88385(6)
H55 H 1.2187 0.8375 0.8750
C72 C 1.15699(8) 0.68788(15) 0.88750(5)
H56 H 1.1939 0.6305 0.8806
loop_
_geom_bond_atom_site_label_1
_geom_bond_atom_site_label_2
_geom_bond_site_symmetry_1
_geom_bond_site_symmetry_2
S1 C2 1_555 1_555
S2 C3 1_555 1_555
N1 C1 1_555 1_555
N2 C4 1_555 1_555
C1 C2 1_555 1_555
C2 C3 1_555 1_555
C3 C4 1_555 1_555
C5 S1 1_555 1_555
H1 C5 1_555 1_555
H2 C5 1_555 1_555
C6 C5 1_555 1_555
C7 C6 1_555 1_555
H3 C7 1_555 1_555
C8 C7 1_555 1_555
H4 C8 1_555 1_555
C9 C8 1_555 1_555
H5 C9 1_555 1_555
C10 C9 1_555 1_555
H6 C10 1_555 1_555
C11 C6 1_555 1_555
H7 C11 1_555 1_555
C12 S2 1_555 1_555
H8 C12 1_555 1_555
H9 C12 1_555 1_555
C13 C12 1_555 1_555
C14 C13 1_555 1_555
H10 C14 1_555 1_555
C15 C14 1_555 1_555
H11 C15 1_555 1_555
C16 C15 1_555 1_555
H12 C16 1_555 1_555
C17 C16 1_555 1_555
H13 C17 1_555 1_555
C18 C13 1_555 1_555
H14 C18 1_555 1_555
S3 C20 1_555 1_555
S4 C21 1_555 1_555
N3 C19 1_555 1_555
N4 C22 1_555 1_555
C19 C20 1_555 1_555
C20 C21 1_555 1_555
C21 C22 1_555 1_555
C23 S3 1_555 1_555
H15 C23 1_555 1_555
H16 C23 1_555 1_555
C24 C23 1_555 1_555
C25 C24 1_555 1_555
H17 C25 1_555 1_555
C26 C25 1_555 1_555
H18 C26 1_555 1_555
C27 C26 1_555 1_555
H19 C27 1_555 1_555
C28 C27 1_555 1_555
H20 C28 1_555 1_555
C29 C24 1_555 1_555
H21 C29 1_555 1_555
C30 S4 1_555 1_555
H22 C30 1_555 1_555
H23 C30 1_555 1_555
C31 C30 1_555 1_555
C32 C31 1_555 1_555
H24 C32 1_555 1_555
C33 C32 1_555 1_555
H25 C33 1_555 1_555
C34 C33 1_555 1_555
H26 C34 1_555 1_555
C35 C34 1_555 1_555
H27 C35 1_555 1_555
C36 C31 1_555 1_555
H28 C36 1_555 1_555
N5 C37 1_555 1_555
N6 C40 1_555 1_555
S5 C38 1_555 1_555
S6 C39 1_555 1_555
C37 C38 1_555 1_555
C38 C39 1_555 1_555
C39 C40 1_555 1_555
C41 S5 1_555 1_555
H29 C41 1_555 1_555
H30 C41 1_555 1_555
C42 C41 1_555 1_555
C43 C42 1_555 1_555
H31 C43 1_555 1_555
C44 C43 1_555 1_555
H32 C44 1_555 1_555
C45 C44 1_555 1_555
H33 C45 1_555 1_555
C46 C45 1_555 1_555
H34 C46 1_555 1_555
C47 C42 1_555 1_555
H35 C47 1_555 1_555
C48 S6 1_555 1_555
H36 C48 1_555 1_555
H37 C48 1_555 1_555
C49 C48 1_555 1_555
C50 C49 1_555 1_555
H38 C50 1_555 1_555
C51 C50 1_555 1_555
H39 C51 1_555 1_555
C52 C51 1_555 1_555
H40 C52 1_555 1_555
C53 C52 1_555 1_555
H41 C53 1_555 1_555
C54 C49 1_555 1_555
H42 C54 1_555 1_555
S7 C56 1_555 1_555
S8 C57 1_555 1_555
N7 C55 1_555 1_555
N8 C58 1_555 1_555
C55 C56 1_555 1_555
C56 C57 1_555 1_555
C57 C58 1_555 1_555
C59 S7 1_555 1_555
H43 C59 1_555 1_555
H44 C59 1_555 1_555
C60 C59 1_555 1_555
C61 C60 1_555 1_555
H45 C61 1_555 1_555
C62 C61 1_555 1_555
H46 C62 1_555 1_555
C63 C62 1_555 1_555
H47 C63 1_555 1_555
C64 C63 1_555 1_555
H48 C64 1_555 1_555
C65 C60 1_555 1_555
H49 C65 1_555 1_555
C66 S8 1_555 1_555
H50 C66 1_555 1_555
H51 C66 1_555 1_555
C67 C66 1_555 1_555
C68 C67 1_555 1_555
H52 C68 1_555 1_555
C69 C68 1_555 1_555
H53 C69 1_555 1_555
C70 C69 1_555 1_555
H54 C70 1_555 1_555
C71 C70 1_555 1_555
H55 C71 1_555 1_555
C72 C67 1_555 1_555
H56 C72 1_555 1_555
C10 C11 1_555 1_555
C17 C18 1_555 1_555
C28 C29 1_555 1_555
C35 C36 1_555 1_555
C46 C47 1_555 1_555
C53 C54 1_555 1_555
C64 C65 1_555 1_555
C71 C72 1_555 1_555

#END
