
#######################################################################
#
#                 Cambridge Crystallographic Data Centre
#                                CCDC 
#
#######################################################################
#
# If this CIF has been generated from an entry in the Cambridge 
# Structural Database, then it will include bibliographic, chemical, 
# crystal, experimental, refinement or atomic coordinate data resulting 
# from the CCDC's data processing and validation procedures.
#
#######################################################################

data_KASQEB
_chemical_formula_moiety         'C8 H10 N2 O2'
_chemical_name_systematic        'Ethyl N-(3-pyridyl)carbamate'
_symmetry_cell_setting           monoclinic
_symmetry_space_group_name_H-M   'P 21/c'
_symmetry_Int_Tables_number      14
_space_group_name_Hall           '-P 2ybc'
loop_
_symmetry_equiv_pos_site_id
_symmetry_equiv_pos_as_xyz
1 x,y,z
2 -x,1/2+y,1/2-z
3 -x,-y,-z
4 x,1/2-y,1/2+z
_cell_length_a                   9.621(4)
_cell_length_b                   7.497(3)
_cell_length_c                   11.839(5)
_cell_angle_alpha                90
_cell_angle_beta                 93.211(6)
_cell_angle_gamma                90
_cell_volume                     852.59
_exptl_crystal_colour            colorless
_exptl_crystal_description       block
_chemical_melting_point          '363-364 K'
_cell_formula_units_Z            4
_exptl_crystal_recrystallization_method ethanol/water
loop_
_atom_site_label
_atom_site_type_symbol
_atom_site_fract_x
_atom_site_fract_y
_atom_site_fract_z
O1 O 0.71656(13) 0.1381(2) -0.04711(10)
O2 O 0.74023(12) 0.09654(18) 0.14117(9)
N1 N 1.05070(15) 0.3374(2) -0.21729(11)
N2 N 0.92267(14) 0.1866(2) 0.05422(10)
C1 C 1.00699(16) 0.2551(2) -0.02740(12)
C2 C 1.13859(18) 0.3137(3) 0.00687(14)
H1 H 1.1693 0.3062 0.0826
C3 C 1.22383(19) 0.3830(3) -0.07099(15)
H2 H 1.3126 0.4232 -0.0487
C4 C 1.17636(19) 0.3922(3) -0.18218(15)
H3 H 1.2347 0.4387 -0.2349
C5 C 0.96760(18) 0.2705(3) -0.14166(13)
H4 H 0.8791 0.2323 -0.1665
C6 C 0.78704(18) 0.1406(2) 0.04020(14)
C7 C 0.59715(17) 0.0395(3) 0.14151(15)
H5 H 0.5821 -0.0644 0.0935
H6 H 0.5356 0.1340 0.1135
C8 C 0.5691(2) -0.0048(3) 0.26110(17)
H7 H 0.6304 -0.0987 0.2877
H8 H 0.4743 -0.0432 0.2649
H9 H 0.5846 0.0989 0.3076
H10 H 0.9647(16) 0.176(2) 0.1271(9)
loop_
_geom_bond_atom_site_label_1
_geom_bond_atom_site_label_2
_geom_bond_site_symmetry_1
_geom_bond_site_symmetry_2
O1 C6 1_555 1_555
O2 C6 1_555 1_555
N1 C4 1_555 1_555
N2 C1 1_555 1_555
C1 C2 1_555 1_555
C2 H1 1_555 1_555
C3 C2 1_555 1_555
H2 C3 1_555 1_555
C4 C3 1_555 1_555
H3 C4 1_555 1_555
C5 N1 1_555 1_555
H4 C5 1_555 1_555
C6 N2 1_555 1_555
C7 O2 1_555 1_555
H5 C7 1_555 1_555
H6 C7 1_555 1_555
C8 C7 1_555 1_555
H7 C8 1_555 1_555
H8 C8 1_555 1_555
H9 C8 1_555 1_555
H10 N2 1_555 1_555
C1 C5 1_555 1_555

#END
