
#######################################################################
#
#                 Cambridge Crystallographic Data Centre
#                                CCDC 
#
#######################################################################
#
# If this CIF has been generated from an entry in the Cambridge 
# Structural Database, then it will include bibliographic, chemical, 
# crystal, experimental, refinement or atomic coordinate data resulting 
# from the CCDC's data processing and validation procedures.
#
#######################################################################

data_KASVIL
_chemical_formula_moiety         'C36 H24 N2'
_chemical_name_systematic        9,9'-Biphenyl-2,2'-diylbis(9H-carbazole)
_symmetry_cell_setting           monoclinic
_symmetry_space_group_name_H-M   'P 21/c'
_symmetry_Int_Tables_number      14
_space_group_name_Hall           '-P 2ybc'
loop_
_symmetry_equiv_pos_site_id
_symmetry_equiv_pos_as_xyz
1 x,y,z
2 -x,1/2+y,1/2-z
3 -x,-y,-z
4 x,1/2-y,1/2+z
_cell_length_a                   8.2215(5)
_cell_length_b                   18.0008(11)
_cell_length_c                   17.3401(11)
_cell_angle_alpha                90
_cell_angle_beta                 100.4060(10)
_cell_angle_gamma                90
_cell_volume                     2524.02
_exptl_crystal_colour            colorless
_exptl_crystal_description       block
_cell_formula_units_Z            4
loop_
_atom_site_label
_atom_site_type_symbol
_atom_site_fract_x
_atom_site_fract_y
_atom_site_fract_z
C1 C 0.3031(2) 0.46720(9) 0.10350(9)
C2 C 0.2799(2) 0.52653(10) 0.05115(10)
H1 H 0.1859 0.5274 0.0122
C3 C 0.3914(3) 0.58374(11) 0.05518(12)
H2 H 0.3719 0.6232 0.0201
C4 C 0.5318(3) 0.58223(11) 0.11141(12)
H3 H 0.6067 0.6214 0.1154
C5 C 0.5622(2) 0.52307(10) 0.16191(10)
H4 H 0.6594 0.5217 0.1988
C6 C 0.4496(2) 0.46553(9) 0.15850(9)
C7 C 0.5495(2) 0.41406(11) 0.29230(10)
C8 C 0.5408(3) 0.47618(12) 0.33822(11)
H5 H 0.4948 0.5204 0.3167
C9 C 0.6028(3) 0.46995(17) 0.41693(13)
H6 H 0.5986 0.5110 0.4491
C10 C 0.6713(3) 0.4046(2) 0.45000(14)
H7 H 0.7124 0.4022 0.5035
C11 C 0.6785(3) 0.34340(17) 0.40409(15)
H8 H 0.7244 0.2994 0.4263
C12 C 0.6165(2) 0.34727(12) 0.32340(12)
C13 C 0.6008(2) 0.29487(12) 0.25985(13)
C14 C 0.6463(3) 0.22089(14) 0.25343(18)
H9 H 0.6962 0.1949 0.2978
C15 C 0.6174(3) 0.18660(14) 0.1820(2)
H10 H 0.6482 0.1372 0.1780
C16 C 0.5427(3) 0.22468(14) 0.11519(17)
H11 H 0.5237 0.2002 0.0672
C17 C 0.4959(2) 0.29805(11) 0.11870(12)
H12 H 0.4473 0.3237 0.0739
C18 C 0.5240(2) 0.33196(10) 0.19138(11)
C19 C 0.1730(2) 0.40897(9) 0.09665(8)
C20 C 0.1277(2) 0.37172(10) 0.02555(9)
H13 H 0.1787 0.3846 -0.0162
C21 C 0.0100(2) 0.31648(10) 0.01509(10)
H14 H -0.0166 0.2922 -0.0329
C22 C -0.0678(2) 0.29750(10) 0.07605(10)
H15 H -0.1449 0.2592 0.0701
C23 C -0.0314(2) 0.33538(10) 0.14598(10)
H16 H -0.0876 0.3237 0.1864
C24 C 0.0878(2) 0.39073(9) 0.15719(8)
C25 C 0.1423(2) 0.39519(9) 0.30322(8)
C26 C 0.2059(2) 0.32491(10) 0.32339(9)
H17 H 0.2320 0.2924 0.2858
C27 C 0.2288(2) 0.30546(10) 0.40137(10)
H18 H 0.2728 0.2590 0.4167
C28 C 0.1881(2) 0.35316(11) 0.45759(10)
H19 H 0.2032 0.3379 0.5096
C29 C 0.1258(2) 0.42268(10) 0.43759(9)
H20 H 0.0998 0.4546 0.4757
C30 C 0.1023(2) 0.44464(9) 0.35955(9)
C31 C 0.0456(2) 0.51240(9) 0.31875(9)
C32 C -0.0136(2) 0.57950(10) 0.34208(10)
H21 H -0.0210 0.5874 0.3943
C33 C -0.0610(2) 0.63404(10) 0.28721(11)
H22 H -0.1016 0.6789 0.3024
C34 C -0.0490(2) 0.62283(10) 0.20929(10)
H23 H -0.0794 0.6609 0.1733
C35 C 0.0069(2) 0.55666(9) 0.18405(9)
H24 H 0.0127 0.5491 0.1316
C36 C 0.0543(2) 0.50159(9) 0.23964(9)
N1 N 0.11570(16) 0.43034(7) 0.22972(7)
N2 N 0.48989(17) 0.40503(8) 0.21182(7)
loop_
_geom_bond_atom_site_label_1
_geom_bond_atom_site_label_2
_geom_bond_site_symmetry_1
_geom_bond_site_symmetry_2
C1 C2 1_555 1_555
C2 H1 1_555 1_555
C3 C2 1_555 1_555
H2 C3 1_555 1_555
C4 C3 1_555 1_555
H3 C4 1_555 1_555
C5 C4 1_555 1_555
H4 C5 1_555 1_555
C6 C1 1_555 1_555
C7 C8 1_555 1_555
C8 H5 1_555 1_555
C9 C8 1_555 1_555
H6 C9 1_555 1_555
C10 C9 1_555 1_555
H7 C10 1_555 1_555
C11 C10 1_555 1_555
H8 C11 1_555 1_555
C12 C7 1_555 1_555
C13 C12 1_555 1_555
C14 C13 1_555 1_555
H9 C14 1_555 1_555
C15 C14 1_555 1_555
H10 C15 1_555 1_555
C16 C15 1_555 1_555
H11 C16 1_555 1_555
C17 C16 1_555 1_555
H12 C17 1_555 1_555
C18 C13 1_555 1_555
C19 C1 1_555 1_555
C20 C19 1_555 1_555
H13 C20 1_555 1_555
C21 C20 1_555 1_555
H14 C21 1_555 1_555
C22 C21 1_555 1_555
H15 C22 1_555 1_555
C23 C22 1_555 1_555
H16 C23 1_555 1_555
C24 C19 1_555 1_555
C25 C26 1_555 1_555
C26 H17 1_555 1_555
C27 C26 1_555 1_555
H18 C27 1_555 1_555
C28 C27 1_555 1_555
H19 C28 1_555 1_555
C29 C28 1_555 1_555
H20 C29 1_555 1_555
C30 C25 1_555 1_555
C31 C30 1_555 1_555
C32 C31 1_555 1_555
H21 C32 1_555 1_555
C33 C32 1_555 1_555
H22 C33 1_555 1_555
C34 C33 1_555 1_555
H23 C34 1_555 1_555
C35 C34 1_555 1_555
H24 C35 1_555 1_555
C36 C31 1_555 1_555
N1 C24 1_555 1_555
N2 C6 1_555 1_555
C5 C6 1_555 1_555
C7 N2 1_555 1_555
C11 C12 1_555 1_555
C17 C18 1_555 1_555
C18 N2 1_555 1_555
C23 C24 1_555 1_555
C25 N1 1_555 1_555
C29 C30 1_555 1_555
C35 C36 1_555 1_555
C36 N1 1_555 1_555

#END
