
#######################################################################
#
#                 Cambridge Crystallographic Data Centre
#                                CCDC 
#
#######################################################################
#
# If this CIF has been generated from an entry in the Cambridge 
# Structural Database, then it will include bibliographic, chemical, 
# crystal, experimental, refinement or atomic coordinate data resulting 
# from the CCDC's data processing and validation procedures.
#
#######################################################################

data_KASVOR
_chemical_formula_moiety         'C4 H6 N6 O10'
_chemical_name_systematic        bis(2,2-Dinitroethyl)nitramine
_symmetry_cell_setting           monoclinic
_symmetry_space_group_name_H-M   'C 2/c'
_symmetry_Int_Tables_number      15
_space_group_name_Hall           '-C 2yn'
loop_
_symmetry_equiv_pos_site_id
_symmetry_equiv_pos_as_xyz
1 x,y,z
2 -x,y,1/2-z
3 1/2+x,1/2+y,z
4 1/2-x,1/2+y,1/2-z
5 -x,-y,-z
6 x,-y,1/2+z
7 1/2-x,1/2-y,-z
8 1/2+x,1/2-y,1/2+z
_cell_length_a                   12.363(13)
_cell_length_b                   5.876(5)
_cell_length_c                   15.136(16)
_cell_angle_alpha                90
_cell_angle_beta                 90.31(8)
_cell_angle_gamma                90
_cell_volume                     1099.54
_exptl_crystal_colour            colorless
_exptl_crystal_description       prism
_cell_formula_units_Z            4
loop_
_atom_site_label
_atom_site_type_symbol
_atom_site_fract_x
_atom_site_fract_y
_atom_site_fract_z
O1 O 0.97140(10) 1.0542(2) 0.68134(8)
O2 O 0.86320(13) 0.6785(3) 0.48186(9)
O3 O 0.87295(12) 0.3349(3) 0.52926(9)
O4 O 0.70101(10) 0.4355(2) 0.64921(8)
O5 O 0.81306(9) 0.4244(2) 0.75970(8)
N1 N 1.0000 0.9594(4) 0.7500
N2 N 1.0000 0.7274(3) 0.7500
N3 N 0.86481(11) 0.5376(3) 0.53991(10)
N4 N 0.78699(11) 0.4791(3) 0.68476(9)
C1 C 0.98113(13) 0.6134(3) 0.66639(11)
H1 H 1.0017 0.4513 0.6727
H2 H 1.0289 0.6816 0.6213
C2 C 0.86460(13) 0.6260(3) 0.63328(11)
H3 H 0.8393 0.7876 0.6339
O1A O 1.02860(10) 1.0542(2) 0.81866(8)
O2A O 1.13680(13) 0.6785(3) 1.01814(9)
O3A O 1.12705(12) 0.3349(3) 0.97074(9)
O4A O 1.29899(10) 0.4355(2) 0.85079(8)
O5A O 1.18694(9) 0.4244(2) 0.74030(8)
N3A N 1.13519(11) 0.5376(3) 0.96009(10)
N4A N 1.21301(11) 0.4791(3) 0.81524(9)
C1A C 1.01887(13) 0.6134(3) 0.83361(11)
H1A H 0.9983 0.4513 0.8273
H2A H 0.9711 0.6816 0.8787
C2A C 1.13540(13) 0.6260(3) 0.86672(11)
H3A H 1.1607 0.7876 0.8661
loop_
_geom_bond_atom_site_label_1
_geom_bond_atom_site_label_2
_geom_bond_site_symmetry_1
_geom_bond_site_symmetry_2
O1 N1 1_555 1_555
O2 N3 1_555 1_555
O3 N3 1_555 1_555
O4 N4 1_555 1_555
O5 N4 1_555 1_555
N1 N2 1_555 1_555
N2 C1 1_555 1_555
N3 C2 1_555 1_555
N4 C2 1_555 1_555
C1 H1 1_555 1_555
H2 C1 1_555 1_555
C2 C1 1_555 1_555
H3 C2 1_555 1_555
O1A N1 1_555 1_555
O2A N3A 1_555 1_555
O3A N3A 1_555 1_555
O4A N4A 1_555 1_555
O5A N4A 1_555 1_555
N3A C2A 1_555 1_555
N4A C2A 1_555 1_555
C1A N2 1_555 1_555
H1A C1A 1_555 1_555
H2A C1A 1_555 1_555
C2A C1A 1_555 1_555
H3A C2A 1_555 1_555

#END
