
#######################################################################
#
#                 Cambridge Crystallographic Data Centre
#                                CCDC 
#
#######################################################################
#
# If this CIF has been generated from an entry in the Cambridge 
# Structural Database, then it will include bibliographic, chemical, 
# crystal, experimental, refinement or atomic coordinate data resulting 
# from the CCDC's data processing and validation procedures.
#
#######################################################################

data_KASVEF
_chemical_formula_moiety         'C17 H21 N2 O6 P1 S1,C4 H8 O1'
_chemical_name_systematic        
"S-Phenyl O-3'-thymidinyl methylphosphonothioate tetrahydrofuran solvate"
_symmetry_cell_setting           monoclinic
_symmetry_space_group_name_H-M   'P 21'
_symmetry_Int_Tables_number      4
_space_group_name_Hall           'P 2yb'
loop_
_symmetry_equiv_pos_site_id
_symmetry_equiv_pos_as_xyz
1 x,y,z
2 -x,1/2+y,-z
_cell_length_a                   10.7577(17)
_cell_length_b                   9.0981(16)
_cell_length_c                   12.4311(28)
_cell_angle_alpha                90
_cell_angle_beta                 100.425(16)
_cell_angle_gamma                90
_cell_volume                     1196.6
_cell_formula_units_Z            2
loop_
_atom_site_label
_atom_site_type_symbol
_atom_site_fract_x
_atom_site_fract_y
_atom_site_fract_z
P1 P -0.4504(1) -0.2589 0.6986(1)
S1 S -0.5391(1) -0.0750(2) 0.7478(1)
N1 N 0.0033(3) -0.1644(3) 0.5039(2)
C1 C 0.1203(3) -0.2117(4) 0.5582(3)
O1 O 0.1377(2) -0.2713(4) 0.6466(2)
N2 N 0.2170(3) -0.1862(4) 0.5013(3)
C2 C 0.2081(3) -0.1234(4) 0.3995(3)
O2 O 0.3037(3) -0.1108(4) 0.3584(3)
C3 C 0.0832(3) -0.0759(5) 0.3489(3)
C4 C -0.0118(3) -0.0999(4) 0.4025(3)
C5 C 0.0647(4) -0.0059(5) 0.2381(3)
C6 C -0.1081(3) -0.2011(4) 0.5508(3)
O3 O -0.1889(2) -0.2902(3) 0.4751(2)
C7 C -0.1877(3) -0.0704(5) 0.5723(3)
O4 O -0.3219(2) -0.2106(3) 0.6652(2)
C8 C -0.3174(3) -0.1371(4) 0.5620(3)
C9 C -0.3190(3) -0.2507(4) 0.4720(3)
C10 C -0.3791(4) -0.1964(5) 0.3586(3)
O5 O -0.3206(3) -0.0674(4) 0.3271(2)
O6 O -0.5443(2) -0.3240(3) 0.6093(2)
C11 C -0.3955(4) -0.3749(5) 0.8109(3)
C12 C -0.4285(4) -0.0005(6) 0.8581(3)
C13 C -0.3589(5) 0.1222(7) 0.8429(5)
C14 C -0.2849(6) 0.1868(9) 0.9311(6)
C15 C -0.2764(7) 0.1306(11) 1.0335(6)
C16 C -0.3427(7) 0.0084(10) 1.0508(5)
C17 C -0.4225(5) -0.0559(7) 0.9628(4)
H1 H 0.3001 -0.2157 0.5368
H2 H -0.0954 -0.0707 0.3682
H6 H 0.1445 0.0031 0.2144
H7 H 0.0281 0.0898 0.2415
H8 H 0.0089 -0.0660 0.1872
H9 H -0.0762 -0.2482 0.6194
H10 H -0.1862 0.0056 0.5190
H11 H -0.1593 -0.0313 0.6442
H12 H -0.3864 -0.0690 0.5464
H13 H -0.3704 -0.3327 0.4851
H14 H -0.4666 -0.1755 0.3582
H15 H -0.3723 -0.2726 0.3065
H16 H -0.3551(47) 0.0082(62) 0.3448(41)
H17 H -0.4636 -0.3952 0.8490
H18 H -0.3272 -0.3296 0.8601
H19 H -0.3667 -0.4651 0.7836
H20 H -0.3628 0.1621 0.7709
H21 H -0.2372 0.2730 0.9203
H22 H -0.2241 0.1783 1.0942
H23 H -0.3339 -0.0334 1.1226
H24 H -0.4736 -0.1386 0.9748
C18? C 0.1212(12) 0.0631(13) 0.7884(9)
C19? C 0.1654(21) 0.1802(27) 0.8403(18)
C20? C 0.0254(22) 0.0052(27) 0.9409(19)
C21? C -0.0072(23) 0.0945(28) 0.8394(21)
C22? C 0.1586(15) 0.0453(20) 0.9804(12)
C23? C 0.0246(36) 0.0679(39) 0.7910(27)
C24? C 0.2149(18) 0.1208(24) 0.8843(15)
C25? C 0.0504(16) 0.1165(20) 0.9570(12)
C26? C 0.1618(27) 0.1611(34) 0.9637(22)
C27? C -0.0048(22) -0.0140(28) 0.8592(21)
C28? C 0.0510(23) -0.0492(28) 0.8257(19)
C29? C 0.1059(33) -0.0526(37) 0.9499(24)
C30? C 0.1139(41) 0.2098(45) 0.9360(30)
C31? C 0.2128(24) 0.0185(30) 0.8955(20)
H3? H 0.1209 0.0920 0.2461
H4? H 0.0327 0.0119 0.2155
H5? H 0.1004 -0.0873 0.1853
loop_
_geom_bond_atom_site_label_1
_geom_bond_atom_site_label_2
_geom_bond_site_symmetry_1
_geom_bond_site_symmetry_2
P1 S1 1_555 1_555
S1 C12 1_555 1_555
N1 C1 1_555 1_555
C1 O1 1_555 1_555
N2 C1 1_555 1_555
C2 N2 1_555 1_555
O2 C2 1_555 1_555
C3 C2 1_555 1_555
C4 N1 1_555 1_555
C5 C3 1_555 1_555
C6 N1 1_555 1_555
O3 C6 1_555 1_555
C7 C6 1_555 1_555
O4 P1 1_555 1_555
C8 C7 1_555 1_555
C9 O3 1_555 1_555
C10 C9 1_555 1_555
O5 C10 1_555 1_555
O6 P1 1_555 1_555
C11 P1 1_555 1_555
C12 C13 1_555 1_555
C13 C14 1_555 1_555
C14 C15 1_555 1_555
C15 C16 1_555 1_555
C16 C17 1_555 1_555
C17 C12 1_555 1_555
H1 N2 1_555 1_555
H2 C4 1_555 1_555
H6 C5 1_555 1_555
H7 C5 1_555 1_555
H8 C5 1_555 1_555
H9 C6 1_555 1_555
H10 C7 1_555 1_555
H11 C7 1_555 1_555
H12 C8 1_555 1_555
H13 C9 1_555 1_555
H14 C10 1_555 1_555
H15 C10 1_555 1_555
H16 O5 1_555 1_555
H17 C11 1_555 1_555
H18 C11 1_555 1_555
H19 C11 1_555 1_555
H20 C13 1_555 1_555
H21 C14 1_555 1_555
H22 C15 1_555 1_555
H23 C16 1_555 1_555
H24 C17 1_555 1_555
C3 C4 1_555 1_555
O4 C8 1_555 1_555
C8 C9 1_555 1_555

#END
