
#######################################################################
#
#                 Cambridge Crystallographic Data Centre
#                                CCDC 
#
#######################################################################
#
# If this CIF has been generated from an entry in the Cambridge 
# Structural Database, then it will include bibliographic, chemical, 
# crystal, experimental, refinement or atomic coordinate data resulting 
# from the CCDC's data processing and validation procedures.
#
#######################################################################

data_KASWAF
_chemical_formula_moiety         'C13 H13 N1 O2 S1'
_chemical_name_systematic        
'ethyl (E)-3-(2-methyl-1,3-benzothiazol-7-yl)acrylate'
_symmetry_cell_setting           triclinic
_symmetry_space_group_name_H-M   'P -1'
_symmetry_Int_Tables_number      2
_space_group_name_Hall           '-P 1'
loop_
_symmetry_equiv_pos_site_id
_symmetry_equiv_pos_as_xyz
1 x,y,z
2 -x,-y,-z
_cell_length_a                   7.3791(8)
_cell_length_b                   7.9026(8)
_cell_length_c                   11.8080(12)
_cell_angle_alpha                71.415(3)
_cell_angle_beta                 79.346(3)
_cell_angle_gamma                66.702(3)
_cell_volume                     598.077
_exptl_crystal_colour            colorless
_exptl_crystal_description       plate
_cell_formula_units_Z            2
_exptl_crystal_recrystallization_method methanol/hexane
loop_
_atom_site_label
_atom_site_type_symbol
_atom_site_fract_x
_atom_site_fract_y
_atom_site_fract_z
S1 S 0.19336(6) 0.83587(6) 0.38569(4)
O1 O 0.33995(19) 0.06637(17) 0.64455(11)
O2 O 0.14505(17) 0.30306(17) 0.72767(10)
N1 N 0.3044(2) 1.0013(2) 0.17233(12)
C1 C 0.0894(3) 1.2327(3) 0.28442(17)
H1 H -0.0528 1.2620 0.2857
H2 H 0.1278 1.3265 0.2178
H3 H 0.1203 1.2383 0.3601
C2 C 0.2006(3) 1.0369(2) 0.26877(15)
C3 C 0.3441(2) 0.6887(2) 0.29697(14)
C4 C 0.3878(2) 0.8045(2) 0.18555(15)
C5 C 0.5082(2) 0.7217(3) 0.09667(15)
H4 H 0.5380 0.7993 0.0213
C6 C 0.5828(3) 0.5247(3) 0.12082(15)
H5 H 0.6656 0.4663 0.0614
C7 C 0.5387(2) 0.4097(3) 0.23099(15)
H6 H 0.5916 0.2746 0.2444
C8 C 0.4193(2) 0.4870(2) 0.32212(15)
C9 C 0.3842(2) 0.3541(2) 0.43441(15)
H7 H 0.4503 0.2221 0.4385
C10 C 0.2718(2) 0.3926(2) 0.53227(14)
H8 H 0.1999 0.5216 0.5339
C11 C 0.2593(2) 0.2348(2) 0.63764(15)
C12 C 0.1250(3) 0.1595(3) 0.83744(15)
H9 H 0.2562 0.0772 0.8691
H10 H 0.0647 0.0776 0.8223
C13 C -0.0051(3) 0.2655(3) 0.92492(16)
H11 H -0.1333 0.3483 0.8917
H12 H 0.0576 0.3441 0.9402
H13 H -0.0247 0.1738 1.0001
loop_
_geom_bond_atom_site_label_1
_geom_bond_atom_site_label_2
_geom_bond_site_symmetry_1
_geom_bond_site_symmetry_2
S1 C2 1_555 1_555
O1 C11 1_555 1_555
O2 C11 1_555 1_555
N1 C2 1_555 1_555
C1 H1 1_555 1_555
H2 C1 1_555 1_555
H3 C1 1_555 1_555
C2 C1 1_555 1_555
C3 S1 1_555 1_555
C4 N1 1_555 1_555
C5 C4 1_555 1_555
H4 C5 1_555 1_555
C6 C5 1_555 1_555
H5 C6 1_555 1_555
C7 C6 1_555 1_555
H6 C7 1_555 1_555
C8 C3 1_555 1_555
C9 C8 1_555 1_555
H7 C9 1_555 1_555
C10 C9 1_555 1_555
H8 C10 1_555 1_555
C11 C10 1_555 1_555
C12 O2 1_555 1_555
H9 C12 1_555 1_555
H10 C12 1_555 1_555
C13 C12 1_555 1_555
H11 C13 1_555 1_555
H12 C13 1_555 1_555
H13 C13 1_555 1_555
C3 C4 1_555 1_555
C7 C8 1_555 1_555

#END
