
#######################################################################
#
#                 Cambridge Crystallographic Data Centre
#                                CCDC 
#
#######################################################################
#
# If this CIF has been generated from an entry in the Cambridge 
# Structural Database, then it will include bibliographic, chemical, 
# crystal, experimental, refinement or atomic coordinate data resulting 
# from the CCDC's data processing and validation procedures.
#
#######################################################################

data_KASYEJ01
_chemical_formula_moiety         'C9 H6 O6,C10 H8 N2'
_chemical_name_systematic        
"1,2,3-Benzenetricarboxylic acid 4,4'-bipyridine"
_symmetry_cell_setting           monoclinic
_symmetry_space_group_name_H-M   'C 2/c'
_symmetry_Int_Tables_number      15
_space_group_name_Hall           '-C 2yn'
loop_
_symmetry_equiv_pos_site_id
_symmetry_equiv_pos_as_xyz
1 x,y,z
2 -x,y,1/2-z
3 1/2+x,1/2+y,z
4 1/2-x,1/2+y,1/2-z
5 -x,-y,-z
6 x,-y,1/2+z
7 1/2-x,1/2-y,-z
8 1/2+x,1/2-y,1/2+z
_cell_length_a                   26.141(3)
_cell_length_b                   7.8241(10)
_cell_length_c                   19.886(2)
_cell_angle_alpha                90
_cell_angle_beta                 126.979(2)
_cell_angle_gamma                90
_cell_volume                     3249.17
_exptl_crystal_colour            colorless
_exptl_crystal_description       block
_cell_formula_units_Z            8
loop_
_atom_site_label
_atom_site_type_symbol
_atom_site_fract_x
_atom_site_fract_y
_atom_site_fract_z
O1 O 0.05783(5) 0.45611(15) 0.30474(7)
O2 O 0.15318(6) 0.50985(18) 0.33859(8)
O3 O 0.00441(7) 0.62562(17) 0.04010(7)
O4 O 0.03856(8) 0.44560(16) 0.14510(8)
O5 O 0.16529(9) 0.9779(2) 0.44648(9)
O6 O 0.11438(7) 0.73642(19) 0.42991(8)
H3 H 0.1330(15) 0.742(4) 0.486(2)
C1 C 0.07486(7) 0.7225(2) 0.25853(9)
C2 C 0.04323(7) 0.7420(2) 0.17195(9)
C3 C 0.02772(9) 0.9051(2) 0.13664(11)
H4 H 0.0060 0.9172 0.0789
C4 C 0.04409(10) 1.0485(2) 0.18586(13)
H5 H 0.0331 1.1567 0.1616
C5 C 0.07680(9) 1.0302(2) 0.27135(12)
H6 H 0.0888 1.1270 0.3049
C6 C 0.09211(8) 0.8694(2) 0.30833(10)
C7 C 0.02758(8) 0.5898(2) 0.11672(9)
C8 C 0.09718(7) 0.5498(2) 0.30184(9)
C9 C 0.12788(9) 0.8658(2) 0.40196(11)
N1 N 0.36333(8) 0.1494(2) 0.52915(9)
N2 N 0.17151(8) 0.2476(2) 0.09182(9)
C10 C 0.29983(11) 0.1255(3) 0.48444(12)
H7 H 0.2825 0.0878 0.5112
C11 C 0.26053(10) 0.1564(3) 0.39955(11)
H8 H 0.2166 0.1406 0.3688
C12 C 0.28641(9) 0.2114(2) 0.35953(10)
C13 C 0.35223(10) 0.2407(3) 0.40886(12)
H9 H 0.3707 0.2833 0.3844
C14 C 0.38977(10) 0.2065(3) 0.49373(12)
H10 H 0.4338 0.2234 0.5264
C15 C 0.14634(9) 0.2792(3) 0.13227(11)
H11 H 0.1032 0.3076 0.1009
C16 C 0.18202(9) 0.2714(3) 0.21932(11)
H12 H 0.1629 0.2939 0.2455
C17 C 0.24631(8) 0.2297(2) 0.26664(10)
C18 C 0.27195(9) 0.1975(3) 0.22398(11)
H13 H 0.3150 0.1695 0.2536
C19 C 0.23324(10) 0.2073(3) 0.13741(12)
H14 H 0.2511 0.1848 0.1096
H1? H 0.0000 0.463(6) 0.2500
H2? H 0.0000 0.5000 0.0000
loop_
_geom_bond_atom_site_label_1
_geom_bond_atom_site_label_2
_geom_bond_site_symmetry_1
_geom_bond_site_symmetry_2
O1 C8 1_555 1_555
O2 C8 1_555 1_555
O3 C7 1_555 1_555
O4 C7 1_555 1_555
O5 C9 1_555 1_555
O6 H3 1_555 1_555
C1 C2 1_555 1_555
C2 C3 1_555 1_555
C3 H4 1_555 1_555
C4 C3 1_555 1_555
H5 C4 1_555 1_555
C5 C4 1_555 1_555
H6 C5 1_555 1_555
C6 C1 1_555 1_555
C7 C2 1_555 1_555
C8 C1 1_555 1_555
C9 O6 1_555 1_555
N1 C10 1_555 1_555
N2 C15 1_555 1_555
C10 H7 1_555 1_555
C11 C10 1_555 1_555
H8 C11 1_555 1_555
C12 C11 1_555 1_555
C13 C12 1_555 1_555
H9 C13 1_555 1_555
C14 N1 1_555 1_555
H10 C14 1_555 1_555
C15 H11 1_555 1_555
C16 C15 1_555 1_555
H12 C16 1_555 1_555
C17 C12 1_555 1_555
C18 C17 1_555 1_555
H13 C18 1_555 1_555
C19 N2 1_555 1_555
H14 C19 1_555 1_555
C5 C6 1_555 1_555
C6 C9 1_555 1_555
C13 C14 1_555 1_555
C16 C17 1_555 1_555
C18 C19 1_555 1_555

#END
