
#######################################################################
#
#                 Cambridge Crystallographic Data Centre
#                                CCDC 
#
#######################################################################
#
# If this CIF has been generated from an entry in the Cambridge 
# Structural Database, then it will include bibliographic, chemical, 
# crystal, experimental, refinement or atomic coordinate data resulting 
# from the CCDC's data processing and validation procedures.
#
#######################################################################

data_KASYAF01
_chemical_formula_moiety         'C23 H22 F6 O4 S2'
_chemical_name_systematic        
1,2-bis(5-(1,3-Dioxolan-2-yl)-2-ethylthien-3-yl)-3,3,4,4,5,5-hexafluorocyclopent-1-ene
_symmetry_cell_setting           monoclinic
_symmetry_space_group_name_H-M   'P 21/n'
_symmetry_Int_Tables_number      14
_space_group_name_Hall           '-P 2yn'
loop_
_symmetry_equiv_pos_site_id
_symmetry_equiv_pos_as_xyz
1 x,y,z
2 1/2-x,1/2+y,1/2-z
3 -x,-y,-z
4 1/2+x,1/2-y,1/2+z
_cell_length_a                   13.353(2)
_cell_length_b                   13.370(2)
_cell_length_c                   13.600(3)
_cell_angle_alpha                90
_cell_angle_beta                 96.796(11)
_cell_angle_gamma                90
_cell_volume                     2410.94
_exptl_crystal_colour            colorless
_exptl_crystal_description       grain
_chemical_melting_point          '127.6-127.4 deg.C'
_cell_formula_units_Z            4
_chemical_properties_physical    light-sensitive
_exptl_crystal_recrystallization_method chloroform/hexane
_exptl_crystal_preparation       photochromic
loop_
_atom_site_label
_atom_site_type_symbol
_atom_site_fract_x
_atom_site_fract_y
_atom_site_fract_z
S1 S 0.59364(9) 0.17218(9) 0.73732(9)
S2 S 0.61715(8) 0.50947(8) 0.43243(10)
F1 F 0.8760(3) 0.2850(4) 0.3393(2)
F2 F 0.9687(2) 0.3278(2) 0.4678(3)
F3 F 0.8913(5) 0.1186(4) 0.3490(4)
F5 F 1.0183(4) 0.1364(6) 0.4510(7)
F7 F 0.9034(3) 0.0757(3) 0.5965(2)
F8 F 0.8126(2) 0.0327(2) 0.4659(3)
O1 O 0.7724(3) 0.6956(2) 0.3974(3)
O2 O 0.6845(3) 0.7089(2) 0.5287(2)
O3 O 0.5342(2) -0.0540(3) 0.7668(3)
O4 O 0.4102(2) 0.0209(2) 0.6660(2)
C1 C 0.8020(3) 0.2774(3) 0.4868(3)
C2 C 0.8947(3) 0.2656(3) 0.4347(3)
C3 C 0.9275(4) 0.1598(4) 0.4506(4)
C4 C 0.8552(3) 0.1120(3) 0.5132(3)
C5 C 0.7815(3) 0.1922(3) 0.5320(3)
C6 C 0.6499(3) 0.3850(3) 0.4395(3)
C7 C 0.7485(3) 0.3735(3) 0.4778(3)
C8 C 0.7964(3) 0.4671(3) 0.5024(3)
H1 H 0.8633 0.4726 0.5299
C9 C 0.7357(3) 0.5462(3) 0.4821(3)
C10 C 0.7619(3) 0.6544(3) 0.4909(3)
H2 H 0.8251 0.6627 0.5347
C11 C 0.7337(5) 0.7916(4) 0.3953(4)
H3 H 0.6885 0.8022 0.3350
H4 H 0.7878 0.8403 0.3979
C12 C 0.6795(5) 0.8018(4) 0.4811(5)
H5 H 0.7104 0.8531 0.5252
H6 H 0.6099 0.8202 0.4609
C13 C 0.5730(3) 0.3064(3) 0.4057(4)
H7 H 0.6081 0.2445 0.3951
H8 H 0.5315 0.2946 0.4584
C14 C 0.5060(5) 0.3304(5) 0.3141(5)
H9 H 0.4599 0.2761 0.2982
H10 H 0.5458 0.3405 0.2607
H11 H 0.4687 0.3903 0.3242
C15 C 0.6855(3) 0.2268(3) 0.6757(3)
C16 C 0.7029(3) 0.1702(3) 0.5963(3)
C17 C 0.6428(3) 0.0814(3) 0.5866(3)
H12 H 0.6467 0.0344 0.5368
C18 C 0.5802(3) 0.0727(3) 0.6568(3)
C19 C 0.5108(3) -0.0115(3) 0.6723(4)
H13 H 0.5166 -0.0629 0.6220
C20 C 0.4460(4) -0.0718(4) 0.8080(4)
H14 H 0.4461 -0.0355 0.8698
H15 H 0.4388 -0.1426 0.8210
C21 C 0.3632(3) -0.0366(4) 0.7345(4)
H16 H 0.3273 -0.0928 0.7018
H17 H 0.3158 0.0038 0.7661
C22 C 0.7359(4) 0.3200(3) 0.7174(3)
H18 H 0.7889 0.3379 0.6777
H19 H 0.7674 0.3060 0.7839
C23 C 0.6667(4) 0.4080(4) 0.7213(5)
H20 H 0.7048 0.4648 0.7477
H21 H 0.6157 0.3923 0.7630
H22 H 0.6355 0.4231 0.6558
F4? F 1.0090(6) 0.1805(6) 0.5374(6)
F6? F 0.9776(7) 0.1091(9) 0.4017(10)
loop_
_geom_bond_atom_site_label_1
_geom_bond_atom_site_label_2
_geom_bond_site_symmetry_1
_geom_bond_site_symmetry_2
S1 C15 1_555 1_555
S2 C6 1_555 1_555
F1 C2 1_555 1_555
F2 C2 1_555 1_555
F3 C3 1_555 1_555
F5 C3 1_555 1_555
F7 C4 1_555 1_555
F8 C4 1_555 1_555
O1 C10 1_555 1_555
O2 C10 1_555 1_555
O3 C19 1_555 1_555
O4 C19 1_555 1_555
C1 C2 1_555 1_555
C2 C3 1_555 1_555
C3 C4 1_555 1_555
C4 C5 1_555 1_555
C5 C1 1_555 1_555
C6 C7 1_555 1_555
C7 C1 1_555 1_555
C8 C7 1_555 1_555
H1 C8 1_555 1_555
C9 S2 1_555 1_555
C10 C9 1_555 1_555
H2 C10 1_555 1_555
C11 O1 1_555 1_555
H3 C11 1_555 1_555
H4 C11 1_555 1_555
C12 O2 1_555 1_555
H5 C12 1_555 1_555
H6 C12 1_555 1_555
C13 C6 1_555 1_555
H7 C13 1_555 1_555
H8 C13 1_555 1_555
C14 C13 1_555 1_555
H9 C14 1_555 1_555
H10 C14 1_555 1_555
H11 C14 1_555 1_555
C15 C16 1_555 1_555
C16 C5 1_555 1_555
C17 C16 1_555 1_555
H12 C17 1_555 1_555
C18 S1 1_555 1_555
C19 C18 1_555 1_555
H13 C19 1_555 1_555
C20 O3 1_555 1_555
H14 C20 1_555 1_555
H15 C20 1_555 1_555
C21 O4 1_555 1_555
H16 C21 1_555 1_555
H17 C21 1_555 1_555
C22 C15 1_555 1_555
H18 C22 1_555 1_555
H19 C22 1_555 1_555
C23 C22 1_555 1_555
H20 C23 1_555 1_555
H21 C23 1_555 1_555
H22 C23 1_555 1_555
C8 C9 1_555 1_555
C11 C12 1_555 1_555
C17 C18 1_555 1_555
C20 C21 1_555 1_555

#END
