
#######################################################################
#
#                 Cambridge Crystallographic Data Centre
#                                CCDC 
#
#######################################################################
#
# If this CIF has been generated from an entry in the Cambridge 
# Structural Database, then it will include bibliographic, chemical, 
# crystal, experimental, refinement or atomic coordinate data resulting 
# from the CCDC's data processing and validation procedures.
#
#######################################################################

data_KASYAF
_chemical_formula_moiety         'C23 H22 F6 O4 S2'
_chemical_name_systematic        
1,2-bis(5-(1,3-Dioxolan-2-yl)-2-ethylthien-3-yl)-3,3,4,4,5,5-hexafluorocyclopent-1-ene
_symmetry_cell_setting           monoclinic
_symmetry_space_group_name_H-M   'P 21/n'
_symmetry_Int_Tables_number      14
_space_group_name_Hall           '-P 2yn'
loop_
_symmetry_equiv_pos_site_id
_symmetry_equiv_pos_as_xyz
1 x,y,z
2 1/2-x,1/2+y,1/2-z
3 -x,-y,-z
4 1/2+x,1/2-y,1/2+z
_cell_length_a                   13.353(2)
_cell_length_b                   13.370(2)
_cell_length_c                   13.600(3)
_cell_angle_alpha                90
_cell_angle_beta                 96.796(11)
_cell_angle_gamma                90
_cell_volume                     2410.94
_exptl_crystal_colour            colorless
_exptl_crystal_description       grain
_chemical_melting_point          '400.4-400.6 K'
_cell_formula_units_Z            4
_chemical_properties_physical    light-sensitive
_exptl_crystal_recrystallization_method chloroform/hexane
_exptl_crystal_preparation       photochromic
loop_
_atom_site_label
_atom_site_type_symbol
_atom_site_fract_x
_atom_site_fract_y
_atom_site_fract_z
S1 S 0.61709(5) 0.50947(6) 0.43250(7)
S2 S 0.59373(6) 0.17217(6) 0.73738(6)
F1 F 0.9032(2) 0.0754(2) 0.59655(16)
F2 F 0.81264(16) 0.03258(15) 0.46600(19)
F3 F 1.0160(3) 0.1798(4) 0.5409(4)
F4 F 0.9775(6) 0.1094(5) 0.4036(5)
F7 F 0.96866(15) 0.32777(17) 0.4679(2)
F8 F 0.87636(19) 0.2853(3) 0.33976(16)
O1 O 0.77267(19) 0.69553(15) 0.39772(17)
O2 O 0.68496(19) 0.70907(15) 0.52895(17)
O3 O 0.41057(15) 0.02067(16) 0.66613(16)
O4 O 0.53379(16) -0.0541(2) 0.7667(2)
C1 C 0.80209(18) 0.27763(18) 0.48668(18)
C2 C 0.78153(18) 0.19196(18) 0.53188(18)
C3 C 0.8555(2) 0.11210(19) 0.5132(2)
C4 C 0.9400(4) 0.1674(9) 0.4695(6)
C6 C 0.8948(2) 0.2655(2) 0.4347(2)
C7 C 0.6496(2) 0.3850(2) 0.4398(2)
C8 C 0.74850(18) 0.37359(18) 0.47795(18)
C9 C 0.79658(19) 0.46707(18) 0.50225(19)
H1 H 0.8636 0.4728 0.5295
C10 C 0.7354(2) 0.5462(2) 0.4819(2)
C11 C 0.5725(2) 0.3066(2) 0.4062(3)
H2 H 0.6075 0.2447 0.3954
H3 H 0.5312 0.2948 0.4592
C12 C 0.5054(4) 0.3308(3) 0.3153(4)
H4 H 0.4569 0.2782 0.3014
H5 H 0.5446 0.3374 0.2609
H6 H 0.4710 0.3925 0.3244
C13 C 0.6855(2) 0.2270(2) 0.6762(2)
C14 C 0.70304(18) 0.17008(18) 0.59622(18)
C15 C 0.6430(2) 0.08147(19) 0.5865(2)
H7 H 0.6466 0.0345 0.5365
C16 C 0.5804(2) 0.0727(2) 0.6570(2)
C17 C 0.7361(2) 0.3200(2) 0.7176(2)
H8 H 0.7893 0.3375 0.6779
H9 H 0.7674 0.3063 0.7842
C18 C 0.6668(3) 0.4083(3) 0.7207(3)
H10 H 0.7057 0.4667 0.7409
H11 H 0.6195 0.3954 0.7672
H12 H 0.6309 0.4190 0.6562
C19 C 0.7620(2) 0.6544(2) 0.4910(2)
H13 H 0.8252 0.6623 0.5348
C20 C 0.6800(4) 0.8022(3) 0.4808(3)
H14 H 0.7109 0.8536 0.5248
H15 H 0.6103 0.8205 0.4607
C21 C 0.7335(4) 0.7920(3) 0.3956(3)
H16 H 0.6881 0.8025 0.3353
H17 H 0.7874 0.8409 0.3980
C22 C 0.5107(2) -0.0115(2) 0.6726(2)
H18 H 0.5166 -0.0628 0.6222
C23 C 0.4463(2) -0.0716(3) 0.8079(3)
H19 H 0.4467 -0.0352 0.8696
H20 H 0.4390 -0.1424 0.8210
C24 C 0.3633(2) -0.0366(3) 0.7348(2)
H21 H 0.3273 -0.0928 0.7022
H22 H 0.3162 0.0039 0.7664
F5? F 1.0146(3) 0.1375(5) 0.4464(6)
F6? F 0.8857(4) 0.1186(3) 0.3437(3)
C5? C 0.9157(4) 0.1531(9) 0.4339(5)
loop_
_geom_bond_atom_site_label_1
_geom_bond_atom_site_label_2
_geom_bond_site_symmetry_1
_geom_bond_site_symmetry_2
S1 C7 1_555 1_555
S2 C13 1_555 1_555
F1 C3 1_555 1_555
F2 C3 1_555 1_555
F3 C4 1_555 1_555
F4 C4 1_555 1_555
F7 C6 1_555 1_555
F8 C6 1_555 1_555
O1 C19 1_555 1_555
O2 C19 1_555 1_555
O3 C22 1_555 1_555
O4 C22 1_555 1_555
C1 C2 1_555 1_555
C2 C3 1_555 1_555
C3 C4 1_555 1_555
C4 C6 1_555 1_555
C6 C1 1_555 1_555
C7 C8 1_555 1_555
C8 C1 1_555 1_555
C9 C8 1_555 1_555
H1 C9 1_555 1_555
C10 S1 1_555 1_555
C11 C7 1_555 1_555
H2 C11 1_555 1_555
H3 C11 1_555 1_555
C12 C11 1_555 1_555
H4 C12 1_555 1_555
H5 C12 1_555 1_555
H6 C12 1_555 1_555
C13 C14 1_555 1_555
C14 C2 1_555 1_555
C15 C14 1_555 1_555
H7 C15 1_555 1_555
C16 S2 1_555 1_555
C17 C13 1_555 1_555
H8 C17 1_555 1_555
H9 C17 1_555 1_555
C18 C17 1_555 1_555
H10 C18 1_555 1_555
H11 C18 1_555 1_555
H12 C18 1_555 1_555
C19 C10 1_555 1_555
H13 C19 1_555 1_555
C20 O2 1_555 1_555
H14 C20 1_555 1_555
H15 C20 1_555 1_555
C21 O1 1_555 1_555
H16 C21 1_555 1_555
H17 C21 1_555 1_555
C22 C16 1_555 1_555
H18 C22 1_555 1_555
C23 O4 1_555 1_555
H19 C23 1_555 1_555
H20 C23 1_555 1_555
C24 O3 1_555 1_555
H21 C24 1_555 1_555
H22 C24 1_555 1_555
C9 C10 1_555 1_555
C15 C16 1_555 1_555
C20 C21 1_555 1_555
C23 C24 1_555 1_555

#END
