
#######################################################################
#
#                 Cambridge Crystallographic Data Centre
#                                CCDC 
#
#######################################################################
#
# If this CIF has been generated from an entry in the Cambridge 
# Structural Database, then it will include bibliographic, chemical, 
# crystal, experimental, refinement or atomic coordinate data resulting 
# from the CCDC's data processing and validation procedures.
#
#######################################################################

data_KASZEK
_chemical_formula_moiety         'C16 H17 N7'
_chemical_name_systematic        
(2-(Benzotriazolyl)ethyl)(2-(benzotriazol-2-yl)ethyl)amine
_symmetry_cell_setting           monoclinic
_symmetry_space_group_name_H-M   'P 21/c'
_symmetry_Int_Tables_number      14
_space_group_name_Hall           '-P 2ybc'
loop_
_symmetry_equiv_pos_site_id
_symmetry_equiv_pos_as_xyz
1 x,y,z
2 -x,1/2+y,1/2-z
3 -x,-y,-z
4 x,1/2-y,1/2+z
_cell_length_a                   6.2180(16)
_cell_length_b                   24.893(6)
_cell_length_c                   10.020(3)
_cell_angle_alpha                90
_cell_angle_beta                 100.650(4)
_cell_angle_gamma                90
_cell_volume                     1524.23
_exptl_crystal_colour            colorless
_exptl_crystal_description       block
_cell_formula_units_Z            4
_exptl_crystal_recrystallization_method ethanol
loop_
_atom_site_label
_atom_site_type_symbol
_atom_site_fract_x
_atom_site_fract_y
_atom_site_fract_z
C1 C 0.4534(3) 0.08822(8) -0.07060(19)
C2 C 0.5901(3) 0.07635(10) -0.1622(2)
H1 H 0.7104 0.0975 -0.1701
C3 C 0.5357(4) 0.03163(11) -0.2395(3)
H2 H 0.6220 0.0221 -0.3023
C4 C 0.3540(4) -0.00071(9) -0.2283(2)
H3 H 0.3241 -0.0308 -0.2837
C5 C 0.2213(3) 0.01082(8) -0.1387(2)
H4 H 0.1020 -0.0107 -0.1308
C6 C 0.2735(3) 0.05673(8) -0.05871(19)
C7 C 0.6043(4) 0.17235(9) 0.0618(3)
H5 H 0.5284 0.2021 0.0952
H6 H 0.6606 0.1848 -0.0168
C8 C 0.7878(4) 0.15548(9) 0.1679(2)
H7 H 0.7317 0.1434 0.2469
H8 H 0.8629 0.1255 0.1348
C9 C 0.9046(3) 0.23121(8) 0.3222(2)
H9 H 0.8801 0.2075 0.3947
H10 H 0.7742 0.2529 0.2951
C10 C 1.0961(3) 0.26725(8) 0.37328(19)
H11 H 1.0655 0.2881 0.4494
H12 H 1.2243 0.2454 0.4054
C11 C 1.2935(3) 0.33659(8) 0.11778(19)
C12 C 1.4260(4) 0.35054(11) 0.0230(2)
H13 H 1.5568 0.3329 0.0202
C13 C 1.3519(5) 0.39136(13) -0.0644(2)
H14 H 1.4341 0.4013 -0.1291
C14 C 1.1566(5) 0.41891(12) -0.0602(3)
H15 H 1.1133 0.4463 -0.1224
C15 C 1.0285(4) 0.40691(10) 0.0317(2)
H16 H 0.9007 0.4259 0.0351
C16 C 1.0990(3) 0.36421(8) 0.12188(19)
N1 N 0.4503(3) 0.12848(7) 0.02125(17)
N2 N 0.2816(3) 0.12158(7) 0.08639(18)
N3 N 0.1737(3) 0.07870(7) 0.03929(18)
N4 N 0.9424(3) 0.19926(7) 0.20710(17)
H17 H 1.081(4) 0.1847(10) 0.230(3)
N5 N 1.3185(3) 0.29758(6) 0.21334(17)
N6 N 1.1426(2) 0.30373(6) 0.26822(15)
N7 N 1.0046(3) 0.34226(6) 0.22029(17)
loop_
_geom_bond_atom_site_label_1
_geom_bond_atom_site_label_2
_geom_bond_site_symmetry_1
_geom_bond_site_symmetry_2
C1 C2 1_555 1_555
C2 H1 1_555 1_555
C3 C2 1_555 1_555
H2 C3 1_555 1_555
C4 C3 1_555 1_555
H3 C4 1_555 1_555
C5 C4 1_555 1_555
H4 C5 1_555 1_555
C6 C1 1_555 1_555
C7 H5 1_555 1_555
H6 C7 1_555 1_555
C8 C7 1_555 1_555
H7 C8 1_555 1_555
H8 C8 1_555 1_555
C9 H9 1_555 1_555
H10 C9 1_555 1_555
C10 C9 1_555 1_555
H11 C10 1_555 1_555
H12 C10 1_555 1_555
C11 C12 1_555 1_555
C12 H13 1_555 1_555
C13 C12 1_555 1_555
H14 C13 1_555 1_555
C14 C13 1_555 1_555
H15 C14 1_555 1_555
C15 C14 1_555 1_555
H16 C15 1_555 1_555
C16 C11 1_555 1_555
N1 C1 1_555 1_555
N2 N1 1_555 1_555
N3 C6 1_555 1_555
N4 C8 1_555 1_555
H17 N4 1_555 1_555
N5 C11 1_555 1_555
N6 C10 1_555 1_555
N7 C16 1_555 1_555
C5 C6 1_555 1_555
C7 N1 1_555 1_555
C9 N4 1_555 1_555
C15 C16 1_555 1_555
N2 N3 1_555 1_555
N5 N6 1_555 1_555
N6 N7 1_555 1_555

#END
