
#######################################################################
#
#                 Cambridge Crystallographic Data Centre
#                                CCDC 
#
#######################################################################
#
# If this CIF has been generated from an entry in the Cambridge 
# Structural Database, then it will include bibliographic, chemical, 
# crystal, experimental, refinement or atomic coordinate data resulting 
# from the CCDC's data processing and validation procedures.
#
#######################################################################

data_KATBUD
_chemical_formula_moiety         'C34 H28 N2 O4'
_chemical_name_systematic        
N,N,N',N'-Tetraphenyl-2,2'-(o-phenylenedioxy)diacetamide
_symmetry_cell_setting           monoclinic
_symmetry_space_group_name_H-M   'C 2/c'
_symmetry_Int_Tables_number      15
_space_group_name_Hall           '-C 2yn'
loop_
_symmetry_equiv_pos_site_id
_symmetry_equiv_pos_as_xyz
1 x,y,z
2 1/2+x,1/2+y,z
3 -x,y,1/2-z
4 1/2-x,1/2+y,1/2-z
5 -x,-y,-z
6 1/2-x,1/2-y,-z
7 x,-y,1/2+z
8 1/2+x,1/2-y,1/2+z
_cell_length_a                   16.0863(10)
_cell_length_b                   11.0050(7)
_cell_length_c                   16.5816(11)
_cell_angle_alpha                90
_cell_angle_beta                 111.9810(10)
_cell_angle_gamma                90
_cell_volume                     2722.05
_exptl_crystal_colour            yellow
_exptl_crystal_description       plate
_cell_formula_units_Z            4
_exptl_crystal_recrystallization_method 'petroleum ether/ethyl acetate'
loop_
_atom_site_label
_atom_site_type_symbol
_atom_site_fract_x
_atom_site_fract_y
_atom_site_fract_z
O1 O -0.08276(7) 0.88789(10) 0.41861(7)
O2 O 0.03323(7) 0.88280(8) 0.33434(6)
N1 N 0.01455(7) 0.78979(10) 0.53511(7)
C1 C -0.05795(9) 0.74950(13) 0.56050(9)
C2 C -0.06547(11) 0.79548(15) 0.63465(10)
H1 H -0.0256 0.8541 0.6676
C3 C -0.13393(12) 0.7527(2) 0.65947(12)
H2 H -0.1396 0.7829 0.7096
C4 C -0.19284(11) 0.6669(2) 0.61084(13)
H3 H -0.2382 0.6388 0.6280
C5 C -0.18518(12) 0.62219(18) 0.53703(13)
H4 H -0.2254 0.5639 0.5041
C6 C -0.11774(10) 0.66345(15) 0.51119(11)
H5 H -0.1128 0.6333 0.4608
C7 C 0.12117(10) 0.63044(14) 0.60610(10)
H6 H 0.0762 0.5736 0.5805
C8 C 0.20533(11) 0.59228(17) 0.66053(12)
H7 H 0.2167 0.5099 0.6716
C9 C 0.27228(11) 0.67550(18) 0.69830(11)
H8 H 0.3288 0.6497 0.7353
C10 C 0.25533(11) 0.79690(18) 0.68116(11)
H9 H 0.3011 0.8531 0.7057
C11 C 0.17062(10) 0.83698(15) 0.62755(10)
H10 H 0.1591 0.9195 0.6174
C12 C 0.10376(9) 0.75236(13) 0.58960(8)
C13 C -0.00662(9) 0.85424(12) 0.45982(8)
C14 C 0.06795(10) 0.88352(13) 0.42687(9)
H11 H 0.0930 0.9628 0.4480
H12 H 0.1155 0.8237 0.4488
C15 C 0.01612(9) 0.77037(12) 0.29556(8)
C16 C 0.03030(10) 0.66109(13) 0.33950(9)
H13 H 0.0506 0.6606 0.3999
C17 C 0.01451(10) 0.55188(13) 0.29432(10)
H14 H 0.0237 0.4787 0.3244
O1B O 0.08276(7) 0.88789(10) 0.08139(7)
O2B O -0.03323(7) 0.88280(8) 0.16566(6)
N1B N -0.01455(7) 0.78979(10) -0.03511(7)
C1B C 0.05795(9) 0.74950(13) -0.06050(9)
C2B C 0.06547(11) 0.79548(15) -0.13465(10)
H1B H 0.0256 0.8541 -0.1676
C3B C 0.13393(12) 0.7527(2) -0.15947(12)
H2B H 0.1396 0.7829 -0.2096
C4B C 0.19284(11) 0.6669(2) -0.11084(13)
H3B H 0.2382 0.6388 -0.1280
C5B C 0.18518(12) 0.62219(18) -0.03703(13)
H4B H 0.2254 0.5639 -0.0041
C6B C 0.11774(10) 0.66345(15) -0.01119(11)
H5B H 0.1128 0.6333 0.0392
C7B C -0.12117(10) 0.63044(14) -0.10610(10)
H6B H -0.0762 0.5736 -0.0805
C8B C -0.20533(11) 0.59228(17) -0.16053(12)
H7B H -0.2167 0.5099 -0.1716
C9B C -0.27228(11) 0.67550(18) -0.19830(11)
H8B H -0.3288 0.6497 -0.2353
C10B C -0.25533(11) 0.79690(18) -0.18116(11)
H9B H -0.3011 0.8531 -0.2057
C11B C -0.17062(10) 0.83698(15) -0.12755(10)
H10B H -0.1591 0.9195 -0.1174
C12B C -0.10376(9) 0.75236(13) -0.08960(8)
C13B C 0.00662(9) 0.85424(12) 0.04018(8)
C14B C -0.06795(10) 0.88352(13) 0.07313(9)
H11B H -0.0930 0.9628 0.0520
H12B H -0.1155 0.8237 0.0512
C15B C -0.01612(9) 0.77037(12) 0.20444(8)
C16B C -0.03030(10) 0.66109(13) 0.16050(9)
H13B H -0.0506 0.6606 0.1001
C17B C -0.01451(10) 0.55188(13) 0.20568(10)
H14B H -0.0237 0.4787 0.1756
loop_
_geom_bond_atom_site_label_1
_geom_bond_atom_site_label_2
_geom_bond_site_symmetry_1
_geom_bond_site_symmetry_2
O1 C13 1_555 1_555
O2 C14 1_555 1_555
N1 C1 1_555 1_555
C1 C2 1_555 1_555
C2 H1 1_555 1_555
C3 C2 1_555 1_555
H2 C3 1_555 1_555
C4 C3 1_555 1_555
H3 C4 1_555 1_555
C5 C4 1_555 1_555
H4 C5 1_555 1_555
C6 C1 1_555 1_555
H5 C6 1_555 1_555
C7 H6 1_555 1_555
C8 C7 1_555 1_555
H7 C8 1_555 1_555
C9 C8 1_555 1_555
H8 C9 1_555 1_555
C10 C9 1_555 1_555
H9 C10 1_555 1_555
C11 C10 1_555 1_555
H10 C11 1_555 1_555
C12 N1 1_555 1_555
C13 N1 1_555 1_555
C14 C13 1_555 1_555
H11 C14 1_555 1_555
H12 C14 1_555 1_555
C15 O2 1_555 1_555
C16 C15 1_555 1_555
H13 C16 1_555 1_555
C17 C16 1_555 1_555
H14 C17 1_555 1_555
O1B C13B 1_555 1_555
O2B C14B 1_555 1_555
N1B C1B 1_555 1_555
C1B C2B 1_555 1_555
C2B H1B 1_555 1_555
C3B C2B 1_555 1_555
H2B C3B 1_555 1_555
C4B C3B 1_555 1_555
H3B C4B 1_555 1_555
C5B C4B 1_555 1_555
H4B C5B 1_555 1_555
C6B C1B 1_555 1_555
H5B C6B 1_555 1_555
C7B H6B 1_555 1_555
C8B C7B 1_555 1_555
H7B C8B 1_555 1_555
C9B C8B 1_555 1_555
H8B C9B 1_555 1_555
C10B C9B 1_555 1_555
H9B C10B 1_555 1_555
C11B C10B 1_555 1_555
H10B C11B 1_555 1_555
C12B N1B 1_555 1_555
C13B N1B 1_555 1_555
C14B C13B 1_555 1_555
H11B C14B 1_555 1_555
H12B C14B 1_555 1_555
C15B C15 1_555 1_555
C16B C15B 1_555 1_555
H13B C16B 1_555 1_555
C17B C17 1_555 1_555
H14B C17B 1_555 1_555
C5 C6 1_555 1_555
C7 C12 1_555 1_555
C11 C12 1_555 1_555
O2B C15B 1_555 1_555
C5B C6B 1_555 1_555
C7B C12B 1_555 1_555
C11B C12B 1_555 1_555
C16B C17B 1_555 1_555

#END
