
#######################################################################
#
#                 Cambridge Crystallographic Data Centre
#                                CCDC 
#
#######################################################################
#
# If this CIF has been generated from an entry in the Cambridge 
# Structural Database, then it will include bibliographic, chemical, 
# crystal, experimental, refinement or atomic coordinate data resulting 
# from the CCDC's data processing and validation procedures.
#
#######################################################################

data_KATBEM
_chemical_compound_source        'dried bulbs of Fritillaria tortifolia'
_chemical_name_common            
'(20S,22R,25S)-cis-5alpha-Cevanine-3beta,6beta-diol methanol solvate'
_chemical_formula_moiety         'C27 H45 N1 O2,C1 H4 O1'
_chemical_name_systematic        'Tortifoline methanol solvate'
_chemical_properties_biological  
'antitussive, expectorant and sedative activity'
_symmetry_cell_setting           monoclinic
_symmetry_space_group_name_H-M   'P 21'
_symmetry_Int_Tables_number      4
_space_group_name_Hall           'P 2yb'
loop_
_symmetry_equiv_pos_site_id
_symmetry_equiv_pos_as_xyz
1 x,y,z
2 -x,1/2+y,-z
_cell_length_a                   13.150(1)
_cell_length_b                   8.797(1)
_cell_length_c                   11.701(2)
_cell_angle_alpha                90
_cell_angle_beta                 100.74(1)
_cell_angle_gamma                90
_cell_volume                     1329.87
_exptl_crystal_colour            white
_chemical_melting_point          206-208deg.C
_cell_formula_units_Z            2
loop_
_atom_site_label
_atom_site_type_symbol
_atom_site_fract_x
_atom_site_fract_y
_atom_site_fract_z
C1 C 0.1226(9) 0.1301(15) 0.3130(7)
C2 C 0.0762(14) 0.0249(19) 0.2064(10)
C3 C -0.0310(16) 0.0672(31) 0.1659(13)
C4 C -0.0490(9) 0.2415(29) 0.1358(10)
C5 C -0.0083(6) 0.3309(19) 0.2432(6)
C6 C -0.0358(7) 0.4992(23) 0.2348(7)
C7 C 0.0027(7) 0.5899(19) 0.3442(7)
C8 C 0.1175(5) 0.5581(11) 0.3856(5)
C9 C 0.1388(5) 0.3882(12) 0.4026(5)
C10 C 0.1103(6) 0.2981(12) 0.2887(5)
C11 C 0.2540(8) 0.3832(15) 0.4667(8)
C12 C 0.2678(6) 0.5254 0.5476(5)
C13 C 0.3668(8) 0.6061(16) 0.5393(7)
C14 C 0.1656(7) 0.6226(14) 0.5056(7)
C15 C 0.1869(9) 0.7935(15) 0.4963(10)
C16 C 0.2612(13) 0.8465(15) 0.5992(14)
C17 C 0.3735(10) 0.7674(15) 0.6077(10)
C18 C 0.4587(6) 0.5126(15) 0.5757(7)
C19 C 0.1798(5) 0.3434(12) 0.2006(6)
C20 C 0.4203(9) 0.7428(15) 0.7370(9)
C21 C 0.4482(17) 0.9019(21) 0.7851(19)
C22 C 0.5134(7) 0.6325(14) 0.7619(8)
C23 C 0.5394(12) 0.6140(22) 0.8872(11)
C24 C 0.6345(12) 0.4927(21) 0.9184(12)
C25 C 0.5986(11) 0.3446(22) 0.8603(12)
C26 C 0.5685(7) 0.3765(16) 0.7252(10)
C27 C 0.6930(13) 0.2219(29) 0.8676(16)
N1 N 0.4857(4) 0.4910(11) 0.7029(5)
O1 O -0.0785(13) -0.0174(23) 0.0629(9)
O2 O -0.0028(8) 0.5674(17) 0.1350(6)
C28 C -0.2637(16) -0.2078(23) 0.1605(17)
O3 O -0.1743(12) -0.2475(18) 0.1002(12)
loop_
_geom_bond_atom_site_label_1
_geom_bond_atom_site_label_2
_geom_bond_site_symmetry_1
_geom_bond_site_symmetry_2
C1 C2 1_555 1_555
C2 C3 1_555 1_555
C3 C4 1_555 1_555
C4 C5 1_555 1_555
C5 C6 1_555 1_555
C6 C7 1_555 1_555
C7 C8 1_555 1_555
C8 C9 1_555 1_555
C9 C10 1_555 1_555
C10 C1 1_555 1_555
C11 C9 1_555 1_555
C12 C11 1_555 1_555
C13 C12 1_555 1_555
C14 C8 1_555 1_555
C15 C14 1_555 1_555
C16 C15 1_555 1_555
C17 C13 1_555 1_555
C18 C13 1_555 1_555
C19 C10 1_555 1_555
C20 C17 1_555 1_555
C21 C20 1_555 1_555
C22 C20 1_555 1_555
C23 C22 1_555 1_555
C24 C23 1_555 1_555
C25 C24 1_555 1_555
C26 C25 1_555 1_555
C27 C25 1_555 1_555
N1 C18 1_555 1_555
O1 C3 1_555 1_555
O2 C6 1_555 1_555
C28 O3 1_555 1_555
C5 C10 1_555 1_555
C12 C14 1_555 1_555
C16 C17 1_555 1_555
C22 N1 1_555 1_555
C26 N1 1_555 1_555

#END
