
#######################################################################
#
#                 Cambridge Crystallographic Data Centre
#                                CCDC 
#
#######################################################################
#
# If this CIF has been generated from an entry in the Cambridge 
# Structural Database, then it will include bibliographic, chemical, 
# crystal, experimental, refinement or atomic coordinate data resulting 
# from the CCDC's data processing and validation procedures.
#
#######################################################################

data_KATBEN
_chemical_formula_moiety         'C14 H19 N3 O7 S1'
_chemical_name_systematic        
N^2^-(2-Nitrophenylsulfonyl)-N^5^-(n-propyl)glutamine
_chemical_properties_biological  'potent herbicidal activity'
_symmetry_cell_setting           monoclinic
_symmetry_space_group_name_H-M   'P 21'
_symmetry_Int_Tables_number      4
_space_group_name_Hall           'P 2yb'
loop_
_symmetry_equiv_pos_site_id
_symmetry_equiv_pos_as_xyz
1 x,y,z
2 -x,1/2+y,-z
_cell_length_a                   6.9215(13)
_cell_length_b                   7.7539(16)
_cell_length_c                   15.797(3)
_cell_angle_alpha                90
_cell_angle_beta                 91.858(3)
_cell_angle_gamma                90
_cell_volume                     847.357
_exptl_crystal_colour            colorless
_exptl_crystal_description       prism
_cell_formula_units_Z            2
_exptl_crystal_recrystallization_method ethanol/water
loop_
_atom_site_label
_atom_site_type_symbol
_atom_site_fract_x
_atom_site_fract_y
_atom_site_fract_z
S1 S 0.18001(6) 0.51289(6) 0.68311(3)
O1 O -0.3398(3) 0.6233(3) 0.55017(11)
O2 O -0.2398(2) 0.6410(2) 0.68034(10)
O3 O 0.1560(2) 0.6676(2) 0.63517(9)
O4 O 0.36377(19) 0.4296(2) 0.68935(9)
O5 O -0.1683(2) 0.5317(2) 0.88503(9)
O6 O -0.0053(2) 0.3581(2) 0.97427(10)
H1 H -0.096(4) 0.366(4) 1.0065(18)
O7 O 0.2637(2) 0.8944(2) 0.91572(10)
N1 N -0.2546(2) 0.5661(2) 0.61264(12)
N2 N 0.1168(2) 0.5534(2) 0.77864(9)
H2 H 0.015(3) 0.605(3) 0.7804(12)
N3 N 0.4870(2) 0.7868(2) 0.83201(11)
H3 H 0.552(3) 0.699(3) 0.8216(12)
C1 C -0.1706(3) 0.3927(3) 0.60670(11)
C2 C -0.2864(4) 0.2677(3) 0.56901(14)
H4 H -0.4089 0.2961 0.5474
C3 C -0.2199(4) 0.1008(3) 0.56359(15)
H5 H -0.2987 0.0152 0.5399
C4 C -0.0358(4) 0.0613(3) 0.59349(14)
H6 H 0.0098 -0.0512 0.5893
C5 C 0.0824(3) 0.1880(3) 0.62986(13)
H7 H 0.2072 0.1599 0.6487
C6 C 0.0162(3) 0.3560(2) 0.63831(11)
C7 C 0.1436(2) 0.4253(3) 0.84651(11)
H8 H 0.1355 0.3105 0.8207
C8 C -0.0298(3) 0.4461(3) 0.90434(12)
C9 C 0.3402(3) 0.4401(3) 0.89322(12)
H9 H 0.3554 0.3423 0.9312
H10 H 0.4406 0.4322 0.8520
C10 C 0.3718(3) 0.6050(3) 0.94448(12)
H11 H 0.2728 0.6109 0.9864
H12 H 0.4954 0.5958 0.9749
C11 C 0.3693(3) 0.7717(3) 0.89619(12)
C12 C 0.4937(3) 0.9371(3) 0.77660(13)
H13 H 0.3679 0.9922 0.7743
H14 H 0.5221 0.8996 0.7198
C13 C 0.6454(4) 1.0679(3) 0.80635(16)
H15 H 0.6504 1.1601 0.7650
H16 H 0.6061 1.1178 0.8594
C14 C 0.8432(4) 0.9928(4) 0.81882(18)
H17 H 0.8842 0.9444 0.7664
H18 H 0.8407 0.9041 0.8612
H19 H 0.9319 1.0817 0.8369
loop_
_geom_bond_atom_site_label_1
_geom_bond_atom_site_label_2
_geom_bond_site_symmetry_1
_geom_bond_site_symmetry_2
S1 O3 1_555 1_555
O1 N1 1_555 1_555
O2 N1 1_555 1_555
O4 S1 1_555 1_555
O5 C8 1_555 1_555
O6 H1 1_555 1_555
O7 C11 1_555 1_555
N1 C1 1_555 1_555
N2 S1 1_555 1_555
H2 N2 1_555 1_555
N3 H3 1_555 1_555
C1 C2 1_555 1_555
C2 H4 1_555 1_555
C3 C2 1_555 1_555
H5 C3 1_555 1_555
C4 C3 1_555 1_555
H6 C4 1_555 1_555
C5 C4 1_555 1_555
H7 C5 1_555 1_555
C6 S1 1_555 1_555
C7 N2 1_555 1_555
H8 C7 1_555 1_555
C8 O6 1_555 1_555
C9 C7 1_555 1_555
H9 C9 1_555 1_555
H10 C9 1_555 1_555
C10 C9 1_555 1_555
H11 C10 1_555 1_555
H12 C10 1_555 1_555
C11 N3 1_555 1_555
C12 N3 1_555 1_555
H13 C12 1_555 1_555
H14 C12 1_555 1_555
C13 C12 1_555 1_555
H15 C13 1_555 1_555
H16 C13 1_555 1_555
C14 C13 1_555 1_555
H17 C14 1_555 1_555
H18 C14 1_555 1_555
H19 C14 1_555 1_555
C1 C6 1_555 1_555
C5 C6 1_555 1_555
C7 C8 1_555 1_555
C10 C11 1_555 1_555

#END
