
#######################################################################
#
#                 Cambridge Crystallographic Data Centre
#                                CCDC 
#
#######################################################################
#
# If this CIF has been generated from an entry in the Cambridge 
# Structural Database, then it will include bibliographic, chemical, 
# crystal, experimental, refinement or atomic coordinate data resulting 
# from the CCDC's data processing and validation procedures.
#
#######################################################################

data_KATFAN
_chemical_formula_moiety         'C14 H10 Cl1 N3 O4'
_chemical_name_systematic        N-(4-Chlorophenyl)-N'-(4-nitrobenzoyl)urea
_symmetry_cell_setting           triclinic
_symmetry_space_group_name_H-M   'P -1'
_symmetry_Int_Tables_number      2
_space_group_name_Hall           '-P 1'
loop_
_symmetry_equiv_pos_site_id
_symmetry_equiv_pos_as_xyz
1 x,y,z
2 -x,-y,-z
_cell_length_a                   7.1737(10)
_cell_length_b                   8.2486(12)
_cell_length_c                   12.1873(17)
_cell_angle_alpha                91.418(2)
_cell_angle_beta                 106.157(2)
_cell_angle_gamma                99.400(2)
_cell_volume                     681.496
_exptl_crystal_colour            yellow
_exptl_crystal_description       block
_cell_formula_units_Z            2
_exptl_crystal_recrystallization_method DMSO/acetone
loop_
_atom_site_label
_atom_site_type_symbol
_atom_site_fract_x
_atom_site_fract_y
_atom_site_fract_z
Cl1 Cl 1.28679(9) -0.00089(7) 0.27008(5)
N1 N 0.9143(2) 0.32409(17) 0.56999(12)
H1 H 0.984(2) 0.337(2) 0.6415(9)
N2 N 0.70475(19) 0.46082(17) 0.63786(11)
H2 H 0.5996(18) 0.5037(19) 0.6185(14)
N3 N 0.5108(2) 0.8111(2) 1.06294(14)
O1 O 0.64018(16) 0.39301(16) 0.44858(9)
O2 O 0.97614(18) 0.44473(16) 0.78491(10)
O3 O 0.3401(2) 0.8288(2) 1.03227(15)
O4 O 0.6206(3) 0.8557(2) 1.15750(13)
C1 C 0.7506(2) 0.39051(19) 0.54468(14)
C2 C 0.8153(2) 0.4858(2) 0.74984(14)
C3 C 0.9940(2) 0.24722(19) 0.49319(14)
C4 C 1.1752(2) 0.2006(2) 0.54013(15)
H3 H 1.2364 0.2206 0.6184
C5 C 1.2654(3) 0.1254(2) 0.47245(17)
H4 H 1.3874 0.0954 0.5045
C6 C 1.1737(3) 0.0946(2) 0.35684(16)
C7 C 0.9928(3) 0.1375(2) 0.30907(16)
H5 H 0.9313 0.1149 0.2310
C8 C 0.9018(3) 0.2141(2) 0.37664(15)
H6 H 0.7795 0.2432 0.3442
C9 C 0.7284(2) 0.5695(2) 0.82916(13)
C10 C 0.8574(2) 0.6555(2) 0.92800(14)
H7 H 0.9923 0.6585 0.9426
C11 C 0.7882(3) 0.7360(2) 1.00432(15)
H8 H 0.8744 0.7947 1.0700
C12 C 0.5877(3) 0.7274(2) 0.98081(14)
C13 C 0.4555(2) 0.6416(2) 0.88505(14)
H9 H 0.3206 0.6373 0.8718
C14 C 0.5269(2) 0.5619(2) 0.80906(14)
H10 H 0.4396 0.5028 0.7439
loop_
_geom_bond_atom_site_label_1
_geom_bond_atom_site_label_2
_geom_bond_site_symmetry_1
_geom_bond_site_symmetry_2
Cl1 C6 1_555 1_555
N1 H1 1_555 1_555
N2 H2 1_555 1_555
N3 O3 1_555 1_555
O1 C1 1_555 1_555
O2 C2 1_555 1_555
O4 N3 1_555 1_555
C1 N1 1_555 1_555
C2 N2 1_555 1_555
C3 N1 1_555 1_555
C4 C3 1_555 1_555
H3 C4 1_555 1_555
C5 C4 1_555 1_555
H4 C5 1_555 1_555
C6 C5 1_555 1_555
C7 C6 1_555 1_555
H5 C7 1_555 1_555
C8 C3 1_555 1_555
H6 C8 1_555 1_555
C9 C2 1_555 1_555
C10 C9 1_555 1_555
H7 C10 1_555 1_555
C11 C10 1_555 1_555
H8 C11 1_555 1_555
C12 N3 1_555 1_555
C13 C12 1_555 1_555
H9 C13 1_555 1_555
C14 C9 1_555 1_555
H10 C14 1_555 1_555
N2 C1 1_555 1_555
C7 C8 1_555 1_555
C11 C12 1_555 1_555
C13 C14 1_555 1_555

#END
