
#######################################################################
#
#                 Cambridge Crystallographic Data Centre
#                                CCDC 
#
#######################################################################
#
# If this CIF has been generated from an entry in the Cambridge 
# Structural Database, then it will include bibliographic, chemical, 
# crystal, experimental, refinement or atomic coordinate data resulting 
# from the CCDC's data processing and validation procedures.
#
#######################################################################

data_KATGER
_chemical_formula_moiety         'C20 H34 B2 N2 S1'
_chemical_name_systematic        
4,4-(1,5-Cyclo-octanediyl)-2-cyclo-octyl-8-methyl-3-thia-1-aza-5-azonia-2-bora-4-boratabicyclo(3.3.0)-octa-5,7-diene
_symmetry_cell_setting           monoclinic
_symmetry_space_group_name_H-M   'P 21/c'
_symmetry_Int_Tables_number      14
_space_group_name_Hall           '-P 2ybc'
loop_
_symmetry_equiv_pos_site_id
_symmetry_equiv_pos_as_xyz
1 x,y,z
2 -x,1/2+y,1/2-z
3 -x,-y,-z
4 x,1/2-y,1/2+z
_cell_length_a                   12.493(3)
_cell_length_b                   12.049(4)
_cell_length_c                   13.926(4)
_cell_angle_alpha                90
_cell_angle_beta                 102.55(2)
_cell_angle_gamma                90
_cell_volume                     2046.17
_exptl_crystal_colour            colorless
_chemical_melting_point          126deg.C
_cell_formula_units_Z            4
loop_
_atom_site_label
_atom_site_type_symbol
_atom_site_fract_x
_atom_site_fract_y
_atom_site_fract_z
S1 S 0.9307(2) 0.2309(2) 0.4770(2)
B1 B 1.0682(7) 0.3032(8) 0.4668(8)
B2 B 0.8538(8) 0.2829(7) 0.3688(8)
N1 N 1.0258(5) 0.3746(6) 0.3689(5)
N2 N 0.9190(5) 0.3580(5) 0.3163(6)
C1 C 1.1178(6) 0.3764(7) 0.5612(6)
C2 C 1.1409(7) 0.2976(7) 0.6516(6)
C3 C 1.2117(7) 0.1970(7) 0.6415(7)
C4 C 1.1813(7) 0.1375(7) 0.5430(6)
C5 C 1.1597(6) 0.2152(6) 0.4529(6)
C6 C 1.2622(6) 0.2744(8) 0.4374(7)
C7 C 1.3080(6) 0.3634(8) 0.5144(7)
C8 C 1.2222(7) 0.4374(7) 0.5474(6)
C9 C 0.7309(6) 0.2503(7) 0.3230(6)
C10 C 0.7334(7) 0.1533(8) 0.2503(7)
C11 C 0.6270(8) 0.1244(9) 0.1777(7)
C12 C 0.5648(8) 0.0264(10) 0.2016(9)
C13 C 0.5492(10) 0.0192(10) 0.3074(10)
C14 C 0.4917(9) 0.1039(11) 0.3469(11)
C15 C 0.5399(8) 0.2184(9) 0.3656(11)
C16 C 0.6659(7) 0.2282(8) 0.4031(8)
C17 C 1.0697(7) 0.4458(7) 0.3145(8)
C18 C 0.9948(8) 0.4753(7) 0.2325(7)
C19 C 0.9008(7) 0.4213(7) 0.2350(7)
C20 C 0.7946(7) 0.4251(7) 0.1586(7)
H1 H 1.0640 0.4304 0.5692
H2 H 1.1739 0.3398 0.7088
H3 H 1.0717 0.2703 0.6610
H4 H 1.2861 0.2223 0.6502
H5 H 1.2083 0.1454 0.6928
H6 H 1.2386 0.0869 0.5364
H7 H 1.1163 0.0944 0.5423
H8 H 1.1308 0.1720 0.3952
H9 H 1.2478 0.3083 0.3742
H10 H 1.3180 0.2196 0.4380
H11 H 1.3583 0.4096 0.4893
H12 H 1.3490 0.3271 0.5712
H13 H 1.2561 0.4736 0.6076
H14 H 1.2012 0.4940 0.4992
H15 H 0.6968 0.3121 0.2858
H16 H 0.7536 0.0881 0.2889
H17 H 0.7900 0.1674 0.2150
H18 H 0.6433 0.1128 0.1144
H19 H 0.5809 0.1886 0.1738
H20 H 0.6012 -0.0395 0.1864
H21 H 0.4931 0.0265 0.1599
H22 H 0.6214 0.0143 0.3476
H23 H 0.5131 -0.0501 0.3135
H24 H 0.4841 0.0780 0.4098
H25 H 0.4192 0.1090 0.3071
H26 H 0.5050 0.2575 0.4106
H27 H 0.5218 0.2562 0.3042
H28 H 0.6828 0.2855 0.4521
H29 H 0.6912 0.1589 0.4330
H30 H 1.1440 0.4720 0.3323
H31 H 1.0068 0.5258 0.1831
H32 H 0.8013 0.4746 0.1068
H33 H 0.7762 0.3520 0.1323
H34 H 0.7381 0.4512 0.1900
loop_
_geom_bond_atom_site_label_1
_geom_bond_atom_site_label_2
_geom_bond_site_symmetry_1
_geom_bond_site_symmetry_2
S1 B1 1_555 1_555
B1 N1 1_555 1_555
B2 S1 1_555 1_555
N1 N2 1_555 1_555
N2 B2 1_555 1_555
C1 B1 1_555 1_555
C2 C1 1_555 1_555
C3 C2 1_555 1_555
C4 C3 1_555 1_555
C5 B1 1_555 1_555
C6 C5 1_555 1_555
C7 C6 1_555 1_555
C8 C1 1_555 1_555
C9 B2 1_555 1_555
C10 C9 1_555 1_555
C11 C10 1_555 1_555
C12 C11 1_555 1_555
C13 C12 1_555 1_555
C14 C13 1_555 1_555
C15 C14 1_555 1_555
C16 C9 1_555 1_555
C17 N1 1_555 1_555
C18 C17 1_555 1_555
C19 N2 1_555 1_555
C20 C19 1_555 1_555
H1 C1 1_555 1_555
H2 C2 1_555 1_555
H3 C2 1_555 1_555
H4 C3 1_555 1_555
H5 C3 1_555 1_555
H6 C4 1_555 1_555
H7 C4 1_555 1_555
H8 C5 1_555 1_555
H9 C6 1_555 1_555
H10 C6 1_555 1_555
H11 C7 1_555 1_555
H12 C7 1_555 1_555
H13 C8 1_555 1_555
H14 C8 1_555 1_555
H15 C9 1_555 1_555
H16 C10 1_555 1_555
H17 C10 1_555 1_555
H18 C11 1_555 1_555
H19 C11 1_555 1_555
H20 C12 1_555 1_555
H21 C12 1_555 1_555
H22 C13 1_555 1_555
H23 C13 1_555 1_555
H24 C14 1_555 1_555
H25 C14 1_555 1_555
H26 C15 1_555 1_555
H27 C15 1_555 1_555
H28 C16 1_555 1_555
H29 C16 1_555 1_555
H30 C17 1_555 1_555
H31 C18 1_555 1_555
H32 C20 1_555 1_555
H33 C20 1_555 1_555
H34 C20 1_555 1_555
C4 C5 1_555 1_555
C7 C8 1_555 1_555
C15 C16 1_555 1_555
C18 C19 1_555 1_555

#END
