
#######################################################################
#
#                 Cambridge Crystallographic Data Centre
#                                CCDC 
#
#######################################################################
#
# If this CIF has been generated from an entry in the Cambridge 
# Structural Database, then it will include bibliographic, chemical, 
# crystal, experimental, refinement or atomic coordinate data resulting 
# from the CCDC's data processing and validation procedures.
#
#######################################################################

data_KATKOG
_chemical_formula_moiety         'C10 H10 N4 S2'
_chemical_name_systematic        1,2-bis(pyrimidin-2-ylsulfanyl)ethane
_symmetry_cell_setting           monoclinic
_symmetry_space_group_name_H-M   'P 21/c'
_symmetry_Int_Tables_number      14
_space_group_name_Hall           '-P 2ybc'
loop_
_symmetry_equiv_pos_site_id
_symmetry_equiv_pos_as_xyz
1 x,y,z
2 -x,1/2+y,1/2-z
3 -x,-y,-z
4 x,1/2-y,1/2+z
_cell_length_a                   8.0524(16)
_cell_length_b                   19.884(4)
_cell_length_c                   8.1541(16)
_cell_angle_alpha                90
_cell_angle_beta                 116.57(3)
_cell_angle_gamma                90
_cell_volume                     1167.7
_exptl_crystal_colour            colorless
_exptl_crystal_description       needle
_cell_formula_units_Z            4
_exptl_crystal_recrystallization_method chloroform
loop_
_atom_site_label
_atom_site_type_symbol
_atom_site_fract_x
_atom_site_fract_y
_atom_site_fract_z
S1 S -0.18017(17) -0.26723(5) -0.1152(2)
S2 S -0.23919(15) -0.48544(6) -0.2296(2)
N1 N 0.0708(5) -0.18705(15) -0.1171(5)
N2 N 0.1370(5) -0.30332(15) -0.1231(5)
N3 N -0.5083(5) -0.56394(14) -0.2632(5)
N4 N -0.5653(5) -0.44748(16) -0.2418(6)
C1 C 0.2316(6) -0.1727(2) -0.1195(6)
H1 H 0.2645 -0.1278 -0.1180
C2 C 0.3493(6) -0.2208(2) -0.1242(7)
H2 H 0.4601 -0.2097 -0.1271
C3 C 0.2971(6) -0.2861(2) -0.1245(7)
H3 H 0.3760 -0.3201 -0.1256
C4 C 0.0330(5) -0.25188(18) -0.1194(5)
C5 C -0.1764(7) -0.3603(3) -0.0842(6)
H4 H -0.0516 -0.3755 -0.0041
H5 H -0.2578 -0.3732 -0.0307
C6 C -0.2392(6) -0.3889(3) -0.2624(6)
H6 H -0.1566 -0.3767 -0.3150
H7 H -0.3632 -0.3731 -0.3431
C7 C -0.4615(5) -0.49969(17) -0.2463(5)
C8 C -0.7334(6) -0.4635(2) -0.2590(7)
H8 H -0.8103 -0.4292 -0.2556
C9 C -0.7973(6) -0.5280(2) -0.2812(6)
H9 H -0.9161 -0.5380 -0.2964
C10 C -0.6780(6) -0.57709(19) -0.2802(5)
H10 H -0.7167 -0.6217 -0.2917
loop_
_geom_bond_atom_site_label_1
_geom_bond_atom_site_label_2
_geom_bond_site_symmetry_1
_geom_bond_site_symmetry_2
S1 C4 1_555 1_555
S2 C6 1_555 1_555
N1 C1 1_555 1_555
N2 C3 1_555 1_555
N3 C7 1_555 1_555
N4 C7 1_555 1_555
C1 H1 1_555 1_555
C2 C1 1_555 1_555
H2 C2 1_555 1_555
C3 C2 1_555 1_555
H3 C3 1_555 1_555
C4 N1 1_555 1_555
C5 S1 1_555 1_555
H4 C5 1_555 1_555
H5 C5 1_555 1_555
C6 C5 1_555 1_555
H6 C6 1_555 1_555
H7 C6 1_555 1_555
C7 S2 1_555 1_555
C8 N4 1_555 1_555
H8 C8 1_555 1_555
C9 C8 1_555 1_555
H9 C9 1_555 1_555
C10 N3 1_555 1_555
H10 C10 1_555 1_555
N2 C4 1_555 1_555
C9 C10 1_555 1_555

#END
