
#######################################################################
#
#                 Cambridge Crystallographic Data Centre
#                                CCDC 
#
#######################################################################
#
# If this CIF has been generated from an entry in the Cambridge 
# Structural Database, then it will include bibliographic, chemical, 
# crystal, experimental, refinement or atomic coordinate data resulting 
# from the CCDC's data processing and validation procedures.
#
#######################################################################

data_KATKIA
_chemical_formula_moiety         'C11 H14 O4'
_chemical_name_systematic        2,3,4-Trimethoxy-6-methylbenzaldehyde
_symmetry_cell_setting           monoclinic
_symmetry_space_group_name_H-M   'P 21/n'
_symmetry_Int_Tables_number      14
_space_group_name_Hall           '-P 2yn'
loop_
_symmetry_equiv_pos_site_id
_symmetry_equiv_pos_as_xyz
1 x,y,z
2 1/2-x,1/2+y,1/2-z
3 -x,-y,-z
4 1/2+x,1/2-y,1/2+z
_cell_length_a                   9.239(2)
_cell_length_b                   7.3884(15)
_cell_length_c                   15.649(3)
_cell_angle_alpha                90
_cell_angle_beta                 92.329(3)
_cell_angle_gamma                90
_cell_volume                     1067.34
_exptl_crystal_colour            colorless
_exptl_crystal_description       prism
_chemical_melting_point          '333 K'
_cell_formula_units_Z            4
_exptl_crystal_recrystallization_method 'petroleum ether'
loop_
_atom_site_label
_atom_site_type_symbol
_atom_site_fract_x
_atom_site_fract_y
_atom_site_fract_z
O1 O 0.9270(2) 1.0152(2) 0.77398(10)
O2 O 0.76757(13) 1.30037(15) 0.96232(8)
O3 O 0.68164(13) 1.16631(16) 1.11355(8)
O4 O 0.71589(14) 0.80823(16) 1.14992(7)
C1 C 0.84417(18) 1.0060(2) 0.91665(10)
C2 C 0.78117(18) 1.1171(2) 0.97772(11)
C3 C 0.73641(18) 1.0493(2) 1.05455(10)
C4 C 0.75796(18) 0.8652(2) 1.07244(10)
C5 C 0.82038(18) 0.7543(2) 1.01232(10)
H1 H 0.8334 0.6321 1.0246
C6 C 0.86381(17) 0.8208(2) 0.93433(11)
C7 C 0.8869(2) 1.0905(3) 0.83628(13)
H2 H 0.8822 1.2161 0.8338
C8 C 0.6294(2) 1.3537(3) 0.92771(15)
H3 H 0.6117 1.2961 0.8733
H4 H 0.6274 1.4827 0.9204
H5 H 0.5559 1.3183 0.9660
C9 C 0.5329(2) 1.1366(3) 1.13409(13)
H6 H 0.4741 1.1285 1.0822
H7 H 0.5001 1.2356 1.1680
H8 H 0.5256 1.0259 1.1657
C10 C 0.7364(2) 0.6215(3) 1.17200(12)
H9 H 0.6881 0.5468 1.1295
H10 H 0.6969 0.5986 1.2268
H11 H 0.8381 0.5940 1.1745
C11 C 0.9311(2) 0.6907(3) 0.87325(12)
H12 H 0.9417 0.5742 0.9000
H13 H 1.0245 0.7349 0.8585
H14 H 0.8699 0.6800 0.8224
loop_
_geom_bond_atom_site_label_1
_geom_bond_atom_site_label_2
_geom_bond_site_symmetry_1
_geom_bond_site_symmetry_2
O1 C7 1_555 1_555
O2 C2 1_555 1_555
O3 C3 1_555 1_555
O4 C4 1_555 1_555
C1 C2 1_555 1_555
C2 C3 1_555 1_555
C3 C4 1_555 1_555
C4 C5 1_555 1_555
C5 H1 1_555 1_555
C6 C1 1_555 1_555
C7 C1 1_555 1_555
H2 C7 1_555 1_555
C8 O2 1_555 1_555
H3 C8 1_555 1_555
H4 C8 1_555 1_555
H5 C8 1_555 1_555
C9 O3 1_555 1_555
H6 C9 1_555 1_555
H7 C9 1_555 1_555
H8 C9 1_555 1_555
C10 O4 1_555 1_555
H9 C10 1_555 1_555
H10 C10 1_555 1_555
H11 C10 1_555 1_555
C11 C6 1_555 1_555
H12 C11 1_555 1_555
H13 C11 1_555 1_555
H14 C11 1_555 1_555
C5 C6 1_555 1_555

#END
