
#######################################################################
#
#                 Cambridge Crystallographic Data Centre
#                                CCDC 
#
#######################################################################
#
# If this CIF has been generated from an entry in the Cambridge 
# Structural Database, then it will include bibliographic, chemical, 
# crystal, experimental, refinement or atomic coordinate data resulting 
# from the CCDC's data processing and validation procedures.
#
#######################################################################

data_KATMIC
_chemical_formula_moiety         'C14 H12,C10 F8'
_chemical_name_systematic        'octafluoronaphthalene trans-stilbene'
_symmetry_cell_setting           monoclinic
_symmetry_space_group_name_H-M   'P 21/n'
_symmetry_Int_Tables_number      14
_space_group_name_Hall           '-P 2yn'
loop_
_symmetry_equiv_pos_site_id
_symmetry_equiv_pos_as_xyz
1 x,y,z
2 1/2-x,1/2+y,1/2-z
3 -x,-y,-z
4 1/2+x,1/2-y,1/2+z
_cell_length_a                   6.380(1)
_cell_length_b                   20.771(4)
_cell_length_c                   7.188(1)
_cell_angle_alpha                90
_cell_angle_beta                 98.83(1)
_cell_angle_gamma                90
_cell_volume                     941.257
_exptl_crystal_colour            colorless
_exptl_crystal_description       plate
_chemical_melting_point          '400-401 K'
_cell_formula_units_Z            2
loop_
_atom_site_label
_atom_site_type_symbol
_atom_site_fract_x
_atom_site_fract_y
_atom_site_fract_z
C1 C 0.5041(5) 0.09163(13) 0.0556(4)
C2 C 0.2941(6) 0.11356(16) 0.0092(4)
H1 H 0.1870 0.0839 -0.0419
C3 C 0.2378(7) 0.1778(2) 0.0374(6)
H2 H 0.0954 0.1919 0.0036
C4 C 0.3910(6) 0.2198(2) 0.1136(6)
H3 H 0.3566 0.2632 0.1382
C5 C 0.6030(7) 0.1984(2) 0.1565(7)
H4 H 0.7103 0.2284 0.2048
C6 C 0.6581(5) 0.13531(17) 0.1293(4)
H5 H 0.8017 0.1220 0.1612
C7 C 0.5632(4) 0.02410(13) 0.0304(4)
C1B C 0.4959(5) -0.09163(13) -0.0556(4)
C2B C 0.7059(6) -0.11356(16) -0.0092(4)
H1B H 0.8130 -0.0839 0.0419
C3B C 0.7622(7) -0.1778(2) -0.0374(6)
H2B H 0.9046 -0.1919 -0.0036
C4B C 0.6090(6) -0.2198(2) -0.1136(6)
H3B H 0.6434 -0.2632 -0.1382
C5B C 0.3970(7) -0.1984(2) -0.1565(7)
H4B H 0.2897 -0.2284 -0.2048
C6B C 0.3419(5) -0.13531(17) -0.1293(4)
H5B H 0.1983 -0.1220 -0.1612
C7B C 0.4368(4) -0.02410(13) -0.0304(4)
C15 C 0.2382(2) 0.03845(7) 0.42308(19)
C16 C 0.2735(2) 0.09935(7) 0.4869(2)
C17 C 0.4724(2) 0.11720(7) 0.5811(2)
C18 C 0.6319(2) 0.07329(7) 0.60963(19)
C19 C 0.39749(19) -0.00930(6) 0.45192(17)
F1 F 0.04596(12) 0.02378(5) 0.32728(12)
F2 F 0.11909(14) 0.14359(4) 0.45908(14)
F3 F 0.50358(16) 0.17775(4) 0.64177(13)
F4 F 0.82105(13) 0.09249(4) 0.70098(12)
C15B C 0.7618(2) -0.03845(7) 0.57692(19)
C16B C 0.7265(2) -0.09935(7) 0.5131(2)
C17B C 0.5276(2) -0.11720(7) 0.4189(2)
C18B C 0.3681(2) -0.07329(7) 0.39037(19)
C19B C 0.60251(19) 0.00930(6) 0.54808(17)
F1B F 0.95404(12) -0.02378(5) 0.67272(12)
F2B F 0.88091(14) -0.14359(4) 0.54092(14)
F3B F 0.49642(16) -0.17775(4) 0.35823(13)
F4B F 0.17895(13) -0.09249(4) 0.29902(12)
C8? C 0.4270(5) 0.08960(13) 0.0388(4)
C9? C 0.2415(5) 0.12550(16) 0.0100(4)
H6? H 0.1114 0.1060 -0.0435
C10? C 0.2462(7) 0.1900(2) 0.0589(6)
H7? H 0.1178 0.2139 0.0405
C11? C 0.4356(6) 0.2208(2) 0.1356(6)
H8? H 0.4348 0.2654 0.1652
C12? C 0.6198(7) 0.1860(2) 0.1667(7)
H9? H 0.7485 0.2062 0.2208
C13? C 0.6141(6) 0.12047(17) 0.1172(5)
H10? H 0.7427 0.0966 0.1380
C14? C 0.4208(4) 0.02095(12) -0.0125(4)
H11? H 0.712(2) 0.0029(7) 0.067(2)
loop_
_geom_bond_atom_site_label_1
_geom_bond_atom_site_label_2
_geom_bond_site_symmetry_1
_geom_bond_site_symmetry_2
C1 C2 1_555 1_555
C2 H1 1_555 1_555
C3 C2 1_555 1_555
H2 C3 1_555 1_555
C4 C3 1_555 1_555
H3 C4 1_555 1_555
C5 C4 1_555 1_555
H4 C5 1_555 1_555
C6 C1 1_555 1_555
H5 C6 1_555 1_555
C7 C1 1_555 1_555
C15 C16 1_555 1_555
C16 C17 1_555 1_555
C17 C18 1_555 1_555
C18 F4 1_555 1_555
C19 C15 1_555 1_555
F1 C15 1_555 1_555
F2 C16 1_555 1_555
F3 C17 1_555 1_555
C1B C2B 1_555 1_555
C2B H1B 1_555 1_555
C3B C2B 1_555 1_555
H2B C3B 1_555 1_555
C4B C3B 1_555 1_555
H3B C4B 1_555 1_555
C5B C4B 1_555 1_555
H4B C5B 1_555 1_555
C6B C1B 1_555 1_555
H5B C6B 1_555 1_555
C7B C7 1_555 1_555
C15B C16B 1_555 1_555
C16B C17B 1_555 1_555
C17B C18B 1_555 1_555
C18B C19 1_555 1_555
C19B C18 1_555 1_555
F1B C15B 1_555 1_555
F2B C16B 1_555 1_555
F3B C17B 1_555 1_555
F4B C18B 1_555 1_555
C5 C6 1_555 1_555
C19 C19B 1_555 1_555
C1B C7B 1_555 1_555
C5B C6B 1_555 1_555
C15B C19B 1_555 1_555

#END
