
#######################################################################
#
#                 Cambridge Crystallographic Data Centre
#                                CCDC 
#
#######################################################################
#
# If this CIF has been generated from an entry in the Cambridge 
# Structural Database, then it will include bibliographic, chemical, 
# crystal, experimental, refinement or atomic coordinate data resulting 
# from the CCDC's data processing and validation procedures.
#
#######################################################################

data_KATMOJ
_chemical_formula_moiety         'C12 H10 B1 N1'
_chemical_name_systematic        2-(Phenylethynyl)-1,2-dihydro-1,2-azaborinine
_symmetry_cell_setting           orthorhombic
_symmetry_space_group_name_H-M   'F d d 2'
_symmetry_Int_Tables_number      43
_space_group_name_Hall           'F 2 -2d'
loop_
_symmetry_equiv_pos_site_id
_symmetry_equiv_pos_as_xyz
1 x,y,z
2 -x,-y,z
3 1/4+x,1/4-y,1/4+z
4 1/4-x,1/4+y,1/4+z
5 x,1/2+y,1/2+z
6 -x,1/2-y,1/2+z
7 1/4+x,3/4-y,3/4+z
8 1/4-x,3/4+y,3/4+z
9 1/2+x,y,1/2+z
10 1/2-x,-y,1/2+z
11 3/4+x,1/4-y,3/4+z
12 3/4-x,1/4+y,3/4+z
13 1/2+x,1/2+y,z
14 1/2-x,1/2-y,z
15 3/4+x,3/4-y,1/4+z
16 3/4-x,3/4+y,1/4+z
_cell_length_a                   23.388(11)
_cell_length_b                   31.934(15)
_cell_length_c                   5.423(3)
_cell_angle_alpha                90
_cell_angle_beta                 90
_cell_angle_gamma                90
_cell_volume                     4050.29
_exptl_crystal_colour            colorless
_exptl_crystal_description       plate
_cell_formula_units_Z            16
loop_
_atom_site_label
_atom_site_type_symbol
_atom_site_fract_x
_atom_site_fract_y
_atom_site_fract_z
N1 N 0.06008(13) 0.10008(9) 0.4888(6)
B1 B 0.01218(16) 0.09166(11) 0.3334(8)
C1 C 0.10125(16) 0.12964(11) 0.4348(8)
C2 C 0.09739(15) 0.15251(11) 0.2256(7)
C3 C 0.05139(16) 0.14621(11) 0.0595(8)
C4 C 0.00955(16) 0.11727(10) 0.1045(7)
C5 C -0.03190(14) 0.05959(10) 0.4301(7)
C6 C -0.06654(14) 0.03522(11) 0.5158(7)
C7 C -0.10768(14) 0.00652(9) 0.6161(6)
C8 C -0.09648(17) -0.01535(10) 0.8367(7)
C9 C -0.1367(2) -0.04377(11) 0.9266(8)
C10 C -0.1877(2) -0.05019(13) 0.8034(9)
C11 C -0.19986(17) -0.02798(12) 0.5913(9)
C12 C -0.16013(15) 0.00001(11) 0.4952(7)
H1 H 0.0625(18) 0.0847(13) 0.632(9)
H2 H 0.1305(18) 0.1315(12) 0.580(8)
H3 H 0.1276(13) 0.1720(9) 0.202(6)
H4 H 0.0510(12) 0.1603(9) -0.087(6)
H5 H -0.0198(13) 0.1130(9) -0.008(7)
H6 H -0.0627(19) -0.0114(13) 0.931(9)
H7 H -0.1282(15) -0.0564(11) 1.083(8)
H8 H -0.2172(17) -0.0674(12) 0.876(8)
H9 H -0.2353(14) -0.0314(10) 0.493(8)
H10 H -0.1658(13) 0.0156(9) 0.351(7)
loop_
_geom_bond_atom_site_label_1
_geom_bond_atom_site_label_2
_geom_bond_site_symmetry_1
_geom_bond_site_symmetry_2
N1 B1 1_555 1_555
B1 C4 1_555 1_555
C1 N1 1_555 1_555
C2 C1 1_555 1_555
C3 C2 1_555 1_555
C4 C3 1_555 1_555
C5 B1 1_555 1_555
C6 C5 1_555 1_555
C7 C6 1_555 1_555
C8 C7 1_555 1_555
C9 C8 1_555 1_555
C10 C9 1_555 1_555
C11 C10 1_555 1_555
C12 C7 1_555 1_555
H1 N1 1_555 1_555
H2 C1 1_555 1_555
H3 C2 1_555 1_555
H4 C3 1_555 1_555
H5 C4 1_555 1_555
H6 C8 1_555 1_555
H7 C9 1_555 1_555
H8 C10 1_555 1_555
H9 C11 1_555 1_555
H10 C12 1_555 1_555
C11 C12 1_555 1_555

#END
