
#######################################################################
#
#                 Cambridge Crystallographic Data Centre
#                                CCDC 
#
#######################################################################
#
# If this CIF has been generated from an entry in the Cambridge 
# Structural Database, then it will include bibliographic, chemical, 
# crystal, experimental, refinement or atomic coordinate data resulting 
# from the CCDC's data processing and validation procedures.
#
#######################################################################

data_KATNUR
_chemical_formula_moiety         'C18 H13 Cl1 N2 O2 S1'
_chemical_name_systematic        
1-(3-((4-chlorophenyl)sulfonyl)phenyl)-2-phenyldiazene
_symmetry_cell_setting           monoclinic
_symmetry_space_group_name_H-M   'C 2/c'
_symmetry_Int_Tables_number      15
_space_group_name_Hall           '-C 2yn'
loop_
_symmetry_equiv_pos_site_id
_symmetry_equiv_pos_as_xyz
1 x,y,z
2 -x,y,1/2-z
3 1/2+x,1/2+y,z
4 1/2-x,1/2+y,1/2-z
5 -x,-y,-z
6 x,-y,1/2+z
7 1/2-x,1/2-y,-z
8 1/2+x,1/2-y,1/2+z
_cell_length_a                   34.644(7)
_cell_length_b                   7.0976(14)
_cell_length_c                   13.544(3)
_cell_angle_alpha                90
_cell_angle_beta                 98.63(3)
_cell_angle_gamma                90
_cell_volume                     3292.62
_exptl_crystal_colour            red
_exptl_crystal_description       block
_cell_formula_units_Z            8
loop_
_atom_site_label
_atom_site_type_symbol
_atom_site_fract_x
_atom_site_fract_y
_atom_site_fract_z
S1 S 0.162029(13) 0.01022(7) 0.09280(3)
Cl1 Cl 0.229098(18) -0.55428(9) 0.42713(5)
N1 N 0.02165(4) -0.1732(2) 0.12057(12)
C1 C 0.04942(5) -0.0232(2) 0.13008(14)
N2 N -0.01247(4) -0.1203(2) 0.12602(12)
O1 O 0.15688(4) -0.0905(2) -0.00006(10)
C2 C 0.18224(5) -0.1467(2) 0.18756(13)
C3 C 0.08678(5) -0.0717(3) 0.11439(14)
H1 H 0.0926 -0.1953 0.0993
C4 C -0.04066(5) -0.2690(3) 0.11642(13)
O2 O 0.18472(4) 0.18070(19) 0.10123(11)
C5 C 0.10723(6) 0.2508(3) 0.14592(15)
H2 H 0.1267 0.3421 0.1516
C6 C 0.11532(5) 0.0666(3) 0.12155(13)
C7 C 0.21257(5) -0.3938(3) 0.33393(14)
C8 C 0.04107(6) 0.1616(3) 0.15425(15)
H3 H 0.0160 0.1936 0.1654
C9 C 0.06981(6) 0.2968(3) 0.16170(16)
H4 H 0.0641 0.4202 0.1775
C10 C 0.19327(6) -0.0823(3) 0.28432(15)
H5 H 0.1906 0.0444 0.2994
C11 C 0.20826(6) -0.2069(3) 0.35781(15)
H6 H 0.2154 -0.1656 0.4231
C12 C -0.07838(6) -0.2143(3) 0.12324(16)
H7 H -0.0840 -0.0885 0.1342
C13 C -0.03220(6) -0.4560(3) 0.10008(16)
H8 H -0.0067 -0.4924 0.0956
C14 C 0.20282(6) -0.4576(3) 0.23773(17)
H9 H 0.2066 -0.5834 0.2225
C15 C 0.18734(6) -0.3340(3) 0.16404(15)
H10 H 0.1803 -0.3760 0.0988
C16 C -0.06165(6) -0.5878(3) 0.09058(16)
H11 H -0.0561 -0.7135 0.0794
C17 C -0.10773(6) -0.3470(4) 0.11375(17)
H12 H -0.1332 -0.3105 0.1182
C18 C -0.09959(7) -0.5336(4) 0.09769(18)
H13 H -0.1195 -0.6228 0.0916
loop_
_geom_bond_atom_site_label_1
_geom_bond_atom_site_label_2
_geom_bond_site_symmetry_1
_geom_bond_site_symmetry_2
S1 O1 1_555 1_555
Cl1 C7 1_555 1_555
N1 C1 1_555 1_555
C1 C3 1_555 1_555
N2 N1 1_555 1_555
C2 S1 1_555 1_555
C3 H1 1_555 1_555
C4 N2 1_555 1_555
O2 S1 1_555 1_555
C5 H2 1_555 1_555
C6 S1 1_555 1_555
C7 C11 1_555 1_555
C8 C1 1_555 1_555
H3 C8 1_555 1_555
C9 C5 1_555 1_555
H4 C9 1_555 1_555
C10 C2 1_555 1_555
H5 C10 1_555 1_555
C11 C10 1_555 1_555
H6 C11 1_555 1_555
C12 C4 1_555 1_555
H7 C12 1_555 1_555
C13 C4 1_555 1_555
H8 C13 1_555 1_555
C14 C7 1_555 1_555
H9 C14 1_555 1_555
C15 C2 1_555 1_555
H10 C15 1_555 1_555
C16 C13 1_555 1_555
H11 C16 1_555 1_555
C17 C12 1_555 1_555
H12 C17 1_555 1_555
C18 C16 1_555 1_555
H13 C18 1_555 1_555
C3 C6 1_555 1_555
C5 C6 1_555 1_555
C8 C9 1_555 1_555
C14 C15 1_555 1_555
C17 C18 1_555 1_555

#END
