
#######################################################################
#
#                 Cambridge Crystallographic Data Centre
#                                CCDC 
#
#######################################################################
#
# If this CIF has been generated from an entry in the Cambridge 
# Structural Database, then it will include bibliographic, chemical, 
# crystal, experimental, refinement or atomic coordinate data resulting 
# from the CCDC's data processing and validation procedures.
#
#######################################################################

data_KATNUP
_chemical_formula_moiety         'C20 H20 N4 O4'
_chemical_name_systematic        
(1RS,2RS)-N,N'-bis(4-Nitrobenzylidene)cyclohexane-1,2-diamine
_symmetry_cell_setting           monoclinic
_symmetry_space_group_name_H-M   'P 21/c'
_symmetry_Int_Tables_number      14
_space_group_name_Hall           '-P 2ybc'
loop_
_symmetry_equiv_pos_site_id
_symmetry_equiv_pos_as_xyz
1 x,y,z
2 -x,1/2+y,1/2-z
3 -x,-y,-z
4 x,1/2-y,1/2+z
_cell_length_a                   22.4197(5)
_cell_length_b                   8.9687(2)
_cell_length_c                   21.2076(4)
_cell_angle_alpha                90
_cell_angle_beta                 117.7179(11)
_cell_angle_gamma                90
_cell_volume                     3774.99
_exptl_crystal_colour            yellow
_exptl_crystal_description       block
_cell_formula_units_Z            8
_exptl_crystal_recrystallization_method 'aqueous ethanol'
loop_
_atom_site_label
_atom_site_type_symbol
_atom_site_fract_x
_atom_site_fract_y
_atom_site_fract_z
C1 C 0.12439(8) 0.65843(17) 0.57608(8)
C2 C 0.08905(8) 0.64452(17) 0.49470(8)
C3 C 0.10054(8) 0.78506(18) 0.46075(8)
C4 C 0.07787(8) 0.92517(18) 0.48457(9)
C5 C 0.11318(9) 0.93827(19) 0.56531(9)
C6 C 0.10135(8) 0.79910(19) 0.59924(8)
N1 N 0.10892(6) 0.52650(15) 0.60632(7)
C7 C 0.15854(8) 0.45096(18) 0.64966(8)
C8 C 0.15159(8) 0.31692(18) 0.68609(8)
C9 C 0.20948(8) 0.2404(2) 0.73262(9)
C10 C 0.20560(9) 0.1216(2) 0.77225(9)
C11 C 0.14332(8) 0.08000(17) 0.76412(8)
C12 C 0.08458(8) 0.14839(18) 0.71549(8)
C13 C 0.08913(8) 0.26760(18) 0.67681(8)
N2 N 0.13969(8) -0.03789(15) 0.81064(7)
O1 O 0.19249(7) -0.08221(15) 0.85972(7)
O2 O 0.08384(7) -0.08285(13) 0.79903(6)
N3 N 0.11647(6) 0.51612(14) 0.47447(7)
C14 C 0.07493(8) 0.42526(17) 0.43048(8)
C15 C 0.09677(8) 0.29509(18) 0.40343(8)
C16 C 0.16417(8) 0.25086(18) 0.43447(9)
C17 C 0.18415(8) 0.13115(18) 0.40749(9)
C18 C 0.13515(8) 0.05873(18) 0.34797(9)
C19 C 0.06827(8) 0.09872(18) 0.31657(8)
C20 C 0.04881(8) 0.21691(18) 0.34490(8)
N4 N 0.15571(8) -0.06346(16) 0.31586(9)
O3 O 0.21514(7) -0.10102(16) 0.34537(9)
O4 O 0.11288(8) -0.12053(15) 0.26099(7)
H1 H 0.1742 0.6637 0.5937
H2 H 0.0396 0.6299 0.4772
H3 H 0.1490 0.7936 0.4742
H4 H 0.0752 0.7765 0.4082
H5 H 0.0882 1.0141 0.4637
H6 H 0.0285 0.9215 0.4669
H7 H 0.0959 1.0268 0.5796
H8 H 0.1621 0.9520 0.5826
H9 H 0.0528 0.7907 0.5854
H10 H 0.1263 0.8083 0.6517
H11 H 0.2025 0.4818 0.6593
H12 H 0.2520 0.2699 0.7372
H13 H 0.2451 0.0698 0.8044
H14 H 0.0420 0.1140 0.7088
H15 H 0.0493 0.3165 0.6435
H16 H 0.0281 0.4409 0.4142
H17 H 0.1967 0.3035 0.4746
H18 H 0.2298 0.0996 0.4290
H19 H 0.0360 0.0462 0.2762
H20 H 0.0027 0.2448 0.3244
C21 C 0.40661(8) 1.14498(17) 0.48900(8)
C22 C 0.37930(8) 1.16469(17) 0.40844(8)
C23 C 0.40644(8) 1.30649(19) 0.39150(8)
C24 C 0.39238(8) 1.44351(18) 0.42503(8)
C25 C 0.42068(8) 1.42341(18) 0.50497(8)
C26 C 0.39173(8) 1.28348(18) 0.52136(8)
N5 N 0.37422(6) 1.01572(14) 0.50188(6)
C27 C 0.41195(8) 0.92504(17) 0.54935(8)
C28 C 0.38543(8) 0.79367(17) 0.56999(8)
C29 C 0.42774(8) 0.72089(18) 0.63335(8)
C30 C 0.40450(8) 0.60050(18) 0.65666(8)
C31 C 0.33964(8) 0.55215(17) 0.61478(8)
C32 C 0.29633(8) 0.61897(18) 0.55044(8)
C33 C 0.31980(8) 0.74171(18) 0.52884(8)
N6 N 0.31482(7) 0.42484(15) 0.64020(7)
O5 O 0.34670(7) 0.38938(14) 0.70303(6)
O6 O 0.26294(6) 0.36263(13) 0.59769(7)
N7 N 0.39917(6) 1.03448(15) 0.38062(7)
C34 C 0.35191(8) 0.95079(18) 0.33889(8)
C35 C 0.36323(8) 0.81585(18) 0.30588(8)
C36 C 0.42762(8) 0.76914(18) 0.32069(8)
C37 C 0.43645(8) 0.64767(18) 0.28605(8)
C38 C 0.37982(8) 0.57521(17) 0.23515(8)
C39 C 0.31539(8) 0.61660(19) 0.22036(9)
C40 C 0.30758(8) 0.73661(19) 0.25688(9)
N8 N 0.38834(7) 0.45423(15) 0.19303(7)
O7 O 0.44525(6) 0.40587(15) 0.21158(7)
O8 O 0.33848(6) 0.41029(14) 0.14043(6)
H21 H 0.4564 1.1284 0.5117
H22 H 0.3290 1.1702 0.3853
H23 H 0.3853 1.3199 0.3392
H24 H 0.4557 1.2965 0.4094
H25 H 0.4131 1.5323 0.4154
H26 H 0.3432 1.4603 0.4033
H27 H 0.4093 1.5116 0.5254
H28 H 0.4704 1.4153 0.5273
H29 H 0.3424 1.2949 0.5020
H30 H 0.4115 1.2709 0.5736
H31 H 0.4592 0.9422 0.5726
H32 H 0.4728 0.7541 0.6608
H33 H 0.4327 0.5526 0.7005
H34 H 0.2521 0.5818 0.5222
H35 H 0.2909 0.7909 0.4856
H36 H 0.3070 0.9758 0.3283
H37 H 0.4658 0.8214 0.3550
H38 H 0.4804 0.6143 0.2968
H39 H 0.2773 0.5641 0.1860
H40 H 0.2637 0.7652 0.2484
loop_
_geom_bond_atom_site_label_1
_geom_bond_atom_site_label_2
_geom_bond_site_symmetry_1
_geom_bond_site_symmetry_2
C1 C2 1_555 1_555
C2 C3 1_555 1_555
C3 C4 1_555 1_555
C4 C5 1_555 1_555
C5 C6 1_555 1_555
C6 C1 1_555 1_555
N1 C1 1_555 1_555
C7 N1 1_555 1_555
C8 C7 1_555 1_555
C9 C8 1_555 1_555
C10 C9 1_555 1_555
C11 C10 1_555 1_555
C12 C11 1_555 1_555
C13 C8 1_555 1_555
N2 C11 1_555 1_555
O1 N2 1_555 1_555
O2 N2 1_555 1_555
N3 C2 1_555 1_555
C14 N3 1_555 1_555
C15 C14 1_555 1_555
C16 C15 1_555 1_555
C17 C16 1_555 1_555
C18 C17 1_555 1_555
C19 C18 1_555 1_555
C20 C15 1_555 1_555
N4 C18 1_555 1_555
O3 N4 1_555 1_555
O4 N4 1_555 1_555
C21 C22 1_555 1_555
C22 C23 1_555 1_555
C23 C24 1_555 1_555
C24 C25 1_555 1_555
C25 C26 1_555 1_555
C26 C21 1_555 1_555
N5 C21 1_555 1_555
C27 N5 1_555 1_555
C28 C27 1_555 1_555
C29 C28 1_555 1_555
C30 C29 1_555 1_555
C31 C30 1_555 1_555
C32 C31 1_555 1_555
C33 C28 1_555 1_555
N6 C31 1_555 1_555
O5 N6 1_555 1_555
O6 N6 1_555 1_555
N7 C22 1_555 1_555
C34 N7 1_555 1_555
C35 C34 1_555 1_555
C36 C35 1_555 1_555
C37 C36 1_555 1_555
C38 C37 1_555 1_555
C39 C38 1_555 1_555
C40 C35 1_555 1_555
N8 C38 1_555 1_555
O7 N8 1_555 1_555
O8 N8 1_555 1_555
H1 C1 1_555 1_555
H2 C2 1_555 1_555
H3 C3 1_555 1_555
H4 C3 1_555 1_555
H5 C4 1_555 1_555
H6 C4 1_555 1_555
H7 C5 1_555 1_555
H8 C5 1_555 1_555
H9 C6 1_555 1_555
H10 C6 1_555 1_555
H11 C7 1_555 1_555
H12 C9 1_555 1_555
H13 C10 1_555 1_555
H14 C12 1_555 1_555
H15 C13 1_555 1_555
H16 C14 1_555 1_555
H17 C16 1_555 1_555
H18 C17 1_555 1_555
H19 C19 1_555 1_555
H20 C20 1_555 1_555
H21 C21 1_555 1_555
H22 C22 1_555 1_555
H23 C23 1_555 1_555
H24 C23 1_555 1_555
H25 C24 1_555 1_555
H26 C24 1_555 1_555
H27 C25 1_555 1_555
H28 C25 1_555 1_555
H29 C26 1_555 1_555
H30 C26 1_555 1_555
H31 C27 1_555 1_555
H32 C29 1_555 1_555
H33 C30 1_555 1_555
H34 C32 1_555 1_555
H35 C33 1_555 1_555
H36 C34 1_555 1_555
H37 C36 1_555 1_555
H38 C37 1_555 1_555
H39 C39 1_555 1_555
H40 C40 1_555 1_555
C12 C13 1_555 1_555
C19 C20 1_555 1_555
C32 C33 1_555 1_555
C39 C40 1_555 1_555

#END
