
#######################################################################
#
#                 Cambridge Crystallographic Data Centre
#                                CCDC 
#
#######################################################################
#
# If this CIF has been generated from an entry in the Cambridge 
# Structural Database, then it will include bibliographic, chemical, 
# crystal, experimental, refinement or atomic coordinate data resulting 
# from the CCDC's data processing and validation procedures.
#
#######################################################################

data_KATNIF
_chemical_compound_source        
'South China Sea marine sponge Hippospongia lachne'
_chemical_name_common            'Hipposponlachnins A'
_chemical_formula_moiety         'C20 H32 O3'
_chemical_name_systematic        
4-hydroxy-3-(2-hydroxypropan-2-yl)-5a,8,8c-trimethyldodecahydrocyclopenta[3,4]cyclobuta[1,2-e]inden-6(1H)-one
_chemical_properties_biological  
'potent inhibitory activity on the release of  -hexosaminidase, a biomarker for degranulation, as well as the production of pro-inflammatory cytokine IL-4 and lipid mediator LTB4 in DNP-IgE-stimulated RBL-2H3 cells'
_symmetry_cell_setting           orthorhombic
_symmetry_space_group_name_H-M   'P 21 21 21'
_symmetry_Int_Tables_number      19
_space_group_name_Hall           'P 2ac 2ab'
loop_
_symmetry_equiv_pos_site_id
_symmetry_equiv_pos_as_xyz
1 x,y,z
2 1/2+x,1/2-y,-z
3 -x,1/2+y,1/2-z
4 1/2-x,-y,1/2+z
_cell_length_a                   6.62210(10)
_cell_length_b                   15.2395(3)
_cell_length_c                   18.4069(3)
_cell_angle_alpha                90
_cell_angle_beta                 90
_cell_angle_gamma                90
_cell_volume                     1857.58
_exptl_crystal_colour            colorless
_exptl_crystal_description       block
_cell_formula_units_Z            4
loop_
_atom_site_label
_atom_site_type_symbol
_atom_site_fract_x
_atom_site_fract_y
_atom_site_fract_z
O1 O 0.0568(4) 0.14315(13) 0.56482(10)
O2 O 0.0131(2) 0.20073(8) 0.93515(7)
H1 H 0.0481 0.2298 0.9718
O3 O 0.1108(2) 0.32105(8) 1.03307(8)
H2 H 0.2281 0.3140 1.0495
C1 C 0.2838(3) 0.34266(12) 0.79515(11)
C2 C 0.2075(3) 0.29586(12) 0.72755(10)
H3 H 0.3112 0.3015 0.6883
C3 C -0.0034(3) 0.31506(12) 0.69481(10)
H4 H -0.1035 0.3358 0.7317
C4 C -0.0151(4) 0.36575(14) 0.62317(11)
H5 H 0.0696 0.4200 0.6258
C5 C 0.0739(4) 0.30130(16) 0.56755(11)
H6 H 0.0053 0.3076 0.5200
H7 H 0.2200 0.3123 0.5608
C6 C 0.0390(4) 0.21024(16) 0.59847(12)
C7 C -0.0222(3) 0.21574(14) 0.67774(11)
H8 H -0.1567 0.1894 0.6893
C8 C 0.1468(3) 0.19679(12) 0.73509(11)
C9 C 0.0456(3) 0.17828(12) 0.80937(11)
H9 H -0.0974 0.1968 0.8064
H10 H 0.0468 0.1141 0.8177
C10 C 0.1406(3) 0.22271(12) 0.87533(10)
H11 H 0.2794 0.1988 0.8837
C11 C 0.1516(3) 0.32135(12) 0.86170(10)
H12 H 0.0115 0.3409 0.8495
C12 C 0.2314(3) 0.38525(12) 0.91986(10)
H13 H 0.3662 0.3628 0.9359
C13 C 0.2701(4) 0.47046(13) 0.87483(11)
H14 H 0.1634 0.5144 0.8847
H15 H 0.4024 0.4963 0.8878
C14 C 0.2673(3) 0.44329(13) 0.79362(11)
H16 H 0.1401 0.4620 0.7700
H17 H 0.3827 0.4695 0.7672
C15 C 0.5068(3) 0.31659(17) 0.80637(12)
H18 H 0.5150 0.2540 0.8182
H19 H 0.5642 0.3511 0.8463
H20 H 0.5829 0.3281 0.7617
C16 C -0.2335(5) 0.3894(2) 0.60581(15)
H21 H -0.3163 0.3361 0.6062
H22 H -0.2402 0.4168 0.5577
H23 H -0.2843 0.4306 0.6424
C17 C 0.3047(4) 0.12764(16) 0.71678(16)
H24 H 0.4034 0.1240 0.7563
H25 H 0.3736 0.1438 0.6716
H26 H 0.2386 0.0706 0.7106
C18 C 0.1047(3) 0.40021(12) 0.98879(10)
C19 C 0.1941(3) 0.47454(13) 1.03411(12)
H27 H 0.1296 0.4754 1.0820
H28 H 0.1704 0.5307 1.0096
H29 H 0.3396 0.4653 1.0399
C20 C -0.1183(3) 0.41650(13) 0.97374(12)
H30 H -0.1768 0.3648 0.9500
H31 H -0.1328 0.4676 0.9419
H32 H -0.1889 0.4275 1.0196
loop_
_geom_bond_atom_site_label_1
_geom_bond_atom_site_label_2
_geom_bond_site_symmetry_1
_geom_bond_site_symmetry_2
O1 C6 1_555 1_555
O2 H1 1_555 1_555
O3 H2 1_555 1_555
C1 C2 1_555 1_555
C2 H3 1_555 1_555
C3 C2 1_555 1_555
H4 C3 1_555 1_555
C4 C3 1_555 1_555
H5 C4 1_555 1_555
C5 C4 1_555 1_555
H6 C5 1_555 1_555
H7 C5 1_555 1_555
C6 C5 1_555 1_555
C7 C3 1_555 1_555
H8 C7 1_555 1_555
C8 C2 1_555 1_555
C9 C8 1_555 1_555
H9 C9 1_555 1_555
H10 C9 1_555 1_555
C10 O2 1_555 1_555
H11 C10 1_555 1_555
C11 C1 1_555 1_555
H12 C11 1_555 1_555
C12 C11 1_555 1_555
H13 C12 1_555 1_555
C13 C12 1_555 1_555
H14 C13 1_555 1_555
H15 C13 1_555 1_555
C14 C1 1_555 1_555
H16 C14 1_555 1_555
H17 C14 1_555 1_555
C15 C1 1_555 1_555
H18 C15 1_555 1_555
H19 C15 1_555 1_555
H20 C15 1_555 1_555
C16 C4 1_555 1_555
H21 C16 1_555 1_555
H22 C16 1_555 1_555
H23 C16 1_555 1_555
C17 C8 1_555 1_555
H24 C17 1_555 1_555
H25 C17 1_555 1_555
H26 C17 1_555 1_555
C18 O3 1_555 1_555
C19 C18 1_555 1_555
H27 C19 1_555 1_555
H28 C19 1_555 1_555
H29 C19 1_555 1_555
C20 C18 1_555 1_555
H30 C20 1_555 1_555
H31 C20 1_555 1_555
H32 C20 1_555 1_555
C6 C7 1_555 1_555
C7 C8 1_555 1_555
C9 C10 1_555 1_555
C10 C11 1_555 1_555
C12 C18 1_555 1_555
C13 C14 1_555 1_555

#END
