
#######################################################################
#
#                 Cambridge Crystallographic Data Centre
#                                CCDC 
#
#######################################################################
#
# If this CIF has been generated from an entry in the Cambridge 
# Structural Database, then it will include bibliographic, chemical, 
# crystal, experimental, refinement or atomic coordinate data resulting 
# from the CCDC's data processing and validation procedures.
#
#######################################################################

data_KATNID
_chemical_formula_moiety         'C14 H12 N2 O2'
_chemical_name_systematic        N-(3-Nitrobenzylidene)-p-toluidine
_symmetry_cell_setting           orthorhombic
_symmetry_space_group_name_H-M   'P c a 21'
_symmetry_Int_Tables_number      29
_space_group_name_Hall           'P 2c -2ac'
loop_
_symmetry_equiv_pos_site_id
_symmetry_equiv_pos_as_xyz
1 x,y,z
2 -x,-y,1/2+z
3 1/2+x,-y,z
4 1/2-x,y,1/2+z
_cell_length_a                   13.413(2)
_cell_length_b                   13.115(2)
_cell_length_c                   7.1040(10)
_cell_angle_alpha                90
_cell_angle_beta                 90
_cell_angle_gamma                90
_cell_volume                     1249.68
_exptl_crystal_colour            white-yellow
_exptl_crystal_description       granular
_chemical_melting_point          '368-369 K'
_cell_formula_units_Z            4
_exptl_crystal_recrystallization_method '85% ethanol'
loop_
_atom_site_label
_atom_site_type_symbol
_atom_site_fract_x
_atom_site_fract_y
_atom_site_fract_z
O1 O 0.77127(13) -0.27624(12) 0.2682(4)
O2 O 0.88585(12) -0.17832(12) 0.3707(3)
N1 N 0.81445(12) 0.18752(12) 0.4738(3)
N2 N 0.79924(14) -0.19580(14) 0.3337(3)
C1 C 0.9508(2) 0.59089(16) 0.6447(5)
H1 H 1.0200 0.5960 0.6111
H2 H 0.9434 0.6029 0.7773
H3 H 0.9132 0.6407 0.5758
C2 C 0.91301(18) 0.48545(16) 0.5975(4)
C3 C 0.82443(18) 0.47073(16) 0.5014(4)
H4 H 0.7872 0.5272 0.4649
C4 C 0.79013(16) 0.37472(14) 0.4585(4)
H5 H 0.7305 0.3670 0.3931
C5 C 0.84409(15) 0.28933(15) 0.5123(3)
C6 C 0.93294(15) 0.30283(16) 0.6048(4)
H6 H 0.9708 0.2464 0.6389
C7 C 0.96659(17) 0.39984(15) 0.6479(4)
H7 H 1.0266 0.4075 0.7120
C8 C 0.72335(15) 0.16318(16) 0.4758(4)
H8 H 0.6759 0.2128 0.5030
C9 C 0.69046(14) 0.05874(15) 0.4363(3)
C10 C 0.58959(15) 0.03421(18) 0.4323(5)
H9 H 0.5424 0.0847 0.4545
C11 C 0.55881(17) -0.06425(19) 0.3958(5)
H10 H 0.4911 -0.0794 0.3934
C12 C 0.62642(17) -0.13928(18) 0.3632(4)
H11 H 0.6057 -0.2056 0.3383
C13 C 0.72580(14) -0.11518(14) 0.3680(3)
C14 C 0.75947(16) -0.01843(13) 0.4046(3)
H12 H 0.8275 -0.0047 0.4082
loop_
_geom_bond_atom_site_label_1
_geom_bond_atom_site_label_2
_geom_bond_site_symmetry_1
_geom_bond_site_symmetry_2
O1 N2 1_555 1_555
O2 N2 1_555 1_555
N1 C5 1_555 1_555
N2 C13 1_555 1_555
C1 H1 1_555 1_555
H2 C1 1_555 1_555
H3 C1 1_555 1_555
C2 C1 1_555 1_555
C3 C2 1_555 1_555
H4 C3 1_555 1_555
C4 C3 1_555 1_555
H5 C4 1_555 1_555
C5 C4 1_555 1_555
C6 C5 1_555 1_555
H6 C6 1_555 1_555
C7 C2 1_555 1_555
H7 C7 1_555 1_555
C8 N1 1_555 1_555
H8 C8 1_555 1_555
C9 C8 1_555 1_555
C10 C9 1_555 1_555
H9 C10 1_555 1_555
C11 C10 1_555 1_555
H10 C11 1_555 1_555
C12 C11 1_555 1_555
H11 C12 1_555 1_555
C13 C12 1_555 1_555
C14 C9 1_555 1_555
H12 C14 1_555 1_555
C6 C7 1_555 1_555
C13 C14 1_555 1_555

#END
