
#######################################################################
#
#                 Cambridge Crystallographic Data Centre
#                                CCDC 
#
#######################################################################
#
# If this CIF has been generated from an entry in the Cambridge 
# Structural Database, then it will include bibliographic, chemical, 
# crystal, experimental, refinement or atomic coordinate data resulting 
# from the CCDC's data processing and validation procedures.
#
#######################################################################

data_KATRIJ
_chemical_name_common            
"N,N'-((1R,2R)-cyclohexane-1,2-diyl)bis(pyridine-3-sulfonamide) dichloromethane solvate"
_chemical_formula_moiety         'C16 H20 N4 O4 S2,0.5(C1 H2 Cl2)'
_chemical_name_systematic        
'N-(2-((pyridin-3-ylsulfonyl)amino)cyclohexyl)pyridine-3-sulfonamide dichloromethane solvate'
_symmetry_cell_setting           monoclinic
_symmetry_space_group_name_H-M   'C 2'
_symmetry_Int_Tables_number      5
_space_group_name_Hall           'C 2y'
loop_
_symmetry_equiv_pos_site_id
_symmetry_equiv_pos_as_xyz
1 x,y,z
2 -x,y,-z
3 1/2+x,1/2+y,z
4 1/2-x,1/2+y,-z
_cell_length_a                   16.294(2)
_cell_length_b                   8.7028(12)
_cell_length_c                   14.4268(19)
_cell_angle_alpha                90
_cell_angle_beta                 97.723(4)
_cell_angle_gamma                90
_cell_volume                     2027.21
_exptl_crystal_colour            colorless
_exptl_crystal_description       Block
_cell_formula_units_Z            4
loop_
_atom_site_label
_atom_site_type_symbol
_atom_site_fract_x
_atom_site_fract_y
_atom_site_fract_z
S1 S 0.38891(6) 0.45762(10) 0.32586(6)
S2 S 0.60584(6) 0.46955(11) 0.17889(6)
O1 O 0.46228(17) 0.4035(3) 0.38227(19)
O2 O 0.33642(18) 0.3502(3) 0.26988(19)
O3 O 0.66316(18) 0.3597(3) 0.22507(19)
O4 O 0.52934(17) 0.4160(3) 0.12846(19)
N1 N 0.4101(2) 0.5899(4) 0.2573(2)
H1 H 0.380(3) 0.604(7) 0.202(3)
N2 N 0.5894(2) 0.5937(4) 0.2560(2)
H2 H 0.626(2) 0.595(5) 0.306(2)
N3 N 0.3105(2) 0.5964(4) 0.5641(2)
N4 N 0.6660(2) 0.6299(5) -0.0639(2)
C1 C 0.3281(2) 0.5430(4) 0.4057(3)
C2 C 0.2526(3) 0.6092(5) 0.3737(3)
H3 H 0.2333 0.6142 0.3086
C3 C 0.2054(3) 0.6681(5) 0.4386(3)
H4 H 0.1532 0.7146 0.4191
C4 C 0.2365(3) 0.6574(5) 0.5326(3)
H5 H 0.2036 0.6953 0.5771
C5 C 0.3554(3) 0.5396(4) 0.5012(3)
H6 H 0.4079 0.4953 0.5224
C6 C 0.4621(3) 0.7215(5) 0.2901(3)
H7 H 0.4823 0.7059 0.3580
C7 C 0.4111(3) 0.8697(5) 0.2802(3)
H8 H 0.3868 0.8829 0.2140
H9 H 0.3651 0.8615 0.3182
C8 C 0.4637(3) 1.0097(5) 0.3116(3)
H10 H 0.4843 1.0013 0.3792
H11 H 0.4295 1.1038 0.3018
C9 C 0.5366(3) 1.0203(5) 0.2560(3)
H12 H 0.5715 1.1094 0.2784
H13 H 0.5156 1.0373 0.1892
C10 C 0.5892(3) 0.8743(5) 0.2658(3)
H14 H 0.6154 0.8639 0.3315
H15 H 0.6339 0.8832 0.2260
C11 C 0.5378(3) 0.7307(5) 0.2377(3)
H16 H 0.5180 0.7360 0.1691
C12 C 0.6570(3) 0.5694(5) 0.0963(3)
C13 C 0.7281(3) 0.6530(5) 0.1253(3)
H17 H 0.7496 0.6598 0.1897
C14 C 0.7668(3) 0.7261(6) 0.0583(3)
H18 H 0.8151 0.7861 0.0758
C15 C 0.7343(3) 0.7109(6) -0.0348(3)
H19 H 0.7619 0.7606 -0.0804
C16 C 0.6277(3) 0.5611(5) 0.0013(3)
H20 H 0.5786 0.5043 -0.0180
Cl1 Cl 0.41170(10) -0.0166(3) -0.01072(12)
C17 C 0.5000 0.1022(9) 0.0000
H21 H 0.5013 0.1687 0.0558
H21A H 0.4987 0.1687 -0.0558
Cl1A Cl 0.58830(10) -0.0166(3) 0.01072(12)
H22? H 0.5013 0.1687 0.0558
loop_
_geom_bond_atom_site_label_1
_geom_bond_atom_site_label_2
_geom_bond_site_symmetry_1
_geom_bond_site_symmetry_2
S1 O1 1_555 1_555
S2 O3 1_555 1_555
O2 S1 1_555 1_555
O4 S2 1_555 1_555
N1 S1 1_555 1_555
H1 N1 1_555 1_555
N2 S2 1_555 1_555
H2 N2 1_555 1_555
N3 C4 1_555 1_555
N4 C15 1_555 1_555
C1 S1 1_555 1_555
C2 C1 1_555 1_555
H3 C2 1_555 1_555
C3 C2 1_555 1_555
H4 C3 1_555 1_555
C4 C3 1_555 1_555
H5 C4 1_555 1_555
C5 N3 1_555 1_555
H6 C5 1_555 1_555
C6 N1 1_555 1_555
H7 C6 1_555 1_555
C7 C6 1_555 1_555
H8 C7 1_555 1_555
H9 C7 1_555 1_555
C8 C7 1_555 1_555
H10 C8 1_555 1_555
H11 C8 1_555 1_555
C9 C8 1_555 1_555
H12 C9 1_555 1_555
H13 C9 1_555 1_555
C10 C9 1_555 1_555
H14 C10 1_555 1_555
H15 C10 1_555 1_555
C11 N2 1_555 1_555
H16 C11 1_555 1_555
C12 S2 1_555 1_555
C13 C12 1_555 1_555
H17 C13 1_555 1_555
C14 C13 1_555 1_555
H18 C14 1_555 1_555
C15 C14 1_555 1_555
H19 C15 1_555 1_555
C16 N4 1_555 1_555
H20 C16 1_555 1_555
Cl1 C17 1_555 1_555
C17 H21 1_555 1_555
H21A C17 1_555 1_555
Cl1A C17 1_555 1_555
C1 C5 1_555 1_555
C6 C11 1_555 1_555
C10 C11 1_555 1_555
C12 C16 1_555 1_555

#END
