
#######################################################################
#
#                 Cambridge Crystallographic Data Centre
#                                CCDC 
#
#######################################################################
#
# If this CIF has been generated from an entry in the Cambridge 
# Structural Database, then it will include bibliographic, chemical, 
# crystal, experimental, refinement or atomic coordinate data resulting 
# from the CCDC's data processing and validation procedures.
#
#######################################################################

data_KATWAG
_chemical_formula_moiety         'C29 H22 N2 O1'
_chemical_name_systematic        2-((tritylimino)methyl)quinolin-8-ol
_symmetry_cell_setting           triclinic
_symmetry_space_group_name_H-M   'P -1'
_symmetry_Int_Tables_number      2
_space_group_name_Hall           '-P 1'
loop_
_symmetry_equiv_pos_site_id
_symmetry_equiv_pos_as_xyz
1 x,y,z
2 -x,-y,-z
_cell_length_a                   8.7035(10)
_cell_length_b                   13.7761(15)
_cell_length_c                   19.407(2)
_cell_angle_alpha                74.321(2)
_cell_angle_beta                 86.407(2)
_cell_angle_gamma                83.216(2)
_cell_volume                     2223.49
_exptl_crystal_colour            orange
_exptl_crystal_description       bulk
_cell_formula_units_Z            4
loop_
_atom_site_label
_atom_site_type_symbol
_atom_site_fract_x
_atom_site_fract_y
_atom_site_fract_z
C1 C 0.7893(2) 0.59553(14) 1.19001(10)
C2 C 0.6322(2) 0.88252(14) 0.87996(9)
C3 C 0.7426(2) 0.72715(14) 1.00165(10)
H1 H 0.6601 0.7754 1.0047
C4 C 0.8060(2) 0.65535(14) 1.06732(10)
C5 C 0.6629(2) 0.72060(14) 0.83870(10)
C6 C 0.7433(2) 0.78968(13) 0.87309(9)
C7 C 0.8878(2) 0.82562(14) 0.82799(9)
C8 C 0.7141(3) 0.60523(16) 1.25482(11)
C9 C 0.9144(3) 0.52109(15) 1.19162(11)
C10 C 0.7621(3) 0.54225(18) 1.31867(11)
H2 H 0.7126 0.5491 1.3612
C11 C 0.9347(3) 0.58459(15) 1.06387(11)
H3 H 0.9825 0.5828 1.0199
C12 C 0.4881(2) 0.90557(16) 0.85083(11)
H4 H 0.4505 0.8599 0.8302
C13 C 0.6829(2) 0.95142(15) 0.91232(11)
H5 H 0.7795 0.9375 0.9329
C14 C 1.0267(3) 0.76287(17) 0.83375(11)
H6 H 1.0328 0.6989 0.8659
C15 C 0.8859(3) 0.92026(16) 0.77949(11)
H7 H 0.7952 0.9642 0.7740
C16 C 0.5764(3) 0.64666(16) 0.88002(12)
H8 H 0.5702 0.6361 0.9295
C17 C 0.9886(3) 0.51880(16) 1.12521(12)
H9 H 1.0744 0.4723 1.1235
C18 C 0.3977(3) 0.99495(17) 0.85147(12)
H10 H 0.3015 1.0094 0.8305
C19 C 0.6705(3) 0.73273(18) 0.76568(11)
H11 H 0.7283 0.7817 0.7366
C20 C 0.5920(3) 1.04004(16) 0.91428(12)
H12 H 0.6269 1.0846 0.9368
C21 C 0.4499(3) 1.06254(17) 0.88307(12)
H13 H 0.3897 1.1229 0.8833
C22 C 0.9618(3) 0.45618(18) 1.25860(12)
H14 H 1.0443 0.4061 1.2607
C23 C 1.1549(3) 0.7943(2) 0.79255(13)
H15 H 1.2462 0.7509 0.7968
C24 C 0.5076(3) 0.60189(19) 0.77636(15)
H16 H 0.4551 0.5627 0.7554
C25 C 1.1506(3) 0.8877(2) 0.74569(13)
H17 H 1.2386 0.9083 0.7185
C26 C 0.5939(3) 0.6737(2) 0.73505(14)
H18 H 0.6012 0.6829 0.6857
C27 C 0.8854(3) 0.4677(2) 1.31993(13)
H19 H 0.9165 0.4247 1.3637
C28 C 1.0181(3) 0.9505(2) 0.73888(12)
H20 H 1.0148 1.0144 0.7068
C29 C 0.4988(3) 0.58800(18) 0.84878(15)
H21 H 0.4405 0.5389 0.8773
N1 N 0.80139(18) 0.72242(12) 0.94133(8)
N2 N 0.73437(19) 0.66170(12) 1.12831(8)
O1 O 0.5936(2) 0.67896(14) 1.25280(8)
H22 H 0.5706 0.7057 1.2111
C30 C 0.9965(2) 0.75517(14) 0.25961(10)
C31 C 1.0705(2) 0.78515(14) 0.14027(10)
C32 C 0.8898(2) 0.78281(15) 0.31474(10)
H23 H 0.8152 0.8380 0.3015
C33 C 1.0403(2) 0.84041(16) 0.06859(10)
C34 C 0.8001(2) 0.76219(15) 0.43779(9)
C35 C 0.7298(2) 0.66597(15) 0.48298(9)
C36 C 0.6688(2) 0.84722(15) 0.41049(9)
C37 C 1.1965(2) 0.70926(15) 0.15357(11)
C38 C 0.9130(2) 0.79145(14) 0.48517(10)
C39 C 1.1192(3) 0.67751(16) 0.27781(11)
H24 H 1.1321 0.6411 0.3253
C40 C 1.1314(3) 0.82079(19) 0.01336(11)
H25 H 1.1103 0.8572 -0.0335
C41 C 0.8106(3) 0.57099(16) 0.49003(11)
H26 H 0.9035 0.5646 0.4644
C42 C 1.2561(3) 0.74633(19) 0.02713(13)
H27 H 1.3174 0.7332 -0.0110
C43 C 0.5923(3) 0.67254(17) 0.52209(11)
H28 H 0.5357 0.7355 0.5176
C44 C 0.6563(3) 0.94011(16) 0.42572(11)
H29 H 0.7315 0.9539 0.4527
C45 C 0.5552(3) 0.82973(18) 0.36896(11)
H30 H 0.5605 0.7678 0.3579
C46 C 1.2909(3) 0.69208(18) 0.09503(13)
H31 H 1.3766 0.6438 0.1030
C47 C 1.2186(3) 0.65578(17) 0.22594(12)
H32 H 1.3012 0.6057 0.2381
C48 C 0.7534(3) 0.48542(18) 0.53513(12)
H33 H 0.8076 0.4220 0.5388
C49 C 0.5374(3) 0.58693(19) 0.56784(12)
H34 H 0.4455 0.5931 0.5942
C50 C 0.8771(3) 0.7856(2) 0.55651(11)
H35 H 0.7830 0.7636 0.5763
C51 C 1.0536(3) 0.8233(2) 0.45885(12)
H36 H 1.0819 0.8277 0.4112
C52 C 0.6175(3) 0.4934(2) 0.57443(12)
H37 H 0.5805 0.4360 0.6051
C53 C 1.1157(3) 0.8429(2) 0.57208(13)
H38 H 1.1835 0.8601 0.6010
C54 C 0.4237(3) 0.9939(2) 0.36119(14)
H39 H 0.3411 1.0426 0.3454
C55 C 0.5349(3) 1.01279(19) 0.40176(14)
H40 H 0.5281 1.0747 0.4130
C56 C 0.9777(3) 0.8116(2) 0.59894(12)
H41 H 0.9503 0.8076 0.6466
C57 C 0.4350(3) 0.9032(2) 0.34415(12)
H42 H 0.3612 0.8911 0.3157
C58 C 1.1542(3) 0.8488(2) 0.50197(14)
H43 H 1.2490 0.8703 0.4829
N3 N 0.89763(19) 0.73305(12) 0.37972(8)
N4 N 0.97235(18) 0.80810(12) 0.19259(8)
O2 O 0.9167(2) 0.91222(14) 0.05635(8)
H44 H 0.8697 0.9123 0.0943
loop_
_geom_bond_atom_site_label_1
_geom_bond_atom_site_label_2
_geom_bond_site_symmetry_1
_geom_bond_site_symmetry_2
C1 C8 1_555 1_555
C2 C6 1_555 1_555
C3 H1 1_555 1_555
C4 C3 1_555 1_555
C5 C6 1_555 1_555
C6 C7 1_555 1_555
C7 C14 1_555 1_555
C8 C10 1_555 1_555
C9 C1 1_555 1_555
C10 H2 1_555 1_555
C11 C4 1_555 1_555
H3 C11 1_555 1_555
C12 C2 1_555 1_555
H4 C12 1_555 1_555
C13 C2 1_555 1_555
H5 C13 1_555 1_555
C14 H6 1_555 1_555
C15 C7 1_555 1_555
H7 C15 1_555 1_555
C16 C5 1_555 1_555
H8 C16 1_555 1_555
C17 C9 1_555 1_555
H9 C17 1_555 1_555
C18 C12 1_555 1_555
H10 C18 1_555 1_555
C19 C5 1_555 1_555
H11 C19 1_555 1_555
C20 C13 1_555 1_555
H12 C20 1_555 1_555
C21 C18 1_555 1_555
H13 C21 1_555 1_555
C22 C9 1_555 1_555
H14 C22 1_555 1_555
C23 C14 1_555 1_555
H15 C23 1_555 1_555
C24 H16 1_555 1_555
C25 C23 1_555 1_555
H17 C25 1_555 1_555
C26 C19 1_555 1_555
H18 C26 1_555 1_555
C27 C10 1_555 1_555
H19 C27 1_555 1_555
C28 C15 1_555 1_555
H20 C28 1_555 1_555
C29 C16 1_555 1_555
H21 C29 1_555 1_555
N1 C3 1_555 1_555
N2 C1 1_555 1_555
O1 C8 1_555 1_555
H22 O1 1_555 1_555
C30 C32 1_555 1_555
C31 C33 1_555 1_555
C32 H23 1_555 1_555
C33 C40 1_555 1_555
C34 C35 1_555 1_555
C35 C41 1_555 1_555
C36 C34 1_555 1_555
C37 C31 1_555 1_555
C38 C34 1_555 1_555
C39 C30 1_555 1_555
H24 C39 1_555 1_555
C40 H25 1_555 1_555
C41 H26 1_555 1_555
C42 C40 1_555 1_555
H27 C42 1_555 1_555
C43 C35 1_555 1_555
H28 C43 1_555 1_555
C44 C36 1_555 1_555
H29 C44 1_555 1_555
C45 C36 1_555 1_555
H30 C45 1_555 1_555
C46 C37 1_555 1_555
H31 C46 1_555 1_555
C47 C37 1_555 1_555
H32 C47 1_555 1_555
C48 C41 1_555 1_555
H33 C48 1_555 1_555
C49 C43 1_555 1_555
H34 C49 1_555 1_555
C50 C38 1_555 1_555
H35 C50 1_555 1_555
C51 C38 1_555 1_555
H36 C51 1_555 1_555
C52 C48 1_555 1_555
H37 C52 1_555 1_555
C53 H38 1_555 1_555
C54 H39 1_555 1_555
C55 C44 1_555 1_555
H40 C55 1_555 1_555
C56 C50 1_555 1_555
H41 C56 1_555 1_555
C57 C45 1_555 1_555
H42 C57 1_555 1_555
C58 C51 1_555 1_555
H43 C58 1_555 1_555
N3 C32 1_555 1_555
N4 C30 1_555 1_555
O2 C33 1_555 1_555
H44 O2 1_555 1_555
C4 N2 1_555 1_555
C6 N1 1_555 1_555
C11 C17 1_555 1_555
C20 C21 1_555 1_555
C22 C27 1_555 1_555
C24 C26 1_555 1_555
C24 C29 1_555 1_555
C25 C28 1_555 1_555
C31 N4 1_555 1_555
C34 N3 1_555 1_555
C39 C47 1_555 1_555
C42 C46 1_555 1_555
C49 C52 1_555 1_555
C53 C56 1_555 1_555
C53 C58 1_555 1_555
C54 C55 1_555 1_555
C54 C57 1_555 1_555

#END
