
#######################################################################
#
#                 Cambridge Crystallographic Data Centre
#                                CCDC 
#
#######################################################################
#
# If this CIF has been generated from an entry in the Cambridge 
# Structural Database, then it will include bibliographic, chemical, 
# crystal, experimental, refinement or atomic coordinate data resulting 
# from the CCDC's data processing and validation procedures.
#
#######################################################################

data_KATXEK
_chemical_formula_moiety         'C30 H40 O4,H2 O1'
_chemical_name_systematic        
'21-(4-methoxyphenyl)-21-oxopregn-17-en-3-yl acetate monohydrate'
_symmetry_cell_setting           monoclinic
_symmetry_space_group_name_H-M   'C 2'
_symmetry_Int_Tables_number      5
_space_group_name_Hall           'C 2y'
loop_
_symmetry_equiv_pos_site_id
_symmetry_equiv_pos_as_xyz
1 x,y,z
2 -x,y,-z
3 1/2+x,1/2+y,z
4 1/2-x,1/2+y,-z
_cell_length_a                   20.64(2)
_cell_length_b                   6.619(7)
_cell_length_c                   21.56(2)
_cell_angle_alpha                90
_cell_angle_beta                 103.343(12)
_cell_angle_gamma                90
_cell_volume                     2865.93
_cell_formula_units_Z            4
loop_
_atom_site_label
_atom_site_type_symbol
_atom_site_fract_x
_atom_site_fract_y
_atom_site_fract_z
C1 C 0.4077(5) 0.727(3) -0.2666(7)
C2 C 0.3880(6) 0.534(3) -0.2789(6)
H1 H 0.3838 0.4806 -0.3195
C3 C 0.3745(4) 0.4174(17) -0.2312(5)
H2 H 0.3598 0.2860 -0.2410
C4 C 0.3814(4) 0.4824(13) -0.1693(4)
C5 C 0.4018(4) 0.6814(14) -0.1541(5)
H3 H 0.4060 0.7319 -0.1131
C6 C 0.4159(4) 0.8038(16) -0.2037(8)
H4 H 0.4306 0.9357 -0.1949
C7 C 0.3655(3) 0.3438(13) -0.1223(4)
C8 C 0.3879(3) 0.3860(11) -0.0541(4)
H5 H 0.4162 0.4955 -0.0421
C9 C 0.3709(3) 0.2808(9) -0.0085(4)
C10 C 0.3207(4) 0.1069(12) -0.0147(4)
H6 H 0.2802 0.1406 -0.0459
H7 H 0.3392 -0.0152 -0.0285
C11 C 0.3056(4) 0.0743(11) 0.0505(4)
H8 H 0.3288 -0.0432 0.0715
H9 H 0.2582 0.0572 0.0469
C12 C 0.3310(3) 0.2680(9) 0.0867(3)
H10 H 0.2982 0.3719 0.0687
C13 C 0.3933(3) 0.3204(10) 0.0625(3)
C14 C 0.4511(3) 0.1724(12) 0.0906(4)
H11 H 0.4910 0.2165 0.0790
H12 H 0.4397 0.0392 0.0741
H13 H 0.4583 0.1701 0.1362
C15 C 0.4144(3) 0.5345(10) 0.0825(3)
H14 H 0.3814 0.6281 0.0594
H15 H 0.4563 0.5637 0.0713
C16 C 0.4226(3) 0.5671(11) 0.1552(4)
H16 H 0.4613 0.4923 0.1779
H17 H 0.4309 0.7093 0.1648
C17 C 0.3617(3) 0.5005(9) 0.1800(3)
H18 H 0.3252 0.5891 0.1588
C18 C 0.3388(3) 0.2823(9) 0.1585(3)
H19 H 0.3734 0.1872 0.1793
C19 C 0.2747(3) 0.2286(12) 0.1766(4)
H20 H 0.2648 0.0872 0.1672
H21 H 0.2387 0.3082 0.1513
C20 C 0.2787(4) 0.2667(13) 0.2464(4)
H22 H 0.2353 0.2430 0.2550
H23 H 0.3095 0.1707 0.2714
C21 C 0.3009(3) 0.4766(11) 0.2673(3)
H24 H 0.2682 0.5655 0.2403
C22 C 0.2978(5) 0.5284(14) 0.3341(4)
H25 H 0.2529 0.5051 0.3390
H26 H 0.3273 0.4385 0.3632
C23 C 0.3168(5) 0.7402(15) 0.3520(4)
H27 H 0.2819 0.8301 0.3285
C24 C 0.3826(5) 0.8031(14) 0.3387(4)
H28 H 0.4186 0.7336 0.3677
H29 H 0.3889 0.9473 0.3457
C25 C 0.3845(5) 0.7530(11) 0.2704(4)
H30 H 0.4284 0.7850 0.2642
H31 H 0.3528 0.8388 0.2420
C26 C 0.3688(3) 0.5330(10) 0.2515(4)
C27 C 0.4261(4) 0.3996(13) 0.2903(4)
H32 H 0.4208 0.2633 0.2747
H33 H 0.4248 0.4016 0.3345
H34 H 0.4681 0.4516 0.2856
C28 C 0.2749(15) 0.818(3) 0.4415(6)
C29 C 0.2918(15) 0.862(5) 0.5136(7)
H35 H 0.2514 0.8842 0.5275
H36 H 0.3192 0.9809 0.5219
H37 H 0.3154 0.7495 0.5362
O1 O 0.4174(6) 0.828(3) -0.3272(7)
O2 O 0.3342(3) 0.1871(10) -0.1402(3)
O3 O 0.3239(5) 0.7727(14) 0.4196(3)
O4 O 0.2151(9) 0.831(3) 0.4068(8)
C30 C 0.4429(11) 0.995(3) -0.3017(12)
H38 H 0.4457 0.9919 -0.2566
H39 H 0.4152 1.1064 -0.3203
H40 H 0.4866 1.0123 -0.3092
O6 O 0.5524(12) 0.413(4) 0.4736(11)
O5? O 0.521(2) 0.189(8) 0.5244(9)
loop_
_geom_bond_atom_site_label_1
_geom_bond_atom_site_label_2
_geom_bond_site_symmetry_1
_geom_bond_site_symmetry_2
C1 C2 1_555 1_555
C2 H1 1_555 1_555
C3 C2 1_555 1_555
H2 C3 1_555 1_555
C4 C3 1_555 1_555
C5 C4 1_555 1_555
H3 C5 1_555 1_555
C6 C1 1_555 1_555
H4 C6 1_555 1_555
C7 C4 1_555 1_555
C8 C7 1_555 1_555
H5 C8 1_555 1_555
C9 C8 1_555 1_555
C10 C9 1_555 1_555
H6 C10 1_555 1_555
H7 C10 1_555 1_555
C11 C10 1_555 1_555
H8 C11 1_555 1_555
H9 C11 1_555 1_555
C12 C11 1_555 1_555
H10 C12 1_555 1_555
C13 C9 1_555 1_555
C14 C13 1_555 1_555
H11 C14 1_555 1_555
H12 C14 1_555 1_555
H13 C14 1_555 1_555
C15 C13 1_555 1_555
H14 C15 1_555 1_555
H15 C15 1_555 1_555
C16 C15 1_555 1_555
H16 C16 1_555 1_555
H17 C16 1_555 1_555
C17 C16 1_555 1_555
H18 C17 1_555 1_555
C18 C12 1_555 1_555
H19 C18 1_555 1_555
C19 C18 1_555 1_555
H20 C19 1_555 1_555
H21 C19 1_555 1_555
C20 C19 1_555 1_555
H22 C20 1_555 1_555
H23 C20 1_555 1_555
C21 C20 1_555 1_555
H24 C21 1_555 1_555
C22 C21 1_555 1_555
H25 C22 1_555 1_555
H26 C22 1_555 1_555
C23 C22 1_555 1_555
H27 C23 1_555 1_555
C24 C23 1_555 1_555
H28 C24 1_555 1_555
H29 C24 1_555 1_555
C25 C24 1_555 1_555
H30 C25 1_555 1_555
H31 C25 1_555 1_555
C26 C17 1_555 1_555
C27 C26 1_555 1_555
H32 C27 1_555 1_555
H33 C27 1_555 1_555
H34 C27 1_555 1_555
C28 C29 1_555 1_555
C29 H35 1_555 1_555
H36 C29 1_555 1_555
H37 C29 1_555 1_555
O1 C1 1_555 1_555
O2 C7 1_555 1_555
O3 C23 1_555 1_555
O4 C28 1_555 1_555
C30 O1 1_555 1_555
H38 C30 1_555 1_555
H39 C30 1_555 1_555
H40 C30 1_555 1_555
C5 C6 1_555 1_555
C12 C13 1_555 1_555
C17 C18 1_555 1_555
C21 C26 1_555 1_555
C25 C26 1_555 1_555
C28 O3 1_555 1_555

#END
