
#######################################################################
#
#                 Cambridge Crystallographic Data Centre
#                                CCDC 
#
#######################################################################
#
# If this CIF has been generated from an entry in the Cambridge 
# Structural Database, then it will include bibliographic, chemical, 
# crystal, experimental, refinement or atomic coordinate data resulting 
# from the CCDC's data processing and validation procedures.
#
#######################################################################

data_KATXAE10
_chemical_formula_moiety         
'C18 H48 N8 6+,3(F1 1-),Cl1 1-,2(F6 P1 1-),5(H2 O1)'
_chemical_name_systematic        
'4,7,13,16,21,24-Hexa-azonia-1,10-diazabicyclo(8.8.8)hexacosane fluoride clathrate chloride difluoride bis(hexafluorophosphate) pentahydrate'
_symmetry_cell_setting           triclinic
_symmetry_space_group_name_H-M   'P -1'
_symmetry_Int_Tables_number      2
_space_group_name_Hall           '-P 1'
loop_
_symmetry_equiv_pos_site_id
_symmetry_equiv_pos_as_xyz
1 x,y,z
2 -x,-y,-z
_cell_length_a                   17.199(12)
_cell_length_b                   11.385(6)
_cell_length_c                   10.395(6)
_cell_angle_alpha                106.66(5)
_cell_angle_beta                 81.74(5)
_cell_angle_gamma                107.10(5)
_cell_volume                     1859.88
_cell_formula_units_Z            2
loop_
_atom_site_label
_atom_site_type_symbol
_atom_site_fract_x
_atom_site_fract_y
_atom_site_fract_z
P1 P 0.0455(2) -0.2002(3) 0.2381(3)
F1 F -0.0202(2) -0.3430(3) 0.1951(5)
F2 F 0.1128(2) -0.0539(3) 0.2822(5)
F3 F -0.0270(4) -0.1298(5) 0.2330(19)
F4 F 0.1196(4) -0.2671(4) 0.2442(20)
F5 F 0.0734(9) -0.2052(9) 0.0752(3)
F6 F 0.0192(9) -0.1917(9) 0.4021(3)
P2 P 0.5863(2) 0.8118(3) 0.1951(4)
F18 F 0.6504(4) 0.8186(6) 0.0507(7)
F19 F 0.5901(4) 0.6602(6) 0.1690(8)
F20 F 0.5235(4) 0.7972(7) 0.3285(8)
F21 F 0.5856(4) 0.9634(6) 0.2136(9)
F22 F 0.5072(4) 0.7602(6) 0.0981(8)
F23 F 0.6683(4) 0.8618(7) 0.2836(7)
N1 N 0.1662(5) 0.4605(7) 0.2886(9)
C1 C 0.1017(6) 0.4540(10) 0.4010(12)
C2 C 0.1288(6) 0.4217(9) 0.5124(12)
N2 N 0.1435(5) 0.2920(8) 0.4696(9)
C3 C 0.1781(6) 0.2649(10) 0.5824(11)
C4 C 0.1857(6) 0.1303(10) 0.5482(12)
N3 N 0.2593(5) 0.1139(7) 0.4551(8)
C5 C 0.2739(6) -0.0127(9) 0.4280(11)
C6 C 0.3514(6) -0.0200(10) 0.3400(12)
C7 C 0.2290(6) 0.5829(9) 0.3201(12)
C8 C 0.3072(6) 0.5762(10) 0.2363(13)
N4 N 0.3444(4) 0.4834(7) 0.2670(9)
C9 C 0.4207(6) 0.4745(10) 0.1827(12)
C10 C 0.4660(6) 0.3969(8) 0.2223(12)
N5 N 0.4268(4) 0.2589(7) 0.1813(9)
C11 C 0.4754(6) 0.1763(10) 0.2020(12)
C12 C 0.4323(5) 0.0394(8) 0.1447(13)
C13 C 0.1293(7) 0.4431(10) 0.1628(13)
C14 C 0.0908(6) 0.3043(10) 0.0966(12)
N6 N 0.1517(4) 0.2300(7) 0.0597(9)
C15 C 0.1148(6) 0.0911(9) 0.0011(12)
C16 C 0.1750(6) 0.0144(9) -0.0555(11)
N7 N 0.2150(4) -0.0044(7) 0.0553(8)
C17 C 0.2681(6) -0.0930(9) 0.0058(11)
C18 C 0.3013(6) -0.1135(9) 0.1186(12)
N8 N 0.3485(4) 0.0020(6) 0.2079(9)
H2 H 0.051 0.388 0.366
H3 H 0.089 0.539 0.436
H4 H 0.180 0.486 0.544
H5 H 0.086 0.424 0.588
H6 H 0.091 0.227 0.445
H7 H 0.183 0.288 0.389
H8 H 0.233 0.325 0.600
H9 H 0.141 0.279 0.665
H10 H 0.136 0.071 0.504
H11 H 0.191 0.109 0.633
H12 H 0.308 0.180 0.496
H13 H 0.252 0.128 0.367
H14 H 0.279 -0.029 0.516
H15 H 0.227 -0.079 0.382
H16 H 0.359 -0.107 0.326
H17 H 0.399 0.046 0.387
H18 H 0.209 0.650 0.302
H19 H 0.240 0.606 0.417
H20 H 0.347 0.662 0.255
H21 H 0.296 0.548 0.139
H22 H 0.304 0.398 0.249
H23 H 0.357 0.513 0.364
H24 H 0.407 0.435 0.087
H25 H 0.457 0.562 0.191
H26 H 0.469 0.424 0.322
H27 H 0.522 0.413 0.178
H28 H 0.373 0.242 0.235
H29 H 0.417 0.235 0.084
H30 H 0.531 0.197 0.155
H31 H 0.481 0.192 0.300
H32 H 0.465 -0.015 0.160
H33 H 0.429 0.025 0.046
H34 H 0.086 0.490 0.183
H35 H 0.173 0.479 0.099
H36 H 0.065 0.298 0.013
H37 H 0.048 0.268 0.161
H38 H 0.193 0.264 -0.008
H39 H 0.179 0.241 0.142
H40 H 0.080 0.082 -0.073
H41 H 0.080 0.055 0.074
H42 H 0.146 -0.071 -0.111
H43 H 0.218 0.060 -0.113
H44 H 0.171 -0.039 0.119
H45 H 0.249 0.080 0.103
H46 H 0.315 -0.056 -0.053
H47 H 0.235 -0.177 -0.047
H48 H 0.337 -0.172 0.081
H49 H 0.254 -0.155 0.174
F24 F 0.2559(3) 0.2347(5) 0.2510(5)
Cl1 Cl 0.3607(2) 0.5664(3) 0.5774(4)
F25 F 0.4024(5) 0.3064(7) 0.5130(8)
F26 F 1.0101(5) 0.1301(8) 0.3124(9)
O1 O 0.7341(6) 0.4136(9) 0.1311(10)
H50 H 0.776 0.414 0.135
O2 O 0.7500(5) 0.6555(8) 0.1231(9)
H51 H 0.733 0.586 0.059
H52 H 0.679 0.672 0.147
O3 O 0.8975(6) 0.4055(9) 0.1278(10)
H53 H 0.876 0.425 0.086
H54 H 0.937 0.377 0.129
O4 O 0.7051(6) 0.1794(10) 0.3576(11)
H55 H 0.680 0.259 0.369
H56 H 0.659 0.173 0.422
O5 O 0.8709(10) 0.2541(16) 0.3389(18)
H57 H 0.899 0.268 0.265
H58 H 0.828 0.293 0.323
F7? F 0.0490(21) -0.1833(18) 0.0817(12)
F8? F 0.1244(3) -0.2658(6) 0.1925(42)
F9? F -0.0317(3) -0.1311(6) 0.2847(42)
H1? H 0.0436(21) -0.2136(19) 0.3956(12)
F10? F -0.0167(15) -0.1342(9) 0.1885(49)
F11? F 0.1093(15) -0.2627(9) 0.2888(49)
F12? F 0.0924(20) -0.2238(21) 0.0830(17)
F13? F 0.0002(20) -0.1731(21) 0.3943(16)
F14? F 0.0722(32) -0.2371(25) 0.3681(42)
F15? F 0.0205(32) -0.1598(25) 0.1091(42)
F16? F 0.1200(11) -0.2557(17) 0.1387(57)
F17? F -0.0274(11) -0.1412(17) 0.3386(56)
O6? O 0.8774(20) 0.1990(33) 0.4125(37)
loop_
_geom_bond_atom_site_label_1
_geom_bond_atom_site_label_2
_geom_bond_site_symmetry_1
_geom_bond_site_symmetry_2
P1 F1 1_555 1_555
F2 P1 1_555 1_555
F3 P1 1_555 1_555
F4 P1 1_555 1_555
F5 P1 1_555 1_555
F6 P1 1_555 1_555
P2 F18 1_555 1_555
F19 P2 1_555 1_555
F20 P2 1_555 1_555
F21 P2 1_555 1_555
F22 P2 1_555 1_555
F23 P2 1_555 1_555
N1 C1 1_555 1_555
C1 C2 1_555 1_555
C2 N2 1_555 1_555
N2 C3 1_555 1_555
C3 C4 1_555 1_555
C4 N3 1_555 1_555
N3 C5 1_555 1_555
C5 C6 1_555 1_555
C6 N8 1_555 1_555
C7 N1 1_555 1_555
C8 C7 1_555 1_555
N4 C8 1_555 1_555
C9 N4 1_555 1_555
C10 C9 1_555 1_555
N5 C10 1_555 1_555
C11 N5 1_555 1_555
C12 C11 1_555 1_555
C13 N1 1_555 1_555
C14 C13 1_555 1_555
N6 C14 1_555 1_555
C15 N6 1_555 1_555
C16 C15 1_555 1_555
N7 C16 1_555 1_555
C17 N7 1_555 1_555
C18 C17 1_555 1_555
N8 C12 1_555 1_555
O1 H50 1_555 1_555
O2 H51 1_555 1_555
O3 H53 1_555 1_555
O4 H55 1_555 1_555
O5 H57 1_555 1_555
H2 C1 1_555 1_555
H3 C1 1_555 1_555
H4 C2 1_555 1_555
H5 C2 1_555 1_555
H6 N2 1_555 1_555
H7 N2 1_555 1_555
H8 C3 1_555 1_555
H9 C3 1_555 1_555
H10 C4 1_555 1_555
H11 C4 1_555 1_555
H12 N3 1_555 1_555
H13 N3 1_555 1_555
H14 C5 1_555 1_555
H15 C5 1_555 1_555
H16 C6 1_555 1_555
H17 C6 1_555 1_555
H18 C7 1_555 1_555
H19 C7 1_555 1_555
H20 C8 1_555 1_555
H21 C8 1_555 1_555
H22 N4 1_555 1_555
H23 N4 1_555 1_555
H24 C9 1_555 1_555
H25 C9 1_555 1_555
H26 C10 1_555 1_555
H27 C10 1_555 1_555
H28 N5 1_555 1_555
H29 N5 1_555 1_555
H30 C11 1_555 1_555
H31 C11 1_555 1_555
H32 C12 1_555 1_555
H33 C12 1_555 1_555
H34 C13 1_555 1_555
H35 C13 1_555 1_555
H36 C14 1_555 1_555
H37 C14 1_555 1_555
H38 N6 1_555 1_555
H39 N6 1_555 1_555
H40 C15 1_555 1_555
H41 C15 1_555 1_555
H42 C16 1_555 1_555
H43 C16 1_555 1_555
H44 N7 1_555 1_555
H45 N7 1_555 1_555
H46 C17 1_555 1_555
H47 C17 1_555 1_555
H48 C18 1_555 1_555
H49 C18 1_555 1_555
H52 O2 1_555 1_555
H54 O3 1_555 1_555
H56 O4 1_555 1_555
H58 O5 1_555 1_555
C18 N8 1_555 1_555

#END
