
#######################################################################
#
#                 Cambridge Crystallographic Data Centre
#                                CCDC 
#
#######################################################################
#
# If this CIF has been generated from an entry in the Cambridge 
# Structural Database, then it will include bibliographic, chemical, 
# crystal, experimental, refinement or atomic coordinate data resulting 
# from the CCDC's data processing and validation procedures.
#
#######################################################################

data_KATZAJ
_chemical_formula_moiety         'C12 H11 N1 O3'
_chemical_name_systematic        
8-nitro-3,5,6,7-tetrahydro-s-indacen-1(2H)-one
_symmetry_cell_setting           triclinic
_symmetry_space_group_name_H-M   'P -1'
_symmetry_Int_Tables_number      2
_space_group_name_Hall           '-P 1'
loop_
_symmetry_equiv_pos_site_id
_symmetry_equiv_pos_as_xyz
1 x,y,z
2 -x,-y,-z
_cell_length_a                   8.8200(6)
_cell_length_b                   8.9621(6)
_cell_length_c                   12.9701(6)
_cell_angle_alpha                93.133(5)
_cell_angle_beta                 94.496(5)
_cell_angle_gamma                93.889(5)
_cell_volume                     1017.87
_exptl_crystal_colour            colorless
_exptl_crystal_description       prism
_cell_formula_units_Z            4
loop_
_atom_site_label
_atom_site_type_symbol
_atom_site_fract_x
_atom_site_fract_y
_atom_site_fract_z
C1 C 1.1417(2) 0.5046(2) 1.20464(14)
C2 C 1.3056(2) 0.4970(2) 1.17795(16)
H1 H 1.367 0.4536 1.2345
H2 H 1.3514 0.5984 1.1676
C3 C 1.3014(2) 0.3980(2) 1.07868(16)
H3 H 1.337 0.4563 1.0214
H4 H 1.3667 0.3135 1.0884
C4 C 1.1370(2) 0.34193(19) 1.05612(14)
C5 C 1.0720(2) 0.2453(2) 0.97424(14)
H5 H 1.1328 0.2086 0.9225
C6 C 0.9180(2) 0.2038(2) 0.96965(14)
C7 C 0.8219(3) 0.0988(2) 0.89222(16)
H6 H 0.8754 0.0081 0.8753
H7 H 0.7958 0.1486 0.8276
C8 C 0.6790(2) 0.0593(2) 0.94776(16)
H8 H 0.6911 -0.0319 0.9865
H9 H 0.5883 0.0418 0.8975
C9 C 0.6630(2) 0.1952(2) 1.02193(15)
H10 H 0.5983 0.2681 0.9888
H11 H 0.619 0.1646 1.0861
C10 C 0.8251(2) 0.25947(19) 1.04406(13)
C11 C 0.89117(19) 0.35575(19) 1.12341(13)
C12 C 1.04730(19) 0.39787(19) 1.13075(13)
N1 N 0.79654(17) 0.40743(17) 1.20492(12)
O1 O 1.09762(16) 0.58616(16) 1.27162(11)
O2 O 0.82925(16) 0.37386(17) 1.29313(10)
O3 O 0.68746(18) 0.47738(19) 1.17941(12)
C13 C 0.5436(2) 0.19631(19) 1.35231(14)
C14 C 0.5289(2) 0.3316(2) 1.42499(15)
H12 H 0.4202 0.345 1.4343
H13 H 0.5742 0.4232 1.3967
C15 C 0.6144(2) 0.3022(2) 1.52856(15)
H14 H 0.6984 0.3803 1.5473
H15 H 0.5445 0.3008 1.5847
C16 C 0.6759(2) 0.1510(2) 1.51069(14)
C17 C 0.7598(2) 0.0704(2) 1.58063(14)
H16 H 0.7845 0.1091 1.65
C18 C 0.8066(2) -0.0667(2) 1.54775(14)
C19 C 0.8965(2) -0.1745(2) 1.60865(17)
H17 H 0.838 -0.2131 1.6649
H18 H 0.9945 -0.1249 1.6395
C20 C 0.9235(3) -0.3003(2) 1.53129(17)
H19 H 0.8867 -0.3976 1.5563
H20 H 1.034 -0.3026 1.523
C21 C 0.8379(2) -0.2744(2) 1.42757(17)
H21 H 0.908 -0.2716 1.3716
H22 H 0.7557 -0.3543 1.409
C22 C 0.7732(2) -0.12543(19) 1.44521(14)
C23 C 0.69085(19) -0.04226(19) 1.37723(13)
C24 C 0.64009(19) 0.09477(19) 1.40914(13)
N2 N 0.6609(2) -0.09794(18) 1.26822(13)
O4 O 0.48427(16) 0.17504(15) 1.26478(10)
O5 O 0.5628(3) -0.1973(2) 1.24657(14)
O6 O 0.7387(2) -0.0405(2) 1.20560(13)
loop_
_geom_bond_atom_site_label_1
_geom_bond_atom_site_label_2
_geom_bond_site_symmetry_1
_geom_bond_site_symmetry_2
C1 C2 1_555 1_555
C2 H1 1_555 1_555
H2 C2 1_555 1_555
C3 C2 1_555 1_555
H3 C3 1_555 1_555
H4 C3 1_555 1_555
C4 C3 1_555 1_555
C5 C4 1_555 1_555
H5 C5 1_555 1_555
C6 C5 1_555 1_555
C7 C6 1_555 1_555
H6 C7 1_555 1_555
H7 C7 1_555 1_555
C8 C7 1_555 1_555
H8 C8 1_555 1_555
H9 C8 1_555 1_555
C9 C8 1_555 1_555
H10 C9 1_555 1_555
H11 C9 1_555 1_555
C10 C6 1_555 1_555
C11 C10 1_555 1_555
C12 C1 1_555 1_555
N1 C11 1_555 1_555
O1 C1 1_555 1_555
O2 N1 1_555 1_555
O3 N1 1_555 1_555
C13 C14 1_555 1_555
C14 H12 1_555 1_555
H13 C14 1_555 1_555
C15 C14 1_555 1_555
H14 C15 1_555 1_555
H15 C15 1_555 1_555
C16 C15 1_555 1_555
C17 C16 1_555 1_555
H16 C17 1_555 1_555
C18 C17 1_555 1_555
C19 C18 1_555 1_555
H17 C19 1_555 1_555
H18 C19 1_555 1_555
C20 C19 1_555 1_555
H19 C20 1_555 1_555
H20 C20 1_555 1_555
C21 C20 1_555 1_555
H21 C21 1_555 1_555
H22 C21 1_555 1_555
C22 C18 1_555 1_555
C23 C22 1_555 1_555
C24 C13 1_555 1_555
N2 C23 1_555 1_555
O4 C13 1_555 1_555
O5 N2 1_555 1_555
O6 N2 1_555 1_555
C4 C12 1_555 1_555
C9 C10 1_555 1_555
C11 C12 1_555 1_555
C16 C24 1_555 1_555
C21 C22 1_555 1_555
C23 C24 1_555 1_555

#END
