
#######################################################################
#
#                 Cambridge Crystallographic Data Centre
#                                CCDC 
#
#######################################################################
#
# If this CIF has been generated from an entry in the Cambridge 
# Structural Database, then it will include bibliographic, chemical, 
# crystal, experimental, refinement or atomic coordinate data resulting 
# from the CCDC's data processing and validation procedures.
#
#######################################################################

data_KATZIR
_chemical_formula_moiety         'C12 H11 N1 O3'
_chemical_name_systematic        
5-nitro-1,6,7,8-tetrahydro-as-indacen-3(2H)-one
_symmetry_cell_setting           orthorhombic
_symmetry_space_group_name_H-M   'P n m a'
_symmetry_Int_Tables_number      62
_space_group_name_Hall           '-P 2ac 2n'
loop_
_symmetry_equiv_pos_site_id
_symmetry_equiv_pos_as_xyz
1 x,y,z
2 -x,1/2+y,-z
3 1/2-x,-y,1/2+z
4 1/2+x,1/2-y,1/2-z
5 -x,-y,-z
6 x,1/2-y,z
7 1/2+x,y,1/2-z
8 1/2-x,1/2+y,1/2+z
_cell_length_a                   9.4915(6)
_cell_length_b                   6.6626(6)
_cell_length_c                   15.7656(11)
_cell_angle_alpha                90
_cell_angle_beta                 90
_cell_angle_gamma                90
_cell_volume                     996.986
_exptl_crystal_colour            colorless
_exptl_crystal_description       prism
_cell_formula_units_Z            4
loop_
_atom_site_label
_atom_site_type_symbol
_atom_site_fract_x
_atom_site_fract_y
_atom_site_fract_z
C1 C 1.2374(3) 0.250 -0.15586(19)
C2 C 1.3873(3) 0.250 -0.1231(2)
H1 H 1.437 0.3682 -0.143
C3 C 1.3798(3) 0.250 -0.0270(2)
H2 H 1.4259 0.1291 -0.0034
C4 C 1.2247(3) 0.250 -0.00743(17)
C5 C 1.1599(3) 0.250 0.07143(17)
C6 C 1.2354(9) 0.250 0.1523(6)
H3 H 1.2811 0.3778 0.163
C7 C 1.1187(10) 0.2027(18) 0.2146(5)
H4 H 1.1216 0.0659 0.2356
H5 H 1.1252 0.2935 0.2625
C8 C 0.9782(9) 0.250 0.1695(7)
H6 H 0.9104 0.1446 0.1811
C9 C 1.0131(3) 0.250 0.07704(16)
C10 C 0.9349(3) 0.250 0.00119(16)
C11 C 0.9974(3) 0.250 -0.07749(16)
H7 H 0.9423 0.250 -0.1278
C12 C 1.1438(3) 0.250 -0.08111(17)
N1 N 0.7803(2) 0.250 0.00390(14)
O1 O 1.2011(2) 0.250 -0.22939(14)
O2 O 0.7215(2) 0.250 0.07280(14)
O3 O 0.7166(2) 0.250 -0.06257(14)
H1E H 1.437 0.1318 -0.143
H2E H 1.4259 0.3709 -0.0034
H3E H 1.2811 0.1222 0.163
C7E C 1.1187(10) 0.2973(18) 0.2146(5)
H4E H 1.1216 0.4341 0.2356
H5E H 1.1252 0.2065 0.2625
H6E H 0.9104 0.3554 0.1811
C13? C 1.2169(9) 0.250 0.1633(6)
H8? H 1.2949 0.3435 0.1676
H9? H 1.2492 0.1171 0.1791
C14? C 1.0918(11) 0.3045(18) 0.2186(6)
H10? H 1.0977 0.250 0.2742
H11? H 1.0925 0.4491 0.2257
C15? C 0.9587(10) 0.250 0.1674(8)
H12? H 0.8823 0.3448 0.1755
H13? H 0.9287 0.1175 0.1853
H14? H 1.3049 0.1434 0.155
H15? H 0.9372 0.378 0.1854
loop_
_geom_bond_atom_site_label_1
_geom_bond_atom_site_label_2
_geom_bond_site_symmetry_1
_geom_bond_site_symmetry_2
C1 C2 1_555 1_555
C2 H1 1_555 1_555
C3 C2 1_555 1_555
H2 C3 1_555 1_555
C4 C3 1_555 1_555
C5 C4 1_555 1_555
C6 C5 1_555 1_555
H3 C6 1_555 1_555
C7 C6 1_555 1_555
H4 C7 1_555 1_555
H5 C7 1_555 1_555
C8 C7 1_555 1_555
H6 C8 1_555 1_555
C9 C5 1_555 1_555
C10 C9 1_555 1_555
C11 C10 1_555 1_555
H7 C11 1_555 1_555
C12 C1 1_555 1_555
N1 C10 1_555 1_555
O1 C1 1_555 1_555
O2 N1 1_555 1_555
O3 N1 1_555 1_555
H1E C2 1_555 1_555
H2E C3 1_555 1_555
H3E C6 1_555 1_555
C7E C6 1_555 1_555
H4E C7E 1_555 1_555
H5E C7 1_555 1_555
H6E C8 1_555 1_555
C4 C12 1_555 1_555
C7 C7E 1_555 1_555
H5 C7E 1_555 1_555
C8 C9 1_555 1_555
C8 C7E 1_555 1_555
C11 C12 1_555 1_555
C7E H5E 1_555 1_555

#END
