
#######################################################################
#
#                 Cambridge Crystallographic Data Centre
#                                CCDC 
#
#######################################################################
#
# If this CIF has been generated from an entry in the Cambridge 
# Structural Database, then it will include bibliographic, chemical, 
# crystal, experimental, refinement or atomic coordinate data resulting 
# from the CCDC's data processing and validation procedures.
#
#######################################################################

data_KAVBOZ
_chemical_formula_moiety         
'0.4(C16 H10 Te4 1+),1.6(C16 H10 Te4),0.4(F6 P1 1-)'
_chemical_name_systematic        
"pentakis(3,4-Dimethylanthra(1,9-cd:4,10-c'd')bis((1,2)ditellurole)) hexafluorophosphate"
_symmetry_cell_setting           monoclinic
_symmetry_space_group_name_H-M   'P 21/a'
_symmetry_Int_Tables_number      14
_space_group_name_Hall           '-P 2yab'
loop_
_symmetry_equiv_pos_site_id
_symmetry_equiv_pos_as_xyz
1 x,y,z
2 1/2-x,1/2+y,-z
3 -x,-y,-z
4 1/2+x,1/2-y,z
_cell_length_a                   4.155(2)
_cell_length_b                   19.854(8)
_cell_length_c                   11.519(4)
_cell_angle_alpha                90
_cell_angle_beta                 94.66(4)
_cell_angle_gamma                90
_cell_volume                     947.1
_exptl_crystal_colour            black
_exptl_crystal_description       prismatic
_cell_formula_units_Z            1
loop_
_atom_site_label
_atom_site_type_symbol
_atom_site_fract_x
_atom_site_fract_y
_atom_site_fract_z
Te1 Te 0.8108(6) -0.1675(1) 0.9108(2)
Te2 Te 0.6881(5) -0.1691(1) 1.1348(2)
C1 C 0.677(8) -0.065(2) 0.920(3)
C2 C 0.550(8) -0.034(1) 1.006(3)
C3 C 0.529(8) -0.069(2) 1.101(3)
C4 C 0.408(9) -0.038(2) 1.188(3)
C5 C 0.372(9) -0.066(2) 1.301(5)
C6 C 0.24(2) -0.037(4) 1.382(6)
C7 C 0.14(2) 0.033(4) 1.366(8)
C8 C 0.17(1) 0.055(2) 1.273(5)
C9 C 0.698(9) -0.029(2) 0.824(3)
H2 H 0.2077 -0.0599 1.4521
H3 H 0.0437 0.0580 1.4255
H6 H 0.4498 -0.1108 1.3034
H9 H 0.1681 0.1029 1.2668
Te1B Te 0.1892(6) 0.1675(1) 1.0892(2)
Te2B Te 0.3119(5) 0.1691(1) 0.8652(2)
C1B C 0.323(8) 0.065(2) 1.080(3)
C2B C 0.450(8) 0.034(1) 0.994(3)
C3B C 0.471(8) 0.069(2) 0.899(3)
C4B C 0.592(9) 0.038(2) 0.812(3)
C5B C 0.628(9) 0.066(2) 0.699(5)
C6B C 0.76(2) 0.037(4) 0.618(6)
C7B C 0.86(2) -0.033(4) 0.634(8)
C8B C 0.83(1) -0.055(2) 0.727(5)
C9B C 0.302(9) 0.029(2) 1.176(3)
H2B H 0.7923 0.0599 0.5479
H3B H 0.9563 -0.0580 0.5745
H6B H 0.5502 0.1108 0.6966
H9B H 0.8319 -0.1029 0.7332
P1 P 0.15(3) 0.242(3) 0.479(7)
H1? H 0.4556 -0.1098 1.3160
H4? H 0.1038 0.1004 1.2626
H5? H 0.1509 -0.0654 1.3158
H7? H 0.4930 -0.0397 1.3584
H8? H 0.3060 0.0424 1.3404
H10? H -0.0377 0.0383 1.2772
loop_
_geom_bond_atom_site_label_1
_geom_bond_atom_site_label_2
_geom_bond_site_symmetry_1
_geom_bond_site_symmetry_2
Te1 Te2 1_555 1_555
Te2 C3 1_555 1_555
C1 Te1 1_555 1_555
C2 C1 1_555 1_555
C3 C2 1_555 1_555
C4 C3 1_555 1_555
C5 C4 1_555 1_555
C6 C5 1_555 1_555
C7 C6 1_555 1_555
C8 C7 1_555 1_555
C9 C1 1_555 1_555
H2 C6 1_555 1_555
H3 C7 1_555 1_555
H6 C5 1_555 1_555
H9 C8 1_555 1_555
Te1B Te2B 1_555 1_555
Te2B C3B 1_555 1_555
C1B Te1B 1_555 1_555
C2B C2 1_555 1_555
C3B C2B 1_555 1_555
C4B C9 1_555 1_555
C5B C4B 1_555 1_555
C6B C5B 1_555 1_555
C7B C6B 1_555 1_555
C8B C9 1_555 1_555
C9B C4 1_555 1_555
H2B C6B 1_555 1_555
H3B C7B 1_555 1_555
H6B C5B 1_555 1_555
H9B C8B 1_555 1_555
C8 C9B 1_555 1_555
C1B C2B 1_555 1_555
C1B C9B 1_555 1_555
C3B C4B 1_555 1_555
C7B C8B 1_555 1_555

#END
