
#######################################################################
#
#                 Cambridge Crystallographic Data Centre
#                                CCDC 
#
#######################################################################
#
# If this CIF has been generated from an entry in the Cambridge 
# Structural Database, then it will include bibliographic, chemical, 
# crystal, experimental, refinement or atomic coordinate data resulting 
# from the CCDC's data processing and validation procedures.
#
#######################################################################

data_KAVDIX
_chemical_formula_moiety         'C19 H13 N3 O1'
_chemical_name_systematic        
phenyl(6-phenylpyrazolo[1,5-a]pyrimidin-5-yl)methanone
_symmetry_cell_setting           monoclinic
_symmetry_space_group_name_H-M   'P 21/n'
_symmetry_Int_Tables_number      14
_space_group_name_Hall           '-P 2yn'
loop_
_symmetry_equiv_pos_site_id
_symmetry_equiv_pos_as_xyz
1 x,y,z
2 1/2-x,1/2+y,1/2-z
3 -x,-y,-z
4 1/2+x,1/2-y,1/2+z
_cell_length_a                   11.8882(7)
_cell_length_b                   9.1020(5)
_cell_length_c                   13.5891(7)
_cell_angle_alpha                90
_cell_angle_beta                 94.43(3)
_cell_angle_gamma                90
_cell_volume                     1466.03
_exptl_crystal_colour            orange
_exptl_crystal_description       block
_cell_formula_units_Z            4
loop_
_atom_site_label
_atom_site_type_symbol
_atom_site_fract_x
_atom_site_fract_y
_atom_site_fract_z
O1 O 0.85357(15) 0.12647(19) 0.40289(13)
N1 N 0.71263(18) 0.3799(2) 0.51846(15)
N2 N 0.56243(19) 0.6835(2) 0.40857(17)
N3 N 0.60759(18) 0.5462(2) 0.41122(15)
C1 C 0.7082(2) 0.2867(3) 0.44415(18)
C2 C 0.6612(2) 0.5118(3) 0.50289(18)
C3 C 0.6499(2) 0.6343(3) 0.5613(2)
H1 H 0.6774 0.6476 0.6283
C4 C 0.5894(2) 0.7336(3) 0.5003(2)
H2 H 0.5688 0.8286 0.5216
C5 C 0.5994(2) 0.4479(3) 0.33624(18)
H3 H 0.5595 0.4722 0.2751
C6 C 0.6494(2) 0.3132(3) 0.34950(18)
C7 C 0.6348(2) 0.2020(3) 0.27006(18)
C8 C 0.6317(2) 0.2443(3) 0.17123(19)
H4 H 0.6459 0.3438 0.1551
C9 C 0.6080(2) 0.1432(3) 0.0963(2)
H5 H 0.6045 0.1739 0.0293
C10 C 0.5895(2) -0.0031(3) 0.1193(2)
H6 H 0.5721 -0.0723 0.0681
C11 C 0.5963(2) -0.0478(3) 0.2169(2)
H7 H 0.5866 -0.1485 0.2325
C12 C 0.6172(2) 0.0540(3) 0.29187(19)
H8 H 0.6197 0.0229 0.3587
C13 C 0.7849(2) 0.1543(3) 0.46278(17)
C14 C 0.7788(2) 0.0681(3) 0.55524(18)
C15 C 0.6890(2) 0.0814(3) 0.61534(18)
H9 H 0.6287 0.147 0.5975
C16 C 0.6882(2) -0.0014(3) 0.70108(19)
H10 H 0.6269 0.0072 0.7415
C17 C 0.7764(2) -0.0965(3) 0.72800(19)
H11 H 0.7761 -0.1512 0.7875
C18 C 0.8649(2) -0.1118(3) 0.66798(19)
H12 H 0.9246 -0.1783 0.6858
C19 C 0.8662(2) -0.0303(3) 0.58209(19)
H13 H 0.9268 -0.0413 0.5411
loop_
_geom_bond_atom_site_label_1
_geom_bond_atom_site_label_2
_geom_bond_site_symmetry_1
_geom_bond_site_symmetry_2
O1 C13 1_555 1_555
N1 C1 1_555 1_555
N2 N3 1_555 1_555
N3 C2 1_555 1_555
C1 C6 1_555 1_555
C2 N1 1_555 1_555
C3 C2 1_555 1_555
H1 C3 1_555 1_555
C4 N2 1_555 1_555
H2 C4 1_555 1_555
C5 N3 1_555 1_555
H3 C5 1_555 1_555
C6 C5 1_555 1_555
C7 C6 1_555 1_555
C8 C7 1_555 1_555
H4 C8 1_555 1_555
C9 C8 1_555 1_555
H5 C9 1_555 1_555
C10 C9 1_555 1_555
H6 C10 1_555 1_555
C11 C10 1_555 1_555
H7 C11 1_555 1_555
C12 C7 1_555 1_555
H8 C12 1_555 1_555
C13 C1 1_555 1_555
C14 C13 1_555 1_555
C15 C14 1_555 1_555
H9 C15 1_555 1_555
C16 C15 1_555 1_555
H10 C16 1_555 1_555
C17 C16 1_555 1_555
H11 C17 1_555 1_555
C18 C17 1_555 1_555
H12 C18 1_555 1_555
C19 C14 1_555 1_555
H13 C19 1_555 1_555
C3 C4 1_555 1_555
C11 C12 1_555 1_555
C18 C19 1_555 1_555

#END
