
#######################################################################
#
#                 Cambridge Crystallographic Data Centre
#                                CCDC 
#
#######################################################################
#
# If this CIF has been generated from an entry in the Cambridge 
# Structural Database, then it will include bibliographic, chemical, 
# crystal, experimental, refinement or atomic coordinate data resulting 
# from the CCDC's data processing and validation procedures.
#
#######################################################################

data_KAVFUI01
_chemical_formula_moiety         'C3 H2 N4 O4'
_chemical_name_systematic        1,4-Dinitro-1H-imidazole
_symmetry_cell_setting           orthorhombic
_symmetry_space_group_name_H-M   'P 21 21 21'
_symmetry_Int_Tables_number      19
_space_group_name_Hall           'P 2ac 2ab'
loop_
_symmetry_equiv_pos_site_id
_symmetry_equiv_pos_as_xyz
1 x,y,z
2 1/2-x,-y,1/2+z
3 1/2+x,1/2-y,-z
4 -x,1/2+y,1/2-z
_cell_length_a                   5.9007(6)
_cell_length_b                   9.6180(6)
_cell_length_c                   10.5528(9)
_cell_angle_alpha                90
_cell_angle_beta                 90
_cell_angle_gamma                90
_cell_volume                     598.902
_cell_formula_units_Z            4
loop_
_atom_site_label
_atom_site_type_symbol
_atom_site_fract_x
_atom_site_fract_y
_atom_site_fract_z
N1 N 0.2996(7) 0.4226(3) 0.4568(3)
N2 N 0.2480(6) 0.6499(3) 0.5560(3)
O1 O 0.2184(5) 0.3077(3) 0.4387(3)
N3 N -0.2799(7) 0.6372(4) 0.7193(3)
N4 N -0.0826(6) 0.6134(3) 0.6448(3)
C1 C 0.1693(7) 0.5184(3) 0.5320(3)
O2 O 0.4835(6) 0.4616(3) 0.4155(3)
O3 O -0.3955(5) 0.5365(3) 0.7396(3)
C2 C -0.0317(7) 0.4913(3) 0.5846(3)
H1 H -0.1161 0.4097 0.5811
O4 O -0.3034(6) 0.7556(3) 0.7539(3)
C3 C 0.0904(8) 0.7052(4) 0.6244(4)
H2 H 0.0942 0.7956 0.6557
loop_
_geom_bond_atom_site_label_1
_geom_bond_atom_site_label_2
_geom_bond_site_symmetry_1
_geom_bond_site_symmetry_2
N1 O1 1_555 1_555
N2 C1 1_555 1_555
N3 N4 1_555 1_555
N4 C2 1_555 1_555
C1 N1 1_555 1_555
O2 N1 1_555 1_555
O3 N3 1_555 1_555
C2 C1 1_555 1_555
H1 C2 1_555 1_555
O4 N3 1_555 1_555
C3 N2 1_555 1_555
H2 C3 1_555 1_555
N4 C3 1_555 1_555

#END
