
#######################################################################
#
#                 Cambridge Crystallographic Data Centre
#                                CCDC 
#
#######################################################################
#
# If this CIF has been generated from an entry in the Cambridge 
# Structural Database, then it will include bibliographic, chemical, 
# crystal, experimental, refinement or atomic coordinate data resulting 
# from the CCDC's data processing and validation procedures.
#
#######################################################################

data_KAVJAV
_chemical_formula_moiety         'C14 H8 Cl1 I1 N2 O3 S1'
_chemical_name_systematic        
(4-chlorophenyl)(7-iodo-1,1-dioxido-2H-1,2,4-benzothiadiazin-3-yl)methanone
_symmetry_cell_setting           monoclinic
_symmetry_space_group_name_H-M   'C c'
_symmetry_Int_Tables_number      9
_space_group_name_Hall           'C -2yc'
loop_
_symmetry_equiv_pos_site_id
_symmetry_equiv_pos_as_xyz
1 x,y,z
2 x,-y,1/2+z
3 1/2+x,1/2+y,z
4 1/2+x,1/2-y,1/2+z
_cell_length_a                   7.7317(7)
_cell_length_b                   31.7483(14)
_cell_length_c                   6.4030(4)
_cell_angle_alpha                90
_cell_angle_beta                 94.119(6)
_cell_angle_gamma                90
_cell_volume                     1567.67
_exptl_crystal_colour            colorless
_exptl_crystal_description       plate
_cell_formula_units_Z            4
_exptl_crystal_recrystallization_method ethanol
loop_
_atom_site_label
_atom_site_type_symbol
_atom_site_fract_x
_atom_site_fract_y
_atom_site_fract_z
I1 I 0.6107(4) 0.04155(4) 0.6021(4)
S1 S 0.5144(4) 0.21712(11) 0.7398(4)
Cl1 Cl 0.5802(18) 0.4681(2) 0.6795(18)
O1 O 0.6536(14) 0.2134(3) 0.8979(16)
O2 O 0.4613(18) 0.2973(4) 0.0908(18)
N1 N 0.4357(16) 0.2242(4) 0.2863(17)
O3 O 0.3463(13) 0.2188(4) 0.8172(15)
N2 N 0.5417(16) 0.2578(4) 0.5950(18)
H1 H 0.5941 0.2796 0.6486
C1 C 0.4869(18) 0.2583(4) 0.402(2)
C2 C 0.566(2) 0.1349(5) 0.635(2)
H2 H 0.6082 0.1305 0.7731
C3 C 0.546(3) 0.1020(5) 0.496(3)
C4 C 0.448(2) 0.3486(6) 0.590(3)
H3 H 0.3934 0.3277 0.6637
C5 C 0.4826(17) 0.2989(5) 0.274(2)
C6 C 0.4637(19) 0.1831(5) 0.357(2)
C7 C 0.5187(19) 0.1751(5) 0.562(2)
C8 C 0.469(3) 0.3875(7) 0.674(4)
H4 H 0.4303 0.3934 0.8051
C9 C 0.480(3) 0.1087(6) 0.288(3)
H5 H 0.4594 0.0860 0.1978
C10 C 0.5079(19) 0.3390(5) 0.388(3)
C11 C 0.448(2) 0.1482(5) 0.221(3)
H6 H 0.4134 0.1526 0.0805
C12 C 0.590(2) 0.3727(6) 0.281(3)
H7 H 0.6313 0.3676 0.1509
C13 C 0.547(3) 0.4183(7) 0.563(4)
C14 C 0.609(3) 0.4112(7) 0.366(4)
H8 H 0.6623 0.4327 0.2957
loop_
_geom_bond_atom_site_label_1
_geom_bond_atom_site_label_2
_geom_bond_site_symmetry_1
_geom_bond_site_symmetry_2
I1 C3 1_555 1_555
S1 O1 1_555 1_555
Cl1 C13 1_555 1_555
O2 C5 1_555 1_555
N1 C1 1_555 1_555
O3 S1 1_555 1_555
N2 S1 1_555 1_555
H1 N2 1_555 1_555
C1 N2 1_555 1_555
C2 H2 1_555 1_555
C3 C2 1_555 1_555
C4 H3 1_555 1_555
C5 C1 1_555 1_555
C6 N1 1_555 1_555
C7 S1 1_555 1_555
C8 C4 1_555 1_555
H4 C8 1_555 1_555
C9 C3 1_555 1_555
H5 C9 1_555 1_555
C10 C4 1_555 1_555
C11 C6 1_555 1_555
H6 C11 1_555 1_555
C12 C10 1_555 1_555
H7 C12 1_555 1_555
C13 C8 1_555 1_555
C14 C12 1_555 1_555
H8 C14 1_555 1_555
C2 C7 1_555 1_555
C5 C10 1_555 1_555
C6 C7 1_555 1_555
C9 C11 1_555 1_555
C13 C14 1_555 1_555

#END
