
#######################################################################
#
#                 Cambridge Crystallographic Data Centre
#                                CCDC 
#
#######################################################################
#
# If this CIF has been generated from an entry in the Cambridge 
# Structural Database, then it will include bibliographic, chemical, 
# crystal, experimental, refinement or atomic coordinate data resulting 
# from the CCDC's data processing and validation procedures.
#
#######################################################################

data_KAVMEC
_chemical_formula_moiety         'C56 H81 N6 Si2'
_chemical_name_systematic        
1,3,7,9-tetra-t-butyl-N,N'-bis(2,6-diisopropylphenyl)-2,8-diphenyl-1,3,7,9-tetraaza-4,6-disiladispiro[3.1.3^6^.1^4^]dec-1-ene-5,10-diimine
_symmetry_cell_setting           monoclinic
_symmetry_space_group_name_H-M   'P 21/n'
_symmetry_Int_Tables_number      14
_space_group_name_Hall           '-P 2yn'
loop_
_symmetry_equiv_pos_site_id
_symmetry_equiv_pos_as_xyz
1 x,y,z
2 1/2-x,1/2+y,1/2-z
3 -x,-y,-z
4 1/2+x,1/2-y,1/2+z
_cell_length_a                   10.8860(11)
_cell_length_b                   38.837(4)
_cell_length_c                   12.8547(13)
_cell_angle_alpha                90
_cell_angle_beta                 100.571(6)
_cell_angle_gamma                90
_cell_volume                     5342.47
_exptl_crystal_colour            red
_exptl_crystal_description       plate
_cell_formula_units_Z            4
loop_
_atom_site_label
_atom_site_type_symbol
_atom_site_fract_x
_atom_site_fract_y
_atom_site_fract_z
C1 C 0.1068(11) 0.1640(3) 0.0211(7)
C2 C 0.0329(9) 0.1884(2) -0.0413(6)
H1 H 0.0230 0.2107 -0.0135
C3 C -0.0269(7) 0.1803(2) -0.1446(6)
H2 H -0.0746 0.1972 -0.1878
C4 C -0.0155(8) 0.1478(3) -0.1819(5)
H3 H -0.0561 0.1422 -0.2518
C5 C 0.0538(7) 0.1225(3) -0.1207(5)
H4 H 0.0595 0.1000 -0.1483
C6 C 0.1151(10) 0.1305(2) -0.0178(6)
H5 H 0.1619 0.1133 0.0251
Si1 Si 0.41669(9) 0.11364(3) 0.45519(7)
Si2 Si 0.28287(9) 0.14160(2) 0.27416(7)
C7 C 0.3347(3) 0.09742(10) 0.3252(3)
C8 C 0.2612(4) 0.05838(10) 0.1902(3)
C9 C 0.1375(4) 0.04631(10) 0.1813(3)
C10 C 0.0780(4) 0.04262(11) 0.2800(4)
H6 H 0.1009 0.0636 0.3246
C11 C -0.0654(4) 0.04037(13) 0.2557(5)
H7 H -0.0991 0.0594 0.2089
H8 H -0.0977 0.0419 0.3219
H9 H -0.0908 0.0184 0.2208
C12 C 0.1317(5) 0.01132(13) 0.3454(4)
H10 H 0.1130 -0.0096 0.3029
H11 H 0.0941 0.0097 0.4089
H12 H 0.2224 0.0139 0.3663
C13 C 0.0773(5) 0.03614(10) 0.0803(4)
H13 H -0.0070 0.0286 0.0707
C14 C 0.1357(5) 0.03666(11) -0.0049(4)
H14 H 0.0909 0.0301 -0.0724
C15 C 0.2583(5) 0.04656(10) 0.0057(3)
H15 H 0.2986 0.0457 -0.0539
C16 C 0.3255(4) 0.05805(10) 0.1046(3)
C17 C 0.4616(4) 0.06741(11) 0.1177(3)
H16 H 0.4798 0.0844 0.1770
C18 C 0.4969(5) 0.08422(14) 0.0204(3)
H17 H 0.4998 0.0667 -0.0339
H18 H 0.5792 0.0951 0.0398
H19 H 0.4346 0.1017 -0.0073
C19 C 0.5425(5) 0.03579(12) 0.1503(4)
H20 H 0.5185 0.0253 0.2131
H21 H 0.6305 0.0426 0.1667
H22 H 0.5303 0.0191 0.0922
C20 C 0.6747(3) 0.08161(10) 0.4755(3)
C21 C 0.6861(4) 0.10053(10) 0.3740(3)
H23 H 0.6051 0.1003 0.3257
H24 H 0.7487 0.0891 0.3401
H25 H 0.7117 0.1244 0.3906
C22 C 0.6369(4) 0.04399(10) 0.4500(3)
H26 H 0.6261 0.0321 0.5150
H27 H 0.7023 0.0325 0.4198
H28 H 0.5581 0.0434 0.3989
C23 C 0.7993(4) 0.08297(11) 0.5525(3)
H29 H 0.8193 0.1069 0.5729
H30 H 0.8653 0.0735 0.5184
H31 H 0.7934 0.0694 0.6157
C24 C 0.5268(3) 0.08932(9) 0.6060(3)
C25 C 0.6039(3) 0.07830(10) 0.7071(3)
C26 C 0.6157(4) 0.04448(11) 0.7391(3)
H32 H 0.5701 0.0271 0.6965
C27 C 0.6934(5) 0.03567(13) 0.8326(4)
H33 H 0.7026 0.0122 0.8537
C28 C 0.7565(4) 0.06067(15) 0.8944(4)
H34 H 0.8086 0.0543 0.9592
C29 C 0.7477(4) 0.09449(14) 0.8666(3)
H35 H 0.7930 0.1114 0.9113
C30 C 0.6710(4) 0.10402(11) 0.7714(3)
H36 H 0.6643 0.1275 0.7503
C31 C 0.3112(4) 0.09629(10) 0.6583(3)
C32 C 0.2944(4) 0.05872(11) 0.6933(4)
H37 H 0.2765 0.0439 0.6308
H38 H 0.2247 0.0576 0.7319
H39 H 0.3712 0.0509 0.7394
C33 C 0.3546(4) 0.11946(12) 0.7546(3)
H40 H 0.4294 0.1095 0.7984
H41 H 0.2880 0.1212 0.7963
H42 H 0.3741 0.1424 0.7307
C34 C 0.1908(4) 0.10937(11) 0.5945(3)
H43 H 0.2035 0.1326 0.5690
H44 H 0.1267 0.1099 0.6390
H45 H 0.1638 0.0941 0.5341
C35 C 0.3695(3) 0.15679(9) 0.4087(3)
C36 C 0.4427(3) 0.19667(9) 0.5463(3)
C37 C 0.5735(3) 0.19711(10) 0.5737(3)
C38 C 0.6543(4) 0.19196(10) 0.4904(3)
H46 H 0.6190 0.1722 0.4445
C39 C 0.6496(4) 0.22408(11) 0.4199(3)
H47 H 0.5624 0.2299 0.3911
H48 H 0.6941 0.2194 0.3617
H49 H 0.6895 0.2434 0.4620
C40 C 0.7910(4) 0.18357(11) 0.5368(4)
H50 H 0.8319 0.2040 0.5720
H51 H 0.8342 0.1765 0.4797
H52 H 0.7944 0.1648 0.5882
C41 C 0.6254(4) 0.20508(10) 0.6788(3)
H53 H 0.7137 0.2053 0.7000
C42 C 0.5519(4) 0.21265(11) 0.7522(3)
H54 H 0.5895 0.2172 0.8236
C43 C 0.4245(4) 0.21368(10) 0.7225(3)
H55 H 0.3749 0.2195 0.7735
C44 C 0.3659(3) 0.20637(9) 0.6188(3)
C45 C 0.2265(4) 0.20977(10) 0.5829(3)
H56 H 0.1993 0.1913 0.5294
C46 C 0.1965(4) 0.24461(12) 0.5274(4)
H57 H 0.2273 0.2633 0.5767
H58 H 0.1059 0.2469 0.5047
H59 H 0.2372 0.2459 0.4656
C47 C 0.1517(4) 0.20540(12) 0.6716(3)
H60 H 0.1761 0.1839 0.7095
H61 H 0.0623 0.2047 0.6413
H62 H 0.1688 0.2248 0.7209
C48 C 0.0085(4) 0.15673(10) 0.2474(3)
C49 C -0.0255(5) 0.19442(12) 0.2575(4)
H63 H 0.0403 0.2059 0.3078
H64 H -0.1048 0.1960 0.2830
H65 H -0.0340 0.2056 0.1883
C50 C 0.0142(4) 0.13907(10) 0.3550(3)
H66 H 0.0401 0.1150 0.3502
H67 H -0.0685 0.1398 0.3748
H68 H 0.0747 0.1511 0.4087
C51 C -0.0927(4) 0.13870(14) 0.1654(4)
H69 H -0.1036 0.1512 0.0981
H70 H -0.1719 0.1385 0.1913
H71 H -0.0668 0.1150 0.1548
C52 C 0.1718(3) 0.17240(10) 0.1332(3)
H72 H 0.159(3) 0.1962(11) 0.137(3)
C53 C 0.4017(3) 0.18448(9) 0.1300(3)
C54 C 0.3929(4) 0.22066(10) 0.1757(3)
H73 H 0.3155 0.2317 0.1402
H74 H 0.4648 0.2344 0.1643
H75 H 0.3926 0.2190 0.2517
C55 C 0.3918(4) 0.18685(11) 0.0102(3)
H76 H 0.3967 0.1637 -0.0191
H77 H 0.4604 0.2010 -0.0061
H78 H 0.3118 0.1974 -0.0212
C56 C 0.5284(3) 0.16848(10) 0.1786(3)
H79 H 0.5378 0.1683 0.2559
H80 H 0.5959 0.1821 0.1580
H81 H 0.5323 0.1448 0.1529
N1 N 0.3292(3) 0.06576(9) 0.2947(2)
N2 N 0.5709(3) 0.09838(8) 0.5179(2)
N3 N 0.4046(3) 0.09671(8) 0.5863(2)
N4 N 0.3817(3) 0.18925(8) 0.4402(2)
N5 N 0.1315(3) 0.15269(7) 0.2188(2)
N6 N 0.3035(3) 0.16147(7) 0.1576(2)
C57? C 0.089(5) 0.1673(10) 0.028(3)
C58? C 0.024(4) 0.1967(9) -0.013(3)
H82? H 0.0309 0.2179 0.0246
C59? C -0.051(3) 0.1932(9) -0.114(3)
H83? H -0.1029 0.2117 -0.1439
C60? C -0.051(3) 0.1631(11) -0.168(2)
H84? H -0.1050 0.1610 -0.2343
C61? C 0.025(3) 0.1355(10) -0.131(2)
H85? H 0.0253 0.1153 -0.1733
C62? C 0.102(5) 0.1379(10) -0.032(3)
H86? H 0.1596 0.1202 -0.0053
H87? H 0.163(3) 0.1968(11) 0.143(4)
loop_
_geom_bond_atom_site_label_1
_geom_bond_atom_site_label_2
_geom_bond_site_symmetry_1
_geom_bond_site_symmetry_2
C1 C2 1_555 1_555
C2 H1 1_555 1_555
C3 C2 1_555 1_555
H2 C3 1_555 1_555
C4 C3 1_555 1_555
H3 C4 1_555 1_555
C5 C4 1_555 1_555
H4 C5 1_555 1_555
C6 C1 1_555 1_555
H5 C6 1_555 1_555
Si1 C7 1_555 1_555
Si2 C7 1_555 1_555
C7 N1 1_555 1_555
C8 C9 1_555 1_555
C9 C10 1_555 1_555
C10 H6 1_555 1_555
C11 C10 1_555 1_555
H7 C11 1_555 1_555
H8 C11 1_555 1_555
H9 C11 1_555 1_555
C12 C10 1_555 1_555
H10 C12 1_555 1_555
H11 C12 1_555 1_555
H12 C12 1_555 1_555
C13 C9 1_555 1_555
H13 C13 1_555 1_555
C14 C13 1_555 1_555
H14 C14 1_555 1_555
C15 C14 1_555 1_555
H15 C15 1_555 1_555
C16 C8 1_555 1_555
C17 C16 1_555 1_555
H16 C17 1_555 1_555
C18 C17 1_555 1_555
H17 C18 1_555 1_555
H18 C18 1_555 1_555
H19 C18 1_555 1_555
C19 C17 1_555 1_555
H20 C19 1_555 1_555
H21 C19 1_555 1_555
H22 C19 1_555 1_555
C20 C21 1_555 1_555
C21 H23 1_555 1_555
H24 C21 1_555 1_555
H25 C21 1_555 1_555
C22 C20 1_555 1_555
H26 C22 1_555 1_555
H27 C22 1_555 1_555
H28 C22 1_555 1_555
C23 C20 1_555 1_555
H29 C23 1_555 1_555
H30 C23 1_555 1_555
H31 C23 1_555 1_555
C24 C25 1_555 1_555
C25 C26 1_555 1_555
C26 H32 1_555 1_555
C27 C26 1_555 1_555
H33 C27 1_555 1_555
C28 C27 1_555 1_555
H34 C28 1_555 1_555
C29 C28 1_555 1_555
H35 C29 1_555 1_555
C30 C25 1_555 1_555
H36 C30 1_555 1_555
C31 C32 1_555 1_555
C32 H37 1_555 1_555
H38 C32 1_555 1_555
H39 C32 1_555 1_555
C33 C31 1_555 1_555
H40 C33 1_555 1_555
H41 C33 1_555 1_555
H42 C33 1_555 1_555
C34 C31 1_555 1_555
H43 C34 1_555 1_555
H44 C34 1_555 1_555
H45 C34 1_555 1_555
C35 Si1 1_555 1_555
C36 C37 1_555 1_555
C37 C38 1_555 1_555
C38 H46 1_555 1_555
C39 C38 1_555 1_555
H47 C39 1_555 1_555
H48 C39 1_555 1_555
H49 C39 1_555 1_555
C40 C38 1_555 1_555
H50 C40 1_555 1_555
H51 C40 1_555 1_555
H52 C40 1_555 1_555
C41 C37 1_555 1_555
H53 C41 1_555 1_555
C42 C41 1_555 1_555
H54 C42 1_555 1_555
C43 C42 1_555 1_555
H55 C43 1_555 1_555
C44 C36 1_555 1_555
C45 C44 1_555 1_555
H56 C45 1_555 1_555
C46 C45 1_555 1_555
H57 C46 1_555 1_555
H58 C46 1_555 1_555
H59 C46 1_555 1_555
C47 C45 1_555 1_555
H60 C47 1_555 1_555
H61 C47 1_555 1_555
H62 C47 1_555 1_555
C48 C49 1_555 1_555
C49 H63 1_555 1_555
H64 C49 1_555 1_555
H65 C49 1_555 1_555
C50 C48 1_555 1_555
H66 C50 1_555 1_555
H67 C50 1_555 1_555
H68 C50 1_555 1_555
C51 C48 1_555 1_555
H69 C51 1_555 1_555
H70 C51 1_555 1_555
H71 C51 1_555 1_555
C52 C1 1_555 1_555
H72 C52 1_555 1_555
C53 C54 1_555 1_555
C54 H73 1_555 1_555
H74 C54 1_555 1_555
H75 C54 1_555 1_555
C55 C53 1_555 1_555
H76 C55 1_555 1_555
H77 C55 1_555 1_555
H78 C55 1_555 1_555
C56 C53 1_555 1_555
H79 C56 1_555 1_555
H80 C56 1_555 1_555
H81 C56 1_555 1_555
N1 C8 1_555 1_555
N2 Si1 1_555 1_555
N3 Si1 1_555 1_555
N4 C35 1_555 1_555
N5 Si2 1_555 1_555
N6 Si2 1_555 1_555
C5 C6 1_555 1_555
Si2 C35 1_555 1_555
C15 C16 1_555 1_555
C20 N2 1_555 1_555
C24 N2 1_555 1_555
C24 N3 1_555 1_555
C29 C30 1_555 1_555
C31 N3 1_555 1_555
C36 N4 1_555 1_555
C43 C44 1_555 1_555
C48 N5 1_555 1_555
C52 N5 1_555 1_555
C52 N6 1_555 1_555
C53 N6 1_555 1_555

#END
