
#######################################################################
#
#                 Cambridge Crystallographic Data Centre
#                                CCDC 
#
#######################################################################
#
# If this CIF has been generated from an entry in the Cambridge 
# Structural Database, then it will include bibliographic, chemical, 
# crystal, experimental, refinement or atomic coordinate data resulting 
# from the CCDC's data processing and validation procedures.
#
#######################################################################

data_KAVMIG
_chemical_formula_moiety         'C23 H15 N3 O1'
_chemical_name_systematic        
phenyl(3-phenylpyrimido[1,2-a]benzimidazol-2-yl)methanone
_symmetry_cell_setting           orthorhombic
_symmetry_space_group_name_H-M   'P 21 21 21'
_symmetry_Int_Tables_number      19
_space_group_name_Hall           'P 2ac 2ab'
loop_
_symmetry_equiv_pos_site_id
_symmetry_equiv_pos_as_xyz
1 x,y,z
2 1/2-x,-y,1/2+z
3 -x,1/2+y,1/2-z
4 1/2+x,1/2-y,-z
_cell_length_a                   5.654(3)
_cell_length_b                   13.433(12)
_cell_length_c                   22.786(13)
_cell_angle_alpha                90
_cell_angle_beta                 90
_cell_angle_gamma                90
_cell_volume                     1730.6
_exptl_crystal_colour            yellow
_exptl_crystal_description       prism
_cell_formula_units_Z            4
loop_
_atom_site_label
_atom_site_type_symbol
_atom_site_fract_x
_atom_site_fract_y
_atom_site_fract_z
C1 C 0.2929(12) 0.6512(5) 0.1270(3)
C2 C 0.3226(11) 0.7487(5) 0.0966(2)
C3 C 0.5195(11) 0.7695(5) 0.0629(2)
H1 H 0.6456 0.7228 0.0610
C4 C 0.5341(12) 0.8578(5) 0.0319(3)
H2 H 0.6669 0.8712 0.0077
C5 C 0.3530(13) 0.9259(5) 0.0369(3)
H3 H 0.3640 0.9875 0.0166
C6 C 0.1567(13) 0.9067(5) 0.0707(3)
H4 H 0.0342 0.9548 0.0739
C7 C 0.1391(11) 0.8166(5) 0.1000(2)
H5 H 0.0017 0.8016 0.1223
C8 C 0.5016(11) 0.6077(5) 0.1589(2)
C9 C 0.5494(11) 0.5027(5) 0.1574(2)
C10 C 0.4234(10) 0.4340(5) 0.1170(2)
C11 C 0.4128(11) 0.4563(5) 0.0576(2)
H6 H 0.4845 0.5153 0.0431
C12 C 0.2970(12) 0.3922(5) 0.0196(3)
H7 H 0.2901 0.4074 -0.0211
C13 C 0.1921(11) 0.3069(5) 0.0403(3)
H8 H 0.1107 0.2639 0.0141
C14 C 0.2053(12) 0.2839(5) 0.0988(3)
H9 H 0.1334 0.2246 0.1130
C15 C 0.3213(12) 0.3456(5) 0.1372(3)
H10 H 0.3323 0.3283 0.1776
C16 C 0.7246(11) 0.4692(5) 0.1936(2)
H11 H 0.7645 0.4005 0.1945
C17 C 0.7940(12) 0.6387(5) 0.2251(3)
C18 C 1.0884(12) 0.6214(5) 0.2837(3)
C19 C 1.0327(12) 0.5242(5) 0.2659(2)
C20 C 1.1582(12) 0.4402(5) 0.2837(2)
H12 H 1.1158 0.3750 0.2714
C21 C 1.3482(12) 0.4578(5) 0.3203(2)
H13 H 1.4424 0.4035 0.3331
C22 C 1.4052(12) 0.5551(5) 0.3389(2)
H14 H 1.5366 0.5641 0.3644
C23 C 1.2782(12) 0.6375(5) 0.3218(3)
H15 H 1.3178 0.7024 0.3353
N1 N 0.6225(9) 0.6739(4) 0.1902(2)
N2 N 0.8413(9) 0.5353(4) 0.22838(19)
N3 N 0.9372(9) 0.6927(4) 0.2589(2)
O1 O 0.1030(8) 0.6079(3) 0.12864(17)
loop_
_geom_bond_atom_site_label_1
_geom_bond_atom_site_label_2
_geom_bond_site_symmetry_1
_geom_bond_site_symmetry_2
C1 C2 1_555 1_555
C2 C3 1_555 1_555
C3 H1 1_555 1_555
C4 C3 1_555 1_555
H2 C4 1_555 1_555
C5 C4 1_555 1_555
H3 C5 1_555 1_555
C6 C5 1_555 1_555
H4 C6 1_555 1_555
C7 C2 1_555 1_555
H5 C7 1_555 1_555
C8 C1 1_555 1_555
C9 C8 1_555 1_555
C10 C9 1_555 1_555
C11 C10 1_555 1_555
H6 C11 1_555 1_555
C12 C11 1_555 1_555
H7 C12 1_555 1_555
C13 C12 1_555 1_555
H8 C13 1_555 1_555
C14 C13 1_555 1_555
H9 C14 1_555 1_555
C15 C10 1_555 1_555
H10 C15 1_555 1_555
C16 C9 1_555 1_555
H11 C16 1_555 1_555
C17 N1 1_555 1_555
C18 C19 1_555 1_555
C19 C20 1_555 1_555
C20 H12 1_555 1_555
C21 C20 1_555 1_555
H13 C21 1_555 1_555
C22 C21 1_555 1_555
H14 C22 1_555 1_555
C23 C18 1_555 1_555
H15 C23 1_555 1_555
N1 C8 1_555 1_555
N2 C16 1_555 1_555
N3 C17 1_555 1_555
O1 C1 1_555 1_555
C6 C7 1_555 1_555
C14 C15 1_555 1_555
C17 N2 1_555 1_555
C18 N3 1_555 1_555
C19 N2 1_555 1_555
C22 C23 1_555 1_555

#END
