
#######################################################################
#
#                 Cambridge Crystallographic Data Centre
#                                CCDC 
#
#######################################################################
#
# If this CIF has been generated from an entry in the Cambridge 
# Structural Database, then it will include bibliographic, chemical, 
# crystal, experimental, refinement or atomic coordinate data resulting 
# from the CCDC's data processing and validation procedures.
#
#######################################################################

data_KAVQIK
_chemical_formula_moiety         'C29 H29 N2 1+,0.5(C2 H6 O1),Br1 1-'
_chemical_name_systematic        
'2-butyl-1,3-bis(2-naphthylmethyl)-1H-imidazol-3-ium bromide ethanol solvate'
_chemical_properties_biological  'anti-cancer activity'
_symmetry_cell_setting           monoclinic
_symmetry_space_group_name_H-M   'P 21/c'
_symmetry_Int_Tables_number      14
_space_group_name_Hall           '-P 2ybc'
loop_
_symmetry_equiv_pos_site_id
_symmetry_equiv_pos_as_xyz
1 x,y,z
2 -x,1/2+y,1/2-z
3 -x,-y,-z
4 x,1/2-y,1/2+z
_cell_length_a                   7.6778(3)
_cell_length_b                   28.1359(8)
_cell_length_c                   12.4286(4)
_cell_angle_alpha                90
_cell_angle_beta                 106.6230(10)
_cell_angle_gamma                90
_cell_volume                     2572.64
_exptl_crystal_colour            colorless
_exptl_crystal_description       block
_chemical_melting_point          '195-196 deg.C'
_cell_formula_units_Z            4
_exptl_crystal_recrystallization_method acetonitrile
loop_
_atom_site_label
_atom_site_type_symbol
_atom_site_fract_x
_atom_site_fract_y
_atom_site_fract_z
C1 C 0.9626(4) 0.35739(9) 0.6792(2)
H1 H 0.8469 0.3444 0.6306
H2 H 1.0501 0.3589 0.6342
N1 N 1.0343(3) 0.32500(7) 0.77550(16)
N2 N 1.0521(3) 0.27782(7) 0.91534(16)
C2 C 0.6679(6) 0.55991(11) 0.8102(3)
H3 H 0.6467 0.5903 0.8373
C3 C 0.8393(5) 0.54212(10) 0.8380(3)
H4 H 0.9364 0.5599 0.8853
C4 C 0.8750(4) 0.49702(9) 0.7968(2)
C5 C 0.7270(4) 0.47114(9) 0.7266(2)
C6 C 0.7599(4) 0.42587(9) 0.6866(2)
H5 H 0.6618 0.4085 0.6388
C7 C 0.9304(3) 0.40680(9) 0.7158(2)
C8 C 0.9445(3) 0.30955(8) 0.8471(2)
C9 C 1.0016(3) 0.24848(8) 1.0003(2)
H6 H 1.1002 0.2254 1.0319
H7 H 0.8903 0.2303 0.9632
C10 C 0.9683(3) 0.27725(8) 1.09493(19)
C11 C 0.8105(3) 0.27157(8) 1.1235(2)
H8 H 0.7239 0.2488 1.0848
C12 C 0.7735(3) 0.29916(8) 1.2102(2)
C13 C 0.9048(3) 0.33309(8) 1.26713(19)
C14 C 0.8645(4) 0.36157(9) 1.3517(2)
H9 H 0.9504 0.3845 1.3909
C15 C 0.7042(4) 0.35635(10) 1.3771(2)
H10 H 0.6785 0.3760 1.4328
C16 C 1.0497(4) 0.47697(10) 0.8228(2)
H11 H 1.1504 0.4942 0.8684
C17 C 1.0770(4) 0.43328(9) 0.7836(2)
H12 H 1.1964 0.4204 0.8022
C18 C 1.2016(3) 0.30276(8) 0.7997(2)
H13 H 1.2919 0.3073 0.7619
C19 C 1.2121(3) 0.27342(8) 0.8871(2)
H14 H 1.3116 0.2534 0.9226
C20 C 1.0997(3) 0.31062(8) 1.1539(2)
H15 H 1.2102 0.3143 1.1347
C21 C 1.0685(3) 0.33739(8) 1.2378(2)
H16 H 1.1584 0.3593 1.2772
C22 C 0.6102(3) 0.29414(10) 1.2405(2)
H17 H 0.5234 0.2710 1.2039
C23 C 0.5762(4) 0.32207(10) 1.3214(2)
H18 H 0.4657 0.3185 1.3405
C24 C 0.7620(3) 0.32545(8) 0.8516(2)
H19 H 0.7021 0.2989 0.8796
H20 H 0.6869 0.3332 0.7746
C25 C 0.7682(3) 0.36907(8) 0.9273(2)
H21 H 0.8278 0.3602 1.0064
H22 H 0.8417 0.3944 0.9061
C26 C 0.5790(3) 0.38799(9) 0.9172(2)
H23 H 0.5087 0.3636 0.9442
H24 H 0.5158 0.3944 0.8372
C27 C 0.5854(4) 0.43339(10) 0.9848(2)
H25 H 0.6541 0.4276 1.0632
H26 H 0.4614 0.4432 0.9810
H27 H 0.6449 0.4585 0.9536
C28 C 0.5499(4) 0.49082(10) 0.7007(3)
H28 H 0.4498 0.4737 0.6540
C29 C 0.5222(5) 0.53410(11) 0.7424(3)
H29 H 0.4028 0.5468 0.7251
Br1 Br 0.40934(4) 0.327872(9) 0.57060(2)
O1? O 0.1936(6) 0.42434(15) 0.5561(4)
H30? H 0.2705 0.4046 0.5475
C30? C 0.1729(9) 0.4613(2) 0.4752(5)
H31? H 0.1235 0.4488 0.3981
H32? H 0.2904 0.4772 0.4816
C31? C 0.038(2) 0.4957(7) 0.505(2)
H33? H -0.0646 0.4777 0.5167
H34? H -0.0077 0.5183 0.4433
H35? H 0.0989 0.5131 0.5737
loop_
_geom_bond_atom_site_label_1
_geom_bond_atom_site_label_2
_geom_bond_site_symmetry_1
_geom_bond_site_symmetry_2
C1 H1 1_555 1_555
H2 C1 1_555 1_555
N1 C1 1_555 1_555
N2 C8 1_555 1_555
C2 H3 1_555 1_555
C3 C2 1_555 1_555
H4 C3 1_555 1_555
C4 C3 1_555 1_555
C5 C4 1_555 1_555
C6 C5 1_555 1_555
H5 C6 1_555 1_555
C7 C1 1_555 1_555
C8 N1 1_555 1_555
C9 N2 1_555 1_555
H6 C9 1_555 1_555
H7 C9 1_555 1_555
C10 C9 1_555 1_555
C11 C10 1_555 1_555
H8 C11 1_555 1_555
C12 C11 1_555 1_555
C13 C12 1_555 1_555
C14 C13 1_555 1_555
H9 C14 1_555 1_555
C15 C14 1_555 1_555
H10 C15 1_555 1_555
C16 C4 1_555 1_555
H11 C16 1_555 1_555
C17 C7 1_555 1_555
H12 C17 1_555 1_555
C18 N1 1_555 1_555
H13 C18 1_555 1_555
C19 N2 1_555 1_555
H14 C19 1_555 1_555
C20 C10 1_555 1_555
H15 C20 1_555 1_555
C21 C13 1_555 1_555
H16 C21 1_555 1_555
C22 C12 1_555 1_555
H17 C22 1_555 1_555
C23 C15 1_555 1_555
H18 C23 1_555 1_555
C24 C8 1_555 1_555
H19 C24 1_555 1_555
H20 C24 1_555 1_555
C25 C24 1_555 1_555
H21 C25 1_555 1_555
H22 C25 1_555 1_555
C26 C25 1_555 1_555
H23 C26 1_555 1_555
H24 C26 1_555 1_555
C27 C26 1_555 1_555
H25 C27 1_555 1_555
H26 C27 1_555 1_555
H27 C27 1_555 1_555
C28 C5 1_555 1_555
H28 C28 1_555 1_555
C29 C2 1_555 1_555
H29 C29 1_555 1_555
C6 C7 1_555 1_555
C16 C17 1_555 1_555
C18 C19 1_555 1_555
C20 C21 1_555 1_555
C22 C23 1_555 1_555
C28 C29 1_555 1_555

#END
