
#######################################################################
#
#                 Cambridge Crystallographic Data Centre
#                                CCDC 
#
#######################################################################
#
# If this CIF has been generated from an entry in the Cambridge 
# Structural Database, then it will include bibliographic, chemical, 
# crystal, experimental, refinement or atomic coordinate data resulting 
# from the CCDC's data processing and validation procedures.
#
#######################################################################

data_KAVQAC
_chemical_formula_moiety         'C26 H23 N2 1+,Br1 1-'
_chemical_name_systematic        
'2-methyl-1,3-bis(2-naphthylmethyl)-1H-imidazol-3-ium bromide'
_chemical_properties_biological  'anti-cancer activity'
_symmetry_cell_setting           orthorhombic
_symmetry_space_group_name_H-M   'P c a 21'
_symmetry_Int_Tables_number      29
_space_group_name_Hall           'P 2c -2ac'
loop_
_symmetry_equiv_pos_site_id
_symmetry_equiv_pos_as_xyz
1 x,y,z
2 -x,-y,1/2+z
3 1/2+x,-y,z
4 1/2-x,y,1/2+z
_cell_length_a                   13.7345(13)
_cell_length_b                   13.6050(13)
_cell_length_c                   10.9763(10)
_cell_angle_alpha                90
_cell_angle_beta                 90
_cell_angle_gamma                90
_cell_volume                     2051.01
_exptl_crystal_colour            colorless
_exptl_crystal_description       plate
_chemical_melting_point          '242-245 deg.C'
_cell_formula_units_Z            4
_exptl_crystal_recrystallization_method acetonitrile
loop_
_atom_site_label
_atom_site_type_symbol
_atom_site_fract_x
_atom_site_fract_y
_atom_site_fract_z
Br1 Br 0.808340(14) 0.622114(15) 0.64476(4)
N1 N 0.52261(14) 0.34628(14) 0.45508(18)
N2 N 0.56874(14) 0.49810(13) 0.4639(2)
C1 C 0.50151(17) 0.43720(18) 0.4167(2)
C2 C 0.60372(17) 0.34957(18) 0.5289(2)
H1 H 0.6331 0.2966 0.5678
C3 C 0.63235(17) 0.44424(18) 0.5341(2)
H2 H 0.6854 0.4687 0.5772
C4 C 0.41770(19) 0.4652(2) 0.3393(2)
H3 H 0.4071 0.4154 0.2787
H4 H 0.4311 0.5268 0.3000
H5 H 0.3605 0.4715 0.3890
C5 C 0.46496(18) 0.25738(17) 0.4223(2)
H6 H 0.4697 0.2458 0.3353
H7 H 0.3970 0.2683 0.4421
C6 C 0.50131(17) 0.16857(17) 0.4898(2)
C7 C 0.56685(18) 0.10634(17) 0.4379(2)
H8 H 0.5866 0.1176 0.3581
C8 C 0.60594(17) 0.02462(17) 0.5021(2)
C9 C 0.67617(17) -0.03986(19) 0.4498(3)
H9 H 0.6961 -0.0305 0.3697
C10 C 0.7142(2) -0.11496(18) 0.5163(3)
H10 H 0.7593 -0.1572 0.4808
C11 C 0.68594(16) -0.12947(17) 0.6387(6)
H11 H 0.7133 -0.1805 0.6835
C12 C 0.61875(18) -0.06919(18) 0.6919(2)
H12 H 0.6009 -0.0794 0.7726
C13 C 0.57572(16) 0.00918(16) 0.6246(3)
C14 C 0.50565(17) 0.07306(17) 0.6756(2)
H13 H 0.4837 0.0620 0.7545
C15 C 0.46940(18) 0.15079(18) 0.6111(2)
H14 H 0.4237 0.1922 0.6467
C16 C 0.57641(18) 0.60443(17) 0.4424(2)
H15 H 0.5747 0.6163 0.3553
H16 H 0.6390 0.6270 0.4724
C17 C 0.49718(17) 0.66440(17) 0.5023(2)
C18 C 0.43505(17) 0.62761(18) 0.5889(2)
H17 H 0.4388 0.5616 0.6106
C19 C 0.36483(14) 0.68954(15) 0.6459(3)
C20 C 0.30206(16) 0.65411(19) 0.7386(2)
H18 H 0.3056 0.5887 0.7626
C21 C 0.23614(18) 0.71578(18) 0.7928(2)
H19 H 0.1962 0.6922 0.8547
C22 C 0.22843(18) 0.81465(19) 0.7555(2)
H20 H 0.1830 0.8557 0.7924
C23 C 0.28806(17) 0.85100(18) 0.6644(3)
H21 H 0.2820 0.9160 0.6394
C24 C 0.35776(18) 0.78974(17) 0.6095(2)
C25 C 0.42260(17) 0.82517(17) 0.5177(2)
H22 H 0.4190 0.8904 0.4928
C26 C 0.48982(17) 0.76398(17) 0.4663(2)
H23 H 0.5314 0.7881 0.4065
loop_
_geom_bond_atom_site_label_1
_geom_bond_atom_site_label_2
_geom_bond_site_symmetry_1
_geom_bond_site_symmetry_2
N1 C1 1_555 1_555
N2 C1 1_555 1_555
C1 C4 1_555 1_555
C2 N1 1_555 1_555
H1 C2 1_555 1_555
C3 N2 1_555 1_555
H2 C3 1_555 1_555
C4 H3 1_555 1_555
H4 C4 1_555 1_555
H5 C4 1_555 1_555
C5 N1 1_555 1_555
H6 C5 1_555 1_555
H7 C5 1_555 1_555
C6 C5 1_555 1_555
C7 C6 1_555 1_555
H8 C7 1_555 1_555
C8 C7 1_555 1_555
C9 C8 1_555 1_555
H9 C9 1_555 1_555
C10 C9 1_555 1_555
H10 C10 1_555 1_555
C11 C10 1_555 1_555
H11 C11 1_555 1_555
C12 C11 1_555 1_555
H12 C12 1_555 1_555
C13 C8 1_555 1_555
C14 C13 1_555 1_555
H13 C14 1_555 1_555
C15 C6 1_555 1_555
H14 C15 1_555 1_555
C16 N2 1_555 1_555
H15 C16 1_555 1_555
H16 C16 1_555 1_555
C17 C16 1_555 1_555
C18 C17 1_555 1_555
H17 C18 1_555 1_555
C19 C18 1_555 1_555
C20 C19 1_555 1_555
H18 C20 1_555 1_555
C21 C20 1_555 1_555
H19 C21 1_555 1_555
C22 C21 1_555 1_555
H20 C22 1_555 1_555
C23 C22 1_555 1_555
H21 C23 1_555 1_555
C24 C19 1_555 1_555
C25 C24 1_555 1_555
H22 C25 1_555 1_555
C26 C17 1_555 1_555
H23 C26 1_555 1_555
C2 C3 1_555 1_555
C12 C13 1_555 1_555
C14 C15 1_555 1_555
C23 C24 1_555 1_555
C25 C26 1_555 1_555

#END
