
#######################################################################
#
#                 Cambridge Crystallographic Data Centre
#                                CCDC 
#
#######################################################################
#
# If this CIF has been generated from an entry in the Cambridge 
# Structural Database, then it will include bibliographic, chemical, 
# crystal, experimental, refinement or atomic coordinate data resulting 
# from the CCDC's data processing and validation procedures.
#
#######################################################################

data_KAVQEG
_chemical_formula_moiety         'C28 H27 N2 1+,Cl1 O4 1-'
_chemical_name_systematic        
'1,3-bis(2-naphthylmethyl)-2-propyl-1H-imidazol-3-ium perchlorate'
_chemical_properties_biological  'anti-cancer activity'
_symmetry_cell_setting           monoclinic
_symmetry_space_group_name_H-M   'P 21/c'
_symmetry_Int_Tables_number      14
_space_group_name_Hall           '-P 2ybc'
loop_
_symmetry_equiv_pos_site_id
_symmetry_equiv_pos_as_xyz
1 x,y,z
2 -x,1/2+y,1/2-z
3 -x,-y,-z
4 x,1/2-y,1/2+z
_cell_length_a                   13.5183(9)
_cell_length_b                   22.2921(15)
_cell_length_c                   7.9695(6)
_cell_angle_alpha                90
_cell_angle_beta                 90.528(3)
_cell_angle_gamma                90
_cell_volume                     2401.52
_exptl_crystal_colour            colorless
_exptl_crystal_description       plate
_chemical_melting_point          '209-211 deg.C'
_cell_formula_units_Z            4
_exptl_crystal_recrystallization_method acetonitrile
loop_
_atom_site_label
_atom_site_type_symbol
_atom_site_fract_x
_atom_site_fract_y
_atom_site_fract_z
O1 O -0.0105(3) 0.6658(2) 0.3878(4)
O2 O 0.1353(2) 0.62036(16) 0.2959(4)
O3 O 0.0596(3) 0.69503(14) 0.1335(4)
Cl1 Cl 0.04250(3) 0.64547(2) 0.26107(6)
O4 O 0.00017(15) 0.60182(7) 0.1511(2)
N1 N 0.93593(12) 0.37415(7) 0.2365(2)
N2 N 1.04829(11) 0.44232(7) 0.22056(19)
C1 C 1.03085(13) 0.38348(8) 0.2010(2)
C2 C 0.89294(17) 0.42797(10) 0.2806(4)
H1 H 0.8261 0.4339 0.3123
C3 C 0.96278(15) 0.47031(9) 0.2705(3)
H2 H 0.9548 0.5118 0.2935
C4 C 0.88704(18) 0.31453(10) 0.2327(4)
H3 H 0.9144 0.2891 0.3239
H4 H 0.9007 0.2945 0.1245
C5 C 0.77684(15) 0.32098(8) 0.2541(3)
C6 C 0.73609(13) 0.31052(8) 0.4068(3)
H5 H 0.7773 0.2978 0.4972
C7 C 0.63376(13) 0.31820(7) 0.4338(2)
C8 C 0.59190(17) 0.30848(9) 0.5939(3)
H6 H 0.6331 0.2960 0.6846
C9 C 0.4940(2) 0.31680(10) 0.6193(4)
H7 H 0.4669 0.3100 0.7272
C10 C 0.43302(17) 0.33531(10) 0.4879(4)
H8 H 0.3644 0.3411 0.5071
C11 C 0.47025(16) 0.34531(10) 0.3316(4)
H9 H 0.4272 0.3579 0.2435
C12 C 0.57301(14) 0.33707(8) 0.2989(3)
C13 C 0.61643(19) 0.34667(9) 0.1406(3)
H10 H 0.5761 0.3587 0.0484
C14 C 0.7159(2) 0.33888(9) 0.1184(3)
H11 H 0.7440 0.3455 0.0112
C15 C 1.14096(13) 0.47468(8) 0.1912(2)
H12 H 1.1250 0.5158 0.1527
H13 H 1.1771 0.4544 0.0998
C16 C 1.20815(13) 0.47882(7) 0.3429(2)
C17 C 1.19465(13) 0.44598(8) 0.4862(2)
H14 H 1.1384 0.4206 0.4949
C18 C 1.26313(13) 0.44920(8) 0.6217(2)
C19 C 1.25376(14) 0.41255(8) 0.7657(2)
H15 H 1.1986 0.3864 0.7753
C20 C 1.32338(15) 0.41441(9) 0.8911(2)
H16 H 1.3174 0.3886 0.9853
C21 C 1.40425(15) 0.45439(9) 0.8815(3)
H17 H 1.4517 0.4558 0.9701
C22 C 1.41443(14) 0.49097(9) 0.7451(3)
H18 H 1.4685 0.5181 0.7404
C23 C 1.34523(13) 0.48887(8) 0.6105(2)
C24 C 1.35543(13) 0.52412(8) 0.4637(2)
H19 H 1.4086 0.5518 0.4558
C25 C 1.28983(13) 0.51880(8) 0.3336(2)
H20 H 1.2988 0.5422 0.2352
C26 C 1.10265(13) 0.33679(8) 0.1473(2)
H21 H 1.1520 0.3558 0.0731
H22 H 1.0667 0.3063 0.0802
C27 C 1.15734(17) 0.30522(9) 0.2898(2)
H23 H 1.1088 0.2858 0.3646
H24 H 1.1948 0.3352 0.3567
C28 C 1.22858(18) 0.25799(9) 0.2231(3)
H25 H 1.1912 0.2271 0.1622
H26 H 1.2646 0.2395 0.3171
H27 H 1.2757 0.2770 0.1470
O5? O -0.0308(3) 0.69131(17) 0.2817(7)
O6? O 0.0502(3) 0.6146(2) 0.4317(4)
O7? O 0.1366(2) 0.67268(14) 0.2361(4)
loop_
_geom_bond_atom_site_label_1
_geom_bond_atom_site_label_2
_geom_bond_site_symmetry_1
_geom_bond_site_symmetry_2
O1 Cl1 1_555 1_555
O2 Cl1 1_555 1_555
O3 Cl1 1_555 1_555
Cl1 O4 1_555 1_555
N1 C1 1_555 1_555
N2 C1 1_555 1_555
C1 C26 1_555 1_555
C2 N1 1_555 1_555
H1 C2 1_555 1_555
C3 N2 1_555 1_555
H2 C3 1_555 1_555
C4 N1 1_555 1_555
H3 C4 1_555 1_555
H4 C4 1_555 1_555
C5 C4 1_555 1_555
C6 C5 1_555 1_555
H5 C6 1_555 1_555
C7 C6 1_555 1_555
C8 C7 1_555 1_555
H6 C8 1_555 1_555
C9 C8 1_555 1_555
H7 C9 1_555 1_555
C10 C9 1_555 1_555
H8 C10 1_555 1_555
C11 C10 1_555 1_555
H9 C11 1_555 1_555
C12 C7 1_555 1_555
C13 C12 1_555 1_555
H10 C13 1_555 1_555
C14 C5 1_555 1_555
H11 C14 1_555 1_555
C15 N2 1_555 1_555
H12 C15 1_555 1_555
H13 C15 1_555 1_555
C16 C15 1_555 1_555
C17 C16 1_555 1_555
H14 C17 1_555 1_555
C18 C17 1_555 1_555
C19 C18 1_555 1_555
H15 C19 1_555 1_555
C20 C19 1_555 1_555
H16 C20 1_555 1_555
C21 C20 1_555 1_555
H17 C21 1_555 1_555
C22 C21 1_555 1_555
H18 C22 1_555 1_555
C23 C18 1_555 1_555
C24 C23 1_555 1_555
H19 C24 1_555 1_555
C25 C16 1_555 1_555
H20 C25 1_555 1_555
C26 H21 1_555 1_555
H22 C26 1_555 1_555
C27 C26 1_555 1_555
H23 C27 1_555 1_555
H24 C27 1_555 1_555
C28 C27 1_555 1_555
H25 C28 1_555 1_555
H26 C28 1_555 1_555
H27 C28 1_555 1_555
C2 C3 1_555 1_555
C11 C12 1_555 1_555
C13 C14 1_555 1_555
C22 C23 1_555 1_555
C24 C25 1_555 1_555

#END
