
#######################################################################
#
#                 Cambridge Crystallographic Data Centre
#                                CCDC 
#
#######################################################################
#
# If this CIF has been generated from an entry in the Cambridge 
# Structural Database, then it will include bibliographic, chemical, 
# crystal, experimental, refinement or atomic coordinate data resulting 
# from the CCDC's data processing and validation procedures.
#
#######################################################################

data_KAVQOQ
_chemical_formula_moiety         'C28 H27 N2 1+,Br1 1-'
_chemical_name_systematic        
'2-isopropyl-1,3-bis(2-naphthylmethyl)-1H-imidazol-3-ium bromide'
_chemical_properties_biological  'anti-cancer activity'
_symmetry_cell_setting           monoclinic
_symmetry_space_group_name_H-M   'P 21/c'
_symmetry_Int_Tables_number      14
_space_group_name_Hall           '-P 2ybc'
loop_
_symmetry_equiv_pos_site_id
_symmetry_equiv_pos_as_xyz
1 x,y,z
2 -x,1/2+y,1/2-z
3 -x,-y,-z
4 x,1/2-y,1/2+z
_cell_length_a                   8.05500(10)
_cell_length_b                   21.7876(4)
_cell_length_c                   12.8572(2)
_cell_angle_alpha                90
_cell_angle_beta                 100.5490(10)
_cell_angle_gamma                90
_cell_volume                     2218.29
_exptl_crystal_colour            colorless
_exptl_crystal_description       block
_chemical_melting_point          '202-204 deg.C'
_cell_formula_units_Z            4
_exptl_crystal_recrystallization_method acetonitrile
loop_
_atom_site_label
_atom_site_type_symbol
_atom_site_fract_x
_atom_site_fract_y
_atom_site_fract_z
Br1 Br 0.22641(3) 0.581221(14) 0.83491(2)
N1 N 0.8541(3) 0.50372(11) 0.73393(17)
N2 N 0.7472(3) 0.53177(11) 0.86821(18)
C1 C 0.7598(3) 0.54714(13) 0.7685(2)
C2 C 0.8351(3) 0.47836(13) 0.8956(2)
H1 H 0.8461 0.4576 0.9615
C3 C 0.9028(3) 0.46075(13) 0.8123(2)
H2 H 0.9710 0.4256 0.8082
C4 C 0.9153(4) 0.50625(15) 0.6316(2)
H3 H 0.9824 0.5441 0.6297
H4 H 0.8167 0.5085 0.5731
C5 C 1.0213(4) 0.45203(14) 0.6139(2)
C6 C 1.1920(4) 0.45279(14) 0.6510(2)
H5 H 1.2420 0.4878 0.6883
C7 C 1.2952(3) 0.40228(13) 0.6346(2)
C8 C 1.4709(4) 0.40114(14) 0.6773(2)
H6 H 1.5225 0.4356 0.7156
C9 C 1.5658(4) 0.35108(15) 0.6637(2)
H7 H 1.6830 0.3509 0.6930
C10 C 1.4924(4) 0.29961(15) 0.6069(2)
H8 H 1.5600 0.2649 0.5983
C11 C 1.3242(4) 0.29957(14) 0.5641(2)
H9 H 1.2761 0.2650 0.5247
C12 C 1.2199(4) 0.35061(14) 0.5776(2)
C13 C 1.0438(4) 0.35134(15) 0.5392(2)
H10 H 0.9919 0.3172 0.5003
C14 C 0.9474(4) 0.40019(15) 0.5570(2)
H11 H 0.8292 0.3995 0.5310
C15 C 0.6595(3) 0.56393(14) 0.9434(2)
H12 H 0.6250 0.5333 0.9922
H13 H 0.5555 0.5829 0.9033
C16 C 0.7619(3) 0.61278(13) 1.0077(2)
C17 C 0.9171(3) 0.63257(13) 0.9920(2)
H14 H 0.9635 0.6160 0.9353
C18 C 1.0096(4) 0.67723(13) 1.0587(2)
C19 C 1.1714(4) 0.69746(14) 1.0443(2)
H15 H 1.2197 0.6810 0.9882
C20 C 1.2581(4) 0.74031(14) 1.1102(2)
H16 H 1.3671 0.7529 1.1004
C21 C 1.1877(4) 0.76599(15) 1.1926(2)
H17 H 1.2477 0.7967 1.2366
C22 C 1.0336(4) 0.74700(15) 1.2096(2)
H18 H 0.9888 0.7639 1.2667
C23 C 0.9389(4) 0.70233(14) 1.1431(2)
C24 C 0.7779(4) 0.68233(14) 1.1562(2)
H19 H 0.7287 0.6993 1.2115
C25 C 0.6910(4) 0.63914(14) 1.0912(2)
H20 H 0.5823 0.6265 1.1016
C26 C 0.6842(4) 0.59932(15) 0.6985(3)
H21 H 0.7696 0.6092 0.6535
C27 C 0.6527(5) 0.65812(17) 0.7500(3)
H22 H 0.5553 0.6535 0.7852
H23 H 0.6295 0.6905 0.6964
H24 H 0.7525 0.6692 0.8025
C28 C 0.5277(3) 0.57787(14) 0.6213(2)
H25 H 0.5545 0.5404 0.5854
H26 H 0.4918 0.6100 0.5687
H27 H 0.4364 0.5694 0.6602
loop_
_geom_bond_atom_site_label_1
_geom_bond_atom_site_label_2
_geom_bond_site_symmetry_1
_geom_bond_site_symmetry_2
N1 C1 1_555 1_555
N2 C1 1_555 1_555
C1 C26 1_555 1_555
C2 N2 1_555 1_555
H1 C2 1_555 1_555
C3 N1 1_555 1_555
H2 C3 1_555 1_555
C4 N1 1_555 1_555
H3 C4 1_555 1_555
H4 C4 1_555 1_555
C5 C4 1_555 1_555
C6 C5 1_555 1_555
H5 C6 1_555 1_555
C7 C6 1_555 1_555
C8 C7 1_555 1_555
H6 C8 1_555 1_555
C9 C8 1_555 1_555
H7 C9 1_555 1_555
C10 C9 1_555 1_555
H8 C10 1_555 1_555
C11 C10 1_555 1_555
H9 C11 1_555 1_555
C12 C7 1_555 1_555
C13 C12 1_555 1_555
H10 C13 1_555 1_555
C14 C5 1_555 1_555
H11 C14 1_555 1_555
C15 N2 1_555 1_555
H12 C15 1_555 1_555
H13 C15 1_555 1_555
C16 C15 1_555 1_555
C17 C16 1_555 1_555
H14 C17 1_555 1_555
C18 C17 1_555 1_555
C19 C18 1_555 1_555
H15 C19 1_555 1_555
C20 C19 1_555 1_555
H16 C20 1_555 1_555
C21 C20 1_555 1_555
H17 C21 1_555 1_555
C22 C21 1_555 1_555
H18 C22 1_555 1_555
C23 C18 1_555 1_555
C24 C23 1_555 1_555
H19 C24 1_555 1_555
C25 C16 1_555 1_555
H20 C25 1_555 1_555
C26 H21 1_555 1_555
C27 C26 1_555 1_555
H22 C27 1_555 1_555
H23 C27 1_555 1_555
H24 C27 1_555 1_555
C28 C26 1_555 1_555
H25 C28 1_555 1_555
H26 C28 1_555 1_555
H27 C28 1_555 1_555
C2 C3 1_555 1_555
C11 C12 1_555 1_555
C13 C14 1_555 1_555
C22 C23 1_555 1_555
C24 C25 1_555 1_555

#END
