
#######################################################################
#
#                 Cambridge Crystallographic Data Centre
#                                CCDC 
#
#######################################################################
#
# If this CIF has been generated from an entry in the Cambridge 
# Structural Database, then it will include bibliographic, chemical, 
# crystal, experimental, refinement or atomic coordinate data resulting 
# from the CCDC's data processing and validation procedures.
#
#######################################################################

data_KAVSOS
_chemical_formula_moiety         'C34 H41 N2 O1 1+,C1 F3 O3 S1 1-'
_chemical_name_systematic        
'4-benzylidene-1,3-bis(2,6-diisopropylphenyl)-5-oxo-4,5-dihydro-1H-imidazol-3-ium trifluoromethanesulfonate unknown solvate'
_symmetry_cell_setting           monoclinic
_symmetry_space_group_name_H-M   'P 21/c'
_symmetry_Int_Tables_number      14
_space_group_name_Hall           '-P 2ybc'
loop_
_symmetry_equiv_pos_site_id
_symmetry_equiv_pos_as_xyz
1 x,y,z
2 -x,1/2+y,1/2-z
3 -x,-y,-z
4 x,1/2-y,1/2+z
_cell_length_a                   9.0556(16)
_cell_length_b                   18.043(3)
_cell_length_c                   23.391(4)
_cell_angle_alpha                90
_cell_angle_beta                 91.684(3)
_cell_angle_gamma                90
_cell_volume                     3820.21
_exptl_crystal_colour            yellow
_exptl_crystal_description       block
_cell_formula_units_Z            4
loop_
_atom_site_label
_atom_site_type_symbol
_atom_site_fract_x
_atom_site_fract_y
_atom_site_fract_z
S1 S 0.15870(15) 0.86464(8) 0.28744(6)
O1 O 0.0628(6) 0.8120(2) 0.25707(18)
O2 O 0.1383(9) 0.9327(3) 0.2658(3)
O3 O 0.3018(5) 0.8255(3) 0.2887(3)
F1 F 0.0921(6) 0.7933(2) 0.37911(14)
F2 F 0.1909(11) 0.9002(4) 0.3896(3)
F3 F -0.0241(7) 0.8940(3) 0.3666(3)
C1 C 0.0863(12) 0.8558(4) 0.3552(3)
N1 N 0.8250(3) 0.92690(14) 0.13722(10)
N2 N 0.8568(3) 0.80874(13) 0.12150(11)
O4 O 0.6715(3) 0.95953(11) 0.06010(10)
C2 C 0.8889(3) 0.86470(16) 0.15548(13)
C3 C 0.7398(3) 0.91257(16) 0.08590(13)
C4 C 0.7610(3) 0.83305(16) 0.07579(13)
C5 C 0.8346(3) 0.99881(16) 0.16543(13)
C6 C 0.9292(4) 1.05124(17) 0.14435(14)
C7 C 0.9330(5) 1.1194(2) 0.17235(18)
H1 H 0.9955 1.1569 0.1591
C8 C 0.8499(6) 1.1328(2) 0.2176(2)
H2 H 0.8554 1.1792 0.2358
C9 C 0.7576(5) 1.0799(2) 0.23756(19)
H3 H 0.7003 1.0909 0.2693
C10 C 0.7451(4) 1.0092(2) 0.21212(15)
C11 C 1.0276(5) 1.0355(2) 0.09504(18)
H4 H 0.9974 0.9869 0.0789
C12 C 1.1903(6) 1.0282(4) 0.1159(3)
H5 H 1.2234 1.0748 0.1326
H6 H 1.2512 1.0159 0.0838
H7 H 1.1986 0.9893 0.1445
C13 C 1.0091(7) 1.0922(3) 0.0476(2)
H8 H 0.9070 1.1084 0.0451
H9 H 1.0361 1.0701 0.0116
H10 H 1.0725 1.1345 0.0559
C14 C 0.6400(5) 0.9517(3) 0.23259(19)
H11 H 0.6810 0.9026 0.2229
C15 C 0.6210(7) 0.9536(3) 0.2974(2)
H12 H 0.7172 0.9571 0.3166
H13 H 0.5719 0.9087 0.3094
H14 H 0.5618 0.9963 0.3073
C16 C 0.4914(6) 0.9588(5) 0.2019(3)
H15 H 0.4421 1.0032 0.2149
H16 H 0.4314 0.9158 0.2102
H17 H 0.5053 0.9620 0.1610
C17 C 0.7132(4) 0.78571(16) 0.03433(14)
H18 H 0.7501 0.7374 0.0393
C18 C 0.6182(4) 0.79353(18) -0.01563(14)
C19 C 0.5387(4) 0.85716(18) -0.03093(15)
H19 H 0.5447 0.8996 -0.0077
C20 C 0.4511(4) 0.8576(2) -0.08042(17)
H20 H 0.3999 0.9010 -0.0910
C21 C 0.4377(5) 0.7968(2) -0.11373(17)
H21 H 0.3774 0.7980 -0.1471
C22 C 0.5131(5) 0.7323(3) -0.09870(19)
H22 H 0.5033 0.6897 -0.1216
C23 C 0.6019(5) 0.7313(2) -0.05019(19)
H23 H 0.6529 0.6876 -0.0401
C24 C 0.9094(4) 0.73384(16) 0.13038(14)
C25 C 1.0404(4) 0.7133(2) 0.10579(16)
C26 C 1.0860(6) 0.6400(3) 0.1163(2)
H24 H 1.1756 0.6234 0.1016
C27 C 1.0038(8) 0.5925(2) 0.1472(3)
H25 H 1.0370 0.5437 0.1530
C28 C 0.8771(7) 0.6138(3) 0.1695(3)
H26 H 0.8220 0.5792 0.1901
C29 C 0.8228(5) 0.6872(2) 0.1632(2)
C30 C 1.1322(5) 0.7666(3) 0.07124(19)
H27 H 1.0655 0.8069 0.0579
C31 C 1.2563(7) 0.8026(4) 0.1076(3)
H28 H 1.2137 0.8348 0.1359
H29 H 1.3192 0.8314 0.0832
H30 H 1.3144 0.7643 0.1267
C32 C 1.1925(9) 0.7305(4) 0.0191(3)
H31 H 1.2379 0.6836 0.0296
H32 H 1.2658 0.7626 0.0026
H33 H 1.1128 0.7219 -0.0088
C33 C 0.6814(6) 0.7109(3) 0.1881(3)
H34 H 0.6612 0.7618 0.1741
C34 C 0.5525(8) 0.6621(5) 0.1663(6)
H35 H 0.5260 0.6757 0.1272
H36 H 0.4681 0.6694 0.1903
H37 H 0.5821 0.6104 0.1676
C35 C 0.6955(9) 0.7154(7) 0.2526(4)
H38 H 0.7565 0.6748 0.2669
H39 H 0.5983 0.7120 0.2688
H40 H 0.7409 0.7621 0.2636
H41 H 0.942(4) 0.8595(18) 0.1888(16)
loop_
_geom_bond_atom_site_label_1
_geom_bond_atom_site_label_2
_geom_bond_site_symmetry_1
_geom_bond_site_symmetry_2
S1 O1 1_555 1_555
O2 S1 1_555 1_555
O3 S1 1_555 1_555
F1 C1 1_555 1_555
F2 C1 1_555 1_555
F3 C1 1_555 1_555
C1 S1 1_555 1_555
N1 C2 1_555 1_555
N2 C2 1_555 1_555
O4 C3 1_555 1_555
C2 H41 1_555 1_555
C3 N1 1_555 1_555
C4 N2 1_555 1_555
C5 N1 1_555 1_555
C6 C5 1_555 1_555
C7 C6 1_555 1_555
H1 C7 1_555 1_555
C8 C7 1_555 1_555
H2 C8 1_555 1_555
C9 C8 1_555 1_555
H3 C9 1_555 1_555
C10 C5 1_555 1_555
C11 C6 1_555 1_555
H4 C11 1_555 1_555
C12 C11 1_555 1_555
H5 C12 1_555 1_555
H6 C12 1_555 1_555
H7 C12 1_555 1_555
C13 C11 1_555 1_555
H8 C13 1_555 1_555
H9 C13 1_555 1_555
H10 C13 1_555 1_555
C14 C10 1_555 1_555
H11 C14 1_555 1_555
C15 C14 1_555 1_555
H12 C15 1_555 1_555
H13 C15 1_555 1_555
H14 C15 1_555 1_555
C16 C14 1_555 1_555
H15 C16 1_555 1_555
H16 C16 1_555 1_555
H17 C16 1_555 1_555
C17 C4 1_555 1_555
H18 C17 1_555 1_555
C18 C17 1_555 1_555
C19 C18 1_555 1_555
H19 C19 1_555 1_555
C20 C19 1_555 1_555
H20 C20 1_555 1_555
C21 C20 1_555 1_555
H21 C21 1_555 1_555
C22 C21 1_555 1_555
H22 C22 1_555 1_555
C23 C18 1_555 1_555
H23 C23 1_555 1_555
C24 N2 1_555 1_555
C25 C24 1_555 1_555
C26 C25 1_555 1_555
H24 C26 1_555 1_555
C27 C26 1_555 1_555
H25 C27 1_555 1_555
C28 C27 1_555 1_555
H26 C28 1_555 1_555
C29 C24 1_555 1_555
C30 C25 1_555 1_555
H27 C30 1_555 1_555
C31 C30 1_555 1_555
H28 C31 1_555 1_555
H29 C31 1_555 1_555
H30 C31 1_555 1_555
C32 C30 1_555 1_555
H31 C32 1_555 1_555
H32 C32 1_555 1_555
H33 C32 1_555 1_555
C33 C29 1_555 1_555
H34 C33 1_555 1_555
C34 C33 1_555 1_555
H35 C34 1_555 1_555
H36 C34 1_555 1_555
H37 C34 1_555 1_555
C35 C33 1_555 1_555
H38 C35 1_555 1_555
H39 C35 1_555 1_555
H40 C35 1_555 1_555
C3 C4 1_555 1_555
C9 C10 1_555 1_555
C22 C23 1_555 1_555
C28 C29 1_555 1_555

#END
