
#######################################################################
#
#                 Cambridge Crystallographic Data Centre
#                                CCDC 
#
#######################################################################
#
# If this CIF has been generated from an entry in the Cambridge 
# Structural Database, then it will include bibliographic, chemical, 
# crystal, experimental, refinement or atomic coordinate data resulting 
# from the CCDC's data processing and validation procedures.
#
#######################################################################

data_KAVTEG
_chemical_formula_moiety         'C9 H13 N1 O5'
_chemical_name_systematic        
'(4S*,6R*)-(8-Oxo-3,9-dioxa-1-aza-4-bicyclo(4.3.0)nonanyl)methyl acetate'
_symmetry_cell_setting           monoclinic
_symmetry_space_group_name_H-M   'C 2/c'
_symmetry_Int_Tables_number      15
_space_group_name_Hall           '-C 2yn'
loop_
_symmetry_equiv_pos_site_id
_symmetry_equiv_pos_as_xyz
1 x,y,z
2 1/2+x,1/2+y,z
3 -x,y,1/2-z
4 1/2-x,1/2+y,1/2-z
5 -x,-y,-z
6 1/2-x,1/2-y,-z
7 x,-y,1/2+z
8 1/2+x,1/2-y,1/2+z
_cell_length_a                   27.192(4)
_cell_length_b                   5.714(2)
_cell_length_c                   15.257(3)
_cell_angle_alpha                90
_cell_angle_beta                 119.57(2)
_cell_angle_gamma                90
_cell_volume                     2061.8
_cell_formula_units_Z            8
loop_
_atom_site_label
_atom_site_type_symbol
_atom_site_fract_x
_atom_site_fract_y
_atom_site_fract_z
N1 N 0.19055(7) 1.0902(4) 0.9112(1)
C1 C 0.1526(1) 0.9030(5) 0.9019(2)
O1 O 0.12931(7) 0.7755(3) 0.8111(1)
C2 C 0.09824(9) 0.9228(5) 0.7260(2)
C3 C 0.13847(9) 1.1017(5) 0.7219(2)
C4 C 0.1697(1) 1.2377(5) 0.8202(2)
C5 C 0.2249(1) 1.3392(5) 0.8365(2)
C6 C 0.2645(1) 1.1379(6) 0.8830(2)
O2 O 0.30999(7) 1.1032(5) 0.8912(1)
O3 O 0.24162(6) 0.9814(3) 0.9183(1)
C7 C 0.0733(1) 0.7707(5) 0.6335(2)
O4 O 0.03633(6) 0.5927(3) 0.6361(4)
C8 C -0.0180(1) 0.6490(5) 0.6004(2)
O5 O -0.03540(8) 0.8423(4) 0.5700(2)
C9 C -0.0517(1) 0.4543(5) 0.6066(2)
H1 H 0.122 0.969 0.907
H2 H 0.173 0.796 0.956
H3 H 0.069 1.003 0.730
H4 H 0.118 1.206 0.667
H5 H 0.166 1.019 0.712
H6 H 0.142 1.349 0.812
H7 H 0.236 1.469 0.881
H8 H 0.223 1.386 0.775
H9 H 0.104 0.697 0.630
H10 H 0.053 0.865 0.575
H11 H -0.089 0.458 0.550
H12 H -0.054 0.470 0.666
H13 H -0.034 0.310 0.608
loop_
_geom_bond_atom_site_label_1
_geom_bond_atom_site_label_2
_geom_bond_site_symmetry_1
_geom_bond_site_symmetry_2
N1 C1 1_555 1_555
C1 O1 1_555 1_555
O1 C2 1_555 1_555
C2 C3 1_555 1_555
C3 C4 1_555 1_555
C4 N1 1_555 1_555
C5 C4 1_555 1_555
C6 C5 1_555 1_555
O2 C6 1_555 1_555
O3 N1 1_555 1_555
C7 C2 1_555 1_555
O4 C7 1_555 1_555
C8 O4 1_555 1_555
O5 C8 1_555 1_555
C9 C8 1_555 1_555
H1 C1 1_555 1_555
H2 C1 1_555 1_555
H3 C2 1_555 1_555
H4 C3 1_555 1_555
H5 C3 1_555 1_555
H6 C4 1_555 1_555
H7 C5 1_555 1_555
H8 C5 1_555 1_555
H9 C7 1_555 1_555
H10 C7 1_555 1_555
H11 C9 1_555 1_555
H12 C9 1_555 1_555
H13 C9 1_555 1_555
C6 O3 1_555 1_555

#END
