
#######################################################################
#
#                 Cambridge Crystallographic Data Centre
#                                CCDC 
#
#######################################################################
#
# If this CIF has been generated from an entry in the Cambridge 
# Structural Database, then it will include bibliographic, chemical, 
# crystal, experimental, refinement or atomic coordinate data resulting 
# from the CCDC's data processing and validation procedures.
#
#######################################################################

data_KAVVIP
_chemical_formula_moiety         'C20 H17 N1 O1'
_chemical_name_systematic        
1,3-dimethyl-1-phenyl-1,3-dihydro-2H-benzo[e]indol-2-one
_symmetry_cell_setting           orthorhombic
_symmetry_space_group_name_H-M   'P 21 21 21'
_symmetry_Int_Tables_number      19
_space_group_name_Hall           'P 2ac 2ab'
loop_
_symmetry_equiv_pos_site_id
_symmetry_equiv_pos_as_xyz
1 x,y,z
2 1/2-x,-y,1/2+z
3 -x,1/2+y,1/2-z
4 1/2+x,1/2-y,-z
_cell_length_a                   9.66518(6)
_cell_length_b                   10.66585(6)
_cell_length_c                   14.86892(9)
_cell_angle_alpha                90
_cell_angle_beta                 90
_cell_angle_gamma                90
_cell_volume                     1532.8
_exptl_crystal_colour            colorless
_exptl_crystal_description       prism
_cell_formula_units_Z            4
loop_
_atom_site_label
_atom_site_type_symbol
_atom_site_fract_x
_atom_site_fract_y
_atom_site_fract_z
O1 O 0.24839(10) 0.21579(10) 0.40744(7)
N1 N 0.47041(13) 0.14536(11) 0.43115(8)
C1 C 0.44777(14) 0.31765(13) 0.33217(9)
C2 C 0.59677(14) 0.27550(12) 0.34097(9)
C3 C 0.71815(14) 0.32200(12) 0.30023(9)
C4 C 0.72149(15) 0.42531(13) 0.23996(9)
H1 H 0.638403 0.468981 0.226410
C5 C 0.84307(16) 0.46254(13) 0.20125(10)
H2 H 0.843273 0.531009 0.160385
C6 C 0.96844(16) 0.40035(14) 0.22133(11)
H3 H 1.052037 0.426637 0.193518
C7 C 0.96975(15) 0.30237(14) 0.28073(9)
H4 H 1.054708 0.262087 0.294764
C8 C 0.84542(14) 0.26036(13) 0.32156(9)
C9 C 0.84638(14) 0.15802(13) 0.38255(9)
H5 H 0.931907 0.119004 0.396976
C10 C 0.72734(15) 0.11406(12) 0.42111(9)
H6 H 0.728570 0.044975 0.461433
C11 C 0.60332(14) 0.17508(13) 0.39876(9)
C12 C 0.37277(14) 0.22231(13) 0.39443(9)
C13 C 0.44111(17) 0.04418(14) 0.49340(11)
H7 H 0.342378 0.044441 0.508390
H8 H 0.495611 0.055785 0.548349
H9 H 0.465547 -0.036091 0.465531
C14 C 0.39152(15) 0.29868(14) 0.23601(9)
H10 H 0.290177 0.301280 0.237091
H11 H 0.422206 0.217199 0.212988
H12 H 0.426439 0.365503 0.196886
C15 C 0.42035(14) 0.44868(12) 0.37041(9)
C16 C 0.30357(16) 0.51725(14) 0.34557(10)
H13 H 0.243489 0.485418 0.300452
C17 C 0.27410(18) 0.63154(14) 0.38605(11)
H14 H 0.194049 0.677068 0.368506
C18 C 0.36058(18) 0.67954(14) 0.45176(11)
H15 H 0.339482 0.757167 0.479923
C19 C 0.47819(17) 0.61344(14) 0.47616(10)
H16 H 0.538915 0.646732 0.520365
C20 C 0.50781(15) 0.49833(13) 0.43613(9)
H17 H 0.588172 0.453279 0.453709
loop_
_geom_bond_atom_site_label_1
_geom_bond_atom_site_label_2
_geom_bond_site_symmetry_1
_geom_bond_site_symmetry_2
O1 C12 1_555 1_555
N1 C11 1_555 1_555
C1 C2 1_555 1_555
C2 C3 1_555 1_555
C3 C4 1_555 1_555
C4 H1 1_555 1_555
C5 C4 1_555 1_555
H2 C5 1_555 1_555
C6 C5 1_555 1_555
H3 C6 1_555 1_555
C7 C6 1_555 1_555
H4 C7 1_555 1_555
C8 C3 1_555 1_555
C9 C8 1_555 1_555
H5 C9 1_555 1_555
C10 C9 1_555 1_555
H6 C10 1_555 1_555
C11 C2 1_555 1_555
C12 N1 1_555 1_555
C13 N1 1_555 1_555
H7 C13 1_555 1_555
H8 C13 1_555 1_555
H9 C13 1_555 1_555
C14 C1 1_555 1_555
H10 C14 1_555 1_555
H11 C14 1_555 1_555
H12 C14 1_555 1_555
C15 C1 1_555 1_555
C16 C15 1_555 1_555
H13 C16 1_555 1_555
C17 C16 1_555 1_555
H14 C17 1_555 1_555
C18 C17 1_555 1_555
H15 C18 1_555 1_555
C19 C18 1_555 1_555
H16 C19 1_555 1_555
C20 C15 1_555 1_555
H17 C20 1_555 1_555
C1 C12 1_555 1_555
C7 C8 1_555 1_555
C10 C11 1_555 1_555
C19 C20 1_555 1_555

#END
