
#######################################################################
#
#                 Cambridge Crystallographic Data Centre
#                                CCDC 
#
#######################################################################
#
# If this CIF has been generated from an entry in the Cambridge 
# Structural Database, then it will include bibliographic, chemical, 
# crystal, experimental, refinement or atomic coordinate data resulting 
# from the CCDC's data processing and validation procedures.
#
#######################################################################

data_KAVYUE
_chemical_formula_moiety         'C14 H17 N3'
_chemical_name_systematic        1-(hex-1-en-2-yl)-4-phenyl-1H-1,2,3-triazole
_symmetry_cell_setting           triclinic
_symmetry_space_group_name_H-M   'P -1'
_symmetry_Int_Tables_number      2
_space_group_name_Hall           '-P 1'
loop_
_symmetry_equiv_pos_site_id
_symmetry_equiv_pos_as_xyz
1 x,y,z
2 -x,-y,-z
_cell_length_a                   5.8794(4)
_cell_length_b                   7.4664(7)
_cell_length_c                   15.5877(15)
_cell_angle_alpha                92.948(8)
_cell_angle_beta                 93.410(7)
_cell_angle_gamma                110.440(8)
_cell_volume                     638.141
_exptl_crystal_colour            colorless
_exptl_crystal_description       plate
_chemical_melting_point          '78.8-79.9 deg.C'
_cell_formula_units_Z            2
loop_
_atom_site_label
_atom_site_type_symbol
_atom_site_fract_x
_atom_site_fract_y
_atom_site_fract_z
N1 N 0.7070(2) 0.25784(18) 0.45509(9)
N2 N 0.9211(2) 0.2483(2) 0.43242(9)
N3 N 0.9195(3) 0.2496(2) 0.34873(10)
C1 C 0.7045(3) 0.2616(2) 0.31650(11)
C2 C 0.5690(3) 0.2669(2) 0.38404(11)
H1 H 0.4145 0.2751 0.3817
C3 C 0.6532(3) 0.2533(2) 0.54355(11)
C4 C 0.8466(3) 0.2354(2) 0.60539(11)
H2 H 0.9980 0.3389 0.5985
H3 H 0.8701 0.1159 0.5901
C5 C 0.6461(3) 0.2650(2) 0.22385(11)
C6 C 0.7962(3) 0.2399(2) 0.69962(12)
H4 H 0.7888 0.3642 0.7172
H5 H 0.6387 0.1436 0.7065
C7 C 0.7733(4) 0.2045(3) 0.16330(12)
H6 H 0.8967 0.1607 0.1817
C8 C 0.4612(3) 0.3276(3) 0.19416(13)
H7 H 0.3720 0.3671 0.2334
C9 C 0.4426(4) 0.2619(4) 0.56333(15)
C10 C 0.9880(4) 0.2035(3) 0.75750(13)
H8 H 1.1460 0.2969 0.7487
H9 H 0.9910 0.0774 0.7410
C11 C 0.4089(4) 0.3316(3) 0.10734(15)
H10 H 0.2851 0.3744 0.0885
C12 C 0.7193(4) 0.2084(3) 0.07670(13)
H11 H 0.8062 0.1669 0.0371
C13 C 0.5382(4) 0.2728(3) 0.04780(14)
H12 H 0.5034 0.2768 -0.0109
C14 C 0.9465(5) 0.2145(4) 0.85212(14)
H13 H 0.7902 0.1227 0.8614
H14 H 0.9515 0.3411 0.8697
H15 H 1.0714 0.1868 0.8853
H16 H 0.331(4) 0.280(3) 0.5236(16)
H17 H 0.410(4) 0.259(3) 0.6252(16)
loop_
_geom_bond_atom_site_label_1
_geom_bond_atom_site_label_2
_geom_bond_site_symmetry_1
_geom_bond_site_symmetry_2
N1 N2 1_555 1_555
N2 N3 1_555 1_555
N3 C1 1_555 1_555
C1 C2 1_555 1_555
C2 N1 1_555 1_555
H1 C2 1_555 1_555
C3 N1 1_555 1_555
C4 C3 1_555 1_555
H2 C4 1_555 1_555
H3 C4 1_555 1_555
C5 C1 1_555 1_555
C6 C4 1_555 1_555
H4 C6 1_555 1_555
H5 C6 1_555 1_555
C7 C5 1_555 1_555
H6 C7 1_555 1_555
C8 C5 1_555 1_555
H7 C8 1_555 1_555
C9 C3 1_555 1_555
C10 C6 1_555 1_555
H8 C10 1_555 1_555
H9 C10 1_555 1_555
C11 C8 1_555 1_555
H10 C11 1_555 1_555
C12 C7 1_555 1_555
H11 C12 1_555 1_555
C13 C11 1_555 1_555
H12 C13 1_555 1_555
C14 C10 1_555 1_555
H13 C14 1_555 1_555
H14 C14 1_555 1_555
H15 C14 1_555 1_555
H16 C9 1_555 1_555
H17 C9 1_555 1_555
C12 C13 1_555 1_555

#END
