
#######################################################################
#
#                 Cambridge Crystallographic Data Centre
#                                CCDC 
#
#######################################################################
#
# If this CIF has been generated from an entry in the Cambridge 
# Structural Database, then it will include bibliographic, chemical, 
# crystal, experimental, refinement or atomic coordinate data resulting 
# from the CCDC's data processing and validation procedures.
#
#######################################################################

data_KAVYOY
_chemical_formula_moiety         'C16 H15 N1 O7'
_chemical_name_systematic        
6-(1,3-benzodioxol-5-yl)-8-hydroxy-5-nitro-3,4,4a,5,6,7-hexahydro-1H-isochromen-1-one
_symmetry_cell_setting           orthorhombic
_symmetry_space_group_name_H-M   'P 21 21 21'
_symmetry_Int_Tables_number      19
_space_group_name_Hall           'P 2ac 2ab'
loop_
_symmetry_equiv_pos_site_id
_symmetry_equiv_pos_as_xyz
1 x,y,z
2 1/2+x,1/2-y,-z
3 -x,1/2+y,1/2-z
4 1/2-x,-y,1/2+z
_cell_length_a                   11.4884(5)
_cell_length_b                   11.9792(5)
_cell_length_c                   20.8251(8)
_cell_angle_alpha                90
_cell_angle_beta                 90
_cell_angle_gamma                90
_cell_volume                     2865.99
_exptl_crystal_colour            colorless
_exptl_crystal_description       plate
_cell_formula_units_Z            8
loop_
_atom_site_label
_atom_site_type_symbol
_atom_site_fract_x
_atom_site_fract_y
_atom_site_fract_z
O1 O 0.8151(2) 0.4448(2) 0.97016(13)
O2 O 1.0937(3) -0.2459(2) 0.82999(12)
O3 O 1.1180(3) -0.2386(2) 0.94032(12)
O4 O 1.0039(2) 0.4114(2) 0.90998(12)
H1 H 0.9603 0.4426 0.9369
O5 O 0.6677(2) 0.3304(2) 0.96401(13)
O6 O 0.8079(3) 0.0387(2) 0.72577(12)
O7 O 0.7547(3) -0.0211(2) 0.81893(13)
C1 C 1.0231(3) 0.2636(3) 0.83701(15)
H2 H 1.1024 0.2519 0.8543
H3 H 1.0299 0.3148 0.7999
N1 N 0.7967(3) 0.0501(2) 0.78411(13)
C2 C 0.7773(3) 0.3562(3) 0.94874(16)
C3 C 0.8444(3) 0.2842(3) 0.90616(15)
C4 C 0.9517(3) 0.3197(3) 0.88740(16)
C5 C 0.9767(3) 0.1516(3) 0.81293(14)
H4 H 1.0028 0.1426 0.7674
C6 C 1.0206(3) 0.0515(3) 0.85029(15)
C7 C 1.0407(3) -0.0477(3) 0.81702(16)
H5 H 1.0312 -0.0515 0.7718
C8 C 1.0746(3) -0.1392(3) 0.85153(17)
C9 C 1.1267(3) -0.3098(3) 0.88478(17)
H6 H 1.2075 -0.3371 0.8798
H7 H 1.0745 -0.3750 0.8896
C10 C 1.0915(3) -0.1345(3) 0.91747(16)
C11 C 1.0781(3) -0.0374(3) 0.95073(15)
H8 H 1.0933 -0.0335 0.9955
C12 C 1.0413(3) 0.0561(3) 0.91635(16)
H9 H 1.0300 0.1246 0.9384
C13 C 0.6201(3) 0.2231(3) 0.94563(17)
H10 H 0.5340 0.2266 0.9470
H11 H 0.6459 0.1656 0.9767
C14 C 0.6587(3) 0.1905(3) 0.87899(16)
H12 H 0.6349 0.2484 0.8477
H13 H 0.6221 0.1190 0.8664
C15 C 0.7909(3) 0.1786(3) 0.87918(14)
H14 H 0.8124 0.1146 0.9077
C16 C 0.8418(3) 0.1578(3) 0.81279(15)
H15 H 0.8177 0.2207 0.7841
O8 O 0.3808(2) 0.4271(2) 0.86268(12)
O9 O 0.4698(3) 0.4437(2) 0.53614(14)
O10 O 0.3145(2) 0.3036(2) 0.93965(12)
O11 O 0.1611(3) 0.0892(3) 0.69245(15)
O12 O 0.2765(3) -0.0527(2) 0.68900(13)
O13 O 0.2860(2) 0.4033(2) 0.53078(12)
O14 O 0.6113(2) 0.3347(2) 0.60473(14)
H16 H 0.5906 0.3834 0.5781
C17 C 0.3158(4) 0.4188(3) 0.92132(19)
H17 H 0.3529 0.4644 0.9553
H18 H 0.2354 0.4461 0.9148
C18 C 0.3768(3) 0.3206(3) 0.83729(17)
C19 C 0.4110(3) 0.2865(3) 0.77702(16)
H19 H 0.4360 0.3384 0.7454
C20 C 0.4073(3) 0.1721(3) 0.76453(16)
C21 C 0.4481(3) 0.1237(3) 0.70081(17)
H20 H 0.4753 0.0459 0.7096
C22 C 0.3499(3) 0.1154(3) 0.65006(16)
H21 H 0.3813 0.0745 0.6120
C23 C 0.3053(3) 0.2284(3) 0.62724(15)
H22 H 0.2675 0.2680 0.6640
C24 C 0.4080(3) 0.2964(3) 0.60398(15)
C25 C 0.3899(3) 0.3844(3) 0.55560(16)
C26 C 0.3383(3) 0.2469(3) 0.88323(16)
N2 N 0.2540(3) 0.0454(3) 0.67925(14)
C27 C 0.1864(3) 0.3359(3) 0.54994(17)
H23 H 0.1321 0.3300 0.5132
H24 H 0.1450 0.3744 0.5853
C28 C 0.2189(3) 0.2197(3) 0.57186(16)
H25 H 0.2543 0.1778 0.5359
H26 H 0.1484 0.1792 0.5861
C29 C 0.5182(3) 0.2777(3) 0.62450(16)
C30 C 0.5507(3) 0.1865(3) 0.67011(19)
H27 H 0.5987 0.2191 0.7049
H28 H 0.5998 0.1319 0.6469
C31 C 0.3694(3) 0.0980(3) 0.81171(17)
H29 H 0.3683 0.0204 0.8024
C32 C 0.3330(3) 0.1341(3) 0.87240(16)
H30 H 0.3062 0.0834 0.9042
loop_
_geom_bond_atom_site_label_1
_geom_bond_atom_site_label_2
_geom_bond_site_symmetry_1
_geom_bond_site_symmetry_2
O1 C2 1_555 1_555
O2 C8 1_555 1_555
O3 C9 1_555 1_555
O4 H1 1_555 1_555
O5 C2 1_555 1_555
O6 N1 1_555 1_555
O7 N1 1_555 1_555
C1 H2 1_555 1_555
H3 C1 1_555 1_555
N1 C16 1_555 1_555
C2 C3 1_555 1_555
C3 C4 1_555 1_555
C4 O4 1_555 1_555
C5 C1 1_555 1_555
H4 C5 1_555 1_555
C6 C5 1_555 1_555
C7 C6 1_555 1_555
H5 C7 1_555 1_555
C8 C7 1_555 1_555
C9 O2 1_555 1_555
H6 C9 1_555 1_555
H7 C9 1_555 1_555
C10 O3 1_555 1_555
C11 C10 1_555 1_555
H8 C11 1_555 1_555
C12 C6 1_555 1_555
H9 C12 1_555 1_555
C13 O5 1_555 1_555
H10 C13 1_555 1_555
H11 C13 1_555 1_555
C14 C13 1_555 1_555
H12 C14 1_555 1_555
H13 C14 1_555 1_555
C15 C3 1_555 1_555
H14 C15 1_555 1_555
C16 C5 1_555 1_555
H15 C16 1_555 1_555
O8 C17 1_555 1_555
O9 C25 1_555 1_555
O10 C17 1_555 1_555
O11 N2 1_555 1_555
O12 N2 1_555 1_555
O13 C25 1_555 1_555
O14 H16 1_555 1_555
C17 H17 1_555 1_555
H18 C17 1_555 1_555
C18 O8 1_555 1_555
C19 C18 1_555 1_555
H19 C19 1_555 1_555
C20 C19 1_555 1_555
C21 C20 1_555 1_555
H20 C21 1_555 1_555
C22 C21 1_555 1_555
H21 C22 1_555 1_555
C23 C22 1_555 1_555
H22 C23 1_555 1_555
C24 C23 1_555 1_555
C25 C24 1_555 1_555
C26 O10 1_555 1_555
N2 C22 1_555 1_555
C27 O13 1_555 1_555
H23 C27 1_555 1_555
H24 C27 1_555 1_555
C28 C23 1_555 1_555
H25 C28 1_555 1_555
H26 C28 1_555 1_555
C29 O14 1_555 1_555
C30 C21 1_555 1_555
H27 C30 1_555 1_555
H28 C30 1_555 1_555
C31 C20 1_555 1_555
H29 C31 1_555 1_555
C32 C26 1_555 1_555
H30 C32 1_555 1_555
C1 C4 1_555 1_555
C8 C10 1_555 1_555
C11 C12 1_555 1_555
C14 C15 1_555 1_555
C15 C16 1_555 1_555
C18 C26 1_555 1_555
C24 C29 1_555 1_555
C27 C28 1_555 1_555
C29 C30 1_555 1_555
C31 C32 1_555 1_555

#END
