
#######################################################################
#
#                 Cambridge Crystallographic Data Centre
#                                CCDC 
#
#######################################################################
#
# If this CIF has been generated from an entry in the Cambridge 
# Structural Database, then it will include bibliographic, chemical, 
# crystal, experimental, refinement or atomic coordinate data resulting 
# from the CCDC's data processing and validation procedures.
#
#######################################################################

data_KAVZIS01
_chemical_compound_source        'Sinomenium acutum'
_chemical_name_common            "1,1'-disinomenine tetrahydrate"
_chemical_formula_moiety         'C38 H44 N2 O8,4(H2 O1)'
_chemical_name_systematic        
'4-Hydroxy-1-(4-hydroxy-3,7-dimethoxy-17-methyl-6-oxo-7,8-didehydromorphinan-1-yl)-3,7-dimethoxy-17-methyl-7,8-didehydromorphinan-6-one tetrahydrate'
_symmetry_cell_setting           monoclinic
_symmetry_space_group_name_H-M   'P 21'
_symmetry_Int_Tables_number      4
_space_group_name_Hall           'P 2yb'
loop_
_symmetry_equiv_pos_site_id
_symmetry_equiv_pos_as_xyz
1 x,y,z
2 -x,1/2+y,-z
_cell_length_a                   9.101(2)
_cell_length_b                   9.559(2)
_cell_length_c                   21.030(5)
_cell_angle_alpha                90
_cell_angle_beta                 93.879(3)
_cell_angle_gamma                90
_cell_volume                     1825.34
_exptl_crystal_colour            colorless
_exptl_crystal_description       prism
_cell_formula_units_Z            2
loop_
_atom_site_label
_atom_site_type_symbol
_atom_site_fract_x
_atom_site_fract_y
_atom_site_fract_z
O1 O 0.88494(18) 0.52309(18) 0.45980(8)
O2 O 0.72201(19) 0.31932(19) 0.50200(8)
O3 O 0.8286(2) -0.0201(2) 0.43871(9)
O4 O 0.7830(2) -0.0396(2) 0.31325(9)
N1 N 0.1920(2) 0.2268(2) 0.37187(9)
C1 C 0.5960(3) 0.5020(2) 0.32804(10)
C2 C 0.7195(3) 0.5517(3) 0.36413(11)
H1 H 0.7714 0.6283 0.3501
C3 C 0.7641(3) 0.4869(2) 0.42061(11)
C4 C 0.6852(3) 0.3722(2) 0.44262(11)
C5 C 0.5912(3) 0.0708(3) 0.45651(11)
H2 H 0.6375 0.1106 0.4953
H3 H 0.5323 -0.0083 0.4685
C6 C 0.7088(3) 0.0198(3) 0.41559(12)
C7 C 0.6705(3) 0.0123(3) 0.34578(12)
C8 C 0.5374(3) 0.0517(3) 0.32195(11)
H4 H 0.5152 0.0455 0.2782
C9 C 0.3103(3) 0.2023(2) 0.32883(11)
H5 H 0.2676 0.1523 0.2913
C10 C 0.3901(3) 0.3324(3) 0.30533(11)
H6 H 0.4234 0.3121 0.2635
H7 H 0.3192 0.4081 0.3004
C11 C 0.5214(2) 0.3837(2) 0.34756(10)
C12 C 0.5686(2) 0.3144(2) 0.40448(11)
C13 C 0.4895(3) 0.1807(2) 0.42378(11)
C14 C 0.4222(3) 0.1058(3) 0.36355(11)
H8 H 0.3679 0.0245 0.3780
C15 C 0.3641(3) 0.2170(3) 0.46591(11)
H9 H 0.3218 0.1313 0.4813
H10 H 0.4033 0.2699 0.5026
C16 C 0.2440(3) 0.3021(3) 0.43011(11)
H11 H 0.1628 0.3166 0.4569
H12 H 0.2825 0.3929 0.4190
C17 C 0.0627(3) 0.2946(3) 0.34092(13)
H13 H -0.0160 0.2937 0.3691
H14 H 0.0326 0.2452 0.3025
H15 H 0.0863 0.3895 0.3308
C18 C 0.7552(3) -0.0499(4) 0.24581(14)
H16 H 0.7344 0.0414 0.2284
H17 H 0.6723 -0.1101 0.2363
H18 H 0.8404 -0.0878 0.2274
C19 C 0.9711(3) 0.6372(3) 0.44007(12)
H19 H 1.0096 0.6155 0.3998
H20 H 1.0511 0.6536 0.4713
H21 H 0.9108 0.7195 0.4357
O5 O 0.2851(2) 0.8322(2) 0.19816(8)
O6 O 0.4174(2) 0.76207(19) 0.09447(8)
O7 O 0.2815(2) 0.4470(2) 0.01551(9)
O8 O 0.3198(2) 0.22871(19) 0.09016(9)
N2 N 0.9371(2) 0.4814(2) 0.13896(10)
C20 C 0.5501(3) 0.5716(2) 0.26589(11)
C21 C 0.4367(3) 0.6697(3) 0.26338(11)
H22 H 0.3911 0.6932 0.3002
C22 C 0.3923(3) 0.7319(3) 0.20606(12)
C23 C 0.4584(3) 0.6945(3) 0.15001(11)
C24 C 0.5284(3) 0.5314(3) 0.03178(11)
H23 H 0.4887 0.6234 0.0215
H24 H 0.5802 0.4992 -0.0043
C25 C 0.4044(3) 0.4335(3) 0.04210(11)
C26 C 0.4394(3) 0.3122(3) 0.08387(12)
C27 C 0.5766(3) 0.2901(3) 0.10938(11)
H25 H 0.5968 0.2093 0.1329
C28 C 0.8139(3) 0.3907(3) 0.15618(11)
H26 H 0.8515 0.2949 0.1605
C29 C 0.7413(3) 0.4275(3) 0.21779(11)
H27 H 0.7026 0.3423 0.2353
H28 H 0.8167 0.4629 0.2485
C30 C 0.6176(2) 0.5346(2) 0.21077(11)
C31 C 0.5683(3) 0.5925(2) 0.15154(11)
C32 C 0.6383(3) 0.5430(2) 0.09053(11)
C33 C 0.6978(3) 0.3929(3) 0.10073(11)
H29 H 0.7461 0.3659 0.0623
C34 C 0.7678(3) 0.6378(3) 0.07640(11)
H30 H 0.8043 0.6113 0.0358
H31 H 0.7339 0.7339 0.0730
C35 C 0.8923(3) 0.6277(3) 0.12826(12)
H32 H 0.9759 0.6817 0.1159
H33 H 0.8602 0.6668 0.1676
C36 C 1.0660(3) 0.4730(3) 0.18381(13)
H34 H 1.0437 0.5145 0.2236
H35 H 1.1465 0.5221 0.1668
H36 H 1.0926 0.3767 0.1906
C37 C 0.3380(3) 0.1159(3) 0.13409(12)
H37 H 0.2443 0.0725 0.1391
H38 H 0.3774 0.1506 0.1746
H39 H 0.4045 0.0483 0.1183
C38 C 0.1924(3) 0.8521(3) 0.24952(13)
H40 H 0.2505 0.8842 0.2864
H41 H 0.1462 0.7650 0.2591
H42 H 0.1182 0.9203 0.2376
H43 H 0.782(5) 0.378(5) 0.5216(19)
H44 H 0.322(5) 0.787(5) 0.095(2)
O9 O 0.0173(2) 0.2946(2) 0.04839(10)
H45 H -0.010(4) 0.363(3) 0.071(2)
H46 H 0.1063(18) 0.308(4) 0.0403(19)
O10 O 0.1459(2) 0.8573(3) 0.06314(10)
H47 H 0.107(4) 0.826(4) 0.0282(11)
H48 H 0.087(4) 0.915(4) 0.0788(17)
O11 O 0.8870(2) 0.44105(19) 0.60142(9)
H49 H 0.9792(9) 0.438(4) 0.6013(16)
H50 H 0.861(3) 0.526(4) 0.6072(17)
O12 O 0.0847(3) 0.5416(3) -0.09443(11)
H51 H 0.1477 0.5160 -0.0629
H52 H 0.0413 0.6170 -0.0819
loop_
_geom_bond_atom_site_label_1
_geom_bond_atom_site_label_2
_geom_bond_site_symmetry_1
_geom_bond_site_symmetry_2
O1 C3 1_555 1_555
O2 C4 1_555 1_555
O3 C6 1_555 1_555
O4 C7 1_555 1_555
N1 C9 1_555 1_555
C1 C2 1_555 1_555
C2 H1 1_555 1_555
C3 C2 1_555 1_555
C4 C3 1_555 1_555
C5 H2 1_555 1_555
H3 C5 1_555 1_555
C6 C5 1_555 1_555
C7 C6 1_555 1_555
C8 C7 1_555 1_555
H4 C8 1_555 1_555
C9 H5 1_555 1_555
C10 C9 1_555 1_555
H6 C10 1_555 1_555
H7 C10 1_555 1_555
C11 C1 1_555 1_555
C12 C4 1_555 1_555
C13 C5 1_555 1_555
C14 C8 1_555 1_555
H8 C14 1_555 1_555
C15 C13 1_555 1_555
H9 C15 1_555 1_555
H10 C15 1_555 1_555
C16 N1 1_555 1_555
H11 C16 1_555 1_555
H12 C16 1_555 1_555
C17 N1 1_555 1_555
H13 C17 1_555 1_555
H14 C17 1_555 1_555
H15 C17 1_555 1_555
C18 O4 1_555 1_555
H16 C18 1_555 1_555
H17 C18 1_555 1_555
H18 C18 1_555 1_555
C19 O1 1_555 1_555
H19 C19 1_555 1_555
H20 C19 1_555 1_555
H21 C19 1_555 1_555
O5 C22 1_555 1_555
O6 C23 1_555 1_555
O7 C25 1_555 1_555
O8 C26 1_555 1_555
N2 C28 1_555 1_555
C20 C1 1_555 1_555
C21 C20 1_555 1_555
H22 C21 1_555 1_555
C22 C21 1_555 1_555
C23 C22 1_555 1_555
C24 H23 1_555 1_555
H24 C24 1_555 1_555
C25 C24 1_555 1_555
C26 C25 1_555 1_555
C27 C26 1_555 1_555
H25 C27 1_555 1_555
C28 H26 1_555 1_555
C29 C28 1_555 1_555
H27 C29 1_555 1_555
H28 C29 1_555 1_555
C30 C20 1_555 1_555
C31 C23 1_555 1_555
C32 C24 1_555 1_555
C33 C27 1_555 1_555
H29 C33 1_555 1_555
C34 C32 1_555 1_555
H30 C34 1_555 1_555
H31 C34 1_555 1_555
C35 N2 1_555 1_555
H32 C35 1_555 1_555
H33 C35 1_555 1_555
C36 N2 1_555 1_555
H34 C36 1_555 1_555
H35 C36 1_555 1_555
H36 C36 1_555 1_555
C37 O8 1_555 1_555
H37 C37 1_555 1_555
H38 C37 1_555 1_555
H39 C37 1_555 1_555
C38 O5 1_555 1_555
H40 C38 1_555 1_555
H41 C38 1_555 1_555
H42 C38 1_555 1_555
H43 O2 1_555 1_555
H44 O6 1_555 1_555
O9 H45 1_555 1_555
H46 O9 1_555 1_555
O10 H47 1_555 1_555
H48 O10 1_555 1_555
O11 H49 1_555 1_555
H50 O11 1_555 1_555
O12 H51 1_555 1_555
H52 O12 1_555 1_555
C9 C14 1_555 1_555
C10 C11 1_555 1_555
C11 C12 1_555 1_555
C12 C13 1_555 1_555
C13 C14 1_555 1_555
C15 C16 1_555 1_555
C28 C33 1_555 1_555
C29 C30 1_555 1_555
C30 C31 1_555 1_555
C31 C32 1_555 1_555
C32 C33 1_555 1_555
C34 C35 1_555 1_555

#END
