
#######################################################################
#
#                 Cambridge Crystallographic Data Centre
#                                CCDC 
#
#######################################################################
#
# If this CIF has been generated from an entry in the Cambridge 
# Structural Database, then it will include bibliographic, chemical, 
# crystal, experimental, refinement or atomic coordinate data resulting 
# from the CCDC's data processing and validation procedures.
#
#######################################################################

data_KAVZIS
_chemical_name_common            'disinomenine tetrahydrate'
_chemical_formula_moiety         'C38 H44 N2 O8,4(H2 O1)'
_chemical_name_systematic        
'4-Hydroxy-1-(4-hydroxy-3,7-dimethoxy-17-methyl-6-oxo-7,8-didehydromorphinan-1-yl)-3,7-dimethoxy-17-methyl-7,8-didehydromorphinan-6-one tetrahydrate'
_symmetry_cell_setting           monoclinic
_symmetry_space_group_name_H-M   'P 21'
_symmetry_Int_Tables_number      4
_space_group_name_Hall           'P 2yb'
loop_
_symmetry_equiv_pos_site_id
_symmetry_equiv_pos_as_xyz
1 x,y,z
2 -x,1/2+y,-z
_cell_length_a                   9.2012(8)
_cell_length_b                   9.6796(8)
_cell_length_c                   21.1948(17)
_cell_angle_alpha                90
_cell_angle_beta                 93.7830(10)
_cell_angle_gamma                90
_cell_volume                     1883.58
_exptl_crystal_colour            colorless
_exptl_crystal_description       prism
_cell_formula_units_Z            2
loop_
_atom_site_label
_atom_site_type_symbol
_atom_site_fract_x
_atom_site_fract_y
_atom_site_fract_z
N1 N 0.7993(3) -0.2555(3) 0.62706(14)
O1 O 0.1205(2) 0.0448(3) 0.54179(11)
O2 O 0.2760(3) -0.1601(3) 0.50033(11)
H1 H 0.2189 -0.1069 0.4815
O3 O 0.1684(3) -0.4965(3) 0.56239(15)
O4 O 0.2166(3) -0.5207(4) 0.68589(15)
C1 C 0.4039(3) 0.0157(3) 0.67307(15)
C2 C 0.2835(4) 0.0676(4) 0.63723(15)
H2 H 0.2343 0.1445 0.6512
C3 C 0.2375(4) 0.0047(3) 0.58092(15)
C4 C 0.3138(4) -0.1087(3) 0.55920(15)
C5 C 0.4020(4) -0.4072(4) 0.54414(17)
H3 H 0.3555 -0.3663 0.5062
H4 H 0.4596 -0.4850 0.5313
C6 C 0.2874(4) -0.4590(4) 0.58423(19)
C7 C 0.3265(4) -0.4689(4) 0.65355(19)
C8 C 0.4595(4) -0.4319(4) 0.67608(18)
H5 H 0.4831 -0.4412 0.7192
C9 C 0.6827(4) -0.2826(4) 0.66980(17)
H6 H 0.7260 -0.3331 0.7065
C10 C 0.6036(4) -0.1559(4) 0.69469(16)
H7 H 0.5703 -0.1788 0.7359
H8 H 0.6737 -0.0814 0.7007
C11 C 0.4740(4) -0.1027(3) 0.65338(15)
C12 C 0.4268(3) -0.1689(3) 0.59654(14)
C13 C 0.5041(4) -0.3004(3) 0.57661(15)
C14 C 0.5719(4) -0.3768(4) 0.63576(16)
H9 H 0.6255 -0.4563 0.6205
C15 C 0.6270(4) -0.2634(4) 0.53443(16)
H10 H 0.6681 -0.3477 0.5184
H11 H 0.5874 -0.2101 0.4986
C16 C 0.7460(4) -0.1814(4) 0.56956(17)
H12 H 0.8256 -0.1671 0.5425
H13 H 0.7086 -0.0917 0.5809
C17 C 0.9266(4) -0.1891(5) 0.6571(2)
H14 H 0.9559 -0.2369 0.6956
H15 H 0.9040 -0.0948 0.6666
H16 H 1.0045 -0.1915 0.6291
C18 C 0.0353(4) 0.1560(4) 0.56117(19)
H17 H 0.0961 0.2357 0.5687
H18 H -0.0090 0.1315 0.5994
H19 H -0.0392 0.1765 0.5287
C19 C 0.2432(6) -0.5336(7) 0.7525(3)
H20 H 0.2576 -0.4436 0.7708
H21 H 0.3288 -0.5887 0.7616
H22 H 0.1612 -0.5772 0.7699
N2 N 0.0719(3) -0.0054(4) 0.86217(14)
O5 O 0.7085(3) 0.3449(3) 0.79984(13)
O6 O 0.5831(3) 0.2741(3) 0.90368(12)
H23 H 0.6692 0.2957 0.9035
O7 O 0.7221(3) -0.0376(3) 0.98179(14)
O8 O 0.6809(3) -0.2561(3) 0.90942(13)
C20 C 0.4509(4) 0.0842(3) 0.73465(15)
C21 C 0.5602(4) 0.1819(4) 0.73680(16)
H24 H 0.6040 0.2054 0.7000
C22 C 0.6051(4) 0.2447(4) 0.79291(18)
C23 C 0.5416(4) 0.2063(4) 0.84859(16)
C24 C 0.4779(4) 0.0451(4) 0.96679(16)
H25 H 0.5180 0.1359 0.9765
H26 H 0.4276 0.0142 1.0031
C25 C 0.5986(4) -0.0514(4) 0.95644(16)
C26 C 0.5630(4) -0.1725(4) 0.91572(17)
C27 C 0.4281(4) -0.1931(4) 0.89164(17)
H27 H 0.4072 -0.2736 0.8689
C28 C 0.1928(4) -0.0952(4) 0.84500(17)
H28 H 0.1556 -0.1899 0.8412
C29 C 0.2634(4) -0.0603(4) 0.78419(16)
H29 H 0.1882 -0.0272 0.7537
H30 H 0.3024 -0.1448 0.7674
C30 C 0.3853(3) 0.0468(4) 0.78949(15)
C31 C 0.4355(4) 0.1048(3) 0.84849(16)
C32 C 0.3678(4) 0.0563(4) 0.90937(15)
C33 C 0.3090(4) -0.0921(4) 0.89968(16)
H31 H 0.2617 -0.1179 0.9381
C34 C 0.2403(4) 0.1493(5) 0.92399(18)
H32 H 0.2047 0.1228 0.9643
H33 H 0.2734 0.2443 0.9274
C35 C 0.1167(5) 0.1389(5) 0.8727(2)
H34 H 0.0341 0.1925 0.8852
H35 H 0.1482 0.1775 0.8337
C36 C -0.0563(4) -0.0156(6) 0.8178(2)
H36 H -0.0368 0.0295 0.7789
H37 H -0.1376 0.0282 0.8357
H38 H -0.0785 -0.1111 0.8097
C37 C 0.8047(5) 0.3617(5) 0.7509(2)
H39 H 0.7501 0.3869 0.7125
H40 H 0.8552 0.2765 0.7447
H41 H 0.8739 0.4331 0.7624
C38 C 0.6641(5) -0.3683(5) 0.8666(2)
H42 H 0.6281 -0.3347 0.8259
H43 H 0.5962 -0.4336 0.8819
H44 H 0.7565 -0.4125 0.8629
O9 O -0.0142(3) -0.1900(4) 0.95217(14)
H45 H -0.0876 -0.1576 0.9695
H46 H 0.0554 -0.2019 0.9800
O10 O -0.1152(3) -0.5391(3) 0.60095(13)
H47 H -0.022(2) -0.531(5) 0.597(2)
H48 H -0.140(4) -0.455(3) 0.6114(18)
O11 O -0.1451(5) -0.6299(5) 0.93514(19)
H51 H -0.137(4) -0.713(2) 0.947(2)
H52 H -0.068(4) -0.603(5) 0.919(2)
O12 O 0.0877(5) -0.4439(5) 0.90858(19)
H49 H -0.0006 -0.4603 0.9155
H50 H 0.0991 -0.3576 0.9035
loop_
_geom_bond_atom_site_label_1
_geom_bond_atom_site_label_2
_geom_bond_site_symmetry_1
_geom_bond_site_symmetry_2
N1 C9 1_555 1_555
O1 C3 1_555 1_555
O2 H1 1_555 1_555
O3 C6 1_555 1_555
O4 C7 1_555 1_555
C1 C2 1_555 1_555
C2 H2 1_555 1_555
C3 C2 1_555 1_555
C4 O2 1_555 1_555
C5 H3 1_555 1_555
H4 C5 1_555 1_555
C6 C5 1_555 1_555
C7 C6 1_555 1_555
C8 C7 1_555 1_555
H5 C8 1_555 1_555
C9 H6 1_555 1_555
C10 C9 1_555 1_555
H7 C10 1_555 1_555
H8 C10 1_555 1_555
C11 C1 1_555 1_555
C12 C4 1_555 1_555
C13 C5 1_555 1_555
C14 C8 1_555 1_555
H9 C14 1_555 1_555
C15 C13 1_555 1_555
H10 C15 1_555 1_555
H11 C15 1_555 1_555
C16 N1 1_555 1_555
H12 C16 1_555 1_555
H13 C16 1_555 1_555
C17 N1 1_555 1_555
H14 C17 1_555 1_555
H15 C17 1_555 1_555
H16 C17 1_555 1_555
C18 O1 1_555 1_555
H17 C18 1_555 1_555
H18 C18 1_555 1_555
H19 C18 1_555 1_555
C19 O4 1_555 1_555
H20 C19 1_555 1_555
H21 C19 1_555 1_555
H22 C19 1_555 1_555
N2 C28 1_555 1_555
O5 C22 1_555 1_555
O6 H23 1_555 1_555
O7 C25 1_555 1_555
O8 C26 1_555 1_555
C20 C1 1_555 1_555
C21 C20 1_555 1_555
H24 C21 1_555 1_555
C22 C21 1_555 1_555
C23 O6 1_555 1_555
C24 H25 1_555 1_555
H26 C24 1_555 1_555
C25 C24 1_555 1_555
C26 C25 1_555 1_555
C27 C26 1_555 1_555
H27 C27 1_555 1_555
C28 H28 1_555 1_555
C29 C28 1_555 1_555
H29 C29 1_555 1_555
H30 C29 1_555 1_555
C30 C20 1_555 1_555
C31 C23 1_555 1_555
C32 C24 1_555 1_555
C33 C27 1_555 1_555
H31 C33 1_555 1_555
C34 C32 1_555 1_555
H32 C34 1_555 1_555
H33 C34 1_555 1_555
C35 N2 1_555 1_555
H34 C35 1_555 1_555
H35 C35 1_555 1_555
C36 N2 1_555 1_555
H36 C36 1_555 1_555
H37 C36 1_555 1_555
H38 C36 1_555 1_555
C37 O5 1_555 1_555
H39 C37 1_555 1_555
H40 C37 1_555 1_555
H41 C37 1_555 1_555
C38 O8 1_555 1_555
H42 C38 1_555 1_555
H43 C38 1_555 1_555
H44 C38 1_555 1_555
O9 H45 1_555 1_555
H46 O9 1_555 1_555
O10 H47 1_555 1_555
H48 O10 1_555 1_555
O11 H51 1_555 1_555
O12 H49 1_555 1_555
H50 O12 1_555 1_555
H52 O11 1_555 1_555
C3 C4 1_555 1_555
C9 C14 1_555 1_555
C10 C11 1_555 1_555
C11 C12 1_555 1_555
C12 C13 1_555 1_555
C13 C14 1_555 1_555
C15 C16 1_555 1_555
C22 C23 1_555 1_555
C28 C33 1_555 1_555
C29 C30 1_555 1_555
C30 C31 1_555 1_555
C31 C32 1_555 1_555
C32 C33 1_555 1_555
C34 C35 1_555 1_555

#END
