
#######################################################################
#
#                 Cambridge Crystallographic Data Centre
#                                CCDC 
#
#######################################################################
#
# If this CIF has been generated from an entry in the Cambridge 
# Structural Database, then it will include bibliographic, chemical, 
# crystal, experimental, refinement or atomic coordinate data resulting 
# from the CCDC's data processing and validation procedures.
#
#######################################################################

data_KAWDOB
_chemical_formula_moiety         'C28 H22 N2 O2,0.5(C4 H10 O1)'
_chemical_name_systematic        
"(aRS,aRS)-2,2'-(3,6-Dimethoxynaphthalene-2,7-diyl)-3,3'-dimethylbis(benzonitrile) diethyl ether solvate"
_symmetry_cell_setting           monoclinic
_symmetry_space_group_name_H-M   'P 21/c'
_symmetry_Int_Tables_number      14
_space_group_name_Hall           '-P 2ybc'
loop_
_symmetry_equiv_pos_site_id
_symmetry_equiv_pos_as_xyz
1 x,y,z
2 x,1/2-y,1/2+z
3 -x,-y,-z
4 -x,1/2+y,1/2-z
_cell_length_a                   11.9823(19)
_cell_length_b                   13.610(4)
_cell_length_c                   15.342(8)
_cell_angle_alpha                90
_cell_angle_beta                 94.26(3)
_cell_angle_gamma                90
_cell_volume                     2495.05
_exptl_crystal_colour            colorless
_exptl_crystal_description       plate
_chemical_melting_point          '218-219 deg.C'
_cell_formula_units_Z            4
loop_
_atom_site_label
_atom_site_type_symbol
_atom_site_fract_x
_atom_site_fract_y
_atom_site_fract_z
C1 C 0.60670(15) 0.26745(13) 0.05177(12)
H1 H 0.651(2) 0.2162(17) 0.0408(15)
C2 C 0.64420(15) 0.33535(13) 0.11310(11)
C3 C 0.57315(15) 0.41651(13) 0.13064(11)
C4 C 0.47160(15) 0.42820(13) 0.08497(11)
H2 H 0.4222(19) 0.4810(17) 0.0944(15)
C5 C 0.32468(15) 0.36465(13) -0.02216(12)
H3 H 0.2806(19) 0.4216(18) -0.0153(15)
C6 C 0.28436(15) 0.29131(13) -0.07721(12)
C7 C 0.35104(15) 0.20676(13) -0.09240(11)
C8 C 0.45625(15) 0.20044(13) -0.05150(11)
H4 H 0.496(2) 0.1426(18) -0.0608(14)
C9 C 0.49974(15) 0.27433(13) 0.00676(11)
C10 C 0.43188(14) 0.35699(12) 0.02243(11)
C11 C 0.75640(15) 0.32710(13) 0.16201(12)
C12 C 0.85334(15) 0.34692(13) 0.11944(12)
C13 C 0.95961(16) 0.34259(16) 0.16319(14)
H5 H 1.022(2) 0.3620(19) 0.1305(17)
C14 C 0.97045(17) 0.31836(17) 0.25064(14)
H6 H 1.046(2) 0.320(2) 0.2864(17)
C15 C 0.87470(18) 0.29746(15) 0.29333(14)
H7 H 0.881(2) 0.2836(19) 0.3589(17)
C16 C 0.76832(16) 0.30154(13) 0.25081(12)
C17 C 0.84389(15) 0.37665(14) 0.02873(12)
N1 N 0.83990(16) 0.40263(15) -0.04224(12)
C18 C 0.66755(19) 0.27930(18) 0.30080(14)
H8 H 0.689(3) 0.240(2) 0.352(2)
H9 H 0.613(3) 0.234(2) 0.2642(19)
H10 H 0.645(2) 0.343(2) 0.324(2)
O1 O 0.61656(10) 0.47784(9) 0.19468(8)
C19 C 0.30427(14) 0.12502(13) -0.14911(12)
C20 C 0.28401(15) 0.03337(13) -0.11145(12)
C21 C 0.23786(17) -0.04489(15) -0.16135(14)
H11 H 0.223(2) -0.102(2) -0.1305(17)
C22 C 0.21258(16) -0.03200(14) -0.25002(13)
H12 H 0.182(2) -0.0918(18) -0.2882(16)
C23 C 0.23534(15) 0.05726(14) -0.28824(12)
H13 H 0.216(2) 0.0619(18) -0.3525(16)
C24 C 0.28080(14) 0.13632(13) -0.23981(12)
C25 C 0.31237(17) 0.01681(15) -0.01944(13)
N2 N 0.33596(18) -0.00063(16) 0.05254(13)
C26 C 0.30786(18) 0.23039(15) -0.28532(13)
H14 H 0.388(2) 0.233(2) -0.2809(17)
H15 H 0.285(2) 0.291(2) -0.2556(18)
H16 H 0.280(2) 0.233(2) -0.3485(18)
O2 O 0.17990(10) 0.29082(10) -0.11960(9)
C27 C 0.54134(17) 0.54852(15) 0.22708(14)
H17 H 0.526(2) 0.602(2) 0.1849(18)
H18 H 0.575(2) 0.573(2) 0.2838(19)
H19 H 0.477(3) 0.519(2) 0.2415(18)
C28 C 0.1139(2) 0.3773(2) -0.1117(2)
H20 H 0.098(3) 0.387(3) -0.047(3)
H21 H 0.042(3) 0.351(3) -0.139(2)
H22 H 0.156(3) 0.445(3) -0.135(2)
O3? O 0.0295(7) -0.0048(5) 0.0585(8)
C29? C 0.0550(6) 0.0919(5) 0.0941(7)
H23? H -0.0125 0.1340 0.0908
H24? H 0.1136 0.1244 0.0621
C30? C 0.0962(13) 0.0727(10) 0.1878(9)
H25? H 0.0319 0.0423 0.1550
H26? H 0.1028 0.0466 0.2476
H27? H 0.1646 0.0577 0.1591
O4? O 0.0121(6) -0.0069(5) 0.0213(6)
C31? C 0.0374(9) 0.0883(6) 0.0537(8)
H28? H 0.0875 0.1445 0.0440
H29? H -0.0419 0.1037 0.0365
C32? C 0.0802(9) 0.0757(8) 0.1475(8)
H30? H 0.0332 0.0399 0.1864
H31? H 0.0966 0.1413 0.1715
H32? H 0.1504 0.0399 0.1426
loop_
_geom_bond_atom_site_label_1
_geom_bond_atom_site_label_2
_geom_bond_site_symmetry_1
_geom_bond_site_symmetry_2
C1 H1 1_555 1_555
C2 C1 1_555 1_555
C3 C2 1_555 1_555
C4 C3 1_555 1_555
H2 C4 1_555 1_555
C5 H3 1_555 1_555
C6 C5 1_555 1_555
C7 C6 1_555 1_555
C8 C7 1_555 1_555
H4 C8 1_555 1_555
C9 C1 1_555 1_555
C10 C4 1_555 1_555
C11 C2 1_555 1_555
C12 C11 1_555 1_555
C13 C12 1_555 1_555
H5 C13 1_555 1_555
C14 C13 1_555 1_555
H6 C14 1_555 1_555
C15 C14 1_555 1_555
H7 C15 1_555 1_555
C16 C11 1_555 1_555
C17 C12 1_555 1_555
N1 C17 1_555 1_555
C18 C16 1_555 1_555
H8 C18 1_555 1_555
H9 C18 1_555 1_555
H10 C18 1_555 1_555
O1 C3 1_555 1_555
C19 C7 1_555 1_555
C20 C19 1_555 1_555
C21 C20 1_555 1_555
H11 C21 1_555 1_555
C22 C21 1_555 1_555
H12 C22 1_555 1_555
C23 C22 1_555 1_555
H13 C23 1_555 1_555
C24 C19 1_555 1_555
C25 C20 1_555 1_555
N2 C25 1_555 1_555
C26 C24 1_555 1_555
H14 C26 1_555 1_555
H15 C26 1_555 1_555
H16 C26 1_555 1_555
O2 C6 1_555 1_555
C27 O1 1_555 1_555
H17 C27 1_555 1_555
H18 C27 1_555 1_555
H19 C27 1_555 1_555
C28 O2 1_555 1_555
H20 C28 1_555 1_555
H21 C28 1_555 1_555
H22 C28 1_555 1_555
C5 C10 1_555 1_555
C8 C9 1_555 1_555
C9 C10 1_555 1_555
C15 C16 1_555 1_555
C23 C24 1_555 1_555

#END
