
#######################################################################
#
#                 Cambridge Crystallographic Data Centre
#                                CCDC 
#
#######################################################################
#
# If this CIF has been generated from an entry in the Cambridge 
# Structural Database, then it will include bibliographic, chemical, 
# crystal, experimental, refinement or atomic coordinate data resulting 
# from the CCDC's data processing and validation procedures.
#
#######################################################################

data_KAWRIM
_chemical_formula_moiety         'C22 H21 Br1 N2 O2'
_chemical_name_systematic        
11-bromo-2,3-dimethoxy-5,8,15,15a-tetrahydro-6H-benzo[b]isoquinolino[2,1-g][1,6]naphthyridine
_symmetry_cell_setting           triclinic
_symmetry_space_group_name_H-M   'P -1'
_symmetry_Int_Tables_number      2
_space_group_name_Hall           '-P 1'
loop_
_symmetry_equiv_pos_site_id
_symmetry_equiv_pos_as_xyz
1 x,y,z
2 -x,-y,-z
_cell_length_a                   9.1340(3)
_cell_length_b                   10.0111(4)
_cell_length_c                   11.6697(4)
_cell_angle_alpha                66.936(2)
_cell_angle_beta                 86.111(2)
_cell_angle_gamma                76.562(2)
_cell_volume                     954.597
_exptl_crystal_colour            colorless
_exptl_crystal_description       block
_cell_formula_units_Z            2
loop_
_atom_site_label
_atom_site_type_symbol
_atom_site_fract_x
_atom_site_fract_y
_atom_site_fract_z
Br1 Br 0.24446(6) 0.96155(5) -0.33812(4)
C1 C 0.3076(4) 0.9191(4) -0.1730(3)
N1 N 0.4325(3) 0.8326(3) 0.1879(2)
O1 O 0.8605(3) 0.4627(3) 0.9303(2)
O2 O 0.7534(3) 0.7346(2) 0.7780(2)
C2 C 0.4154(4) 0.7944(4) -0.1134(3)
H1 H 0.4584 0.7312 -0.1535
N2 N 0.7340(3) 0.4460(3) 0.4003(2)
C3 C 0.2403(4) 1.0167(4) -0.1158(4)
H2 H 0.1668 1.1011 -0.1584
C4 C 0.2833(4) 0.9870(4) 0.0026(3)
H3 H 0.2393 1.0523 0.0405
C5 C 0.3938(4) 0.8584(3) 0.0689(3)
C6 C 0.4614(4) 0.7618(3) 0.0089(3)
C7 C 0.5742(4) 0.6368(4) 0.0765(3)
H4 H 0.6227 0.5715 0.0398
C8 C 0.6122(4) 0.6114(3) 0.1947(3)
C9 C 0.5367(3) 0.7125(3) 0.2487(3)
C10 C 0.5749(3) 0.6849(3) 0.3798(3)
H5 H 0.4976 0.6433 0.4339
H6 H 0.5745 0.7793 0.3851
C11 C 0.7281(3) 0.5792(3) 0.4268(3)
H7 H 0.8061 0.6286 0.3787
C12 C 0.7376(4) 0.4826(4) 0.2670(3)
H8 H 0.7311 0.3957 0.2517
H9 H 0.8335 0.5069 0.2365
C13 C 0.8657(4) 0.3277(4) 0.4611(3)
H10 H 0.9562 0.3664 0.4387
H11 H 0.8747 0.2470 0.4329
C14 C 0.8501(4) 0.2702(3) 0.5999(3)
H12 H 0.9423 0.1999 0.6397
H13 H 0.7687 0.2181 0.6231
C15 C 0.8184(3) 0.3963(3) 0.6449(3)
C16 C 0.7585(3) 0.5407(3) 0.5633(3)
C17 C 0.7342(3) 0.6551(3) 0.6081(3)
H14 H 0.6932 0.7523 0.5545
C18 C 0.7694(4) 0.6273(3) 0.7292(3)
C19 C 0.8279(4) 0.4811(4) 0.8118(3)
C20 C 0.8512(4) 0.3684(3) 0.7680(3)
H15 H 0.8899 0.2709 0.8224
C21 C 0.9528(5) 0.3242(4) 1.0080(4)
H16 H 0.9015 0.2457 1.0226
H17 H 0.9730 0.3284 1.0860
H18 H 1.0459 0.3053 0.9677
C22 C 0.7212(6) 0.8844(4) 0.6934(4)
H19 H 0.8006 0.9010 0.6348
H20 H 0.7132 0.9484 0.7381
H21 H 0.6277 0.9061 0.6498
loop_
_geom_bond_atom_site_label_1
_geom_bond_atom_site_label_2
_geom_bond_site_symmetry_1
_geom_bond_site_symmetry_2
Br1 C1 1_555 1_555
C1 C2 1_555 1_555
N1 C5 1_555 1_555
O1 C19 1_555 1_555
O2 C18 1_555 1_555
C2 H1 1_555 1_555
N2 C11 1_555 1_555
C3 C1 1_555 1_555
H2 C3 1_555 1_555
C4 C3 1_555 1_555
H3 C4 1_555 1_555
C5 C4 1_555 1_555
C6 C2 1_555 1_555
C7 C6 1_555 1_555
H4 C7 1_555 1_555
C8 C7 1_555 1_555
C9 N1 1_555 1_555
C10 C9 1_555 1_555
H5 C10 1_555 1_555
H6 C10 1_555 1_555
C11 C10 1_555 1_555
H7 C11 1_555 1_555
C12 N2 1_555 1_555
H8 C12 1_555 1_555
H9 C12 1_555 1_555
C13 N2 1_555 1_555
H10 C13 1_555 1_555
H11 C13 1_555 1_555
C14 C13 1_555 1_555
H12 C14 1_555 1_555
H13 C14 1_555 1_555
C15 C14 1_555 1_555
C16 C11 1_555 1_555
C17 C16 1_555 1_555
H14 C17 1_555 1_555
C18 C17 1_555 1_555
C19 C18 1_555 1_555
C20 C15 1_555 1_555
H15 C20 1_555 1_555
C21 O1 1_555 1_555
H16 C21 1_555 1_555
H17 C21 1_555 1_555
H18 C21 1_555 1_555
C22 O2 1_555 1_555
H19 C22 1_555 1_555
H20 C22 1_555 1_555
H21 C22 1_555 1_555
C5 C6 1_555 1_555
C8 C9 1_555 1_555
C8 C12 1_555 1_555
C15 C16 1_555 1_555
C19 C20 1_555 1_555

#END
