
#######################################################################
#
#                 Cambridge Crystallographic Data Centre
#                                CCDC 
#
#######################################################################
#
# If this CIF has been generated from an entry in the Cambridge 
# Structural Database, then it will include bibliographic, chemical, 
# crystal, experimental, refinement or atomic coordinate data resulting 
# from the CCDC's data processing and validation procedures.
#
#######################################################################

data_KAWROS
_chemical_formula_moiety         'C22 H23 N3 O3 S1'
_chemical_name_systematic        
3-((3-(benzyloxy)-5,5-dimethyl-4-oxo-1,3-thiazolidin-2-ylidene)amino)-1,5-dimethyl-1,3-dihydro-2H-indol-2-one
_symmetry_cell_setting           monoclinic
_symmetry_space_group_name_H-M   'P 21/c'
_symmetry_Int_Tables_number      14
_space_group_name_Hall           '-P 2ybc'
loop_
_symmetry_equiv_pos_site_id
_symmetry_equiv_pos_as_xyz
1 x,y,z
2 -x,1/2+y,1/2-z
3 -x,-y,-z
4 x,1/2-y,1/2+z
_cell_length_a                   12.979(3)
_cell_length_b                   17.542(3)
_cell_length_c                   9.264(2)
_cell_angle_alpha                90
_cell_angle_beta                 107.577(5)
_cell_angle_gamma                90
_cell_volume                     2010.73
_exptl_crystal_colour            colorless
_exptl_crystal_description       Prism
_cell_formula_units_Z            4
_exptl_crystal_preparation       Fiber
loop_
_atom_site_label
_atom_site_type_symbol
_atom_site_fract_x
_atom_site_fract_y
_atom_site_fract_z
S1 S 0.37633(4) 1.05425(3) -0.03192(6)
O1 O 0.36226(13) 0.86411(9) 0.06867(18)
O2 O 0.23045(12) 1.20716(8) 0.13649(17)
O3 O 0.09877(11) 1.08315(8) 0.04473(16)
N1 N 0.26746(14) 0.78573(10) -0.12558(19)
N2 N 0.18734(13) 0.97262(10) -0.09852(19)
N3 N 0.20207(12) 1.08772(9) 0.03259(18)
C1 C 0.24065(16) 0.91719(11) -0.1695(2)
H1 H 0.2948 0.9442 -0.2084
C2 C 0.16550(15) 0.87192(11) -0.2967(2)
C3 C 0.08974(16) 0.89425(12) -0.4296(2)
H2 H 0.0768 0.9469 -0.4522
C4 C 0.03180(16) 0.83873(12) -0.5316(2)
C5 C 0.05230(17) 0.76189(13) -0.4950(2)
H3 H 0.0119 0.7243 -0.5625
C6 C 0.13020(17) 0.73847(12) -0.3625(2)
H4 H 0.1443 0.6860 -0.3400
C7 C 0.18607(16) 0.79460(11) -0.2652(2)
C8 C 0.29880(16) 0.85440(12) -0.0568(2)
C9 C -0.05052(18) 0.86162(14) -0.6784(2)
H5 H -0.0153 0.8657 -0.7579
H6 H -0.0820 0.9110 -0.6655
H7 H -0.1077 0.8230 -0.7072
C10 C 0.30892(18) 0.71279(12) -0.0607(3)
H8 H 0.3581 0.7204 0.0418
H9 H 0.3481 0.6884 -0.1236
H10 H 0.2487 0.6801 -0.0562
C11 C 0.24295(15) 1.03057(11) -0.0394(2)
C12 C 0.26190(16) 1.15236(11) 0.0824(2)
C13 C 0.37371(16) 1.14596(11) 0.0618(2)
C14 C 0.45864(18) 1.14508(15) 0.2175(3)
H11 H 0.4582 1.1942 0.2677
H12 H 0.5302 1.1363 0.2056
H13 H 0.4420 1.1042 0.2791
C15 C 0.3924(2) 1.21089(14) -0.0370(3)
H14 H 0.3328 1.2125 -0.1317
H15 H 0.4606 1.2025 -0.0595
H16 H 0.3959 1.2594 0.0169
C16 C 0.09441(16) 1.02695(13) 0.1614(2)
H17 H 0.0944 0.9750 0.1198
H18 H 0.0259 1.0337 0.1862
C17 C 0.18727(16) 1.03419(12) 0.3036(2)
C18 C 0.27092(17) 0.98107(12) 0.3331(2)
H19 H 0.2683 0.9409 0.2633
C19 C 0.35827(18) 0.98646(14) 0.4640(2)
H20 H 0.4147 0.9498 0.4839
C20 C 0.36293(19) 1.04563(14) 0.5660(2)
H21 H 0.4223 1.0493 0.6557
C21 C 0.2802(2) 1.09932(14) 0.5358(3)
H22 H 0.2835 1.1399 0.6048
C22 C 0.19300(18) 1.09379(13) 0.4053(2)
H23 H 0.1370 1.1308 0.3851
loop_
_geom_bond_atom_site_label_1
_geom_bond_atom_site_label_2
_geom_bond_site_symmetry_1
_geom_bond_site_symmetry_2
S1 C11 1_555 1_555
O1 C8 1_555 1_555
O2 C12 1_555 1_555
O3 N3 1_555 1_555
N1 C7 1_555 1_555
N2 C1 1_555 1_555
N3 C11 1_555 1_555
C1 H1 1_555 1_555
C2 C1 1_555 1_555
C3 C2 1_555 1_555
H2 C3 1_555 1_555
C4 C3 1_555 1_555
C5 C4 1_555 1_555
H3 C5 1_555 1_555
C6 C5 1_555 1_555
H4 C6 1_555 1_555
C7 C2 1_555 1_555
C8 N1 1_555 1_555
C9 C4 1_555 1_555
H5 C9 1_555 1_555
H6 C9 1_555 1_555
H7 C9 1_555 1_555
C10 N1 1_555 1_555
H8 C10 1_555 1_555
H9 C10 1_555 1_555
H10 C10 1_555 1_555
C11 N2 1_555 1_555
C12 N3 1_555 1_555
C13 S1 1_555 1_555
C14 C13 1_555 1_555
H11 C14 1_555 1_555
H12 C14 1_555 1_555
H13 C14 1_555 1_555
C15 C13 1_555 1_555
H14 C15 1_555 1_555
H15 C15 1_555 1_555
H16 C15 1_555 1_555
C16 O3 1_555 1_555
H17 C16 1_555 1_555
H18 C16 1_555 1_555
C17 C16 1_555 1_555
C18 C17 1_555 1_555
H19 C18 1_555 1_555
C19 C18 1_555 1_555
H20 C19 1_555 1_555
C20 C19 1_555 1_555
H21 C20 1_555 1_555
C21 C20 1_555 1_555
H22 C21 1_555 1_555
C22 C17 1_555 1_555
H23 C22 1_555 1_555
C1 C8 1_555 1_555
C6 C7 1_555 1_555
C12 C13 1_555 1_555
C21 C22 1_555 1_555

#END
