
#######################################################################
#
#                 Cambridge Crystallographic Data Centre
#                                CCDC 
#
#######################################################################
#
# If this CIF has been generated from an entry in the Cambridge 
# Structural Database, then it will include bibliographic, chemical, 
# crystal, experimental, refinement or atomic coordinate data resulting 
# from the CCDC's data processing and validation procedures.
#
#######################################################################

data_KAWSIN
_chemical_formula_moiety         'C26 H20 N2 O1,C1 H1 Cl3'
_chemical_name_systematic        
"6-methoxy-3,10-dimethylquinolino[3',4':4,5]pyrrolo[1,2-f]phenanthridine chloroform solvate"
_symmetry_cell_setting           triclinic
_symmetry_space_group_name_H-M   'P -1'
_symmetry_Int_Tables_number      2
_space_group_name_Hall           '-P 1'
loop_
_symmetry_equiv_pos_site_id
_symmetry_equiv_pos_as_xyz
1 x,y,z
2 -x,-y,-z
_cell_length_a                   7.2427(2)
_cell_length_b                   10.3539(2)
_cell_length_c                   15.8131(3)
_cell_angle_alpha                90.3390(7)
_cell_angle_beta                 102.6184(7)
_cell_angle_gamma                96.4918(7)
_cell_volume                     1149.19
_exptl_crystal_colour            yellow
_exptl_crystal_description       'part of a needle'
_cell_formula_units_Z            2
loop_
_atom_site_label
_atom_site_type_symbol
_atom_site_fract_x
_atom_site_fract_y
_atom_site_fract_z
C1 C 0.5898(2) 0.83588(15) 0.76157(10)
C2 C 0.6079(2) 0.95641(16) 0.72116(10)
H1 H 0.5498 0.9623 0.6616
C3 C 0.7077(2) 1.06505(16) 0.76629(11)
H2 H 0.7173 1.1455 0.7381
C4 C 0.7955(2) 1.05717(15) 0.85417(10)
H3 H 0.8697 1.1315 0.8847
C5 C 0.7748(2) 0.94238(15) 0.89641(10)
H4 H 0.8332 0.9390 0.9562
C6 C 0.6679(2) 0.82907(14) 0.85230(9)
C7 C 0.6496(2) 0.70182(14) 0.88631(9)
C8 C 0.5915(2) 0.59345(15) 0.82919(10)
C9 C 0.5157(2) 0.61245(16) 0.73997(10)
C10 C 0.4453(3) 0.49673(18) 0.67878(11)
H5 H 0.3533 0.5219 0.6282
H6 H 0.3836 0.4272 0.7084
H7 H 0.5531 0.4657 0.6598
C11 C 0.6271(2) 0.47951(15) 0.87639(10)
H8 H 0.6035 0.3926 0.8536
C12 C 0.7021(2) 0.51855(14) 0.96107(10)
C13 C 0.7768(2) 0.44759(14) 1.03666(10)
C14 C 0.7831(2) 0.31259(15) 1.02986(11)
H9 H 0.7378 0.2686 0.9751
C15 C 0.8536(2) 0.24376(16) 1.10119(12)
H10 H 0.8561 0.1526 1.0958
C16 C 0.9220(2) 0.30794(16) 1.18194(12)
C17 C 0.9208(2) 0.44091(16) 1.19010(11)
H11 H 0.9704 0.4843 1.2448
C18 C 0.8462(2) 0.51221(14) 1.11741(10)
C19 C 0.8201(2) 0.65029(14) 1.12531(10)
C20 C 0.8535(2) 0.71671(15) 1.20563(10)
H12 H 0.9183 0.6765 1.2556
C21 C 0.7966(2) 0.83830(15) 1.21577(10)
C22 C 0.6947(2) 0.89388(15) 1.14221(10)
H13 H 0.6453 0.9739 1.1480
C23 C 0.6648(2) 0.83400(14) 1.06134(10)
H14 H 0.5956 0.8733 1.0121
C24 C 0.7358(2) 0.71583(14) 1.05126(9)
C25 C 1.0408(3) 0.2866(2) 1.33356(13)
H15 H 1.1488 0.3540 1.3368
H16 H 1.0778 0.2193 1.3752
H17 H 0.9333 0.3255 1.3474
C26 C 0.8397(3) 0.90724(18) 1.30301(11)
H18 H 0.7403 0.9630 1.3056
H19 H 0.9635 0.9606 1.3119
H20 H 0.8436 0.8430 1.3484
N1 N 0.50807(19) 0.72903(14) 0.70795(9)
N2 N 0.70897(17) 0.65458(12) 0.96868(8)
O1 O 0.98644(19) 0.22990(12) 1.24857(9)
C27 C 0.3230(3) 0.75872(19) 0.50887(12)
H21 H 0.3663 0.7415 0.5718
Cl1 Cl 0.22448(10) 0.90625(6) 0.49948(4)
Cl2 Cl 0.15270(11) 0.62899(6) 0.46027(4)
Cl3 Cl 0.52173(12) 0.76827(7) 0.46083(5)
loop_
_geom_bond_atom_site_label_1
_geom_bond_atom_site_label_2
_geom_bond_site_symmetry_1
_geom_bond_site_symmetry_2
C1 C2 1_555 1_555
C2 H1 1_555 1_555
C3 C2 1_555 1_555
H2 C3 1_555 1_555
C4 C3 1_555 1_555
H3 C4 1_555 1_555
C5 C4 1_555 1_555
H4 C5 1_555 1_555
C6 C1 1_555 1_555
C7 C6 1_555 1_555
C8 C7 1_555 1_555
C9 C8 1_555 1_555
C10 C9 1_555 1_555
H5 C10 1_555 1_555
H6 C10 1_555 1_555
H7 C10 1_555 1_555
C11 C8 1_555 1_555
H8 C11 1_555 1_555
C12 C11 1_555 1_555
C13 C12 1_555 1_555
C14 C13 1_555 1_555
H9 C14 1_555 1_555
C15 C14 1_555 1_555
H10 C15 1_555 1_555
C16 C15 1_555 1_555
C17 C16 1_555 1_555
H11 C17 1_555 1_555
C18 C13 1_555 1_555
C19 C18 1_555 1_555
C20 C19 1_555 1_555
H12 C20 1_555 1_555
C21 C20 1_555 1_555
C22 C21 1_555 1_555
H13 C22 1_555 1_555
C23 C22 1_555 1_555
H14 C23 1_555 1_555
C24 C19 1_555 1_555
C25 H15 1_555 1_555
H16 C25 1_555 1_555
H17 C25 1_555 1_555
C26 C21 1_555 1_555
H18 C26 1_555 1_555
H19 C26 1_555 1_555
H20 C26 1_555 1_555
N1 C1 1_555 1_555
N2 C7 1_555 1_555
O1 C16 1_555 1_555
C27 H21 1_555 1_555
Cl1 C27 1_555 1_555
Cl2 C27 1_555 1_555
Cl3 C27 1_555 1_555
C5 C6 1_555 1_555
C9 N1 1_555 1_555
C12 N2 1_555 1_555
C17 C18 1_555 1_555
C23 C24 1_555 1_555
C24 N2 1_555 1_555
C25 O1 1_555 1_555

#END
