
#######################################################################
#
#                 Cambridge Crystallographic Data Centre
#                                CCDC 
#
#######################################################################
#
# If this CIF has been generated from an entry in the Cambridge 
# Structural Database, then it will include bibliographic, chemical, 
# crystal, experimental, refinement or atomic coordinate data resulting 
# from the CCDC's data processing and validation procedures.
#
#######################################################################

data_KAWTIO
_chemical_formula_moiety         
'C4 N6 O9 2-,1.78(H4 N1 O1 1+),C2 H3 N1,0.22(H4 N1 1+)'
_chemical_name_systematic        
'ammonium hydroxyammonium  (5-(dinitromethanidyl)-1,3,4-oxadiazol-2-yl)(dinitro)methanide acetonitrile solvate'
_symmetry_cell_setting           triclinic
_symmetry_space_group_name_H-M   'P -1'
_symmetry_Int_Tables_number      2
_space_group_name_Hall           '-P 1'
loop_
_symmetry_equiv_pos_site_id
_symmetry_equiv_pos_as_xyz
1 x,y,z
2 -x,-y,-z
_cell_length_a                   8.7323(4)
_cell_length_b                   9.1831(4)
_cell_length_c                   10.7288(5)
_cell_angle_alpha                106.9460(10)
_cell_angle_beta                 97.088(2)
_cell_angle_gamma                109.4550(10)
_cell_volume                     752.453
_exptl_crystal_colour            colorless
_exptl_crystal_description       block
_cell_formula_units_Z            2
loop_
_atom_site_label
_atom_site_type_symbol
_atom_site_fract_x
_atom_site_fract_y
_atom_site_fract_z
O1 O 0.64309(11) 0.18251(13) 0.47677(9)
O2 O 0.48987(11) 0.09917(13) 0.27434(9)
N1 N 0.51448(12) 0.16540(12) 0.39753(10)
C1 C 0.40647(13) 0.22801(13) 0.45647(10)
N2 N 0.26647(11) 0.22748(11) 0.38253(10)
O3 O 0.21658(11) 0.15847(11) 0.25833(8)
O4 O 0.18727(11) 0.30157(11) 0.44758(10)
C2 C 0.44304(13) 0.29965(12) 0.60181(11)
N3 N 0.40303(15) 0.22294(12) 0.68318(10)
N4 N 0.46168(16) 0.34429(13) 0.81266(10)
C3 C 0.53141(13) 0.48273(13) 0.79710(10)
O5 O 0.52530(9) 0.46577(9) 0.66603(7)
C4 C 0.60881(13) 0.64720(13) 0.89962(10)
N5 N 0.78008(12) 0.71409(12) 0.94949(10)
O6 O 0.85463(12) 0.62292(14) 0.90408(11)
O7 O 0.85816(11) 0.85636(11) 1.03310(9)
N6 N 0.50865(12) 0.73015(12) 0.93990(10)
O8 O 0.35414(12) 0.65121(14) 0.88944(11)
O9 O 0.56268(11) 0.87376(10) 1.02296(8)
O10 O 0.11050(12) 0.80941(12) 0.75510(12)
H1 H 0.0091(13) 0.772(2) 0.7160(19)
N7 N 0.18581(12) 0.94963(11) 0.72163(10)
H2 H 0.2603 1.0330 0.7958
H3 H 0.1056 0.9821 0.6909
H4 H 0.2402 0.9244 0.6566
C5 C 0.99599(18) 0.41304(16) 0.67339(16)
H5 H 1.1139 0.4892 0.7012
H6 H 0.9377 0.4494 0.7410
H7 H 0.9436 0.4121 0.5868
C6 C 0.98532(16) 0.24758(17) 0.66024(13)
N8 N 0.97826(18) 0.11864(17) 0.64935(16)
N9 N 0.204(4) 0.857(4) 0.051(3)
H8 H 0.316(4) 0.876(8) 0.066(7)
H9 H 0.189(8) 0.929(6) 0.124(5)
H10 H 0.147(7) 0.751(5) 0.050(6)
H11 H 0.170(8) 0.857(8) -0.033(4)
H12? H 0.8829 0.4113 0.6514
H13? H 1.0591 0.4510 0.6117
H14? H 1.0532 0.4883 0.7659
O11? O 0.19626(19) 0.72986(17) 0.10518(16)
H15? H 0.235(3) 0.674(2) 0.055(2)
N10? N 0.2125(10) 0.8644(10) 0.0603(8)
H16? H 0.2722 0.9613 0.1298
H17? H 0.1090 0.8609 0.0294
H18? H 0.2667 0.8570 -0.0071
loop_
_geom_bond_atom_site_label_1
_geom_bond_atom_site_label_2
_geom_bond_site_symmetry_1
_geom_bond_site_symmetry_2
O1 N1 1_555 1_555
O2 N1 1_555 1_555
N1 C1 1_555 1_555
C1 N2 1_555 1_555
N2 O3 1_555 1_555
O4 N2 1_555 1_555
C2 C1 1_555 1_555
N3 C2 1_555 1_555
N4 N3 1_555 1_555
C3 N4 1_555 1_555
O5 C2 1_555 1_555
C4 C3 1_555 1_555
N5 C4 1_555 1_555
O6 N5 1_555 1_555
O7 N5 1_555 1_555
N6 C4 1_555 1_555
O8 N6 1_555 1_555
O9 N6 1_555 1_555
O10 H1 1_555 1_555
N7 O10 1_555 1_555
H2 N7 1_555 1_555
H3 N7 1_555 1_555
H4 N7 1_555 1_555
C5 H5 1_555 1_555
H6 C5 1_555 1_555
H7 C5 1_555 1_555
C6 C5 1_555 1_555
N8 C6 1_555 1_555
N9 H8 1_555 1_555
H9 N9 1_555 1_555
H10 N9 1_555 1_555
H11 N9 1_555 1_555
C3 O5 1_555 1_555

#END
