
#######################################################################
#
#                 Cambridge Crystallographic Data Centre
#                                CCDC 
#
#######################################################################
#
# If this CIF has been generated from an entry in the Cambridge 
# Structural Database, then it will include bibliographic, chemical, 
# crystal, experimental, refinement or atomic coordinate data resulting 
# from the CCDC's data processing and validation procedures.
#
#######################################################################

data_KAWTUA
_chemical_formula_moiety         'C4 N6 O9 2-,H4 N1 O1 1+,H4 N1 1+'
_chemical_name_systematic        
'ammonium hydroxyammonium (5-(dinitromethanidyl)-1,3,4-oxadiazol-2-yl)(dinitro)methanide'
_symmetry_cell_setting           monoclinic
_symmetry_space_group_name_H-M   'P 21/m'
_symmetry_Int_Tables_number      11
_space_group_name_Hall           '-P 2yb'
loop_
_symmetry_equiv_pos_site_id
_symmetry_equiv_pos_as_xyz
1 x,y,z
2 -x,1/2+y,-z
3 -x,-y,-z
4 x,1/2-y,z
_cell_length_a                   7.9746(4)
_cell_length_b                   7.8152(4)
_cell_length_c                   9.1640(4)
_cell_angle_alpha                90
_cell_angle_beta                 96.480(2)
_cell_angle_gamma                90
_cell_volume                     567.48
_exptl_crystal_colour            yellow
_exptl_crystal_description       plate
_cell_formula_units_Z            2
loop_
_atom_site_label
_atom_site_type_symbol
_atom_site_fract_x
_atom_site_fract_y
_atom_site_fract_z
O1 O 0.16523(10) -0.03650(11) 0.43215(8)
O2 O -0.01495(10) 0.08167(11) 0.26527(9)
N1 N 0.09665(11) 0.09445(12) 0.37121(9)
C1 C 0.15356(18) 0.2500 0.42794(15)
C2 C 0.27453(18) 0.2500 0.55901(15)
N2 N 0.43783(16) 0.2500 0.57037(14)
N3 N 0.49373(16) 0.2500 0.72100(14)
C3 C 0.35919(17) 0.2500 0.78727(15)
C4 C 0.34779(17) 0.2500 0.94456(15)
N4 N 0.32753(10) 0.40435(11) 1.01300(9)
O3 O 0.31950(10) 0.41590(11) 1.14776(8)
O4 O 0.31762(9) 0.53528(10) 0.93264(8)
O5 O 0.21475(12) 0.2500 0.69214(10)
O1C O 0.16523(10) 0.53650(11) 0.43215(8)
O2C O -0.01495(10) 0.41833(11) 0.26527(9)
N1C N 0.09665(11) 0.40555(12) 0.37121(9)
N4C N 0.32753(10) 0.09565(11) 1.01300(9)
O3C O 0.31950(10) 0.08410(11) 1.14776(8)
O4C O 0.31762(9) -0.03528(10) 0.93264(8)
O6 O 0.02266(15) 0.7500 0.03499(13)
H1 H 0.082(3) 0.7500 -0.033(2)
N5 N 0.14571(17) 0.7500 0.15674(15)
H2 H 0.092(3) 0.7500 0.2377(17)
H3 H 0.2088(17) 0.8464(15) 0.1577(17)
H3C H 0.2088(17) 0.6536(15) 0.1577(17)
N6 N 0.64241(18) 0.2500 0.32411(15)
H4 H 0.599(2) 0.2500 0.4110(15)
H5 H 0.7120(14) 0.1632(17) 0.3161(12)
H6 H 0.5547(16) 0.2500 0.2524(19)
H5C H 0.7120(14) 0.3368(17) 0.3161(12)
loop_
_geom_bond_atom_site_label_1
_geom_bond_atom_site_label_2
_geom_bond_site_symmetry_1
_geom_bond_site_symmetry_2
O1 N1 1_555 1_555
O2 N1 1_555 1_555
N1 C1 1_555 1_555
C1 C2 1_555 1_555
C2 N2 1_555 1_555
N2 N3 1_555 1_555
N3 C3 1_555 1_555
C3 C4 1_555 1_555
C4 N4 1_555 1_555
N4 O3 1_555 1_555
O4 N4 1_555 1_555
O5 C2 1_555 1_555
O6 H1 1_555 1_555
N5 O6 1_555 1_555
H2 N5 1_555 1_555
H3 N5 1_555 1_555
N6 H4 1_555 1_555
H5 N6 1_555 1_555
H6 N6 1_555 1_555
O1C N1C 1_555 1_555
O2C N1C 1_555 1_555
N1C C1 1_555 1_555
N4C C4 1_555 1_555
O3C N4C 1_555 1_555
O4C N4C 1_555 1_555
H3C N5 1_555 1_555
H5C N6 1_555 1_555
C3 O5 1_555 1_555

#END
