
#######################################################################
#
#                 Cambridge Crystallographic Data Centre
#                                CCDC 
#
#######################################################################
#
# If this CIF has been generated from an entry in the Cambridge 
# Structural Database, then it will include bibliographic, chemical, 
# crystal, experimental, refinement or atomic coordinate data resulting 
# from the CCDC's data processing and validation procedures.
#
#######################################################################

data_KAXGIC
_chemical_formula_moiety         'C48 H44 N2 O4'
_chemical_name_systematic        
7-t-butyl-N,N,N',N'-tetrakis(4-methoxyphenyl)pyrene-1,3-diamine
_symmetry_cell_setting           monoclinic
_symmetry_space_group_name_H-M   'P 21/n'
_symmetry_Int_Tables_number      14
_space_group_name_Hall           '-P 2yn'
loop_
_symmetry_equiv_pos_site_id
_symmetry_equiv_pos_as_xyz
1 x,y,z
2 1/2-x,1/2+y,1/2-z
3 -x,-y,-z
4 1/2+x,1/2-y,1/2+z
_cell_length_a                   14.2417(7)
_cell_length_b                   10.5901(5)
_cell_length_c                   25.0529(13)
_cell_angle_alpha                90
_cell_angle_beta                 92.0537(8)
_cell_angle_gamma                90
_cell_volume                     3776.08
_exptl_crystal_colour            orange
_exptl_crystal_description       block
_chemical_melting_point          '533-534 K'
_cell_formula_units_Z            4
_exptl_crystal_recrystallization_method ethylacetate
loop_
_atom_site_label
_atom_site_type_symbol
_atom_site_fract_x
_atom_site_fract_y
_atom_site_fract_z
C1 C 0.92099(8) 0.49326(11) 0.16431(5)
C2 C 1.01404(8) 0.47733(11) 0.18723(5)
C3 C 1.03352(8) 0.50182(13) 0.24219(5)
C4 C 1.12511(9) 0.48515(14) 0.26352(6)
H1 H 1.137207 0.500337 0.300502
C5 C 1.19926(9) 0.44685(14) 0.23205(6)
C6 C 1.17980(9) 0.42581(13) 0.17788(6)
H2 H 1.229526 0.401089 0.155858
C7 C 1.08910(8) 0.43993(12) 0.15476(5)
C8 C 1.07021(9) 0.42104(13) 0.09885(5)
H3 H 1.120468 0.400305 0.076506
C9 C 0.98173(9) 0.43216(12) 0.07703(5)
H4 H 0.971009 0.416379 0.039981
C10 C 0.90420(8) 0.46738(11) 0.10905(5)
C11 C 0.81189(8) 0.48234(11) 0.08740(5)
C12 C 0.74262(8) 0.53345(11) 0.11849(5)
H5 H 0.681505 0.546025 0.102957
C13 C 0.75985(8) 0.56697(11) 0.17187(5)
C14 C 0.84879(8) 0.54211(11) 0.19673(4)
C15 C 0.87128(9) 0.56827(13) 0.25219(5)
H6 H 0.823892 0.601053 0.274051
C16 C 0.95862(9) 0.54717(14) 0.27395(5)
H7 H 0.970387 0.562726 0.310928
C17 C 1.29894(10) 0.43482(17) 0.25739(7)
C18 C 1.33164(14) 0.5654(2) 0.27687(12)
H8 H 1.335199 0.622678 0.246295
H9 H 1.393802 0.558101 0.294679
H10 H 1.286831 0.598768 0.302083
C19 C 1.29956(12) 0.3427(2) 0.30458(8)
H11 H 1.257136 0.373632 0.331604
H12 H 1.363427 0.336149 0.320237
H13 H 1.278522 0.259335 0.292058
C20 C 1.36953(11) 0.3853(2) 0.21767(9)
H14 H 1.350379 0.300877 0.205458
H15 H 1.432090 0.380728 0.235164
H16 H 1.371251 0.442465 0.186969
N1 N 0.79032(8) 0.44356(10) 0.03391(4)
C21 C 0.80189(8) 0.31228(12) 0.02217(5)
C22 C 0.78803(9) 0.22051(12) 0.06088(5)
H17 H 0.767637 0.244823 0.095082
C23 C 0.80366(9) 0.09401(13) 0.05007(6)
H18 H 0.793807 0.032331 0.076829
C24 C 0.83342(9) 0.05731(12) 0.00068(6)
C25 C 0.84593(11) 0.14714(14) -0.03862(6)
H19 H 0.865243 0.121959 -0.072933
C26 C 0.83018(10) 0.27473(13) -0.02789(5)
H20 H 0.838862 0.336048 -0.054951
O1 O 0.84898(9) -0.06981(10) -0.00557(5)
C27 C 0.90001(18) -0.10785(18) -0.04966(10)
H21 H 0.860437 -0.099832 -0.082300
H22 H 0.919526 -0.196035 -0.045042
H23 H 0.955725 -0.054267 -0.052447
C28 C 0.72451(8) 0.51584(11) 0.00250(5)
C29 C 0.64830(9) 0.46112(12) -0.02491(5)
H24 H 0.638857 0.372507 -0.022638
C30 C 0.58533(10) 0.53439(13) -0.05577(6)
H25 H 0.533851 0.495620 -0.074545
C31 C 0.59835(10) 0.66385(13) -0.05885(5)
C32 C 0.67490(10) 0.71947(13) -0.03160(6)
H26 H 0.684200 0.808114 -0.033812
C33 C 0.73721(9) 0.64649(12) -0.00143(5)
H27 H 0.789195 0.685379 0.016819
O2 O 0.54101(8) 0.74514(11) -0.08783(5)
C34 C 0.45603(12) 0.69485(18) -0.11002(7)
H28 H 0.470261 0.632102 -0.137320
H29 H 0.418350 0.763069 -0.126299
H30 H 0.420709 0.654625 -0.081784
N2 N 0.68739(7) 0.62785(10) 0.20003(4)
C35 C 0.62229(9) 0.70317(12) 0.16899(5)
C36 C 0.6420(3) 0.7915(5) 0.1336(2)
H31 H 0.705998 0.814451 0.130156
C37 C 0.5751(3) 0.8524(3) 0.10134(11)
H32 H 0.593619 0.915202 0.076733
C38 C 0.4812(3) 0.8212(4) 0.10522(13)
C39 C 0.4545(2) 0.7325(4) 0.14173(15)
H33 H 0.389844 0.714243 0.145700
C40 C 0.5228(3) 0.6691(7) 0.1730(3)
H34 H 0.504871 0.604325 0.196817
O3 O 0.40980(16) 0.8749(3) 0.07450(9)
C41 C 0.4354(2) 0.9409(3) 0.02806(14)
H35 H 0.378899 0.974599 0.009706
H36 H 0.477658 1.010671 0.038178
H37 H 0.467496 0.883189 0.004160
C42 C 0.65206(8) 0.56919(11) 0.24654(5)
C43 C 0.65209(9) 0.43931(12) 0.25305(5)
H38 H 0.677494 0.387082 0.226323
C44 C 0.61520(9) 0.38409(12) 0.29848(5)
H39 H 0.615920 0.294939 0.302679
C45 C 0.57752(9) 0.46031(12) 0.33740(5)
C46 C 0.57677(9) 0.59173(12) 0.33096(5)
H40 H 0.550486 0.643943 0.357406
C47 C 0.61426(8) 0.64552(12) 0.28616(5)
H41 H 0.614418 0.734737 0.282202
O4 O 0.53934(7) 0.41577(9) 0.38327(4)
C48 C 0.54944(11) 0.28389(14) 0.39391(6)
H42 H 0.512419 0.235734 0.367205
H43 H 0.527042 0.265249 0.429597
H44 H 0.615783 0.260176 0.392235
C49? C 0.6690(3) 0.8073(5) 0.1406(2)
H45? H 0.734841 0.820497 0.144863
C50? C 0.6143(3) 0.8850(3) 0.10756(13)
H46? H 0.642755 0.950998 0.088213
C51? C 0.5173(3) 0.8663(3) 0.10271(11)
C52? C 0.4758(3) 0.7726(4) 0.13119(17)
H47? H 0.409660 0.761295 0.128644
C53? C 0.5309(5) 0.6943(8) 0.1638(3)
H48? H 0.500488 0.630545 0.183521
O5? O 0.47074(16) 0.9487(2) 0.06912(10)
C54? C 0.3739(2) 0.9292(3) 0.05920(16)
H49? H 0.349263 0.994307 0.034681
H50? H 0.363772 0.845701 0.043129
H51? H 0.341166 0.933971 0.092901
loop_
_geom_bond_atom_site_label_1
_geom_bond_atom_site_label_2
_geom_bond_site_symmetry_1
_geom_bond_site_symmetry_2
C1 C2 1_555 1_555
C2 C3 1_555 1_555
C3 C4 1_555 1_555
C4 H1 1_555 1_555
C5 C4 1_555 1_555
C6 C5 1_555 1_555
H2 C6 1_555 1_555
C7 C2 1_555 1_555
C8 C7 1_555 1_555
H3 C8 1_555 1_555
C9 C8 1_555 1_555
H4 C9 1_555 1_555
C10 C1 1_555 1_555
C11 C10 1_555 1_555
C12 C11 1_555 1_555
H5 C12 1_555 1_555
C13 C12 1_555 1_555
C14 C1 1_555 1_555
C15 C14 1_555 1_555
H6 C15 1_555 1_555
C16 C3 1_555 1_555
H7 C16 1_555 1_555
C17 C5 1_555 1_555
C18 C17 1_555 1_555
H8 C18 1_555 1_555
H9 C18 1_555 1_555
H10 C18 1_555 1_555
C19 C17 1_555 1_555
H11 C19 1_555 1_555
H12 C19 1_555 1_555
H13 C19 1_555 1_555
C20 C17 1_555 1_555
H14 C20 1_555 1_555
H15 C20 1_555 1_555
H16 C20 1_555 1_555
N1 C11 1_555 1_555
C21 N1 1_555 1_555
C22 C21 1_555 1_555
H17 C22 1_555 1_555
C23 C22 1_555 1_555
H18 C23 1_555 1_555
C24 C23 1_555 1_555
C25 C24 1_555 1_555
H19 C25 1_555 1_555
C26 C21 1_555 1_555
H20 C26 1_555 1_555
O1 C24 1_555 1_555
C27 O1 1_555 1_555
H21 C27 1_555 1_555
H22 C27 1_555 1_555
H23 C27 1_555 1_555
C28 N1 1_555 1_555
C29 C28 1_555 1_555
H24 C29 1_555 1_555
C30 C29 1_555 1_555
H25 C30 1_555 1_555
C31 C30 1_555 1_555
C32 C31 1_555 1_555
H26 C32 1_555 1_555
C33 C28 1_555 1_555
H27 C33 1_555 1_555
O2 C31 1_555 1_555
C34 O2 1_555 1_555
H28 C34 1_555 1_555
H29 C34 1_555 1_555
H30 C34 1_555 1_555
N2 C13 1_555 1_555
C35 N2 1_555 1_555
C36 C35 1_555 1_555
H31 C36 1_555 1_555
C37 C36 1_555 1_555
H32 C37 1_555 1_555
C38 C37 1_555 1_555
C39 C38 1_555 1_555
H33 C39 1_555 1_555
C40 C35 1_555 1_555
H34 C40 1_555 1_555
O3 C38 1_555 1_555
C41 O3 1_555 1_555
H35 C41 1_555 1_555
H36 C41 1_555 1_555
H37 C41 1_555 1_555
C42 N2 1_555 1_555
C43 C42 1_555 1_555
H38 C43 1_555 1_555
C44 C43 1_555 1_555
H39 C44 1_555 1_555
C45 C44 1_555 1_555
C46 C45 1_555 1_555
H40 C46 1_555 1_555
C47 C42 1_555 1_555
H41 C47 1_555 1_555
O4 C45 1_555 1_555
C48 O4 1_555 1_555
H42 C48 1_555 1_555
H43 C48 1_555 1_555
H44 C48 1_555 1_555
C6 C7 1_555 1_555
C9 C10 1_555 1_555
C13 C14 1_555 1_555
C15 C16 1_555 1_555
C25 C26 1_555 1_555
C32 C33 1_555 1_555
C39 C40 1_555 1_555
C46 C47 1_555 1_555

#END
