
#######################################################################
#
#                 Cambridge Crystallographic Data Centre
#                                CCDC 
#
#######################################################################
#
# If this CIF has been generated from an entry in the Cambridge 
# Structural Database, then it will include bibliographic, chemical, 
# crystal, experimental, refinement or atomic coordinate data resulting 
# from the CCDC's data processing and validation procedures.
#
#######################################################################

data_KAXJEA
_chemical_name_common            'Compound 12'
_chemical_formula_moiety         'C13 H14 N4 O1'
_chemical_name_systematic        1,3-bis(5-methylpyridin-3-yl)urea
_symmetry_cell_setting           orthorhombic
_symmetry_space_group_name_H-M   'P c 21 b'
_symmetry_Int_Tables_number      29
_space_group_name_Hall           'P -2bc -2c'
loop_
_symmetry_equiv_pos_site_id
_symmetry_equiv_pos_as_xyz
1 x,y,z
2 -x,1/2+y,-z
3 -x,y,1/2+z
4 x,1/2+y,1/2-z
_cell_length_a                   8.3851(7)
_cell_length_b                   11.5345(6)
_cell_length_c                   12.4214(10)
_cell_angle_alpha                90
_cell_angle_beta                 90
_cell_angle_gamma                90
_cell_volume                     1201.37
_exptl_crystal_colour            colorless
_exptl_crystal_description       prism
_cell_formula_units_Z            4
loop_
_atom_site_label
_atom_site_type_symbol
_atom_site_fract_x
_atom_site_fract_y
_atom_site_fract_z
O1 O 0.3148(3) 0.55996(19) 0.69314(19)
N1 N 0.5636(4) 0.3267(2) 0.4988(2)
N2 N 0.1362(5) 0.7392(3) 1.0655(2)
N3 N 0.2864(4) 0.5265(2) 0.8745(2)
H1 H 0.303 0.4736 0.9243
N4 N 0.4179(4) 0.3962(2) 0.7717(2)
H2 H 0.4224 0.3597 0.8338
C1 C 0.2088(5) 0.6497(3) 1.0194(3)
H3 H 0.2635 0.5965 1.0647
C2 C 0.4880(5) 0.3814(3) 0.5791(3)
H4 H 0.429 0.4497 0.5634
C3 C 0.4932(5) 0.3414(3) 0.6848(3)
C4 C 0.2100(5) 0.6286(3) 0.9084(3)
C5 C 0.5792(4) 0.2413(3) 0.7058(3)
H5 H 0.5847 0.2125 0.7774
C6 C 0.1329(5) 0.7077(3) 0.8426(3)
H6 H 0.1324 0.6974 0.7668
C7 C 0.0568(5) 0.8015(3) 0.8883(3)
C8 C 0.6572(5) 0.1827(3) 0.6239(3)
C9 C 0.0619(5) 0.8128(3) 1.0000(3)
H7 H 0.009 0.8773 1.0314
C10 C 0.6460(5) 0.2291(3) 0.5212(3)
H8 H 0.6988 0.1903 0.4639
C11 C 0.3386(4) 0.4994(3) 0.7717(3)
C12 C 0.7511(5) 0.0739(3) 0.6448(3)
H9 H 0.8255 0.0607 0.5852
H10 H 0.678 0.0079 0.6506
H11 H 0.811 0.0822 0.7121
C13 C -0.0302(5) 0.8901(3) 0.8208(3)
H12 H 0.0253 0.9647 0.8253
H13 H -0.1395 0.8989 0.8476
H14 H -0.033 0.8641 0.7457
loop_
_geom_bond_atom_site_label_1
_geom_bond_atom_site_label_2
_geom_bond_site_symmetry_1
_geom_bond_site_symmetry_2
O1 C11 1_555 1_555
N1 C2 1_555 1_555
N2 C1 1_555 1_555
N3 H1 1_555 1_555
N4 H2 1_555 1_555
C1 H3 1_555 1_555
C2 H4 1_555 1_555
C3 N4 1_555 1_555
C4 N3 1_555 1_555
C5 C3 1_555 1_555
H5 C5 1_555 1_555
C6 C4 1_555 1_555
H6 C6 1_555 1_555
C7 C6 1_555 1_555
C8 C5 1_555 1_555
C9 N2 1_555 1_555
H7 C9 1_555 1_555
C10 N1 1_555 1_555
H8 C10 1_555 1_555
C11 N3 1_555 1_555
C12 C8 1_555 1_555
H9 C12 1_555 1_555
H10 C12 1_555 1_555
H11 C12 1_555 1_555
C13 C7 1_555 1_555
H12 C13 1_555 1_555
H13 C13 1_555 1_555
H14 C13 1_555 1_555
N4 C11 1_555 1_555
C1 C4 1_555 1_555
C2 C3 1_555 1_555
C7 C9 1_555 1_555
C8 C10 1_555 1_555

#END
