
#######################################################################
#
#                 Cambridge Crystallographic Data Centre
#                                CCDC 
#
#######################################################################
#
# If this CIF has been generated from an entry in the Cambridge 
# Structural Database, then it will include bibliographic, chemical, 
# crystal, experimental, refinement or atomic coordinate data resulting 
# from the CCDC's data processing and validation procedures.
#
#######################################################################

data_KAXLOL
_chemical_formula_moiety         'C8 H7 N3 O6'
_chemical_name_systematic        2,3,5-Trinitro-p-xylene
_symmetry_cell_setting           monoclinic
_symmetry_space_group_name_H-M   'P n'
_symmetry_Int_Tables_number      7
_space_group_name_Hall           'P -2yac'
loop_
_symmetry_equiv_pos_site_id
_symmetry_equiv_pos_as_xyz
1 x,y,z
2 1/2+x,-y,1/2+z
_cell_length_a                   8.271(2)
_cell_length_b                   6.011(1)
_cell_length_c                   10.487(2)
_cell_angle_alpha                90
_cell_angle_beta                 105.42(2)
_cell_angle_gamma                90
_cell_volume                     502.614
_cell_formula_units_Z            2
_exptl_crystal_recrystallization_method dimethylformamide
loop_
_atom_site_label
_atom_site_type_symbol
_atom_site_fract_x
_atom_site_fract_y
_atom_site_fract_z
O1 O 0.3085(4) 0.2335(4) 0.3832(3)
O2 O 0.3392(3) 0.4783(5) 0.2404(2)
O3 O 0.6935(3) 0.5239(5) 0.3790(3)
O4 O 0.6213(3) 0.8512(4) 0.2990(2)
O5 O 0.5252(4) 1.2629(4) 0.7264(3)
O6 O 0.4821(3) 1.0152(5) 0.8635(2)
N1 N 0.3378(3) 0.4220(5) 0.3515(3)
N2 N 0.6176(3) 0.6982(5) 0.3739(2)
N3 N 0.4922(3) 1.0739(5) 0.7542(3)
C1 C 0.2719(4) 0.6113(6) 0.5410(3)
C2 C 0.3759(4) 0.5914(5) 0.4570(3)
C3 C 0.5131(4) 0.7290(5) 0.4673(3)
C4 C 0.5631(4) 0.8917(5) 0.5642(3)
C5 C 0.4577(4) 0.9045(5) 0.6482(3)
C6 C 0.3187(4) 0.7744(5) 0.6388(3)
H1 H 0.2546 0.7953 0.6984
C7 C 0.1163(4) 0.4746(7) 0.5296(4)
H2 H 0.0475 0.4792 0.4401
H3 H 0.0547 0.5340 0.5877
H4 H 0.1473 0.3234 0.5539
C8 C 0.7189(4) 1.0248(7) 0.5785(3)
H5 H 0.8017 0.9356 0.5535
H6 H 0.7611 1.0711 0.6689
H7 H 0.6942 1.1534 0.5225
loop_
_geom_bond_atom_site_label_1
_geom_bond_atom_site_label_2
_geom_bond_site_symmetry_1
_geom_bond_site_symmetry_2
O1 N1 1_555 1_555
O2 N1 1_555 1_555
O3 N2 1_555 1_555
O4 N2 1_555 1_555
O5 N3 1_555 1_555
O6 N3 1_555 1_555
N1 C2 1_555 1_555
N2 C3 1_555 1_555
N3 C5 1_555 1_555
C1 C2 1_555 1_555
C2 C3 1_555 1_555
C3 C4 1_555 1_555
C4 C5 1_555 1_555
C5 C6 1_555 1_555
C6 C1 1_555 1_555
H1 C6 1_555 1_555
C7 C1 1_555 1_555
H2 C7 1_555 1_555
H3 C7 1_555 1_555
H4 C7 1_555 1_555
C8 C4 1_555 1_555
H5 C8 1_555 1_555
H6 C8 1_555 1_555
H7 C8 1_555 1_555

#END
