
#######################################################################
#
#                 Cambridge Crystallographic Data Centre
#                                CCDC 
#
#######################################################################
#
# If this CIF has been generated from an entry in the Cambridge 
# Structural Database, then it will include bibliographic, chemical, 
# crystal, experimental, refinement or atomic coordinate data resulting 
# from the CCDC's data processing and validation procedures.
#
#######################################################################

data_KAXNUV
_chemical_formula_moiety         'C29 H44 O4'
_chemical_name_systematic        '26-oxo-22,26-epoxycholest-5-en-3-yl acetate'
_symmetry_cell_setting           monoclinic
_symmetry_space_group_name_H-M   'P 21'
_symmetry_Int_Tables_number      4
_space_group_name_Hall           'P 2yb'
loop_
_symmetry_equiv_pos_site_id
_symmetry_equiv_pos_as_xyz
1 x,y,z
2 -x,1/2+y,-z
_cell_length_a                   11.851(2)
_cell_length_b                   6.5036(13)
_cell_length_c                   17.863(4)
_cell_angle_alpha                90
_cell_angle_beta                 108.35(3)
_cell_angle_gamma                90
_cell_volume                     1306.77
_exptl_crystal_colour            colorless
_exptl_crystal_description       block
_cell_formula_units_Z            2
loop_
_atom_site_label
_atom_site_type_symbol
_atom_site_fract_x
_atom_site_fract_y
_atom_site_fract_z
O1 O 0.99058(12) 0.7270(2) 0.88274(7)
O2 O 1.0954(2) 0.4388(4) 0.89346(12)
O3 O 0.52536(9) 0.6736(2) 0.07779(7)
O4 O 0.45178(12) 0.6371(2) -0.05047(8)
C1 C 0.8084(2) 0.5753(3) 0.67573(12)
H1 H 0.7353 0.4969 0.6568
H2 H 0.8688 0.5021 0.6602
C2 C 0.8464(2) 0.5822(4) 0.76614(12)
H3 H 0.7825 0.6384 0.7829
H4 H 0.8630 0.4440 0.7872
C3 C 0.95562(17) 0.7132(3) 0.79738(10)
H5 H 1.0208 0.6526 0.7820
C4 C 0.93277(16) 0.9283(3) 0.76521(10)
H6 H 1.0047 1.0096 0.7852
H7 H 0.8714 0.9917 0.7828
C5 C 0.89383(14) 0.9255(3) 0.67599(9)
C6 C 0.94909(15) 1.0394(3) 0.63616(11)
H8 H 1.0124 1.1202 0.6654
C7 C 0.91791(16) 1.0480(3) 0.54851(10)
H9 H 0.9790 0.9772 0.5329
H10 H 0.9174 1.1906 0.5324
C8 C 0.79726(14) 0.9519(3) 0.50502(9)
H11 H 0.7342 1.0496 0.5048
C9 C 0.78008(13) 0.7536(3) 0.54722(9)
H12 H 0.8466 0.6636 0.5477
C10 C 0.78867(14) 0.7858(3) 0.63472(10)
C11 C 0.66660(17) 0.6385(3) 0.49953(10)
H13 H 0.6637 0.5074 0.5248
H14 H 0.5979 0.7177 0.5008
C12 C 0.65838(17) 0.6002(3) 0.41394(10)
H15 H 0.5826 0.5362 0.3868
H16 H 0.7208 0.5057 0.4121
C13 C 0.67014(13) 0.7986(2) 0.37144(9)
C14 C 0.78828(13) 0.8992(2) 0.42012(9)
H17 H 0.8493 0.7943 0.4242
C15 C 0.81039(18) 1.0636(3) 0.36547(11)
H18 H 0.7706 1.1910 0.3702
H19 H 0.8948 1.0902 0.3775
C16 C 0.75911(17) 0.9738(3) 0.28375(11)
H20 H 0.8222 0.9448 0.2614
H21 H 0.7043 1.0705 0.2495
C17 C 0.69337(13) 0.7733(3) 0.29103(9)
H22 H 0.7508 0.6611 0.2975
C18 C 0.67549(16) 0.8871(4) 0.64286(12)
H23 H 0.6840 0.9050 0.6977
H24 H 0.6081 0.8008 0.6188
H25 H 0.6639 1.0186 0.6172
C19 C 0.56311(17) 0.9415(4) 0.36278(12)
H26 H 0.5499 0.9553 0.4129
H27 H 0.4936 0.8841 0.3252
H28 H 0.5791 1.0743 0.3449
C20 C 0.58858(14) 0.7234(3) 0.21724(10)
H29 H 0.5330 0.8392 0.2086
C21 C 0.5198(2) 0.5302(5) 0.22553(13)
H30 H 0.4557 0.5080 0.1776
H31 H 0.4883 0.5476 0.2685
H32 H 0.5723 0.4138 0.2357
C22 C 0.63118(13) 0.7101(3) 0.14480(9)
H33 H 0.6658 0.8425 0.1376
C23 C 0.72063(16) 0.5408(4) 0.14730(10)
H34 H 0.6916 0.4121 0.1617
H35 H 0.7953 0.5731 0.1874
C24 C 0.74201(14) 0.5154(3) 0.06812(10)
H36 H 0.7252 0.3743 0.0505
H37 H 0.8251 0.5420 0.0748
C25 C 0.66498(15) 0.6599(3) 0.00460(10)
H38 H 0.6954 0.7999 0.0177
C26 C 0.53888(15) 0.6557(3) 0.00639(10)
C27 C 0.6737(2) 0.6074(4) -0.07654(11)
H39 H 0.7554 0.6123 -0.0749
H40 H 0.6284 0.7051 -0.1145
H41 H 0.6427 0.4718 -0.0914
C28 C 1.0619(2) 0.5794(4) 0.92382(13)
C29 C 1.0945(3) 0.6152(5) 1.01039(13)
H42 H 1.1461 0.5071 1.0380
H43 H 1.0238 0.6166 1.0257
H44 H 1.1345 0.7450 1.0233
loop_
_geom_bond_atom_site_label_1
_geom_bond_atom_site_label_2
_geom_bond_site_symmetry_1
_geom_bond_site_symmetry_2
O1 C3 1_555 1_555
O2 C28 1_555 1_555
O3 C22 1_555 1_555
O4 C26 1_555 1_555
C1 H1 1_555 1_555
H2 C1 1_555 1_555
C2 C1 1_555 1_555
H3 C2 1_555 1_555
H4 C2 1_555 1_555
C3 C2 1_555 1_555
H5 C3 1_555 1_555
C4 C3 1_555 1_555
H6 C4 1_555 1_555
H7 C4 1_555 1_555
C5 C4 1_555 1_555
C6 C5 1_555 1_555
H8 C6 1_555 1_555
C7 C6 1_555 1_555
H9 C7 1_555 1_555
H10 C7 1_555 1_555
C8 C7 1_555 1_555
H11 C8 1_555 1_555
C9 C8 1_555 1_555
H12 C9 1_555 1_555
C10 C1 1_555 1_555
C11 C9 1_555 1_555
H13 C11 1_555 1_555
H14 C11 1_555 1_555
C12 C11 1_555 1_555
H15 C12 1_555 1_555
H16 C12 1_555 1_555
C13 C12 1_555 1_555
C14 C8 1_555 1_555
H17 C14 1_555 1_555
C15 C14 1_555 1_555
H18 C15 1_555 1_555
H19 C15 1_555 1_555
C16 C15 1_555 1_555
H20 C16 1_555 1_555
H21 C16 1_555 1_555
C17 C13 1_555 1_555
H22 C17 1_555 1_555
C18 C10 1_555 1_555
H23 C18 1_555 1_555
H24 C18 1_555 1_555
H25 C18 1_555 1_555
C19 C13 1_555 1_555
H26 C19 1_555 1_555
H27 C19 1_555 1_555
H28 C19 1_555 1_555
C20 C17 1_555 1_555
H29 C20 1_555 1_555
C21 C20 1_555 1_555
H30 C21 1_555 1_555
H31 C21 1_555 1_555
H32 C21 1_555 1_555
C22 C20 1_555 1_555
H33 C22 1_555 1_555
C23 C22 1_555 1_555
H34 C23 1_555 1_555
H35 C23 1_555 1_555
C24 C23 1_555 1_555
H36 C24 1_555 1_555
H37 C24 1_555 1_555
C25 C24 1_555 1_555
H38 C25 1_555 1_555
C26 O3 1_555 1_555
C27 C25 1_555 1_555
H39 C27 1_555 1_555
H40 C27 1_555 1_555
H41 C27 1_555 1_555
C28 O1 1_555 1_555
C29 C28 1_555 1_555
H42 C29 1_555 1_555
H43 C29 1_555 1_555
H44 C29 1_555 1_555
C5 C10 1_555 1_555
C9 C10 1_555 1_555
C13 C14 1_555 1_555
C16 C17 1_555 1_555
C25 C26 1_555 1_555

#END
