
#######################################################################
#
#                 Cambridge Crystallographic Data Centre
#                                CCDC 
#
#######################################################################
#
# If this CIF has been generated from an entry in the Cambridge 
# Structural Database, then it will include bibliographic, chemical, 
# crystal, experimental, refinement or atomic coordinate data resulting 
# from the CCDC's data processing and validation procedures.
#
#######################################################################

data_KAXRAF
_chemical_formula_moiety         'C16 H16 F2 O4'
_chemical_name_systematic        
2,2-difluoro-3,3-dihydroxy-8,8-dimethyl-2,3,5,6,7,8-hexahydrophenanthrene-1,4-dione
_symmetry_cell_setting           monoclinic
_symmetry_space_group_name_H-M   'P 21/c'
_symmetry_Int_Tables_number      14
_space_group_name_Hall           '-P 2ybc'
loop_
_symmetry_equiv_pos_site_id
_symmetry_equiv_pos_as_xyz
1 x,y,z
2 -x,1/2+y,1/2-z
3 -x,-y,-z
4 x,1/2-y,1/2+z
_cell_length_a                   7.5298(18)
_cell_length_b                   9.348(2)
_cell_length_c                   21.330(5)
_cell_angle_alpha                90
_cell_angle_beta                 97.807(5)
_cell_angle_gamma                90
_cell_volume                     1487.47
_exptl_crystal_colour            colorless
_exptl_crystal_description       block
_cell_formula_units_Z            4
loop_
_atom_site_label
_atom_site_type_symbol
_atom_site_fract_x
_atom_site_fract_y
_atom_site_fract_z
F1 F 0.13172(17) 1.01288(13) 0.33907(6)
F2 F -0.11045(16) 0.99272(14) 0.38423(7)
O1 O 0.07313(17) 0.80938(15) 0.47597(6)
H1 H -0.0055 0.8519 0.4925
O2 O 0.19423(16) 1.03762(15) 0.46946(7)
H2 H 0.2986 1.0390 0.4879
O3 O 0.47540(16) 0.88409(16) 0.45283(7)
O4 O -0.13837(18) 0.75954(17) 0.31358(7)
C1 C 0.3208(2) 0.70231(19) 0.38832(8)
C2 C 0.1604(2) 0.6824(2) 0.34654(8)
C3 C 0.3362(2) 0.8314(2) 0.42849(8)
C4 C 0.4626(2) 0.6017(2) 0.39073(8)
C5 C 0.4428(2) 0.4846(2) 0.34909(9)
C6 C 0.1598(2) 0.9061(2) 0.44038(9)
C7 C 0.0076(2) 0.7840(2) 0.34281(9)
C8 C 0.0450(2) 0.9267(2) 0.37674(9)
C9 C 0.6302(2) 0.6172(2) 0.43820(10)
H3 H 0.5966 0.6507 0.4785
H4 H 0.7079 0.6899 0.4230
C10 C 0.1439(3) 0.5653(2) 0.30634(9)
H5 H 0.0379 0.5513 0.2782
C11 C 0.2825(3) 0.4702(2) 0.30776(10)
H6 H 0.2696 0.3920 0.2798
C12 C 0.5876(3) 0.3709(2) 0.34599(11)
C13 C 0.7340(3) 0.4784(3) 0.44920(12)
H7 H 0.8499 0.4968 0.4748
H8 H 0.6671 0.4113 0.4724
C14 C 0.7633(3) 0.4137(3) 0.38676(12)
H9 H 0.8395 0.3288 0.3946
H10 H 0.8269 0.4827 0.3634
C15 C 0.5205(3) 0.2285(3) 0.36950(16)
H11 H 0.4991 0.2387 0.4131
H12 H 0.6100 0.1550 0.3668
H13 H 0.4098 0.2016 0.3434
C16 C 0.6266(4) 0.3545(3) 0.27788(13)
H14 H 0.5213 0.3170 0.2518
H15 H 0.7261 0.2890 0.2769
H16 H 0.6571 0.4470 0.2617
loop_
_geom_bond_atom_site_label_1
_geom_bond_atom_site_label_2
_geom_bond_site_symmetry_1
_geom_bond_site_symmetry_2
F1 C8 1_555 1_555
F2 C8 1_555 1_555
O1 H1 1_555 1_555
O2 H2 1_555 1_555
O3 C3 1_555 1_555
O4 C7 1_555 1_555
C1 C2 1_555 1_555
C2 C7 1_555 1_555
C3 C1 1_555 1_555
C4 C1 1_555 1_555
C5 C4 1_555 1_555
C6 O1 1_555 1_555
C7 C8 1_555 1_555
C8 C6 1_555 1_555
C9 C4 1_555 1_555
H3 C9 1_555 1_555
H4 C9 1_555 1_555
C10 C2 1_555 1_555
H5 C10 1_555 1_555
C11 C5 1_555 1_555
H6 C11 1_555 1_555
C12 C5 1_555 1_555
C13 C9 1_555 1_555
H7 C13 1_555 1_555
H8 C13 1_555 1_555
C14 C12 1_555 1_555
H9 C14 1_555 1_555
H10 C14 1_555 1_555
C15 C12 1_555 1_555
H11 C15 1_555 1_555
H12 C15 1_555 1_555
H13 C15 1_555 1_555
C16 C12 1_555 1_555
H14 C16 1_555 1_555
H15 C16 1_555 1_555
H16 C16 1_555 1_555
O2 C6 1_555 1_555
C3 C6 1_555 1_555
C10 C11 1_555 1_555
C13 C14 1_555 1_555

#END
