
#######################################################################
#
#                 Cambridge Crystallographic Data Centre
#                                CCDC 
#
#######################################################################
#
# If this CIF has been generated from an entry in the Cambridge 
# Structural Database, then it will include bibliographic, chemical, 
# crystal, experimental, refinement or atomic coordinate data resulting 
# from the CCDC's data processing and validation procedures.
#
#######################################################################

data_KAXREG
_chemical_formula_moiety         'C28 H32 N2 O2'
_chemical_name_systematic        
'Methyl 2-(11-benzyl-10-methyl-3-methylene-indolo(b)(9)azabicyclonon-2-en-2-yl)propanecarboxylate'
_symmetry_cell_setting           monoclinic
_symmetry_space_group_name_H-M   'P 21/n'
_symmetry_Int_Tables_number      14
_space_group_name_Hall           '-P 2yn'
loop_
_symmetry_equiv_pos_site_id
_symmetry_equiv_pos_as_xyz
1 x,y,z
2 1/2-x,1/2+y,1/2-z
3 -x,-y,-z
4 1/2+x,1/2-y,1/2+z
_cell_length_a                   15.805(8)
_cell_length_b                   7.430(3)
_cell_length_c                   20.567(7)
_cell_angle_alpha                90
_cell_angle_beta                 94.92(4)
_cell_angle_gamma                90
_cell_volume                     2406.31
_cell_formula_units_Z            4
loop_
_atom_site_label
_atom_site_type_symbol
_atom_site_fract_x
_atom_site_fract_y
_atom_site_fract_z
C1 C 0.3364(10) -0.1167(26) 0.1143(7)
C2 C 0.3642(10) -0.0719(25) 0.0453(8)
C3 C 0.3060(11) -0.1542(20) -0.0127(7)
C4 C 0.2298(12) -0.0306(26) -0.0351(8)
C5 C 0.1692(13) -0.0077(34) 0.0168(10)
C6 C 0.1693(18) 0.1336(29) 0.0589(11)
C7 C 0.2306(12) 0.2813(23) 0.0575(7)
C8 C 0.2970(12) 0.2437(24) 0.0077(8)
C9 C 0.3728(13) 0.1329(26) 0.0350(7)
C10 C 0.4496(11) 0.2103(28) 0.0467(7)
C11 C 0.0599(15) -0.0699(33) 0.0758(12)
C12 C -0.0119(13) -0.1316(34) 0.1064(13)
C13 C -0.0379(13) -0.0271(37) 0.1562(12)
C14 C 0.0029(15) 0.1310(34) 0.1810(9)
C15 C 0.0699(12) 0.1958(26) 0.1499(9)
C16 C 0.1003(16) 0.0900(38) 0.0981(10)
C17 C 0.0832(10) -0.3010(24) -0.0107(7)
C18 C 0.2994(12) 0.1693(32) -0.1066(10)
C19 C 0.2981(25) 0.3509(31) -0.1352(9)
C20 C 0.3703(17) 0.4375(57) -0.1499(13)
C21 C 0.3663(25) 0.6060(62) -0.1768(16)
C22 C 0.2934(34) 0.7024(58) -0.1964(15)
C23 C 0.2205(19) 0.6125(55) -0.1778(12)
C24 C 0.2234(17) 0.4510(43) -0.1493(12)
C25 C 0.3328(13) -0.3213(26) 0.1262(8)
C26 C 0.2967(14) -0.3692(23) 0.1905(9)
C27 C 0.4262(12) 0.1851(27) 0.2483(9)
C28 C 0.3979(14) -0.0334(26) 0.1661(9)
N1 N 0.1053(11) -0.1344(23) 0.0263(8)
N2 N 0.2533(9) 0.1541(20) -0.0500(7)
O1 O 0.3660(8) 0.0941(17) 0.2002(6)
O2 O 0.4735(10) -0.0776(20) 0.1722(6)
loop_
_geom_bond_atom_site_label_1
_geom_bond_atom_site_label_2
_geom_bond_site_symmetry_1
_geom_bond_site_symmetry_2
C1 C2 1_555 1_555
C2 C3 1_555 1_555
C3 C4 1_555 1_555
C4 C5 1_555 1_555
C5 C6 1_555 1_555
C6 C7 1_555 1_555
C7 C8 1_555 1_555
C8 C9 1_555 1_555
C9 C2 1_555 1_555
C10 C9 1_555 1_555
C11 C12 1_555 1_555
C12 C13 1_555 1_555
C13 C14 1_555 1_555
C14 C15 1_555 1_555
C15 C16 1_555 1_555
C16 C6 1_555 1_555
C17 N1 1_555 1_555
C18 C19 1_555 1_555
C19 C20 1_555 1_555
C20 C21 1_555 1_555
C21 C22 1_555 1_555
C22 C23 1_555 1_555
C23 C24 1_555 1_555
C24 C19 1_555 1_555
C25 C1 1_555 1_555
C26 C25 1_555 1_555
C27 O1 1_555 1_555
C28 C1 1_555 1_555
N1 C5 1_555 1_555
N2 C4 1_555 1_555
O1 C28 1_555 1_555
O2 C28 1_555 1_555
C8 N2 1_555 1_555
C11 C16 1_555 1_555
C11 N1 1_555 1_555
C18 N2 1_555 1_555

#END
