
#######################################################################
#
#                 Cambridge Crystallographic Data Centre
#                                CCDC 
#
#######################################################################
#
# If this CIF has been generated from an entry in the Cambridge 
# Structural Database, then it will include bibliographic, chemical, 
# crystal, experimental, refinement or atomic coordinate data resulting 
# from the CCDC's data processing and validation procedures.
#
#######################################################################

data_KAXREJ
_chemical_formula_moiety         'C19 H18 F2 O2'
_chemical_name_systematic        
10,10-difluoro-1,6,6-trimethyl-7,8,9,10-tetrahydrophenanthro[1,2-b]furan-11(6H)-one
_symmetry_cell_setting           tetragonal
_symmetry_space_group_name_H-M   'P 43 21 2'
_symmetry_Int_Tables_number      96
_space_group_name_Hall           'P 4nw 2abw'
loop_
_symmetry_equiv_pos_site_id
_symmetry_equiv_pos_as_xyz
1 x,y,z
2 -x,-y,1/2+z
3 1/2-y,1/2+x,3/4+z
4 1/2+y,1/2-x,1/4+z
5 1/2-x,1/2+y,3/4-z
6 1/2+x,1/2-y,1/4-z
7 y,x,-z
8 -y,-x,1/2-z
_cell_length_a                   8.2959(2)
_cell_length_b                   8.2959(2)
_cell_length_c                   45.7622(11)
_cell_angle_alpha                90
_cell_angle_beta                 90
_cell_angle_gamma                90
_cell_volume                     3149.44
_exptl_crystal_colour            colorless
_exptl_crystal_description       block
_cell_formula_units_Z            8
loop_
_atom_site_label
_atom_site_type_symbol
_atom_site_fract_x
_atom_site_fract_y
_atom_site_fract_z
F1 F 0.49260(16) 0.58976(16) 0.46856(3)
F2 F 0.56933(13) 0.50546(17) 0.42555(3)
O1 O 0.19284(18) 0.07360(17) 0.47103(3)
O2 O 0.68943(18) 0.3161(2) 0.46736(4)
C1 C 0.2300(2) 0.5966(2) 0.42277(4)
C2 C 0.2770(2) 0.2040(2) 0.46243(4)
C3 C 0.0654(2) 0.5897(2) 0.41507(4)
C4 C 0.2960(2) 0.4673(2) 0.43865(4)
C5 C 0.4348(2) 0.1896(2) 0.47039(4)
C6 C 0.4701(2) 0.4687(2) 0.44851(4)
C7 C 0.2015(2) 0.3333(2) 0.44625(4)
C8 C -0.0219(3) 0.7285(3) 0.39949(4)
C9 C 0.0401(2) 0.3281(3) 0.43831(4)
H1 H -0.0245 0.2376 0.4433
C10 C 0.3338(3) 0.7387(2) 0.41340(4)
H2 H 0.4070 0.7677 0.4297
H3 H 0.4013 0.7054 0.3966
C11 C -0.0250(2) 0.4556(3) 0.42317(4)
H4 H -0.1359 0.4520 0.4180
C12 C 0.5451(2) 0.3155(3) 0.46300(4)
C13 C 0.4511(3) 0.0362(3) 0.48511(4)
C14 C 0.1003(3) 0.8409(3) 0.38472(5)
H5 H 0.1446 0.7869 0.3672
H6 H 0.0444 0.9401 0.3782
C15 C -0.1221(3) 0.8205(3) 0.42230(5)
H7 H -0.2022 0.7478 0.4309
H8 H -0.1772 0.9111 0.4128
H9 H -0.0508 0.8614 0.4377
C16 C -0.1355(3) 0.6659(3) 0.37562(5)
H10 H -0.0747 0.5989 0.3619
H11 H -0.1832 0.7573 0.3652
H12 H -0.2213 0.6014 0.3846
C17 C 0.3029(3) -0.0271(3) 0.48489(5)
H13 H 0.2761 -0.1286 0.4932
C18 C 0.2371(3) 0.8863(3) 0.40480(5)
H14 H 0.1934 0.9385 0.4226
H15 H 0.3085 0.9647 0.3949
C19 C 0.6005(3) -0.0345(3) 0.49833(6)
H16 H 0.6853 -0.0408 0.4835
H17 H 0.5770 -0.1429 0.5057
H18 H 0.6370 0.0339 0.5145
loop_
_geom_bond_atom_site_label_1
_geom_bond_atom_site_label_2
_geom_bond_site_symmetry_1
_geom_bond_site_symmetry_2
F1 C6 1_555 1_555
F2 C6 1_555 1_555
O1 C2 1_555 1_555
O2 C12 1_555 1_555
C1 C3 1_555 1_555
C2 C5 1_555 1_555
C3 C8 1_555 1_555
C4 C1 1_555 1_555
C5 C12 1_555 1_555
C6 C4 1_555 1_555
C7 C2 1_555 1_555
C8 C14 1_555 1_555
C9 C7 1_555 1_555
H1 C9 1_555 1_555
C10 C1 1_555 1_555
H2 C10 1_555 1_555
H3 C10 1_555 1_555
C11 C3 1_555 1_555
H4 C11 1_555 1_555
C12 C6 1_555 1_555
C13 C5 1_555 1_555
C14 H5 1_555 1_555
H6 C14 1_555 1_555
C15 C8 1_555 1_555
H7 C15 1_555 1_555
H8 C15 1_555 1_555
H9 C15 1_555 1_555
C16 C8 1_555 1_555
H10 C16 1_555 1_555
H11 C16 1_555 1_555
H12 C16 1_555 1_555
C17 O1 1_555 1_555
H13 C17 1_555 1_555
C18 C10 1_555 1_555
H14 C18 1_555 1_555
H15 C18 1_555 1_555
C19 C13 1_555 1_555
H16 C19 1_555 1_555
H17 C19 1_555 1_555
H18 C19 1_555 1_555
C4 C7 1_555 1_555
C9 C11 1_555 1_555
C13 C17 1_555 1_555
C14 C18 1_555 1_555

#END
