
#######################################################################
#
#                 Cambridge Crystallographic Data Centre
#                                CCDC 
#
#######################################################################
#
# If this CIF has been generated from an entry in the Cambridge 
# Structural Database, then it will include bibliographic, chemical, 
# crystal, experimental, refinement or atomic coordinate data resulting 
# from the CCDC's data processing and validation procedures.
#
#######################################################################

data_KAXRIN
_chemical_formula_moiety         'C19 H18 F2 O2'
_chemical_name_systematic        
11,11-difluoro-1,6,6-trimethyl-6,8,9,11-tetrahydrophenanthro[1,2-b]furan-10(7H)-one
_symmetry_cell_setting           tetragonal
_symmetry_space_group_name_H-M   'P 43 21 2'
_symmetry_Int_Tables_number      96
_space_group_name_Hall           'P 4nw 2abw'
loop_
_symmetry_equiv_pos_site_id
_symmetry_equiv_pos_as_xyz
1 x,y,z
2 -x,-y,1/2+z
3 1/2-y,1/2+x,3/4+z
4 1/2+y,1/2-x,1/4+z
5 1/2-x,1/2+y,3/4-z
6 1/2+x,1/2-y,1/4-z
7 y,x,-z
8 -y,-x,1/2-z
_cell_length_a                   8.2655(2)
_cell_length_b                   8.2655(2)
_cell_length_c                   45.8542(13)
_cell_angle_alpha                90
_cell_angle_beta                 90
_cell_angle_gamma                90
_cell_volume                     3132.69
_exptl_crystal_colour            colorless
_exptl_crystal_description       block
_cell_formula_units_Z            8
loop_
_atom_site_label
_atom_site_type_symbol
_atom_site_fract_x
_atom_site_fract_y
_atom_site_fract_z
O1 O 0.0415(2) 0.1447(2) 0.53052(4)
F1 F 0.2134(2) 0.6368(2) 0.55280(5)
F2 F 0.3214(3) 0.5822(3) 0.51136(5)
O2 O 0.5283(3) 0.5469(3) 0.55552(9)
C1 C 0.4369(3) 0.2750(3) 0.56090(5)
C2 C 0.3205(3) 0.0065(3) 0.55942(5)
H1 H 0.2343 -0.0645 0.5545
C3 C 0.3103(3) 0.1697(3) 0.55291(5)
C4 C 0.1706(3) 0.2373(3) 0.53822(5)
C5 C 0.5734(3) 0.2146(3) 0.57627(5)
C6 C 0.1441(3) 0.3924(3) 0.53078(5)
C7 C 0.5839(3) 0.0483(3) 0.58189(5)
C8 C -0.0126(3) 0.4030(3) 0.51734(5)
C9 C 0.7034(3) 0.3279(3) 0.58743(6)
H2 H 0.7797 0.3519 0.5714
H3 H 0.6524 0.4311 0.5934
C10 C -0.0678(3) 0.2492(3) 0.51774(6)
H4 H -0.1697 0.2169 0.5101
C11 C 0.4570(3) -0.0521(3) 0.57311(5)
H5 H 0.4651 -0.1650 0.5767
C12 C 0.4239(3) 0.4483(3) 0.55244(6)
C13 C 0.2707(3) 0.5115(3) 0.53662(5)
C14 C -0.0941(4) 0.5518(4) 0.50559(7)
H6 H -0.1026 0.6330 0.5211
H7 H -0.2026 0.5237 0.4986
H8 H -0.0302 0.5958 0.4894
C15 C 0.8127(4) -0.1466(4) 0.57589(7)
H9 H 0.7375 -0.2327 0.5702
H10 H 0.9076 -0.1943 0.5854
H11 H 0.8469 -0.0869 0.5585
C16 C 0.7288(4) -0.0314(4) 0.59699(6)
C17 C 0.6720(5) -0.1281(7) 0.62325(8)
H12 H 0.6170 -0.0560 0.6370
H13 H 0.7655 -0.1780 0.6328
H14 H 0.5969 -0.2127 0.6168
C18 C 0.8674(6) 0.0990(7) 0.60294(12)
H15 H 0.9417 0.0574 0.6181
H16 H 0.9308 0.1157 0.5849
C19 C 0.7967(6) 0.2599(6) 0.61287(10)
H17 H 0.7242 0.2435 0.6298
H18 H 0.8843 0.3351 0.6186
H19? H 0.6621 0.3898 0.6043
H20? H 0.7339 0.4056 0.5719
C20? C 0.8554(10) 0.2255(11) 0.5968(2)
H21? H 0.9101 0.1844 0.5790
H22? H 0.9326 0.2967 0.6072
C21? C 0.8133(13) 0.0855(12) 0.6160(2)
H23? H 0.9123 0.0366 0.6244
H24? H 0.7421 0.1207 0.6321
loop_
_geom_bond_atom_site_label_1
_geom_bond_atom_site_label_2
_geom_bond_site_symmetry_1
_geom_bond_site_symmetry_2
O1 C4 1_555 1_555
F1 C13 1_555 1_555
F2 C13 1_555 1_555
O2 C12 1_555 1_555
C1 C3 1_555 1_555
C2 H1 1_555 1_555
C3 C2 1_555 1_555
C4 C3 1_555 1_555
C5 C1 1_555 1_555
C6 C4 1_555 1_555
C7 C5 1_555 1_555
C8 C6 1_555 1_555
C9 C5 1_555 1_555
H2 C9 1_555 1_555
H3 C9 1_555 1_555
C10 O1 1_555 1_555
H4 C10 1_555 1_555
C11 C2 1_555 1_555
H5 C11 1_555 1_555
C12 C1 1_555 1_555
C13 C6 1_555 1_555
C14 C8 1_555 1_555
H6 C14 1_555 1_555
H7 C14 1_555 1_555
H8 C14 1_555 1_555
C15 H9 1_555 1_555
H10 C15 1_555 1_555
H11 C15 1_555 1_555
C16 C7 1_555 1_555
C17 C16 1_555 1_555
H12 C17 1_555 1_555
H13 C17 1_555 1_555
H14 C17 1_555 1_555
C18 C16 1_555 1_555
H15 C18 1_555 1_555
H16 C18 1_555 1_555
C19 C9 1_555 1_555
H17 C19 1_555 1_555
H18 C19 1_555 1_555
C7 C11 1_555 1_555
C8 C10 1_555 1_555
C12 C13 1_555 1_555
C15 C16 1_555 1_555
C18 C19 1_555 1_555

#END
