
#######################################################################
#
#                 Cambridge Crystallographic Data Centre
#                                CCDC 
#
#######################################################################
#
# If this CIF has been generated from an entry in the Cambridge 
# Structural Database, then it will include bibliographic, chemical, 
# crystal, experimental, refinement or atomic coordinate data resulting 
# from the CCDC's data processing and validation procedures.
#
#######################################################################

data_KAXWAJ01
_chemical_formula_moiety         'C12 H26 N2 O4,C13 H10 O3'
_chemical_name_systematic        
'bis(4-hydroxyphenyl)methanone 1,4,10,13-tetraoxa-7,16-diazacyclooctadecane'
_symmetry_cell_setting           monoclinic
_symmetry_space_group_name_H-M   'P 21/c'
_symmetry_Int_Tables_number      14
_space_group_name_Hall           '-P 2ybc'
loop_
_symmetry_equiv_pos_site_id
_symmetry_equiv_pos_as_xyz
1 x,y,z
2 -x,1/2+y,1/2-z
3 -x,-y,-z
4 x,1/2-y,1/2+z
_cell_length_a                   8.9130(10)
_cell_length_b                   17.5010(10)
_cell_length_c                   17.1100(10)
_cell_angle_alpha                90
_cell_angle_beta                 104.230(10)
_cell_angle_gamma                90
_cell_volume                     2587.04
_exptl_crystal_description       needle
_cell_formula_units_Z            4
_exptl_crystal_recrystallization_method 'ethyl acetate'
loop_
_atom_site_label
_atom_site_type_symbol
_atom_site_fract_x
_atom_site_fract_y
_atom_site_fract_z
N1 N 0.58087(13) 0.11249(6) 0.96863(7)
N2 N 1.00926(13) 0.36166(6) 1.05151(7)
O1 O 0.52848(12) 0.23001(5) 1.06901(6)
O2 O 0.79104(12) 0.33104(5) 1.14029(6)
O3 O 1.07112(12) 0.24206(5) 0.95431(6)
O4 O 0.81465(11) 0.13506(5) 0.88734(6)
C1 C 0.42577(16) 0.12973(8) 0.97855(9)
C2 C 0.43854(17) 0.16206(8) 1.06168(9)
C3 C 0.57415(18) 0.25502(8) 1.15089(9)
C4 C 0.64146(17) 0.33394(8) 1.15445(9)
C5 C 0.85609(17) 0.40537(7) 1.14206(8)
C6 C 1.01698(16) 0.39732(7) 1.13032(8)
C7 C 1.16134(16) 0.35170(7) 1.03485(8)
C8 C 1.14278(17) 0.31460(8) 0.95312(8)
C9 C 1.03418(17) 0.20829(8) 0.87592(8)
C10 C 0.96998(17) 0.12950(8) 0.88062(9)
C11 C 0.74426(17) 0.06198(7) 0.88643(9)
C12 C 0.58010(16) 0.07457(8) 0.89184(8)
H1 H 0.367(2) 0.0819(12) 0.9744(13)
H2 H 0.374(2) 0.1672(12) 0.9366(13)
H3 H 0.489(2) 0.1252(11) 1.1024(12)
H4 H 0.337(2) 0.1726(11) 1.0694(12)
H5 H 0.649(2) 0.2198(11) 1.1829(12)
H6 H 0.486(2) 0.2556(10) 1.1743(12)
H7 H 0.647(2) 0.3544(12) 1.2088(13)
H8 H 0.573(2) 0.3668(12) 1.1133(12)
H9 H 0.857(2) 0.4297(10) 1.1954(11)
H10 H 0.791(2) 0.4363(11) 1.0984(12)
H11 H 1.083(2) 0.3661(11) 1.1740(12)
H12 H 1.063(2) 0.4478(11) 1.1279(11)
H13 H 1.230(2) 0.3214(11) 1.0774(12)
H14 H 1.209(2) 0.4029(11) 1.0343(11)
H15 H 1.244(2) 0.3080(10) 0.9414(11)
H16 H 1.078(2) 0.3457(12) 0.9112(12)
H17 H 1.127(2) 0.2042(10) 0.8558(11)
H18 H 0.958(2) 0.2390(11) 0.8405(12)
H19 H 1.032(2) 0.1022(11) 0.9274(12)
H20 H 0.972(2) 0.1012(11) 0.8298(12)
H21 H 0.800(2) 0.0303(11) 0.9328(12)
H22 H 0.746(2) 0.0359(12) 0.8366(13)
H23 H 0.527(2) 0.0261(11) 0.8904(12)
H24 H 0.524(2) 0.1053(11) 0.8447(12)
H33 H 0.632(2) 0.1570(12) 0.9692(12)
H34 H 0.964(2) 0.3179(12) 1.0525(12)
O5 O -0.28774(11) -0.26204(5) 0.74991(6)
O6 O 0.25881(12) -0.03819(5) 0.90056(6)
O7 O -0.83093(12) -0.05135(5) 0.55944(6)
C13 C -0.28635(15) -0.19241(7) 0.73972(7)
C14 C -0.14570(15) -0.14828(7) 0.78044(8)
C15 C -0.08245(16) -0.08927(7) 0.74400(8)
C16 C 0.05506(16) -0.05427(7) 0.78418(8)
C17 C 0.12820(15) -0.07558(7) 0.86337(8)
C18 C 0.06390(15) -0.13359(7) 0.90083(8)
C19 C -0.06909(15) -0.17032(7) 0.85875(8)
C20 C -0.42468(15) -0.15304(7) 0.69037(8)
C21 C -0.44906(16) -0.07414(7) 0.69342(8)
C22 C -0.58508(16) -0.04094(7) 0.64990(9)
C23 C -0.70141(16) -0.08612(7) 0.60131(8)
C24 C -0.67956(16) -0.16550(7) 0.59899(8)
C25 C -0.54368(16) -0.19771(7) 0.64301(8)
H25 H -0.132(2) -0.0745(11) 0.6890(12)
H26 H 0.103(2) -0.0149(11) 0.7582(11)
H27 H 0.109(2) -0.1473(11) 0.9556(12)
H28 H -0.113(2) -0.2101(11) 0.8847(11)
H29 H -0.372(2) -0.0426(11) 0.7256(12)
H30 H -0.601(2) 0.0137(12) 0.6519(12)
H31 H -0.759(2) -0.1990(11) 0.5683(12)
H32 H -0.528(2) -0.2524(11) 0.6416(12)
H35 H 0.308(3) -0.0636(15) 0.9448(17)
H36 H -0.889(4) -0.0857(18) 0.5209(19)
loop_
_geom_bond_atom_site_label_1
_geom_bond_atom_site_label_2
_geom_bond_site_symmetry_1
_geom_bond_site_symmetry_2
N1 C1 1_555 1_555
N2 C6 1_555 1_555
O1 C2 1_555 1_555
O2 C4 1_555 1_555
O3 C8 1_555 1_555
O4 C10 1_555 1_555
C1 C2 1_555 1_555
C2 H3 1_555 1_555
C3 O1 1_555 1_555
C4 C3 1_555 1_555
C5 O2 1_555 1_555
C6 C5 1_555 1_555
C7 N2 1_555 1_555
C8 C7 1_555 1_555
C9 O3 1_555 1_555
C10 C9 1_555 1_555
C11 O4 1_555 1_555
C12 N1 1_555 1_555
O5 C13 1_555 1_555
O6 C17 1_555 1_555
O7 C23 1_555 1_555
C13 C14 1_555 1_555
C14 C15 1_555 1_555
C15 C16 1_555 1_555
C16 C17 1_555 1_555
C17 C18 1_555 1_555
C18 C19 1_555 1_555
C19 C14 1_555 1_555
C20 C13 1_555 1_555
C21 C20 1_555 1_555
C22 C21 1_555 1_555
C23 C22 1_555 1_555
C24 C23 1_555 1_555
C25 C20 1_555 1_555
H1 C1 1_555 1_555
H2 C1 1_555 1_555
H4 C2 1_555 1_555
H5 C3 1_555 1_555
H6 C3 1_555 1_555
H7 C4 1_555 1_555
H8 C4 1_555 1_555
H9 C5 1_555 1_555
H10 C5 1_555 1_555
H11 C6 1_555 1_555
H12 C6 1_555 1_555
H13 C7 1_555 1_555
H14 C7 1_555 1_555
H15 C8 1_555 1_555
H16 C8 1_555 1_555
H17 C9 1_555 1_555
H18 C9 1_555 1_555
H19 C10 1_555 1_555
H20 C10 1_555 1_555
H21 C11 1_555 1_555
H22 C11 1_555 1_555
H23 C12 1_555 1_555
H24 C12 1_555 1_555
H25 C15 1_555 1_555
H26 C16 1_555 1_555
H27 C18 1_555 1_555
H28 C19 1_555 1_555
H29 C21 1_555 1_555
H30 C22 1_555 1_555
H31 C24 1_555 1_555
H32 C25 1_555 1_555
H33 N1 1_555 1_555
H34 N2 1_555 1_555
H35 O6 1_555 1_555
H36 O7 1_555 1_555
C11 C12 1_555 1_555
C24 C25 1_555 1_555

#END
