
#######################################################################
#
#                 Cambridge Crystallographic Data Centre
#                                CCDC 
#
#######################################################################
#
# If this CIF has been generated from an entry in the Cambridge 
# Structural Database, then it will include bibliographic, chemical, 
# crystal, experimental, refinement or atomic coordinate data resulting 
# from the CCDC's data processing and validation procedures.
#
#######################################################################

data_KAXWAJ02
_chemical_name_common            'PDB Chemical Component code: DBE'
_chemical_formula_moiety         'C12 H26 N2 O4,C13 H10 O3'
_chemical_name_systematic        
'bis(4-hydroxyphenyl)methanone 1,4,10,13-tetraoxa-7,16-diazacyclooctadecane'
_symmetry_cell_setting           triclinic
_symmetry_space_group_name_H-M   'P -1'
_symmetry_Int_Tables_number      2
_space_group_name_Hall           '-P 1'
loop_
_symmetry_equiv_pos_site_id
_symmetry_equiv_pos_as_xyz
1 x,y,z
2 -x,-y,-z
_cell_length_a                   8.6200(10)
_cell_length_b                   10.2690(10)
_cell_length_c                   15.7170(10)
_cell_angle_alpha                90.590(10)
_cell_angle_beta                 104.280(10)
_cell_angle_gamma                111.200(10)
_cell_volume                     1249.37
_exptl_crystal_colour            colorless
_exptl_crystal_description       plate
_cell_formula_units_Z            2
_exptl_crystal_recrystallization_method 'ethyl acetate'
loop_
_atom_site_label
_atom_site_type_symbol
_atom_site_fract_x
_atom_site_fract_y
_atom_site_fract_z
N1 N -0.06222(10) -0.27102(8) -0.44722(7)
C1 C -0.21861(12) -0.37974(10) -0.50503(9)
C2 C -0.37032(12) -0.33336(10) -0.51779(10)
C3 C -0.46206(11) -0.15031(10) -0.56264(10)
C4 C -0.43211(11) -0.03022(10) -0.61856(9)
C5 C -0.24592(12) 0.20028(10) -0.62540(9)
O1 O -0.32908(8) -0.20452(7) -0.55615(6)
O2 O -0.28096(8) 0.08639(7) -0.57311(6)
C6 C 0.08343(12) -0.31869(10) -0.42673(9)
H1 H 0.053(2) -0.3984(16) -0.3929(11)
H2 H 0.1061(19) -0.3510(16) -0.4823(12)
H3 H -0.2410(19) -0.4678(16) -0.4766(11)
H4 H -0.2004(19) -0.4023(15) -0.5657(13)
H5 H -0.3929(19) -0.3210(15) -0.4593(13)
H6 H -0.475(2) -0.4047(16) -0.5613(11)
H7 H -0.465(2) -0.1140(19) -0.5017(15)
H8 H -0.5752(19) -0.2225(15) -0.5902(10)
H9 H -0.533(2) -0.0020(17) -0.6296(12)
H10 H -0.4192(19) -0.0612(16) -0.6773(13)
H11 H -0.3418(17) 0.2327(14) -0.6392(10)
H12 H -0.2349(19) 0.1659(16) -0.6846(13)
H13 H -0.0338(19) -0.1973(17) -0.4771(11)
N1A N 0.06222(10) 0.27102(8) -0.55278(7)
C1A C 0.21861(12) 0.37974(10) -0.49497(9)
C2A C 0.37032(12) 0.33336(10) -0.48221(10)
C3A C 0.46206(11) 0.15031(10) -0.43736(10)
C4A C 0.43211(11) 0.03022(10) -0.38144(9)
C5A C 0.24592(12) -0.20028(10) -0.37460(9)
O1A O 0.32908(8) 0.20452(7) -0.44385(6)
O2A O 0.28096(8) -0.08639(7) -0.42689(6)
C6A C -0.08343(12) 0.31869(10) -0.57327(9)
H1A H -0.053(2) 0.3984(16) -0.6071(11)
H2A H -0.1061(19) 0.3510(16) -0.5177(12)
H3A H 0.2410(19) 0.4678(16) -0.5234(11)
H4A H 0.2004(19) 0.4023(15) -0.4343(13)
H5A H 0.3929(19) 0.3210(15) -0.5407(13)
H6A H 0.475(2) 0.4047(16) -0.4387(11)
H7A H 0.465(2) 0.1140(19) -0.4983(15)
H8A H 0.5752(19) 0.2225(15) -0.4098(10)
H9A H 0.533(2) 0.0020(17) -0.3704(12)
H10A H 0.4192(19) 0.0612(16) -0.3227(13)
H11A H 0.3418(17) -0.2327(14) -0.3608(10)
H12A H 0.2349(19) -0.1659(16) -0.3154(13)
H13A H 0.0338(19) 0.1973(17) -0.5229(11)
N2 N 0.41738(10) 0.22807(8) -0.08622(7)
C7 C 0.34557(12) 0.21078(10) -0.18173(9)
C8 C 0.31777(12) 0.11294(10) -0.04298(9)
C9 C 0.40367(12) 0.13190(10) 0.05428(9)
C10 C 0.50807(12) 0.29676(10) 0.17937(9)
C11 C 0.48643(13) 0.41948(10) 0.22070(9)
C12 C 0.55210(13) 0.66367(10) 0.22115(9)
O3 O 0.39875(9) 0.25665(7) 0.09188(6)
O4 O 0.56634(9) 0.54329(7) 0.18351(6)
H14 H 0.2244(19) 0.1994(15) -0.1996(11)
H15 H 0.352(2) 0.1247(16) -0.2071(11)
H16 H 0.1968(19) 0.1074(15) -0.0547(11)
H17 H 0.313(2) 0.0223(17) -0.0726(11)
H18 H 0.345(2) 0.0529(16) 0.0817(11)
H19 H 0.5285(18) 0.1409(15) 0.0642(10)
H20 H 0.4755(19) 0.2182(16) 0.2156(11)
H21 H 0.628(2) 0.3235(16) 0.1805(11)
H22 H 0.368(2) 0.4015(16) 0.2147(11)
H23 H 0.539(2) 0.4333(16) 0.2855(12)
H24 H 0.4300(18) 0.6530(14) 0.2080(10)
H25 H 0.598(2) 0.6775(16) 0.2862(12)
H26 H 0.418(2) 0.3093(17) -0.0647(11)
N2A N 0.58262(10) 0.77193(8) 0.08622(7)
C7A C 0.65443(12) 0.78922(10) 0.18173(9)
C8A C 0.68223(12) 0.88706(10) 0.04298(9)
C9A C 0.59633(12) 0.86810(10) -0.05428(9)
C10A C 0.49193(12) 0.70324(10) -0.17937(9)
C11A C 0.51357(13) 0.58052(10) -0.22070(9)
C12A C 0.44790(13) 0.33633(10) -0.22115(9)
O3A O 0.60125(9) 0.74335(7) -0.09188(6)
O4A O 0.43366(9) 0.45671(7) -0.18351(6)
H14A H 0.7756(19) 0.8006(15) 0.1996(11)
H15A H 0.648(2) 0.8753(16) 0.2071(11)
H16A H 0.8032(19) 0.8926(15) 0.0547(11)
H17A H 0.687(2) 0.9777(17) 0.0726(11)
H18A H 0.655(2) 0.9471(16) -0.0817(11)
H19A H 0.4715(18) 0.8591(15) -0.0642(10)
H20A H 0.5245(19) 0.7818(16) -0.2156(11)
H21A H 0.372(2) 0.6765(16) -0.1805(11)
H22A H 0.632(2) 0.5985(16) -0.2147(11)
H23A H 0.461(2) 0.5667(16) -0.2855(12)
H24A H 0.5700(18) 0.3470(14) -0.2080(10)
H25A H 0.402(2) 0.3225(16) -0.2862(12)
H26A H 0.582(2) 0.6907(17) 0.0647(11)
O5 O -0.14687(9) 0.41527(7) -0.33187(6)
O6 O -0.13722(10) -0.19357(7) -0.30145(7)
O7 O 0.26005(9) 0.76361(7) 0.03741(6)
C13 C -0.08899(11) 0.36921(9) -0.26423(9)
C14 C -0.10130(11) 0.22004(9) -0.27052(9)
C15 C -0.09032(12) 0.16555(10) -0.34857(9)
C16 C -0.10088(12) 0.02813(10) -0.36114(10)
C17 C -0.12554(11) -0.05858(9) -0.29327(9)
C18 C -0.14188(11) -0.00674(10) -0.21624(9)
C19 C -0.12963(11) 0.13206(10) -0.20391(10)
C20 C -0.00360(11) 0.46276(9) -0.18065(8)
C21 C -0.02603(11) 0.59161(10) -0.17611(9)
C22 C 0.05898(12) 0.68933(10) -0.10319(9)
C23 C 0.17350(11) 0.66284(10) -0.03165(8)
C24 C 0.19610(11) 0.53418(10) -0.03451(9)
C25 C 0.10861(11) 0.43623(9) -0.10769(8)
H27 H -0.074(2) 0.2242(17) -0.3965(12)
H28 H -0.0922(19) -0.0040(17) -0.4138(13)
H29 H -0.161(2) -0.0685(17) -0.1701(11)
H30 H -0.1427(17) 0.1642(14) -0.1511(12)
H31 H -0.097(2) 0.6115(16) -0.2274(11)
H32 H 0.045(2) 0.7798(17) -0.1025(12)
H33 H 0.272(2) 0.5147(16) 0.0157(11)
H34 H 0.128(2) 0.3471(17) -0.1081(12)
H35 H -0.109(3) -0.216(2) -0.3520(16)
H36 H 0.367(3) 0.760(2) 0.0601(14)
loop_
_geom_bond_atom_site_label_1
_geom_bond_atom_site_label_2
_geom_bond_site_symmetry_1
_geom_bond_site_symmetry_2
N1 C1 1_555 1_555
C1 C2 1_555 1_555
C2 O1 1_555 1_555
C3 C4 1_555 1_555
C4 O2 1_555 1_555
C5 O2 1_555 1_555
O1 C3 1_555 1_555
C6 N1 1_555 1_555
H1 C6 1_555 1_555
H2 C6 1_555 1_555
H3 C1 1_555 1_555
H4 C1 1_555 1_555
H5 C2 1_555 1_555
H6 C2 1_555 1_555
H7 C3 1_555 1_555
H8 C3 1_555 1_555
H9 C4 1_555 1_555
H10 C4 1_555 1_555
H11 C5 1_555 1_555
H12 C5 1_555 1_555
H13 N1 1_555 1_555
N2 C7 1_555 1_555
C7 H14 1_555 1_555
C8 N2 1_555 1_555
C9 C8 1_555 1_555
C10 C11 1_555 1_555
C11 O4 1_555 1_555
C12 O4 1_555 1_555
O3 C9 1_555 1_555
H15 C7 1_555 1_555
H16 C8 1_555 1_555
H17 C8 1_555 1_555
H18 C9 1_555 1_555
H19 C9 1_555 1_555
H20 C10 1_555 1_555
H21 C10 1_555 1_555
H22 C11 1_555 1_555
H23 C11 1_555 1_555
H24 C12 1_555 1_555
H25 C12 1_555 1_555
H26 N2 1_555 1_555
O5 C13 1_555 1_555
O6 C17 1_555 1_555
O7 C23 1_555 1_555
C13 C14 1_555 1_555
C14 C15 1_555 1_555
C15 C16 1_555 1_555
C16 C17 1_555 1_555
C17 C18 1_555 1_555
C18 C19 1_555 1_555
C19 C14 1_555 1_555
C20 C13 1_555 1_555
C21 C20 1_555 1_555
C22 C21 1_555 1_555
C23 C22 1_555 1_555
C24 C23 1_555 1_555
C25 C20 1_555 1_555
H27 C15 1_555 1_555
H28 C16 1_555 1_555
H29 C18 1_555 1_555
H30 C19 1_555 1_555
H31 C21 1_555 1_555
H32 C22 1_555 1_555
H33 C24 1_555 1_555
H34 C25 1_555 1_555
H35 O6 1_555 1_555
H36 O7 1_555 1_555
N1A C1A 1_555 1_555
C1A C2A 1_555 1_555
C2A O1A 1_555 1_555
C3A C4A 1_555 1_555
C4A O2A 1_555 1_555
C5A C6 1_555 1_555
O1A C3A 1_555 1_555
O2A C5A 1_555 1_555
C6A C5 1_555 1_555
H1A C6A 1_555 1_555
H2A C6A 1_555 1_555
H3A C1A 1_555 1_555
H4A C1A 1_555 1_555
H5A C2A 1_555 1_555
H6A C2A 1_555 1_555
H7A C3A 1_555 1_555
H8A C3A 1_555 1_555
H9A C4A 1_555 1_555
H10A C4A 1_555 1_555
H11A C5A 1_555 1_555
H12A C5A 1_555 1_555
H13A N1A 1_555 1_555
N2A C7A 1_555 1_555
C7A C12 1_555 1_555
C8A N2A 1_555 1_555
C9A C8A 1_555 1_555
C10A C11A 1_555 1_555
C11A O4A 1_555 1_555
C12A C7 1_555 1_555
O3A C9A 1_555 1_555
O4A C12A 1_555 1_555
H14A C7A 1_555 1_555
H15A C7A 1_555 1_555
H16A C8A 1_555 1_555
H17A C8A 1_555 1_555
H18A C9A 1_555 1_555
H19A C9A 1_555 1_555
H20A C10A 1_555 1_555
H21A C10A 1_555 1_555
H22A C11A 1_555 1_555
H23A C11A 1_555 1_555
H24A C12A 1_555 1_555
H25A C12A 1_555 1_555
H26A N2A 1_555 1_555
C10 O3 1_555 1_555
C24 C25 1_555 1_555
N1A C6A 1_555 1_555
C10A O3A 1_555 1_555

#END
