
#######################################################################
#
#                 Cambridge Crystallographic Data Centre
#                                CCDC 
#
#######################################################################
#
# If this CIF has been generated from an entry in the Cambridge 
# Structural Database, then it will include bibliographic, chemical, 
# crystal, experimental, refinement or atomic coordinate data resulting 
# from the CCDC's data processing and validation procedures.
#
#######################################################################

data_KAYCOF
_chemical_formula_moiety         'C31 H25 N1 O5 S1'
_chemical_name_systematic        
6-[(4-methylphenyl)sulfonyl]-3a,4-diphenyl-3a,4,5a,6-tetrahydro-1H,3H-furo[3',4':3,4]furo[2,3-b]indol-3-one
_symmetry_cell_setting           orthorhombic
_symmetry_space_group_name_H-M   'P 21 21 21'
_symmetry_Int_Tables_number      19
_space_group_name_Hall           'P 2ac 2ab'
loop_
_symmetry_equiv_pos_site_id
_symmetry_equiv_pos_as_xyz
1 x,y,z
2 1/2+x,1/2-y,-z
3 -x,1/2+y,1/2-z
4 1/2-x,-y,1/2+z
_cell_length_a                   7.4908(10)
_cell_length_b                   16.5730(16)
_cell_length_c                   20.429(2)
_cell_angle_alpha                90
_cell_angle_beta                 90
_cell_angle_gamma                90
_cell_volume                     2536.16
_exptl_crystal_colour            colorless
_exptl_crystal_description       prism
_cell_formula_units_Z            4
loop_
_atom_site_label
_atom_site_type_symbol
_atom_site_fract_x
_atom_site_fract_y
_atom_site_fract_z
S1 S 0.65001(6) 0.77809(3) 0.10081(2)
O1 O 0.49856(17) 0.92502(8) -0.01560(6)
O2 O -0.0432(2) 1.02941(14) -0.02765(10)
O3 O -0.01625(19) 0.92790(12) 0.04279(9)
O4 O 0.6661(2) 0.74019(8) 0.03833(7)
O5 O 0.80072(17) 0.78447(9) 0.14315(7)
N1 N 0.58115(19) 0.87127(9) 0.08591(7)
C1 C 0.2938(2) 0.93602(11) 0.07267(9)
C2 C 0.4354(2) 0.88114(11) 0.03941(9)
H1 H 0.3845 0.8290 0.0265
C3 C 0.3452(2) 0.96366(11) -0.04198(9)
H2 H 0.2674 0.9220 -0.0606
C4 C 0.2486(2) 1.00058(12) 0.01978(10)
C5 C 0.0479(3) 0.99084(15) 0.00872(11)
C6 C 0.1129(2) 0.89493(13) 0.08715(11)
H3 H 0.1226 0.8371 0.0810
H4 H 0.0773 0.9052 0.1320
C7 C 0.3881(2) 0.96348(11) 0.13312(9)
C8 C 0.5528(2) 0.92609(11) 0.13910(9)
C9 C 0.6679(3) 0.94401(12) 0.19008(9)
H5 H 0.7787 0.9191 0.1936
C10 C 0.6114(3) 1.00060(13) 0.23574(10)
H6 H 0.6857 1.0138 0.2706
C11 C 0.4465(3) 1.03776(13) 0.23036(10)
H7 H 0.4114 1.0753 0.2616
C12 C 0.3339(3) 1.01960(12) 0.17902(10)
H8 H 0.2234 1.0447 0.1754
C13 C 0.3954(3) 1.02115(11) -0.09584(10)
C14 C 0.2626(3) 1.04932(13) -0.13769(11)
H9 H 0.1453 1.0324 -0.1319
C15 C 0.3035(3) 1.10209(14) -0.18761(11)
H10 H 0.2135 1.1204 -0.2152
C16 C 0.4758(4) 1.12793(13) -0.19701(10)
H11 H 0.5023 1.1641 -0.2304
C17 C 0.6102(3) 1.09949(12) -0.15611(10)
H12 H 0.7275 1.1162 -0.1625
C18 C 0.5700(3) 1.04604(12) -0.10556(10)
H13 H 0.6603 1.0271 -0.0784
C19 C 0.3067(3) 1.08557(12) 0.03661(10)
C20 C 0.1846(4) 1.14682(15) 0.04888(12)
H14 H 0.0631 1.1369 0.0443
C21 C 0.2432(6) 1.22303(17) 0.06802(14)
H15 H 0.1604 1.2635 0.0765
C22 C 0.4224(7) 1.23884(16) 0.07450(14)
H16 H 0.4606 1.2899 0.0871
C23 C 0.5456(5) 1.17872(15) 0.06230(12)
H17 H 0.6670 1.1893 0.0666
C24 C 0.4877(3) 1.10236(13) 0.04359(10)
H18 H 0.5711 1.0620 0.0356
C25 C 0.4738(2) 0.73244(10) 0.14376(9)
C26 C 0.3414(3) 0.69204(11) 0.10948(10)
H19 H 0.3512 0.6841 0.0646
C27 C 0.1944(3) 0.66380(12) 0.14343(11)
H20 H 0.1040 0.6374 0.1207
C28 C 0.1787(3) 0.67389(12) 0.21075(10)
C29 C 0.3156(3) 0.71294(12) 0.24412(10)
H21 H 0.3080 0.7191 0.2893
C30 C 0.4632(3) 0.74289(11) 0.21106(10)
H22 H 0.5536 0.7695 0.2336
C31 C 0.0174(3) 0.64206(16) 0.24623(13)
H23 H 0.0421 0.6394 0.2923
H24 H -0.0107 0.5891 0.2303
H25 H -0.0821 0.6774 0.2388
loop_
_geom_bond_atom_site_label_1
_geom_bond_atom_site_label_2
_geom_bond_site_symmetry_1
_geom_bond_site_symmetry_2
S1 O4 1_555 1_555
O1 C2 1_555 1_555
O2 C5 1_555 1_555
O3 C5 1_555 1_555
O5 S1 1_555 1_555
N1 S1 1_555 1_555
C1 C2 1_555 1_555
C2 N1 1_555 1_555
H1 C2 1_555 1_555
C3 O1 1_555 1_555
H2 C3 1_555 1_555
C4 C1 1_555 1_555
C5 C4 1_555 1_555
C6 O3 1_555 1_555
H3 C6 1_555 1_555
H4 C6 1_555 1_555
C7 C1 1_555 1_555
C8 N1 1_555 1_555
C9 C8 1_555 1_555
H5 C9 1_555 1_555
C10 C9 1_555 1_555
H6 C10 1_555 1_555
C11 C10 1_555 1_555
H7 C11 1_555 1_555
C12 C7 1_555 1_555
H8 C12 1_555 1_555
C13 C3 1_555 1_555
C14 C13 1_555 1_555
H9 C14 1_555 1_555
C15 C14 1_555 1_555
H10 C15 1_555 1_555
C16 C15 1_555 1_555
H11 C16 1_555 1_555
C17 C16 1_555 1_555
H12 C17 1_555 1_555
C18 C13 1_555 1_555
H13 C18 1_555 1_555
C19 C4 1_555 1_555
C20 C19 1_555 1_555
H14 C20 1_555 1_555
C21 C20 1_555 1_555
H15 C21 1_555 1_555
C22 C21 1_555 1_555
H16 C22 1_555 1_555
C23 C22 1_555 1_555
H17 C23 1_555 1_555
C24 C19 1_555 1_555
H18 C24 1_555 1_555
C25 S1 1_555 1_555
C26 C25 1_555 1_555
H19 C26 1_555 1_555
C27 C26 1_555 1_555
H20 C27 1_555 1_555
C28 C27 1_555 1_555
C29 C28 1_555 1_555
H21 C29 1_555 1_555
C30 C25 1_555 1_555
H22 C30 1_555 1_555
C31 C28 1_555 1_555
H23 C31 1_555 1_555
H24 C31 1_555 1_555
H25 C31 1_555 1_555
C1 C6 1_555 1_555
C3 C4 1_555 1_555
C7 C8 1_555 1_555
C11 C12 1_555 1_555
C17 C18 1_555 1_555
C23 C24 1_555 1_555
C29 C30 1_555 1_555

#END
