
#######################################################################
#
#                 Cambridge Crystallographic Data Centre
#                                CCDC 
#
#######################################################################
#
# If this CIF has been generated from an entry in the Cambridge 
# Structural Database, then it will include bibliographic, chemical, 
# crystal, experimental, refinement or atomic coordinate data resulting 
# from the CCDC's data processing and validation procedures.
#
#######################################################################

data_KAYCIZ
_chemical_formula_moiety         'C24 H19 N1 O4 S1'
_chemical_name_systematic        
8-[(4-methylphenyl)sulfonyl]-7b,8-dihydro-1H-furo[3',4':2,3]indeno[1,2-b]indol-3(3aH)-one
_symmetry_cell_setting           orthorhombic
_symmetry_space_group_name_H-M   'P 21 21 21'
_symmetry_Int_Tables_number      19
_space_group_name_Hall           'P 2ac 2ab'
loop_
_symmetry_equiv_pos_site_id
_symmetry_equiv_pos_as_xyz
1 x,y,z
2 1/2+x,1/2-y,-z
3 -x,1/2+y,1/2-z
4 1/2-x,-y,1/2+z
_cell_length_a                   8.3434(10)
_cell_length_b                   9.7391(11)
_cell_length_c                   24.416(2)
_cell_angle_alpha                90
_cell_angle_beta                 90
_cell_angle_gamma                90
_cell_volume                     1983.98
_exptl_crystal_colour            colorless
_exptl_crystal_description       prism
_cell_formula_units_Z            4
loop_
_atom_site_label
_atom_site_type_symbol
_atom_site_fract_x
_atom_site_fract_y
_atom_site_fract_z
S1 S 0.48185(4) 0.30816(3) 0.185187(13)
O1 O 1.13095(14) 0.25127(12) -0.00111(4)
O2 O 0.93945(12) 0.40351(10) 0.01637(4)
O3 O 0.41450(12) 0.18801(10) 0.16050(4)
O4 O 0.44752(12) 0.34222(11) 0.24086(4)
N1 N 0.67896(13) 0.29036(11) 0.18041(4)
C1 C 1.03942(17) 0.30249(13) 0.03101(5)
C2 C 1.01922(16) 0.26698(12) 0.09098(5)
H1 H 1.1182 0.2915 0.1119
C3 C 0.87697(15) 0.35323(12) 0.11065(5)
C4 C 0.84583(17) 0.45248(13) 0.06240(5)
H2 H 0.7304 0.4534 0.0530
H3 H 0.8787 0.5469 0.0724
C5 C 0.74048(16) 0.24955(13) 0.12503(5)
H4 H 0.6529 0.2539 0.0971
C6 C 0.82043(16) 0.11072(13) 0.12420(5)
C7 C 0.97295(17) 0.11910(12) 0.10178(5)
C8 C 1.06581(19) 0.00263(14) 0.09486(5)
H5 H 1.1696 0.0085 0.0790
C9 C 1.0041(2) -0.12277(14) 0.11156(6)
H6 H 1.0661 -0.2038 0.1070
C10 C 0.8525(2) -0.13108(15) 0.13485(7)
H7 H 0.8125 -0.2176 0.1465
C11 C 0.75824(19) -0.01382(15) 0.14138(6)
H8 H 0.6544 -0.0193 0.1572
C12 C 0.90004(15) 0.42937(12) 0.16368(5)
C13 C 0.78224(16) 0.39604(13) 0.20146(5)
C14 C 0.77600(18) 0.46074(15) 0.25206(5)
H9 H 0.6955 0.4380 0.2781
C15 C 0.89082(18) 0.55946(16) 0.26349(6)
H10 H 0.8861 0.6073 0.2974
C16 C 1.01262(19) 0.59026(15) 0.22667(6)
H11 H 1.0924 0.6557 0.2361
C17 C 1.01758(17) 0.52546(13) 0.17625(5)
H12 H 1.0999 0.5463 0.1507
C18 C 0.43774(15) 0.44915(13) 0.14281(5)
C19 C 0.39967(16) 0.42634(14) 0.08804(5)
H13 H 0.3864 0.3354 0.0747
C20 C 0.38140(19) 0.53713(16) 0.05330(6)
H14 H 0.3537 0.5218 0.0161
C21 C 0.4028(2) 0.67050(16) 0.07187(7)
C22 C 0.43782(19) 0.69151(15) 0.12704(7)
H15 H 0.4498 0.7826 0.1403
C23 C 0.45555(17) 0.58225(14) 0.16287(6)
H16 H 0.4794 0.5978 0.2004
C24 C 0.3901(3) 0.78975(18) 0.03262(8)
H17 H 0.4533 0.7702 -0.0003
H18 H 0.4310 0.8730 0.0503
H19 H 0.2776 0.8034 0.0224
loop_
_geom_bond_atom_site_label_1
_geom_bond_atom_site_label_2
_geom_bond_site_symmetry_1
_geom_bond_site_symmetry_2
S1 O3 1_555 1_555
O1 C1 1_555 1_555
O2 C1 1_555 1_555
O4 S1 1_555 1_555
N1 S1 1_555 1_555
C1 C2 1_555 1_555
C2 H1 1_555 1_555
C3 C2 1_555 1_555
C4 O2 1_555 1_555
H2 C4 1_555 1_555
H3 C4 1_555 1_555
C5 N1 1_555 1_555
H4 C5 1_555 1_555
C6 C5 1_555 1_555
C7 C2 1_555 1_555
C8 C7 1_555 1_555
H5 C8 1_555 1_555
C9 C8 1_555 1_555
H6 C9 1_555 1_555
C10 C9 1_555 1_555
H7 C10 1_555 1_555
C11 C6 1_555 1_555
H8 C11 1_555 1_555
C12 C3 1_555 1_555
C13 N1 1_555 1_555
C14 C13 1_555 1_555
H9 C14 1_555 1_555
C15 C14 1_555 1_555
H10 C15 1_555 1_555
C16 C15 1_555 1_555
H11 C16 1_555 1_555
C17 C12 1_555 1_555
H12 C17 1_555 1_555
C18 S1 1_555 1_555
C19 C18 1_555 1_555
H13 C19 1_555 1_555
C20 C19 1_555 1_555
H14 C20 1_555 1_555
C21 C20 1_555 1_555
C22 C21 1_555 1_555
H15 C22 1_555 1_555
C23 C18 1_555 1_555
H16 C23 1_555 1_555
C24 C21 1_555 1_555
H17 C24 1_555 1_555
H18 C24 1_555 1_555
H19 C24 1_555 1_555
C3 C4 1_555 1_555
C3 C5 1_555 1_555
C6 C7 1_555 1_555
C10 C11 1_555 1_555
C12 C13 1_555 1_555
C16 C17 1_555 1_555
C22 C23 1_555 1_555

#END
