
#######################################################################
#
#                 Cambridge Crystallographic Data Centre
#                                CCDC 
#
#######################################################################
#
# If this CIF has been generated from an entry in the Cambridge 
# Structural Database, then it will include bibliographic, chemical, 
# crystal, experimental, refinement or atomic coordinate data resulting 
# from the CCDC's data processing and validation procedures.
#
#######################################################################

data_KAYDIA
_chemical_formula_moiety         'C23 H23 N1 O4'
_chemical_name_systematic        
"t-butyl 4-oxo-4a-phenyl-1,2,4a,4b-tetrahydropyrano[4',3':2,3]cyclopropa[1,2-b]indole-5(4H)-carboxylate"
_symmetry_cell_setting           triclinic
_symmetry_space_group_name_H-M   'P 1'
_symmetry_Int_Tables_number      1
_space_group_name_Hall           'P 1'
loop_
_symmetry_equiv_pos_site_id
_symmetry_equiv_pos_as_xyz
1 x,y,z
_cell_length_a                   10.286(3)
_cell_length_b                   10.706(2)
_cell_length_c                   11.1417(4)
_cell_angle_alpha                66.363(18)
_cell_angle_beta                 64.94(2)
_cell_angle_gamma                88.20(3)
_cell_volume                     1003.94
_exptl_crystal_colour            colorless
_exptl_crystal_description       prism
_cell_formula_units_Z            2
loop_
_atom_site_label
_atom_site_type_symbol
_atom_site_fract_x
_atom_site_fract_y
_atom_site_fract_z
O1 O 0.39507(15) 0.91696(13) 0.46271(14)
O2 O 0.50573(15) 0.76355(14) 0.39321(15)
O3 O 0.11093(16) 0.51368(15) 0.93242(14)
O4 O -0.10241(14) 0.40506(12) 0.97722(12)
N1 N 0.07892(16) 0.49694(14) 0.74961(14)
C1 C 0.2247(2) 0.56833(17) 0.64228(17)
H1 H 0.3082 0.5404 0.6650
C2 C 0.2366(2) 0.59201(16) 0.49441(18)
C3 C 0.0927(2) 0.52465(16) 0.52974(18)
C4 C 0.0001(2) 0.47261(15) 0.68021(17)
C5 C -0.1398(2) 0.40238(17) 0.74043(19)
H2 H -0.2035 0.3700 0.8421
C6 C -0.1834(2) 0.38116(19) 0.6466(2)
H3 H -0.2788 0.3341 0.6851
C7 C -0.0907(3) 0.42711(19) 0.4981(2)
H4 H -0.1223 0.4093 0.4370
C8 C 0.0487(2) 0.49938(18) 0.43841(19)
H5 H 0.1125 0.5308 0.3369
C9 C 0.2375(2) 0.71680(17) 0.53164(18)
C10 C 0.3825(2) 0.80584(18) 0.46122(18)
C11 C 0.5066(3) 0.6351(2) 0.3778(2)
H6 H 0.5130 0.5605 0.4627
H7 H 0.5943 0.6451 0.2882
C12 C 0.3738(2) 0.59337(19) 0.3687(2)
H8 H 0.3758 0.6590 0.2749
H9 H 0.3749 0.5002 0.3704
C13 C 0.1130(2) 0.79446(17) 0.55905(18)
C14 C 0.0712(2) 0.86198(19) 0.4489(2)
H10 H 0.1151 0.8507 0.3606
C15 C -0.0346(3) 0.9460(2) 0.4674(3)
H11 H -0.0619 0.9932 0.3912
C16 C -0.1003(3) 0.9610(2) 0.5970(3)
H12 H -0.1718 1.0192 0.6093
C17 C -0.0618(2) 0.8911(2) 0.7083(2)
H13 H -0.1090 0.8994 0.7981
C18 C 0.0451(2) 0.80898(18) 0.6898(2)
H14 H 0.0722 0.7625 0.7661
C19 C 0.0337(2) 0.47439(17) 0.89356(18)
C20 C -0.1770(2) 0.36795(19) 1.13710(18)
C21 C -0.3233(3) 0.2899(3) 1.1826(2)
H15 H -0.3817 0.2545 1.2890
H16 H -0.3079 0.2125 1.1551
H17 H -0.3746 0.3525 1.1331
C22 C -0.0938(3) 0.2753(2) 1.2116(2)
H18 H -0.0013 0.3289 1.1820
H19 H -0.0747 0.1988 1.1828
H20 H -0.1517 0.2383 1.3182
C23 C -0.1928(3) 0.4981(2) 1.1611(2)
H21 H -0.2533 0.4738 1.2654
H22 H -0.2388 0.5590 1.1038
H23 H -0.0964 0.5458 1.1297
O5 O 0.54846(19) 1.26902(17) 0.59265(16)
O6 O 0.40405(16) 1.25073(14) 0.50173(13)
O7 O 0.26261(15) 0.65827(13) 1.07159(13)
O8 O 0.41246(14) 0.74937(12) 0.82608(12)
N2 N 0.22419(16) 0.85036(13) 0.90939(14)
C24 C 0.2796(2) 0.96799(16) 0.76676(16)
H24 H 0.3206 0.9531 0.6755
C25 C 0.3619(2) 1.09666(17) 0.88653(19)
C26 C 0.0606(2) 1.00007(16) 0.93638(18)
C27 C 0.09488(19) 0.87244(16) 1.00881(17)
C28 C 0.0040(2) 0.78715(18) 1.15531(18)
H25 H 0.0291 0.7027 1.2061
C29 C -0.1244(2) 0.8295(2) 1.2246(2)
H26 H -0.1879 0.7726 1.3246
C30 C -0.1629(2) 0.9525(2) 1.1525(2)
H27 H -0.2528 0.9775 1.2019
C31 C -0.0686(2) 1.03952(18) 1.0064(2)
H28 H -0.0933 1.1245 0.9563
C32 C 0.3324(2) 1.10418(17) 0.76298(18)
C33 C 0.4362(2) 1.21183(18) 0.6156(2)
C34 C 0.2688(2) 1.19572(19) 0.5150(2)
H29 H 0.2799 1.1091 0.5020
H30 H 0.2475 1.2630 0.4365
C35 C 0.1444(2) 1.16704(17) 0.66110(19)
H31 H 0.0551 1.1251 0.6687
H32 H 0.1267 1.2549 0.6704
C36 C 0.1770(2) 1.07041(16) 0.78303(17)
C37 C 0.2820(3) 1.1593(2) 0.9770(2)
H33 H 0.2073 1.2073 0.9611
C38 C 0.3116(3) 1.1515(3) 1.0904(2)
H34 H 0.2563 1.1935 1.1523
C39 C 0.4202(4) 1.0834(3) 1.1134(3)
H35 H 0.4403 1.0788 1.1907
C40 C 0.5001(4) 1.0217(3) 1.0243(3)
H36 H 0.5751 0.9745 1.0403
C41 C 0.4709(3) 1.0284(2) 0.9104(3)
H37 H 0.5262 0.9857 0.8492
C42 C 0.2986(2) 0.74333(17) 0.94658(18)
C43 C 0.5172(2) 0.65109(19) 0.8355(2)
C44 C 0.4410(3) 0.5027(2) 0.9057(3)
H38 H 0.5137 0.4411 0.8986
H39 H 0.3863 0.4950 0.8546
H40 H 0.3741 0.4765 1.0090
C45 C 0.6216(2) 0.6950(2) 0.6758(2)
H41 H 0.7015 0.6416 0.6680
H42 H 0.6609 0.7937 0.6301
H43 H 0.5701 0.6782 0.6258
C46 C 0.5925(2) 0.6725(2) 0.9185(2)
H44 H 0.6738 0.6207 0.9092
H45 H 0.5230 0.6396 1.0222
H46 H 0.6295 0.7712 0.8777
loop_
_geom_bond_atom_site_label_1
_geom_bond_atom_site_label_2
_geom_bond_site_symmetry_1
_geom_bond_site_symmetry_2
O1 C10 1_555 1_555
O2 C10 1_555 1_555
O3 C19 1_555 1_555
O4 C19 1_555 1_555
N1 C1 1_555 1_555
C1 H1 1_555 1_555
C2 C1 1_555 1_555
C3 C2 1_555 1_555
C4 N1 1_555 1_555
C5 C4 1_555 1_555
H2 C5 1_555 1_555
C6 C5 1_555 1_555
H3 C6 1_555 1_555
C7 C6 1_555 1_555
H4 C7 1_555 1_555
C8 C3 1_555 1_555
H5 C8 1_555 1_555
C9 C1 1_555 1_555
C10 C9 1_555 1_555
C11 O2 1_555 1_555
H6 C11 1_555 1_555
H7 C11 1_555 1_555
C12 C2 1_555 1_555
H8 C12 1_555 1_555
H9 C12 1_555 1_555
C13 C9 1_555 1_555
C14 C13 1_555 1_555
H10 C14 1_555 1_555
C15 C14 1_555 1_555
H11 C15 1_555 1_555
C16 C15 1_555 1_555
H12 C16 1_555 1_555
C17 C16 1_555 1_555
H13 C17 1_555 1_555
C18 C13 1_555 1_555
H14 C18 1_555 1_555
C19 N1 1_555 1_555
C20 O4 1_555 1_555
C21 C20 1_555 1_555
H15 C21 1_555 1_555
H16 C21 1_555 1_555
H17 C21 1_555 1_555
C22 C20 1_555 1_555
H18 C22 1_555 1_555
H19 C22 1_555 1_555
H20 C22 1_555 1_555
C23 C20 1_555 1_555
H21 C23 1_555 1_555
H22 C23 1_555 1_555
H23 C23 1_555 1_555
O5 C33 1_555 1_555
O6 C33 1_555 1_555
O7 C42 1_555 1_555
O8 C42 1_555 1_555
N2 C24 1_555 1_555
C24 H24 1_555 1_555
C25 C32 1_555 1_555
C26 C27 1_555 1_555
C27 N2 1_555 1_555
C28 C27 1_555 1_555
H25 C28 1_555 1_555
C29 C28 1_555 1_555
H26 C29 1_555 1_555
C30 C29 1_555 1_555
H27 C30 1_555 1_555
C31 C26 1_555 1_555
H28 C31 1_555 1_555
C32 C24 1_555 1_555
C33 C32 1_555 1_555
C34 O6 1_555 1_555
H29 C34 1_555 1_555
H30 C34 1_555 1_555
C35 C34 1_555 1_555
H31 C35 1_555 1_555
H32 C35 1_555 1_555
C36 C24 1_555 1_555
C37 C25 1_555 1_555
H33 C37 1_555 1_555
C38 C37 1_555 1_555
H34 C38 1_555 1_555
C39 C38 1_555 1_555
H35 C39 1_555 1_555
C40 C39 1_555 1_555
H36 C40 1_555 1_555
C41 C25 1_555 1_555
H37 C41 1_555 1_555
C42 N2 1_555 1_555
C43 O8 1_555 1_555
C44 C43 1_555 1_555
H38 C44 1_555 1_555
H39 C44 1_555 1_555
H40 C44 1_555 1_555
C45 C43 1_555 1_555
H41 C45 1_555 1_555
H42 C45 1_555 1_555
H43 C45 1_555 1_555
C46 C43 1_555 1_555
H44 C46 1_555 1_555
H45 C46 1_555 1_555
H46 C46 1_555 1_555
C2 C9 1_555 1_555
C3 C4 1_555 1_555
C7 C8 1_555 1_555
C11 C12 1_555 1_555
C17 C18 1_555 1_555
C26 C36 1_555 1_555
C30 C31 1_555 1_555
C32 C36 1_555 1_555
C35 C36 1_555 1_555
C40 C41 1_555 1_555

#END
