
#######################################################################
#
#                 Cambridge Crystallographic Data Centre
#                                CCDC 
#
#######################################################################
#
# If this CIF has been generated from an entry in the Cambridge 
# Structural Database, then it will include bibliographic, chemical, 
# crystal, experimental, refinement or atomic coordinate data resulting 
# from the CCDC's data processing and validation procedures.
#
#######################################################################

data_KAYDOG
_chemical_formula_moiety         'C22 H21 N1 O4'
_chemical_name_systematic        
"t-butyl 3-oxo-3a-phenyl-3a,3b-dihydro-1H-furo[3',4':2,3]cyclopropa[1,2-b]indole-4(3H)-carboxylate"
_symmetry_cell_setting           triclinic
_symmetry_space_group_name_H-M   'P 1'
_symmetry_Int_Tables_number      1
_space_group_name_Hall           'P 1'
loop_
_symmetry_equiv_pos_site_id
_symmetry_equiv_pos_as_xyz
1 x,y,z
_cell_length_a                   10.2122(8)
_cell_length_b                   10.3040(10)
_cell_length_c                   10.7741(12)
_cell_angle_alpha                70.180(12)
_cell_angle_beta                 62.360(10)
_cell_angle_gamma                86.860(15)
_cell_volume                     937.67
_exptl_crystal_colour            colorless
_exptl_crystal_description       prism
_cell_formula_units_Z            2
loop_
_atom_site_label
_atom_site_type_symbol
_atom_site_fract_x
_atom_site_fract_y
_atom_site_fract_z
O1 O 1.0390(2) 0.5233(2) 0.6699(3)
O2 O 1.0832(2) 0.3387(2) 0.5980(3)
O3 O 0.6931(2) 0.1515(2) 1.1790(2)
O4 O 0.4837(2) 0.0435(2) 1.2133(2)
N1 N 0.6750(3) 0.1319(3) 0.9835(3)
C1 C 0.9919(3) 0.4155(3) 0.6769(3)
C2 C 0.8344(3) 0.3448(3) 0.7665(3)
C3 C 0.8449(3) 0.2141(3) 0.7268(3)
C4 C 0.8236(3) 0.2034(3) 0.8779(3)
H1 H 0.9068 0.1793 0.9029
C5 C 1.0006(4) 0.2256(4) 0.6033(4)
H2 H 1.0444 0.1381 0.6256
H3 H 1.0008 0.2462 0.5065
C6 C 0.7120(3) 0.4351(3) 0.7885(3)
C7 C 0.6774(3) 0.4970(3) 0.6727(4)
H4 H 0.7261 0.4758 0.5837
C8 C 0.5722(4) 0.5895(4) 0.6868(4)
H5 H 0.5505 0.6331 0.6066
C9 C 0.4982(4) 0.6184(3) 0.8185(4)
H6 H 0.4260 0.6818 0.8286
C10 C 0.5311(3) 0.5540(4) 0.9344(4)
H7 H 0.4802 0.5728 1.0247
C11 C 0.6368(3) 0.4626(4) 0.9206(4)
H8 H 0.6579 0.4186 1.0012
C12 C 0.7100(3) 0.1385(3) 0.7556(3)
C13 C 0.6092(3) 0.0923(3) 0.9094(3)
C14 C 0.4730(3) 0.0163(3) 0.9662(3)
H9 H 0.4039 -0.0135 1.0700
C15 C 0.4408(3) -0.0148(3) 0.8666(4)
H10 H 0.3487 -0.0676 0.9032
C16 C 0.5413(4) 0.0302(3) 0.7146(4)
H11 H 0.5164 0.0080 0.6488
C17 C 0.6762(4) 0.1064(3) 0.6574(4)
H12 H 0.7445 0.1364 0.5533
C18 C 0.6213(3) 0.1116(3) 1.1336(3)
C19 C 0.4016(3) 0.0052(3) 1.3791(3)
C20 C 0.4827(3) -0.0948(3) 1.4484(3)
H13 H 0.5003 -0.1731 1.4128
H14 H 0.4222 -0.1294 1.5578
H15 H 0.5782 -0.0471 1.4199
C21 C 0.3808(3) 0.1348(3) 1.4188(4)
H16 H 0.4780 0.1803 1.3887
H17 H 0.3179 0.1096 1.5272
H18 H 0.3329 0.1986 1.3663
C22 C 0.2540(3) -0.0660(3) 1.4175(3)
H19 H 0.2075 -0.0010 1.3642
H20 H 0.1877 -0.0953 1.5257
H21 H 0.2717 -0.1475 1.3872
O5 O 1.1448(2) 0.9052(3) -0.1992(3)
O6 O 0.9444(2) 0.8698(2) -0.2207(2)
O7 O 0.8856(2) 0.2847(2) 0.2921(2)
O8 O 1.0411(2) 0.3673(2) 0.0408(2)
N2 N 0.8462(2) 0.4750(2) 0.1326(3)
C23 C 1.0268(3) 0.8407(3) -0.1465(3)
C24 C 0.9450(3) 0.7262(3) 0.0024(3)
C25 C 0.9080(3) 0.5897(3) -0.0091(3)
H22 H 0.9622 0.5726 -0.1057
C26 C 0.7962(3) 0.6909(3) 0.0099(3)
C27 C 0.7958(3) 0.7921(3) -0.1293(3)
H23 H 0.7754 0.7419 -0.1835
H24 H 0.7192 0.8553 -0.1032
C28 C 0.9657(3) 0.7267(3) 0.1295(4)
C29 C 0.8761(3) 0.7947(3) 0.2239(3)
H25 H 0.8006 0.8428 0.2068
C30 C 0.8960(4) 0.7932(4) 0.3445(4)
H26 H 0.8342 0.8400 0.4090
C31 C 1.0063(4) 0.7230(4) 0.3692(4)
H27 H 1.0198 0.7213 0.4512
C32 C 1.0967(4) 0.6554(4) 0.2748(5)
H28 H 1.1724 0.6076 0.2918
C33 C 1.0768(4) 0.6573(4) 0.1548(4)
H29 H 1.1393 0.6111 0.0899
C34 C 0.6669(3) 0.6235(3) 0.1601(3)
C35 C 0.7050(3) 0.4988(3) 0.2323(3)
C36 C 0.6087(3) 0.4163(3) 0.3787(3)
H30 H 0.6366 0.3340 0.4294
C37 C 0.4696(3) 0.4586(3) 0.4484(3)
H31 H 0.4008 0.4031 0.5482
C38 C 0.4285(3) 0.5802(3) 0.3755(4)
H32 H 0.3320 0.6056 0.4251
C39 C 0.5287(3) 0.6649(3) 0.2301(3)
H33 H 0.5025 0.7490 0.1804
C40 C 0.9229(3) 0.3660(3) 0.1662(3)
C41 C 1.1478(3) 0.2649(3) 0.0414(4)
C42 C 1.2555(4) 0.3049(4) -0.1238(4)
H34 H 1.2035 0.2895 -0.1755
H35 H 1.3376 0.2479 -0.1376
H36 H 1.2951 0.4033 -0.1654
C43 C 1.2237(3) 0.2859(4) 0.1269(4)
H37 H 1.2642 0.3838 0.0871
H38 H 1.3048 0.2278 0.1154
H39 H 1.1511 0.2595 0.2333
C44 C 1.0705(3) 0.1183(3) 0.1077(4)
H40 H 1.0012 0.0961 0.2145
H41 H 1.1449 0.0529 0.0957
H42 H 1.0153 0.1111 0.0559
loop_
_geom_bond_atom_site_label_1
_geom_bond_atom_site_label_2
_geom_bond_site_symmetry_1
_geom_bond_site_symmetry_2
O1 C1 1_555 1_555
O2 C1 1_555 1_555
O3 C18 1_555 1_555
O4 C18 1_555 1_555
N1 C4 1_555 1_555
C1 C2 1_555 1_555
C2 C3 1_555 1_555
C3 C4 1_555 1_555
C4 C2 1_555 1_555
H1 C4 1_555 1_555
C5 O2 1_555 1_555
H2 C5 1_555 1_555
H3 C5 1_555 1_555
C6 C2 1_555 1_555
C7 C6 1_555 1_555
H4 C7 1_555 1_555
C8 C7 1_555 1_555
H5 C8 1_555 1_555
C9 C8 1_555 1_555
H6 C9 1_555 1_555
C10 C9 1_555 1_555
H7 C10 1_555 1_555
C11 C6 1_555 1_555
H8 C11 1_555 1_555
C12 C3 1_555 1_555
C13 N1 1_555 1_555
C14 C13 1_555 1_555
H9 C14 1_555 1_555
C15 C14 1_555 1_555
H10 C15 1_555 1_555
C16 C15 1_555 1_555
H11 C16 1_555 1_555
C17 C12 1_555 1_555
H12 C17 1_555 1_555
C18 N1 1_555 1_555
C19 O4 1_555 1_555
C20 C19 1_555 1_555
H13 C20 1_555 1_555
H14 C20 1_555 1_555
H15 C20 1_555 1_555
C21 C19 1_555 1_555
H16 C21 1_555 1_555
H17 C21 1_555 1_555
H18 C21 1_555 1_555
C22 C19 1_555 1_555
H19 C22 1_555 1_555
H20 C22 1_555 1_555
H21 C22 1_555 1_555
O5 C23 1_555 1_555
O6 C23 1_555 1_555
O7 C40 1_555 1_555
O8 C40 1_555 1_555
N2 C25 1_555 1_555
C23 C24 1_555 1_555
C24 C25 1_555 1_555
C25 H22 1_555 1_555
C26 C24 1_555 1_555
C27 O6 1_555 1_555
H23 C27 1_555 1_555
H24 C27 1_555 1_555
C28 C24 1_555 1_555
C29 C28 1_555 1_555
H25 C29 1_555 1_555
C30 C29 1_555 1_555
H26 C30 1_555 1_555
C31 C30 1_555 1_555
H27 C31 1_555 1_555
C32 C31 1_555 1_555
H28 C32 1_555 1_555
C33 C28 1_555 1_555
H29 C33 1_555 1_555
C34 C26 1_555 1_555
C35 N2 1_555 1_555
C36 C35 1_555 1_555
H30 C36 1_555 1_555
C37 C36 1_555 1_555
H31 C37 1_555 1_555
C38 C37 1_555 1_555
H32 C38 1_555 1_555
C39 C34 1_555 1_555
H33 C39 1_555 1_555
C40 N2 1_555 1_555
C41 O8 1_555 1_555
C42 C41 1_555 1_555
H34 C42 1_555 1_555
H35 C42 1_555 1_555
H36 C42 1_555 1_555
C43 C41 1_555 1_555
H37 C43 1_555 1_555
H38 C43 1_555 1_555
H39 C43 1_555 1_555
C44 C41 1_555 1_555
H40 C44 1_555 1_555
H41 C44 1_555 1_555
H42 C44 1_555 1_555
C3 C5 1_555 1_555
C10 C11 1_555 1_555
C12 C13 1_555 1_555
C16 C17 1_555 1_555
C25 C26 1_555 1_555
C26 C27 1_555 1_555
C32 C33 1_555 1_555
C34 C35 1_555 1_555
C38 C39 1_555 1_555

#END
