
#######################################################################
#
#                 Cambridge Crystallographic Data Centre
#                                CCDC 
#
#######################################################################
#
# If this CIF has been generated from an entry in the Cambridge 
# Structural Database, then it will include bibliographic, chemical, 
# crystal, experimental, refinement or atomic coordinate data resulting 
# from the CCDC's data processing and validation procedures.
#
#######################################################################

data_KAYGUO
_chemical_formula_moiety         'C11 H9 N3 O1,C4 H6 O4'
_chemical_name_systematic        'N-(Pyridin-2-yl)isonicotinamide succinic acid'
_symmetry_cell_setting           triclinic
_symmetry_space_group_name_H-M   'P -1'
_symmetry_Int_Tables_number      2
_space_group_name_Hall           '-P 1'
loop_
_symmetry_equiv_pos_site_id
_symmetry_equiv_pos_as_xyz
1 x,y,z
2 -x,-y,-z
_cell_length_a                   11.2578(7)
_cell_length_b                   19.6623(11)
_cell_length_c                   19.8130(12)
_cell_angle_alpha                93.236(3)
_cell_angle_beta                 91.236(3)
_cell_angle_gamma                90.298(3)
_cell_volume                     4377.59
_exptl_crystal_colour            colorless
_exptl_crystal_description       prism
_cell_formula_units_Z            12
loop_
_atom_site_label
_atom_site_type_symbol
_atom_site_fract_x
_atom_site_fract_y
_atom_site_fract_z
N1 N 0.61727(15) 1.11456(9) 0.26831(8)
C1 C 0.69720(18) 1.07054(10) 0.24277(10)
H1 H 0.6703 1.0267 0.2263
C2 C 0.81655(18) 1.08568(10) 0.23921(10)
H2 H 0.8708 1.0523 0.2224
C3 C 0.85624(17) 1.15059(10) 0.26063(10)
C4 C 0.77448(16) 1.19659(10) 0.28724(10)
H3 H 0.7985 1.2412 0.3030
C5 C 0.65691(17) 1.17614(10) 0.29042(10)
H4 H 0.6014 1.2076 0.3094
C6 C 0.98742(17) 1.16504(10) 0.25763(10)
N2 N 1.02186(14) 1.23156(8) 0.25869(8)
H5 H 0.9678(19) 1.2645(11) 0.2586(10)
O1 O 1.05652(13) 1.11744(7) 0.25469(9)
N3 N 1.14798(14) 1.32391(8) 0.26055(9)
C7 C 1.13921(16) 1.25597(10) 0.25765(10)
C8 C 1.23891(17) 1.21432(11) 0.25355(10)
H6 H 1.2312 1.1661 0.2521
C9 C 1.34939(18) 1.24515(11) 0.25161(11)
H7 H 1.4187 1.2179 0.2480
C10 C 1.35955(19) 1.31513(11) 0.25487(12)
H8 H 1.4350 1.3370 0.2540
C11 C 1.25720(18) 1.35198(11) 0.25934(12)
H9 H 1.2635 1.4003 0.2617
N4 N 0.84071(15) 1.79783(9) 0.23750(9)
C12 C 0.75524(19) 1.84248(11) 0.22433(11)
H10 H 0.7778 1.8881 0.2173
C13 C 0.63555(19) 1.82575(10) 0.22038(11)
H11 H 0.5778 1.8592 0.2111
C14 C 0.60154(17) 1.75908(10) 0.23017(9)
C15 C 0.68862(18) 1.71288(11) 0.24409(11)
H12 H 0.6687 1.6668 0.2511
C16 C 0.80595(19) 1.73454(11) 0.24779(12)
H13 H 0.8651 1.7023 0.2583
C17 C 0.47051(17) 1.74300(10) 0.22509(10)
N5 N 0.43811(15) 1.67671(8) 0.23206(9)
H14 H 0.4921(19) 1.6472(11) 0.2382(11)
O2 O 0.39989(12) 1.78801(7) 0.21482(8)
N6 N 0.31449(14) 1.58326(8) 0.23454(9)
C18 C 0.32135(17) 1.65076(10) 0.22950(10)
C19 C 0.22096(18) 1.69047(11) 0.22249(11)
H15 H 0.2276 1.7383 0.2188
C20 C 0.11100(19) 1.65885(11) 0.22095(12)
H16 H 0.0410 1.6851 0.2161
C21 C 0.10233(18) 1.58952(11) 0.22641(11)
H17 H 0.0274 1.5671 0.2258
C22 C 0.20612(18) 1.55424(11) 0.23274(11)
H18 H 0.2012 1.5063 0.2361
C23 C 0.87970(17) 1.40654(10) 0.26056(10)
O3 O 0.99246(12) 1.42511(7) 0.25677(8)
H19 H 1.041(2) 1.3847(12) 0.2579(11)
O4 O 0.84928(12) 1.34767(7) 0.26662(8)
C24 C 0.79454(17) 1.46436(10) 0.25591(11)
H20 H 0.8067 1.4864 0.2129
H21 H 0.8122 1.4986 0.2934
C25 C 0.66536(17) 1.44234(10) 0.25921(11)
H22 H 0.6484 1.4065 0.2231
H23 H 0.6520 1.4224 0.3032
C26 C 0.58091(17) 1.50042(10) 0.25114(10)
O5 O 0.46799(12) 1.48163(7) 0.25333(7)
H24 H 0.4187(19) 1.5210(11) 0.2450(11)
O6 O 0.61181(12) 1.55863(7) 0.24264(7)
C27 C 0.37193(17) 1.01157(10) 0.26039(10)
O7 O 0.39244(13) 1.07562(7) 0.28283(7)
H25 H 0.475(2) 1.0857(11) 0.2780(11)
O8 O 0.44676(13) 0.97694(8) 0.23280(9)
C28 C 0.24657(17) 0.98933(9) 0.27190(10)
H26 H 0.1912 1.0210 0.2504
H27 H 0.2320 0.9920 0.3211
C29 C 0.22050(17) 0.91734(10) 0.24368(11)
H28 H 0.2513 0.9119 0.1973
H29 H 0.2634 0.8849 0.2717
C30 C 0.09072(18) 0.89957(10) 0.24174(10)
O9 O 0.07158(13) 0.83308(7) 0.23556(9)
H30 H -0.008(2) 0.8276(12) 0.2351(12)
O10 O 0.01104(13) 0.94008(8) 0.24356(10)
N7 N 0.65324(15) 0.50207(9) 0.59506(9)
C31 C 0.74078(19) 0.45770(11) 0.60087(11)
H31 H 0.7206 0.4118 0.6082
C32 C 0.86028(19) 0.47461(11) 0.59688(11)
H32 H 0.9200 0.4412 0.6021
C33 C 0.89046(17) 0.54124(10) 0.58518(10)
C34 C 0.80068(19) 0.58769(11) 0.57976(13)
H33 H 0.8181 0.6340 0.5725
C35 C 0.6842(2) 0.56583(12) 0.58510(14)
H34 H 0.6229 0.5985 0.5814
C36 C 1.02040(18) 0.55686(10) 0.57905(10)
N8 N 1.05129(15) 0.62367(8) 0.57219(9)
H35 H 0.9945(19) 0.6572(11) 0.5735(10)
O11 O 1.09233(13) 0.51123(8) 0.58022(9)
N9 N 1.17303(14) 0.71606(8) 0.55900(8)
C37 C 1.16665(17) 0.64836(10) 0.56233(10)
C38 C 1.26604(17) 0.60689(11) 0.55446(11)
H36 H 1.2603 0.5590 0.5581
C39 C 1.37311(18) 0.63758(11) 0.54121(12)
H37 H 1.4418 0.6104 0.5345
C40 C 1.38121(18) 0.70748(11) 0.53754(11)
H38 H 1.4544 0.7291 0.5286
C41 C 1.27918(17) 0.74422(11) 0.54729(10)
H39 H 1.2838 0.7924 0.5457
N10 N 0.87926(15) 1.18698(9) 0.58915(9)
C42 C 0.79952(18) 1.23155(11) 0.61339(10)
H40 H 0.8264 1.2756 0.6292
C43 C 0.67930(18) 1.21659(10) 0.61655(10)
H41 H 0.6252 1.2501 0.6332
C44 C 0.63925(17) 1.15170(10) 0.59496(10)
C45 C 0.72095(17) 1.10519(10) 0.56949(10)
H42 H 0.6966 1.0606 0.5538
C46 C 0.83943(17) 1.12509(10) 0.56732(10)
H43 H 0.8951 1.0931 0.5494
C47 C 0.50772(17) 1.13786(10) 0.59915(10)
N11 N 0.47198(14) 1.07150(8) 0.59373(8)
H44 H 0.5261(19) 1.0372(11) 0.5861(10)
O12 O 0.44059(13) 1.18575(7) 0.60722(9)
N12 N 0.34296(14) 0.97980(8) 0.59059(8)
C48 C 0.35413(16) 1.04773(9) 0.59888(10)
C49 C 0.25753(17) 1.08964(10) 0.61250(10)
H45 H 0.2670 1.1377 0.6176
C50 C 0.14708(18) 1.05950(11) 0.61838(11)
H46 H 0.0797 1.0870 0.6280
C51 C 0.13444(18) 0.98958(10) 0.61024(11)
H47 H 0.0593 0.9681 0.6142
C52 C 0.23417(17) 0.95251(10) 0.59628(10)
H48 H 0.2261 0.9044 0.5902
C53 C 0.90601(17) 0.80080(10) 0.57372(10)
O13 O 1.01877(12) 0.81989(7) 0.57113(7)
H49 H 1.065(2) 0.7787(12) 0.5712(11)
O14 O 0.87594(12) 0.74146(7) 0.57748(7)
C54 C 0.82113(17) 0.85928(10) 0.57362(11)
H50 H 0.8411 0.8885 0.5363
H51 H 0.8312 0.8870 0.6166
C55 C 0.69200(17) 0.83683(9) 0.56531(11)
H52 H 0.6811 0.8107 0.5214
H53 H 0.6729 0.8061 0.6015
C56 C 0.60723(17) 0.89555(10) 0.56801(10)
O15 O 0.49474(12) 0.87631(7) 0.57167(7)
H54 H 0.4472(19) 0.9173(11) 0.5708(10)
O16 O 0.63780(12) 0.95474(7) 0.56597(7)
C57 C 0.40387(18) 0.40347(10) 0.60097(11)
O17 O 0.42289(13) 0.46937(7) 0.59414(8)
H55 H 0.504(2) 0.4776(12) 0.5984(11)
O18 O 0.48369(13) 0.36362(7) 0.60831(9)
C58 C 0.27401(17) 0.38547(10) 0.60087(11)
H56 H 0.2306 0.4143 0.5693
H57 H 0.2430 0.3956 0.6467
C59 C 0.25026(17) 0.31114(10) 0.58013(11)
H58 H 0.2694 0.3028 0.5318
H59 H 0.3035 0.2825 0.6068
C60 C 0.12320(18) 0.29016(10) 0.59040(11)
O19 O 0.10581(13) 0.22404(7) 0.57649(8)
H60 H 0.026(2) 0.2136(11) 0.5804(11)
O20 O 0.04590(14) 0.32791(8) 0.61042(10)
N13 N 0.63498(14) -0.14809(8) 0.89702(8)
C61 C 0.71863(18) -0.19325(10) 0.91201(10)
H61 H 0.6945 -0.2385 0.9194
C62 C 0.83870(17) -0.17743(10) 0.91738(10)
H62 H 0.8952 -0.2113 0.9274
C63 C 0.87480(16) -0.11108(9) 0.90789(9)
C64 C 0.78908(16) -0.06369(10) 0.89230(10)
H63 H 0.8106 -0.0179 0.8854
C65 C 0.67121(17) -0.08467(10) 0.88698(10)
H64 H 0.6130 -0.0522 0.8756
C66 C 1.00611(17) -0.09644(9) 0.91400(10)
N14 N 1.04096(14) -0.02943(8) 0.91867(8)
H65 H 0.9904(18) 0.0068(11) 0.9188(10)
O21 O 1.07534(12) -0.14373(7) 0.91535(8)
N15 N 1.16897(14) 0.06268(8) 0.92605(8)
C67 C 1.15880(16) -0.00551(9) 0.92510(9)
C68 C 1.25766(17) -0.04740(10) 0.92960(10)
H66 H 1.2489 -0.0955 0.9285
C69 C 1.36872(17) -0.01720(10) 0.93566(11)
H67 H 1.4373 -0.0448 0.9394
C70 C 1.38094(17) 0.05272(10) 0.93632(10)
H68 H 1.4568 0.0741 0.9401
C71 C 1.27845(17) 0.09008(10) 0.93129(10)
H69 H 1.2856 0.1383 0.9315
N16 N 0.85415(15) 0.54273(9) 0.92191(9)
C72 C 0.76809(18) 0.58495(10) 0.90334(11)
H70 H 0.7899 0.6292 0.8909
C73 C 0.64913(18) 0.56730(10) 0.90140(10)
H71 H 0.5906 0.5989 0.8883
C74 C 0.61637(17) 0.50230(9) 0.91896(9)
C75 C 0.70475(17) 0.45894(10) 0.93948(10)
H72 H 0.6857 0.4145 0.9527
C76 C 0.82154(18) 0.48144(10) 0.94042(11)
H73 H 0.8816 0.4515 0.9551
C77 C 0.48587(16) 0.48466(9) 0.91468(9)
N17 N 0.45520(14) 0.41844(8) 0.92273(8)
H74 H 0.5107(19) 0.3855(11) 0.9284(10)
O22 O 0.41377(12) 0.52907(7) 0.90420(8)
N18 N 0.33319(14) 0.32556(8) 0.93423(9)
C78 C 0.33893(17) 0.39169(9) 0.92165(10)
C79 C 0.23785(17) 0.42975(10) 0.90929(10)
H75 H 0.2437 0.4766 0.9005
C80 C 0.12899(18) 0.39754(11) 0.91011(11)
H76 H 0.0586 0.4224 0.9015
C81 C 0.12125(18) 0.32930(11) 0.92338(12)
H77 H 0.0467 0.3066 0.9244
C82 C 0.22560(18) 0.29581(10) 0.93499(11)
H78 H 0.2216 0.2489 0.9441
C83 C 0.90277(17) 0.14753(10) 0.92895(10)
O23 O 1.01548(12) 0.16652(7) 0.92812(7)
H79 H 1.0650(19) 0.1243(12) 0.9279(11)
O24 O 0.87121(12) 0.08784(7) 0.92482(7)
C84 C 0.81853(17) 0.20643(10) 0.93534(11)
H80 H 0.8283 0.2351 0.8963
H81 H 0.8396 0.2347 0.9769
C85 C 0.68874(17) 0.18444(10) 0.93829(11)
H82 H 0.6697 0.1528 0.8988
H83 H 0.6774 0.1594 0.9796
C86 C 0.60412(17) 0.24311(10) 0.93848(10)
O25 O 0.49176(12) 0.22374(7) 0.94420(8)
H84 H 0.448(2) 0.2638(12) 0.9404(11)
O26 O 0.63347(12) 0.30214(7) 0.93379(7)
C87 C 0.38701(17) -0.25239(10) 0.88404(10)
O27 O 0.40559(13) -0.18596(7) 0.88803(8)
H85 H 0.490(2) -0.1761(11) 0.8920(11)
O28 O 0.46701(14) -0.29269(8) 0.88290(11)
C88 C 0.25751(17) -0.27122(10) 0.87916(11)
H86 H 0.2311 -0.2725 0.8311
H87 H 0.2113 -0.2355 0.9039
C89 C 0.23069(16) -0.33947(9) 0.90758(10)
H88 H 0.2751 -0.3753 0.8819
H89 H 0.2593 -0.3386 0.9552
C90 C 0.10118(17) -0.35763(10) 0.90468(10)
O29 O 0.08209(13) -0.42236(7) 0.91648(9)
H90 H -0.001(2) -0.4296(12) 0.9183(12)
O30 O 0.02109(13) -0.31936(8) 0.89319(10)
loop_
_geom_bond_atom_site_label_1
_geom_bond_atom_site_label_2
_geom_bond_site_symmetry_1
_geom_bond_site_symmetry_2
N1 C1 1_555 1_555
C1 H1 1_555 1_555
C2 C1 1_555 1_555
H2 C2 1_555 1_555
C3 C2 1_555 1_555
C4 C3 1_555 1_555
H3 C4 1_555 1_555
C5 N1 1_555 1_555
H4 C5 1_555 1_555
C6 C3 1_555 1_555
N2 C6 1_555 1_555
H5 N2 1_555 1_555
O1 C6 1_555 1_555
N3 C7 1_555 1_555
C7 N2 1_555 1_555
C8 C7 1_555 1_555
H6 C8 1_555 1_555
C9 C8 1_555 1_555
H7 C9 1_555 1_555
C10 C9 1_555 1_555
H8 C10 1_555 1_555
C11 N3 1_555 1_555
H9 C11 1_555 1_555
N4 C12 1_555 1_555
C12 H10 1_555 1_555
C13 C12 1_555 1_555
H11 C13 1_555 1_555
C14 C13 1_555 1_555
C15 C14 1_555 1_555
H12 C15 1_555 1_555
C16 N4 1_555 1_555
H13 C16 1_555 1_555
C17 C14 1_555 1_555
N5 C17 1_555 1_555
H14 N5 1_555 1_555
O2 C17 1_555 1_555
N6 C18 1_555 1_555
C18 N5 1_555 1_555
C19 C18 1_555 1_555
H15 C19 1_555 1_555
C20 C19 1_555 1_555
H16 C20 1_555 1_555
C21 C20 1_555 1_555
H17 C21 1_555 1_555
C22 N6 1_555 1_555
H18 C22 1_555 1_555
C23 O3 1_555 1_555
O3 H19 1_555 1_555
O4 C23 1_555 1_555
C24 C23 1_555 1_555
H20 C24 1_555 1_555
H21 C24 1_555 1_555
C25 C24 1_555 1_555
H22 C25 1_555 1_555
H23 C25 1_555 1_555
C26 C25 1_555 1_555
O5 C26 1_555 1_555
H24 O5 1_555 1_555
O6 C26 1_555 1_555
C27 O7 1_555 1_555
O7 H25 1_555 1_555
O8 C27 1_555 1_555
C28 C27 1_555 1_555
H26 C28 1_555 1_555
H27 C28 1_555 1_555
C29 C28 1_555 1_555
H28 C29 1_555 1_555
H29 C29 1_555 1_555
C30 C29 1_555 1_555
O9 C30 1_555 1_555
H30 O9 1_555 1_555
O10 C30 1_555 1_555
N7 C31 1_555 1_555
C31 H31 1_555 1_555
C32 C31 1_555 1_555
H32 C32 1_555 1_555
C33 C32 1_555 1_555
C34 C33 1_555 1_555
H33 C34 1_555 1_555
C35 N7 1_555 1_555
H34 C35 1_555 1_555
C36 C33 1_555 1_555
N8 C36 1_555 1_555
H35 N8 1_555 1_555
O11 C36 1_555 1_555
N9 C37 1_555 1_555
C37 N8 1_555 1_555
C38 C37 1_555 1_555
H36 C38 1_555 1_555
C39 C38 1_555 1_555
H37 C39 1_555 1_555
C40 C39 1_555 1_555
H38 C40 1_555 1_555
C41 N9 1_555 1_555
H39 C41 1_555 1_555
N10 C42 1_555 1_555
C42 H40 1_555 1_555
C43 C42 1_555 1_555
H41 C43 1_555 1_555
C44 C43 1_555 1_555
C45 C44 1_555 1_555
H42 C45 1_555 1_555
C46 N10 1_555 1_555
H43 C46 1_555 1_555
C47 C44 1_555 1_555
N11 C47 1_555 1_555
H44 N11 1_555 1_555
O12 C47 1_555 1_555
N12 C48 1_555 1_555
C48 N11 1_555 1_555
C49 C48 1_555 1_555
H45 C49 1_555 1_555
C50 C49 1_555 1_555
H46 C50 1_555 1_555
C51 C50 1_555 1_555
H47 C51 1_555 1_555
C52 N12 1_555 1_555
H48 C52 1_555 1_555
C53 O13 1_555 1_555
O13 H49 1_555 1_555
O14 C53 1_555 1_555
C54 C53 1_555 1_555
H50 C54 1_555 1_555
H51 C54 1_555 1_555
C55 C54 1_555 1_555
H52 C55 1_555 1_555
H53 C55 1_555 1_555
C56 C55 1_555 1_555
O15 C56 1_555 1_555
H54 O15 1_555 1_555
O16 C56 1_555 1_555
C57 O17 1_555 1_555
O17 H55 1_555 1_555
O18 C57 1_555 1_555
C58 C57 1_555 1_555
H56 C58 1_555 1_555
H57 C58 1_555 1_555
C59 C58 1_555 1_555
H58 C59 1_555 1_555
H59 C59 1_555 1_555
C60 C59 1_555 1_555
O19 C60 1_555 1_555
H60 O19 1_555 1_555
O20 C60 1_555 1_555
N13 C61 1_555 1_555
C61 H61 1_555 1_555
C62 C61 1_555 1_555
H62 C62 1_555 1_555
C63 C62 1_555 1_555
C64 C63 1_555 1_555
H63 C64 1_555 1_555
C65 N13 1_555 1_555
H64 C65 1_555 1_555
C66 C63 1_555 1_555
N14 C66 1_555 1_555
H65 N14 1_555 1_555
O21 C66 1_555 1_555
N15 C67 1_555 1_555
C67 N14 1_555 1_555
C68 C67 1_555 1_555
H66 C68 1_555 1_555
C69 C68 1_555 1_555
H67 C69 1_555 1_555
C70 C69 1_555 1_555
H68 C70 1_555 1_555
C71 N15 1_555 1_555
H69 C71 1_555 1_555
N16 C72 1_555 1_555
C72 H70 1_555 1_555
C73 C72 1_555 1_555
H71 C73 1_555 1_555
C74 C73 1_555 1_555
C75 C74 1_555 1_555
H72 C75 1_555 1_555
C76 N16 1_555 1_555
H73 C76 1_555 1_555
C77 C74 1_555 1_555
N17 C77 1_555 1_555
H74 N17 1_555 1_555
O22 C77 1_555 1_555
N18 C78 1_555 1_555
C78 N17 1_555 1_555
C79 C78 1_555 1_555
H75 C79 1_555 1_555
C80 C79 1_555 1_555
H76 C80 1_555 1_555
C81 C80 1_555 1_555
H77 C81 1_555 1_555
C82 N18 1_555 1_555
H78 C82 1_555 1_555
C83 O23 1_555 1_555
O23 H79 1_555 1_555
O24 C83 1_555 1_555
C84 C83 1_555 1_555
H80 C84 1_555 1_555
H81 C84 1_555 1_555
C85 C84 1_555 1_555
H82 C85 1_555 1_555
H83 C85 1_555 1_555
C86 C85 1_555 1_555
O25 C86 1_555 1_555
H84 O25 1_555 1_555
O26 C86 1_555 1_555
C87 O27 1_555 1_555
O27 H85 1_555 1_555
O28 C87 1_555 1_555
C88 C87 1_555 1_555
H86 C88 1_555 1_555
H87 C88 1_555 1_555
C89 C88 1_555 1_555
H88 C89 1_555 1_555
H89 C89 1_555 1_555
C90 C89 1_555 1_555
O29 C90 1_555 1_555
H90 O29 1_555 1_555
O30 C90 1_555 1_555
C4 C5 1_555 1_555
C10 C11 1_555 1_555
C15 C16 1_555 1_555
C21 C22 1_555 1_555
C34 C35 1_555 1_555
C40 C41 1_555 1_555
C45 C46 1_555 1_555
C51 C52 1_555 1_555
C64 C65 1_555 1_555
C70 C71 1_555 1_555
C75 C76 1_555 1_555
C81 C82 1_555 1_555

#END
