
#######################################################################
#
#                 Cambridge Crystallographic Data Centre
#                                CCDC 
#
#######################################################################
#
# If this CIF has been generated from an entry in the Cambridge 
# Structural Database, then it will include bibliographic, chemical, 
# crystal, experimental, refinement or atomic coordinate data resulting 
# from the CCDC's data processing and validation procedures.
#
#######################################################################

data_KAYGEY
_chemical_formula_moiety         'C11 H9 N3 O1,C6 H10 O4'
_chemical_name_systematic        'Adipic acid N-(pyridin-2-yl)isonicotinamide'
_symmetry_cell_setting           monoclinic
_symmetry_space_group_name_H-M   'P 21/c'
_symmetry_Int_Tables_number      14
_space_group_name_Hall           '-P 2ybc'
loop_
_symmetry_equiv_pos_site_id
_symmetry_equiv_pos_as_xyz
1 x,y,z
2 -x,1/2+y,1/2-z
3 -x,-y,-z
4 x,1/2-y,1/2+z
_cell_length_a                   11.9508(11)
_cell_length_b                   19.8752(19)
_cell_length_c                   7.3996(8)
_cell_angle_alpha                90
_cell_angle_beta                 105.384(4)
_cell_angle_gamma                90
_cell_volume                     1694.61
_exptl_crystal_colour            colorless
_exptl_crystal_description       prism
_cell_formula_units_Z            4
loop_
_atom_site_label
_atom_site_type_symbol
_atom_site_fract_x
_atom_site_fract_y
_atom_site_fract_z
N1 N -0.04059(10) 0.15810(6) 0.33708(19)
C1 C 0.04835(12) 0.11715(7) 0.4082(2)
H1 H 0.0340 0.0770 0.4624
C2 C 0.16044(11) 0.13143(6) 0.4054(2)
H2 H 0.2199 0.1010 0.4539
C3 C 0.18368(10) 0.19191(6) 0.32910(18)
C4 C 0.09192(10) 0.23529(7) 0.2565(2)
H3 H 0.1040 0.2765 0.2051
C5 C -0.01830(11) 0.21568(7) 0.2624(2)
H4 H -0.0800 0.2444 0.2112
C6 C 0.30600(10) 0.20425(6) 0.3213(2)
N2 N 0.33958(8) 0.26988(5) 0.31919(17)
H5 H 0.2953(15) 0.3012(8) 0.340(2)
O1 O 0.36896(9) 0.15695(5) 0.3173(2)
N3 N 0.47138(9) 0.35646(5) 0.36831(16)
C7 C 0.45121(10) 0.29191(6) 0.31947(17)
C8 C 0.53435(11) 0.25153(6) 0.2731(2)
H6 H 0.5186 0.2068 0.2383
C9 C 0.64096(12) 0.27960(7) 0.2800(2)
H7 H 0.6980 0.2537 0.2491
C10 C 0.66310(12) 0.34557(7) 0.3324(2)
H8 H 0.7349 0.3649 0.3388
C11 C 0.57584(11) 0.38219(7) 0.3753(2)
H9 H 0.5902 0.4269 0.4107
C12 C -0.27977(10) 0.06908(6) 0.4116(2)
O2 O -0.26062(9) 0.12431(6) 0.3263(2)
H10 H -0.178(2) 0.1311(12) 0.338(3)
O3 O -0.20333(9) 0.03183(6) 0.4881(2)
C13 C -0.40592(10) 0.05981(7) 0.3968(2)
H11 H -0.4468 0.0552 0.2654
H12 H -0.4345 0.1003 0.4428
C14 C -0.43605(10) 0.00018(6) 0.5018(2)
H13 H -0.3894 0.0016 0.6308
H14 H -0.4176 -0.0410 0.4458
C12B C -0.72023(10) -0.06908(6) 0.5884(2)
O2B O -0.73938(9) -0.12431(6) 0.6737(2)
H10B H -0.822(2) -0.1311(12) 0.662(3)
O3B O -0.79667(9) -0.03183(6) 0.5119(2)
C13B C -0.59408(10) -0.05981(7) 0.6032(2)
H11B H -0.5532 -0.0552 0.7346
H12B H -0.5655 -0.1003 0.5572
C14B C -0.56395(10) -0.00018(6) 0.4982(2)
H13B H -0.6106 -0.0016 0.3692
H14B H -0.5824 0.0410 0.5542
C15 C 0.23055(10) 0.43457(6) 0.4408(2)
O4 O 0.33877(8) 0.45283(5) 0.45730(17)
H15 H 0.3800(18) 0.4163(10) 0.425(3)
O5 O 0.19348(8) 0.37949(5) 0.38523(18)
C16 C 0.16005(11) 0.48835(7) 0.4999(2)
H16 H 0.1697 0.5298 0.4367
H17 H 0.1906 0.4958 0.6335
C17 C 0.03192(11) 0.47325(6) 0.4598(2)
H18 H 0.0215 0.4299 0.5133
H19 H -0.0012 0.4705 0.3253
C15B C -0.23055(10) 0.56543(6) 0.5592(2)
O4B O -0.33877(8) 0.54717(5) 0.54270(17)
H15B H -0.3800(18) 0.5837(10) 0.575(3)
O5B O -0.19348(8) 0.62051(5) 0.61477(18)
C16B C -0.16005(11) 0.51165(7) 0.5001(2)
H16B H -0.1697 0.4702 0.5633
H17B H -0.1906 0.5042 0.3665
C17B C -0.03192(11) 0.52675(6) 0.5402(2)
H18B H -0.0215 0.5701 0.4867
H19B H 0.0012 0.5295 0.6747
loop_
_geom_bond_atom_site_label_1
_geom_bond_atom_site_label_2
_geom_bond_site_symmetry_1
_geom_bond_site_symmetry_2
N1 C1 1_555 1_555
C1 H1 1_555 1_555
C2 C1 1_555 1_555
H2 C2 1_555 1_555
C3 C2 1_555 1_555
C4 C3 1_555 1_555
H3 C4 1_555 1_555
C5 N1 1_555 1_555
H4 C5 1_555 1_555
C6 C3 1_555 1_555
N2 C6 1_555 1_555
H5 N2 1_555 1_555
O1 C6 1_555 1_555
N3 C7 1_555 1_555
C7 N2 1_555 1_555
C8 C7 1_555 1_555
H6 C8 1_555 1_555
C9 C8 1_555 1_555
H7 C9 1_555 1_555
C10 C9 1_555 1_555
H8 C10 1_555 1_555
C11 N3 1_555 1_555
H9 C11 1_555 1_555
C12 O2 1_555 1_555
O2 H10 1_555 1_555
O3 C12 1_555 1_555
C13 C12 1_555 1_555
H11 C13 1_555 1_555
H12 C13 1_555 1_555
C14 C13 1_555 1_555
H13 C14 1_555 1_555
H14 C14 1_555 1_555
C15 O4 1_555 1_555
O4 H15 1_555 1_555
O5 C15 1_555 1_555
C16 C15 1_555 1_555
H16 C16 1_555 1_555
H17 C16 1_555 1_555
C17 C16 1_555 1_555
H18 C17 1_555 1_555
H19 C17 1_555 1_555
C12B O2B 1_555 1_555
O2B H10B 1_555 1_555
O3B C12B 1_555 1_555
C13B C12B 1_555 1_555
H11B C13B 1_555 1_555
H12B C13B 1_555 1_555
C14B C14 1_555 1_555
H13B C14B 1_555 1_555
H14B C14B 1_555 1_555
C15B O4B 1_555 1_555
O4B H15B 1_555 1_555
O5B C15B 1_555 1_555
C16B C15B 1_555 1_555
H16B C16B 1_555 1_555
H17B C16B 1_555 1_555
C17B C17 1_555 1_555
H18B C17B 1_555 1_555
H19B C17B 1_555 1_555
C4 C5 1_555 1_555
C10 C11 1_555 1_555
C13B C14B 1_555 1_555
C16B C17B 1_555 1_555

#END
