
#######################################################################
#
#                 Cambridge Crystallographic Data Centre
#                                CCDC 
#
#######################################################################
#
# If this CIF has been generated from an entry in the Cambridge 
# Structural Database, then it will include bibliographic, chemical, 
# crystal, experimental, refinement or atomic coordinate data resulting 
# from the CCDC's data processing and validation procedures.
#
#######################################################################

data_KAYGAU
_chemical_formula_moiety         'C10 H18 O4,C11 H9 N3 O1'
_chemical_name_systematic        'Sebacic acid N-(pyridin-2-yl)isonicotinamide'
_symmetry_cell_setting           monoclinic
_symmetry_space_group_name_H-M   'P 21/n'
_symmetry_Int_Tables_number      14
_space_group_name_Hall           '-P 2yn'
loop_
_symmetry_equiv_pos_site_id
_symmetry_equiv_pos_as_xyz
1 x,y,z
2 1/2-x,1/2+y,1/2-z
3 -x,-y,-z
4 1/2+x,1/2-y,1/2+z
_cell_length_a                   11.0319(11)
_cell_length_b                   9.9500(9)
_cell_length_c                   18.7354(18)
_cell_angle_alpha                90
_cell_angle_beta                 90.323(4)
_cell_angle_gamma                90
_cell_volume                     2056.5
_exptl_crystal_colour            colorless
_exptl_crystal_description       prism
_cell_formula_units_Z            4
loop_
_atom_site_label
_atom_site_type_symbol
_atom_site_fract_x
_atom_site_fract_y
_atom_site_fract_z
N1 N 0.44079(9) 0.23756(9) 0.39192(5)
C1 C 0.42945(10) 0.17666(11) 0.32876(6)
H1 H 0.4110 0.0834 0.3280
C2 C 0.44316(10) 0.24253(10) 0.26480(6)
H2 H 0.4375 0.1950 0.2209
C3 C 0.46535(10) 0.37953(10) 0.26551(5)
C4 C 0.48014(10) 0.44296(10) 0.33064(6)
H3 H 0.4985 0.5361 0.3330
C5 C 0.46765(10) 0.36798(11) 0.39229(6)
H4 H 0.4787 0.4115 0.4370
C6 C 0.47018(10) 0.45141(10) 0.19532(6)
N2 N 0.41982(9) 0.57572(9) 0.19637(5)
H5 H 0.3855(12) 0.6011(13) 0.2349(7)
O1 O 0.51341(9) 0.39873(8) 0.14280(4)
N3 N 0.36617(8) 0.78604(9) 0.15957(5)
C7 C 0.40560(9) 0.66486(10) 0.13921(5)
C8 C 0.42674(10) 0.63309(11) 0.06840(6)
H6 H 0.4557 0.5467 0.0553
C9 C 0.40467(11) 0.73023(12) 0.01739(6)
H7 H 0.4183 0.7113 -0.0316
C10 C 0.36271(11) 0.85520(12) 0.03786(6)
H8 H 0.3465 0.9230 0.0034
C11 C 0.34503(11) 0.87880(11) 0.10928(6)
H9 H 0.3166 0.9647 0.1236
C12 C 0.38103(10) 0.19488(11) 0.56882(6)
O2 O 0.38214(9) 0.11341(8) 0.51321(4)
H10 H 0.4066(13) 0.1644(15) 0.4697(8)
O3 O 0.41119(9) 0.31106(9) 0.56558(5)
C13 C 0.34224(11) 0.12500(11) 0.63570(6)
H11 H 0.4052 0.0587 0.6492
H12 H 0.2665 0.0749 0.6257
C14 C 0.32110(12) 0.21748(12) 0.69805(6)
H13 H 0.2458 0.2692 0.6893
H14 H 0.3889 0.2824 0.7010
C15 C 0.31042(11) 0.14580(12) 0.76883(6)
H15 H 0.3879 0.0998 0.7799
H16 H 0.2462 0.0765 0.7653
C16 C 0.28029(11) 0.24224(11) 0.82896(6)
H17 H 0.3380 0.3184 0.8273
H18 H 0.1981 0.2790 0.8204
C17 C 0.28423(11) 0.18194(12) 0.90320(6)
H19 H 0.3671 0.1485 0.9133
H20 H 0.2280 0.1045 0.9053
C18 C 0.24923(10) 0.28362(11) 0.95967(6)
H21 H 0.1685 0.3208 0.9475
H22 H 0.3081 0.3587 0.9587
C19 C 0.24506(11) 0.22688(11) 1.03471(6)
H23 H 0.1874 0.1507 1.0360
H24 H 0.3263 0.1924 1.0480
C20 C 0.20649(11) 0.33207(11) 1.08812(5)
H25 H 0.2679 0.4046 1.0891
H26 H 0.1289 0.3721 1.0719
C21 C 0.19076(10) 0.27958(10) 1.16209(6)
O4 O 0.20492(7) 0.16271(7) 1.17873(4)
O5 O 0.16022(8) 0.37275(8) 1.20867(4)
H27 H 0.1532(13) 0.3318(14) 1.2580(8)
loop_
_geom_bond_atom_site_label_1
_geom_bond_atom_site_label_2
_geom_bond_site_symmetry_1
_geom_bond_site_symmetry_2
N1 C1 1_555 1_555
C1 H1 1_555 1_555
C2 C1 1_555 1_555
H2 C2 1_555 1_555
C3 C2 1_555 1_555
C4 C3 1_555 1_555
H3 C4 1_555 1_555
C5 N1 1_555 1_555
H4 C5 1_555 1_555
C6 C3 1_555 1_555
N2 C6 1_555 1_555
H5 N2 1_555 1_555
O1 C6 1_555 1_555
N3 C7 1_555 1_555
C7 N2 1_555 1_555
C8 C7 1_555 1_555
H6 C8 1_555 1_555
C9 C8 1_555 1_555
H7 C9 1_555 1_555
C10 C9 1_555 1_555
H8 C10 1_555 1_555
C11 N3 1_555 1_555
H9 C11 1_555 1_555
C12 O2 1_555 1_555
O2 H10 1_555 1_555
O3 C12 1_555 1_555
C13 C12 1_555 1_555
H11 C13 1_555 1_555
H12 C13 1_555 1_555
C14 C13 1_555 1_555
H13 C14 1_555 1_555
H14 C14 1_555 1_555
C15 C14 1_555 1_555
H15 C15 1_555 1_555
H16 C15 1_555 1_555
C16 C15 1_555 1_555
H17 C16 1_555 1_555
H18 C16 1_555 1_555
C17 C16 1_555 1_555
H19 C17 1_555 1_555
H20 C17 1_555 1_555
C18 C17 1_555 1_555
H21 C18 1_555 1_555
H22 C18 1_555 1_555
C19 C18 1_555 1_555
H23 C19 1_555 1_555
H24 C19 1_555 1_555
C20 C19 1_555 1_555
H25 C20 1_555 1_555
H26 C20 1_555 1_555
C21 C20 1_555 1_555
O4 C21 1_555 1_555
O5 C21 1_555 1_555
H27 O5 1_555 1_555
C4 C5 1_555 1_555
C10 C11 1_555 1_555

#END
