
#######################################################################
#
#                 Cambridge Crystallographic Data Centre
#                                CCDC 
#
#######################################################################
#
# If this CIF has been generated from an entry in the Cambridge 
# Structural Database, then it will include bibliographic, chemical, 
# crystal, experimental, refinement or atomic coordinate data resulting 
# from the CCDC's data processing and validation procedures.
#
#######################################################################

data_KAYHAV
_chemical_formula_moiety         'C11 H9 N3 O1,C6 H10 O4'
_chemical_name_systematic        'Adipic acid N-(pyridin-2-yl)nicotinamide'
_symmetry_cell_setting           triclinic
_symmetry_space_group_name_H-M   'P -1'
_symmetry_Int_Tables_number      2
_space_group_name_Hall           '-P 1'
loop_
_symmetry_equiv_pos_site_id
_symmetry_equiv_pos_as_xyz
1 x,y,z
2 -x,-y,-z
_cell_length_a                   8.9361(8)
_cell_length_b                   9.8031(9)
_cell_length_c                   9.8270(9)
_cell_angle_alpha                83.130(2)
_cell_angle_beta                 74.507(3)
_cell_angle_gamma                79.462(2)
_cell_volume                     813.309
_exptl_crystal_colour            yellow
_exptl_crystal_description       plate
_cell_formula_units_Z            2
loop_
_atom_site_label
_atom_site_type_symbol
_atom_site_fract_x
_atom_site_fract_y
_atom_site_fract_z
N1 N 0.61526(11) 0.30017(9) 0.47255(9)
C1 C 0.68146(12) 0.37972(10) 0.53399(10)
H1 H 0.6839 0.4741 0.4988
C2 C 0.74677(11) 0.32933(9) 0.64740(10)
C3 C 0.73984(12) 0.19171(10) 0.69987(11)
H2 H 0.7825 0.1546 0.7778
C4 C 0.67027(13) 0.10928(10) 0.63767(11)
H3 H 0.6634 0.0153 0.6723
C5 C 0.61080(12) 0.16779(10) 0.52336(11)
H4 H 0.5648 0.1112 0.4792
C6 C 0.82161(11) 0.41326(10) 0.72052(10)
N2 N 0.85779(10) 0.53770(8) 0.65495(9)
H5 H 0.8305(16) 0.5686(14) 0.5709(15)
O1 O 0.84790(10) 0.36713(8) 0.83462(8)
N3 N 0.92911(10) 0.75439(8) 0.63183(9)
C7 C 0.92996(11) 0.62992(9) 0.70495(10)
C8 C 1.00036(12) 0.59623(10) 0.81822(10)
H6 H 1.0001 0.5072 0.8684
C9 C 1.07039(12) 0.69596(11) 0.85537(11)
H7 H 1.1191 0.6759 0.9319
C10 C 1.06939(13) 0.82497(11) 0.78098(11)
H8 H 1.1166 0.8948 0.8053
C11 C 0.99783(12) 0.84896(10) 0.67050(11)
H9 H 0.9971 0.9373 0.6189
C12 C 0.49327(12) 0.27809(10) 0.17791(11)
O2 O 0.52636(10) 0.38309(7) 0.23174(8)
H10 H 0.5484(18) 0.3513(16) 0.3161(17)
O3 O 0.50276(12) 0.16051(8) 0.23246(10)
C13 C 0.44493(12) 0.32199(10) 0.04203(10)
H11 H 0.5380 0.3450 -0.0322
H12 H 0.3663 0.4079 0.0556
C14 C 0.37587(12) 0.21417(9) -0.01044(11)
H13 H 0.2880 0.1841 0.0656
H14 H 0.4572 0.1316 -0.0353
C15 C 0.31648(12) 0.27478(9) -0.13969(10)
H15 H 0.2361 0.3578 -0.1140
H16 H 0.4049 0.3054 -0.2146
C16 C 0.24557(12) 0.17225(10) -0.19820(11)
H17 H 0.3220 0.0853 -0.2148
H18 H 0.1503 0.1491 -0.1270
C17 C 0.20238(12) 0.22817(10) -0.33402(11)
O4 O 0.20732(10) 0.34712(7) -0.38407(8)
O5 O 0.15729(11) 0.13627(8) -0.39600(9)
H19 H 0.1344(19) 0.1847(16) -0.4819(18)
loop_
_geom_bond_atom_site_label_1
_geom_bond_atom_site_label_2
_geom_bond_site_symmetry_1
_geom_bond_site_symmetry_2
N1 C1 1_555 1_555
C1 H1 1_555 1_555
C2 C1 1_555 1_555
C3 C2 1_555 1_555
H2 C3 1_555 1_555
C4 C3 1_555 1_555
H3 C4 1_555 1_555
C5 N1 1_555 1_555
H4 C5 1_555 1_555
C6 C2 1_555 1_555
N2 C6 1_555 1_555
H5 N2 1_555 1_555
O1 C6 1_555 1_555
N3 C7 1_555 1_555
C7 N2 1_555 1_555
C8 C7 1_555 1_555
H6 C8 1_555 1_555
C9 C8 1_555 1_555
H7 C9 1_555 1_555
C10 C9 1_555 1_555
H8 C10 1_555 1_555
C11 N3 1_555 1_555
H9 C11 1_555 1_555
C12 O2 1_555 1_555
O2 H10 1_555 1_555
O3 C12 1_555 1_555
C13 C12 1_555 1_555
H11 C13 1_555 1_555
H12 C13 1_555 1_555
C14 C13 1_555 1_555
H13 C14 1_555 1_555
H14 C14 1_555 1_555
C15 C14 1_555 1_555
H15 C15 1_555 1_555
H16 C15 1_555 1_555
C16 C15 1_555 1_555
H17 C16 1_555 1_555
H18 C16 1_555 1_555
C17 C16 1_555 1_555
O4 C17 1_555 1_555
O5 C17 1_555 1_555
H19 O5 1_555 1_555
C4 C5 1_555 1_555
C10 C11 1_555 1_555

#END
