
#######################################################################
#
#                 Cambridge Crystallographic Data Centre
#                                CCDC 
#
#######################################################################
#
# If this CIF has been generated from an entry in the Cambridge 
# Structural Database, then it will include bibliographic, chemical, 
# crystal, experimental, refinement or atomic coordinate data resulting 
# from the CCDC's data processing and validation procedures.
#
#######################################################################

data_KAYHUP
_chemical_formula_moiety         'C11 H9 N3 O1,C7 H12 O4'
_chemical_name_systematic        'Pimelic acid N-(pyridin-2-yl)nicotinamide'
_symmetry_cell_setting           triclinic
_symmetry_space_group_name_H-M   'P -1'
_symmetry_Int_Tables_number      2
_space_group_name_Hall           '-P 1'
loop_
_symmetry_equiv_pos_site_id
_symmetry_equiv_pos_as_xyz
1 x,y,z
2 -x,-y,-z
_cell_length_a                   7.5711(5)
_cell_length_b                   11.9820(8)
_cell_length_c                   20.1758(13)
_cell_angle_alpha                82.560(4)
_cell_angle_beta                 80.081(4)
_cell_angle_gamma                85.195(4)
_cell_volume                     1784.21
_exptl_crystal_colour            colorless
_exptl_crystal_description       prism
_cell_formula_units_Z            4
loop_
_atom_site_label
_atom_site_type_symbol
_atom_site_fract_x
_atom_site_fract_y
_atom_site_fract_z
N1 N 1.23365(19) -0.11226(15) 0.12336(8)
C1 C 1.3958(2) -0.07207(17) 0.10367(9)
H1 H 1.4697 -0.0984 0.0651
C2 C 1.4631(2) 0.00648(16) 0.13659(8)
C3 C 1.3536(2) 0.04398(17) 0.19317(8)
H2 H 1.3942 0.0967 0.2176
C4 C 1.1841(2) 0.00320(17) 0.21333(9)
H3 H 1.1069 0.0284 0.2515
C5 C 1.1286(2) -0.07408(17) 0.17765(9)
H4 H 1.0123 -0.1014 0.1918
C6 C 1.6518(2) 0.03896(17) 0.10936(8)
N2 N 1.70851(19) 0.12651(14) 0.13616(7)
H5 H 1.629(3) 0.1645(18) 0.1649(9)
O1 O 1.74573(17) -0.01265(12) 0.06636(7)
N3 N 1.90524(19) 0.24502(14) 0.16057(7)
C7 C 1.8785(2) 0.17087(16) 0.11940(8)
C8 C 2.0096(2) 0.14269(17) 0.06520(8)
H6 H 1.9877 0.0906 0.0363
C9 C 2.1714(2) 0.19259(18) 0.05483(9)
H7 H 2.2626 0.1747 0.0184
C10 C 2.2017(2) 0.26912(18) 0.09757(9)
H8 H 2.3125 0.3039 0.0913
C11 C 2.0645(2) 0.29223(17) 0.14927(9)
H9 H 2.0833 0.3445 0.1786
C12 C 1.5268(2) 0.31789(17) 0.26921(9)
O2 O 1.70035(16) 0.33316(13) 0.26471(6)
H10 H 1.772(3) 0.2944(19) 0.2243(10)
O3 O 1.46928(17) 0.26928(13) 0.22894(6)
C13 C 1.4108(2) 0.36780(19) 0.32793(9)
H11 H 1.4027 0.4509 0.3176
H12 H 1.4693 0.3489 0.3686
C14 C 1.2213(2) 0.32642(19) 0.34405(9)
H13 H 1.2279 0.2430 0.3511
H14 H 1.1574 0.3514 0.3053
C15 C 1.1169(2) 0.37244(18) 0.40765(8)
H15 H 1.1859 0.3506 0.4453
H16 H 1.1084 0.4558 0.3994
C16 C 0.9276(2) 0.33180(18) 0.42982(9)
H17 H 0.9341 0.2496 0.4444
H18 H 0.8601 0.3462 0.3914
C17 C 0.8312(2) 0.39448(18) 0.48849(8)
H19 H 0.9072 0.3846 0.5244
H20 H 0.8224 0.4759 0.4721
C18 C 0.6466(2) 0.36002(18) 0.51992(8)
O4 O 0.58744(18) 0.40994(13) 0.57558(6)
H21 H 0.471(3) 0.396(2) 0.5914(10)
O5 O 0.55928(18) 0.29686(14) 0.49859(7)
N4 N 0.2517(2) 0.36676(15) 0.63369(7)
C19 C 0.1699(2) 0.28593(18) 0.61376(9)
H22 H 0.2316 0.2472 0.5775
C20 C -0.0027(2) 0.25520(17) 0.64370(9)
C21 C -0.0898(2) 0.31182(18) 0.69725(9)
H23 H -0.2070 0.2935 0.7191
C22 C -0.0039(2) 0.39518(19) 0.71834(9)
H24 H -0.0607 0.4342 0.7552
C23 C 0.1659(2) 0.42096(18) 0.68502(9)
H25 H 0.2234 0.4792 0.6991
C24 C -0.0766(2) 0.16303(18) 0.61485(9)
N5 N -0.2536(2) 0.14351(15) 0.63687(7)
H26 H -0.315(3) 0.1848(19) 0.6678(10)
O6 O 0.02157(18) 0.10979(15) 0.57330(8)
N6 N -0.5151(2) 0.05131(15) 0.65546(7)
C25 C -0.3495(2) 0.06078(17) 0.61849(8)
C26 C -0.2846(3) -0.00725(18) 0.56753(9)
H27 H -0.1677 0.0003 0.5419
C27 C -0.3945(3) -0.08593(19) 0.55507(9)
H28 H -0.3532 -0.1327 0.5202
C28 C -0.5643(3) -0.09719(19) 0.59293(10)
H29 H -0.6404 -0.1518 0.5854
C29 C -0.6185(3) -0.02580(19) 0.64211(10)
H30 H -0.7355 -0.0316 0.6679
C30 C -0.6203(2) 0.23008(17) 0.77645(8)
O7 O -0.70143(17) 0.14649(12) 0.76017(6)
H31 H -0.635(3) 0.1164(19) 0.7257(10)
O8 O -0.47924(17) 0.26192(14) 0.74332(7)
C31 C -0.7156(2) 0.28159(17) 0.83767(8)
H32 H -0.7204 0.2237 0.8776
H33 H -0.8407 0.3048 0.8313
C32 C -0.6274(2) 0.38335(17) 0.85220(8)
H34 H -0.5070 0.3593 0.8638
H35 H -0.6117 0.4389 0.8111
C33 C -0.7406(2) 0.43818(17) 0.91022(9)
H36 H -0.7627 0.3801 0.9498
H37 H -0.8585 0.4644 0.8970
C34 C -0.6610(2) 0.53716(17) 0.93201(8)
H38 H -0.6444 0.5982 0.8938
H39 H -0.5419 0.5130 0.9448
C35 C -0.7858(2) 0.58080(17) 0.99220(8)
H40 H -0.9044 0.6026 0.9785
H41 H -0.8027 0.5177 1.0291
C36 C -0.7270(2) 0.67881(17) 1.02031(8)
O9 O -0.84522(17) 0.70800(13) 1.07324(6)
H42 H -0.818(3) 0.781(2) 1.0893(10)
O10 O -0.59088(16) 0.72731(12) 0.99828(6)
loop_
_geom_bond_atom_site_label_1
_geom_bond_atom_site_label_2
_geom_bond_site_symmetry_1
_geom_bond_site_symmetry_2
N1 C1 1_555 1_555
C1 H1 1_555 1_555
C2 C1 1_555 1_555
C3 C2 1_555 1_555
H2 C3 1_555 1_555
C4 C3 1_555 1_555
H3 C4 1_555 1_555
C5 N1 1_555 1_555
H4 C5 1_555 1_555
C6 C2 1_555 1_555
N2 C6 1_555 1_555
H5 N2 1_555 1_555
O1 C6 1_555 1_555
N3 C7 1_555 1_555
C7 N2 1_555 1_555
C8 C7 1_555 1_555
H6 C8 1_555 1_555
C9 C8 1_555 1_555
H7 C9 1_555 1_555
C10 C9 1_555 1_555
H8 C10 1_555 1_555
C11 N3 1_555 1_555
H9 C11 1_555 1_555
C12 O2 1_555 1_555
O2 H10 1_555 1_555
O3 C12 1_555 1_555
C13 C12 1_555 1_555
H11 C13 1_555 1_555
H12 C13 1_555 1_555
C14 C13 1_555 1_555
H13 C14 1_555 1_555
H14 C14 1_555 1_555
C15 C14 1_555 1_555
H15 C15 1_555 1_555
H16 C15 1_555 1_555
C16 C15 1_555 1_555
H17 C16 1_555 1_555
H18 C16 1_555 1_555
C17 C16 1_555 1_555
H19 C17 1_555 1_555
H20 C17 1_555 1_555
C18 C17 1_555 1_555
O4 C18 1_555 1_555
H21 O4 1_555 1_555
O5 C18 1_555 1_555
N4 C19 1_555 1_555
C19 H22 1_555 1_555
C20 C19 1_555 1_555
C21 C20 1_555 1_555
H23 C21 1_555 1_555
C22 C21 1_555 1_555
H24 C22 1_555 1_555
C23 N4 1_555 1_555
H25 C23 1_555 1_555
C24 C20 1_555 1_555
N5 C24 1_555 1_555
H26 N5 1_555 1_555
O6 C24 1_555 1_555
N6 C25 1_555 1_555
C25 N5 1_555 1_555
C26 C25 1_555 1_555
H27 C26 1_555 1_555
C27 C26 1_555 1_555
H28 C27 1_555 1_555
C28 C27 1_555 1_555
H29 C28 1_555 1_555
C29 N6 1_555 1_555
H30 C29 1_555 1_555
C30 O7 1_555 1_555
O7 H31 1_555 1_555
O8 C30 1_555 1_555
C31 C30 1_555 1_555
H32 C31 1_555 1_555
H33 C31 1_555 1_555
C32 C31 1_555 1_555
H34 C32 1_555 1_555
H35 C32 1_555 1_555
C33 C32 1_555 1_555
H36 C33 1_555 1_555
H37 C33 1_555 1_555
C34 C33 1_555 1_555
H38 C34 1_555 1_555
H39 C34 1_555 1_555
C35 C34 1_555 1_555
H40 C35 1_555 1_555
H41 C35 1_555 1_555
C36 C35 1_555 1_555
O9 C36 1_555 1_555
H42 O9 1_555 1_555
O10 C36 1_555 1_555
C4 C5 1_555 1_555
C10 C11 1_555 1_555
C22 C23 1_555 1_555
C28 C29 1_555 1_555

#END
