
#######################################################################
#
#                 Cambridge Crystallographic Data Centre
#                                CCDC 
#
#######################################################################
#
# If this CIF has been generated from an entry in the Cambridge 
# Structural Database, then it will include bibliographic, chemical, 
# crystal, experimental, refinement or atomic coordinate data resulting 
# from the CCDC's data processing and validation procedures.
#
#######################################################################

data_KAYHOJ
_chemical_formula_moiety         'C11 H9 N3 O1,C4 H6 O4'
_chemical_name_systematic        'N-(Pyridin-2-yl)nicotinamide succinic acid'
_symmetry_cell_setting           triclinic
_symmetry_space_group_name_H-M   'P -1'
_symmetry_Int_Tables_number      2
_space_group_name_Hall           '-P 1'
loop_
_symmetry_equiv_pos_site_id
_symmetry_equiv_pos_as_xyz
1 x,y,z
2 -x,-y,-z
_cell_length_a                   4.8289(5)
_cell_length_b                   11.1223(11)
_cell_length_c                   14.3787(14)
_cell_angle_alpha                67.856(4)
_cell_angle_beta                 89.550(4)
_cell_angle_gamma                87.878(4)
_cell_volume                     714.79
_exptl_crystal_colour            gold
_exptl_crystal_description       plate
_cell_formula_units_Z            2
loop_
_atom_site_label
_atom_site_type_symbol
_atom_site_fract_x
_atom_site_fract_y
_atom_site_fract_z
N1 N 0.6144(3) 0.70875(14) 0.58575(11)
C1 C 0.7323(3) 0.61943(16) 0.66667(13)
H1 H 0.6768 0.5322 0.6868
C2 C 0.9335(3) 0.64759(16) 0.72340(12)
C3 C 1.0103(4) 0.77506(17) 0.69307(13)
H2 H 1.1503 0.7979 0.7288
C4 C 0.8833(4) 0.86908(18) 0.61072(14)
H3 H 0.9295 0.9576 0.5904
C5 C 0.6874(4) 0.83171(17) 0.55833(14)
H4 H 0.6018 0.8959 0.5008
C6 C 1.0716(3) 0.55052(16) 0.81476(13)
N2 N 0.9431(3) 0.43585(14) 0.86071(11)
H5 H 0.803(4) 0.417(2) 0.8339(16)
O1 O 1.2855(3) 0.57698(13) 0.84646(10)
N3 N 0.8881(3) 0.22555(14) 0.96902(11)
C7 C 1.0302(3) 0.33364(16) 0.94831(12)
C8 C 1.2402(3) 0.34130(17) 1.01164(13)
H6 H 1.3379 0.4190 0.9965
C9 C 1.3025(4) 0.23384(17) 1.09650(13)
H7 H 1.4457 0.2366 1.1405
C10 C 1.1574(4) 0.12158(17) 1.11810(13)
H8 H 1.1984 0.0464 1.1764
C11 C 0.9511(3) 0.12294(17) 1.05187(13)
H9 H 0.8488 0.0468 1.0662
C12 C 0.1339(3) 0.73409(16) 0.40809(13)
O2 O 0.2148(3) 0.64008(13) 0.49167(10)
H10 H 0.348(5) 0.671(2) 0.5254(17)
O3 O 0.2339(3) 0.84024(12) 0.37591(10)
C13 C -0.0971(3) 0.69532(16) 0.35687(13)
H11 H -0.0356 0.6175 0.3434
H12 H -0.2581 0.6717 0.4024
C14 C -0.1858(3) 0.80149(16) 0.25975(13)
H13 H -0.0228 0.8281 0.2155
H14 H -0.2561 0.8778 0.2736
C15 C -0.4071(3) 0.76053(16) 0.20607(13)
O4 O -0.4892(3) 0.85143(12) 0.12130(9)
H15 H -0.619(5) 0.816(2) 0.0968(16)
O5 O -0.5014(3) 0.65295(12) 0.23810(10)
loop_
_geom_bond_atom_site_label_1
_geom_bond_atom_site_label_2
_geom_bond_site_symmetry_1
_geom_bond_site_symmetry_2
N1 C1 1_555 1_555
C1 H1 1_555 1_555
C2 C1 1_555 1_555
C3 C2 1_555 1_555
H2 C3 1_555 1_555
C4 C3 1_555 1_555
H3 C4 1_555 1_555
C5 N1 1_555 1_555
H4 C5 1_555 1_555
C6 C2 1_555 1_555
N2 C6 1_555 1_555
H5 N2 1_555 1_555
O1 C6 1_555 1_555
N3 C7 1_555 1_555
C7 N2 1_555 1_555
C8 C7 1_555 1_555
H6 C8 1_555 1_555
C9 C8 1_555 1_555
H7 C9 1_555 1_555
C10 C9 1_555 1_555
H8 C10 1_555 1_555
C11 N3 1_555 1_555
H9 C11 1_555 1_555
C12 O2 1_555 1_555
O2 H10 1_555 1_555
O3 C12 1_555 1_555
C13 C12 1_555 1_555
H11 C13 1_555 1_555
H12 C13 1_555 1_555
C14 C13 1_555 1_555
H13 C14 1_555 1_555
H14 C14 1_555 1_555
C15 C14 1_555 1_555
O4 C15 1_555 1_555
H15 O4 1_555 1_555
O5 C15 1_555 1_555
C4 C5 1_555 1_555
C10 C11 1_555 1_555

#END
