
#######################################################################
#
#                 Cambridge Crystallographic Data Centre
#                                CCDC 
#
#######################################################################
#
# If this CIF has been generated from an entry in the Cambridge 
# Structural Database, then it will include bibliographic, chemical, 
# crystal, experimental, refinement or atomic coordinate data resulting 
# from the CCDC's data processing and validation procedures.
#
#######################################################################

data_KAYLAY
_chemical_formula_moiety         'C16 H9 B1 F15 Li1 N6'
_chemical_name_systematic        
'(Methyl tris(3-(perfluoroethylpyrazolyl))borato)-lithium'
_symmetry_cell_setting           trigonal
_symmetry_space_group_name_H-M   'P -3'
_symmetry_Int_Tables_number      147
_space_group_name_Hall           '-P 3'
loop_
_symmetry_equiv_pos_site_id
_symmetry_equiv_pos_as_xyz
1 x,y,z
2 -y,x-y,z
3 -x+y,-x,z
4 -x,-y,-z
5 y,-x+y,-z
6 x-y,x,-z
_cell_length_a                   11.8515(4)
_cell_length_b                   11.8515(4)
_cell_length_c                   9.4723(4)
_cell_angle_alpha                90
_cell_angle_beta                 90
_cell_angle_gamma                120
_cell_volume                     1152.21
_exptl_crystal_colour            colorless
_exptl_crystal_description       parallelepiped
_chemical_melting_point          '159-160 deg.C'
_cell_formula_units_Z            2
loop_
_atom_site_label
_atom_site_type_symbol
_atom_site_fract_x
_atom_site_fract_y
_atom_site_fract_z
Li1 Li 0.6667 0.3333 0.7267(6)
B1 B 0.6667 0.3333 0.4058(4)
C1 C 0.4100(2) 0.0868(2) 0.6260(2)
C2 C 0.3532(2) 0.0296(2) 0.4978(2)
C3 C 0.44143(19) 0.11232(19) 0.3995(2)
C4 C 0.3610(2) 0.0439(2) 0.7722(2)
C5 C 0.3688(4) 0.1509(3) 0.8682(3)
C6 C 0.6667 0.3333 0.2378(4)
F1 F 0.4308(2) -0.00182(19) 0.84245(17)
F2 F 0.23897(19) -0.05370(18) 0.77081(19)
F3 F 0.4941(2) 0.24314(18) 0.89048(18)
F4 F 0.3087(3) 0.2065(3) 0.8103(2)
F5 F 0.3162(2) 0.10373(17) 0.99300(18)
H1 H 0.279(3) -0.043(3) 0.483(3)
H2 H 0.440(2) 0.110(2) 0.306(3)
H3 H 0.740(3) 0.405(3) 0.200(3)
N1 N 0.54289(16) 0.21122(16) 0.46740(17)
N2 N 0.52427(17) 0.19618(17) 0.60873(18)
C1A C 0.9132(2) 0.3232(3) 0.6260(2)
C1B C 0.6768(3) 0.5900(2) 0.6260(2)
C2A C 0.9704(2) 0.3236(3) 0.4978(2)
C2B C 0.6764(3) 0.6468(2) 0.4978(2)
C3A C 0.88768(19) 0.32911(27) 0.3995(2)
C3B C 0.67089(27) 0.55857(19) 0.3995(2)
C4A C 0.9561(2) 0.3171(3) 0.7722(2)
C4B C 0.6829(3) 0.6390(2) 0.7722(2)
C5A C 0.8491(3) 0.2179(5) 0.8682(3)
C5B C 0.7821(5) 0.6312(4) 0.8682(3)
F1B F 0.56738(28) 0.5692(2) 0.84245(17)
F1A F 1.00182(19) 0.43262(28) 0.84245(17)
F2B F 0.70733(26) 0.76103(19) 0.77081(19)
F2A F 1.05370(18) 0.29267(26) 0.77081(19)
F3A F 0.75686(18) 0.25096(27) 0.89048(18)
F3B F 0.74904(27) 0.5059(2) 0.89048(18)
F4B F 0.8978(4) 0.6913(3) 0.8103(2)
F4A F 0.7935(3) 0.1022(4) 0.8103(2)
F5B F 0.78753(26) 0.6838(2) 0.99300(18)
F5A F 0.89627(17) 0.21247(26) 0.99300(18)
H1B H 0.678(4) 0.721(3) 0.483(3)
H1A H 1.043(3) 0.322(4) 0.483(3)
H2B H 0.670(3) 0.560(2) 0.306(3)
H2A H 0.890(2) 0.330(3) 0.306(3)
H3A H 0.595(3) 0.335(4) 0.200(3)
H3B H 0.665(4) 0.260(3) 0.200(3)
N1A N 0.78878(16) 0.33167(23) 0.46740(17)
N1B N 0.66833(23) 0.45711(16) 0.46740(17)
N2B N 0.67191(24) 0.47573(17) 0.60873(18)
N2A N 0.80382(17) 0.32809(24) 0.60873(18)
loop_
_geom_bond_atom_site_label_1
_geom_bond_atom_site_label_2
_geom_bond_site_symmetry_1
_geom_bond_site_symmetry_2
Li1 F3 1_555 1_555
B1 C6 1_555 1_555
C1 C2 1_555 1_555
C2 C3 1_555 1_555
C3 H2 1_555 1_555
C4 C1 1_555 1_555
C5 C4 1_555 1_555
C6 H3 1_555 1_555
F1 C4 1_555 1_555
F2 C4 1_555 1_555
F3 C5 1_555 1_555
F4 C5 1_555 1_555
F5 C5 1_555 1_555
H1 C2 1_555 1_555
N1 B1 1_555 1_555
N2 Li1 1_555 1_555
C1A C2A 1_555 1_555
C1B C2B 1_555 1_555
C2A C3A 1_555 1_555
C2B C3B 1_555 1_555
C3A H2A 1_555 1_555
C3B H2B 1_555 1_555
C4A C1A 1_555 1_555
C4B C1B 1_555 1_555
C5A C4A 1_555 1_555
C5B C4B 1_555 1_555
F1B C4B 1_555 1_555
F1A C4A 1_555 1_555
F2B C4B 1_555 1_555
F2A C4A 1_555 1_555
F3A Li1 1_555 1_555
F3B Li1 1_555 1_555
F4B C5B 1_555 1_555
F4A C5A 1_555 1_555
F5B C5B 1_555 1_555
F5A C5A 1_555 1_555
H1B C2B 1_555 1_555
H1A C2A 1_555 1_555
H3A C6 1_555 1_555
H3B C6 1_555 1_555
N1A B1 1_555 1_555
N1B B1 1_555 1_555
N2B Li1 1_555 1_555
N2A Li1 1_555 1_555
C1 N2 1_555 1_555
C3 N1 1_555 1_555
N1 N2 1_555 1_555
C1A N2A 1_555 1_555
C1B N2B 1_555 1_555
C3A N1A 1_555 1_555
C3B N1B 1_555 1_555
C5A F3A 1_555 1_555
C5B F3B 1_555 1_555
N1A N2A 1_555 1_555
N1B N2B 1_555 1_555

#END
