
#######################################################################
#
#                 Cambridge Crystallographic Data Centre
#                                CCDC 
#
#######################################################################
#
# If this CIF has been generated from an entry in the Cambridge 
# Structural Database, then it will include bibliographic, chemical, 
# crystal, experimental, refinement or atomic coordinate data resulting 
# from the CCDC's data processing and validation procedures.
#
#######################################################################

data_KAYRAG
_chemical_formula_moiety         'C21 H22 O7'
_chemical_name_systematic        
(+)-5-(methoxymethyl)-5a,7a-dimethyl-7,7a,9,10,10a,10b-hexahydro-3H,5H-furo[4,3,2-de]oxireno[5,6]indeno[4,5-h][2]benzopyran-3,8,11(5aH,6aH)-trione
_symmetry_cell_setting           orthorhombic
_symmetry_space_group_name_H-M   'P 21 21 21'
_symmetry_Int_Tables_number      19
_space_group_name_Hall           'P 2ac 2ab'
loop_
_symmetry_equiv_pos_site_id
_symmetry_equiv_pos_as_xyz
1 x,y,z
2 1/2-x,-y,1/2+z
3 1/2+x,1/2-y,-z
4 -x,1/2+y,1/2-z
_cell_length_a                   11.07084(10)
_cell_length_b                   12.29131(12)
_cell_length_c                   13.30647(14)
_cell_angle_alpha                90
_cell_angle_beta                 90
_cell_angle_gamma                90
_cell_volume                     1810.68
_cell_formula_units_Z            4
loop_
_atom_site_label
_atom_site_type_symbol
_atom_site_fract_x
_atom_site_fract_y
_atom_site_fract_z
O1 O 0.01990(10) 0.90237(8) 0.12425(8)
O2 O -0.23952(10) 0.85832(9) 0.15717(8)
O3 O -0.29176(10) 1.07092(9) 0.25605(9)
O4 O -0.10971(11) 0.80645(9) 0.43895(8)
O5 O 0.15116(11) 0.79196(9) 0.40240(9)
C1 C 0.03982(13) 0.97804(11) 0.20482(10)
O6 O -0.42195(10) 1.01726(11) 0.37219(9)
C2 C 0.08709(14) 0.85690(12) 0.35801(10)
C3 C 0.13715(13) 0.93815(12) 0.28020(10)
H1 H 0.1651 1.0021 0.3175
C4 C -0.07294(13) 1.02669(11) 0.25505(11)
C5 C -0.03754(15) 1.13500(12) 0.30614(12)
H2 H -0.1084 1.1688 0.3337
H3 H -0.0015 1.1826 0.2574
H4 H 0.0193 1.1209 0.3591
C6 C -0.04068(14) 0.86886(11) 0.37462(11)
C7 C -0.11001(13) 0.94547(12) 0.33124(10)
C8 C -0.32387(14) 1.00587(14) 0.33424(11)
C9 C -0.22836(14) 0.93242(12) 0.36826(11)
O7 O 0.46190(12) 0.94775(13) 0.03364(10)
C10 C 0.24560(13) 0.89437(12) 0.22159(11)
H5 H 0.2166 0.8325 0.1820
C11 C -0.22386(15) 0.84690(13) 0.43302(12)
H6 H -0.2898 0.8198 0.4684
C12 C 0.45150(15) 0.84666(15) 0.19106(15)
H7 H 0.5321 0.8643 0.2145
H8 H 0.4521 0.7734 0.1639
C13 C 0.35984(14) 0.85607(14) 0.27699(13)
H9 H 0.3856 0.9089 0.3267
H10 H 0.3470 0.7864 0.3096
C14 C -0.25610(19) 0.77895(15) 0.08153(13)
H11 H -0.3237 0.7988 0.0402
H12 H -0.2712 0.7096 0.1122
H13 H -0.1847 0.7746 0.0408
C15 C 0.20241(14) 1.00122(14) 0.06165(12)
H14 H 0.2221 1.0693 0.0287
H15 H 0.2083 0.9436 0.0121
C16 C -0.18755(13) 1.04676(13) 0.18977(11)
H16 H -0.1719 1.1136 0.1518
C17 C -0.22654(14) 0.96288(13) 0.11358(11)
H17 H -0.3029 0.9849 0.0842
H18 H -0.1672 0.9594 0.0601
C18 C 0.07458(14) 1.00647(13) 0.10111(11)
H19 H 0.0217 1.0589 0.0674
C19 C 0.29308(14) 0.98014(12) 0.14597(12)
C20 C 0.41067(15) 0.92746(14) 0.11203(13)
C21 C 0.32816(15) 1.08874(13) 0.19587(13)
H20 H 0.3722 1.1326 0.1488
H21 H 0.3777 1.0747 0.2536
H22 H 0.2564 1.1266 0.2163
loop_
_geom_bond_atom_site_label_1
_geom_bond_atom_site_label_2
_geom_bond_site_symmetry_1
_geom_bond_site_symmetry_2
O1 C1 1_555 1_555
O2 C14 1_555 1_555
O3 C8 1_555 1_555
O4 C6 1_555 1_555
O5 C2 1_555 1_555
C1 C3 1_555 1_555
O6 C8 1_555 1_555
C2 C3 1_555 1_555
C3 H1 1_555 1_555
C4 C1 1_555 1_555
C5 C4 1_555 1_555
H2 C5 1_555 1_555
H3 C5 1_555 1_555
H4 C5 1_555 1_555
C6 C2 1_555 1_555
C7 C4 1_555 1_555
C8 C9 1_555 1_555
C9 C7 1_555 1_555
O7 C20 1_555 1_555
C10 C3 1_555 1_555
H5 C10 1_555 1_555
C11 O4 1_555 1_555
H6 C11 1_555 1_555
C12 H7 1_555 1_555
H8 C12 1_555 1_555
C13 C10 1_555 1_555
H9 C13 1_555 1_555
H10 C13 1_555 1_555
C14 H11 1_555 1_555
H12 C14 1_555 1_555
H13 C14 1_555 1_555
C15 H14 1_555 1_555
H15 C15 1_555 1_555
C16 O3 1_555 1_555
H16 C16 1_555 1_555
C17 O2 1_555 1_555
H17 C17 1_555 1_555
H18 C17 1_555 1_555
C18 O1 1_555 1_555
H19 C18 1_555 1_555
C19 C10 1_555 1_555
C20 C12 1_555 1_555
C21 C19 1_555 1_555
H20 C21 1_555 1_555
H21 C21 1_555 1_555
H22 C21 1_555 1_555
C1 C18 1_555 1_555
C4 C16 1_555 1_555
C6 C7 1_555 1_555
C9 C11 1_555 1_555
C12 C13 1_555 1_555
C15 C18 1_555 1_555
C15 C19 1_555 1_555
C16 C17 1_555 1_555
C19 C20 1_555 1_555

#END
