
#######################################################################
#
#                 Cambridge Crystallographic Data Centre
#                                CCDC 
#
#######################################################################
#
# If this CIF has been generated from an entry in the Cambridge 
# Structural Database, then it will include bibliographic, chemical, 
# crystal, experimental, refinement or atomic coordinate data resulting 
# from the CCDC's data processing and validation procedures.
#
#######################################################################

data_KAYRAF
_chemical_formula_moiety         'C10 H14 N12 O4 Sr1'
_chemical_name_systematic        
Tetraaqua-bis(2-(pyrimidin-2-yl)tetrazolato)-strontium
_symmetry_cell_setting           monoclinic
_symmetry_space_group_name_H-M   'P 21/n'
_symmetry_Int_Tables_number      14
_space_group_name_Hall           '-P 2yn'
loop_
_symmetry_equiv_pos_site_id
_symmetry_equiv_pos_as_xyz
1 x,y,z
2 1/2-x,1/2+y,1/2-z
3 -x,-y,-z
4 1/2+x,1/2-y,1/2+z
_cell_length_a                   8.3298(17)
_cell_length_b                   16.230(3)
_cell_length_c                   12.735(3)
_cell_angle_alpha                90
_cell_angle_beta                 95.24(3)
_cell_angle_gamma                90
_cell_volume                     1714.48
_exptl_crystal_colour            colorless
_exptl_crystal_description       block
_cell_formula_units_Z            4
loop_
_atom_site_label
_atom_site_type_symbol
_atom_site_fract_x
_atom_site_fract_y
_atom_site_fract_z
Sr1 Sr 0.69513(5) 0.14007(2) 0.97155(3)
O1 O 0.9974(4) 0.15321(19) 0.9580(2)
H1 H 1.0305 0.1940 0.9242
H2 H 1.0402 0.1610 1.0204
O2 O 0.3834(4) 0.15671(18) 0.9685(2)
H3 H 0.3346 0.1578 0.9069
H4 H 0.3397 0.1989 0.9934
N1 N 0.7591(5) 0.3567(2) 1.2508(3)
N2 N 0.6105(5) 0.1548(2) 1.1730(3)
N3 N 0.7500(5) 0.1251(2) 0.7534(3)
N4 N 0.6262(5) 0.2687(2) 0.8324(3)
N5 N 0.5245(6) 0.1438(2) 1.3283(3)
N6 N 0.5949(5) 0.2181(2) 1.3247(3)
N7 N 0.7593(5) 0.2883(2) 1.0849(3)
C1 C 0.6573(5) 0.2626(3) 0.7319(3)
O3 O 0.8486(4) 0.0230(2) 1.0922(3)
H5 H 0.9050 -0.0162 1.0710
H6 H 0.8894 0.0333 1.1544
N8 N 0.5316(5) 0.3750(2) 0.7443(3)
C2 C 0.6458(5) 0.2226(3) 1.2284(3)
N9 N 0.6007(5) 0.3273(2) 0.6749(3)
O4 O 0.6298(4) -0.0041(2) 0.9106(2)
H7 H 0.5873 -0.0232 0.8525
H8 H 0.6407 -0.0433 0.9549
N10 N 0.7856(5) 0.1969(2) 0.5930(3)
N11 N 0.5341(5) 0.1062(2) 1.2376(3)
N12 N 0.5468(5) 0.3407(2) 0.8380(3)
C3 C 0.7277(5) 0.2939(3) 1.1858(3)
C4 C 0.8677(7) 0.0573(3) 0.6131(4)
H9 H 0.9112 0.0101 0.5857
C5 C 0.8516(7) 0.1281(3) 0.5559(4)
H10 H 0.8874 0.1291 0.4888
C6 C 0.7360(5) 0.1913(3) 0.6899(3)
C7 C 0.8286(6) 0.3546(3) 1.0461(4)
H11 H 0.8542 0.3537 0.9765
C8 C 0.8632(6) 0.4237(3) 1.1053(4)
H12 H 0.9098 0.4698 1.0772
C9 C 0.8166(6) 0.0584(3) 0.7138(4)
H13 H 0.8292 0.0111 0.7550
C10 C 0.8263(6) 0.4221(3) 1.2080(4)
H14 H 0.8489 0.4684 1.2497
loop_
_geom_bond_atom_site_label_1
_geom_bond_atom_site_label_2
_geom_bond_site_symmetry_1
_geom_bond_site_symmetry_2
Sr1 O1 1_555 1_555
O1 H1 1_555 1_555
H2 O1 1_555 1_555
O2 Sr1 1_555 1_555
H3 O2 1_555 1_555
H4 O2 1_555 1_555
N1 C3 1_555 1_555
N2 Sr1 1_555 1_555
N3 Sr1 1_555 1_555
N4 Sr1 1_555 1_555
N5 N6 1_555 1_555
N6 C2 1_555 1_555
N7 Sr1 1_555 1_555
C1 N4 1_555 1_555
O3 Sr1 1_555 1_555
H5 O3 1_555 1_555
H6 O3 1_555 1_555
N8 N9 1_555 1_555
C2 N2 1_555 1_555
N9 C1 1_555 1_555
O4 Sr1 1_555 1_555
H7 O4 1_555 1_555
H8 O4 1_555 1_555
N10 C5 1_555 1_555
N11 N2 1_555 1_555
N12 N4 1_555 1_555
C3 N7 1_555 1_555
C4 H9 1_555 1_555
C5 C4 1_555 1_555
H10 C5 1_555 1_555
C6 N3 1_555 1_555
C7 N7 1_555 1_555
H11 C7 1_555 1_555
C8 C7 1_555 1_555
H12 C8 1_555 1_555
C9 N3 1_555 1_555
H13 C9 1_555 1_555
C10 N1 1_555 1_555
H14 C10 1_555 1_555
N5 N11 1_555 1_555
C1 C6 1_555 1_555
N8 N12 1_555 1_555
C2 C3 1_555 1_555
N10 C6 1_555 1_555
C4 C9 1_555 1_555
C8 C10 1_555 1_555

#END
