
#######################################################################
#
#                 Cambridge Crystallographic Data Centre
#                                CCDC 
#
#######################################################################
#
# If this CIF has been generated from an entry in the Cambridge 
# Structural Database, then it will include bibliographic, chemical, 
# crystal, experimental, refinement or atomic coordinate data resulting 
# from the CCDC's data processing and validation procedures.
#
#######################################################################

data_KAYRUA
_chemical_formula_moiety         'C39 H59 Li1 N2 O3 S2,C7 H8'
_chemical_name_systematic        
'{1,3-bis[2,6-di-isopropylphenyl]-4-sulfanyl-1,3-dihydro-2H-imidazole-2-thionato}-tris(tetrahydrofuran)-lithium toluene solvate'
_symmetry_cell_setting           orthorhombic
_symmetry_space_group_name_H-M   'P 21 21 21'
_symmetry_Int_Tables_number      19
_space_group_name_Hall           'P 2ac 2ab'
loop_
_symmetry_equiv_pos_site_id
_symmetry_equiv_pos_as_xyz
1 x,y,z
2 1/2-x,-y,1/2+z
3 -x,1/2+y,1/2-z
4 1/2+x,1/2-y,-z
_cell_length_a                   12.249(3)
_cell_length_b                   17.855(4)
_cell_length_c                   22.121(5)
_cell_angle_alpha                90
_cell_angle_beta                 90
_cell_angle_gamma                90
_cell_volume                     4837.99
_exptl_crystal_colour            red
_exptl_crystal_description       plate
_cell_formula_units_Z            4
loop_
_atom_site_label
_atom_site_type_symbol
_atom_site_fract_x
_atom_site_fract_y
_atom_site_fract_z
S1 S 0.45737(9) 0.43940(8) 0.45665(5)
S2 S 0.15497(10) 0.49433(9) 0.28194(5)
Li1 Li -0.0365(7) 0.5116(4) 0.2871(4)
N1 N 0.2373(2) 0.46119(18) 0.45151(13)
N2 N 0.3151(2) 0.46847(18) 0.36467(13)
C1 C 0.3354(3) 0.4566(2) 0.42493(16)
C2 C 0.1569(3) 0.4757(2) 0.40934(16)
H1 H 0.0829 0.4812 0.4176
C3 C 0.2034(3) 0.4805(2) 0.35388(17)
C4 C 0.3979(3) 0.4709(3) 0.31890(18)
C5 C 0.4193(4) 0.4077(4) 0.2863(2)
C6 C 0.4981(6) 0.4116(4) 0.2412(3)
H2 H 0.5146 0.3693 0.2185
C7 C 0.5511(5) 0.4768(6) 0.2302(3)
H3 H 0.6042 0.4784 0.2001
C8 C 0.5283(4) 0.5404(4) 0.2623(3)
H4 H 0.5645 0.5848 0.2534
C9 C 0.4508(4) 0.5387(3) 0.3084(2)
C10 C 0.4228(5) 0.6081(4) 0.3443(3)
H5 H 0.3730 0.5933 0.3769
C11 C 0.5232(7) 0.6444(4) 0.3734(3)
H6 H 0.5011 0.6880 0.3957
H7 H 0.5739 0.6588 0.3424
H8 H 0.5574 0.6093 0.4002
C12 C 0.3636(6) 0.6663(4) 0.3047(3)
H9 H 0.3460 0.7095 0.3287
H10 H 0.2976 0.6448 0.2890
H11 H 0.4101 0.6809 0.2719
C13 C 0.3618(5) 0.3336(3) 0.2983(3)
H12 H 0.3031 0.3440 0.3273
C14 C 0.3090(7) 0.3009(4) 0.2430(3)
H13 H 0.2716 0.2556 0.2537
H14 H 0.3639 0.2902 0.2133
H15 H 0.2577 0.3362 0.2267
C15 C 0.4387(7) 0.2778(4) 0.3287(3)
H16 H 0.3998 0.2323 0.3373
H17 H 0.4657 0.2988 0.3658
H18 H 0.4988 0.2672 0.3022
C16 C 0.2188(3) 0.4530(3) 0.51557(18)
C17 C 0.1919(3) 0.3829(3) 0.53801(19)
C18 C 0.1725(4) 0.3775(3) 0.6001(2)
H19 H 0.1525 0.3319 0.6171
C19 C 0.1831(4) 0.4398(5) 0.6361(2)
H20 H 0.1719 0.4351 0.6775
C20 C 0.2093(4) 0.5083(4) 0.6131(2)
H21 H 0.2157 0.5495 0.6386
C21 C 0.2263(4) 0.5162(3) 0.5519(2)
C22 C 0.2557(5) 0.5917(4) 0.5254(3)
H22 H 0.2580 0.5867 0.4813
C23 C 0.3689(6) 0.6172(4) 0.5470(4)
H23 H 0.3860 0.6649 0.5294
H24 H 0.4227 0.5810 0.5349
H25 H 0.3688 0.6216 0.5903
C24 C 0.1702(6) 0.6509(4) 0.5413(4)
H26 H 0.1906 0.6980 0.5237
H27 H 0.1660 0.6561 0.5845
H28 H 0.1004 0.6357 0.5259
C25 C 0.1809(12) 0.3170(6) 0.4960(8)
H29 H 0.1771 0.3360 0.4545
C26 C 0.2805(12) 0.2684(10) 0.5014(11)
H30 H 0.2725 0.2253 0.4759
H31 H 0.2890 0.2525 0.5426
H32 H 0.3438 0.2963 0.4892
C27 C 0.0790(15) 0.2684(12) 0.5075(11)
H33 H 0.0248 0.2975 0.5283
H34 H 0.0987 0.2259 0.5318
H35 H 0.0499 0.2514 0.4696
O1 O -0.0656(17) 0.5918(9) 0.3435(10)
C28 C 0.0165(13) 0.6473(11) 0.3611(11)
H36 H 0.0804 0.6223 0.3773
H37 H 0.0386 0.6763 0.3261
C29 C -0.0276(16) 0.6934(11) 0.4038(11)
H38 H -0.0043 0.7448 0.3981
H39 H -0.0082 0.6773 0.4443
C30 C -0.1572(15) 0.6840(8) 0.3915(9)
H40 H -0.2029 0.6991 0.4252
H41 H -0.1820 0.7064 0.3540
C31 C -0.1376(15) 0.5964(8) 0.3875(8)
H42 H -0.1085 0.5768 0.4250
H43 H -0.2043 0.5700 0.3774
O2 O -0.0836(10) 0.5336(7) 0.2039(5)
C32 C -0.0113(11) 0.5270(9) 0.1528(5)
H44 H -0.0414 0.4938 0.1223
H45 H 0.0598 0.5085 0.1650
C33 C -0.0043(14) 0.6054(16) 0.1300(8)
H46 H 0.0541 0.6323 0.1502
H47 H 0.0092 0.6060 0.0868
C34 C -0.1101(14) 0.6393(11) 0.1439(7)
H48 H -0.1503 0.6513 0.1074
H49 H -0.1019 0.6842 0.1682
C35 C -0.1654(10) 0.5763(8) 0.1796(6)
H50 H -0.2109 0.5969 0.2114
H51 H -0.2108 0.5462 0.1531
O3 O -0.1105(6) 0.4252(5) 0.3210(6)
C36 C -0.0606(10) 0.3534(7) 0.3284(7)
H52 H 0.0083 0.3516 0.3069
H53 H -0.0470 0.3435 0.3708
C37 C -0.1313(14) 0.3021(8) 0.3055(13)
H54 H -0.1405 0.2612 0.3339
H55 H -0.1026 0.2817 0.2681
C38 C -0.2402(14) 0.3397(10) 0.2939(13)
H56 H -0.2990 0.3125 0.3135
H57 H -0.2551 0.3427 0.2509
C39 C -0.2280(8) 0.4129(8) 0.3195(10)
H58 H -0.2638 0.4502 0.2946
H59 H -0.2586 0.4147 0.3599
C55 C 0.7614(12) 0.5889(6) 0.5527(6)
C56 C 0.7011(7) 0.5392(9) 0.5177(6)
H91 H 0.6305 0.5515 0.5059
C57 C 0.7464(10) 0.4711(7) 0.5005(5)
H92 H 0.7060 0.4378 0.4771
C58 C 0.8519(11) 0.4527(6) 0.5182(7)
H93 H 0.8822 0.4071 0.5066
C59 C 0.9122(7) 0.5025(9) 0.5531(6)
H94 H 0.9828 0.4902 0.5649
C60 C 0.8669(11) 0.5706(7) 0.5704(5)
H95 H 0.9073 0.6038 0.5938
C61 C 0.699(3) 0.6513(15) 0.5772(14)
H96 H 0.7448 0.6814 0.6024
H97 H 0.6388 0.6323 0.6007
H98 H 0.6708 0.6813 0.5446
C40? C 0.188(3) 0.3105(13) 0.5006(18)
H60? H 0.2262 0.3194 0.4624
C41? C 0.236(4) 0.2422(19) 0.5298(19)
H61? H 0.3141 0.2478 0.5325
H62? H 0.2192 0.1988 0.5060
H63? H 0.2064 0.2363 0.5697
C42? C 0.066(3) 0.300(2) 0.4869(19)
H64? H 0.0335 0.3483 0.4792
H65? H 0.0308 0.2773 0.5209
H66? H 0.0576 0.2689 0.4520
O4? O -0.0878(18) 0.6007(9) 0.3274(10)
C43? C -0.0228(17) 0.6670(10) 0.3172(8)
H67? H 0.0539 0.6539 0.3144
H68? H -0.0445 0.6912 0.2799
C44? C -0.040(2) 0.7134(9) 0.3648(8)
H69? H -0.0881 0.7544 0.3540
H70? H 0.0284 0.7337 0.3800
C45? C -0.096(2) 0.6584(12) 0.4134(8)
H71? H -0.0451 0.6235 0.4317
H72? H -0.1373 0.6847 0.4442
C46? C -0.1714(16) 0.6208(11) 0.3627(9)
H73? H -0.2126 0.5783 0.3777
H74? H -0.2198 0.6565 0.3433
O5? O -0.058(3) 0.560(2) 0.2084(12)
C47? C 0.026(2) 0.587(3) 0.1691(15)
H75? H 0.0748 0.5472 0.1578
H76? H 0.0671 0.6270 0.1883
C48? C -0.036(3) 0.616(4) 0.115(2)
H77? H -0.0094 0.6657 0.1036
H78? H -0.0259 0.5830 0.0805
C49? C -0.151(3) 0.620(3) 0.1319(15)
H79? H -0.1933 0.5810 0.1120
H80? H -0.1826 0.6684 0.1226
C50? C -0.145(3) 0.607(3) 0.2001(13)
H81? H -0.1333 0.6538 0.2212
H82? H -0.2113 0.5840 0.2149
O6? O -0.1384(18) 0.4292(9) 0.2864(10)
C51? C -0.118(3) 0.3694(13) 0.2475(11)
H83? H -0.1476 0.3812 0.2079
H84? H -0.0401 0.3628 0.2434
C52? C -0.163(4) 0.3050(13) 0.2670(19)
H85? H -0.1068 0.2686 0.2771
H86? H -0.2108 0.2837 0.2367
C53? C -0.227(3) 0.3284(18) 0.3235(16)
H87? H -0.2251 0.2898 0.3543
H88? H -0.3027 0.3396 0.3137
C54? C -0.170(4) 0.3939(16) 0.3423(8)
H89? H -0.2169 0.4266 0.3659
H90? H -0.1064 0.3809 0.3663
C62? C 0.8188(12) 0.5200(7) 0.5402(6)
C63? C 0.8895(9) 0.5670(9) 0.5715(7)
H99? H 0.9582 0.5498 0.5829
C64? C 0.8576(12) 0.6396(9) 0.5856(6)
H100? H 0.9049 0.6710 0.6065
C65? C 0.7550(14) 0.6652(7) 0.5686(7)
H101? H 0.7336 0.7138 0.5780
C66? C 0.6843(10) 0.6182(9) 0.5373(7)
H102? H 0.6156 0.6353 0.5259
C67? C 0.7162(11) 0.5456(9) 0.5232(6)
H103? H 0.6689 0.5141 0.5023
C68? C 0.866(2) 0.4530(14) 0.5242(15)
H104? H 0.8167 0.4250 0.4993
H105? H 0.8829 0.4248 0.5600
H106? H 0.9323 0.4625 0.5021
loop_
_geom_bond_atom_site_label_1
_geom_bond_atom_site_label_2
_geom_bond_site_symmetry_1
_geom_bond_site_symmetry_2
S1 C1 1_555 1_555
S2 Li1 1_555 1_555
Li1 O1 1_555 1_555
N1 C1 1_555 1_555
N2 C1 1_555 1_555
C2 N1 1_555 1_555
H1 C2 1_555 1_555
C3 S2 1_555 1_555
C4 N2 1_555 1_555
C5 C4 1_555 1_555
C6 C5 1_555 1_555
H2 C6 1_555 1_555
C7 C6 1_555 1_555
H3 C7 1_555 1_555
C8 C7 1_555 1_555
H4 C8 1_555 1_555
C9 C4 1_555 1_555
C10 C9 1_555 1_555
H5 C10 1_555 1_555
C11 C10 1_555 1_555
H6 C11 1_555 1_555
H7 C11 1_555 1_555
H8 C11 1_555 1_555
C12 C10 1_555 1_555
H9 C12 1_555 1_555
H10 C12 1_555 1_555
H11 C12 1_555 1_555
C13 C5 1_555 1_555
H12 C13 1_555 1_555
C14 C13 1_555 1_555
H13 C14 1_555 1_555
H14 C14 1_555 1_555
H15 C14 1_555 1_555
C15 C13 1_555 1_555
H16 C15 1_555 1_555
H17 C15 1_555 1_555
H18 C15 1_555 1_555
C16 N1 1_555 1_555
C17 C16 1_555 1_555
C18 C17 1_555 1_555
H19 C18 1_555 1_555
C19 C18 1_555 1_555
H20 C19 1_555 1_555
C20 C19 1_555 1_555
H21 C20 1_555 1_555
C21 C16 1_555 1_555
C22 C21 1_555 1_555
H22 C22 1_555 1_555
C23 C22 1_555 1_555
H23 C23 1_555 1_555
H24 C23 1_555 1_555
H25 C23 1_555 1_555
C24 C22 1_555 1_555
H26 C24 1_555 1_555
H27 C24 1_555 1_555
H28 C24 1_555 1_555
C25 C17 1_555 1_555
H29 C25 1_555 1_555
C26 C25 1_555 1_555
H30 C26 1_555 1_555
H31 C26 1_555 1_555
H32 C26 1_555 1_555
C27 C25 1_555 1_555
H33 C27 1_555 1_555
H34 C27 1_555 1_555
H35 C27 1_555 1_555
O1 C28 1_555 1_555
C28 H36 1_555 1_555
H37 C28 1_555 1_555
C29 C28 1_555 1_555
H38 C29 1_555 1_555
H39 C29 1_555 1_555
C30 C29 1_555 1_555
H40 C30 1_555 1_555
H41 C30 1_555 1_555
C31 O1 1_555 1_555
H42 C31 1_555 1_555
H43 C31 1_555 1_555
O2 Li1 1_555 1_555
C32 O2 1_555 1_555
H44 C32 1_555 1_555
H45 C32 1_555 1_555
C33 C32 1_555 1_555
H46 C33 1_555 1_555
H47 C33 1_555 1_555
C34 C33 1_555 1_555
H48 C34 1_555 1_555
H49 C34 1_555 1_555
C35 O2 1_555 1_555
H50 C35 1_555 1_555
H51 C35 1_555 1_555
O3 Li1 1_555 1_555
C36 O3 1_555 1_555
H52 C36 1_555 1_555
H53 C36 1_555 1_555
C37 C36 1_555 1_555
H54 C37 1_555 1_555
H55 C37 1_555 1_555
C38 C37 1_555 1_555
H56 C38 1_555 1_555
H57 C38 1_555 1_555
C39 O3 1_555 1_555
H58 C39 1_555 1_555
H59 C39 1_555 1_555
C55 C56 1_555 1_555
C56 H91 1_555 1_555
C57 C56 1_555 1_555
H92 C57 1_555 1_555
C58 C57 1_555 1_555
H93 C58 1_555 1_555
C59 C58 1_555 1_555
H94 C59 1_555 1_555
C60 C55 1_555 1_555
H95 C60 1_555 1_555
C61 C55 1_555 1_555
H96 C61 1_555 1_555
H97 C61 1_555 1_555
H98 C61 1_555 1_555
N2 C3 1_555 1_555
C2 C3 1_555 1_555
C8 C9 1_555 1_555
C20 C21 1_555 1_555
C30 C31 1_555 1_555
C34 C35 1_555 1_555
C38 C39 1_555 1_555
C59 C60 1_555 1_555

#END
