
#######################################################################
#
#                 Cambridge Crystallographic Data Centre
#                                CCDC 
#
#######################################################################
#
# If this CIF has been generated from an entry in the Cambridge 
# Structural Database, then it will include bibliographic, chemical, 
# crystal, experimental, refinement or atomic coordinate data resulting 
# from the CCDC's data processing and validation procedures.
#
#######################################################################

data_KAYSAH
_chemical_formula_moiety         'C35 H50 Li1 N2 O2 S3'
_chemical_name_systematic        
'(1,3-bis[2,6-di-isopropylphenyl]-4,5-disulfanyl-1,3-dihydro-2H-imidazole-2-thione radical)-bis(tetrahydrofuran)-lithium'
_symmetry_cell_setting           monoclinic
_symmetry_space_group_name_H-M   'P 21/n'
_symmetry_Int_Tables_number      14
_space_group_name_Hall           '-P 2yn'
loop_
_symmetry_equiv_pos_site_id
_symmetry_equiv_pos_as_xyz
1 x,y,z
2 1/2-x,1/2+y,1/2-z
3 -x,-y,-z
4 1/2+x,1/2-y,1/2+z
_cell_length_a                   12.332(2)
_cell_length_b                   17.934(3)
_cell_length_c                   16.802(3)
_cell_angle_alpha                90
_cell_angle_beta                 101.457(6)
_cell_angle_gamma                90
_cell_volume                     3641.92
_exptl_crystal_colour            'purple red'
_exptl_crystal_description       plate
_cell_formula_units_Z            4
loop_
_atom_site_label
_atom_site_type_symbol
_atom_site_fract_x
_atom_site_fract_y
_atom_site_fract_z
S1 S 0.68105(6) 0.10691(4) 0.33123(4)
S2 S 0.83795(6) 0.38173(4) 0.42355(5)
S3 S 0.66373(6) 0.32150(4) 0.55573(4)
N1 N 0.76434(16) 0.24602(11) 0.36553(12)
N2 N 0.65951(16) 0.20790(11) 0.44747(12)
C1 C 0.70175(19) 0.18687(13) 0.38097(14)
C2 C 0.7651(2) 0.30277(14) 0.42171(15)
C3 C 0.6963(2) 0.27839(14) 0.47483(15)
C4 C 0.5880(2) 0.16102(13) 0.48416(15)
C5 C 0.6356(2) 0.11981(14) 0.55217(15)
C6 C 0.5651(2) 0.07432(14) 0.58652(16)
H1 H 0.5945 0.0447 0.6326
C7 C 0.4535(2) 0.07205(14) 0.55434(16)
H2 H 0.4066 0.0412 0.5787
C8 C 0.4090(2) 0.11401(14) 0.48714(17)
H3 H 0.3316 0.1120 0.4660
C9 C 0.4758(2) 0.15947(14) 0.44973(16)
C10 C 0.4278(2) 0.20610(16) 0.37556(17)
H4 H 0.4905 0.2192 0.3484
C11 C 0.3430(3) 0.16380(19) 0.31350(19)
H5 H 0.3149 0.1964 0.2672
H6 H 0.3780 0.1199 0.2948
H7 H 0.2816 0.1480 0.3386
C12 C 0.3817(3) 0.27937(17) 0.4012(2)
H8 H 0.3511 0.3088 0.3529
H9 H 0.3233 0.2688 0.4316
H10 H 0.4412 0.3075 0.4358
C13 C 0.7593(2) 0.12093(15) 0.58652(16)
H11 H 0.7908 0.1651 0.5627
C14 C 0.8140(3) 0.0520(2) 0.5603(3)
H12 H 0.8936 0.0535 0.5829
H13 H 0.7819 0.0074 0.5801
H14 H 0.8020 0.0504 0.5009
C15 C 0.7856(3) 0.1301(3) 0.6780(2)
H15 H 0.8660 0.1305 0.6972
H16 H 0.7544 0.1773 0.6927
H17 H 0.7534 0.0886 0.7033
C16 C 0.8259(2) 0.24792(13) 0.30075(15)
C17 C 0.9318(2) 0.21776(13) 0.31557(15)
C18 C 0.9895(2) 0.22047(15) 0.25228(17)
H18 H 1.0619 0.2000 0.2601
C19 C 0.9436(2) 0.25237(14) 0.17829(16)
H19 H 0.9844 0.2539 0.1360
C20 C 0.8384(2) 0.28201(15) 0.16614(17)
H20 H 0.8074 0.3037 0.1151
C21 C 0.7768(2) 0.28081(14) 0.22728(16)
C22 C 0.6606(2) 0.31377(18) 0.21273(18)
H21 H 0.6413 0.3227 0.2670
C23 C 0.6533(3) 0.38843(18) 0.1685(2)
H22 H 0.5774 0.4074 0.1605
H23 H 0.7038 0.4241 0.2009
H24 H 0.6741 0.3817 0.1156
C24 C 0.5769(3) 0.2578(2) 0.1672(2)
H25 H 0.5834 0.2105 0.1969
H26 H 0.5019 0.2776 0.1627
H27 H 0.5918 0.2495 0.1127
C25 C 0.9844(2) 0.18384(16) 0.39689(17)
H28 H 0.9305 0.1887 0.4339
C26 C 1.0082(3) 0.10119(18) 0.3886(2)
H29 H 1.0420 0.0808 0.4418
H30 H 0.9388 0.0748 0.3674
H31 H 1.0590 0.0948 0.3510
C27 C 1.0891(3) 0.2260(2) 0.4351(2)
H32 H 1.1216 0.2032 0.4875
H33 H 1.1423 0.2237 0.3990
H34 H 1.0707 0.2782 0.4436
Li1 Li 0.7501(4) 0.4384(3) 0.5264(3)
O1 O 0.64473(17) 0.50821(11) 0.46557(12)
C28 C 0.5540(3) 0.4763(2) 0.4065(2)
H35 H 0.4854 0.4751 0.4287
H36 H 0.5721 0.4247 0.3925
C29 C 0.5390(3) 0.5255(2) 0.3326(2)
H37 H 0.4857 0.5661 0.3356
H38 H 0.5136 0.4965 0.2822
C30 C 0.6555(3) 0.5557(2) 0.3372(2)
H39 H 0.7030 0.5190 0.3163
H40 H 0.6546 0.6028 0.3064
C31 C 0.6934(3) 0.56809(18) 0.4261(2)
H41 H 0.7751 0.5663 0.4412
H42 H 0.6679 0.6172 0.4421
O2 O 0.85300(16) 0.49085(12) 0.60349(13)
C32 C 0.8262(3) 0.5536(2) 0.6480(3)
H43 H 0.7819 0.5378 0.6881
H44 H 0.7829 0.5905 0.6108
C33 C 0.9330(3) 0.58696(17) 0.69013(19)
H45 H 0.9250 0.6124 0.7410
H46 H 0.9619 0.6228 0.6547
C34 C 1.0060(3) 0.51947(18) 0.70720(19)
H47 H 1.0850 0.5331 0.7131
H48 H 0.9952 0.4938 0.7572
C35 C 0.9686(3) 0.47150(18) 0.6339(2)
H49 H 1.0133 0.4817 0.5923
H50 H 0.9759 0.4180 0.6487
loop_
_geom_bond_atom_site_label_1
_geom_bond_atom_site_label_2
_geom_bond_site_symmetry_1
_geom_bond_site_symmetry_2
S1 C1 1_555 1_555
S2 C2 1_555 1_555
S3 C3 1_555 1_555
N1 C1 1_555 1_555
N2 C1 1_555 1_555
C2 N1 1_555 1_555
C3 N2 1_555 1_555
C4 N2 1_555 1_555
C5 C4 1_555 1_555
C6 C5 1_555 1_555
H1 C6 1_555 1_555
C7 C6 1_555 1_555
H2 C7 1_555 1_555
C8 C7 1_555 1_555
H3 C8 1_555 1_555
C9 C4 1_555 1_555
C10 C9 1_555 1_555
H4 C10 1_555 1_555
C11 C10 1_555 1_555
H5 C11 1_555 1_555
H6 C11 1_555 1_555
H7 C11 1_555 1_555
C12 C10 1_555 1_555
H8 C12 1_555 1_555
H9 C12 1_555 1_555
H10 C12 1_555 1_555
C13 C5 1_555 1_555
H11 C13 1_555 1_555
C14 C13 1_555 1_555
H12 C14 1_555 1_555
H13 C14 1_555 1_555
H14 C14 1_555 1_555
C15 C13 1_555 1_555
H15 C15 1_555 1_555
H16 C15 1_555 1_555
H17 C15 1_555 1_555
C16 N1 1_555 1_555
C17 C16 1_555 1_555
C18 C17 1_555 1_555
H18 C18 1_555 1_555
C19 C18 1_555 1_555
H19 C19 1_555 1_555
C20 C19 1_555 1_555
H20 C20 1_555 1_555
C21 C16 1_555 1_555
C22 C21 1_555 1_555
H21 C22 1_555 1_555
C23 C22 1_555 1_555
H22 C23 1_555 1_555
H23 C23 1_555 1_555
H24 C23 1_555 1_555
C24 C22 1_555 1_555
H25 C24 1_555 1_555
H26 C24 1_555 1_555
H27 C24 1_555 1_555
C25 C17 1_555 1_555
H28 C25 1_555 1_555
C26 C25 1_555 1_555
H29 C26 1_555 1_555
H30 C26 1_555 1_555
H31 C26 1_555 1_555
C27 C25 1_555 1_555
H32 C27 1_555 1_555
H33 C27 1_555 1_555
H34 C27 1_555 1_555
Li1 S2 1_555 1_555
O1 Li1 1_555 1_555
C28 O1 1_555 1_555
H35 C28 1_555 1_555
H36 C28 1_555 1_555
C29 C28 1_555 1_555
H37 C29 1_555 1_555
H38 C29 1_555 1_555
C30 C29 1_555 1_555
H39 C30 1_555 1_555
H40 C30 1_555 1_555
C31 O1 1_555 1_555
H41 C31 1_555 1_555
H42 C31 1_555 1_555
O2 Li1 1_555 1_555
C32 O2 1_555 1_555
H43 C32 1_555 1_555
H44 C32 1_555 1_555
C33 C32 1_555 1_555
H45 C33 1_555 1_555
H46 C33 1_555 1_555
C34 C33 1_555 1_555
H47 C34 1_555 1_555
H48 C34 1_555 1_555
C35 O2 1_555 1_555
H49 C35 1_555 1_555
H50 C35 1_555 1_555
S3 Li1 1_555 1_555
C2 C3 1_555 1_555
C8 C9 1_555 1_555
C20 C21 1_555 1_555
C30 C31 1_555 1_555
C34 C35 1_555 1_555

#END
