
#######################################################################
#
#                 Cambridge Crystallographic Data Centre
#                                CCDC 
#
#######################################################################
#
# If this CIF has been generated from an entry in the Cambridge 
# Structural Database, then it will include bibliographic, chemical, 
# crystal, experimental, refinement or atomic coordinate data resulting 
# from the CCDC's data processing and validation procedures.
#
#######################################################################

data_KAYTOW
_chemical_formula_moiety         'C18 H24 Cl1 N1 O4'
_chemical_name_systematic        
4a-(3-chloropropyl)-2-methyloctahydro-1H-4,12-ethanopyrido[1,2-d][1,4]benzoxazine-6,7,13-trione
_symmetry_cell_setting           monoclinic
_symmetry_space_group_name_H-M   'P 21/c'
_symmetry_Int_Tables_number      14
_space_group_name_Hall           '-P 2ybc'
loop_
_symmetry_equiv_pos_site_id
_symmetry_equiv_pos_as_xyz
1 x,y,z
2 -x,1/2+y,1/2-z
3 -x,-y,-z
4 x,1/2-y,1/2+z
_cell_length_a                   7.4830(3)
_cell_length_b                   13.0673(7)
_cell_length_c                   17.5715(8)
_cell_angle_alpha                90
_cell_angle_beta                 91.061(4)
_cell_angle_gamma                90
_cell_volume                     1717.89
_exptl_crystal_colour            colorless
_exptl_crystal_description       block
_chemical_melting_point          '560-562 K'
_cell_formula_units_Z            4
_exptl_crystal_recrystallization_method 
'Re-crystallisation from solvent: n-Hexane / AcOEt'
loop_
_atom_site_label
_atom_site_type_symbol
_atom_site_fract_x
_atom_site_fract_y
_atom_site_fract_z
Cl1 Cl 0.45651(15) 0.63045(9) 0.47739(6)
O1 O 0.5818(3) 1.1729(2) 0.27048(15)
O2 O 0.0636(2) 0.87861(15) 0.30310(10)
O3 O -0.1943(3) 0.8315(2) 0.34862(14)
O4 O -0.2251(3) 1.0048(2) 0.43099(13)
N1 N 0.0194(3) 1.0712(2) 0.37439(12)
C1 C -0.0264(5) 1.1766(3) 0.3966(2)
H1 H -0.0978 1.1745 0.4421
H2 H -0.0983 1.2076 0.3563
C2 C 0.1348(5) 1.2416(3) 0.4116(2)
H3 H 0.1918 1.2199 0.4590
H4 H 0.0973 1.3121 0.4178
C3 C 0.2708(4) 1.2362(3) 0.34810(19)
H5 H 0.2200 1.2648 0.3016
H6 H 0.3767 1.2752 0.3621
C4 C 0.3195(4) 1.1245(2) 0.33598(16)
H7 H 0.3601 1.1000 0.3861
C5 C 0.4757(4) 1.1054(3) 0.28394(17)
C6 C 0.5066(4) 0.9983(3) 0.25715(17)
H8 H 0.5891 0.9656 0.2928
H9 H 0.5652 1.0017 0.2084
C7 C 0.3410(3) 0.9287(2) 0.24787(15)
H10 H 0.3803 0.8572 0.2477
C8 C 0.2204(3) 0.9455(2) 0.31608(14)
C9 C 0.1565(3) 1.0567(2) 0.31500(14)
C10 C 0.0666(4) 1.0851(2) 0.23786(14)
H11 H -0.0465 1.0491 0.2335
H12 H 0.0407 1.1578 0.2380
C11 C 0.1767(4) 1.0605(3) 0.16759(15)
H13 H 0.2805 1.1062 0.1671
C12 C 0.2426(4) 0.9514(3) 0.17272(15)
H14 H 0.3223 0.9383 0.1309
H15 H 0.1415 0.9054 0.1673
C13 C 0.0654(4) 1.0785(3) 0.09502(17)
H16 H -0.0420 1.0385 0.0968
H17 H 0.1332 1.0587 0.0516
H18 H 0.0349 1.1497 0.0911
C14 C -0.0779(4) 0.8943(3) 0.34697(16)
C15 C -0.0982(4) 0.9965(3) 0.38901(15)
C16 C 0.3097(4) 0.9100(2) 0.39146(15)
H19 H 0.4285 0.9394 0.3953
H20 H 0.2412 0.9361 0.4336
C17 C 0.3247(4) 0.7940(3) 0.39896(17)
H21 H 0.2070 0.7652 0.4069
H22 H 0.3706 0.7657 0.3522
C18 C 0.4450(4) 0.7654(3) 0.46347(18)
H23 H 0.4027 0.7974 0.5096
H24 H 0.5640 0.7914 0.4540
loop_
_geom_bond_atom_site_label_1
_geom_bond_atom_site_label_2
_geom_bond_site_symmetry_1
_geom_bond_site_symmetry_2
Cl1 C18 1_555 1_555
O1 C5 1_555 1_555
O2 C8 1_555 1_555
O3 C14 1_555 1_555
O4 C15 1_555 1_555
N1 C1 1_555 1_555
C1 H1 1_555 1_555
H2 C1 1_555 1_555
C2 C1 1_555 1_555
H3 C2 1_555 1_555
H4 C2 1_555 1_555
C3 C2 1_555 1_555
H5 C3 1_555 1_555
H6 C3 1_555 1_555
C4 C3 1_555 1_555
H7 C4 1_555 1_555
C5 C4 1_555 1_555
C6 C5 1_555 1_555
H8 C6 1_555 1_555
H9 C6 1_555 1_555
C7 C6 1_555 1_555
H10 C7 1_555 1_555
C8 C7 1_555 1_555
C9 N1 1_555 1_555
C10 C9 1_555 1_555
H11 C10 1_555 1_555
H12 C10 1_555 1_555
C11 C10 1_555 1_555
H13 C11 1_555 1_555
C12 C7 1_555 1_555
H14 C12 1_555 1_555
H15 C12 1_555 1_555
C13 C11 1_555 1_555
H16 C13 1_555 1_555
H17 C13 1_555 1_555
H18 C13 1_555 1_555
C14 O2 1_555 1_555
C15 N1 1_555 1_555
C16 C8 1_555 1_555
H19 C16 1_555 1_555
H20 C16 1_555 1_555
C17 C16 1_555 1_555
H21 C17 1_555 1_555
H22 C17 1_555 1_555
C18 C17 1_555 1_555
H23 C18 1_555 1_555
H24 C18 1_555 1_555
C4 C9 1_555 1_555
C8 C9 1_555 1_555
C11 C12 1_555 1_555
C14 C15 1_555 1_555

#END
