
#######################################################################
#
#                 Cambridge Crystallographic Data Centre
#                                CCDC 
#
#######################################################################
#
# If this CIF has been generated from an entry in the Cambridge 
# Structural Database, then it will include bibliographic, chemical, 
# crystal, experimental, refinement or atomic coordinate data resulting 
# from the CCDC's data processing and validation procedures.
#
#######################################################################

data_KAYTAI
_chemical_name_common            '(+-)-Serratezomine C'
_chemical_formula_moiety         'C16 H25 N1 O3'
_chemical_name_systematic        6,12-dihydroxy-15-methyllycopodan-5-one
_symmetry_cell_setting           monoclinic
_symmetry_space_group_name_H-M   'P 21/c'
_symmetry_Int_Tables_number      14
_space_group_name_Hall           '-P 2ybc'
loop_
_symmetry_equiv_pos_site_id
_symmetry_equiv_pos_as_xyz
1 x,y,z
2 -x,1/2+y,1/2-z
3 -x,-y,-z
4 x,1/2-y,1/2+z
_cell_length_a                   12.3508(9)
_cell_length_b                   7.8777(4)
_cell_length_c                   15.0955(14)
_cell_angle_alpha                90
_cell_angle_beta                 102.872(8)
_cell_angle_gamma                90
_cell_volume                     1431.82
_exptl_crystal_colour            'light yellow'
_exptl_crystal_description       block
_chemical_melting_point          '494-496 K'
_cell_formula_units_Z            4
_exptl_crystal_recrystallization_method chloroform
loop_
_atom_site_label
_atom_site_type_symbol
_atom_site_fract_x
_atom_site_fract_y
_atom_site_fract_z
O1 O 0.02012(19) 0.7506(3) 0.03737(18)
O2 O 0.1708(2) 1.0517(3) 0.0257(2)
H1 H 0.1174 1.1164 0.0174
O3 O 0.4121(2) 0.7349(3) -0.07468(16)
H2 H 0.4511 0.6542 -0.0531
N1 N 0.3934(2) 0.5241(3) 0.07993(17)
C1 C 0.3584(3) 0.3690(4) 0.1208(3)
H3 H 0.4227 0.3200 0.1615
H4 H 0.3318 0.2873 0.0728
C2 C 0.2674(3) 0.3971(4) 0.1737(3)
H5 H 0.2421 0.2879 0.1909
H6 H 0.2982 0.4595 0.2289
C3 C 0.1685(3) 0.4948(4) 0.1183(2)
H7 H 0.1272 0.4225 0.0705
H8 H 0.1192 0.5274 0.1573
C4 C 0.2076(3) 0.6532(4) 0.0764(2)
H9 H 0.2466 0.7212 0.1281
C5 C 0.1150(3) 0.7646(4) 0.0267(2)
C6 C 0.1439(3) 0.9072(4) -0.0316(3)
H10 H 0.0773 0.9341 -0.0784
C7 C 0.2377(3) 0.8630(4) -0.0796(2)
H11 H 0.2637 0.9683 -0.1026
C8 C 0.1904(3) 0.7479(5) -0.1608(2)
H12 H 0.1266 0.8031 -0.1991
H13 H 0.2460 0.7327 -0.1965
C9 C 0.1554(3) 0.5751(4) -0.1327(2)
H14 H 0.0907 0.5912 -0.1060
C10 C 0.2476(3) 0.4940(4) -0.0607(2)
H15 H 0.3071 0.4596 -0.0893
H16 H 0.2186 0.3924 -0.0381
C11 C 0.2966(2) 0.6113(4) 0.0211(2)
C12 C 0.3373(3) 0.7758(4) -0.0170(2)
C13 C 0.3991(3) 0.8904(4) 0.0592(3)
H17 H 0.4254 0.9910 0.0335
H18 H 0.3492 0.9259 0.0970
C14 C 0.4967(3) 0.7946(4) 0.1162(3)
H19 H 0.5495 0.7676 0.0794
H20 H 0.5340 0.8657 0.1662
C15 C 0.4581(3) 0.6328(4) 0.1531(2)
H21 H 0.5222 0.5701 0.1859
H22 H 0.4124 0.6609 0.1957
C16 C 0.1211(4) 0.4585(6) -0.2151(3)
H23 H 0.1834 0.4406 -0.2423
H24 H 0.0616 0.5101 -0.2586
H25 H 0.0967 0.3515 -0.1961
loop_
_geom_bond_atom_site_label_1
_geom_bond_atom_site_label_2
_geom_bond_site_symmetry_1
_geom_bond_site_symmetry_2
O1 C5 1_555 1_555
O2 H1 1_555 1_555
O3 H2 1_555 1_555
N1 C1 1_555 1_555
C1 H3 1_555 1_555
H4 C1 1_555 1_555
C2 C1 1_555 1_555
H5 C2 1_555 1_555
H6 C2 1_555 1_555
C3 C2 1_555 1_555
H7 C3 1_555 1_555
H8 C3 1_555 1_555
C4 C3 1_555 1_555
H9 C4 1_555 1_555
C5 C4 1_555 1_555
C6 O2 1_555 1_555
H10 C6 1_555 1_555
C7 C6 1_555 1_555
H11 C7 1_555 1_555
C8 C7 1_555 1_555
H12 C8 1_555 1_555
H13 C8 1_555 1_555
C9 C8 1_555 1_555
H14 C9 1_555 1_555
C10 C9 1_555 1_555
H15 C10 1_555 1_555
H16 C10 1_555 1_555
C11 N1 1_555 1_555
C12 O3 1_555 1_555
C13 C12 1_555 1_555
H17 C13 1_555 1_555
H18 C13 1_555 1_555
C14 C13 1_555 1_555
H19 C14 1_555 1_555
H20 C14 1_555 1_555
C15 N1 1_555 1_555
H21 C15 1_555 1_555
H22 C15 1_555 1_555
C16 C9 1_555 1_555
H23 C16 1_555 1_555
H24 C16 1_555 1_555
H25 C16 1_555 1_555
C4 C11 1_555 1_555
C5 C6 1_555 1_555
C7 C12 1_555 1_555
C10 C11 1_555 1_555
C11 C12 1_555 1_555
C14 C15 1_555 1_555

#END
