
#######################################################################
#
#                 Cambridge Crystallographic Data Centre
#                                CCDC 
#
#######################################################################
#
# If this CIF has been generated from an entry in the Cambridge 
# Structural Database, then it will include bibliographic, chemical, 
# crystal, experimental, refinement or atomic coordinate data resulting 
# from the CCDC's data processing and validation procedures.
#
#######################################################################

data_KAZLEC
_chemical_name_common            'Hyptatic acid-A methanol solvate'
_chemical_formula_moiety         'C30 H48 O5,0.5(C1 H4 O1)'
_chemical_name_systematic        
'2\a,3\b,24-Trihydroxyolean-12-en-28-oic acid methanol solvate'
_chemical_properties_biological  'in vitro cytotoxic activity'
_symmetry_cell_setting           monoclinic
_symmetry_space_group_name_H-M   'P 21'
_symmetry_Int_Tables_number      4
_space_group_name_Hall           'P 2yb'
loop_
_symmetry_equiv_pos_site_id
_symmetry_equiv_pos_as_xyz
1 x,y,z
2 -x,1/2+y,-z
_cell_length_a                   14.302(3)
_cell_length_b                   26.616(4)
_cell_length_c                   7.431(2)
_cell_angle_alpha                90
_cell_angle_beta                 91.76(2)
_cell_angle_gamma                90
_cell_volume                     2827.37
_exptl_crystal_colour            colorless
_cell_formula_units_Z            4
loop_
_atom_site_label
_atom_site_type_symbol
_atom_site_fract_x
_atom_site_fract_y
_atom_site_fract_z
C1 C 0.1618(3) 0.19685(15) -0.1643(5)
C2 C 0.1101(3) 0.14745(15) -0.1947(5)
C3 C 0.0726(3) 0.12795(14) -0.0179(5)
C4 C 0.0062(3) 0.16510(16) 0.0727(5)
C5 C 0.0601(3) 0.21584(14) 0.0942(5)
C6 C 0.0092(3) 0.25656(16) 0.1985(6)
C7 C 0.0781(3) 0.29735(15) 0.2628(5)
C8 C 0.1311(2) 0.32256(14) 0.1090(5)
C9 C 0.1721(2) 0.28133(14) -0.0135(5)
C10 C 0.1026(2) 0.23821(13) -0.0785(5)
C11 C 0.2265(3) 0.30485(16) -0.1682(5)
C12 C 0.2691(3) 0.35479(15) -0.1255(6)
C13 C 0.2653(3) 0.37886(14) 0.0294(6)
C14 C 0.2162(3) 0.35513(14) 0.1876(5)
C15 C 0.1798(3) 0.39468(16) 0.3227(6)
C16 C 0.2410(3) 0.44118(16) 0.3495(6)
C17 C 0.2626(3) 0.46646(16) 0.1707(7)
C18 C 0.3160(3) 0.42917(16) 0.0501(6)
C19 C 0.4177(3) 0.42187(18) 0.1159(8)
C20 C 0.4743(4) 0.47094(20) 0.1397(10)
C21 C 0.4215(4) 0.50536(21) 0.2631(9)
C22 C 0.3198(4) 0.51524(18) 0.1982(8)
C23 C -0.0878(3) 0.17175(17) -0.0325(7)
C24 C -0.0135(4) 0.14432(18) 0.2621(6)
C25 C 0.0627(3) 0.35706(15) 0.0029(6)
C26 C 0.0298(3) 0.25636(16) -0.2212(5)
C27 C 0.2896(3) 0.32310(17) 0.2936(6)
C28 C 0.1696(3) 0.48367(16) 0.0805(7)
C29 C 0.4922(5) 0.49512(26) -0.0458(11)
C30 C 0.5695(4) 0.45832(28) 0.2254(12)
O1 O 0.1748(2) 0.11331(12) -0.2685(5)
O2 O 0.0334(2) 0.07865(10) -0.0421(4)
O3 O -0.1392(2) 0.12590(13) -0.0470(5)
O4 O 0.1057(3) 0.50000 0.1654(5)
O5 O 0.1682(2) 0.48321(14) -0.0972(5)
H1 H 0.1840 0.2099 -0.2893
H2 H 0.2204 0.1900 -0.0792
H3 H 0.0521 0.1521 -0.2832
H4 H 0.1295 0.1247 0.0740
H5 H 0.1175 0.2038 0.1745
H6 H -0.0220 0.2403 0.3106
H7 H -0.0427 0.2728 0.1143
H8 H 0.1274 0.2809 0.3525
H9 H 0.0406 0.3252 0.3301
H10 H 0.2194 0.2616 0.0710
H11 H 0.1802 0.3092 -0.2795
H12 H 0.2804 0.2801 -0.2016
H13 H 0.3038 0.3716 -0.2235
H14 H 0.1740 0.3770 0.4482
H15 H 0.1134 0.4066 0.2759
H16 H 0.3042 0.4305 0.4143
H17 H 0.2060 0.4670 0.4305
H18 H 0.3174 0.4456 -0.0783
H19 H 0.4514 0.3993 0.0220
H20 H 0.4174 0.4034 0.2407
H21 H 0.4568 0.5399 0.2714
H22 H 0.4205 0.4888 0.3913
H23 H 0.2871 0.5373 0.2945
H24 H 0.3207 0.5346 0.0752
H25 H -0.0743 0.1848 -0.1625
H26 H -0.1283 0.1983 0.0345
H27 H -0.0587 0.1688 0.3278
H28 H -0.0448 0.1087 0.2499
H29 H 0.0497 0.1413 0.3371
H30 H 0.0978 0.3745 -0.1023
H61 H 0.0069 0.3356 -0.0507
H62 H 0.0368 0.3846 0.0894
H63 H 0.0643 0.2708 -0.3326
H64 H -0.0127 0.2261 -0.2625
H65 H -0.0118 0.2846 -0.1658
H66 H 0.2581 0.3061 0.4040
H67 H 0.3158 0.2952 0.2089
H68 H 0.3447 0.3463 0.3398
H69 H 0.5307 0.5284 -0.0272
H70 H 0.5301 0.4700 -0.1245
H71 H 0.4279 0.5034 -0.1114
H72 H 0.6088 0.4914 0.2424
H73 H 0.5604 0.4414 0.3513
H74 H 0.6050 0.4335 0.1416
H75 H 0.1450 0.0819 -0.2895
H76 H 0.0188 0.0650 0.0718
H77 H -0.1963 0.1317 -0.1124
H78 H 0.1134 0.4933 -0.1631
C31 C -0.1752(3) 0.40675(16) -0.6605(5)
C32 C -0.1088(3) 0.45172(17) -0.6600(5)
C33 C -0.1442(3) 0.49284(15) -0.5375(5)
C34 C -0.1537(3) 0.47598(14) -0.3415(5)
C35 C -0.2161(2) 0.42788(14) -0.3447(5)
C36 C -0.2374(3) 0.40761(16) -0.1569(5)
C37 C -0.3202(3) 0.37099(15) -0.1661(5)
C38 C -0.3049(3) 0.32611(15) -0.2953(5)
C39 C -0.2715(2) 0.34626(14) -0.4781(5)
C40 C -0.1874(2) 0.38439(15) -0.4714(5)
C41 C -0.2571(3) 0.30294(17) -0.6107(6)
C42 C -0.3182(3) 0.25793(16) -0.5838(5)
C43 C -0.3821(3) 0.25317(15) -0.4561(5)
C44 C -0.4011(2) 0.29730(14) -0.3304(5)
C45 C -0.4418(3) 0.28037(16) -0.1489(6)
C46 C -0.5092(3) 0.23604(17) -0.1657(6)
C47 C -0.4649(3) 0.19053(16) -0.2566(5)
C48 C -0.4389(3) 0.20462(15) -0.4508(6)
C49 C -0.5256(3) 0.20742(17) -0.5803(6)
C50 C -0.5880(3) 0.16051(17) -0.5798(7)
C51 C -0.6157(3) 0.14975(20) -0.3857(8)
C52 C -0.5306(3) 0.14494(18) -0.2575(7)
C53 C -0.0579(3) 0.46707(14) -0.2486(5)
C54 C -0.2051(3) 0.51832(16) -0.2431(7)
C55 C -0.2337(3) 0.29013(16) -0.2069(6)
C56 C -0.0948(3) 0.35895(15) -0.4126(5)
C57 C -0.4774(3) 0.33065(16) -0.4250(6)
C58 C -0.3783(3) 0.17266(17) -0.1479(6)
C59 C -0.5401(4) 0.11486(21) -0.6608(8)
C60 C -0.6768(4) 0.17128(26) -0.6946(10)
O6 O -0.1050(3) 0.47015(15) -0.8377(4)
O7 O -0.0845(2) 0.53614(12) -0.5546(4)
O8 O -0.0023(2) 0.51187(11) -0.2288(4)
O9 O -0.3094(2) 0.15507(14) -0.2219(5)
O10 O -0.3891(4) 0.17178(19) 0.0226(5)
H31 H -0.1484 0.3788 -0.7441
H32 H -0.2409 0.4184 -0.7117
H33 H -0.0421 0.4406 -0.6124
H34 H -0.2128 0.5022 -0.5790
H35 H -0.2780 0.4422 -0.4043
H36 H -0.2538 0.4378 -0.0726
H37 H -0.1781 0.3888 -0.1040
H38 H -0.3801 0.3907 -0.2108
H39 H -0.3306 0.3568 -0.0364
H40 H -0.3268 0.3690 -0.5261
H41 H -0.1871 0.2913 -0.5978
H42 H -0.2705 0.3166 -0.7415
H43 H -0.3107 0.2290 -0.6681
H44 H -0.4777 0.3109 -0.0939
H45 H -0.3860 0.2700 -0.0616
H46 H -0.5684 0.2472 -0.2426
H47 H -0.5294 0.2255 -0.0364
H48 H -0.3964 0.1754 -0.4966
H49 H -0.5023 0.2127 -0.7116
H50 H -0.5661 0.2384 -0.5431
H51 H -0.6537 0.1160 -0.3836
H52 H -0.6579 0.1793 -0.3415
H53 H -0.5545 0.1399 -0.1265
H54 H -0.4923 0.1132 -0.2953
H55 H -0.0209 0.4411 -0.3253
H56 H -0.0685 0.4521 -0.1201
H57 H -0.2130 0.5082 -0.1079
H58 H -0.1660 0.5516 -0.2495
H59 H -0.2713 0.5240 -0.3050
H60 H -0.2227 0.2596 -0.2930
H83 H -0.1702 0.3091 -0.1825
H84 H -0.2594 0.2770 -0.0846
H85 H -0.0796 0.3301 -0.5034
H86 H -0.0407 0.3856 -0.4112
H87 H -0.1010 0.3438 -0.2830
H88 H -0.4923 0.3614 -0.3424
H89 H -0.4529 0.3436 -0.5484
H90 H -0.5384 0.3094 -0.4480
H91 H -0.5853 0.0838 -0.6576
H92 H -0.5236 0.1226 -0.7947
H93 H -0.4785 0.1068 -0.5859
H94 H -0.7203 0.1395 -0.6956
H95 H -0.7125 0.2109 -0.6399
H96 H -0.6584 0.1798 -0.8268
H97 H -0.0640 0.4982 -0.8403
H98 H -0.1096 0.5635 -0.4895
H99 H 0.0085 0.5257 -0.3442
H100 H -0.3392 0.1612 0.1009
C61 C -0.2626(6) 0.08778(33) 0.3623(10)
O11 O -0.2638(3) 0.11785(27) 0.2151(6)
H79 H -0.2992 0.1029 0.4700
H80 H -0.2757 0.0499 0.3313
H81 H -0.1933 0.0870 0.4134
H82 H -0.2198 0.1207 0.1225
loop_
_geom_bond_atom_site_label_1
_geom_bond_atom_site_label_2
_geom_bond_site_symmetry_1
_geom_bond_site_symmetry_2
C1 C2 1_555 1_555
C2 C3 1_555 1_555
C3 C4 1_555 1_555
C4 C5 1_555 1_555
C5 C6 1_555 1_555
C6 C7 1_555 1_555
C7 C8 1_555 1_555
C8 C9 1_555 1_555
C9 C10 1_555 1_555
C10 C1 1_555 1_555
C11 C9 1_555 1_555
C12 C11 1_555 1_555
C13 C12 1_555 1_555
C14 C8 1_555 1_555
C15 C14 1_555 1_555
C16 C15 1_555 1_555
C17 C16 1_555 1_555
C18 C13 1_555 1_555
C19 C18 1_555 1_555
C20 C19 1_555 1_555
C21 C20 1_555 1_555
C22 C17 1_555 1_555
C23 C4 1_555 1_555
C24 C4 1_555 1_555
C25 C8 1_555 1_555
C26 C10 1_555 1_555
C27 C14 1_555 1_555
C28 C17 1_555 1_555
C29 C20 1_555 1_555
C30 C20 1_555 1_555
O1 C2 1_555 1_555
O2 C3 1_555 1_555
O3 C23 1_555 1_555
O4 C28 1_555 1_555
O5 C28 1_555 1_555
C31 C32 1_555 1_555
C32 C33 1_555 1_555
C33 C34 1_555 1_555
C34 C35 1_555 1_555
C35 C36 1_555 1_555
C36 C37 1_555 1_555
C37 C38 1_555 1_555
C38 C39 1_555 1_555
C39 C40 1_555 1_555
C40 C31 1_555 1_555
C41 C39 1_555 1_555
C42 C41 1_555 1_555
C43 C42 1_555 1_555
C44 C38 1_555 1_555
C45 C44 1_555 1_555
C46 C45 1_555 1_555
C47 C46 1_555 1_555
C48 C43 1_555 1_555
C49 C48 1_555 1_555
C50 C49 1_555 1_555
C51 C50 1_555 1_555
C52 C47 1_555 1_555
C53 C34 1_555 1_555
C54 C34 1_555 1_555
C55 C38 1_555 1_555
C56 C40 1_555 1_555
C57 C44 1_555 1_555
C58 C47 1_555 1_555
C59 C50 1_555 1_555
C60 C50 1_555 1_555
O6 C32 1_555 1_555
O7 C33 1_555 1_555
O8 C53 1_555 1_555
O9 C58 1_555 1_555
O10 C58 1_555 1_555
C61 O11 1_555 1_555
O11 H82 1_555 1_555
H1 C1 1_555 1_555
H2 C1 1_555 1_555
H3 C2 1_555 1_555
H4 C3 1_555 1_555
H5 C5 1_555 1_555
H6 C6 1_555 1_555
H7 C6 1_555 1_555
H8 C7 1_555 1_555
H9 C7 1_555 1_555
H10 C9 1_555 1_555
H11 C11 1_555 1_555
H12 C11 1_555 1_555
H13 C12 1_555 1_555
H14 C15 1_555 1_555
H15 C15 1_555 1_555
H16 C16 1_555 1_555
H17 C16 1_555 1_555
H18 C18 1_555 1_555
H19 C19 1_555 1_555
H20 C19 1_555 1_555
H21 C21 1_555 1_555
H22 C21 1_555 1_555
H23 C22 1_555 1_555
H24 C22 1_555 1_555
H25 C23 1_555 1_555
H26 C23 1_555 1_555
H27 C24 1_555 1_555
H28 C24 1_555 1_555
H29 C24 1_555 1_555
H30 C25 1_555 1_555
H31 C31 1_555 1_555
H32 C31 1_555 1_555
H33 C32 1_555 1_555
H34 C33 1_555 1_555
H35 C35 1_555 1_555
H36 C36 1_555 1_555
H37 C36 1_555 1_555
H38 C37 1_555 1_555
H39 C37 1_555 1_555
H40 C39 1_555 1_555
H41 C41 1_555 1_555
H42 C41 1_555 1_555
H43 C42 1_555 1_555
H44 C45 1_555 1_555
H45 C45 1_555 1_555
H46 C46 1_555 1_555
H47 C46 1_555 1_555
H48 C48 1_555 1_555
H49 C49 1_555 1_555
H50 C49 1_555 1_555
H51 C51 1_555 1_555
H52 C51 1_555 1_555
H53 C52 1_555 1_555
H54 C52 1_555 1_555
H55 C53 1_555 1_555
H56 C53 1_555 1_555
H57 C54 1_555 1_555
H58 C54 1_555 1_555
H59 C54 1_555 1_555
H60 C55 1_555 1_555
H61 C25 1_555 1_555
H62 C25 1_555 1_555
H63 C26 1_555 1_555
H64 C26 1_555 1_555
H65 C26 1_555 1_555
H66 C27 1_555 1_555
H67 C27 1_555 1_555
H68 C27 1_555 1_555
H69 C29 1_555 1_555
H70 C29 1_555 1_555
H71 C29 1_555 1_555
H72 C30 1_555 1_555
H73 C30 1_555 1_555
H74 C30 1_555 1_555
H75 O1 1_555 1_555
H76 O2 1_555 1_555
H77 O3 1_555 1_555
H78 O5 1_555 1_555
H79 C61 1_555 1_555
H80 C61 1_555 1_555
H81 C61 1_555 1_555
H83 C55 1_555 1_555
H84 C55 1_555 1_555
H85 C56 1_555 1_555
H86 C56 1_555 1_555
H87 C56 1_555 1_555
H88 C57 1_555 1_555
H89 C57 1_555 1_555
H90 C57 1_555 1_555
H91 C59 1_555 1_555
H92 C59 1_555 1_555
H93 C59 1_555 1_555
H94 C60 1_555 1_555
H95 C60 1_555 1_555
H96 C60 1_555 1_555
H97 O6 1_555 1_555
H98 O7 1_555 1_555
H99 O8 1_555 1_555
H100 O10 1_555 1_555
C5 C10 1_555 1_555
C13 C14 1_555 1_555
C17 C18 1_555 1_555
C21 C22 1_555 1_555
C35 C40 1_555 1_555
C43 C44 1_555 1_555
C47 C48 1_555 1_555
C51 C52 1_555 1_555

#END
