
#######################################################################
#
#                 Cambridge Crystallographic Data Centre
#                                CCDC 
#
#######################################################################
#
# If this CIF has been generated from an entry in the Cambridge 
# Structural Database, then it will include bibliographic, chemical, 
# crystal, experimental, refinement or atomic coordinate data resulting 
# from the CCDC's data processing and validation procedures.
#
#######################################################################

data_KAZMUT
_chemical_compound_source        'red algae Laurencia caespitosa Lamx'
_chemical_formula_moiety         'C17 H26 Br1 Cl1 O4'
_chemical_name_systematic        
6-Bromo-1-chloro-4-(5-acetoxy-3,6-epoxy-6-methyl-2-oxoheptan-3-yl)-1-methylcyclohexane
_symmetry_cell_setting           orthorhombic
_symmetry_space_group_name_H-M   'P 21 21 21'
_symmetry_Int_Tables_number      19
_space_group_name_Hall           'P 2ac 2ab'
loop_
_symmetry_equiv_pos_site_id
_symmetry_equiv_pos_as_xyz
1 x,y,z
2 1/2+x,1/2-y,-z
3 -x,1/2+y,1/2-z
4 1/2-x,-y,1/2+z
_cell_length_a                   5.918(1)
_cell_length_b                   11.573(1)
_cell_length_c                   27.364(14)
_cell_angle_alpha                90
_cell_angle_beta                 90
_cell_angle_gamma                90
_cell_volume                     1874.13
_chemical_melting_point          '371-373 K'
_cell_formula_units_Z            4
loop_
_atom_site_label
_atom_site_type_symbol
_atom_site_fract_x
_atom_site_fract_y
_atom_site_fract_z
Br1 Br 0.18656(33) 0.78748(14) 0.81086(6)
Cl1 Cl 0.15961(78) 0.61478(32) 0.91250(15)
O1 O -0.2182(15) 1.15855(70) 0.89985(28)
O2 O -0.3338(18) 1.10560(77) 0.79818(30)
O3 O -0.6700(21) 1.06221(88) 0.97052(35)
O4 O -0.6314(25) 1.0631(11) 0.75410(45)
C1 C 0.0428(24) 0.8217(11) 0.87400(46)
C2 C -0.0700(24) 0.7156(12) 0.89639(47)
C3 C -0.1778(29) 0.7534(11) 0.94498(47)
C4 C -0.3415(26) 0.8525(11) 0.93858(45)
C5 C -0.2245(23) 0.9560(10) 0.91565(43)
C6 C -0.1251(24) 0.9207(11) 0.86655(45)
C7 C -0.3707(22) 1.0661(10) 0.91163(43)
C8 C -0.5523(25) 1.0693(11) 0.87141(48)
C9 C -0.4725(24) 1.1597(11) 0.83508(48)
C10 C -0.3180(27) 1.2382(10) 0.86600(44)
C11 C -0.4773(26) 1.0893(12) 0.96214(50)
C12 C -0.3250(30) 1.1378(12) 1.00073(49)
C13 C -0.2316(28) 0.6510(13) 0.86393(53)
C14 C -0.1337(25) 1.2990(12) 0.83852(49)
C15 C -0.4684(27) 1.3252(13) 0.89337(53)
C16 C -0.4332(29) 1.0546(14) 0.75921(58)
C17 C -0.2707(32) 0.9885(14) 0.73006(58)
H1 H 0.198 0.848 0.899
H2 H -0.051 0.780 0.968
H3 H -0.256 0.686 0.961
H4 H -0.408 0.876 0.971
H5 H -0.467 0.827 0.916
H6 H -0.096 0.978 0.939
H7 H -0.256 0.893 0.844
H8 H -0.053 0.989 0.850
H9 H -0.707 1.091 0.886
H10 H -0.571 0.991 0.855
H11 H -0.604 1.203 0.818
H12 H -0.313 1.080 1.028
H13 H -0.396 1.211 1.014
H14 H -0.159 1.162 0.995
H15 H -0.301 0.582 0.881
H16 H -0.159 0.624 0.833
H17 H -0.363 0.705 0.854
H18 H -0.036 1.242 0.820
H19 H -0.030 1.343 0.862
H20 H -0.198 1.356 0.815
H21 H -0.378 1.370 0.918
H22 H -0.594 1.283 0.912
H23 H -0.542 1.382 0.870
H24 H -0.195 0.927 0.750
H25 H -0.146 1.043 0.717
H26 H -0.336 0.950 0.700
loop_
_geom_bond_atom_site_label_1
_geom_bond_atom_site_label_2
_geom_bond_site_symmetry_1
_geom_bond_site_symmetry_2
Br1 C1 1_555 1_555
Cl1 C2 1_555 1_555
O1 C7 1_555 1_555
O2 C9 1_555 1_555
O3 C11 1_555 1_555
O4 C16 1_555 1_555
C1 C2 1_555 1_555
C2 C3 1_555 1_555
C3 C4 1_555 1_555
C4 C5 1_555 1_555
C5 C6 1_555 1_555
C6 C1 1_555 1_555
C7 C5 1_555 1_555
C8 C7 1_555 1_555
C9 C8 1_555 1_555
C10 O1 1_555 1_555
C11 C7 1_555 1_555
C12 C11 1_555 1_555
C13 C2 1_555 1_555
C14 C10 1_555 1_555
C15 C10 1_555 1_555
C16 O2 1_555 1_555
C17 C16 1_555 1_555
H1 C1 1_555 1_555
H2 C3 1_555 1_555
H3 C3 1_555 1_555
H4 C4 1_555 1_555
H5 C4 1_555 1_555
H6 C5 1_555 1_555
H7 C6 1_555 1_555
H8 C6 1_555 1_555
H9 C8 1_555 1_555
H10 C8 1_555 1_555
H11 C9 1_555 1_555
H12 C12 1_555 1_555
H13 C12 1_555 1_555
H14 C12 1_555 1_555
H15 C13 1_555 1_555
H16 C13 1_555 1_555
H17 C13 1_555 1_555
H18 C14 1_555 1_555
H19 C14 1_555 1_555
H20 C14 1_555 1_555
H21 C15 1_555 1_555
H22 C15 1_555 1_555
H23 C15 1_555 1_555
H24 C17 1_555 1_555
H25 C17 1_555 1_555
H26 C17 1_555 1_555
C9 C10 1_555 1_555

#END
