
#######################################################################
#
#                 Cambridge Crystallographic Data Centre
#                                CCDC 
#
#######################################################################
#
# If this CIF has been generated from an entry in the Cambridge 
# Structural Database, then it will include bibliographic, chemical, 
# crystal, experimental, refinement or atomic coordinate data resulting 
# from the CCDC's data processing and validation procedures.
#
#######################################################################

data_KAZMOQ
_chemical_formula_moiety         
'C29 H23 F3 N2 O1 1+,Cl1 1-,0.5(H2 O1),x(C1 H2 Cl2)'
_chemical_name_systematic        
'1-[4,4-diphenyl-2-({[4-(trifluoromethoxy)phenyl]methyl}amino)butyl]pyridin-1-ium chloride dichloromethane solvate hemihydrate'
_symmetry_cell_setting           monoclinic
_symmetry_space_group_name_H-M   'C 2'
_symmetry_Int_Tables_number      5
_space_group_name_Hall           'C 2y'
loop_
_symmetry_equiv_pos_site_id
_symmetry_equiv_pos_as_xyz
1 x,y,z
2 -x,y,-z
3 1/2+x,1/2+y,z
4 1/2-x,1/2+y,-z
_cell_length_a                   16.4745(13)
_cell_length_b                   10.3337(8)
_cell_length_c                   18.463(2)
_cell_angle_alpha                90
_cell_angle_beta                 112.448(5)
_cell_angle_gamma                90
_cell_volume                     2905.02
_exptl_crystal_colour            colorless
_exptl_crystal_description       plate
_cell_formula_units_Z            4
loop_
_atom_site_label
_atom_site_type_symbol
_atom_site_fract_x
_atom_site_fract_y
_atom_site_fract_z
Cl1 Cl 0.11239(7) 0.67697(11) 0.45126(7)
C1 C 0.2319(3) 0.5532(4) 0.3214(3)
H1 H 0.2634 0.5448 0.2848
N1 N 0.1798(2) 0.6695(4) 0.3010(2)
H2 H 0.146(4) 0.680(7) 0.330(3)
C2 C 0.1284(7) 0.6898(18) 0.2178(5)
H3 H 0.0777 0.7465 0.2116
H4 H 0.1054 0.6058 0.1927
C3 C 0.1836(6) 0.7513(9) 0.1776(5)
C4 C 0.1993(9) 0.6870(11) 0.1190(7)
H5 H 0.1756 0.6031 0.1030
C5 C 0.2507(10) 0.7470(11) 0.0834(7)
H6 H 0.2637 0.7043 0.0435
C6 C 0.2814(8) 0.8682(9) 0.1073(6)
C7 C 0.2662(7) 0.9335(10) 0.1645(6)
H7 H 0.2880 1.0187 0.1791
C8 C 0.2178(7) 0.8709(9) 0.2007(6)
H8 H 0.2082 0.9125 0.2426
O1 O 0.3256(5) 0.9403(9) 0.0653(5)
C9 C 0.4093(10) 0.9234(15) 0.0860(11)
F1 F 0.4426(8) 1.0140(13) 0.0566(9)
F2 F 0.4537(5) 0.9446(10) 0.1598(6)
F3 F 0.4298(8) 0.8063(12) 0.0743(8)
C10 C 0.3010(3) 0.5683(4) 0.4047(3)
H9 H 0.2715 0.5785 0.4421
H10 H 0.3381 0.4897 0.4194
N2 N 0.35634(19) 0.6826(4) 0.4086(2)
C11 C 0.4274(3) 0.6687(5) 0.3906(3)
H11 H 0.4444 0.5848 0.3808
C12 C 0.4751(3) 0.7728(5) 0.3864(4)
H12 H 0.5248 0.7624 0.3727
C13 C 0.4509(4) 0.8956(5) 0.4022(4)
H13 H 0.4840 0.9698 0.4000
C14 C 0.3786(3) 0.9068(4) 0.4210(4)
H14 H 0.3610 0.9895 0.4321
C15 C 0.3315(3) 0.7990(4) 0.4237(3)
H15 H 0.2810 0.8072 0.4364
C16 C 0.1781(3) 0.4302(4) 0.3148(3)
H16 H 0.1516 0.4344 0.3546
H17 H 0.1294 0.4298 0.2627
C17 C 0.2273(3) 0.3025(4) 0.3249(3)
H18 H 0.2718 0.3013 0.3799
C18 C 0.2772(3) 0.2850(4) 0.2720(3)
C19 C 0.2438(4) 0.3182(5) 0.1933(3)
H19 H 0.1865 0.3540 0.1701
C20 C 0.2947(5) 0.2989(6) 0.1478(4)
H20 H 0.2721 0.3224 0.0940
C21 C 0.3755(4) 0.2468(6) 0.1809(5)
H21 H 0.4094 0.2338 0.1499
C22 C 0.4091(4) 0.2127(5) 0.2571(5)
H22 H 0.4659 0.1749 0.2791
C23 C 0.3608(3) 0.2330(4) 0.3033(4)
H23 H 0.3855 0.2107 0.3573
C24 C 0.1645(3) 0.1887(4) 0.3178(3)
C25 C 0.1808(3) 0.1090(4) 0.3799(3)
H24 H 0.2305 0.1253 0.4265
C26 C 0.1273(4) 0.0045(4) 0.3776(4)
H25 H 0.1411 -0.0506 0.4219
C27 C 0.0555(4) -0.0187(5) 0.3126(4)
H26 H 0.0175 -0.0885 0.3114
C28 C 0.0380(4) 0.0580(6) 0.2489(4)
H27 H -0.0119 0.0406 0.2026
C29 C 0.0927(4) 0.1626(5) 0.2509(3)
H28 H 0.0801 0.2156 0.2059
H29? H 0.137(4) 0.670(7) 0.321(3)
C30? C 0.1405(10) 0.700(3) 0.2164(7)
H30? H 0.0989 0.7729 0.2071
H31? H 0.1076 0.6238 0.1870
C31? C 0.2125(9) 0.7352(14) 0.1878(7)
C32? C 0.2332(12) 0.6628(17) 0.1346(11)
H32? H 0.2016 0.5855 0.1140
C33? C 0.3005(12) 0.7020(19) 0.1105(11)
H33? H 0.3147 0.6524 0.0737
C34? C 0.3444(11) 0.8117(17) 0.1408(10)
C35? C 0.3250(12) 0.8856(17) 0.1912(10)
H34? H 0.3549 0.9649 0.2096
C36? C 0.2605(11) 0.8439(16) 0.2158(10)
H35? H 0.2489 0.8935 0.2541
O2? O 0.4238(10) 0.849(2) 0.1276(11)
C37? C 0.4093(14) 0.919(2) 0.0665(14)
F4? F 0.3479(11) 1.0042(16) 0.0420(8)
F5? F 0.3861(14) 0.858(2) 0.0005(10)
F6? F 0.4793(13) 0.954(3) 0.0589(14)
O3? O 0.007(4) 0.8896(6) 0.505(3)
H36? H 0.040(10) 0.830(12) 0.500(8)
H37? H -0.025(10) 0.854(14) 0.526(9)
loop_
_geom_bond_atom_site_label_1
_geom_bond_atom_site_label_2
_geom_bond_site_symmetry_1
_geom_bond_site_symmetry_2
C1 H1 1_555 1_555
N1 C1 1_555 1_555
H2 N1 1_555 1_555
C2 N1 1_555 1_555
H3 C2 1_555 1_555
H4 C2 1_555 1_555
C3 C2 1_555 1_555
C4 C3 1_555 1_555
H5 C4 1_555 1_555
C5 C4 1_555 1_555
H6 C5 1_555 1_555
C6 C5 1_555 1_555
C7 C6 1_555 1_555
H7 C7 1_555 1_555
C8 C3 1_555 1_555
H8 C8 1_555 1_555
O1 C6 1_555 1_555
C9 O1 1_555 1_555
F1 C9 1_555 1_555
F2 C9 1_555 1_555
F3 C9 1_555 1_555
C10 C1 1_555 1_555
H9 C10 1_555 1_555
H10 C10 1_555 1_555
N2 C10 1_555 1_555
C11 N2 1_555 1_555
H11 C11 1_555 1_555
C12 C11 1_555 1_555
H12 C12 1_555 1_555
C13 C12 1_555 1_555
H13 C13 1_555 1_555
C14 C13 1_555 1_555
H14 C14 1_555 1_555
C15 N2 1_555 1_555
H15 C15 1_555 1_555
C16 C1 1_555 1_555
H16 C16 1_555 1_555
H17 C16 1_555 1_555
C17 C16 1_555 1_555
H18 C17 1_555 1_555
C18 C17 1_555 1_555
C19 C18 1_555 1_555
H19 C19 1_555 1_555
C20 C19 1_555 1_555
H20 C20 1_555 1_555
C21 C20 1_555 1_555
H21 C21 1_555 1_555
C22 C21 1_555 1_555
H22 C22 1_555 1_555
C23 C18 1_555 1_555
H23 C23 1_555 1_555
C24 C17 1_555 1_555
C25 C24 1_555 1_555
H24 C25 1_555 1_555
C26 C25 1_555 1_555
H25 C26 1_555 1_555
C27 C26 1_555 1_555
H26 C27 1_555 1_555
C28 C27 1_555 1_555
H27 C28 1_555 1_555
C29 C24 1_555 1_555
H28 C29 1_555 1_555
C7 C8 1_555 1_555
C14 C15 1_555 1_555
C22 C23 1_555 1_555
C28 C29 1_555 1_555

#END
