
#######################################################################
#
#                 Cambridge Crystallographic Data Centre
#                                CCDC 
#
#######################################################################
#
# If this CIF has been generated from an entry in the Cambridge 
# Structural Database, then it will include bibliographic, chemical, 
# crystal, experimental, refinement or atomic coordinate data resulting 
# from the CCDC's data processing and validation procedures.
#
#######################################################################

data_KAZNAA
_chemical_compound_source        'stem parts of Artabotrys Uncinatus'
_chemical_formula_moiety         'C19 H21 N1 O4'
_chemical_name_systematic        Artacinatine
_symmetry_cell_setting           triclinic
_symmetry_space_group_name_H-M   'P -1'
_symmetry_Int_Tables_number      2
_space_group_name_Hall           '-P 1'
loop_
_symmetry_equiv_pos_site_id
_symmetry_equiv_pos_as_xyz
1 x,y,z
2 -x,-y,-z
_cell_length_a                   10.104(3)
_cell_length_b                   10.814(3)
_cell_length_c                   8.050(1)
_cell_angle_alpha                107.12(2)
_cell_angle_beta                 102.50(2)
_cell_angle_gamma                74.43(2)
_cell_volume                     800.686
_exptl_crystal_colour            greenish
_chemical_melting_point          160-162deg.C
_cell_formula_units_Z            2
loop_
_atom_site_label
_atom_site_type_symbol
_atom_site_fract_x
_atom_site_fract_y
_atom_site_fract_z
C1 C 0.3792(2) 0.2948(2) 0.3121(3)
C2 C 0.4706(3) 0.3246(2) 0.4665(3)
C3 C 0.6117(3) 0.3082(2) 0.4644(3)
C4 C 0.6656(2) 0.2532(2) 0.3096(3)
C5 C 0.8186(3) 0.2246(3) 0.3030(4)
C6 C 0.8450(2) 0.2134(3) 0.1200(4)
N1 N 0.7731(2) 0.1162(2) -0.0070(3)
C7 C 0.6321(2) 0.1404(2) -0.0093(3)
C8 C 0.5426(2) 0.0915(2) -0.1551(3)
C9 C 0.3983(2) 0.1328(2) -0.1620(3)
C10 C 0.3087(3) 0.0875(3) -0.3351(3)
C11 C 0.1645(3) 0.1663(4) -0.3522(4)
C12 C 0.1024(3) 0.2219(4) -0.1952(4)
C13 C 0.1981(2) 0.2933(2) -0.0469(3)
C14 C 0.3404(2) 0.2178(2) -0.0157(3)
C15 C 0.4304(2) 0.2466(2) 0.1491(3)
C16 C 0.5756(2) 0.2168(2) 0.1505(3)
O1 O 0.2431(2) 0.2956(2) 0.3137(2)
C17 C 0.1559(3) 0.4206(3) 0.3905(4)
O2 O 0.4117(2) 0.3642(2) 0.6185(2)
C18 C 0.4930(3) 0.4142(3) 0.7798(4)
C19 C 0.8275(3) 0.0516(3) -0.1725(4)
O3 O -0.0330(2) 0.3012(2) -0.2112(3)
O4 O 0.1569(2) 0.4077(2) 0.0319(2)
H1 H 0.677(2) 0.326(2) 0.567(3)
H2 H 0.864(3) 0.287(3) 0.383(4)
H3 H 0.869(3) 0.138(3) 0.330(4)
H4 H 0.812(2) 0.308(2) 0.097(4)
H5 H 0.948(2) 0.184(2) 0.106(3)
H6 H 0.579(2) 0.036(2) -0.262(3)
H7 H 0.308(3) -0.008(3) -0.350(4)
H8 H 0.359(3) 0.081(4) -0.429(4)
H9 H 0.102 0.104 -0.441
H10 H 0.164 0.245 -0.404
H11 H 0.089 0.138 -0.164
H12 H 0.057(3) 0.408(3) 0.329(4)
H13 H 0.154(3) 0.434(3) 0.521(4)
H14 H 0.194(3) 0.489(3) 0.384(5)
H15 H 0.429(3) 0.438(3) 0.855(4)
H16 H 0.572(3) 0.346(3) 0.812(4)
H17 H 0.533(3) 0.487(3) 0.781(4)
H18 H 0.804(3) -0.041(3) -0.222(4)
H19 H 0.793(4) 0.107(4) -0.258(5)
H20 H 0.921(3) 0.042(3) -0.145(4)
H21 H -0.015(3) 0.378(4) -0.134(5)
loop_
_geom_bond_atom_site_label_1
_geom_bond_atom_site_label_2
_geom_bond_site_symmetry_1
_geom_bond_site_symmetry_2
C1 C2 1_555 1_555
C2 C3 1_555 1_555
C3 C4 1_555 1_555
C4 C5 1_555 1_555
C5 C6 1_555 1_555
C6 N1 1_555 1_555
N1 C7 1_555 1_555
C7 C8 1_555 1_555
C8 C9 1_555 1_555
C9 C10 1_555 1_555
C10 C11 1_555 1_555
C11 C12 1_555 1_555
C12 C13 1_555 1_555
C13 C14 1_555 1_555
C14 C9 1_555 1_555
C15 C1 1_555 1_555
C16 C4 1_555 1_555
O1 C1 1_555 1_555
C17 O1 1_555 1_555
O2 C2 1_555 1_555
C18 O2 1_555 1_555
C19 N1 1_555 1_555
O3 C12 1_555 1_555
O4 C13 1_555 1_555
H1 C3 1_555 1_555
H2 C5 1_555 1_555
H3 C5 1_555 1_555
H4 C6 1_555 1_555
H5 C6 1_555 1_555
H6 C8 1_555 1_555
H7 C10 1_555 1_555
H8 C10 1_555 1_555
H9 C11 1_555 1_555
H10 C11 1_555 1_555
H11 C12 1_555 1_555
H12 C17 1_555 1_555
H13 C17 1_555 1_555
H14 C17 1_555 1_555
H15 C18 1_555 1_555
H16 C18 1_555 1_555
H17 C18 1_555 1_555
H18 C19 1_555 1_555
H19 C19 1_555 1_555
H20 C19 1_555 1_555
H21 O3 1_555 1_555
C7 C16 1_555 1_555
C14 C15 1_555 1_555
C15 C16 1_555 1_555

#END
