
#######################################################################
#
#                 Cambridge Crystallographic Data Centre
#                                CCDC 
#
#######################################################################
#
# If this CIF has been generated from an entry in the Cambridge 
# Structural Database, then it will include bibliographic, chemical, 
# crystal, experimental, refinement or atomic coordinate data resulting 
# from the CCDC's data processing and validation procedures.
#
#######################################################################

data_KAZNUX
_chemical_formula_moiety         'C29 H29 N1 O4'
_chemical_name_systematic        
'{2-[1-(4-methylphenyl)ethenyl]cyclohexyl}(phenyl)methyl 4-nitrobenzoate'
_symmetry_cell_setting           triclinic
_symmetry_space_group_name_H-M   'P -1'
_symmetry_Int_Tables_number      2
_space_group_name_Hall           '-P 1'
loop_
_symmetry_equiv_pos_site_id
_symmetry_equiv_pos_as_xyz
1 x,y,z
2 -x,-y,-z
_cell_length_a                   9.4816(6)
_cell_length_b                   10.0759(6)
_cell_length_c                   13.0176(8)
_cell_angle_alpha                83.550(3)
_cell_angle_beta                 89.861(3)
_cell_angle_gamma                84.338(3)
_cell_volume                     1229.7
_exptl_crystal_colour            colorless
_exptl_crystal_description       prism
_cell_formula_units_Z            2
loop_
_atom_site_label
_atom_site_type_symbol
_atom_site_fract_x
_atom_site_fract_y
_atom_site_fract_z
O1 O 0.82864(18) 0.74078(16) 0.18570(13)
O2 O 1.0591(2) 0.76740(19) 0.15338(15)
O3 O 1.2406(2) 0.2347(2) 0.52528(16)
O4 O 1.0256(3) 0.1805(2) 0.52527(18)
N1 N 1.1176(3) 0.2509(2) 0.49450(19)
C1 C 0.6365(3) 0.8297(2) 0.0638(2)
H1 H 0.6150 0.9037 0.0089
C2 C 0.6255(3) 0.6992(2) 0.0110(2)
H2 H 0.5345 0.7123 -0.0262
C3 C 0.6175(3) 0.5760(2) 0.0904(2)
H3 H 0.6057 0.4983 0.0547
H4 H 0.7056 0.5585 0.1295
C4 C 0.4945(3) 0.5970(3) 0.1644(2)
H5 H 0.4941 0.5186 0.2149
H6 H 0.4058 0.6072 0.1260
C5 C 0.5058(3) 0.7218(3) 0.2206(2)
H7 H 0.4226 0.7364 0.2630
H8 H 0.5884 0.7072 0.2657
C6 C 0.5179(3) 0.8465(3) 0.1429(2)
H9 H 0.4284 0.8690 0.1060
H10 H 0.5341 0.9213 0.1807
C7 C 0.7862(3) 0.8462(2) 0.1017(2)
H11 H 0.8518 0.8356 0.0442
C8 C 0.7959(3) 0.9836(2) 0.1358(2)
C9 C 0.7923(3) 1.0081(3) 0.2390(2)
H12 H 0.7884 0.9373 0.2910
C10 C 0.7944(3) 1.1387(3) 0.2645(2)
H13 H 0.7940 1.1545 0.3335
C11 C 0.7971(3) 1.2444(3) 0.1878(2)
H14 H 0.7955 1.3316 0.2052
C12 C 0.8023(3) 1.2214(2) 0.0847(2)
H15 H 0.8050 1.2928 0.0331
C13 C 0.8034(3) 1.0913(3) 0.0589(2)
H16 H 0.8091 1.0756 -0.0101
C14 C 0.9699(3) 0.7102(2) 0.1998(2)
C15 C 1.0025(3) 0.5903(2) 0.2790(2)
C16 C 1.1445(3) 0.5434(3) 0.2946(2)
H17 H 1.2140 0.5877 0.2583
C17 C 1.1832(3) 0.4306(3) 0.3643(2)
H18 H 1.2779 0.3984 0.3751
C18 C 1.0773(3) 0.3677(3) 0.4169(2)
C19 C 0.9349(3) 0.4118(3) 0.4027(2)
H19 H 0.8656 0.3672 0.4389
C20 C 0.8987(3) 0.5243(3) 0.3329(2)
H20 H 0.8037 0.5559 0.3221
C21 C 0.7383(3) 0.6860(2) -0.0707(2)
C22 C 0.8513(3) 0.5963(3) -0.0598(2)
H21 H 0.9202 0.5959 -0.1107
H22 H 0.8614 0.5341 -0.0012
C23 C 0.7210(3) 0.7865(3) -0.1645(2)
C24 C 0.8295(3) 0.8649(3) -0.1973(2)
H23 H 0.9137 0.8556 -0.1595
C25 C 0.8141(3) 0.9565(3) -0.2852(2)
H24 H 0.8876 1.0082 -0.3050
C26 C 0.6909(3) 0.9721(3) -0.3442(2)
C27 C 0.5831(3) 0.8942(3) -0.3118(2)
H25 H 0.4996 0.9032 -0.3505
C28 C 0.5963(3) 0.8033(3) -0.2235(2)
H26 H 0.5216 0.7531 -0.2032
C29 C 0.6736(3) 1.0714(3) -0.4405(2)
H27 H 0.6941 1.0254 -0.5003
H28 H 0.7378 1.1389 -0.4372
H29 H 0.5780 1.1131 -0.4450
loop_
_geom_bond_atom_site_label_1
_geom_bond_atom_site_label_2
_geom_bond_site_symmetry_1
_geom_bond_site_symmetry_2
O1 C7 1_555 1_555
O2 C14 1_555 1_555
O3 N1 1_555 1_555
O4 N1 1_555 1_555
N1 C18 1_555 1_555
C1 H1 1_555 1_555
C2 C1 1_555 1_555
H2 C2 1_555 1_555
C3 C2 1_555 1_555
H3 C3 1_555 1_555
H4 C3 1_555 1_555
C4 C3 1_555 1_555
H5 C4 1_555 1_555
H6 C4 1_555 1_555
C5 C4 1_555 1_555
H7 C5 1_555 1_555
H8 C5 1_555 1_555
C6 C1 1_555 1_555
H9 C6 1_555 1_555
H10 C6 1_555 1_555
C7 C1 1_555 1_555
H11 C7 1_555 1_555
C8 C7 1_555 1_555
C9 C8 1_555 1_555
H12 C9 1_555 1_555
C10 C9 1_555 1_555
H13 C10 1_555 1_555
C11 C10 1_555 1_555
H14 C11 1_555 1_555
C12 C11 1_555 1_555
H15 C12 1_555 1_555
C13 C8 1_555 1_555
H16 C13 1_555 1_555
C14 O1 1_555 1_555
C15 C14 1_555 1_555
C16 C15 1_555 1_555
H17 C16 1_555 1_555
C17 C16 1_555 1_555
H18 C17 1_555 1_555
C18 C17 1_555 1_555
C19 C18 1_555 1_555
H19 C19 1_555 1_555
C20 C15 1_555 1_555
H20 C20 1_555 1_555
C21 C2 1_555 1_555
C22 C21 1_555 1_555
H21 C22 1_555 1_555
H22 C22 1_555 1_555
C23 C21 1_555 1_555
C24 C23 1_555 1_555
H23 C24 1_555 1_555
C25 C24 1_555 1_555
H24 C25 1_555 1_555
C26 C25 1_555 1_555
C27 C26 1_555 1_555
H25 C27 1_555 1_555
C28 C23 1_555 1_555
H26 C28 1_555 1_555
C29 C26 1_555 1_555
H27 C29 1_555 1_555
H28 C29 1_555 1_555
H29 C29 1_555 1_555
C5 C6 1_555 1_555
C12 C13 1_555 1_555
C19 C20 1_555 1_555
C27 C28 1_555 1_555

#END
