
#######################################################################
#
#                 Cambridge Crystallographic Data Centre
#                                CCDC 
#
#######################################################################
#
# If this CIF has been generated from an entry in the Cambridge 
# Structural Database, then it will include bibliographic, chemical, 
# crystal, experimental, refinement or atomic coordinate data resulting 
# from the CCDC's data processing and validation procedures.
#
#######################################################################

data_KAZQUA
_chemical_formula_moiety         'C18 H16 Br1 F3 O3'
_chemical_name_systematic        
'4,4,4-trifluoro-3-hydroxy-2-methyl-3-phenylbutyl 4-bromobenzoate'
_symmetry_cell_setting           orthorhombic
_symmetry_space_group_name_H-M   'P 21 21 21'
_symmetry_Int_Tables_number      19
_space_group_name_Hall           'P 2ac 2ab'
loop_
_symmetry_equiv_pos_site_id
_symmetry_equiv_pos_as_xyz
1 x,y,z
2 1/2-x,-y,1/2+z
3 -x,1/2+y,1/2-z
4 1/2+x,1/2-y,-z
_cell_length_a                   5.8607(4)
_cell_length_b                   7.7375(12)
_cell_length_c                   37.867(2)
_cell_angle_alpha                90
_cell_angle_beta                 90
_cell_angle_gamma                90
_cell_volume                     1717.16
_exptl_crystal_colour            colorless
_exptl_crystal_description       needle
_cell_formula_units_Z            4
loop_
_atom_site_label
_atom_site_type_symbol
_atom_site_fract_x
_atom_site_fract_y
_atom_site_fract_z
Br1 Br -0.10763(12) 1.13120(9) 0.51537(2)
F1 F 0.8909(8) 0.0335(5) 0.61077(9)
F2 F 0.5897(8) -0.0035(5) 0.64246(11)
F3 F 0.9213(9) -0.0723(5) 0.66288(10)
O1 O 0.2392(7) 0.3546(6) 0.58372(12)
O2 O 0.5666(8) 0.5047(6) 0.58573(12)
O3 O 1.0704(8) 0.2734(7) 0.65279(12)
H1 H 1.101(15) 0.272(10) 0.6309(8)
C1 C 0.0388(11) 0.9332(8) 0.53465(16)
C2 C 0.2512(12) 0.9543(9) 0.55091(17)
H2 H 0.3234 1.0641 0.5522
C3 C 0.3523(11) 0.8066(9) 0.56519(17)
H3 H 0.4957 0.8155 0.5767
C4 C 0.2453(10) 0.6464(9) 0.56271(15)
C5 C 0.0374(10) 0.6303(9) 0.54570(15)
H4 H -0.0340 0.5205 0.5439
C6 C -0.0665(12) 0.7756(8) 0.53126(16)
H5 H -0.2081 0.7660 0.5192
C7 C 0.3456(12) 0.4860(9) 0.57853(16)
C8 C 0.6813(10) 0.3541(9) 0.60126(16)
H6 H 0.8423 0.3512 0.5933
H7 H 0.6060 0.2470 0.5929
C9 C 0.6733(11) 0.3609(10) 0.64169(16)
H8 H 0.5152 0.3308 0.6495
C10 C 0.7279(16) 0.5438(9) 0.6546(2)
H9 H 0.7223 0.5468 0.6804
H10 H 0.8808 0.5768 0.6466
H11 H 0.6155 0.6249 0.6450
C11 C 0.8424(12) 0.2300(9) 0.65886(17)
C12 C 0.8096(13) 0.0464(10) 0.64413(18)
C13 C 0.8033(12) 0.2254(9) 0.69917(17)
C14 C 0.6000(14) 0.1651(8) 0.71336(17)
H12 H 0.4827 0.1243 0.6982
C15 C 0.5672(14) 0.1641(10) 0.74988(19)
H13 H 0.4300 0.1196 0.7597
C16 C 0.7375(14) 0.2289(10) 0.77178(19)
H14 H 0.7156 0.2307 0.7966
C17 C 0.9373(14) 0.2904(10) 0.75756(18)
H15 H 1.0530 0.3347 0.7726
C18 C 0.9709(13) 0.2881(9) 0.72115(18)
H16 H 1.1098 0.3300 0.7115
loop_
_geom_bond_atom_site_label_1
_geom_bond_atom_site_label_2
_geom_bond_site_symmetry_1
_geom_bond_site_symmetry_2
Br1 C1 1_555 1_555
F1 C12 1_555 1_555
F2 C12 1_555 1_555
F3 C12 1_555 1_555
O1 C7 1_555 1_555
O2 C7 1_555 1_555
O3 H1 1_555 1_555
C1 C2 1_555 1_555
C2 H2 1_555 1_555
C3 C2 1_555 1_555
H3 C3 1_555 1_555
C4 C3 1_555 1_555
C5 C4 1_555 1_555
H4 C5 1_555 1_555
C6 C1 1_555 1_555
H5 C6 1_555 1_555
C7 C4 1_555 1_555
C8 O2 1_555 1_555
H6 C8 1_555 1_555
H7 C8 1_555 1_555
C9 C8 1_555 1_555
H8 C9 1_555 1_555
C10 C9 1_555 1_555
H9 C10 1_555 1_555
H10 C10 1_555 1_555
H11 C10 1_555 1_555
C11 O3 1_555 1_555
C12 C11 1_555 1_555
C13 C11 1_555 1_555
C14 C13 1_555 1_555
H12 C14 1_555 1_555
C15 C14 1_555 1_555
H13 C15 1_555 1_555
C16 C15 1_555 1_555
H14 C16 1_555 1_555
C17 C16 1_555 1_555
H15 C17 1_555 1_555
C18 C13 1_555 1_555
H16 C18 1_555 1_555
C5 C6 1_555 1_555
C9 C11 1_555 1_555
C17 C18 1_555 1_555

#END
