
#######################################################################
#
#                 Cambridge Crystallographic Data Centre
#                                CCDC 
#
#######################################################################
#
# If this CIF has been generated from an entry in the Cambridge 
# Structural Database, then it will include bibliographic, chemical, 
# crystal, experimental, refinement or atomic coordinate data resulting 
# from the CCDC's data processing and validation procedures.
#
#######################################################################

data_KAZREI
_chemical_compound_source        'leaves of Rabdosia japonica'
_chemical_formula_moiety         'C22 H26 O7'
_chemical_name_systematic        Glaucocalactone
_symmetry_cell_setting           orthorhombic
_symmetry_space_group_name_H-M   'P 21 21 21'
_symmetry_Int_Tables_number      19
_space_group_name_Hall           'P 2ac 2ab'
loop_
_symmetry_equiv_pos_site_id
_symmetry_equiv_pos_as_xyz
1 x,y,z
2 1/2+x,1/2-y,-z
3 -x,1/2+y,1/2-z
4 1/2-x,-y,1/2+z
_cell_length_a                   10.480(2)
_cell_length_b                   11.875(2)
_cell_length_c                   15.478(3)
_cell_angle_alpha                90
_cell_angle_beta                 90
_cell_angle_gamma                90
_cell_volume                     1926.24
_exptl_crystal_colour            colorless
_chemical_melting_point          318-320deg.C.(dec.)
_cell_formula_units_Z            4
loop_
_atom_site_label
_atom_site_type_symbol
_atom_site_fract_x
_atom_site_fract_y
_atom_site_fract_z
O1 O 1.0068(5) 0.1044(4) 0.2076(3)
O2 O 0.8093(5) 0.1348(5) 0.2477(3)
O3 O 1.4151(6) -0.1073(5) 0.4171(4)
O4 O 1.2105(5) -0.1529(4) 0.4294(3)
O5 O 0.9375(5) 0.1480(4) 0.4749(3)
O6 O 0.9607(8) 0.2669(5) 0.3663(4)
O7 O 1.2594(6) 0.1564(5) 0.3977(4)
C1 C 1.1102(7) 0.0225(6) 0.2101(4)
C2 C 1.2073(8) 0.0543(7) 0.1397(5)
C3 C 1.3185(8) -0.0303(7) 0.1406(5)
C4 C 1.3847(7) -0.0474(6) 0.2287(5)
C5 C 1.2769(7) -0.0734(6) 0.2935(4)
C6 C 1.3132(8) -0.1104(6) 0.3846(5)
C7 C 0.9088(7) 0.0909(6) 0.2632(4)
C8 C 0.9306(7) 0.0166(6) 0.3439(4)
C9 C 1.0690(7) -0.0151(5) 0.3683(4)
C10 C 1.1703(7) 0.0212(6) 0.3001(4)
C11 C 1.0856(8) -0.1420(6) 0.3896(4)
C12 C 0.9872(9) -0.1850(6) 0.4538(5)
C13 C 0.8524(8) -0.1382(7) 0.4304(5)
C14 C 0.8475(8) -0.0944(6) 0.3365(5)
C15 C 0.8600(7) 0.0715(6) 0.4232(4)
C16 C 0.8268(7) -0.0288(7) 0.4802(5)
C17 C 0.7830(9) -0.0211(8) 0.5595(5)
C18 C 1.4688(8) -0.1555(7) 0.2222(6)
C19 C 1.4687(8) 0.0536(7) 0.2504(6)
C20 C 1.2226(7) 0.1360(7) 0.3264(5)
C21 C 0.9734(9) 0.2460(7) 0.4419(5)
C22 C 1.0395(9) 0.3173(7) 0.5066(6)
H1 H 1.0820 -0.0546 0.1875
H2 H 1.1668 0.0526 0.0848
H3 H 1.2391 0.1278 0.1505
H4 H 1.2793 -0.1114 0.1250
H5 H 1.3907 -0.0293 0.1055
H6 H 1.2207 -0.1386 0.2715
H7 H 1.0820 0.0293 0.4375
H8 H 1.1093 -0.1933 0.3340
H9 H 1.0000 -0.1386 0.5215
H10 H 1.0000 -0.2773 0.4590
H11 H 0.7793 -0.1954 0.4590
H12 H 0.7793 0.1093 0.3965
H13 H 0.7500 -0.0546 0.3125
H14 H 0.8886 -0.1386 0.2930
H15 H 1.5293 0.0546 0.2090
H16 H 1.4454 0.1093 0.2500
H17 H 1.5293 0.0273 0.2930
H18 H 1.5293 -0.1680 0.2715
H19 H 1.5293 -0.1407 0.1875
H20 H 1.4180 -0.2227 0.2090
H21 H 0.7207 -0.0820 0.5840
H22 H 0.7793 0.0546 0.5840
H23 H 1.1134 0.2794 0.5269
H24 H 1.0636 0.3866 0.4806
H25 H 0.9836 0.3316 0.5537
H26 H 1.1933 0.2227 0.3125
loop_
_geom_bond_atom_site_label_1
_geom_bond_atom_site_label_2
_geom_bond_site_symmetry_1
_geom_bond_site_symmetry_2
O1 C1 1_555 1_555
O2 C7 1_555 1_555
O3 C6 1_555 1_555
O4 C6 1_555 1_555
O5 C15 1_555 1_555
O6 C21 1_555 1_555
O7 C20 1_555 1_555
C1 C2 1_555 1_555
C2 C3 1_555 1_555
C3 C4 1_555 1_555
C4 C5 1_555 1_555
C5 C6 1_555 1_555
C7 O1 1_555 1_555
C8 C7 1_555 1_555
C9 C8 1_555 1_555
C10 C1 1_555 1_555
C11 O4 1_555 1_555
C12 C11 1_555 1_555
C13 C12 1_555 1_555
C14 C8 1_555 1_555
C15 C8 1_555 1_555
C16 C13 1_555 1_555
C17 C16 1_555 1_555
C18 C4 1_555 1_555
C19 C4 1_555 1_555
C20 C10 1_555 1_555
C21 O5 1_555 1_555
C22 C21 1_555 1_555
H1 C1 1_555 1_555
H2 C2 1_555 1_555
H3 C2 1_555 1_555
H4 C3 1_555 1_555
H5 C3 1_555 1_555
H6 C5 1_555 1_555
H7 C9 1_555 1_555
H8 C11 1_555 1_555
H9 C12 1_555 1_555
H10 C12 1_555 1_555
H11 C13 1_555 1_555
H12 C15 1_555 1_555
H13 C14 1_555 1_555
H14 C14 1_555 1_555
H15 C19 1_555 1_555
H16 C19 1_555 1_555
H17 C19 1_555 1_555
H18 C18 1_555 1_555
H19 C18 1_555 1_555
H20 C18 1_555 1_555
H21 C17 1_555 1_555
H22 C17 1_555 1_555
H23 C22 1_555 1_555
H24 C22 1_555 1_555
H25 C22 1_555 1_555
H26 C20 1_555 1_555
C5 C10 1_555 1_555
C9 C10 1_555 1_555
C9 C11 1_555 1_555
C13 C14 1_555 1_555
C15 C16 1_555 1_555

#END
