
#######################################################################
#
#                 Cambridge Crystallographic Data Centre
#                                CCDC 
#
#######################################################################
#
# If this CIF has been generated from an entry in the Cambridge 
# Structural Database, then it will include bibliographic, chemical, 
# crystal, experimental, refinement or atomic coordinate data resulting 
# from the CCDC's data processing and validation procedures.
#
#######################################################################

data_KAZVOZ
_chemical_formula_moiety         'C11 H12 N2 O5'
_chemical_name_systematic        
4-[methoxy(4-nitrophenyl)methyl]-1,3-oxazolidin-2-one
_symmetry_cell_setting           monoclinic
_symmetry_space_group_name_H-M   'P 21'
_symmetry_Int_Tables_number      4
_space_group_name_Hall           'P 2yb'
loop_
_symmetry_equiv_pos_site_id
_symmetry_equiv_pos_as_xyz
1 x,y,z
2 -x,1/2+y,-z
_cell_length_a                   6.4316(5)
_cell_length_b                   8.2971(6)
_cell_length_c                   11.1074(8)
_cell_angle_alpha                90
_cell_angle_beta                 92.841(2)
_cell_angle_gamma                90
_cell_volume                     592.003
_exptl_crystal_colour            colorless
_exptl_crystal_description       plate
_cell_formula_units_Z            2
loop_
_atom_site_label
_atom_site_type_symbol
_atom_site_fract_x
_atom_site_fract_y
_atom_site_fract_z
O1 O 0.2282(2) 0.86031(19) 0.83298(15)
O2 O 0.5103(2) 0.99909(19) 0.82633(19)
O3 O 1.08238(19) 0.29452(18) 0.81216(11)
O4 O 0.8278(2) 0.00285(16) 0.56090(11)
O5 O 0.5011(2) 0.05006(17) 0.48649(12)
N1 N 0.4168(3) 0.8715(2) 0.82318(15)
N2 N 0.7211(2) 0.2557(2) 0.54880(14)
H1 H 0.637(4) 0.337(3) 0.542(2)
C1 C 0.5353(3) 0.7219(2) 0.80705(16)
C2 C 0.7388(3) 0.7338(2) 0.77094(16)
H2 H 0.8004 0.8358 0.7571
C3 C 0.8484(3) 0.5929(2) 0.75585(15)
H3 H 0.9873 0.5981 0.7308
C4 C 0.7591(3) 0.4432(2) 0.77669(15)
C5 C 0.5554(3) 0.4359(2) 0.81302(16)
H4 H 0.4934 0.3343 0.8273
C6 C 0.4424(3) 0.5758(2) 0.82857(16)
H5 H 0.3034 0.5710 0.8536
C7 C 0.8801(3) 0.2904(2) 0.75469(16)
H6 H 0.8019 0.1958 0.7852
C8 C 0.9161(3) 0.2667(2) 0.62075(15)
H7 H 1.0058 0.3547 0.5902
C9 C 1.0083(3) 0.1018(2) 0.59476(16)
H8 H 1.1046 0.1081 0.5281
H9 H 1.0842 0.0578 0.6672
C10 C 0.6659(3) 0.1018(2) 0.52833(15)
C11 C 1.0819(3) 0.2614(3) 0.93744(17)
H10 H 1.0019 0.3446 0.9773
H11 H 1.2253 0.2609 0.9716
H12 H 1.0182 0.1558 0.9499
loop_
_geom_bond_atom_site_label_1
_geom_bond_atom_site_label_2
_geom_bond_site_symmetry_1
_geom_bond_site_symmetry_2
O1 N1 1_555 1_555
O2 N1 1_555 1_555
O3 C7 1_555 1_555
O4 C9 1_555 1_555
O5 C10 1_555 1_555
N1 C1 1_555 1_555
N2 H1 1_555 1_555
C1 C2 1_555 1_555
C2 H2 1_555 1_555
C3 C2 1_555 1_555
H3 C3 1_555 1_555
C4 C3 1_555 1_555
C5 C4 1_555 1_555
H4 C5 1_555 1_555
C6 C1 1_555 1_555
H5 C6 1_555 1_555
C7 C4 1_555 1_555
H6 C7 1_555 1_555
C8 N2 1_555 1_555
H7 C8 1_555 1_555
C9 C8 1_555 1_555
H8 C9 1_555 1_555
H9 C9 1_555 1_555
C10 O4 1_555 1_555
C11 O3 1_555 1_555
H10 C11 1_555 1_555
H11 C11 1_555 1_555
H12 C11 1_555 1_555
N2 C10 1_555 1_555
C5 C6 1_555 1_555
C7 C8 1_555 1_555

#END
