
#######################################################################
#
#                 Cambridge Crystallographic Data Centre
#                                CCDC 
#
#######################################################################
#
# If this CIF has been generated from an entry in the Cambridge 
# Structural Database, then it will include bibliographic, chemical, 
# crystal, experimental, refinement or atomic coordinate data resulting 
# from the CCDC's data processing and validation procedures.
#
#######################################################################

data_KAZVIT
_chemical_formula_moiety         'C17 H17 N1 O2 S1'
_chemical_name_systematic        
4-[(benzylsulfanyl)(phenyl)methyl]-1,3-oxazolidin-2-one
_symmetry_cell_setting           orthorhombic
_symmetry_space_group_name_H-M   'P 21 21 21'
_symmetry_Int_Tables_number      19
_space_group_name_Hall           'P 2ac 2ab'
loop_
_symmetry_equiv_pos_site_id
_symmetry_equiv_pos_as_xyz
1 x,y,z
2 1/2+x,1/2-y,-z
3 -x,1/2+y,1/2-z
4 1/2-x,-y,1/2+z
_cell_length_a                   5.5735(3)
_cell_length_b                   14.7955(7)
_cell_length_c                   18.1915(9)
_cell_angle_alpha                90
_cell_angle_beta                 90
_cell_angle_gamma                90
_cell_volume                     1500.12
_exptl_crystal_colour            colorless
_exptl_crystal_description       plate
_cell_formula_units_Z            4
loop_
_atom_site_label
_atom_site_type_symbol
_atom_site_fract_x
_atom_site_fract_y
_atom_site_fract_z
S1 S 0.22914(13) 0.99674(5) 0.62383(4)
O1 O 1.0819(4) 1.25402(13) 0.58048(10)
O2 O 0.8815(3) 1.18377(14) 0.67086(10)
C1 C 0.2373(6) 1.0696(2) 0.38031(15)
H1 H 0.1007 1.0966 0.3581
C2 C 0.2579(6) 1.06768(19) 0.45625(14)
H2 H 0.1341 1.0927 0.4858
C3 C 0.4581(6) 1.02944(19) 0.48953(15)
C4 C 0.4938(5) 1.0324(2) 0.57194(16)
H3 H 0.6297 0.9912 0.5848
C5 C 0.2192(6) 0.8778(2) 0.60085(16)
H4 H 0.0679 0.8522 0.6203
H5 H 0.2145 0.8719 0.5467
C6 C 0.4272(6) 0.8217(2) 0.62974(16)
C7 C 0.7193(5) 0.7859(2) 0.72341(16)
H6 H 0.7933 0.7995 0.7691
C8 C 0.7914(6) 0.7113(2) 0.68348(16)
H7 H 0.9163 0.6737 0.7015
C9 C 0.9117(6) 1.2078(2) 0.59953(14)
N1 N 0.7360(5) 1.17269(16) 0.55803(13)
H8 H 0.696(5) 1.197(2) 0.5173(16)
C10 C 0.5519(6) 1.1268(2) 0.60132(14)
H9 H 0.4029 1.1644 0.6033
C11 C 0.5032(6) 0.7477(2) 0.59032(17)
H10 H 0.4323 0.7348 0.5440
C12 C 0.6823(6) 0.6914(2) 0.61743(17)
H11 H 0.7295 0.6394 0.5905
C13 C 0.6148(6) 0.9934(2) 0.36959(16)
H12 H 0.7382 0.9680 0.3401
C14 C 0.6341(5) 0.9918(2) 0.44563(16)
H13 H 0.7702 0.9644 0.4678
C15 C 0.6746(5) 1.1253(2) 0.67715(15)
H14 H 0.5640 1.1479 0.7156
H15 H 0.7245 1.0631 0.6901
C16 C 0.4162(6) 1.0321(2) 0.33668(16)
H16 H 0.4022 1.0330 0.2846
C17 C 0.5391(6) 0.8404(2) 0.69643(16)
H17 H 0.4904 0.8918 0.7239
loop_
_geom_bond_atom_site_label_1
_geom_bond_atom_site_label_2
_geom_bond_site_symmetry_1
_geom_bond_site_symmetry_2
S1 C4 1_555 1_555
O1 C9 1_555 1_555
O2 C9 1_555 1_555
C1 H1 1_555 1_555
C2 C1 1_555 1_555
H2 C2 1_555 1_555
C3 C2 1_555 1_555
C4 C3 1_555 1_555
H3 C4 1_555 1_555
C5 S1 1_555 1_555
H4 C5 1_555 1_555
H5 C5 1_555 1_555
C6 C5 1_555 1_555
C7 H6 1_555 1_555
C8 C7 1_555 1_555
H7 C8 1_555 1_555
C9 N1 1_555 1_555
N1 H8 1_555 1_555
C10 C4 1_555 1_555
H9 C10 1_555 1_555
C11 C6 1_555 1_555
H10 C11 1_555 1_555
C12 C8 1_555 1_555
H11 C12 1_555 1_555
C13 H12 1_555 1_555
C14 C3 1_555 1_555
H13 C14 1_555 1_555
C15 O2 1_555 1_555
H14 C15 1_555 1_555
H15 C15 1_555 1_555
C16 C1 1_555 1_555
H16 C16 1_555 1_555
C17 C6 1_555 1_555
H17 C17 1_555 1_555
C7 C17 1_555 1_555
N1 C10 1_555 1_555
C10 C15 1_555 1_555
C11 C12 1_555 1_555
C13 C14 1_555 1_555
C13 C16 1_555 1_555

#END
