
#######################################################################
#
#                 Cambridge Crystallographic Data Centre
#                                CCDC 
#
#######################################################################
#
# If this CIF has been generated from an entry in the Cambridge 
# Structural Database, then it will include bibliographic, chemical, 
# crystal, experimental, refinement or atomic coordinate data resulting 
# from the CCDC's data processing and validation procedures.
#
#######################################################################

data_KDGLUM02
_chemical_formula_moiety         'C6 H11 O7 1-,K1 1+,H2 O1'
_chemical_name_systematic        'Potassium D-gluconate monohydrate'
_symmetry_cell_setting           monoclinic
_symmetry_space_group_name_H-M   'P 21'
_symmetry_Int_Tables_number      4
_space_group_name_Hall           'P 2yb'
loop_
_symmetry_equiv_pos_site_id
_symmetry_equiv_pos_as_xyz
1 x,y,z
2 -x,1/2+y,-z
_cell_length_a                   9.3535(7)
_cell_length_b                   7.357(5)
_cell_length_c                   7.229(5)
_cell_angle_alpha                90
_cell_angle_beta                 109.39(2)
_cell_angle_gamma                90
_cell_volume                     469.239
_cell_formula_units_Z            2
loop_
_atom_site_label
_atom_site_type_symbol
_atom_site_fract_x
_atom_site_fract_y
_atom_site_fract_z
C1 C 0.24280 -0.40540 0.13430
C2 C 0.27120 -0.21390 0.22340
C3 C 0.26200 -0.22330 0.43070
C4 C 0.30960 -0.04880 0.55010
C5 C 0.22690 0.12540 0.45340
C6 C 0.05520 0.11230 0.37730
H1 H 0.18190 -0.12470 0.13080
H2 H 0.49300 -0.20920 0.30590
H3 H 0.14530 -0.25830 0.41930
H4 H 0.31370 -0.47600 0.52700
H5 H 0.43060 -0.02560 0.57430
H6 H 0.19950 -0.12520 0.72710
H7 H 0.26650 0.16110 0.33080
H8 H 0.22590 0.25580 0.68790
H9 H 0.01420 0.07100 0.49600
H10 H 0.01990 0.00880 0.26420
H11 H 0.04580 0.34920 0.24380
O1 O 0.34350 -0.47950 0.08660
O2 O 0.41020 -0.14130 0.22220
O3 O 0.36380 -0.36010 0.53860
O4 O 0.29780 -0.07260 0.73910
O5 O 0.27510 0.27160 0.59000
O6 O -0.01450 0.28000 0.30400
O7 O 0.11700 -0.47670 0.12150
H12 H 0.13860 0.32620 -0.03420
H13 H 0.05090 0.15040 -0.11570
O8 O 0.14130 0.21810 -0.10760
K1 K 0.46050 0.18140 0.06140
loop_
_geom_bond_atom_site_label_1
_geom_bond_atom_site_label_2
_geom_bond_site_symmetry_1
_geom_bond_site_symmetry_2
C1 C2 1_555 1_555
C2 C3 1_555 1_555
C3 C4 1_555 1_555
C4 C5 1_555 1_555
C5 C6 1_555 1_555
C6 H9 1_555 1_555
H1 C2 1_555 1_555
H2 O2 1_555 1_555
H3 C3 1_555 1_555
H4 O3 1_555 1_555
H5 C4 1_555 1_555
H6 O4 1_555 1_555
H7 C5 1_555 1_555
H8 O5 1_555 1_555
H10 C6 1_555 1_555
H11 O6 1_555 1_555
H12 O8 1_555 1_555
H13 O8 1_555 1_555
O1 C1 1_555 1_555
O2 C2 1_555 1_555
O3 C3 1_555 1_555
O4 C4 1_555 1_555
O5 C5 1_555 1_555
O6 C6 1_555 1_555
O7 C1 1_555 1_555

#END
