
#######################################################################
#
#                 Cambridge Crystallographic Data Centre
#                                CCDC 
#
#######################################################################
#
# If this CIF has been generated from an entry in the Cambridge 
# Structural Database, then it will include bibliographic, chemical, 
# crystal, experimental, refinement or atomic coordinate data resulting 
# from the CCDC's data processing and validation procedures.
#
#######################################################################

data_KDGLUM01
_chemical_formula_moiety         'C6 H11 O7 1-,K1 1+,H2 O1'
_chemical_name_systematic        'Potassium D-gluconate monohydrate'
_symmetry_cell_setting           orthorhombic
_symmetry_space_group_name_H-M   'P 21 21 21'
_symmetry_Int_Tables_number      19
_space_group_name_Hall           'P 2ac 2ab'
loop_
_symmetry_equiv_pos_site_id
_symmetry_equiv_pos_as_xyz
1 x,y,z
2 1/2+x,1/2-y,-z
3 -x,1/2+y,1/2-z
4 1/2-x,-y,1/2+z
_cell_length_a                   8.220(4)
_cell_length_b                   17.940(8)
_cell_length_c                   6.717(3)
_cell_angle_alpha                90
_cell_angle_beta                 90
_cell_angle_gamma                90
_cell_volume                     990.534
_cell_formula_units_Z            4
loop_
_atom_site_label
_atom_site_type_symbol
_atom_site_fract_x
_atom_site_fract_y
_atom_site_fract_z
C1 C 0.05050 -0.05370 -0.04890
C2 C -0.06800 0.00160 0.04870
C3 C 0.01710 0.05180 0.20340
C4 C -0.10230 0.10950 0.29010
C5 C -0.03040 0.16040 0.45110
C6 C -0.16610 0.20530 0.54780
H1 H -0.16300 -0.03060 0.12530
H2 H -0.06730 0.05260 -0.20810
H3 H 0.05900 0.01550 0.32500
H4 H 0.25090 0.07320 0.17330
H5 H -0.20430 0.07790 0.35340
H6 H -0.18450 0.12790 0.02520
H7 H 0.05630 0.19860 0.37990
H8 H 0.15890 0.10840 0.57040
H9 H -0.24110 0.16670 0.63330
H10 H -0.24210 0.22970 0.43320
H11 H -0.10960 0.30820 0.61570
O1 O 0.07010 -0.04770 -0.23210
O2 O -0.14590 0.04480 -0.10100
O3 O 0.14910 0.08950 0.11330
O4 O -0.15930 0.15960 0.13940
O5 O 0.04800 0.12000 0.60470
O6 O -0.10970 0.26130 0.68090
O7 O 0.11860 -0.10150 0.06090
H12 H -0.01660 0.38320 -0.02320
H13 H -0.04390 0.37150 0.20040
O8 O -0.01350 0.34710 0.07920
K1 K -0.35610 0.27840 0.05450
loop_
_geom_bond_atom_site_label_1
_geom_bond_atom_site_label_2
_geom_bond_site_symmetry_1
_geom_bond_site_symmetry_2
C1 C2 1_555 1_555
C2 C3 1_555 1_555
C3 C4 1_555 1_555
C4 C5 1_555 1_555
C5 C6 1_555 1_555
C6 H9 1_555 1_555
H1 C2 1_555 1_555
H2 O2 1_555 1_555
H3 C3 1_555 1_555
H4 O3 1_555 1_555
H5 C4 1_555 1_555
H6 O4 1_555 1_555
H7 C5 1_555 1_555
H8 O5 1_555 1_555
H10 C6 1_555 1_555
H11 O6 1_555 1_555
H12 O8 1_555 1_555
H13 O8 1_555 1_555
O1 C1 1_555 1_555
O2 C2 1_555 1_555
O3 C3 1_555 1_555
O4 C4 1_555 1_555
O5 C5 1_555 1_555
O6 C6 1_555 1_555
O7 C1 1_555 1_555

#END
