
#######################################################################
#
#                 Cambridge Crystallographic Data Centre
#                                CCDC 
#
#######################################################################
#
# If this CIF has been generated from an entry in the Cambridge 
# Structural Database, then it will include bibliographic, chemical, 
# crystal, experimental, refinement or atomic coordinate data resulting 
# from the CCDC's data processing and validation procedures.
#
#######################################################################

data_KEBCAY
_chemical_formula_moiety         'C38 H40 N1 P1'
_chemical_name_systematic        
2-(dicyclohexylphosphanyl)-1-([1^1^,2^1^:2^3^,3^1^-terphenyl]-2^2^-yl)-1H-indole
_symmetry_cell_setting           triclinic
_symmetry_space_group_name_H-M   'P -1'
_symmetry_Int_Tables_number      2
_space_group_name_Hall           '-P 1'
loop_
_symmetry_equiv_pos_site_id
_symmetry_equiv_pos_as_xyz
1 x,y,z
2 -x,-y,-z
_cell_length_a                   10.1750(7)
_cell_length_b                   12.1870(7)
_cell_length_c                   13.3096(8)
_cell_angle_alpha                77.438(2)
_cell_angle_beta                 69.531(2)
_cell_angle_gamma                77.466(2)
_cell_volume                     1491.17
_cell_formula_units_Z            2
loop_
_atom_site_label
_atom_site_type_symbol
_atom_site_fract_x
_atom_site_fract_y
_atom_site_fract_z
C1 C 0.5159(2) 0.15367(16) 0.49519(16)
H1 H 0.4270 0.1331 0.5118
C2 C 0.5511(2) 0.18840(17) 0.57398(17)
H2 H 0.4852 0.1912 0.6429
C3 C 0.6828(2) 0.21880(17) 0.55110(18)
H3 H 0.7051 0.2430 0.6040
C4 C 0.7812(2) 0.21300(17) 0.44910(18)
H4 H 0.8707 0.2322 0.4334
C5 C 0.7464(2) 0.17848(16) 0.37025(17)
H5 H 0.8133 0.1746 0.3019
C6 C 0.6131(2) 0.14951(15) 0.39142(16)
C7 C 0.5825(2) 0.10798(16) 0.30535(15)
C8 C 0.6841(2) 0.02520(17) 0.25069(16)
H6 H 0.7693 0.0017 0.2661
C9 C 0.6609(2) -0.02235(17) 0.17446(16)
H7 H 0.7302 -0.0767 0.1385
C10 C 0.5344(2) 0.01103(16) 0.15170(16)
H8 H 0.5179 -0.0232 0.1021
C11 C 0.4308(2) 0.09535(15) 0.20192(14)
C12 C 0.4569(2) 0.14475(15) 0.27790(14)
C13 C 0.2977(2) 0.12841(16) 0.17172(15)
C14 C 0.2152(2) 0.04619(18) 0.18455(17)
H9 H 0.2389 -0.0272 0.2181
C15 C 0.0989(2) 0.0711(2) 0.14848(19)
H10 H 0.0448 0.0148 0.1582
C16 C 0.0626(2) 0.1794(2) 0.09792(18)
H11 H -0.0150 0.1963 0.0726
C17 C 0.1433(2) 0.26253(19) 0.08544(17)
H12 H 0.1190 0.3358 0.0519
C18 C 0.2594(2) 0.23798(17) 0.12216(16)
H13 H 0.3121 0.2948 0.1138
C19 C 0.23239(19) 0.20013(15) 0.42155(14)
C20 C 0.1902(2) 0.09401(16) 0.46819(15)
H14 H 0.2388 0.0288 0.4382
C21 C 0.0734(2) 0.08969(16) 0.56075(15)
H15 H 0.0419 0.0204 0.5933
C22 C 0.0016(2) 0.18779(17) 0.60650(15)
H16 H -0.0752 0.1819 0.6699
C23 C 0.0419(2) 0.29236(16) 0.55999(15)
H17 H -0.0080 0.3570 0.5906
C24 C 0.1599(2) 0.30037(15) 0.46525(15)
C25 C 0.2344(2) 0.38978(15) 0.39891(15)
H18 H 0.2097 0.4659 0.4081
C26 C 0.3486(2) 0.34621(15) 0.31925(14)
C27 C 0.7433(2) 0.46564(18) 0.16382(16)
H19 H 0.7765 0.4031 0.1223
H20 H 0.7247 0.5347 0.1153
C28 C 0.8589(2) 0.4773(2) 0.20730(18)
H21 H 0.9410 0.4978 0.1469
H22 H 0.8877 0.4046 0.2470
C29 C 0.8076(2) 0.5673(2) 0.28198(19)
H23 H 0.8817 0.5700 0.3111
H24 H 0.7874 0.6414 0.2408
C30 C 0.6747(2) 0.54033(18) 0.37469(17)
H25 H 0.6425 0.5992 0.4204
H26 H 0.6968 0.4686 0.4187
C31 C 0.5563(2) 0.53259(17) 0.33221(15)
H27 H 0.5282 0.6063 0.2939
H28 H 0.4744 0.5122 0.3929
C32 C 0.6043(2) 0.44401(16) 0.25564(15)
H29 H 0.6286 0.3716 0.2994
C33 C 0.3590(2) 0.55986(15) 0.18408(15)
H30 H 0.3181 0.5865 0.2546
C34 C 0.4486(2) 0.64678(16) 0.10246(16)
H31 H 0.5243 0.6542 0.1279
H32 H 0.4916 0.6200 0.0329
C35 C 0.3571(2) 0.76277(16) 0.08845(16)
H33 H 0.3182 0.7912 0.1573
H34 H 0.4157 0.8161 0.0365
C36 C 0.2364(2) 0.75498(17) 0.04916(17)
H35 H 0.1770 0.8287 0.0452
H36 H 0.2752 0.7345 -0.0232
C37 C 0.1470(2) 0.66711(17) 0.12492(16)
H37 H 0.0769 0.6586 0.0942
H38 H 0.0968 0.6937 0.1940
C38 C 0.2378(2) 0.55094(16) 0.14378(16)
H39 H 0.2777 0.5196 0.0764
H40 H 0.1779 0.4992 0.1969
N1 N 0.34765(16) 0.22870(12) 0.33321(12)
P1 P 0.47131(5) 0.41837(4) 0.19974(4)
loop_
_geom_bond_atom_site_label_1
_geom_bond_atom_site_label_2
_geom_bond_site_symmetry_1
_geom_bond_site_symmetry_2
C1 H1 1_555 1_555
C2 C1 1_555 1_555
H2 C2 1_555 1_555
C3 C2 1_555 1_555
H3 C3 1_555 1_555
C4 C3 1_555 1_555
H4 C4 1_555 1_555
C5 C4 1_555 1_555
H5 C5 1_555 1_555
C6 C1 1_555 1_555
C7 C6 1_555 1_555
C8 C7 1_555 1_555
H6 C8 1_555 1_555
C9 C8 1_555 1_555
H7 C9 1_555 1_555
C10 C9 1_555 1_555
H8 C10 1_555 1_555
C11 C10 1_555 1_555
C12 C7 1_555 1_555
C13 C11 1_555 1_555
C14 C13 1_555 1_555
H9 C14 1_555 1_555
C15 C14 1_555 1_555
H10 C15 1_555 1_555
C16 C15 1_555 1_555
H11 C16 1_555 1_555
C17 C16 1_555 1_555
H12 C17 1_555 1_555
C18 C13 1_555 1_555
H13 C18 1_555 1_555
C19 C20 1_555 1_555
C20 H14 1_555 1_555
C21 C20 1_555 1_555
H15 C21 1_555 1_555
C22 C21 1_555 1_555
H16 C22 1_555 1_555
C23 C22 1_555 1_555
H17 C23 1_555 1_555
C24 C19 1_555 1_555
C25 C24 1_555 1_555
H18 C25 1_555 1_555
C26 C25 1_555 1_555
C27 H19 1_555 1_555
H20 C27 1_555 1_555
C28 C27 1_555 1_555
H21 C28 1_555 1_555
H22 C28 1_555 1_555
C29 C28 1_555 1_555
H23 C29 1_555 1_555
H24 C29 1_555 1_555
C30 C29 1_555 1_555
H25 C30 1_555 1_555
H26 C30 1_555 1_555
C31 C30 1_555 1_555
H27 C31 1_555 1_555
H28 C31 1_555 1_555
C32 C27 1_555 1_555
H29 C32 1_555 1_555
C33 H30 1_555 1_555
C34 C33 1_555 1_555
H31 C34 1_555 1_555
H32 C34 1_555 1_555
C35 C34 1_555 1_555
H33 C35 1_555 1_555
H34 C35 1_555 1_555
C36 C35 1_555 1_555
H35 C36 1_555 1_555
H36 C36 1_555 1_555
C37 C36 1_555 1_555
H37 C37 1_555 1_555
H38 C37 1_555 1_555
C38 C33 1_555 1_555
H39 C38 1_555 1_555
H40 C38 1_555 1_555
N1 C12 1_555 1_555
P1 C26 1_555 1_555
C5 C6 1_555 1_555
C11 C12 1_555 1_555
C17 C18 1_555 1_555
C19 N1 1_555 1_555
C23 C24 1_555 1_555
C26 N1 1_555 1_555
C31 C32 1_555 1_555
C32 P1 1_555 1_555
C33 P1 1_555 1_555
C37 C38 1_555 1_555

#END
