
#######################################################################
#
#                 Cambridge Crystallographic Data Centre
#                                CCDC 
#
#######################################################################
#
# If this CIF has been generated from an entry in the Cambridge 
# Structural Database, then it will include bibliographic, chemical, 
# crystal, experimental, refinement or atomic coordinate data resulting 
# from the CCDC's data processing and validation procedures.
#
#######################################################################

data_KEBCIG
_chemical_formula_moiety         'C38 H40 F3 P1'
_chemical_name_systematic        
(2^6^-(p-tolyl)-3^4^-(trifluoromethyl)[1^1^,2^1^:2^2^,3^1^-terphenyl]-1^2^-yl)(dicyclohexyl)phosphine
_symmetry_cell_setting           triclinic
_symmetry_space_group_name_H-M   'P -1'
_symmetry_Int_Tables_number      2
_space_group_name_Hall           '-P 1'
loop_
_symmetry_equiv_pos_site_id
_symmetry_equiv_pos_as_xyz
1 x,y,z
2 -x,-y,-z
_cell_length_a                   9.457(7)
_cell_length_b                   11.734(8)
_cell_length_c                   15.994(11)
_cell_angle_alpha                105.428(12)
_cell_angle_beta                 94.291(12)
_cell_angle_gamma                107.916(12)
_cell_volume                     1603.99
_cell_formula_units_Z            2
loop_
_atom_site_label
_atom_site_type_symbol
_atom_site_fract_x
_atom_site_fract_y
_atom_site_fract_z
C1 C 0.8738(8) 0.7298(8) 0.6099(5)
C2 C 0.7485(7) 0.7506(6) 0.5649(4)
C3 C 0.6043(7) 0.6655(6) 0.5526(4)
H1 H 0.5877 0.5977 0.5749
C4 C 0.4842(7) 0.6811(5) 0.5069(4)
H2 H 0.3877 0.6232 0.4990
C5 C 0.5054(6) 0.7816(5) 0.4729(3)
C6 C 0.6497(6) 0.8693(5) 0.4886(4)
H3 H 0.6657 0.9391 0.4687
C7 C 0.7702(7) 0.8538(6) 0.5339(4)
H4 H 0.8663 0.9130 0.5436
C8 C 0.3732(6) 0.7933(5) 0.4224(3)
C9 C 0.2391(6) 0.7746(5) 0.4564(4)
H5 H 0.2334 0.7550 0.5089
C10 C 0.1140(7) 0.7854(6) 0.4120(4)
H6 H 0.0240 0.7704 0.4340
C11 C 0.1228(6) 0.8182(6) 0.3355(4)
H7 H 0.0389 0.8269 0.3072
C12 C 0.2552(6) 0.8388(5) 0.2993(3)
C13 C 0.3812(6) 0.8218(4) 0.3416(3)
C14 C 0.2573(6) 0.8828(5) 0.2190(4)
C15 C 0.1985(7) 0.9782(6) 0.2185(4)
H8 H 0.1617 1.0134 0.2676
C16 C 0.1942(7) 1.0214(6) 0.1458(4)
H9 H 0.1540 1.0847 0.1466
C17 C 0.2492(7) 0.9710(6) 0.0719(4)
C18 C 0.3069(7) 0.8759(6) 0.0716(4)
H10 H 0.3425 0.8403 0.0221
C19 C 0.3122(6) 0.8333(5) 0.1443(4)
H11 H 0.3531 0.7704 0.1432
C20 C 0.2459(10) 1.0180(9) -0.0101(6)
H12 H 0.1692 1.0558 -0.0109
H13 H 0.2242 0.9482 -0.0625
H14 H 0.3422 1.0791 -0.0074
C21 C 0.5213(6) 0.8366(5) 0.3005(3)
C22 C 0.6032(6) 0.9563(5) 0.2962(4)
H15 H 0.5735 1.0244 0.3215
C23 C 0.7272(7) 0.9741(6) 0.2549(4)
H16 H 0.7803 1.0540 0.2525
C24 C 0.7732(6) 0.8747(6) 0.2170(4)
H17 H 0.8566 0.8869 0.1888
C25 C 0.6933(6) 0.7551(5) 0.2215(4)
H18 H 0.7253 0.6883 0.1961
C26 C 0.5673(5) 0.7326(5) 0.2629(3)
C27 C 0.3103(5) 0.5214(5) 0.1669(3)
H19 H 0.2693 0.5899 0.1734
C28 C 0.3655(6) 0.5059(6) 0.0784(3)
H20 H 0.4058 0.4375 0.0668
H21 H 0.4461 0.5823 0.0810
C29 C 0.2361(7) 0.4778(7) 0.0029(4)
H22 H 0.2028 0.5498 0.0113
H23 H 0.2726 0.4638 -0.0528
C30 C 0.1041(8) 0.3628(7) -0.0001(4)
H24 H 0.0227 0.3493 -0.0463
H25 H 0.1350 0.2893 -0.0138
C31 C 0.0484(7) 0.3793(7) 0.0877(5)
H26 H 0.0093 0.4483 0.0988
H27 H -0.0334 0.3035 0.0849
C32 C 0.1753(6) 0.4063(6) 0.1639(4)
H28 H 0.2073 0.3336 0.1562
H29 H 0.1378 0.4213 0.2192
C33 C 0.5890(5) 0.4847(5) 0.2387(3)
H30 H 0.6304 0.5027 0.1874
C34 C 0.5134(6) 0.3419(5) 0.2172(4)
H31 H 0.4668 0.3237 0.2663
H32 H 0.4346 0.3114 0.1661
C35 C 0.6266(7) 0.2731(6) 0.1988(5)
H33 H 0.6655 0.2842 0.1460
H34 H 0.5758 0.1839 0.1884
C36 C 0.7574(8) 0.3218(6) 0.2753(5)
H35 H 0.7206 0.3011 0.3262
H36 H 0.8309 0.2810 0.2595
C37 C 0.8332(7) 0.4645(6) 0.2984(5)
H37 H 0.8806 0.4843 0.2499
H38 H 0.9112 0.4941 0.3498
C38 C 0.7194(6) 0.5319(5) 0.3170(4)
H39 H 0.6788 0.5184 0.3689
H40 H 0.7700 0.6216 0.3292
F1 F 0.8752(11) 0.7491(12) 0.6907(6)
F2 F 0.8765(13) 0.6160(10) 0.5748(9)
F3 F 1.0045(9) 0.8034(11) 0.6051(6)
P1 P 0.45597(14) 0.57338(12) 0.26796(8)
loop_
_geom_bond_atom_site_label_1
_geom_bond_atom_site_label_2
_geom_bond_site_symmetry_1
_geom_bond_site_symmetry_2
C1 C2 1_555 1_555
C2 C3 1_555 1_555
C3 H1 1_555 1_555
C4 C3 1_555 1_555
H2 C4 1_555 1_555
C5 C4 1_555 1_555
C6 C5 1_555 1_555
H3 C6 1_555 1_555
C7 C2 1_555 1_555
H4 C7 1_555 1_555
C8 C5 1_555 1_555
C9 C8 1_555 1_555
H5 C9 1_555 1_555
C10 C9 1_555 1_555
H6 C10 1_555 1_555
C11 C10 1_555 1_555
H7 C11 1_555 1_555
C12 C11 1_555 1_555
C13 C8 1_555 1_555
C14 C12 1_555 1_555
C15 C14 1_555 1_555
H8 C15 1_555 1_555
C16 C15 1_555 1_555
H9 C16 1_555 1_555
C17 C16 1_555 1_555
C18 C17 1_555 1_555
H10 C18 1_555 1_555
C19 C14 1_555 1_555
H11 C19 1_555 1_555
C20 C17 1_555 1_555
H12 C20 1_555 1_555
H13 C20 1_555 1_555
H14 C20 1_555 1_555
C21 C13 1_555 1_555
C22 C21 1_555 1_555
H15 C22 1_555 1_555
C23 C22 1_555 1_555
H16 C23 1_555 1_555
C24 C23 1_555 1_555
H17 C24 1_555 1_555
C25 C24 1_555 1_555
H18 C25 1_555 1_555
C26 C21 1_555 1_555
C27 H19 1_555 1_555
C28 C27 1_555 1_555
H20 C28 1_555 1_555
H21 C28 1_555 1_555
C29 C28 1_555 1_555
H22 C29 1_555 1_555
H23 C29 1_555 1_555
C30 C29 1_555 1_555
H24 C30 1_555 1_555
H25 C30 1_555 1_555
C31 C30 1_555 1_555
H26 C31 1_555 1_555
H27 C31 1_555 1_555
C32 C27 1_555 1_555
H28 C32 1_555 1_555
H29 C32 1_555 1_555
C33 H30 1_555 1_555
C34 C33 1_555 1_555
H31 C34 1_555 1_555
H32 C34 1_555 1_555
C35 C34 1_555 1_555
H33 C35 1_555 1_555
H34 C35 1_555 1_555
C36 C35 1_555 1_555
H35 C36 1_555 1_555
H36 C36 1_555 1_555
C37 C36 1_555 1_555
H37 C37 1_555 1_555
H38 C37 1_555 1_555
C38 C33 1_555 1_555
H39 C38 1_555 1_555
H40 C38 1_555 1_555
F1 C1 1_555 1_555
F2 C1 1_555 1_555
F3 C1 1_555 1_555
P1 C26 1_555 1_555
C6 C7 1_555 1_555
C12 C13 1_555 1_555
C18 C19 1_555 1_555
C25 C26 1_555 1_555
C27 P1 1_555 1_555
C31 C32 1_555 1_555
C33 P1 1_555 1_555
C37 C38 1_555 1_555

#END
