
#######################################################################
#
#                 Cambridge Crystallographic Data Centre
#                                CCDC 
#
#######################################################################
#
# If this CIF has been generated from an entry in the Cambridge 
# Structural Database, then it will include bibliographic, chemical, 
# crystal, experimental, refinement or atomic coordinate data resulting 
# from the CCDC's data processing and validation procedures.
#
#######################################################################

data_KEBJOR
_chemical_formula_moiety         'C19 H11 N1 O3'
_chemical_name_systematic        
2-Methyl-1H-benzo(e)(1)benzofuro(3,2-g)isoindole-1,3(2H)-dione
_symmetry_cell_setting           monoclinic
_symmetry_space_group_name_H-M   'P 21/c'
_symmetry_Int_Tables_number      14
_space_group_name_Hall           '-P 2ybc'
loop_
_symmetry_equiv_pos_site_id
_symmetry_equiv_pos_as_xyz
1 x,y,z
2 -x,1/2+y,1/2-z
3 -x,-y,-z
4 x,1/2-y,1/2+z
_cell_length_a                   9.5260(19)
_cell_length_b                   18.319(4)
_cell_length_c                   7.9420(16)
_cell_angle_alpha                90
_cell_angle_beta                 96.25(3)
_cell_angle_gamma                90
_cell_volume                     1377.7
_exptl_crystal_colour            yellow
_exptl_crystal_description       needle
_chemical_melting_point          '267-268 deg.C'
_cell_formula_units_Z            4
loop_
_atom_site_label
_atom_site_type_symbol
_atom_site_fract_x
_atom_site_fract_y
_atom_site_fract_z
O1 O 0.8887(3) -0.00696(13) 0.2387(3)
O2 O 0.5007(3) 0.11644(15) 0.7028(3)
O3 O 0.7119(3) 0.14345(14) 0.2186(3)
C1 C 0.6616(4) 0.03542(19) 0.5720(4)
N1 N 0.5898(3) 0.14674(16) 0.4538(4)
C2 C 0.9462(4) -0.11209(19) 0.3894(4)
C3 C 0.7243(4) 0.04527(19) 0.4241(4)
C4 C 0.9683(4) -0.0708(2) 0.2469(4)
C5 C 0.6881(4) -0.0259(2) 0.6795(4)
C6 C 0.8171(4) -0.00897(19) 0.3796(4)
C7 C 1.1092(4) -0.1993(2) 0.2980(5)
H1 H 1.1573 -0.2433 0.3130
C8 C 1.0190(4) -0.1781(2) 0.4119(5)
H2 H 1.0063 -0.2077 0.5042
C9 C 0.8471(4) -0.07076(19) 0.4765(4)
C10 C 0.7844(4) -0.08043(19) 0.6324(4)
C11 C 0.5741(4) 0.1011(2) 0.5928(5)
C12 C 0.6791(4) 0.1160(2) 0.3463(5)
C13 C 0.5267(4) 0.2184(2) 0.4293(5)
H3 H 0.5520 0.2391 0.3257
H4 H 0.5605 0.2494 0.5225
H5 H 0.4259 0.2143 0.4236
C14 C 0.8155(4) -0.1405(2) 0.7402(5)
H6 H 0.8779 -0.1761 0.7111
C15 C 0.7542(4) -0.1469(2) 0.8885(5)
H7 H 0.7761 -0.1866 0.9593
C16 C 0.6594(4) -0.0942(2) 0.9335(5)
H8 H 0.6176 -0.0996 1.0332
C17 C 0.6274(4) -0.0351(2) 0.8330(5)
H9 H 0.5648 -0.0002 0.8657
C18 C 1.0593(4) -0.0897(2) 0.1288(5)
H10 H 1.0719 -0.0604 0.0360
C19 C 1.1295(4) -0.1547(2) 0.1585(5)
H11 H 1.1925 -0.1698 0.0839
loop_
_geom_bond_atom_site_label_1
_geom_bond_atom_site_label_2
_geom_bond_site_symmetry_1
_geom_bond_site_symmetry_2
O1 C4 1_555 1_555
O2 C11 1_555 1_555
O3 C12 1_555 1_555
C1 C3 1_555 1_555
N1 C11 1_555 1_555
C2 C4 1_555 1_555
C3 C6 1_555 1_555
C4 C18 1_555 1_555
C5 C1 1_555 1_555
C6 O1 1_555 1_555
C7 H1 1_555 1_555
C8 C2 1_555 1_555
H2 C8 1_555 1_555
C9 C2 1_555 1_555
C10 C5 1_555 1_555
C11 C1 1_555 1_555
C12 N1 1_555 1_555
C13 N1 1_555 1_555
H3 C13 1_555 1_555
H4 C13 1_555 1_555
H5 C13 1_555 1_555
C14 C10 1_555 1_555
H6 C14 1_555 1_555
C15 C14 1_555 1_555
H7 C15 1_555 1_555
C16 C15 1_555 1_555
H8 C16 1_555 1_555
C17 C5 1_555 1_555
H9 C17 1_555 1_555
C18 H10 1_555 1_555
C19 C7 1_555 1_555
H11 C19 1_555 1_555
C3 C12 1_555 1_555
C6 C9 1_555 1_555
C7 C8 1_555 1_555
C9 C10 1_555 1_555
C16 C17 1_555 1_555
C18 C19 1_555 1_555

#END
