
#######################################################################
#
#                 Cambridge Crystallographic Data Centre
#                                CCDC 
#
#######################################################################
#
# If this CIF has been generated from an entry in the Cambridge 
# Structural Database, then it will include bibliographic, chemical, 
# crystal, experimental, refinement or atomic coordinate data resulting 
# from the CCDC's data processing and validation procedures.
#
#######################################################################

data_KEBJIL
_chemical_formula_moiety         'C19 H13 Cl2 N1 O3'
_chemical_name_systematic        
3a,8c-Dichloro-2-methyl-3b-phenyl-3a,3b,8b,8c-tetrahydro-1H-(1)benzofuro(2',3':3,4)cyclobuta(1,2-c)pyrrole-1,3(2H)-dione
_symmetry_cell_setting           monoclinic
_symmetry_space_group_name_H-M   'P 21/c'
_symmetry_Int_Tables_number      14
_space_group_name_Hall           '-P 2ybc'
loop_
_symmetry_equiv_pos_site_id
_symmetry_equiv_pos_as_xyz
1 x,y,z
2 -x,1/2+y,1/2-z
3 -x,-y,-z
4 x,1/2-y,1/2+z
_cell_length_a                   12.895(3)
_cell_length_b                   9.910(2)
_cell_length_c                   13.175(3)
_cell_angle_alpha                90
_cell_angle_beta                 90.54(3)
_cell_angle_gamma                90
_cell_volume                     1683.55
_exptl_crystal_colour            colorless
_exptl_crystal_description       block
_chemical_melting_point          '160-161 deg.C'
_cell_formula_units_Z            4
loop_
_atom_site_label
_atom_site_type_symbol
_atom_site_fract_x
_atom_site_fract_y
_atom_site_fract_z
Cl1 Cl 0.89950(9) 0.12197(12) 0.14174(10)
Cl2 Cl 0.76664(10) 0.00535(15) -0.05529(9)
O1 O 0.6168(2) -0.1054(3) 0.0880(2)
O2 O 1.0112(2) -0.1337(4) 0.2250(3)
N1 N 0.9573(3) -0.2280(4) 0.0743(3)
C1 C 0.8577(3) -0.0469(4) 0.1379(3)
C2 C 0.7157(3) -0.1646(4) 0.1118(3)
C3 C 0.8057(3) -0.1048(4) 0.0415(3)
C4 C 0.6418(4) -0.3767(5) 0.0392(4)
H1 H 0.6007 -0.3239 -0.0035
C5 C 0.9521(3) -0.1383(4) 0.1542(3)
O3 O 0.8703(3) -0.2779(4) -0.0737(3)
C6 C 0.7633(3) -0.0865(4) 0.2037(3)
H2 H 0.7793 -0.1414 0.2637
C7 C 0.6839(3) 0.0233(5) 0.2192(3)
C8 C 0.8782(4) -0.2127(5) 0.0030(3)
C9 C 0.7069(3) -0.3159(4) 0.1097(3)
C10 C 0.6782(4) 0.1262(5) 0.2889(4)
H3 H 0.7310 0.1388 0.3365
C11 C 0.7663(4) -0.3962(5) 0.1729(4)
H4 H 0.8089 -0.3561 0.2216
C12 C 0.6037(3) 0.0052(5) 0.1503(3)
C13 C 0.7636(4) -0.5353(5) 0.1652(4)
H5 H 0.8049 -0.5882 0.2077
C14 C 0.5141(4) 0.1906(6) 0.2171(4)
H6 H 0.4571 0.2481 0.2169
C15 C 0.5175(3) 0.0878(5) 0.1472(4)
H7 H 0.4643 0.0745 0.1001
C16 C 0.6377(4) -0.5161(5) 0.0320(4)
H8 H 0.5933 -0.5565 -0.0149
C17 C 0.6991(4) -0.5952(5) 0.0940(4)
H9 H 0.6971 -0.6886 0.0880
C18 C 0.5926(4) 0.2112(6) 0.2876(4)
H10 H 0.5882 0.2817 0.3339
C19 C 1.0353(4) -0.3327(6) 0.0682(5)
H11 H 1.0822 -0.3250 0.1250
H12 H 1.0731 -0.3228 0.0062
H13 H 1.0024 -0.4195 0.0694
loop_
_geom_bond_atom_site_label_1
_geom_bond_atom_site_label_2
_geom_bond_site_symmetry_1
_geom_bond_site_symmetry_2
Cl1 C1 1_555 1_555
Cl2 C3 1_555 1_555
O1 C2 1_555 1_555
O2 C5 1_555 1_555
N1 C5 1_555 1_555
C1 C3 1_555 1_555
C2 C3 1_555 1_555
C3 C8 1_555 1_555
C4 H1 1_555 1_555
C5 C1 1_555 1_555
O3 C8 1_555 1_555
C6 C1 1_555 1_555
H2 C6 1_555 1_555
C7 C6 1_555 1_555
C8 N1 1_555 1_555
C9 C2 1_555 1_555
C10 C7 1_555 1_555
H3 C10 1_555 1_555
C11 C9 1_555 1_555
H4 C11 1_555 1_555
C12 O1 1_555 1_555
C13 C11 1_555 1_555
H5 C13 1_555 1_555
C14 H6 1_555 1_555
C15 C12 1_555 1_555
H7 C15 1_555 1_555
C16 C4 1_555 1_555
H8 C16 1_555 1_555
C17 C13 1_555 1_555
H9 C17 1_555 1_555
C18 C10 1_555 1_555
H10 C18 1_555 1_555
C19 N1 1_555 1_555
H11 C19 1_555 1_555
H12 C19 1_555 1_555
H13 C19 1_555 1_555
C2 C6 1_555 1_555
C4 C9 1_555 1_555
C7 C12 1_555 1_555
C14 C15 1_555 1_555
C14 C18 1_555 1_555
C16 C17 1_555 1_555

#END
