
#######################################################################
#
#                 Cambridge Crystallographic Data Centre
#                                CCDC 
#
#######################################################################
#
# If this CIF has been generated from an entry in the Cambridge 
# Structural Database, then it will include bibliographic, chemical, 
# crystal, experimental, refinement or atomic coordinate data resulting 
# from the CCDC's data processing and validation procedures.
#
#######################################################################

data_KEBVIY
_chemical_formula_moiety         'C33 H29 Cl1 N2 S1'
_chemical_name_systematic        
N,1,5-Tribenzyl-4-(2-chlorophenyl)-2-methyl-1H-pyrrole-3-carbothioamide
_symmetry_cell_setting           orthorhombic
_symmetry_space_group_name_H-M   'P n a 21'
_symmetry_Int_Tables_number      33
_space_group_name_Hall           'P 2c -2n'
loop_
_symmetry_equiv_pos_site_id
_symmetry_equiv_pos_as_xyz
1 x,y,z
2 -x,-y,1/2+z
3 1/2-x,1/2+y,1/2+z
4 1/2+x,1/2-y,z
_cell_length_a                   13.0268(10)
_cell_length_b                   26.8385(14)
_cell_length_c                   7.9778(6)
_cell_angle_alpha                90
_cell_angle_beta                 90
_cell_angle_gamma                90
_cell_volume                     2789.2
_exptl_crystal_colour            colorless
_exptl_crystal_description       block
_cell_formula_units_Z            4
loop_
_atom_site_label
_atom_site_type_symbol
_atom_site_fract_x
_atom_site_fract_y
_atom_site_fract_z
S1 S 0.07323(12) 0.24399(5) 1.2142(2)
N1 N 0.1969(3) 0.40645(11) 1.1522(4)
C1 C 0.2477(4) 0.39652(14) 1.0037(5)
C2 C 0.2091(3) 0.47180(13) 0.8210(6)
N2 N 0.2668(5) 0.24534(14) 1.1290(5)
C3 C 0.1922(3) 0.32445(15) 1.1167(5)
C4 C 0.1618(3) 0.36281(15) 1.2206(6)
C5 C 0.1226(4) 0.45347(17) 0.7494(7)
H1 H 0.1100 0.4194 0.7542
C6 C 0.2255(4) 0.52244(16) 0.8128(7)
H2 H 0.2842 0.5361 0.8607
C7 C 0.2064(4) 0.45289(15) 1.2418(6)
H3 H 0.1494 0.4560 1.3194
H4 H 0.2017 0.4802 1.1625
C8 C 0.3050(4) 0.45743(19) 1.3374(6)
C9 C 0.2907(4) 0.31955(15) 0.8330(6)
C10 C 0.2467(4) 0.34622(13) 0.9790(6)
C11 C 0.2963(5) 0.16832(15) 0.9731(7)
C12 C 0.2889(3) 0.43736(15) 0.8963(6)
H5 H 0.3280 0.4225 0.8057
H6 H 0.3360 0.4572 0.9628
C13 C 0.1795(4) 0.27099(15) 1.1511(6)
C14 C 0.2310(5) 0.29060(17) 0.7292(7)
C15 C 0.0528(4) 0.4837(2) 0.6700(8)
H7 H -0.0066 0.4705 0.6232
C16 C 0.1554(5) 0.55311(19) 0.7340(9)
H8 H 0.1661 0.5874 0.7318
C17 C 0.0723(6) 0.5337(2) 0.6611(7)
H9 H 0.0272 0.5544 0.6035
C18 C 0.3942(5) 0.3227(2) 0.7963(8)
C19 C 0.1078(4) 0.36250(17) 1.3862(6)
H10 H 0.0985 0.3961 1.4243
H11 H 0.1482 0.3444 1.4663
H12 H 0.0420 0.3468 1.3741
C20 C 0.3783(11) 0.2708(4) 0.5629(12)
H13 H 0.4084 0.2535 0.4746
C21 C 0.2859(5) 0.19230(16) 1.1422(8)
H14 H 0.2298 0.1767 1.2025
H15 H 0.3484 0.1869 1.2058
C22 C 0.3278(6) 0.5014(3) 1.4131(10)
H16 H 0.2830 0.5282 1.4040
C23 C 0.2731(9) 0.2657(2) 0.5906(8)
H17 H 0.2324 0.2464 0.5200
C24 C 0.4809(9) 0.4687(5) 1.5263(12)
H18 H 0.5384 0.4720 1.5944
C25 C 0.3933(6) 0.1634(2) 0.9086(10)
H19 H 0.4501 0.1743 0.9689
C26 C 0.4345(8) 0.2986(3) 0.6552(12)
H20 H 0.5034 0.3028 0.6282
C27 C 0.3709(6) 0.4187(3) 1.3553(10)
H21 H 0.3556 0.3883 1.3052
C28 C 0.4056(8) 0.1414(3) 0.7487(14)
H22 H 0.4702 0.1376 0.7007
C29 C 0.4604(7) 0.4236(4) 1.4466(13)
H23 H 0.5062 0.3971 1.4548
C30 C 0.2195(6) 0.1506(3) 0.8892(14)
H24 H 0.1542 0.1521 0.9359
C31 C 0.3202(11) 0.1263(4) 0.6690(15)
H25 H 0.3264 0.1127 0.5622
C32 C 0.4183(10) 0.5063(5) 1.5044(15)
H26 H 0.4347 0.5370 1.5511
C33 C 0.2316(12) 0.1298(4) 0.733(2)
H27 H 0.1747 0.1183 0.6744
Cl1 Cl 0.11924(19) 0.28415(9) 0.7566(3)
H28 H 0.315(3) 0.2620(15) 1.099(6)
Cl2? Cl 0.4624(3) 0.35115(16) 0.8962(6)
loop_
_geom_bond_atom_site_label_1
_geom_bond_atom_site_label_2
_geom_bond_site_symmetry_1
_geom_bond_site_symmetry_2
S1 C13 1_555 1_555
N1 C1 1_555 1_555
C1 C10 1_555 1_555
C2 C5 1_555 1_555
N2 C13 1_555 1_555
C3 C4 1_555 1_555
C4 N1 1_555 1_555
C5 H1 1_555 1_555
C6 C2 1_555 1_555
H2 C6 1_555 1_555
C7 N1 1_555 1_555
H3 C7 1_555 1_555
H4 C7 1_555 1_555
C8 C7 1_555 1_555
C9 C10 1_555 1_555
C10 C3 1_555 1_555
C11 C21 1_555 1_555
C12 C1 1_555 1_555
H5 C12 1_555 1_555
H6 C12 1_555 1_555
C13 C3 1_555 1_555
C14 C9 1_555 1_555
C15 C5 1_555 1_555
H7 C15 1_555 1_555
C16 C6 1_555 1_555
H8 C16 1_555 1_555
C17 C15 1_555 1_555
H9 C17 1_555 1_555
C18 C9 1_555 1_555
C19 C4 1_555 1_555
H10 C19 1_555 1_555
H11 C19 1_555 1_555
H12 C19 1_555 1_555
C20 H13 1_555 1_555
C21 N2 1_555 1_555
H14 C21 1_555 1_555
H15 C21 1_555 1_555
C22 C8 1_555 1_555
H16 C22 1_555 1_555
C23 C14 1_555 1_555
H17 C23 1_555 1_555
C24 H18 1_555 1_555
C25 C11 1_555 1_555
H19 C25 1_555 1_555
C26 C18 1_555 1_555
H20 C26 1_555 1_555
C27 C8 1_555 1_555
H21 C27 1_555 1_555
C28 C25 1_555 1_555
H22 C28 1_555 1_555
C29 C24 1_555 1_555
H23 C29 1_555 1_555
C30 C11 1_555 1_555
H24 C30 1_555 1_555
C31 C28 1_555 1_555
H25 C31 1_555 1_555
C32 C22 1_555 1_555
H26 C32 1_555 1_555
C33 C30 1_555 1_555
H27 C33 1_555 1_555
Cl1 C14 1_555 1_555
H28 N2 1_555 1_555
C2 C12 1_555 1_555
C16 C17 1_555 1_555
C20 C23 1_555 1_555
C20 C26 1_555 1_555
C24 C32 1_555 1_555
C27 C29 1_555 1_555
C31 C33 1_555 1_555

#END
