
#######################################################################
#
#                 Cambridge Crystallographic Data Centre
#                                CCDC 
#
#######################################################################
#
# If this CIF has been generated from an entry in the Cambridge 
# Structural Database, then it will include bibliographic, chemical, 
# crystal, experimental, refinement or atomic coordinate data resulting 
# from the CCDC's data processing and validation procedures.
#
#######################################################################

data_KEBXAS
_chemical_formula_moiety         'C38 H24 N4 O2 Si1 2+,3(C2 H3 N1),2(F6 P1 1-)'
_chemical_name_systematic        
'(Phenanthrene-9,10-diolato)-bis(1,10-phenanthroline)-silicon bis(hexafluorophosphate) acetonitrile solvate'
_symmetry_cell_setting           monoclinic
_symmetry_space_group_name_H-M   'P 21/c'
_symmetry_Int_Tables_number      14
_space_group_name_Hall           '-P 2ybc'
loop_
_symmetry_equiv_pos_site_id
_symmetry_equiv_pos_as_xyz
1 x,y,z
2 -x,1/2+y,1/2-z
3 -x,-y,-z
4 x,1/2-y,1/2+z
_cell_length_a                   10.9077(5)
_cell_length_b                   28.9688(9)
_cell_length_c                   14.5670(6)
_cell_angle_alpha                90
_cell_angle_beta                 109.451(3)
_cell_angle_gamma                90
_cell_volume                     4340.22
_exptl_crystal_colour            red
_exptl_crystal_description       block
_cell_formula_units_Z            4
loop_
_atom_site_label
_atom_site_type_symbol
_atom_site_fract_x
_atom_site_fract_y
_atom_site_fract_z
C1 C 1.0036(3) 0.33904(8) 0.30730(18)
C2 C 1.0932(3) 0.31302(8) 0.27659(18)
C3 C 1.1689(3) 0.29791(8) 0.14909(19)
H1 H 1.1673 0.3035 0.0844
C4 C 1.2544(3) 0.26502(9) 0.2056(2)
H2 H 1.3102 0.2485 0.1791
C5 C 1.2587(3) 0.25628(9) 0.2995(2)
H3 H 1.3166 0.2337 0.3378
C6 C 1.1764(3) 0.28106(9) 0.33806(19)
C7 C 1.1707(3) 0.27652(9) 0.43462(19)
H4 H 1.2270 0.2553 0.4784
C8 C 1.0876(3) 0.30161(9) 0.4646(2)
H5 H 1.0880 0.2982 0.5295
C9 C 0.9979(3) 0.33362(9) 0.40069(19)
C10 C 0.9025(3) 0.35943(9) 0.4230(2)
H6 H 0.8938 0.3571 0.4856
C11 C 0.8219(3) 0.38795(9) 0.35388(19)
H7 H 0.7567 0.4053 0.3684
C12 C 0.8354(3) 0.39155(9) 0.26212(19)
H8 H 0.7790 0.4116 0.2153
C13 C 1.0251(3) 0.45850(8) 0.13628(17)
C14 C 0.8897(3) 0.45806(8) 0.08401(18)
C15 C 0.7121(3) 0.41128(9) 0.01030(19)
H9 H 0.6744 0.3815 -0.0048
C16 C 0.6357(3) 0.45017(9) -0.02498(19)
H10 H 0.5470 0.4466 -0.0639
C17 C 0.6883(3) 0.49368(9) -0.00368(19)
H11 H 0.6357 0.5202 -0.0264
C18 C 0.8204(3) 0.49852(8) 0.05199(18)
C19 C 0.8901(3) 0.54131(9) 0.0765(2)
H12 H 0.8447 0.5696 0.0576
C20 C 1.0200(3) 0.54197(9) 0.1264(2)
H13 H 1.0637 0.5708 0.1414
C21 C 1.0927(3) 0.50005(9) 0.15690(18)
C22 C 1.2278(3) 0.49693(9) 0.20323(19)
H14 H 1.2792 0.5241 0.2198
C23 C 1.2846(3) 0.45443(9) 0.22424(19)
H15 H 1.3762 0.4521 0.2539
C24 C 1.2095(3) 0.41462(9) 0.20259(19)
H16 H 1.2510 0.3855 0.2193
C25 C 0.8397(3) 0.30756(8) -0.01366(18)
C26 C 0.9254(3) 0.32808(8) -0.04912(18)
C27 C 0.9347(3) 0.31598(9) -0.14177(18)
C28 C 1.0200(3) 0.33809(9) -0.18165(19)
H17 H 1.0771 0.3614 -0.1455
C29 C 1.0215(3) 0.32625(10) -0.2725(2)
H18 H 1.0775 0.3420 -0.2999
C30 C 0.9412(3) 0.29125(11) -0.3242(2)
H19 H 0.9426 0.2832 -0.3870
C31 C 0.8607(3) 0.26837(10) -0.2862(2)
H20 H 0.8088 0.2439 -0.3224
C32 C 0.8518(3) 0.28001(9) -0.19398(19)
C33 C 0.7609(3) 0.25761(9) -0.1552(2)
C34 C 0.6757(3) 0.22225(10) -0.2041(2)
H21 H 0.6779 0.2120 -0.2655
C35 C 0.5901(3) 0.20230(10) -0.1660(2)
H22 H 0.5359 0.1779 -0.2003
C36 C 0.5807(3) 0.21722(10) -0.0770(2)
H23 H 0.5199 0.2034 -0.0515
C37 C 0.6608(3) 0.25212(9) -0.0270(2)
H24 H 0.6541 0.2629 0.0327
C38 C 0.7525(3) 0.27191(8) -0.06399(19)
N1 N 0.9247(2) 0.36771(7) 0.23807(15)
N2 N 1.0893(2) 0.32168(7) 0.18372(15)
N3 N 1.0812(2) 0.41602(7) 0.15916(15)
N4 N 0.8370(2) 0.41500(7) 0.06482(15)
O1 O 0.84101(18) 0.32388(6) 0.07616(12)
O2 O 1.00012(17) 0.36177(6) 0.01091(12)
Si1 Si 0.95822(8) 0.36541(2) 0.11435(5)
C39 C 0.3747(6) 0.62816(18) 0.2908(5)
C40 C 0.4825(5) 0.65605(18) 0.2834(5)
H25 H 0.4504 0.6775 0.2286
H26 H 0.5486 0.6358 0.2729
H27 H 0.5208 0.6735 0.3438
N5 N 0.2897(5) 0.60505(15) 0.3070(5)
F1 F 0.5934(2) 0.47864(7) 0.19722(14)
F2 F 0.66738(19) 0.55055(7) 0.19245(13)
F3 F 0.72879(19) 0.55436(7) 0.35559(14)
F4 F 0.6531(2) 0.48208(7) 0.36002(14)
F5 F 0.79970(17) 0.49573(6) 0.28349(13)
F6 F 0.52180(17) 0.53631(6) 0.26880(13)
P1 P 0.66116(8) 0.51652(3) 0.27641(6)
F7 F 0.42307(16) 0.65054(6) 0.88971(12)
F8 F 0.56633(18) 0.70919(5) 0.93344(12)
F9 F 0.72291(17) 0.66015(7) 1.01542(13)
F10 F 0.58213(19) 0.60084(6) 0.97267(14)
F11 F 0.53521(17) 0.66239(6) 1.04855(12)
F12 F 0.60991(17) 0.64701(6) 0.85664(12)
P2 P 0.57264(8) 0.65468(3) 0.95258(6)
C41 C 0.5972(4) 0.59855(15) 0.5503(3)
C42 C 0.5527(4) 0.55535(16) 0.5097(3)
H28 H 0.5295 0.5365 0.5574
H29 H 0.6214 0.5399 0.4919
H30 H 0.4760 0.5594 0.4515
N6 N 0.6366(4) 0.63305(13) 0.5865(3)
C43 C 0.0907(3) 0.48534(14) 0.3972(2)
C44 C 0.0804(4) 0.53389(14) 0.4225(3)
H31 H 0.1098 0.5372 0.4934
H32 H -0.0104 0.5439 0.3950
H33 H 0.1347 0.5530 0.3958
N7 N 0.0991(3) 0.44849(11) 0.37607(19)
loop_
_geom_bond_atom_site_label_1
_geom_bond_atom_site_label_2
_geom_bond_site_symmetry_1
_geom_bond_site_symmetry_2
C1 C2 1_555 1_555
C2 C6 1_555 1_555
C3 H1 1_555 1_555
C4 C3 1_555 1_555
H2 C4 1_555 1_555
C5 C4 1_555 1_555
H3 C5 1_555 1_555
C6 C5 1_555 1_555
C7 C6 1_555 1_555
H4 C7 1_555 1_555
C8 C7 1_555 1_555
H5 C8 1_555 1_555
C9 C1 1_555 1_555
C10 C9 1_555 1_555
H6 C10 1_555 1_555
C11 C10 1_555 1_555
H7 C11 1_555 1_555
C12 C11 1_555 1_555
H8 C12 1_555 1_555
C13 C14 1_555 1_555
C14 C18 1_555 1_555
C15 H9 1_555 1_555
C16 C15 1_555 1_555
H10 C16 1_555 1_555
C17 C16 1_555 1_555
H11 C17 1_555 1_555
C18 C17 1_555 1_555
C19 C18 1_555 1_555
H12 C19 1_555 1_555
C20 C19 1_555 1_555
H13 C20 1_555 1_555
C21 C13 1_555 1_555
C22 C21 1_555 1_555
H14 C22 1_555 1_555
C23 C22 1_555 1_555
H15 C23 1_555 1_555
C24 C23 1_555 1_555
H16 C24 1_555 1_555
C25 C26 1_555 1_555
C26 C27 1_555 1_555
C27 C28 1_555 1_555
C28 H17 1_555 1_555
C29 C28 1_555 1_555
H18 C29 1_555 1_555
C30 C29 1_555 1_555
H19 C30 1_555 1_555
C31 C30 1_555 1_555
H20 C31 1_555 1_555
C32 C27 1_555 1_555
C33 C32 1_555 1_555
C34 C33 1_555 1_555
H21 C34 1_555 1_555
C35 C34 1_555 1_555
H22 C35 1_555 1_555
C36 C35 1_555 1_555
H23 C36 1_555 1_555
C37 C36 1_555 1_555
H24 C37 1_555 1_555
C38 C25 1_555 1_555
N1 C1 1_555 1_555
N2 C2 1_555 1_555
N3 C13 1_555 1_555
N4 C14 1_555 1_555
O1 C25 1_555 1_555
O2 C26 1_555 1_555
Si1 N1 1_555 1_555
C39 C40 1_555 1_555
C40 H25 1_555 1_555
H26 C40 1_555 1_555
H27 C40 1_555 1_555
N5 C39 1_555 1_555
F1 P1 1_555 1_555
F2 P1 1_555 1_555
F3 P1 1_555 1_555
F4 P1 1_555 1_555
F5 P1 1_555 1_555
F6 P1 1_555 1_555
F7 P2 1_555 1_555
F8 P2 1_555 1_555
F9 P2 1_555 1_555
F10 P2 1_555 1_555
F11 P2 1_555 1_555
F12 P2 1_555 1_555
C41 C42 1_555 1_555
C42 H28 1_555 1_555
H29 C42 1_555 1_555
H30 C42 1_555 1_555
N6 C41 1_555 1_555
C43 C44 1_555 1_555
C44 H31 1_555 1_555
H32 C44 1_555 1_555
H33 C44 1_555 1_555
N7 C43 1_555 1_555
C3 N2 1_555 1_555
C8 C9 1_555 1_555
C12 N1 1_555 1_555
C15 N4 1_555 1_555
C20 C21 1_555 1_555
C24 N3 1_555 1_555
C31 C32 1_555 1_555
C33 C38 1_555 1_555
C37 C38 1_555 1_555
N2 Si1 1_555 1_555
N3 Si1 1_555 1_555
N4 Si1 1_555 1_555
O1 Si1 1_555 1_555
O2 Si1 1_555 1_555

#END
