
#######################################################################
#
#                 Cambridge Crystallographic Data Centre
#                                CCDC 
#
#######################################################################
#
# If this CIF has been generated from an entry in the Cambridge 
# Structural Database, then it will include bibliographic, chemical, 
# crystal, experimental, refinement or atomic coordinate data resulting 
# from the CCDC's data processing and validation procedures.
#
#######################################################################

data_KECBUS
_chemical_formula_moiety         'C16 H15 Br1 O2 S1'
_chemical_name_systematic        
1-{1-bromo-2-[(4-methylphenyl)sulfonyl]ethenyl}-4-methylbenzene
_symmetry_cell_setting           orthorhombic
_symmetry_space_group_name_H-M   'P n a 21'
_symmetry_Int_Tables_number      33
_space_group_name_Hall           'P 2c -2n'
loop_
_symmetry_equiv_pos_site_id
_symmetry_equiv_pos_as_xyz
1 x,y,z
2 -x,-y,1/2+z
3 1/2+x,1/2-y,z
4 1/2-x,1/2+y,1/2+z
_cell_length_a                   7.953(7)
_cell_length_b                   12.643(12)
_cell_length_c                   14.962(14)
_cell_angle_alpha                90
_cell_angle_beta                 90
_cell_angle_gamma                90
_cell_volume                     1504.43
_exptl_crystal_colour            white
_exptl_crystal_description       block
_cell_formula_units_Z            4
loop_
_atom_site_label
_atom_site_type_symbol
_atom_site_fract_x
_atom_site_fract_y
_atom_site_fract_z
Br1 Br -0.23363(4) 0.11600(4) 0.00128(7)
S1 S 0.29968(14) 0.03391(10) 0.06712(11)
O1 O 0.3901(3) 0.0869(3) -0.0021(4)
O2 O 0.3158(6) -0.0773(3) 0.0764(4)
C1 C 0.0607(5) 0.1089(3) -0.1052(4)
C2 C 0.0217(6) 0.2001(4) -0.1522(4)
H1 H -0.0441 0.2518 -0.1250
C3 C 0.0772(6) 0.2157(4) -0.2368(5)
H2 H 0.0523 0.2790 -0.2655
C4 C 0.1710(7) 0.1390(4) -0.2819(4)
C5 C 0.2066(7) 0.0478(4) -0.2361(4)
H3 H 0.2674 -0.0053 -0.2646
C6 C 0.1551(6) 0.0324(4) -0.1492(4)
H4 H 0.1838 -0.0298 -0.1196
C7 C 0.0025(5) 0.0925(3) -0.0131(4)
C8 C 0.0829(5) 0.0598(3) 0.0584(4)
H5 H 0.0188 0.0493 0.1096
C9 C 0.3523(5) 0.0918(3) 0.1697(4)
C10 C 0.4283(6) 0.1904(4) 0.1703(4)
H6 H 0.4488 0.2258 0.1169
C11 C 0.4730(6) 0.2352(4) 0.2502(5)
H7 H 0.5235 0.3015 0.2501
C12 C 0.4458(6) 0.1857(4) 0.3298(4)
C13 C 0.3702(8) 0.0869(4) 0.3268(5)
H8 H 0.3502 0.0514 0.3802
C14 C 0.3243(7) 0.0400(4) 0.2494(4)
H9 H 0.2744 -0.0266 0.2498
C15 C 0.2300(8) 0.1572(6) -0.3753(5)
H10 H 0.3334 0.1197 -0.3849
H11 H 0.2481 0.2315 -0.3846
H12 H 0.1466 0.1321 -0.4165
C16 C 0.4931(8) 0.2354(4) 0.4174(5)
H13 H 0.5691 0.2931 0.4069
H14 H 0.5467 0.1837 0.4547
H15 H 0.3938 0.2613 0.4466
loop_
_geom_bond_atom_site_label_1
_geom_bond_atom_site_label_2
_geom_bond_site_symmetry_1
_geom_bond_site_symmetry_2
Br1 C7 1_555 1_555
S1 O1 1_555 1_555
O2 S1 1_555 1_555
C1 C2 1_555 1_555
C2 H1 1_555 1_555
C3 C2 1_555 1_555
H2 C3 1_555 1_555
C4 C3 1_555 1_555
C5 C4 1_555 1_555
H3 C5 1_555 1_555
C6 C1 1_555 1_555
H4 C6 1_555 1_555
C7 C1 1_555 1_555
C8 S1 1_555 1_555
H5 C8 1_555 1_555
C9 S1 1_555 1_555
C10 C9 1_555 1_555
H6 C10 1_555 1_555
C11 C10 1_555 1_555
H7 C11 1_555 1_555
C12 C11 1_555 1_555
C13 C12 1_555 1_555
H8 C13 1_555 1_555
C14 C9 1_555 1_555
H9 C14 1_555 1_555
C15 C4 1_555 1_555
H10 C15 1_555 1_555
H11 C15 1_555 1_555
H12 C15 1_555 1_555
C16 C12 1_555 1_555
H13 C16 1_555 1_555
H14 C16 1_555 1_555
H15 C16 1_555 1_555
C5 C6 1_555 1_555
C7 C8 1_555 1_555
C13 C14 1_555 1_555

#END
