
#######################################################################
#
#                 Cambridge Crystallographic Data Centre
#                                CCDC 
#
#######################################################################
#
# If this CIF has been generated from an entry in the Cambridge 
# Structural Database, then it will include bibliographic, chemical, 
# crystal, experimental, refinement or atomic coordinate data resulting 
# from the CCDC's data processing and validation procedures.
#
#######################################################################

data_KECCAY
_chemical_formula_moiety         'C19 H24 O2'
_chemical_name_systematic        
rac-(E)-1-Phenyl-4,5,6,7,10,11,12,12a-octahydro-1H-benzo(c)oxecin-3(9H)-one
_symmetry_cell_setting           monoclinic
_symmetry_space_group_name_H-M   'P 21/c'
_symmetry_Int_Tables_number      14
_space_group_name_Hall           '-P 2ybc'
loop_
_symmetry_equiv_pos_site_id
_symmetry_equiv_pos_as_xyz
1 x,y,z
2 -x,1/2+y,1/2-z
3 -x,-y,-z
4 x,1/2-y,1/2+z
_cell_length_a                   10.88(2)
_cell_length_b                   5.660(13)
_cell_length_c                   25.62(6)
_cell_angle_alpha                90
_cell_angle_beta                 94.69(3)
_cell_angle_gamma                90
_cell_volume                     1572.42
_exptl_crystal_colour            colorless
_exptl_crystal_description       block
_cell_formula_units_Z            4
loop_
_atom_site_label
_atom_site_type_symbol
_atom_site_fract_x
_atom_site_fract_y
_atom_site_fract_z
O1 O 0.34802(10) 0.24345(19) 0.14152(4)
O2 O 0.32805(13) -0.0744(2) 0.08919(5)
C1 C 0.36395(15) 0.1223(3) 0.09743(6)
C2 C 0.43737(17) 0.2620(3) 0.06109(6)
H1 H 0.5214 0.2032 0.0637
H2 H 0.4398 0.4258 0.0722
C3 C 0.38495(18) 0.2499(3) 0.00366(7)
H3 H 0.4529 0.2641 -0.0184
H4 H 0.3486 0.0950 -0.0026
C4 C 0.28920(18) 0.4343(4) -0.01351(7)
H5 H 0.2815 0.4390 -0.0515
H6 H 0.3198 0.5873 -0.0013
C5 C 0.16070(17) 0.4001(4) 0.00519(6)
H7 H 0.1050 0.5145 -0.0121
H8 H 0.1310 0.2437 -0.0049
C6 C 0.15846(15) 0.4272(3) 0.06309(6)
H9 H 0.1977 0.5606 0.0776
C7 C 0.10763(15) 0.2851(3) 0.09658(6)
C8 C 0.03180(18) 0.0710(3) 0.08130(6)
H10 H 0.0831 -0.0687 0.0863
H11 H 0.0042 0.0811 0.0444
C9 C -0.08020(19) 0.0446(4) 0.11290(7)
H12 H -0.1377 0.1723 0.1042
H13 H -0.1216 -0.1034 0.1039
C10 C -0.04209(19) 0.0490(4) 0.17098(7)
H14 H -0.1147 0.0358 0.1903
H15 H 0.0108 -0.0853 0.1801
C11 C 0.02556(17) 0.2744(4) 0.18624(7)
H16 H 0.0533 0.2671 0.2232
H17 H -0.0313 0.4060 0.1813
C12 C 0.13710(15) 0.3212(3) 0.15478(6)
H18 H 0.1609 0.4869 0.1602
C13 C 0.25010(14) 0.1671(3) 0.17294(6)
H19 H 0.2312 0.0001 0.1661
C14 C 0.29556(15) 0.2007(3) 0.22956(6)
C15 C 0.27147(19) 0.0318(4) 0.26622(7)
H20 H 0.2275 -0.1034 0.2558
C16 C 0.3121(2) 0.0619(4) 0.31832(7)
H21 H 0.2944 -0.0518 0.3428
C17 C 0.3777(2) 0.2576(4) 0.33385(7)
H22 H 0.4055 0.2767 0.3689
C18 C 0.40309(19) 0.4268(4) 0.29797(7)
H23 H 0.4481 0.5604 0.3087
C19 C 0.36182(17) 0.3992(3) 0.24585(7)
H24 H 0.3787 0.5148 0.2217
loop_
_geom_bond_atom_site_label_1
_geom_bond_atom_site_label_2
_geom_bond_site_symmetry_1
_geom_bond_site_symmetry_2
O1 C1 1_555 1_555
O2 C1 1_555 1_555
C1 C2 1_555 1_555
C2 H1 1_555 1_555
H2 C2 1_555 1_555
C3 C2 1_555 1_555
H3 C3 1_555 1_555
H4 C3 1_555 1_555
C4 C3 1_555 1_555
H5 C4 1_555 1_555
H6 C4 1_555 1_555
C5 C4 1_555 1_555
H7 C5 1_555 1_555
H8 C5 1_555 1_555
C6 C5 1_555 1_555
H9 C6 1_555 1_555
C7 C6 1_555 1_555
C8 C7 1_555 1_555
H10 C8 1_555 1_555
H11 C8 1_555 1_555
C9 C8 1_555 1_555
H12 C9 1_555 1_555
H13 C9 1_555 1_555
C10 C9 1_555 1_555
H14 C10 1_555 1_555
H15 C10 1_555 1_555
C11 C10 1_555 1_555
H16 C11 1_555 1_555
H17 C11 1_555 1_555
C12 C7 1_555 1_555
H18 C12 1_555 1_555
C13 O1 1_555 1_555
H19 C13 1_555 1_555
C14 C13 1_555 1_555
C15 C14 1_555 1_555
H20 C15 1_555 1_555
C16 C15 1_555 1_555
H21 C16 1_555 1_555
C17 C16 1_555 1_555
H22 C17 1_555 1_555
C18 C17 1_555 1_555
H23 C18 1_555 1_555
C19 C14 1_555 1_555
H24 C19 1_555 1_555
C11 C12 1_555 1_555
C12 C13 1_555 1_555
C18 C19 1_555 1_555

#END
