
#######################################################################
#
#                 Cambridge Crystallographic Data Centre
#                                CCDC 
#
#######################################################################
#
# If this CIF has been generated from an entry in the Cambridge 
# Structural Database, then it will include bibliographic, chemical, 
# crystal, experimental, refinement or atomic coordinate data resulting 
# from the CCDC's data processing and validation procedures.
#
#######################################################################

data_KECDUU
_chemical_formula_moiety         'C16 H22 N2 O2 S1'
_chemical_name_systematic        
4-t-butyl-1-(pyridin-2-ylsulfonyl)cyclohexanecarbonitrile
_symmetry_cell_setting           triclinic
_symmetry_space_group_name_H-M   'P -1'
_symmetry_Int_Tables_number      2
_space_group_name_Hall           '-P 1'
loop_
_symmetry_equiv_pos_site_id
_symmetry_equiv_pos_as_xyz
1 x,y,z
2 -x,-y,-z
_cell_length_a                   6.171(4)
_cell_length_b                   12.634(7)
_cell_length_c                   21.621(13)
_cell_angle_alpha                87.856(12)
_cell_angle_beta                 88.840(12)
_cell_angle_gamma                88.635(12)
_cell_volume                     1683.69
_exptl_crystal_colour            colorless
_exptl_crystal_description       Bar
_cell_formula_units_Z            4
loop_
_atom_site_label
_atom_site_type_symbol
_atom_site_fract_x
_atom_site_fract_y
_atom_site_fract_z
S1 S 0.70191(14) 0.31431(6) 1.02638(4)
O1 O 0.8272(4) 0.39379(18) 1.05441(11)
O2 O 0.4726(3) 0.31028(17) 1.03879(11)
N1 N 0.6900(4) 0.1060(2) 1.04256(13)
N2 N 0.5593(5) 0.1821(2) 0.88604(14)
C1 C 0.8212(5) 0.1881(3) 1.04643(15)
C2 C 1.0348(5) 0.1812(3) 1.06499(16)
H1 H 1.1223 0.2420 1.0654
C3 C 1.1149(6) 0.0817(3) 1.08291(17)
H2 H 1.2602 0.0727 1.0961
C4 C 0.9825(7) -0.0035(3) 1.08141(19)
H3 H 1.0345 -0.0720 1.0943
C5 C 0.7716(6) 0.0108(3) 1.06089(17)
H4 H 0.6817 -0.0491 1.0598
C6 C 0.6372(5) 0.2478(3) 0.91187(15)
C7 C 0.7407(5) 0.3353(2) 0.94237(14)
C8 C 0.9829(5) 0.3421(3) 0.92414(15)
H5 H 1.0517 0.3957 0.9491
H6 H 1.0561 0.2728 0.9331
C9 C 1.0102(5) 0.3725(3) 0.85478(15)
H7 H 0.9521 0.3157 0.8300
H8 H 1.1664 0.3786 0.8443
C10 C 0.8917(5) 0.4784(3) 0.83763(15)
H9 H 0.9535 0.5332 0.8640
C11 C 0.6518(5) 0.4699(3) 0.85642(15)
H10 H 0.5765 0.5385 0.8470
H11 H 0.5848 0.4155 0.8317
C12 C 0.6208(5) 0.4404(2) 0.92536(15)
H12 H 0.4643 0.4336 0.9352
H13 H 0.6768 0.4975 0.9503
C13 C 0.9277(5) 0.5174(3) 0.76940(16)
C14 C 1.1729(6) 0.5350(4) 0.75682(19)
H14 H 1.2260 0.5855 0.7860
H15 H 1.1949 0.5631 0.7144
H16 H 1.2528 0.4674 0.7622
C15 C 0.8097(6) 0.6247(3) 0.7577(2)
H17 H 0.6527 0.6144 0.7588
H18 H 0.8534 0.6545 0.7169
H19 H 0.8477 0.6734 0.7897
C16 C 0.8486(7) 0.4386(4) 0.72280(17)
H20 H 0.9275 0.3708 0.7286
H21 H 0.8747 0.4670 0.6806
H22 H 0.6930 0.4277 0.7295
S2 S 0.75144(13) 0.17131(6) 0.53386(4)
O3 O 0.9702(3) 0.17132(16) 0.55489(11)
O4 O 0.6150(4) 0.08463(17) 0.55213(10)
N3 N 0.7390(4) 0.3762(2) 0.55349(13)
N4 N 1.0054(5) 0.3307(2) 0.40859(14)
C17 C 0.6152(5) 0.2914(2) 0.55439(15)
C18 C 0.3984(5) 0.2894(3) 0.56973(18)
H23 H 0.3198 0.2256 0.5697
C19 C 0.2992(6) 0.3848(3) 0.5852(2)
H24 H 0.1487 0.3883 0.5953
C20 C 0.4217(6) 0.4740(3) 0.58592(18)
H25 H 0.3579 0.5396 0.5976
C21 C 0.6384(6) 0.4674(3) 0.56943(16)
H26 H 0.7208 0.5300 0.5693
C22 C 0.8974(5) 0.2646(2) 0.42747(15)
C23 C 0.7613(5) 0.1756(2) 0.44899(13)
C24 C 0.8702(5) 0.0701(2) 0.42943(15)
H27 H 1.0216 0.0664 0.4438
H28 H 0.7919 0.0100 0.4493
C25 C 0.8689(5) 0.0611(2) 0.35933(15)
H29 H 0.9366 -0.0076 0.3482
H30 H 0.9567 0.1182 0.3398
C26 C 0.6381(5) 0.0690(3) 0.33407(14)
H31 H 0.5544 0.0122 0.3566
C27 C 0.5341(5) 0.1749(2) 0.35314(15)
H32 H 0.6156 0.2338 0.3331
H33 H 0.3835 0.1799 0.3381
C28 C 0.5311(5) 0.1872(2) 0.42327(14)
H34 H 0.4379 0.1327 0.4433
H35 H 0.4689 0.2577 0.4331
C29 C 0.6216(5) 0.0474(3) 0.26411(16)
C30 C 0.7373(6) -0.0597(3) 0.25017(17)
H36 H 0.8943 -0.0526 0.2539
H37 H 0.7045 -0.0794 0.2080
H38 H 0.6863 -0.1146 0.2798
C31 C 0.3833(6) 0.0381(3) 0.24770(17)
H39 H 0.3143 -0.0136 0.2762
H40 H 0.3732 0.0146 0.2052
H41 H 0.3096 0.1072 0.2512
C32 C 0.7242(6) 0.1352(3) 0.22310(16)
H42 H 0.6448 0.2023 0.2291
H43 H 0.7173 0.1167 0.1796
H44 H 0.8759 0.1427 0.2344
loop_
_geom_bond_atom_site_label_1
_geom_bond_atom_site_label_2
_geom_bond_site_symmetry_1
_geom_bond_site_symmetry_2
S1 O1 1_555 1_555
O2 S1 1_555 1_555
N1 C1 1_555 1_555
N2 C6 1_555 1_555
C1 S1 1_555 1_555
C2 C1 1_555 1_555
H1 C2 1_555 1_555
C3 C2 1_555 1_555
H2 C3 1_555 1_555
C4 C3 1_555 1_555
H3 C4 1_555 1_555
C5 N1 1_555 1_555
H4 C5 1_555 1_555
C6 C7 1_555 1_555
C7 S1 1_555 1_555
C8 C7 1_555 1_555
H5 C8 1_555 1_555
H6 C8 1_555 1_555
C9 C8 1_555 1_555
H7 C9 1_555 1_555
H8 C9 1_555 1_555
C10 C9 1_555 1_555
H9 C10 1_555 1_555
C11 C10 1_555 1_555
H10 C11 1_555 1_555
H11 C11 1_555 1_555
C12 C7 1_555 1_555
H12 C12 1_555 1_555
H13 C12 1_555 1_555
C13 C10 1_555 1_555
C14 C13 1_555 1_555
H14 C14 1_555 1_555
H15 C14 1_555 1_555
H16 C14 1_555 1_555
C15 C13 1_555 1_555
H17 C15 1_555 1_555
H18 C15 1_555 1_555
H19 C15 1_555 1_555
C16 C13 1_555 1_555
H20 C16 1_555 1_555
H21 C16 1_555 1_555
H22 C16 1_555 1_555
S2 O3 1_555 1_555
O4 S2 1_555 1_555
N3 C17 1_555 1_555
N4 C22 1_555 1_555
C17 S2 1_555 1_555
C18 C17 1_555 1_555
H23 C18 1_555 1_555
C19 C18 1_555 1_555
H24 C19 1_555 1_555
C20 C19 1_555 1_555
H25 C20 1_555 1_555
C21 N3 1_555 1_555
H26 C21 1_555 1_555
C22 C23 1_555 1_555
C23 S2 1_555 1_555
C24 C23 1_555 1_555
H27 C24 1_555 1_555
H28 C24 1_555 1_555
C25 C24 1_555 1_555
H29 C25 1_555 1_555
H30 C25 1_555 1_555
C26 C25 1_555 1_555
H31 C26 1_555 1_555
C27 C26 1_555 1_555
H32 C27 1_555 1_555
H33 C27 1_555 1_555
C28 C23 1_555 1_555
H34 C28 1_555 1_555
H35 C28 1_555 1_555
C29 C26 1_555 1_555
C30 C29 1_555 1_555
H36 C30 1_555 1_555
H37 C30 1_555 1_555
H38 C30 1_555 1_555
C31 C29 1_555 1_555
H39 C31 1_555 1_555
H40 C31 1_555 1_555
H41 C31 1_555 1_555
C32 C29 1_555 1_555
H42 C32 1_555 1_555
H43 C32 1_555 1_555
H44 C32 1_555 1_555
C4 C5 1_555 1_555
C11 C12 1_555 1_555
C20 C21 1_555 1_555
C27 C28 1_555 1_555

#END
