
#######################################################################
#
#                 Cambridge Crystallographic Data Centre
#                                CCDC 
#
#######################################################################
#
# If this CIF has been generated from an entry in the Cambridge 
# Structural Database, then it will include bibliographic, chemical, 
# crystal, experimental, refinement or atomic coordinate data resulting 
# from the CCDC's data processing and validation procedures.
#
#######################################################################

data_KECDED
_chemical_formula_moiety         'C28 H23 Br1 N2 O1,C2 H3 N1'
_chemical_name_systematic        
'(4-Bromophenyl)(2,4-diphenyl-2,3,4,5-tetrahydro-1H-1,5-benzodiazepin-1-yl)methanone acetonitrile solvate'
_symmetry_cell_setting           monoclinic
_symmetry_space_group_name_H-M   'P 21'
_symmetry_Int_Tables_number      4
_space_group_name_Hall           'P 2yb'
loop_
_symmetry_equiv_pos_site_id
_symmetry_equiv_pos_as_xyz
1 x,y,z
2 -x,1/2+y,-z
_cell_length_a                   9.397(5)
_cell_length_b                   9.571(5)
_cell_length_c                   14.678(7)
_cell_angle_alpha                90
_cell_angle_beta                 102.640(9)
_cell_angle_gamma                90
_cell_volume                     1288.13
_exptl_crystal_colour            colorless
_exptl_crystal_description       plate
_cell_formula_units_Z            2
loop_
_atom_site_label
_atom_site_type_symbol
_atom_site_fract_x
_atom_site_fract_y
_atom_site_fract_z
Br1 Br 0.34092(7) -0.19477(7) 0.34496(5)
O1 O 0.8176(4) 0.3312(4) 0.3091(3)
N1 N 0.4361(5) 0.5204(5) 0.0819(3)
H1 H 0.4059 0.4697 0.0313
N2 N 0.6102(4) 0.4544(4) 0.2600(3)
C1 C 0.4559(6) 0.4691(6) 0.2462(3)
C2 C 0.3714(6) 0.5002(5) 0.1570(4)
C3 C 0.5541(6) 0.6235(6) 0.0830(3)
H2 H 0.5097 0.7035 0.0429
C4 C 0.6149(6) 0.6826(5) 0.1801(3)
H3 H 0.5328 0.7171 0.2063
H4 H 0.6782 0.7634 0.1747
C5 C 0.7026(5) 0.5767(5) 0.2481(3)
H5 H 0.7820 0.5410 0.2188
C6 C 0.3880(6) 0.4434(6) 0.3196(4)
H6 H 0.4457 0.4243 0.3800
C7 C 0.2353(6) 0.4452(6) 0.3058(5)
H7 H 0.1888 0.4282 0.3560
C8 C 0.1537(6) 0.4726(6) 0.2159(5)
H8 H 0.0502 0.4718 0.2047
C9 C 0.2200(6) 0.5005(6) 0.1440(4)
H9 H 0.1619 0.5206 0.0839
C10 C 0.6737(5) 0.5638(5) 0.0388(3)
C11 C 0.7614(6) 0.6521(6) 0.0014(3)
H10 H 0.7456 0.7501 0.0027
C12 C 0.8728(6) 0.6010(6) -0.0383(4)
H11 H 0.9322 0.6632 -0.0641
C13 C 0.8956(6) 0.4582(6) -0.0395(4)
H12 H 0.9710 0.4220 -0.0666
C14 C 0.8097(6) 0.3685(6) -0.0019(4)
H13 H 0.8263 0.2707 -0.0028
C15 C 0.6984(6) 0.4203(6) 0.0376(4)
H14 H 0.6394 0.3579 0.0637
C16 C 0.7762(5) 0.6425(6) 0.3411(3)
C17 C 0.9072(6) 0.7118(7) 0.3467(4)
H15 H 0.9488 0.7167 0.2933
C18 C 0.9781(6) 0.7740(7) 0.4295(4)
H16 H 1.0675 0.8221 0.4326
C19 C 0.9185(6) 0.7661(6) 0.5077(4)
H17 H 0.9672 0.8082 0.5646
C20 C 0.7901(6) 0.6980(7) 0.5028(4)
H18 H 0.7491 0.6927 0.5564
C21 C 0.7178(6) 0.6353(6) 0.4188(4)
H19 H 0.6282 0.5877 0.4159
C22 C 0.6844(6) 0.3353(6) 0.2912(3)
C23 C 0.5983(6) 0.2066(6) 0.3012(4)
C24 C 0.6370(7) 0.1315(6) 0.3844(4)
H20 H 0.7151 0.1631 0.4326
C25 C 0.5622(8) 0.0114(7) 0.3972(4)
H21 H 0.5888 -0.0396 0.4539
C26 C 0.4489(6) -0.0342(6) 0.3272(4)
C27 C 0.4132(6) 0.0352(6) 0.2418(4)
H22 H 0.3389 0.0002 0.1924
C28 C 0.4881(7) 0.1558(6) 0.2303(4)
H23 H 0.4636 0.2048 0.1727
N3 N 0.2253(6) 0.5388(6) 0.8822(4)
C29 C 0.0163(7) 0.5730(7) 0.7359(4)
H24 H -0.0577 0.5008 0.7360
H25 H 0.0530 0.5655 0.6785
H26 H -0.0272 0.6654 0.7389
C30 C 0.1360(7) 0.5538(6) 0.8162(4)
loop_
_geom_bond_atom_site_label_1
_geom_bond_atom_site_label_2
_geom_bond_site_symmetry_1
_geom_bond_site_symmetry_2
Br1 C26 1_555 1_555
O1 C22 1_555 1_555
N1 H1 1_555 1_555
N2 C1 1_555 1_555
N3 C30 1_555 1_555
C1 C2 1_555 1_555
C2 N1 1_555 1_555
C3 N1 1_555 1_555
H2 C3 1_555 1_555
C4 C3 1_555 1_555
H3 C4 1_555 1_555
H4 C4 1_555 1_555
C5 N2 1_555 1_555
H5 C5 1_555 1_555
C6 C1 1_555 1_555
H6 C6 1_555 1_555
C7 C6 1_555 1_555
H7 C7 1_555 1_555
C8 C7 1_555 1_555
H8 C8 1_555 1_555
C9 C2 1_555 1_555
H9 C9 1_555 1_555
C10 C3 1_555 1_555
C11 C10 1_555 1_555
H10 C11 1_555 1_555
C12 C11 1_555 1_555
H11 C12 1_555 1_555
C13 C12 1_555 1_555
H12 C13 1_555 1_555
C14 C13 1_555 1_555
H13 C14 1_555 1_555
C15 C10 1_555 1_555
H14 C15 1_555 1_555
C16 C5 1_555 1_555
C17 C16 1_555 1_555
H15 C17 1_555 1_555
C18 C17 1_555 1_555
H16 C18 1_555 1_555
C19 C18 1_555 1_555
H17 C19 1_555 1_555
C20 C19 1_555 1_555
H18 C20 1_555 1_555
C21 C16 1_555 1_555
H19 C21 1_555 1_555
C22 N2 1_555 1_555
C23 C22 1_555 1_555
C24 C23 1_555 1_555
H20 C24 1_555 1_555
C25 C24 1_555 1_555
H21 C25 1_555 1_555
C26 C25 1_555 1_555
C27 C26 1_555 1_555
H22 C27 1_555 1_555
C28 C23 1_555 1_555
H23 C28 1_555 1_555
C29 H24 1_555 1_555
H25 C29 1_555 1_555
H26 C29 1_555 1_555
C30 C29 1_555 1_555
C4 C5 1_555 1_555
C8 C9 1_555 1_555
C14 C15 1_555 1_555
C20 C21 1_555 1_555
C27 C28 1_555 1_555

#END
