
#######################################################################
#
#                 Cambridge Crystallographic Data Centre
#                                CCDC 
#
#######################################################################
#
# If this CIF has been generated from an entry in the Cambridge 
# Structural Database, then it will include bibliographic, chemical, 
# crystal, experimental, refinement or atomic coordinate data resulting 
# from the CCDC's data processing and validation procedures.
#
#######################################################################

data_KECFEF
_chemical_name_common            
'9,10,19,21-Tetramethoxy-2,7,12,17-tetrakis(4-(trifluoromethyl)phenyl)-20-oxa-22,23,24,25-tetra-azapentacyclo[16.3.1.1$3,6!.1$8,11!.1$13,16!]pentacosa-1(22),2,4,6,8(24),11,13,15,17-nonaene n-hexane solvate'
_chemical_formula_moiety         'C52 H38 F12 N4 O5,0.5(C6 H14)'
_chemical_name_systematic        
'meso-tetrakis(p-Trifluoromethylphenyl)-2,3-dimethoxy-12,13-(dimethoxymorpholino)bacteriochlorin n-hexane solvate'
_symmetry_cell_setting           monoclinic
_symmetry_space_group_name_H-M   'P 21/c'
_symmetry_Int_Tables_number      14
_space_group_name_Hall           '-P 2ybc'
loop_
_symmetry_equiv_pos_site_id
_symmetry_equiv_pos_as_xyz
1 x,y,z
2 -x,1/2+y,1/2-z
3 -x,-y,-z
4 x,1/2-y,1/2+z
_cell_length_a                   16.777(7)
_cell_length_b                   33.141(14)
_cell_length_c                   9.036(4)
_cell_angle_alpha                90
_cell_angle_beta                 98.452(13)
_cell_angle_gamma                90
_cell_volume                     4969.51
_exptl_crystal_colour            black
_exptl_crystal_description       rod
_cell_formula_units_Z            4
loop_
_atom_site_label
_atom_site_type_symbol
_atom_site_fract_x
_atom_site_fract_y
_atom_site_fract_z
C1 C 0.2752(3) 0.73166(13) 0.5385(5)
C2 C 0.2647(3) 0.77045(13) 0.5982(5)
H1 H 0.2243 0.7780 0.6563
C3 C 0.3231(3) 0.79505(14) 0.5574(5)
H2 H 0.3290 0.8230 0.5788
C4 C 0.3729(3) 0.77191(13) 0.4784(5)
C5 C 0.4420(3) 0.78465(14) 0.4208(5)
C6 C 0.5030(3) 0.75936(14) 0.3858(5)
C7 C 0.5789(3) 0.77356(14) 0.3305(6)
H3 H 0.5681 0.7772 0.2195
C8 C 0.6351(3) 0.73759(14) 0.3682(6)
H4 H 0.6697 0.7327 0.2887
C9 C 0.5752(3) 0.70432(14) 0.3748(5)
C10 C 0.5973(3) 0.66408(14) 0.3732(5)
C11 C 0.5445(3) 0.63148(14) 0.3686(5)
C12 C 0.5607(3) 0.59065(14) 0.3408(5)
H5 H 0.6125 0.5790 0.3426
C13 C 0.4885(3) 0.57084(15) 0.3106(6)
H6 H 0.4815 0.5431 0.2858
C14 C 0.4262(3) 0.59865(14) 0.3225(5)
C15 C 0.3438(3) 0.59158(14) 0.2859(5)
C16 C 0.2809(3) 0.61612(13) 0.3185(5)
C17 C 0.1971(3) 0.60187(14) 0.2551(5)
H7 H 0.1957 0.5717 0.2552
C18 C 0.1649(3) 0.63047(14) 0.4760(6)
H8 H 0.1198 0.6430 0.5210
C19 C 0.2303(3) 0.66159(13) 0.4673(5)
C20 C 0.2241(3) 0.69846(14) 0.5402(5)
C21 C 0.4458(3) 0.82900(14) 0.3887(5)
C22 C 0.4056(3) 0.84250(15) 0.2529(6)
H9 H 0.3766 0.8238 0.1856
C23 C 0.4072(3) 0.88277(15) 0.2140(6)
H10 H 0.3792 0.8917 0.1208
C24 C 0.4494(3) 0.90978(14) 0.3106(6)
C25 C 0.4885(3) 0.89680(15) 0.4476(6)
H11 H 0.5171 0.9156 0.5150
C26 C 0.4861(3) 0.85648(15) 0.4866(6)
H12 H 0.5123 0.8477 0.5815
C27 C 0.4556(4) 0.95231(16) 0.2642(6)
C28 C 0.6408(4) 0.83580(16) 0.2934(7)
H13 H 0.6776 0.8210 0.2384
H14 H 0.6695 0.8583 0.3475
H15 H 0.5955 0.8462 0.2228
C29 C 0.7627(3) 0.75192(17) 0.5074(7)
H16 H 0.7882 0.7320 0.4492
H17 H 0.7921 0.7531 0.6093
H18 H 0.7638 0.7785 0.4601
C30 C 0.6830(3) 0.65380(14) 0.3624(5)
C31 C 0.7149(3) 0.66223(14) 0.2322(6)
H19 H 0.6817 0.6740 0.1492
C32 C 0.7941(3) 0.65362(15) 0.2226(6)
H20 H 0.8154 0.6596 0.1333
C33 C 0.8430(3) 0.63640(16) 0.3422(7)
C34 C 0.8111(3) 0.62668(17) 0.4692(6)
H21 H 0.8441 0.6138 0.5501
C35 C 0.7309(3) 0.63545(16) 0.4805(6)
H22 H 0.7094 0.6288 0.5690
C36 C 0.9289(3) 0.62780(17) 0.3300(7)
C37 C 0.3226(3) 0.55214(15) 0.2092(6)
C38 C 0.3175(3) 0.51747(16) 0.2917(7)
H23 H 0.3290 0.5182 0.3978
C39 C 0.2951(4) 0.48108(17) 0.2175(8)
H24 H 0.2909 0.4570 0.2729
C40 C 0.2794(3) 0.48058(17) 0.0650(8)
C41 C 0.2864(3) 0.51448(19) -0.0173(8)
H25 H 0.2766 0.5133 -0.1235
C42 C 0.3079(3) 0.55070(17) 0.0546(6)
H26 H 0.3125 0.5745 -0.0022
C43 C 0.2559(4) 0.4421(2) -0.0142(10)
C44 C 0.1141(4) 0.59585(19) 0.0229(7)
H27 H 0.1221 0.5666 0.0300
H28 H 0.1089 0.6042 -0.0821
H29 H 0.0650 0.6031 0.0635
C45 C 0.1440(4) 0.56909(18) 0.5963(8)
H30 H 0.0998 0.5814 0.6403
H31 H 0.1711 0.5490 0.6655
H32 H 0.1223 0.5560 0.5016
C46 C 0.1551(3) 0.70283(14) 0.6261(6)
C47 C 0.0817(3) 0.71717(16) 0.5601(6)
H33 H 0.0764 0.7279 0.4616
C48 C 0.0156(3) 0.71628(17) 0.6343(7)
H34 H -0.0351 0.7257 0.5864
C49 C 0.0235(3) 0.70178(17) 0.7773(6)
C50 C 0.0964(4) 0.68938(18) 0.8481(6)
H35 H 0.1019 0.6805 0.9490
C51 C 0.1629(3) 0.68963(17) 0.7732(6)
H36 H 0.2138 0.6808 0.8227
F1 F 0.3860(2) 0.96634(10) 0.1911(4)
F2 F 0.4763(3) 0.97732(9) 0.3760(4)
F3 F 0.5083(3) 0.95726(10) 0.1690(4)
F4 F 0.9688(2) 0.66173(13) 0.3119(6)
F5 F 0.9677(3) 0.6107(2) 0.4473(8)
F6 F 0.9377(3) 0.6078(2) 0.2078(8)
F7 F 0.3190(3) 0.42200(12) -0.0480(6)
F8 F 0.2202(3) 0.41624(13) 0.0664(7)
F9 F 0.2055(4) 0.44740(13) -0.1393(7)
C55 C -0.0508(4) 0.7012(3) 0.8513(9)
F10 F -0.1058(5) 0.6758(3) 0.7832(9)
F11 F -0.0376(5) 0.6913(2) 0.9944(7)
F12 F -0.0879(3) 0.7370(2) 0.8444(5)
N1 N 0.3424(2) 0.73356(11) 0.4703(4)
H44 H 0.3632 0.7131 0.4273
N2 N 0.5021(2) 0.71849(11) 0.3941(4)
N3 N 0.4625(2) 0.63480(11) 0.3616(4)
H45 H 0.4369 0.6570 0.3798
O1 O 0.6111(2) 0.80932(10) 0.3974(4)
O2 O 0.68175(19) 0.74053(10) 0.5124(4)
O3 O 0.1360(2) 0.61673(10) 0.3312(4)
O4 O 0.1820(2) 0.61590(11) 0.1071(4)
O5 O 0.2002(2) 0.59952(10) 0.5692(4)
N4 N 0.2917(2) 0.65082(11) 0.3961(4)
C52 C 0.9310(5) 0.5281(3) 0.6658(11)
H37 H 0.8756 0.5187 0.6654
H38 H 0.9468 0.5238 0.5669
H39 H 0.9343 0.5569 0.6901
C53 C 0.9875(5) 0.5046(2) 0.7828(10)
H40 H 0.9824 0.4755 0.7592
H41 H 1.0437 0.5127 0.7766
C54 C 0.9711(4) 0.5112(2) 0.9397(9)
H42 H 0.9153 0.5024 0.9461
H43 H 0.9743 0.5404 0.9617
C52B C 1.0690(5) 0.4719(3) 1.3342(11)
H37B H 1.1244 0.4813 1.3346
H38B H 1.0532 0.4762 1.4331
H39B H 1.0657 0.4431 1.3099
C53B C 1.0125(5) 0.4954(2) 1.2172(10)
H40B H 1.0176 0.5245 1.2408
H41B H 0.9563 0.4873 1.2234
C54B C 1.0289(4) 0.4888(2) 1.0603(9)
H42B H 1.0847 0.4976 1.0539
H43B H 1.0257 0.4596 1.0383
C56? C -0.0459(15) 0.6903(10) 0.855(4)
F13? F -0.023(3) 0.6947(13) 1.000(5)
F14? F -0.108(2) 0.7148(11) 0.817(4)
F15? F -0.0733(18) 0.6531(9) 0.833(3)
F16? F 0.9311(17) 0.5877(5) 0.326(4)
F17? F 0.9665(17) 0.6379(12) 0.225(3)
F18? F 0.9775(18) 0.6342(11) 0.452(3)
loop_
_geom_bond_atom_site_label_1
_geom_bond_atom_site_label_2
_geom_bond_site_symmetry_1
_geom_bond_site_symmetry_2
C1 C2 1_555 1_555
C2 H1 1_555 1_555
C3 C2 1_555 1_555
H2 C3 1_555 1_555
C4 C3 1_555 1_555
C5 C4 1_555 1_555
C6 C5 1_555 1_555
C7 C6 1_555 1_555
H3 C7 1_555 1_555
C8 C7 1_555 1_555
H4 C8 1_555 1_555
C9 C8 1_555 1_555
C10 C9 1_555 1_555
C11 C10 1_555 1_555
C12 C11 1_555 1_555
H5 C12 1_555 1_555
C13 C12 1_555 1_555
H6 C13 1_555 1_555
C14 C13 1_555 1_555
C15 C14 1_555 1_555
C16 C15 1_555 1_555
C17 C16 1_555 1_555
H7 C17 1_555 1_555
C18 H8 1_555 1_555
C19 C18 1_555 1_555
C20 C1 1_555 1_555
C21 C5 1_555 1_555
C22 C21 1_555 1_555
H9 C22 1_555 1_555
C23 C22 1_555 1_555
H10 C23 1_555 1_555
C24 C23 1_555 1_555
C25 C24 1_555 1_555
H11 C25 1_555 1_555
C26 C21 1_555 1_555
H12 C26 1_555 1_555
C27 C24 1_555 1_555
C28 H13 1_555 1_555
H14 C28 1_555 1_555
H15 C28 1_555 1_555
C29 H16 1_555 1_555
H17 C29 1_555 1_555
H18 C29 1_555 1_555
C30 C10 1_555 1_555
C31 C30 1_555 1_555
H19 C31 1_555 1_555
C32 C31 1_555 1_555
H20 C32 1_555 1_555
C33 C32 1_555 1_555
C34 C33 1_555 1_555
H21 C34 1_555 1_555
C35 C30 1_555 1_555
H22 C35 1_555 1_555
C36 C33 1_555 1_555
C37 C15 1_555 1_555
C38 C37 1_555 1_555
H23 C38 1_555 1_555
C39 C38 1_555 1_555
H24 C39 1_555 1_555
C40 C39 1_555 1_555
C41 C40 1_555 1_555
H25 C41 1_555 1_555
C42 C37 1_555 1_555
H26 C42 1_555 1_555
C43 C40 1_555 1_555
C44 H27 1_555 1_555
H28 C44 1_555 1_555
H29 C44 1_555 1_555
C45 H30 1_555 1_555
H31 C45 1_555 1_555
H32 C45 1_555 1_555
C46 C20 1_555 1_555
C47 C46 1_555 1_555
H33 C47 1_555 1_555
C48 C47 1_555 1_555
H34 C48 1_555 1_555
C49 C48 1_555 1_555
C50 C49 1_555 1_555
H35 C50 1_555 1_555
C51 C46 1_555 1_555
H36 C51 1_555 1_555
C52 H37 1_555 1_555
H38 C52 1_555 1_555
H39 C52 1_555 1_555
C53 C52 1_555 1_555
H40 C53 1_555 1_555
H41 C53 1_555 1_555
C54 C53 1_555 1_555
H42 C54 1_555 1_555
H43 C54 1_555 1_555
F1 C27 1_555 1_555
F2 C27 1_555 1_555
F3 C27 1_555 1_555
F4 C36 1_555 1_555
F5 C36 1_555 1_555
F6 C36 1_555 1_555
F7 C43 1_555 1_555
F8 C43 1_555 1_555
F9 C43 1_555 1_555
C55 C49 1_555 1_555
F10 C55 1_555 1_555
F11 C55 1_555 1_555
F12 C55 1_555 1_555
N1 C1 1_555 1_555
H44 N1 1_555 1_555
N2 C6 1_555 1_555
N3 C11 1_555 1_555
H45 N3 1_555 1_555
O1 C7 1_555 1_555
O2 C8 1_555 1_555
O3 C17 1_555 1_555
O4 C17 1_555 1_555
O5 C18 1_555 1_555
N4 C16 1_555 1_555
C52B H37B 1_555 1_555
H38B C52B 1_555 1_555
H39B C52B 1_555 1_555
C53B C52B 1_555 1_555
H40B C53B 1_555 1_555
H41B C53B 1_555 1_555
C54B C54 1_555 1_555
H42B C54B 1_555 1_555
H43B C54B 1_555 1_555
C4 N1 1_555 1_555
C9 N2 1_555 1_555
C14 N3 1_555 1_555
C18 O3 1_555 1_555
C19 C20 1_555 1_555
C19 N4 1_555 1_555
C25 C26 1_555 1_555
C28 O1 1_555 1_555
C29 O2 1_555 1_555
C34 C35 1_555 1_555
C41 C42 1_555 1_555
C44 O4 1_555 1_555
C45 O5 1_555 1_555
C50 C51 1_555 1_555
C53B C54B 1_555 1_555

#END
