
#######################################################################
#
#                 Cambridge Crystallographic Data Centre
#                                CCDC 
#
#######################################################################
#
# If this CIF has been generated from an entry in the Cambridge 
# Structural Database, then it will include bibliographic, chemical, 
# crystal, experimental, refinement or atomic coordinate data resulting 
# from the CCDC's data processing and validation procedures.
#
#######################################################################

data_KECGOO
_chemical_formula_moiety         'C11 H19 N2 O2 1+,Cl1 1-'
_chemical_name_systematic        
'4-Amino-5-azatricyclo(5.5.0.0^3,9^)dodec-4-ene-3,7-diol hydrochloride'
_symmetry_cell_setting           monoclinic
_symmetry_space_group_name_H-M   'P 21'
_symmetry_Int_Tables_number      4
_space_group_name_Hall           'P 2yb'
loop_
_symmetry_equiv_pos_site_id
_symmetry_equiv_pos_as_xyz
1 x,y,z
2 -x,1/2+y,-z
_cell_length_a                   6.991(2)
_cell_length_b                   7.295(1)
_cell_length_c                   11.402(3)
_cell_angle_alpha                90
_cell_angle_beta                 99.69(1)
_cell_angle_gamma                90
_cell_volume                     573.198
_chemical_melting_point          'about 250deg.C(dec.)'
_cell_formula_units_Z            2
loop_
_atom_site_label
_atom_site_type_symbol
_atom_site_fract_x
_atom_site_fract_y
_atom_site_fract_z
Cl1 Cl 0.9504(1) 0.5000 0.9263(1)
O1 O 0.5236(3) 0.7319(3) 0.3157(2)
O2 O 0.7301(3) 0.0169(3) 0.2321(2)
N1 N 0.3727(3) 0.3663(4) 0.1067(2)
N2 N 0.2300(4) 0.6248(4) 0.1620(3)
C1 C 0.5499(3) 0.5531(3) 0.2730(2)
C2 C 0.3768(3) 0.5114(4) 0.1749(2)
C3 C 0.5213(4) 0.2243(4) 0.1080(2)
C4 C 0.6564(3) 0.1998(4) 0.2283(2)
C5 C 0.8237(3) 0.3397(3) 0.2384(2)
C6 C 0.9745(4) 0.3211(4) 0.3520(2)
C7 C 0.8976(4) 0.3244(5) 0.4707(3)
C8 C 0.7240(4) 0.4485(4) 0.4753(2)
C9 C 0.5468(3) 0.4176(4) 0.3766(2)
C10 C 0.7396(3) 0.5345(4) 0.2230(2)
C11 C 0.5371(4) 0.2209(4) 0.3295(2)
H1 H 0.5835(65) 0.8069(77) 0.2789(38)
H2 H 0.8154(61) 0.0233(75) 0.1911(36)
H3 H 0.2660(65) 0.3537(66) 0.0584(41)
H4 H 0.2516(65) 0.7200(78) 0.2078(45)
H5 H 0.1399(72) 0.6058(68) 0.1017(46)
H6 H 0.4482(56) 0.1137(69) 0.0882(35)
H7 H 0.5988(57) 0.2425(62) 0.0479(37)
H8 H 0.8901(49) 0.3181(58) 0.1720(34)
H9 H 1.0484(55) 0.2017(71) 0.3440(35)
H10 H 1.0599(59) 0.4340(66) 0.3488(36)
H11 H 1.0014(66) 0.3664(70) 0.5330(40)
H12 H 0.8662(56) 0.1920(77) 0.4887(36)
H13 H 0.6865(55) 0.4302(59) 0.5488(39)
H14 H 0.7598(58) 0.5824(66) 0.4724(37)
H15 H 0.4266(52) 0.4394(56) 0.4028(33)
H16 H 0.8242(54) 0.6283(62) 0.2663(32)
H17 H 0.7191(48) 0.5792(55) 0.1419(34)
H18 H 0.5850(49) 0.1367(60) 0.3956(34)
H19 H 0.4071(53) 0.1812(64) 0.2966(31)
loop_
_geom_bond_atom_site_label_1
_geom_bond_atom_site_label_2
_geom_bond_site_symmetry_1
_geom_bond_site_symmetry_2
O1 C1 1_555 1_555
O2 C4 1_555 1_555
N1 C2 1_555 1_555
N2 C2 1_555 1_555
C1 C2 1_555 1_555
C3 N1 1_555 1_555
C4 C3 1_555 1_555
C5 C4 1_555 1_555
C6 C5 1_555 1_555
C7 C6 1_555 1_555
C8 C7 1_555 1_555
C9 C1 1_555 1_555
C10 C1 1_555 1_555
C11 C4 1_555 1_555
H1 O1 1_555 1_555
H2 O2 1_555 1_555
H3 N1 1_555 1_555
H4 N2 1_555 1_555
H5 N2 1_555 1_555
H6 C3 1_555 1_555
H7 C3 1_555 1_555
H8 C5 1_555 1_555
H9 C6 1_555 1_555
H10 C6 1_555 1_555
H11 C7 1_555 1_555
H12 C7 1_555 1_555
H13 C8 1_555 1_555
H14 C8 1_555 1_555
H15 C9 1_555 1_555
H16 C10 1_555 1_555
H17 C10 1_555 1_555
H18 C11 1_555 1_555
H19 C11 1_555 1_555
C5 C10 1_555 1_555
C8 C9 1_555 1_555
C9 C11 1_555 1_555

#END
