
#######################################################################
#
#                 Cambridge Crystallographic Data Centre
#                                CCDC 
#
#######################################################################
#
# If this CIF has been generated from an entry in the Cambridge 
# Structural Database, then it will include bibliographic, chemical, 
# crystal, experimental, refinement or atomic coordinate data resulting 
# from the CCDC's data processing and validation procedures.
#
#######################################################################

data_KECGOQ
_chemical_formula_moiety         'C30 H34 Br1 N1 O4 Si1'
_chemical_name_systematic        
'Methyl 2-(4-bromophenyl)-5-((t-butyl(dimethyl)silyl)oxy)-3,6-diphenyl-3,6-dihydro-2H-1,2-oxazine-4-carboxylate'
_symmetry_cell_setting           monoclinic
_symmetry_space_group_name_H-M   'P 21/c'
_symmetry_Int_Tables_number      14
_space_group_name_Hall           '-P 2ybc'
loop_
_symmetry_equiv_pos_site_id
_symmetry_equiv_pos_as_xyz
1 x,y,z
2 -x,1/2+y,1/2-z
3 -x,-y,-z
4 x,1/2-y,1/2+z
_cell_length_a                   12.3514(3)
_cell_length_b                   20.6835(5)
_cell_length_c                   11.7429(3)
_cell_angle_alpha                90
_cell_angle_beta                 91.4297(4)
_cell_angle_gamma                90
_cell_volume                     2999.03
_exptl_crystal_colour            colorless
_exptl_crystal_description       prism
_cell_formula_units_Z            4
loop_
_atom_site_label
_atom_site_type_symbol
_atom_site_fract_x
_atom_site_fract_y
_atom_site_fract_z
Br1 Br 1.565416(19) 0.136125(12) 0.27373(3)
N1 N 1.13612(10) 0.27957(6) 0.28685(10)
C1 C 1.11200(12) 0.32481(8) 0.19148(13)
H1 H 1.1049(12) 0.2986(7) 0.1273(13)
C2 C 1.00359(12) 0.35605(7) 0.21284(12)
C3 C 0.95855(11) 0.35341(7) 0.31486(12)
C4 C 1.01627(12) 0.32046(7) 0.41502(12)
H2 H 0.9876(11) 0.2779(7) 0.4229(12)
O1 O 1.12959(8) 0.31626(5) 0.39188(8)
C5 C 1.23975(12) 0.24913(7) 0.28488(13)
C6 C 1.32142(13) 0.26199(9) 0.36315(16)
H3 H 1.3124(14) 0.2915(9) 0.4176(15)
C7 C 1.41847(15) 0.22816(10) 0.35954(19)
H4 H 1.4723(16) 0.2365(10) 0.4137(17)
C8 C 1.43306(14) 0.18307(9) 0.27634(18)
C9 C 1.35333(17) 0.17021(10) 0.1969(2)
H5 H 1.3643(17) 0.1413(10) 0.1418(18)
C10 C 1.25577(16) 0.20281(10) 0.20168(18)
H6 H 1.1991(17) 0.1928(10) 0.1502(18)
C11 C 1.20085(12) 0.37349(8) 0.16750(13)
C12 C 1.21550(18) 0.42882(10) 0.23128(16)
H7 H 1.1654(16) 0.4385(10) 0.2866(17)
C13 C 1.2990(2) 0.47128(12) 0.20909(19)
H8 H 1.3066(19) 0.5078(12) 0.252(2)
C14 C 1.36906(17) 0.45941(12) 0.1237(2)
H9 H 1.4333(18) 0.4910(11) 0.1016(18)
C15 C 1.3546(2) 0.40543(13) 0.0593(2)
H10 H 1.401(2) 0.3970(12) 0.003(2)
C16 C 1.27103(18) 0.36269(11) 0.0800(2)
H11 H 1.2588(18) 0.3252(12) 0.0372(19)
C17 C 0.95245(14) 0.38543(9) 0.10936(14)
O2 O 0.96249(14) 0.36346(8) 0.01610(11)
O3 O 0.89685(12) 0.43869(7) 0.13017(10)
C18 C 0.8428(2) 0.46885(13) 0.03327(19)
H12 H 0.7987 0.5039 0.0589
H13 H 0.7980 0.4376 -0.0057
H14 H 0.8959 0.4851 -0.0178
O4 O 0.86132(8) 0.37981(5) 0.33931(9)
Si1 Si 0.73535(4) 0.35048(2) 0.33905(4)
C19 C 0.69590(19) 0.32170(13) 0.19531(19)
H15 H 0.7449 0.2883 0.1725
H16 H 0.6987 0.3570 0.1424
H17 H 0.6236 0.3048 0.1961
C20 C 0.72996(17) 0.28204(12) 0.4407(2)
H18 H 0.7809 0.2494 0.4193
H19 H 0.6583 0.2641 0.4394
H20 H 0.7479 0.2972 0.5161
C21 C 0.65319(14) 0.42083(10) 0.38635(18)
C22 C 0.6519(2) 0.47376(12) 0.2956(3)
H21 H 0.6099 0.5097 0.3212
H22 H 0.6204 0.4571 0.2260
H23 H 0.7247 0.4877 0.2825
C23 C 0.53616(17) 0.39819(13) 0.4058(3)
H24 H 0.4929 0.4344 0.4279
H25 H 0.5362 0.3662 0.4650
H26 H 0.5065 0.3799 0.3367
C24 C 0.7024(2) 0.44778(14) 0.4978(2)
H27 H 0.6582 0.4825 0.5246
H28 H 0.7741 0.4636 0.4846
H29 H 0.7059 0.4141 0.5541
C25 C 1.00737(12) 0.35561(7) 0.52707(12)
C26 C 1.04633(15) 0.41784(9) 0.54070(15)
H30 H 1.0768(14) 0.4391(9) 0.4797(16)
C27 C 1.04115(18) 0.44898(10) 0.64480(16)
H31 H 1.0705(16) 0.4913(10) 0.6530(17)
C28 C 0.99691(19) 0.41774(12) 0.73564(17)
H32 H 0.9944(16) 0.4391(10) 0.8065(18)
C29 C 0.95789(19) 0.35608(12) 0.72339(16)
H33 H 0.9290(16) 0.3341(10) 0.7831(18)
C30 C 0.96317(15) 0.32466(9) 0.61933(15)
H34 H 0.9367(14) 0.2825(9) 0.6088(14)
H35? H 0.8630 0.4471 -0.0353
H36? H 0.8637 0.5135 0.0293
H37? H 0.7658 0.4660 0.0415
H38? H 0.6333 0.3451 0.1682
H39? H 0.6794 0.2764 0.1983
H40? H 0.7546 0.3286 0.1446
H41? H 0.6772 0.2910 0.4973
H42? H 0.7998 0.2764 0.4772
H43? H 0.7101 0.2433 0.4005
H44? H 0.6935 0.4600 0.2320
H45? H 0.6829 0.5126 0.3271
H46? H 0.5786 0.4820 0.2706
H47? H 0.5309 0.3526 0.3918
H48? H 0.4875 0.4208 0.3548
H49? H 0.5172 0.4071 0.4831
H50? H 0.7673 0.4243 0.5176
H51? H 0.6513 0.4432 0.5576
H52? H 0.7196 0.4927 0.4881
loop_
_geom_bond_atom_site_label_1
_geom_bond_atom_site_label_2
_geom_bond_site_symmetry_1
_geom_bond_site_symmetry_2
Br1 C8 1_555 1_555
N1 C1 1_555 1_555
C1 H1 1_555 1_555
C2 C1 1_555 1_555
C3 C2 1_555 1_555
C4 C3 1_555 1_555
H2 C4 1_555 1_555
O1 N1 1_555 1_555
C5 N1 1_555 1_555
C6 C5 1_555 1_555
H3 C6 1_555 1_555
C7 C6 1_555 1_555
H4 C7 1_555 1_555
C8 C7 1_555 1_555
C9 C8 1_555 1_555
H5 C9 1_555 1_555
C10 C5 1_555 1_555
H6 C10 1_555 1_555
C11 C1 1_555 1_555
C12 C11 1_555 1_555
H7 C12 1_555 1_555
C13 C12 1_555 1_555
H8 C13 1_555 1_555
C14 C13 1_555 1_555
H9 C14 1_555 1_555
C15 C14 1_555 1_555
H10 C15 1_555 1_555
C16 C11 1_555 1_555
H11 C16 1_555 1_555
C17 C2 1_555 1_555
O2 C17 1_555 1_555
O3 C17 1_555 1_555
C18 O3 1_555 1_555
H12 C18 1_555 1_555
H13 C18 1_555 1_555
H14 C18 1_555 1_555
O4 C3 1_555 1_555
Si1 O4 1_555 1_555
C19 Si1 1_555 1_555
H15 C19 1_555 1_555
H16 C19 1_555 1_555
H17 C19 1_555 1_555
C20 Si1 1_555 1_555
H18 C20 1_555 1_555
H19 C20 1_555 1_555
H20 C20 1_555 1_555
C21 Si1 1_555 1_555
C22 C21 1_555 1_555
H21 C22 1_555 1_555
H22 C22 1_555 1_555
H23 C22 1_555 1_555
C23 C21 1_555 1_555
H24 C23 1_555 1_555
H25 C23 1_555 1_555
H26 C23 1_555 1_555
C24 C21 1_555 1_555
H27 C24 1_555 1_555
H28 C24 1_555 1_555
H29 C24 1_555 1_555
C25 C4 1_555 1_555
C26 C25 1_555 1_555
H30 C26 1_555 1_555
C27 C26 1_555 1_555
H31 C27 1_555 1_555
C28 C27 1_555 1_555
H32 C28 1_555 1_555
C29 C28 1_555 1_555
H33 C29 1_555 1_555
C30 C25 1_555 1_555
H34 C30 1_555 1_555
C4 O1 1_555 1_555
C9 C10 1_555 1_555
C15 C16 1_555 1_555
C29 C30 1_555 1_555

#END
