
#######################################################################
#
#                 Cambridge Crystallographic Data Centre
#                                CCDC 
#
#######################################################################
#
# If this CIF has been generated from an entry in the Cambridge 
# Structural Database, then it will include bibliographic, chemical, 
# crystal, experimental, refinement or atomic coordinate data resulting 
# from the CCDC's data processing and validation procedures.
#
#######################################################################

data_KECHUY
_chemical_formula_moiety         'C24 H21 N1 O4 S1'
_chemical_name_systematic        
"5'-nitro-6'-(2-thienyl)-1',4',5',6'-tetrahydro-1,1':3',1''-terphenyl-4'-yl acetate"
_symmetry_cell_setting           monoclinic
_symmetry_space_group_name_H-M   'P 21'
_symmetry_Int_Tables_number      4
_space_group_name_Hall           'P 2yb'
loop_
_symmetry_equiv_pos_site_id
_symmetry_equiv_pos_as_xyz
1 x,y,z
2 -x,1/2+y,-z
_cell_length_a                   10.2729(8)
_cell_length_b                   7.4895(4)
_cell_length_c                   13.8256(9)
_cell_angle_alpha                90
_cell_angle_beta                 92.515(8)
_cell_angle_gamma                90
_cell_volume                     1062.7
_exptl_crystal_colour            colorless
_exptl_crystal_description       block
_cell_formula_units_Z            2
loop_
_atom_site_label
_atom_site_type_symbol
_atom_site_fract_x
_atom_site_fract_y
_atom_site_fract_z
S1 S -0.56956(17) -0.6245(2) -0.40057(12)
O1 O -0.7370(3) -0.1278(5) -0.0496(2)
O2 O -0.5334(4) -0.0791(5) 0.0133(3)
O3 O -0.6355(5) 0.0010(5) -0.2516(4)
O4 O -0.4888(4) -0.2045(6) -0.2278(3)
N1 N -0.6005(5) -0.1508(7) -0.2294(3)
C1 C -0.7225(6) -0.4003(7) 0.1169(4)
H1 H -0.6384 -0.3768 0.0983
C2 C -0.7494(6) -0.3993(8) 0.2150(4)
H2 H -0.6829 -0.3781 0.2614
C3 C -0.8756(6) -0.4300(7) 0.2432(4)
H3 H -0.8945 -0.4252 0.3083
C4 C -0.9720(6) -0.4673(7) 0.1744(4)
H4 H -1.0559 -0.4915 0.1935
C5 C -0.9462(5) -0.4693(7) 0.0765(4)
H5 H -1.0128 -0.4929 0.0305
C6 C -0.8198(5) -0.4359(6) 0.0471(4)
C7 C -0.7917(5) -0.4379(6) -0.0581(4)
C8 C -0.8411(5) -0.5594(7) -0.1191(4)
H6 H -0.8997 -0.6409 -0.0948
C9 C -0.8106(5) -0.5769(7) -0.2235(3)
H7 H -0.7871 -0.7022 -0.2335
C10 C -0.6865(5) -0.4635(7) -0.2454(4)
H8 H -0.6116 -0.5198 -0.2114
C11 C -0.7050(5) -0.2803(7) -0.2005(4)
H9 H -0.7906 -0.2333 -0.2217
C12 C -0.6981(5) -0.2964(6) -0.0903(3)
H10 H -0.6091 -0.3261 -0.0674
C13 C -0.9272(5) -0.5394(7) -0.2916(4)
C14 C -1.0260(6) -0.4216(7) -0.2679(4)
H11 H -1.0223 -0.3641 -0.2082
C15 C -1.1311(6) -0.3900(8) -0.3340(5)
H12 H -1.1964 -0.3106 -0.3180
C16 C -1.1384(7) -0.4746(9) -0.4216(5)
H13 H -1.2089 -0.4542 -0.4647
C17 C -1.0415(6) -0.5895(9) -0.4456(4)
H14 H -1.0464 -0.6458 -0.5056
C18 C -0.9363(6) -0.6237(8) -0.3822(4)
H15 H -0.8717 -0.7027 -0.3998
C19 C -0.6592(5) -0.4575(7) -0.3502(4)
C20 C -0.7063(5) -0.3395(7) -0.4211(3)
H16 H -0.7574 -0.2402 -0.4087
C21 C -0.6674(6) -0.3881(9) -0.5139(4)
H17 H -0.6896 -0.3225 -0.5693
C22 C -0.5953(7) -0.5380(9) -0.5152(4)
H18 H -0.5634 -0.5884 -0.5709
C23 C -0.6462(6) -0.0359(7) 0.0055(4)
C24 C -0.7063(6) 0.1167(7) 0.0569(4)
H19 H -0.7875 0.1481 0.0242
H20 H -0.6485 0.2173 0.0571
H21 H -0.7217 0.0826 0.1223
loop_
_geom_bond_atom_site_label_1
_geom_bond_atom_site_label_2
_geom_bond_site_symmetry_1
_geom_bond_site_symmetry_2
S1 C19 1_555 1_555
O1 C12 1_555 1_555
O2 C23 1_555 1_555
O3 N1 1_555 1_555
O4 N1 1_555 1_555
N1 C11 1_555 1_555
C1 H1 1_555 1_555
C2 C1 1_555 1_555
H2 C2 1_555 1_555
C3 C2 1_555 1_555
H3 C3 1_555 1_555
C4 C3 1_555 1_555
H4 C4 1_555 1_555
C5 C4 1_555 1_555
H5 C5 1_555 1_555
C6 C1 1_555 1_555
C7 C6 1_555 1_555
C8 C7 1_555 1_555
H6 C8 1_555 1_555
C9 C8 1_555 1_555
H7 C9 1_555 1_555
C10 C9 1_555 1_555
H8 C10 1_555 1_555
C11 C10 1_555 1_555
H9 C11 1_555 1_555
C12 C7 1_555 1_555
H10 C12 1_555 1_555
C13 C9 1_555 1_555
C14 C13 1_555 1_555
H11 C14 1_555 1_555
C15 C14 1_555 1_555
H12 C15 1_555 1_555
C16 C15 1_555 1_555
H13 C16 1_555 1_555
C17 C16 1_555 1_555
H14 C17 1_555 1_555
C18 C13 1_555 1_555
H15 C18 1_555 1_555
C19 C10 1_555 1_555
C20 C19 1_555 1_555
H16 C20 1_555 1_555
C21 C20 1_555 1_555
H17 C21 1_555 1_555
C22 S1 1_555 1_555
H18 C22 1_555 1_555
C23 O1 1_555 1_555
C24 C23 1_555 1_555
H19 C24 1_555 1_555
H20 C24 1_555 1_555
H21 C24 1_555 1_555
C5 C6 1_555 1_555
C11 C12 1_555 1_555
C17 C18 1_555 1_555
C21 C22 1_555 1_555

#END
