
#######################################################################
#
#                 Cambridge Crystallographic Data Centre
#                                CCDC 
#
#######################################################################
#
# If this CIF has been generated from an entry in the Cambridge 
# Structural Database, then it will include bibliographic, chemical, 
# crystal, experimental, refinement or atomic coordinate data resulting 
# from the CCDC's data processing and validation procedures.
#
#######################################################################

data_KECSIW
_chemical_formula_moiety         'C22 H15 Br1 N4 O3'
_chemical_name_systematic        
"Methyl 4-bromo-4',4'-dicyano-1-methyl-2-oxo-2'-phenyl-1,2,2',4'-tetrahydrospiro[indole-3,3'-pyrrole]-2'-carboxylate"
_symmetry_cell_setting           orthorhombic
_symmetry_space_group_name_H-M   'P 21 21 21'
_symmetry_Int_Tables_number      19
_space_group_name_Hall           'P 2ac 2ab'
loop_
_symmetry_equiv_pos_site_id
_symmetry_equiv_pos_as_xyz
1 x,y,z
2 1/2-x,-y,1/2+z
3 1/2+x,1/2-y,-z
4 -x,1/2+y,1/2-z
_cell_length_a                   9.26806(16)
_cell_length_b                   13.0043(2)
_cell_length_c                   16.2697(2)
_cell_angle_alpha                90
_cell_angle_beta                 90
_cell_angle_gamma                90
_cell_volume                     1960.9
_exptl_crystal_colour            colorless
_exptl_crystal_description       block
_cell_formula_units_Z            4
loop_
_atom_site_label
_atom_site_type_symbol
_atom_site_fract_x
_atom_site_fract_y
_atom_site_fract_z
Br1 Br -0.02126(3) -0.05774(2) -0.74490(2)
O1 O -0.5073(3) -0.33593(18) -0.83812(14)
O2 O -0.5504(3) -0.2952(2) -0.66421(15)
C1 C -0.3302(4) -0.2009(3) -0.7026(2)
N1 N -0.3752(3) -0.0790(2) -0.81509(18)
O3 O -0.6118(2) -0.1807(2) -0.82711(16)
C2 C -0.3579(4) -0.1901(3) -0.8000(2)
C3 C -0.1832(4) -0.3212(3) -0.6318(2)
C4 C -0.4195(4) -0.2879(3) -0.6620(2)
C5 C -0.3811(3) -0.0281(2) -0.7498(2)
H1 H -0.3859 0.0433 -0.7494
C6 C -0.0928(5) -0.3725(3) -0.9044(2)
H2 H -0.0665 -0.4414 -0.9018
C7 C -0.1974(4) -0.3342(3) -0.8514(2)
H3 H -0.2407 -0.3779 -0.8135
C8 C -0.2872(4) -0.0513(3) -0.6042(2)
C9 C -0.0273(4) -0.3077(3) -0.9612(2)
H4 H 0.0427 -0.3330 -0.9968
C10 C -0.1773(4) -0.2295(3) -0.6777(2)
C11 C -0.2380(4) -0.2313(3) -0.8545(2)
C12 C -0.0432(4) -0.1848(3) -0.6887(2)
C13 C -0.3801(4) -0.0924(3) -0.6699(2)
C14 C -0.0631(5) -0.3685(3) -0.6003(2)
H5 H -0.0703 -0.4294 -0.5706
N2 N -0.2189(4) -0.0202(3) -0.5510(2)
C15 C -0.5008(4) -0.2448(2) -0.82376(18)
N3 N -0.6415(4) -0.0734(3) -0.6095(2)
N4 N -0.3284(3) -0.3526(2) -0.62362(17)
C16 C 0.0812(4) -0.2309(3) -0.6576(2)
H6 H 0.1709 -0.2006 -0.6658
C17 C -0.7476(4) -0.2295(4) -0.8505(3)
H7 H -0.7368 -0.2619 -0.9032
H8 H -0.8222 -0.1784 -0.8535
H9 H -0.7732 -0.2803 -0.8102
C18 C -0.0668(4) -0.2053(3) -0.9645(2)
H10 H -0.0220 -0.1613 -1.0016
C19 C 0.0697(4) -0.3223(3) -0.6144(2)
H11 H 0.1529 -0.3534 -0.5943
C20 C -0.1727(4) -0.1681(3) -0.9128(2)
H12 H -0.2009 -0.0997 -0.9169
C21 C -0.5289(4) -0.0874(3) -0.6370(2)
C22 C -0.3741(4) -0.4396(3) -0.5728(2)
H13 H -0.3365 -0.5023 -0.5954
H14 H -0.4776 -0.4429 -0.5716
H15 H -0.3383 -0.4308 -0.5178
loop_
_geom_bond_atom_site_label_1
_geom_bond_atom_site_label_2
_geom_bond_site_symmetry_1
_geom_bond_site_symmetry_2
Br1 C12 1_555 1_555
O1 C15 1_555 1_555
O2 C4 1_555 1_555
C1 C2 1_555 1_555
N1 C2 1_555 1_555
O3 C15 1_555 1_555
C2 C11 1_555 1_555
C3 C10 1_555 1_555
C4 C1 1_555 1_555
C5 N1 1_555 1_555
H1 C5 1_555 1_555
C6 H2 1_555 1_555
C7 C6 1_555 1_555
H3 C7 1_555 1_555
C8 C13 1_555 1_555
C9 C6 1_555 1_555
H4 C9 1_555 1_555
C10 C1 1_555 1_555
C11 C7 1_555 1_555
C12 C10 1_555 1_555
C13 C1 1_555 1_555
C14 C3 1_555 1_555
H5 C14 1_555 1_555
N2 C8 1_555 1_555
C15 C2 1_555 1_555
N3 C21 1_555 1_555
N4 C3 1_555 1_555
C16 C12 1_555 1_555
H6 C16 1_555 1_555
C17 O3 1_555 1_555
H7 C17 1_555 1_555
H8 C17 1_555 1_555
H9 C17 1_555 1_555
C18 C9 1_555 1_555
H10 C18 1_555 1_555
C19 C14 1_555 1_555
H11 C19 1_555 1_555
C20 C11 1_555 1_555
H12 C20 1_555 1_555
C21 C13 1_555 1_555
C22 N4 1_555 1_555
H13 C22 1_555 1_555
H14 C22 1_555 1_555
H15 C22 1_555 1_555
C4 N4 1_555 1_555
C5 C13 1_555 1_555
C16 C19 1_555 1_555
C18 C20 1_555 1_555

#END
