
#######################################################################
#
#                 Cambridge Crystallographic Data Centre
#                                CCDC 
#
#######################################################################
#
# If this CIF has been generated from an entry in the Cambridge 
# Structural Database, then it will include bibliographic, chemical, 
# crystal, experimental, refinement or atomic coordinate data resulting 
# from the CCDC's data processing and validation procedures.
#
#######################################################################

data_KECVOF
_chemical_formula_moiety         'C21 H30 O6,0.5(H2 O1)'
_chemical_name_systematic        
'(4-(5-Decyl-5-methylfuran-2(5H)-ylidene)-3,5-dioxotetrahydrofuran-2-yl)acetic acid hemihydrate'
_symmetry_cell_setting           monoclinic
_symmetry_space_group_name_H-M   'C 2'
_symmetry_Int_Tables_number      5
_space_group_name_Hall           'C 2y'
loop_
_symmetry_equiv_pos_site_id
_symmetry_equiv_pos_as_xyz
1 x,y,z
2 -x,y,-z
3 1/2+x,1/2+y,z
4 1/2-x,1/2+y,-z
_cell_length_a                   56.216(11)
_cell_length_b                   4.9368(10)
_cell_length_c                   15.390(3)
_cell_angle_alpha                90
_cell_angle_beta                 101.42(3)
_cell_angle_gamma                90
_cell_volume                     4186.58
_exptl_crystal_colour            colorless
_exptl_crystal_description       plate
_cell_formula_units_Z            8
loop_
_atom_site_label
_atom_site_type_symbol
_atom_site_fract_x
_atom_site_fract_y
_atom_site_fract_z
O1 O 0.10276(5) -0.1877(6) 0.30247(17)
O4 O 0.10276(5) -0.5879(7) 0.15177(19)
O7 O 0.06629(5) -0.5720(6) 0.05972(17)
O8 O 0.03101(5) -0.0723(7) 0.13893(18)
O11 O 0.01328(6) -0.6602(7) -0.10375(19)
H4 H 0.0099 -0.7555 -0.1497
O13 O 0.03683(6) -0.4513(7) -0.1823(2)
C2 C 0.33528(9) 0.0663(15) 0.3648(4)
H8 H 0.3491 0.1902 0.3713
H9 H 0.3317 -0.0051 0.3042
H10 H 0.3392 -0.0838 0.4068
C3 C 0.31318(8) 0.2187(13) 0.3835(3)
H11 H 0.3167 0.2804 0.4460
H12 H 0.3105 0.3818 0.3454
C6 C 0.29001(7) 0.0536(11) 0.3680(3)
H17 H 0.2926 -0.1073 0.4071
H18 H 0.2867 -0.0118 0.3059
C8 C 0.26779(8) 0.2059(11) 0.3845(3)
H21 H 0.2654 0.3694 0.3466
H22 H 0.2708 0.2667 0.4471
C10 C 0.24450(7) 0.0383(11) 0.3661(3)
H25 H 0.2418 -0.0278 0.3042
H26 H 0.2467 -0.1220 0.4055
C11 C 0.22196(7) 0.1916(10) 0.3795(3)
H27 H 0.2196 0.3510 0.3397
H28 H 0.2247 0.2591 0.4413
C13 C 0.19878(7) 0.0219(10) 0.3617(3)
H31 H 0.2010 -0.1358 0.4023
H32 H 0.1962 -0.0483 0.3003
C16 C 0.17610(7) 0.1775(10) 0.3737(3)
H37 H 0.1790 0.2571 0.4339
H38 H 0.1733 0.3285 0.3305
C17 C 0.15334(7) 0.0034(9) 0.3612(3)
H39 H 0.1556 -0.1400 0.4071
H40 H 0.1509 -0.0859 0.3025
C19 C 0.13079(7) 0.1693(9) 0.3675(3)
H43 H 0.1266 0.2819 0.3135
H44 H 0.1350 0.2941 0.4186
C21 C 0.10819(7) 0.0093(9) 0.3780(3)
C24 C 0.11145(8) -0.1483(10) 0.4643(3)
H50 H 0.0968 -0.2548 0.4653
H51 H 0.1142 -0.0217 0.5143
H52 H 0.1254 -0.2700 0.4688
C25 C 0.08566(7) 0.1757(9) 0.3633(3)
H53 H 0.0829 0.3222 0.4000
C27 C 0.06990(7) 0.0920(8) 0.2916(3)
H55 H 0.0543 0.1662 0.2696
C29 C 0.08091(7) -0.1318(9) 0.2535(2)
C31 C 0.07088(7) -0.2767(9) 0.1779(3)
C34 C 0.04711(8) -0.2353(9) 0.1275(3)
C35 C 0.04311(7) -0.4325(9) 0.0519(2)
H57 H 0.0302 -0.5653 0.0594
C37 C 0.08291(7) -0.4900(9) 0.1344(2)
C39 C 0.03588(8) -0.2896(9) -0.0364(3)
H59 H 0.0219 -0.1702 -0.0339
H60 H 0.0495 -0.1727 -0.0452
C41 C 0.02924(7) -0.4714(9) -0.1148(3)
O2 O 0.10283(5) -0.2543(6) -0.19820(17)
O5 O 0.10213(5) -0.6280(7) -0.35497(18)
O6 O 0.06574(5) -0.5996(6) -0.44783(17)
O9 O 0.03117(5) -0.1062(7) -0.35993(19)
O10 O 0.01352(6) -0.6805(7) -0.60617(19)
H3 H 0.0092 -0.7678 -0.6535
O12 O 0.03254(6) -0.4244(7) -0.69073(19)
C1 C 0.33712(8) -0.2040(13) -0.1168(3)
H5 H 0.3512 -0.0942 -0.1237
H6 H 0.3350 -0.3523 -0.1600
H7 H 0.3398 -0.2790 -0.0567
C4 C 0.31439(8) -0.0272(11) -0.1324(3)
H13 H 0.3173 0.1320 -0.0926
H14 H 0.3113 0.0398 -0.1942
C5 C 0.29198(8) -0.1766(11) -0.1162(3)
H15 H 0.2950 -0.2395 -0.0539
H16 H 0.2894 -0.3389 -0.1547
C7 C 0.26886(7) -0.0073(10) -0.1336(3)
H19 H 0.2715 0.1548 -0.0950
H20 H 0.2659 0.0561 -0.1958
C9 C 0.24631(7) -0.1537(11) -0.1179(3)
H23 H 0.2490 -0.2118 -0.0551
H24 H 0.2439 -0.3189 -0.1551
C12 C 0.22320(7) 0.0163(11) -0.1384(3)
H29 H 0.2255 0.1806 -0.1008
H30 H 0.2206 0.0757 -0.2010
C14 C 0.20049(7) -0.1310(10) -0.1235(3)
H33 H 0.1980 -0.2942 -0.1615
H34 H 0.2031 -0.1916 -0.0610
C15 C 0.17782(7) 0.0426(10) -0.1435(3)
H35 H 0.1749 0.0979 -0.2066
H36 H 0.1805 0.2091 -0.1070
C18 C 0.15515(8) -0.1022(10) -0.1254(3)
H41 H 0.1586 -0.1727 -0.0639
H42 H 0.1515 -0.2590 -0.1659
C20 C 0.13259(7) 0.0818(9) -0.1374(3)
H45 H 0.1361 0.2349 -0.0953
H46 H 0.1297 0.1581 -0.1981
C22 C 0.10947(7) -0.0563(9) -0.1235(3)
C23 C 0.11198(8) -0.2050(9) -0.0366(3)
H47 H 0.0964 -0.2864 -0.0322
H48 H 0.1170 -0.0776 0.0125
H49 H 0.1242 -0.3476 -0.0336
C26 C 0.08772(7) 0.1270(9) -0.1387(3)
H54 H 0.0857 0.2784 -0.1027
C28 C 0.07160(7) 0.0485(9) -0.2095(3)
H56 H 0.0563 0.1304 -0.2317
C30 C 0.08163(7) -0.1852(9) -0.2466(3)
C32 C 0.07096(7) -0.3191(9) -0.3237(2)
C33 C 0.04704(8) -0.2661(10) -0.3723(3)
C36 C 0.04257(7) -0.4583(9) -0.4516(2)
H58 H 0.0296 -0.5913 -0.4457
C38 C 0.08189(8) -0.5282(9) -0.3719(3)
C40 C 0.03553(8) -0.3029(9) -0.5377(3)
H61 H 0.0221 -0.1780 -0.5324
H62 H 0.0495 -0.1908 -0.5456
C42 C 0.02770(7) -0.4732(9) -0.6198(3)
O3 O -0.00130(4) -0.9729(7) -0.75224(17)
H1 H -0.0126 -1.0679 -0.7402
H2 H 0.0104 -1.0609 -0.7641
loop_
_geom_bond_atom_site_label_1
_geom_bond_atom_site_label_2
_geom_bond_site_symmetry_1
_geom_bond_site_symmetry_2
O1 C21 1_555 1_555
O2 C22 1_555 1_555
O3 H1 1_555 1_555
H2 O3 1_555 1_555
O4 C37 1_555 1_555
O5 C38 1_555 1_555
O6 C36 1_555 1_555
O7 C35 1_555 1_555
O8 C34 1_555 1_555
O9 C33 1_555 1_555
O10 H3 1_555 1_555
O11 H4 1_555 1_555
O12 C42 1_555 1_555
O13 C41 1_555 1_555
C1 H5 1_555 1_555
H6 C1 1_555 1_555
H7 C1 1_555 1_555
C2 H8 1_555 1_555
H9 C2 1_555 1_555
H10 C2 1_555 1_555
C3 C2 1_555 1_555
H11 C3 1_555 1_555
H12 C3 1_555 1_555
C4 C1 1_555 1_555
H13 C4 1_555 1_555
H14 C4 1_555 1_555
C5 C4 1_555 1_555
H15 C5 1_555 1_555
H16 C5 1_555 1_555
C6 C3 1_555 1_555
H17 C6 1_555 1_555
H18 C6 1_555 1_555
C7 C5 1_555 1_555
H19 C7 1_555 1_555
H20 C7 1_555 1_555
C8 C6 1_555 1_555
H21 C8 1_555 1_555
H22 C8 1_555 1_555
C9 C7 1_555 1_555
H23 C9 1_555 1_555
H24 C9 1_555 1_555
C10 C8 1_555 1_555
H25 C10 1_555 1_555
H26 C10 1_555 1_555
C11 C10 1_555 1_555
H27 C11 1_555 1_555
H28 C11 1_555 1_555
C12 C9 1_555 1_555
H29 C12 1_555 1_555
H30 C12 1_555 1_555
C13 C11 1_555 1_555
H31 C13 1_555 1_555
H32 C13 1_555 1_555
C14 C12 1_555 1_555
H33 C14 1_555 1_555
H34 C14 1_555 1_555
C15 C14 1_555 1_555
H35 C15 1_555 1_555
H36 C15 1_555 1_555
C16 C13 1_555 1_555
H37 C16 1_555 1_555
H38 C16 1_555 1_555
C17 C16 1_555 1_555
H39 C17 1_555 1_555
H40 C17 1_555 1_555
C18 C15 1_555 1_555
H41 C18 1_555 1_555
H42 C18 1_555 1_555
C19 C17 1_555 1_555
H43 C19 1_555 1_555
H44 C19 1_555 1_555
C20 C18 1_555 1_555
H45 C20 1_555 1_555
H46 C20 1_555 1_555
C21 C19 1_555 1_555
C22 C20 1_555 1_555
C23 C22 1_555 1_555
H47 C23 1_555 1_555
H48 C23 1_555 1_555
H49 C23 1_555 1_555
C24 C21 1_555 1_555
H50 C24 1_555 1_555
H51 C24 1_555 1_555
H52 C24 1_555 1_555
C25 C21 1_555 1_555
H53 C25 1_555 1_555
C26 C22 1_555 1_555
H54 C26 1_555 1_555
C27 C25 1_555 1_555
H55 C27 1_555 1_555
C28 C26 1_555 1_555
H56 C28 1_555 1_555
C29 O1 1_555 1_555
C30 O2 1_555 1_555
C31 C29 1_555 1_555
C32 C30 1_555 1_555
C33 C32 1_555 1_555
C34 C31 1_555 1_555
C35 C34 1_555 1_555
H57 C35 1_555 1_555
C36 C33 1_555 1_555
H58 C36 1_555 1_555
C37 O7 1_555 1_555
C38 O6 1_555 1_555
C39 C35 1_555 1_555
H59 C39 1_555 1_555
H60 C39 1_555 1_555
C40 C36 1_555 1_555
H61 C40 1_555 1_555
H62 C40 1_555 1_555
C41 O11 1_555 1_555
C42 O10 1_555 1_555
C27 C29 1_555 1_555
C28 C30 1_555 1_555
C31 C37 1_555 1_555
C32 C38 1_555 1_555
C39 C41 1_555 1_555
C40 C42 1_555 1_555

#END
