
#######################################################################
#
#                 Cambridge Crystallographic Data Centre
#                                CCDC 
#
#######################################################################
#
# If this CIF has been generated from an entry in the Cambridge 
# Structural Database, then it will include bibliographic, chemical, 
# crystal, experimental, refinement or atomic coordinate data resulting 
# from the CCDC's data processing and validation procedures.
#
#######################################################################

data_KECVEW
_chemical_formula_moiety         'C22 H10 B1 F15 O3 P1 1-,C10 H22 N1 1+'
_chemical_name_systematic        
'1,2,2,6,6-pentamethylpiperidin-1-ium (diethoxyphosphoryl)[tris(pentafluorophenyl)]borate'
_symmetry_cell_setting           monoclinic
_symmetry_space_group_name_H-M   'P 21/n'
_symmetry_Int_Tables_number      14
_space_group_name_Hall           '-P 2yn'
loop_
_symmetry_equiv_pos_site_id
_symmetry_equiv_pos_as_xyz
1 x,y,z
2 1/2-x,1/2+y,1/2-z
3 -x,-y,-z
4 1/2+x,1/2-y,1/2+z
_cell_length_a                   12.1359(14)
_cell_length_b                   14.9346(18)
_cell_length_c                   19.614(2)
_cell_angle_alpha                90
_cell_angle_beta                 99.758(2)
_cell_angle_gamma                90
_cell_volume                     3503.5
_exptl_crystal_colour            colorless
_exptl_crystal_description       block
_cell_formula_units_Z            4
loop_
_atom_site_label
_atom_site_type_symbol
_atom_site_fract_x
_atom_site_fract_y
_atom_site_fract_z
P1 P 0.19791(4) 0.19627(4) 0.15197(2)
O1 O 0.09729(12) 0.22814(10) 0.17878(7)
O2 O 0.21013(12) 0.09042(10) 0.16087(7)
O3 O 0.31107(12) 0.22944(11) 0.19774(7)
B1 B 0.21421(18) 0.23155(16) 0.05442(11)
F1 F 0.39738(10) 0.10748(10) 0.10318(6)
F2 F 0.44142(13) -0.04721(10) 0.04703(8)
F3 F 0.32736(14) -0.09709(10) -0.07824(9)
F4 F 0.15860(12) 0.00983(11) -0.14359(7)
F5 F 0.10974(10) 0.16163(10) -0.08739(6)
F6 F 0.41845(11) 0.23372(10) -0.01854(7)
F7 F 0.57895(12) 0.35411(12) -0.00044(8)
F8 F 0.57325(13) 0.49565(11) 0.08648(8)
F9 F 0.39410(13) 0.51506(10) 0.15274(8)
F10 F 0.22880(11) 0.39555(9) 0.13437(7)
F11 F 0.00187(10) 0.14039(9) 0.04639(7)
F12 F -0.20090(10) 0.19990(11) -0.00725(8)
F13 F -0.22701(11) 0.36407(12) -0.06804(8)
F14 F -0.04384(13) 0.46658(11) -0.07347(8)
F15 F 0.15812(11) 0.40992(10) -0.02143(7)
C1 C 0.3448(2) 0.20678(19) 0.26918(11)
H1 H 0.3216 0.1455 0.2777
H2 H 0.3101 0.2476 0.2984
C2 C 0.4681(3) 0.2145(3) 0.28537(16)
H3 H 0.5015 0.1756 0.2549
H4 H 0.4937 0.1970 0.3331
H5 H 0.4899 0.2760 0.2788
C3 C 0.1236(2) 0.02929(18) 0.16985(15)
H6 H 0.0507 0.0589 0.1586
H7 H 0.1336 0.0096 0.2182
C4 C 0.1272(3) -0.0481(2) 0.1246(3)
H8 H 0.1087 -0.0293 0.0767
H9 H 0.0737 -0.0926 0.1342
H10 H 0.2018 -0.0738 0.1329
C5 C 0.24387(15) 0.13962(14) 0.01519(9)
C6 C 0.33040(17) 0.08320(15) 0.04392(10)
C7 C 0.35691(19) 0.00412(16) 0.01475(12)
C8 C 0.2990(2) -0.02173(15) -0.04823(12)
C9 C 0.21502(18) 0.03221(16) -0.08051(11)
C10 C 0.19006(16) 0.11063(15) -0.04934(10)
C11 C 0.31602(15) 0.30507(14) 0.06023(9)
C12 C 0.40771(17) 0.30045(15) 0.02678(10)
C13 C 0.49368(18) 0.36279(17) 0.03475(11)
C14 C 0.49041(18) 0.43418(17) 0.07787(12)
C15 C 0.40011(19) 0.44374(15) 0.11152(11)
C16 C 0.31696(17) 0.38084(15) 0.10172(10)
C17 C 0.09164(16) 0.27328(14) 0.01978(9)
C18 C -0.00573(17) 0.22387(15) 0.01974(10)
C19 C -0.11130(17) 0.25265(17) -0.00827(11)
C20 C -0.12509(18) 0.33484(18) -0.03940(11)
C21 C -0.03244(19) 0.38677(16) -0.04151(11)
C22 C 0.07268(17) 0.35524(15) -0.01331(10)
N1 N 0.96669(14) 0.30225(13) 0.26496(9)
C23 C 0.86170(19) 0.24293(17) 0.25474(13)
C24 C 0.8092(2) 0.2507(3) 0.17874(15)
H11 H 0.8579 0.2207 0.1508
H12 H 0.7374 0.2191 0.1715
C25 C 0.7899(3) 0.3447(3) 0.15334(15)
H13 H 0.7352 0.3737 0.1776
H14 H 0.7589 0.3441 0.1038
C26 C 0.8972(3) 0.3977(2) 0.16507(15)
H15 H 0.8810 0.4592 0.1489
H16 H 0.9487 0.3716 0.1371
C27 C 0.9546(2) 0.40058(17) 0.24022(13)
C28 C 1.0334(2) 0.2931(2) 0.33594(12)
H17 H 0.9901 0.3155 0.3696
H18 H 1.1019 0.3274 0.3390
H19 H 1.0513 0.2305 0.3453
C29 C 0.7793(2) 0.2691(2) 0.30267(16)
H20 H 0.7383 0.3222 0.2847
H21 H 0.8202 0.2814 0.3486
H22 H 0.7273 0.2203 0.3050
C30 C 0.8992(3) 0.1466(2) 0.2698(2)
H23 H 0.8404 0.1061 0.2490
H24 H 0.9146 0.1371 0.3194
H25 H 0.9664 0.1352 0.2505
C31 C 0.8900(3) 0.4581(2) 0.28490(17)
H26 H 0.8959 0.5207 0.2728
H27 H 0.9212 0.4496 0.3333
H28 H 0.8119 0.4404 0.2768
C32 C 1.0727(3) 0.4388(2) 0.24421(18)
H29 H 1.1207 0.3940 0.2286
H30 H 1.1022 0.4552 0.2916
H31 H 1.0699 0.4914 0.2149
H32 H 1.0089(19) 0.2808(15) 0.2371(12)
loop_
_geom_bond_atom_site_label_1
_geom_bond_atom_site_label_2
_geom_bond_site_symmetry_1
_geom_bond_site_symmetry_2
P1 O1 1_555 1_555
O2 P1 1_555 1_555
O3 P1 1_555 1_555
B1 P1 1_555 1_555
F1 C6 1_555 1_555
F2 C7 1_555 1_555
F3 C8 1_555 1_555
F4 C9 1_555 1_555
F5 C10 1_555 1_555
F6 C12 1_555 1_555
F7 C13 1_555 1_555
F8 C14 1_555 1_555
F9 C15 1_555 1_555
F10 C16 1_555 1_555
F11 C18 1_555 1_555
F12 C19 1_555 1_555
F13 C20 1_555 1_555
F14 C21 1_555 1_555
F15 C22 1_555 1_555
C1 O3 1_555 1_555
H1 C1 1_555 1_555
H2 C1 1_555 1_555
C2 C1 1_555 1_555
H3 C2 1_555 1_555
H4 C2 1_555 1_555
H5 C2 1_555 1_555
C3 O2 1_555 1_555
H6 C3 1_555 1_555
H7 C3 1_555 1_555
C4 C3 1_555 1_555
H8 C4 1_555 1_555
H9 C4 1_555 1_555
H10 C4 1_555 1_555
C5 B1 1_555 1_555
C6 C5 1_555 1_555
C7 C6 1_555 1_555
C8 C7 1_555 1_555
C9 C8 1_555 1_555
C10 C5 1_555 1_555
C11 B1 1_555 1_555
C12 C11 1_555 1_555
C13 C12 1_555 1_555
C14 C13 1_555 1_555
C15 C14 1_555 1_555
C16 C11 1_555 1_555
C17 B1 1_555 1_555
C18 C17 1_555 1_555
C19 C18 1_555 1_555
C20 C19 1_555 1_555
C21 C20 1_555 1_555
C22 C17 1_555 1_555
N1 C23 1_555 1_555
C23 C24 1_555 1_555
C24 H11 1_555 1_555
H12 C24 1_555 1_555
C25 C24 1_555 1_555
H13 C25 1_555 1_555
H14 C25 1_555 1_555
C26 C25 1_555 1_555
H15 C26 1_555 1_555
H16 C26 1_555 1_555
C27 N1 1_555 1_555
C28 N1 1_555 1_555
H17 C28 1_555 1_555
H18 C28 1_555 1_555
H19 C28 1_555 1_555
C29 C23 1_555 1_555
H20 C29 1_555 1_555
H21 C29 1_555 1_555
H22 C29 1_555 1_555
C30 C23 1_555 1_555
H23 C30 1_555 1_555
H24 C30 1_555 1_555
H25 C30 1_555 1_555
C31 C27 1_555 1_555
H26 C31 1_555 1_555
H27 C31 1_555 1_555
H28 C31 1_555 1_555
C32 C27 1_555 1_555
H29 C32 1_555 1_555
H30 C32 1_555 1_555
H31 C32 1_555 1_555
H32 N1 1_555 1_555
C9 C10 1_555 1_555
C15 C16 1_555 1_555
C21 C22 1_555 1_555
C26 C27 1_555 1_555

#END
