
#######################################################################
#
#                 Cambridge Crystallographic Data Centre
#                                CCDC 
#
#######################################################################
#
# If this CIF has been generated from an entry in the Cambridge 
# Structural Database, then it will include bibliographic, chemical, 
# crystal, experimental, refinement or atomic coordinate data resulting 
# from the CCDC's data processing and validation procedures.
#
#######################################################################

data_KECWIA
_chemical_formula_moiety         'C24 H38 N2 O5 S1'
_chemical_name_systematic        
((4-((Dodecyloxy)carbonyl)phenyl)sulfonyl)(pyrrolidinium-2-ylcarbonyl)azanide
_symmetry_cell_setting           monoclinic
_symmetry_space_group_name_H-M   'P 21'
_symmetry_Int_Tables_number      4
_space_group_name_Hall           'P 2yb'
loop_
_symmetry_equiv_pos_site_id
_symmetry_equiv_pos_as_xyz
1 x,y,z
2 -x,1/2+y,-z
_cell_length_a                   5.5897(13)
_cell_length_b                   9.123(2)
_cell_length_c                   24.114(6)
_cell_angle_alpha                90
_cell_angle_beta                 94.260(4)
_cell_angle_gamma                90
_cell_volume                     1226.29
_exptl_crystal_colour            colorless
_exptl_crystal_description       plate
_cell_formula_units_Z            2
loop_
_atom_site_label
_atom_site_type_symbol
_atom_site_fract_x
_atom_site_fract_y
_atom_site_fract_z
S1 S 0.51605(9) 0.26947(7) 0.90509(2)
O1 O 0.6393(3) 0.5089(2) 0.98265(7)
O2 O 0.2831(3) 0.3152(2) 0.91960(7)
O3 O 0.5273(3) 0.1251(2) 0.88063(7)
O4 O 1.0376(3) 0.6378(2) 0.70820(8)
O5 O 0.7846(4) 0.8151(2) 0.72933(10)
N1 N 0.9772(4) 0.5170(3) 1.06381(9)
N2 N 0.7225(3) 0.2717(2) 0.95464(7)
C1 C 0.9789(5) 0.4681(3) 1.12339(10)
C2 C 0.8573(5) 0.3217(3) 1.11923(11)
C3 C 0.9587(6) 0.2522(3) 1.06857(11)
C4 C 0.9730(4) 0.3819(3) 1.02772(10)
C5 C 0.7558(4) 0.3947(3) 0.98538(9)
C6 C 0.6120(4) 0.3953(3) 0.85463(9)
C7 C 0.4948(5) 0.5254(3) 0.84386(12)
C8 C 0.5754(5) 0.6214(3) 0.80503(12)
C9 C 0.7736(4) 0.5853(3) 0.77636(10)
C10 C 0.8896(5) 0.4545(3) 0.78756(12)
C11 C 0.8093(5) 0.3597(4) 0.82667(13)
C12 C 0.8608(4) 0.6935(3) 0.73585(10)
C13 C 1.1497(5) 0.7352(3) 0.67011(12)
C14 C 1.3087(5) 0.6443(3) 0.63640(11)
C15 C 1.4427(5) 0.7367(3) 0.59653(11)
C16 C 1.6025(5) 0.6480(3) 0.56072(11)
C17 C 1.7383(5) 0.7401(3) 0.52090(11)
C18 C 1.8950(5) 0.6506(3) 0.48469(11)
C19 C 2.0342(5) 0.7416(3) 0.44511(11)
C20 C 2.1885(5) 0.6509(3) 0.40889(11)
C21 C 2.3323(5) 0.7400(3) 0.36961(11)
C22 C 2.4821(5) 0.6453(3) 0.33380(11)
C23 C 2.6270(6) 0.7291(3) 0.29376(12)
C24 C 2.7629(7) 0.6291(4) 0.25703(15)
H1 H 1.110(7) 0.568(4) 1.0605(17)
H2 H 0.847(7) 0.561(4) 1.0556(16)
H3 H 0.907(5) 0.540(3) 1.1442(12)
H4 H 1.147(6) 0.461(3) 1.1391(12)
H5 H 0.681(5) 0.331(3) 1.1132(12)
H6 H 0.881(5) 0.263(4) 1.1556(13)
H7 H 1.109(6) 0.223(4) 1.0786(14)
H8 H 0.858(6) 0.183(4) 1.0522(15)
H9 H 1.121(4) 0.380(3) 1.0088(10)
H10 H 0.365(7) 0.543(4) 0.8594(15)
H11 H 0.487(5) 0.711(4) 0.7956(13)
H12 H 1.020(6) 0.429(4) 0.7656(14)
H13 H 0.886(5) 0.273(5) 0.8327(13)
H14 H 1.031(5) 0.776(4) 0.6484(12)
H15 H 1.249(5) 0.802(3) 0.6903(11)
H16 H 1.416(5) 0.592(3) 0.6612(13)
H17 H 1.224(6) 0.579(4) 0.6190(13)
H18 H 1.335(5) 0.787(4) 0.5735(12)
H19 H 1.545(5) 0.804(4) 0.6185(13)
H20 H 1.718(5) 0.590(3) 0.5864(12)
H21 H 1.511(5) 0.576(4) 0.5388(12)
H22 H 1.844(6) 0.811(4) 0.5434(14)
H23 H 1.608(5) 0.799(4) 0.4954(13)
H24 H 1.790(6) 0.586(4) 0.4589(14)
H25 H 2.015(5) 0.590(3) 0.5098(12)
H26 H 2.142(5) 0.811(4) 0.4670(13)
H27 H 1.905(5) 0.806(4) 0.4184(12)
H28 H 2.085(5) 0.587(3) 0.3825(12)
H29 H 2.304(5) 0.591(3) 0.4341(13)
H30 H 2.444(5) 0.810(4) 0.3902(12)
H31 H 2.218(4) 0.802(3) 0.3442(11)
H32 H 2.592(5) 0.584(3) 0.3574(13)
H33 H 2.379(6) 0.587(4) 0.3116(14)
H34 H 2.508(6) 0.790(4) 0.2696(13)
H35 H 2.731(5) 0.777(4) 0.3132(13)
H36 H 2.665(7) 0.567(4) 0.2395(15)
H37 H 2.839(7) 0.676(5) 0.2321(18)
H38 H 2.875(8) 0.569(5) 0.2812(18)
loop_
_geom_bond_atom_site_label_1
_geom_bond_atom_site_label_2
_geom_bond_site_symmetry_1
_geom_bond_site_symmetry_2
S1 O2 1_555 1_555
O1 C5 1_555 1_555
O3 S1 1_555 1_555
O4 C12 1_555 1_555
O5 C12 1_555 1_555
N1 C1 1_555 1_555
N2 S1 1_555 1_555
C1 C2 1_555 1_555
C2 C3 1_555 1_555
C3 C4 1_555 1_555
C4 N1 1_555 1_555
C5 N2 1_555 1_555
C6 S1 1_555 1_555
C7 C6 1_555 1_555
C8 C7 1_555 1_555
C9 C8 1_555 1_555
C10 C9 1_555 1_555
C11 C6 1_555 1_555
C12 C9 1_555 1_555
C13 O4 1_555 1_555
C14 C13 1_555 1_555
C15 C14 1_555 1_555
C16 C15 1_555 1_555
C17 C16 1_555 1_555
C18 C17 1_555 1_555
C19 C18 1_555 1_555
C20 C19 1_555 1_555
C21 C20 1_555 1_555
C22 C21 1_555 1_555
C23 C22 1_555 1_555
C24 C23 1_555 1_555
H1 N1 1_555 1_555
H2 N1 1_555 1_555
H3 C1 1_555 1_555
H4 C1 1_555 1_555
H5 C2 1_555 1_555
H6 C2 1_555 1_555
H7 C3 1_555 1_555
H8 C3 1_555 1_555
H9 C4 1_555 1_555
H10 C7 1_555 1_555
H11 C8 1_555 1_555
H12 C10 1_555 1_555
H13 C11 1_555 1_555
H14 C13 1_555 1_555
H15 C13 1_555 1_555
H16 C14 1_555 1_555
H17 C14 1_555 1_555
H18 C15 1_555 1_555
H19 C15 1_555 1_555
H20 C16 1_555 1_555
H21 C16 1_555 1_555
H22 C17 1_555 1_555
H23 C17 1_555 1_555
H24 C18 1_555 1_555
H25 C18 1_555 1_555
H26 C19 1_555 1_555
H27 C19 1_555 1_555
H28 C20 1_555 1_555
H29 C20 1_555 1_555
H30 C21 1_555 1_555
H31 C21 1_555 1_555
H32 C22 1_555 1_555
H33 C22 1_555 1_555
H34 C23 1_555 1_555
H35 C23 1_555 1_555
H36 C24 1_555 1_555
H37 C24 1_555 1_555
H38 C24 1_555 1_555
C4 C5 1_555 1_555
C10 C11 1_555 1_555

#END
