
#######################################################################
#
#                 Cambridge Crystallographic Data Centre
#                                CCDC 
#
#######################################################################
#
# If this CIF has been generated from an entry in the Cambridge 
# Structural Database, then it will include bibliographic, chemical, 
# crystal, experimental, refinement or atomic coordinate data resulting 
# from the CCDC's data processing and validation procedures.
#
#######################################################################

data_KECYBU17
_chemical_name_common            'Oxosquaric acid'
_chemical_formula_moiety         'C4 H2 O4'
_chemical_name_systematic        1,2-Dihydroxycyclobutene-3,4-dione
_symmetry_cell_setting           triclinic
_symmetry_space_group_name_H-M   'P 1'
_symmetry_Int_Tables_number      1
_space_group_name_Hall           'P 1'
loop_
_symmetry_equiv_pos_site_id
_symmetry_equiv_pos_as_xyz
1 x,y,z
_cell_length_a                   5.0741(6)
_cell_length_b                   5.0715(5)
_cell_length_c                   5.2912(8)
_cell_angle_alpha                58.55(1)
_cell_angle_beta                 58.57(1)
_cell_angle_gamma                74.20(1)
_cell_volume                     99.1147
_cell_formula_units_Z            1
loop_
_atom_site_label
_atom_site_type_symbol
_atom_site_fract_x
_atom_site_fract_y
_atom_site_fract_z
O1 O 0.022 0.981 -1.008
O2 O 0.7178(4) 0.6954(4) -1.12132(4)
O3 O 0.9938(5) 1.3937(4) -1.7005(4)
O4 O 0.3045(4) 1.6675(4) -1.4922(4)
C1 C 0.2934(6) 1.0941(6) -1.2000(5)
C2 C 0.6097(6) 0.9748(5) -1.3012(6)
C3 C 0.7263(6) 1.2966(5) -1.5126(6)
C4 C 0.4157(6) 1.4081(6) -1.4205(5)
H1 H 0.007(9) 0.800(7) -0.900(8)
H2 H 0.126(7) 1.685(8) -1.408(8)
loop_
_geom_bond_atom_site_label_1
_geom_bond_atom_site_label_2
_geom_bond_site_symmetry_1
_geom_bond_site_symmetry_2
O1 C1 1_555 1_555
O2 C2 1_555 1_555
O3 C3 1_555 1_555
O4 C4 1_555 1_555
C1 C2 1_555 1_555
C2 C3 1_555 1_555
C3 C4 1_555 1_555
C4 C1 1_555 1_555
H1 O1 1_555 1_555
H2 O4 1_555 1_555

#END
