
#######################################################################
#
#                 Cambridge Crystallographic Data Centre
#                                CCDC 
#
#######################################################################
#
# If this CIF has been generated from an entry in the Cambridge 
# Structural Database, then it will include bibliographic, chemical, 
# crystal, experimental, refinement or atomic coordinate data resulting 
# from the CCDC's data processing and validation procedures.
#
#######################################################################

data_KECYBU02
_chemical_name_common            'Squaric acid'
_chemical_formula_moiety         'C4 H2 O4'
_chemical_name_systematic        3,4-Dihydroxycyclobut-3-ene-1,2-dione
_symmetry_cell_setting           monoclinic
_symmetry_space_group_name_H-M   'P 1 1 21/m'
_symmetry_Int_Tables_number      11
_space_group_name_Hall           '-P 2c'
loop_
_symmetry_equiv_pos_site_id
_symmetry_equiv_pos_as_xyz
1 x,y,z
2 -x,-y,1/2+z
3 -x,-y,-z
4 x,y,1/2-z
_cell_length_a                   6.119(3)
_cell_length_b                   6.133(3)
_cell_length_c                   5.297(3)
_cell_angle_alpha                90
_cell_angle_beta                 90
_cell_angle_gamma                90.05(3)
_cell_volume                     198.785
_cell_formula_units_Z            2
loop_
_atom_site_label
_atom_site_type_symbol
_atom_site_fract_x
_atom_site_fract_y
_atom_site_fract_z
C1 C 0.19110 0.08530 0.25000
C2 C 0.10030 0.30210 0.25000
C3 C 0.31240 0.39820 0.25000
C4 C 0.41380 0.18100 0.25000
H1 H 0.25940 0.71370 0.25000
H2 H -0.21310 0.27260 0.25000
O1 O 0.11350 -0.10330 0.25000
O2 O -0.09010 0.38650 0.25000
O3 O 0.39060 0.59030 0.25000
O4 O 0.60210 0.10830 0.25000
loop_
_geom_bond_atom_site_label_1
_geom_bond_atom_site_label_2
_geom_bond_site_symmetry_1
_geom_bond_site_symmetry_2
C1 C2 1_555 1_555
C2 C3 1_555 1_555
C3 C4 1_555 1_555
C4 C1 1_555 1_555
H1 O3 1_555 1_555
H2 O2 1_555 1_555
O1 C1 1_555 1_555
O2 C2 1_555 1_555
O3 C3 1_555 1_555
O4 C4 1_555 1_555

#END
