
#######################################################################
#
#                 Cambridge Crystallographic Data Centre
#                                CCDC 
#
#######################################################################
#
# If this CIF has been generated from an entry in the Cambridge 
# Structural Database, then it will include bibliographic, chemical, 
# crystal, experimental, refinement or atomic coordinate data resulting 
# from the CCDC's data processing and validation procedures.
#
#######################################################################

data_KEDCOO
_chemical_formula_moiety         'C3 N6 O7 2-,2(K1 1+)'
_chemical_name_systematic        
'di-potassium (4-(dinitromethanidyl)-1,2,5-oxadiazol-3-yl)(nitro)azanide'
_symmetry_cell_setting           triclinic
_symmetry_space_group_name_H-M   'P -1'
_symmetry_Int_Tables_number      2
_space_group_name_Hall           '-P 1'
loop_
_symmetry_equiv_pos_site_id
_symmetry_equiv_pos_as_xyz
1 x,y,z
2 -x,-y,-z
_cell_length_a                   7.4274(14)
_cell_length_b                   7.5067(14)
_cell_length_c                   9.8645(18)
_cell_angle_alpha                92.686(4)
_cell_angle_beta                 106.684(3)
_cell_angle_gamma                113.733(3)
_cell_volume                     473.945
_exptl_crystal_colour            colorless
_exptl_crystal_description       prismatic
_cell_formula_units_Z            2
loop_
_atom_site_label
_atom_site_type_symbol
_atom_site_fract_x
_atom_site_fract_y
_atom_site_fract_z
K1 K 0.15886(7) 0.69985(7) 1.20996(5)
N1 N 0.3045(3) 0.5622(3) 0.48599(18)
N2 N 0.2195(3) 0.4334(3) 0.67764(19)
N3 N 0.6286(3) 0.8462(2) 0.63404(17)
N4 N 0.6702(2) 0.9139(2) 0.52071(18)
N5 N 0.4112(3) 0.7324(3) 0.96276(18)
N6 N 0.7128(3) 0.7077(3) 0.93250(18)
O1 O 0.1600(2) 0.4088(2) 0.52940(16)
O2 O 0.5595(2) 0.8353(2) 0.39411(15)
O3 O 0.8382(2) 1.0695(2) 0.54812(16)
O4 O 0.2213(2) 0.6918(3) 0.90586(17)
O5 O 0.5038(2) 0.8150(3) 1.09053(16)
O6 O 0.8317(2) 0.8027(3) 1.05368(17)
O7 O 0.7742(2) 0.6320(2) 0.85068(17)
C1 C 0.4482(3) 0.6742(3) 0.6061(2)
C2 C 0.3926(3) 0.5926(3) 0.7253(2)
C3 C 0.5065(3) 0.6774(3) 0.8781(2)
K2 K 1.10549(8) 0.93258(8) 0.72083(5)
loop_
_geom_bond_atom_site_label_1
_geom_bond_atom_site_label_2
_geom_bond_site_symmetry_1
_geom_bond_site_symmetry_2
N1 O1 1_555 1_555
N2 O1 1_555 1_555
N3 N4 1_555 1_555
N4 O2 1_555 1_555
N5 O4 1_555 1_555
N6 O6 1_555 1_555
O3 N4 1_555 1_555
O5 N5 1_555 1_555
O7 N6 1_555 1_555
C1 N1 1_555 1_555
C2 N2 1_555 1_555
C3 N5 1_555 1_555
N3 C1 1_555 1_555
N6 C3 1_555 1_555
C1 C2 1_555 1_555
C2 C3 1_555 1_555

#END
