
#######################################################################
#
#                 Cambridge Crystallographic Data Centre
#                                CCDC 
#
#######################################################################
#
# If this CIF has been generated from an entry in the Cambridge 
# Structural Database, then it will include bibliographic, chemical, 
# crystal, experimental, refinement or atomic coordinate data resulting 
# from the CCDC's data processing and validation procedures.
#
#######################################################################

data_KEDDEE
_chemical_formula_moiety         'C54 H87 N3 O6'
_chemical_name_systematic        
7,15,23-Tri-t-butyl-25,26,27-tris(2-(N,N-diethylamino)ethoxy)-2,4,10,12,18,20-hexahomo-3,11,19-trioxacalix(3)arene
_symmetry_cell_setting           triclinic
_symmetry_space_group_name_H-M   'P -1'
_symmetry_Int_Tables_number      2
_space_group_name_Hall           '-P 1'
loop_
_symmetry_equiv_pos_site_id
_symmetry_equiv_pos_as_xyz
1 x,y,z
2 -x,-y,-z
_cell_length_a                   11.6724(11)
_cell_length_b                   14.7955(9)
_cell_length_c                   16.7566(18)
_cell_angle_alpha                97.920(7)
_cell_angle_beta                 98.124(8)
_cell_angle_gamma                105.744(7)
_cell_volume                     2709.81
_exptl_crystal_colour            colorless
_exptl_crystal_description       block
_cell_formula_units_Z            2
loop_
_atom_site_label
_atom_site_type_symbol
_atom_site_fract_x
_atom_site_fract_y
_atom_site_fract_z
O1 O 0.33000(17) 0.83105(13) 0.17392(11)
C1 C 0.2791(2) 0.78987(18) 0.23558(15)
C2 C 0.3478(2) 0.81173(17) 0.31511(15)
C3 C 0.2952(2) 0.76968(17) 0.37488(15)
H1 H 0.3399 0.7839 0.4280
C4 C 0.1779(2) 0.70674(17) 0.35915(15)
C5 C 0.1151(2) 0.68540(18) 0.27928(16)
H2 H 0.0373 0.6427 0.2670
C6 C 0.1639(2) 0.72555(18) 0.21653(15)
C7 C 0.0917(3) 0.6973(2) 0.12965(17)
H3 H 0.0213 0.7204 0.1279
H4 H 0.1412 0.7288 0.0938
O2 O 0.05227(15) 0.59733(13) 0.09902(11)
C8 C 0.1474(3) 0.5574(2) 0.08425(17)
H5 H 0.2137 0.6064 0.0724
H6 H 0.1179 0.5068 0.0363
C9 C 0.3024(3) 0.9164(2) 0.16434(19)
H7 H 0.3353 0.9634 0.2145
H8 H 0.2153 0.9044 0.1528
C10 C 0.3567(4) 0.9533(3) 0.0946(2)
H9 H 0.3555 1.0188 0.0961
H10 H 0.4406 0.9531 0.1017
N1 N 0.2926(4) 0.8969(3) 0.0160(2)
C11 C 0.3665(7) 0.8319(6) -0.0119(5)
H11 H 0.4322 0.8705 -0.0333
H12 H 0.4031 0.8142 0.0369
C12 C 0.3165(9) 0.7525(7) -0.0664(4)
H13 H 0.3760 0.7200 -0.0742
H14 H 0.2860 0.7677 -0.1175
H15 H 0.2510 0.7120 -0.0471
C13 C 0.2526(10) 0.9432(8) -0.0411(5)
H16 H 0.2261 0.9001 -0.0937
H17 H 0.3194 0.9966 -0.0461
C14 C 0.1520(10) 0.9791(9) -0.0213(7)
H18 H 0.1276 1.0113 -0.0636
H19 H 0.1781 1.0228 0.0302
H20 H 0.0848 0.9264 -0.0175
C15 C 0.1266(2) 0.6638(2) 0.42970(16)
C16 C 0.1337(3) 0.7444(2) 0.50005(18)
H21 H 0.1018 0.7175 0.5441
H22 H 0.0871 0.7841 0.4808
H23 H 0.2167 0.7821 0.5193
C17 C 0.2020(3) 0.6006(3) 0.4603(2)
H24 H 0.1707 0.5736 0.5046
H25 H 0.2849 0.6385 0.4792
H26 H 0.1975 0.5501 0.4162
C18 C -0.0058(3) 0.6021(2) 0.4024(2)
H27 H -0.0347 0.5767 0.4479
H28 H -0.0114 0.5506 0.3590
H29 H -0.0543 0.6406 0.3831
O3 O 0.39388(15) 0.63087(12) 0.17828(10)
C19 C 0.3120(2) 0.55587(16) 0.20070(14)
C20 C 0.1945(2) 0.51753(19) 0.15618(15)
C21 C 0.1190(2) 0.4403(2) 0.18019(17)
H30 H 0.0409 0.4131 0.1500
C22 C 0.1544(2) 0.40160(18) 0.24715(17)
C23 C 0.2709(2) 0.44575(17) 0.29264(15)
H31 H 0.2963 0.4228 0.3388
C24 C 0.3498(2) 0.52298(16) 0.27092(14)
C25 C 0.4729(2) 0.57568(18) 0.32161(15)
H32 H 0.5344 0.5719 0.2890
H33 H 0.4783 0.6425 0.3374
O4 O 0.49534(14) 0.53728(10) 0.39282(9)
C26 C 0.6073(2) 0.59182(16) 0.44624(14)
H34 H 0.6708 0.6061 0.4142
H35 H 0.6296 0.5541 0.4854
C27 C 0.4623(3) 0.5986(2) 0.12191(18)
H36 H 0.4195 0.5897 0.0661
H37 H 0.4724 0.5378 0.1316
C28 C 0.5825(3) 0.6705(3) 0.1335(3)
H38 H 0.5713 0.7310 0.1238
H39 H 0.6237 0.6799 0.1898
N2 N 0.6575(4) 0.6422(4) 0.0789(3)
C29 C 0.7256(8) 0.5916(8) 0.0999(5)
H40 H 0.8058 0.6323 0.0989
H41 H 0.7069 0.5413 0.0521
C30 C 0.7464(6) 0.5465(7) 0.1618(6)
H42 H 0.8078 0.5162 0.1529
H43 H 0.6731 0.4991 0.1646
H44 H 0.7734 0.5918 0.2125
C31 C 0.6760(10) 0.6945(7) 0.0183(6)
H45 H 0.5946 0.6752 -0.0139
H46 H 0.6858 0.7578 0.0484
C32 C 0.7303(11) 0.7131(8) -0.0301(6)
H47 H 0.7015 0.7572 -0.0583
H48 H 0.7220 0.6562 -0.0684
H49 H 0.8140 0.7419 -0.0051
C33 C 0.0690(2) 0.3120(2) 0.26723(19)
C34 C -0.0548(3) 0.3264(3) 0.2737(3)
H50 H -0.0449 0.3790 0.3173
H51 H -0.1076 0.2694 0.2849
H52 H -0.0894 0.3400 0.2229
C35 C 0.1183(3) 0.2871(3) 0.3483(2)
H53 H 0.1278 0.3390 0.3925
H54 H 0.1954 0.2765 0.3458
H55 H 0.0626 0.2303 0.3576
C36 C 0.0537(4) 0.2276(2) 0.1979(3)
H56 H 0.0008 0.1707 0.2092
H57 H 0.1313 0.2186 0.1942
H58 H 0.0194 0.2409 0.1468
O5 O 0.69064(14) 0.77563(11) 0.39676(9)
C37 C 0.6313(2) 0.77035(16) 0.46380(14)
C38 C 0.5457(2) 0.68274(16) 0.56144(14)
H59 H 0.5247 0.6258 0.5811
C39 C 0.5976(2) 0.68427(15) 0.49193(14)
C40 C 0.5235(2) 0.76268(16) 0.60309(14)
C41 C 0.5504(2) 0.84457(17) 0.56910(15)
H60 H 0.5325 0.8980 0.5938
C42 C 0.6029(2) 0.85033(15) 0.49955(14)
C43 C 0.6173(2) 0.93822(16) 0.46152(16)
H61 H 0.6424 0.9945 0.5045
H62 H 0.6801 0.9429 0.4287
O6 O 0.50622(15) 0.93519(11) 0.41092(11)
C44 C 0.4773(2) 0.87333(19) 0.33295(15)
H63 H 0.5304 0.8330 0.3321
H64 H 0.4910 0.9113 0.2905
C45 C 0.8204(2) 0.8054(2) 0.42225(18)
H65 H 0.8450 0.7564 0.4470
H66 H 0.8453 0.8636 0.4631
C46 C 0.8817(3) 0.8226(2) 0.3502(2)
H67 H 0.9622 0.8156 0.3626
H68 H 0.8366 0.7737 0.3031
N3 N 0.8921(2) 0.91473(18) 0.32845(18)
C47 C 1.0065(5) 0.9441(4) 0.2889(4)
H69 H 1.0116 0.8885 0.2530
H70 H 0.9978 0.9913 0.2555
C48 C 1.1149(4) 0.9821(4) 0.3476(4)
H71 H 1.1121 1.0391 0.3815
H72 H 1.1825 0.9973 0.3200
H73 H 1.1238 0.9359 0.3811
C49 C 0.7933(4) 0.9117(3) 0.2655(3)
H74 H 0.7202 0.8671 0.2742
H75 H 0.8095 0.8872 0.2128
C50 C 0.7706(5) 1.0052(4) 0.2617(4)
H76 H 0.7025 0.9968 0.2189
H77 H 0.8410 1.0492 0.2505
H78 H 0.7536 1.0300 0.3133
C51 C 0.4785(3) 0.76061(18) 0.68510(15)
C52 C 0.4117(3) 0.8339(2) 0.7018(2)
H79 H 0.3419 0.8205 0.6592
H80 H 0.4645 0.8966 0.7031
H81 H 0.3863 0.8310 0.7537
C53 C 0.5881(4) 0.7832(4) 0.7531(2)
H82 H 0.5621 0.7818 0.8049
H83 H 0.6411 0.8455 0.7535
H84 H 0.6303 0.7364 0.7440
C54 C 0.3931(4) 0.6640(2) 0.6874(2)
H85 H 0.3233 0.6493 0.6445
H86 H 0.3679 0.6655 0.7396
H87 H 0.4338 0.6161 0.6796
C55? C 0.9945(13) 0.9873(11) 0.3726(9)
H88? H 1.1087 0.9798 0.2895
H89? H 1.1321 0.9257 0.3614
H90? H 1.1791 1.0376 0.3763
H91? H 0.9999 0.9844 0.4305
H92? H 0.9836 1.0486 0.3654
loop_
_geom_bond_atom_site_label_1
_geom_bond_atom_site_label_2
_geom_bond_site_symmetry_1
_geom_bond_site_symmetry_2
O1 C1 1_555 1_555
C1 C2 1_555 1_555
C2 C3 1_555 1_555
C3 H1 1_555 1_555
C4 C3 1_555 1_555
C5 C4 1_555 1_555
H2 C5 1_555 1_555
C6 C1 1_555 1_555
C7 C6 1_555 1_555
H3 C7 1_555 1_555
H4 C7 1_555 1_555
O2 C7 1_555 1_555
C8 O2 1_555 1_555
H5 C8 1_555 1_555
H6 C8 1_555 1_555
C9 O1 1_555 1_555
H7 C9 1_555 1_555
H8 C9 1_555 1_555
C10 C9 1_555 1_555
H9 C10 1_555 1_555
H10 C10 1_555 1_555
N1 C10 1_555 1_555
C11 N1 1_555 1_555
H11 C11 1_555 1_555
H12 C11 1_555 1_555
C12 C11 1_555 1_555
H13 C12 1_555 1_555
H14 C12 1_555 1_555
H15 C12 1_555 1_555
C13 N1 1_555 1_555
H16 C13 1_555 1_555
H17 C13 1_555 1_555
C14 C13 1_555 1_555
H18 C14 1_555 1_555
H19 C14 1_555 1_555
H20 C14 1_555 1_555
C15 C4 1_555 1_555
C16 C15 1_555 1_555
H21 C16 1_555 1_555
H22 C16 1_555 1_555
H23 C16 1_555 1_555
C17 C15 1_555 1_555
H24 C17 1_555 1_555
H25 C17 1_555 1_555
H26 C17 1_555 1_555
C18 C15 1_555 1_555
H27 C18 1_555 1_555
H28 C18 1_555 1_555
H29 C18 1_555 1_555
O3 C19 1_555 1_555
C19 C20 1_555 1_555
C20 C8 1_555 1_555
C21 C20 1_555 1_555
H30 C21 1_555 1_555
C22 C21 1_555 1_555
C23 C22 1_555 1_555
H31 C23 1_555 1_555
C24 C19 1_555 1_555
C25 C24 1_555 1_555
H32 C25 1_555 1_555
H33 C25 1_555 1_555
O4 C25 1_555 1_555
C26 O4 1_555 1_555
H34 C26 1_555 1_555
H35 C26 1_555 1_555
C27 O3 1_555 1_555
H36 C27 1_555 1_555
H37 C27 1_555 1_555
C28 C27 1_555 1_555
H38 C28 1_555 1_555
H39 C28 1_555 1_555
N2 C28 1_555 1_555
C29 N2 1_555 1_555
H40 C29 1_555 1_555
H41 C29 1_555 1_555
C30 C29 1_555 1_555
H42 C30 1_555 1_555
H43 C30 1_555 1_555
H44 C30 1_555 1_555
C31 N2 1_555 1_555
H45 C31 1_555 1_555
H46 C31 1_555 1_555
C32 C31 1_555 1_555
H47 C32 1_555 1_555
H48 C32 1_555 1_555
H49 C32 1_555 1_555
C33 C22 1_555 1_555
C34 C33 1_555 1_555
H50 C34 1_555 1_555
H51 C34 1_555 1_555
H52 C34 1_555 1_555
C35 C33 1_555 1_555
H53 C35 1_555 1_555
H54 C35 1_555 1_555
H55 C35 1_555 1_555
C36 C33 1_555 1_555
H56 C36 1_555 1_555
H57 C36 1_555 1_555
H58 C36 1_555 1_555
O5 C37 1_555 1_555
C37 C39 1_555 1_555
C38 H59 1_555 1_555
C39 C26 1_555 1_555
C40 C38 1_555 1_555
C41 C40 1_555 1_555
H60 C41 1_555 1_555
C42 C37 1_555 1_555
C43 C42 1_555 1_555
H61 C43 1_555 1_555
H62 C43 1_555 1_555
O6 C43 1_555 1_555
C44 C2 1_555 1_555
H63 C44 1_555 1_555
H64 C44 1_555 1_555
C45 O5 1_555 1_555
H65 C45 1_555 1_555
H66 C45 1_555 1_555
C46 C45 1_555 1_555
H67 C46 1_555 1_555
H68 C46 1_555 1_555
N3 C46 1_555 1_555
C47 N3 1_555 1_555
H69 C47 1_555 1_555
H70 C47 1_555 1_555
C48 C47 1_555 1_555
H71 C48 1_555 1_555
H72 C48 1_555 1_555
H73 C48 1_555 1_555
C49 N3 1_555 1_555
H74 C49 1_555 1_555
H75 C49 1_555 1_555
C50 C49 1_555 1_555
H76 C50 1_555 1_555
H77 C50 1_555 1_555
H78 C50 1_555 1_555
C51 C40 1_555 1_555
C52 C51 1_555 1_555
H79 C52 1_555 1_555
H80 C52 1_555 1_555
H81 C52 1_555 1_555
C53 C51 1_555 1_555
H82 C53 1_555 1_555
H83 C53 1_555 1_555
H84 C53 1_555 1_555
C54 C51 1_555 1_555
H85 C54 1_555 1_555
H86 C54 1_555 1_555
H87 C54 1_555 1_555
C5 C6 1_555 1_555
C23 C24 1_555 1_555
C38 C39 1_555 1_555
C41 C42 1_555 1_555
O6 C44 1_555 1_555

#END
