
#######################################################################
#
#                 Cambridge Crystallographic Data Centre
#                                CCDC 
#
#######################################################################
#
# If this CIF has been generated from an entry in the Cambridge 
# Structural Database, then it will include bibliographic, chemical, 
# crystal, experimental, refinement or atomic coordinate data resulting 
# from the CCDC's data processing and validation procedures.
#
#######################################################################

data_KEDDEF01
_chemical_formula_moiety         'C3 N5 O4 1-,K1 1+'
_chemical_name_systematic        
'potassium 6-nitro-5-oxo-5-pyrazolo[3,4-c][1,2,5]oxadiazol-4-ide'
_symmetry_cell_setting           triclinic
_symmetry_space_group_name_H-M   'P -1'
_symmetry_Int_Tables_number      2
_space_group_name_Hall           '-P 1'
loop_
_symmetry_equiv_pos_site_id
_symmetry_equiv_pos_as_xyz
1 x,y,z
2 -x,-y,-z
_cell_length_a                   5.2256(7)
_cell_length_b                   7.8036(9)
_cell_length_c                   8.2101(11)
_cell_angle_alpha                86.365(4)
_cell_angle_beta                 81.418(5)
_cell_angle_gamma                78.916(4)
_cell_volume                     324.664
_exptl_crystal_description       needle
_cell_formula_units_Z            2
loop_
_atom_site_label
_atom_site_type_symbol
_atom_site_fract_x
_atom_site_fract_y
_atom_site_fract_z
C1 C 0.4366(6) 0.6967(4) 0.2262(4)
C2 C 0.2539(6) 0.7922(4) 0.1267(4)
C3 C 0.5495(6) 0.8265(4) 0.2845(4)
N1 N 0.1314(5) 0.6865(3) 0.0624(3)
N2 N 0.4381(5) 0.5309(3) 0.2274(3)
N3 N 0.2438(5) 0.9694(3) 0.1209(3)
N4 N 0.4267(5) 0.9853(3) 0.2174(3)
N5 N 0.7410(5) 0.8059(3) 0.3861(3)
O1 O 0.2459(4) 0.5210(3) 0.1248(3)
O2 O 0.4687(4) 1.1334(3) 0.2423(3)
O3 O 0.8268(4) 0.9338(3) 0.4261(3)
O4 O 0.8256(4) 0.6527(3) 0.4331(3)
K1 K 0.09491(14) 0.71933(9) -0.29629(9)
loop_
_geom_bond_atom_site_label_1
_geom_bond_atom_site_label_2
_geom_bond_site_symmetry_1
_geom_bond_site_symmetry_2
C1 C2 1_555 1_555
C2 N1 1_555 1_555
C3 C1 1_555 1_555
N1 O1 1_555 1_555
N2 C1 1_555 1_555
N3 C2 1_555 1_555
N4 C3 1_555 1_555
N5 C3 1_555 1_555
O1 N2 1_555 1_555
O2 N4 1_555 1_555
O3 N5 1_555 1_555
O4 N5 1_555 1_555
N3 N4 1_555 1_555

#END
