
#######################################################################
#
#                 Cambridge Crystallographic Data Centre
#                                CCDC 
#
#######################################################################
#
# If this CIF has been generated from an entry in the Cambridge 
# Structural Database, then it will include bibliographic, chemical, 
# crystal, experimental, refinement or atomic coordinate data resulting 
# from the CCDC's data processing and validation procedures.
#
#######################################################################

data_KEDDOO
_chemical_formula_moiety         'C20 H30 O2'
_chemical_name_systematic        'Rubesanolide E'
_symmetry_cell_setting           monoclinic
_symmetry_space_group_name_H-M   'P 21'
_symmetry_Int_Tables_number      4
_space_group_name_Hall           'P 2yb'
loop_
_symmetry_equiv_pos_site_id
_symmetry_equiv_pos_as_xyz
1 x,y,z
2 -x,1/2+y,-z
_cell_length_a                   7.8579(9)
_cell_length_b                   10.1629(11)
_cell_length_c                   11.0489(12)
_cell_angle_alpha                90
_cell_angle_beta                 90.616(4)
_cell_angle_gamma                90
_cell_volume                     882.304
_exptl_crystal_colour            colorless
_exptl_crystal_description       needles
_chemical_melting_point          '142-145 deg.C'
_cell_formula_units_Z            2
_exptl_crystal_recrystallization_method methanol
loop_
_atom_site_label
_atom_site_type_symbol
_atom_site_fract_x
_atom_site_fract_y
_atom_site_fract_z
C1 C 0.6106(3) 0.1375(3) 0.5576(3)
H1 H 0.6216 0.0632 0.5031
H2 H 0.6691 0.2115 0.5215
C2 C 0.6977(4) 0.1038(4) 0.6764(3)
H3 H 0.6513 0.0224 0.7077
H4 H 0.8184 0.0911 0.6633
C3 C 0.6722(5) 0.2123(4) 0.7672(3)
H5 H 0.7219 0.2926 0.7359
H6 H 0.7329 0.1898 0.8413
C4 C 0.4845(4) 0.2385(3) 0.7973(3)
C5 C 0.3878(4) 0.2695(3) 0.6764(3)
H7 H 0.4317 0.3548 0.6496
C6 C 0.1942(4) 0.2899(4) 0.6930(3)
H8 H 0.1474 0.2132 0.7329
H9 H 0.1765 0.3651 0.7454
C7 C 0.0972(4) 0.3123(4) 0.5736(3)
H10 H -0.0237 0.3008 0.5867
H11 H 0.1158 0.4018 0.5462
C8 C 0.1555(4) 0.2170(3) 0.4770(3)
C9 C 0.3452(3) 0.2336(3) 0.4534(2)
H12 H 0.3747 0.3272 0.4490
C10 C 0.4213(3) 0.1718(3) 0.5687(3)
C11 C 0.3935(4) 0.1641(4) 0.3365(3)
H13 H 0.3723 0.0705 0.3446
H14 H 0.5140 0.1763 0.3221
C12 C 0.2917(5) 0.2175(4) 0.2289(3)
H15 H 0.3335 0.3046 0.2089
H16 H 0.3098 0.1612 0.1594
C13 C 0.1054(5) 0.2254(4) 0.2533(3)
C14 C 0.0456(4) 0.2198(4) 0.3648(3)
H17 H -0.0719 0.2175 0.3743
C15 C -0.0103(6) 0.2403(6) 0.1419(4)
H18 H 0.0387 0.1817 0.0811
C16 C 0.0046(7) 0.3760(7) 0.0886(5)
H19 H 0.1225 0.3968 0.0772
H20 H -0.0449 0.4389 0.1427
H21 H -0.0541 0.3788 0.0121
C17 C -0.1803(8) 0.1975(8) 0.1541(7)
H22 H -0.2402 0.2094 0.0786
H23 H -0.2349 0.2480 0.2160
H24 H -0.1815 0.1061 0.1758
C18 C 0.4109(5) 0.1215(4) 0.8671(3)
H25 H 0.4141 0.0442 0.8173
H26 H 0.2952 0.1401 0.8884
H27 H 0.4771 0.1070 0.9394
C19 C 0.4774(5) 0.3607(4) 0.8793(3)
H28 H 0.5227 0.4351 0.8369
H29 H 0.5436 0.3452 0.9514
H30 H 0.3614 0.3780 0.9007
C20 C 0.3034(4) 0.0525(3) 0.5789(3)
O1 O 0.3342(3) -0.0551(2) 0.6182(2)
O2 O 0.1487(3) 0.0826(2) 0.5307(2)
loop_
_geom_bond_atom_site_label_1
_geom_bond_atom_site_label_2
_geom_bond_site_symmetry_1
_geom_bond_site_symmetry_2
C1 H1 1_555 1_555
H2 C1 1_555 1_555
C2 C1 1_555 1_555
H3 C2 1_555 1_555
H4 C2 1_555 1_555
C3 C2 1_555 1_555
H5 C3 1_555 1_555
H6 C3 1_555 1_555
C4 C3 1_555 1_555
C5 C4 1_555 1_555
H7 C5 1_555 1_555
C6 C5 1_555 1_555
H8 C6 1_555 1_555
H9 C6 1_555 1_555
C7 C6 1_555 1_555
H10 C7 1_555 1_555
H11 C7 1_555 1_555
C8 C7 1_555 1_555
C9 C8 1_555 1_555
H12 C9 1_555 1_555
C10 C1 1_555 1_555
C11 C9 1_555 1_555
H13 C11 1_555 1_555
H14 C11 1_555 1_555
C12 C11 1_555 1_555
H15 C12 1_555 1_555
H16 C12 1_555 1_555
C13 C12 1_555 1_555
C14 C8 1_555 1_555
H17 C14 1_555 1_555
C15 C13 1_555 1_555
H18 C15 1_555 1_555
C16 C15 1_555 1_555
H19 C16 1_555 1_555
H20 C16 1_555 1_555
H21 C16 1_555 1_555
C17 C15 1_555 1_555
H22 C17 1_555 1_555
H23 C17 1_555 1_555
H24 C17 1_555 1_555
C18 C4 1_555 1_555
H25 C18 1_555 1_555
H26 C18 1_555 1_555
H27 C18 1_555 1_555
C19 C4 1_555 1_555
H28 C19 1_555 1_555
H29 C19 1_555 1_555
H30 C19 1_555 1_555
C20 C10 1_555 1_555
O1 C20 1_555 1_555
O2 C8 1_555 1_555
C5 C10 1_555 1_555
C9 C10 1_555 1_555
C13 C14 1_555 1_555
C20 O2 1_555 1_555

#END
