
#######################################################################
#
#                 Cambridge Crystallographic Data Centre
#                                CCDC 
#
#######################################################################
#
# If this CIF has been generated from an entry in the Cambridge 
# Structural Database, then it will include bibliographic, chemical, 
# crystal, experimental, refinement or atomic coordinate data resulting 
# from the CCDC's data processing and validation procedures.
#
#######################################################################

data_KEDNAI
_chemical_formula_moiety         'C26 H32 N1 O4 S3 1+,I1 1-'
_chemical_name_systematic        
'trans-2-(2-(5,6,8,9,11,12,14,15,17,18-Decahydro-7,16-dithia-1,4,10,13-tetraoxa-2,3-benzocyclo-octadecinyl))vinyl-3-methylbenzothiazolium iodide'
_symmetry_cell_setting           triclinic
_symmetry_space_group_name_H-M   'P -1'
_symmetry_Int_Tables_number      2
_space_group_name_Hall           '-P 1'
loop_
_symmetry_equiv_pos_site_id
_symmetry_equiv_pos_as_xyz
1 x,y,z
2 -x,-y,-z
_cell_length_a                   9.71(1)
_cell_length_b                   12.304(9)
_cell_length_c                   13.715(9)
_cell_angle_alpha                64.01(6)
_cell_angle_beta                 85.28(9)
_cell_angle_gamma                71.29(9)
_cell_volume                     1391.74
_exptl_crystal_colour            red
_exptl_crystal_description       prism
_cell_formula_units_Z            2
_exptl_crystal_recrystallization_method acetonitrile
loop_
_atom_site_label
_atom_site_type_symbol
_atom_site_fract_x
_atom_site_fract_y
_atom_site_fract_z
I1 I 0.2632(1) 0.2527(1) 0.0750(1)
S1 S 0.9469(5) 0.4146(5) 0.3591(4)
S2 S 0.3570(3) 0.1525(3) 0.6743(2)
S3 S 0.3104(2) 0.8341(2) 0.9588(2)
O1 O 0.6810(6) 0.3985(5) 0.5963(4)
O2 O 0.8409(7) 0.1868(6) 0.3561(5)
O3 O 0.7455(6) 0.0459(6) 0.5539(5)
O4 O 0.5101(6) 0.3071(5) 0.7366(4)
N1 N 0.1694(6) 0.6799(5) 1.0586(4)
C1 C 0.7809(9) 0.4417(8) 0.5178(6)
C2 C 0.8207(10) 0.3539(9) 0.4641(7)
C3 C 0.9443(14) 0.3419(12) 0.2723(10)
C4 C 0.9569(10) 0.2146(8) 0.2955(8)
C5 C 0.8424(10) 0.0619(8) 0.3868(7)
C6 C 0.7206(11) 0.0405(10) 0.4574(8)
C7 C 0.6277(11) 0.0350(9) 0.6242(8)
C8 C 0.5174(11) 0.1591(9) 0.5970(7)
C9 C 0.4135(11) 0.1353(8) 0.8012(6)
C10 C 0.4064(10) 0.2565(7) 0.8072(6)
C11 C 0.6257(7) 0.4622(7) 0.6580(5)
C12 C 0.5302(7) 0.4113(6) 0.7355(5)
C13 C 0.4651(7) 0.4708(6) 0.7998(6)
C14 C 0.4946(7) 0.5802(6) 0.7904(5)
C15 C 0.5902(8) 0.6257(6) 0.7167(6)
C16 C 0.6565(9) 0.5672(7) 0.6493(6)
C17 C 0.4254(7) 0.6479(6) 0.8536(6)
C18 C 0.3258(7) 0.6226(6) 0.9278(5)
C19 C 0.2654(7) 0.7011(5) 0.9834(5)
C20 C 0.1097(9) 0.5742(7) 1.0934(7)
C21 C 0.1290(7) 0.7669(6) 1.1011(5)
C22 C 0.0325(8) 0.7659(7) 1.1845(6)
C23 C 0.0115(9) 0.8614(9) 1.2173(8)
C24 C 0.0796(10) 0.9557(8) 1.1701(8)
C25 C 0.1719(9) 0.9554(7) 1.0896(8)
C26 C 0.1960(7) 0.8594(6) 1.0578(6)
S4? S 0.9879(5) 0.3602(4) 0.3942(4)
loop_
_geom_bond_atom_site_label_1
_geom_bond_atom_site_label_2
_geom_bond_site_symmetry_1
_geom_bond_site_symmetry_2
S1 C2 1_555 1_555
S2 C8 1_555 1_555
S3 C19 1_555 1_555
O1 C1 1_555 1_555
O2 C4 1_555 1_555
O3 C6 1_555 1_555
O4 C10 1_555 1_555
N1 C19 1_555 1_555
C1 C2 1_555 1_555
C3 S1 1_555 1_555
C4 C3 1_555 1_555
C5 O2 1_555 1_555
C6 C5 1_555 1_555
C7 O3 1_555 1_555
C8 C7 1_555 1_555
C9 S2 1_555 1_555
C10 C9 1_555 1_555
C11 O1 1_555 1_555
C12 O4 1_555 1_555
C13 C12 1_555 1_555
C14 C13 1_555 1_555
C15 C14 1_555 1_555
C16 C11 1_555 1_555
C17 C14 1_555 1_555
C18 C17 1_555 1_555
C19 C18 1_555 1_555
C20 N1 1_555 1_555
C21 N1 1_555 1_555
C22 C21 1_555 1_555
C23 C22 1_555 1_555
C24 C23 1_555 1_555
C25 C24 1_555 1_555
C26 S3 1_555 1_555
C11 C12 1_555 1_555
C15 C16 1_555 1_555
C21 C26 1_555 1_555
C25 C26 1_555 1_555

#END
