
#######################################################################
#
#                 Cambridge Crystallographic Data Centre
#                                CCDC 
#
#######################################################################
#
# If this CIF has been generated from an entry in the Cambridge 
# Structural Database, then it will include bibliographic, chemical, 
# crystal, experimental, refinement or atomic coordinate data resulting 
# from the CCDC's data processing and validation procedures.
#
#######################################################################

data_KEDNAI01
_chemical_formula_moiety         'C26 H32 N1 O4 S3 1+,I1 1-'
_chemical_name_systematic        
'2-(2-(2,3,5,6,8,9,11,12,14,15-decahydro-1,7,10,16,4,13-benzotetraoxadithiacyclooctadecin-18-yl)vinyl)-3-methyl-1,3-benzothiazol-3-ium iodide'
_symmetry_cell_setting           triclinic
_symmetry_space_group_name_H-M   'P -1'
_symmetry_Int_Tables_number      2
_space_group_name_Hall           '-P 1'
loop_
_symmetry_equiv_pos_site_id
_symmetry_equiv_pos_as_xyz
1 x,y,z
2 -x,-y,-z
_cell_length_a                   9.5334(4)
_cell_length_b                   12.3118(5)
_cell_length_c                   13.5862(6)
_cell_angle_alpha                63.8180(10)
_cell_angle_beta                 85.6560(10)
_cell_angle_gamma                71.3680(10)
_cell_volume                     1352.05
_exptl_crystal_colour            'dark orange'
_exptl_crystal_description       block
_cell_formula_units_Z            2
_exptl_crystal_recrystallization_method 'acetonitrile / benzene'
loop_
_atom_site_label
_atom_site_type_symbol
_atom_site_fract_x
_atom_site_fract_y
_atom_site_fract_z
I1 I 0.26248(2) 0.25537(2) 0.57591(2)
S1 S 0.31121(5) 0.83494(5) 0.45526(4)
S2 S 0.98246(6) 0.36621(6) -0.11577(5)
S3 S 0.33998(6) 0.15912(6) 0.17035(4)
O1 O 0.67822(15) 0.39522(14) 0.09433(11)
O2 O 0.83446(15) 0.18048(14) -0.14222(12)
O3 O 0.74281(15) 0.04278(15) 0.06188(11)
O4 O 0.50682(15) 0.30434(14) 0.23679(11)
N1 N 0.17115(16) 0.67872(15) 0.56200(12)
C1 C 0.19973(19) 0.86186(18) 0.55431(15)
C2 C 0.1786(2) 0.9579(2) 0.58665(18)
C3 C 0.0879(2) 0.9568(2) 0.67135(19)
C4 C 0.0186(2) 0.8632(2) 0.72119(18)
C5 C 0.0379(2) 0.7682(2) 0.68871(16)
C6 C 0.13147(19) 0.76782(18) 0.60457(14)
C7 C 0.26612(19) 0.69993(17) 0.48318(14)
C8 C 0.3264(2) 0.62066(18) 0.42892(15)
C9 C 0.4243(2) 0.64790(18) 0.35193(15)
C10 C 0.49415(19) 0.57757(18) 0.28963(14)
C11 C 0.5922(2) 0.62293(19) 0.21360(15)
C12 C 0.6583(2) 0.56369(19) 0.14705(15)
C13 C 0.62491(19) 0.45897(18) 0.15551(14)
C14 C 0.52806(19) 0.40945(17) 0.23449(14)
C15 C 0.4638(2) 0.46752(18) 0.30094(14)
C16 C 0.7842(2) 0.4352(2) 0.01704(16)
C17 C 0.8208(2) 0.3474(2) -0.03855(17)
C18 C 0.9445(2) 0.3433(2) -0.23268(16)
C19 C 0.9520(2) 0.2102(2) -0.20778(16)
C20 C 0.8380(2) 0.0535(2) -0.10776(17)
C21 C 0.7152(2) 0.0311(2) -0.03339(18)
C22 C 0.6237(2) 0.0357(2) 0.13209(17)
C23 C 0.5031(2) 0.1640(2) 0.09340(16)
C24 C 0.4018(3) 0.1367(2) 0.30266(16)
C25 C 0.4011(2) 0.2557(2) 0.30863(16)
C26 C 0.1094(2) 0.57316(19) 0.60178(16)
H1 H 0.226(3) 1.019(2) 0.553(2)
H2 H 0.076(3) 1.017(3) 0.695(2)
H3 H -0.040(3) 0.866(3) 0.777(2)
H4 H -0.010(3) 0.708(2) 0.7212(19)
H5 H 0.299(3) 0.547(2) 0.4501(19)
H6 H 0.454(3) 0.725(2) 0.331(2)
H7 H 0.616(3) 0.696(2) 0.205(2)
H8 H 0.723(3) 0.598(2) 0.096(2)
H9 H 0.398(3) 0.433(2) 0.3546(19)
H10 H 0.871(3) 0.429(2) 0.055(2)
H11 H 0.740(3) 0.525(2) -0.036(2)
H12 H 0.739(3) 0.368(2) -0.089(2)
H13 H 0.844(3) 0.261(2) 0.016(2)
H14 H 0.844(3) 0.411(3) -0.269(2)
H15 H 1.028(3) 0.362(3) -0.282(2)
H16 H 0.940(3) 0.206(2) -0.279(2)
H17 H 1.048(3) 0.146(2) -0.1706(19)
H18 H 0.934(3) -0.005(2) -0.071(2)
H19 H 0.814(3) 0.043(3) -0.173(2)
H20 H 0.622(3) 0.097(2) -0.073(2)
H21 H 0.706(3) -0.051(2) -0.010(2)
H22 H 0.665(3) 0.012(3) 0.201(2)
H23 H 0.582(3) -0.035(2) 0.141(2)
H24 H 0.467(3) 0.191(3) 0.017(2)
H25 H 0.541(3) 0.228(2) 0.090(2)
H26 H 0.329(3) 0.102(3) 0.352(2)
H27 H 0.499(3) 0.074(3) 0.326(2)
H28 H 0.304(3) 0.325(2) 0.283(2)
H29 H 0.428(3) 0.239(2) 0.383(2)
H30 H 0.170(3) 0.507(3) 0.590(2)
H31 H 0.013(4) 0.604(3) 0.562(3)
H32 H 0.107(3) 0.542(2) 0.682(2)
loop_
_geom_bond_atom_site_label_1
_geom_bond_atom_site_label_2
_geom_bond_site_symmetry_1
_geom_bond_site_symmetry_2
S1 C1 1_555 1_555
S2 C17 1_555 1_555
S3 C23 1_555 1_555
O1 C13 1_555 1_555
O2 C19 1_555 1_555
O3 C21 1_555 1_555
O4 C14 1_555 1_555
N1 C6 1_555 1_555
C1 C2 1_555 1_555
C2 C3 1_555 1_555
C3 C4 1_555 1_555
C4 C5 1_555 1_555
C5 C6 1_555 1_555
C6 C1 1_555 1_555
C7 S1 1_555 1_555
C8 C7 1_555 1_555
C9 C8 1_555 1_555
C10 C9 1_555 1_555
C11 C10 1_555 1_555
C12 C11 1_555 1_555
C13 C12 1_555 1_555
C14 C13 1_555 1_555
C15 C10 1_555 1_555
C16 O1 1_555 1_555
C17 C16 1_555 1_555
C18 S2 1_555 1_555
C19 C18 1_555 1_555
C20 O2 1_555 1_555
C21 C20 1_555 1_555
C22 O3 1_555 1_555
C23 C22 1_555 1_555
C24 S3 1_555 1_555
C25 O4 1_555 1_555
C26 N1 1_555 1_555
H1 C2 1_555 1_555
H2 C3 1_555 1_555
H3 C4 1_555 1_555
H4 C5 1_555 1_555
H5 C8 1_555 1_555
H6 C9 1_555 1_555
H7 C11 1_555 1_555
H8 C12 1_555 1_555
H9 C15 1_555 1_555
H10 C16 1_555 1_555
H11 C16 1_555 1_555
H12 C17 1_555 1_555
H13 C17 1_555 1_555
H14 C18 1_555 1_555
H15 C18 1_555 1_555
H16 C19 1_555 1_555
H17 C19 1_555 1_555
H18 C20 1_555 1_555
H19 C20 1_555 1_555
H20 C21 1_555 1_555
H21 C21 1_555 1_555
H22 C22 1_555 1_555
H23 C22 1_555 1_555
H24 C23 1_555 1_555
H25 C23 1_555 1_555
H26 C24 1_555 1_555
H27 C24 1_555 1_555
H28 C25 1_555 1_555
H29 C25 1_555 1_555
H30 C26 1_555 1_555
H31 C26 1_555 1_555
H32 C26 1_555 1_555
N1 C7 1_555 1_555
C14 C15 1_555 1_555
C24 C25 1_555 1_555

#END
