
#######################################################################
#
#                 Cambridge Crystallographic Data Centre
#                                CCDC 
#
#######################################################################
#
# If this CIF has been generated from an entry in the Cambridge 
# Structural Database, then it will include bibliographic, chemical, 
# crystal, experimental, refinement or atomic coordinate data resulting 
# from the CCDC's data processing and validation procedures.
#
#######################################################################

data_KEDVIA01
_chemical_formula_moiety         'C36 H26 O3 P2'
_chemical_name_systematic        
'Dibenzo[b,d]furan-4,6-diylbis(diphenylphosphine) dioxide'
_symmetry_cell_setting           monoclinic
_symmetry_space_group_name_H-M   'P 21/n'
_symmetry_Int_Tables_number      14
_space_group_name_Hall           '-P 2yn'
loop_
_symmetry_equiv_pos_site_id
_symmetry_equiv_pos_as_xyz
1 x,y,z
2 1/2-x,1/2+y,1/2-z
3 -x,-y,-z
4 1/2+x,1/2-y,1/2+z
_cell_length_a                   13.415(3)
_cell_length_b                   11.172(2)
_cell_length_c                   18.997(4)
_cell_angle_alpha                90
_cell_angle_beta                 94.82(3)
_cell_angle_gamma                90
_cell_volume                     2837.06
_exptl_crystal_colour            colorless
_exptl_crystal_description       prism
_cell_formula_units_Z            4
_exptl_crystal_recrystallization_method ethanol
loop_
_atom_site_label
_atom_site_type_symbol
_atom_site_fract_x
_atom_site_fract_y
_atom_site_fract_z
P1 P 0.15936(7) 0.78553(8) 0.08590(4)
P2 P 0.58694(7) 0.82160(8) 0.18099(5)
O1 O 0.05189(17) 0.7727(2) 0.06285(12)
O2 O 0.5662(2) 0.7173(2) 0.13391(13)
O3 O 0.38219(15) 0.91284(18) 0.10730(10)
C1 C 0.2311(3) 0.6645(3) 0.05367(17)
C2 C 0.3309(3) 0.6425(3) 0.07531(19)
H1 H 0.3636 0.6887 0.1109
C3 C 0.3819(3) 0.5512(3) 0.0438(2)
H2 H 0.4487 0.5365 0.0583
C4 C 0.3340(4) 0.4828(4) -0.0086(2)
H3 H 0.3688 0.4225 -0.0298
C5 C 0.2361(4) 0.5027(4) -0.0298(2)
H4 H 0.2039 0.4552 -0.0649
C6 C 0.1838(3) 0.5937(4) 0.0010(2)
H5 H 0.1168 0.6071 -0.0138
C7 C 0.1829(2) 0.7928(3) 0.18017(16)
C8 C 0.1800(4) 0.9005(4) 0.2147(2)
H6 H 0.1745 0.9712 0.1888
C9 C 0.1851(4) 0.9047(5) 0.2878(2)
H7 H 0.1836 0.9783 0.3106
C10 C 0.1922(3) 0.8029(5) 0.3264(2)
H8 H 0.1966 0.8061 0.3755
C11 C 0.1927(4) 0.6959(5) 0.2925(2)
H9 H 0.1963 0.6254 0.3187
C12 C 0.1879(3) 0.6905(4) 0.2198(2)
H10 H 0.1881 0.6164 0.1974
C13 C 0.2094(2) 0.9216(3) 0.05234(15)
C14 C 0.3056(2) 0.9667(3) 0.06527(14)
C15 C 0.3381(3) 1.0743(3) 0.03674(15)
C16 C 0.2704(3) 1.1409(3) -0.00679(17)
H11 H 0.2900 1.2128 -0.0261
C17 C 0.1745(3) 1.0996(4) -0.02103(19)
H12 H 0.1288 1.1438 -0.0500
C18 C 0.1451(3) 0.9914(3) 0.00778(17)
H13 H 0.0800 0.9648 -0.0032
C19 C 0.5587(2) 0.9634(3) 0.13735(16)
C20 C 0.4653(2) 0.9867(3) 0.10404(15)
C21 C 0.4416(3) 1.0869(3) 0.06216(15)
C22 C 0.5161(3) 1.1706(3) 0.05281(18)
H14 H 0.5027 1.2380 0.0249
C23 C 0.6094(3) 1.1518(3) 0.08551(19)
H15 H 0.6594 1.2078 0.0802
C24 C 0.6313(3) 1.0501(3) 0.12675(18)
H16 H 0.6959 1.0397 0.1477
C25 C 0.5218(3) 0.8195(3) 0.25992(18)
C26 C 0.5105(4) 0.7104(4) 0.2933(2)
H17 H 0.5278 0.6399 0.2713
C27 C 0.4739(4) 0.7060(6) 0.3587(3)
H18 H 0.4657 0.6325 0.3804
C28 C 0.4495(4) 0.8093(7) 0.3921(3)
H19 H 0.4267 0.8058 0.4369
C29 C 0.4586(4) 0.9169(6) 0.3599(2)
H20 H 0.4408 0.9869 0.3822
C30 C 0.4944(3) 0.9212(4) 0.2936(2)
H21 H 0.5001 0.9949 0.2715
C31 C 0.7160(3) 0.8290(3) 0.21342(17)
C32 C 0.7524(3) 0.9073(4) 0.2662(2)
H22 H 0.7084 0.9581 0.2870
C33 C 0.8530(4) 0.9110(5) 0.2883(3)
H23 H 0.8763 0.9637 0.3239
C34 C 0.9183(4) 0.8376(6) 0.2582(3)
H24 H 0.9860 0.8399 0.2732
C35 C 0.8845(4) 0.7608(6) 0.2061(3)
H25 H 0.9296 0.7117 0.1852
C36 C 0.7836(3) 0.7549(4) 0.1836(2)
H26 H 0.7613 0.7010 0.1485
loop_
_geom_bond_atom_site_label_1
_geom_bond_atom_site_label_2
_geom_bond_site_symmetry_1
_geom_bond_site_symmetry_2
P1 O1 1_555 1_555
P2 O2 1_555 1_555
O3 C14 1_555 1_555
C1 P1 1_555 1_555
C2 C1 1_555 1_555
H1 C2 1_555 1_555
C3 C2 1_555 1_555
H2 C3 1_555 1_555
C4 C3 1_555 1_555
H3 C4 1_555 1_555
C5 C4 1_555 1_555
H4 C5 1_555 1_555
C6 C1 1_555 1_555
H5 C6 1_555 1_555
C7 P1 1_555 1_555
C8 C7 1_555 1_555
H6 C8 1_555 1_555
C9 C8 1_555 1_555
H7 C9 1_555 1_555
C10 C9 1_555 1_555
H8 C10 1_555 1_555
C11 C10 1_555 1_555
H9 C11 1_555 1_555
C12 C7 1_555 1_555
H10 C12 1_555 1_555
C13 P1 1_555 1_555
C14 C13 1_555 1_555
C15 C14 1_555 1_555
C16 C15 1_555 1_555
H11 C16 1_555 1_555
C17 C16 1_555 1_555
H12 C17 1_555 1_555
C18 C13 1_555 1_555
H13 C18 1_555 1_555
C19 P2 1_555 1_555
C20 O3 1_555 1_555
C21 C15 1_555 1_555
C22 C21 1_555 1_555
H14 C22 1_555 1_555
C23 C22 1_555 1_555
H15 C23 1_555 1_555
C24 C19 1_555 1_555
H16 C24 1_555 1_555
C25 P2 1_555 1_555
C26 C25 1_555 1_555
H17 C26 1_555 1_555
C27 C26 1_555 1_555
H18 C27 1_555 1_555
C28 C27 1_555 1_555
H19 C28 1_555 1_555
C29 C28 1_555 1_555
H20 C29 1_555 1_555
C30 C25 1_555 1_555
H21 C30 1_555 1_555
C31 P2 1_555 1_555
C32 C31 1_555 1_555
H22 C32 1_555 1_555
C33 C32 1_555 1_555
H23 C33 1_555 1_555
C34 C33 1_555 1_555
H24 C34 1_555 1_555
C35 C34 1_555 1_555
H25 C35 1_555 1_555
C36 C31 1_555 1_555
H26 C36 1_555 1_555
C5 C6 1_555 1_555
C11 C12 1_555 1_555
C17 C18 1_555 1_555
C19 C20 1_555 1_555
C20 C21 1_555 1_555
C23 C24 1_555 1_555
C29 C30 1_555 1_555
C35 C36 1_555 1_555

#END
