
#######################################################################
#
#                 Cambridge Crystallographic Data Centre
#                                CCDC 
#
#######################################################################
#
# If this CIF has been generated from an entry in the Cambridge 
# Structural Database, then it will include bibliographic, chemical, 
# crystal, experimental, refinement or atomic coordinate data resulting 
# from the CCDC's data processing and validation procedures.
#
#######################################################################

data_KEDWIA
_chemical_formula_moiety         'C15 As1 F12 N3'
_chemical_name_systematic        tris(2,3,5,6-Tetrafluoro-4-pyridyl)arsane
_symmetry_cell_setting           monoclinic
_symmetry_space_group_name_H-M   'P 21/c'
_symmetry_Int_Tables_number      14
_space_group_name_Hall           '-P 2ybc'
loop_
_symmetry_equiv_pos_site_id
_symmetry_equiv_pos_as_xyz
1 x,y,z
2 -x,1/2+y,1/2-z
3 -x,-y,-z
4 x,1/2-y,1/2+z
_cell_length_a                   10.4531(7)
_cell_length_b                   11.7662(11)
_cell_length_c                   13.6033(10)
_cell_angle_alpha                90
_cell_angle_beta                 98.741(6)
_cell_angle_gamma                90
_cell_volume                     1653.68
_exptl_crystal_colour            colorless
_exptl_crystal_description       polyhedron
_chemical_melting_point          165-166deg.C
_cell_formula_units_Z            4
_exptl_crystal_recrystallization_method dichloromethane/n-hexane
loop_
_atom_site_label
_atom_site_type_symbol
_atom_site_fract_x
_atom_site_fract_y
_atom_site_fract_z
As1 As 0.823832(19) 0.099676(18) 0.256174(15)
C1 C 0.75010(18) 0.18172(16) 0.13406(14)
C2 C 0.8014(2) 0.28733(17) 0.11908(15)
F1 F 0.88936(13) 0.33529(11) 0.18918(10)
C3 C 0.7643(2) 0.34372(18) 0.03053(17)
F2 F 0.81622(16) 0.44491(12) 0.01621(11)
N1 N 0.67935(18) 0.30364(16) -0.04201(14)
C4 C 0.6290(2) 0.2040(2) -0.02815(16)
F3 F 0.54376(15) 0.16318(13) -0.10300(10)
C5 C 0.6613(2) 0.13949(18) 0.05693(16)
F4 F 0.60928(13) 0.03666(11) 0.06272(10)
C6 C 0.6801(2) 0.00461(17) 0.28462(15)
C7 C 0.5534(2) 0.04128(19) 0.27632(16)
F5 F 0.51573(13) 0.13847(12) 0.23026(11)
C8 C 0.4656(2) -0.0227(2) 0.31917(19)
F6 F 0.34253(14) 0.01281(16) 0.31070(14)
N2 N 0.4948(2) -0.11636(19) 0.36965(17)
C9 C 0.6149(2) -0.1505(2) 0.37956(18)
F7 F 0.64492(17) -0.24436(13) 0.43338(13)
C10 C 0.7104(2) -0.09355(18) 0.33942(16)
F8 F 0.83244(13) -0.13147(12) 0.35545(11)
C11 C 0.9181(2) -0.00554(19) 0.17894(15)
C12 C 0.8826(2) -0.1102(2) 0.13833(16)
F9 F 0.76851(14) -0.15841(13) 0.14639(11)
C13 C 0.9669(3) -0.1683(2) 0.08619(18)
F10 F 0.93330(17) -0.27047(15) 0.04844(13)
N3 N 1.0794(2) -0.1287(2) 0.07154(16)
C14 C 1.1135(2) -0.0289(2) 0.10910(19)
F11 F 1.22741(16) 0.01209(16) 0.09254(14)
C15 C 1.0379(2) 0.0347(2) 0.16309(18)
F12 F 1.07909(15) 0.13672(13) 0.19821(13)
loop_
_geom_bond_atom_site_label_1
_geom_bond_atom_site_label_2
_geom_bond_site_symmetry_1
_geom_bond_site_symmetry_2
As1 C1 1_555 1_555
C1 C2 1_555 1_555
C2 F1 1_555 1_555
C3 C2 1_555 1_555
F2 C3 1_555 1_555
N1 C3 1_555 1_555
C4 N1 1_555 1_555
F3 C4 1_555 1_555
C5 C1 1_555 1_555
F4 C5 1_555 1_555
C6 As1 1_555 1_555
C7 C6 1_555 1_555
F5 C7 1_555 1_555
C8 C7 1_555 1_555
F6 C8 1_555 1_555
N2 C8 1_555 1_555
C9 N2 1_555 1_555
F7 C9 1_555 1_555
C10 C6 1_555 1_555
F8 C10 1_555 1_555
C11 As1 1_555 1_555
C12 C11 1_555 1_555
F9 C12 1_555 1_555
C13 C12 1_555 1_555
F10 C13 1_555 1_555
N3 C13 1_555 1_555
C14 N3 1_555 1_555
F11 C14 1_555 1_555
C15 C11 1_555 1_555
F12 C15 1_555 1_555
C4 C5 1_555 1_555
C9 C10 1_555 1_555
C14 C15 1_555 1_555

#END
