
#######################################################################
#
#                 Cambridge Crystallographic Data Centre
#                                CCDC 
#
#######################################################################
#
# If this CIF has been generated from an entry in the Cambridge 
# Structural Database, then it will include bibliographic, chemical, 
# crystal, experimental, refinement or atomic coordinate data resulting 
# from the CCDC's data processing and validation procedures.
#
#######################################################################

data_KEDWEW
_chemical_formula_moiety         'C15 F12 N3 P1'
_chemical_name_systematic        tris(2,3,5,6-Tetrafluoro-4-pyridyl)phosphane
_symmetry_cell_setting           monoclinic
_symmetry_space_group_name_H-M   'P 21/c'
_symmetry_Int_Tables_number      14
_space_group_name_Hall           '-P 2ybc'
loop_
_symmetry_equiv_pos_site_id
_symmetry_equiv_pos_as_xyz
1 x,y,z
2 -x,1/2+y,1/2-z
3 -x,-y,-z
4 x,1/2-y,1/2+z
_cell_length_a                   10.4100(15)
_cell_length_b                   11.3311(16)
_cell_length_c                   13.906(2)
_cell_angle_alpha                90
_cell_angle_beta                 98.801(11)
_cell_angle_gamma                90
_cell_volume                     1620.99
_exptl_crystal_colour            colorless
_exptl_crystal_description       plate
_chemical_melting_point          168deg.C
_cell_formula_units_Z            4
_exptl_crystal_recrystallization_method chloroform
loop_
_atom_site_label
_atom_site_type_symbol
_atom_site_fract_x
_atom_site_fract_y
_atom_site_fract_z
P1 P 0.31913(7) 0.09783(6) 0.24091(5)
C1 C 0.1842(3) 0.0117(2) 0.27499(19)
C2 C 0.2151(3) -0.0854(2) 0.3356(2)
F1 F 0.33769(18) -0.12438(15) 0.35236(12)
C3 C 0.1210(3) -0.1386(3) 0.3799(2)
F2 F 0.1524(2) -0.23099(17) 0.43839(15)
N1 N 0.0000(3) -0.1032(2) 0.36919(19)
C4 C -0.0304(3) -0.0110(3) 0.3135(2)
F3 F -0.1533(2) 0.0260(2) 0.30399(16)
C5 C 0.0563(3) 0.0493(3) 0.2662(2)
F4 F 0.01644(18) 0.14608(16) 0.21527(14)
C6 C 0.4097(3) -0.0069(2) 0.1743(2)
C7 C 0.3762(3) -0.1188(3) 0.1388(2)
F5 F 0.26322(18) -0.16968(15) 0.14924(13)
C8 C 0.4619(3) -0.1813(3) 0.0904(2)
F6 F 0.4301(2) -0.28944(18) 0.05768(15)
N2 N 0.5738(3) -0.1395(3) 0.07337(19)
C9 C 0.6058(3) -0.0339(3) 0.1066(2)
F7 F 0.7195(2) 0.0094(2) 0.08900(16)
C10 C 0.5287(3) 0.0346(3) 0.1563(2)
F8 F 0.56938(18) 0.14298(15) 0.18643(14)
C11 C 0.2502(3) 0.1825(2) 0.13152(19)
C12 C 0.1637(3) 0.1408(2) 0.0534(2)
F9 F 0.11528(18) 0.03151(14) 0.05642(12)
C13 C 0.1293(3) 0.2105(3) -0.0271(2)
F10 F 0.0461(2) 0.16950(18) -0.10240(13)
N3 N 0.1770(3) 0.3159(2) -0.03718(18)
C14 C 0.2601(3) 0.3565(2) 0.0356(2)
F11 F 0.3087(2) 0.46378(15) 0.02532(15)
C15 C 0.2986(3) 0.2950(2) 0.1206(2)
F12 F 0.38364(18) 0.34474(14) 0.19116(12)
loop_
_geom_bond_atom_site_label_1
_geom_bond_atom_site_label_2
_geom_bond_site_symmetry_1
_geom_bond_site_symmetry_2
P1 C1 1_555 1_555
C1 C2 1_555 1_555
C2 F1 1_555 1_555
C3 C2 1_555 1_555
F2 C3 1_555 1_555
N1 C3 1_555 1_555
C4 N1 1_555 1_555
F3 C4 1_555 1_555
C5 C1 1_555 1_555
F4 C5 1_555 1_555
C6 P1 1_555 1_555
C7 C6 1_555 1_555
F5 C7 1_555 1_555
C8 C7 1_555 1_555
F6 C8 1_555 1_555
N2 C8 1_555 1_555
C9 N2 1_555 1_555
F7 C9 1_555 1_555
C10 C6 1_555 1_555
F8 C10 1_555 1_555
C11 P1 1_555 1_555
C12 C11 1_555 1_555
F9 C12 1_555 1_555
C13 C12 1_555 1_555
F10 C13 1_555 1_555
N3 C13 1_555 1_555
C14 N3 1_555 1_555
F11 C14 1_555 1_555
C15 C11 1_555 1_555
F12 C15 1_555 1_555
C4 C5 1_555 1_555
C9 C10 1_555 1_555
C14 C15 1_555 1_555

#END
