
#######################################################################
#
#                 Cambridge Crystallographic Data Centre
#                                CCDC 
#
#######################################################################
#
# If this CIF has been generated from an entry in the Cambridge 
# Structural Database, then it will include bibliographic, chemical, 
# crystal, experimental, refinement or atomic coordinate data resulting 
# from the CCDC's data processing and validation procedures.
#
#######################################################################

data_KEFFOT
_chemical_formula_moiety         'C13 H15 N1 O4 S1'
_chemical_name_systematic        
{[2-(nitromethyl)cyclohex-2-en-1-yl]sulfonyl}benzene
_symmetry_cell_setting           monoclinic
_symmetry_space_group_name_H-M   'P 21/n'
_symmetry_Int_Tables_number      14
_space_group_name_Hall           '-P 2yn'
loop_
_symmetry_equiv_pos_site_id
_symmetry_equiv_pos_as_xyz
1 x,y,z
2 1/2-x,1/2+y,1/2-z
3 -x,-y,-z
4 1/2+x,1/2-y,1/2+z
_cell_length_a                   8.2267(15)
_cell_length_b                   12.296(2)
_cell_length_c                   13.654(3)
_cell_angle_alpha                90
_cell_angle_beta                 105.690(3)
_cell_angle_gamma                90
_cell_volume                     1329.71
_exptl_crystal_colour            colorless
_exptl_crystal_description       strip
_cell_formula_units_Z            4
loop_
_atom_site_label
_atom_site_type_symbol
_atom_site_fract_x
_atom_site_fract_y
_atom_site_fract_z
C1 C 0.7317(2) 0.39260(17) 0.69078(15)
C2 C 0.6887(3) 0.3470(2) 0.59502(17)
H1 H 0.7723 0.3287 0.5637
C3 C 0.5214(3) 0.3286(2) 0.54591(19)
H2 H 0.4916 0.2976 0.4814
C4 C 0.3988(3) 0.3562(2) 0.59244(19)
H3 H 0.2858 0.3446 0.5587
C5 C 0.4408(3) 0.4006(2) 0.68764(18)
H4 H 0.3565 0.4181 0.7187
C6 C 0.6073(3) 0.41948(19) 0.73778(17)
H5 H 0.6362 0.4500 0.8025
C7 C 0.9745(3) 0.55674(18) 0.76970(16)
H6 H 0.9005 0.5830 0.8101
C8 C 0.9236(3) 0.6161(2) 0.66744(18)
H7 H 0.8216 0.5832 0.6249
H8 H 0.8983 0.6913 0.6788
C9 C 1.0598(3) 0.6127(2) 0.61181(18)
H9 H 1.0782 0.5380 0.5947
H10 H 1.0225 0.6535 0.5489
C10 C 1.2231(3) 0.6600(2) 0.67550(18)
H11 H 1.3149 0.6349 0.6492
H12 H 1.2181 0.7386 0.6696
C11 C 1.2597(3) 0.6296(2) 0.78513(17)
H13 H 1.3667 0.6459 0.8264
C12 C 1.1535(3) 0.58146(17) 0.82883(16)
C13 C 1.2051(3) 0.56110(18) 0.94142(16)
H14 H 1.2807 0.6189 0.9741
H15 H 1.1053 0.5649 0.9662
N1 N 1.2906(2) 0.45414(17) 0.97300(14)
O1 O 0.97237(19) 0.36855(13) 0.85747(12)
O2 O 1.04535(18) 0.36988(14) 0.69342(12)
O3 O 1.2734(3) 0.41262(15) 1.05047(13)
O4 O 1.3812(2) 0.41700(14) 0.92350(13)
S1 S 0.94515(6) 0.41168(5) 0.75623(4)
loop_
_geom_bond_atom_site_label_1
_geom_bond_atom_site_label_2
_geom_bond_site_symmetry_1
_geom_bond_site_symmetry_2
C1 C2 1_555 1_555
C2 H1 1_555 1_555
C3 C2 1_555 1_555
H2 C3 1_555 1_555
C4 C3 1_555 1_555
H3 C4 1_555 1_555
C5 C4 1_555 1_555
H4 C5 1_555 1_555
C6 C1 1_555 1_555
H5 C6 1_555 1_555
C7 H6 1_555 1_555
C8 C7 1_555 1_555
H7 C8 1_555 1_555
H8 C8 1_555 1_555
C9 C8 1_555 1_555
H9 C9 1_555 1_555
H10 C9 1_555 1_555
C10 C9 1_555 1_555
H11 C10 1_555 1_555
H12 C10 1_555 1_555
C11 C10 1_555 1_555
H13 C11 1_555 1_555
C12 C7 1_555 1_555
C13 C12 1_555 1_555
H14 C13 1_555 1_555
H15 C13 1_555 1_555
N1 C13 1_555 1_555
O1 S1 1_555 1_555
O2 S1 1_555 1_555
O3 N1 1_555 1_555
O4 N1 1_555 1_555
S1 C1 1_555 1_555
C5 C6 1_555 1_555
C7 S1 1_555 1_555
C11 C12 1_555 1_555

#END
