
#######################################################################
#
#                 Cambridge Crystallographic Data Centre
#                                CCDC 
#
#######################################################################
#
# If this CIF has been generated from an entry in the Cambridge 
# Structural Database, then it will include bibliographic, chemical, 
# crystal, experimental, refinement or atomic coordinate data resulting 
# from the CCDC's data processing and validation procedures.
#
#######################################################################

data_KEFFUY
_chemical_compound_source        'fruits of Aphanamixis polystachya'
_chemical_name_common            'Aphanalide A'
_chemical_formula_moiety         'C34 H46 O11'
_chemical_name_systematic        
"10-Acetoxy-11-(formyloxy)-1-(3-furyl)-3-hydroxy-6,6,10a,10c,12a-pentamethyl-8-oxohexadecahydrocyclopenta[5,6]oxeto[2',3',4':4,5]naphtho[2,1-c]oxepin-12-yl 3-methylbutanoate"
_symmetry_cell_setting           orthorhombic
_symmetry_space_group_name_H-M   'P 21 21 21'
_symmetry_Int_Tables_number      19
_space_group_name_Hall           'P 2ac 2ab'
loop_
_symmetry_equiv_pos_site_id
_symmetry_equiv_pos_as_xyz
1 x,y,z
2 1/2-x,-y,1/2+z
3 1/2+x,1/2-y,-z
4 -x,1/2+y,1/2-z
_cell_length_a                   9.84250(10)
_cell_length_b                   16.7478(2)
_cell_length_c                   20.5021(3)
_cell_angle_alpha                90
_cell_angle_beta                 90
_cell_angle_gamma                90
_cell_volume                     3379.57
_cell_formula_units_Z            4
loop_
_atom_site_label
_atom_site_type_symbol
_atom_site_fract_x
_atom_site_fract_y
_atom_site_fract_z
O1 O -0.03252(18) 0.08327(12) 0.36938(9)
O2 O 0.34257(17) 0.15042(10) 0.51463(9)
O3 O -0.03977(19) -0.03492(11) 0.48498(10)
O4 O 0.0102(2) 0.23695(12) 0.54695(11)
H1 H -0.0348 0.2684 0.5252
O5 O 0.3246(2) -0.09854(12) 0.42204(11)
O6 O 0.5685(2) -0.14505(14) 0.51956(13)
O7 O -0.2398(2) 0.08625(17) 0.41587(11)
C1 C 0.1946(2) 0.15693(14) 0.50302(12)
C2 C 0.2653(3) -0.06304(15) 0.53308(13)
C3 C 0.1952(2) 0.01208(14) 0.50212(12)
H2 H 0.2673 0.0323 0.4736
C4 C 0.0314(2) 0.08923(15) 0.43291(12)
H3 H -0.0363 0.1088 0.4641
C5 C 0.1733(2) 0.08378(14) 0.54844(12)
C6 C 0.4114(3) 0.04020(16) 0.59337(14)
H4 H 0.3893 0.0221 0.6370
H5 H 0.5021 0.0628 0.5949
O8 O 0.2233(4) -0.1945(2) 0.36291(16)
O9 O 0.5497(3) -0.2400(2) 0.4483(2)
C7 C 0.0958(3) 0.23733(15) 0.41323(14)
H6 H -0.0021 0.2380 0.4218
C8 C 0.1487(2) 0.15028(14) 0.42974(12)
C9 C 0.0769(2) 0.00501(14) 0.45464(13)
H7 H 0.1059 -0.0255 0.4163
C10 C 0.1486(3) 0.23981(15) 0.52638(13)
H8 H 0.2076 0.2598 0.5613
C11 C 0.1872(3) -0.09413(17) 0.59339(14)
H9 H 0.0913 -0.0925 0.5849
H10 H 0.2076 -0.0611 0.6304
H11 H 0.2142 -0.1481 0.6024
C12 C 0.4142(3) -0.03283(16) 0.54805(14)
H12 H 0.4488 -0.0128 0.5063
C13 C 0.1634(3) 0.28912(15) 0.46548(14)
H13 H 0.2583 0.2985 0.4553
H14 H 0.1174 0.3400 0.4699
C14 C -0.1702(3) 0.08076(18) 0.36785(14)
C15 C 0.3134(3) 0.10579(15) 0.57514(13)
H15 H 0.3035 0.1431 0.6117
C16 C 0.2612(3) 0.12669(17) 0.38155(14)
H16 H 0.2965 0.0751 0.3931
H17 H 0.3330 0.1654 0.3833
H18 H 0.2246 0.1248 0.3382
C17 C 0.0562(3) 0.08107(17) 0.59709(13)
H19 H -0.0277 0.0734 0.5741
H20 H 0.0527 0.1304 0.6208
H21 H 0.0700 0.0377 0.6270
O10 O -0.0844(4) -0.1060(2) 0.39543(17)
C18 C -0.2222(3) 0.0670(2) 0.30008(16)
H22 H -0.2176 0.0104 0.2904
H23 H -0.1633 0.0945 0.2695
C19 C 0.2650(3) -0.13024(15) 0.48193(15)
H24 H 0.1704 -0.1449 0.4729
O11 O 0.1979(4) 0.3407(2) 0.26281(18)
C20 C 0.3435(4) -0.20630(18) 0.49952(18)
H25 H 0.3282 -0.2186 0.5452
H26 H 0.3082 -0.2504 0.4739
C21 C 0.1168(4) 0.26993(18) 0.34607(16)
C22 C -0.1081(3) -0.0879(2) 0.44948(19)
H27 H -0.1816 -0.1128 0.4694
C23 C 0.4936(5) -0.1417(2) 0.6338(2)
H28 H 0.4655 -0.1071 0.6686
H29 H 0.5736 -0.1704 0.6467
H30 H 0.4221 -0.1788 0.6242
C24 C 0.0262(6) 0.2645(2) 0.29174(19)
H31 H -0.0559 0.2370 0.2908
C25 C 0.4925(4) -0.1991(2) 0.4877(2)
C26 C -0.3671(4) 0.0955(3) 0.28984(18)
H32 H -0.4218 0.0764 0.3266
C27 C 0.5248(3) -0.09187(19) 0.57313(17)
C28 C 0.2973(5) -0.1384(2) 0.3660(2)
C29 C 0.6583(3) -0.0472(2) 0.5850(2)
H33 H 0.6750 -0.0112 0.5495
H34 H 0.7315 -0.0849 0.5880
H35 H 0.6521 -0.0176 0.6250
C30 C 0.0801(6) 0.3057(3) 0.2430(2)
H36 H 0.0429 0.3101 0.2014
C31 C -0.4258(5) 0.0593(3) 0.2276(2)
H37 H -0.3772 0.0795 0.1905
H38 H -0.5201 0.0734 0.2239
H39 H -0.4171 0.0022 0.2292
C32 C 0.3738(7) -0.1025(4) 0.3103(3)
H40 H 0.4695 -0.1100 0.3170
H41 H 0.3541 -0.0465 0.3078
H42 H 0.3469 -0.1281 0.2705
C33 C 0.2183(5) 0.3182(3) 0.3261(2)
H43 H 0.2916 0.3338 0.3518
C34 C -0.3760(6) 0.1855(4) 0.2886(3)
H44 H -0.3260 0.2057 0.2520
H45 H -0.3382 0.2068 0.3282
H46 H -0.4694 0.2014 0.2850
loop_
_geom_bond_atom_site_label_1
_geom_bond_atom_site_label_2
_geom_bond_site_symmetry_1
_geom_bond_site_symmetry_2
O1 C4 1_555 1_555
O2 C1 1_555 1_555
O3 C9 1_555 1_555
O4 H1 1_555 1_555
O5 C19 1_555 1_555
O6 C25 1_555 1_555
O7 C14 1_555 1_555
C1 C5 1_555 1_555
C2 C3 1_555 1_555
C3 H2 1_555 1_555
C4 H3 1_555 1_555
C5 C3 1_555 1_555
C6 H4 1_555 1_555
H5 C6 1_555 1_555
O8 C28 1_555 1_555
O9 C25 1_555 1_555
C7 H6 1_555 1_555
C8 C1 1_555 1_555
C9 C3 1_555 1_555
H7 C9 1_555 1_555
C10 O4 1_555 1_555
H8 C10 1_555 1_555
C11 C2 1_555 1_555
H9 C11 1_555 1_555
H10 C11 1_555 1_555
H11 C11 1_555 1_555
C12 C2 1_555 1_555
H12 C12 1_555 1_555
C13 C7 1_555 1_555
H13 C13 1_555 1_555
H14 C13 1_555 1_555
C14 O1 1_555 1_555
C15 O2 1_555 1_555
H15 C15 1_555 1_555
C16 C8 1_555 1_555
H16 C16 1_555 1_555
H17 C16 1_555 1_555
H18 C16 1_555 1_555
C17 C5 1_555 1_555
H19 C17 1_555 1_555
H20 C17 1_555 1_555
H21 C17 1_555 1_555
O10 C22 1_555 1_555
C18 C14 1_555 1_555
H22 C18 1_555 1_555
H23 C18 1_555 1_555
C19 C2 1_555 1_555
H24 C19 1_555 1_555
O11 C30 1_555 1_555
C20 C19 1_555 1_555
H25 C20 1_555 1_555
H26 C20 1_555 1_555
C21 C7 1_555 1_555
C22 O3 1_555 1_555
H27 C22 1_555 1_555
C23 H28 1_555 1_555
H29 C23 1_555 1_555
H30 C23 1_555 1_555
C24 C21 1_555 1_555
H31 C24 1_555 1_555
C25 C20 1_555 1_555
C26 C18 1_555 1_555
H32 C26 1_555 1_555
C27 O6 1_555 1_555
C28 O5 1_555 1_555
C29 C27 1_555 1_555
H33 C29 1_555 1_555
H34 C29 1_555 1_555
H35 C29 1_555 1_555
C30 C24 1_555 1_555
H36 C30 1_555 1_555
C31 C26 1_555 1_555
H37 C31 1_555 1_555
H38 C31 1_555 1_555
H39 C31 1_555 1_555
C32 C28 1_555 1_555
H40 C32 1_555 1_555
H41 C32 1_555 1_555
H42 C32 1_555 1_555
C33 O11 1_555 1_555
H43 C33 1_555 1_555
C34 C26 1_555 1_555
H44 C34 1_555 1_555
H45 C34 1_555 1_555
H46 C34 1_555 1_555
C1 C10 1_555 1_555
C4 C8 1_555 1_555
C4 C9 1_555 1_555
C5 C15 1_555 1_555
C6 C12 1_555 1_555
C6 C15 1_555 1_555
C7 C8 1_555 1_555
C10 C13 1_555 1_555
C12 C27 1_555 1_555
C21 C33 1_555 1_555
C23 C27 1_555 1_555

#END
