
#######################################################################
#
#                 Cambridge Crystallographic Data Centre
#                                CCDC 
#
#######################################################################
#
# If this CIF has been generated from an entry in the Cambridge 
# Structural Database, then it will include bibliographic, chemical, 
# crystal, experimental, refinement or atomic coordinate data resulting 
# from the CCDC's data processing and validation procedures.
#
#######################################################################

data_KEFGAF
_chemical_compound_source        'fruits of Aphanamixis polystachya'
_chemical_name_common            'Aphanalide C'
_chemical_formula_moiety         'C34 H48 O11'
_chemical_name_systematic        
"10-Acetoxy-1-(3-furyl)-3,11-dihydroxy-6,6,10a,10c,12a-pentamethyl-8-oxohexadecahydrocyclopenta[5,6]oxeto[2',3',4':4,5]naphtho[2,1-c]oxepin-12-yl 2-hydroxy-3-methylpentanoate"
_symmetry_cell_setting           orthorhombic
_symmetry_space_group_name_H-M   'P 21 21 21'
_symmetry_Int_Tables_number      19
_space_group_name_Hall           'P 2ac 2ab'
loop_
_symmetry_equiv_pos_site_id
_symmetry_equiv_pos_as_xyz
1 x,y,z
2 1/2-x,-y,1/2+z
3 1/2+x,1/2-y,-z
4 -x,1/2+y,1/2-z
_cell_length_a                   9.56110(10)
_cell_length_b                   28.8170(2)
_cell_length_c                   36.3818(2)
_cell_angle_alpha                90
_cell_angle_beta                 90
_cell_angle_gamma                90
_cell_volume                     10024
_cell_formula_units_Z            12
loop_
_atom_site_label
_atom_site_type_symbol
_atom_site_fract_x
_atom_site_fract_y
_atom_site_fract_z
O1 O 0.64980(17) 0.87043(5) 0.32375(4)
O8 O 0.49188(19) 1.02851(5) 0.33882(5)
O9 O 0.65104(18) 0.93757(6) 0.43606(5)
O10 O 0.5096(2) 0.80899(6) 0.33190(6)
O12 O 0.3693(2) 0.87109(6) 0.37591(6)
H3 H 0.3846 0.8462 0.3657
O14 O 0.6988(2) 0.75506(6) 0.29651(5)
H4 H 0.6291 0.7453 0.3071
O17 O 0.3131(2) 0.95222(8) 0.27352(5)
H6 H 0.3149 0.9485 0.2512
C4 C 0.7206(3) 0.96681(8) 0.33442(7)
H12 H 0.7065 0.9690 0.3605
H13 H 0.7457 0.9967 0.3249
H14 H 0.7943 0.9451 0.3294
C5 C 0.6081(3) 0.94961(9) 0.27270(6)
H15 H 0.5585 0.9225 0.2629
O23 O 0.5603(2) 1.01943(8) 0.49004(6)
C9 C 0.5336(2) 0.90283(7) 0.32999(6)
H17 H 0.4550 0.8932 0.3145
C11 C 0.3975(3) 0.99176(10) 0.28312(7)
H19 H 0.3447 1.0208 0.2816
C12 C 0.7545(3) 0.94837(9) 0.25810(7)
C15 C 0.3627(3) 1.02596(8) 0.36097(7)
H22 H 0.2867 1.0418 0.3480
C18 C 0.7473(3) 0.79583(8) 0.31444(8)
H25 H 0.8026 0.8134 0.2965
O25 O 0.7122(2) 0.86586(8) 0.45390(7)
C21 C 0.5289(3) 0.99316(9) 0.26018(7)
H27 H 0.5826 1.0210 0.2651
H28 H 0.5073 0.9918 0.2342
C28 C 0.6218(3) 0.82522(8) 0.32444(7)
C29 C 0.5857(2) 0.95028(8) 0.31608(6)
C31 C 0.4471(2) 0.95011(8) 0.38290(6)
H35 H 0.5359 0.9666 0.3799
C32 C 0.4566(3) 0.98350(8) 0.32176(6)
C34 C 0.2590(3) 0.94732(10) 0.43336(8)
H37 H 0.1966 0.9703 0.4235
H38 H 0.2485 0.9459 0.4596
H39 H 0.2371 0.9176 0.4229
C38 C 0.3536(3) 0.97382(8) 0.35383(6)
C40 C 0.7438(3) 0.90305(10) 0.44132(7)
C42 C 0.4851(3) 0.90120(7) 0.37054(6)
H44 H 0.5631 0.8901 0.3857
C45 C 0.3700(3) 1.04353(9) 0.40004(7)
H48 H 0.2750 1.0478 0.4088
H49 H 0.4139 1.0739 0.3997
C49 C 0.4489(3) 1.01307(8) 0.42838(7)
H56 H 0.5476 1.0152 0.4213
C53 C 0.2082(3) 0.95456(10) 0.34613(8)
H60 H 0.1676 0.9709 0.3257
H61 H 0.1504 0.9586 0.3675
H62 H 0.2150 0.9221 0.3403
O27 O 0.9483(3) 0.96910(11) 0.22769(10)
C55 C 0.5001(3) 0.93577(10) 0.48911(7)
H64 H 0.4035 0.9403 0.4964
H65 H 0.5337 0.9078 0.5010
C58 C 0.4414(3) 1.03591(10) 0.46721(7)
C59 C 0.4104(3) 0.96028(8) 0.42382(6)
C60 C 0.5063(3) 0.92909(9) 0.44761(7)
H68 H 0.4836 0.8966 0.4422
C61 C 0.4781(4) 1.08723(10) 0.46480(9)
H69 H 0.5606 1.0911 0.4501
H70 H 0.4951 1.0991 0.4890
H71 H 0.4019 1.1038 0.4538
C66 C 0.8532(4) 0.91240(12) 0.25911(11)
H76 H 0.8407 0.8837 0.2703
C72 C 0.3046(4) 1.03154(12) 0.48854(9)
H86 H 0.2286 1.0423 0.4736
H87 H 0.3098 1.0499 0.5105
H88 H 0.2893 0.9996 0.4950
C74 C 0.9691(4) 0.92627(15) 0.24127(13)
H91 H 1.0506 0.9090 0.2387
C76 C 0.8862(3) 0.91715(14) 0.42977(10)
H95 H 0.9507 0.8924 0.4347
H96 H 0.9139 0.9443 0.4432
H97 H 0.8862 0.9239 0.4039
C85 C 0.8165(4) 0.98184(14) 0.23859(13)
H113 H 0.7754 1.0102 0.2331
O32 O 0.6804(4) 0.97089(11) 0.52328(9)
C87 C 0.5847(4) 0.97605(12) 0.50220(8)
C95 C 0.8422(4) 0.78561(12) 0.34722(10)
H127 H 0.8564 0.8168 0.3572
C96 C 0.9877(8) 0.7706(4) 0.3409(3)
H128 H 1.0295 0.7620 0.3639
H129 H 1.0398 0.7957 0.3302
H130 H 0.9884 0.7445 0.3245
C97 C 0.7658(5) 0.76189(17) 0.37891(13)
H131 H 0.6793 0.7787 0.3830
H132 H 0.7404 0.7310 0.3707
C98 C 0.8382(9) 0.7569(3) 0.41594(19)
H133 H 0.8863 0.7277 0.4169
H134 H 0.7698 0.7583 0.4352
H135 H 0.9043 0.7817 0.4190
O2 O 1.65435(17) 0.54213(5) 0.32167(4)
O3 O 1.48294(18) 0.69964(5) 0.32348(5)
O4 O 1.7165(2) 0.42624(6) 0.30312(5)
H1 H 1.6607 0.4121 0.3161
O11 O 1.5202(2) 0.48060(6) 0.33658(6)
O13 O 1.62914(19) 0.62730(7) 0.42925(5)
O15 O 1.3190(2) 0.61665(8) 0.26098(5)
H5 H 1.3287 0.6100 0.2392
O18 O 1.3681(2) 0.54726(6) 0.37161(6)
H7 H 1.3867 0.5215 0.3635
C1 C 1.6312(3) 0.49712(8) 0.32770(6)
C2 C 1.5351(2) 0.57429(7) 0.32448(6)
H9 H 1.4589 0.5620 0.3093
C3 C 1.4367(2) 0.62744(8) 0.37230(6)
H11 H 1.5241 0.6448 0.3692
O22 O 1.5107(3) 0.71051(8) 0.47644(6)
C6 C 1.3461(3) 0.64600(8) 0.34066(7)
C7 C 1.4545(3) 0.65284(8) 0.30900(6)
C8 C 1.3484(3) 0.69859(9) 0.34371(7)
H16 H 1.2742 0.7119 0.3284
C10 C 1.4000(3) 0.65667(9) 0.26928(7)
H18 H 1.3471 0.6854 0.2653
C14 C 1.6124(3) 0.61474(8) 0.26394(6)
H21 H 1.5635 0.5865 0.2561
C20 C 1.7609(3) 0.46747(8) 0.32170(8)
H26 H 1.8216 0.4845 0.3047
C22 C 1.7602(3) 0.61165(9) 0.24971(7)
C23 C 1.7181(3) 0.63969(8) 0.32504(7)
H29 H 1.6978 0.6482 0.3500
H30 H 1.7497 0.6665 0.3118
H31 H 1.7897 0.6163 0.3248
C24 C 1.5856(2) 0.62055(7) 0.30687(6)
C26 C 1.5336(3) 0.65604(9) 0.24765(7)
H32 H 1.5856 0.6846 0.2510
H33 H 1.5155 0.6515 0.2217
C30 C 1.4817(3) 0.57790(8) 0.36473(6)
H34 H 1.5586 0.5700 0.3814
O26 O 1.7105(3) 0.56171(10) 0.45388(9)
C37 C 1.2383(3) 0.62728(10) 0.42013(8)
H41 H 1.1755 0.6497 0.4097
H42 H 1.2242 0.6257 0.4462
H43 H 1.2206 0.5974 0.4094
C46 C 1.4185(3) 0.69531(9) 0.41349(7)
H50 H 1.5185 0.6984 0.4082
C47 C 1.2033(3) 0.62400(11) 0.33263(8)
H51 H 1.1644 0.6376 0.3108
H52 H 1.1416 0.6294 0.3530
H53 H 1.2145 0.5912 0.3290
C52 C 1.4850(3) 0.61551(9) 0.43915(7)
H59 H 1.4718 0.5821 0.4353
C56 C 1.3453(3) 0.72072(9) 0.38191(7)
H66 H 1.2481 0.7249 0.3888
H67 H 1.3866 0.7514 0.3799
C57 C 1.3896(3) 0.64171(8) 0.41214(6)
C65 C 1.3970(4) 0.72205(10) 0.45035(8)
C68 C 1.8650(3) 0.57817(11) 0.25631(9)
H80 H 1.8585 0.5535 0.2727
C69 C 1.2553(4) 0.71769(13) 0.46946(10)
H81 H 1.1819 0.7225 0.4519
H82 H 1.2485 0.7406 0.4886
H83 H 1.2466 0.6873 0.4799
C71 C 1.9747(4) 0.58770(14) 0.23509(11)
H85 H 2.0579 0.5710 0.2347
C73 C 1.4659(4) 0.62587(11) 0.47982(7)
H89 H 1.3667 0.6286 0.4850
H90 H 1.5017 0.5999 0.4940
C77 C 1.4260(5) 0.77420(12) 0.44472(10)
H98 H 1.5136 0.7781 0.4322
H99 H 1.4301 0.7894 0.4682
H100 H 1.3524 0.7876 0.4303
O30 O 1.9467(3) 0.62538(12) 0.21420(10)
C80 C 1.8708(4) 0.61646(16) 0.42791(11)
H107 H 1.8977 0.6407 0.4446
H108 H 1.8658 0.6287 0.4034
H109 H 1.9386 0.5919 0.4287
O31 O 1.6214(4) 0.66877(12) 0.51648(10)
C86 C 1.7305(3) 0.59786(13) 0.43879(9)
C89 C 1.8151(4) 0.63930(15) 0.22368(12)
H116 H 1.7693 0.6647 0.2134
C90 C 1.5381(5) 0.66959(13) 0.49227(9)
C99 C 1.8438(5) 0.45877(12) 0.35558(12)
H136 H 1.9134 0.4362 0.3472
C100 C 1.9359(7) 0.5035(2) 0.3630(2)
H137 H 1.9726 0.5148 0.3398
H138 H 1.8772 0.5276 0.3734
C101 C 2.0536(9) 0.4941(3) 0.3883(3)
H139 H 2.1074 0.4684 0.3792
H140 H 2.0177 0.4867 0.4123
H141 H 2.1122 0.5211 0.3899
C102 C 1.7768(7) 0.4348(2) 0.38487(17)
H142 H 1.7011 0.4533 0.3941
H143 H 1.8430 0.4292 0.4042
H144 H 1.7411 0.4057 0.3760
O5 O 0.65773(18) 1.20777(5) 0.34292(5)
O6 O 0.6975(2) 1.09483(6) 0.31648(5)
H2 H 0.6395 1.0778 0.3262
O7 O 0.51254(19) 1.36917(5) 0.33516(5)
O16 O 0.5018(2) 1.15072(6) 0.35357(6)
O19 O 0.3447(2) 1.27966(8) 0.27910(6)
H8 H 0.3396 1.2738 0.2571
O20 O 0.65262(19) 1.30758(7) 0.44689(5)
O21 O 0.3903(3) 1.22248(7) 0.39583(7)
H10 H 0.4049 1.1962 0.3881
O24 O 0.5442(3) 1.39882(7) 0.48554(6)
C13 C 0.5489(3) 1.24351(8) 0.34456(7)
H20 H 0.4677 1.2325 0.3306
C16 C 0.4273(3) 1.32038(10) 0.28444(8)
H23 H 0.3755 1.3487 0.2782
C17 C 0.6390(3) 1.27716(9) 0.28253(7)
H24 H 0.5912 1.2482 0.2759
C19 C 0.4793(3) 1.32093(8) 0.32425(7)
C25 C 0.6198(3) 1.16343(8) 0.34673(7)
C27 C 0.3709(3) 1.31863(9) 0.35615(7)
C33 C 0.4609(3) 1.30315(8) 0.38926(7)
H36 H 0.5495 1.3192 0.3847
C35 C 0.6088(3) 1.28677(8) 0.32498(7)
C36 C 0.5024(3) 1.25220(8) 0.38508(7)
H40 H 0.5824 1.2461 0.4012
C39 C 0.7880(3) 1.27276(10) 0.27068(8)
C41 C 0.4166(3) 1.32283(8) 0.42755(7)
C43 C 0.4322(4) 1.40821(10) 0.45855(8)
C44 C 0.7410(3) 1.30590(9) 0.34304(7)
H45 H 0.7223 1.3127 0.3684
H46 H 0.7693 1.3338 0.3307
H47 H 0.8144 1.2833 0.3414
C48 C 0.3759(3) 1.39779(9) 0.39062(8)
H54 H 0.2789 1.4030 0.3972
H55 H 0.4173 1.4280 0.3862
C50 C 0.5081(3) 1.29967(9) 0.45708(7)
H57 H 0.4906 1.2662 0.4563
C51 C 0.7396(3) 1.12999(8) 0.34193(7)
H58 H 0.8199 1.1468 0.3317
C54 C 0.4505(3) 1.37616(8) 0.42440(7)
H63 H 0.5504 1.3776 0.4185
C62 C 0.8801(4) 1.23517(13) 0.27425(10)
H72 H 0.8587 1.2070 0.2854
C63 C 0.7816(4) 1.10904(10) 0.37941(8)
H73 H 0.7031 1.0904 0.3884
C64 C 0.5626(3) 1.31681(10) 0.26336(7)
H74 H 0.6156 1.3454 0.2649
H75 H 0.5456 1.3096 0.2377
C67 C 0.2912(4) 1.40799(13) 0.47803(10)
H77 H 0.2184 1.4146 0.4606
H78 H 0.2909 1.4312 0.4969
H79 H 0.2753 1.3780 0.4888
O28 O 0.7160(3) 1.24071(10) 0.47426(9)
C70 C 0.3780(3) 1.37154(9) 0.35513(7)
H84 H 0.3051 1.3836 0.3388
O29 O 0.6394(3) 1.36386(10) 0.53203(8)
C75 C 0.2279(3) 1.29682(11) 0.34961(9)
H92 H 0.1911 1.3075 0.3265
H93 H 0.1656 1.3056 0.3691
H94 H 0.2370 1.2636 0.3491
C78 C 0.2624(3) 1.31082(10) 0.43677(8)
H101 H 0.2014 1.3325 0.4248
H102 H 0.2486 1.3125 0.4629
H103 H 0.2417 1.2800 0.4284
C79 C 0.4690(5) 1.45879(10) 0.44888(10)
H104 H 0.5545 1.4595 0.4351
H105 H 0.4804 1.4764 0.4711
H106 H 0.3950 1.4721 0.4345
C81 C 0.7475(4) 1.27612(14) 0.45889(11)
C82 C 0.5609(4) 1.36084(12) 0.50599(8)
C83 C 1.0028(4) 1.24602(18) 0.25926(14)
H110 H 1.0811 1.2269 0.2585
C84 C 0.4919(3) 1.31589(10) 0.49666(7)
H111 H 0.3928 1.3187 0.5020
H112 H 0.5294 1.2921 0.5127
O33 O 0.9945(4) 1.28996(14) 0.24512(14)
C88 C 0.9076(4) 1.07702(11) 0.37481(10)
H114 H 0.8926 1.0568 0.3538
H115 H 0.9905 1.0955 0.3700
C91 C 0.8084(6) 1.14822(14) 0.40737(11)
H117 H 0.8449 1.1352 0.4297
H118 H 0.7223 1.1641 0.4125
H119 H 0.8748 1.1698 0.3973
C92 C 0.8941(4) 1.2924(2) 0.45022(16)
H120 H 0.8969 1.3257 0.4507
H121 H 0.9205 1.2816 0.4262
H122 H 0.9578 1.2803 0.4682
C93 C 0.9309(5) 1.04773(15) 0.40900(13)
H123 H 1.0058 1.0262 0.4047
H124 H 0.8470 1.0309 0.4147
H125 H 0.9548 1.0675 0.4293
C94 C 0.8625(5) 1.30477(18) 0.25261(18)
H126 H 0.8281 1.3338 0.2460
C103? C 1.9613(12) 0.4015(4) 0.4001(3)
C104? C 1.8438(5) 0.45877(12) 0.35558(12)
C105? C 1.8363(11) 0.4967(3) 0.3828(2)
C106? C 1.9347(9) 0.4235(3) 0.3620(2)
H145? H 1.9874 0.4253 0.4173
H146? H 2.0353 0.3791 0.3983
H147? H 1.8776 0.3865 0.4085
H148? H 1.7665 0.4420 0.3672
H149? H 1.8939 0.4891 0.4036
H150? H 1.8689 0.5250 0.3718
H151? H 1.7412 0.5005 0.3907
H152? H 2.0250 0.4341 0.3532
H153? H 1.9066 0.3983 0.3460
loop_
_geom_bond_atom_site_label_1
_geom_bond_atom_site_label_2
_geom_bond_site_symmetry_1
_geom_bond_site_symmetry_2
O1 C9 1_555 1_555
O2 C1 1_555 1_555
O3 C7 1_555 1_555
O4 H1 1_555 1_555
O5 C13 1_555 1_555
O6 H2 1_555 1_555
O7 C19 1_555 1_555
O8 C15 1_555 1_555
O9 C40 1_555 1_555
O10 C28 1_555 1_555
O11 C1 1_555 1_555
O12 H3 1_555 1_555
O13 C52 1_555 1_555
O14 H4 1_555 1_555
O15 H5 1_555 1_555
O16 C25 1_555 1_555
O17 H6 1_555 1_555
O18 H7 1_555 1_555
O19 H8 1_555 1_555
O20 C50 1_555 1_555
C1 C20 1_555 1_555
C2 O2 1_555 1_555
H9 C2 1_555 1_555
O21 H10 1_555 1_555
C3 H11 1_555 1_555
O22 C65 1_555 1_555
C4 H12 1_555 1_555
H13 C4 1_555 1_555
H14 C4 1_555 1_555
C5 H15 1_555 1_555
C6 C3 1_555 1_555
O23 C58 1_555 1_555
C7 C6 1_555 1_555
O24 C43 1_555 1_555
C8 O3 1_555 1_555
H16 C8 1_555 1_555
C9 H17 1_555 1_555
C10 O15 1_555 1_555
H18 C10 1_555 1_555
C11 O17 1_555 1_555
H19 C11 1_555 1_555
C12 C5 1_555 1_555
C13 H20 1_555 1_555
C14 H21 1_555 1_555
C15 H22 1_555 1_555
C16 O19 1_555 1_555
H23 C16 1_555 1_555
C17 H24 1_555 1_555
C18 O14 1_555 1_555
H25 C18 1_555 1_555
C19 C16 1_555 1_555
C20 O4 1_555 1_555
H26 C20 1_555 1_555
O25 C40 1_555 1_555
C21 C5 1_555 1_555
H27 C21 1_555 1_555
H28 C21 1_555 1_555
C22 C14 1_555 1_555
C23 H29 1_555 1_555
H30 C23 1_555 1_555
H31 C23 1_555 1_555
C24 C2 1_555 1_555
C25 O5 1_555 1_555
C26 C10 1_555 1_555
H32 C26 1_555 1_555
H33 C26 1_555 1_555
C27 C19 1_555 1_555
C28 O1 1_555 1_555
C29 C4 1_555 1_555
C30 O18 1_555 1_555
H34 C30 1_555 1_555
C31 H35 1_555 1_555
C32 O8 1_555 1_555
O26 C86 1_555 1_555
C33 C27 1_555 1_555
H36 C33 1_555 1_555
C34 H37 1_555 1_555
H38 C34 1_555 1_555
H39 C34 1_555 1_555
C35 C13 1_555 1_555
C36 O21 1_555 1_555
H40 C36 1_555 1_555
C37 H41 1_555 1_555
H42 C37 1_555 1_555
H43 C37 1_555 1_555
C38 C15 1_555 1_555
C39 C17 1_555 1_555
C40 C76 1_555 1_555
C41 C33 1_555 1_555
C42 O12 1_555 1_555
H44 C42 1_555 1_555
C43 C54 1_555 1_555
C44 C35 1_555 1_555
H45 C44 1_555 1_555
H46 C44 1_555 1_555
H47 C44 1_555 1_555
C45 C15 1_555 1_555
H48 C45 1_555 1_555
H49 C45 1_555 1_555
C46 H50 1_555 1_555
C47 C6 1_555 1_555
H51 C47 1_555 1_555
H52 C47 1_555 1_555
H53 C47 1_555 1_555
C48 H54 1_555 1_555
H55 C48 1_555 1_555
C49 C45 1_555 1_555
H56 C49 1_555 1_555
C50 C41 1_555 1_555
H57 C50 1_555 1_555
C51 O6 1_555 1_555
H58 C51 1_555 1_555
C52 H59 1_555 1_555
C53 C38 1_555 1_555
H60 C53 1_555 1_555
H61 C53 1_555 1_555
H62 C53 1_555 1_555
O27 C74 1_555 1_555
C54 C41 1_555 1_555
H63 C54 1_555 1_555
C55 H64 1_555 1_555
H65 C55 1_555 1_555
C56 C8 1_555 1_555
H66 C56 1_555 1_555
H67 C56 1_555 1_555
C57 C3 1_555 1_555
C58 C49 1_555 1_555
C59 C31 1_555 1_555
C60 O9 1_555 1_555
H68 C60 1_555 1_555
C61 C58 1_555 1_555
H69 C61 1_555 1_555
H70 C61 1_555 1_555
H71 C61 1_555 1_555
C62 C39 1_555 1_555
H72 C62 1_555 1_555
C63 C51 1_555 1_555
H73 C63 1_555 1_555
C64 C16 1_555 1_555
H74 C64 1_555 1_555
H75 C64 1_555 1_555
C65 C46 1_555 1_555
C66 C12 1_555 1_555
H76 C66 1_555 1_555
C67 C43 1_555 1_555
H77 C67 1_555 1_555
H78 C67 1_555 1_555
H79 C67 1_555 1_555
O28 C81 1_555 1_555
C68 C22 1_555 1_555
H80 C68 1_555 1_555
C69 C65 1_555 1_555
H81 C69 1_555 1_555
H82 C69 1_555 1_555
H83 C69 1_555 1_555
C70 O7 1_555 1_555
H84 C70 1_555 1_555
O29 C82 1_555 1_555
C71 C68 1_555 1_555
H85 C71 1_555 1_555
C72 C58 1_555 1_555
H86 C72 1_555 1_555
H87 C72 1_555 1_555
H88 C72 1_555 1_555
C73 C52 1_555 1_555
H89 C73 1_555 1_555
H90 C73 1_555 1_555
C74 C66 1_555 1_555
H91 C74 1_555 1_555
C75 C27 1_555 1_555
H92 C75 1_555 1_555
H93 C75 1_555 1_555
H94 C75 1_555 1_555
C76 H95 1_555 1_555
H96 C76 1_555 1_555
H97 C76 1_555 1_555
C77 C65 1_555 1_555
H98 C77 1_555 1_555
H99 C77 1_555 1_555
H100 C77 1_555 1_555
O30 C71 1_555 1_555
C78 C41 1_555 1_555
H101 C78 1_555 1_555
H102 C78 1_555 1_555
H103 C78 1_555 1_555
C79 C43 1_555 1_555
H104 C79 1_555 1_555
H105 C79 1_555 1_555
H106 C79 1_555 1_555
C80 H107 1_555 1_555
H108 C80 1_555 1_555
H109 C80 1_555 1_555
O31 C90 1_555 1_555
C81 O20 1_555 1_555
C82 O24 1_555 1_555
C83 C62 1_555 1_555
H110 C83 1_555 1_555
C84 C50 1_555 1_555
H111 C84 1_555 1_555
H112 C84 1_555 1_555
C85 C12 1_555 1_555
H113 C85 1_555 1_555
O32 C87 1_555 1_555
C86 O13 1_555 1_555
O33 C83 1_555 1_555
C87 O23 1_555 1_555
C88 C63 1_555 1_555
H114 C88 1_555 1_555
H115 C88 1_555 1_555
C89 C22 1_555 1_555
H116 C89 1_555 1_555
C90 O22 1_555 1_555
C91 C63 1_555 1_555
H117 C91 1_555 1_555
H118 C91 1_555 1_555
H119 C91 1_555 1_555
C92 C81 1_555 1_555
H120 C92 1_555 1_555
H121 C92 1_555 1_555
H122 C92 1_555 1_555
C93 C88 1_555 1_555
H123 C93 1_555 1_555
H124 C93 1_555 1_555
H125 C93 1_555 1_555
C94 C39 1_555 1_555
H126 C94 1_555 1_555
C95 C18 1_555 1_555
H127 C95 1_555 1_555
C96 C95 1_555 1_555
H128 C96 1_555 1_555
H129 C96 1_555 1_555
H130 C96 1_555 1_555
C97 C95 1_555 1_555
H131 C97 1_555 1_555
H132 C97 1_555 1_555
C98 C97 1_555 1_555
H133 C98 1_555 1_555
H134 C98 1_555 1_555
H135 C98 1_555 1_555
C99 C20 1_555 1_555
H136 C99 1_555 1_555
C100 C99 1_555 1_555
H137 C100 1_555 1_555
H138 C100 1_555 1_555
C101 C100 1_555 1_555
H139 C101 1_555 1_555
H140 C101 1_555 1_555
H141 C101 1_555 1_555
C102 C99 1_555 1_555
H142 C102 1_555 1_555
H143 C102 1_555 1_555
H144 C102 1_555 1_555
C2 C30 1_555 1_555
C3 C30 1_555 1_555
C5 C29 1_555 1_555
C6 C8 1_555 1_555
C7 C10 1_555 1_555
C7 C24 1_555 1_555
C9 C29 1_555 1_555
C9 C42 1_555 1_555
C11 C21 1_555 1_555
C11 C32 1_555 1_555
C13 C36 1_555 1_555
C14 C24 1_555 1_555
C14 C26 1_555 1_555
C17 C35 1_555 1_555
C17 C64 1_555 1_555
C18 C28 1_555 1_555
C19 C35 1_555 1_555
C23 C24 1_555 1_555
C25 C51 1_555 1_555
C27 C70 1_555 1_555
C29 C32 1_555 1_555
C31 C38 1_555 1_555
C31 C42 1_555 1_555
C32 C38 1_555 1_555
C33 C36 1_555 1_555
C34 C59 1_555 1_555
C37 C57 1_555 1_555
C46 C56 1_555 1_555
C46 C57 1_555 1_555
C48 C54 1_555 1_555
C48 C70 1_555 1_555
C49 C59 1_555 1_555
C52 C57 1_555 1_555
O27 C85 1_555 1_555
C55 C60 1_555 1_555
C55 C87 1_555 1_555
C59 C60 1_555 1_555
C73 C90 1_555 1_555
O30 C89 1_555 1_555
C80 C86 1_555 1_555
C82 C84 1_555 1_555
O33 C94 1_555 1_555

#END
