
#######################################################################
#
#                 Cambridge Crystallographic Data Centre
#                                CCDC 
#
#######################################################################
#
# If this CIF has been generated from an entry in the Cambridge 
# Structural Database, then it will include bibliographic, chemical, 
# crystal, experimental, refinement or atomic coordinate data resulting 
# from the CCDC's data processing and validation procedures.
#
#######################################################################

data_KEFQIY
_chemical_formula_moiety         'C3 N9 O10 1-,H2 O1,K1 1+'
_chemical_name_systematic        
'potassium 3-nitro-5-(nitroimino)-1-(trinitromethyl)-1,5-dihydro-1,2,4-triazol-4-ide monohydrate'
_symmetry_cell_setting           monoclinic
_symmetry_space_group_name_H-M   'P 21'
_symmetry_Int_Tables_number      4
_space_group_name_Hall           'P 2yb'
loop_
_symmetry_equiv_pos_site_id
_symmetry_equiv_pos_as_xyz
1 x,y,z
2 -x,1/2+y,-z
_cell_length_a                   7.45940(10)
_cell_length_b                   7.8789(2)
_cell_length_c                   10.4774(2)
_cell_angle_alpha                90
_cell_angle_beta                 90.7450(10)
_cell_angle_gamma                90
_cell_volume                     615.724
_exptl_crystal_colour            colorless
_exptl_crystal_description       block
_cell_formula_units_Z            2
loop_
_atom_site_label
_atom_site_type_symbol
_atom_site_fract_x
_atom_site_fract_y
_atom_site_fract_z
O1 O 0.2885(2) 0.2479(3) 0.11153(19)
O2 O 0.2715(2) 0.0534(3) 0.25757(18)
O3 O 0.1467(2) 0.8419(2) 0.03383(19)
O4 O -0.0882(2) 0.9457(2) 0.12688(19)
O5 O -0.3566(2) 0.6305(3) 0.4709(2)
O6 O -0.5295(2) 0.4628(3) 0.3584(2)
O7 O 0.0119(3) 0.4122(3) 0.5251(2)
O8 O -0.2331(3) 0.2799(3) 0.57502(19)
O9 O -0.3236(2) 0.2628(3) 0.19165(19)
O10 O -0.2997(2) 0.1086(2) 0.3628(2)
N1 N 0.2230(2) 0.1909(3) 0.2116(2)
N2 N 0.0926(3) 0.2692(3) 0.2757(2)
N3 N 0.1184(2) 0.5467(3) 0.16390(19)
N4 N 0.0204(3) 0.8322(3) 0.1069(2)
N5 N -0.1399(3) 0.6528(3) 0.2490(2)
N6 N -0.1047(3) 0.4921(3) 0.2934(2)
N7 N -0.1363(3) 0.3587(3) 0.5047(2)
N8 N -0.3877(3) 0.5095(3) 0.4035(2)
N9 N -0.2870(2) 0.2383(3) 0.3041(2)
C1 C 0.0504(3) 0.4278(3) 0.2387(2)
C2 C -0.0014(3) 0.6730(3) 0.1756(2)
C3 C -0.2208(3) 0.4022(3) 0.3727(3)
O11 O 0.5206(2) 0.8145(3) 0.1703(2)
H1 H 0.447(4) 0.863(4) 0.214(3)
H2 H 0.609(4) 0.809(5) 0.217(3)
K1 K 0.56980(7) 1.05177(7) -0.01961(6)
loop_
_geom_bond_atom_site_label_1
_geom_bond_atom_site_label_2
_geom_bond_site_symmetry_1
_geom_bond_site_symmetry_2
O1 N1 1_555 1_555
O2 N1 1_555 1_555
O3 N4 1_555 1_555
O4 N4 1_555 1_555
O5 N8 1_555 1_555
O6 N8 1_555 1_555
O7 N7 1_555 1_555
O8 N7 1_555 1_555
O9 N9 1_555 1_555
O10 N9 1_555 1_555
N1 N2 1_555 1_555
N2 C1 1_555 1_555
N3 C1 1_555 1_555
N4 C2 1_555 1_555
N5 N6 1_555 1_555
N6 C1 1_555 1_555
N7 C3 1_555 1_555
N8 C3 1_555 1_555
N9 C3 1_555 1_555
C2 N3 1_555 1_555
C3 N6 1_555 1_555
O11 H1 1_555 1_555
H2 O11 1_555 1_555
N5 C2 1_555 1_555

#END
