
#######################################################################
#
#                 Cambridge Crystallographic Data Centre
#                                CCDC 
#
#######################################################################
#
# If this CIF has been generated from an entry in the Cambridge 
# Structural Database, then it will include bibliographic, chemical, 
# crystal, experimental, refinement or atomic coordinate data resulting 
# from the CCDC's data processing and validation procedures.
#
#######################################################################

data_KEFQUK
_chemical_formula_moiety         'C3 N9 O10 1-,H5 N2 1+,H2 O1'
_chemical_name_systematic        
'hydrazinium 3-nitro-5-(nitroimino)-1-(trinitromethyl)-1,5-dihydro-1,2,4-triazol-4-ide monohydrate'
_symmetry_cell_setting           monoclinic
_symmetry_space_group_name_H-M   'P 21'
_symmetry_Int_Tables_number      4
_space_group_name_Hall           'P 2yb'
loop_
_symmetry_equiv_pos_site_id
_symmetry_equiv_pos_as_xyz
1 x,y,z
2 -x,1/2+y,-z
_cell_length_a                   8.2280(4)
_cell_length_b                   7.3357(3)
_cell_length_c                   11.3167(5)
_cell_angle_alpha                90
_cell_angle_beta                 94.923(3)
_cell_angle_gamma                90
_cell_volume                     680.535
_exptl_crystal_colour            colorless
_exptl_crystal_description       block
_cell_formula_units_Z            2
loop_
_atom_site_label
_atom_site_type_symbol
_atom_site_fract_x
_atom_site_fract_y
_atom_site_fract_z
O1 O 0.1718(3) 0.2560(4) 0.5112(2)
O2 O 0.0222(3) 0.4166(4) 0.6211(3)
O3 O 0.5008(3) 0.4988(4) 0.48172(19)
O4 O 0.2750(4) 0.6410(3) 0.43071(18)
O5 O 0.3992(3) -0.0574(3) 0.8812(2)
O6 O 0.6186(3) 0.0526(3) 0.97226(18)
O7 O 0.2106(3) 0.8058(3) 0.62512(19)
O8 O 0.2161(3) 0.6385(3) 0.78236(17)
O9 O 0.7382(3) 0.8795(3) 0.7478(2)
O10 O 0.7972(3) 0.6439(3) 0.8548(2)
N1 N 0.1472(3) 0.3783(3) 0.5780(2)
N2 N 0.3671(3) 0.5518(3) 0.49702(18)
N3 N 0.2341(3) 0.6674(3) 0.67893(19)
N4 N 0.4080(3) 0.3992(3) 0.69161(18)
N5 N 0.3686(3) 0.2356(3) 0.74094(18)
N6 N 0.5043(3) 0.0578(3) 0.89601(19)
N7 N 0.6088(3) 0.3485(3) 0.82933(17)
N8 N 0.5876(3) 0.6386(3) 0.71557(19)
N9 N 0.7132(3) 0.7194(3) 0.7753(2)
C1 C 0.2967(3) 0.4968(4) 0.6146(2)
C2 C 0.5502(3) 0.4698(4) 0.7493(2)
C3 C 0.4932(3) 0.2169(3) 0.8189(2)
O11 O 1.0390(2) 1.0594(3) 0.80338(18)
H1 H 1.1049 1.0637 0.7496
H2 H 0.9484 1.0155 0.7747
N10 N 1.0918(3) 0.8173(3) 1.0019(2)
H3 H 1.082(4) 0.694(5) 0.991(3)
H4 H 1.108(4) 0.870(5) 0.929(3)
H5 H 1.182(4) 0.848(4) 1.056(3)
N11 N 0.9495(3) 0.9038(4) 1.0425(2)
H6 H 0.953(5) 0.871(5) 1.116(4)
H7 H 0.868(5) 0.855(5) 1.003(3)
loop_
_geom_bond_atom_site_label_1
_geom_bond_atom_site_label_2
_geom_bond_site_symmetry_1
_geom_bond_site_symmetry_2
O1 N1 1_555 1_555
O2 N1 1_555 1_555
O3 N2 1_555 1_555
O4 N2 1_555 1_555
O5 N6 1_555 1_555
O6 N6 1_555 1_555
O7 N3 1_555 1_555
O8 N3 1_555 1_555
O9 N9 1_555 1_555
O10 N9 1_555 1_555
N1 C1 1_555 1_555
N2 C1 1_555 1_555
N3 C1 1_555 1_555
N4 N5 1_555 1_555
N5 C3 1_555 1_555
N6 C3 1_555 1_555
N7 C2 1_555 1_555
N8 N9 1_555 1_555
C1 N4 1_555 1_555
C2 N4 1_555 1_555
C3 N7 1_555 1_555
O11 H1 1_555 1_555
H2 O11 1_555 1_555
N10 H3 1_555 1_555
H4 N10 1_555 1_555
H5 N10 1_555 1_555
N11 N10 1_555 1_555
H6 N11 1_555 1_555
H7 N11 1_555 1_555
N8 C2 1_555 1_555

#END
