
#######################################################################
#
#                 Cambridge Crystallographic Data Centre
#                                CCDC 
#
#######################################################################
#
# If this CIF has been generated from an entry in the Cambridge 
# Structural Database, then it will include bibliographic, chemical, 
# crystal, experimental, refinement or atomic coordinate data resulting 
# from the CCDC's data processing and validation procedures.
#
#######################################################################

data_KEFVIC
_chemical_formula_moiety         'C33 H49 Li1 N2 O2'
_chemical_name_systematic        
(3,3-dimethyl-7-isopropyl-2-(2,6-di-isopropylphenylimido)-3H-indol-1-yl)-bis(tetrahydrofuran)-lithium
_symmetry_cell_setting           monoclinic
_symmetry_space_group_name_H-M   'P 21/m'
_symmetry_Int_Tables_number      11
_space_group_name_Hall           '-P 2yb'
loop_
_symmetry_equiv_pos_site_id
_symmetry_equiv_pos_as_xyz
1 x,y,z
2 -x,1/2+y,-z
3 -x,-y,-z
4 x,1/2-y,z
_cell_length_a                   9.582(6)
_cell_length_b                   15.374(10)
_cell_length_c                   11.070(7)
_cell_angle_alpha                90
_cell_angle_beta                 92.958(9)
_cell_angle_gamma                90
_cell_volume                     1628.59
_exptl_crystal_colour            colorless
_exptl_crystal_description       plate
_cell_formula_units_Z            2
loop_
_atom_site_label
_atom_site_type_symbol
_atom_site_fract_x
_atom_site_fract_y
_atom_site_fract_z
Li1 Li 0.6981(5) 0.2500 0.5528(4)
N1 N 0.5045(2) 0.2500 0.61095(18)
N2 N 0.6928(2) 0.2500 0.74592(17)
C1 C 0.5557(2) 0.2500 0.7272(2)
C2 C 0.3590(3) 0.2500 0.6115(3)
C3 C 0.2659(3) 0.2500 0.5104(3)
C4 C 0.1232(4) 0.2500 0.5346(4)
H1 H 0.0578 0.2500 0.4695
C5 C 0.0757(4) 0.2500 0.6493(5)
H2 H -0.0199 0.2500 0.6604
C6 C 0.1692(3) 0.2500 0.7484(4)
H3 H 0.1375 0.2500 0.8264
C7 C 0.3111(3) 0.2500 0.7296(3)
C8 C 0.4358(3) 0.2500 0.8173(2)
C9 C 0.4383(3) 0.16818(16) 0.8974(2)
H4 H 0.5189 0.1698 0.9525
H5 H 0.4423 0.1173 0.8473
H6 H 0.3552 0.1663 0.9422
C10 C 0.3174(4) 0.2500 0.3837(3)
H7 H 0.4198 0.2500 0.3904
C11 C 0.2709(5) 0.1694(2) 0.3121(3)
H8 H 0.3059 0.1723 0.2324
H9 H 0.1706 0.1669 0.3060
H10 H 0.3068 0.1183 0.3526
C12 C 0.7650(3) 0.2500 0.8604(2)
C13 C 0.8103(2) 0.17074(13) 0.91387(17)
C14 C 0.8956(3) 0.17306(17) 1.0198(2)
H11 H 0.9246 0.1210 1.0558
C15 C 0.9377(4) 0.2500 1.0719(3)
H12 H 0.9947 0.2500 1.1425
C16 C 0.7767(2) 0.08373(13) 0.8536(2)
H13 H 0.7011 0.0933 0.7920
C17 C 0.7275(3) 0.01376(17) 0.9415(3)
H14 H 0.7081 -0.0392 0.8979
H15 H 0.6442 0.0334 0.9778
H16 H 0.7994 0.0036 1.0035
C18 C 0.9043(3) 0.05145(18) 0.7893(3)
H17 H 0.8831 -0.0034 0.7513
H18 H 0.9816 0.0445 0.8472
H19 H 0.9283 0.0930 0.7291
O1 O 0.7416(2) 0.14641(19) 0.45898(19)
C19 C 0.6337(9) 0.0658(3) 0.4878(6)
H20 H 0.6654 0.0354 0.5609
H21 H 0.5403 0.0879 0.4982
C20 C 0.6345(10) 0.0097(6) 0.3869(8)
H22 H 0.5555 0.0217 0.3311
H23 H 0.6297 -0.0505 0.4124
C21 C 0.7690(13) 0.0270(10) 0.3281(15)
H24 H 0.8304 -0.0230 0.3361
H25 H 0.7517 0.0396 0.2428
C22 C 0.8319(8) 0.1027(6) 0.3915(9)
H26 H 0.9101 0.0831 0.4436
H27 H 0.8680 0.1421 0.3323
C9C C 0.4383(3) 0.33182(16) 0.8974(2)
H4C H 0.5189 0.3302 0.9525
H5C H 0.4423 0.3827 0.8473
H6C H 0.3552 0.3337 0.9422
C11C C 0.2709(5) 0.3306(2) 0.3121(3)
H8C H 0.3059 0.3277 0.2324
H9C H 0.1706 0.3331 0.3060
H10C H 0.3068 0.3817 0.3526
C13C C 0.8103(2) 0.32926(13) 0.91387(17)
C14C C 0.8956(3) 0.32694(17) 1.0198(2)
H11C H 0.9246 0.3790 1.0558
C16C C 0.7767(2) 0.41627(13) 0.8536(2)
H13C H 0.7011 0.4067 0.7920
C17C C 0.7275(3) 0.48624(17) 0.9415(3)
H14C H 0.7081 0.5392 0.8979
H15C H 0.6442 0.4666 0.9778
H16C H 0.7994 0.4964 1.0035
C18C C 0.9043(3) 0.44855(18) 0.7893(3)
H17C H 0.8831 0.5034 0.7513
H18C H 0.9816 0.4555 0.8472
H19C H 0.9283 0.4070 0.7291
O1C O 0.7416(2) 0.35359(19) 0.45898(19)
C19C C 0.6337(9) 0.4342(3) 0.4878(6)
H20C H 0.6654 0.4646 0.5609
H21C H 0.5403 0.4121 0.4982
C20C C 0.6345(10) 0.4903(6) 0.3869(8)
H22C H 0.5555 0.4783 0.3311
H23C H 0.6297 0.5505 0.4124
C21C C 0.7690(13) 0.4730(10) 0.3281(15)
H24C H 0.8304 0.5230 0.3361
H25C H 0.7517 0.4604 0.2428
C22C C 0.8319(8) 0.3973(6) 0.3915(9)
H26C H 0.9101 0.4169 0.4436
H27C H 0.8680 0.3579 0.3323
C23? C 0.7811(17) 0.0729(7) 0.4928(10)
C24? C 0.755(2) 0.0079(8) 0.4003(10)
C25? C 0.694(2) 0.0645(8) 0.2956(11)
C26? C 0.7329(16) 0.1554(6) 0.3232(6)
H28? H 0.7331 0.0567 0.5645
H29? H 0.8805 0.0747 0.5144
H30? H 0.6878 -0.0352 0.4249
H31? H 0.8400 -0.0210 0.3792
H32? H 0.7317 0.0465 0.2199
H33? H 0.5930 0.0586 0.2883
H34? H 0.6614 0.1963 0.2951
H35? H 0.8219 0.1712 0.2914
loop_
_geom_bond_atom_site_label_1
_geom_bond_atom_site_label_2
_geom_bond_site_symmetry_1
_geom_bond_site_symmetry_2
Li1 N1 1_555 1_555
N1 C1 1_555 1_555
N2 Li1 1_555 1_555
C1 N2 1_555 1_555
C2 N1 1_555 1_555
C3 C2 1_555 1_555
C4 C3 1_555 1_555
H1 C4 1_555 1_555
C5 C4 1_555 1_555
H2 C5 1_555 1_555
C6 C5 1_555 1_555
H3 C6 1_555 1_555
C7 C2 1_555 1_555
C8 C1 1_555 1_555
C9 C8 1_555 1_555
H4 C9 1_555 1_555
H5 C9 1_555 1_555
H6 C9 1_555 1_555
C10 C3 1_555 1_555
H7 C10 1_555 1_555
C11 C10 1_555 1_555
H8 C11 1_555 1_555
H9 C11 1_555 1_555
H10 C11 1_555 1_555
C12 N2 1_555 1_555
C13 C12 1_555 1_555
C14 C13 1_555 1_555
H11 C14 1_555 1_555
C15 C14 1_555 1_555
H12 C15 1_555 1_555
C16 C13 1_555 1_555
H13 C16 1_555 1_555
C17 C16 1_555 1_555
H14 C17 1_555 1_555
H15 C17 1_555 1_555
H16 C17 1_555 1_555
C18 C16 1_555 1_555
H17 C18 1_555 1_555
H18 C18 1_555 1_555
H19 C18 1_555 1_555
O1 Li1 1_555 1_555
C19 O1 1_555 1_555
H20 C19 1_555 1_555
H21 C19 1_555 1_555
C20 C19 1_555 1_555
H22 C20 1_555 1_555
H23 C20 1_555 1_555
C21 C20 1_555 1_555
H24 C21 1_555 1_555
H25 C21 1_555 1_555
C22 O1 1_555 1_555
H26 C22 1_555 1_555
H27 C22 1_555 1_555
C9C C8 1_555 1_555
H4C C9C 1_555 1_555
H5C C9C 1_555 1_555
H6C C9C 1_555 1_555
C11C C10 1_555 1_555
H8C C11C 1_555 1_555
H9C C11C 1_555 1_555
H10C C11C 1_555 1_555
C13C C12 1_555 1_555
C14C C15 1_555 1_555
H11C C14C 1_555 1_555
C16C C13C 1_555 1_555
H13C C16C 1_555 1_555
C17C C16C 1_555 1_555
H14C C17C 1_555 1_555
H15C C17C 1_555 1_555
H16C C17C 1_555 1_555
C18C C16C 1_555 1_555
H17C C18C 1_555 1_555
H18C C18C 1_555 1_555
H19C C18C 1_555 1_555
O1C Li1 1_555 1_555
C19C O1C 1_555 1_555
H20C C19C 1_555 1_555
H21C C19C 1_555 1_555
C20C C19C 1_555 1_555
H22C C20C 1_555 1_555
H23C C20C 1_555 1_555
C21C C20C 1_555 1_555
H24C C21C 1_555 1_555
H25C C21C 1_555 1_555
C22C O1C 1_555 1_555
H26C C22C 1_555 1_555
H27C C22C 1_555 1_555
C6 C7 1_555 1_555
C7 C8 1_555 1_555
C21 C22 1_555 1_555
C13C C14C 1_555 1_555
C21C C22C 1_555 1_555

#END
