
#######################################################################
#
#                 Cambridge Crystallographic Data Centre
#                                CCDC 
#
#######################################################################
#
# If this CIF has been generated from an entry in the Cambridge 
# Structural Database, then it will include bibliographic, chemical, 
# crystal, experimental, refinement or atomic coordinate data resulting 
# from the CCDC's data processing and validation procedures.
#
#######################################################################

data_KEFVOI
_chemical_formula_moiety         'C33 H50 B1 Cl1 N3 1+,Cl1 1-,C1 H2 Cl2'
_chemical_name_systematic        
'N-((1,3-bis(2,6-diisopropylphenyl)-1,3-dihydro-2H-imidazol-2-ylidene)(chloro)-\l^5^-boranyl)-N-isopropylpropan-2-amine chloride dichloromethane solvate'
_symmetry_cell_setting           monoclinic
_symmetry_space_group_name_H-M   'P 21/n'
_symmetry_Int_Tables_number      14
_space_group_name_Hall           '-P 2yn'
loop_
_symmetry_equiv_pos_site_id
_symmetry_equiv_pos_as_xyz
1 x,y,z
2 1/2-x,1/2+y,1/2-z
3 -x,-y,-z
4 1/2+x,1/2-y,1/2+z
_cell_length_a                   10.7406(4)
_cell_length_b                   20.1889(8)
_cell_length_c                   17.6655(7)
_cell_angle_alpha                90
_cell_angle_beta                 94.6280(10)
_cell_angle_gamma                90
_cell_volume                     3818.11
_exptl_crystal_colour            'pale yellow'
_exptl_crystal_description       plate
_cell_formula_units_Z            4
loop_
_atom_site_label
_atom_site_type_symbol
_atom_site_fract_x
_atom_site_fract_y
_atom_site_fract_z
B1 B 0.8937(3) 0.20165(14) 0.19390(15)
Cl1 Cl 0.98769(7) 0.17193(3) 0.12215(4)
N1 N 0.89335(18) 0.09123(9) 0.27011(11)
N2 N 0.95320(18) 0.17431(9) 0.34071(10)
N3 N 0.81642(19) 0.25516(10) 0.18201(11)
C1 C 0.9100(2) 0.15757(11) 0.26923(12)
C2 C 0.9256(2) 0.06708(13) 0.34192(14)
H1 H 0.9215 0.0231 0.3572
C3 C 0.9639(2) 0.11830(12) 0.38553(14)
H2 H 0.9924 0.1166 0.4366
C4 C 0.9893(2) 0.24033(12) 0.36718(12)
C5 C 0.9164(3) 0.27136(13) 0.41952(14)
C6 C 0.9544(3) 0.33467(15) 0.44347(16)
H3 H 0.9090 0.3570 0.4782
C7 C 1.0563(3) 0.36458(15) 0.4173(2)
H4 H 1.0781 0.4072 0.4333
C8 C 1.1269(3) 0.33235(15) 0.36770(18)
H5 H 1.1965 0.3534 0.3507
C9 C 1.0966(3) 0.26873(13) 0.34213(15)
C10 C 1.1856(3) 0.23220(16) 0.29385(16)
H6 H 1.1434 0.1920 0.2741
C11 C 1.2235(4) 0.2719(2) 0.2270(2)
H7 H 1.1503 0.2848 0.1957
H8 H 1.2763 0.2454 0.1977
H9 H 1.2681 0.3108 0.2450
C12 C 1.3025(4) 0.2112(3) 0.3433(2)
H10 H 1.2784 0.1859 0.3857
H11 H 1.3475 0.2499 0.3614
H12 H 1.3548 0.1847 0.3138
C13 C 0.8055(3) 0.23876(15) 0.45290(15)
H13 H 0.7863 0.1976 0.4250
C14 C 0.6877(3) 0.2820(2) 0.4475(2)
H14 H 0.6649 0.2928 0.3953
H15 H 0.7037 0.3219 0.4761
H16 H 0.6205 0.2581 0.4679
C15 C 0.8403(4) 0.22110(19) 0.53616(17)
H17 H 0.9136 0.1938 0.5398
H18 H 0.7725 0.1975 0.5560
H19 H 0.8565 0.2609 0.5649
C16 C 0.8548(2) 0.05080(12) 0.20419(14)
C17 C 0.7283(3) 0.04949(13) 0.17811(16)
C18 C 0.6976(3) 0.01392(16) 0.11231(19)
H20 H 0.6147 0.0127 0.0925
C19 C 0.7855(4) -0.01931(17) 0.07586(19)
H21 H 0.7624 -0.0418 0.0310
C20 C 0.9074(3) -0.01991(15) 0.10472(19)
H22 H 0.9655 -0.0443 0.0801
C21 C 0.9461(3) 0.01516(13) 0.17004(16)
C22 C 1.0803(3) 0.01060(16) 0.20243(19)
H23 H 1.0943 0.0450 0.2413
C23 C 1.1032(4) -0.05687(18) 0.2409(2)
H24 H 1.0458 -0.0627 0.2793
H25 H 1.1873 -0.0587 0.2637
H26 H 1.0908 -0.0914 0.2036
C24 C 1.1738(4) 0.0215(2) 0.1425(3)
H27 H 1.1599 0.0642 0.1195
H28 H 1.1628 -0.0123 0.1043
H29 H 1.2573 0.0194 0.1663
C25 C 0.6279(3) 0.08109(16) 0.2208(2)
H30 H 0.6639 0.1203 0.2470
C26 C 0.5891(5) 0.0328(3) 0.2810(3)
H31 H 0.6616 0.0191 0.3125
H32 H 0.5500 -0.0053 0.2567
H33 H 0.5313 0.0541 0.3118
C27 C 0.5141(3) 0.1034(2) 0.1703(3)
H34 H 0.5398 0.1338 0.1327
H35 H 0.4560 0.1249 0.2007
H36 H 0.4749 0.0656 0.1455
C28 C 0.7947(3) 0.29154(14) 0.10767(14)
H37 H 0.7324 0.3257 0.1159
C29 C 0.9095(3) 0.32833(17) 0.08570(19)
H38 H 0.8905 0.3506 0.0382
H39 H 0.9763 0.2974 0.0808
H40 H 0.9345 0.3602 0.1243
C30 C 0.7360(4) 0.2475(2) 0.04586(18)
H41 H 0.6635 0.2263 0.0633
H42 H 0.7951 0.2144 0.0332
H43 H 0.7120 0.2737 0.0017
C31 C 0.7427(2) 0.28276(13) 0.24240(14)
H44 H 0.7626 0.2564 0.2884
C32 C 0.6026(3) 0.27737(16) 0.22247(18)
H45 H 0.5810 0.2321 0.2114
H46 H 0.5794 0.3043 0.1788
H47 H 0.5590 0.2924 0.2646
C33 C 0.7808(3) 0.35395(14) 0.26093(17)
H48 H 0.8695 0.3560 0.2732
H49 H 0.7384 0.3691 0.3035
H50 H 0.7586 0.3816 0.2178
Cl2 Cl 0.93048(7) -0.08485(3) 0.42443(4)
C34 C 0.2398(4) -0.0172(2) 0.4640(3)
H51 H 0.2058 0.0098 0.5028
H52 H 0.1723 -0.0441 0.4407
Cl3 Cl 0.29333(16) 0.03480(12) 0.39511(10)
Cl4 Cl 0.35210(16) -0.06908(10) 0.50705(14)
loop_
_geom_bond_atom_site_label_1
_geom_bond_atom_site_label_2
_geom_bond_site_symmetry_1
_geom_bond_site_symmetry_2
B1 Cl1 1_555 1_555
N1 C1 1_555 1_555
N2 C1 1_555 1_555
N3 B1 1_555 1_555
C1 B1 1_555 1_555
C2 N1 1_555 1_555
H1 C2 1_555 1_555
C3 N2 1_555 1_555
H2 C3 1_555 1_555
C4 N2 1_555 1_555
C5 C4 1_555 1_555
C6 C5 1_555 1_555
H3 C6 1_555 1_555
C7 C6 1_555 1_555
H4 C7 1_555 1_555
C8 C7 1_555 1_555
H5 C8 1_555 1_555
C9 C4 1_555 1_555
C10 C9 1_555 1_555
H6 C10 1_555 1_555
C11 C10 1_555 1_555
H7 C11 1_555 1_555
H8 C11 1_555 1_555
H9 C11 1_555 1_555
C12 C10 1_555 1_555
H10 C12 1_555 1_555
H11 C12 1_555 1_555
H12 C12 1_555 1_555
C13 C5 1_555 1_555
H13 C13 1_555 1_555
C14 C13 1_555 1_555
H14 C14 1_555 1_555
H15 C14 1_555 1_555
H16 C14 1_555 1_555
C15 C13 1_555 1_555
H17 C15 1_555 1_555
H18 C15 1_555 1_555
H19 C15 1_555 1_555
C16 N1 1_555 1_555
C17 C16 1_555 1_555
C18 C17 1_555 1_555
H20 C18 1_555 1_555
C19 C18 1_555 1_555
H21 C19 1_555 1_555
C20 C19 1_555 1_555
H22 C20 1_555 1_555
C21 C16 1_555 1_555
C22 C21 1_555 1_555
H23 C22 1_555 1_555
C23 C22 1_555 1_555
H24 C23 1_555 1_555
H25 C23 1_555 1_555
H26 C23 1_555 1_555
C24 C22 1_555 1_555
H27 C24 1_555 1_555
H28 C24 1_555 1_555
H29 C24 1_555 1_555
C25 C17 1_555 1_555
H30 C25 1_555 1_555
C26 C25 1_555 1_555
H31 C26 1_555 1_555
H32 C26 1_555 1_555
H33 C26 1_555 1_555
C27 C25 1_555 1_555
H34 C27 1_555 1_555
H35 C27 1_555 1_555
H36 C27 1_555 1_555
C28 N3 1_555 1_555
H37 C28 1_555 1_555
C29 C28 1_555 1_555
H38 C29 1_555 1_555
H39 C29 1_555 1_555
H40 C29 1_555 1_555
C30 C28 1_555 1_555
H41 C30 1_555 1_555
H42 C30 1_555 1_555
H43 C30 1_555 1_555
C31 N3 1_555 1_555
H44 C31 1_555 1_555
C32 C31 1_555 1_555
H45 C32 1_555 1_555
H46 C32 1_555 1_555
H47 C32 1_555 1_555
C33 C31 1_555 1_555
H48 C33 1_555 1_555
H49 C33 1_555 1_555
H50 C33 1_555 1_555
C34 H51 1_555 1_555
H52 C34 1_555 1_555
Cl3 C34 1_555 1_555
Cl4 C34 1_555 1_555
C2 C3 1_555 1_555
C8 C9 1_555 1_555
C20 C21 1_555 1_555

#END
