
#######################################################################
#
#                 Cambridge Crystallographic Data Centre
#                                CCDC 
#
#######################################################################
#
# If this CIF has been generated from an entry in the Cambridge 
# Structural Database, then it will include bibliographic, chemical, 
# crystal, experimental, refinement or atomic coordinate data resulting 
# from the CCDC's data processing and validation procedures.
#
#######################################################################

data_KEFYUS
_chemical_formula_moiety         'C28 H26 Cl1 N1 O3 S1'
_chemical_name_systematic        
'ethyl 1-benzyl-4-[(4-chlorophenyl)methyl]-2-methyl-5-oxo-4-(phenylsulfanyl)-4,5-dihydro-1H-pyrrole-3-carboxylate'
_symmetry_cell_setting           orthorhombic
_symmetry_space_group_name_H-M   'P 21 21 21'
_symmetry_Int_Tables_number      19
_space_group_name_Hall           'P 2ac 2ab'
loop_
_symmetry_equiv_pos_site_id
_symmetry_equiv_pos_as_xyz
1 x,y,z
2 1/2+x,1/2-y,-z
3 -x,1/2+y,1/2-z
4 1/2-x,-y,1/2+z
_cell_length_a                   8.373(4)
_cell_length_b                   11.816(5)
_cell_length_c                   25.567(12)
_cell_angle_alpha                90
_cell_angle_beta                 90
_cell_angle_gamma                90
_cell_volume                     2529.48
_exptl_crystal_colour            colorless
_exptl_crystal_description       Block
_cell_formula_units_Z            4
loop_
_atom_site_label
_atom_site_type_symbol
_atom_site_fract_x
_atom_site_fract_y
_atom_site_fract_z
Cl1 Cl 0.54578(12) 0.91599(9) 0.24180(4)
S1 S 0.88490(10) 0.41240(8) 0.02815(3)
O1 O 0.9065(3) 0.68849(19) 0.02059(8)
O2 O 1.0577(4) 0.3542(2) 0.18481(11)
O3 O 0.8096(3) 0.3511(2) 0.15268(10)
N1 N 1.0784(3) 0.6524(2) 0.08833(9)
C1 C 1.4144(5) 0.4123(4) -0.00671(17)
H1 H 1.5231 0.4120 -0.0143
C2 C 1.3569(5) 0.3455(4) 0.03267(16)
H2 H 1.4266 0.3008 0.0520
C3 C 1.1942(5) 0.3443(3) 0.04383(14)
H3 H 1.1543 0.2980 0.0702
C4 C 1.0932(4) 0.4126(3) 0.01535(11)
C5 C 0.8706(4) 0.5240(2) 0.07849(11)
C6 C 0.9484(4) 0.6313(3) 0.05751(12)
C7 C 1.1818(4) 0.7490(3) 0.07948(14)
H4 H 1.1714 0.7721 0.0432
H5 H 1.2915 0.7254 0.0849
C8 C 1.1488(4) 0.8501(3) 0.11396(13)
C9 C 1.0504(5) 0.8466(3) 0.15733(14)
H6 H 0.9967 0.7800 0.1655
C10 C 1.0307(6) 0.9409(4) 0.18873(18)
H7 H 0.9628 0.9378 0.2175
C11 C 1.1113(7) 1.0388(4) 0.1774(3)
H8 H 1.1021 1.1015 0.1992
C12 C 0.5944(4) 0.8092(3) 0.19774(12)
C13 C 0.5882(4) 0.8317(3) 0.14482(13)
H9 H 0.5619 0.9038 0.1330
C14 C 0.6215(4) 0.7466(3) 0.10958(12)
H10 H 0.6177 0.7619 0.0739
C15 C 0.6605(3) 0.6386(3) 0.12640(12)
C16 C 0.6680(4) 0.6193(3) 0.18013(13)
H11 H 0.6952 0.5477 0.1923
C17 C 0.6359(4) 0.7040(3) 0.21573(13)
H12 H 0.6424 0.6900 0.2515
C18 C 0.6920(4) 0.5457(3) 0.08727(13)
H13 H 0.6430 0.5659 0.0542
H14 H 0.6421 0.4765 0.0994
C19 C 1.3141(5) 0.4792(4) -0.03498(17)
H15 H 1.3541 0.5247 -0.0616
C20 C 1.1544(4) 0.4794(3) -0.02402(14)
H16 H 1.0862 0.5253 -0.0434
C21 C 0.9727(4) 0.4960(3) 0.12481(11)
C22 C 1.0940(3) 0.5707(3) 0.12751(11)
C23 C 1.2247(5) 0.9508(4) 0.1023(2)
H17 H 1.2895 0.9555 0.0729
C24 C 1.2059(6) 1.0434(4) 0.1335(3)
H18 H 1.2577 1.1105 0.1250
C25 C 1.2331(4) 0.5747(4) 0.16334(14)
H19 H 1.2127 0.5276 0.1932
H20 H 1.2502 0.6512 0.1746
H21 H 1.3264 0.5478 0.1454
C26 C 0.9566(5) 0.3950(3) 0.15751(13)
C27 C 0.7754(6) 0.2460(4) 0.1798(2)
H22 H 0.7597 0.2600 0.2169
H23 H 0.8632 0.1932 0.1757
C28 C 0.6278(7) 0.1991(4) 0.1563(2)
H24 H 0.5430 0.2533 0.1594
H25 H 0.5985 0.1308 0.1742
H26 H 0.6463 0.1827 0.1200
loop_
_geom_bond_atom_site_label_1
_geom_bond_atom_site_label_2
_geom_bond_site_symmetry_1
_geom_bond_site_symmetry_2
Cl1 C12 1_555 1_555
S1 C4 1_555 1_555
O1 C6 1_555 1_555
O2 C26 1_555 1_555
O3 C26 1_555 1_555
N1 C6 1_555 1_555
C1 H1 1_555 1_555
C2 C1 1_555 1_555
H2 C2 1_555 1_555
C3 C2 1_555 1_555
H3 C3 1_555 1_555
C4 C3 1_555 1_555
C5 S1 1_555 1_555
C6 C5 1_555 1_555
C7 N1 1_555 1_555
H4 C7 1_555 1_555
H5 C7 1_555 1_555
C8 C7 1_555 1_555
C9 C8 1_555 1_555
H6 C9 1_555 1_555
C10 C9 1_555 1_555
H7 C10 1_555 1_555
C11 C10 1_555 1_555
H8 C11 1_555 1_555
C12 C13 1_555 1_555
C13 H9 1_555 1_555
C14 C13 1_555 1_555
H10 C14 1_555 1_555
C15 C14 1_555 1_555
C16 C15 1_555 1_555
H11 C16 1_555 1_555
C17 C12 1_555 1_555
H12 C17 1_555 1_555
C18 C5 1_555 1_555
H13 C18 1_555 1_555
H14 C18 1_555 1_555
C19 C1 1_555 1_555
H15 C19 1_555 1_555
C20 C4 1_555 1_555
H16 C20 1_555 1_555
C21 C5 1_555 1_555
C22 N1 1_555 1_555
C23 C8 1_555 1_555
H17 C23 1_555 1_555
C24 C11 1_555 1_555
H18 C24 1_555 1_555
C25 C22 1_555 1_555
H19 C25 1_555 1_555
H20 C25 1_555 1_555
H21 C25 1_555 1_555
C26 C21 1_555 1_555
C27 O3 1_555 1_555
H22 C27 1_555 1_555
H23 C27 1_555 1_555
C28 C27 1_555 1_555
H24 C28 1_555 1_555
H25 C28 1_555 1_555
H26 C28 1_555 1_555
C15 C18 1_555 1_555
C16 C17 1_555 1_555
C19 C20 1_555 1_555
C21 C22 1_555 1_555
C23 C24 1_555 1_555

#END
