
#######################################################################
#
#                 Cambridge Crystallographic Data Centre
#                                CCDC 
#
#######################################################################
#
# If this CIF has been generated from an entry in the Cambridge 
# Structural Database, then it will include bibliographic, chemical, 
# crystal, experimental, refinement or atomic coordinate data resulting 
# from the CCDC's data processing and validation procedures.
#
#######################################################################

data_KEFYOK
_chemical_formula_moiety         'C7 H8 N2 O2'
_chemical_name_systematic        2-Methyl-6-nitroaniline
_symmetry_cell_setting           monoclinic
_symmetry_space_group_name_H-M   'P 21/c'
_symmetry_Int_Tables_number      14
_space_group_name_Hall           '-P 2ybc'
loop_
_symmetry_equiv_pos_site_id
_symmetry_equiv_pos_as_xyz
1 x,y,z
2 -x,1/2+y,1/2-z
3 -x,-y,-z
4 x,1/2-y,1/2+z
_cell_length_a                   8.9844(16)
_cell_length_b                   11.359(2)
_cell_length_c                   14.785(3)
_cell_angle_alpha                90
_cell_angle_beta                 103.814(2)
_cell_angle_gamma                90
_cell_volume                     1465.22
_exptl_crystal_colour            yellow
_exptl_crystal_description       block
_cell_formula_units_Z            8
_exptl_crystal_recrystallization_method N,N-dimethylformamide
loop_
_atom_site_label
_atom_site_type_symbol
_atom_site_fract_x
_atom_site_fract_y
_atom_site_fract_z
O1 O 0.28792(14) 0.54144(11) 0.41093(8)
O2 O 0.37257(15) 0.56793(12) 0.55800(8)
N1 N 0.28697(15) 0.51650(11) 0.49186(9)
N2 N 0.25384(19) 0.45531(14) 0.67751(10)
H1 H 0.325(2) 0.5098(17) 0.6686(14)
H2 H 0.246(2) 0.4356(18) 0.7308(16)
C1 C 0.0331(2) 0.29133(16) 0.70392(11)
H5 H -0.0453 0.2325 0.6986
H6 H 0.0024 0.3614 0.7309
H7 H 0.1270 0.2623 0.7429
C2 C 0.05660(17) 0.31901(12) 0.60917(10)
C3 C 0.16933(16) 0.40320(12) 0.60046(9)
C4 C 0.18314(15) 0.42848(12) 0.50911(9)
C5 C 0.09387(18) 0.37194(13) 0.43156(10)
H8 H 0.1064 0.3897 0.3724
C6 C -0.0115(2) 0.29084(14) 0.44216(11)
H9 H -0.0713 0.2524 0.3906
C7 C -0.02885(19) 0.26593(13) 0.53135(12)
H10 H -0.1019 0.2107 0.5380
O3 O 0.8289(2) 0.99462(14) 0.60405(10)
O4 O 0.64899(17) 0.87510(15) 0.61259(9)
N3 N 0.72369(18) 0.93022(13) 0.56607(10)
N4 N 0.48473(19) 0.77306(16) 0.46317(12)
H3 H 0.515(3) 0.776(2) 0.5342(18)
H4 H 0.425(2) 0.7185(16) 0.4276(13)
C8 C 0.4243(2) 0.75291(17) 0.26788(13)
H11 H 0.4214 0.7584 0.2027
H12 H 0.3266 0.7756 0.2780
H13 H 0.4467 0.6733 0.2885
C9 C 0.54645(16) 0.83340(13) 0.32171(10)
C10 C 0.63353(17) 0.89972(14) 0.27732(11)
H14 H 0.6151 0.8953 0.2128
C11 C 0.74836(19) 0.97342(14) 0.32481(12)
H15 H 0.8065 1.0170 0.2925
C12 C 0.77552(19) 0.98172(13) 0.41864(12)
H16 H 0.8529 1.0308 0.4511
C13 C 0.68729(17) 0.91653(13) 0.46679(10)
C14 C 0.57157(16) 0.83944(12) 0.42012(10)
loop_
_geom_bond_atom_site_label_1
_geom_bond_atom_site_label_2
_geom_bond_site_symmetry_1
_geom_bond_site_symmetry_2
O1 N1 1_555 1_555
O2 N1 1_555 1_555
O3 N3 1_555 1_555
O4 N3 1_555 1_555
N1 C4 1_555 1_555
N2 H1 1_555 1_555
H2 N2 1_555 1_555
N3 C13 1_555 1_555
N4 H3 1_555 1_555
H4 N4 1_555 1_555
C1 H5 1_555 1_555
H6 C1 1_555 1_555
H7 C1 1_555 1_555
C2 C1 1_555 1_555
C3 N2 1_555 1_555
C4 C3 1_555 1_555
C5 C4 1_555 1_555
H8 C5 1_555 1_555
C6 C5 1_555 1_555
H9 C6 1_555 1_555
C7 C2 1_555 1_555
H10 C7 1_555 1_555
C8 H11 1_555 1_555
H12 C8 1_555 1_555
H13 C8 1_555 1_555
C9 C8 1_555 1_555
C10 C9 1_555 1_555
H14 C10 1_555 1_555
C11 C10 1_555 1_555
H15 C11 1_555 1_555
C12 C11 1_555 1_555
H16 C12 1_555 1_555
C13 C12 1_555 1_555
C14 N4 1_555 1_555
C2 C3 1_555 1_555
C6 C7 1_555 1_555
C9 C14 1_555 1_555
C13 C14 1_555 1_555

#END
