
#######################################################################
#
#                 Cambridge Crystallographic Data Centre
#                                CCDC 
#
#######################################################################
#
# If this CIF has been generated from an entry in the Cambridge 
# Structural Database, then it will include bibliographic, chemical, 
# crystal, experimental, refinement or atomic coordinate data resulting 
# from the CCDC's data processing and validation procedures.
#
#######################################################################

data_KEGCIK
_chemical_name_common            
1-(2-chlorobenzoyl)-3,6-diphenyl-1,4-dihydro-1,2,4,5-tetrazine
_chemical_formula_moiety         'C21 H15 Cl1 N4 O1'
_chemical_name_systematic        
(2-Chlorophenyl)(3,6-diphenyl-1,2,4,5-tetrazin-1(4H)-yl)methanone
_symmetry_cell_setting           orthorhombic
_symmetry_space_group_name_H-M   'P 21 21 21'
_symmetry_Int_Tables_number      19
_space_group_name_Hall           'P 2ac 2ab'
loop_
_symmetry_equiv_pos_site_id
_symmetry_equiv_pos_as_xyz
1 x,y,z
2 1/2-x,-y,1/2+z
3 1/2+x,1/2-y,-z
4 -x,1/2+y,1/2-z
_cell_length_a                   7.3706(10)
_cell_length_b                   12.3065(18)
_cell_length_c                   20.323(3)
_cell_angle_alpha                90
_cell_angle_beta                 90
_cell_angle_gamma                90
_cell_volume                     1843.42
_exptl_crystal_colour            yellow
_exptl_crystal_description       block
_cell_formula_units_Z            4
loop_
_atom_site_label
_atom_site_type_symbol
_atom_site_fract_x
_atom_site_fract_y
_atom_site_fract_z
Cl1 Cl 0.82670(8) 0.81728(4) 0.03764(3)
O1 O 0.58991(18) 1.04495(10) -0.06977(6)
N1 N 0.7957(2) 1.07894(12) 0.00956(7)
N2 N 0.9563(2) 1.24022(13) 0.00059(8)
N3 N 0.8431(2) 1.06708(12) 0.07703(7)
C1 C 0.9008(2) 1.15345(13) -0.02706(8)
C2 C 0.5439(2) 0.95821(13) 0.03325(8)
N4 N 0.9038(2) 1.25087(12) 0.06607(7)
H1 H 0.8810 1.3136 0.0828
C3 C 0.8899(2) 1.15805(13) 0.10287(8)
C4 C 0.6444(2) 1.02911(12) -0.01373(8)
C5 C 0.9345(2) 1.16007(14) 0.17388(9)
C6 C 0.9599(3) 1.12611(16) -0.09439(8)
C7 C 0.6125(3) 0.86263(14) 0.05939(8)
C8 C 0.9119(4) 1.0749(2) 0.27947(11)
H2 H 0.8695 1.0185 0.3058
C9 C 1.0355(3) 1.24165(19) 0.20180(10)
H3 H 1.0769 1.2990 0.1761
C10 C 0.5095(3) 0.79948(17) 0.10142(10)
H4 H 0.5573 0.7359 0.1191
C11 C 0.8703(4) 1.07659(18) 0.21316(10)
H5 H 0.7994 1.0218 0.1950
C12 C 0.2645(3) 0.9247(2) 0.09118(12)
H6 H 0.1470 0.9456 0.1020
C13 C 1.0153(3) 1.1560(2) 0.30668(10)
H7 H 1.0437 1.1542 0.3512
C14 C 1.0449(4) 1.1819(2) -0.20254(10)
H8 H 1.0604 1.2368 -0.2334
C15 C 0.3362(4) 0.8313(2) 0.11688(11)
H9 H 0.2667 0.7888 0.1451
C16 C 0.9972(4) 1.02043(18) -0.11176(11)
H10 H 0.9802 0.9649 -0.0814
C17 C 0.9845(3) 1.20730(18) -0.14058(10)
H11 H 0.9601 1.2792 -0.1296
C18 C 0.3672(3) 0.98752(18) 0.04911(10)
H12 H 0.3176 1.0503 0.0311
C19 C 1.0758(4) 1.2385(2) 0.26871(12)
H13 H 1.1450 1.2936 0.2874
C20 C 1.0595(4) 0.9966(2) -0.17399(12)
H14 H 1.0862 0.9250 -0.1851
C21 C 1.0825(4) 1.0769(2) -0.21942(12)
H15 H 1.1235 1.0604 -0.2615
loop_
_geom_bond_atom_site_label_1
_geom_bond_atom_site_label_2
_geom_bond_site_symmetry_1
_geom_bond_site_symmetry_2
Cl1 C7 1_555 1_555
O1 C4 1_555 1_555
N1 N3 1_555 1_555
N2 C1 1_555 1_555
N3 C3 1_555 1_555
C1 N1 1_555 1_555
C2 C4 1_555 1_555
N4 N2 1_555 1_555
H1 N4 1_555 1_555
C3 N4 1_555 1_555
C4 N1 1_555 1_555
C5 C3 1_555 1_555
C6 C1 1_555 1_555
C7 C2 1_555 1_555
C8 H2 1_555 1_555
C9 C5 1_555 1_555
H3 C9 1_555 1_555
C10 C7 1_555 1_555
H4 C10 1_555 1_555
C11 C5 1_555 1_555
H5 C11 1_555 1_555
C12 H6 1_555 1_555
C13 C8 1_555 1_555
H7 C13 1_555 1_555
C14 H8 1_555 1_555
C15 C10 1_555 1_555
H9 C15 1_555 1_555
C16 C6 1_555 1_555
H10 C16 1_555 1_555
C17 C6 1_555 1_555
H11 C17 1_555 1_555
C18 C2 1_555 1_555
H12 C18 1_555 1_555
C19 C9 1_555 1_555
H13 C19 1_555 1_555
C20 C16 1_555 1_555
H14 C20 1_555 1_555
C21 C14 1_555 1_555
H15 C21 1_555 1_555
C8 C11 1_555 1_555
C12 C15 1_555 1_555
C12 C18 1_555 1_555
C13 C19 1_555 1_555
C14 C17 1_555 1_555
C20 C21 1_555 1_555

#END
