
#######################################################################
#
#                 Cambridge Crystallographic Data Centre
#                                CCDC 
#
#######################################################################
#
# If this CIF has been generated from an entry in the Cambridge 
# Structural Database, then it will include bibliographic, chemical, 
# crystal, experimental, refinement or atomic coordinate data resulting 
# from the CCDC's data processing and validation procedures.
#
#######################################################################

data_KEGHUB
_chemical_name_common            
1-(N-t-butoxycarbonyl-L-prolyl)-1,3-dicyclohexylurea
_chemical_formula_moiety         'C23 H39 N3 O4'
_chemical_name_systematic        
't-Butyl 2-(cyclohexyl(cyclohexylcarbamoyl)carbamoyl)pyrrolidine-1-carboxylate'
_symmetry_cell_setting           orthorhombic
_symmetry_space_group_name_H-M   'P 21 21 21'
_symmetry_Int_Tables_number      19
_space_group_name_Hall           'P 2ac 2ab'
loop_
_symmetry_equiv_pos_site_id
_symmetry_equiv_pos_as_xyz
1 x,y,z
2 1/2-x,-y,1/2+z
3 -x,1/2+y,1/2-z
4 1/2+x,1/2-y,-z
_cell_length_a                   10.8990(5)
_cell_length_b                   12.2153(6)
_cell_length_c                   18.8102(9)
_cell_angle_alpha                90
_cell_angle_beta                 90
_cell_angle_gamma                90
_cell_volume                     2504.29
_exptl_crystal_colour            colorless
_exptl_crystal_description       block
_chemical_melting_point          104-105deg.C
_cell_formula_units_Z            4
loop_
_atom_site_label
_atom_site_type_symbol
_atom_site_fract_x
_atom_site_fract_y
_atom_site_fract_z
O1 O 0.88273(18) 0.58101(14) 0.84846(10)
O2 O 0.83010(19) 0.76095(15) 0.84164(10)
O3 O 0.87674(18) 0.83382(16) 1.01366(12)
O4 O 0.5365(2) 1.0087(2) 0.94201(15)
N1 N 0.77010(19) 0.65395(15) 0.93356(11)
N2 N 0.72960(19) 0.94028(17) 0.96478(12)
N3 N 0.6303(2) 0.9122(2) 0.85630(12)
H1 H 0.6992 0.8849 0.8427
C1 C 0.7699(3) 0.5502(2) 0.97183(16)
H2 H 0.8482 0.5374 0.9949
H3 H 0.7523 0.4896 0.9401
C2 C 0.6701(4) 0.5641(3) 1.0252(2)
H4 H 0.6870 0.5218 1.0677
H5 H 0.5917 0.5412 1.0058
C3 C 0.6694(3) 0.6839(3) 1.04138(15)
H6 H 0.7300 0.7014 1.0774
H7 H 0.5892 0.7070 1.0580
C4 C 0.7010(2) 0.7392(2) 0.97074(13)
H8 H 0.6261 0.7575 0.9445
C5 C 0.7787(2) 0.8416(2) 0.98299(14)
C6 C 0.6223(2) 0.9551(2) 0.92110(16)
C7 C 0.8280(2) 0.6725(2) 0.87222(13)
C8 C 0.9548(3) 0.5800(2) 0.78247(16)
C9 C 1.0673(3) 0.6512(3) 0.7905(2)
H9 H 1.0427 0.7262 0.7960
H10 H 1.1180 0.6442 0.7490
H11 H 1.1128 0.6285 0.8317
C10 C 0.8769(4) 0.6136(4) 0.71988(19)
H12 H 0.8061 0.5670 0.7171
H13 H 0.9239 0.6070 0.6769
H14 H 0.8511 0.6882 0.7258
C11 C 0.9912(4) 0.4599(3) 0.7769(2)
H15 H 1.0434 0.4409 0.8162
H16 H 1.0344 0.4479 0.7331
H17 H 0.9189 0.4151 0.7779
C12 C 0.7933(3) 1.0416(2) 0.98814(14)
H18 H 0.8707 1.0176 1.0095
C13 C 0.7258(5) 1.0988(3) 1.0451(2)
H19 H 0.7150 1.0500 1.0853
H20 H 0.6452 1.1198 1.0279
C14 C 0.7974(6) 1.2020(4) 1.0688(3)
H21 H 0.7480 1.2430 1.1024
H22 H 0.8720 1.1797 1.0929
C15 C 0.8287(6) 1.2719(3) 1.0097(4)
H23 H 0.8782 1.3323 1.0270
H24 H 0.7540 1.3023 0.9899
C16 C 0.8953(6) 1.2162(5) 0.9539(3)
H25 H 0.9759 1.1958 0.9714
H26 H 0.9066 1.2658 0.9142
C17 C 0.8274(5) 1.1116(4) 0.9275(2)
H27 H 0.7542 1.1325 0.9015
H28 H 0.8803 1.0710 0.8955
C18 C 0.5268(3) 0.9099(3) 0.80789(17)
H29 H 0.4627 0.9565 0.8283
C19 C 0.5593(4) 0.9567(4) 0.7370(2)
H30 H 0.6258 0.9145 0.7163
H31 H 0.5876 1.0314 0.7430
C20 C 0.4500(5) 0.9552(4) 0.6869(2)
H32 H 0.3890 1.0070 0.7038
H33 H 0.4763 0.9788 0.6401
C21 C 0.3928(5) 0.8451(4) 0.6812(3)
H34 H 0.4487 0.7964 0.6564
H35 H 0.3184 0.8506 0.6532
C22 C 0.3625(4) 0.7970(5) 0.7521(3)
H36 H 0.3343 0.7223 0.7459
H37 H 0.2966 0.8387 0.7738
C23 C 0.4751(4) 0.7981(4) 0.8015(3)
H38 H 0.4515 0.7718 0.8482
H39 H 0.5372 0.7491 0.7828
loop_
_geom_bond_atom_site_label_1
_geom_bond_atom_site_label_2
_geom_bond_site_symmetry_1
_geom_bond_site_symmetry_2
O1 C7 1_555 1_555
O2 C7 1_555 1_555
O3 C5 1_555 1_555
O4 C6 1_555 1_555
N1 C1 1_555 1_555
N2 C5 1_555 1_555
N3 H1 1_555 1_555
C1 H2 1_555 1_555
H3 C1 1_555 1_555
C2 C1 1_555 1_555
H4 C2 1_555 1_555
H5 C2 1_555 1_555
C3 C2 1_555 1_555
H6 C3 1_555 1_555
H7 C3 1_555 1_555
C4 N1 1_555 1_555
H8 C4 1_555 1_555
C5 C4 1_555 1_555
C6 N2 1_555 1_555
C7 N1 1_555 1_555
C8 O1 1_555 1_555
C9 C8 1_555 1_555
H9 C9 1_555 1_555
H10 C9 1_555 1_555
H11 C9 1_555 1_555
C10 C8 1_555 1_555
H12 C10 1_555 1_555
H13 C10 1_555 1_555
H14 C10 1_555 1_555
C11 C8 1_555 1_555
H15 C11 1_555 1_555
H16 C11 1_555 1_555
H17 C11 1_555 1_555
C12 N2 1_555 1_555
H18 C12 1_555 1_555
C13 C12 1_555 1_555
H19 C13 1_555 1_555
H20 C13 1_555 1_555
C14 C13 1_555 1_555
H21 C14 1_555 1_555
H22 C14 1_555 1_555
C15 C14 1_555 1_555
H23 C15 1_555 1_555
H24 C15 1_555 1_555
C16 C15 1_555 1_555
H25 C16 1_555 1_555
H26 C16 1_555 1_555
C17 C12 1_555 1_555
H27 C17 1_555 1_555
H28 C17 1_555 1_555
C18 N3 1_555 1_555
H29 C18 1_555 1_555
C19 C18 1_555 1_555
H30 C19 1_555 1_555
H31 C19 1_555 1_555
C20 C19 1_555 1_555
H32 C20 1_555 1_555
H33 C20 1_555 1_555
C21 C20 1_555 1_555
H34 C21 1_555 1_555
H35 C21 1_555 1_555
C22 C21 1_555 1_555
H36 C22 1_555 1_555
H37 C22 1_555 1_555
C23 C18 1_555 1_555
H38 C23 1_555 1_555
H39 C23 1_555 1_555
N3 C6 1_555 1_555
C3 C4 1_555 1_555
C16 C17 1_555 1_555
C22 C23 1_555 1_555

#END
