
#######################################################################
#
#                 Cambridge Crystallographic Data Centre
#                                CCDC 
#
#######################################################################
#
# If this CIF has been generated from an entry in the Cambridge 
# Structural Database, then it will include bibliographic, chemical, 
# crystal, experimental, refinement or atomic coordinate data resulting 
# from the CCDC's data processing and validation procedures.
#
#######################################################################

data_KEGJIR
_chemical_formula_moiety         'C20 H18 O4,H2 O1'
_chemical_name_systematic        
'5-Allyl-9-(2-hydroxy-5-oxocyclopent-1-en-1-yl)-3,9-dihydrocyclopenta[b]chromen-1(2H)-one monohydrate'
_symmetry_cell_setting           triclinic
_symmetry_space_group_name_H-M   'P -1'
_symmetry_Int_Tables_number      2
_space_group_name_Hall           '-P 1'
loop_
_symmetry_equiv_pos_site_id
_symmetry_equiv_pos_as_xyz
1 x,y,z
2 -x,-y,-z
_cell_length_a                   8.5840(17)
_cell_length_b                   8.7027(17)
_cell_length_c                   11.561(2)
_cell_angle_alpha                89.69(3)
_cell_angle_beta                 74.33(3)
_cell_angle_gamma                86.13(3)
_cell_volume                     829.584
_cell_formula_units_Z            2
loop_
_atom_site_label
_atom_site_type_symbol
_atom_site_fract_x
_atom_site_fract_y
_atom_site_fract_z
O1 O 0.25215(11) 0.63546(11) 0.97608(9)
O2 O 0.52697(14) 0.36953(15) 0.61900(10)
O3 O 0.40453(11) 0.83916(13) 0.68028(10)
O4 O 0.92607(12) 0.62460(14) 0.66344(10)
H1 H 1.028(3) 0.657(2) 0.6164(18)
C1 C 0.28771(16) 0.54745(16) 0.87547(12)
C2 C 0.43322(16) 0.52677(16) 0.79625(12)
C3 C 0.58057(15) 0.60375(16) 0.80506(12)
H4 H 0.6645 0.5232 0.8086
C4 C 0.53757(16) 0.69596(16) 0.92266(12)
C5 C 0.38195(15) 0.70778(15) 1.00003(12)
C6 C 0.34170(17) 0.79094(16) 1.10793(12)
C7 C 0.46353(18) 0.86525(17) 1.13698(13)
H5 H 0.4403 0.9214 1.2085
C8 C 0.61976(18) 0.85765(18) 1.06137(14)
H6 H 0.7001 0.9094 1.0818
C9 C 0.65566(17) 0.77332(17) 0.95596(13)
H7 H 0.7609 0.7680 0.9060
C10 C 0.15580(17) 0.46529(18) 0.84813(13)
H8 H 0.0694 0.5369 0.8373
H9 H 0.1112 0.3938 0.9111
C11 C 0.24357(18) 0.38048(19) 0.73086(13)
H10 H 0.2359 0.2702 0.7400
H11 H 0.1972 0.4142 0.6665
C12 C 0.41850(18) 0.42095(18) 0.70451(13)
C13 C 0.64776(15) 0.70310(16) 0.69851(12)
C14 C 0.55275(17) 0.81118(17) 0.64643(13)
C15 C 0.66351(18) 0.8894(2) 0.54202(13)
H12 H 0.6539 1.0001 0.5545
H13 H 0.6375 0.8668 0.4676
C16 C 0.83413(17) 0.8234(2) 0.53842(13)
H14 H 0.8866 0.7733 0.4617
H15 H 0.9006 0.9033 0.5526
C17 C 0.80526(16) 0.70982(17) 0.63778(12)
C18 C 0.17030(18) 0.80004(18) 1.18928(13)
H16 H 0.1306 0.6977 1.1975
H17 H 0.1717 0.8354 1.2684
C19 C 0.05606(17) 0.90616(19) 1.14333(15)
H18 H 0.0509 0.8896 1.0651
C20 C -0.0366(2) 1.0198(2) 1.20399(17)
H19 H -0.0351 1.0403 1.2825
H20 H -0.1042 1.0803 1.1687
O5 O 0.20358(14) 0.72158(18) 0.55345(15)
H2 H 0.263(3) 0.752(3) 0.598(2)
H3 H 0.269(3) 0.673(2) 0.496(2)
loop_
_geom_bond_atom_site_label_1
_geom_bond_atom_site_label_2
_geom_bond_site_symmetry_1
_geom_bond_site_symmetry_2
O1 C1 1_555 1_555
O2 C12 1_555 1_555
O3 C14 1_555 1_555
O4 H1 1_555 1_555
O5 H2 1_555 1_555
H3 O5 1_555 1_555
C1 C2 1_555 1_555
C2 C3 1_555 1_555
C3 H4 1_555 1_555
C4 C3 1_555 1_555
C5 O1 1_555 1_555
C6 C5 1_555 1_555
C7 C6 1_555 1_555
H5 C7 1_555 1_555
C8 C7 1_555 1_555
H6 C8 1_555 1_555
C9 C4 1_555 1_555
H7 C9 1_555 1_555
C10 C1 1_555 1_555
H8 C10 1_555 1_555
H9 C10 1_555 1_555
C11 C10 1_555 1_555
H10 C11 1_555 1_555
H11 C11 1_555 1_555
C12 C2 1_555 1_555
C13 C3 1_555 1_555
C14 C13 1_555 1_555
C15 C14 1_555 1_555
H12 C15 1_555 1_555
H13 C15 1_555 1_555
C16 C15 1_555 1_555
H14 C16 1_555 1_555
H15 C16 1_555 1_555
C17 O4 1_555 1_555
C18 C6 1_555 1_555
H16 C18 1_555 1_555
H17 C18 1_555 1_555
C19 C18 1_555 1_555
H18 C19 1_555 1_555
C20 C19 1_555 1_555
H19 C20 1_555 1_555
H20 C20 1_555 1_555
C4 C5 1_555 1_555
C8 C9 1_555 1_555
C11 C12 1_555 1_555
C13 C17 1_555 1_555
C16 C17 1_555 1_555

#END
