
#######################################################################
#
#                 Cambridge Crystallographic Data Centre
#                                CCDC 
#
#######################################################################
#
# If this CIF has been generated from an entry in the Cambridge 
# Structural Database, then it will include bibliographic, chemical, 
# crystal, experimental, refinement or atomic coordinate data resulting 
# from the CCDC's data processing and validation procedures.
#
#######################################################################

data_KEGJEN
_chemical_formula_moiety         'C31 H37 Cl1 O10'
_chemical_name_systematic        
'2-(Acetoxymethyl)-6-(4-chloro-3-(2-(4-ethoxyphenyl)propan-2-yl)phenyl)tetrahydro-2H-pyran-3,4,5-triyl triacetate'
_symmetry_cell_setting           monoclinic
_symmetry_space_group_name_H-M   'P 21'
_symmetry_Int_Tables_number      4
_space_group_name_Hall           'P 2yb'
loop_
_symmetry_equiv_pos_site_id
_symmetry_equiv_pos_as_xyz
1 x,y,z
2 -x,1/2+y,-z
_cell_length_a                   11.882(5)
_cell_length_b                   10.106(5)
_cell_length_c                   13.816(6)
_cell_angle_alpha                90
_cell_angle_beta                 111.283(9)
_cell_angle_gamma                90
_cell_volume                     1545.87
_exptl_crystal_colour            colorless
_exptl_crystal_description       prism
_cell_formula_units_Z            2
loop_
_atom_site_label
_atom_site_type_symbol
_atom_site_fract_x
_atom_site_fract_y
_atom_site_fract_z
Cl1 Cl 1.26035(5) 0.19921(6) 0.44356(4)
O1 O 0.89707(17) 0.09972(18) 0.04442(16)
O2 O 0.80024(14) 0.29613(16) -0.00019(11)
O3 O 0.55367(13) 0.23245(15) -0.11030(11)
O4 O 0.47778(18) 0.41639(17) -0.20576(13)
O5 O 0.39358(13) 0.35269(15) -0.02209(11)
O6 O 0.30666(16) 0.15140(18) -0.06198(14)
O7 O 0.42909(14) 0.23831(16) 0.21171(12)
O8 O 0.23897(16) 0.31190(19) 0.13143(14)
O9 O 0.67156(13) 0.31619(15) 0.20408(11)
O10 O 1.34076(14) -0.36917(15) 0.43108(12)
C1 C 0.75839(19) 0.3391(2) 0.15595(16)
H1 H 0.7585 0.4357 0.1405
C2 C 0.71955(19) 0.2630(2) 0.05290(16)
H2 H 0.7194 0.1655 0.0650
C3 C 0.5946(2) 0.3107(2) -0.01585(16)
H3 H 0.5989 0.4060 -0.0337
C4 C 0.50732(19) 0.2949(2) 0.04119(16)
H4 H 0.4967 0.1992 0.0543
C5 C 0.55621(19) 0.3708(2) 0.14319(16)
H5 H 0.5686 0.4649 0.1270
C6 C 0.8865(2) 0.2061(3) 0.00302(18)
C7 C 0.9675(2) 0.2599(3) -0.04819(19)
H6 H 1.0390 0.2994 0.0043
H7 H 0.9243 0.3275 -0.0989
H8 H 0.9924 0.1881 -0.0837
C8 C 0.4962(2) 0.2998(3) -0.20105(18)
C9 C 0.4615(2) 0.2070(3) -0.29126(17)
H9 H 0.4157 0.2551 -0.3550
H10 H 0.4116 0.1356 -0.2804
H11 H 0.5345 0.1694 -0.2976
C10 C 0.3020(2) 0.2694(3) -0.07340(18)
C11 C 0.1974(2) 0.3463(3) -0.14498(17)
H12 H 0.1367 0.2851 -0.1896
H13 H 0.2253 0.4049 -0.1882
H14 H 0.1616 0.3993 -0.1041
C12 C 0.4744(2) 0.3698(2) 0.20472(17)
H15 H 0.5193 0.4034 0.2756
H16 H 0.4053 0.4299 0.1714
C13 C 0.3077(2) 0.2236(3) 0.17195(18)
C14 C 0.2709(2) 0.0841(2) 0.1842(2)
H17 H 0.1871 0.0833 0.1808
H18 H 0.3238 0.0491 0.2516
H19 H 0.2780 0.0289 0.1284
C15 C 0.88173(19) 0.3018(2) 0.22978(16)
C16 C 0.9818(2) 0.3725(2) 0.22882(17)
H20 H 0.9713 0.4448 0.1823
C17 C 1.0974(2) 0.3381(2) 0.29564(16)
H21 H 1.1659 0.3858 0.2947
C18 C 1.11109(19) 0.2334(2) 0.36333(16)
C19 C 1.0140(2) 0.1600(2) 0.37006(16)
C20 C 0.90022(19) 0.1966(2) 0.29948(15)
H22 H 0.8319 0.1474 0.2990
C21 C 1.0289(2) 0.0525(2) 0.45278(16)
C22 C 1.0648(2) 0.1216(2) 0.55963(16)
H23 H 1.0674 0.0561 0.6128
H24 H 1.0051 0.1899 0.5566
H25 H 1.1445 0.1624 0.5772
C23 C 0.90751(19) -0.0191(2) 0.43629(17)
H26 H 0.8778 -0.0612 0.3677
H27 H 0.8480 0.0455 0.4406
H28 H 0.9202 -0.0866 0.4901
C24 C 1.1186(2) -0.0550(2) 0.44968(17)
C25 C 1.1178(2) -0.1051(2) 0.35501(17)
H29 H 1.0652 -0.0669 0.2920
C26 C 1.1922(2) -0.2092(2) 0.35120(17)
H30 H 1.1906 -0.2409 0.2860
C27 C 1.26945(19) -0.2676(2) 0.44275(17)
C28 C 1.27173(19) -0.2201(2) 0.53734(17)
H31 H 1.3237 -0.2589 0.6003
C29 C 1.1969(2) -0.1144(2) 0.53938(17)
H32 H 1.1998 -0.0819 0.6048
C30 C 1.4211(2) -0.4306(2) 0.52463(18)
H33 H 1.3742 -0.4722 0.5628
H34 H 1.4756 -0.3636 0.5703
C31 C 1.4937(2) -0.5341(2) 0.4941(2)
H35 H 1.4388 -0.5950 0.4436
H36 H 1.5432 -0.5836 0.5559
H37 H 1.5462 -0.4909 0.4630
loop_
_geom_bond_atom_site_label_1
_geom_bond_atom_site_label_2
_geom_bond_site_symmetry_1
_geom_bond_site_symmetry_2
Cl1 C18 1_555 1_555
O1 C6 1_555 1_555
O2 C2 1_555 1_555
O3 C3 1_555 1_555
O4 C8 1_555 1_555
O5 C4 1_555 1_555
O6 C10 1_555 1_555
O7 C12 1_555 1_555
O8 C13 1_555 1_555
O9 C1 1_555 1_555
O10 C27 1_555 1_555
C1 H1 1_555 1_555
C2 C1 1_555 1_555
H2 C2 1_555 1_555
C3 C2 1_555 1_555
H3 C3 1_555 1_555
C4 C3 1_555 1_555
H4 C4 1_555 1_555
C5 O9 1_555 1_555
H5 C5 1_555 1_555
C6 O2 1_555 1_555
C7 C6 1_555 1_555
H6 C7 1_555 1_555
H7 C7 1_555 1_555
H8 C7 1_555 1_555
C8 O3 1_555 1_555
C9 C8 1_555 1_555
H9 C9 1_555 1_555
H10 C9 1_555 1_555
H11 C9 1_555 1_555
C10 O5 1_555 1_555
C11 C10 1_555 1_555
H12 C11 1_555 1_555
H13 C11 1_555 1_555
H14 C11 1_555 1_555
C12 C5 1_555 1_555
H15 C12 1_555 1_555
H16 C12 1_555 1_555
C13 O7 1_555 1_555
C14 C13 1_555 1_555
H17 C14 1_555 1_555
H18 C14 1_555 1_555
H19 C14 1_555 1_555
C15 C1 1_555 1_555
C16 C15 1_555 1_555
H20 C16 1_555 1_555
C17 C16 1_555 1_555
H21 C17 1_555 1_555
C18 C17 1_555 1_555
C19 C18 1_555 1_555
C20 C15 1_555 1_555
H22 C20 1_555 1_555
C21 C19 1_555 1_555
C22 C21 1_555 1_555
H23 C22 1_555 1_555
H24 C22 1_555 1_555
H25 C22 1_555 1_555
C23 C21 1_555 1_555
H26 C23 1_555 1_555
H27 C23 1_555 1_555
H28 C23 1_555 1_555
C24 C21 1_555 1_555
C25 C24 1_555 1_555
H29 C25 1_555 1_555
C26 C25 1_555 1_555
H30 C26 1_555 1_555
C27 C26 1_555 1_555
C28 C27 1_555 1_555
H31 C28 1_555 1_555
C29 C24 1_555 1_555
H32 C29 1_555 1_555
C30 O10 1_555 1_555
H33 C30 1_555 1_555
H34 C30 1_555 1_555
C31 C30 1_555 1_555
H35 C31 1_555 1_555
H36 C31 1_555 1_555
H37 C31 1_555 1_555
C4 C5 1_555 1_555
C19 C20 1_555 1_555
C28 C29 1_555 1_555

#END
