
#######################################################################
#
#                 Cambridge Crystallographic Data Centre
#                                CCDC 
#
#######################################################################
#
# If this CIF has been generated from an entry in the Cambridge 
# Structural Database, then it will include bibliographic, chemical, 
# crystal, experimental, refinement or atomic coordinate data resulting 
# from the CCDC's data processing and validation procedures.
#
#######################################################################

data_KEGKOY
_chemical_formula_moiety         'C16 H14 N2 O3 S1'
_chemical_name_systematic        
N-(2-Ethoxyphenyl)-3-oxo-1,2-benzothiazole-2(3H)-carboxamide
_symmetry_cell_setting           triclinic
_symmetry_space_group_name_H-M   'P -1'
_symmetry_Int_Tables_number      2
_space_group_name_Hall           '-P 1'
loop_
_symmetry_equiv_pos_site_id
_symmetry_equiv_pos_as_xyz
1 x,y,z
2 -x,-y,-z
_cell_length_a                   4.6395(15)
_cell_length_b                   8.689(3)
_cell_length_c                   17.917(7)
_cell_angle_alpha                87.763(9)
_cell_angle_beta                 84.625(9)
_cell_angle_gamma                82.344(9)
_cell_volume                     712.437
_exptl_crystal_colour            colorless
_exptl_crystal_description       chunk
_cell_formula_units_Z            2
loop_
_atom_site_label
_atom_site_type_symbol
_atom_site_fract_x
_atom_site_fract_y
_atom_site_fract_z
S1 S 0.43820(9) 0.49269(5) 0.08795(2)
O1 O 0.4839(2) 0.72070(13) 0.26371(6)
O2 O 0.8488(2) 0.30624(13) 0.16123(6)
O3 O 1.0073(2) 0.57611(12) 0.38364(6)
N1 N 0.5518(3) 0.53463(15) 0.17249(6)
N2 N 0.8769(3) 0.45913(15) 0.26189(7)
C1 C 0.1995(3) 0.66533(18) 0.09026(8)
C2 C 0.0124(3) 0.72133(19) 0.03555(9)
H1 H 0.0073 0.6659 -0.0089
C3 C -0.1645(4) 0.86034(19) 0.04861(9)
H2 H -0.2936 0.9004 0.0123
C4 C -0.1598(4) 0.94404(19) 0.11348(10)
H3 H -0.2848 1.0391 0.1208
C5 C 0.0270(4) 0.88829(18) 0.16689(9)
H4 H 0.0322 0.9444 0.2111
C6 C 0.2077(3) 0.74820(18) 0.15480(8)
C7 C 0.4216(3) 0.67399(17) 0.20429(8)
C8 C 0.7731(3) 0.42113(17) 0.19832(8)
C9 C 1.0916(3) 0.36856(17) 0.30126(8)
C10 C 1.2346(4) 0.22465(18) 0.27940(9)
H5 H 1.1909 0.1805 0.2348
C11 C 1.4422(4) 0.14505(19) 0.32303(9)
H6 H 1.5385 0.0460 0.3084
C12 C 1.5088(4) 0.20950(19) 0.38745(9)
H7 H 1.6507 0.1546 0.4170
C13 C 1.3692(3) 0.35422(19) 0.40931(9)
H8 H 1.4168 0.3986 0.4535
C14 C 1.1607(3) 0.43371(17) 0.36675(8)
C15 C 1.1450(4) 0.67612(18) 0.42734(8)
H9 H 1.3540 0.6730 0.4094
H10 H 1.1304 0.6423 0.4808
C16 C 0.9880(4) 0.83778(19) 0.41804(10)
H11 H 1.0038 0.8697 0.3649
H12 H 1.0763 0.9097 0.4470
H13 H 0.7817 0.8393 0.4362
H14 H 0.797(4) 0.539(2) 0.2808(10)
loop_
_geom_bond_atom_site_label_1
_geom_bond_atom_site_label_2
_geom_bond_site_symmetry_1
_geom_bond_site_symmetry_2
S1 N1 1_555 1_555
O1 C7 1_555 1_555
O2 C8 1_555 1_555
O3 C14 1_555 1_555
N1 C7 1_555 1_555
N2 C8 1_555 1_555
C1 S1 1_555 1_555
C2 C1 1_555 1_555
H1 C2 1_555 1_555
C3 C2 1_555 1_555
H2 C3 1_555 1_555
C4 C3 1_555 1_555
H3 C4 1_555 1_555
C5 C4 1_555 1_555
H4 C5 1_555 1_555
C6 C1 1_555 1_555
C7 C6 1_555 1_555
C8 N1 1_555 1_555
C9 N2 1_555 1_555
C10 C9 1_555 1_555
H5 C10 1_555 1_555
C11 C10 1_555 1_555
H6 C11 1_555 1_555
C12 C11 1_555 1_555
H7 C12 1_555 1_555
C13 C12 1_555 1_555
H8 C13 1_555 1_555
C14 C9 1_555 1_555
C15 O3 1_555 1_555
H9 C15 1_555 1_555
H10 C15 1_555 1_555
C16 C15 1_555 1_555
H11 C16 1_555 1_555
H12 C16 1_555 1_555
H13 C16 1_555 1_555
H14 N2 1_555 1_555
C5 C6 1_555 1_555
C13 C14 1_555 1_555

#END
