
#######################################################################
#
#                 Cambridge Crystallographic Data Centre
#                                CCDC 
#
#######################################################################
#
# If this CIF has been generated from an entry in the Cambridge 
# Structural Database, then it will include bibliographic, chemical, 
# crystal, experimental, refinement or atomic coordinate data resulting 
# from the CCDC's data processing and validation procedures.
#
#######################################################################

data_KEGLOA
_chemical_formula_moiety         'C26 H25 N1 O5 S2'
_chemical_name_systematic        
N-(1-oxo-3-phenylocta-2,4-dien-2-yl)-N-(phenylsulfonyl)benzenesulfonamide
_symmetry_cell_setting           monoclinic
_symmetry_space_group_name_H-M   'P 21/c'
_symmetry_Int_Tables_number      14
_space_group_name_Hall           '-P 2ybc'
loop_
_symmetry_equiv_pos_site_id
_symmetry_equiv_pos_as_xyz
1 x,y,z
2 -x,1/2+y,1/2-z
3 -x,-y,-z
4 x,1/2-y,1/2+z
_cell_length_a                   10.796
_cell_length_b                   11.834
_cell_length_c                   19.550
_cell_angle_alpha                90
_cell_angle_beta                 97.95
_cell_angle_gamma                90
_cell_volume                     2473.7
_exptl_crystal_colour            colorless
_exptl_crystal_description       block
_cell_formula_units_Z            4
loop_
_atom_site_label
_atom_site_type_symbol
_atom_site_fract_x
_atom_site_fract_y
_atom_site_fract_z
S1 S 0.16435(6) 0.20197(6) 0.49030(3)
S2 S 0.27956(7) 0.17525(6) 0.63569(4)
O1 O 0.46664(19) 0.34168(18) 0.52665(12)
O2 O 0.16103(19) 0.29536(15) 0.44410(10)
O3 O 0.05025(17) 0.15567(16) 0.50641(11)
N1 N 0.2455(2) 0.25303(17) 0.56423(11)
O4 O 0.2632(2) 0.06088(16) 0.61427(11)
O5 O 0.39771(18) 0.21475(18) 0.66876(11)
C1 C 0.0607(2) 0.4171(2) 0.59263(13)
H1 H 0.0359 0.3447 0.5783
C2 C 0.2336(2) 0.5641(2) 0.61014(14)
C3 C 0.1905(2) 0.4479(2) 0.58940(13)
C4 C 0.1822(3) 0.6600(2) 0.57637(15)
H2 H 0.1198 0.6525 0.5387
C5 C 0.2753(2) 0.3727(2) 0.57023(13)
C6 C -0.0258(2) 0.4837(2) 0.61435(13)
H3 H -0.0007 0.5553 0.6303
C7 C 0.3142(3) 0.7783(3) 0.65467(17)
H4 H 0.3411 0.8500 0.6695
C8 C 0.2543(2) 0.0924(2) 0.46123(14)
C9 C 0.3941(3) 0.4061(2) 0.54830(15)
H5 H 0.4154 0.4823 0.5512
C10 C -0.1589(2) 0.4523(2) 0.61497(15)
H6 H -0.1668 0.3707 0.6123
H7 H -0.2089 0.4840 0.5745
C11 C 0.3655(3) 0.6842(3) 0.68895(17)
H8 H 0.4267 0.6923 0.7271
C12 C 0.3258(3) 0.5775(2) 0.66661(16)
H9 H 0.3612 0.5141 0.6897
C13 C 0.3658(3) 0.1169(3) 0.43784(17)
H10 H 0.3969 0.1903 0.4390
C14 C 0.2731(3) -0.1016(3) 0.43332(18)
H11 H 0.2422 -0.1750 0.4317
C15 C 0.1669(3) 0.2104(3) 0.68896(15)
C16 C -0.2096(3) 0.4940(3) 0.67958(16)
H12 H -0.1945 0.5746 0.6845
H13 H -0.1643 0.4569 0.7197
C17 C 0.2230(3) 0.7663(2) 0.59831(16)
H14 H 0.1888 0.8300 0.5750
C18 C 0.3841(3) -0.0794(3) 0.41019(19)
H15 H 0.4284 -0.1376 0.3928
C19 C 0.2063(3) -0.0160(2) 0.45909(15)
H16 H 0.1304 -0.0309 0.4747
C20 C -0.3483(3) 0.4717(4) 0.67787(19)
H17 H -0.3750 0.4999 0.7195
H18 H -0.3636 0.3919 0.6744
H19 H -0.3939 0.5092 0.6387
C21 C 0.1968(4) 0.2910(3) 0.74033(16)
H20 H 0.2750 0.3254 0.7468
C22 C -0.0364(4) 0.1885(5) 0.7208(2)
H21 H -0.1150 0.1550 0.7147
C23 C 0.4305(3) 0.0284(3) 0.4124(2)
H22 H 0.5064 0.0426 0.3967
C24 C 0.0514(3) 0.1580(3) 0.67814(18)
H23 H 0.0330 0.1041 0.6436
C25 C 0.1074(5) 0.3184(4) 0.78139(19)
H24 H 0.1254 0.3719 0.8162
C26 C -0.0073(5) 0.2679(5) 0.7716(2)
H25 H -0.0665 0.2876 0.7998
loop_
_geom_bond_atom_site_label_1
_geom_bond_atom_site_label_2
_geom_bond_site_symmetry_1
_geom_bond_site_symmetry_2
S1 O2 1_555 1_555
S2 N1 1_555 1_555
O1 C9 1_555 1_555
O3 S1 1_555 1_555
N1 S1 1_555 1_555
O4 S2 1_555 1_555
O5 S2 1_555 1_555
C1 H1 1_555 1_555
C2 C3 1_555 1_555
C3 C1 1_555 1_555
C4 C2 1_555 1_555
H2 C4 1_555 1_555
C5 N1 1_555 1_555
C6 C1 1_555 1_555
H3 C6 1_555 1_555
C7 H4 1_555 1_555
C8 S1 1_555 1_555
C9 C5 1_555 1_555
H5 C9 1_555 1_555
C10 C6 1_555 1_555
H6 C10 1_555 1_555
H7 C10 1_555 1_555
C11 C7 1_555 1_555
H8 C11 1_555 1_555
C12 C2 1_555 1_555
H9 C12 1_555 1_555
C13 C8 1_555 1_555
H10 C13 1_555 1_555
C14 H11 1_555 1_555
C15 S2 1_555 1_555
C16 C10 1_555 1_555
H12 C16 1_555 1_555
H13 C16 1_555 1_555
C17 C4 1_555 1_555
H14 C17 1_555 1_555
C18 C14 1_555 1_555
H15 C18 1_555 1_555
C19 C8 1_555 1_555
H16 C19 1_555 1_555
C20 C16 1_555 1_555
H17 C20 1_555 1_555
H18 C20 1_555 1_555
H19 C20 1_555 1_555
C21 C15 1_555 1_555
H20 C21 1_555 1_555
C22 H21 1_555 1_555
C23 C13 1_555 1_555
H22 C23 1_555 1_555
C24 C15 1_555 1_555
H23 C24 1_555 1_555
C25 C21 1_555 1_555
H24 C25 1_555 1_555
C26 C22 1_555 1_555
H25 C26 1_555 1_555
C3 C5 1_555 1_555
C7 C17 1_555 1_555
C11 C12 1_555 1_555
C14 C19 1_555 1_555
C18 C23 1_555 1_555
C22 C24 1_555 1_555
C25 C26 1_555 1_555

#END
