
#######################################################################
#
#                 Cambridge Crystallographic Data Centre
#                                CCDC 
#
#######################################################################
#
# If this CIF has been generated from an entry in the Cambridge 
# Structural Database, then it will include bibliographic, chemical, 
# crystal, experimental, refinement or atomic coordinate data resulting 
# from the CCDC's data processing and validation procedures.
#
#######################################################################

data_KEGMER
_chemical_formula_moiety         'C20 H21 N1 O4 S1'
_chemical_name_systematic        
N-(4-hydroxynaphthalen-1-yl)-N-(4-methoxy-2,5-dimethylphenyl)methanesulfonamide
_symmetry_cell_setting           monoclinic
_symmetry_space_group_name_H-M   'P 21/n'
_symmetry_Int_Tables_number      14
_space_group_name_Hall           '-P 2yn'
loop_
_symmetry_equiv_pos_site_id
_symmetry_equiv_pos_as_xyz
1 x,y,z
2 1/2-x,1/2+y,1/2-z
3 -x,-y,-z
4 1/2+x,1/2-y,1/2+z
_cell_length_a                   6.9490(14)
_cell_length_b                   21.165(4)
_cell_length_c                   12.887(3)
_cell_angle_alpha                90
_cell_angle_beta                 105.15(3)
_cell_angle_gamma                90
_cell_volume                     1829.49
_cell_formula_units_Z            4
loop_
_atom_site_label
_atom_site_type_symbol
_atom_site_fract_x
_atom_site_fract_y
_atom_site_fract_z
S1 S 0.48928(17) 0.01793(5) 0.69251(8)
N1 N 0.6289(5) 0.08127(15) 0.7167(2)
O1 O 1.2285(5) 0.08197(16) 1.1042(2)
H1 H 1.2994 0.0505 1.1101
C1 C 0.9713(6) 0.05614(19) 0.8216(3)
H2 H 0.9955 0.0387 0.7600
O2 O 0.6591(5) 0.22056(15) 0.3521(2)
C2 C 1.1231(6) 0.0550(2) 0.9175(3)
H3 H 1.2463 0.0373 0.9192
O3 O 0.3176(5) 0.03184(15) 0.6068(2)
C3 C 1.0885(7) 0.0803(2) 1.0082(3)
O4 O 0.4598(4) -0.00227(13) 0.7936(2)
C4 C 0.9017(6) 0.10751(19) 1.0072(3)
C5 C 0.8645(8) 0.1318(2) 1.1018(3)
H4 H 0.9648 0.1309 1.1658
C6 C 0.6845(8) 0.1563(2) 1.1006(4)
H5 H 0.6607 0.1709 1.1642
C7 C 0.5334(7) 0.1600(2) 1.0047(4)
H6 H 0.4119 0.1787 1.0041
C8 C 0.5652(7) 0.1362(2) 0.9122(3)
H7 H 0.4632 0.1379 0.8490
C9 C 0.7488(6) 0.10901(19) 0.9103(3)
C10 C 0.7891(6) 0.08194(19) 0.8158(3)
C11 C 0.6399(6) 0.12059(19) 0.6254(3)
C12 C 0.7817(7) 0.1088(2) 0.5697(3)
H8 H 0.8742 0.0768 0.5941
C13 C 0.7912(7) 0.1426(2) 0.4792(3)
C14 C 0.6502(7) 0.1903(2) 0.4447(3)
C15 C 0.5105(7) 0.2031(2) 0.5010(3)
H9 H 0.4196 0.2357 0.4777
C16 C 0.5025(7) 0.1686(2) 0.5912(3)
C17 C 0.9409(7) 0.1269(3) 0.4158(4)
H10 H 1.0260 0.0933 0.4509
H11 H 1.0200 0.1636 0.4120
H12 H 0.8713 0.1140 0.3445
C18 C 0.3428(7) 0.1850(2) 0.6473(4)
H13 H 0.2790 0.1470 0.6618
H14 H 0.2456 0.2122 0.6020
H15 H 0.4025 0.2063 0.7138
C19 C 0.5051(9) 0.2645(3) 0.3079(4)
H16 H 0.5271 0.2825 0.2436
H17 H 0.5054 0.2974 0.3592
H18 H 0.3787 0.2432 0.2910
C20 C 0.6265(7) -0.0406(2) 0.6473(3)
H19 H 0.5487 -0.0786 0.6322
H20 H 0.7473 -0.0490 0.7019
H21 H 0.6586 -0.0264 0.5831
loop_
_geom_bond_atom_site_label_1
_geom_bond_atom_site_label_2
_geom_bond_site_symmetry_1
_geom_bond_site_symmetry_2
S1 N1 1_555 1_555
N1 C10 1_555 1_555
O1 H1 1_555 1_555
C1 H2 1_555 1_555
O2 C14 1_555 1_555
C2 C1 1_555 1_555
H3 C2 1_555 1_555
O3 S1 1_555 1_555
C3 O1 1_555 1_555
O4 S1 1_555 1_555
C4 C3 1_555 1_555
C5 C4 1_555 1_555
H4 C5 1_555 1_555
C6 C5 1_555 1_555
H5 C6 1_555 1_555
C7 C6 1_555 1_555
H6 C7 1_555 1_555
C8 C7 1_555 1_555
H7 C8 1_555 1_555
C9 C4 1_555 1_555
C10 C1 1_555 1_555
C11 N1 1_555 1_555
C12 C11 1_555 1_555
H8 C12 1_555 1_555
C13 C12 1_555 1_555
C14 C13 1_555 1_555
C15 C14 1_555 1_555
H9 C15 1_555 1_555
C16 C11 1_555 1_555
C17 C13 1_555 1_555
H10 C17 1_555 1_555
H11 C17 1_555 1_555
H12 C17 1_555 1_555
C18 C16 1_555 1_555
H13 C18 1_555 1_555
H14 C18 1_555 1_555
H15 C18 1_555 1_555
C19 O2 1_555 1_555
H16 C19 1_555 1_555
H17 C19 1_555 1_555
H18 C19 1_555 1_555
C20 S1 1_555 1_555
H19 C20 1_555 1_555
H20 C20 1_555 1_555
H21 C20 1_555 1_555
C2 C3 1_555 1_555
C8 C9 1_555 1_555
C9 C10 1_555 1_555
C15 C16 1_555 1_555

#END
