
#######################################################################
#
#                 Cambridge Crystallographic Data Centre
#                                CCDC 
#
#######################################################################
#
# If this CIF has been generated from an entry in the Cambridge 
# Structural Database, then it will include bibliographic, chemical, 
# crystal, experimental, refinement or atomic coordinate data resulting 
# from the CCDC's data processing and validation procedures.
#
#######################################################################

data_KEGMOA
_chemical_formula_moiety         'C22 H20 N4'
_chemical_name_systematic        
(bis(4-dimethylaminophenyl)propadienylidene)propanedinitrile
_symmetry_cell_setting           monoclinic
_symmetry_space_group_name_H-M   'P 21/n'
_symmetry_Int_Tables_number      14
_space_group_name_Hall           '-P 2yn'
loop_
_symmetry_equiv_pos_site_id
_symmetry_equiv_pos_as_xyz
1 x,y,z
2 1/2-x,1/2+y,1/2-z
3 -x,-y,-z
4 1/2+x,1/2-y,1/2+z
_cell_length_a                   12.3296(13)
_cell_length_b                   7.2284(8)
_cell_length_c                   40.688(4)
_cell_angle_alpha                90
_cell_angle_beta                 91.064(7)
_cell_angle_gamma                90
_cell_volume                     3625.62
_exptl_crystal_colour            black
_cell_formula_units_Z            8
loop_
_atom_site_label
_atom_site_type_symbol
_atom_site_fract_x
_atom_site_fract_y
_atom_site_fract_z
N1 N 0.9195(11) 0.5098(17) 0.6076(3)
N2 N 0.7915(10) 0.528(2) 0.7095(3)
N3 N 0.3657(11) 0.6726(19) 0.4822(3)
N4 N 0.1595(11) 0.593(3) 0.7235(4)
C1 C 0.7565(12) 0.536(2) 0.6469(3)
C2 C 0.6544(14) 0.552(3) 0.6347(4)
C3 C 0.5590(13) 0.585(2) 0.6270(4)
C4 C 0.4491(13) 0.603(3) 0.6183(4)
C5 C 0.4232(12) 0.631(2) 0.5839(4)
C6 C 0.4985(12) 0.708(2) 0.5627(4)
H1 H 0.5661 0.7485 0.5718
C7 C 0.4812(13) 0.729(2) 0.5301(4)
H2 H 0.5329 0.7906 0.5170
C8 C 0.3817(11) 0.655(2) 0.5156(4)
C9 C 0.3061(13) 0.580(3) 0.5359(4)
H3 H 0.2384 0.5408 0.5268
C10 C 0.3253(13) 0.560(3) 0.5689(4)
H4 H 0.2735 0.4984 0.5821
C11 C 0.3715(13) 0.596(3) 0.6441(4)
C12 C 0.2684(14) 0.675(2) 0.6416(4)
H5 H 0.2458 0.7295 0.6214
C13 C 0.1971(13) 0.675(2) 0.6680(4)
H6 H 0.1263 0.7248 0.6650
C14 C 0.2269(13) 0.605(3) 0.6983(4)
C15 C 0.3333(11) 0.511(2) 0.7007(3)
H7 H 0.3547 0.4503 0.7204
C16 C 0.4009(12) 0.5130(19) 0.6745(3)
H8 H 0.4701 0.4563 0.6768
C17 C 0.8488(12) 0.516(2) 0.6251(3)
C18 C 0.7792(11) 0.529(2) 0.6811(4)
C19 C 0.4502(14) 0.745(3) 0.4613(4)
H9 H 0.4368 0.8769 0.4570
H10 H 0.4496 0.6776 0.4404
H11 H 0.5210 0.7305 0.4723
C20 C 0.2688(14) 0.594(3) 0.4667(4)
H12 H 0.2779 0.4595 0.4644
H13 H 0.2575 0.6488 0.4449
H14 H 0.2057 0.6192 0.4803
C21 C 0.1903(12) 0.5120(19) 0.7548(3)
H15 H 0.2207 0.3885 0.7512
H16 H 0.1264 0.5022 0.7687
H17 H 0.2449 0.5904 0.7658
C22 C 0.0484(17) 0.673(3) 0.7195(5)
H18 H 0.0537 0.8012 0.7120
H19 H 0.0113 0.6685 0.7405
H20 H 0.0072 0.6003 0.7031
N5 N 0.6844(12) 0.064(3) 0.6066(4)
N6 N 0.5289(10) -0.0063(18) 0.7004(3)
N7 N -0.1043(12) 0.110(2) 0.7068(3)
N8 N 0.1037(10) 0.1798(18) 0.4701(3)
C23 C 0.5062(11) 0.062(3) 0.6394(3)
C24 C 0.4062(16) 0.098(2) 0.6255(4)
C25 C 0.3128(13) 0.118(3) 0.6158(4)
C26 C 0.2065(11) 0.130(2) 0.6059(3)
C27 C 0.1245(12) 0.128(2) 0.6315(4)
C28 C 0.1504(13) 0.188(2) 0.6628(4)
H21 H 0.2214 0.2342 0.6672
C29 C 0.0754(12) 0.185(2) 0.6885(4)
H22 H 0.0962 0.2271 0.7098
C30 C -0.0307(13) 0.118(2) 0.6825(4)
C31 C -0.0556(11) 0.041(2) 0.6502(3)
H23 H -0.1230 -0.0193 0.6463
C32 C 0.0174(13) 0.056(3) 0.6255(4)
H24 H -0.0030 0.0170 0.6039
C33 C 0.1798(12) 0.135(2) 0.5710(4)
C34 C 0.0843(13) 0.223(2) 0.5592(4)
H25 H 0.0355 0.2726 0.5747
C35 C 0.0597(12) 0.237(2) 0.5272(4)
H26 H -0.0046 0.3003 0.5204
C36 C 0.1285(11) 0.161(2) 0.5030(4)
C37 C 0.2249(12) 0.069(3) 0.5145(4)
H27 H 0.2727 0.0131 0.4994
C38 C 0.2467(12) 0.064(3) 0.5466(4)
H28 H 0.3127 0.0067 0.5536
C39 C 0.6049(15) 0.074(3) 0.6205(4)
C40 C 0.5193(10) 0.011(2) 0.6733(3)
C41 C -0.0770(17) 0.174(3) 0.7409(4)
H29 H -0.0126 0.1074 0.7490
H30 H -0.1382 0.1481 0.7552
H31 H -0.0623 0.3068 0.7407
C42 C -0.2140(12) 0.036(3) 0.7003(4)
H32 H -0.2556 0.1237 0.6867
H33 H -0.2508 0.0176 0.7212
H34 H -0.2085 -0.0824 0.6888
C43 C -0.0025(13) 0.254(2) 0.4599(4)
H35 H -0.0597 0.1910 0.4720
H36 H -0.0137 0.2340 0.4362
H37 H -0.0049 0.3870 0.4646
C44 C 0.1752(14) 0.100(3) 0.4454(4)
H38 H 0.2504 0.1356 0.4504
H39 H 0.1540 0.1472 0.4236
H40 H 0.1687 -0.0348 0.4456
loop_
_geom_bond_atom_site_label_1
_geom_bond_atom_site_label_2
_geom_bond_site_symmetry_1
_geom_bond_site_symmetry_2
N1 C17 1_555 1_555
N2 C18 1_555 1_555
N3 C8 1_555 1_555
N4 C14 1_555 1_555
N5 C39 1_555 1_555
N6 C40 1_555 1_555
N7 C30 1_555 1_555
N8 C36 1_555 1_555
C1 C2 1_555 1_555
C2 C3 1_555 1_555
C3 C4 1_555 1_555
C4 C5 1_555 1_555
C5 C6 1_555 1_555
C6 H1 1_555 1_555
C7 C6 1_555 1_555
H2 C7 1_555 1_555
C8 C7 1_555 1_555
C9 C8 1_555 1_555
H3 C9 1_555 1_555
C10 C5 1_555 1_555
H4 C10 1_555 1_555
C11 C4 1_555 1_555
C12 C11 1_555 1_555
H5 C12 1_555 1_555
C13 C12 1_555 1_555
H6 C13 1_555 1_555
C14 C13 1_555 1_555
C15 C14 1_555 1_555
H7 C15 1_555 1_555
C16 C11 1_555 1_555
H8 C16 1_555 1_555
C17 C1 1_555 1_555
C18 C1 1_555 1_555
C19 N3 1_555 1_555
H9 C19 1_555 1_555
H10 C19 1_555 1_555
H11 C19 1_555 1_555
C20 N3 1_555 1_555
H12 C20 1_555 1_555
H13 C20 1_555 1_555
H14 C20 1_555 1_555
C21 N4 1_555 1_555
H15 C21 1_555 1_555
H16 C21 1_555 1_555
H17 C21 1_555 1_555
C22 N4 1_555 1_555
H18 C22 1_555 1_555
H19 C22 1_555 1_555
H20 C22 1_555 1_555
C23 C24 1_555 1_555
C24 C25 1_555 1_555
C25 C26 1_555 1_555
C26 C27 1_555 1_555
C27 C28 1_555 1_555
C28 H21 1_555 1_555
C29 C28 1_555 1_555
H22 C29 1_555 1_555
C30 C29 1_555 1_555
C31 C30 1_555 1_555
H23 C31 1_555 1_555
C32 C27 1_555 1_555
H24 C32 1_555 1_555
C33 C26 1_555 1_555
C34 C33 1_555 1_555
H25 C34 1_555 1_555
C35 C34 1_555 1_555
H26 C35 1_555 1_555
C36 C35 1_555 1_555
C37 C36 1_555 1_555
H27 C37 1_555 1_555
C38 C33 1_555 1_555
H28 C38 1_555 1_555
C39 C23 1_555 1_555
C40 C23 1_555 1_555
C41 N7 1_555 1_555
H29 C41 1_555 1_555
H30 C41 1_555 1_555
H31 C41 1_555 1_555
C42 N7 1_555 1_555
H32 C42 1_555 1_555
H33 C42 1_555 1_555
H34 C42 1_555 1_555
C43 N8 1_555 1_555
H35 C43 1_555 1_555
H36 C43 1_555 1_555
H37 C43 1_555 1_555
C44 N8 1_555 1_555
H38 C44 1_555 1_555
H39 C44 1_555 1_555
H40 C44 1_555 1_555
C9 C10 1_555 1_555
C15 C16 1_555 1_555
C31 C32 1_555 1_555
C37 C38 1_555 1_555

#END
