
#######################################################################
#
#                 Cambridge Crystallographic Data Centre
#                                CCDC 
#
#######################################################################
#
# If this CIF has been generated from an entry in the Cambridge 
# Structural Database, then it will include bibliographic, chemical, 
# crystal, experimental, refinement or atomic coordinate data resulting 
# from the CCDC's data processing and validation procedures.
#
#######################################################################

data_KEGNIV
_chemical_formula_moiety         'C68 H68 O12 P4,C28 H20 N8,3(C5 H12)'
_chemical_name_systematic        
'6,12,18,39-Tetramethyl-3,9,15,21-tetraphenyl-25,29,33,37-tetrapropyl-2,4,8,10,14,16,20,22-octaoxa-3,9,15,21-tetraphosphanonacyclo-[21.15.1.1^24,38^.0^5,36^.0^7,34^.0^11,32^.0^13,30^.0^17,28^.0^19,26^]-tetraconta-1(39),5(36),6,11(32),12,17(28),18,23,26,30,34,38(40)-dodecaene 3,9,15,21-tetraoxide 2-(dicyanomethyl)-3-bis(4-dimethylaminophenyl)methylidene-but-1-ene-1,1,4,4-tetracarbonitrile pentane solvate'
_symmetry_cell_setting           orthorhombic
_symmetry_space_group_name_H-M   'P c a 21'
_symmetry_Int_Tables_number      29
_space_group_name_Hall           'P 2c -2ac'
loop_
_symmetry_equiv_pos_site_id
_symmetry_equiv_pos_as_xyz
1 x,y,z
2 -x,-y,1/2+z
3 1/2-x,y,1/2+z
4 1/2+x,-y,z
_cell_length_a                   19.3900(16)
_cell_length_b                   20.096(2)
_cell_length_c                   30.363(3)
_cell_angle_alpha                90
_cell_angle_beta                 90
_cell_angle_gamma                90
_cell_volume                     11831.3
_exptl_crystal_colour            'dark green'
_exptl_crystal_description       plate
_cell_formula_units_Z            4
loop_
_atom_site_label
_atom_site_type_symbol
_atom_site_fract_x
_atom_site_fract_y
_atom_site_fract_z
P1 P 0.5001(3) 0.3798(3) 0.3439(13)
P2 P 0.7431(3) 0.5691(3) 0.4321(13)
P3 P 0.9076(3) 0.2785(4) 0.4181(13)
P4 P 0.6515(4) 0.0904(4) 0.3565(13)
O1 O 0.4884(6) 0.4366(7) 0.3802(14)
O2 O 0.6646(7) 0.5643(8) 0.4488(14)
O3 O 0.7858(6) 0.5318(8) 0.4684(14)
O4 O 0.9158(7) 0.3286(8) 0.4610(14)
O5 O 0.8927(6) 0.2079(8) 0.4383(14)
O6 O 0.6994(7) 0.0738(8) 0.3997(14)
O7 O 0.5748(7) 0.1050(8) 0.3774(14)
O8 O 0.4620(7) 0.3143(8) 0.3631(14)
O9 O 0.5724(7) 0.3706(7) 0.3306(14)
O10 O 0.7544(7) 0.5443(7) 0.3842(14)
O11 O 0.8588(7) 0.2989(8) 0.3847(14)
O12 O 0.6811(7) 0.1416(8) 0.3273(14)
C1 C 0.5391(11) 0.4486(10) 0.4133(15)
C2 C 0.5805(10) 0.4999(10) 0.4118(15)
C3 C 0.6280(13) 0.5097(13) 0.4461(15)
C4 C 0.7899(11) 0.4628(12) 0.4752(15)
C5 C 0.8502(11) 0.4261(11) 0.4616(15)
C6 C 0.8594(11) 0.3688(11) 0.4735(15)
C7 C 0.8275(12) 0.1914(10) 0.4458(15)
C8 C 0.8008(13) 0.1503(12) 0.4188(15)
C9 C 0.7279(13) 0.1234(12) 0.4259(16)
C10 C 0.5564(10) 0.1649(10) 0.3934(14)
C11 C 0.5223(11) 0.2129(11) 0.3708(15)
C12 C 0.5011(11) 0.2708(11) 0.3895(15)
C13 C 0.4391(7) 0.4004(7) 0.3029(14)
C14 C 0.4558(6) 0.3954(8) 0.2585(14)
H1 H 0.5011 0.3828 0.2500
C15 C 0.4063(9) 0.4088(8) 0.2267(14)
H2 H 0.4177 0.4054 0.1963
C16 C 0.3400(8) 0.4272(8) 0.2392(14)
H3 H 0.3061 0.4363 0.2174
C17 C 0.3233(6) 0.4322(7) 0.2836(14)
H4 H 0.2780 0.4448 0.2921
C18 C 0.3728(8) 0.4188(7) 0.3154(14)
H5 H 0.3614 0.4222 0.3458
C19 C 0.5813(10) 0.5469(9) 0.3730(14)
H6 H 0.5426 0.5366 0.3534
H7 H 0.6247 0.5418 0.3569
H8 H 0.5771 0.5928 0.3835
C20 C 0.7595(9) 0.6804(9) 0.4841(14)
H9 H 0.7383 0.6556 0.5070
C21 C 0.7677(9) 0.6521(7) 0.4426(14)
C22 C 0.7986(9) 0.6884(9) 0.4090(14)
H10 H 0.8043 0.6690 0.3807
C23 C 0.8213(10) 0.7529(9) 0.4168(15)
H11 H 0.8424 0.7777 0.3938
C24 C 0.8130(10) 0.7812(7) 0.4583(15)
H12 H 0.8284 0.8254 0.4636
C25 C 0.7821(10) 0.7450(10) 0.4919(14)
H13 H 0.7764 0.7643 0.5202
C26 C 0.9022(11) 0.4588(11) 0.4287(15)
H14 H 0.9444 0.4712 0.4445
H15 H 0.8813 0.4986 0.4157
H16 H 0.9134 0.4270 0.4053
C27 C 0.9949(6) 0.2731(7) 0.4015(14)
C28 C 1.0077(7) 0.2823(7) 0.3569(14)
H17 H 0.9707 0.2923 0.3374
C29 C 1.0745(9) 0.2768(8) 0.3407(14)
H18 H 1.0833 0.2830 0.3102
C30 C 1.1285(6) 0.2621(8) 0.3692(14)
H19 H 1.1742 0.2583 0.3581
C31 C 1.1157(7) 0.2529(8) 0.4138(14)
H20 H 1.1527 0.2429 0.4333
C32 C 1.0489(9) 0.2584(8) 0.4300(14)
H21 H 1.0402 0.2522 0.4605
C33 C 0.8382(11) 0.1258(10) 0.3765(15)
H22 H 0.8794 0.1529 0.3715
H23 H 0.8071 0.1299 0.3512
H24 H 0.8516 0.0791 0.3802
C34 C 0.6329(10) 0.0114(7) 0.3341(15)
C35 C 0.5907(8) -0.0367(9) 0.3529(14)
H25 H 0.5640 -0.0263 0.3782
C36 C 0.5876(8) -0.1001(8) 0.3347(14)
H26 H 0.5587 -0.1330 0.3476
C37 C 0.6266(10) -0.1154(7) 0.2977(14)
H27 H 0.6245 -0.1587 0.2852
C38 C 0.6688(9) -0.0672(10) 0.2788(14)
H28 H 0.6955 -0.0776 0.2535
C39 C 0.6719(9) -0.0038(9) 0.2970(15)
H29 H 0.7008 0.0291 0.2842
C40 C 0.5083(11) 0.1983(11) 0.3199(15)
H30 H 0.5467 0.2155 0.3024
H31 H 0.4654 0.2203 0.3109
H32 H 0.5041 0.1502 0.3153
C41 C 0.5367(12) 0.4034(11) 0.4508(15)
C42 C 0.5838(10) 0.4171(10) 0.4847(15)
H33 H 0.5842 0.3887 0.5098
C43 C 0.6252(11) 0.4646(11) 0.4837(15)
C44 C 0.6818(10) 0.4774(11) 0.5206(14)
H34 H 0.6951 0.5254 0.5202
C45 C 0.7460(11) 0.4338(10) 0.5039(15)
C46 C 0.7555(10) 0.3683(10) 0.5163(15)
H35 H 0.7217 0.3470 0.5341
C47 C 0.8136(10) 0.3331(10) 0.5032(14)
C48 C 0.8238(11) 0.2633(10) 0.5146(15)
H36 H 0.8744 0.2555 0.5107
C49 C 0.7884(12) 0.2101(11) 0.4845(15)
C50 C 0.7206(11) 0.1932(10) 0.4916(15)
H37 H 0.6957 0.2103 0.5160
C51 C 0.6903(13) 0.1503(12) 0.4618(15)
C52 C 0.6086(11) 0.1204(12) 0.4656(15)
H38 H 0.6033 0.0766 0.4503
C53 C 0.5718(10) 0.1763(10) 0.4412(15)
C54 C 0.5461(10) 0.2393(10) 0.4574(15)
H39 H 0.5578 0.2512 0.4867
C55 C 0.5061(10) 0.2834(10) 0.4339(15)
C56 C 0.4865(10) 0.3445(10) 0.4514(15)
H40 H 0.4466 0.3591 0.4329
C57 C 0.6531(11) 0.4598(11) 0.5665(15)
H41 H 0.6392 0.4124 0.5678
H42 H 0.6126 0.4878 0.5736
C58 C 0.7165(11) 0.4745(11) 0.6010(15)
H43 H 0.7563 0.4455 0.5942
H44 H 0.7315 0.5215 0.5985
C59 C 0.6915(12) 0.4611(13) 0.6459(15)
H45 H 0.6410 0.4598 0.6458
H46 H 0.7073 0.4964 0.6657
H47 H 0.7095 0.4182 0.6559
C60 C 0.8083(12) 0.2455(11) 0.5672(15)
H48 H 0.8308 0.2794 0.5859
H49 H 0.7580 0.2479 0.5725
C61 C 0.8320(14) 0.1826(13) 0.5794(15)
H50 H 0.8217 0.1782 0.6112
H51 H 0.8019 0.1503 0.5641
C62 C 0.8954(15) 0.1606(15) 0.5743(16)
H52 H 0.9070 0.1600 0.5429
H53 H 0.8990 0.1155 0.5863
H54 H 0.9275 0.1900 0.5899
C63 C 0.5921(11) 0.1156(12) 0.5158(15)
H55 H 0.6251 0.0855 0.5307
H56 H 0.5947 0.1601 0.5298
C64 C 0.5203(13) 0.0884(13) 0.5184(15)
H57 H 0.5138 0.0523 0.4966
H58 H 0.4861 0.1239 0.5125
C65 C 0.5115(19) 0.0614(16) 0.5657(16)
H59 H 0.5502 0.0319 0.5728
H60 H 0.4681 0.0365 0.5677
H61 H 0.5106 0.0986 0.5865
C66 C 0.4540(12) 0.3356(12) 0.5024(15)
H62 H 0.4176 0.3010 0.5020
H63 H 0.4909 0.3205 0.5225
C67 C 0.4240(11) 0.3995(10) 0.5193(15)
H64 H 0.3900 0.4169 0.4980
H65 H 0.4611 0.4330 0.5227
C68 C 0.3884(12) 0.3879(12) 0.5645(15)
H66 H 0.3541 0.3523 0.5616
H67 H 0.3655 0.4290 0.5739
H68 H 0.4231 0.3751 0.5864
N1 N 0.3726(17) 0.1597(17) 0.6900(15)
N2 N 0.5422(9) 0.1881(11) 0.7775(15)
N3 N 0.4052(13) 0.2029(17) 0.5838(15)
N4 N 0.6046(10) 0.2898(11) 0.5700(14)
N5 N 0.4020(9) 0.5261(10) 0.7008(14)
N6 N 0.7796(8) 0.3355(9) 0.8567(14)
N7 N 0.7746(11) 0.3000(12) 0.6728(14)
N8 N 0.6649(10) 0.1318(14) 0.6198(14)
C69 C 0.427(2) 0.1829(16) 0.6926(17)
C70 C 0.4937(12) 0.2107(11) 0.6982(15)
C71 C 0.5326(11) 0.2387(10) 0.6662(15)
C72 C 0.5964(11) 0.2690(10) 0.6795(15)
C73 C 0.6578(12) 0.2381(12) 0.6637(15)
C74 C 0.7257(16) 0.2709(13) 0.6712(15)
C75 C 0.5159(14) 0.1945(12) 0.7430(17)
C76 C 0.5150(12) 0.2448(11) 0.6227(15)
C77 C 0.4513(16) 0.2244(14) 0.6016(16)
C78 C 0.5621(14) 0.2720(12) 0.5929(16)
C79 C 0.5942(12) 0.3229(12) 0.7103(15)
C80 C 0.5433(11) 0.3725(10) 0.7100(15)
C81 C 0.5077(10) 0.3969(10) 0.7459(15)
H69 H 0.5160 0.3775 0.7740
C82 C 0.4607(12) 0.4480(11) 0.7428(15)
H70 H 0.4407 0.4655 0.7689
C83 C 0.4420(13) 0.4746(12) 0.7024(15)
C84 C 0.4818(10) 0.4501(10) 0.6650(15)
H71 H 0.4761 0.4710 0.6371
C85 C 0.5244(11) 0.4010(11) 0.6684(15)
H72 H 0.5440 0.3830 0.6423
C86 C 0.3571(11) 0.5384(13) 0.7394(15)
H73 H 0.3115 0.5188 0.7341
H74 H 0.3523 0.5864 0.7440
H75 H 0.3777 0.5181 0.7656
C87 C 0.3836(14) 0.5662(14) 0.6544(16)
H76 H 0.4260 0.5734 0.6376
H77 H 0.3624 0.6091 0.6614
H78 H 0.3514 0.5395 0.6368
C88 C 0.6476(10) 0.3229(10) 0.7482(15)
C89 C 0.6593(12) 0.3907(13) 0.7671(15)
H79 H 0.6365 0.4287 0.7555
C90 C 0.7039(10) 0.3959(10) 0.8013(15)
H80 H 0.7135 0.4387 0.8131
C91 C 0.7404(14) 0.3330(12) 0.8222(16)
C92 C 0.7259(10) 0.2677(11) 0.7982(15)
H81 H 0.7475 0.2277 0.8075
C93 C 0.6831(10) 0.2673(10) 0.7642(15)
H82 H 0.6759 0.2261 0.7496
C94 C 0.7848(13) 0.3985(13) 0.8787(16)
H83 H 0.8260 0.3988 0.8974
H84 H 0.7438 0.4055 0.8970
H85 H 0.7882 0.4341 0.8568
C95 C 0.8157(11) 0.2779(10) 0.8741(15)
H86 H 0.7853 0.2537 0.8943
H87 H 0.8570 0.2926 0.8900
H88 H 0.8293 0.2486 0.8498
C96 C 0.6616(12) 0.1826(13) 0.6379(16)
C102 C 0.448(2) 0.7473(19) 0.705(2)
H101 H 0.4419 0.7490 0.6729
H102 H 0.4351 0.7031 0.7157
H103 H 0.4964 0.7562 0.7122
C103 C 0.403(3) 0.799(2) 0.726(2)
H104 H 0.3541 0.7859 0.7224
H105 H 0.4127 0.7996 0.7583
C104 C 0.4127(19) 0.868(2) 0.708(2)
H106 H 0.4361 0.8672 0.6793
H107 H 0.4392 0.8963 0.7289
C105 C 0.3367(17) 0.892(3) 0.704(3)
H108 H 0.3365 0.9287 0.7259
H109 H 0.3388 0.9149 0.6752
C106 C 0.2607(16) 0.8722(17) 0.7051(17)
H110 H 0.2464 0.8574 0.6757
H111 H 0.2328 0.9106 0.7139
H112 H 0.2541 0.8359 0.7262
C107 C 0.385(4) 0.056(3) 0.343(3)
H113 H 0.3489 0.0839 0.3304
H114 H 0.3681 0.0104 0.3465
H115 H 0.4257 0.0564 0.3242
C108 C 0.404(3) 0.083(4) 0.387(2)
H116 H 0.4508 0.1026 0.3861
H117 H 0.4053 0.0459 0.4091
C109 C 0.353(4) 0.135(3) 0.403(2)
H118 H 0.3378 0.1637 0.3778
H119 H 0.3720 0.1631 0.4264
C110 C 0.293(2) 0.091(4) 0.419(3)
H120 H 0.2590 0.1176 0.4356
H121 H 0.2699 0.0685 0.3944
C111 C 0.326(4) 0.039(3) 0.450(3)
H122 H 0.3706 0.0248 0.4378
H123 H 0.2955 0.0001 0.4523
H124 H 0.3330 0.0583 0.4791
C97? C 0.703(3) 0.663(3) 0.620(2)
H89? H 0.6814 0.6275 0.6372
H90? H 0.7057 0.7036 0.6371
H91? H 0.7498 0.6487 0.6112
C98? C 0.661(2) 0.675(2) 0.5792(18)
H92? H 0.6870 0.6567 0.5537
H93? H 0.6577 0.7236 0.5749
C99? C 0.590(2) 0.646(3) 0.5783(19)
H94? H 0.5887 0.6072 0.5980
H95? H 0.5578 0.6799 0.5907
C100? C 0.563(3) 0.626(3) 0.534(2)
H96? H 0.5953 0.5956 0.5189
H97? H 0.5526 0.6645 0.5154
C101? C 0.485(3) 0.583(3) 0.551(2)
H98? H 0.4450 0.6037 0.5369
H99? H 0.4800 0.5856 0.5831
H100? H 0.4878 0.5360 0.5422
C112? C 0.736(3) 0.722(3) 0.7244(19)
H125? H 0.7083 0.7555 0.7088
H126? H 0.7151 0.6779 0.7197
H127? H 0.7829 0.7222 0.7132
C113? C 0.736(2) 0.738(2) 0.7730(18)
H128? H 0.7402 0.6947 0.7889
H129? H 0.7787 0.7629 0.7791
C114? C 0.679(3) 0.774(3) 0.7933(19)
H130? H 0.6958 0.7931 0.8215
H131? H 0.6419 0.7423 0.8002
C115? C 0.650(6) 0.829(4) 0.766(3)
H132? H 0.6805 0.8684 0.7678
H133? H 0.6041 0.8414 0.7774
C116? C 0.644(4) 0.806(4) 0.719(2)
H134? H 0.6743 0.8334 0.7006
H135? H 0.5965 0.8107 0.7094
H136? H 0.6584 0.7594 0.7172
C117? C 0.724(2) 0.666(3) 0.630(2)
H137? H 0.7324 0.6221 0.6178
H138? H 0.6902 0.6628 0.6543
H139? H 0.7048 0.6954 0.6071
C118? C 0.7913(19) 0.6959(19) 0.6476(18)
H140? H 0.7811 0.7387 0.6623
H141? H 0.8220 0.7053 0.6223
C119? C 0.8288(18) 0.651(2) 0.6795(16)
H142? H 0.8293 0.6049 0.6689
H143? H 0.8770 0.6666 0.6836
C120? C 0.7887(19) 0.657(2) 0.7224(16)
H144? H 0.7741 0.6117 0.7314
H145? H 0.7464 0.6831 0.7167
C121? C 0.825(2) 0.687(2) 0.7586(17)
H146? H 0.8426 0.7305 0.7496
H147? H 0.7933 0.6924 0.7835
H148? H 0.8634 0.6583 0.7673
C122? C 0.817(5) 0.014(5) 0.224(3)
C123? C 0.221(2) 0.046(7) 0.511(5)
C124? C 0.997(6) -0.029(5) 0.251(4)
C125? C -0.006(2) 0.142(4) 0.499(5)
C126? C 0.932(4) -0.022(5) 0.277(4)
C127? C 0.0355(16) 0.087(4) 0.478(2)
C128? C 0.908(5) 0.048(5) 0.280(4)
C129? C 0.1118(13) 0.097(4) 0.483(2)
C130? C 0.844(6) 0.066(4) 0.254(4)
C131? C 0.1441(18) 0.050(8) 0.516(3)
H149? H 0.2322 0.0196 0.4845
H150? H 0.2406 0.0244 0.5369
H151? H 0.2403 0.0907 0.5077
H152? H 0.8484 0.0096 0.1984
H153? H 0.7713 0.0271 0.2133
H154? H 0.8142 -0.0286 0.2391
H155? H 1.0191 0.0147 0.2475
H156? H 0.9864 -0.0473 0.2218
H157? H 1.0291 -0.0590 0.2663
H158? H 0.0001 0.1415 0.5307
H159? H -0.0550 0.1354 0.4916
H160? H 0.0094 0.1848 0.4868
H161? H 0.8956 -0.0496 0.2638
H162? H 0.9403 -0.0388 0.3075
H163? H 0.0227 0.0443 0.4925
H164? H 0.0240 0.0836 0.4467
H165? H 0.9456 0.0775 0.2701
H166? H 0.8986 0.0587 0.3113
H167? H 0.1340 0.0911 0.4541
H168? H 0.1205 0.1436 0.4928
H169? H 0.8073 0.0774 0.2751
H170? H 0.8546 0.1062 0.2366
H171? H 0.1239 0.0056 0.5116
H172? H 0.1330 0.0655 0.5458
loop_
_geom_bond_atom_site_label_1
_geom_bond_atom_site_label_2
_geom_bond_site_symmetry_1
_geom_bond_site_symmetry_2
P1 O1 1_555 1_555
P2 O2 1_555 1_555
P3 O4 1_555 1_555
P4 O6 1_555 1_555
O1 C1 1_555 1_555
O2 C3 1_555 1_555
O3 P2 1_555 1_555
O4 C6 1_555 1_555
O5 P3 1_555 1_555
O6 C9 1_555 1_555
O7 P4 1_555 1_555
O8 P1 1_555 1_555
O9 P1 1_555 1_555
O10 P2 1_555 1_555
O11 P3 1_555 1_555
O12 P4 1_555 1_555
C1 C2 1_555 1_555
C2 C3 1_555 1_555
C3 C43 1_555 1_555
C4 O3 1_555 1_555
C5 C4 1_555 1_555
C6 C5 1_555 1_555
C7 O5 1_555 1_555
C8 C7 1_555 1_555
C9 C8 1_555 1_555
C10 O7 1_555 1_555
C11 C10 1_555 1_555
C12 O8 1_555 1_555
C13 P1 1_555 1_555
C14 C13 1_555 1_555
H1 C14 1_555 1_555
C15 C14 1_555 1_555
H2 C15 1_555 1_555
C16 C15 1_555 1_555
H3 C16 1_555 1_555
C17 C16 1_555 1_555
H4 C17 1_555 1_555
C18 C13 1_555 1_555
H5 C18 1_555 1_555
C19 C2 1_555 1_555
H6 C19 1_555 1_555
H7 C19 1_555 1_555
H8 C19 1_555 1_555
C20 H9 1_555 1_555
C21 P2 1_555 1_555
C22 C21 1_555 1_555
H10 C22 1_555 1_555
C23 C22 1_555 1_555
H11 C23 1_555 1_555
C24 C23 1_555 1_555
H12 C24 1_555 1_555
C25 C20 1_555 1_555
H13 C25 1_555 1_555
C26 C5 1_555 1_555
H14 C26 1_555 1_555
H15 C26 1_555 1_555
H16 C26 1_555 1_555
C27 P3 1_555 1_555
C28 C27 1_555 1_555
H17 C28 1_555 1_555
C29 C28 1_555 1_555
H18 C29 1_555 1_555
C30 C29 1_555 1_555
H19 C30 1_555 1_555
C31 C30 1_555 1_555
H20 C31 1_555 1_555
C32 C27 1_555 1_555
H21 C32 1_555 1_555
C33 C8 1_555 1_555
H22 C33 1_555 1_555
H23 C33 1_555 1_555
H24 C33 1_555 1_555
C34 P4 1_555 1_555
C35 C34 1_555 1_555
H25 C35 1_555 1_555
C36 C35 1_555 1_555
H26 C36 1_555 1_555
C37 C36 1_555 1_555
H27 C37 1_555 1_555
C38 C37 1_555 1_555
H28 C38 1_555 1_555
C39 C34 1_555 1_555
H29 C39 1_555 1_555
C40 C11 1_555 1_555
H30 C40 1_555 1_555
H31 C40 1_555 1_555
H32 C40 1_555 1_555
C41 C1 1_555 1_555
C42 C41 1_555 1_555
H33 C42 1_555 1_555
C43 C42 1_555 1_555
C44 C43 1_555 1_555
H34 C44 1_555 1_555
C45 C4 1_555 1_555
C46 C45 1_555 1_555
H35 C46 1_555 1_555
C47 C6 1_555 1_555
C48 C47 1_555 1_555
H36 C48 1_555 1_555
C49 C7 1_555 1_555
C50 C49 1_555 1_555
H37 C50 1_555 1_555
C51 C9 1_555 1_555
C52 C51 1_555 1_555
H38 C52 1_555 1_555
C53 C10 1_555 1_555
C54 C53 1_555 1_555
H39 C54 1_555 1_555
C55 C12 1_555 1_555
C56 C41 1_555 1_555
H40 C56 1_555 1_555
C57 C44 1_555 1_555
H41 C57 1_555 1_555
H42 C57 1_555 1_555
C58 C57 1_555 1_555
H43 C58 1_555 1_555
H44 C58 1_555 1_555
C59 C58 1_555 1_555
H45 C59 1_555 1_555
H46 C59 1_555 1_555
H47 C59 1_555 1_555
C60 C48 1_555 1_555
H48 C60 1_555 1_555
H49 C60 1_555 1_555
C61 C60 1_555 1_555
H50 C61 1_555 1_555
H51 C61 1_555 1_555
C62 C61 1_555 1_555
H52 C62 1_555 1_555
H53 C62 1_555 1_555
H54 C62 1_555 1_555
C63 C52 1_555 1_555
H55 C63 1_555 1_555
H56 C63 1_555 1_555
C64 C63 1_555 1_555
H57 C64 1_555 1_555
H58 C64 1_555 1_555
C65 C64 1_555 1_555
H59 C65 1_555 1_555
H60 C65 1_555 1_555
H61 C65 1_555 1_555
C66 C56 1_555 1_555
H62 C66 1_555 1_555
H63 C66 1_555 1_555
C67 C66 1_555 1_555
H64 C67 1_555 1_555
H65 C67 1_555 1_555
C68 C67 1_555 1_555
H66 C68 1_555 1_555
H67 C68 1_555 1_555
H68 C68 1_555 1_555
N1 C69 1_555 1_555
N2 C75 1_555 1_555
N3 C77 1_555 1_555
N4 C78 1_555 1_555
N5 C83 1_555 1_555
N6 C91 1_555 1_555
N7 C74 1_555 1_555
N8 C96 1_555 1_555
C69 C70 1_555 1_555
C70 C71 1_555 1_555
C71 C72 1_555 1_555
C72 C73 1_555 1_555
C73 C74 1_555 1_555
C75 C70 1_555 1_555
C76 C71 1_555 1_555
C77 C76 1_555 1_555
C78 C76 1_555 1_555
C79 C72 1_555 1_555
C80 C79 1_555 1_555
C81 C80 1_555 1_555
H69 C81 1_555 1_555
C82 C81 1_555 1_555
H70 C82 1_555 1_555
C83 C82 1_555 1_555
C84 C83 1_555 1_555
H71 C84 1_555 1_555
C85 C80 1_555 1_555
H72 C85 1_555 1_555
C86 N5 1_555 1_555
H73 C86 1_555 1_555
H74 C86 1_555 1_555
H75 C86 1_555 1_555
C87 N5 1_555 1_555
H76 C87 1_555 1_555
H77 C87 1_555 1_555
H78 C87 1_555 1_555
C88 C79 1_555 1_555
C89 C88 1_555 1_555
H79 C89 1_555 1_555
C90 C89 1_555 1_555
H80 C90 1_555 1_555
C91 C90 1_555 1_555
C92 C91 1_555 1_555
H81 C92 1_555 1_555
C93 C88 1_555 1_555
H82 C93 1_555 1_555
C94 N6 1_555 1_555
H83 C94 1_555 1_555
H84 C94 1_555 1_555
H85 C94 1_555 1_555
C95 N6 1_555 1_555
H86 C95 1_555 1_555
H87 C95 1_555 1_555
H88 C95 1_555 1_555
C96 C73 1_555 1_555
C102 H101 1_555 1_555
H102 C102 1_555 1_555
H103 C102 1_555 1_555
C103 C102 1_555 1_555
H104 C103 1_555 1_555
H105 C103 1_555 1_555
C104 C103 1_555 1_555
H106 C104 1_555 1_555
H107 C104 1_555 1_555
C105 C104 1_555 1_555
H108 C105 1_555 1_555
H109 C105 1_555 1_555
C106 C105 1_555 1_555
H110 C106 1_555 1_555
H111 C106 1_555 1_555
H112 C106 1_555 1_555
C107 H113 1_555 1_555
H114 C107 1_555 1_555
H115 C107 1_555 1_555
C108 C107 1_555 1_555
H116 C108 1_555 1_555
H117 C108 1_555 1_555
C109 C108 1_555 1_555
H118 C109 1_555 1_555
H119 C109 1_555 1_555
C110 C109 1_555 1_555
H120 C110 1_555 1_555
H121 C110 1_555 1_555
C111 C110 1_555 1_555
H122 C111 1_555 1_555
H123 C111 1_555 1_555
H124 C111 1_555 1_555
C11 C12 1_555 1_555
C17 C18 1_555 1_555
C20 C21 1_555 1_555
C24 C25 1_555 1_555
C31 C32 1_555 1_555
C38 C39 1_555 1_555
C44 C45 1_555 1_555
C46 C47 1_555 1_555
C48 C49 1_555 1_555
C50 C51 1_555 1_555
C52 C53 1_555 1_555
C54 C55 1_555 1_555
C55 C56 1_555 1_555
C84 C85 1_555 1_555
C92 C93 1_555 1_555

#END
