
#######################################################################
#
#                 Cambridge Crystallographic Data Centre
#                                CCDC 
#
#######################################################################
#
# If this CIF has been generated from an entry in the Cambridge 
# Structural Database, then it will include bibliographic, chemical, 
# crystal, experimental, refinement or atomic coordinate data resulting 
# from the CCDC's data processing and validation procedures.
#
#######################################################################

data_KEGPUH
_chemical_formula_moiety         'C8 H15 N5,C8 H12 N2 O3'
_chemical_name_systematic        
'5-t-Butyl-2,4,6-triaminopyrimidine diethylbarbituric acid'
_symmetry_cell_setting           monoclinic
_symmetry_space_group_name_H-M   'C c'
_symmetry_Int_Tables_number      9
_space_group_name_Hall           'C -2yc'
loop_
_symmetry_equiv_pos_site_id
_symmetry_equiv_pos_as_xyz
1 x,y,z
2 1/2+x,1/2+y,z
3 x,-y,1/2+z
4 1/2+x,1/2-y,1/2+z
_cell_length_a                   16.230(5)
_cell_length_b                   10.088(3)
_cell_length_c                   13.554(4)
_cell_angle_alpha                90
_cell_angle_beta                 124.08(2)
_cell_angle_gamma                90
_cell_volume                     1838.04
_cell_formula_units_Z            4
loop_
_atom_site_label
_atom_site_type_symbol
_atom_site_fract_x
_atom_site_fract_y
_atom_site_fract_z
O1 O 1.446 -0.0941(4) 1.021
O2 O 1.1195(2) -0.1800(4) 0.7646(3)
O3 O 1.2017(2) 0.1676(4) 1.0074(3)
N1 N 1.2837(3) -0.1450(5) 0.8937(4)
N2 N 1.1614(3) 0.0007(5) 0.8791(4)
C1 C 1.3350(3) 0.0743(6) 1.0032(4)
C2 C 1.3577(3) -0.0613(7) 0.9755(4)
C3 C 1.1879(4) -0.1113(6) 0.8437(4)
C4 C 1.2291(4) 0.0847(7) 0.9675(5)
C5 C 1.4075(3) 0.1085(6) 1.1332(5)
C6 C 1.4029(5) 0.0141(8) 1.2182(5)
C7 C 1.3437(4) 0.1726(6) 0.9190(5)
C8 C 1.3224(6) 0.3159(7) 0.9271(6)
H1 H 1.3931 0.1955 1.1462
H2 H 1.4728 0.1060 1.1507
H3 H 1.4500 0.0409 1.2980
H4 H 1.3380 0.0161 1.2024
H5 H 1.4177 -0.0733 1.2069
H6 H 1.2981 0.1443 0.8391
H7 H 1.4096 0.1669 0.9382
H8 H 1.3294 0.3670 0.8734
H9 H 1.2563 0.3242 0.9069
H10 H 1.3678 0.3468 1.0061
H11 H 1.3000 -0.2258 0.8726
H12 H 1.0883 0.0048 0.8416
N3 N 0.8266(3) 0.1494(5) 0.7854(3)
N4 N 0.9488(3) 0.0328(5) 0.7798(4)
N5 N 0.6589(3) 0.1188(5) 0.6533(4)
N6 N 0.9924(3) 0.1903(5) 0.9246(4)
N7 N 0.9046(3) -0.1191(5) 0.6324(4)
C9 C 0.7728(3) -0.0026(6) 0.6264(4)
C10 C 0.7500(4) 0.0884(5) 0.6857(4)
C11 C 0.9221(4) 0.1235(6) 0.8286(4)
C12 C 0.8743(3) -0.0306(6) 0.6792(4)
C13 C 0.6897(4) -0.0634(7) 0.5071(5)
C14 C 0.6389(6) -0.179(1) 0.5182(7)
C15 C 0.665(1) -0.263(1) 0.5908(8)
C16 C 0.6056(7) -0.3769(8) 0.5959(7)
H13 H 0.7180 -0.0911 0.4653
H14 H 0.6412 0.0032 0.4624
H15 H 0.6157 -0.2271 0.4470
H16 H 0.5839 -0.1395 0.5144
H17 H 0.6897 -0.2160 0.6630
H18 H 0.7182 -0.3054 0.5933
H19 H 0.6476 -0.4277 0.6657
H20 H 0.5518 -0.3422 0.5973
H21 H 0.5803 -0.4315 0.5276
H22 H 0.6468 0.1866 0.7070
H23 H 0.5938 0.0886 0.5831
H24 H 1.0476 0.1631 0.9592
H25 H 0.9721 0.2467 0.9542
H26 H 0.8634 -0.1468 0.5875
H27? H 1.0060 -0.1302 0.7033
loop_
_geom_bond_atom_site_label_1
_geom_bond_atom_site_label_2
_geom_bond_site_symmetry_1
_geom_bond_site_symmetry_2
O1 C2 1_555 1_555
O2 C3 1_555 1_555
O3 C4 1_555 1_555
N1 C2 1_555 1_555
N2 C3 1_555 1_555
C1 C2 1_555 1_555
C3 N1 1_555 1_555
C4 N2 1_555 1_555
C5 C1 1_555 1_555
C6 C5 1_555 1_555
C7 C1 1_555 1_555
C8 C7 1_555 1_555
H1 C5 1_555 1_555
H2 C5 1_555 1_555
H3 C6 1_555 1_555
H4 C6 1_555 1_555
H5 C6 1_555 1_555
H6 C7 1_555 1_555
H7 C7 1_555 1_555
H8 C8 1_555 1_555
H9 C8 1_555 1_555
H10 C8 1_555 1_555
H11 N1 1_555 1_555
H12 N2 1_555 1_555
N3 C10 1_555 1_555
N4 C11 1_555 1_555
N5 C10 1_555 1_555
N6 C11 1_555 1_555
N7 C12 1_555 1_555
C9 C10 1_555 1_555
C11 N3 1_555 1_555
C12 N4 1_555 1_555
C13 C9 1_555 1_555
C14 C13 1_555 1_555
C15 C14 1_555 1_555
C16 C15 1_555 1_555
H13 C13 1_555 1_555
H14 C13 1_555 1_555
H15 C14 1_555 1_555
H16 C14 1_555 1_555
H17 C15 1_555 1_555
H18 C15 1_555 1_555
H19 C16 1_555 1_555
H20 C16 1_555 1_555
H21 C16 1_555 1_555
H22 N5 1_555 1_555
H23 N5 1_555 1_555
H24 N6 1_555 1_555
H25 N6 1_555 1_555
H26 N7 1_555 1_555
C1 C4 1_555 1_555
C9 C12 1_555 1_555

#END
