
#######################################################################
#
#                 Cambridge Crystallographic Data Centre
#                                CCDC 
#
#######################################################################
#
# If this CIF has been generated from an entry in the Cambridge 
# Structural Database, then it will include bibliographic, chemical, 
# crystal, experimental, refinement or atomic coordinate data resulting 
# from the CCDC's data processing and validation procedures.
#
#######################################################################

data_KEGPAQ
_chemical_formula_moiety         'C24 H26 N2 O2 S1'
_chemical_name_systematic        
(S)-N-(2-(1-(4-(dimethylamino)phenyl)allyl)phenyl)-4-methylbenzenesulfonamide
_symmetry_cell_setting           orthorhombic
_symmetry_space_group_name_H-M   'P 21 21 21'
_symmetry_Int_Tables_number      19
_space_group_name_Hall           'P 2ac 2ab'
loop_
_symmetry_equiv_pos_site_id
_symmetry_equiv_pos_as_xyz
1 x,y,z
2 1/2-x,-y,1/2+z
3 -x,1/2+y,1/2-z
4 1/2+x,1/2-y,-z
_cell_length_a                   9.3681(3)
_cell_length_b                   9.6820(3)
_cell_length_c                   23.6969(7)
_cell_angle_alpha                90
_cell_angle_beta                 90
_cell_angle_gamma                90
_cell_volume                     2149.35
_exptl_crystal_colour            colorless
_exptl_crystal_description       block
_chemical_melting_point          '424-425 K'
_cell_formula_units_Z            4
_exptl_crystal_recrystallization_method 'dichloromethane/petroleum ether'
loop_
_atom_site_label
_atom_site_type_symbol
_atom_site_fract_x
_atom_site_fract_y
_atom_site_fract_z
S1 S 0.42851(6) 0.31236(6) 0.71222(2)
H1 H 0.586(3) 0.463(3) 0.7234(10)
C1 C 0.6959(3) 0.6018(4) 0.35311(11)
H2 H 0.7140 0.6428 0.3169
H3 H 0.6018 0.6267 0.3656
H4 H 0.7025 0.5031 0.3501
O1 O 0.3460(2) 0.39359(18) 0.75037(7)
N1 N 0.7998(3) 0.6508(3) 0.39328(8)
N2 N 0.5895(2) 0.3769(2) 0.71613(7)
O2 O 0.43891(19) 0.16658(16) 0.71974(8)
C2 C 0.9400(3) 0.6773(4) 0.37155(11)
H5 H 0.9337 0.7006 0.3323
H6 H 0.9980 0.5963 0.3760
H7 H 0.9823 0.7527 0.3919
C3 C 0.8639(2) 0.6529(3) 0.54709(9)
H8 H 0.9319 0.6872 0.5720
C4 C 0.8822(3) 0.6742(3) 0.48981(9)
H9 H 0.9629 0.7206 0.4771
C5 C 0.7815(2) 0.6271(2) 0.45077(9)
C6 C 0.6625(2) 0.5597(3) 0.47235(9)
H10 H 0.5920 0.5289 0.4478
C7 C 0.6469(2) 0.5375(2) 0.52951(10)
H11 H 0.5664 0.4911 0.5424
C8 C 0.7300(2) 0.5490(2) 0.63079(9)
H12 H 0.6275 0.5530 0.6388
C9 C 0.7475(2) 0.5823(2) 0.56839(8)
C10 C 0.7996(3) 0.6552(3) 0.66808(10)
H13 H 0.7657 0.7451 0.6651
C11 C 0.9026(4) 0.6343(4) 0.70426(12)
H14 H 0.9403 0.5462 0.7089
H15 H 0.9382 0.7076 0.7254
C12 C 0.7781(2) 0.4026(2) 0.64466(9)
C13 C 0.7081(2) 0.3224(2) 0.68475(8)
C14 C 0.7544(3) 0.1899(3) 0.69702(9)
H16 H 0.7055 0.1365 0.7233
C15 C 0.8733(3) 0.1370(3) 0.67012(12)
H17 H 0.9036 0.0476 0.6779
C16 C 0.9469(3) 0.2167(3) 0.63177(13)
H18 H 1.0286 0.1824 0.6145
C17 C 0.8989(2) 0.3470(3) 0.61927(11)
H19 H 0.9486 0.3997 0.5930
C18 C 0.2974(3) 0.4664(3) 0.63170(11)
H20 H 0.2849 0.5317 0.6601
C19 C 0.2483(3) 0.4923(3) 0.57805(12)
H21 H 0.2036 0.5760 0.5704
C20 C 0.2637(3) 0.3964(3) 0.53524(12)
C21 C 0.3324(3) 0.2743(3) 0.54754(12)
H22 H 0.3449 0.2092 0.5191
C22 C 0.3835(3) 0.2458(3) 0.60135(11)
H23 H 0.4292 0.1626 0.6090
C23 C 0.3653(2) 0.3435(2) 0.64327(10)
C24 C 0.2073(4) 0.4256(5) 0.47676(15)
H24 H 0.2665 0.4935 0.4588
H25 H 0.1113 0.4598 0.4794
H26 H 0.2081 0.3420 0.4550
loop_
_geom_bond_atom_site_label_1
_geom_bond_atom_site_label_2
_geom_bond_site_symmetry_1
_geom_bond_site_symmetry_2
S1 O1 1_555 1_555
H1 N2 1_555 1_555
C1 H2 1_555 1_555
H3 C1 1_555 1_555
H4 C1 1_555 1_555
N1 C1 1_555 1_555
N2 S1 1_555 1_555
O2 S1 1_555 1_555
C2 N1 1_555 1_555
H5 C2 1_555 1_555
H6 C2 1_555 1_555
H7 C2 1_555 1_555
C3 H8 1_555 1_555
C4 C3 1_555 1_555
H9 C4 1_555 1_555
C5 N1 1_555 1_555
C6 C5 1_555 1_555
H10 C6 1_555 1_555
C7 C6 1_555 1_555
H11 C7 1_555 1_555
C8 H12 1_555 1_555
C9 C3 1_555 1_555
C10 C8 1_555 1_555
H13 C10 1_555 1_555
C11 C10 1_555 1_555
H14 C11 1_555 1_555
H15 C11 1_555 1_555
C12 C8 1_555 1_555
C13 N2 1_555 1_555
C14 C13 1_555 1_555
H16 C14 1_555 1_555
C15 C14 1_555 1_555
H17 C15 1_555 1_555
C16 C15 1_555 1_555
H18 C16 1_555 1_555
C17 C12 1_555 1_555
H19 C17 1_555 1_555
C18 H20 1_555 1_555
C19 C18 1_555 1_555
H21 C19 1_555 1_555
C20 C19 1_555 1_555
C21 C20 1_555 1_555
H22 C21 1_555 1_555
C22 C21 1_555 1_555
H23 C22 1_555 1_555
C23 S1 1_555 1_555
C24 C20 1_555 1_555
H24 C24 1_555 1_555
H25 C24 1_555 1_555
H26 C24 1_555 1_555
C4 C5 1_555 1_555
C7 C9 1_555 1_555
C8 C9 1_555 1_555
C12 C13 1_555 1_555
C16 C17 1_555 1_555
C18 C23 1_555 1_555
C22 C23 1_555 1_555

#END
