
#######################################################################
#
#                 Cambridge Crystallographic Data Centre
#                                CCDC 
#
#######################################################################
#
# If this CIF has been generated from an entry in the Cambridge 
# Structural Database, then it will include bibliographic, chemical, 
# crystal, experimental, refinement or atomic coordinate data resulting 
# from the CCDC's data processing and validation procedures.
#
#######################################################################

data_KEGPUK
_chemical_formula_moiety         'C34 H31 Br1 N2 O4'
_chemical_name_systematic        
'ethyl syn-(S*)-1-benzyl-4-((R*)-1-((4-bromophenyl)amino)-2-methoxy-2-oxo-1-phenylethyl)-1,4-dihydroquinoline-3-carboxylate'
_symmetry_cell_setting           triclinic
_symmetry_space_group_name_H-M   'P -1'
_symmetry_Int_Tables_number      2
_space_group_name_Hall           '-P 1'
loop_
_symmetry_equiv_pos_site_id
_symmetry_equiv_pos_as_xyz
1 x,y,z
2 -x,-y,-z
_cell_length_a                   9.9071(4)
_cell_length_b                   12.2529(5)
_cell_length_c                   13.6988(6)
_cell_angle_alpha                98.6550(10)
_cell_angle_beta                 110.9480(10)
_cell_angle_gamma                98.9300(10)
_cell_volume                     1495.45
_exptl_crystal_colour            colorless
_exptl_crystal_description       block
_cell_formula_units_Z            2
loop_
_atom_site_label
_atom_site_type_symbol
_atom_site_fract_x
_atom_site_fract_y
_atom_site_fract_z
Br1 Br 0.64597(4) 0.42684(3) 0.30648(3)
O1 O 0.0737(2) 0.39366(16) 0.73613(15)
O2 O 0.0196(2) 0.29432(16) 0.57007(15)
O3 O 0.4099(2) -0.01069(16) 0.56897(14)
O4 O 0.21429(19) 0.03138(15) 0.45143(13)
N1 N 0.3021(2) 0.24866(17) 0.55977(15)
H1 H 0.2295 0.2792 0.5593
N2 N 0.3028(2) 0.17936(18) 0.88113(15)
C1 C 0.1386(3) 0.1722(3) 1.0231(3)
H2 H 0.0904 0.1876 0.9565
C2 C 0.0592(4) 0.1447(4) 1.0840(3)
H3 H -0.0423 0.1414 1.0578
C3 C 0.1275(4) 0.1222(3) 1.1822(2)
H4 H 0.0735 0.1039 1.2231
C4 C 0.2759(3) 0.1270(3) 1.2195(2)
H5 H 0.3233 0.1117 1.2863
C5 C 0.3564(3) 0.1541(2) 1.1596(2)
H6 H 0.4577 0.1570 1.1863
C6 C 0.2885(3) 0.1772(2) 1.0602(2)
C7 C 0.3810(3) 0.2115(3) 0.9980(2)
H7 H 0.4178 0.2931 1.0193
H8 H 0.4663 0.1774 1.0180
C8 C 0.2397(3) 0.2544(2) 0.82720(19)
H9 H 0.2409 0.3233 0.8670
C9 C 0.1756(3) 0.2353(2) 0.71980(19)
C10 C 0.1927(3) 0.1330(2) 0.65339(18)
H10 H 0.1029 0.1073 0.5874
C11 C 0.2036(2) 0.0388(2) 0.71384(18)
C12 C 0.2686(3) 0.0655(2) 0.8263(2)
C13 C 0.2932(3) -0.0216(2) 0.8811(2)
H11 H 0.3395 -0.0044 0.9555
C14 C 0.2490(3) -0.1325(2) 0.8252(2)
H12 H 0.2672 -0.1899 0.8622
C15 C 0.1780(3) -0.1601(2) 0.7148(2)
H13 H 0.1455 -0.2355 0.6777
C16 C 0.1560(3) -0.0742(2) 0.6607(2)
H14 H 0.1078 -0.0926 0.5864
C17 C 0.5511(3) 0.1299(2) 0.7754(2)
H15 H 0.5151 0.0520 0.7501
C18 C 0.6787(3) 0.1715(3) 0.8674(2)
H16 H 0.7283 0.1216 0.9030
C19 C 0.7320(4) 0.2856(4) 0.9060(3)
H17 H 0.8180 0.3134 0.9677
C20 C 0.6584(4) 0.3594(3) 0.8537(3)
H18 H 0.6941 0.4371 0.8805
C21 C 0.5316(3) 0.3182(2) 0.7613(2)
H19 H 0.4829 0.3688 0.7262
C22 C 0.4758(3) 0.2030(2) 0.72022(19)
C23 C 0.3837(3) 0.2861(2) 0.50279(19)
C24 C 0.5154(3) 0.2561(2) 0.5084(2)
H20 H 0.5522 0.2074 0.5519
C25 C 0.5931(3) 0.2975(2) 0.4503(2)
H21 H 0.6807 0.2762 0.4544
C26 C 0.5396(3) 0.3700(2) 0.3867(2)
C27 C 0.4099(3) 0.4017(2) 0.3797(2)
H22 H 0.3744 0.4510 0.3364
C28 C 0.3332(3) 0.3602(2) 0.4372(2)
H23 H 0.2455 0.3819 0.4322
C29 C 0.0837(3) 0.3087(2) 0.6667(2)
C30 C -0.0230(4) 0.4661(3) 0.6921(3)
H24 H -0.1252 0.4233 0.6578
H25 H 0.0042 0.4978 0.6392
C31 C -0.0058(4) 0.5574(3) 0.7823(3)
H26 H -0.0683 0.6079 0.7559
H27 H 0.0958 0.5987 0.8158
H28 H -0.0339 0.5250 0.8337
C32 C 0.3283(3) 0.0515(2) 0.54678(19)
C33 C 0.2009(3) -0.0704(2) 0.3768(2)
H29 H 0.1175 -0.0783 0.3110
H30 H 0.1867 -0.1349 0.4070
H31 H 0.2897 -0.0655 0.3628
C34 C 0.3311(3) 0.1612(2) 0.62026(18)
loop_
_geom_bond_atom_site_label_1
_geom_bond_atom_site_label_2
_geom_bond_site_symmetry_1
_geom_bond_site_symmetry_2
Br1 C26 1_555 1_555
O1 C29 1_555 1_555
O2 C29 1_555 1_555
O3 C32 1_555 1_555
O4 C32 1_555 1_555
N1 H1 1_555 1_555
N2 C7 1_555 1_555
C1 H2 1_555 1_555
C2 C1 1_555 1_555
H3 C2 1_555 1_555
C3 C2 1_555 1_555
H4 C3 1_555 1_555
C4 C3 1_555 1_555
H5 C4 1_555 1_555
C5 C4 1_555 1_555
H6 C5 1_555 1_555
C6 C1 1_555 1_555
C7 C6 1_555 1_555
H7 C7 1_555 1_555
H8 C7 1_555 1_555
C8 N2 1_555 1_555
H9 C8 1_555 1_555
C9 C8 1_555 1_555
C10 C9 1_555 1_555
H10 C10 1_555 1_555
C11 C10 1_555 1_555
C12 N2 1_555 1_555
C13 C12 1_555 1_555
H11 C13 1_555 1_555
C14 C13 1_555 1_555
H12 C14 1_555 1_555
C15 C14 1_555 1_555
H13 C15 1_555 1_555
C16 C11 1_555 1_555
H14 C16 1_555 1_555
C17 H15 1_555 1_555
C18 C17 1_555 1_555
H16 C18 1_555 1_555
C19 C18 1_555 1_555
H17 C19 1_555 1_555
C20 C19 1_555 1_555
H18 C20 1_555 1_555
C21 C20 1_555 1_555
H19 C21 1_555 1_555
C22 C17 1_555 1_555
C23 N1 1_555 1_555
C24 C23 1_555 1_555
H20 C24 1_555 1_555
C25 C24 1_555 1_555
H21 C25 1_555 1_555
C26 C25 1_555 1_555
C27 C26 1_555 1_555
H22 C27 1_555 1_555
C28 C23 1_555 1_555
H23 C28 1_555 1_555
C29 C9 1_555 1_555
C30 O1 1_555 1_555
H24 C30 1_555 1_555
H25 C30 1_555 1_555
C31 C30 1_555 1_555
H26 C31 1_555 1_555
H27 C31 1_555 1_555
H28 C31 1_555 1_555
C32 C34 1_555 1_555
C33 O4 1_555 1_555
H29 C33 1_555 1_555
H30 C33 1_555 1_555
H31 C33 1_555 1_555
C34 N1 1_555 1_555
C5 C6 1_555 1_555
C10 C34 1_555 1_555
C11 C12 1_555 1_555
C15 C16 1_555 1_555
C21 C22 1_555 1_555
C22 C34 1_555 1_555
C27 C28 1_555 1_555

#END
