
#######################################################################
#
#                 Cambridge Crystallographic Data Centre
#                                CCDC 
#
#######################################################################
#
# If this CIF has been generated from an entry in the Cambridge 
# Structural Database, then it will include bibliographic, chemical, 
# crystal, experimental, refinement or atomic coordinate data resulting 
# from the CCDC's data processing and validation procedures.
#
#######################################################################

data_KEGQEV
_chemical_formula_moiety         'C31 H26 Br2 N2 O2'
_chemical_name_systematic        
'methyl syn-(2S*,4R*,5R*)-1-benzyl-6-bromo-3-(4-bromophenyl)-4-phenyl-2,3,4,5-tetrahydro-1H-2,5-methano-1,3-benzodiazepine-4-carboxylate'
_symmetry_cell_setting           monoclinic
_symmetry_space_group_name_H-M   'P 21/n'
_symmetry_Int_Tables_number      14
_space_group_name_Hall           '-P 2yn'
loop_
_symmetry_equiv_pos_site_id
_symmetry_equiv_pos_as_xyz
1 x,y,z
2 1/2-x,1/2+y,1/2-z
3 -x,-y,-z
4 1/2+x,1/2-y,1/2+z
_cell_length_a                   9.7785(7)
_cell_length_b                   24.6674(17)
_cell_length_c                   11.7616(8)
_cell_angle_alpha                90
_cell_angle_beta                 112.190(2)
_cell_angle_gamma                90
_cell_volume                     2626.9
_exptl_crystal_colour            colorless
_exptl_crystal_description       block
_cell_formula_units_Z            4
loop_
_atom_site_label
_atom_site_type_symbol
_atom_site_fract_x
_atom_site_fract_y
_atom_site_fract_z
Br1 Br 0.93767(4) 0.219476(15) 0.61981(3)
Br2 Br 1.13143(5) 0.094258(19) 1.52891(3)
O1 O 0.7323(2) 0.06396(10) 0.9051(2)
O2 O 0.7014(2) 0.10048(9) 0.72423(19)
N1 N 1.2783(3) 0.08956(10) 0.9694(2)
N2 N 1.0382(3) 0.08634(10) 0.9877(2)
C1 C 1.0404(4) 0.20411(13) 1.0083(3)
H1 H 1.1303 0.1860 1.0410
C2 C 1.0298(4) 0.25683(15) 1.0429(3)
H2 H 1.1123 0.2739 1.0996
C3 C 0.8984(4) 0.28436(15) 0.9942(4)
H3 H 0.8913 0.3199 1.0180
C4 C 0.7780(4) 0.25908(15) 0.9104(4)
H4 H 0.6893 0.2778 0.8758
C5 C 0.7869(4) 0.20612(13) 0.8768(3)
H5 H 0.7035 0.1892 0.8211
C6 C 0.9179(3) 0.17775(12) 0.9248(3)
C7 C 1.0549(3) 0.08747(12) 1.1107(3)
C8 C 0.9500(3) 0.10997(14) 1.1511(3)
H6 H 0.8630 0.1240 1.0936
C9 C 0.9722(4) 0.11184(14) 1.2733(3)
H7 H 0.9014 0.1275 1.2980
C10 C 1.0988(4) 0.09061(13) 1.3591(3)
C11 C 1.2036(4) 0.06695(13) 1.3234(3)
H8 H 1.2885 0.0520 1.3816
C12 C 1.1817(3) 0.06559(13) 1.2003(3)
H9 H 1.2530 0.0497 1.1765
C13 C 1.5094(3) 0.07826(13) 1.1590(3)
C14 C 1.4981(4) 0.12894(15) 1.2044(3)
H10 H 1.4326 0.1541 1.1536
C15 C 1.5826(5) 0.14265(18) 1.3240(4)
H11 H 1.5747 0.1771 1.3531
C16 C 1.6780(5) 0.1057(2) 1.4001(4)
H12 H 1.7343 0.1149 1.4810
C17 C 1.6904(5) 0.05525(19) 1.3567(4)
H13 H 1.7547 0.0300 1.4084
C18 C 1.6082(4) 0.04192(15) 1.2374(3)
H14 H 1.6189 0.0077 1.2084
C19 C 0.7783(3) 0.09083(12) 0.8428(3)
C20 C 0.5550(4) 0.07713(17) 0.6735(3)
H15 H 0.5095 0.0863 0.5880
H16 H 0.4965 0.0911 0.7165
H17 H 0.5619 0.0384 0.6822
C21 C 1.2681(3) 0.13380(12) 0.8930(3)
C22 C 1.3928(4) 0.16412(14) 0.9020(3)
H18 H 1.4856 0.1536 0.9569
C23 C 1.3787(4) 0.20929(15) 0.8301(3)
H19 H 1.4628 0.2288 0.8370
C24 C 1.2441(4) 0.22639(14) 0.7487(3)
H20 H 1.2356 0.2576 0.7021
C25 C 1.1217(3) 0.19599(13) 0.7381(3)
C26 C 1.1281(3) 0.14964(12) 0.8063(2)
C27 C 0.9974(3) 0.11335(12) 0.7862(2)
H21 H 0.9215 0.1180 0.7038
C28 C 0.9310(3) 0.11904(12) 0.8883(2)
C29 C 1.1412(3) 0.05835(12) 0.9447(3)
H22 H 1.1636 0.0220 0.9808
C30 C 1.0534(3) 0.05493(12) 0.8086(3)
H23 H 0.9731 0.0290 0.7890
H24 H 1.1151 0.0461 0.7632
C31 C 1.4186(3) 0.06142(13) 1.0284(3)
H25 H 1.4776 0.0670 0.9791
H26 H 1.3988 0.0229 1.0279
loop_
_geom_bond_atom_site_label_1
_geom_bond_atom_site_label_2
_geom_bond_site_symmetry_1
_geom_bond_site_symmetry_2
Br1 C25 1_555 1_555
Br2 C10 1_555 1_555
O1 C19 1_555 1_555
O2 C19 1_555 1_555
N1 C21 1_555 1_555
N2 C7 1_555 1_555
C1 H1 1_555 1_555
C2 C1 1_555 1_555
H2 C2 1_555 1_555
C3 C2 1_555 1_555
H3 C3 1_555 1_555
C4 C3 1_555 1_555
H4 C4 1_555 1_555
C5 C4 1_555 1_555
H5 C5 1_555 1_555
C6 C1 1_555 1_555
C7 C8 1_555 1_555
C8 H6 1_555 1_555
C9 C8 1_555 1_555
H7 C9 1_555 1_555
C10 C9 1_555 1_555
C11 C10 1_555 1_555
H8 C11 1_555 1_555
C12 C7 1_555 1_555
H9 C12 1_555 1_555
C13 C14 1_555 1_555
C14 H10 1_555 1_555
C15 C14 1_555 1_555
H11 C15 1_555 1_555
C16 C15 1_555 1_555
H12 C16 1_555 1_555
C17 C16 1_555 1_555
H13 C17 1_555 1_555
C18 C13 1_555 1_555
H14 C18 1_555 1_555
C19 C28 1_555 1_555
C20 O2 1_555 1_555
H15 C20 1_555 1_555
H16 C20 1_555 1_555
H17 C20 1_555 1_555
C21 C22 1_555 1_555
C22 H18 1_555 1_555
C23 C22 1_555 1_555
H19 C23 1_555 1_555
C24 C23 1_555 1_555
H20 C24 1_555 1_555
C25 C24 1_555 1_555
C26 C21 1_555 1_555
C27 C26 1_555 1_555
H21 C27 1_555 1_555
C28 N2 1_555 1_555
C29 N1 1_555 1_555
H22 C29 1_555 1_555
C30 C27 1_555 1_555
H23 C30 1_555 1_555
H24 C30 1_555 1_555
C31 N1 1_555 1_555
H25 C31 1_555 1_555
H26 C31 1_555 1_555
N2 C29 1_555 1_555
C5 C6 1_555 1_555
C6 C28 1_555 1_555
C11 C12 1_555 1_555
C13 C31 1_555 1_555
C17 C18 1_555 1_555
C25 C26 1_555 1_555
C27 C28 1_555 1_555
C29 C30 1_555 1_555

#END
