
#######################################################################
#
#                 Cambridge Crystallographic Data Centre
#                                CCDC 
#
#######################################################################
#
# If this CIF has been generated from an entry in the Cambridge 
# Structural Database, then it will include bibliographic, chemical, 
# crystal, experimental, refinement or atomic coordinate data resulting 
# from the CCDC's data processing and validation procedures.
#
#######################################################################

data_KEGQAR
_chemical_formula_moiety         'C31 H26 Br2 N2 O2'
_chemical_name_systematic        
'methyl anti-(2R*,4R*,5S*)-1-benzyl-6-bromo-3-(4-bromophenyl)-4-phenyl-2,3,4,5-tetrahydro-1H-2,5-methano-1,3-benzodiazepine-4-carboxylate'
_symmetry_cell_setting           monoclinic
_symmetry_space_group_name_H-M   'P 21/n'
_symmetry_Int_Tables_number      14
_space_group_name_Hall           '-P 2yn'
loop_
_symmetry_equiv_pos_site_id
_symmetry_equiv_pos_as_xyz
1 x,y,z
2 1/2-x,1/2+y,1/2-z
3 -x,-y,-z
4 1/2+x,1/2-y,1/2+z
_cell_length_a                   9.5613(3)
_cell_length_b                   19.4003(7)
_cell_length_c                   14.4881(5)
_cell_angle_alpha                90
_cell_angle_beta                 95.3850(10)
_cell_angle_gamma                90
_cell_volume                     2675.57
_exptl_crystal_colour            colorless
_exptl_crystal_description       block
_cell_formula_units_Z            4
loop_
_atom_site_label
_atom_site_type_symbol
_atom_site_fract_x
_atom_site_fract_y
_atom_site_fract_z
Br1 Br 0.90006(4) 0.14117(3) 0.45608(3)
Br2 Br 0.06789(6) 0.45971(3) 0.64402(4)
N1 N 0.4967(3) 0.30068(16) 0.30197(19)
N2 N 0.3968(3) 0.25164(14) 0.43707(18)
O1 O 0.6650(3) 0.22553(16) 0.62185(19)
O2 O 0.6331(3) 0.30913(14) 0.51755(17)
C1 C 0.5310(4) 0.0959(2) 0.5782(3)
H1 H 0.6276 0.1029 0.5827
C2 C 0.4773(5) 0.0380(2) 0.6178(3)
H2 H 0.5381 0.0067 0.6492
C3 C 0.3341(5) 0.0264(2) 0.6111(3)
H3 H 0.2979 -0.0122 0.6387
C4 C 0.2465(4) 0.0724(2) 0.5634(3)
H4 H 0.1502 0.0644 0.5572
C5 C 0.2992(4) 0.13079(18) 0.5241(2)
H5 H 0.2377 0.1616 0.4923
C6 C 0.4421(3) 0.14404(18) 0.5315(2)
C7 C 0.3214(3) 0.29968(17) 0.4837(2)
C8 C 0.3154(4) 0.29524(18) 0.5796(2)
H6 H 0.3634 0.2600 0.6125
C9 C 0.2397(4) 0.34206(19) 0.6261(3)
H7 H 0.2378 0.3386 0.6900
C10 C 0.1670(4) 0.3937(2) 0.5783(3)
C11 C 0.1703(4) 0.3993(2) 0.4837(3)
H8 H 0.1206 0.4343 0.4514
C12 C 0.2471(4) 0.35298(19) 0.4369(3)
H9 H 0.2493 0.3574 0.3731
C13 C 0.4432(5) 0.3484(2) 0.2293(3)
H10 H 0.3461 0.3365 0.2105
H11 H 0.4959 0.3415 0.1760
C14 C 0.4497(4) 0.4238(2) 0.2548(3)
C15 C 0.3974(4) 0.4713(2) 0.1885(3)
H12 H 0.3594 0.4557 0.1308
C16 C 0.4009(5) 0.5408(3) 0.2068(4)
H13 H 0.3648 0.5718 0.1617
C17 C 0.4572(6) 0.5646(3) 0.2909(5)
H14 H 0.4614 0.6117 0.3026
C18 C 0.5073(6) 0.5189(3) 0.3578(4)
H15 H 0.5442 0.5350 0.4154
C19 C 0.5033(5) 0.4484(2) 0.3400(3)
H16 H 0.5372 0.4176 0.3860
C20 C 0.6089(3) 0.2472(2) 0.5506(2)
C21 C 0.7555(5) 0.3455(3) 0.5587(3)
H17 H 0.7619 0.3896 0.5291
H18 H 0.8383 0.3191 0.5507
H19 H 0.7475 0.3522 0.6237
C22 C 0.4007(4) 0.24988(18) 0.3368(2)
H20 H 0.3060 0.2550 0.3053
C23 C 0.4553(4) 0.17775(19) 0.3243(2)
H21 H 0.4854 0.1708 0.2629
H22 H 0.3866 0.1430 0.3366
C24 C 0.5788(3) 0.17896(19) 0.3988(2)
H23 H 0.6181 0.1328 0.4104
C25 C 0.5034(3) 0.20613(17) 0.4841(2)
C26 C 0.6402(4) 0.2862(2) 0.3146(2)
C27 C 0.7391(5) 0.3287(2) 0.2784(3)
H24 H 0.7095 0.3670 0.2432
C28 C 0.8802(5) 0.3145(3) 0.2942(3)
H25 H 0.9443 0.3432 0.2688
C29 C 0.9286(4) 0.2595(3) 0.3462(3)
H26 H 1.0243 0.2507 0.3574
C30 C 0.8306(4) 0.2172(2) 0.3816(2)
C31 C 0.6863(4) 0.22762(19) 0.3662(2)
loop_
_geom_bond_atom_site_label_1
_geom_bond_atom_site_label_2
_geom_bond_site_symmetry_1
_geom_bond_site_symmetry_2
Br1 C30 1_555 1_555
Br2 C10 1_555 1_555
N1 C13 1_555 1_555
N2 C7 1_555 1_555
O1 C20 1_555 1_555
O2 C20 1_555 1_555
C1 H1 1_555 1_555
C2 C1 1_555 1_555
H2 C2 1_555 1_555
C3 C2 1_555 1_555
H3 C3 1_555 1_555
C4 C3 1_555 1_555
H4 C4 1_555 1_555
C5 C4 1_555 1_555
H5 C5 1_555 1_555
C6 C1 1_555 1_555
C7 C8 1_555 1_555
C8 H6 1_555 1_555
C9 C8 1_555 1_555
H7 C9 1_555 1_555
C10 C9 1_555 1_555
C11 C10 1_555 1_555
H8 C11 1_555 1_555
C12 C7 1_555 1_555
H9 C12 1_555 1_555
C13 H10 1_555 1_555
H11 C13 1_555 1_555
C14 C13 1_555 1_555
C15 C14 1_555 1_555
H12 C15 1_555 1_555
C16 C15 1_555 1_555
H13 C16 1_555 1_555
C17 C16 1_555 1_555
H14 C17 1_555 1_555
C18 C17 1_555 1_555
H15 C18 1_555 1_555
C19 C14 1_555 1_555
H16 C19 1_555 1_555
C20 C25 1_555 1_555
C21 O2 1_555 1_555
H17 C21 1_555 1_555
H18 C21 1_555 1_555
H19 C21 1_555 1_555
C22 N1 1_555 1_555
H20 C22 1_555 1_555
C23 C22 1_555 1_555
H21 C23 1_555 1_555
H22 C23 1_555 1_555
C24 C23 1_555 1_555
H23 C24 1_555 1_555
C25 N2 1_555 1_555
C26 N1 1_555 1_555
C27 C26 1_555 1_555
H24 C27 1_555 1_555
C28 C27 1_555 1_555
H25 C28 1_555 1_555
C29 C28 1_555 1_555
H26 C29 1_555 1_555
C30 C29 1_555 1_555
C31 C24 1_555 1_555
N2 C22 1_555 1_555
C5 C6 1_555 1_555
C6 C25 1_555 1_555
C11 C12 1_555 1_555
C18 C19 1_555 1_555
C24 C25 1_555 1_555
C26 C31 1_555 1_555
C30 C31 1_555 1_555

#END
