
#######################################################################
#
#                 Cambridge Crystallographic Data Centre
#                                CCDC 
#
#######################################################################
#
# If this CIF has been generated from an entry in the Cambridge 
# Structural Database, then it will include bibliographic, chemical, 
# crystal, experimental, refinement or atomic coordinate data resulting 
# from the CCDC's data processing and validation procedures.
#
#######################################################################

data_KEGRIA
_chemical_formula_moiety         'C46 H36 B1 N1'
_chemical_name_systematic        
6-(4-(10-phenylanthracen-9-yl)phenyl)-6-(2,4,6-trimethylphenyl)-6H-pyrido[1,2-b][2,1]benzazaborole-5-ium-6-ide
_symmetry_cell_setting           monoclinic
_symmetry_space_group_name_H-M   'P 21/c'
_symmetry_Int_Tables_number      14
_space_group_name_Hall           '-P 2ybc'
loop_
_symmetry_equiv_pos_site_id
_symmetry_equiv_pos_as_xyz
1 x,y,z
2 -x,1/2+y,1/2-z
3 -x,-y,-z
4 x,1/2-y,1/2+z
_cell_length_a                   11.7400(8)
_cell_length_b                   19.9773(15)
_cell_length_c                   15.4637(11)
_cell_angle_alpha                90
_cell_angle_beta                 110.826(3)
_cell_angle_gamma                90
_cell_volume                     3389.8
_exptl_crystal_colour            yellow
_exptl_crystal_description       plate
_cell_formula_units_Z            4
loop_
_atom_site_label
_atom_site_type_symbol
_atom_site_fract_x
_atom_site_fract_y
_atom_site_fract_z
B1 B 0.58970(18) 0.14314(9) 0.17613(15)
N1 N 0.63922(13) 0.18781(7) 0.27171(11)
C1 C 0.72079(16) 0.11175(8) 0.18668(13)
C2 C 0.75564(18) 0.06650(9) 0.13223(16)
H1 H 0.6968 0.0503 0.0764
C3 C 0.8753(2) 0.04491(11) 0.15872(18)
H2 H 0.8974 0.0135 0.1213
C4 C 0.9629(2) 0.06850(11) 0.23899(19)
H3 H 1.0445 0.0531 0.2564
C5 C 0.93252(19) 0.11422(11) 0.29391(17)
H4 H 0.9925 0.1312 0.3486
C6 C 0.81151(16) 0.13500(9) 0.26714(14)
C7 C 0.76089(17) 0.18139(9) 0.31670(13)
C8 C 0.8194(2) 0.21706(11) 0.39691(15)
H5 H 0.9051 0.2133 0.4275
C9 C 0.7518(2) 0.25827(11) 0.43212(16)
H6 H 0.7906 0.2832 0.4871
C10 C 0.6272(2) 0.26289(11) 0.38674(16)
H7 H 0.5794 0.2904 0.4107
C11 C 0.57323(18) 0.22715(10) 0.30655(15)
H8 H 0.4876 0.2303 0.2752
C12 C 0.52350(15) 0.19041(8) 0.08615(13)
C13 C 0.43427(17) 0.16325(9) 0.00632(14)
C14 C 0.35879(18) 0.20497(10) -0.06261(14)
H9 H 0.2993 0.1853 -0.1154
C15 C 0.36753(19) 0.27404(10) -0.05677(15)
C16 C 0.46519(18) 0.30039(10) 0.01505(14)
H10 H 0.4785 0.3474 0.0174
C17 C 0.54448(17) 0.26018(9) 0.08390(14)
C18 C 0.4171(2) 0.08897(10) -0.01239(16)
H11 H 0.4082 0.0800 -0.0768
H12 H 0.3437 0.0740 -0.0016
H13 H 0.4882 0.0648 0.0291
C19 C 0.6568(2) 0.29419(10) 0.15028(16)
H14 H 0.6797 0.3317 0.1189
H15 H 0.7241 0.2620 0.1710
H16 H 0.6394 0.3110 0.2038
C20 C 0.2777(2) 0.31795(13) -0.12745(18)
H17 H 0.2357 0.2918 -0.1833
H18 H 0.3209 0.3554 -0.1429
H19 H 0.2179 0.3353 -0.1022
C21 C 0.49480(15) 0.09024(8) 0.19448(12)
C22 C 0.52344(16) 0.02466(8) 0.22475(13)
H20 H 0.6022 0.0079 0.2327
C23 C 0.44053(16) -0.01713(9) 0.24374(13)
H21 H 0.4638 -0.0616 0.2644
C24 C 0.32433(15) 0.00506(8) 0.23293(12)
C25 C 0.29268(16) 0.06970(9) 0.19985(14)
H22 H 0.2128 0.0858 0.1898
C26 C 0.37603(16) 0.11098(9) 0.18134(14)
H23 H 0.3517 0.1549 0.1589
C27 C 0.23522(15) -0.03586(8) 0.25944(13)
C28 C 0.14103(16) -0.07056(8) 0.19178(13)
C29 C 0.12763(18) -0.07001(10) 0.09643(14)
H24 H 0.1868 -0.0476 0.0781
C30 C 0.0326(2) -0.10072(12) 0.03129(16)
H25 H 0.0252 -0.0992 -0.0319
C31 C -0.0554(2) -0.13504(12) 0.05738(17)
H26 H -0.1226 -0.1558 0.0114
C32 C -0.04483(18) -0.13858(10) 0.14702(15)
H27 H -0.1036 -0.1631 0.1632
C33 C 0.05203(16) -0.10651(8) 0.21781(14)
C34 C 0.05842(16) -0.10622(8) 0.30989(14)
C35 C 0.15183(16) -0.07106(8) 0.37759(13)
C36 C 0.16182(19) -0.06985(10) 0.47244(15)
H28 H 0.1033 -0.0931 0.4905
C37 C 0.2527(2) -0.03640(11) 0.53687(15)
H29 H 0.2584 -0.0370 0.5997
C38 C 0.33943(19) -0.00062(11) 0.51130(15)
H30 H 0.4023 0.0234 0.5570
C39 C 0.33402(17) -0.00011(9) 0.42227(14)
H31 H 0.3933 0.0244 0.4065
C40 C 0.24117(15) -0.03556(8) 0.35177(13)
C41 C -0.03513(17) -0.14302(9) 0.33677(14)
C42 C -0.1248(2) -0.10889(12) 0.3566(2)
H32 H -0.1282 -0.0614 0.3523
C43 C -0.2103(3) -0.14325(14) 0.3827(3)
H33 H -0.2710 -0.1190 0.3969
C44 C -0.2081(2) -0.21093(13) 0.3882(2)
H34 H -0.2671 -0.2341 0.4058
C45 C -0.1198(2) -0.24577(11) 0.36796(17)
H35 H -0.1183 -0.2933 0.3712
C46 C -0.03282(19) -0.21224(10) 0.34282(15)
H36 H 0.0285 -0.2368 0.3297
loop_
_geom_bond_atom_site_label_1
_geom_bond_atom_site_label_2
_geom_bond_site_symmetry_1
_geom_bond_site_symmetry_2
B1 N1 1_555 1_555
N1 C7 1_555 1_555
C1 B1 1_555 1_555
C2 C1 1_555 1_555
H1 C2 1_555 1_555
C3 C2 1_555 1_555
H2 C3 1_555 1_555
C4 C3 1_555 1_555
H3 C4 1_555 1_555
C5 C4 1_555 1_555
H4 C5 1_555 1_555
C6 C1 1_555 1_555
C7 C6 1_555 1_555
C8 C7 1_555 1_555
H5 C8 1_555 1_555
C9 C8 1_555 1_555
H6 C9 1_555 1_555
C10 C9 1_555 1_555
H7 C10 1_555 1_555
C11 N1 1_555 1_555
H8 C11 1_555 1_555
C12 B1 1_555 1_555
C13 C12 1_555 1_555
C14 C13 1_555 1_555
H9 C14 1_555 1_555
C15 C14 1_555 1_555
C16 C15 1_555 1_555
H10 C16 1_555 1_555
C17 C12 1_555 1_555
C18 C13 1_555 1_555
H11 C18 1_555 1_555
H12 C18 1_555 1_555
H13 C18 1_555 1_555
C19 C17 1_555 1_555
H14 C19 1_555 1_555
H15 C19 1_555 1_555
H16 C19 1_555 1_555
C20 C15 1_555 1_555
H17 C20 1_555 1_555
H18 C20 1_555 1_555
H19 C20 1_555 1_555
C21 B1 1_555 1_555
C22 C21 1_555 1_555
H20 C22 1_555 1_555
C23 C22 1_555 1_555
H21 C23 1_555 1_555
C24 C23 1_555 1_555
C25 C24 1_555 1_555
H22 C25 1_555 1_555
C26 C21 1_555 1_555
H23 C26 1_555 1_555
C27 C24 1_555 1_555
C28 C27 1_555 1_555
C29 C28 1_555 1_555
H24 C29 1_555 1_555
C30 C29 1_555 1_555
H25 C30 1_555 1_555
C31 C30 1_555 1_555
H26 C31 1_555 1_555
C32 C31 1_555 1_555
H27 C32 1_555 1_555
C33 C28 1_555 1_555
C34 C33 1_555 1_555
C35 C34 1_555 1_555
C36 C35 1_555 1_555
H28 C36 1_555 1_555
C37 C36 1_555 1_555
H29 C37 1_555 1_555
C38 C37 1_555 1_555
H30 C38 1_555 1_555
C39 C38 1_555 1_555
H31 C39 1_555 1_555
C40 C27 1_555 1_555
C41 C34 1_555 1_555
C42 C41 1_555 1_555
H32 C42 1_555 1_555
C43 C42 1_555 1_555
H33 C43 1_555 1_555
C44 C43 1_555 1_555
H34 C44 1_555 1_555
C45 C44 1_555 1_555
H35 C45 1_555 1_555
C46 C41 1_555 1_555
H36 C46 1_555 1_555
C5 C6 1_555 1_555
C10 C11 1_555 1_555
C16 C17 1_555 1_555
C25 C26 1_555 1_555
C32 C33 1_555 1_555
C35 C40 1_555 1_555
C39 C40 1_555 1_555
C45 C46 1_555 1_555

#END
