
#######################################################################
#
#                 Cambridge Crystallographic Data Centre
#                                CCDC 
#
#######################################################################
#
# If this CIF has been generated from an entry in the Cambridge 
# Structural Database, then it will include bibliographic, chemical, 
# crystal, experimental, refinement or atomic coordinate data resulting 
# from the CCDC's data processing and validation procedures.
#
#######################################################################

data_KEGXUQ
_chemical_formula_moiety         'C19 H23 N1 O4'
_chemical_name_systematic        
't-Butyl 5-hydroxy-2-oxo-6-phenyl-2,3,3a,4,5,6-hexahydroindole-1-carboxylate'
_symmetry_cell_setting           monoclinic
_symmetry_space_group_name_H-M   'P 21/c'
_symmetry_Int_Tables_number      14
_space_group_name_Hall           '-P 2ybc'
loop_
_symmetry_equiv_pos_site_id
_symmetry_equiv_pos_as_xyz
1 x,y,z
2 -x,1/2+y,1/2-z
3 -x,-y,-z
4 x,1/2-y,1/2+z
_cell_length_a                   10.9426(2)
_cell_length_b                   5.48010(10)
_cell_length_c                   27.9676(6)
_cell_angle_alpha                90
_cell_angle_beta                 97.520(2)
_cell_angle_gamma                90
_cell_volume                     1662.7
_exptl_crystal_colour            colorless
_exptl_crystal_description       rod
_chemical_melting_point          175-176deg.C
_cell_formula_units_Z            4
loop_
_atom_site_label
_atom_site_type_symbol
_atom_site_fract_x
_atom_site_fract_y
_atom_site_fract_z
C1 C 0.39185(17) 0.1647(3) 0.51902(7)
C2 C 0.46531(17) 0.2903(4) 0.56141(6)
H1 H 0.4213 0.4358 0.5714
H2 H 0.5474 0.3404 0.5537
C3 C 0.47693(17) 0.0951(3) 0.60072(7)
H3 H 0.5453 -0.0179 0.5950
C4 C 0.49838(17) 0.1762(3) 0.65293(6)
H4 H 0.5840 0.2356 0.6613
H5 H 0.4411 0.3102 0.6584
C5 C 0.47585(17) -0.0427(3) 0.68367(7)
H6 H 0.5266 -0.1812 0.6739
C6 C 0.33903(16) -0.1220(3) 0.67562(6)
H7 H 0.3346 -0.2898 0.6893
C7 C 0.29331(16) -0.1385(3) 0.62214(6)
H8 H 0.2179 -0.2201 0.6118
C8 C 0.35644(17) -0.0412(3) 0.58956(6)
C9 C 0.25880(16) 0.0430(3) 0.70234(6)
C10 C 0.20172(16) 0.2517(3) 0.68167(7)
H9 H 0.2094 0.2905 0.6491
C11 C 0.13351(17) 0.4046(4) 0.70788(7)
H10 H 0.0949 0.5458 0.6931
C12 C 0.12172(18) 0.3514(4) 0.75557(8)
H11 H 0.0758 0.4563 0.7736
C13 C 0.17765(18) 0.1434(4) 0.77672(7)
H12 H 0.1700 0.1056 0.8093
C14 C 0.24468(18) -0.0093(4) 0.75023(7)
H13 H 0.2817 -0.1522 0.7650
C15 C 0.23593(17) -0.1801(3) 0.51189(7)
C16 C 0.12510(16) -0.2472(3) 0.43109(6)
C17 C 0.00078(18) -0.1685(4) 0.44389(7)
H14 H -0.0644 -0.2275 0.4192
H15 H -0.0024 0.0100 0.4454
H16 H -0.0113 -0.2371 0.4753
C18 C 0.14948(19) -0.1436(4) 0.38294(7)
H17 H 0.2311 -0.1959 0.3761
H18 H 0.1465 0.0350 0.3841
H19 H 0.0865 -0.2030 0.3574
C19 C 0.1381(2) -0.5219(4) 0.43107(8)
H20 H 0.2218 -0.5656 0.4253
H21 H 0.0784 -0.5915 0.4055
H22 H 0.1227 -0.5868 0.4624
N1 N 0.32372(14) -0.0260(3) 0.53803(5)
O1 O 0.39108(12) 0.2156(3) 0.47707(5)
O2 O 0.51740(12) 0.0129(2) 0.73321(4)
H23 H 0.5154 -0.1141 0.7499
O3 O 0.22407(12) -0.1310(2) 0.46520(5)
O4 O 0.18144(13) -0.3345(2) 0.53165(5)
loop_
_geom_bond_atom_site_label_1
_geom_bond_atom_site_label_2
_geom_bond_site_symmetry_1
_geom_bond_site_symmetry_2
C1 C2 1_555 1_555
C2 H1 1_555 1_555
H2 C2 1_555 1_555
C3 C2 1_555 1_555
H3 C3 1_555 1_555
C4 C3 1_555 1_555
H4 C4 1_555 1_555
H5 C4 1_555 1_555
C5 C4 1_555 1_555
H6 C5 1_555 1_555
C6 C5 1_555 1_555
H7 C6 1_555 1_555
C7 C6 1_555 1_555
H8 C7 1_555 1_555
C8 C3 1_555 1_555
C9 C6 1_555 1_555
C10 C9 1_555 1_555
H9 C10 1_555 1_555
C11 C10 1_555 1_555
H10 C11 1_555 1_555
C12 C11 1_555 1_555
H11 C12 1_555 1_555
C13 C12 1_555 1_555
H12 C13 1_555 1_555
C14 C9 1_555 1_555
H13 C14 1_555 1_555
C15 N1 1_555 1_555
C16 C17 1_555 1_555
C17 H14 1_555 1_555
H15 C17 1_555 1_555
H16 C17 1_555 1_555
C18 C16 1_555 1_555
H17 C18 1_555 1_555
H18 C18 1_555 1_555
H19 C18 1_555 1_555
C19 C16 1_555 1_555
H20 C19 1_555 1_555
H21 C19 1_555 1_555
H22 C19 1_555 1_555
N1 C1 1_555 1_555
O1 C1 1_555 1_555
O2 C5 1_555 1_555
H23 O2 1_555 1_555
O3 C15 1_555 1_555
O4 C15 1_555 1_555
C7 C8 1_555 1_555
C8 N1 1_555 1_555
C13 C14 1_555 1_555
C16 O3 1_555 1_555

#END
