
#######################################################################
#
#                 Cambridge Crystallographic Data Centre
#                                CCDC 
#
#######################################################################
#
# If this CIF has been generated from an entry in the Cambridge 
# Structural Database, then it will include bibliographic, chemical, 
# crystal, experimental, refinement or atomic coordinate data resulting 
# from the CCDC's data processing and validation procedures.
#
#######################################################################

data_KEHCUV
_chemical_formula_moiety         'C33 H23 Cl3 N4 O4'
_chemical_name_systematic        
(1Z,4E,6Z,1'Z)-1,7-Dichloro-1,7-diphenyl-4-(1-(2-chloro-2-phenylethenyl))-1,4,6-heptatrien-3-one-2,4-dinitrophenylhydrazone
_symmetry_cell_setting           monoclinic
_symmetry_space_group_name_H-M   'P 21/a'
_symmetry_Int_Tables_number      14
_space_group_name_Hall           '-P 2yab'
loop_
_symmetry_equiv_pos_site_id
_symmetry_equiv_pos_as_xyz
1 x,y,z
2 1/2-x,1/2+y,-z
3 -x,-y,-z
4 1/2+x,1/2-y,z
_cell_length_a                   8.478(1)
_cell_length_b                   19.319(3)
_cell_length_c                   19.236(3)
_cell_angle_alpha                90
_cell_angle_beta                 101.182(4)
_cell_angle_gamma                90
_cell_volume                     3090.79
_exptl_crystal_colour            red
_chemical_melting_point          172-173deg.C
_cell_formula_units_Z            4
loop_
_atom_site_label
_atom_site_type_symbol
_atom_site_fract_x
_atom_site_fract_y
_atom_site_fract_z
C1 C 0.5696(8) 0.1583(3) 0.3837(3)
C2 C 0.5074(8) 0.1927(3) 0.3250(3)
C3 C 0.5700(8) 0.2017(3) 0.2589(3)
C4 C 0.6324(8) 0.1336(3) 0.0898(4)
C5 C 0.6839(8) 0.1487(4) 0.1579(4)
C6 C 0.5953(8) 0.1409(4) 0.2165(3)
C7 C 0.5839(8) 0.3947(3) 0.2572(4)
C8 C 0.5799(8) 0.3279(3) 0.2773(3)
C9 C 0.5972(8) 0.2666(4) 0.2362(3)
C10 C 0.5185(8) -0.0375(4) 0.2165(4)
C11 C 0.5526(9) -0.0994(4) 0.18384
C12 C 0.4906(10) -0.1643(4) 0.2014(4)
C13 C 0.3979(10) -0.1638(4) 0.2503(4)
C14 C 0.3573(10) -0.1057(4) 0.2858(4)
C15 C 0.4192(9) -0.0415(4) 0.2678(4)
N1 N 0.5417(7) 0.0828(3) 0.2362(3)
N2 N 0.5752(7) 0.0255(3) 0.2000(3)
N3 N 0.6542(9) -0.1011(4) 0.1315(4)
N4 N 0.3366(14) -0.2310(6) 0.2710(7)
O1 O 0.7119(7) -0.0473(3) 0.1132(3)
O2 O 0.6796(9) -0.1568(3) 0.1056(3)
O3 O 0.2576(13) -0.2331(5) 0.3159(6)
O4 O 0.3717(12) -0.2827(4) 0.2391(5)
Cl1 Cl 0.7478(2) 0.1116(1) 0.3896(1)
Cl2 Cl 0.4346(2) 0.1062(1) 0.0606(1)
Cl3 Cl 0.6080(3) 0.4139(1) 0.1717(1)
H1 H 0.3981 0.2202 0.3239
H2 H 0.7862 0.1571 0.1736
H3 H 0.5619 0.3224 0.3233
H4 H 0.6392 0.2695 0.1870
H5 H 0.6370 0.0231 0.1556
H6 H 0.5344 -0.2161 0.1786
H7 H 0.4037 0.0006 0.2970
C16 C 0.4972 0.1580 0.4484
C17 C 0.4180 0.2170 0.4656
C18 C 0.3446 0.2167 0.5245
C19 C 0.3505 0.1574 0.5663
C20 C 0.4297 0.0984 0.5491
C21 C 0.5031 0.0987 0.4902
H8 H 0.4140 0.2574 0.4371
H9 H 0.2906 0.2569 0.5362
H10 H 0.3005 0.1572 0.6064
H11 H 0.4337 0.0580 0.5776
H12 H 0.5570 0.0584 0.4785
C22 C 0.7302 0.1376 0.0343
C23 C 0.8309 0.1944 0.0325
C24 C 0.9317 0.1967 -0.0169
C25 C 0.9316 0.1421 -0.0644
C26 C 0.8310 0.0854 -0.0626
C27 C 0.7302 0.0831 -0.0132
H13 H 0.8309 0.2316 0.0648
H14 H 1.0003 0.2354 -0.0181
H15 H 1.0003 0.1437 -0.0979
H16 H 0.8310 0.0482 -0.0949
H17 H 0.6616 0.0444 -0.0120
C28 C 0.5670 0.4539 0.3036
C29 C 0.6247 0.4479 0.3764
C30 C 0.6018 0.5018 0.4217
C31 C 0.5213 0.5617 0.3942
C32 C 0.4636 0.5678 0.3214
C33 C 0.4865 0.5139 0.2761
H18 H 0.6795 0.4071 0.3951
H19 H 0.6410 0.4976 0.4712
H20 H 0.5057 0.5984 0.4250
H21 H 0.4088 0.6086 0.3027
H22 H 0.4473 0.5180 0.2266
loop_
_geom_bond_atom_site_label_1
_geom_bond_atom_site_label_2
_geom_bond_site_symmetry_1
_geom_bond_site_symmetry_2
C1 C2 1_555 1_555
C2 C3 1_555 1_555
C3 C6 1_555 1_555
C4 C5 1_555 1_555
C5 C6 1_555 1_555
C6 N1 1_555 1_555
C7 C8 1_555 1_555
C8 C9 1_555 1_555
C9 C3 1_555 1_555
C10 C11 1_555 1_555
C11 C12 1_555 1_555
C12 C13 1_555 1_555
C13 C14 1_555 1_555
C14 C15 1_555 1_555
C15 C10 1_555 1_555
N1 N2 1_555 1_555
N2 C10 1_555 1_555
N3 C11 1_555 1_555
N4 C13 1_555 1_555
O1 N3 1_555 1_555
O2 N3 1_555 1_555
O3 N4 1_555 1_555
O4 N4 1_555 1_555
Cl1 C1 1_555 1_555
Cl2 C4 1_555 1_555
Cl3 C7 1_555 1_555
H1 C2 1_555 1_555
H2 C5 1_555 1_555
H3 C8 1_555 1_555
H4 C9 1_555 1_555
H5 N2 1_555 1_555
H6 C12 1_555 1_555
H7 C15 1_555 1_555
C16 C1 1_555 1_555
C17 C16 1_555 1_555
C18 C17 1_555 1_555
C19 C18 1_555 1_555
C20 C19 1_555 1_555
C21 C16 1_555 1_555
H8 C17 1_555 1_555
H9 C18 1_555 1_555
H10 C19 1_555 1_555
H11 C20 1_555 1_555
H12 C21 1_555 1_555
C22 C4 1_555 1_555
C23 C22 1_555 1_555
C24 C23 1_555 1_555
C25 C24 1_555 1_555
C26 C25 1_555 1_555
C27 C22 1_555 1_555
H13 C23 1_555 1_555
H14 C24 1_555 1_555
H15 C25 1_555 1_555
H16 C26 1_555 1_555
H17 C27 1_555 1_555
C28 C7 1_555 1_555
C29 C28 1_555 1_555
C30 C29 1_555 1_555
C31 C30 1_555 1_555
C32 C31 1_555 1_555
C33 C28 1_555 1_555
H18 C29 1_555 1_555
H19 C30 1_555 1_555
H20 C31 1_555 1_555
H21 C32 1_555 1_555
H22 C33 1_555 1_555
C20 C21 1_555 1_555
C26 C27 1_555 1_555
C32 C33 1_555 1_555

#END
