
#######################################################################
#
#                 Cambridge Crystallographic Data Centre
#                                CCDC 
#
#######################################################################
#
# If this CIF has been generated from an entry in the Cambridge 
# Structural Database, then it will include bibliographic, chemical, 
# crystal, experimental, refinement or atomic coordinate data resulting 
# from the CCDC's data processing and validation procedures.
#
#######################################################################

data_KEHJEN
_chemical_formula_moiety         'C36 H30 Be1 N2 O8 P2'
_chemical_name_systematic        
'bis((Nitrato-O)-(triphenylphosphine oxide-O))-beryllium(ii)'
_symmetry_cell_setting           monoclinic
_symmetry_space_group_name_H-M   'P 21/n'
_symmetry_Int_Tables_number      14
_space_group_name_Hall           '-P 2yn'
loop_
_symmetry_equiv_pos_site_id
_symmetry_equiv_pos_as_xyz
1 x,y,z
2 1/2-x,1/2+y,1/2-z
3 -x,-y,-z
4 1/2+x,1/2-y,1/2+z
_cell_length_a                   10.272(3)
_cell_length_b                   9.579(2)
_cell_length_c                   34.807(7)
_cell_angle_alpha                90
_cell_angle_beta                 90.868(10)
_cell_angle_gamma                90
_cell_volume                     3424.46
_exptl_crystal_colour            colorless
_exptl_crystal_description       block
_cell_formula_units_Z            4
loop_
_atom_site_label
_atom_site_type_symbol
_atom_site_fract_x
_atom_site_fract_y
_atom_site_fract_z
Be1 Be 0.2557(5) 0.2172(6) 0.87023(16)
N1 N 0.2069(4) 0.3465(5) 0.93351(14)
N2 N 0.0946(5) 0.2509(4) 0.81352(13)
O1 O 0.1820(3) 0.3334(3) 0.89701(10)
O2 O 0.2741(3) 0.2572(4) 0.94920(9)
O3 O 0.1607(4) 0.4464(4) 0.94996(10)
O4 O 0.2148(3) 0.2560(3) 0.82553(8)
O5 O 0.0701(4) 0.2862(4) 0.78083(11)
O6 O 0.0109(3) 0.2120(4) 0.83574(11)
O7 O 0.2267(3) 0.0592(3) 0.87858(8)
O8 O 0.4092(2) 0.2505(3) 0.87226(7)
P1 P 0.19909(11) -0.08640(13) 0.89112(3)
P2 P 0.54850(11) 0.24222(12) 0.86064(3)
C1 C 0.0731(4) -0.0893(5) 0.92552(12)
C2 C -0.0117(4) 0.0223(5) 0.92778(12)
H1 H -0.0014 0.0991 0.9118
C3 C -0.1120(5) 0.0197(6) 0.95391(15)
H2 H -0.1683 0.0954 0.9555
C4 C -0.1290(4) -0.0924(7) 0.97720(14)
H3 H -0.1971 -0.0931 0.9945
C5 C -0.0455(5) -0.2058(5) 0.97529(13)
H4 H -0.0575 -0.2828 0.9911
C6 C 0.0560(4) -0.2032(5) 0.94956(13)
H5 H 0.1132 -0.2784 0.9484
C7 C 0.1503(4) -0.1920(5) 0.85107(13)
C8 C 0.0825(6) -0.3141(6) 0.85607(17)
H6 H 0.0596 -0.3416 0.8807
C9 C 0.0479(7) -0.3966(7) 0.8249(2)
H7 H 0.0004 -0.4780 0.8287
C10 C 0.0828(8) -0.3593(8) 0.7891(2)
H8 H 0.0594 -0.4152 0.7682
C11 C 0.1519(6) -0.2407(8) 0.78339(17)
H9 H 0.1778 -0.2166 0.7588
C12 C 0.1842(5) -0.1547(6) 0.81449(17)
H10 H 0.2288 -0.0717 0.8104
C13 C 0.3401(4) -0.1622(5) 0.91309(13)
C14 C 0.3789(6) -0.2951(6) 0.90649(16)
H11 H 0.3321 -0.3511 0.8894
C15 C 0.4885(8) -0.3478(8) 0.9253(2)
H12 H 0.5161 -0.4384 0.9202
C16 C 0.5558(6) -0.2679(9) 0.9510(2)
H13 H 0.6288 -0.3041 0.9635
C17 C 0.5171(6) -0.1367(8) 0.95825(19)
H14 H 0.5628 -0.0818 0.9759
C18 C 0.4086(5) -0.0842(6) 0.93926(17)
H15 H 0.3816 0.0065 0.9444
C19 C 0.5975(4) 0.0690(5) 0.85013(12)
C20 C 0.5260(5) -0.0062(6) 0.82422(15)
H16 H 0.4540 0.0354 0.8124
C21 C 0.5568(6) -0.1420(7) 0.81492(16)
H17 H 0.5065 -0.1908 0.7970
C22 C 0.6599(7) -0.2030(6) 0.83197(19)
H18 H 0.6807 -0.2952 0.8263
C23 C 0.7333(7) -0.1299(8) 0.8573(2)
H19 H 0.8059 -0.1713 0.8688
C24 C 0.7013(6) 0.0063(6) 0.86636(18)
H20 H 0.7527 0.0554 0.8840
C25 C 0.6498(4) 0.3065(4) 0.89863(12)
C26 C 0.6062(4) 0.3008(4) 0.93615(14)
H21 H 0.5258 0.2606 0.9412
C27 C 0.6810(6) 0.3542(5) 0.96626(13)
H22 H 0.6506 0.3497 0.9913
C28 C 0.7979(6) 0.4129(5) 0.95927(18)
H23 H 0.8470 0.4503 0.9794
C29 C 0.8445(5) 0.4174(6) 0.92263(19)
H24 H 0.9262 0.4553 0.9180
C30 C 0.7701(5) 0.3656(5) 0.89266(14)
H25 H 0.8017 0.3707 0.8678
C31 C 0.5748(5) 0.3430(5) 0.81865(12)
C32 C 0.6861(5) 0.3283(5) 0.79745(15)
H26 H 0.7491 0.2638 0.8049
C33 C 0.7044(7) 0.4095(8) 0.76503(19)
H27 H 0.7805 0.4011 0.7511
C34 C 0.6099(9) 0.5021(8) 0.75357(18)
H28 H 0.6217 0.5550 0.7315
C35 C 0.4993(7) 0.5178(5) 0.77400(19)
H29 H 0.4354 0.5805 0.7659
C36 C 0.4829(5) 0.4397(5) 0.80690(14)
H30 H 0.4086 0.4525 0.8214
loop_
_geom_bond_atom_site_label_1
_geom_bond_atom_site_label_2
_geom_bond_site_symmetry_1
_geom_bond_site_symmetry_2
Be1 O1 1_555 1_555
N1 O1 1_555 1_555
N2 O4 1_555 1_555
O2 N1 1_555 1_555
O3 N1 1_555 1_555
O4 Be1 1_555 1_555
O5 N2 1_555 1_555
O6 N2 1_555 1_555
O7 Be1 1_555 1_555
O8 Be1 1_555 1_555
P1 O7 1_555 1_555
P2 O8 1_555 1_555
C1 P1 1_555 1_555
C2 C1 1_555 1_555
H1 C2 1_555 1_555
C3 C2 1_555 1_555
H2 C3 1_555 1_555
C4 C3 1_555 1_555
H3 C4 1_555 1_555
C5 C4 1_555 1_555
H4 C5 1_555 1_555
C6 C1 1_555 1_555
H5 C6 1_555 1_555
C7 P1 1_555 1_555
C8 C7 1_555 1_555
H6 C8 1_555 1_555
C9 C8 1_555 1_555
H7 C9 1_555 1_555
C10 C9 1_555 1_555
H8 C10 1_555 1_555
C11 C10 1_555 1_555
H9 C11 1_555 1_555
C12 C7 1_555 1_555
H10 C12 1_555 1_555
C13 P1 1_555 1_555
C14 C13 1_555 1_555
H11 C14 1_555 1_555
C15 C14 1_555 1_555
H12 C15 1_555 1_555
C16 C15 1_555 1_555
H13 C16 1_555 1_555
C17 C16 1_555 1_555
H14 C17 1_555 1_555
C18 C13 1_555 1_555
H15 C18 1_555 1_555
C19 P2 1_555 1_555
C20 C19 1_555 1_555
H16 C20 1_555 1_555
C21 C20 1_555 1_555
H17 C21 1_555 1_555
C22 C21 1_555 1_555
H18 C22 1_555 1_555
C23 C22 1_555 1_555
H19 C23 1_555 1_555
C24 C19 1_555 1_555
H20 C24 1_555 1_555
C25 P2 1_555 1_555
C26 C25 1_555 1_555
H21 C26 1_555 1_555
C27 C26 1_555 1_555
H22 C27 1_555 1_555
C28 C27 1_555 1_555
H23 C28 1_555 1_555
C29 C28 1_555 1_555
H24 C29 1_555 1_555
C30 C25 1_555 1_555
H25 C30 1_555 1_555
C31 P2 1_555 1_555
C32 C31 1_555 1_555
H26 C32 1_555 1_555
C33 C32 1_555 1_555
H27 C33 1_555 1_555
C34 C33 1_555 1_555
H28 C34 1_555 1_555
C35 C34 1_555 1_555
H29 C35 1_555 1_555
C36 C31 1_555 1_555
H30 C36 1_555 1_555
C5 C6 1_555 1_555
C11 C12 1_555 1_555
C17 C18 1_555 1_555
C23 C24 1_555 1_555
C29 C30 1_555 1_555
C35 C36 1_555 1_555

#END
