
#######################################################################
#
#                 Cambridge Crystallographic Data Centre
#                                CCDC 
#
#######################################################################
#
# If this CIF has been generated from an entry in the Cambridge 
# Structural Database, then it will include bibliographic, chemical, 
# crystal, experimental, refinement or atomic coordinate data resulting 
# from the CCDC's data processing and validation procedures.
#
#######################################################################

data_KEHJUD
_chemical_formula_moiety         'C50 H44 Ca1 N2 O10 P4'
_chemical_name_systematic        
bis((Nitrato-O,O')-(bis(diphenylphosphinoyl)methane))-calcium(ii)
_symmetry_cell_setting           orthorhombic
_symmetry_space_group_name_H-M   'P c a 21'
_symmetry_Int_Tables_number      29
_space_group_name_Hall           'P 2c -2ac'
loop_
_symmetry_equiv_pos_site_id
_symmetry_equiv_pos_as_xyz
1 x,y,z
2 -x,-y,1/2+z
3 1/2+x,-y,z
4 1/2-x,y,1/2+z
_cell_length_a                   20.4255(16)
_cell_length_b                   11.3207(10)
_cell_length_c                   22.2120(15)
_cell_angle_alpha                90
_cell_angle_beta                 90
_cell_angle_gamma                90
_cell_volume                     5136.1
_exptl_crystal_colour            colorless
_exptl_crystal_description       block
_cell_formula_units_Z            4
_exptl_crystal_recrystallization_method 'dichloromethane/diethyl ether'
loop_
_atom_site_label
_atom_site_type_symbol
_atom_site_fract_x
_atom_site_fract_y
_atom_site_fract_z
Ca1 Ca 0.28711(10) 0.4360(2) 0.15903(10)
P1 P 0.42644(13) 0.5778(3) 0.09347(13)
P2 P 0.41432(15) 0.3199(3) 0.05918(14)
P3 P 0.39559(14) 0.2653(3) 0.25117(14)
P4 P 0.27576(14) 0.1298(3) 0.20300(14)
O1 O 0.3574(3) 0.5701(6) 0.1143(3)
O2 O 0.3515(3) 0.3092(6) 0.0919(4)
O3 O 0.3737(3) 0.3767(7) 0.2224(4)
O4 O 0.2487(4) 0.2477(6) 0.1877(4)
N1 N 0.1750(5) 0.5028(11) 0.0802(6)
N2 N 0.2512(6) 0.5685(13) 0.2689(5)
O5 O 0.2069(7) 0.4098(12) 0.0753(6)
O6 O 0.1937(7) 0.5606(13) 0.1227(6)
O7 O 0.1280(4) 0.5295(10) 0.0495(5)
O8 O 0.2878(4) 0.6164(9) 0.2286(4)
O9 O 0.2273(4) 0.4723(10) 0.2566(4)
O10 O 0.2404(6) 0.6134(11) 0.3162(5)
C1 C 0.4755(6) 0.6598(9) 0.1447(5)
C2 C 0.4435(7) 0.7233(12) 0.1885(6)
H1 H 0.3970 0.7217 0.1898
C3 C 0.4775(8) 0.7903(13) 0.2315(7)
H2 H 0.4548 0.8311 0.2625
C4 C 0.5460(8) 0.7951(13) 0.2272(7)
H3 H 0.5700 0.8423 0.2547
C5 C 0.5788(6) 0.7324(13) 0.1836(8)
H4 H 0.6252 0.7366 0.1817
C6 C 0.5451(6) 0.6629(11) 0.1422(6)
H5 H 0.5682 0.6183 0.1129
C7 C 0.4292(6) 0.6421(9) 0.0180(5)
C8 C 0.4857(7) 0.6705(12) -0.0095(6)
H6 H 0.5261 0.6584 0.0108
C9 C 0.4852(7) 0.7167(12) -0.0665(6)
H7 H 0.5251 0.7388 -0.0854
C10 C 0.4255(8) 0.7312(13) -0.0969(6)
H8 H 0.4243 0.7617 -0.1367
C11 C 0.3711(7) 0.7011(13) -0.0687(7)
H9 H 0.3306 0.7104 -0.0891
C12 C 0.3705(5) 0.6558(10) -0.0096(5)
H10 H 0.3307 0.6358 0.0101
C13 C 0.4658(5) 0.4343(8) 0.0891(5)
H11 H 0.5053 0.4412 0.0635
H12 H 0.4802 0.4110 0.1299
C14 C 0.4619(7) 0.1870(11) 0.0634(6)
C15 C 0.5260(9) 0.1792(14) 0.0790(6)
H13 H 0.5489 0.2499 0.0884
C16 C 0.5584(11) 0.0764(17) 0.0818(8)
H14 H 0.6032 0.0771 0.0931
C17 C 0.5311(15) -0.0230(18) 0.0697(10)
H15 H 0.5564 -0.0932 0.0681
C18 C 0.4630(17) -0.0268(16) 0.0589(9)
H16 H 0.4401 -0.0995 0.0556
C19 C 0.4309(9) 0.0825(15) 0.0532(8)
H17 H 0.3861 0.0834 0.0419
C20 C 0.4037(6) 0.3526(9) -0.0189(6)
C21 C 0.3401(7) 0.3667(12) -0.0420(6)
H18 H 0.3032 0.3554 -0.0165
C22 C 0.3311(8) 0.3968(15) -0.1011(7)
H19 H 0.2883 0.4062 -0.1170
C23 C 0.3859(9) 0.4133(12) -0.1375(6)
H20 H 0.3796 0.4375 -0.1780
C24 C 0.4471(9) 0.3965(15) -0.1174(6)
H21 H 0.4834 0.4049 -0.1438
C25 C 0.4566(7) 0.3668(14) -0.0579(6)
H22 H 0.4998 0.3559 -0.0432
C26 C 0.4811(5) 0.2530(9) 0.2457(5)
C27 C 0.5190(6) 0.3583(12) 0.2408(5)
H23 H 0.4981 0.4331 0.2430
C28 C 0.5868(5) 0.3520(12) 0.2329(5)
H24 H 0.6111 0.4231 0.2286
C29 C 0.6190(6) 0.2464(12) 0.2311(6)
H25 H 0.6649 0.2435 0.2245
C30 C 0.5832(6) 0.1436(14) 0.2392(6)
H26 H 0.6052 0.0697 0.2408
C31 C 0.5171(7) 0.1477(12) 0.2449(6)
H27 H 0.4940 0.0752 0.2485
C32 C 0.3714(6) 0.2579(17) 0.3302(6)
C33 C 0.3547(8) 0.3620(19) 0.3577(7)
H28 H 0.3521 0.4330 0.3350
C34 C 0.3407(9) 0.363(2) 0.4231(11)
H29 H 0.3324 0.4317 0.4461
C35 C 0.3414(9) 0.247(3) 0.4466(9)
H30 H 0.3268 0.2411 0.4872
C36 C 0.3588(12) 0.144(3) 0.4221(8)
H31 H 0.3615 0.0730 0.4450
C37 C 0.3724(8) 0.1473(16) 0.3620(7)
H32 H 0.3826 0.0765 0.3411
C38 C 0.3630(5) 0.1317(11) 0.2139(6)
H33 H 0.3844 0.1236 0.1741
H34 H 0.3753 0.0619 0.2382
C39 C 0.2402(5) 0.0750(11) 0.2716(6)
C40 C 0.1990(6) 0.1496(12) 0.3043(6)
H35 H 0.1914 0.2276 0.2902
C41 C 0.1691(7) 0.1131(13) 0.3563(6)
H36 H 0.1406 0.1643 0.3777
C42 C 0.1816(7) -0.0017(14) 0.3773(6)
H37 H 0.1619 -0.0289 0.4135
C43 C 0.2211(7) -0.0719(14) 0.3461(7)
H38 H 0.2288 -0.1493 0.3610
C44 C 0.2526(7) -0.0379(13) 0.2917(7)
H39 H 0.2806 -0.0902 0.2704
C45 C 0.2646(5) 0.0266(10) 0.1427(5)
C46 C 0.2472(9) 0.0725(13) 0.0874(7)
H40 H 0.2373 0.1543 0.0841
C47 C 0.2438(10) 0.0011(17) 0.0358(9)
H41 H 0.2362 0.0328 -0.0031
C48 C 0.2529(10) -0.1256(16) 0.0462(10)
H42 H 0.2444 -0.1805 0.0148
C49 C 0.2723(9) -0.1626(14) 0.0985(9)
H43 H 0.2840 -0.2434 0.1029
C50 C 0.2767(8) -0.0900(13) 0.1472(7)
H44 H 0.2886 -0.1223 0.1851
loop_
_geom_bond_atom_site_label_1
_geom_bond_atom_site_label_2
_geom_bond_site_symmetry_1
_geom_bond_site_symmetry_2
Ca1 O1 1_555 1_555
P1 O1 1_555 1_555
P2 O2 1_555 1_555
P3 O3 1_555 1_555
P4 O4 1_555 1_555
O2 Ca1 1_555 1_555
O3 Ca1 1_555 1_555
O4 Ca1 1_555 1_555
N1 O5 1_555 1_555
N2 O8 1_555 1_555
O5 Ca1 1_555 1_555
O6 Ca1 1_555 1_555
O7 N1 1_555 1_555
O8 Ca1 1_555 1_555
O9 Ca1 1_555 1_555
O10 N2 1_555 1_555
C1 P1 1_555 1_555
C2 C1 1_555 1_555
H1 C2 1_555 1_555
C3 C2 1_555 1_555
H2 C3 1_555 1_555
C4 C3 1_555 1_555
H3 C4 1_555 1_555
C5 C4 1_555 1_555
H4 C5 1_555 1_555
C6 C1 1_555 1_555
H5 C6 1_555 1_555
C7 P1 1_555 1_555
C8 C7 1_555 1_555
H6 C8 1_555 1_555
C9 C8 1_555 1_555
H7 C9 1_555 1_555
C10 C9 1_555 1_555
H8 C10 1_555 1_555
C11 C10 1_555 1_555
H9 C11 1_555 1_555
C12 C7 1_555 1_555
H10 C12 1_555 1_555
C13 P1 1_555 1_555
H11 C13 1_555 1_555
H12 C13 1_555 1_555
C14 P2 1_555 1_555
C15 C14 1_555 1_555
H13 C15 1_555 1_555
C16 C15 1_555 1_555
H14 C16 1_555 1_555
C17 C16 1_555 1_555
H15 C17 1_555 1_555
C18 C17 1_555 1_555
H16 C18 1_555 1_555
C19 C14 1_555 1_555
H17 C19 1_555 1_555
C20 P2 1_555 1_555
C21 C20 1_555 1_555
H18 C21 1_555 1_555
C22 C21 1_555 1_555
H19 C22 1_555 1_555
C23 C22 1_555 1_555
H20 C23 1_555 1_555
C24 C23 1_555 1_555
H21 C24 1_555 1_555
C25 C20 1_555 1_555
H22 C25 1_555 1_555
C26 P3 1_555 1_555
C27 C26 1_555 1_555
H23 C27 1_555 1_555
C28 C27 1_555 1_555
H24 C28 1_555 1_555
C29 C28 1_555 1_555
H25 C29 1_555 1_555
C30 C29 1_555 1_555
H26 C30 1_555 1_555
C31 C26 1_555 1_555
H27 C31 1_555 1_555
C32 P3 1_555 1_555
C33 C32 1_555 1_555
H28 C33 1_555 1_555
C34 C33 1_555 1_555
H29 C34 1_555 1_555
C35 C34 1_555 1_555
H30 C35 1_555 1_555
C36 C35 1_555 1_555
H31 C36 1_555 1_555
C37 C32 1_555 1_555
H32 C37 1_555 1_555
C38 P3 1_555 1_555
H33 C38 1_555 1_555
H34 C38 1_555 1_555
C39 P4 1_555 1_555
C40 C39 1_555 1_555
H35 C40 1_555 1_555
C41 C40 1_555 1_555
H36 C41 1_555 1_555
C42 C41 1_555 1_555
H37 C42 1_555 1_555
C43 C42 1_555 1_555
H38 C43 1_555 1_555
C44 C39 1_555 1_555
H39 C44 1_555 1_555
C45 P4 1_555 1_555
C46 C45 1_555 1_555
H40 C46 1_555 1_555
C47 C46 1_555 1_555
H41 C47 1_555 1_555
C48 C47 1_555 1_555
H42 C48 1_555 1_555
C49 C48 1_555 1_555
H43 C49 1_555 1_555
C50 C45 1_555 1_555
H44 C50 1_555 1_555
P2 C13 1_555 1_555
P4 C38 1_555 1_555
N1 O6 1_555 1_555
N2 O9 1_555 1_555
C5 C6 1_555 1_555
C11 C12 1_555 1_555
C18 C19 1_555 1_555
C24 C25 1_555 1_555
C30 C31 1_555 1_555
C36 C37 1_555 1_555
C43 C44 1_555 1_555
C49 C50 1_555 1_555

#END
