
#######################################################################
#
#                 Cambridge Crystallographic Data Centre
#                                CCDC 
#
#######################################################################
#
# If this CIF has been generated from an entry in the Cambridge 
# Structural Database, then it will include bibliographic, chemical, 
# crystal, experimental, refinement or atomic coordinate data resulting 
# from the CCDC's data processing and validation procedures.
#
#######################################################################

data_KEHJOX
_chemical_formula_moiety         'C60 H48 Ca1 N2 O10 P4'
_chemical_name_systematic        
bis((Nitrato-O,O')-(1,2-bis(diphenylphosphinoyl)benzene))-calcium(ii)
_symmetry_cell_setting           monoclinic
_symmetry_space_group_name_H-M   'P 2/n'
_symmetry_Int_Tables_number      13
_space_group_name_Hall           '-P 2yac'
loop_
_symmetry_equiv_pos_site_id
_symmetry_equiv_pos_as_xyz
1 x,y,z
2 1/2-x,y,1/2-z
3 -x,-y,-z
4 1/2+x,-y,1/2+z
_cell_length_a                   21.771(4)
_cell_length_b                   10.6990(10)
_cell_length_c                   24.074(4)
_cell_angle_alpha                90
_cell_angle_beta                 104.394(5)
_cell_angle_gamma                90
_cell_volume                     5431.48
_exptl_crystal_colour            colorless
_exptl_crystal_description       block
_cell_formula_units_Z            4
_exptl_crystal_recrystallization_method 'dichloromethane/diethyl ether'
loop_
_atom_site_label
_atom_site_type_symbol
_atom_site_fract_x
_atom_site_fract_y
_atom_site_fract_z
Ca1 Ca 0.7500 0.22526(7) 0.2500
P1 P 0.82937(3) -0.02640(7) 0.34565(3)
P2 P 0.84485(3) 0.28640(7) 0.39473(3)
O1 O 0.81636(8) 0.07215(16) 0.30076(8)
O2 O 0.79814(9) 0.31875(17) 0.34034(8)
O3 O 0.68129(9) 0.17441(18) 0.32032(9)
O4 O 0.66673(9) 0.35338(18) 0.27772(9)
O5 O 0.63284(12) 0.3232(2) 0.35382(10)
N1 N 0.65969(11) 0.2842(2) 0.31814(11)
C1 C 0.81994(13) 0.0275(3) 0.41504(13)
C2 C 0.80573(14) -0.0648(3) 0.45036(14)
H1 H 0.8018 -0.1489 0.4373
C3 C 0.79712(15) -0.0378(3) 0.50376(15)
H2 H 0.7878 -0.1029 0.5272
C4 C 0.80206(14) 0.0836(3) 0.52318(14)
H3 H 0.7961 0.1028 0.5600
C5 C 0.81571(14) 0.1772(3) 0.48857(13)
H4 H 0.8186 0.2609 0.5022
C6 C 0.82537(13) 0.1536(3) 0.43461(13)
C7 C 0.90931(13) -0.0839(3) 0.35596(13)
C8 C 0.94113(14) -0.0544(3) 0.31481(14)
H5 H 0.9205 -0.0059 0.2825
C9 C 1.00327(15) -0.0948(3) 0.32012(15)
H6 H 1.0246 -0.0742 0.2914
C10 C 1.03360(17) -0.1641(3) 0.36656(17)
H7 H 1.0760 -0.1911 0.3703
C11 C 1.00251(18) -0.1944(4) 0.40778(17)
H8 H 1.0238 -0.2423 0.4400
C12 C 0.94018(16) -0.1559(3) 0.40315(15)
H9 H 0.9190 -0.1784 0.4317
C13 C 0.77611(14) -0.1573(3) 0.32928(13)
C14 C 0.79642(15) -0.2800(3) 0.32694(13)
H10 H 0.8403 -0.2975 0.3321
C15 C 0.75291(17) -0.3763(3) 0.31710(15)
H11 H 0.7669 -0.4599 0.3152
C16 C 0.68958(17) -0.3516(3) 0.30998(15)
H12 H 0.6601 -0.4187 0.3047
C17 C 0.66832(16) -0.2297(3) 0.31052(16)
H13 H 0.6243 -0.2129 0.3042
C18 C 0.71160(15) -0.1324(3) 0.32034(15)
H14 H 0.6973 -0.0486 0.3210
C19 C 0.92273(13) 0.2593(3) 0.38509(13)
C20 C 0.93887(16) 0.3202(3) 0.33934(14)
H15 H 0.9089 0.3733 0.3150
C21 C 0.99781(19) 0.3039(4) 0.32937(18)
H16 H 1.0087 0.3469 0.2986
C22 C 1.04022(19) 0.2270(4) 0.3631(2)
H17 H 1.0804 0.2149 0.3552
C23 C 1.02633(15) 0.1652(3) 0.40905(18)
H18 H 1.0569 0.1117 0.4325
C24 C 0.96675(14) 0.1822(3) 0.42069(14)
H19 H 0.9568 0.1415 0.4524
C25 C 0.85153(13) 0.4171(3) 0.44334(12)
C26 C 0.90770(14) 0.4506(3) 0.48247(13)
H20 H 0.9455 0.4054 0.4833
C27 C 0.90912(15) 0.5486(3) 0.52005(14)
H21 H 0.9475 0.5693 0.5472
C28 C 0.85471(16) 0.6165(3) 0.51810(14)
H22 H 0.8556 0.6836 0.5441
C29 C 0.79920(15) 0.5869(3) 0.47848(15)
H23 H 0.7622 0.6356 0.4764
C30 C 0.79702(14) 0.4866(3) 0.44174(14)
H24 H 0.7582 0.4652 0.4153
P1A P 0.67063(3) -0.02640(7) 0.15435(3)
P2A P 0.65515(3) 0.28640(7) 0.10527(3)
O1A O 0.68364(8) 0.07215(16) 0.19924(8)
O2A O 0.70186(9) 0.31875(17) 0.15966(8)
O3A O 0.81871(9) 0.17441(18) 0.17968(9)
O4A O 0.83327(9) 0.35338(18) 0.22228(9)
O5A O 0.86716(12) 0.3232(2) 0.14618(10)
N1A N 0.84031(11) 0.2842(2) 0.18186(11)
C1A C 0.68006(13) 0.0275(3) 0.08496(13)
C2A C 0.69427(14) -0.0648(3) 0.04964(14)
H1A H 0.6982 -0.1489 0.0627
C3A C 0.70288(15) -0.0378(3) -0.00376(15)
H2A H 0.7122 -0.1029 -0.0272
C4A C 0.69794(14) 0.0836(3) -0.02318(14)
H3A H 0.7039 0.1028 -0.0600
C5A C 0.68429(14) 0.1772(3) 0.01143(13)
H4A H 0.6814 0.2609 -0.0022
C6A C 0.67463(13) 0.1536(3) 0.06539(13)
C7A C 0.59069(13) -0.0839(3) 0.14404(13)
C8A C 0.55887(14) -0.0544(3) 0.18519(14)
H5A H 0.5795 -0.0059 0.2175
C9A C 0.49673(15) -0.0948(3) 0.17988(15)
H6A H 0.4754 -0.0742 0.2086
C10A C 0.46640(17) -0.1641(3) 0.13344(17)
H7A H 0.4240 -0.1911 0.1297
C11A C 0.49749(18) -0.1944(4) 0.09222(17)
H8A H 0.4762 -0.2423 0.0600
C12A C 0.55982(16) -0.1559(3) 0.09685(15)
H9A H 0.5810 -0.1784 0.0683
C13A C 0.72389(14) -0.1573(3) 0.17072(13)
C14A C 0.70358(15) -0.2800(3) 0.17306(13)
H10A H 0.6597 -0.2975 0.1679
C15A C 0.74709(17) -0.3763(3) 0.18290(15)
H11A H 0.7331 -0.4599 0.1848
C16A C 0.81042(17) -0.3516(3) 0.19002(15)
H12A H 0.8399 -0.4187 0.1953
C17A C 0.83168(16) -0.2297(3) 0.18948(16)
H13A H 0.8757 -0.2129 0.1958
C18A C 0.78840(15) -0.1324(3) 0.17966(15)
H14A H 0.8027 -0.0486 0.1790
C19A C 0.57727(13) 0.2593(3) 0.11491(13)
C20A C 0.56113(16) 0.3202(3) 0.16066(14)
H15A H 0.5911 0.3733 0.1850
C21A C 0.50219(19) 0.3039(4) 0.17063(18)
H16A H 0.4913 0.3469 0.2014
C22A C 0.45978(19) 0.2270(4) 0.1369(2)
H17A H 0.4196 0.2149 0.1448
C23A C 0.47367(15) 0.1652(3) 0.09095(18)
H18A H 0.4431 0.1117 0.0675
C24A C 0.53325(14) 0.1822(3) 0.07931(14)
H19A H 0.5432 0.1415 0.0476
C25A C 0.64847(13) 0.4171(3) 0.05666(12)
C26A C 0.59230(14) 0.4506(3) 0.01753(13)
H20A H 0.5545 0.4054 0.0167
C27A C 0.59088(15) 0.5486(3) -0.02005(14)
H21A H 0.5525 0.5693 -0.0472
C28A C 0.64529(16) 0.6165(3) -0.01810(14)
H22A H 0.6444 0.6836 -0.0441
C29A C 0.70080(15) 0.5869(3) 0.02152(15)
H23A H 0.7378 0.6356 0.0236
C30A C 0.70298(14) 0.4866(3) 0.05826(14)
H24A H 0.7418 0.4652 0.0847
Ca2 Ca 0.7500 0.02836(7) 0.7500
P3 P 0.66252(3) 0.28376(7) 0.66171(3)
P4 P 0.63119(3) -0.02983(7) 0.61607(3)
O6 O 0.68067(9) 0.18157(17) 0.70445(8)
O7 O 0.68874(9) -0.06180(18) 0.66194(9)
O8 O 0.80983(10) 0.0664(2) 0.67233(10)
O9 O 0.82236(9) -0.1114(2) 0.71562(10)
O10 O 0.82899(15) -0.1014(3) 0.62793(12)
N2 N 0.82141(13) -0.0483(3) 0.67174(13)
C31 C 0.63838(12) 0.1029(3) 0.56985(12)
C32 C 0.63181(13) 0.0775(3) 0.51192(13)
H25 H 0.6237 -0.0061 0.4990
C33 C 0.63658(14) 0.1689(3) 0.47227(13)
H26 H 0.6311 0.1482 0.4330
C34 C 0.64939(13) 0.2904(3) 0.49091(13)
H27 H 0.6530 0.3541 0.4644
C35 C 0.65692(13) 0.3187(3) 0.54756(13)
H28 H 0.6662 0.4026 0.5597
C36 C 0.65149(12) 0.2289(3) 0.58854(13)
C37 C 0.72137(13) 0.4047(3) 0.66845(13)
C38 C 0.78147(15) 0.3697(3) 0.66310(16)
H29 H 0.7904 0.2845 0.6573
C39 C 0.82782(16) 0.4595(3) 0.66632(17)
H30 H 0.8687 0.4358 0.6627
C40 C 0.81508(16) 0.5835(3) 0.67483(15)
H31 H 0.8470 0.6449 0.6764
C41 C 0.75720(16) 0.6181(3) 0.68094(14)
H32 H 0.7488 0.7034 0.6871
C42 C 0.71016(15) 0.5293(3) 0.67822(13)
H33 H 0.6699 0.5540 0.6831
C43 C 0.59008(13) 0.3563(3) 0.66826(13)
C44 C 0.55982(14) 0.4534(3) 0.63248(14)
H34 H 0.5761 0.4807 0.6014
C45 C 0.50615(15) 0.5093(3) 0.64250(15)
H35 H 0.4861 0.5755 0.6184
C46 C 0.48185(15) 0.4699(3) 0.68686(16)
H36 H 0.4452 0.5091 0.6936
C47 C 0.51069(15) 0.3730(3) 0.72186(16)
H37 H 0.4934 0.3450 0.7522
C48 C 0.56477(14) 0.3167(3) 0.71282(14)
H38 H 0.5846 0.2507 0.7372
C49 C 0.61091(13) -0.1627(3) 0.56853(13)
C50 C 0.65982(14) -0.2376(3) 0.55959(14)
H39 H 0.7026 -0.2181 0.5781
C51 C 0.64630(16) -0.3405(3) 0.52381(15)
H40 H 0.6799 -0.3909 0.5177
C52 C 0.58460(17) -0.3706(3) 0.49704(15)
H41 H 0.5759 -0.4406 0.4720
C53 C 0.53531(16) -0.2994(3) 0.50638(14)
H42 H 0.4927 -0.3217 0.4887
C54 C 0.54828(14) -0.1947(3) 0.54181(13)
H43 H 0.5144 -0.1448 0.5478
C55 C 0.56015(13) -0.0054(3) 0.63967(13)
C56 C 0.54851(15) -0.0886(3) 0.68053(14)
H44 H 0.5806 -0.1446 0.6999
C57 C 0.48939(15) -0.0883(3) 0.69233(15)
H45 H 0.4810 -0.1447 0.7200
C58 C 0.44282(15) -0.0076(3) 0.66457(14)
H46 H 0.4022 -0.0099 0.6724
C59 C 0.45498(14) 0.0770(3) 0.62530(14)
H47 H 0.4231 0.1347 0.6071
C60 C 0.51296(13) 0.0779(3) 0.61259(13)
H48 H 0.5210 0.1355 0.5852
P3A P 0.83748(3) 0.28376(7) 0.83829(3)
P4A P 0.86881(3) -0.02983(7) 0.88393(3)
O6A O 0.81933(9) 0.18157(17) 0.79555(8)
O7A O 0.81126(9) -0.06180(18) 0.83806(9)
O8A O 0.69017(10) 0.0664(2) 0.82767(10)
O9A O 0.67764(9) -0.1114(2) 0.78438(10)
O10A O 0.67101(15) -0.1014(3) 0.87207(12)
N2A N 0.67859(13) -0.0483(3) 0.82826(13)
C31A C 0.86162(12) 0.1029(3) 0.93015(12)
C32A C 0.86819(13) 0.0775(3) 0.98808(13)
H25A H 0.8763 -0.0061 1.0010
C33A C 0.86342(14) 0.1689(3) 1.02773(13)
H26A H 0.8689 0.1482 1.0670
C34A C 0.85061(13) 0.2904(3) 1.00909(13)
H27A H 0.8470 0.3541 1.0356
C35A C 0.84308(13) 0.3187(3) 0.95244(13)
H28A H 0.8338 0.4026 0.9403
C36A C 0.84851(12) 0.2289(3) 0.91146(13)
C37A C 0.77863(13) 0.4047(3) 0.83155(13)
C38A C 0.71853(15) 0.3697(3) 0.83690(16)
H29A H 0.7096 0.2845 0.8427
C39A C 0.67218(16) 0.4595(3) 0.83368(17)
H30A H 0.6313 0.4358 0.8373
C40A C 0.68492(16) 0.5835(3) 0.82517(15)
H31A H 0.6530 0.6449 0.8236
C41A C 0.74280(16) 0.6181(3) 0.81906(14)
H32A H 0.7512 0.7034 0.8129
C42A C 0.78984(15) 0.5293(3) 0.82178(13)
H33A H 0.8301 0.5540 0.8169
C43A C 0.90992(13) 0.3563(3) 0.83174(13)
C44A C 0.94018(14) 0.4534(3) 0.86752(14)
H34A H 0.9239 0.4807 0.8986
C45A C 0.99385(15) 0.5093(3) 0.85750(15)
H35A H 1.0139 0.5755 0.8816
C46A C 1.01815(15) 0.4699(3) 0.81314(16)
H36A H 1.0548 0.5091 0.8064
C47A C 0.98931(15) 0.3730(3) 0.77814(16)
H37A H 1.0066 0.3450 0.7478
C48A C 0.93523(14) 0.3167(3) 0.78718(14)
H38A H 0.9154 0.2507 0.7628
C49A C 0.88909(13) -0.1627(3) 0.93147(13)
C50A C 0.84018(14) -0.2376(3) 0.94041(14)
H39A H 0.7974 -0.2181 0.9219
C51A C 0.85370(16) -0.3405(3) 0.97619(15)
H40A H 0.8201 -0.3909 0.9823
C52A C 0.91540(17) -0.3706(3) 1.00296(15)
H41A H 0.9241 -0.4406 1.0280
C53A C 0.96469(16) -0.2994(3) 0.99362(14)
H42A H 1.0073 -0.3217 1.0113
C54A C 0.95172(14) -0.1947(3) 0.95819(13)
H43A H 0.9856 -0.1448 0.9522
C55A C 0.93985(13) -0.0054(3) 0.86033(13)
C56A C 0.95149(15) -0.0886(3) 0.81947(14)
H44A H 0.9194 -0.1446 0.8001
C57A C 1.01061(15) -0.0883(3) 0.80767(15)
H45A H 1.0190 -0.1447 0.7800
C58A C 1.05718(15) -0.0076(3) 0.83543(14)
H46A H 1.0978 -0.0099 0.8276
C59A C 1.04502(14) 0.0770(3) 0.87470(14)
H47A H 1.0769 0.1347 0.8929
C60A C 0.98704(13) 0.0779(3) 0.88741(13)
H48A H 0.9790 0.1355 0.9148
loop_
_geom_bond_atom_site_label_1
_geom_bond_atom_site_label_2
_geom_bond_site_symmetry_1
_geom_bond_site_symmetry_2
Ca1 O1 1_555 1_555
P1 O1 1_555 1_555
P2 O2 1_555 1_555
O2 Ca1 1_555 1_555
O3 Ca1 1_555 1_555
O4 Ca1 1_555 1_555
O5 N1 1_555 1_555
N1 O3 1_555 1_555
C1 P1 1_555 1_555
C2 C1 1_555 1_555
H1 C2 1_555 1_555
C3 C2 1_555 1_555
H2 C3 1_555 1_555
C4 C3 1_555 1_555
H3 C4 1_555 1_555
C5 C4 1_555 1_555
H4 C5 1_555 1_555
C6 P2 1_555 1_555
C7 P1 1_555 1_555
C8 C7 1_555 1_555
H5 C8 1_555 1_555
C9 C8 1_555 1_555
H6 C9 1_555 1_555
C10 C9 1_555 1_555
H7 C10 1_555 1_555
C11 C10 1_555 1_555
H8 C11 1_555 1_555
C12 C7 1_555 1_555
H9 C12 1_555 1_555
C13 P1 1_555 1_555
C14 C13 1_555 1_555
H10 C14 1_555 1_555
C15 C14 1_555 1_555
H11 C15 1_555 1_555
C16 C15 1_555 1_555
H12 C16 1_555 1_555
C17 C16 1_555 1_555
H13 C17 1_555 1_555
C18 C13 1_555 1_555
H14 C18 1_555 1_555
C19 P2 1_555 1_555
C20 C19 1_555 1_555
H15 C20 1_555 1_555
C21 C20 1_555 1_555
H16 C21 1_555 1_555
C22 C21 1_555 1_555
H17 C22 1_555 1_555
C23 C22 1_555 1_555
H18 C23 1_555 1_555
C24 C19 1_555 1_555
H19 C24 1_555 1_555
C25 P2 1_555 1_555
C26 C25 1_555 1_555
H20 C26 1_555 1_555
C27 C26 1_555 1_555
H21 C27 1_555 1_555
C28 C27 1_555 1_555
H22 C28 1_555 1_555
C29 C28 1_555 1_555
H23 C29 1_555 1_555
C30 C25 1_555 1_555
H24 C30 1_555 1_555
Ca2 O6 1_555 1_555
P3 O6 1_555 1_555
P4 O7 1_555 1_555
O7 Ca2 1_555 1_555
O8 Ca2 1_555 1_555
O9 Ca2 1_555 1_555
O10 N2 1_555 1_555
N2 O8 1_555 1_555
C31 P4 1_555 1_555
C32 C31 1_555 1_555
H25 C32 1_555 1_555
C33 C32 1_555 1_555
H26 C33 1_555 1_555
C34 C33 1_555 1_555
H27 C34 1_555 1_555
C35 C34 1_555 1_555
H28 C35 1_555 1_555
C36 P3 1_555 1_555
C37 P3 1_555 1_555
C38 C37 1_555 1_555
H29 C38 1_555 1_555
C39 C38 1_555 1_555
H30 C39 1_555 1_555
C40 C39 1_555 1_555
H31 C40 1_555 1_555
C41 C40 1_555 1_555
H32 C41 1_555 1_555
C42 C37 1_555 1_555
H33 C42 1_555 1_555
C43 P3 1_555 1_555
C44 C43 1_555 1_555
H34 C44 1_555 1_555
C45 C44 1_555 1_555
H35 C45 1_555 1_555
C46 C45 1_555 1_555
H36 C46 1_555 1_555
C47 C46 1_555 1_555
H37 C47 1_555 1_555
C48 C43 1_555 1_555
H38 C48 1_555 1_555
C49 P4 1_555 1_555
C50 C49 1_555 1_555
H39 C50 1_555 1_555
C51 C50 1_555 1_555
H40 C51 1_555 1_555
C52 C51 1_555 1_555
H41 C52 1_555 1_555
C53 C52 1_555 1_555
H42 C53 1_555 1_555
C54 C49 1_555 1_555
H43 C54 1_555 1_555
C55 P4 1_555 1_555
C56 C55 1_555 1_555
H44 C56 1_555 1_555
C57 C56 1_555 1_555
H45 C57 1_555 1_555
C58 C57 1_555 1_555
H46 C58 1_555 1_555
C59 C58 1_555 1_555
H47 C59 1_555 1_555
C60 C55 1_555 1_555
H48 C60 1_555 1_555
P1A O1A 1_555 1_555
P2A O2A 1_555 1_555
O1A Ca1 1_555 1_555
O2A Ca1 1_555 1_555
O3A Ca1 1_555 1_555
O4A Ca1 1_555 1_555
O5A N1A 1_555 1_555
N1A O3A 1_555 1_555
C1A P1A 1_555 1_555
C2A C1A 1_555 1_555
H1A C2A 1_555 1_555
C3A C2A 1_555 1_555
H2A C3A 1_555 1_555
C4A C3A 1_555 1_555
H3A C4A 1_555 1_555
C5A C4A 1_555 1_555
H4A C5A 1_555 1_555
C6A P2A 1_555 1_555
C7A P1A 1_555 1_555
C8A C7A 1_555 1_555
H5A C8A 1_555 1_555
C9A C8A 1_555 1_555
H6A C9A 1_555 1_555
C10A C9A 1_555 1_555
H7A C10A 1_555 1_555
C11A C10A 1_555 1_555
H8A C11A 1_555 1_555
C12A C7A 1_555 1_555
H9A C12A 1_555 1_555
C13A P1A 1_555 1_555
C14A C13A 1_555 1_555
H10A C14A 1_555 1_555
C15A C14A 1_555 1_555
H11A C15A 1_555 1_555
C16A C15A 1_555 1_555
H12A C16A 1_555 1_555
C17A C16A 1_555 1_555
H13A C17A 1_555 1_555
C18A C13A 1_555 1_555
H14A C18A 1_555 1_555
C19A P2A 1_555 1_555
C20A C19A 1_555 1_555
H15A C20A 1_555 1_555
C21A C20A 1_555 1_555
H16A C21A 1_555 1_555
C22A C21A 1_555 1_555
H17A C22A 1_555 1_555
C23A C22A 1_555 1_555
H18A C23A 1_555 1_555
C24A C19A 1_555 1_555
H19A C24A 1_555 1_555
C25A P2A 1_555 1_555
C26A C25A 1_555 1_555
H20A C26A 1_555 1_555
C27A C26A 1_555 1_555
H21A C27A 1_555 1_555
C28A C27A 1_555 1_555
H22A C28A 1_555 1_555
C29A C28A 1_555 1_555
H23A C29A 1_555 1_555
C30A C25A 1_555 1_555
H24A C30A 1_555 1_555
P3A O6A 1_555 1_555
P4A O7A 1_555 1_555
O6A Ca2 1_555 1_555
O7A Ca2 1_555 1_555
O8A Ca2 1_555 1_555
O9A Ca2 1_555 1_555
O10A N2A 1_555 1_555
N2A O8A 1_555 1_555
C31A P4A 1_555 1_555
C32A C31A 1_555 1_555
H25A C32A 1_555 1_555
C33A C32A 1_555 1_555
H26A C33A 1_555 1_555
C34A C33A 1_555 1_555
H27A C34A 1_555 1_555
C35A C34A 1_555 1_555
H28A C35A 1_555 1_555
C36A P3A 1_555 1_555
C37A P3A 1_555 1_555
C38A C37A 1_555 1_555
H29A C38A 1_555 1_555
C39A C38A 1_555 1_555
H30A C39A 1_555 1_555
C40A C39A 1_555 1_555
H31A C40A 1_555 1_555
C41A C40A 1_555 1_555
H32A C41A 1_555 1_555
C42A C37A 1_555 1_555
H33A C42A 1_555 1_555
C43A P3A 1_555 1_555
C44A C43A 1_555 1_555
H34A C44A 1_555 1_555
C45A C44A 1_555 1_555
H35A C45A 1_555 1_555
C46A C45A 1_555 1_555
H36A C46A 1_555 1_555
C47A C46A 1_555 1_555
H37A C47A 1_555 1_555
C48A C43A 1_555 1_555
H38A C48A 1_555 1_555
C49A P4A 1_555 1_555
C50A C49A 1_555 1_555
H39A C50A 1_555 1_555
C51A C50A 1_555 1_555
H40A C51A 1_555 1_555
C52A C51A 1_555 1_555
H41A C52A 1_555 1_555
C53A C52A 1_555 1_555
H42A C53A 1_555 1_555
C54A C49A 1_555 1_555
H43A C54A 1_555 1_555
C55A P4A 1_555 1_555
C56A C55A 1_555 1_555
H44A C56A 1_555 1_555
C57A C56A 1_555 1_555
H45A C57A 1_555 1_555
C58A C57A 1_555 1_555
H46A C58A 1_555 1_555
C59A C58A 1_555 1_555
H47A C59A 1_555 1_555
C60A C55A 1_555 1_555
H48A C60A 1_555 1_555
O4 N1 1_555 1_555
C1 C6 1_555 1_555
C5 C6 1_555 1_555
C11 C12 1_555 1_555
C17 C18 1_555 1_555
C23 C24 1_555 1_555
C29 C30 1_555 1_555
O9 N2 1_555 1_555
C31 C36 1_555 1_555
C35 C36 1_555 1_555
C41 C42 1_555 1_555
C47 C48 1_555 1_555
C53 C54 1_555 1_555
C59 C60 1_555 1_555
O4A N1A 1_555 1_555
C1A C6A 1_555 1_555
C5A C6A 1_555 1_555
C11A C12A 1_555 1_555
C17A C18A 1_555 1_555
C23A C24A 1_555 1_555
C29A C30A 1_555 1_555
O9A N2A 1_555 1_555
C31A C36A 1_555 1_555
C35A C36A 1_555 1_555
C41A C42A 1_555 1_555
C47A C48A 1_555 1_555
C53A C54A 1_555 1_555
C59A C60A 1_555 1_555

#END
