
#######################################################################
#
#                 Cambridge Crystallographic Data Centre
#                                CCDC 
#
#######################################################################
#
# If this CIF has been generated from an entry in the Cambridge 
# Structural Database, then it will include bibliographic, chemical, 
# crystal, experimental, refinement or atomic coordinate data resulting 
# from the CCDC's data processing and validation procedures.
#
#######################################################################

data_KEHPOD
_chemical_formula_moiety         'C10 H18 I1 P3'
_chemical_name_systematic        
2,4-Di-t-butyl-3-iodo-1,3,5-triphosphatricyclo[2.1.0.0^2,5^]pentane
_symmetry_cell_setting           orthorhombic
_symmetry_space_group_name_H-M   'P 21 21 21'
_symmetry_Int_Tables_number      19
_space_group_name_Hall           'P 2ac 2ab'
loop_
_symmetry_equiv_pos_site_id
_symmetry_equiv_pos_as_xyz
1 x,y,z
2 1/2-x,-y,1/2+z
3 -x,1/2+y,1/2-z
4 1/2+x,1/2-y,-z
_cell_length_a                   6.2694(4)
_cell_length_b                   13.2771(9)
_cell_length_c                   17.2491(12)
_cell_angle_alpha                90
_cell_angle_beta                 90
_cell_angle_gamma                90
_cell_volume                     1435.81
_exptl_crystal_colour            yellow
_exptl_crystal_description       needle
_cell_formula_units_Z            4
loop_
_atom_site_label
_atom_site_type_symbol
_atom_site_fract_x
_atom_site_fract_y
_atom_site_fract_z
C1 C 0.5316(3) 0.51198(17) 0.47076(12)
C2 C 0.5259(3) 0.43883(18) 0.53870(12)
C3 C 0.7552(4) 0.4089(2) 0.55931(15)
H1 H 0.8251 0.3803 0.5135
H2 H 0.7531 0.3588 0.6010
H3 H 0.8339 0.4686 0.5766
C4 C 0.3985(5) 0.34581(19) 0.51534(15)
H4 H 0.2537 0.3659 0.5005
H5 H 0.3917 0.2989 0.5592
H6 H 0.4683 0.3128 0.4713
C5 C 0.4217(5) 0.48912(19) 0.60898(13)
H7 H 0.5000 0.5507 0.6221
H8 H 0.4249 0.4428 0.6532
H9 H 0.2734 0.5061 0.5966
C6 C 0.5362(4) 0.62557(17) 0.37348(12)
C7 C 0.5352(4) 0.70442(17) 0.30998(13)
C8 C 0.3934(4) 0.6681(2) 0.24306(13)
H10 H 0.4470 0.6035 0.2237
H11 H 0.3960 0.7179 0.2012
H12 H 0.2468 0.6597 0.2616
C9 C 0.7642(4) 0.7197(2) 0.28087(15)
H13 H 0.8531 0.7451 0.3233
H14 H 0.7643 0.7684 0.2382
H15 H 0.8215 0.6552 0.2625
C10 C 0.4496(4) 0.80433(16) 0.34140(14)
H16 H 0.3006 0.7958 0.3573
H17 H 0.4583 0.8559 0.3009
H18 H 0.5351 0.8253 0.3862
I1 I 0.93271(2) 0.443256(12) 0.339762(9)
P1 P 0.54225(10) 0.48790(4) 0.36660(3)
P2 P 0.32118(10) 0.61317(5) 0.45191(4)
P3 P 0.65566(10) 0.63943(5) 0.47188(3)
loop_
_geom_bond_atom_site_label_1
_geom_bond_atom_site_label_2
_geom_bond_site_symmetry_1
_geom_bond_site_symmetry_2
C1 C2 1_555 1_555
C2 C3 1_555 1_555
C3 H1 1_555 1_555
H2 C3 1_555 1_555
H3 C3 1_555 1_555
C4 C2 1_555 1_555
H4 C4 1_555 1_555
H5 C4 1_555 1_555
H6 C4 1_555 1_555
C5 C2 1_555 1_555
H7 C5 1_555 1_555
H8 C5 1_555 1_555
H9 C5 1_555 1_555
C6 C7 1_555 1_555
C7 C8 1_555 1_555
C8 H10 1_555 1_555
H11 C8 1_555 1_555
H12 C8 1_555 1_555
C9 C7 1_555 1_555
H13 C9 1_555 1_555
H14 C9 1_555 1_555
H15 C9 1_555 1_555
C10 C7 1_555 1_555
H16 C10 1_555 1_555
H17 C10 1_555 1_555
H18 C10 1_555 1_555
I1 P1 1_555 1_555
P1 C1 1_555 1_555
P2 C1 1_555 1_555
P3 C1 1_555 1_555
C6 P1 1_555 1_555
C6 P2 1_555 1_555
C6 P3 1_555 1_555
P2 P3 1_555 1_555

#END
