
#######################################################################
#
#                 Cambridge Crystallographic Data Centre
#                                CCDC 
#
#######################################################################
#
# If this CIF has been generated from an entry in the Cambridge 
# Structural Database, then it will include bibliographic, chemical, 
# crystal, experimental, refinement or atomic coordinate data resulting 
# from the CCDC's data processing and validation procedures.
#
#######################################################################

data_KEHTOG
_chemical_formula_moiety         'C22 H22 O6'
_chemical_name_systematic        
"11,12,13,14-Tetrahydro-12,13-dimethylcyclo-octa(1,2-f:3,4-f')bis(1,3)benzodioxol-11-yl acetate"
_symmetry_cell_setting           orthorhombic
_symmetry_space_group_name_H-M   'P 21 21 21'
_symmetry_Int_Tables_number      19
_space_group_name_Hall           'P 2ac 2ab'
loop_
_symmetry_equiv_pos_site_id
_symmetry_equiv_pos_as_xyz
1 x,y,z
2 1/2+x,1/2-y,-z
3 -x,1/2+y,1/2-z
4 1/2-x,-y,1/2+z
_cell_length_a                   9.393(1)
_cell_length_b                   11.395(3)
_cell_length_c                   17.888(5)
_cell_angle_alpha                90
_cell_angle_beta                 90
_cell_angle_gamma                90
_cell_volume                     1914.61
_cell_formula_units_Z            4
loop_
_atom_site_label
_atom_site_type_symbol
_atom_site_fract_x
_atom_site_fract_y
_atom_site_fract_z
C1 C 0.1230(6) 0.3042(4) -0.2771(2)
C2 C 0.2190(4) 0.3105(3) -0.1628(2)
C3 C 0.2792(4) 0.3437(3) -0.0967(2)
C4 C 0.3382(4) 0.2554(3) -0.0509(2)
C5 C 0.4097(4) 0.2946(3) 0.0204(2)
C6 C 0.3078(4) 0.3101(3) 0.0878(2)
C7 C 0.2923(4) 0.1980(3) 0.1345(2)
C8 C 0.2515(4) 0.0921(3) 0.0859(2)
C9 C 0.3739(4) 0.0292(3) 0.0479(2)
C10 C 0.4548(4) -0.0505(3) 0.0898(2)
C11 C 0.5574(4) -0.1137(3) 0.0544(2)
C12 C 0.7374(5) -0.2331(4) 0.0239(2)
C13 C 0.5830(4) -0.1029(3) -0.0210(2)
C14 C 0.5076(4) -0.0240(3) -0.0637(2)
C15 C 0.4028(4) 0.0451(3) -0.0284(2)
C16 C 0.3321(4) 0.1380(3) -0.0736(2)
C17 C 0.2696(4) 0.1079(3) -0.1428(2)
C18 C 0.2148(4) 0.1947(3) -0.1857(2)
C19 C 0.3579(5) 0.4154(4) 0.1348(3)
C20 C 0.1824(6) 0.2188(5) 0.1972(3)
C21 C 0.0767(4) -0.0570(3) 0.1080(2)
C22 C 0.0093(5) -0.1301(5) 0.1678(2)
O1 O 0.0419(3) -0.0573(2) 0.0436(1)
O2 O 0.1567(4) 0.3806(2) -0.2166(1)
O3 O 0.1472(4) 0.1874(3) -0.2536(1)
O4 O 0.6867(3) -0.1780(2) -0.0430(1)
O5 O 0.6484(3) -0.1957(2) 0.0846(2)
O6 O 0.1822(2) 0.0078(2) 0.1356(1)
H1 H 0.0310(48) 0.3173(34) -0.2924(21)
H2 H 0.1824(63) 0.3235(44) -0.3182(26)
H3 H 0.2937(38) 0.4293(31) -0.0756(19)
H4 H 0.4863(32) 0.2416(26) 0.0340(14)
H5 H 0.4529(38) 0.3715(30) 0.0121(17)
H6 H 0.2044(31) 0.3315(24) 0.0655(14)
H7 H 0.4406(50) 0.3933(36) 0.1596(21)
H8 H 0.2926(48) 0.4390(33) 0.1738(21)
H9 H 0.3747(51) 0.4883(41) 0.1064(22)
H10 H 0.0758(50) 0.2250(38) 0.1770(21)
H11 H 0.1725(46) 0.1507(35) 0.2284(21)
H12 H 0.1992(51) 0.2864(41) 0.2320(22)
H13 H 0.3779(27) 0.1796(21) 0.1592(13)
H14 H -0.0639(71) -0.1160(60) 0.1689(30)
H15 H 0.0176(63) -0.2083(49) 0.1533(30)
H16 H 0.0501(44) -0.1158(35) 0.2130(20)
H17 H 0.4307(43) -0.0602(31) 0.1412(21)
H18 H 0.2476(36) 0.0312(26) -0.1562(15)
H19 H 0.1818(29) 0.1156(23) 0.0501(14)
H20 H 0.7456(44) -0.3181(33) 0.0181(20)
H21 H 0.5242(31) -0.0158(26) -0.1178(15)
H22 H 0.8393(42) -0.2052(35) 0.0351(19)
loop_
_geom_bond_atom_site_label_1
_geom_bond_atom_site_label_2
_geom_bond_site_symmetry_1
_geom_bond_site_symmetry_2
C1 O2 1_555 1_555
C2 C3 1_555 1_555
C3 C4 1_555 1_555
C4 C5 1_555 1_555
C5 C6 1_555 1_555
C6 C7 1_555 1_555
C7 C8 1_555 1_555
C8 C9 1_555 1_555
C9 C10 1_555 1_555
C10 C11 1_555 1_555
C11 C13 1_555 1_555
C12 O4 1_555 1_555
C13 C14 1_555 1_555
C14 C15 1_555 1_555
C15 C9 1_555 1_555
C16 C4 1_555 1_555
C17 C16 1_555 1_555
C18 C2 1_555 1_555
C19 C6 1_555 1_555
C20 C7 1_555 1_555
C21 C22 1_555 1_555
C22 H14 1_555 1_555
O1 C21 1_555 1_555
O2 C2 1_555 1_555
O3 C1 1_555 1_555
O4 C13 1_555 1_555
O5 C11 1_555 1_555
O6 C8 1_555 1_555
H1 C1 1_555 1_555
H2 C1 1_555 1_555
H3 C3 1_555 1_555
H4 C5 1_555 1_555
H5 C5 1_555 1_555
H6 C6 1_555 1_555
H7 C19 1_555 1_555
H8 C19 1_555 1_555
H9 C19 1_555 1_555
H10 C20 1_555 1_555
H11 C20 1_555 1_555
H12 C20 1_555 1_555
H13 C7 1_555 1_555
H15 C22 1_555 1_555
H16 C22 1_555 1_555
H17 C10 1_555 1_555
H18 C17 1_555 1_555
H19 C8 1_555 1_555
H20 C12 1_555 1_555
H21 C14 1_555 1_555
H22 C12 1_555 1_555
C12 O5 1_555 1_555
C15 C16 1_555 1_555
C17 C18 1_555 1_555
C18 O3 1_555 1_555
C21 O6 1_555 1_555

#END
