
#######################################################################
#
#                 Cambridge Crystallographic Data Centre
#                                CCDC 
#
#######################################################################
#
# If this CIF has been generated from an entry in the Cambridge 
# Structural Database, then it will include bibliographic, chemical, 
# crystal, experimental, refinement or atomic coordinate data resulting 
# from the CCDC's data processing and validation procedures.
#
#######################################################################

data_KEJHIT
_chemical_formula_moiety         'C25 H32 N2 O7'
_chemical_name_systematic        
't-butyl 3-[(benzyloxy)(2,2-dimethyl-1,3-dioxolan-4-yl)methyl]-6-oxo-3a,6,7,7a-tetrahydro-4,7-methano[1,2]oxazolo[4,5-c]pyridine-5(4H)-carboxylate'
_symmetry_cell_setting           triclinic
_symmetry_space_group_name_H-M   'P 1'
_symmetry_Int_Tables_number      1
_space_group_name_Hall           'P 1'
loop_
_symmetry_equiv_pos_site_id
_symmetry_equiv_pos_as_xyz
1 x,y,z
_cell_length_a                   6.0765(2)
_cell_length_b                   9.6451(4)
_cell_length_c                   11.0698(4)
_cell_angle_alpha                89.902(3)
_cell_angle_beta                 75.421(3)
_cell_angle_gamma                76.398(4)
_cell_volume                     609.143
_cell_formula_units_Z            1
loop_
_atom_site_label
_atom_site_type_symbol
_atom_site_fract_x
_atom_site_fract_y
_atom_site_fract_z
O1 O 0.6080(2) 1.36657(13) 0.13750(13)
O2 O 0.4262(2) 0.99804(14) -0.04859(13)
O3 O 0.6838(2) 0.68890(14) 0.21727(11)
O4 O 1.0241(2) 0.62321(17) -0.10253(13)
O5 O 1.1292(2) 0.39562(14) -0.05043(12)
O6 O 1.0157(2) 1.02055(15) 0.28128(13)
O7 O 0.8620(2) 1.25957(14) 0.30602(12)
N1 N 0.8490(2) 1.13746(16) 0.13706(14)
N2 N 0.5018(3) 0.84852(17) -0.03451(15)
C1 C 0.6478(3) 1.1722(2) -0.01632(16)
H1 H 0.5938 1.2366 -0.0795
C2 C 0.4842(3) 1.07781(19) 0.04495(16)
H2 H 0.3413 1.1336 0.1073
C3 C 0.6395(3) 0.96386(18) 0.10619(15)
H3 H 0.5799 0.9693 0.1993
C4 C 0.8800(3) 1.00336(18) 0.06343(16)
H4 H 1.0197 0.9257 0.0667
C5 C 0.8801(3) 1.0606(2) -0.06545(17)
H5 H 0.8714 0.9884 -0.1264
H6 H 1.0138 1.1035 -0.1003
C6 C 0.6191(3) 0.82967(19) 0.04668(15)
C7 C 0.7174(3) 0.68279(19) 0.08578(15)
H7 H 0.6364 0.6128 0.0608
C8 C 0.9823(3) 0.6320(2) 0.02965(16)
H8 H 1.0644 0.7006 0.0559
C9 C 1.0856(3) 0.4804(2) 0.06259(16)
H9 H 1.2326 0.4753 0.0875
H10 H 0.9729 0.4486 0.1315
C10 C 1.1757(3) 0.4871(2) -0.14920(17)
C11 C 1.4284(3) 0.4982(2) -0.18353(19)
H11 H 1.4657 0.5332 -0.1098
H12 H 1.4509 0.5648 -0.2499
H13 H 1.5322 0.4038 -0.2130
C12 C 1.1071(5) 0.4336(4) -0.2593(2)
H14 H 0.9434 0.4273 -0.2331
H15 H 1.2083 0.3389 -0.2900
H16 H 1.1251 0.5000 -0.3261
C13 C 0.4453(3) 0.7056(2) 0.28439(16)
H17 H 0.4027 0.6127 0.2842
H18 H 0.3424 0.7740 0.2433
C14 C 0.4101(3) 0.7603(2) 0.41758(16)
C15 C 0.5714(3) 0.8209(2) 0.45264(18)
H19 H 0.7093 0.8290 0.3923
C16 C 0.2072(3) 0.7512(2) 0.50639(19)
H20 H 0.0945 0.7111 0.4828
C17 C 0.5316(4) 0.8702(3) 0.5766(2)
H21 H 0.6427 0.9116 0.6005
C18 C 0.1688(4) 0.8006(3) 0.62973(19)
H22 H 0.0299 0.7941 0.6900
C19 C 0.3307(4) 0.8588(3) 0.66495(18)
H23 H 0.3050 0.8912 0.7495
C20 C 0.6934(3) 1.24616(19) 0.09385(16)
C21 C 0.9170(3) 1.13133(19) 0.24916(16)
C22 C 0.9299(3) 1.2804(2) 0.42360(17)
C23 C 0.8249(4) 1.1915(3) 0.5236(2)
H24 H 0.8992 1.0900 0.5007
H25 H 0.6562 1.2088 0.5317
H26 H 0.8512 1.2176 0.6034
C24 C 1.1956(4) 1.2472(3) 0.3954(2)
H27 H 1.2604 1.1445 0.3750
H28 H 1.2412 1.2755 0.4687
H29 H 1.2564 1.3002 0.3241
C25 C 0.8194(5) 1.4388(3) 0.4562(2)
H30 H 0.6485 1.4560 0.4745
H31 H 0.8759 1.4937 0.3854
H32 H 0.8627 1.4688 0.5298
loop_
_geom_bond_atom_site_label_1
_geom_bond_atom_site_label_2
_geom_bond_site_symmetry_1
_geom_bond_site_symmetry_2
O1 C20 1_555 1_555
O2 N2 1_555 1_555
O3 C7 1_555 1_555
O4 C8 1_555 1_555
O5 C9 1_555 1_555
O6 C21 1_555 1_555
O7 C21 1_555 1_555
N1 C4 1_555 1_555
N2 C6 1_555 1_555
C1 H1 1_555 1_555
C2 O2 1_555 1_555
H2 C2 1_555 1_555
C3 C2 1_555 1_555
H3 C3 1_555 1_555
C4 C3 1_555 1_555
H4 C4 1_555 1_555
C5 C1 1_555 1_555
H5 C5 1_555 1_555
H6 C5 1_555 1_555
C6 C3 1_555 1_555
C7 C6 1_555 1_555
H7 C7 1_555 1_555
C8 C7 1_555 1_555
H8 C8 1_555 1_555
C9 C8 1_555 1_555
H9 C9 1_555 1_555
H10 C9 1_555 1_555
C10 O4 1_555 1_555
C11 C10 1_555 1_555
H11 C11 1_555 1_555
H12 C11 1_555 1_555
H13 C11 1_555 1_555
C12 C10 1_555 1_555
H14 C12 1_555 1_555
H15 C12 1_555 1_555
H16 C12 1_555 1_555
C13 O3 1_555 1_555
H17 C13 1_555 1_555
H18 C13 1_555 1_555
C14 C13 1_555 1_555
C15 C14 1_555 1_555
H19 C15 1_555 1_555
C16 C14 1_555 1_555
H20 C16 1_555 1_555
C17 C15 1_555 1_555
H21 C17 1_555 1_555
C18 C16 1_555 1_555
H22 C18 1_555 1_555
C19 C17 1_555 1_555
H23 C19 1_555 1_555
C20 N1 1_555 1_555
C21 N1 1_555 1_555
C22 O7 1_555 1_555
C23 C22 1_555 1_555
H24 C23 1_555 1_555
H25 C23 1_555 1_555
H26 C23 1_555 1_555
C24 C22 1_555 1_555
H27 C24 1_555 1_555
H28 C24 1_555 1_555
H29 C24 1_555 1_555
C25 C22 1_555 1_555
H30 C25 1_555 1_555
H31 C25 1_555 1_555
H32 C25 1_555 1_555
O5 C10 1_555 1_555
C1 C2 1_555 1_555
C1 C20 1_555 1_555
C4 C5 1_555 1_555
C18 C19 1_555 1_555

#END
