
#######################################################################
#
#                 Cambridge Crystallographic Data Centre
#                                CCDC 
#
#######################################################################
#
# If this CIF has been generated from an entry in the Cambridge 
# Structural Database, then it will include bibliographic, chemical, 
# crystal, experimental, refinement or atomic coordinate data resulting 
# from the CCDC's data processing and validation procedures.
#
#######################################################################

data_KEJHOZ
_chemical_formula_moiety         'C30 H44 N2 O10'
_chemical_name_systematic        
'methyl 3-[1-(acetylamino)-2-(benzyloxy)-2-(2,2-dimethyl-1,3-dioxolan-4-yl)ethyl]-2-(acetyloxy)-4-[(t-butoxycarbonyl)amino]cyclopentane-1-carboxylate'
_symmetry_cell_setting           orthorhombic
_symmetry_space_group_name_H-M   'P 21 21 21'
_symmetry_Int_Tables_number      19
_space_group_name_Hall           'P 2ac 2ab'
loop_
_symmetry_equiv_pos_site_id
_symmetry_equiv_pos_as_xyz
1 x,y,z
2 1/2-x,-y,1/2+z
3 -x,1/2+y,1/2-z
4 1/2+x,1/2-y,-z
_cell_length_a                   10.3732(4)
_cell_length_b                   16.8818(4)
_cell_length_c                   35.8766(11)
_cell_angle_alpha                90
_cell_angle_beta                 90
_cell_angle_gamma                90
_cell_volume                     6282.65
_exptl_crystal_description       column
_cell_formula_units_Z            8
loop_
_atom_site_label
_atom_site_type_symbol
_atom_site_fract_x
_atom_site_fract_y
_atom_site_fract_z
O1 O 0.4408(5) 0.2889(3) 0.48400(15)
O2 O 0.6710(4) 0.1140(2) 0.53215(11)
O3 O 0.4363(4) 0.2217(2) 0.64287(11)
O4 O 0.2111(4) 0.1050(2) 0.65442(11)
O5 O 0.3106(5) 0.0707(3) 0.70689(13)
O6 O 0.7507(4) 0.2233(2) 0.65160(11)
O7 O 0.6764(4) 0.3456(2) 0.66775(10)
O8 O 0.5564(5) 0.0306(3) 0.49638(14)
O9 O 0.5904(4) -0.0258(2) 0.59699(12)
O10 O 0.6218(4) 0.3307(2) 0.45754(11)
N1 N 0.6613(5) 0.3076(3) 0.60909(12)
H1 H 0.6306 0.3556 0.6057
N2 N 0.6118(5) 0.1030(3) 0.61523(14)
H2 H 0.6549 0.1353 0.6299
C1 C 0.6427(6) 0.2465(3) 0.50930(16)
H3 H 0.7200 0.2261 0.4957
C2 C 0.5735(6) 0.1769(3) 0.52889(16)
H4 H 0.4946 0.1592 0.5152
C3 C 0.5440(6) 0.2046(3) 0.56831(15)
H5 H 0.4700 0.2425 0.5667
C4 C 0.6669(6) 0.2541(3) 0.57723(15)
H6 H 0.7414 0.2172 0.5805
C5 C 0.6871(6) 0.3022(3) 0.54150(15)
H7 H 0.7790 0.3167 0.5385
H8 H 0.6348 0.3512 0.5419
C6 C 0.5019(6) 0.1356(3) 0.59437(16)
H9 H 0.4696 0.0922 0.5779
C7 C 0.3909(6) 0.1584(3) 0.61982(15)
H10 H 0.3186 0.1787 0.6041
C8 C 0.3411(6) 0.0873(3) 0.64267(17)
H11 H 0.3401 0.0391 0.6265
C9 C 0.4085(7) 0.0679(4) 0.67907(18)
H12 H 0.4479 0.0145 0.6780
H13 H 0.4769 0.1072 0.6844
C10 C 0.1916(7) 0.0650(4) 0.68846(17)
C11 C 0.1470(8) -0.0190(4) 0.68201(19)
H14 H 0.2125 -0.0478 0.6678
H15 H 0.0658 -0.0185 0.6680
H16 H 0.1336 -0.0452 0.7061
C12 C 0.0932(8) 0.1110(5) 0.7113(2)
H17 H 0.1236 0.1654 0.7149
H18 H 0.0822 0.0854 0.7356
H19 H 0.0105 0.1117 0.6981
C13 C 0.3384(6) 0.2718(3) 0.65967(16)
H20 H 0.3814 0.3153 0.6734
H21 H 0.2891 0.2401 0.6780
C14 C 0.2451(6) 0.3073(3) 0.63182(16)
C15 C 0.2898(7) 0.3615(3) 0.60526(18)
H22 H 0.3788 0.3747 0.6047
C16 C 0.1158(6) 0.2877(4) 0.63247(19)
H23 H 0.0840 0.2508 0.6502
C17 C 0.2083(7) 0.3957(4) 0.58014(18)
H24 H 0.2402 0.4327 0.5624
C18 C 0.0333(7) 0.3224(4) 0.6070(2)
H25 H -0.0558 0.3092 0.6075
C19 C 0.0777(7) 0.3760(4) 0.5807(2)
H26 H 0.0199 0.3991 0.5633
C20 C 0.5560(6) 0.2895(4) 0.48252(15)
C21 C 0.7006(6) 0.2870(3) 0.64314(15)
C22 C 0.7108(6) 0.3379(4) 0.70715(16)
C23 C 0.8567(7) 0.3300(5) 0.71099(19)
H27 H 0.8846 0.2794 0.7003
H28 H 0.8804 0.3320 0.7374
H29 H 0.8989 0.3736 0.6977
C24 C 0.6645(8) 0.4162(4) 0.72318(18)
H30 H 0.5706 0.4197 0.7207
H31 H 0.7049 0.4600 0.7096
H32 H 0.6882 0.4193 0.7496
C25 C 0.6388(7) 0.2698(4) 0.72460(18)
H33 H 0.5459 0.2779 0.7214
H34 H 0.6593 0.2671 0.7512
H35 H 0.6644 0.2202 0.7125
C26 C 0.5454(7) 0.3783(3) 0.43197(17)
H36 H 0.6028 0.4062 0.4147
H37 H 0.4948 0.4170 0.4461
H38 H 0.4872 0.3438 0.4178
C27 C 0.6534(6) 0.0473(3) 0.51282(16)
C28 C 0.7738(6) -0.0019(3) 0.51355(18)
H39 H 0.7599 -0.0506 0.4992
H40 H 0.7951 -0.0155 0.5394
H41 H 0.8450 0.0281 0.5025
C29 C 0.6509(7) 0.0272(3) 0.61344(17)
C30 C 0.7775(6) 0.0102(3) 0.6333(2)
H42 H 0.7990 -0.0461 0.6305
H43 H 0.7689 0.0230 0.6598
H44 H 0.8461 0.0425 0.6223
O11 O 0.4489(5) 0.7886(3) 0.47943(14)
O12 O 0.6777(4) 0.6157(2) 0.52691(10)
O13 O 0.4550(4) 0.7101(2) 0.64247(11)
O14 O 0.2402(4) 0.5970(2) 0.65689(11)
O15 O 0.3429(4) 0.4980(3) 0.68929(13)
O16 O 0.7766(4) 0.7148(2) 0.64551(10)
O17 O 0.6925(4) 0.8291(2) 0.66822(11)
O18 O 0.5529(5) 0.5344(3) 0.49308(15)
O19 O 0.6035(4) 0.4725(2) 0.59025(12)
O20 O 0.6315(4) 0.8379(2) 0.45615(11)
N3 N 0.6729(5) 0.8032(3) 0.60820(12)
H45 H 0.6407 0.8513 0.6069
N4 N 0.6293(5) 0.5992(2) 0.60944(13)
H46 H 0.6747 0.6310 0.6237
C31 C 0.6507(6) 0.7507(3) 0.50698(15)
H47 H 0.7296 0.7318 0.4937
C32 C 0.5818(6) 0.6796(3) 0.52552(16)
H48 H 0.5019 0.6636 0.5118
C33 C 0.5539(6) 0.7048(3) 0.56566(15)
H49 H 0.4786 0.7418 0.5651
C34 C 0.6757(6) 0.7544(3) 0.57482(14)
H50 H 0.7514 0.7179 0.5764
C35 C 0.6906(6) 0.8061(3) 0.53992(14)
H51 H 0.7808 0.8242 0.5370
H52 H 0.6334 0.8530 0.5412
C36 C 0.5156(6) 0.6323(3) 0.59035(15)
H53 H 0.4827 0.5903 0.5731
C37 C 0.4064(6) 0.6515(3) 0.61754(15)
H54 H 0.3335 0.6752 0.6031
C38 C 0.3566(6) 0.5769(3) 0.63739(16)
H55 H 0.3358 0.5360 0.6181
C39 C 0.4367(7) 0.5388(4) 0.66746(18)
H56 H 0.5004 0.5016 0.6567
H57 H 0.4825 0.5792 0.6825
C40 C 0.2282(6) 0.5459(3) 0.68840(17)
C41 C 0.1155(7) 0.4908(4) 0.6833(2)
H58 H 0.1270 0.4601 0.6604
H59 H 0.0358 0.5217 0.6817
H60 H 0.1104 0.4545 0.7046
C42 C 0.2193(9) 0.5947(4) 0.72298(19)
H61 H 0.2956 0.6287 0.7249
H62 H 0.2148 0.5598 0.7448
H63 H 0.1417 0.6278 0.7219
C43 C 0.3608(6) 0.7624(3) 0.65968(16)
H64 H 0.4074 0.8047 0.6733
H65 H 0.3109 0.7317 0.6782
C44 C 0.2677(6) 0.8006(3) 0.63287(16)
C45 C 0.3087(7) 0.8580(3) 0.60799(17)
H66 H 0.3974 0.8719 0.6073
C46 C 0.1390(6) 0.7793(4) 0.63343(19)
H67 H 0.1093 0.7396 0.6501
C47 C 0.2243(7) 0.8959(4) 0.58409(18)
H68 H 0.2539 0.9357 0.5675
C48 C 0.0535(7) 0.8168(4) 0.6093(2)
H69 H -0.0351 0.8027 0.6096
C49 C 0.0961(7) 0.8744(4) 0.5850(2)
H70 H 0.0366 0.8995 0.5687
C50 C 0.5637(6) 0.7932(3) 0.47991(15)
C51 C 0.7178(6) 0.7770(3) 0.64084(16)
C52 C 0.7305(7) 0.8111(4) 0.70715(17)
C53 C 0.8755(7) 0.8101(6) 0.7105(2)
H71 H 0.9099 0.7645 0.6968
H72 H 0.8998 0.8060 0.7368
H73 H 0.9108 0.8591 0.6999
C54 C 0.6682(7) 0.7343(4) 0.71994(17)
H74 H 0.5744 0.7384 0.7173
H75 H 0.6899 0.7247 0.7461
H76 H 0.7001 0.6904 0.7046
C55 C 0.6721(9) 0.8819(4) 0.72774(19)
H77 H 0.5782 0.8813 0.7248
H78 H 0.7068 0.9311 0.7173
H79 H 0.6940 0.8786 0.7543
C56 C 0.5543(7) 0.8850(3) 0.43039(16)
H80 H 0.6115 0.9156 0.4141
H81 H 0.4989 0.9211 0.4445
H82 H 0.5007 0.8497 0.4152
C57 C 0.6538(6) 0.5485(3) 0.50826(16)
C58 C 0.7705(6) 0.4965(3) 0.50846(17)
H83 H 0.7522 0.4477 0.4946
H84 H 0.7933 0.4833 0.5342
H85 H 0.8426 0.5244 0.4967
C59 C 0.6679(6) 0.5239(3) 0.60644(15)
C60 C 0.7966(6) 0.5057(3) 0.62405(18)
H86 H 0.8170 0.4496 0.6205
H87 H 0.7928 0.5175 0.6508
H88 H 0.8635 0.5383 0.6124
loop_
_geom_bond_atom_site_label_1
_geom_bond_atom_site_label_2
_geom_bond_site_symmetry_1
_geom_bond_site_symmetry_2
O1 C20 1_555 1_555
O2 C2 1_555 1_555
O3 C7 1_555 1_555
O4 C8 1_555 1_555
O5 C9 1_555 1_555
O6 C21 1_555 1_555
O7 C21 1_555 1_555
O8 C27 1_555 1_555
O9 C29 1_555 1_555
O10 C20 1_555 1_555
N1 H1 1_555 1_555
N2 H2 1_555 1_555
C1 H3 1_555 1_555
C2 C1 1_555 1_555
H4 C2 1_555 1_555
C3 C2 1_555 1_555
H5 C3 1_555 1_555
C4 N1 1_555 1_555
H6 C4 1_555 1_555
C5 C1 1_555 1_555
H7 C5 1_555 1_555
H8 C5 1_555 1_555
C6 N2 1_555 1_555
H9 C6 1_555 1_555
C7 C6 1_555 1_555
H10 C7 1_555 1_555
C8 C7 1_555 1_555
H11 C8 1_555 1_555
C9 C8 1_555 1_555
H12 C9 1_555 1_555
H13 C9 1_555 1_555
C10 O4 1_555 1_555
C11 C10 1_555 1_555
H14 C11 1_555 1_555
H15 C11 1_555 1_555
H16 C11 1_555 1_555
C12 C10 1_555 1_555
H17 C12 1_555 1_555
H18 C12 1_555 1_555
H19 C12 1_555 1_555
C13 O3 1_555 1_555
H20 C13 1_555 1_555
H21 C13 1_555 1_555
C14 C13 1_555 1_555
C15 C14 1_555 1_555
H22 C15 1_555 1_555
C16 C14 1_555 1_555
H23 C16 1_555 1_555
C17 C15 1_555 1_555
H24 C17 1_555 1_555
C18 C16 1_555 1_555
H25 C18 1_555 1_555
C19 C17 1_555 1_555
H26 C19 1_555 1_555
C20 C1 1_555 1_555
C21 N1 1_555 1_555
C22 O7 1_555 1_555
C23 C22 1_555 1_555
H27 C23 1_555 1_555
H28 C23 1_555 1_555
H29 C23 1_555 1_555
C24 C22 1_555 1_555
H30 C24 1_555 1_555
H31 C24 1_555 1_555
H32 C24 1_555 1_555
C25 C22 1_555 1_555
H33 C25 1_555 1_555
H34 C25 1_555 1_555
H35 C25 1_555 1_555
C26 O10 1_555 1_555
H36 C26 1_555 1_555
H37 C26 1_555 1_555
H38 C26 1_555 1_555
C27 O2 1_555 1_555
C28 C27 1_555 1_555
H39 C28 1_555 1_555
H40 C28 1_555 1_555
H41 C28 1_555 1_555
C29 N2 1_555 1_555
C30 C29 1_555 1_555
H42 C30 1_555 1_555
H43 C30 1_555 1_555
H44 C30 1_555 1_555
O11 C50 1_555 1_555
O12 C32 1_555 1_555
O13 C37 1_555 1_555
O14 C38 1_555 1_555
O15 C39 1_555 1_555
O16 C51 1_555 1_555
O17 C51 1_555 1_555
O18 C57 1_555 1_555
O19 C59 1_555 1_555
O20 C50 1_555 1_555
N3 H45 1_555 1_555
N4 H46 1_555 1_555
C31 H47 1_555 1_555
C32 C31 1_555 1_555
H48 C32 1_555 1_555
C33 C32 1_555 1_555
H49 C33 1_555 1_555
C34 N3 1_555 1_555
H50 C34 1_555 1_555
C35 C31 1_555 1_555
H51 C35 1_555 1_555
H52 C35 1_555 1_555
C36 N4 1_555 1_555
H53 C36 1_555 1_555
C37 C36 1_555 1_555
H54 C37 1_555 1_555
C38 C37 1_555 1_555
H55 C38 1_555 1_555
C39 C38 1_555 1_555
H56 C39 1_555 1_555
H57 C39 1_555 1_555
C40 O14 1_555 1_555
C41 C40 1_555 1_555
H58 C41 1_555 1_555
H59 C41 1_555 1_555
H60 C41 1_555 1_555
C42 C40 1_555 1_555
H61 C42 1_555 1_555
H62 C42 1_555 1_555
H63 C42 1_555 1_555
C43 O13 1_555 1_555
H64 C43 1_555 1_555
H65 C43 1_555 1_555
C44 C43 1_555 1_555
C45 C44 1_555 1_555
H66 C45 1_555 1_555
C46 C44 1_555 1_555
H67 C46 1_555 1_555
C47 C45 1_555 1_555
H68 C47 1_555 1_555
C48 C46 1_555 1_555
H69 C48 1_555 1_555
C49 C47 1_555 1_555
H70 C49 1_555 1_555
C50 C31 1_555 1_555
C51 N3 1_555 1_555
C52 O17 1_555 1_555
C53 C52 1_555 1_555
H71 C53 1_555 1_555
H72 C53 1_555 1_555
H73 C53 1_555 1_555
C54 C52 1_555 1_555
H74 C54 1_555 1_555
H75 C54 1_555 1_555
H76 C54 1_555 1_555
C55 C52 1_555 1_555
H77 C55 1_555 1_555
H78 C55 1_555 1_555
H79 C55 1_555 1_555
C56 O20 1_555 1_555
H80 C56 1_555 1_555
H81 C56 1_555 1_555
H82 C56 1_555 1_555
C57 O12 1_555 1_555
C58 C57 1_555 1_555
H83 C58 1_555 1_555
H84 C58 1_555 1_555
H85 C58 1_555 1_555
C59 N4 1_555 1_555
C60 C59 1_555 1_555
H86 C60 1_555 1_555
H87 C60 1_555 1_555
H88 C60 1_555 1_555
O5 C10 1_555 1_555
C3 C4 1_555 1_555
C3 C6 1_555 1_555
C4 C5 1_555 1_555
C18 C19 1_555 1_555
O15 C40 1_555 1_555
C33 C34 1_555 1_555
C33 C36 1_555 1_555
C34 C35 1_555 1_555
C48 C49 1_555 1_555

#END
