
#######################################################################
#
#                 Cambridge Crystallographic Data Centre
#                                CCDC 
#
#######################################################################
#
# If this CIF has been generated from an entry in the Cambridge 
# Structural Database, then it will include bibliographic, chemical, 
# crystal, experimental, refinement or atomic coordinate data resulting 
# from the CCDC's data processing and validation procedures.
#
#######################################################################

data_KEJMAP
_chemical_formula_moiety         'C30 H51 N3 O3'
_chemical_name_systematic        
'3\a-N-Methylpiperazino-16\b-morpholino-5\a-androstan-17\b-yl acetate'
_symmetry_cell_setting           monoclinic
_symmetry_space_group_name_H-M   'P 21'
_symmetry_Int_Tables_number      4
_space_group_name_Hall           'P 2yb'
loop_
_symmetry_equiv_pos_site_id
_symmetry_equiv_pos_as_xyz
1 x,y,z
2 -x,1/2+y,-z
_cell_length_a                   11.9265(17)
_cell_length_b                   6.4618(9)
_cell_length_c                   19.568(3)
_cell_angle_alpha                90
_cell_angle_beta                 107.097(2)
_cell_angle_gamma                90
_cell_volume                     1441.4
_exptl_crystal_colour            colorless
_exptl_crystal_description       block
_cell_formula_units_Z            2
loop_
_atom_site_label
_atom_site_type_symbol
_atom_site_fract_x
_atom_site_fract_y
_atom_site_fract_z
C1 C 0.2427(2) 0.6962(5) 0.15316(14)
H1 H 0.2004 0.8264 0.1444
H2 H 0.1857 0.5865 0.1495
C2 C 0.3269(3) 0.6983(5) 0.22921(14)
H3 H 0.3805 0.8142 0.2344
H4 H 0.2826 0.7162 0.2632
C3 C 0.3967(2) 0.4975(4) 0.24548(13)
H5 H 0.3388 0.3857 0.2377
C4 C 0.4634(2) 0.4654(5) 0.19001(12)
H6 H 0.5204 0.5755 0.1944
H7 H 0.5055 0.3350 0.1992
C5 C 0.3792(2) 0.4642(4) 0.11447(12)
H8 H 0.3234 0.3523 0.1136
C6 C 0.4389(2) 0.4081(4) 0.05812(13)
H9 H 0.4830 0.2810 0.0719
H10 H 0.4936 0.5167 0.0555
C7 C 0.3496(2) 0.3798(4) -0.01507(13)
H11 H 0.3017 0.2593 -0.0139
H12 H 0.3908 0.3548 -0.0503
C8 C 0.27005(19) 0.5688(4) -0.03767(12)
H13 H 0.3178 0.6854 -0.0450
C9 C 0.2130(2) 0.6285(4) 0.02085(13)
H14 H 0.1668 0.5080 0.0266
C10 C 0.3045(2) 0.6640(4) 0.09502(13)
C11 C 0.1247(3) 0.8068(5) -0.00360(15)
H15 H 0.0834 0.8268 0.0318
H16 H 0.1675 0.9331 -0.0058
C12 C 0.0345(2) 0.7704(5) -0.07659(15)
H17 H -0.0176 0.6588 -0.0726
H18 H -0.0124 0.8943 -0.0909
C13 C 0.0929(2) 0.7157(4) -0.13395(14)
C14 C 0.1740(2) 0.5278(4) -0.10737(13)
H19 H 0.1244 0.4191 -0.0967
C15 C 0.2048(2) 0.4563(4) -0.17378(12)
H20 H 0.2383 0.3183 -0.1676
H21 H 0.2590 0.5509 -0.1861
C16 C 0.0829(2) 0.4593(4) -0.23082(13)
H22 H 0.0469 0.3257 -0.2263
C17 C 0.0104(2) 0.6250(4) -0.20268(13)
H23 H -0.0535 0.5533 -0.1904
C18 C 0.3811(3) 0.8549(4) 0.09300(16)
H24 H 0.3359 0.9785 0.0918
H25 H 0.4072 0.8489 0.0511
H26 H 0.4479 0.8560 0.1349
C19 C 0.1592(3) 0.9040(4) -0.14970(16)
H27 H 0.1956 0.8690 -0.1859
H28 H 0.2183 0.9449 -0.1069
H29 H 0.1052 1.0163 -0.1662
C20 C 0.7091(4) 0.4072(8) 0.52409(18)
H30 H 0.6505 0.4371 0.5474
H31 H 0.7717 0.5061 0.5389
H32 H 0.7395 0.2705 0.5369
C21 C 0.6134(3) 0.6234(6) 0.42412(17)
H33 H 0.6770 0.7224 0.4393
H34 H 0.5538 0.6604 0.4467
C22 C 0.5617(3) 0.6334(5) 0.34386(16)
H35 H 0.5326 0.7718 0.3298
H36 H 0.6218 0.6021 0.3211
C23 C 0.5094(3) 0.2792(5) 0.34302(15)
H37 H 0.5679 0.2413 0.3197
H38 H 0.4453 0.1808 0.3285
C24 C 0.5627(3) 0.2696(6) 0.42278(17)
H39 H 0.5028 0.2973 0.4460
H40 H 0.5933 0.1317 0.4364
C25 C -0.1450(3) 0.7378(6) -0.30181(15)
C26 C -0.1834(3) 0.9044(6) -0.35651(17)
H41 H -0.1691 0.8617 -0.4002
H42 H -0.1402 1.0288 -0.3394
H43 H -0.2657 0.9301 -0.3652
C27 C 0.1470(3) 0.6387(6) -0.32497(16)
H44 H 0.2296 0.6073 -0.3041
H45 H 0.1309 0.7708 -0.3062
C28 C 0.1184(3) 0.6503(7) -0.40518(18)
H46 H 0.0366 0.6887 -0.4253
H47 H 0.1659 0.7572 -0.4177
C29 C 0.0738(4) 0.2997(7) -0.4164(2)
H48 H 0.0925 0.1696 -0.4353
H49 H -0.0092 0.3262 -0.4377
C30 C 0.0999(3) 0.2820(6) -0.33590(17)
H50 H 0.0518 0.1738 -0.3246
H51 H 0.1816 0.2449 -0.3147
N1 N 0.6566(2) 0.4195(5) 0.44646(12)
N2 N 0.46609(18) 0.4849(4) 0.32086(11)
N3 N 0.07580(19) 0.4775(4) -0.30627(11)
O1 O 0.1389(2) 0.4594(5) -0.43528(12)
O2 O -0.04030(15) 0.7829(3) -0.25449(10)
O3 O -0.1990(2) 0.5862(5) -0.29896(14)
loop_
_geom_bond_atom_site_label_1
_geom_bond_atom_site_label_2
_geom_bond_site_symmetry_1
_geom_bond_site_symmetry_2
C1 H1 1_555 1_555
H2 C1 1_555 1_555
C2 C1 1_555 1_555
H3 C2 1_555 1_555
H4 C2 1_555 1_555
C3 C2 1_555 1_555
H5 C3 1_555 1_555
C4 C3 1_555 1_555
H6 C4 1_555 1_555
H7 C4 1_555 1_555
C5 C4 1_555 1_555
H8 C5 1_555 1_555
C6 C5 1_555 1_555
H9 C6 1_555 1_555
H10 C6 1_555 1_555
C7 C6 1_555 1_555
H11 C7 1_555 1_555
H12 C7 1_555 1_555
C8 C7 1_555 1_555
H13 C8 1_555 1_555
C9 C8 1_555 1_555
H14 C9 1_555 1_555
C10 C1 1_555 1_555
C11 C9 1_555 1_555
H15 C11 1_555 1_555
H16 C11 1_555 1_555
C12 C11 1_555 1_555
H17 C12 1_555 1_555
H18 C12 1_555 1_555
C13 C12 1_555 1_555
C14 C8 1_555 1_555
H19 C14 1_555 1_555
C15 C14 1_555 1_555
H20 C15 1_555 1_555
H21 C15 1_555 1_555
C16 C15 1_555 1_555
H22 C16 1_555 1_555
C17 C13 1_555 1_555
H23 C17 1_555 1_555
C18 C10 1_555 1_555
H24 C18 1_555 1_555
H25 C18 1_555 1_555
H26 C18 1_555 1_555
C19 C13 1_555 1_555
H27 C19 1_555 1_555
H28 C19 1_555 1_555
H29 C19 1_555 1_555
C20 H30 1_555 1_555
H31 C20 1_555 1_555
H32 C20 1_555 1_555
C21 H33 1_555 1_555
H34 C21 1_555 1_555
C22 C21 1_555 1_555
H35 C22 1_555 1_555
H36 C22 1_555 1_555
C23 H37 1_555 1_555
H38 C23 1_555 1_555
C24 C23 1_555 1_555
H39 C24 1_555 1_555
H40 C24 1_555 1_555
C25 C26 1_555 1_555
C26 H41 1_555 1_555
H42 C26 1_555 1_555
H43 C26 1_555 1_555
C27 H44 1_555 1_555
H45 C27 1_555 1_555
C28 C27 1_555 1_555
H46 C28 1_555 1_555
H47 C28 1_555 1_555
C29 H48 1_555 1_555
H49 C29 1_555 1_555
C30 C29 1_555 1_555
H50 C30 1_555 1_555
H51 C30 1_555 1_555
N1 C20 1_555 1_555
N2 C3 1_555 1_555
N3 C16 1_555 1_555
O1 C28 1_555 1_555
O2 C17 1_555 1_555
O3 C25 1_555 1_555
C5 C10 1_555 1_555
C9 C10 1_555 1_555
C13 C14 1_555 1_555
C16 C17 1_555 1_555
C21 N1 1_555 1_555
C22 N2 1_555 1_555
C23 N2 1_555 1_555
C24 N1 1_555 1_555
C25 O2 1_555 1_555
C27 N3 1_555 1_555
C29 O1 1_555 1_555
C30 N3 1_555 1_555

#END
