
#######################################################################
#
#                 Cambridge Crystallographic Data Centre
#                                CCDC 
#
#######################################################################
#
# If this CIF has been generated from an entry in the Cambridge 
# Structural Database, then it will include bibliographic, chemical, 
# crystal, experimental, refinement or atomic coordinate data resulting 
# from the CCDC's data processing and validation procedures.
#
#######################################################################

data_KEJMIX
_chemical_formula_moiety         'C14 H9 N1 O2 S1'
_chemical_name_systematic        
6-((2-Thienylmethylene)amino)-2H-chromen-2-one
_symmetry_cell_setting           orthorhombic
_symmetry_space_group_name_H-M   'P c a 21'
_symmetry_Int_Tables_number      29
_space_group_name_Hall           'P 2c -2ac'
loop_
_symmetry_equiv_pos_site_id
_symmetry_equiv_pos_as_xyz
1 x,y,z
2 -x,-y,1/2+z
3 1/2-x,y,1/2+z
4 1/2+x,-y,z
_cell_length_a                   6.950(2)
_cell_length_b                   6.1751(17)
_cell_length_c                   26.797(9)
_cell_angle_alpha                90
_cell_angle_beta                 90
_cell_angle_gamma                90
_cell_volume                     1150.05
_exptl_crystal_colour            colorless
_exptl_crystal_description       prism
_cell_formula_units_Z            4
loop_
_atom_site_label
_atom_site_type_symbol
_atom_site_fract_x
_atom_site_fract_y
_atom_site_fract_z
C1 C 0.4742(3) 0.4087(4) 0.10514(10)
C2 C 0.4251(3) 0.4799(4) 0.05766(9)
H1 H 0.3847 0.6254 0.0529
C3 C 0.4347(3) 0.3392(4) 0.01658(9)
C4 C 0.3847(4) 0.4015(4) -0.03371(9)
H2 H 0.3487 0.5469 -0.0406
C5 C 0.3889(4) 0.2546(4) -0.07105(9)
H3 H 0.3561 0.2987 -0.1039
C6 C 0.4421(4) 0.0318(5) -0.06199(9)
C7 C 0.4981(3) 0.1272(4) 0.02448(9)
C8 C 0.5557(4) 0.0537(4) 0.07123(10)
H4 H 0.6018 -0.0898 0.0757
C9 C 0.5435(3) 0.1981(4) 0.11151(9)
H5 H 0.5832 0.1518 0.1437
C10 C 0.3902(3) 0.4874(4) 0.18659(9)
H6 H 0.3418 0.3436 0.1876
C11 C 0.3798(3) 0.6185(4) 0.23158(11)
C12 C 0.3099(4) 0.5551(4) 0.27759(9)
H7 H 0.253 0.4178 0.2838
C13 C 0.3322(4) 0.7175(5) 0.31440(10)
H8 H 0.2915 0.7014 0.348
C14 C 0.4183(4) 0.8988(5) 0.29644(10)
H9 H 0.4448 1.0235 0.316
N1 N 0.4618(3) 0.5574(3) 0.14559(8)
O1 O 0.4383(3) -0.1148(3) -0.09234(7)
O2 O 0.5046(3) -0.0215(3) -0.01419(7)
S1 S 0.47372(8) 0.87672(10) 0.23406(3)
loop_
_geom_bond_atom_site_label_1
_geom_bond_atom_site_label_2
_geom_bond_site_symmetry_1
_geom_bond_site_symmetry_2
C1 C2 1_555 1_555
C2 H1 1_555 1_555
C3 C2 1_555 1_555
C4 C3 1_555 1_555
H2 C4 1_555 1_555
C5 C4 1_555 1_555
H3 C5 1_555 1_555
C6 C5 1_555 1_555
C7 C3 1_555 1_555
C8 C7 1_555 1_555
H4 C8 1_555 1_555
C9 C1 1_555 1_555
H5 C9 1_555 1_555
C10 H6 1_555 1_555
C11 C10 1_555 1_555
C12 C11 1_555 1_555
H7 C12 1_555 1_555
C13 C12 1_555 1_555
H8 C13 1_555 1_555
C14 C13 1_555 1_555
H9 C14 1_555 1_555
N1 C1 1_555 1_555
O1 C6 1_555 1_555
O2 C6 1_555 1_555
S1 C11 1_555 1_555
C7 O2 1_555 1_555
C8 C9 1_555 1_555
C10 N1 1_555 1_555
C14 S1 1_555 1_555

#END
