
#######################################################################
#
#                 Cambridge Crystallographic Data Centre
#                                CCDC 
#
#######################################################################
#
# If this CIF has been generated from an entry in the Cambridge 
# Structural Database, then it will include bibliographic, chemical, 
# crystal, experimental, refinement or atomic coordinate data resulting 
# from the CCDC's data processing and validation procedures.
#
#######################################################################

data_KEJPUN
_chemical_formula_moiety         'C22 H25 N1'
_chemical_name_systematic        1-butyl-4-phenyl-3-(propan-2-yl)isoquinoline
_symmetry_cell_setting           triclinic
_symmetry_space_group_name_H-M   'P -1'
_symmetry_Int_Tables_number      2
_space_group_name_Hall           '-P 1'
loop_
_symmetry_equiv_pos_site_id
_symmetry_equiv_pos_as_xyz
1 x,y,z
2 -x,-y,-z
_cell_length_a                   8.5186(3)
_cell_length_b                   9.9958(3)
_cell_length_c                   11.9702(4)
_cell_angle_alpha                100.2380(10)
_cell_angle_beta                 101.5230(10)
_cell_angle_gamma                111.7070(10)
_cell_volume                     891.752
_exptl_crystal_colour            colorless
_exptl_crystal_description       plate
_cell_formula_units_Z            2
loop_
_atom_site_label
_atom_site_type_symbol
_atom_site_fract_x
_atom_site_fract_y
_atom_site_fract_z
N1 N 0.09394(11) 0.77595(9) 0.49137(7)
C1 C 0.24332(13) 0.86033(11) 0.57566(8)
C2 C 0.09284(13) 0.68029(11) 0.39313(8)
C3 C 0.24350(13) 0.66850(11) 0.37761(8)
C4 C 0.40742(13) 0.75994(11) 0.46718(8)
C5 C 0.56969(13) 0.75694(11) 0.45817(9)
H1 H 0.5711 0.692 0.3904
C6 C 0.72432(13) 0.84619(12) 0.54573(9)
H2 H 0.8318 0.8426 0.5383
C7 C 0.72453(14) 0.94324(12) 0.64666(9)
H3 H 0.8321 1.0048 0.7072
C8 C 0.57023(13) 0.94931(11) 0.65790(9)
H4 H 0.5719 1.0153 0.7263
C9 C 0.40806(13) 0.85826(11) 0.56875(8)
C10 C 0.23113(13) 0.95429(11) 0.68432(9)
H5 H 0.123 0.9714 0.6632
H6 H 0.334 1.0531 0.7116
C11 C 0.22648(14) 0.87971(12) 0.78580(9)
H7 H 0.1233 0.7812 0.7585
H8 H 0.3342 0.862 0.8063
C12 C 0.21526(16) 0.97379(14) 0.89655(9)
H9 H 0.3155 1.074 0.9219
H10 H 0.1047 0.9875 0.8771
C13 C 0.21916(18) 0.90195(16) 0.99860(10)
H11 H 0.1205 0.8025 0.9738
H12 H 0.2087 0.9648 1.0669
H13 H 0.3308 0.8923 1.0207
C14 C -0.08891(13) 0.58631(11) 0.30577(9)
H14 H -0.0776 0.5152 0.241
C15 C -0.21427(14) 0.49456(12) 0.36688(9)
H15 H -0.1655 0.431 0.4008
H16 H -0.3297 0.4315 0.3087
H17 H -0.2279 0.5624 0.4303
C16 C -0.16214(14) 0.68536(12) 0.25001(9)
H18 H -0.1616 0.7633 0.3128
H19 H -0.2833 0.624 0.1992
H20 H -0.0884 0.7323 0.2023
C17 C 0.24358(12) 0.56450(11) 0.27090(9)
C18 C 0.23156(15) 0.59917(12) 0.16281(9)
H21 H 0.2148 0.6863 0.1551
C19 C 0.24382(17) 0.50775(14) 0.06601(10)
H22 H 0.2351 0.5324 -0.0074
C20 C 0.26879(16) 0.38050(13) 0.07649(10)
H23 H 0.2791 0.3187 0.0108
C21 C 0.27866(15) 0.34403(12) 0.18314(10)
H24 H 0.294 0.2562 0.1903
C22 C 0.26615(14) 0.43531(12) 0.27974(9)
H25 H 0.2731 0.4094 0.3526
loop_
_geom_bond_atom_site_label_1
_geom_bond_atom_site_label_2
_geom_bond_site_symmetry_1
_geom_bond_site_symmetry_2
N1 C1 1_555 1_555
C1 C9 1_555 1_555
C2 N1 1_555 1_555
C3 C2 1_555 1_555
C4 C3 1_555 1_555
C5 C4 1_555 1_555
H1 C5 1_555 1_555
C6 C5 1_555 1_555
H2 C6 1_555 1_555
C7 C6 1_555 1_555
H3 C7 1_555 1_555
C8 C7 1_555 1_555
H4 C8 1_555 1_555
C9 C4 1_555 1_555
C10 C1 1_555 1_555
H5 C10 1_555 1_555
H6 C10 1_555 1_555
C11 C10 1_555 1_555
H7 C11 1_555 1_555
H8 C11 1_555 1_555
C12 C11 1_555 1_555
H9 C12 1_555 1_555
H10 C12 1_555 1_555
C13 C12 1_555 1_555
H11 C13 1_555 1_555
H12 C13 1_555 1_555
H13 C13 1_555 1_555
C14 C2 1_555 1_555
H14 C14 1_555 1_555
C15 C14 1_555 1_555
H15 C15 1_555 1_555
H16 C15 1_555 1_555
H17 C15 1_555 1_555
C16 C14 1_555 1_555
H18 C16 1_555 1_555
H19 C16 1_555 1_555
H20 C16 1_555 1_555
C17 C3 1_555 1_555
C18 C17 1_555 1_555
H21 C18 1_555 1_555
C19 C18 1_555 1_555
H22 C19 1_555 1_555
C20 C19 1_555 1_555
H23 C20 1_555 1_555
C21 C20 1_555 1_555
H24 C21 1_555 1_555
C22 C17 1_555 1_555
H25 C22 1_555 1_555
C8 C9 1_555 1_555
C21 C22 1_555 1_555

#END
