
#######################################################################
#
#                 Cambridge Crystallographic Data Centre
#                                CCDC 
#
#######################################################################
#
# If this CIF has been generated from an entry in the Cambridge 
# Structural Database, then it will include bibliographic, chemical, 
# crystal, experimental, refinement or atomic coordinate data resulting 
# from the CCDC's data processing and validation procedures.
#
#######################################################################

data_KEJXAB
_chemical_formula_moiety         'C65 H65 N5,C16 H36 N1 1+,C10 H8 O4 P1 1-'
_chemical_name_systematic        
'tetrabutylammonium 6,13,20,27,34-penta-t-butylhexacyclo[30.3.1.1^4,8^.1^11,15^.1^18,22^.1^25,29^]tetraconta-1(36),2,4(40),5,7,9,11(39),12,14,16,18(38),19,21,23,25(37),26,28,30,32,34-icosaene-2,9,16,23,30-pentacarbonitrile naphthalen-1-yl hydrogen phosphate'
_symmetry_cell_setting           triclinic
_symmetry_space_group_name_H-M   'P -1'
_symmetry_Int_Tables_number      2
_space_group_name_Hall           '-P 1'
loop_
_symmetry_equiv_pos_site_id
_symmetry_equiv_pos_as_xyz
1 x,y,z
2 -x,-y,-z
_cell_length_a                   19.8221(8)
_cell_length_b                   19.9724(9)
_cell_length_c                   26.3593(12)
_cell_angle_alpha                85.363(2)
_cell_angle_beta                 80.631(2)
_cell_angle_gamma                65.581(2)
_cell_volume                     9374.2
_exptl_crystal_colour            colorless
_exptl_crystal_description       block
_cell_formula_units_Z            4
_exptl_crystal_recrystallization_method 'dichloromethane/ethyl ether'
loop_
_atom_site_label
_atom_site_type_symbol
_atom_site_fract_x
_atom_site_fract_y
_atom_site_fract_z
P1 P -0.02492(8) 0.50263(8) 0.58087(6)
O1 O -0.0408(4) 0.4315(3) 0.5999(2)
O2 O -0.0816(3) 0.5500(3) 0.54625(17)
O3 O -0.0280(2) 0.5415(2) 0.62619(16)
O4 O 0.0486(2) 0.4662(2) 0.54812(16)
C1 C -0.0894(6) 0.4238(4) 0.6397(3)
C2 C -0.1662(6) 0.4697(6) 0.6442(4)
C3 C -0.2176(6) 0.4632(6) 0.6781(5)
C4 C -0.1962(8) 0.4048(7) 0.7148(5)
C5 C -0.1200(8) 0.3545(6) 0.7126(4)
C6 C -0.0988(9) 0.2993(8) 0.7471(5)
C7 C -0.0250(14) 0.2486(10) 0.7468(8)
C8 C 0.0278(11) 0.2588(8) 0.7094(7)
C9 C 0.0075(6) 0.3143(6) 0.6753(5)
C10 C -0.0653(7) 0.3654(6) 0.6738(4)
H1 H -0.084(3) 0.530(3) 0.5212(14)
H2 H -0.1818 0.5077 0.6190
H3 H -0.2683 0.4971 0.6791
H4 H -0.2329 0.3989 0.7405
H5 H -0.1356 0.2951 0.7736
H6 H -0.0116 0.2082 0.7703
H7 H 0.0790 0.2264 0.7087
H8 H 0.0449 0.3198 0.6500
P2 P 0.49803(9) 0.02337(9) 0.92156(6)
O5 O 0.5837(2) -0.0178(3) 0.89642(18)
O6 O 0.4960(3) 0.0783(2) 0.95988(17)
O7 O 0.4528(2) 0.0602(3) 0.88055(16)
O8 O 0.4825(3) -0.0383(3) 0.95074(17)
C11 C 0.6220(4) 0.0081(5) 0.8577(3)
C12 C 0.6151(5) 0.0774(6) 0.8562(3)
C13 C 0.6577(6) 0.1012(7) 0.8165(5)
C14 C 0.7026(6) 0.0585(8) 0.7799(5)
C15 C 0.7120(5) -0.0179(8) 0.7799(4)
C16 C 0.7631(5) -0.0733(10) 0.7420(4)
C17 C 0.7691(9) -0.1428(9) 0.7458(6)
C18 C 0.7288(7) -0.1620(7) 0.7845(5)
C19 C 0.6807(5) -0.1161(6) 0.8215(3)
C20 C 0.6715(4) -0.0406(6) 0.8207(3)
H9 H 0.506(3) -0.049(3) 0.9753(15)
H10 H 0.5806 0.1106 0.8816
H11 H 0.6548 0.1499 0.8166
H12 H 0.7294 0.0758 0.7528
H13 H 0.7905 -0.0571 0.7145
H14 H 0.8035 -0.1767 0.7208
H15 H 0.7345 -0.2116 0.7848
H16 H 0.6534 -0.1334 0.8483
N1 N -0.0386(4) 0.1335(3) 0.5783(3)
N2 N -0.4310(4) 0.5516(4) 0.5421(3)
N3 N -0.3125(5) 0.9035(4) 0.6136(4)
N4 N 0.1933(3) 0.7075(3) 0.6478(3)
N5 N 0.3481(3) 0.2105(3) 0.6300(2)
C21 C -0.0354(3) 0.1838(3) 0.5552(2)
C22 C -0.0406(3) 0.2531(3) 0.5381(3)
C23 C -0.1196(3) 0.3036(2) 0.5259(3)
C24 C -0.1432(3) 0.3774(3) 0.5247(3)
C25 C -0.2150(3) 0.4222(2) 0.5167(4)
C26 C -0.2651(3) 0.3921(3) 0.5075(4)
C27 C -0.2432(2) 0.3202(2) 0.5074(2)
C28 C -0.1679(3) 0.2704(2) 0.5181(4)
C29 C -0.29619(18) 0.28295(17) 0.50120(15)
C30 C -0.2515(3) 0.2034(4) 0.4853(6)
C31 C -0.3467(7) 0.2841(8) 0.5518(3)
C32 C -0.3460(7) 0.3232(6) 0.4601(5)
C33 C -0.2370(3) 0.5017(3) 0.5202(3)
C34 C -0.3713(3) 0.5481(3) 0.5406(3)
C35 C -0.3042(3) 0.5564(3) 0.5297(4)
C36 C -0.3145(3) 0.6366(2) 0.5364(3)
C37 C -0.2579(3) 0.6514(3) 0.5474(4)
C38 C -0.2668(3) 0.7227(3) 0.5525(4)
C39 C -0.3355(3) 0.7825(2) 0.5458(5)
C40 C -0.39210(19) 0.7695(2) 0.5348(2)
C41 C -0.3855(3) 0.6946(3) 0.5303(5)
C42 C -0.46832(18) 0.83323(18) 0.52843(16)
C43 C -0.2022(3) 0.7328(3) 0.5658(3)
C44 C -0.2571(4) 0.8520(4) 0.6063(3)
C45 C -0.1968(4) 0.7874(3) 0.5872(3)
C46 C -0.1207(3) 0.7858(2) 0.5948(3)
C47 C -0.0611(3) 0.7214(2) 0.5994(3)
C48 C 0.0084(3) 0.7200(2) 0.6023(3)
C49 C 0.0192(3) 0.7856(3) 0.5994(5)
C50 C -0.0381(3) 0.8494(2) 0.5947(3)
C51 C -0.1137(3) 0.8535(2) 0.5943(5)
C52 C -0.0367(2) 0.92682(19) 0.59317(18)
C53 C 0.0435(3) 0.9204(3) 0.5873(3)
C54 C -0.0789(4) 0.9675(4) 0.6422(3)
C55 C -0.0732(4) 0.9725(3) 0.5479(3)
C56 C 0.0704(3) 0.6465(3) 0.6057(3)
C57 C 0.1668(2) 0.6759(3) 0.63017(18)
C58 C 0.1365(2) 0.6268(3) 0.6192(3)
C59 C 0.1956(2) 0.5450(3) 0.6160(3)
C60 C 0.1785(3) 0.4916(3) 0.6025(3)
C61 C 0.2307(3) 0.4190(3) 0.6002(4)
C62 C 0.3048(3) 0.4002(3) 0.6101(5)
C63 C 0.3240(3) 0.4513(3) 0.6214(3)
C64 C 0.2685(4) 0.5294(3) 0.6270(5)
C65 C 0.4019(2) 0.4362(3) 0.6353(2)
C66 C 0.3953(4) 0.4583(5) 0.6901(3)
C67 C 0.4381(4) 0.4795(5) 0.5998(4)
C68 C 0.4533(4) 0.3546(4) 0.6301(4)
C69 C 0.2056(3) 0.3642(3) 0.5856(3)
C70 C 0.3010(3) 0.2497(3) 0.60868(17)
C71 C 0.2320(4) 0.2928(2) 0.5911(3)
C72 C 0.1948(3) 0.2455(2) 0.5741(3)
C73 C 0.1275(3) 0.2773(2) 0.5569(3)
C74 C 0.0918(3) 0.2352(2) 0.5451(4)
C75 C 0.1262(4) 0.1570(3) 0.5488(5)
C76 C 0.1914(3) 0.1244(2) 0.5656(3)
C77 C 0.2314(3) 0.1676(3) 0.5792(4)
C78 C 0.2381(2) 0.04011(18) 0.56634(18)
C79 C 0.2956(4) 0.0166(4) 0.5178(3)
C80 C 0.1880(4) -0.0007(3) 0.5689(4)
C81 C 0.2797(5) 0.0173(3) 0.6127(3)
C82 C 0.0160(4) 0.2755(3) 0.5308(3)
C83 C -0.5226(3) 0.8039(3) 0.5151(4)
C84 C -0.5025(4) 0.8762(4) 0.5779(3)
C85 C -0.4588(3) 0.8860(4) 0.4855(3)
H17 H -0.1101 0.3986 0.5300
H18 H -0.3147 0.4234 0.5017
H19 H -0.1515 0.2184 0.5186
H20 H -0.2846 0.1813 0.4817
H21 H -0.2193 0.2001 0.4538
H22 H -0.2224 0.1787 0.5117
H23 H -0.3785 0.2609 0.5474
H24 H -0.3179 0.2597 0.5785
H25 H -0.3761 0.3341 0.5606
H26 H -0.3779 0.2996 0.4569
H27 H -0.3142 0.3204 0.4284
H28 H -0.3754 0.3733 0.4685
H29 H -0.1966 0.5165 0.5134
H30 H -0.2111 0.6123 0.5513
H31 H -0.3421 0.8316 0.5505
H32 H -0.4256 0.6847 0.5226
H33 H -0.1561 0.6911 0.5589
H34 H -0.0674 0.6765 0.6010
H35 H 0.0673 0.7843 0.6011
H36 H -0.1556 0.8993 0.5937
H37 H 0.0429 0.9683 0.5863
H38 H 0.0710 0.8958 0.5563
H39 H 0.0665 0.8934 0.6157
H40 H -0.0780 1.0149 0.6406
H41 H -0.1293 0.9726 0.6459
H42 H -0.0564 0.9408 0.6709
H43 H -0.0724 1.0198 0.5475
H44 H -0.0462 0.9482 0.5168
H45 H -0.1235 0.9776 0.5512
H46 H 0.0604 0.6070 0.5960
H47 H 0.1298 0.5033 0.5945
H48 H 0.3404 0.3505 0.6080
H49 H 0.2820 0.5669 0.6358
H50 H 0.4433 0.4492 0.6983
H51 H 0.3738 0.4306 0.7128
H52 H 0.3639 0.5092 0.6936
H53 H 0.4855 0.4701 0.6091
H54 H 0.4444 0.4652 0.5653
H55 H 0.4069 0.5304 0.6030
H56 H 0.5005 0.3468 0.6391
H57 H 0.4596 0.3398 0.5957
H58 H 0.4321 0.3265 0.6526
H59 H 0.1615 0.3847 0.5698
H60 H 0.1046 0.3293 0.5531
H61 H 0.1023 0.1284 0.5391
H62 H 0.2790 0.1448 0.5905
H63 H 0.3240 -0.0351 0.5189
H64 H 0.2705 0.0293 0.4885
H65 H 0.3281 0.0411 0.5160
H66 H 0.2178 -0.0521 0.5694
H67 H 0.1625 0.0119 0.5398
H68 H 0.1526 0.0123 0.5993
H69 H 0.3082 -0.0344 0.6126
H70 H 0.2446 0.0304 0.6433
H71 H 0.3121 0.0418 0.6112
H72 H 0.0058 0.3228 0.5156
H73 H -0.5691 0.8437 0.5113
H74 H -0.5035 0.7766 0.4843
H75 H -0.5297 0.7728 0.5428
H76 H -0.5493 0.9150 0.5733
H77 H -0.5094 0.8454 0.6058
H78 H -0.4692 0.8962 0.5849
H79 H -0.5061 0.9247 0.4821
H80 H -0.4394 0.8590 0.4545
H81 H -0.4253 0.9061 0.4922
N7 N -0.0364(3) 0.5174(3) 0.77615(19)
C144 C -0.1038(4) 0.5427(4) 0.7471(3)
C145 C -0.1731(4) 0.6047(4) 0.7724(3)
C146 C -0.2381(4) 0.6275(4) 0.7416(3)
C147 C -0.2255(5) 0.6642(5) 0.6900(3)
C148 C -0.0162(4) 0.5809(4) 0.7841(3)
C149 C 0.0035(5) 0.6191(5) 0.7359(3)
C150 C 0.0158(6) 0.6833(5) 0.7475(4)
C151 C -0.0572(12) 0.7443(12) 0.7574(8)
C152 C -0.0517(4) 0.4859(4) 0.8288(3)
C153 C -0.0688(4) 0.4202(4) 0.8299(3)
C154 C -0.0822(5) 0.3938(5) 0.8862(3)
C155 C -0.0928(6) 0.3248(6) 0.8884(4)
C156 C 0.0274(4) 0.4583(4) 0.7424(3)
C157 C 0.1014(4) 0.4260(4) 0.7629(3)
C158 C 0.1576(5) 0.3624(5) 0.7303(3)
C159 C 0.2345(5) 0.3345(5) 0.7472(4)
H147 H -0.1164 0.5021 0.7448
H148 H -0.0905 0.5586 0.7135
H149 H -0.1864 0.5894 0.8062
H150 H -0.1614 0.6460 0.7742
H151 H -0.2830 0.6599 0.7610
H152 H -0.2432 0.5841 0.7346
H153 H -0.2660 0.6765 0.6710
H154 H -0.2205 0.7078 0.6970
H155 H -0.1806 0.6319 0.6706
H156 H -0.0572 0.6164 0.8048
H157 H 0.0263 0.5623 0.8016
H158 H -0.0373 0.6352 0.7169
H159 H 0.0471 0.5854 0.7161
H160 H 0.0399 0.6728 0.7773
H161 H 0.0458 0.6956 0.7196
H162 H -0.0522 0.7871 0.7660
H163 H -0.0867 0.7311 0.7851
H164 H -0.0808 0.7538 0.7274
H165 H -0.0930 0.5229 0.8482
H166 H -0.0084 0.4724 0.8450
H167 H -0.1124 0.4323 0.8142
H168 H -0.0278 0.3819 0.8113
H169 H -0.1253 0.4311 0.9039
H170 H -0.0399 0.3855 0.9024
H171 H -0.1010 0.3093 0.9230
H172 H -0.1351 0.3333 0.8722
H173 H -0.0496 0.2877 0.8706
H174 H 0.0346 0.4796 0.7095
H175 H 0.0130 0.4192 0.7389
H176 H 0.0940 0.4093 0.7973
H177 H 0.1203 0.4627 0.7622
H178 H 0.1419 0.3231 0.7345
H179 H 0.1597 0.3778 0.6953
H180 H 0.2700 0.2944 0.7269
H181 H 0.2317 0.3196 0.7823
H182 H 0.2495 0.3743 0.7430
N8 N 0.3567(9) -0.2284(7) 0.8230(5)
N9 N 0.1172(8) 0.2682(7) 0.8590(10)
N10 N 0.4281(7) 0.4375(5) 0.9671(5)
N11 N 0.8728(7) 0.0434(7) 0.9619(6)
N12 N 0.8281(5) -0.3582(6) 0.8951(4)
C161 C 0.3615(3) -0.1912(3) 0.8528(3)
C162 C 0.3756(4) -0.1400(4) 0.8787(4)
C163 C 0.3086(3) -0.0637(3) 0.8832(4)
C164 C 0.3178(3) -0.0027(4) 0.8927(4)
C165 C 0.2575(3) 0.0645(3) 0.8989(4)
C166 C 0.1841(3) 0.0705(4) 0.8981(6)
C167 C 0.1733(3) 0.0115(5) 0.8902(6)
C168 C 0.2370(4) -0.0600(4) 0.8790(6)
C169 C 0.0941(3) 0.0168(3) 0.8856(3)
C170 C 0.0374(6) 0.0592(8) 0.9307(5)
C171 C 0.0685(8) 0.0562(8) 0.8362(4)
C172 C 0.0944(6) -0.0590(5) 0.8856(6)
C173 C 0.2737(4) 0.1278(4) 0.9085(4)
C174 C 0.1663(3) 0.2320(3) 0.8802(3)
C175 C 0.2339(4) 0.1999(3) 0.9024(5)
C176 C 0.2605(3) 0.2585(2) 0.9163(3)
C177 C 0.3297(3) 0.2388(3) 0.9278(4)
C178 C 0.3511(3) 0.2902(3) 0.9438(4)
C179 C 0.2995(4) 0.3654(4) 0.9499(7)
C180 C 0.2317(3) 0.3856(3) 0.9404(4)
C181 C 0.2076(4) 0.3330(4) 0.9201(6)
C182 C 0.1703(2) 0.46531(19) 0.9413(2)
C183 C 0.1965(4) 0.5180(3) 0.9623(4)
C184 C 0.1519(5) 0.4912(4) 0.8873(3)
C185 C 0.0990(4) 0.4692(4) 0.9753(4)
C186 C 0.4286(4) 0.2632(4) 0.9548(4)
C187 C 0.4424(4) 0.3762(5) 0.9710(3)
C188 C 0.4683(4) 0.3013(4) 0.9640(4)
C189 C 0.5510(3) 0.2590(3) 0.9735(4)
C190 C 0.5829(4) 0.1854(3) 0.9747(4)
C191 C 0.6556(3) 0.1480(3) 0.9845(4)
C192 C 0.6978(4) 0.1865(4) 0.9949(7)
C193 C 0.6679(4) 0.2582(4) 0.9946(4)
C194 C 0.5906(4) 0.3005(3) 0.9834(5)
C195 C 0.7052(3) 0.3092(3) 1.0042(3)
C196 C 0.7834(4) 0.2642(5) 1.0191(4)
C197 C 0.6587(5) 0.3617(5) 1.0474(4)
C198 C 0.7132(5) 0.3544(5) 0.9561(4)
C199 C 0.6874(4) 0.0675(4) 0.9805(4)
C200 C 0.8169(5) 0.0372(5) 0.9703(4)
C201 C 0.7556(4) 0.0179(4) 0.9708(6)
C202 C 0.7803(3) -0.0651(3) 0.9660(4)
C203 C 0.7306(3) -0.0934(3) 0.9616(4)
C204 C 0.7535(3) -0.1676(3) 0.9546(4)
C205 C 0.8298(4) -0.2165(3) 0.9537(5)
C206 C 0.8791(3) -0.1907(4) 0.9588(5)
C207 C 0.8575(3) -0.1110(4) 0.9635(6)
C208 C 0.9626(3) -0.2425(3) 0.9560(3)
C209 C 0.9739(5) -0.3030(5) 0.9968(4)
C210 C 0.9930(6) -0.2784(6) 0.9032(4)
C211 C 1.0078(4) -0.2005(5) 0.9647(5)
C212 C 0.6960(5) -0.1918(4) 0.9454(4)
C213 C 0.7745(5) -0.3059(5) 0.9038(4)
C214 C 0.7044(4) -0.2512(4) 0.9245(4)
C215 C 0.6371(4) -0.2643(3) 0.9112(4)
C216 C 0.5683(4) -0.2079(3) 0.9114(4)
C217 C 0.5101(4) -0.2187(3) 0.8965(4)
C218 C 0.5193(4) -0.2897(4) 0.8833(5)
C219 C 0.5848(5) -0.3460(3) 0.8845(6)
C220 C 0.6495(5) -0.3361(4) 0.8985(7)
C221 C 0.6010(4) -0.4257(3) 0.8709(3)
C222 C 0.5519(6) -0.4546(6) 0.9076(5)
C223 C 0.6828(5) -0.4766(5) 0.8742(5)
C224 C 0.5857(7) -0.4286(6) 0.8163(4)
C225 C 0.4373(4) -0.1538(4) 0.8985(4)
H188 H 0.3664 -0.0062 0.8953
H189 H 0.1428 0.1170 0.9022
H190 H 0.2301 -0.1026 0.8722
H191 H -0.0108 0.0620 0.9275
H192 H 0.0521 0.0348 0.9621
H193 H 0.0358 0.1074 0.9305
H194 H 0.0200 0.0591 0.8343
H195 H 0.0671 0.1044 0.8356
H196 H 0.1025 0.0296 0.8078
H197 H 0.0455 -0.0547 0.8830
H198 H 0.1093 -0.0840 0.9168
H199 H 0.1284 -0.0861 0.8574
H200 H 0.3203 0.1154 0.9202
H201 H 0.3639 0.1886 0.9258
H202 H 0.3151 0.4008 0.9598
H203 H 0.1583 0.3473 0.9123
H204 H 0.1583 0.5665 0.9627
H205 H 0.2075 0.5034 0.9962
H206 H 0.2403 0.5171 0.9408
H207 H 0.1142 0.5400 0.8886
H208 H 0.1954 0.4902 0.8655
H209 H 0.1340 0.4596 0.8742
H210 H 0.0620 0.5183 0.9755
H211 H 0.1096 0.4543 1.0093
H212 H 0.0810 0.4375 0.9625
H213 H 0.4551 0.2112 0.9549
H214 H 0.5547 0.1587 0.9694
H215 H 0.7480 0.1603 1.0013
H216 H 0.5680 0.3527 0.9834
H217 H 0.8053 0.2968 1.0247
H218 H 0.7784 0.2375 1.0500
H219 H 0.8144 0.2309 0.9927
H220 H 0.6822 0.3930 1.0527
H221 H 0.6532 0.3354 1.0784
H222 H 0.6109 0.3904 1.0376
H223 H 0.7360 0.3858 0.9625
H224 H 0.7440 0.3214 0.9294
H225 H 0.6656 0.3831 0.9459
H226 H 0.6506 0.0477 0.9868
H227 H 0.6789 -0.0619 0.9640
H228 H 0.8453 -0.2676 0.9489
H229 H 0.8934 -0.0918 0.9659
H230 H 1.0256 -0.3346 0.9945
H231 H 0.9561 -0.2829 1.0302
H232 H 0.9468 -0.3303 0.9904
H233 H 1.0445 -0.3103 0.9021
H234 H 0.9877 -0.2405 0.8780
H235 H 0.9659 -0.3056 0.8964
H236 H 1.0590 -0.2333 0.9628
H237 H 0.9902 -0.1800 0.9981
H238 H 1.0025 -0.1623 0.9398
H239 H 0.6457 -0.1591 0.9562
H240 H 0.5600 -0.1607 0.9225
H241 H 0.4791 -0.2968 0.8729
H242 H 0.6968 -0.3762 0.8992
H243 H 0.5627 -0.5034 0.8985
H244 H 0.5618 -0.4545 0.9416
H245 H 0.5007 -0.4244 0.9057
H246 H 0.6919 -0.5252 0.8655
H247 H 0.6932 -0.4766 0.9081
H248 H 0.7141 -0.4595 0.8507
H249 H 0.5961 -0.4778 0.8084
H250 H 0.6167 -0.4113 0.7926
H251 H 0.5346 -0.3983 0.8140
H252 H 0.4342 -0.1146 0.9181
N18 N 0.4821(3) 0.0583(3) 0.7237(2)
C287 C 0.5155(4) 0.0784(4) 0.6711(3)
C288 C 0.5932(3) 0.0748(4) 0.6684(2)
C289 C 0.6202(4) 0.0959(4) 0.6140(3)
C290 C 0.7008(4) 0.0845(4) 0.6068(3)
C291 C 0.5280(4) -0.0218(4) 0.7374(3)
C292 C 0.5277(5) -0.0771(5) 0.7025(4)
C293 C 0.5791(6) -0.1571(6) 0.7158(4)
C294 C 0.5461(8) -0.1828(7) 0.7584(5)
C295 C 0.4849(4) 0.1036(4) 0.7655(3)
C296 C 0.4415(5) 0.1853(4) 0.7610(3)
C297 C 0.4523(5) 0.2237(5) 0.8045(4)
C298 C 0.4110(6) 0.3027(6) 0.8044(4)
C299 C 0.4024(4) 0.0706(4) 0.7191(3)
C300 C 0.3604(4) 0.0516(5) 0.7675(3)
C301 C 0.2846(4) 0.0555(4) 0.7574(3)
C302 C 0.2329(6) 0.1301(5) 0.7435(4)
H318 H 0.4836 0.1271 0.6622
H319 H 0.5172 0.0452 0.6466
H320 H 0.5925 0.1083 0.6923
H321 H 0.6262 0.0264 0.6768
H322 H 0.5906 0.1463 0.6076
H323 H 0.6138 0.0665 0.5902
H324 H 0.7159 0.0976 0.5728
H325 H 0.7073 0.1139 0.6306
H326 H 0.7305 0.0341 0.6132
H327 H 0.5083 -0.0314 0.7712
H328 H 0.5785 -0.0286 0.7369
H329 H 0.4779 -0.0734 0.7053
H330 H 0.5432 -0.0647 0.6683
H331 H 0.6259 -0.1590 0.7218
H332 H 0.5869 -0.1880 0.6880
H333 H 0.5771 -0.2319 0.7671
H334 H 0.5383 -0.1515 0.7860
H335 H 0.4993 -0.1805 0.7522
H336 H 0.5357 0.0949 0.7660
H337 H 0.4656 0.0878 0.7974
H338 H 0.4589 0.2024 0.7290
H339 H 0.3899 0.1959 0.7625
H340 H 0.5041 0.2128 0.8019
H341 H 0.4364 0.2042 0.8359
H342 H 0.4201 0.3229 0.8327
H343 H 0.4266 0.3228 0.7732
H344 H 0.3590 0.3142 0.8072
H345 H 0.3751 0.1206 0.7102
H346 H 0.4046 0.0399 0.6926
H347 H 0.3524 0.0859 0.7932
H348 H 0.3901 0.0034 0.7787
H349 H 0.2606 0.0409 0.7877
H350 H 0.2934 0.0228 0.7304
H351 H 0.1869 0.1302 0.7373
H352 H 0.2235 0.1632 0.7703
H353 H 0.2562 0.1451 0.7130
N6? N -0.2883(12) 0.9118(10) 0.6170(9)
C86? C -0.4605(5) 0.9058(5) 0.5207(13)
C87? C -0.4984(9) 0.8209(9) 0.4820(8)
C88? C -0.5255(6) 0.8389(12) 0.5760(6)
C89? C -0.0347(5) 0.1873(5) 0.5650(13)
C90? C -0.0120(8) 0.2423(9) 0.5461(12)
C91? C -0.1372(5) 0.3364(6) 0.5216(9)
C92? C -0.1764(7) 0.4120(6) 0.5250(11)
C93? C -0.2492(5) 0.4434(5) 0.5218(8)
C94? C -0.2887(4) 0.4003(5) 0.5152(11)
C95? C -0.1723(6) 0.2913(5) 0.5102(12)
C96? C -0.2547(6) 0.2144(12) 0.4687(12)
C97? C -0.3270(17) 0.2606(19) 0.5535(3)
C98? C -0.3621(12) 0.3354(8) 0.4750(13)
C99? C -0.2635(8) 0.5730(6) 0.5323(7)
C100? C -0.3708(6) 0.5474(7) 0.5327(7)
C101? C -0.2939(7) 0.5269(7) 0.5284(12)
C102? C -0.2953(6) 0.6522(4) 0.5402(7)
C103? C -0.2495(6) 0.6802(6) 0.5568(8)
C104? C -0.2714(6) 0.7522(6) 0.5611(7)
C105? C -0.3449(7) 0.8019(4) 0.5534(12)
C106? C -0.3680(7) 0.7001(5) 0.5283(9)
C107? C -0.1455(9) 0.7389(10) 0.5830(9)
C108? C -0.2590(10) 0.8573(8) 0.5944(7)
C109? C -0.2197(7) 0.7839(8) 0.5786(10)
C110? C -0.0843(7) 0.7595(7) 0.5894(8)
C111? C -0.0169(8) 0.7023(6) 0.5978(11)
C112? C 0.0405(7) 0.7159(6) 0.6069(8)
C113? C 0.0331(10) 0.7894(7) 0.6104(18)
C114? C -0.0410(9) 0.8487(6) 0.6032(13)
C115? C -0.0938(8) 0.8339(7) 0.5907(12)
C116? C -0.0272(11) 0.9193(8) 0.6056(9)
C117? C 0.0344(18) 0.920(2) 0.5629(12)
C118? C -0.004(2) 0.9234(17) 0.6568(10)
C119? C -0.0979(17) 0.9874(8) 0.5992(16)
C120? C 0.1334(9) 0.5805(7) 0.6052(8)
C121? C 0.1186(8) 0.6525(7) 0.6104(14)
C122? C 0.2000(7) 0.5119(6) 0.6083(9)
C123? C 0.1940(7) 0.4477(7) 0.5985(12)
C124? C 0.2536(6) 0.3833(5) 0.5961(7)
C125? C 0.3237(7) 0.3786(6) 0.6065(16)
C126? C 0.3260(8) 0.4482(8) 0.6202(10)
C127? C 0.2695(8) 0.5105(7) 0.6176(11)
C128? C 0.4056(7) 0.4385(7) 0.6281(6)
C129? C 0.4035(11) 0.5095(10) 0.6471(10)
C130? C 0.4589(12) 0.4182(14) 0.5780(7)
C131? C 0.4364(11) 0.3780(11) 0.6676(8)
C132? C 0.1910(9) 0.3106(7) 0.5682(9)
C133? C 0.2463(9) 0.3106(5) 0.5879(8)
C134? C 0.1712(6) 0.2502(5) 0.5586(6)
C135? C 0.0990(7) 0.2698(5) 0.5476(7)
C136? C 0.0718(6) 0.2198(6) 0.5470(7)
C137? C 0.1181(8) 0.1437(5) 0.5523(12)
C138? C 0.1972(6) 0.1246(3) 0.5601(6)
C139? C 0.2201(6) 0.1746(5) 0.5647(9)
C140? C 0.2499(14) 0.0025(9) 0.5159(5)
C141? C 0.1925(10) 0.0107(9) 0.6068(8)
C142? C 0.3142(7) 0.0196(7) 0.5830(10)
C143? C -0.0581(7) 0.3068(8) 0.5279(9)
H82? H -0.5078 0.9443 0.5170
H83? H -0.4292 0.8969 0.4884
H84? H -0.4379 0.9197 0.5448
H85? H -0.5452 0.8605 0.4786
H86? H -0.4674 0.8116 0.4496
H87? H -0.5063 0.7781 0.4938
H88? H -0.5721 0.8780 0.5714
H89? H -0.5334 0.7962 0.5881
H90? H -0.5032 0.8525 0.6004
H91? H -0.1514 0.4415 0.5313
H92? H -0.3404 0.4226 0.5119
H93? H -0.1438 0.2404 0.5039
H94? H -0.2878 0.1921 0.4654
H95? H -0.2352 0.2263 0.4356
H96? H -0.2147 0.1811 0.4857
H97? H -0.3591 0.2377 0.5491
H98? H -0.2873 0.2276 0.5709
H99? H -0.3545 0.3038 0.5733
H100? H -0.3938 0.3116 0.4716
H101? H -0.3430 0.3479 0.4418
H102? H -0.3897 0.3789 0.4944
H103? H -0.2106 0.5499 0.5304
H104? H -0.2018 0.6474 0.5650
H105? H -0.3606 0.8536 0.5552
H106? H -0.3988 0.6807 0.5163
H107? H -0.1320 0.6879 0.5787
H108? H -0.0123 0.6529 0.5989
H109? H 0.0731 0.7995 0.6179
H110? H -0.1384 0.8724 0.5819
H111? H 0.0412 0.9640 0.5644
H112? H 0.0289 0.9131 0.5288
H113? H 0.0767 0.8795 0.5729
H114? H 0.0038 0.9673 0.6571
H115? H 0.0383 0.8830 0.6671
H116? H -0.0475 0.9278 0.6799
H117? H -0.0894 1.0306 0.6004
H118? H -0.1040 0.9809 0.5652
H119? H -0.1419 0.9920 0.6220
H120? H 0.0927 0.5730 0.5960
H121? H 0.1463 0.4490 0.5956
H122? H 0.3659 0.3328 0.6055
H123? H 0.2738 0.5550 0.6228
H124? H 0.4526 0.5026 0.6512
H125? H 0.3839 0.5495 0.6239
H126? H 0.3723 0.5198 0.6794
H127? H 0.5074 0.4124 0.5831
H128? H 0.4619 0.3742 0.5644
H129? H 0.4396 0.4578 0.5545
H130? H 0.4852 0.3728 0.6715
H131? H 0.4394 0.3339 0.6544
H132? H 0.4055 0.3878 0.7000
H133? H 0.1568 0.3580 0.5588
H134? H 0.0690 0.3198 0.5404
H135? H 0.0994 0.1073 0.5505
H136? H 0.2696 0.1615 0.5715
H137? H 0.2790 -0.0488 0.5189
H138? H 0.2029 0.0103 0.5064
H139? H 0.2755 0.0232 0.4902
H140? H 0.2180 -0.0412 0.6094
H141? H 0.1452 0.0227 0.5961
H142? H 0.1854 0.0318 0.6393
H143? H 0.3405 -0.0324 0.5827
H144? H 0.3423 0.0412 0.5603
H145? H 0.3072 0.0368 0.6169
H146? H -0.0358 0.3409 0.5188
C160? C 0.0941(9) 0.6487(15) 0.7610(11)
H183? H -0.0223 0.7112 0.7737
H184? H 0.0163 0.7136 0.7178
H185? H 0.1047 0.6882 0.7698
H186? H 0.0932 0.6182 0.7905
H187? H 0.1318 0.6206 0.7347
N13? N 0.3235(13) -0.2181(14) 0.8430(8)
N14? N 0.1097(15) 0.2646(6) 0.8662(19)
N15? N 0.4480(11) 0.4284(8) 0.9366(7)
N16? N 0.8693(8) 0.0437(8) 0.9277(8)
N17? N 0.8003(10) -0.3822(8) 0.9140(7)
C226? C 0.4004(7) -0.1610(4) 0.8768(9)
C227? C 0.3000(6) -0.0303(5) 0.8913(8)
C228? C 0.2976(6) 0.0391(6) 0.8961(9)
C229? C 0.2334(5) 0.0990(4) 0.8955(6)
C230? C 0.1666(7) 0.0927(5) 0.8895(13)
C231? C 0.1712(6) 0.0169(6) 0.8868(9)
C232? C 0.2338(7) -0.0402(5) 0.8894(9)
C233? C 0.0305(12) 0.0822(12) 0.8890(10)
C234? C 0.1000(19) -0.012(2) 0.8291(12)
C235? C 0.0801(12) -0.0422(11) 0.9171(9)
C236? C 0.2778(7) 0.1904(6) 0.9187(6)
C237? C 0.2317(9) 0.1775(5) 0.8964(12)
C238? C 0.2837(5) 0.2581(5) 0.9302(7)
C239? C 0.3537(5) 0.2516(4) 0.9374(6)
C240? C 0.3647(4) 0.3103(4) 0.9475(6)
C241? C 0.3056(6) 0.3819(4) 0.9481(10)
C242? C 0.2325(4) 0.3868(4) 0.9367(5)
C243? C 0.2222(5) 0.3286(5) 0.9307(10)
C244? C 0.141(2) 0.4852(14) 0.9975(4)
C245? C 0.1999(11) 0.5211(7) 0.9165(18)
C246? C 0.1053(13) 0.4713(10) 0.9149(17)
C247? C 0.4945(6) 0.2444(7) 0.9689(6)
C248? C 0.4498(6) 0.3714(7) 0.9495(5)
C249? C 0.4439(6) 0.3034(6) 0.9548(9)
C250? C 0.5714(6) 0.2226(5) 0.9792(7)
C251? C 0.6185(6) 0.1489(5) 0.9740(7)
C252? C 0.6907(5) 0.1247(5) 0.9795(5)
C253? C 0.7208(6) 0.1740(7) 0.9905(8)
C254? C 0.6682(8) 0.2530(6) 0.9953(10)
C255? C 0.5982(7) 0.2743(5) 0.9915(7)
C256? C 0.7062(7) 0.3013(7) 1.0092(6)
C257? C 0.7907(8) 0.2632(13) 0.9951(11)
C258? C 0.6886(15) 0.3162(16) 1.0666(6)
C259? C 0.6789(15) 0.3746(9) 0.9806(10)
C260? C 0.7217(7) -0.0122(6) 0.9748(6)
C261? C 0.8167(8) 0.0351(6) 0.9457(7)
C262? C 0.7453(7) 0.0426(5) 0.9697(8)
C263? C 0.7648(6) -0.0912(5) 0.9671(8)
C264? C 0.7251(5) -0.1315(6) 0.9576(8)
C265? C 0.7605(5) -0.2031(5) 0.9467(7)
C266? C 0.8387(6) -0.2409(6) 0.9475(12)
C267? C 0.8794(5) -0.1952(6) 0.9567(8)
C268? C 0.8437(6) -0.1259(7) 0.9669(10)
C269? C 0.9647(6) -0.2425(6) 0.9529(5)
C270? C 0.9853(11) -0.2749(13) 1.0051(7)
C271? C 0.9885(10) -0.3055(9) 0.9158(8)
C272? C 1.0085(8) -0.1961(9) 0.9337(8)
C273? C 0.6492(8) -0.2204(8) 0.9264(7)
C274? C 0.7652(7) -0.3198(7) 0.9181(5)
C275? C 0.7168(6) -0.2478(8) 0.9352(11)
C276? C 0.5994(7) -0.2492(7) 0.9095(9)
C277? C 0.5269(7) -0.1990(7) 0.9054(10)
C278? C 0.4792(6) -0.2188(4) 0.8860(6)
C279? C 0.5014(8) -0.2920(6) 0.8702(10)
C280? C 0.5802(7) -0.3439(6) 0.8745(9)
C281? C 0.6243(8) -0.3237(7) 0.8950(11)
C282? C 0.5931(6) -0.4192(5) 0.8534(5)
C283? C 0.5400(9) -0.4495(10) 0.8845(6)
C284? C 0.6731(7) -0.4749(7) 0.8562(6)
C285? C 0.5797(10) -0.4113(10) 0.7975(5)
C286? C 0.3738(7) -0.0925(6) 0.8914(7)
H253? H 0.3426 0.0443 0.8981
H254? H 0.1208 0.1347 0.8890
H255? H 0.2349 -0.0882 0.8894
H256? H -0.0127 0.0744 0.8856
H257? H 0.0235 0.1041 0.9212
H258? H 0.0383 0.1139 0.8620
H259? H 0.1078 0.0252 0.8073
H260? H 0.1417 -0.0575 0.8225
H261? H 0.0560 -0.0160 0.8228
H262? H 0.0318 -0.0401 0.9153
H263? H 0.0836 -0.0348 0.9515
H264? H 0.1170 -0.0889 0.9060
H265? H 0.3155 0.1473 0.9308
H266? H 0.3946 0.2047 0.9346
H267? H 0.3134 0.4239 0.9552
H268? H 0.1745 0.3329 0.9249
H269? H 0.1030 0.5339 0.9996
H270? H 0.1817 0.4828 1.0131
H271? H 0.1211 0.4522 1.0149
H272? H 0.1605 0.5689 0.9181
H273? H 0.2393 0.5210 0.9328
H274? H 0.2181 0.5077 0.8815
H275? H 0.0690 0.5207 0.9162
H276? H 0.0839 0.4402 0.9332
H277? H 0.1213 0.4565 0.8800
H278? H 0.4796 0.2045 0.9730
H279? H 0.5986 0.1150 0.9677
H280? H 0.7718 0.1565 0.9953
H281? H 0.5653 0.3246 0.9962
H282? H 0.8125 0.2951 1.0024
H283? H 0.8059 0.2210 1.0170
H284? H 0.8069 0.2486 0.9602
H285? H 0.7117 0.3472 1.0732
H286? H 0.7033 0.2742 1.0888
H287? H 0.6357 0.3423 1.0727
H288? H 0.7020 0.4051 0.9883
H289? H 0.6260 0.4009 0.9863
H290? H 0.6945 0.3603 0.9456
H291? H 0.6696 0.0028 0.9857
H292? H 0.6728 -0.1067 0.9566
H293? H 0.8635 -0.2921 0.9411
H294? H 0.8706 -0.0986 0.9738
H295? H 1.0375 -0.3044 1.0020
H296? H 0.9722 -0.2384 1.0303
H297? H 0.9586 -0.3049 1.0154
H298? H 1.0407 -0.3347 0.9138
H299? H 0.9618 -0.3356 0.9257
H300? H 0.9775 -0.2833 0.8832
H301? H 1.0605 -0.2267 0.9314
H302? H 0.9955 -0.1592 0.9585
H303? H 0.9976 -0.1734 0.9012
H304? H 0.6243 -0.1692 0.9332
H305? H 0.5103 -0.1507 0.9181
H306? H 0.4676 -0.3058 0.8565
H307? H 0.6729 -0.3589 0.8996
H308? H 0.5477 -0.4953 0.8712
H309? H 0.5492 -0.4562 0.9192
H310? H 0.4898 -0.4154 0.8830
H311? H 0.6791 -0.5204 0.8432
H312? H 0.6829 -0.4817 0.8907
H313? H 0.7072 -0.4579 0.8358
H314? H 0.5869 -0.4576 0.7853
H315? H 0.6134 -0.3940 0.7770
H316? H 0.5297 -0.3771 0.7957
H317? H 0.4086 -0.0805 0.9054
loop_
_geom_bond_atom_site_label_1
_geom_bond_atom_site_label_2
_geom_bond_site_symmetry_1
_geom_bond_site_symmetry_2
P1 O1 1_555 1_555
O1 C1 1_555 1_555
O2 P1 1_555 1_555
O3 P1 1_555 1_555
O4 P1 1_555 1_555
C1 C2 1_555 1_555
C2 C3 1_555 1_555
C3 C4 1_555 1_555
C4 C5 1_555 1_555
C5 C6 1_555 1_555
C6 C7 1_555 1_555
C7 C8 1_555 1_555
C8 C9 1_555 1_555
C9 C10 1_555 1_555
C10 C1 1_555 1_555
H1 O2 1_555 1_555
H2 C2 1_555 1_555
H3 C3 1_555 1_555
H4 C4 1_555 1_555
H5 C6 1_555 1_555
H6 C7 1_555 1_555
H7 C8 1_555 1_555
H8 C9 1_555 1_555
P2 O5 1_555 1_555
O5 C11 1_555 1_555
O6 P2 1_555 1_555
O7 P2 1_555 1_555
O8 P2 1_555 1_555
C11 C12 1_555 1_555
C12 C13 1_555 1_555
C13 C14 1_555 1_555
C14 C15 1_555 1_555
C15 C16 1_555 1_555
C16 C17 1_555 1_555
C17 C18 1_555 1_555
C18 C19 1_555 1_555
C19 C20 1_555 1_555
C20 C11 1_555 1_555
H9 O8 1_555 1_555
H10 C12 1_555 1_555
H11 C13 1_555 1_555
H12 C14 1_555 1_555
H13 C16 1_555 1_555
H14 C17 1_555 1_555
H15 C18 1_555 1_555
H16 C19 1_555 1_555
N1 C21 1_555 1_555
N2 C34 1_555 1_555
N3 C44 1_555 1_555
N4 C57 1_555 1_555
N5 C70 1_555 1_555
C21 C22 1_555 1_555
C22 C23 1_555 1_555
C23 C24 1_555 1_555
C24 C25 1_555 1_555
C25 C26 1_555 1_555
C26 C27 1_555 1_555
C27 C28 1_555 1_555
C28 C23 1_555 1_555
C29 C27 1_555 1_555
C30 C29 1_555 1_555
C31 C29 1_555 1_555
C32 C29 1_555 1_555
C33 C25 1_555 1_555
C34 C35 1_555 1_555
C35 C33 1_555 1_555
C36 C35 1_555 1_555
C37 C36 1_555 1_555
C38 C37 1_555 1_555
C39 C38 1_555 1_555
C40 C39 1_555 1_555
C41 C36 1_555 1_555
C42 C40 1_555 1_555
C43 C38 1_555 1_555
C44 C45 1_555 1_555
C45 C43 1_555 1_555
C46 C45 1_555 1_555
C47 C46 1_555 1_555
C48 C47 1_555 1_555
C49 C48 1_555 1_555
C50 C49 1_555 1_555
C51 C46 1_555 1_555
C52 C50 1_555 1_555
C53 C52 1_555 1_555
C54 C52 1_555 1_555
C55 C52 1_555 1_555
C56 C48 1_555 1_555
C57 C58 1_555 1_555
C58 C56 1_555 1_555
C59 C58 1_555 1_555
C60 C59 1_555 1_555
C61 C60 1_555 1_555
C62 C61 1_555 1_555
C63 C62 1_555 1_555
C64 C59 1_555 1_555
C65 C63 1_555 1_555
C66 C65 1_555 1_555
C67 C65 1_555 1_555
C68 C65 1_555 1_555
C69 C61 1_555 1_555
C70 C71 1_555 1_555
C71 C69 1_555 1_555
C72 C71 1_555 1_555
C73 C72 1_555 1_555
C74 C73 1_555 1_555
C75 C74 1_555 1_555
C76 C75 1_555 1_555
C77 C72 1_555 1_555
C78 C76 1_555 1_555
C79 C78 1_555 1_555
C80 C78 1_555 1_555
C81 C78 1_555 1_555
C82 C22 1_555 1_555
C83 C42 1_555 1_555
C84 C42 1_555 1_555
C85 C42 1_555 1_555
H17 C24 1_555 1_555
H18 C26 1_555 1_555
H19 C28 1_555 1_555
H20 C30 1_555 1_555
H21 C30 1_555 1_555
H22 C30 1_555 1_555
H23 C31 1_555 1_555
H24 C31 1_555 1_555
H25 C31 1_555 1_555
H26 C32 1_555 1_555
H27 C32 1_555 1_555
H28 C32 1_555 1_555
H29 C33 1_555 1_555
H30 C37 1_555 1_555
H31 C39 1_555 1_555
H32 C41 1_555 1_555
H33 C43 1_555 1_555
H34 C47 1_555 1_555
H35 C49 1_555 1_555
H36 C51 1_555 1_555
H37 C53 1_555 1_555
H38 C53 1_555 1_555
H39 C53 1_555 1_555
H40 C54 1_555 1_555
H41 C54 1_555 1_555
H42 C54 1_555 1_555
H43 C55 1_555 1_555
H44 C55 1_555 1_555
H45 C55 1_555 1_555
H46 C56 1_555 1_555
H47 C60 1_555 1_555
H48 C62 1_555 1_555
H49 C64 1_555 1_555
H50 C66 1_555 1_555
H51 C66 1_555 1_555
H52 C66 1_555 1_555
H53 C67 1_555 1_555
H54 C67 1_555 1_555
H55 C67 1_555 1_555
H56 C68 1_555 1_555
H57 C68 1_555 1_555
H58 C68 1_555 1_555
H59 C69 1_555 1_555
H60 C73 1_555 1_555
H61 C75 1_555 1_555
H62 C77 1_555 1_555
H63 C79 1_555 1_555
H64 C79 1_555 1_555
H65 C79 1_555 1_555
H66 C80 1_555 1_555
H67 C80 1_555 1_555
H68 C80 1_555 1_555
H69 C81 1_555 1_555
H70 C81 1_555 1_555
H71 C81 1_555 1_555
H72 C82 1_555 1_555
H73 C83 1_555 1_555
H74 C83 1_555 1_555
H75 C83 1_555 1_555
H76 C84 1_555 1_555
H77 C84 1_555 1_555
H78 C84 1_555 1_555
H79 C85 1_555 1_555
H80 C85 1_555 1_555
H81 C85 1_555 1_555
N7 C144 1_555 1_555
C144 C145 1_555 1_555
C145 C146 1_555 1_555
C146 C147 1_555 1_555
C147 H153 1_555 1_555
C148 N7 1_555 1_555
C149 C148 1_555 1_555
C150 C149 1_555 1_555
C151 C150 1_555 1_555
C152 N7 1_555 1_555
C153 C152 1_555 1_555
C154 C153 1_555 1_555
C155 C154 1_555 1_555
C156 N7 1_555 1_555
C157 C156 1_555 1_555
C158 C157 1_555 1_555
C159 C158 1_555 1_555
H147 C144 1_555 1_555
H148 C144 1_555 1_555
H149 C145 1_555 1_555
H150 C145 1_555 1_555
H151 C146 1_555 1_555
H152 C146 1_555 1_555
H154 C147 1_555 1_555
H155 C147 1_555 1_555
H156 C148 1_555 1_555
H157 C148 1_555 1_555
H158 C149 1_555 1_555
H159 C149 1_555 1_555
H160 C150 1_555 1_555
H161 C150 1_555 1_555
H162 C151 1_555 1_555
H163 C151 1_555 1_555
H164 C151 1_555 1_555
H165 C152 1_555 1_555
H166 C152 1_555 1_555
H167 C153 1_555 1_555
H168 C153 1_555 1_555
H169 C154 1_555 1_555
H170 C154 1_555 1_555
H171 C155 1_555 1_555
H172 C155 1_555 1_555
H173 C155 1_555 1_555
H174 C156 1_555 1_555
H175 C156 1_555 1_555
H176 C157 1_555 1_555
H177 C157 1_555 1_555
H178 C158 1_555 1_555
H179 C158 1_555 1_555
H180 C159 1_555 1_555
H181 C159 1_555 1_555
H182 C159 1_555 1_555
N8 C161 1_555 1_555
N9 C174 1_555 1_555
N10 C187 1_555 1_555
N11 C200 1_555 1_555
N12 C213 1_555 1_555
C161 C162 1_555 1_555
C162 C163 1_555 1_555
C163 C164 1_555 1_555
C164 C165 1_555 1_555
C165 C166 1_555 1_555
C166 C167 1_555 1_555
C167 C168 1_555 1_555
C168 C163 1_555 1_555
C169 C167 1_555 1_555
C170 C169 1_555 1_555
C171 C169 1_555 1_555
C172 C169 1_555 1_555
C173 C165 1_555 1_555
C174 C175 1_555 1_555
C175 C173 1_555 1_555
C176 C175 1_555 1_555
C177 C176 1_555 1_555
C178 C177 1_555 1_555
C179 C178 1_555 1_555
C180 C179 1_555 1_555
C181 C176 1_555 1_555
C182 C180 1_555 1_555
C183 C182 1_555 1_555
C184 C182 1_555 1_555
C185 C182 1_555 1_555
C186 C178 1_555 1_555
C187 C188 1_555 1_555
C188 C186 1_555 1_555
C189 C188 1_555 1_555
C190 C189 1_555 1_555
C191 C190 1_555 1_555
C192 C191 1_555 1_555
C193 C192 1_555 1_555
C194 C189 1_555 1_555
C195 C193 1_555 1_555
C196 C195 1_555 1_555
C197 C195 1_555 1_555
C198 C195 1_555 1_555
C199 C191 1_555 1_555
C200 C201 1_555 1_555
C201 C199 1_555 1_555
C202 C201 1_555 1_555
C203 C202 1_555 1_555
C204 C203 1_555 1_555
C205 C204 1_555 1_555
C206 C205 1_555 1_555
C207 C202 1_555 1_555
C208 C206 1_555 1_555
C209 C208 1_555 1_555
C210 C208 1_555 1_555
C211 C208 1_555 1_555
C212 C204 1_555 1_555
C213 C214 1_555 1_555
C214 C212 1_555 1_555
C215 C214 1_555 1_555
C216 C215 1_555 1_555
C217 C216 1_555 1_555
C218 C217 1_555 1_555
C219 C218 1_555 1_555
C220 C215 1_555 1_555
C221 C219 1_555 1_555
C222 C221 1_555 1_555
C223 C221 1_555 1_555
C224 C221 1_555 1_555
C225 C162 1_555 1_555
H188 C164 1_555 1_555
H189 C166 1_555 1_555
H190 C168 1_555 1_555
H191 C170 1_555 1_555
H192 C170 1_555 1_555
H193 C170 1_555 1_555
H194 C171 1_555 1_555
H195 C171 1_555 1_555
H196 C171 1_555 1_555
H197 C172 1_555 1_555
H198 C172 1_555 1_555
H199 C172 1_555 1_555
H200 C173 1_555 1_555
H201 C177 1_555 1_555
H202 C179 1_555 1_555
H203 C181 1_555 1_555
H204 C183 1_555 1_555
H205 C183 1_555 1_555
H206 C183 1_555 1_555
H207 C184 1_555 1_555
H208 C184 1_555 1_555
H209 C184 1_555 1_555
H210 C185 1_555 1_555
H211 C185 1_555 1_555
H212 C185 1_555 1_555
H213 C186 1_555 1_555
H214 C190 1_555 1_555
H215 C192 1_555 1_555
H216 C194 1_555 1_555
H217 C196 1_555 1_555
H218 C196 1_555 1_555
H219 C196 1_555 1_555
H220 C197 1_555 1_555
H221 C197 1_555 1_555
H222 C197 1_555 1_555
H223 C198 1_555 1_555
H224 C198 1_555 1_555
H225 C198 1_555 1_555
H226 C199 1_555 1_555
H227 C203 1_555 1_555
H228 C205 1_555 1_555
H229 C207 1_555 1_555
H230 C209 1_555 1_555
H231 C209 1_555 1_555
H232 C209 1_555 1_555
H233 C210 1_555 1_555
H234 C210 1_555 1_555
H235 C210 1_555 1_555
H236 C211 1_555 1_555
H237 C211 1_555 1_555
H238 C211 1_555 1_555
H239 C212 1_555 1_555
H240 C216 1_555 1_555
H241 C218 1_555 1_555
H242 C220 1_555 1_555
H243 C222 1_555 1_555
H244 C222 1_555 1_555
H245 C222 1_555 1_555
H246 C223 1_555 1_555
H247 C223 1_555 1_555
H248 C223 1_555 1_555
H249 C224 1_555 1_555
H250 C224 1_555 1_555
H251 C224 1_555 1_555
H252 C225 1_555 1_555
N18 C287 1_555 1_555
C287 C288 1_555 1_555
C288 C289 1_555 1_555
C289 C290 1_555 1_555
C290 H324 1_555 1_555
C291 N18 1_555 1_555
C292 C291 1_555 1_555
C293 C292 1_555 1_555
C294 C293 1_555 1_555
C295 N18 1_555 1_555
C296 C295 1_555 1_555
C297 C296 1_555 1_555
C298 C297 1_555 1_555
C299 N18 1_555 1_555
C300 C299 1_555 1_555
C301 C300 1_555 1_555
C302 C301 1_555 1_555
H318 C287 1_555 1_555
H319 C287 1_555 1_555
H320 C288 1_555 1_555
H321 C288 1_555 1_555
H322 C289 1_555 1_555
H323 C289 1_555 1_555
H325 C290 1_555 1_555
H326 C290 1_555 1_555
H327 C291 1_555 1_555
H328 C291 1_555 1_555
H329 C292 1_555 1_555
H330 C292 1_555 1_555
H331 C293 1_555 1_555
H332 C293 1_555 1_555
H333 C294 1_555 1_555
H334 C294 1_555 1_555
H335 C294 1_555 1_555
H336 C295 1_555 1_555
H337 C295 1_555 1_555
H338 C296 1_555 1_555
H339 C296 1_555 1_555
H340 C297 1_555 1_555
H341 C297 1_555 1_555
H342 C298 1_555 1_555
H343 C298 1_555 1_555
H344 C298 1_555 1_555
H345 C299 1_555 1_555
H346 C299 1_555 1_555
H347 C300 1_555 1_555
H348 C300 1_555 1_555
H349 C301 1_555 1_555
H350 C301 1_555 1_555
H351 C302 1_555 1_555
H352 C302 1_555 1_555
H353 C302 1_555 1_555
C5 C10 1_555 1_555
C15 C20 1_555 1_555
C40 C41 1_555 1_555
C50 C51 1_555 1_555
C63 C64 1_555 1_555
C74 C82 1_555 1_555
C76 C77 1_555 1_555
C180 C181 1_555 1_555
C193 C194 1_555 1_555
C206 C207 1_555 1_555
C217 C225 1_555 1_555
C219 C220 1_555 1_555

#END
