
#######################################################################
#
#                 Cambridge Crystallographic Data Centre
#                                CCDC 
#
#######################################################################
#
# If this CIF has been generated from an entry in the Cambridge 
# Structural Database, then it will include bibliographic, chemical, 
# crystal, experimental, refinement or atomic coordinate data resulting 
# from the CCDC's data processing and validation procedures.
#
#######################################################################

data_KEKJIU02
_chemical_formula_moiety         'C26 H30 N2 O4'
_chemical_name_systematic        
2,7-Dihexylbenzo[lmn][3,8]phenanthroline-1,3,6,8(2H,7H)-tetrone
_symmetry_cell_setting           triclinic
_symmetry_space_group_name_H-M   'P -1'
_symmetry_Int_Tables_number      2
_space_group_name_Hall           '-P 1'
loop_
_symmetry_equiv_pos_site_id
_symmetry_equiv_pos_as_xyz
1 x,y,z
2 -x,-y,-z
_cell_length_a                   4.8231(2)
_cell_length_b                   8.3044(3)
_cell_length_c                   14.2640(6)
_cell_angle_alpha                96.566(2)
_cell_angle_beta                 97.473(2)
_cell_angle_gamma                92.996(2)
_cell_volume                     561.438
_exptl_crystal_colour            yellow
_exptl_crystal_description       block
_cell_formula_units_Z            1
loop_
_atom_site_label
_atom_site_type_symbol
_atom_site_fract_x
_atom_site_fract_y
_atom_site_fract_z
N1 N 0.7922(4) 0.2883(2) 0.34598(13)
O1 O 0.4119(4) 0.1209(2) 0.27995(13)
O2 O 1.1744(4) 0.4546(2) 0.41097(13)
C1 C 0.6258(4) 0.1437(3) 0.33685(15)
C2 C 0.7194(4) 0.0206(2) 0.39999(14)
C3 C 0.5679(4) -0.1268(3) 0.39311(15)
H1 H 0.4080 -0.1513 0.3462
C4 C 1.0364(4) 0.3268(3) 0.41001(15)
C5 C 1.1178(4) 0.2073(2) 0.47654(14)
C6 C 1.3511(4) 0.2413(3) 0.54469(15)
H2 H 1.4573 0.3423 0.5496
C7 C 0.9586(4) 0.0574(2) 0.46891(14)
C8 C 0.7080(5) 0.4089(3) 0.28070(17)
H3 H 0.7787 0.5189 0.3114
H4 H 0.5009 0.4066 0.2689
C9 C 0.8197(6) 0.3762(3) 0.18645(18)
H5 H 0.7179 0.2791 0.1480
H6 H 1.0215 0.3568 0.1972
C10 C 0.7736(13) 0.5322(7) 0.1329(4)
H7 H 0.8098 0.5052 0.0664
H8 H 0.5742 0.5565 0.1307
C11 C 0.9510(16) 0.6828(7) 0.1755(5)
H9 H 1.1469 0.6542 0.1912
H10 H 0.8845 0.7258 0.2357
C12 C 0.946(2) 0.8146(11) 0.1104(7)
H11 H 1.0636 0.9103 0.1441
H12 H 1.0328 0.7751 0.0537
C13 C 0.669(3) 0.8669(17) 0.0782(9)
H13 H 0.6895 0.9661 0.0478
H14 H 0.5671 0.8886 0.1329
H15 H 0.5648 0.7812 0.0322
N1A N 1.2078(4) -0.2883(2) 0.65402(13)
O1A O 1.5881(4) -0.1209(2) 0.72005(13)
O2A O 0.8256(4) -0.4546(2) 0.58903(13)
C1A C 1.3742(4) -0.1437(3) 0.66315(15)
C2A C 1.2806(4) -0.0206(2) 0.60001(14)
C3A C 1.4321(4) 0.1268(3) 0.60689(15)
H1A H 1.5920 0.1513 0.6538
C4A C 0.9636(4) -0.3268(3) 0.58999(15)
C5A C 0.8822(4) -0.2073(2) 0.52346(14)
C6A C 0.6489(4) -0.2413(3) 0.45531(15)
H2A H 0.5427 -0.3423 0.4504
C7A C 1.0414(4) -0.0574(2) 0.53109(14)
C8A C 1.2920(5) -0.4089(3) 0.71930(17)
H3A H 1.2213 -0.5189 0.6886
H4A H 1.4991 -0.4066 0.7311
C9A C 1.1803(6) -0.3762(3) 0.81355(18)
H5A H 1.2821 -0.2791 0.8520
H6A H 0.9785 -0.3568 0.8028
C10A C 1.2264(13) -0.5322(7) 0.8671(4)
H7A H 1.1902 -0.5052 0.9336
H8A H 1.4258 -0.5565 0.8693
C11A C 1.0490(16) -0.6828(7) 0.8245(5)
H9A H 0.8531 -0.6542 0.8088
H10A H 1.1155 -0.7258 0.7643
C12A C 1.054(2) -0.8146(11) 0.8896(7)
H11A H 0.9364 -0.9103 0.8559
H12A H 0.9672 -0.7751 0.9463
C13A C 1.331(3) -0.8669(17) 0.9218(9)
H13A H 1.3105 -0.9661 0.9522
H14A H 1.4329 -0.8886 0.8671
H15A H 1.4352 -0.7812 0.9678
C14? C 0.8197(6) 0.3762(3) 0.18645(18)
C15? C 0.7388(14) 0.4862(7) 0.1143(4)
C16? C 0.8467(16) 0.6601(8) 0.1463(5)
C17? C 0.778(2) 0.7713(11) 0.0655(7)
C18? C 0.851(3) 0.9452(13) 0.1070(9)
H16? H 1.0269 0.3815 0.1993
H17? H 0.7560 0.2637 0.1584
H18? H 0.5318 0.4812 0.1002
H19? H 0.8126 0.4479 0.0547
H20? H 1.0522 0.6646 0.1651
H21? H 0.7609 0.7018 0.2029
H22? H 0.8878 0.7421 0.0128
H23? H 0.5763 0.7559 0.0398
H24? H 0.8237 1.0155 0.0564
H25? H 1.0477 0.9576 0.1364
H26? H 0.7303 0.9758 0.1554
loop_
_geom_bond_atom_site_label_1
_geom_bond_atom_site_label_2
_geom_bond_site_symmetry_1
_geom_bond_site_symmetry_2
N1 C1 1_555 1_555
O1 C1 1_555 1_555
O2 C4 1_555 1_555
C1 C2 1_555 1_555
C2 C3 1_555 1_555
C3 H1 1_555 1_555
C4 N1 1_555 1_555
C5 C4 1_555 1_555
C6 C5 1_555 1_555
H2 C6 1_555 1_555
C7 C2 1_555 1_555
C8 N1 1_555 1_555
H3 C8 1_555 1_555
H4 C8 1_555 1_555
C9 C8 1_555 1_555
H5 C9 1_555 1_555
H6 C9 1_555 1_555
C10 C9 1_555 1_555
H7 C10 1_555 1_555
H8 C10 1_555 1_555
C11 C10 1_555 1_555
H9 C11 1_555 1_555
H10 C11 1_555 1_555
C12 C11 1_555 1_555
H11 C12 1_555 1_555
H12 C12 1_555 1_555
C13 C12 1_555 1_555
H13 C13 1_555 1_555
H14 C13 1_555 1_555
H15 C13 1_555 1_555
N1A C1A 1_555 1_555
O1A C1A 1_555 1_555
O2A C4A 1_555 1_555
C1A C2A 1_555 1_555
C2A C3A 1_555 1_555
C3A C6 1_555 1_555
H1A C3A 1_555 1_555
C4A N1A 1_555 1_555
C5A C4A 1_555 1_555
C6A C3 1_555 1_555
H2A C6A 1_555 1_555
C7A C7 1_555 1_555
C8A N1A 1_555 1_555
H3A C8A 1_555 1_555
H4A C8A 1_555 1_555
C9A C8A 1_555 1_555
H5A C9A 1_555 1_555
H6A C9A 1_555 1_555
C10A C9A 1_555 1_555
H7A C10A 1_555 1_555
H8A C10A 1_555 1_555
C11A C10A 1_555 1_555
H9A C11A 1_555 1_555
H10A C11A 1_555 1_555
C12A C11A 1_555 1_555
H11A C12A 1_555 1_555
H12A C12A 1_555 1_555
C13A C12A 1_555 1_555
H13A C13A 1_555 1_555
H14A C13A 1_555 1_555
H15A C13A 1_555 1_555
C5 C7 1_555 1_555
C2A C7A 1_555 1_555
C5A C6A 1_555 1_555
C5A C7A 1_555 1_555

#END
