
#######################################################################
#
#                 Cambridge Crystallographic Data Centre
#                                CCDC 
#
#######################################################################
#
# If this CIF has been generated from an entry in the Cambridge 
# Structural Database, then it will include bibliographic, chemical, 
# crystal, experimental, refinement or atomic coordinate data resulting 
# from the CCDC's data processing and validation procedures.
#
#######################################################################

data_KEKMIZ
_chemical_formula_moiety         'C38 H46 O2'
_chemical_name_systematic        3,10-bis(octyloxy)benzo[k]tetraphene
_symmetry_cell_setting           triclinic
_symmetry_space_group_name_H-M   'P -1'
_symmetry_Int_Tables_number      2
_space_group_name_Hall           '-P 1'
loop_
_symmetry_equiv_pos_site_id
_symmetry_equiv_pos_as_xyz
1 x,y,z
2 -x,-y,-z
_cell_length_a                   5.3271(3)
_cell_length_b                   12.0664(8)
_cell_length_c                   12.4410(8)
_cell_angle_alpha                107.557(2)
_cell_angle_beta                 97.844(2)
_cell_angle_gamma                98.572(2)
_cell_volume                     739.831
_exptl_crystal_colour            colorless
_exptl_crystal_description       block
_cell_formula_units_Z            1
loop_
_atom_site_label
_atom_site_type_symbol
_atom_site_fract_x
_atom_site_fract_y
_atom_site_fract_z
O1 O 0.27450(14) 0.42055(6) 0.55857(6)
C1 C 0.2327(2) 0.33460(9) 0.45336(9)
C2 C 0.02392(19) 0.33970(9) 0.37430(9)
H1 H -0.0760 0.3988 0.3965
C3 C -0.03639(19) 0.25944(9) 0.26495(8)
H2 H -0.1779 0.2642 0.2122
C4 C 0.10663(19) 0.17001(9) 0.22888(8)
C5 C 0.31402(19) 0.16460(9) 0.30982(8)
C6 C 0.37645(19) 0.24806(9) 0.42206(8)
H3 H 0.5173 0.2445 0.4759
C7 C 0.04842(19) 0.08499(9) 0.11305(9)
C8 C -0.1511(2) 0.08493(9) 0.02767(9)
H4 H -0.2558 0.1427 0.0457
C9 C -0.20238(19) 0.00286(9) -0.08347(9)
C10 C -0.40887(19) 0.00584(9) -0.16926(9)
H5 H -0.5100 0.0649 -0.1500
C11 C -0.46256(19) -0.07360(9) -0.27681(9)
H6 H -0.6006 -0.0693 -0.3315
C12 C 0.4856(2) 0.42454(9) 0.64510(8)
H7 H 0.6518 0.4372 0.6190
H8 H 0.4652 0.3493 0.6627
C13 C 0.4791(2) 0.52729(9) 0.74997(8)
H9 H 0.3053 0.5164 0.7697
H10 H 0.5073 0.6017 0.7311
C14 C 0.6811(2) 0.53968(9) 0.85416(8)
H11 H 0.8556 0.5534 0.8357
H12 H 0.6565 0.4647 0.8721
C15 C 0.6647(2) 0.64179(9) 0.95961(8)
H13 H 0.6869 0.7164 0.9409
H14 H 0.4902 0.6275 0.9780
C16 C 0.8664(2) 0.65740(9) 1.06537(8)
H15 H 0.8463 0.5823 1.0832
H16 H 1.0410 0.6732 1.0475
C17 C 0.8470(2) 0.75783(9) 1.17120(8)
H17 H 0.8720 0.8331 1.1539
H18 H 0.6704 0.7432 1.1874
C18 C 1.0416(2) 0.77221(10) 1.27826(9)
H19 H 1.2184 0.7853 1.2620
H20 H 1.0139 0.6979 1.2973
C19 C 1.0212(2) 0.87522(10) 1.38166(10)
H21 H 1.0510 0.9493 1.3638
H22 H 1.1513 0.8809 1.4479
H23 H 0.8482 0.8617 1.3997
O1A O -0.27450(14) -0.42055(6) -0.55857(6)
C1A C -0.2327(2) -0.33460(9) -0.45336(9)
C2A C -0.02392(19) -0.33970(9) -0.37430(9)
H1A H 0.0760 -0.3988 -0.3965
C3A C 0.03639(19) -0.25944(9) -0.26495(8)
H2A H 0.1779 -0.2642 -0.2122
C4A C -0.10663(19) -0.17001(9) -0.22888(8)
C5A C -0.31402(19) -0.16460(9) -0.30982(8)
C6A C -0.37645(19) -0.24806(9) -0.42206(8)
H3A H -0.5173 -0.2445 -0.4759
C7A C -0.04842(19) -0.08499(9) -0.11305(9)
C8A C 0.1511(2) -0.08493(9) -0.02767(9)
H4A H 0.2558 -0.1427 -0.0457
C9A C 0.20238(19) -0.00286(9) 0.08347(9)
C10A C 0.40887(19) -0.00584(9) 0.16926(9)
H5A H 0.5100 -0.0649 0.1500
C11A C 0.46256(19) 0.07360(9) 0.27681(9)
H6A H 0.6006 0.0693 0.3315
C12A C -0.4856(2) -0.42454(9) -0.64510(8)
H7A H -0.6518 -0.4372 -0.6190
H8A H -0.4652 -0.3493 -0.6627
C13A C -0.4791(2) -0.52729(9) -0.74997(8)
H9A H -0.3053 -0.5164 -0.7697
H10A H -0.5073 -0.6017 -0.7311
C14A C -0.6811(2) -0.53968(9) -0.85416(8)
H11A H -0.8556 -0.5534 -0.8357
H12A H -0.6565 -0.4647 -0.8721
C15A C -0.6647(2) -0.64179(9) -0.95961(8)
H13A H -0.6869 -0.7164 -0.9409
H14A H -0.4902 -0.6275 -0.9780
C16A C -0.8664(2) -0.65740(9) -1.06537(8)
H15A H -0.8463 -0.5823 -1.0832
H16A H -1.0410 -0.6732 -1.0475
C17A C -0.8470(2) -0.75783(9) -1.17120(8)
H17A H -0.8720 -0.8331 -1.1539
H18A H -0.6704 -0.7432 -1.1874
C18A C -1.0416(2) -0.77221(10) -1.27826(9)
H19A H -1.2184 -0.7853 -1.2620
H20A H -1.0139 -0.6979 -1.2973
C19A C -1.0212(2) -0.87522(10) -1.38166(10)
H21A H -1.0510 -0.9493 -1.3638
H22A H -1.1513 -0.8809 -1.4479
H23A H -0.8482 -0.8617 -1.3997
loop_
_geom_bond_atom_site_label_1
_geom_bond_atom_site_label_2
_geom_bond_site_symmetry_1
_geom_bond_site_symmetry_2
O1 C1 1_555 1_555
C1 C2 1_555 1_555
C2 H1 1_555 1_555
C3 C2 1_555 1_555
H2 C3 1_555 1_555
C4 C3 1_555 1_555
C5 C4 1_555 1_555
C6 C1 1_555 1_555
H3 C6 1_555 1_555
C7 C4 1_555 1_555
C8 C7 1_555 1_555
H4 C8 1_555 1_555
C9 C8 1_555 1_555
C10 C9 1_555 1_555
H5 C10 1_555 1_555
C11 C10 1_555 1_555
H6 C11 1_555 1_555
C12 O1 1_555 1_555
H7 C12 1_555 1_555
H8 C12 1_555 1_555
C13 C12 1_555 1_555
H9 C13 1_555 1_555
H10 C13 1_555 1_555
C14 C13 1_555 1_555
H11 C14 1_555 1_555
H12 C14 1_555 1_555
C15 C14 1_555 1_555
H13 C15 1_555 1_555
H14 C15 1_555 1_555
C16 C15 1_555 1_555
H15 C16 1_555 1_555
H16 C16 1_555 1_555
C17 C16 1_555 1_555
H17 C17 1_555 1_555
H18 C17 1_555 1_555
C18 C17 1_555 1_555
H19 C18 1_555 1_555
H20 C18 1_555 1_555
C19 C18 1_555 1_555
H21 C19 1_555 1_555
H22 C19 1_555 1_555
H23 C19 1_555 1_555
O1A C1A 1_555 1_555
C1A C2A 1_555 1_555
C2A H1A 1_555 1_555
C3A C2A 1_555 1_555
H2A C3A 1_555 1_555
C4A C3A 1_555 1_555
C5A C11 1_555 1_555
C6A C1A 1_555 1_555
H3A C6A 1_555 1_555
C7A C9 1_555 1_555
C8A C7A 1_555 1_555
H4A C8A 1_555 1_555
C9A C7 1_555 1_555
C10A C9A 1_555 1_555
H5A C10A 1_555 1_555
C11A C5 1_555 1_555
H6A C11A 1_555 1_555
C12A O1A 1_555 1_555
H7A C12A 1_555 1_555
H8A C12A 1_555 1_555
C13A C12A 1_555 1_555
H9A C13A 1_555 1_555
H10A C13A 1_555 1_555
C14A C13A 1_555 1_555
H11A C14A 1_555 1_555
H12A C14A 1_555 1_555
C15A C14A 1_555 1_555
H13A C15A 1_555 1_555
H14A C15A 1_555 1_555
C16A C15A 1_555 1_555
H15A C16A 1_555 1_555
H16A C16A 1_555 1_555
C17A C16A 1_555 1_555
H17A C17A 1_555 1_555
H18A C17A 1_555 1_555
C18A C17A 1_555 1_555
H19A C18A 1_555 1_555
H20A C18A 1_555 1_555
C19A C18A 1_555 1_555
H21A C19A 1_555 1_555
H22A C19A 1_555 1_555
H23A C19A 1_555 1_555
C5 C6 1_555 1_555
C4A C5A 1_555 1_555
C4A C7A 1_555 1_555
C5A C6A 1_555 1_555
C8A C9A 1_555 1_555
C10A C11A 1_555 1_555

#END
