
#######################################################################
#
#                 Cambridge Crystallographic Data Centre
#                                CCDC 
#
#######################################################################
#
# If this CIF has been generated from an entry in the Cambridge 
# Structural Database, then it will include bibliographic, chemical, 
# crystal, experimental, refinement or atomic coordinate data resulting 
# from the CCDC's data processing and validation procedures.
#
#######################################################################

data_KEKNUM
_chemical_formula_moiety         'C12 H10 F4 N2 O2'
_chemical_name_systematic        
2-[4-(dimethylamino)pyridin-1-ium-1-yl]-4,4,5,5-tetrafluoro-3-oxocyclopent-1-en-1-olate
_symmetry_cell_setting           triclinic
_symmetry_space_group_name_H-M   'P -1'
_symmetry_Int_Tables_number      2
_space_group_name_Hall           '-P 1'
loop_
_symmetry_equiv_pos_site_id
_symmetry_equiv_pos_as_xyz
1 x,y,z
2 -x,-y,-z
_cell_length_a                   8.0035(7)
_cell_length_b                   8.1251(8)
_cell_length_c                   9.6525(9)
_cell_angle_alpha                89.337(8)
_cell_angle_beta                 82.411(7)
_cell_angle_gamma                68.634(9)
_cell_volume                     578.98
_exptl_crystal_colour            yellow
_exptl_crystal_description       Block
_cell_formula_units_Z            2
loop_
_atom_site_label
_atom_site_type_symbol
_atom_site_fract_x
_atom_site_fract_y
_atom_site_fract_z
F1 F 0.8393(2) 0.09824(18) 0.63439(15)
F2 F 0.9915(2) 0.3362(2) 0.39496(15)
F3 F 0.7816(2) 0.22612(19) 0.39520(15)
F4 F 1.06953(19) 0.1828(2) 0.61980(15)
O1 O 0.6238(2) 0.6065(2) 0.42149(16)
O2 O 0.7975(2) 0.3639(2) 0.85092(16)
N1 N 0.5679(2) 0.6980(2) 0.72781(18)
N2 N 0.2451(3) 1.1676(3) 0.94318(19)
C1 C 0.3463(3) 1.0163(3) 0.8718(2)
C2 C 0.3525(3) 0.8494(3) 0.9222(2)
H1 H 0.2817 0.8441 1.0054
C3 C 0.5613(3) 0.8562(3) 0.6743(2)
H2 H 0.6320 0.8569 0.5899
C4 C 0.4541(3) 1.0128(3) 0.7411(2)
H3 H 0.4511 1.1185 0.7013
C5 C 0.6825(3) 0.5355(3) 0.6563(2)
C6 C 0.6997(3) 0.5085(3) 0.5104(2)
C7 C 0.4614(3) 0.6974(3) 0.8495(2)
H4 H 0.4630 0.5897 0.8843
C8 C 0.8425(3) 0.3233(3) 0.4732(2)
C9 C 0.7845(3) 0.3871(3) 0.7250(2)
C10 C 0.8887(3) 0.2410(3) 0.6136(2)
C11 C 0.2363(3) 1.3388(3) 0.8896(2)
H5 H 0.3547 1.3308 0.8476
H6 H 0.1936 1.4262 0.9652
H7 H 0.1547 1.3722 0.8209
C12 C 0.1264(3) 1.1712(3) 1.0725(2)
H8 H 0.0186 1.1572 1.0507
H9 H 0.0945 1.2823 1.1225
H10 H 0.1881 1.0765 1.1293
loop_
_geom_bond_atom_site_label_1
_geom_bond_atom_site_label_2
_geom_bond_site_symmetry_1
_geom_bond_site_symmetry_2
F1 C10 1_555 1_555
F2 C8 1_555 1_555
F3 C8 1_555 1_555
F4 C10 1_555 1_555
O1 C6 1_555 1_555
O2 C9 1_555 1_555
N1 C3 1_555 1_555
N2 C1 1_555 1_555
C1 C2 1_555 1_555
C2 H1 1_555 1_555
C3 H2 1_555 1_555
C4 C1 1_555 1_555
H3 C4 1_555 1_555
C5 N1 1_555 1_555
C6 C5 1_555 1_555
C7 N1 1_555 1_555
H4 C7 1_555 1_555
C8 C6 1_555 1_555
C9 C5 1_555 1_555
C10 C8 1_555 1_555
C11 N2 1_555 1_555
H5 C11 1_555 1_555
H6 C11 1_555 1_555
H7 C11 1_555 1_555
C12 N2 1_555 1_555
H8 C12 1_555 1_555
H9 C12 1_555 1_555
H10 C12 1_555 1_555
C2 C7 1_555 1_555
C3 C4 1_555 1_555
C9 C10 1_555 1_555

#END
