
#######################################################################
#
#                 Cambridge Crystallographic Data Centre
#                                CCDC 
#
#######################################################################
#
# If this CIF has been generated from an entry in the Cambridge 
# Structural Database, then it will include bibliographic, chemical, 
# crystal, experimental, refinement or atomic coordinate data resulting 
# from the CCDC's data processing and validation procedures.
#
#######################################################################

data_KEKNOG
_chemical_formula_moiety         'C10 H5 F4 N1 O2,0.5(H2 O1)'
_chemical_name_systematic        
'4,4,5,5-tetrafluoro-3-oxo-2-(pyridin-1-ium-1-yl)cyclopent-1-en-1-olate hemihydrate'
_symmetry_cell_setting           monoclinic
_symmetry_space_group_name_H-M   'C 2/c'
_symmetry_Int_Tables_number      15
_space_group_name_Hall           '-C 2yn'
loop_
_symmetry_equiv_pos_site_id
_symmetry_equiv_pos_as_xyz
1 x,y,z
2 -x,y,1/2-z
3 1/2+x,1/2+y,z
4 1/2-x,1/2+y,1/2-z
5 -x,-y,-z
6 x,-y,1/2+z
7 1/2-x,1/2-y,-z
8 1/2+x,1/2-y,1/2+z
_cell_length_a                   6.3555(8)
_cell_length_b                   18.3880(16)
_cell_length_c                   8.5880(7)
_cell_angle_alpha                90
_cell_angle_beta                 104.630(10)
_cell_angle_gamma                90
_cell_volume                     971.095
_exptl_crystal_colour            colorless
_exptl_crystal_description       plate
_cell_formula_units_Z            4
loop_
_atom_site_label
_atom_site_type_symbol
_atom_site_fract_x
_atom_site_fract_y
_atom_site_fract_z
F1 F 0.1131(3) 0.42106(8) 1.10347(17)
F2 F -0.2260(3) 0.40301(8) 1.09099(16)
O1 O -0.0116(2) 0.27952(7) 0.97219(15)
N1 N 0.0000 0.17880(12) 1.2500
C1 C 0.0000 0.03019(15) 1.2500
H1 H 0.0000 -0.020(2) 1.2500
C2 C 0.1486(3) 0.06826(11) 1.1876(2)
H2 H 0.256(4) 0.0426(15) 1.139(3)
C3 C 0.1469(3) 0.14317(11) 1.1891(2)
H3 H 0.244(4) 0.1732(15) 1.147(3)
C4 C 0.0000 0.25676(14) 1.2500
C5 C -0.0075(3) 0.29768(10) 1.1107(2)
C6 C -0.0231(4) 0.37736(11) 1.1576(2)
F1A F -0.1131(3) 0.42106(8) 1.39653(17)
F2A F 0.2260(3) 0.40301(8) 1.40901(16)
O1A O 0.0116(2) 0.27952(7) 1.52781(15)
C2A C -0.1486(3) 0.06826(11) 1.3124(2)
H2A H -0.256(4) 0.0426(15) 1.361(3)
C3A C -0.1469(3) 0.14317(11) 1.3109(2)
H3A H -0.244(4) 0.1732(15) 1.353(3)
C5A C 0.0075(3) 0.29768(10) 1.3893(2)
C6A C 0.0231(4) 0.37736(11) 1.3424(2)
O2 O -0.5000 0.3344(3) 1.2500
loop_
_geom_bond_atom_site_label_1
_geom_bond_atom_site_label_2
_geom_bond_site_symmetry_1
_geom_bond_site_symmetry_2
F1 C6 1_555 1_555
F2 C6 1_555 1_555
O1 C5 1_555 1_555
N1 C3 1_555 1_555
C1 H1 1_555 1_555
C2 C1 1_555 1_555
H2 C2 1_555 1_555
C3 C2 1_555 1_555
H3 C3 1_555 1_555
C4 N1 1_555 1_555
C5 C4 1_555 1_555
C6 C5 1_555 1_555
F1A C6A 1_555 1_555
F2A C6A 1_555 1_555
O1A C5A 1_555 1_555
C2A C1 1_555 1_555
H2A C2A 1_555 1_555
C3A N1 1_555 1_555
H3A C3A 1_555 1_555
C5A C4 1_555 1_555
C6A C6 1_555 1_555
C2A C3A 1_555 1_555
C5A C6A 1_555 1_555

#END
