
#######################################################################
#
#                 Cambridge Crystallographic Data Centre
#                                CCDC 
#
#######################################################################
#
# If this CIF has been generated from an entry in the Cambridge 
# Structural Database, then it will include bibliographic, chemical, 
# crystal, experimental, refinement or atomic coordinate data resulting 
# from the CCDC's data processing and validation procedures.
#
#######################################################################

data_KEKPIA
_chemical_formula_moiety         'C22 H36 O6 Si1'
_chemical_name_systematic        
(1R,2R,3R,4S,5S)-3-(4-Methoxybenzyloxy)-2-(t-butyl(dimethyl)silyloxy)-9-oxabicyclo(3.3.1)nonane-1,4-diol
_symmetry_cell_setting           orthorhombic
_symmetry_space_group_name_H-M   'P 21 21 21'
_symmetry_Int_Tables_number      19
_space_group_name_Hall           'P 2ac 2ab'
loop_
_symmetry_equiv_pos_site_id
_symmetry_equiv_pos_as_xyz
1 x,y,z
2 1/2-x,-y,1/2+z
3 1/2+x,1/2-y,-z
4 -x,1/2+y,1/2-z
_cell_length_a                   7.500(1)
_cell_length_b                   10.249(2)
_cell_length_c                   29.643(6)
_cell_angle_alpha                90
_cell_angle_beta                 90
_cell_angle_gamma                90
_cell_volume                     2278.58
_exptl_crystal_colour            colorless
_exptl_crystal_description       rod
_cell_formula_units_Z            4
loop_
_atom_site_label
_atom_site_type_symbol
_atom_site_fract_x
_atom_site_fract_y
_atom_site_fract_z
Si1 Si 0.99337(10) 0.39223(7) 0.86277(2)
O1 O 0.7866(2) 0.61310(17) 1.00689(6)
O2 O 0.5712(2) 0.6160(2) 0.95353(6)
H1 H 0.481(4) 0.598(3) 0.9711(9)
O3 O 1.2593(2) 0.6159(2) 1.00290(6)
H2 H 1.252(4) 0.699(4) 1.0008(11)
O4 O 1.1500(2) 0.65388(17) 0.91136(6)
O5 O 0.9078(2) 0.43355(17) 0.91209(6)
O6 O 1.6442(2) 0.9374(2) 0.76416(6)
C1 C 0.7195(3) 0.5449(3) 0.96738(9)
C2 C 0.6725(3) 0.4073(3) 0.98238(9)
H3 H 0.6355 0.3561 0.9556
H4 H 0.5695 0.4115 1.0032
C3 C 0.8260(4) 0.3355(3) 1.00601(9)
H5 H 0.7799 0.255 1.0203
H6 H 0.9167 0.31 0.9834
C4 C 0.9123(4) 0.4217(3) 1.04184(9)
H7 H 0.8311 0.4296 1.068
H8 H 1.0242 0.3804 1.0524
C5 C 0.9530(3) 0.5564(3) 1.02333(8)
H9 H 0.9956 0.6115 1.049
C6 C 1.0991(3) 0.5602(3) 0.98582(8)
H10 H 1.1248 0.4686 0.9762
C7 C 1.0208(3) 0.6331(2) 0.94604(8)
H11 H 0.9793 0.7203 0.9569
C8 C 0.8591(3) 0.5584(2) 0.92874(8)
H12 H 0.8041 0.6094 0.9036
C9 C 1.1225(4) 0.7778(3) 0.89056(9)
H13 H 1.1276 0.8467 0.9139
H14 H 1.0021 0.7798 0.8769
C10 C 1.2593(3) 0.8066(3) 0.85464(8)
C11 C 1.4377(3) 0.7724(3) 0.85928(9)
H15 H 1.4746 0.7196 0.8839
C12 C 1.5617(4) 0.8154(3) 0.82803(9)
H16 H 1.6831 0.7904 0.831
C13 C 1.5103(3) 0.8949(2) 0.79230(8)
C14 C 1.3327(4) 0.9271(3) 0.78702(9)
H17 H 1.2953 0.9801 0.7625
C15 C 1.2098(4) 0.8808(3) 0.81812(9)
H18 H 1.0873 0.9011 0.814
C16 C 1.5967(4) 1.0395(3) 0.73300(9)
H19 H 1.5139 1.005 0.7104
H20 H 1.7044 1.0719 0.718
H21 H 1.5394 1.1111 0.7494
C17 C 1.2385(4) 0.3677(3) 0.86829(10)
H22 H 1.2954 0.4507 0.8761
H23 H 1.2867 0.3358 0.8396
H24 H 1.2622 0.3035 0.8921
C18 C 0.9390(4) 0.5179(3) 0.81969(9)
H25 H 0.8106 0.5354 0.8201
H26 H 0.9736 0.4861 0.7898
H27 H 1.0042 0.5984 0.8265
C19 C 0.8825(4) 0.2324(3) 0.84814(9)
C20 C 0.9198(4) 0.1303(3) 0.88474(10)
H28 H 0.8555 0.0496 0.8776
H29 H 0.8796 0.1635 0.914
H30 H 1.048 0.1124 0.886
C21 C 0.9540(4) 0.1830(3) 0.80264(9)
H31 H 1.0826 0.1676 0.805
H32 H 0.9312 0.2485 0.7793
H33 H 0.8938 0.1013 0.7946
C22 C 0.6784(4) 0.2520(3) 0.84408(10)
H34 H 0.6204 0.1672 0.84
H35 H 0.6525 0.308 0.8181
H36 H 0.6332 0.2934 0.8716
loop_
_geom_bond_atom_site_label_1
_geom_bond_atom_site_label_2
_geom_bond_site_symmetry_1
_geom_bond_site_symmetry_2
Si1 O5 1_555 1_555
O1 C1 1_555 1_555
O2 H1 1_555 1_555
O3 H2 1_555 1_555
O4 C7 1_555 1_555
O5 C8 1_555 1_555
O6 C13 1_555 1_555
C1 O2 1_555 1_555
C2 C1 1_555 1_555
H3 C2 1_555 1_555
H4 C2 1_555 1_555
C3 C2 1_555 1_555
H5 C3 1_555 1_555
H6 C3 1_555 1_555
C4 C3 1_555 1_555
H7 C4 1_555 1_555
H8 C4 1_555 1_555
C5 O1 1_555 1_555
H9 C5 1_555 1_555
C6 O3 1_555 1_555
H10 C6 1_555 1_555
C7 C6 1_555 1_555
H11 C7 1_555 1_555
C8 C1 1_555 1_555
H12 C8 1_555 1_555
C9 O4 1_555 1_555
H13 C9 1_555 1_555
H14 C9 1_555 1_555
C10 C9 1_555 1_555
C11 C10 1_555 1_555
H15 C11 1_555 1_555
C12 C11 1_555 1_555
H16 C12 1_555 1_555
C13 C12 1_555 1_555
C14 C13 1_555 1_555
H17 C14 1_555 1_555
C15 C10 1_555 1_555
H18 C15 1_555 1_555
C16 O6 1_555 1_555
H19 C16 1_555 1_555
H20 C16 1_555 1_555
H21 C16 1_555 1_555
C17 Si1 1_555 1_555
H22 C17 1_555 1_555
H23 C17 1_555 1_555
H24 C17 1_555 1_555
C18 Si1 1_555 1_555
H25 C18 1_555 1_555
H26 C18 1_555 1_555
H27 C18 1_555 1_555
C19 Si1 1_555 1_555
C20 C19 1_555 1_555
H28 C20 1_555 1_555
H29 C20 1_555 1_555
H30 C20 1_555 1_555
C21 C19 1_555 1_555
H31 C21 1_555 1_555
H32 C21 1_555 1_555
H33 C21 1_555 1_555
C22 C19 1_555 1_555
H34 C22 1_555 1_555
H35 C22 1_555 1_555
H36 C22 1_555 1_555
C4 C5 1_555 1_555
C5 C6 1_555 1_555
C7 C8 1_555 1_555
C14 C15 1_555 1_555

#END
