
#######################################################################
#
#                 Cambridge Crystallographic Data Centre
#                                CCDC 
#
#######################################################################
#
# If this CIF has been generated from an entry in the Cambridge 
# Structural Database, then it will include bibliographic, chemical, 
# crystal, experimental, refinement or atomic coordinate data resulting 
# from the CCDC's data processing and validation procedures.
#
#######################################################################

data_KEKPOG
_chemical_formula_moiety         'C30 H27 Br2 N3 O3'
_chemical_name_systematic        
(R,R)/(S,S)-2'-(3'',3''-Dimethyl-1''-(4-bromophenyl)azetidin-2''-one)oxy-3,3,5'-trimethyl-1-(4-bromophenyl)spiro(azetidine-4,3'-indolenine)-2-one
_symmetry_cell_setting           monoclinic
_symmetry_space_group_name_H-M   'P 21/n'
_symmetry_Int_Tables_number      14
_space_group_name_Hall           '-P 2yn'
loop_
_symmetry_equiv_pos_site_id
_symmetry_equiv_pos_as_xyz
1 x,y,z
2 1/2-x,1/2+y,1/2-z
3 -x,-y,-z
4 1/2+x,1/2-y,1/2+z
_cell_length_a                   12.156(2)
_cell_length_b                   13.886(3)
_cell_length_c                   17.364(4)
_cell_angle_alpha                90
_cell_angle_beta                 103.23(3)
_cell_angle_gamma                90
_cell_volume                     2853.22
_exptl_crystal_colour            colorless
_exptl_crystal_description       block
_chemical_melting_point          249-250deg.C
_cell_formula_units_Z            4
loop_
_atom_site_label
_atom_site_type_symbol
_atom_site_fract_x
_atom_site_fract_y
_atom_site_fract_z
Br1 Br 0.78979(5) 0.89311(5) 0.09438(3)
Br2 Br 0.53101(6) 1.05899(5) -0.08178(4)
O1 O 1.2432(2) 0.8138(2) -0.10410(17)
O2 O 0.9930(2) 0.97410(17) -0.26685(13)
O3 O 0.9222(3) 1.2955(2) -0.27888(19)
N1 N 1.0596(3) 0.8719(2) -0.15672(17)
N2 N 0.8867(3) 0.9149(2) -0.38586(17)
N3 N 0.8395(2) 1.14393(19) -0.30214(15)
C1 C 0.8810(3) 0.8853(3) -0.1197(2)
H1 H 0.8440 0.8877 -0.1728
C2 C 0.8196(4) 0.8908(3) -0.0618(2)
H2 H 0.7415 0.8980 -0.0758
C3 C 0.8748(4) 0.8854(3) 0.0156(2)
C4 C 0.9896(4) 0.8770(3) 0.0380(2)
H3 H 1.0256 0.8741 0.0914
C5 C 1.0515(3) 0.8727(3) -0.0188(2)
H4 H 1.1297 0.8672 -0.0042
C6 C 0.9962(3) 0.8765(3) -0.0986(2)
C7 C 1.1665(4) 0.8384(3) -0.1569(2)
C8 C 1.1427(4) 0.8418(3) -0.2477(2)
C9 C 1.0221(3) 0.8769(3) -0.2425(2)
H5 H 0.9624 0.8305 -0.2643
C10 C 0.9199(3) 0.9835(3) -0.33765(19)
C11 C 0.7987(3) 0.9557(3) -0.44677(19)
C12 C 0.7319(4) 0.9077(3) -0.5096(2)
H6 H 0.7445 0.8432 -0.5192
C13 C 0.6452(4) 0.9588(4) -0.5581(2)
H7 H 0.6006 0.9279 -0.6017
C14 C 0.6221(4) 1.0541(3) -0.5443(2)
C15 C 0.6930(3) 1.1013(3) -0.4808(2)
H8 H 0.6806 1.1657 -0.4707
C16 C 0.7809(3) 1.0523(3) -0.43360(19)
C17 C 0.8708(3) 1.0822(2) -0.36242(19)
C18 C 0.9567(3) 1.1666(3) -0.3731(2)
C19 C 0.9079(4) 1.2185(3) -0.3109(2)
C20 C 0.7644(3) 1.1268(3) -0.2533(2)
C21 C 0.7539(4) 1.1926(3) -0.1939(2)
H9 H 0.7944 1.2501 -0.1883
C22 C 0.6845(4) 1.1724(4) -0.1445(2)
H10 H 0.6783 1.2159 -0.1051
C23 C 0.6242(4) 1.0890(4) -0.1525(2)
C24 C 0.6300(3) 1.0253(3) -0.2112(2)
H11 H 0.5865 0.9695 -0.2175
C25 C 0.7008(3) 1.0441(3) -0.2612(2)
H12 H 0.7056 1.0002 -0.3008
C26 C 1.1388(5) 0.7399(4) -0.2836(3)
H13 H 1.2138 0.7204 -0.2859
H14 H 1.0913 0.7403 -0.3360
H15 H 1.1089 0.6955 -0.2513
C27 C 1.2156(4) 0.9107(4) -0.2800(3)
H16 H 1.2869 0.8808 -0.2797
H17 H 1.2279 0.9676 -0.2477
H18 H 1.1788 0.9278 -0.3332
C28 C 0.5250(4) 1.1073(4) -0.5970(3)
H19 H 0.4855 1.0647 -0.6375
H20 H 0.5537 1.1612 -0.6210
H21 H 0.4743 1.1298 -0.5660
C29 C 0.9358(4) 1.2140(3) -0.4535(2)
H22 H 0.9915 1.2631 -0.4531
H23 H 0.8618 1.2424 -0.4656
H24 H 0.9407 1.1666 -0.4928
C30 C 1.0806(3) 1.1428(4) -0.3439(3)
H25 H 1.1254 1.1970 -0.3523
H26 H 1.0991 1.0881 -0.3723
H27 H 1.0960 1.1281 -0.2884
loop_
_geom_bond_atom_site_label_1
_geom_bond_atom_site_label_2
_geom_bond_site_symmetry_1
_geom_bond_site_symmetry_2
Br1 C3 1_555 1_555
Br2 C23 1_555 1_555
O1 C7 1_555 1_555
O2 C9 1_555 1_555
O3 C19 1_555 1_555
N1 C6 1_555 1_555
N2 C10 1_555 1_555
N3 C17 1_555 1_555
C1 H1 1_555 1_555
C2 C1 1_555 1_555
H2 C2 1_555 1_555
C3 C2 1_555 1_555
C4 C3 1_555 1_555
H3 C4 1_555 1_555
C5 C4 1_555 1_555
H4 C5 1_555 1_555
C6 C1 1_555 1_555
C7 N1 1_555 1_555
C8 C7 1_555 1_555
C9 N1 1_555 1_555
H5 C9 1_555 1_555
C10 O2 1_555 1_555
C11 N2 1_555 1_555
C12 C11 1_555 1_555
H6 C12 1_555 1_555
C13 C12 1_555 1_555
H7 C13 1_555 1_555
C14 C13 1_555 1_555
C15 C14 1_555 1_555
H8 C15 1_555 1_555
C16 C11 1_555 1_555
C17 C10 1_555 1_555
C18 C17 1_555 1_555
C19 N3 1_555 1_555
C20 N3 1_555 1_555
C21 C20 1_555 1_555
H9 C21 1_555 1_555
C22 C21 1_555 1_555
H10 C22 1_555 1_555
C23 C22 1_555 1_555
C24 C23 1_555 1_555
H11 C24 1_555 1_555
C25 C20 1_555 1_555
H12 C25 1_555 1_555
C26 C8 1_555 1_555
H13 C26 1_555 1_555
H14 C26 1_555 1_555
H15 C26 1_555 1_555
C27 C8 1_555 1_555
H16 C27 1_555 1_555
H17 C27 1_555 1_555
H18 C27 1_555 1_555
C28 C14 1_555 1_555
H19 C28 1_555 1_555
H20 C28 1_555 1_555
H21 C28 1_555 1_555
C29 C18 1_555 1_555
H22 C29 1_555 1_555
H23 C29 1_555 1_555
H24 C29 1_555 1_555
C30 C18 1_555 1_555
H25 C30 1_555 1_555
H26 C30 1_555 1_555
H27 C30 1_555 1_555
C5 C6 1_555 1_555
C8 C9 1_555 1_555
C15 C16 1_555 1_555
C16 C17 1_555 1_555
C18 C19 1_555 1_555
C24 C25 1_555 1_555

#END
