
#######################################################################
#
#                 Cambridge Crystallographic Data Centre
#                                CCDC 
#
#######################################################################
#
# If this CIF has been generated from an entry in the Cambridge 
# Structural Database, then it will include bibliographic, chemical, 
# crystal, experimental, refinement or atomic coordinate data resulting 
# from the CCDC's data processing and validation procedures.
#
#######################################################################

data_KEKPIC
_chemical_formula_moiety         'C15 H9 F4 N1 O2 S1'
_chemical_name_systematic        
4,4,5,5-tetrafluoro-2-[4-(5-methylthiophen-2-yl)pyridin-1-ium-1-yl]-3-oxocyclopent-1-en-1-olate
_symmetry_cell_setting           triclinic
_symmetry_space_group_name_H-M   'P -1'
_symmetry_Int_Tables_number      2
_space_group_name_Hall           '-P 1'
loop_
_symmetry_equiv_pos_site_id
_symmetry_equiv_pos_as_xyz
1 x,y,z
2 -x,-y,-z
_cell_length_a                   7.5745(4)
_cell_length_b                   9.4091(6)
_cell_length_c                   10.1097(7)
_cell_angle_alpha                104.387(6)
_cell_angle_beta                 90.826(5)
_cell_angle_gamma                105.052(5)
_cell_volume                     671.565
_exptl_crystal_colour            yellow
_exptl_crystal_description       plate
_cell_formula_units_Z            2
loop_
_atom_site_label
_atom_site_type_symbol
_atom_site_fract_x
_atom_site_fract_y
_atom_site_fract_z
S1 S 0.25672(6) 0.84487(5) 0.50513(5)
F1 F 0.88083(16) 0.27465(14) -0.13465(11)
F2 F 0.78146(16) 0.08952(12) -0.03818(12)
F3 F 1.07502(17) 0.18800(13) 0.12089(12)
F4 F 1.16576(15) 0.37934(14) 0.03173(12)
O1 O 0.55577(18) 0.30162(16) 0.00308(13)
O2 O 1.08639(17) 0.47058(16) 0.31560(13)
N1 N 0.71008(19) 0.51720(16) 0.27881(14)
C1 C 0.7964(2) 0.41998(19) 0.18634(17)
C2 C 0.7098(2) 0.32433(19) 0.05840(18)
C3 C 0.7596(2) 0.55739(19) 0.41624(17)
H1 H 0.8491 0.5205 0.4492
C4 C 0.5791(2) 0.57094(19) 0.23025(17)
H2 H 0.5472 0.5448 0.1364
C5 C 0.4934(2) 0.66292(19) 0.31735(17)
H3 H 0.4031 0.6973 0.2822
C6 C 0.9751(2) 0.4099(2) 0.21445(17)
C7 C 0.4520(2) 0.80186(19) 0.55529(18)
C8 C 0.6795(2) 0.65102(19) 0.50577(17)
H4 H 0.7171 0.6789 0.5988
C9 C 0.5060(3) 0.8744(2) 0.69154(18)
H5 H 0.6071 0.8645 0.7382
C10 C 0.5410(2) 0.70594(18) 0.45973(17)
C11 C 0.8480(2) 0.2426(2) -0.01188(17)
C12 C 1.0224(2) 0.3024(2) 0.08767(18)
C13 C 0.3925(3) 0.9648(2) 0.75275(19)
H6 H 0.4122 1.0220 0.8436
C14 C 0.2504(3) 0.9603(2) 0.66556(19)
C15 C 0.1027(3) 1.0407(2) 0.6954(2)
H7 H 0.1096 1.1090 0.6379
H8 H 0.1191 1.0976 0.7898
H9 H -0.0151 0.9670 0.6775
loop_
_geom_bond_atom_site_label_1
_geom_bond_atom_site_label_2
_geom_bond_site_symmetry_1
_geom_bond_site_symmetry_2
S1 C7 1_555 1_555
F1 C11 1_555 1_555
F2 C11 1_555 1_555
F3 C12 1_555 1_555
F4 C12 1_555 1_555
O1 C2 1_555 1_555
O2 C6 1_555 1_555
N1 C1 1_555 1_555
C1 C2 1_555 1_555
C2 C11 1_555 1_555
C3 N1 1_555 1_555
H1 C3 1_555 1_555
C4 N1 1_555 1_555
H2 C4 1_555 1_555
C5 C4 1_555 1_555
H3 C5 1_555 1_555
C6 C1 1_555 1_555
C7 C9 1_555 1_555
C8 C3 1_555 1_555
H4 C8 1_555 1_555
C9 H5 1_555 1_555
C10 C5 1_555 1_555
C11 C12 1_555 1_555
C12 C6 1_555 1_555
C13 C9 1_555 1_555
H6 C13 1_555 1_555
C14 S1 1_555 1_555
C15 C14 1_555 1_555
H7 C15 1_555 1_555
H8 C15 1_555 1_555
H9 C15 1_555 1_555
C7 C10 1_555 1_555
C8 C10 1_555 1_555
C13 C14 1_555 1_555

#END
