
#######################################################################
#
#                 Cambridge Crystallographic Data Centre
#                                CCDC 
#
#######################################################################
#
# If this CIF has been generated from an entry in the Cambridge 
# Structural Database, then it will include bibliographic, chemical, 
# crystal, experimental, refinement or atomic coordinate data resulting 
# from the CCDC's data processing and validation procedures.
#
#######################################################################

data_KEKPEW
_chemical_formula_moiety         'C9 H18 O5'
_chemical_name_systematic        
(1S,2S,3S,4S,5R)-5-(Hydroxymethyl)cyclo-octane-1,2,3,4-tetraol
_symmetry_cell_setting           monoclinic
_symmetry_space_group_name_H-M   'P 21'
_symmetry_Int_Tables_number      4
_space_group_name_Hall           'P 2yb'
loop_
_symmetry_equiv_pos_site_id
_symmetry_equiv_pos_as_xyz
1 x,y,z
2 -x,1/2+y,-z
_cell_length_a                   5.000(1)
_cell_length_b                   9.130(2)
_cell_length_c                   10.483(3)
_cell_angle_alpha                90
_cell_angle_beta                 91.434(11)
_cell_angle_gamma                90
_cell_volume                     478.399
_exptl_crystal_colour            colorless
_exptl_crystal_description       plate
_cell_formula_units_Z            2
loop_
_atom_site_label
_atom_site_type_symbol
_atom_site_fract_x
_atom_site_fract_y
_atom_site_fract_z
O1 O 0.7182(3) 0.64249(14) 0.63663(13)
H1 H 0.840(6) 0.619(3) 0.592(3)
O2 O 1.0949(2) 0.94741(14) 0.61667(13)
H2 H 1.110(5) 0.889(3) 0.555(3)
O3 O 0.7814(3) 1.15504(14) 0.48168(12)
H3 H 0.649(5) 1.156(3) 0.445(2)
O4 O 0.9967(3) 1.33861(14) 0.63635(13)
H4 H 1.149(5) 1.355(3) 0.668(2)
O5 O 0.5087(3) 1.38141(14) 0.74574(13)
H5 H 0.602(5) 1.443(4) 0.706(3)
C1 C 0.7311(3) 0.87927(18) 0.75476(17)
H6 H 0.5323 0.8848 0.7617
C2 C 0.8101(3) 0.9547(2) 0.63043(17)
H7 H 0.7269 0.8974 0.5585
C3 C 0.7269(4) 1.1154(2) 0.61112(16)
H8 H 0.5305 1.1248 0.6251
C4 C 0.8801(3) 1.2199(2) 0.70402(17)
H9 H 1.0269 1.1634 0.748
C5 C 0.6983(4) 1.2826(2) 0.80518(17)
H10 H 0.8105 1.3387 0.8685
C6 C 0.5379(4) 1.1691(2) 0.87609(17)
H11 H 0.4223 1.1165 0.8132
H12 H 0.4188 1.2211 0.935
C7 C 0.6989(4) 1.0551(2) 0.95330(19)
H13 H 0.573 1.0012 1.0076
H14 H 0.8248 1.1082 1.0111
C8 C 0.8604(4) 0.9416(2) 0.87855(17)
H15 H 0.9015 0.8584 0.9364
H16 H 1.033 0.9871 0.8565
C9 C 0.8126(4) 0.7171(2) 0.74919(17)
H17 H 1.0102 0.7105 0.754
H18 H 0.7425 0.6663 0.8248
loop_
_geom_bond_atom_site_label_1
_geom_bond_atom_site_label_2
_geom_bond_site_symmetry_1
_geom_bond_site_symmetry_2
O1 H1 1_555 1_555
O2 H2 1_555 1_555
O3 H3 1_555 1_555
O4 H4 1_555 1_555
O5 H5 1_555 1_555
C1 H6 1_555 1_555
C2 O2 1_555 1_555
H7 C2 1_555 1_555
C3 O3 1_555 1_555
H8 C3 1_555 1_555
C4 O4 1_555 1_555
H9 C4 1_555 1_555
C5 O5 1_555 1_555
H10 C5 1_555 1_555
C6 C5 1_555 1_555
H11 C6 1_555 1_555
H12 C6 1_555 1_555
C7 C6 1_555 1_555
H13 C7 1_555 1_555
H14 C7 1_555 1_555
C8 C1 1_555 1_555
H15 C8 1_555 1_555
H16 C8 1_555 1_555
C9 O1 1_555 1_555
H17 C9 1_555 1_555
H18 C9 1_555 1_555
C1 C2 1_555 1_555
C1 C9 1_555 1_555
C2 C3 1_555 1_555
C3 C4 1_555 1_555
C4 C5 1_555 1_555
C7 C8 1_555 1_555

#END
