
#######################################################################
#
#                 Cambridge Crystallographic Data Centre
#                                CCDC 
#
#######################################################################
#
# If this CIF has been generated from an entry in the Cambridge 
# Structural Database, then it will include bibliographic, chemical, 
# crystal, experimental, refinement or atomic coordinate data resulting 
# from the CCDC's data processing and validation procedures.
#
#######################################################################

data_KEKQUN
_chemical_formula_moiety         'C30 H34 N4 O10,0.5(H2 O1)'
_chemical_name_systematic        
'Diethyl 2,3,9,10-tetramethoxy-6,13-dioxo-5,7,12,13b,13c,14-hexahydro-5a,6a,12a,13a-tetra-azabenzo(5,6)azuleno(2,1,8-ija)benzo(f)azulene-13b,13c-dicarboxylate hemihydrate'
_symmetry_cell_setting           monoclinic
_symmetry_space_group_name_H-M   'P 2/c'
_symmetry_Int_Tables_number      13
_space_group_name_Hall           '-P 2yc'
loop_
_symmetry_equiv_pos_site_id
_symmetry_equiv_pos_as_xyz
1 x,y,z
2 -x,y,1/2-z
3 -x,-y,-z
4 x,-y,1/2+z
_cell_length_a                   18.3914(16)
_cell_length_b                   12.5889(11)
_cell_length_c                   32.662(3)
_cell_angle_alpha                90
_cell_angle_beta                 122.009(4)
_cell_angle_gamma                90
_cell_volume                     6412.44
_exptl_crystal_colour            colorless
_exptl_crystal_description       block
_cell_formula_units_Z            8
loop_
_atom_site_label
_atom_site_type_symbol
_atom_site_fract_x
_atom_site_fract_y
_atom_site_fract_z
C1 C 0.76517(14) -0.27734(18) 0.93313(8)
H1 H 0.8195 -0.2425 0.9525
H2 H 0.7736 -0.3529 0.9353
H3 H 0.7284 -0.2588 0.9446
C2 C 0.69604(14) -0.14350(17) 0.87411(8)
C3 C 0.70761(14) -0.06791(19) 0.90811(8)
H4 H 0.7390 -0.0847 0.9408
C4 C 0.67227(14) 0.03280(17) 0.89322(8)
C5 C 0.68731(14) 0.11277(17) 0.93128(8)
H5 H 0.7219 0.0794 0.9627
H6 H 0.7205 0.1711 0.9300
C6 C 0.56815(14) 0.10729(17) 0.94478(8)
C7 C 0.42830(13) 0.11826(17) 0.93778(8)
H7 H 0.3922 0.1770 0.9354
H8 H 0.4553 0.0894 0.9702
C8 C 0.37264(13) 0.03287(16) 0.90166(7)
C9 C 0.37036(14) -0.07030(19) 0.91836(8)
H9 H 0.4038 -0.0861 0.9511
C10 C 0.31907(15) -0.14605(18) 0.88624(8)
C11 C 0.37375(14) -0.28315(19) 0.95154(8)
H10 H 0.3712 -0.2303 0.9719
H11 H 0.4315 -0.2888 0.9589
H12 H 0.3558 -0.3504 0.9570
C12 C 0.15775(14) -0.18569(19) 0.76178(8)
H13 H 0.1833 -0.1500 0.7465
H14 H 0.1158 -0.1401 0.7617
H15 H 0.1306 -0.2498 0.7445
C13 C 0.26797(15) -0.1269(2) 0.83719(9)
C14 C 0.27269(15) -0.0289(2) 0.82151(9)
H16 H 0.2415 -0.0151 0.7885
C15 C 0.32144(14) 0.04973(16) 0.85245(8)
C16 C 0.32199(13) 0.15960(18) 0.83307(8)
H17 H 0.2823 0.1599 0.7984
H18 H 0.3016 0.2110 0.8469
C17 C 0.44148(14) 0.16424(17) 0.81698(8)
C18 C 0.58816(15) 0.16746(18) 0.82802(8)
H19 H 0.6343 0.2192 0.8422
H20 H 0.5604 0.1718 0.7932
C19 C 0.62546(14) 0.05809(17) 0.84440(8)
C20 C 0.61393(14) -0.01747(17) 0.81039(8)
H21 H 0.5826 -0.0006 0.7777
C21 C 0.64923(15) -0.11833(18) 0.82522(9)
C22 C 0.60631(15) -0.1769(2) 0.74387(8)
H22 H 0.5546 -0.1366 0.7320
H23 H 0.5934 -0.2424 0.7263
H24 H 0.6462 -0.1367 0.7396
C23 C 0.55607(13) 0.23231(17) 0.88919(8)
C24 C 0.47166(13) 0.23056(17) 0.89050(8)
C25 C 0.60292(15) 0.33989(18) 0.90165(8)
C26 C 0.60708(14) 0.50535(17) 0.86870(8)
H25 H 0.6675 0.5031 0.8796
H26 H 0.6003 0.5448 0.8920
C27 C 0.55539(15) 0.55500(19) 0.81933(8)
H27 H 0.5893 0.5578 0.8050
H28 H 0.5389 0.6257 0.8222
H29 H 0.5050 0.5131 0.7994
C28 C 0.45180(14) 0.33813(17) 0.90405(8)
C29 C 0.38331(15) 0.50674(18) 0.87584(8)
H30 H 0.3468 0.5026 0.8889
H31 H 0.4341 0.5482 0.8972
C30 C 0.33670(14) 0.54771(18) 0.82527(8)
H32 H 0.3636 0.5277 0.8080
H33 H 0.3336 0.6237 0.8261
H34 H 0.2799 0.5185 0.8093
N1 N 0.61225(11) 0.15561(14) 0.92770(6)
N2 N 0.49370(11) 0.15732(14) 0.93013(6)
N3 N 0.40958(11) 0.19404(13) 0.84413(6)
N4 N 0.52497(11) 0.19485(14) 0.84154(6)
O1 O 0.59629(11) 0.02973(13) 0.97278(6)
O2 O 0.40481(10) 0.11834(12) 0.77838(5)
O3 O 0.72650(9) -0.24444(11) 0.88398(6)
O4 O 0.64405(9) -0.19957(12) 0.79517(6)
O5 O 0.31693(9) -0.25256(11) 0.90087(5)
O6 O 0.22170(10) -0.21084(11) 0.80979(5)
O7 O 0.65237(10) 0.36600(12) 0.94069(6)
O8 O 0.57253(10) 0.39933(12) 0.86235(6)
O9 O 0.48010(9) 0.37188(11) 0.94384(5)
O10 O 0.40478(9) 0.39929(12) 0.86534(6)
C31 C 0.12967(15) 0.48025(19) 0.79710(8)
H35 H 0.1257 0.4398 0.7711
H36 H 0.1546 0.5483 0.7988
H37 H 0.0734 0.4899 0.7916
C32 C 0.18692(14) 0.32601(18) 0.86091(8)
C33 C 0.13796(15) 0.24024(17) 0.83326(9)
H38 H 0.1038 0.2464 0.7998
C34 C 0.14008(15) 0.14515(17) 0.85558(8)
C35 C 0.08185(14) 0.04699(17) 0.82575(8)
H39 H 0.0470 0.0677 0.7921
H40 H 0.1191 -0.0101 0.8279
C36 C -0.06171(14) 0.03837(17) 0.81609(8)
C37 C -0.17441(13) 0.01281(16) 0.83498(8)
H41 H -0.1943 -0.0414 0.8479
H42 H -0.2159 0.0176 0.8005
C38 C -0.17221(14) 0.11771(18) 0.85787(8)
C39 C -0.22091(13) 0.19804(16) 0.82884(7)
H43 H -0.2526 0.1878 0.7956
C40 C -0.22472(14) 0.29406(18) 0.84721(8)
C41 C -0.31670(14) 0.37464(19) 0.77152(8)
H44 H -0.2880 0.3255 0.7623
H45 H -0.3169 0.4439 0.7592
H46 H -0.3747 0.3516 0.7585
C42 C -0.13073(14) 0.42151(18) 0.96884(8)
H47 H -0.1423 0.3608 0.9823
H48 H -0.1487 0.4848 0.9774
H49 H -0.0704 0.4254 0.9813
C43 C -0.17357(13) 0.30847(19) 0.89863(8)
C44 C -0.12286(13) 0.23070(16) 0.92806(8)
H50 H -0.0904 0.2427 0.9612
C45 C -0.11767(13) 0.12927(17) 0.90951(7)
C46 C -0.06144(13) 0.04770(17) 0.94036(8)
H51 H -0.0957 -0.0119 0.9394
H52 H -0.0298 0.0743 0.9732
C47 C 0.08413(15) 0.04836(18) 0.94916(8)
C48 C 0.19708(14) 0.03511(19) 0.93310(8)
H53 H 0.2224 -0.0203 0.9240
H54 H 0.2359 0.0487 0.9673
C49 C 0.19019(15) 0.13574(18) 0.90531(9)
C50 C 0.23924(14) 0.22193(18) 0.93304(8)
H55 H 0.2731 0.2158 0.9665
C51 C 0.23780(13) 0.31657(17) 0.91108(8)
C52 C 0.34192(13) 0.39809(17) 0.98493(7)
H56 H 0.3121 0.3997 1.0017
H57 H 0.3823 0.4555 0.9959
H58 H 0.3718 0.3318 0.9912
C53 C 0.05363(15) -0.05508(19) 0.88286(8)
C54 C -0.02635(13) -0.06409(17) 0.88891(8)
C55 C 0.06738(14) -0.15220(17) 0.86156(8)
C56 C 0.11411(14) -0.32126(17) 0.86373(7)
H59 H 0.1544 -0.3064 0.8539
H60 H 0.0584 -0.3359 0.8351
C57 C 0.14372(15) -0.41336(19) 0.89723(9)
H61 H 0.2007 -0.4326 0.9060
H62 H 0.1058 -0.4724 0.8816
H63 H 0.1437 -0.3946 0.9257
C58 C -0.04450(14) -0.17477(17) 0.89908(8)
C59 C -0.11196(14) -0.34401(16) 0.86987(7)
H64 H -0.1293 -0.3437 0.8932
H65 H -0.0600 -0.3859 0.8831
C60 C -0.18175(13) -0.39412(17) 0.82346(7)
H66 H -0.2315 -0.3493 0.8088
H67 H -0.1962 -0.4624 0.8303
H68 H -0.1619 -0.4026 0.8018
N5 N 0.02655(11) 0.00636(15) 0.84011(6)
N6 N -0.09064(11) -0.02183(14) 0.84248(6)
N7 N 0.00015(12) 0.00941(15) 0.92814(6)
N8 N 0.12067(11) -0.00207(14) 0.92599(6)
O11 O -0.09816(10) 0.08271(12) 0.78267(6)
O12 O 0.11804(10) 0.10603(13) 0.98330(6)
O13 O 0.18811(9) 0.42124(12) 0.84266(5)
O14 O 0.28199(9) 0.40882(12) 0.93452(5)
O15 O -0.27328(9) 0.37897(11) 0.82248(5)
O16 O -0.17802(9) 0.41153(12) 0.91593(5)
O17 O 0.04275(9) -0.15666(12) 0.81972(5)
O18 O 0.10871(9) -0.23131(12) 0.89007(5)
O19 O -0.02420(9) -0.20038(12) 0.93897(5)
O20 O -0.09480(9) -0.23602(13) 0.86183(6)
O21 O 0.5750(2) 0.8134(3) 0.94359(12)
H69 H 0.5910 0.8310 0.9723
H70 H 0.6013 0.8510 0.9339
O22 O 0.9685(3) 0.4058(4) 0.84492(16)
H71 H 0.9372 0.4382 0.8528
H72 H 1.0069 0.3708 0.8690
O23 O 0.0594(3) 0.3811(4) 0.94120(16)
H73 H 0.0376 0.3193 0.9351
H74 H 0.0217 0.4258 0.9225
loop_
_geom_bond_atom_site_label_1
_geom_bond_atom_site_label_2
_geom_bond_site_symmetry_1
_geom_bond_site_symmetry_2
C1 H1 1_555 1_555
H2 C1 1_555 1_555
H3 C1 1_555 1_555
C2 C3 1_555 1_555
C3 H4 1_555 1_555
C4 C3 1_555 1_555
C5 C4 1_555 1_555
H5 C5 1_555 1_555
H6 C5 1_555 1_555
C6 N1 1_555 1_555
C7 H7 1_555 1_555
H8 C7 1_555 1_555
C8 C7 1_555 1_555
C9 C8 1_555 1_555
H9 C9 1_555 1_555
C10 C9 1_555 1_555
C11 H10 1_555 1_555
H11 C11 1_555 1_555
H12 C11 1_555 1_555
C12 H13 1_555 1_555
H14 C12 1_555 1_555
H15 C12 1_555 1_555
C13 C10 1_555 1_555
C14 C13 1_555 1_555
H16 C14 1_555 1_555
C15 C8 1_555 1_555
C16 C15 1_555 1_555
H17 C16 1_555 1_555
H18 C16 1_555 1_555
C17 N3 1_555 1_555
C18 H19 1_555 1_555
H20 C18 1_555 1_555
C19 C4 1_555 1_555
C20 C19 1_555 1_555
H21 C20 1_555 1_555
C21 C2 1_555 1_555
C22 H22 1_555 1_555
H23 C22 1_555 1_555
H24 C22 1_555 1_555
C23 C24 1_555 1_555
C24 C28 1_555 1_555
C25 C23 1_555 1_555
C26 H25 1_555 1_555
H26 C26 1_555 1_555
C27 C26 1_555 1_555
H27 C27 1_555 1_555
H28 C27 1_555 1_555
H29 C27 1_555 1_555
C28 O9 1_555 1_555
C29 H30 1_555 1_555
H31 C29 1_555 1_555
C30 C29 1_555 1_555
H32 C30 1_555 1_555
H33 C30 1_555 1_555
H34 C30 1_555 1_555
C31 H35 1_555 1_555
H36 C31 1_555 1_555
H37 C31 1_555 1_555
C32 C33 1_555 1_555
C33 H38 1_555 1_555
C34 C33 1_555 1_555
C35 C34 1_555 1_555
H39 C35 1_555 1_555
H40 C35 1_555 1_555
C36 N5 1_555 1_555
C37 H41 1_555 1_555
H42 C37 1_555 1_555
C38 C37 1_555 1_555
C39 C38 1_555 1_555
H43 C39 1_555 1_555
C40 C39 1_555 1_555
C41 H44 1_555 1_555
H45 C41 1_555 1_555
H46 C41 1_555 1_555
C42 H47 1_555 1_555
H48 C42 1_555 1_555
H49 C42 1_555 1_555
C43 C40 1_555 1_555
C44 C43 1_555 1_555
H50 C44 1_555 1_555
C45 C38 1_555 1_555
C46 C45 1_555 1_555
H51 C46 1_555 1_555
H52 C46 1_555 1_555
C47 N7 1_555 1_555
C48 H53 1_555 1_555
H54 C48 1_555 1_555
C49 C34 1_555 1_555
C50 C49 1_555 1_555
H55 C50 1_555 1_555
C51 C32 1_555 1_555
C52 H56 1_555 1_555
H57 C52 1_555 1_555
H58 C52 1_555 1_555
C53 C54 1_555 1_555
C54 C58 1_555 1_555
C55 C53 1_555 1_555
C56 H59 1_555 1_555
H60 C56 1_555 1_555
C57 C56 1_555 1_555
H61 C57 1_555 1_555
H62 C57 1_555 1_555
H63 C57 1_555 1_555
C58 O19 1_555 1_555
C59 H64 1_555 1_555
H65 C59 1_555 1_555
C60 C59 1_555 1_555
H66 C60 1_555 1_555
H67 C60 1_555 1_555
H68 C60 1_555 1_555
N1 C5 1_555 1_555
N2 C6 1_555 1_555
N3 C16 1_555 1_555
N4 C17 1_555 1_555
N5 C35 1_555 1_555
N6 C36 1_555 1_555
N7 C46 1_555 1_555
N8 C47 1_555 1_555
O1 C6 1_555 1_555
O2 C17 1_555 1_555
O3 C1 1_555 1_555
O4 C21 1_555 1_555
O5 C10 1_555 1_555
O6 C12 1_555 1_555
O7 C25 1_555 1_555
O8 C25 1_555 1_555
O10 C28 1_555 1_555
O11 C36 1_555 1_555
O12 C47 1_555 1_555
O13 C31 1_555 1_555
O14 C51 1_555 1_555
O15 C40 1_555 1_555
O16 C42 1_555 1_555
O17 C55 1_555 1_555
O18 C55 1_555 1_555
O20 C58 1_555 1_555
O21 H69 1_555 1_555
H70 O21 1_555 1_555
O22 H71 1_555 1_555
H72 O22 1_555 1_555
O23 H73 1_555 1_555
H74 O23 1_555 1_555
C2 O3 1_555 1_555
C7 N2 1_555 1_555
C11 O5 1_555 1_555
C13 O6 1_555 1_555
C14 C15 1_555 1_555
C18 C19 1_555 1_555
C18 N4 1_555 1_555
C20 C21 1_555 1_555
C22 O4 1_555 1_555
C23 N1 1_555 1_555
C23 N4 1_555 1_555
C24 N2 1_555 1_555
C24 N3 1_555 1_555
C26 O8 1_555 1_555
C29 O10 1_555 1_555
C32 O13 1_555 1_555
C37 N6 1_555 1_555
C41 O15 1_555 1_555
C43 O16 1_555 1_555
C44 C45 1_555 1_555
C48 C49 1_555 1_555
C48 N8 1_555 1_555
C50 C51 1_555 1_555
C52 O14 1_555 1_555
C53 N5 1_555 1_555
C53 N8 1_555 1_555
C54 N6 1_555 1_555
C54 N7 1_555 1_555
C56 O18 1_555 1_555
C59 O20 1_555 1_555

#END
