
#######################################################################
#
#                 Cambridge Crystallographic Data Centre
#                                CCDC 
#
#######################################################################
#
# If this CIF has been generated from an entry in the Cambridge 
# Structural Database, then it will include bibliographic, chemical, 
# crystal, experimental, refinement or atomic coordinate data resulting 
# from the CCDC's data processing and validation procedures.
#
#######################################################################

data_KEKRUO
_chemical_formula_moiety         'C28 H28 N6 O12'
_chemical_name_systematic        
'Diethyl 1,11-dimethoxy-4,8-dinitro-6,13-dioxo-5,7,12,13b,13c,14-hexahydro-5a,6a,12a,13a-tetra-azabenzo(5,6)azuleno(2,1,8-ija)benzo(f)azulene-13b,13c-dicarboxylate'
_symmetry_cell_setting           triclinic
_symmetry_space_group_name_H-M   'P -1'
_symmetry_Int_Tables_number      2
_space_group_name_Hall           '-P 1'
loop_
_symmetry_equiv_pos_site_id
_symmetry_equiv_pos_as_xyz
1 x,y,z
2 -x,-y,-z
_cell_length_a                   9.9585(8)
_cell_length_b                   10.4964(9)
_cell_length_c                   14.6205(12)
_cell_angle_alpha                71.555(2)
_cell_angle_beta                 86.280(2)
_cell_angle_gamma                78.775(2)
_cell_volume                     1422.01
_exptl_crystal_colour            colorless
_exptl_crystal_description       block
_cell_formula_units_Z            2
loop_
_atom_site_label
_atom_site_type_symbol
_atom_site_fract_x
_atom_site_fract_y
_atom_site_fract_z
C1 C -0.3739(4) 0.4940(5) 0.1558(4)
H1 H -0.3896 0.5173 0.2146
H2 H -0.4180 0.4189 0.1597
H3 H -0.4107 0.5714 0.1026
C2 C -0.1486(4) 0.5483(4) 0.1312(3)
C3 C -0.1985(4) 0.6845(4) 0.1241(3)
H4 H -0.2919 0.7149 0.1297
C4 C -0.1094(4) 0.7732(4) 0.1089(3)
H5 H -0.1424 0.8639 0.1049
C5 C 0.0285(4) 0.7295(4) 0.0994(3)
C6 C 0.0852(4) 0.5925(3) 0.1089(2)
C7 C -0.0070(4) 0.5013(3) 0.1250(2)
C8 C 0.0428(4) 0.3520(3) 0.1338(3)
H6 H -0.0359 0.3078 0.1410
H7 H 0.0892 0.3461 0.0745
C9 C 0.2364(4) 0.5406(4) 0.1029(3)
H8 H 0.2535 0.5057 0.0484
H9 H 0.2840 0.6166 0.0908
C10 C 0.0899(4) 0.2145(3) 0.3048(3)
C11 C 0.3119(3) 0.4632(4) 0.2722(3)
C12 C 0.2758(3) 0.2937(3) 0.2109(2)
C13 C 0.3552(3) 0.2243(4) 0.1415(2)
C14 C 0.4154(5) 0.0103(4) 0.1122(3)
H10 H 0.5029 0.0350 0.0882
H11 H 0.3574 0.0258 0.0576
C15 C 0.4349(5) -0.1333(4) 0.1713(4)
H12 H 0.4940 -0.1480 0.2244
H13 H 0.4757 -0.1899 0.1328
H14 H 0.3479 -0.1564 0.1954
C16 C 0.3181(3) 0.2268(3) 0.3189(2)
C17 C 0.4540(4) 0.1235(4) 0.3378(3)
C18 C 0.6938(5) 0.1133(7) 0.3011(4)
H15 H 0.7472 0.1673 0.3216
H16 H 0.6986 0.0260 0.3512
C19 C 0.7494(19) 0.092(2) 0.2118(11)
H19 H 0.8462 0.0577 0.2187
H20 H 0.7332 0.1769 0.1604
H21 H 0.7058 0.0268 0.1971
C21 C 0.3651(4) 0.3337(5) 0.4454(3)
H25 H 0.4055 0.4111 0.4444
H26 H 0.4324 0.2513 0.4716
C22 C 0.1870(4) 0.1274(4) 0.4700(3)
H27 H 0.2721 0.0703 0.4984
H28 H 0.1168 0.0714 0.4877
C23 C 0.1501(4) 0.2407(4) 0.5147(2)
C24 C 0.2397(4) 0.3292(4) 0.5108(3)
C25 C 0.2085(5) 0.4184(5) 0.5675(3)
C26 C 0.0907(6) 0.4262(5) 0.6199(3)
H29 H 0.0717 0.4882 0.6546
C27 C 0.0000(6) 0.3424(5) 0.6214(3)
H30 H -0.0811 0.3486 0.6563
C28 C 0.0295(5) 0.2480(4) 0.5705(3)
C29 C -0.1700(6) 0.1568(6) 0.6310(5)
H31 H -0.1454 0.1171 0.6978
H32 H -0.2275 0.1041 0.6142
H33 H -0.2184 0.2489 0.6199
N1 N 0.1114(4) 0.8360(4) 0.0737(3)
N2 N 0.2938(3) 0.4328(3) 0.1898(2)
N3 N 0.1346(3) 0.2786(3) 0.2137(2)
N4 N 0.3329(3) 0.3449(3) 0.3473(2)
N5 N 0.2028(3) 0.1681(3) 0.3645(2)
N6 N 0.2998(6) 0.5024(7) 0.5752(4)
O1 O -0.2294(3) 0.4559(3) 0.1419(2)
O2 O 0.0793(4) 0.9301(3) 0.1069(3)
O3 O 0.2062(4) 0.8308(3) 0.0162(3)
O4 O 0.3110(3) 0.5779(3) 0.2761(2)
O5 O -0.0257(3) 0.1986(3) 0.3277(2)
O6 O 0.4093(3) 0.2816(3) 0.06892(19)
O7 O 0.3514(3) 0.0925(2) 0.17267(19)
O8 O 0.4686(3) 0.0108(3) 0.3928(2)
O9 O 0.5509(3) 0.1843(3) 0.2864(2)
O10 O -0.0498(3) 0.1575(3) 0.5735(2)
O11 O 0.2736(6) 0.5990(6) 0.5954(5)
O12 O 0.4227(7) 0.4363(6) 0.5925(4)
H17? H 0.7522 0.1810 0.2875
H18? H 0.7050 0.0605 0.3687
C20? C 0.742(3) 0.025(3) 0.246(2)
H22? H 0.7440 0.0772 0.1787
H23? H 0.6818 -0.0396 0.2542
H24? H 0.8324 -0.0238 0.2661
loop_
_geom_bond_atom_site_label_1
_geom_bond_atom_site_label_2
_geom_bond_site_symmetry_1
_geom_bond_site_symmetry_2
C1 H1 1_555 1_555
H2 C1 1_555 1_555
H3 C1 1_555 1_555
C2 C3 1_555 1_555
C3 H4 1_555 1_555
C4 C3 1_555 1_555
H5 C4 1_555 1_555
C5 C4 1_555 1_555
C6 C5 1_555 1_555
C7 C2 1_555 1_555
C8 C7 1_555 1_555
H6 C8 1_555 1_555
H7 C8 1_555 1_555
C9 C6 1_555 1_555
H8 C9 1_555 1_555
H9 C9 1_555 1_555
C10 N3 1_555 1_555
C11 N2 1_555 1_555
C12 C13 1_555 1_555
C13 O6 1_555 1_555
C14 H10 1_555 1_555
H11 C14 1_555 1_555
C15 C14 1_555 1_555
H12 C15 1_555 1_555
H13 C15 1_555 1_555
H14 C15 1_555 1_555
C16 C12 1_555 1_555
C17 C16 1_555 1_555
C18 H15 1_555 1_555
H16 C18 1_555 1_555
C19 C18 1_555 1_555
H19 C19 1_555 1_555
H20 C19 1_555 1_555
H21 C19 1_555 1_555
C21 H25 1_555 1_555
H26 C21 1_555 1_555
C22 H27 1_555 1_555
H28 C22 1_555 1_555
C23 C22 1_555 1_555
C24 C21 1_555 1_555
C25 C24 1_555 1_555
C26 C25 1_555 1_555
H29 C26 1_555 1_555
C27 C26 1_555 1_555
H30 C27 1_555 1_555
C28 C23 1_555 1_555
C29 H31 1_555 1_555
H32 C29 1_555 1_555
H33 C29 1_555 1_555
N1 C5 1_555 1_555
N2 C9 1_555 1_555
N3 C8 1_555 1_555
N4 C11 1_555 1_555
N5 C10 1_555 1_555
N6 C25 1_555 1_555
O1 C1 1_555 1_555
O2 N1 1_555 1_555
O3 N1 1_555 1_555
O4 C11 1_555 1_555
O5 C10 1_555 1_555
O7 C13 1_555 1_555
O8 C17 1_555 1_555
O9 C17 1_555 1_555
O10 C28 1_555 1_555
O11 N6 1_555 1_555
O12 N6 1_555 1_555
C2 O1 1_555 1_555
C6 C7 1_555 1_555
C12 N2 1_555 1_555
C12 N3 1_555 1_555
C14 O7 1_555 1_555
C16 N4 1_555 1_555
C16 N5 1_555 1_555
C18 O9 1_555 1_555
C21 N4 1_555 1_555
C22 N5 1_555 1_555
C23 C24 1_555 1_555
C27 C28 1_555 1_555
C29 O10 1_555 1_555

#END
