
#######################################################################
#
#                 Cambridge Crystallographic Data Centre
#                                CCDC 
#
#######################################################################
#
# If this CIF has been generated from an entry in the Cambridge 
# Structural Database, then it will include bibliographic, chemical, 
# crystal, experimental, refinement or atomic coordinate data resulting 
# from the CCDC's data processing and validation procedures.
#
#######################################################################

data_KEKRAU
_chemical_formula_moiety         'C30 H34 N4 O6,C2 H3 N1'
_chemical_name_systematic        
'Diethyl 2,3,9,10-tetramethyl-6,13-dioxo-5,7,12,13b,13c,14-hexahydro-5a,6a,12a,13a-tetra-azabenzo(5,6)azuleno(2,1,8-ija)benzo(f)azulene-13b,13c-dicarboxylate acetonitrile solvate'
_symmetry_cell_setting           tetragonal
_symmetry_space_group_name_H-M   'I 41/a'
_symmetry_Int_Tables_number      88
_space_group_name_Hall           '-I 4ad'
loop_
_symmetry_equiv_pos_site_id
_symmetry_equiv_pos_as_xyz
1 x,y,z
2 3/4-y,1/4+x,1/4+z
3 1/2+x,1/2+y,1/2+z
4 1/4-y,3/4+x,3/4+z
5 1/4+y,1/4-x,1/4+z
6 1/2-x,-y,1/2+z
7 3/4+y,3/4-x,3/4+z
8 -x,1/2-y,z
9 -x,-y,-z
10 1/4+y,3/4-x,3/4-z
11 1/2-x,1/2-y,1/2-z
12 3/4+y,1/4-x,1/4-z
13 3/4-y,3/4+x,3/4-z
14 1/2+x,y,1/2-z
15 1/4-y,1/4+x,1/4-z
16 x,1/2+y,-z
_cell_length_a                   29.7596(18)
_cell_length_b                   29.7596(18)
_cell_length_c                   14.0373(16)
_cell_angle_alpha                90
_cell_angle_beta                 90
_cell_angle_gamma                90
_cell_volume                     12431.9
_exptl_crystal_colour            colorless
_cell_formula_units_Z            16
loop_
_atom_site_label
_atom_site_type_symbol
_atom_site_fract_x
_atom_site_fract_y
_atom_site_fract_z
C1 C 0.31524(9) 0.52697(8) 0.52542(17)
H1 H 0.2844 0.5311 0.5438
H2 H 0.3166 0.5094 0.4681
H3 H 0.3289 0.5557 0.5144
C2 C 0.41409(9) 0.50955(9) 0.51505(15)
H4 H 0.4447 0.5003 0.5238
H5 H 0.4129 0.5416 0.5080
H6 H 0.4021 0.4956 0.4589
C3 C 0.34033(7) 0.50267(6) 0.60463(13)
C4 C 0.31666(6) 0.48687(5) 0.68286(12)
H7 H 0.2857 0.4909 0.6843
C5 C 0.33705(5) 0.46541(5) 0.75874(11)
C6 C 0.38357(5) 0.45963(5) 0.75710(11)
C7 C 0.40723(6) 0.47469(5) 0.67798(12)
H8 H 0.4382 0.4706 0.6763
C8 C 0.38640(8) 0.49561(6) 0.60119(13)
C9 C 0.30899(5) 0.44874(5) 0.84131(10)
H9 H 0.3181 0.4646 0.8985
H10 H 0.2778 0.4561 0.8292
C10 C 0.40816(5) 0.43771(5) 0.83921(11)
H11 H 0.4401 0.4373 0.8250
H12 H 0.4039 0.4558 0.8959
C11 C 0.29357(4) 0.37029(5) 0.79612(9)
C12 C 0.41366(5) 0.35518(5) 0.82150(9)
C13 C 0.35121(4) 0.38184(4) 0.90583(9)
C14 C 0.35044(5) 0.39401(5) 1.01262(10)
C15 C 0.39557(6) 0.40355(5) 1.15052(10)
H13 H 0.4233 0.3895 1.1711
H14 H 0.3708 0.3879 1.1809
C16 C 0.39540(7) 0.45145(6) 1.18079(12)
H15 H 0.4194 0.4672 1.1495
H16 H 0.3995 0.4532 1.2485
H17 H 0.3672 0.4650 1.1639
C17 C 0.34619(4) 0.32972(4) 0.88644(9)
C18 C 0.33382(5) 0.30070(5) 0.97386(10)
C19 C 0.36064(6) 0.27213(6) 1.11972(11)
H18 H 0.3497 0.2425 1.1023
H19 H 0.3387 0.2862 1.1614
C20 C 0.40476(8) 0.26845(8) 1.16874(15)
H20 H 0.4271 0.2586 1.1241
H21 H 0.4025 0.2471 1.2198
H22 H 0.4131 0.2973 1.1940
C21 C 0.29839(5) 0.28824(5) 0.76434(10)
H23 H 0.2685 0.2922 0.7379
H24 H 0.2972 0.2631 0.8084
C22 C 0.39627(5) 0.27488(5) 0.80020(10)
H25 H 0.3829 0.2513 0.8385
H26 H 0.4283 0.2689 0.7963
C23 C 0.33051(5) 0.27680(4) 0.68443(10)
C24 C 0.31442(6) 0.27087(5) 0.59270(11)
H27 H 0.2837 0.2731 0.5820
C25 C 0.34247(6) 0.26166(5) 0.51601(11)
C26 C 0.38873(6) 0.25950(5) 0.53160(11)
C27 C 0.40472(5) 0.26459(5) 0.62403(11)
H28 H 0.4355 0.2627 0.6346
C28 C 0.37673(5) 0.27238(4) 0.70101(10)
C29 C 0.32266(8) 0.25428(7) 0.41828(13)
H29 H 0.3321 0.2780 0.3765
H30 H 0.2905 0.2542 0.4226
H31 H 0.3328 0.2259 0.3936
C30 C 0.42120(7) 0.25150(7) 0.45090(13)
H32 H 0.4149 0.2229 0.4220
H33 H 0.4514 0.2516 0.4751
H34 H 0.4179 0.2749 0.4043
N1 N 0.31254(4) 0.40067(4) 0.85840(8)
N2 N 0.39336(4) 0.39197(4) 0.85906(8)
N3 N 0.31052(4) 0.32860(4) 0.81685(8)
N4 N 0.38976(4) 0.31765(4) 0.84901(8)
O1 O 0.26575(3) 0.37890(3) 0.73567(7)
O2 O 0.44792(3) 0.35487(3) 0.77445(7)
O3 O 0.31627(4) 0.39568(5) 1.05634(7)
O4 O 0.39141(3) 0.39938(3) 1.04666(7)
O5 O 0.29867(4) 0.28169(4) 0.98227(8)
O6 O 0.36740(4) 0.29938(3) 1.03493(7)
C31 C 0.34656(9) 0.38188(7) 0.54756(17)
H35 H 0.3191 0.3650 0.5470
H36 H 0.3400 0.4131 0.5578
H37 H 0.3656 0.3711 0.5979
C32 C 0.36890(9) 0.37665(9) 0.4587(2)
N5 N 0.38576(11) 0.37210(11) 0.3877(2)
loop_
_geom_bond_atom_site_label_1
_geom_bond_atom_site_label_2
_geom_bond_site_symmetry_1
_geom_bond_site_symmetry_2
C1 H1 1_555 1_555
H2 C1 1_555 1_555
H3 C1 1_555 1_555
C2 H4 1_555 1_555
H5 C2 1_555 1_555
H6 C2 1_555 1_555
C3 C1 1_555 1_555
C4 C3 1_555 1_555
H7 C4 1_555 1_555
C5 C4 1_555 1_555
C6 C5 1_555 1_555
C7 C6 1_555 1_555
H8 C7 1_555 1_555
C8 C2 1_555 1_555
C9 C5 1_555 1_555
H9 C9 1_555 1_555
H10 C9 1_555 1_555
C10 C6 1_555 1_555
H11 C10 1_555 1_555
H12 C10 1_555 1_555
C11 N1 1_555 1_555
C12 N2 1_555 1_555
C13 C14 1_555 1_555
C14 O3 1_555 1_555
C15 H13 1_555 1_555
H14 C15 1_555 1_555
C16 C15 1_555 1_555
H15 C16 1_555 1_555
H16 C16 1_555 1_555
H17 C16 1_555 1_555
C17 C13 1_555 1_555
C18 C17 1_555 1_555
C19 H18 1_555 1_555
H19 C19 1_555 1_555
C20 C19 1_555 1_555
H20 C20 1_555 1_555
H21 C20 1_555 1_555
H22 C20 1_555 1_555
C21 H23 1_555 1_555
H24 C21 1_555 1_555
C22 H25 1_555 1_555
H26 C22 1_555 1_555
C23 C21 1_555 1_555
C24 C23 1_555 1_555
H27 C24 1_555 1_555
C25 C24 1_555 1_555
C26 C25 1_555 1_555
C27 C26 1_555 1_555
H28 C27 1_555 1_555
C28 C22 1_555 1_555
C29 C25 1_555 1_555
H29 C29 1_555 1_555
H30 C29 1_555 1_555
H31 C29 1_555 1_555
C30 C26 1_555 1_555
H32 C30 1_555 1_555
H33 C30 1_555 1_555
H34 C30 1_555 1_555
C31 H35 1_555 1_555
H36 C31 1_555 1_555
H37 C31 1_555 1_555
C32 C31 1_555 1_555
N1 C9 1_555 1_555
N2 C10 1_555 1_555
N3 C11 1_555 1_555
N4 C12 1_555 1_555
N5 C32 1_555 1_555
O1 C11 1_555 1_555
O2 C12 1_555 1_555
O4 C14 1_555 1_555
O5 C18 1_555 1_555
O6 C18 1_555 1_555
C3 C8 1_555 1_555
C7 C8 1_555 1_555
C13 N1 1_555 1_555
C13 N2 1_555 1_555
C15 O4 1_555 1_555
C17 N3 1_555 1_555
C17 N4 1_555 1_555
C19 O6 1_555 1_555
C21 N3 1_555 1_555
C22 N4 1_555 1_555
C23 C28 1_555 1_555
C27 C28 1_555 1_555

#END
