
#######################################################################
#
#                 Cambridge Crystallographic Data Centre
#                                CCDC 
#
#######################################################################
#
# If this CIF has been generated from an entry in the Cambridge 
# Structural Database, then it will include bibliographic, chemical, 
# crystal, experimental, refinement or atomic coordinate data resulting 
# from the CCDC's data processing and validation procedures.
#
#######################################################################

data_KEKREY
_chemical_formula_moiety         'C30 H34 N4 O10,0.5(C2 H4 Cl2)'
_chemical_name_systematic        
'Diethyl 1,4,8,11-tetramethoxy-6,13-dioxo-5,7,12,13b,13c,14-hexahydro-5a,6a,12a,13a-tetra-azabenzo(5,6)azuleno(2,1,8-ija)benzo(f)azulene-13b,13c-dicarboxylate 1,2-dichloroethane solvate'
_symmetry_cell_setting           triclinic
_symmetry_space_group_name_H-M   'P -1'
_symmetry_Int_Tables_number      2
_space_group_name_Hall           '-P 1'
loop_
_symmetry_equiv_pos_site_id
_symmetry_equiv_pos_as_xyz
1 x,y,z
2 -x,-y,-z
_cell_length_a                   9.8669(13)
_cell_length_b                   10.4332(13)
_cell_length_c                   15.6359(19)
_cell_angle_alpha                98.861(2)
_cell_angle_beta                 93.896(2)
_cell_angle_gamma                102.489(2)
_cell_volume                     1544.19
_exptl_crystal_colour            colorless
_exptl_crystal_description       block
_cell_formula_units_Z            2
loop_
_atom_site_label
_atom_site_type_symbol
_atom_site_fract_x
_atom_site_fract_y
_atom_site_fract_z
C1 C -0.3024(4) -0.2417(4) 0.1019(3)
H1 H -0.3251 -0.1730 0.0732
H2 H -0.3661 -0.2603 0.1446
H3 H -0.3096 -0.3209 0.0599
C2 C 0.2642(4) -0.1190(5) -0.1417(2)
H4 H 0.2138 -0.2100 -0.1595
H5 H 0.3540 -0.1071 -0.1633
H6 H 0.2128 -0.0613 -0.1646
C3 C -0.0581(3) -0.1691(3) 0.0914(2)
C4 C -0.0793(4) -0.1932(3) 0.0015(2)
H7 H -0.1689 -0.2280 -0.0265
C5 C 0.0324(4) -0.1658(3) -0.0469(2)
H8 H 0.0175 -0.1824 -0.1073
C6 C 0.1653(3) -0.1141(3) -0.0060(2)
C7 C 0.1887(3) -0.0875(3) 0.08492(19)
C8 C 0.0767(3) -0.1164(3) 0.1342(2)
C9 C 0.0986(3) -0.1003(3) 0.2327(2)
H9 H 0.0086 -0.1275 0.2540
H10 H 0.1552 -0.1606 0.2477
C10 C 0.3369(3) -0.0341(3) 0.12800(19)
H11 H 0.3643 -0.1024 0.1563
H12 H 0.3985 -0.0171 0.0832
C11 C 0.3927(3) 0.2110(3) 0.17082(19)
C12 C 0.0924(3) 0.1309(3) 0.29617(18)
C13 C 0.3123(3) 0.0876(3) 0.27739(18)
C14 C 0.3962(3) 0.0205(3) 0.3365(2)
C15 C 0.5980(4) -0.0672(5) 0.3533(3)
H13 H 0.5974 -0.0363 0.4150
H14 H 0.6931 -0.0420 0.3389
C16 C 0.5490(6) -0.2127(5) 0.3338(3)
H15 H 0.4602 -0.2382 0.3555
H16 H 0.6152 -0.2529 0.3612
H17 H 0.5396 -0.2421 0.2720
C17 C 0.3276(3) 0.2411(3) 0.31225(18)
C18 C 0.4184(3) 0.2937(3) 0.4004(2)
C19 C 0.6461(4) 0.3274(6) 0.4706(3)
H18 H 0.6446 0.4163 0.4995
H19 H 0.6150 0.2659 0.5097
C20 C 0.7805(5) 0.3237(8) 0.4546(4)
H20 H 0.7789 0.2580 0.4040
H21 H 0.8278 0.3010 0.5038
H22 H 0.8288 0.4096 0.4447
C21 C 0.3947(3) 0.4415(3) 0.2389(2)
H23 H 0.4619 0.4701 0.1992
H24 H 0.4284 0.4945 0.2959
C22 C 0.1439(3) 0.3776(3) 0.3345(2)
H25 H 0.2085 0.4384 0.3801
H26 H 0.0521 0.3630 0.3550
C23 C 0.1393(3) 0.4431(3) 0.25487(19)
C24 C 0.2566(3) 0.4713(3) 0.2092(2)
C25 C 0.2482(3) 0.5320(3) 0.1350(2)
C26 C 0.1255(3) 0.5647(3) 0.1094(2)
H27 H 0.1203 0.6050 0.0606
C27 C 0.0108(3) 0.5390(3) 0.1544(2)
H28 H -0.0709 0.5622 0.1361
C28 C 0.0167(3) 0.4783(3) 0.2274(2)
C29 C -0.2180(4) 0.4911(6) 0.2516(3)
H29 H -0.1971 0.5857 0.2531
H30 H -0.2854 0.4683 0.2915
H31 H -0.2553 0.4461 0.1938
C30 C 0.3598(4) 0.6094(4) 0.0160(2)
H32 H 0.2831 0.5549 -0.0237
H33 H 0.4452 0.6109 -0.0102
H34 H 0.3464 0.6985 0.0290
N1 N 0.3573(2) 0.0871(2) 0.19181(15)
N2 N 0.1650(2) 0.0336(2) 0.27808(16)
N3 N 0.3904(2) 0.3031(2) 0.24369(15)
N4 N 0.1860(2) 0.2505(2) 0.32031(16)
O1 O -0.1634(2) -0.1983(2) 0.14379(16)
O2 O 0.2817(2) -0.0872(2) -0.04947(14)
O3 O 0.4253(2) 0.2380(2) 0.10109(14)
O4 O -0.0345(2) 0.1136(2) 0.29409(15)
O5 O 0.3621(3) 0.0002(3) 0.40567(17)
O6 O 0.5084(2) -0.0047(2) 0.30347(14)
O7 O 0.3735(3) 0.3289(4) 0.46643(17)
O8 O 0.5499(2) 0.2926(3) 0.39159(15)
O9 O -0.0931(2) 0.4510(3) 0.27617(17)
O10 O 0.3667(2) 0.5564(2) 0.09325(16)
Cl1 Cl 0.0624(3) 0.2026(3) 0.56897(16)
C31 C 0.0651(19) 0.0429(12) 0.5206(10)
Cl1A Cl -0.0624(3) -0.2026(3) 0.43103(16)
C31A C -0.0651(19) -0.0429(12) 0.4794(10)
Cl2? Cl -0.037(5) 0.052(4) 0.506(2)
C32? C 0.123(8) 0.03(2) 0.478(7)
loop_
_geom_bond_atom_site_label_1
_geom_bond_atom_site_label_2
_geom_bond_site_symmetry_1
_geom_bond_site_symmetry_2
C1 H1 1_555 1_555
H2 C1 1_555 1_555
H3 C1 1_555 1_555
C2 H4 1_555 1_555
H5 C2 1_555 1_555
H6 C2 1_555 1_555
C3 C4 1_555 1_555
C4 H7 1_555 1_555
C5 C4 1_555 1_555
H8 C5 1_555 1_555
C6 C5 1_555 1_555
C7 C6 1_555 1_555
C8 C3 1_555 1_555
C9 C8 1_555 1_555
H9 C9 1_555 1_555
H10 C9 1_555 1_555
C10 C7 1_555 1_555
H11 C10 1_555 1_555
H12 C10 1_555 1_555
C11 N1 1_555 1_555
C12 N2 1_555 1_555
C13 C14 1_555 1_555
C14 O5 1_555 1_555
C15 H13 1_555 1_555
H14 C15 1_555 1_555
C16 C15 1_555 1_555
H15 C16 1_555 1_555
H16 C16 1_555 1_555
H17 C16 1_555 1_555
C17 C13 1_555 1_555
C18 C17 1_555 1_555
C19 H18 1_555 1_555
H19 C19 1_555 1_555
C20 C19 1_555 1_555
H20 C20 1_555 1_555
H21 C20 1_555 1_555
H22 C20 1_555 1_555
C21 H23 1_555 1_555
H24 C21 1_555 1_555
C22 H25 1_555 1_555
H26 C22 1_555 1_555
C23 C22 1_555 1_555
C24 C21 1_555 1_555
C25 C24 1_555 1_555
C26 C25 1_555 1_555
H27 C26 1_555 1_555
C27 C26 1_555 1_555
H28 C27 1_555 1_555
C28 C23 1_555 1_555
C29 H29 1_555 1_555
H30 C29 1_555 1_555
H31 C29 1_555 1_555
C30 H32 1_555 1_555
H33 C30 1_555 1_555
H34 C30 1_555 1_555
N1 C10 1_555 1_555
N2 C9 1_555 1_555
N3 C11 1_555 1_555
N4 C12 1_555 1_555
O1 C1 1_555 1_555
O2 C2 1_555 1_555
O3 C11 1_555 1_555
O4 C12 1_555 1_555
O6 C14 1_555 1_555
O7 C18 1_555 1_555
O8 C18 1_555 1_555
O9 C28 1_555 1_555
O10 C25 1_555 1_555
Cl1 C31 1_555 1_555
C31 C31A 1_555 1_555
Cl1A C31A 1_555 1_555
C3 O1 1_555 1_555
C6 O2 1_555 1_555
C7 C8 1_555 1_555
C13 N1 1_555 1_555
C13 N2 1_555 1_555
C15 O6 1_555 1_555
C17 N3 1_555 1_555
C17 N4 1_555 1_555
C19 O8 1_555 1_555
C21 N3 1_555 1_555
C22 N4 1_555 1_555
C23 C24 1_555 1_555
C27 C28 1_555 1_555
C29 O9 1_555 1_555
C30 O10 1_555 1_555

#END
