
#######################################################################
#
#                 Cambridge Crystallographic Data Centre
#                                CCDC 
#
#######################################################################
#
# If this CIF has been generated from an entry in the Cambridge 
# Structural Database, then it will include bibliographic, chemical, 
# crystal, experimental, refinement or atomic coordinate data resulting 
# from the CCDC's data processing and validation procedures.
#
#######################################################################

data_KEKTEB
_chemical_formula_moiety         'C15 H17 I1 N1 O1 1+,I3 1-'
_chemical_name_systematic        
'2-(1-Iodo-1-methylethyl)-5-methyl-1,2-dihydro(1,3)oxazolo(3,2-a)quinolinium tri-iodide'
_symmetry_cell_setting           orthorhombic
_symmetry_space_group_name_H-M   'P b c a'
_symmetry_Int_Tables_number      61
_space_group_name_Hall           '-P 2ac 2ab'
loop_
_symmetry_equiv_pos_site_id
_symmetry_equiv_pos_as_xyz
1 x,y,z
2 1/2-x,-y,1/2+z
3 -x,1/2+y,1/2-z
4 1/2+x,1/2-y,-z
5 -x,-y,-z
6 1/2+x,y,1/2-z
7 x,1/2-y,1/2+z
8 1/2-x,1/2+y,z
_cell_length_a                   9.0128(3)
_cell_length_b                   17.2960(7)
_cell_length_c                   26.0562(9)
_cell_angle_alpha                90
_cell_angle_beta                 90
_cell_angle_gamma                90
_cell_volume                     4061.78
_exptl_crystal_colour            brown
_exptl_crystal_description       plate
_chemical_melting_point          '107 deg.C(dec)'
_cell_formula_units_Z            8
loop_
_atom_site_label
_atom_site_type_symbol
_atom_site_fract_x
_atom_site_fract_y
_atom_site_fract_z
I1 I 0.32834(4) 0.09490(2) 0.656694(14)
I2 I 0.16024(5) -0.00347(3) 0.724223(17)
I3 I 0.49998(5) 0.20799(3) 0.595141(17)
I4 I 0.27784(5) 0.07387(3) 0.490896(19)
N1 N 0.1034(4) -0.1475(3) 0.37271(15)
O1 O 0.1498(4) -0.0946(2) 0.44759(14)
C1 C 0.2312(7) -0.0444(4) 0.4090(2)
H1 H 0.3384 -0.0497 0.4142
C2 C 0.0430(6) -0.2025(3) 0.3395(2)
C3 C -0.0594(6) -0.2656(4) 0.4168(2)
C4 C 0.0860(6) -0.1515(4) 0.4225(2)
C5 C 0.0070(6) -0.2118(4) 0.4459(2)
H2 H 0.0006 -0.2146 0.4815
C6 C -0.0422(6) -0.2618(3) 0.3613(2)
C7 C 0.0657(7) -0.1975(4) 0.2872(2)
H3 H 0.1228 -0.1576 0.2736
C8 C 0.1889(6) -0.0786(3) 0.35720(19)
H4 H 0.1285 -0.0430 0.3374
H5 H 0.2760 -0.0926 0.3374
C9 C 0.1881(7) 0.0362(4) 0.4165(2)
C10 C 0.0192(6) 0.0507(4) 0.4175(2)
H6 H -0.0232 0.0352 0.3853
H7 H 0.0006 0.1047 0.4231
H8 H -0.0247 0.0211 0.4447
C11 C -0.1460(6) -0.3288(4) 0.4414(2)
H9 H -0.1457 -0.3218 0.4780
H10 H -0.1018 -0.3778 0.4331
H11 H -0.2463 -0.3277 0.4290
C12 C -0.1034(7) -0.3160(4) 0.3277(2)
H12 H -0.1588 -0.3571 0.3405
C13 C -0.0817(9) -0.3087(4) 0.2756(3)
H13 H -0.1266 -0.3438 0.2535
C14 C 0.0039(8) -0.2512(5) 0.2557(3)
H14 H 0.0202 -0.2487 0.2205
C15 C 0.2621(12) 0.0891(8) 0.3769(4)
H15 H 0.2277 0.0758 0.3432
H16 H 0.3678 0.0826 0.3785
H17 H 0.2373 0.1419 0.3842
C16? C 0.240(7) 0.018(5) 0.4693(12)
H18? H 0.2189 -0.0336 0.4798
H19? H 0.3444 0.0283 0.4732
H20? H 0.1850 0.0539 0.4903
I5? I 0.3194(10) 0.0876(5) 0.3600(3)
loop_
_geom_bond_atom_site_label_1
_geom_bond_atom_site_label_2
_geom_bond_site_symmetry_1
_geom_bond_site_symmetry_2
I1 I2 1_555 1_555
I3 I1 1_555 1_555
I4 C9 1_555 1_555
N1 C2 1_555 1_555
O1 C1 1_555 1_555
C1 H1 1_555 1_555
C2 C6 1_555 1_555
C3 C5 1_555 1_555
C4 N1 1_555 1_555
C5 C4 1_555 1_555
H2 C5 1_555 1_555
C6 C3 1_555 1_555
C7 C2 1_555 1_555
H3 C7 1_555 1_555
C8 N1 1_555 1_555
H4 C8 1_555 1_555
H5 C8 1_555 1_555
C9 C1 1_555 1_555
C10 C9 1_555 1_555
H6 C10 1_555 1_555
H7 C10 1_555 1_555
H8 C10 1_555 1_555
C11 C3 1_555 1_555
H9 C11 1_555 1_555
H10 C11 1_555 1_555
H11 C11 1_555 1_555
C12 C6 1_555 1_555
H12 C12 1_555 1_555
C13 C12 1_555 1_555
H13 C13 1_555 1_555
C14 C7 1_555 1_555
H14 C14 1_555 1_555
C15 C9 1_555 1_555
H15 C15 1_555 1_555
H16 C15 1_555 1_555
H17 C15 1_555 1_555
O1 C4 1_555 1_555
C1 C8 1_555 1_555
C13 C14 1_555 1_555

#END
