
#######################################################################
#
#                 Cambridge Crystallographic Data Centre
#                                CCDC 
#
#######################################################################
#
# If this CIF has been generated from an entry in the Cambridge 
# Structural Database, then it will include bibliographic, chemical, 
# crystal, experimental, refinement or atomic coordinate data resulting 
# from the CCDC's data processing and validation procedures.
#
#######################################################################

data_KEKXII
_chemical_formula_moiety         'C19 H23 N1 O2'
_chemical_name_systematic        
(1S,2R,5R,8R)-5-Benzyl-8,11,11-trimethyl-3-oxa-6-azatricyclo(6.2.1.0^2,7^)undec-6-en-4-one
_symmetry_cell_setting           orthorhombic
_symmetry_space_group_name_H-M   'P 21 21 21'
_symmetry_Int_Tables_number      19
_space_group_name_Hall           'P 2ac 2ab'
loop_
_symmetry_equiv_pos_site_id
_symmetry_equiv_pos_as_xyz
1 x,y,z
2 1/2-x,-y,1/2+z
3 -x,1/2+y,1/2-z
4 1/2+x,1/2-y,-z
_cell_length_a                   6.9263(6)
_cell_length_b                   12.6281(10)
_cell_length_c                   18.6474(15)
_cell_angle_alpha                90
_cell_angle_beta                 90
_cell_angle_gamma                90
_cell_volume                     1631.01
_chemical_melting_point          122-124deg.C
_cell_formula_units_Z            4
loop_
_atom_site_label
_atom_site_type_symbol
_atom_site_fract_x
_atom_site_fract_y
_atom_site_fract_z
O1 O 0.9217(2) -0.73136(10) -1.37498(6)
O2 O 0.95252(16) -0.80250(8) -1.48174(5)
N1 N 1.07657(18) -0.98867(9) -1.41118(6)
C1 C 0.9319(2) -0.92170(11) -1.58863(7)
H1 H 0.8683 -0.8644 -1.6150
C2 C 1.0439(2) -0.88684(10) -1.52228(8)
H2 H 1.1764 -0.8673 -1.5351
C3 C 0.9956(2) -0.79858(11) -1.41094(8)
C4 C 1.1333(2) -0.88277(11) -1.38329(7)
H3 H 1.2630 -0.8664 -1.4011
C5 C 1.04253(18) -0.98747(10) -1.47763(7)
C6 C 0.9615(2) -1.07484(11) -1.52442(7)
C7 C 1.1079(2) -1.08737(11) -1.58673(8)
H4 H 1.0792 -1.1499 -1.6150
H5 H 1.2388 -1.0927 -1.5686
C8 C 1.0817(2) -0.98515(13) -1.63201(8)
H6 H 1.2023 -0.9466 -1.6362
H7 H 1.0339 -1.0015 -1.6796
C9 C 0.7942(2) -1.01032(11) -1.56068(8)
C10 C 0.6394(2) -0.97341(14) -1.50771(9)
H8 H 0.5416 -0.9346 -1.5330
H9 H 0.6973 -0.9286 -1.4721
H10 H 0.5823 -1.0339 -1.4848
C11 C 0.6916(3) -1.06928(15) -1.62140(10)
H11 H 0.5916 -1.0252 -1.6409
H12 H 0.6358 -1.1334 -1.6030
H13 H 0.7831 -1.0862 -1.6583
C12 C 0.9122(3) -1.17647(12) -1.48580(9)
H14 H 1.0279 -1.2071 -1.4664
H15 H 0.8540 -1.2252 -1.5189
H16 H 0.8235 -1.1617 -1.4475
C13 C 1.1404(3) -0.88468(12) -1.30142(8)
H17 H 1.0096 -0.8793 -1.2832
H18 H 1.1915 -0.9526 -1.2862
C14 C 1.2603(2) -0.79816(13) -1.26781(8)
C15 C 1.4591(2) -0.79858(15) -1.27427(9)
H19 H 1.5191 -0.8513 -1.3010
C16 C 1.5695(3) -0.72152(19) -1.24147(11)
H20 H 1.7031 -0.7227 -1.2466
C17 C 1.4844(4) -0.64316(18) -1.20128(10)
H21 H 1.5596 -0.5925 -1.1782
C18 C 1.2882(4) -0.64067(16) -1.19572(10)
H22 H 1.2288 -0.5870 -1.1697
C19 C 1.1779(3) -0.71721(15) -1.22848(9)
H23 H 1.0443 -0.7144 -1.2240
loop_
_geom_bond_atom_site_label_1
_geom_bond_atom_site_label_2
_geom_bond_site_symmetry_1
_geom_bond_site_symmetry_2
O1 C3 1_555 1_555
O2 C2 1_555 1_555
N1 C4 1_555 1_555
C1 H1 1_555 1_555
C2 C1 1_555 1_555
H2 C2 1_555 1_555
C3 O2 1_555 1_555
C4 C3 1_555 1_555
H3 C4 1_555 1_555
C5 N1 1_555 1_555
C6 C5 1_555 1_555
C7 C6 1_555 1_555
H4 C7 1_555 1_555
H5 C7 1_555 1_555
C8 C1 1_555 1_555
H6 C8 1_555 1_555
H7 C8 1_555 1_555
C9 C1 1_555 1_555
C10 C9 1_555 1_555
H8 C10 1_555 1_555
H9 C10 1_555 1_555
H10 C10 1_555 1_555
C11 C9 1_555 1_555
H11 C11 1_555 1_555
H12 C11 1_555 1_555
H13 C11 1_555 1_555
C12 C6 1_555 1_555
H14 C12 1_555 1_555
H15 C12 1_555 1_555
H16 C12 1_555 1_555
C13 C4 1_555 1_555
H17 C13 1_555 1_555
H18 C13 1_555 1_555
C14 C13 1_555 1_555
C15 C14 1_555 1_555
H19 C15 1_555 1_555
C16 C15 1_555 1_555
H20 C16 1_555 1_555
C17 C16 1_555 1_555
H21 C17 1_555 1_555
C18 C17 1_555 1_555
H22 C18 1_555 1_555
C19 C14 1_555 1_555
H23 C19 1_555 1_555
C2 C5 1_555 1_555
C6 C9 1_555 1_555
C7 C8 1_555 1_555
C18 C19 1_555 1_555

#END
