
#######################################################################
#
#                 Cambridge Crystallographic Data Centre
#                                CCDC 
#
#######################################################################
#
# If this CIF has been generated from an entry in the Cambridge 
# Structural Database, then it will include bibliographic, chemical, 
# crystal, experimental, refinement or atomic coordinate data resulting 
# from the CCDC's data processing and validation procedures.
#
#######################################################################

data_KEKXUU
_chemical_formula_moiety         'C16 H23 N1 O2'
_chemical_name_systematic        
(1R,2S,5R,8S)-5-Allyl-1,5,11,11-tetramethyl-3-oxa-6-azatricyclo(6.2.1.0^2,7^)undec-6-en-4-one
_symmetry_cell_setting           orthorhombic
_symmetry_space_group_name_H-M   'P 21 21 21'
_symmetry_Int_Tables_number      19
_space_group_name_Hall           'P 2ac 2ab'
loop_
_symmetry_equiv_pos_site_id
_symmetry_equiv_pos_as_xyz
1 x,y,z
2 1/2-x,-y,1/2+z
3 -x,1/2+y,1/2-z
4 1/2+x,1/2-y,-z
_cell_length_a                   10.2983(8)
_cell_length_b                   10.9460(9)
_cell_length_c                   13.7850(12)
_cell_angle_alpha                90
_cell_angle_beta                 90
_cell_angle_gamma                90
_cell_volume                     1553.92
_chemical_melting_point          76-77deg.C
_cell_formula_units_Z            4
loop_
_atom_site_label
_atom_site_type_symbol
_atom_site_fract_x
_atom_site_fract_y
_atom_site_fract_z
O1 O 1.0840(3) -0.7929(2) -1.2980(2)
O2 O 0.91379(17) -0.90937(18) -1.31581(14)
N1 N 1.0639(2) -1.0626(2) -1.4357(2)
C1 C 0.7276(3) -1.0336(3) -1.3801(2)
C2 C 0.8677(2) -1.0296(3) -1.34056(18)
H1 H 0.8755 -1.0839 -1.2843
C3 C 1.0438(3) -0.8906(3) -1.3215(2)
C4 C 1.1289(3) -0.9936(3) -1.3589(2)
C5 C 0.9443(2) -1.0796(2) -1.42347(19)
C6 C 0.8470(3) -1.1320(3) -1.4930(2)
H2 H 0.8811 -1.1535 -1.5571
C7 C 0.7764(4) -1.2359(3) -1.4390(3)
H3 H 0.8377 -1.2885 -1.4056
H4 H 0.7249 -1.2848 -1.4833
C8 C 0.6890(3) -1.1668(3) -1.3661(2)
H5 H 0.5979 -1.1791 -1.3809
H6 H 0.7057 -1.1933 -1.3002
C9 C 0.7466(3) -1.0276(3) -1.4918(2)
C10 C 0.8005(4) -0.9076(4) -1.5297(3)
H7 H 0.8104 -0.9123 -1.5989
H8 H 0.8834 -0.8920 -1.5004
H9 H 0.7418 -0.8425 -1.5138
C11 C 0.6243(5) -1.0589(5) -1.5506(3)
H10 H 0.6434 -1.0536 -1.6186
H11 H 0.5564 -1.0022 -1.5347
H12 H 0.5966 -1.1403 -1.5351
C12 C 0.6367(3) -0.9426(4) -1.3332(3)
H13 H 0.6333 -0.9575 -1.2646
H14 H 0.5514 -0.9514 -1.3603
H15 H 0.6678 -0.8612 -1.3448
C13 C 1.2511(3) -0.9367(4) -1.4021(3)
H16 H 1.2271 -0.8776 -1.4503
H17 H 1.3031 -0.9994 -1.4314
H18 H 1.2999 -0.8973 -1.3517
C14 C 1.1648(4) -1.0888(4) -1.2791(3)
H19 H 1.0850 -1.1248 -1.2550
H20 H 1.2147 -1.1537 -1.3093
C15 C 1.2378(5) -1.0432(4) -1.1971(4)
H21 H 1.1981 -0.9870 -1.1562
C16 C 1.3572(5) -1.0772(6) -1.1777(4)
H22 H 1.3990 -1.1333 -1.2176
H23 H 1.4000 -1.0452 -1.1240
loop_
_geom_bond_atom_site_label_1
_geom_bond_atom_site_label_2
_geom_bond_site_symmetry_1
_geom_bond_site_symmetry_2
O1 C3 1_555 1_555
O2 C2 1_555 1_555
N1 C4 1_555 1_555
C1 C2 1_555 1_555
C2 H1 1_555 1_555
C3 O2 1_555 1_555
C4 C3 1_555 1_555
C5 N1 1_555 1_555
C6 C5 1_555 1_555
H2 C6 1_555 1_555
C7 C6 1_555 1_555
H3 C7 1_555 1_555
H4 C7 1_555 1_555
C8 C1 1_555 1_555
H5 C8 1_555 1_555
H6 C8 1_555 1_555
C9 C1 1_555 1_555
C10 C9 1_555 1_555
H7 C10 1_555 1_555
H8 C10 1_555 1_555
H9 C10 1_555 1_555
C11 C9 1_555 1_555
H10 C11 1_555 1_555
H11 C11 1_555 1_555
H12 C11 1_555 1_555
C12 C1 1_555 1_555
H13 C12 1_555 1_555
H14 C12 1_555 1_555
H15 C12 1_555 1_555
C13 C4 1_555 1_555
H16 C13 1_555 1_555
H17 C13 1_555 1_555
H18 C13 1_555 1_555
C14 C4 1_555 1_555
H19 C14 1_555 1_555
H20 C14 1_555 1_555
C15 C14 1_555 1_555
H21 C15 1_555 1_555
C16 C15 1_555 1_555
H22 C16 1_555 1_555
H23 C16 1_555 1_555
C2 C5 1_555 1_555
C6 C9 1_555 1_555
C7 C8 1_555 1_555

#END
