
#######################################################################
#
#                 Cambridge Crystallographic Data Centre
#                                CCDC 
#
#######################################################################
#
# If this CIF has been generated from an entry in the Cambridge 
# Structural Database, then it will include bibliographic, chemical, 
# crystal, experimental, refinement or atomic coordinate data resulting 
# from the CCDC's data processing and validation procedures.
#
#######################################################################

data_KEKYAB
_chemical_formula_moiety         'C20 H25 N1 O2'
_chemical_name_systematic        
(1R,2S,5S,8S)-5-Benzyl-1,5,11,11-tetramethyl-3-oxa-6-azatricyclo(6.2.1.0^2,7^)undec-6-en-4-one
_symmetry_cell_setting           orthorhombic
_symmetry_space_group_name_H-M   'P 21 21 21'
_symmetry_Int_Tables_number      19
_space_group_name_Hall           'P 2ac 2ab'
loop_
_symmetry_equiv_pos_site_id
_symmetry_equiv_pos_as_xyz
1 x,y,z
2 1/2-x,-y,1/2+z
3 -x,1/2+y,1/2-z
4 1/2+x,1/2-y,-z
_cell_length_a                   11.2797(11)
_cell_length_b                   11.9022(11)
_cell_length_c                   13.0227(12)
_cell_angle_alpha                90
_cell_angle_beta                 90
_cell_angle_gamma                90
_cell_volume                     1748.34
_chemical_melting_point          118-120deg.C
_cell_formula_units_Z            4
loop_
_atom_site_label
_atom_site_type_symbol
_atom_site_fract_x
_atom_site_fract_y
_atom_site_fract_z
O1 O 0.97088(11) -0.92707(12) -1.58426(10)
O2 O 1.08345(10) -0.95185(10) -1.44927(9)
N1 N 0.94816(11) -1.14165(10) -1.38885(10)
C1 C 1.19153(15) -0.98626(16) -1.28300(14)
C2 C 1.13432(14) -1.03417(15) -1.38117(13)
H1 H 1.1931 -1.0788 -1.4187
C3 C 0.99894(14) -0.98777(15) -1.51454(12)
C4 C 0.94428(13) -1.10428(13) -1.49711(12)
C5 C 1.03888(13) -1.11118(12) -1.33940(12)
C6 C 1.06434(15) -1.12239(13) -1.22738(13)
H2 H 1.0011 -1.1571 -1.1866
C7 C 1.18765(19) -1.17708(17) -1.21617(19)
H3 H 1.1949 -1.2424 -1.2602
H4 H 1.2023 -1.1993 -1.1457
C8 C 1.27418(19) -1.0828(2) -1.2500(2)
H5 H 1.3248 -1.0599 -1.1936
H6 H 1.3234 -1.1073 -1.3068
C9 C 1.09004(15) -0.99672(14) -1.20234(13)
C10 C 0.98347(17) -0.92033(15) -1.22134(16)
H7 H 1.0044 -0.8441 -1.2054
H8 H 0.9187 -0.9435 -1.1785
H9 H 0.9603 -0.9253 -1.2921
C11 C 1.1297(2) -0.97877(19) -1.09086(16)
H10 H 1.1449 -0.9004 -1.0795
H11 H 1.2007 -1.0210 -1.0782
H12 H 1.0683 -1.0037 -1.0452
C12 C 1.24911(19) -0.8718(2) -1.29688(19)
H13 H 1.1900 -0.8179 -1.3166
H14 H 1.3087 -0.8763 -1.3494
H15 H 1.2850 -0.8488 -1.2334
C13 C 1.01166(18) -1.19025(17) -1.56330(15)
H16 H 1.0932 -1.1927 -1.5423
H17 H 1.0071 -1.1685 -1.6342
H18 H 0.9767 -1.2632 -1.5547
C14 C 0.81327(15) -1.10214(14) -1.53157(12)
H19 H 0.8108 -1.0842 -1.6042
H20 H 0.7807 -1.1770 -1.5233
C15 C 0.73434(13) -1.02046(14) -1.47523(12)
C16 C 0.70679(16) -0.91623(15) -1.51746(14)
H21 H 0.7389 -0.8963 -1.5807
C17 C 0.63264(17) -0.84160(17) -1.46728(18)
H22 H 0.6159 -0.7722 -1.4968
C18 C 0.58411(18) -0.86928(19) -1.37495(18)
H23 H 0.5341 -0.8191 -1.3414
C19 C 0.60946(17) -0.9722(2) -1.33134(16)
H24 H 0.5761 -0.9915 -1.2685
C20 C 0.68479(15) -1.04727(17) -1.38103(14)
H25 H 0.7020 -1.1161 -1.3507
loop_
_geom_bond_atom_site_label_1
_geom_bond_atom_site_label_2
_geom_bond_site_symmetry_1
_geom_bond_site_symmetry_2
O1 C3 1_555 1_555
O2 C2 1_555 1_555
N1 C4 1_555 1_555
C1 C2 1_555 1_555
C2 H1 1_555 1_555
C3 O2 1_555 1_555
C4 C3 1_555 1_555
C5 N1 1_555 1_555
C6 C5 1_555 1_555
H2 C6 1_555 1_555
C7 C6 1_555 1_555
H3 C7 1_555 1_555
H4 C7 1_555 1_555
C8 C1 1_555 1_555
H5 C8 1_555 1_555
H6 C8 1_555 1_555
C9 C1 1_555 1_555
C10 C9 1_555 1_555
H7 C10 1_555 1_555
H8 C10 1_555 1_555
H9 C10 1_555 1_555
C11 C9 1_555 1_555
H10 C11 1_555 1_555
H11 C11 1_555 1_555
H12 C11 1_555 1_555
C12 C1 1_555 1_555
H13 C12 1_555 1_555
H14 C12 1_555 1_555
H15 C12 1_555 1_555
C13 C4 1_555 1_555
H16 C13 1_555 1_555
H17 C13 1_555 1_555
H18 C13 1_555 1_555
C14 C4 1_555 1_555
H19 C14 1_555 1_555
H20 C14 1_555 1_555
C15 C14 1_555 1_555
C16 C15 1_555 1_555
H21 C16 1_555 1_555
C17 C16 1_555 1_555
H22 C17 1_555 1_555
C18 C17 1_555 1_555
H23 C18 1_555 1_555
C19 C18 1_555 1_555
H24 C19 1_555 1_555
C20 C15 1_555 1_555
H25 C20 1_555 1_555
C2 C5 1_555 1_555
C6 C9 1_555 1_555
C7 C8 1_555 1_555
C19 C20 1_555 1_555

#END
