
#######################################################################
#
#                 Cambridge Crystallographic Data Centre
#                                CCDC 
#
#######################################################################
#
# If this CIF has been generated from an entry in the Cambridge 
# Structural Database, then it will include bibliographic, chemical, 
# crystal, experimental, refinement or atomic coordinate data resulting 
# from the CCDC's data processing and validation procedures.
#
#######################################################################

data_KEKZIM
_chemical_name_common            'valgamicin A'
_chemical_formula_moiety         'C29 H48 N4 O8'
_chemical_name_systematic        
8,15-dimethyl-3,6,9,12-tetrakis(propan-2-yl)decahydro-6H,12H-pyrrolo[2,1-l][1,7,4,10,13,16]dioxatetraazacyclooctadecine-1,4,7,10,13,16-hexone
_chemical_properties_biological  
'moderate cytotoxicity against human tumor cell lines'
_symmetry_cell_setting           orthorhombic
_symmetry_space_group_name_H-M   'P 21 21 21'
_symmetry_Int_Tables_number      19
_space_group_name_Hall           'P 2ac 2ab'
loop_
_symmetry_equiv_pos_site_id
_symmetry_equiv_pos_as_xyz
1 x,y,z
2 1/2-x,-y,1/2+z
3 1/2+x,1/2-y,-z
4 -x,1/2+y,1/2-z
_cell_length_a                   8.02409(19)
_cell_length_b                   16.2722(6)
_cell_length_c                   23.5480(8)
_cell_angle_alpha                90
_cell_angle_beta                 90
_cell_angle_gamma                90
_cell_volume                     3074.65
_exptl_crystal_colour            colorless
_exptl_crystal_description       prism
_cell_formula_units_Z            4
loop_
_atom_site_label
_atom_site_type_symbol
_atom_site_fract_x
_atom_site_fract_y
_atom_site_fract_z
C1 C 0.857(3) 0.5227(15) 0.5539(11)
H1 H 0.9417 0.5089 0.5825
H2 H 0.8859 0.5751 0.5359
H3 H 0.8534 0.4793 0.5250
C2 C 0.6772(16) 0.5303(6) 0.5842(5)
H4 H 0.6596 0.5879 0.5977
C3 C 0.6524(9) 0.4699(5) 0.6339(3)
H5 H 0.5440 0.4801 0.6518
H6 H 0.7411 0.4780 0.6620
H7 H 0.6563 0.4134 0.6196
O1 O 0.4574(3) 0.36449(15) 0.26957(11)
O2 O 0.4008(3) 0.42769(16) 0.47409(11)
O3 O 0.7301(3) 0.35902(18) 0.24889(13)
O4 O 0.5905(3) 0.40461(16) 0.38201(11)
O5 O 0.7266(4) 0.61876(18) 0.40361(13)
O6 O 0.4575(4) 0.56713(18) 0.20804(12)
O7 O 0.6269(3) 0.36874(19) 0.51307(13)
O8 O 0.2780(4) 0.6183(2) 0.51865(14)
N1 N 0.5001(4) 0.2761(2) 0.36545(14)
N2 N 0.5390(4) 0.5238(2) 0.29519(14)
H8 H 0.5254 0.4861 0.3216
N3 N 0.5402(4) 0.5752(2) 0.50010(14)
H9 H 0.6314 0.5850 0.4805
N4 N 0.4563(5) 0.6486(2) 0.38772(16)
C4 C 0.4959(5) 0.3475(3) 0.39334(18)
C5 C 0.6141(5) 0.3353(2) 0.27660(19)
C6 C 0.4773(5) 0.5112(3) 0.24264(19)
C7 C 0.8019(5) 0.2510(3) 0.34029(18)
H10 H 0.8542 0.3055 0.3487
C8 C 0.6074(6) 0.6226(3) 0.3708(2)
C9 C 0.3663(5) 0.3561(3) 0.44153(18)
H11 H 0.3710 0.3066 0.4666
C10 C 0.5348(5) 0.4263(3) 0.50800(18)
C11 C 0.6289(5) 0.6001(3) 0.30875(18)
H12 H 0.5815 0.6455 0.2851
C12 C 0.6227(5) 0.2661(2) 0.31971(17)
H13 H 0.5893 0.2152 0.2988
C13 C 0.2598(5) 0.4144(3) 0.20120(19)
H14 H 0.2424 0.4579 0.1718
C14 C 0.4355(5) 0.4246(3) 0.22451(18)
H15 H 0.5144 0.4096 0.1933
C15 C 0.8052(5) 0.1996(3) 0.39444(18)
H16 H 0.7388 0.2269 0.4239
H17 H 0.7583 0.1451 0.3867
H18 H 0.9204 0.1938 0.4076
C16 C 0.4324(6) 0.6868(3) 0.4439(2)
H19 H 0.5317 0.7215 0.4530
C17 C 0.9050(5) 0.2085(3) 0.29476(17)
H20 H 0.9031 0.2414 0.2599
H21 H 1.0202 0.2026 0.3080
H22 H 0.8581 0.1540 0.2871
C18 C 0.1598(5) 0.4544(2) 0.3963(2)
H23 H 0.2409 0.4648 0.3660
H24 H 0.0467 0.4590 0.3810
H25 H 0.1751 0.4948 0.4268
C19 C 0.0634(5) 0.3501(3) 0.46663(18)
H26 H 0.0830 0.2944 0.4810
H27 H 0.0780 0.3898 0.4975
H28 H -0.0504 0.3540 0.4518
C20 C 0.1858(5) 0.3686(3) 0.41984(18)
H29 H 0.1660 0.3285 0.3884
C21 C 0.2398(7) 0.3317(3) 0.1722(2)
H30 H 0.1259 0.3265 0.1576
H31 H 0.3191 0.3275 0.1407
H32 H 0.2613 0.2876 0.1996
C22 C 0.3902(5) 0.2063(2) 0.37639(18)
H33 H 0.4180 0.1613 0.3504
H34 H 0.4048 0.1878 0.4157
H35 H 0.2742 0.2230 0.3704
C23 C 0.5429(5) 0.5078(3) 0.53998(19)
H36 H 0.4347 0.5116 0.5609
C24 C 0.8116(5) 0.5909(3) 0.29410(19)
H37 H 0.8706 0.6420 0.3033
H38 H 0.8594 0.5455 0.3161
H39 H 0.8232 0.5792 0.2535
C25 C 0.4074(7) 0.6240(3) 0.4910(2)
C26 C 0.1298(5) 0.4274(3) 0.24746(19)
H40 H 0.1467 0.4813 0.2651
H41 H 0.0181 0.4250 0.2307
H42 H 0.1410 0.3843 0.2763
C27 C 0.3107(5) 0.6635(3) 0.3507(2)
H43 H 0.2711 0.6117 0.3332
H44 H 0.3377 0.7034 0.3203
C28 C 0.1824(6) 0.6980(3) 0.3910(3)
H45 H 0.1070 0.7366 0.3711
H46 H 0.1151 0.6534 0.4081
C29 C 0.2832(7) 0.7416(3) 0.4353(2)
H47 H 0.2192 0.7476 0.4710
H48 H 0.3176 0.7968 0.4220
C30? C 0.852(4) 0.5182(13) 0.5596(11)
H49? H 0.8342 0.5645 0.5337
H50? H 0.9055 0.4730 0.5392
H51? H 0.9232 0.5357 0.5912
C31? C 0.692(2) 0.4907(9) 0.5818(7)
H52? H 0.6955 0.4320 0.5942
C32? C 0.6534(14) 0.5480(9) 0.6307(5)
H53? H 0.7409 0.5432 0.6596
H54? H 0.5457 0.5331 0.6474
H55? H 0.6488 0.6047 0.6168
loop_
_geom_bond_atom_site_label_1
_geom_bond_atom_site_label_2
_geom_bond_site_symmetry_1
_geom_bond_site_symmetry_2
C1 H1 1_555 1_555
H2 C1 1_555 1_555
H3 C1 1_555 1_555
C2 C1 1_555 1_555
H4 C2 1_555 1_555
C3 C2 1_555 1_555
H5 C3 1_555 1_555
H6 C3 1_555 1_555
H7 C3 1_555 1_555
O1 C5 1_555 1_555
O2 C9 1_555 1_555
O3 C5 1_555 1_555
O4 C4 1_555 1_555
O5 C8 1_555 1_555
O6 C6 1_555 1_555
O7 C10 1_555 1_555
O8 C25 1_555 1_555
N1 C4 1_555 1_555
N2 H8 1_555 1_555
N3 H9 1_555 1_555
N4 C8 1_555 1_555
C4 C9 1_555 1_555
C5 C12 1_555 1_555
C6 N2 1_555 1_555
C7 H10 1_555 1_555
C8 C11 1_555 1_555
C9 H11 1_555 1_555
C10 O2 1_555 1_555
C11 N2 1_555 1_555
H12 C11 1_555 1_555
C12 N1 1_555 1_555
H13 C12 1_555 1_555
C13 H14 1_555 1_555
C14 O1 1_555 1_555
H15 C14 1_555 1_555
C15 C7 1_555 1_555
H16 C15 1_555 1_555
H17 C15 1_555 1_555
H18 C15 1_555 1_555
C16 N4 1_555 1_555
H19 C16 1_555 1_555
C17 C7 1_555 1_555
H20 C17 1_555 1_555
H21 C17 1_555 1_555
H22 C17 1_555 1_555
C18 H23 1_555 1_555
H24 C18 1_555 1_555
H25 C18 1_555 1_555
C19 H26 1_555 1_555
H27 C19 1_555 1_555
H28 C19 1_555 1_555
C20 C9 1_555 1_555
H29 C20 1_555 1_555
C21 C13 1_555 1_555
H30 C21 1_555 1_555
H31 C21 1_555 1_555
H32 C21 1_555 1_555
C22 N1 1_555 1_555
H33 C22 1_555 1_555
H34 C22 1_555 1_555
H35 C22 1_555 1_555
C23 C2 1_555 1_555
H36 C23 1_555 1_555
C24 C11 1_555 1_555
H37 C24 1_555 1_555
H38 C24 1_555 1_555
H39 C24 1_555 1_555
C25 N3 1_555 1_555
C26 C13 1_555 1_555
H40 C26 1_555 1_555
H41 C26 1_555 1_555
H42 C26 1_555 1_555
C27 N4 1_555 1_555
H43 C27 1_555 1_555
H44 C27 1_555 1_555
C28 C27 1_555 1_555
H45 C28 1_555 1_555
H46 C28 1_555 1_555
C29 C16 1_555 1_555
H47 C29 1_555 1_555
H48 C29 1_555 1_555
N3 C23 1_555 1_555
C6 C14 1_555 1_555
C7 C12 1_555 1_555
C10 C23 1_555 1_555
C13 C14 1_555 1_555
C16 C25 1_555 1_555
C18 C20 1_555 1_555
C19 C20 1_555 1_555
C28 C29 1_555 1_555

#END
