
#######################################################################
#
#                 Cambridge Crystallographic Data Centre
#                                CCDC 
#
#######################################################################
#
# If this CIF has been generated from an entry in the Cambridge 
# Structural Database, then it will include bibliographic, chemical, 
# crystal, experimental, refinement or atomic coordinate data resulting 
# from the CCDC's data processing and validation procedures.
#
#######################################################################

data_KELBIN
_chemical_formula_moiety         'C80 H46 O12,2.5(C1 S2),C2 H6 O1'
_chemical_name_systematic        
'1,2,4,11,15-pentakis(t-Butylperoxy)-3,14-epoxy-30-hydroxy-1,2,3,4,11,14,15,30-octahydroC60fullerene carbon disulfide ethanol solvate'
_symmetry_cell_setting           triclinic
_symmetry_space_group_name_H-M   'P -1'
_symmetry_Int_Tables_number      2
_space_group_name_Hall           '-P 1'
loop_
_symmetry_equiv_pos_site_id
_symmetry_equiv_pos_as_xyz
1 x,y,z
2 -x,-y,-z
_cell_length_a                   13.301(3)
_cell_length_b                   14.292(3)
_cell_length_c                   18.349(4)
_cell_angle_alpha                99.32(3)
_cell_angle_beta                 94.56(3)
_cell_angle_gamma                108.96(3)
_cell_volume                     3222.53
_exptl_crystal_colour            red
_exptl_crystal_description       block
_cell_formula_units_Z            2
loop_
_atom_site_label
_atom_site_type_symbol
_atom_site_fract_x
_atom_site_fract_y
_atom_site_fract_z
S1 S 0.23113(13) 0.68407(11) 0.21511(7)
S2 S 0.46303(17) 0.7629(3) 0.18075(16)
C83 C 0.3480(5) 0.7212(4) 0.2004(3)
S3 S 0.5630(3) -0.0819(3) 0.35724(16)
S4 S 0.7037(4) -0.1426(4) 0.4520(3)
C84 C 0.6371(5) -0.1127(4) 0.3972(3)
S5 S 1.0466(4) 0.9409(3) 0.54455(16)
C85 C 1.0000 1.0000 0.5000
S5A S 0.9534(4) 1.0591(3) 0.45545(16)
O1 O 0.7027(2) 0.51789(18) 0.23817(14)
O2 O 1.0053(2) 0.57004(18) 0.36153(15)
H1 H 0.970(5) 0.552(4) 0.409(3)
O3 O 0.86226(19) 0.62106(17) 0.16383(13)
O4 O 0.9264(2) 0.67652(18) 0.23765(14)
O5 O 0.53821(18) 0.41590(18) 0.11843(13)
O6 O 0.49923(18) 0.38769(18) 0.03763(12)
O7 O 0.7750(2) 0.33704(19) 0.43155(13)
O8 O 0.7927(2) 0.2656(2) 0.47636(14)
O9 O 0.48622(19) 0.21929(18) 0.28439(14)
O10 O 0.4416(2) 0.1091(2) 0.28156(16)
O11 O 0.6073(2) 0.39983(19) 0.32903(13)
O12 O 0.50967(19) 0.4074(2) 0.28669(14)
C1 C 0.9857(3) 0.0854(3) 0.1006(2)
C2 C 1.0309(3) 0.1276(3) 0.1747(2)
C3 C 0.9693(3) 0.1003(3) 0.23474(19)
C4 C 0.8648(3) 0.0326(2) 0.2178(2)
C5 C 0.8174(3) -0.0113(2) 0.1409(2)
C6 C 0.8766(3) 0.0143(2) 0.0829(2)
C7 C 0.8263(3) 0.0333(3) 0.0172(2)
C8 C 0.9045(3) 0.1162(3) -0.0066(2)
C9 C 1.0023(3) 0.1487(3) 0.0447(2)
C10 C 1.0646(3) 0.2512(3) 0.0660(2)
C11 C 1.1105(3) 0.2940(3) 0.1427(2)
C12 C 1.0951(3) 0.2343(3) 0.1967(2)
C13 C 1.0728(3) 0.2714(3) 0.2696(2)
C14 C 0.9961(3) 0.1903(3) 0.2929(2)
C15 C 0.9156(3) 0.2087(3) 0.33154(19)
C16 C 0.8073(3) 0.1387(2) 0.31365(19)
C17 C 0.7826(3) 0.0514(3) 0.2586(2)
C18 C 0.6842(3) 0.0200(2) 0.20720(19)
C19 C 0.7054(3) -0.0200(2) 0.1343(2)
C20 C 0.6573(3) -0.0011(2) 0.0707(2)
C21 C 0.7179(3) 0.0252(2) 0.01055(19)
C22 C 0.6838(3) 0.1001(3) -0.01959(18)
C23 C 0.7599(3) 0.1798(3) -0.04217(18)
C24 C 0.8699(3) 0.1878(3) -0.03589(19)
C25 C 0.9357(3) 0.2946(3) -0.01411(19)
C26 C 1.0298(3) 0.3250(3) 0.0352(2)
C27 C 1.0557(3) 0.4137(3) 0.0950(2)
C28 C 1.1050(3) 0.3951(3) 0.1604(2)
C29 C 1.0808(2) 0.4297(2) 0.22990(19)
C30 C 1.0653(3) 0.3682(3) 0.28536(19)
C31 C 0.9855(3) 0.3867(2) 0.32865(18)
C32 C 0.9122(3) 0.3097(3) 0.35144(18)
C33 C 0.7971(3) 0.3050(3) 0.35823(18)
C34 C 0.7343(3) 0.1938(2) 0.32132(18)
C35 C 0.6425(3) 0.1652(2) 0.27200(19)
C36 C 0.6182(3) 0.0769(2) 0.21302(19)
C37 C 0.5675(3) 0.0964(2) 0.14750(19)
C38 C 0.5862(3) 0.0578(2) 0.07754(19)
C39 C 0.6034(3) 0.1197(2) 0.02233(18)
C40 C 0.6000(3) 0.2167(2) 0.04074(18)
C41 C 0.6763(3) 0.2989(3) 0.01682(18)
C42 C 0.7546(3) 0.2806(3) -0.02443(18)
C43 C 0.8635(3) 0.3512(3) -0.00754(19)
C44 C 0.8864(3) 0.4359(3) 0.04931(19)
C45 C 0.9843(3) 0.4667(2) 0.10141(19)
C46 C 0.9630(3) 0.5050(2) 0.1740(2)
C47 C 1.0101(3) 0.4873(2) 0.23642(19)
C48 C 0.9599(3) 0.4784(2) 0.30826(18)
C49 C 0.8384(3) 0.4456(2) 0.28774(18)
C50 C 0.7665(3) 0.3708(2) 0.31054(18)
C51 C 0.6512(3) 0.3496(2) 0.27305(18)
C52 C 0.5823(3) 0.2335(3) 0.24971(19)
C53 C 0.5598(3) 0.1961(2) 0.16469(18)
C54 C 0.5753(2) 0.2550(2) 0.11239(18)
C55 C 0.6182(3) 0.3710(2) 0.12844(18)
C56 C 0.7001(3) 0.3888(2) 0.07240(19)
C57 C 0.8032(3) 0.4555(2) 0.08880(18)
C58 C 0.8537(3) 0.5193(2) 0.16577(19)
C59 C 0.7880(3) 0.4783(2) 0.22530(19)
C60 C 0.6734(3) 0.4121(2) 0.20923(18)
C61 C 0.9230(3) 0.7782(3) 0.2478(2)
C62 C 0.9980(4) 0.8273(3) 0.3203(2)
H3 H 1.0689 0.8275 0.3135
H4 H 0.9728 0.7902 0.3583
H5 H 0.9999 0.8955 0.3351
C63 C 0.9673(3) 0.8257(3) 0.1831(2)
H6 H 0.9179 0.7930 0.1381
H7 H 1.0352 0.8176 0.1771
H8 H 0.9766 0.8962 0.1934
C64 C 0.8098(3) 0.7758(3) 0.2555(2)
H9 H 0.7645 0.7442 0.2086
H10 H 0.8100 0.8435 0.2697
H11 H 0.7831 0.7381 0.2929
C65 C 0.3829(3) 0.3573(3) 0.0269(2)
C66 C 0.3485(3) 0.4436(3) 0.0623(2)
H12 H 0.3646 0.4548 0.1156
H13 H 0.2726 0.4266 0.0485
H14 H 0.3864 0.5037 0.0453
C67 C 0.3580(3) 0.3381(3) -0.0577(2)
H15 H 0.3805 0.2837 -0.0793
H16 H 0.3956 0.3979 -0.0752
H17 H 0.2821 0.3204 -0.0720
C68 C 0.3356(3) 0.2627(3) 0.0564(3)
H18 H 0.3597 0.2108 0.0322
H19 H 0.2587 0.2409 0.0468
H20 H 0.3582 0.2760 0.1092
C69 C 0.7056(4) 0.2417(4) 0.5210(2)
C70 C 0.7063(4) 0.3367(4) 0.5712(2)
H21 H 0.7747 0.3684 0.6021
H22 H 0.6507 0.3200 0.6021
H23 H 0.6939 0.3822 0.5413
C71 C 0.7412(7) 0.1772(6) 0.5677(4)
H24 H 0.7407 0.1165 0.5360
H25 H 0.6931 0.1600 0.6036
H26 H 0.8126 0.2140 0.5932
C72 C 0.5989(4) 0.1894(5) 0.4715(3)
H27 H 0.6003 0.1290 0.4405
H28 H 0.5859 0.2336 0.4407
H29 H 0.5428 0.1722 0.5020
C73 C 0.3264(3) 0.0763(3) 0.2663(2)
C74 C 0.2790(4) 0.1282(6) 0.3247(3)
H30 H 0.3025 0.1991 0.3245
H31 H 0.3020 0.1181 0.3728
H32 H 0.2020 0.1005 0.3142
C75 C 0.2931(4) 0.0930(4) 0.1897(3)
H33 H 0.3231 0.0584 0.1529
H34 H 0.3189 0.1639 0.1894
H35 H 0.2162 0.0672 0.1783
C76 C 0.2972(4) -0.0373(4) 0.2586(5)
H36 H 0.3328 -0.0620 0.2204
H37 H 0.2209 -0.0694 0.2453
H38 H 0.3195 -0.0521 0.3051
C77 C 0.4701(3) 0.4707(3) 0.3373(2)
C78 C 0.3699(4) 0.4656(4) 0.2902(3)
H39 H 0.3213 0.3971 0.2778
H40 H 0.3882 0.4892 0.2452
H41 H 0.3362 0.5074 0.3175
C79 C 0.5503(4) 0.5758(4) 0.3599(4)
H42 H 0.6127 0.5747 0.3894
H43 H 0.5188 0.6184 0.3887
H44 H 0.5708 0.6017 0.3161
C80 C 0.4417(5) 0.4250(5) 0.4055(3)
H45 H 0.5063 0.4286 0.4350
H46 H 0.3960 0.3557 0.3898
H47 H 0.4050 0.4619 0.4347
O13 O 0.9129(2) 0.5416(2) 0.48733(16)
H2 H 0.875(7) 0.460(6) 0.473(5)
C81 C 0.8253(5) 0.5776(5) 0.5012(3)
H48 H 0.8122 0.5770 0.5524
H49 H 0.7604 0.5341 0.4685
C82 C 0.8540(6) 0.6796(6) 0.4877(5)
H50 H 0.7963 0.7046 0.4964
H51 H 0.8669 0.6795 0.4369
H52 H 0.9178 0.7223 0.5207
loop_
_geom_bond_atom_site_label_1
_geom_bond_atom_site_label_2
_geom_bond_site_symmetry_1
_geom_bond_site_symmetry_2
S1 C83 1_555 1_555
S2 C83 1_555 1_555
S3 C84 1_555 1_555
S4 C84 1_555 1_555
S5 C85 1_555 1_555
O1 C59 1_555 1_555
O2 H1 1_555 1_555
O3 O4 1_555 1_555
O4 C61 1_555 1_555
O5 O6 1_555 1_555
O6 C65 1_555 1_555
O7 O8 1_555 1_555
O8 C69 1_555 1_555
O9 O10 1_555 1_555
O10 C73 1_555 1_555
O11 O12 1_555 1_555
O12 C77 1_555 1_555
O13 H2 1_555 1_555
C1 C2 1_555 1_555
C2 C3 1_555 1_555
C3 C4 1_555 1_555
C4 C5 1_555 1_555
C5 C6 1_555 1_555
C6 C1 1_555 1_555
C7 C6 1_555 1_555
C8 C7 1_555 1_555
C9 C1 1_555 1_555
C10 C9 1_555 1_555
C11 C10 1_555 1_555
C12 C2 1_555 1_555
C13 C12 1_555 1_555
C14 C3 1_555 1_555
C15 C14 1_555 1_555
C16 C15 1_555 1_555
C17 C4 1_555 1_555
C18 C17 1_555 1_555
C19 C5 1_555 1_555
C20 C19 1_555 1_555
C21 C7 1_555 1_555
C22 C21 1_555 1_555
C23 C22 1_555 1_555
C24 C8 1_555 1_555
C25 C24 1_555 1_555
C26 C10 1_555 1_555
C27 C26 1_555 1_555
C28 C11 1_555 1_555
C29 C28 1_555 1_555
C30 C13 1_555 1_555
C31 C30 1_555 1_555
C32 C15 1_555 1_555
C33 O7 1_555 1_555
C34 C16 1_555 1_555
C35 C34 1_555 1_555
C36 C18 1_555 1_555
C37 C36 1_555 1_555
C38 C20 1_555 1_555
C39 C22 1_555 1_555
C40 C39 1_555 1_555
C41 C40 1_555 1_555
C42 C23 1_555 1_555
C43 C25 1_555 1_555
C44 C43 1_555 1_555
C45 C27 1_555 1_555
C46 C45 1_555 1_555
C47 C29 1_555 1_555
C48 O2 1_555 1_555
C49 C48 1_555 1_555
C50 C33 1_555 1_555
C51 O11 1_555 1_555
C52 O9 1_555 1_555
C53 C37 1_555 1_555
C54 C40 1_555 1_555
C55 O5 1_555 1_555
C56 C41 1_555 1_555
C57 C44 1_555 1_555
C58 O3 1_555 1_555
C59 C49 1_555 1_555
C60 O1 1_555 1_555
C61 C62 1_555 1_555
C62 H3 1_555 1_555
H4 C62 1_555 1_555
H5 C62 1_555 1_555
C63 C61 1_555 1_555
H6 C63 1_555 1_555
H7 C63 1_555 1_555
H8 C63 1_555 1_555
C64 C61 1_555 1_555
H9 C64 1_555 1_555
H10 C64 1_555 1_555
H11 C64 1_555 1_555
C65 C66 1_555 1_555
C66 H12 1_555 1_555
H13 C66 1_555 1_555
H14 C66 1_555 1_555
C67 C65 1_555 1_555
H15 C67 1_555 1_555
H16 C67 1_555 1_555
H17 C67 1_555 1_555
C68 C65 1_555 1_555
H18 C68 1_555 1_555
H19 C68 1_555 1_555
H20 C68 1_555 1_555
C69 C70 1_555 1_555
C70 H21 1_555 1_555
H22 C70 1_555 1_555
H23 C70 1_555 1_555
C71 C69 1_555 1_555
H24 C71 1_555 1_555
H25 C71 1_555 1_555
H26 C71 1_555 1_555
C72 C69 1_555 1_555
H27 C72 1_555 1_555
H28 C72 1_555 1_555
H29 C72 1_555 1_555
C73 C74 1_555 1_555
C74 H30 1_555 1_555
H31 C74 1_555 1_555
H32 C74 1_555 1_555
C75 C73 1_555 1_555
H33 C75 1_555 1_555
H34 C75 1_555 1_555
H35 C75 1_555 1_555
C76 C73 1_555 1_555
H36 C76 1_555 1_555
H37 C76 1_555 1_555
H38 C76 1_555 1_555
C77 C78 1_555 1_555
C78 H39 1_555 1_555
H40 C78 1_555 1_555
H41 C78 1_555 1_555
C79 C77 1_555 1_555
H42 C79 1_555 1_555
H43 C79 1_555 1_555
H44 C79 1_555 1_555
C80 C77 1_555 1_555
H45 C80 1_555 1_555
H46 C80 1_555 1_555
H47 C80 1_555 1_555
C81 O13 1_555 1_555
H48 C81 1_555 1_555
H49 C81 1_555 1_555
C82 C81 1_555 1_555
H50 C82 1_555 1_555
H51 C82 1_555 1_555
H52 C82 1_555 1_555
C85 S5A 1_555 1_555
C8 C9 1_555 1_555
C11 C12 1_555 1_555
C13 C14 1_555 1_555
C16 C17 1_555 1_555
C18 C19 1_555 1_555
C20 C21 1_555 1_555
C23 C24 1_555 1_555
C25 C26 1_555 1_555
C27 C28 1_555 1_555
C29 C30 1_555 1_555
C31 C32 1_555 1_555
C31 C48 1_555 1_555
C32 C33 1_555 1_555
C33 C34 1_555 1_555
C35 C36 1_555 1_555
C35 C52 1_555 1_555
C37 C38 1_555 1_555
C38 C39 1_555 1_555
C41 C42 1_555 1_555
C42 C43 1_555 1_555
C44 C45 1_555 1_555
C46 C47 1_555 1_555
C46 C58 1_555 1_555
C47 C48 1_555 1_555
C49 C50 1_555 1_555
C50 C51 1_555 1_555
C51 C52 1_555 1_555
C51 C60 1_555 1_555
C52 C53 1_555 1_555
C53 C54 1_555 1_555
C54 C55 1_555 1_555
C55 C56 1_555 1_555
C55 C60 1_555 1_555
C56 C57 1_555 1_555
C57 C58 1_555 1_555
C58 C59 1_555 1_555
C59 C60 1_555 1_555

#END
