
#######################################################################
#
#                 Cambridge Crystallographic Data Centre
#                                CCDC 
#
#######################################################################
#
# If this CIF has been generated from an entry in the Cambridge 
# Structural Database, then it will include bibliographic, chemical, 
# crystal, experimental, refinement or atomic coordinate data resulting 
# from the CCDC's data processing and validation procedures.
#
#######################################################################

data_KELCOW
_chemical_name_common            
(R)-2-(1,1-difluoro-2-oxo-2-phenylethyl)-5-methyl-2-phenylindolin-3-one
_chemical_formula_moiety         'C22 H14 Br1 F2 N1 O2'
_chemical_name_systematic        
5-bromo-2-(1,1-difluoro-2-oxo-2-phenylethyl)-2-phenyl-1,2-dihydro-3H-indol-3-one
_symmetry_cell_setting           orthorhombic
_symmetry_space_group_name_H-M   'P 21 21 21'
_symmetry_Int_Tables_number      19
_space_group_name_Hall           'P 2ac 2ab'
loop_
_symmetry_equiv_pos_site_id
_symmetry_equiv_pos_as_xyz
1 x,y,z
2 1/2-x,-y,1/2+z
3 -x,1/2+y,1/2-z
4 1/2+x,1/2-y,-z
_cell_length_a                   8.3830(17)
_cell_length_b                   11.864(2)
_cell_length_c                   19.123(4)
_cell_angle_alpha                90
_cell_angle_beta                 90
_cell_angle_gamma                90
_cell_volume                     1901.9
_exptl_crystal_colour            yellow
_exptl_crystal_description       block
_chemical_melting_point          '468.5-471.5 K'
_cell_formula_units_Z            4
_exptl_crystal_recrystallization_method 'petroleum ether/ethyl acetate'
loop_
_atom_site_label
_atom_site_type_symbol
_atom_site_fract_x
_atom_site_fract_y
_atom_site_fract_z
Br1 Br 0.78104(7) 0.77647(5) 0.52402(3)
F1 F 0.4277(3) 0.5651(2) 0.12673(13)
F2 F 0.2979(3) 0.7225(2) 0.14443(13)
O1 O 0.3055(4) 0.6155(2) 0.29392(16)
O2 O 0.4430(4) 0.8647(2) 0.26216(18)
N1 N 0.6417(5) 0.6049(3) 0.2344(2)
H1 H 0.670979 0.544537 0.213100
C1 C 0.7352(6) 0.7174(4) 0.4339(2)
C2 C 0.7933(6) 0.6109(4) 0.4156(3)
H2 H 0.850728 0.569567 0.448379
C3 C 0.7672(6) 0.5659(4) 0.3502(3)
H3 H 0.806841 0.495376 0.338061
C4 C 0.6785(5) 0.6307(3) 0.3027(2)
C5 C 0.6187(5) 0.7359(3) 0.3221(2)
C6 C 0.6466(5) 0.7807(4) 0.3883(2)
H4 H 0.606687 0.850909 0.401052
C7 C 0.5234(5) 0.7785(3) 0.2648(2)
C8 C 0.5465(5) 0.6941(3) 0.2034(2)
C9 C 0.3890(6) 0.6433(3) 0.1773(2)
C10 C 0.2834(6) 0.5881(3) 0.2334(2)
C11 C 0.1600(5) 0.5053(3) 0.2117(2)
C12 C 0.1057(6) 0.4302(4) 0.2623(3)
H5 H 0.144829 0.434204 0.307718
C13 C -0.0070(6) 0.3493(4) 0.2447(3)
H6 H -0.041765 0.297874 0.278062
C14 C -0.0678(6) 0.3451(4) 0.1770(3)
H7 H -0.143811 0.291185 0.165246
C15 C -0.0157(6) 0.4205(4) 0.1276(3)
H8 H -0.057730 0.418043 0.082634
C16 C 0.0986(6) 0.5000(4) 0.1441(2)
H9 H 0.134564 0.549996 0.110137
C17 C 0.6331(6) 0.7542(3) 0.1430(2)
C18 C 0.7725(6) 0.7091(4) 0.1156(3)
H10 H 0.811967 0.641388 0.132884
C19 C 0.8532(8) 0.7646(6) 0.0624(3)
H11 H 0.945863 0.733440 0.043918
C20 C 0.7966(9) 0.8659(5) 0.0368(3)
H12 H 0.851316 0.903437 0.001451
C21 C 0.6590(8) 0.9104(5) 0.0639(3)
H13 H 0.620855 0.978621 0.046822
C22 C 0.5762(7) 0.8555(4) 0.1161(3)
H14 H 0.482127 0.886356 0.133398
loop_
_geom_bond_atom_site_label_1
_geom_bond_atom_site_label_2
_geom_bond_site_symmetry_1
_geom_bond_site_symmetry_2
Br1 C1 1_555 1_555
F1 C9 1_555 1_555
F2 C9 1_555 1_555
O1 C10 1_555 1_555
O2 C7 1_555 1_555
N1 H1 1_555 1_555
C1 C2 1_555 1_555
C2 H2 1_555 1_555
C3 C2 1_555 1_555
H3 C3 1_555 1_555
C4 N1 1_555 1_555
C5 C4 1_555 1_555
C6 C1 1_555 1_555
H4 C6 1_555 1_555
C7 C5 1_555 1_555
C8 N1 1_555 1_555
C9 C8 1_555 1_555
C10 C9 1_555 1_555
C11 C10 1_555 1_555
C12 C11 1_555 1_555
H5 C12 1_555 1_555
C13 C12 1_555 1_555
H6 C13 1_555 1_555
C14 C13 1_555 1_555
H7 C14 1_555 1_555
C15 C14 1_555 1_555
H8 C15 1_555 1_555
C16 C11 1_555 1_555
H9 C16 1_555 1_555
C17 C8 1_555 1_555
C18 C17 1_555 1_555
H10 C18 1_555 1_555
C19 C18 1_555 1_555
H11 C19 1_555 1_555
C20 C19 1_555 1_555
H12 C20 1_555 1_555
C21 C20 1_555 1_555
H13 C21 1_555 1_555
C22 C17 1_555 1_555
H14 C22 1_555 1_555
C3 C4 1_555 1_555
C5 C6 1_555 1_555
C7 C8 1_555 1_555
C15 C16 1_555 1_555
C21 C22 1_555 1_555

#END
