
#######################################################################
#
#                 Cambridge Crystallographic Data Centre
#                                CCDC 
#
#######################################################################
#
# If this CIF has been generated from an entry in the Cambridge 
# Structural Database, then it will include bibliographic, chemical, 
# crystal, experimental, refinement or atomic coordinate data resulting 
# from the CCDC's data processing and validation procedures.
#
#######################################################################

data_KELDUD
_chemical_formula_moiety         'C11 H10 O3'
_chemical_name_systematic        
3-ethenylidene-7a-methyl-3a,7a-dihydro-1-benzofuran-2,5(3H,4H)-dione
_symmetry_cell_setting           monoclinic
_symmetry_space_group_name_H-M   'P 21/n'
_symmetry_Int_Tables_number      14
_space_group_name_Hall           '-P 2yn'
loop_
_symmetry_equiv_pos_site_id
_symmetry_equiv_pos_as_xyz
1 x,y,z
2 1/2-x,1/2+y,1/2-z
3 -x,-y,-z
4 1/2+x,1/2-y,1/2+z
_cell_length_a                   10.909(2)
_cell_length_b                   7.4603(15)
_cell_length_c                   12.446(3)
_cell_angle_alpha                90
_cell_angle_beta                 109.30(3)
_cell_angle_gamma                90
_cell_volume                     955.986
_exptl_crystal_colour            colorless
_exptl_crystal_description       block
_cell_formula_units_Z            4
loop_
_atom_site_label
_atom_site_type_symbol
_atom_site_fract_x
_atom_site_fract_y
_atom_site_fract_z
O1 O 0.70425(8) 0.33585(12) 0.42122(7)
O2 O 0.77022(9) 0.60921(14) 0.39225(8)
O3 O 0.19832(9) 0.35831(16) 0.21708(9)
C1 C 0.69514(11) 0.48732(17) 0.35929(10)
C2 C 0.58358(10) 0.46843(16) 0.25221(9)
C3 C 0.53734(11) 0.27679(16) 0.24576(9)
H1 H 0.5823 0.2065 0.2037
C4 C 0.58926(10) 0.22063(17) 0.37160(10)
C5 C 0.63424(13) 0.02797(19) 0.39139(12)
H2 H 0.7022 0.0080 0.3596
H3 H 0.5627 -0.0505 0.3554
H4 H 0.6664 0.0041 0.4717
C6 C 0.53990(11) 0.59973(18) 0.18036(10)
C7 C 0.49498(15) 0.7291(2) 0.10895(14)
C8 C 0.39138(11) 0.24879(17) 0.19049(10)
H5 H 0.3629 0.3106 0.1178
H6 H 0.3748 0.1219 0.1755
C9 C 0.31174(11) 0.31388(16) 0.26086(11)
C10 C 0.37413(12) 0.31367(18) 0.38501(11)
H7 H 0.3252 0.3462 0.4305
C11 C 0.49789(12) 0.26871(18) 0.43477(10)
H8 H 0.5301 0.2669 0.5139
H9 H 0.5289(19) 0.749(3) 0.0471(17)
H10 H 0.4271(19) 0.805(3) 0.1166(16)
loop_
_geom_bond_atom_site_label_1
_geom_bond_atom_site_label_2
_geom_bond_site_symmetry_1
_geom_bond_site_symmetry_2
O1 C1 1_555 1_555
O2 C1 1_555 1_555
O3 C9 1_555 1_555
C1 C2 1_555 1_555
C2 C3 1_555 1_555
C3 H1 1_555 1_555
C4 O1 1_555 1_555
C5 C4 1_555 1_555
H2 C5 1_555 1_555
H3 C5 1_555 1_555
H4 C5 1_555 1_555
C6 C2 1_555 1_555
C7 C6 1_555 1_555
C8 C3 1_555 1_555
H5 C8 1_555 1_555
H6 C8 1_555 1_555
C9 C8 1_555 1_555
C10 C9 1_555 1_555
H7 C10 1_555 1_555
C11 C4 1_555 1_555
H8 C11 1_555 1_555
H9 C7 1_555 1_555
H10 C7 1_555 1_555
C3 C4 1_555 1_555
C10 C11 1_555 1_555

#END
