
#######################################################################
#
#                 Cambridge Crystallographic Data Centre
#                                CCDC 
#
#######################################################################
#
# If this CIF has been generated from an entry in the Cambridge 
# Structural Database, then it will include bibliographic, chemical, 
# crystal, experimental, refinement or atomic coordinate data resulting 
# from the CCDC's data processing and validation procedures.
#
#######################################################################

data_KELDAG
_chemical_formula_moiety         
'C20 H22 N10 O12 P2 4-,2(H10 Mg1 O5 2+),16(H2 O1)'
_chemical_name_systematic        
'Cyclo-deoxydiadenylic acid penta-aqua-magnesium hexadecahydrate'
_symmetry_cell_setting           monoclinic
_symmetry_space_group_name_H-M   'C 2'
_symmetry_Int_Tables_number      5
_space_group_name_Hall           'C 2y'
loop_
_symmetry_equiv_pos_site_id
_symmetry_equiv_pos_as_xyz
1 x,y,z
2 1/2+x,1/2+y,z
3 -x,y,-z
4 1/2-x,1/2+y,-z
_cell_length_a                   24.511(3)
_cell_length_b                   24.785(3)
_cell_length_c                   13.743(3)
_cell_angle_alpha                90
_cell_angle_beta                 94.02(2)
_cell_angle_gamma                90
_cell_volume                     8328.4
_cell_formula_units_Z            8
loop_
_atom_site_label
_atom_site_type_symbol
_atom_site_fract_x
_atom_site_fract_y
_atom_site_fract_z
Mg1 Mg 0.4365 0.0533 0.6724
O11 O 0.5064 0.1004 0.6545
O12 O 0.3774 -0.0050 0.6974
O13 O 0.4939 -0.0082 0.7137
O14 O 0.4374 0.0786 0.8184
O15 O 0.4390 0.0283 0.5279
Mg2 Mg 0.2245 0.0214 0.6144
O16 O 0.2549 -0.0215 0.7409
O17 O 0.1900 0.0722 0.5029
O18 O 0.2780 -0.0177 0.5273
O19 O 0.1696 0.0569 0.7085
O20 O 0.1671 -0.0371 0.5725
O21 O 0.5998 0.5430 1.3814
O22 O 0.5890 0.0955 0.9238
O23 O 0.4359 0.4517 0.3641
O24 O 0.1226 0.3935 0.3806
O25 O 0.0294 0.0165 0.0962
O26 O 0.4353 0.4960 0.1844
O27 O 0.8830 0.2513 0.6639
O28 O 0.3304 1.0844 0.9230
O29 O 0.3975 1.4337 0.8914
O30 O 0.6500 1.4630 0.2907
O31 O 0.5000 0.4333 1.0000
O32 O 0.0000 0.0070 0.5000
O33 O 0.0649 0.1267 0.2497
O34 O 0.8571 1.1753 0.4948
O35 O 0.3744 0.8585 1.3659
O36 O 0.4594 0.9133 1.4444
P3 P 0.3202 0.1214 0.6321
O37 O 0.2821 0.0773 0.6543
O38 O 0.3803 0.1103 0.6360
O39 O 0.3139 0.1714 0.7042
C21 C 0.3325 0.2855 0.8706
C22 C 0.2954 0.2885 0.7061
C23 C 0.3234 0.3235 0.7832
C24 C 0.2632 0.2464 0.7659
C25 C 0.2594 0.1908 0.7225
O40 O 0.2905 0.2460 0.8605
O41 O 0.2541 0.3178 0.6460
N11 N 0.5445 0.3032 0.8799
C26 C 0.5034 0.3415 0.8766
N12 N 0.4491 0.3333 0.8738
C27 C 0.4360 0.2797 0.8721
C28 C 0.4720 0.2372 0.8748
C29 C 0.5300 0.2508 0.8810
N13 N 0.5695 0.2131 0.8856
N14 N 0.4452 0.1883 0.8727
C30 C 0.3939 0.2012 0.8742
N15 N 0.3852 0.2570 0.8699
P4 P 0.2713 0.3482 0.5486
O42 O 0.2192 0.3729 0.5032
O43 O 0.3199 0.3845 0.5705
O44 O 0.2927 0.3014 0.4819
O45 O 0.3181 0.2312 0.3272
C31 C 0.3738 0.1689 0.4219
C32 C 0.3279 0.1879 0.4823
C33 C 0.2853 0.2132 0.4070
C34 C 0.3722 0.2091 0.3374
C35 C 0.2541 0.2613 0.4442
O46 O 0.2990 0.1444 0.5273
N16 N 0.5732 0.2733 0.3744
C36 C 0.5504 0.2245 0.3645
N17 N 0.4975 0.2097 0.3607
C37 C 0.4657 0.2529 0.3645
C38 C 0.4828 0.3070 0.3712
C39 C 0.5412 0.3164 0.3790
N18 N 0.5619 0.3659 0.3889
N19 N 0.4393 0.3413 0.3689
C40 C 0.3961 0.3106 0.3607
N20 N 0.4101 0.2557 0.3583
P1 P 0.6484 0.0275 0.7065
O1 O 0.6509 0.0240 0.5985
O2 O 0.5965 0.0468 0.7467
O3 O 0.6961 0.0647 0.7530
C1 C 0.8067 0.1741 0.8475
C2 C 0.8173 0.1346 0.9352
C3 C 0.7929 0.0865 0.7877
O4 O 0.7884 0.1434 0.7655
C4 C 0.7891 0.0823 0.8966
C5 C 0.7515 0.0553 0.7222
O5 O 0.8174 0.0361 0.9310
N1 N 0.7425 0.3713 0.8109
C6 C 0.7915 0.3471 0.7948
N2 N 0.8057 0.2967 0.8053
C7 C 0.7652 0.2674 0.8441
C8 C 0.7131 0.2863 0.8669
C9 C 0.7017 0.3415 0.8468
N3 N 0.6533 0.3631 0.8610
N4 N 0.6828 0.2461 0.9015
C10 C 0.7142 0.2035 0.9011
N5 N 0.7647 0.2127 0.8661
P2 P 0.8005 0.0067 1.0291
O6 O 0.8473 -0.0302 1.0575
O7 O 0.7821 0.0471 1.1011
O8 O 0.7477 -0.0259 0.9945
C11 C 0.6996 -0.0866 0.8829
C12 C 0.6562 -0.0450 0.8489
C13 C 0.7521 -0.0682 0.9238
C14 C 0.6016 -0.0696 0.8621
C15 C 0.6122 -0.1230 0.9235
O9 O 0.6631 -0.0316 0.7484
O10 O 0.6713 -0.1129 0.9612
C16 C 0.5398 -0.1460 1.1456
C17 C 0.5651 -0.1621 1.0640
N6 N 0.5736 -0.2128 1.0296
C18 C 0.5468 -0.2499 1.0917
N7 N 0.5192 -0.2375 1.1767
C19 C 0.5134 -0.1862 1.2138
N8 N 0.5014 -0.1705 1.3094
N9 N 0.5419 -0.0885 1.1527
C20 C 0.5683 -0.0679 1.0813
N10 N 0.5848 -0.1166 1.0205
loop_
_geom_bond_atom_site_label_1
_geom_bond_atom_site_label_2
_geom_bond_site_symmetry_1
_geom_bond_site_symmetry_2
P1 O1 1_555 1_555
O2 P1 1_555 1_555
O3 P1 1_555 1_555
C1 C2 1_555 1_555
C2 C4 1_555 1_555
C3 O4 1_555 1_555
O4 C1 1_555 1_555
C4 C3 1_555 1_555
C5 O3 1_555 1_555
O5 C4 1_555 1_555
N1 C6 1_555 1_555
C6 N2 1_555 1_555
N2 C7 1_555 1_555
C7 C8 1_555 1_555
C8 C9 1_555 1_555
C9 N1 1_555 1_555
N3 C9 1_555 1_555
N4 C8 1_555 1_555
C10 N4 1_555 1_555
N5 C1 1_555 1_555
P2 O5 1_555 1_555
O6 P2 1_555 1_555
O7 P2 1_555 1_555
O8 P2 1_555 1_555
C11 C12 1_555 1_555
C12 C14 1_555 1_555
C13 O8 1_555 1_555
C14 C15 1_555 1_555
C15 O10 1_555 1_555
O9 P1 1_555 1_555
O10 C11 1_555 1_555
C16 C17 1_555 1_555
C17 N6 1_555 1_555
N6 C18 1_555 1_555
C18 N7 1_555 1_555
N7 C19 1_555 1_555
C19 C16 1_555 1_555
N8 C19 1_555 1_555
N9 C16 1_555 1_555
C20 N9 1_555 1_555
N10 C15 1_555 1_555
P3 O37 1_555 1_555
O38 P3 1_555 1_555
O39 P3 1_555 1_555
C21 C23 1_555 1_555
C22 C23 1_555 1_555
C24 C22 1_555 1_555
C25 O39 1_555 1_555
O40 C21 1_555 1_555
O41 C22 1_555 1_555
N11 C26 1_555 1_555
C26 N12 1_555 1_555
N12 C27 1_555 1_555
C27 C28 1_555 1_555
C28 C29 1_555 1_555
C29 N11 1_555 1_555
N13 C29 1_555 1_555
N14 C28 1_555 1_555
C30 N14 1_555 1_555
N15 C21 1_555 1_555
P4 O41 1_555 1_555
O42 P4 1_555 1_555
O43 P4 1_555 1_555
O44 P4 1_555 1_555
O45 C33 1_555 1_555
C31 C32 1_555 1_555
C32 C33 1_555 1_555
C33 C35 1_555 1_555
C34 O45 1_555 1_555
C35 O44 1_555 1_555
O46 P3 1_555 1_555
N16 C36 1_555 1_555
C36 N17 1_555 1_555
N17 C37 1_555 1_555
C37 C38 1_555 1_555
C38 C39 1_555 1_555
C39 N16 1_555 1_555
N18 C39 1_555 1_555
N19 C38 1_555 1_555
C40 N19 1_555 1_555
N20 C34 1_555 1_555
C3 C5 1_555 1_555
C7 N5 1_555 1_555
C10 N5 1_555 1_555
C11 C13 1_555 1_555
C12 O9 1_555 1_555
C17 N10 1_555 1_555
C20 N10 1_555 1_555
C24 C25 1_555 1_555
C24 O40 1_555 1_555
C27 N15 1_555 1_555
C30 N15 1_555 1_555
C31 C34 1_555 1_555
C32 O46 1_555 1_555
C37 N20 1_555 1_555
C40 N20 1_555 1_555

#END
