
#######################################################################
#
#                 Cambridge Crystallographic Data Centre
#                                CCDC 
#
#######################################################################
#
# If this CIF has been generated from an entry in the Cambridge 
# Structural Database, then it will include bibliographic, chemical, 
# crystal, experimental, refinement or atomic coordinate data resulting 
# from the CCDC's data processing and validation procedures.
#
#######################################################################

data_KELZOR
_chemical_formula_moiety         'C18 H16 Cl1 N3 O1'
_chemical_name_systematic        
4-(2-chlorobenzylideneamino)-1,5-dimethyl-2-phenyl-1H-pyrazol-3(2H)-one
_symmetry_cell_setting           orthorhombic
_symmetry_space_group_name_H-M   'P 21 21 21'
_symmetry_Int_Tables_number      19
_space_group_name_Hall           'P 2ac 2ab'
loop_
_symmetry_equiv_pos_site_id
_symmetry_equiv_pos_as_xyz
1 x,y,z
2 1/2-x,-y,1/2+z
3 -x,1/2+y,1/2-z
4 1/2+x,1/2-y,-z
_cell_length_a                   6.8480(10)
_cell_length_b                   13.654(2)
_cell_length_c                   17.567(2)
_cell_angle_alpha                90
_cell_angle_beta                 90
_cell_angle_gamma                90
_cell_volume                     1642.56
_exptl_crystal_colour            yellow
_exptl_crystal_description       prism
_cell_formula_units_Z            4
loop_
_atom_site_label
_atom_site_type_symbol
_atom_site_fract_x
_atom_site_fract_y
_atom_site_fract_z
Cl1 Cl 0.51175(17) 0.34774(7) 0.23537(7)
O1 O 0.7916(2) 0.09926(11) 0.35265(10)
N1 N 1.0447(3) 0.29069(11) 0.36027(10)
N2 N 1.2339(3) 0.07475(13) 0.44531(10)
N3 N 1.0634(2) 0.03550(12) 0.41396(10)
C1 C 0.6710(4) 0.43838(18) 0.26717(14)
C2 C 0.6187(4) 0.5352(2) 0.25421(14)
H1 H 0.5014 0.5502 0.2302
C3 C 0.7411(5) 0.60775(19) 0.27698(14)
H2 H 0.7078 0.6729 0.2685
C4 C 0.9136(5) 0.58507(19) 0.31242(16)
H3 H 0.9975 0.6350 0.3275
C5 C 0.9633(4) 0.48913(16) 0.32579(14)
H4 H 1.0805 0.4751 0.3502
C6 C 0.8419(4) 0.41237(16) 0.30363(12)
C7 C 0.8915(4) 0.31063(15) 0.32170(12)
H5 H 0.8109 0.2602 0.3050
C8 C 1.0818(3) 0.19456(14) 0.38230(11)
C9 C 0.9576(3) 0.11015(14) 0.37798(11)
C10 C 1.2474(3) 0.16885(15) 0.42139(11)
C11 C 1.4217(4) 0.22941(18) 0.43757(16)
H6 H 1.4525 0.2255 0.4908
H7 H 1.3955 0.2963 0.4241
H8 H 1.5302 0.2057 0.4083
C12 C 1.3986(3) 0.00933(18) 0.45745(15)
H9 H 1.4410 -0.0167 0.4094
H10 H 1.3596 -0.0434 0.4902
H11 H 1.5038 0.0449 0.4807
C13 C 0.9699(3) -0.04389(14) 0.45148(12)
C14 C 0.9714(3) -0.05216(16) 0.52989(13)
H12 H 1.0378 -0.0065 0.5594
C15 C 0.8734(4) -0.12879(18) 0.56389(15)
H13 H 0.8745 -0.1351 0.6166
C16 C 0.7742(4) -0.19594(18) 0.52028(17)
H14 H 0.7077 -0.2473 0.5435
C17 C 0.7732(4) -0.18725(17) 0.44238(16)
H15 H 0.7050 -0.2324 0.4130
C18 C 0.8727(3) -0.11203(15) 0.40760(14)
H16 H 0.8743 -0.1071 0.3548
loop_
_geom_bond_atom_site_label_1
_geom_bond_atom_site_label_2
_geom_bond_site_symmetry_1
_geom_bond_site_symmetry_2
Cl1 C1 1_555 1_555
O1 C9 1_555 1_555
N1 C7 1_555 1_555
N2 N3 1_555 1_555
N3 C9 1_555 1_555
C1 C2 1_555 1_555
C2 H1 1_555 1_555
C3 C2 1_555 1_555
H2 C3 1_555 1_555
C4 C3 1_555 1_555
H3 C4 1_555 1_555
C5 C4 1_555 1_555
H4 C5 1_555 1_555
C6 C1 1_555 1_555
C7 C6 1_555 1_555
H5 C7 1_555 1_555
C8 N1 1_555 1_555
C9 C8 1_555 1_555
C10 N2 1_555 1_555
C11 C10 1_555 1_555
H6 C11 1_555 1_555
H7 C11 1_555 1_555
H8 C11 1_555 1_555
C12 N2 1_555 1_555
H9 C12 1_555 1_555
H10 C12 1_555 1_555
H11 C12 1_555 1_555
C13 N3 1_555 1_555
C14 C13 1_555 1_555
H12 C14 1_555 1_555
C15 C14 1_555 1_555
H13 C15 1_555 1_555
C16 C15 1_555 1_555
H14 C16 1_555 1_555
C17 C16 1_555 1_555
H15 C17 1_555 1_555
C18 C13 1_555 1_555
H16 C18 1_555 1_555
C5 C6 1_555 1_555
C8 C10 1_555 1_555
C17 C18 1_555 1_555

#END
