
#######################################################################
#
#                 Cambridge Crystallographic Data Centre
#                                CCDC 
#
#######################################################################
#
# If this CIF has been generated from an entry in the Cambridge 
# Structural Database, then it will include bibliographic, chemical, 
# crystal, experimental, refinement or atomic coordinate data resulting 
# from the CCDC's data processing and validation procedures.
#
#######################################################################

data_KELZIL
_chemical_formula_moiety         'C18 H16 Cl1 N3 O1'
_chemical_name_systematic        
4-(4-Chlorobenzylideneamino)-1,5-dimethyl-2-phenyl-1H-pyrazol-3(2H)-one
_symmetry_cell_setting           orthorhombic
_symmetry_space_group_name_H-M   'P b c a'
_symmetry_Int_Tables_number      61
_space_group_name_Hall           '-P 2ac 2ab'
loop_
_symmetry_equiv_pos_site_id
_symmetry_equiv_pos_as_xyz
1 x,y,z
2 1/2-x,-y,1/2+z
3 -x,1/2+y,1/2-z
4 1/2+x,1/2-y,-z
5 -x,-y,-z
6 1/2+x,y,1/2-z
7 x,1/2-y,1/2+z
8 1/2-x,1/2+y,z
_cell_length_a                   6.9710(10)
_cell_length_b                   17.5080(10)
_cell_length_c                   26.905(2)
_cell_angle_alpha                90
_cell_angle_beta                 90
_cell_angle_gamma                90
_cell_volume                     3283.71
_exptl_crystal_colour            yellow
_exptl_crystal_description       prism
_cell_formula_units_Z            8
loop_
_atom_site_label
_atom_site_type_symbol
_atom_site_fract_x
_atom_site_fract_y
_atom_site_fract_z
Cl1 Cl 0.66199(12) 1.04863(5) 0.28220(2)
O1 O 0.76288(18) 0.87648(8) 0.58652(5)
N1 N 1.0174(2) 0.88957(8) 0.49072(5)
N2 N 1.19968(19) 0.78390(9) 0.59305(6)
N3 N 1.02877(19) 0.81017(9) 0.61493(5)
C1 C 0.9432(3) 0.94939(12) 0.39332(8)
H1 H 1.0617 0.9261 0.3981
C2 C 0.8964(3) 0.97778(13) 0.34713(8)
H2 H 0.9821 0.9735 0.3208
C3 C 0.7216(3) 1.01242(12) 0.34052(8)
C4 C 0.5927(3) 1.01929(11) 0.37853(8)
H3 H 0.4750 1.0431 0.3735
C5 C 0.6408(3) 0.99016(11) 0.42441(8)
H4 H 0.5536 0.9941 0.4505
C6 C 0.8162(3) 0.95506(10) 0.43265(7)
C7 C 0.8611(3) 0.92509(10) 0.48203(7)
H5 H 0.7736 0.9321 0.5077
C8 C 1.0520(2) 0.85825(10) 0.53743(6)
C9 C 1.2152(2) 0.81793(10) 0.54810(7)
C10 C 0.9273(2) 0.85325(10) 0.57957(7)
C11 C 1.3897(3) 0.81000(12) 0.51708(8)
H6 H 1.4943 0.8366 0.5326
H7 H 1.3663 0.8314 0.4848
H8 H 1.4217 0.7569 0.5138
C12 C 1.3602(3) 0.76816(12) 0.62631(8)
H9 H 1.4668 0.7493 0.6074
H10 H 1.3226 0.7305 0.6503
H11 H 1.3968 0.8143 0.6431
C13 C 0.9352(2) 0.76378(11) 0.65078(6)
C14 C 0.9495(3) 0.68508(13) 0.64998(8)
H12 H 1.0240 0.6609 0.6260
C15 C 0.8520(3) 0.64253(15) 0.68512(9)
H13 H 0.8626 0.5896 0.6850
C16 C 0.7401(4) 0.67757(19) 0.72015(9)
H14 H 0.6749 0.6486 0.7437
C17 C 0.7245(3) 0.75551(19) 0.72040(8)
H15 H 0.6465 0.7791 0.7438
C18 C 0.8230(3) 0.79949(14) 0.68635(7)
H16 H 0.8141 0.8525 0.6873
loop_
_geom_bond_atom_site_label_1
_geom_bond_atom_site_label_2
_geom_bond_site_symmetry_1
_geom_bond_site_symmetry_2
Cl1 C3 1_555 1_555
O1 C10 1_555 1_555
N1 C7 1_555 1_555
N2 N3 1_555 1_555
N3 C10 1_555 1_555
C1 H1 1_555 1_555
C2 C1 1_555 1_555
H2 C2 1_555 1_555
C3 C2 1_555 1_555
C4 C3 1_555 1_555
H3 C4 1_555 1_555
C5 C4 1_555 1_555
H4 C5 1_555 1_555
C6 C1 1_555 1_555
C7 C6 1_555 1_555
H5 C7 1_555 1_555
C8 N1 1_555 1_555
C9 N2 1_555 1_555
C10 C8 1_555 1_555
C11 C9 1_555 1_555
H6 C11 1_555 1_555
H7 C11 1_555 1_555
H8 C11 1_555 1_555
C12 N2 1_555 1_555
H9 C12 1_555 1_555
H10 C12 1_555 1_555
H11 C12 1_555 1_555
C13 N3 1_555 1_555
C14 C13 1_555 1_555
H12 C14 1_555 1_555
C15 C14 1_555 1_555
H13 C15 1_555 1_555
C16 C15 1_555 1_555
H14 C16 1_555 1_555
C17 C16 1_555 1_555
H15 C17 1_555 1_555
C18 C13 1_555 1_555
H16 C18 1_555 1_555
C5 C6 1_555 1_555
C8 C9 1_555 1_555
C17 C18 1_555 1_555

#END
