
#######################################################################
#
#                 Cambridge Crystallographic Data Centre
#                                CCDC 
#
#######################################################################
#
# If this CIF has been generated from an entry in the Cambridge 
# Structural Database, then it will include bibliographic, chemical, 
# crystal, experimental, refinement or atomic coordinate data resulting 
# from the CCDC's data processing and validation procedures.
#
#######################################################################

data_KEMDAJ
_chemical_formula_moiety         'C46 H50 N2 O2 S4'
_chemical_name_systematic        
3,6-bis(5-(1-benzothiophen-2(3H)-ylidene)thiophen-2(5H)-ylidene)-2,5-bis(2-ethylhexyl)-2,3,5,6-tetrahydropyrrolo[3,4-c]pyrrole-1,4-dione
_symmetry_cell_setting           monoclinic
_symmetry_space_group_name_H-M   'P 21/c'
_symmetry_Int_Tables_number      14
_space_group_name_Hall           '-P 2ybc'
loop_
_symmetry_equiv_pos_site_id
_symmetry_equiv_pos_as_xyz
1 x,y,z
2 -x,1/2+y,1/2-z
3 -x,-y,-z
4 x,1/2-y,1/2+z
_cell_length_a                   5.9659(9)
_cell_length_b                   22.959(3)
_cell_length_c                   14.324(2)
_cell_angle_alpha                90
_cell_angle_beta                 98.239(6)
_cell_angle_gamma                90
_cell_volume                     1941.72
_exptl_crystal_colour            'dark red'
_exptl_crystal_description       plate
_cell_formula_units_Z            2
loop_
_atom_site_label
_atom_site_type_symbol
_atom_site_fract_x
_atom_site_fract_y
_atom_site_fract_z
C1 C 0.2640(11) 0.5348(3) 0.5420(5)
C2 C 0.0508(11) 0.5304(3) 0.3922(4)
C3 C -0.0631(10) 0.4991(3) 0.4543(4)
C4 C -0.0166(11) 0.5380(3) 0.2927(4)
C5 C -0.2196(11) 0.5185(3) 0.2448(4)
H1 H -0.3303 0.4989 0.2746
C6 C -0.2474(11) 0.5304(3) 0.1477(4)
H2 H -0.3790 0.5202 0.1054
C7 C -0.0664(11) 0.5582(3) 0.1206(5)
C8 C -0.0346(11) 0.5767(3) 0.0258(4)
C9 C -0.1061(11) 0.5951(3) -0.1450(5)
C10 C -0.1850(12) 0.5997(3) -0.2409(5)
H3 H -0.3318 0.5863 -0.2663
C11 C -0.0426(13) 0.6244(3) -0.2981(5)
H4 H -0.0926 0.6279 -0.3639
C12 C 0.1691(13) 0.6441(3) -0.2618(5)
H5 H 0.2614 0.6614 -0.3030
C13 C 0.2510(12) 0.6395(3) -0.1676(5)
H6 H 0.3988 0.6528 -0.1436
C14 C 0.1091(11) 0.6143(3) -0.1070(4)
C15 C 0.4200(12) 0.5896(2) 0.4158(5)
C16 C 0.1841(8) 0.6048(2) 0.0029(3)
C17 C 0.3553(18) 0.6551(3) 0.4081(7)
C18 C 0.3025(19) 0.6771(3) 0.5044(6)
C19 C 0.216(2) 0.7399(5) 0.4998(10)
C20 C 0.565(3) 0.6892(5) 0.3819(9)
C21 C 0.576(4) 0.6840(7) 0.2755(10)
C22 C 0.745(2) 0.7285(6) 0.2454(9)
C23 C 0.773(4) 0.7205(10) 0.1415(10)
N1 N 0.2455(9) 0.5528(2) 0.4455(4)
O1 O 0.4289(8) 0.54753(19) 0.6001(3)
S1 S 0.1416(3) 0.57061(8) 0.21484(12)
S2 S -0.2558(4) 0.56577(10) -0.06394(15)
H7 H 0.469(11) 0.570(3) 0.350(5)
H8 H 0.554(10) 0.583(3) 0.456(5)
C1B C -0.2640(11) 0.4652(3) 0.4580(5)
C2B C -0.0508(11) 0.4696(3) 0.6078(4)
C3B C 0.0631(10) 0.5009(3) 0.5457(4)
C4B C 0.0166(11) 0.4620(3) 0.7073(4)
C5B C 0.2196(11) 0.4815(3) 0.7552(4)
H1B H 0.3303 0.5011 0.7254
C6B C 0.2474(11) 0.4696(3) 0.8523(4)
H2B H 0.3790 0.4798 0.8946
C7B C 0.0664(11) 0.4418(3) 0.8794(5)
C8B C 0.0346(11) 0.4233(3) 0.9742(4)
C9B C 0.1061(11) 0.4049(3) 1.1450(5)
C10B C 0.1850(12) 0.4003(3) 1.2409(5)
H3B H 0.3318 0.4137 1.2663
C11B C 0.0426(13) 0.3756(3) 1.2981(5)
H4B H 0.0926 0.3721 1.3639
C12B C -0.1691(13) 0.3559(3) 1.2618(5)
H5B H -0.2614 0.3386 1.3030
C13B C -0.2510(12) 0.3605(3) 1.1676(5)
H6B H -0.3988 0.3472 1.1436
C14B C -0.1091(11) 0.3857(3) 1.1070(4)
C15B C -0.4200(12) 0.4104(2) 0.5842(5)
C16B C -0.1841(8) 0.3952(2) 0.9971(3)
C17B C -0.3553(18) 0.3449(3) 0.5919(7)
C18B C -0.3025(19) 0.3229(3) 0.4956(6)
C19B C -0.216(2) 0.2601(5) 0.5002(10)
C20B C -0.565(3) 0.3108(5) 0.6181(9)
C21B C -0.576(4) 0.3160(7) 0.7245(10)
C22B C -0.745(2) 0.2715(6) 0.7546(9)
C23B C -0.773(4) 0.2795(10) 0.8585(10)
N1B N -0.2455(9) 0.4472(2) 0.5545(4)
O1B O -0.4289(8) 0.45247(19) 0.3999(3)
S1B S -0.1416(3) 0.42939(8) 0.78516(12)
S2B S 0.2558(4) 0.43423(10) 1.06394(15)
H7B H -0.469(11) 0.430(3) 0.650(5)
H8B H -0.554(10) 0.417(3) 0.544(5)
C24? C 0.404(4) 0.6540(6) 0.443(2)
C25? C 0.163(4) 0.6774(9) 0.419(2)
C26? C 0.130(8) 0.7351(18) 0.470(4)
C27? C 0.577(6) 0.6915(9) 0.400(3)
C28? C 0.586(14) 0.676(2) 0.296(4)
C29? C 0.646(8) 0.729(2) 0.240(3)
C30? C 0.704(17) 0.711(4) 0.143(4)
C31? C -0.2558(4) 0.56577(10) -0.06394(15)
S3? S 0.1841(8) 0.6048(2) 0.0029(3)
loop_
_geom_bond_atom_site_label_1
_geom_bond_atom_site_label_2
_geom_bond_site_symmetry_1
_geom_bond_site_symmetry_2
C1 N1 1_555 1_555
C2 C3 1_555 1_555
C3 C1B 1_555 1_555
C4 C2 1_555 1_555
C5 C4 1_555 1_555
H1 C5 1_555 1_555
C6 C5 1_555 1_555
H2 C6 1_555 1_555
C7 C6 1_555 1_555
C8 C7 1_555 1_555
C9 C10 1_555 1_555
C10 H3 1_555 1_555
C11 C10 1_555 1_555
H4 C11 1_555 1_555
C12 C11 1_555 1_555
H5 C12 1_555 1_555
C13 C12 1_555 1_555
H6 C13 1_555 1_555
C14 C9 1_555 1_555
C15 C17 1_555 1_555
C16 C8 1_555 1_555
C17 C18 1_555 1_555
C18 C19 1_555 1_555
C20 C17 1_555 1_555
C21 C20 1_555 1_555
C22 C21 1_555 1_555
C23 C22 1_555 1_555
N1 C2 1_555 1_555
O1 C1 1_555 1_555
S1 C4 1_555 1_555
S2 C8 1_555 1_555
H7 C15 1_555 1_555
H8 C15 1_555 1_555
C1B N1B 1_555 1_555
C2B C3B 1_555 1_555
C3B C1 1_555 1_555
C4B C2B 1_555 1_555
C5B C4B 1_555 1_555
H1B C5B 1_555 1_555
C6B C5B 1_555 1_555
H2B C6B 1_555 1_555
C7B C6B 1_555 1_555
C8B C7B 1_555 1_555
C9B C10B 1_555 1_555
C10B H3B 1_555 1_555
C11B C10B 1_555 1_555
H4B C11B 1_555 1_555
C12B C11B 1_555 1_555
H5B C12B 1_555 1_555
C13B C12B 1_555 1_555
H6B C13B 1_555 1_555
C14B C9B 1_555 1_555
C15B C17B 1_555 1_555
C16B C8B 1_555 1_555
C17B C18B 1_555 1_555
C18B C19B 1_555 1_555
C20B C17B 1_555 1_555
C21B C20B 1_555 1_555
C22B C21B 1_555 1_555
C23B C22B 1_555 1_555
N1B C2B 1_555 1_555
O1B C1B 1_555 1_555
S1B C4B 1_555 1_555
S2B C8B 1_555 1_555
H7B C15B 1_555 1_555
H8B C15B 1_555 1_555
C3 C3B 1_555 1_555
C7 S1 1_555 1_555
C9 S2 1_555 1_555
C13 C14 1_555 1_555
C14 C16 1_555 1_555
C15 N1 1_555 1_555
C7B S1B 1_555 1_555
C9B S2B 1_555 1_555
C13B C14B 1_555 1_555
C14B C16B 1_555 1_555
C15B N1B 1_555 1_555

#END
