
#######################################################################
#
#                 Cambridge Crystallographic Data Centre
#                                CCDC 
#
#######################################################################
#
# If this CIF has been generated from an entry in the Cambridge 
# Structural Database, then it will include bibliographic, chemical, 
# crystal, experimental, refinement or atomic coordinate data resulting 
# from the CCDC's data processing and validation procedures.
#
#######################################################################

data_KEMDEN
_chemical_formula_moiety         'C48 H54 N4 O2 S2'
_chemical_name_systematic        
2,5-bis(2-ethylhexyl)-3,6-bis(5-(1-methyl-1H-indol-2-yl)-2-thienyl)-2,5-dihydropyrrolo[3,4-c]pyrrole-1,4-dione
_symmetry_cell_setting           triclinic
_symmetry_space_group_name_H-M   'P -1'
_symmetry_Int_Tables_number      2
_space_group_name_Hall           '-P 1'
loop_
_symmetry_equiv_pos_site_id
_symmetry_equiv_pos_as_xyz
1 x,y,z
2 -x,-y,-z
_cell_length_a                   6.312(3)
_cell_length_b                   12.336(7)
_cell_length_c                   13.651(8)
_cell_angle_alpha                72.017(18)
_cell_angle_beta                 87.371(19)
_cell_angle_gamma                80.701(18)
_cell_volume                     997.711
_exptl_crystal_colour            'dark brown'
_exptl_crystal_description       plate
_cell_formula_units_Z            1
loop_
_atom_site_label
_atom_site_type_symbol
_atom_site_fract_x
_atom_site_fract_y
_atom_site_fract_z
C1 C 0.8079(13) 0.9478(10) -0.0591(7)
C2 C 0.9814(14) 1.0074(9) -0.0516(7)
C3 C 0.8705(13) 0.9260(9) 0.1110(7)
C4 C 0.8557(13) 0.8959(8) 0.2220(7)
C5 C 1.0039(13) 0.9053(9) 0.2868(7)
H1 H 1.1375 0.9303 0.2642
C6 C 0.9409(13) 0.8746(8) 0.3899(7)
H2 H 1.0276 0.8765 0.4443
C7 C 0.7416(13) 0.8415(8) 0.4050(7)
C8 C 0.6109(13) 0.8039(8) 0.4984(7)
C9 C 0.4511(14) 0.8071(9) 0.6457(7)
C10 C 0.3877(15) 0.8299(9) 0.7396(7)
H3 H 0.4581 0.8771 0.7665
C11 C 0.2184(17) 0.7791(9) 0.7886(8)
H4 H 0.1693 0.7925 0.8513
C12 C 0.1176(18) 0.7105(10) 0.7518(8)
H5 H 0.0013 0.6776 0.7897
C13 C 0.1793(17) 0.6864(10) 0.6597(8)
H6 H 0.1084 0.6377 0.6349
C14 C 0.3498(16) 0.7374(9) 0.6063(7)
C15 C 0.4565(15) 0.7372(8) 0.5100(8)
H7 H 0.4240 0.6978 0.4641
C16 C 0.5747(13) 0.8276(7) 0.0677(7)
C17 C 0.6517(17) 0.6999(8) 0.1176(8)
C18 C 0.8001(17) 0.6491(11) 0.0489(11)
C19 C 0.675(3) 0.6325(16) -0.0371(12)
C20 C 0.384(3) 0.6251(16) 0.2464(11)
C21 C 0.232(2) 0.5330(11) 0.2792(10)
C22 C 0.132(2) 0.5521(11) 0.3805(10)
N1 N 0.7482(10) 0.8974(6) 0.0461(5)
N2 N 0.6123(11) 0.8479(7) 0.5787(5)
O1 O 0.7126(9) 0.9381(6) -0.1308(5)
S1 S 0.6316(4) 0.8482(3) 0.29073(19)
C23 C 0.7411(14) 0.9332(9) 0.5884(7)
H8 H 0.8893 0.8957 0.6064
H9 H 0.6806 0.9658 0.6424
H10 H 0.7395 0.9950 0.5227
C24 C 0.451(2) 0.6394(11) 0.1371(10)
C1A C 1.1921(13) 1.0522(10) 0.0591(7)
C2A C 1.0186(14) 0.9926(9) 0.0516(7)
C3A C 1.1295(13) 1.0740(9) -0.1110(7)
C4A C 1.1443(13) 1.1041(8) -0.2220(7)
C5A C 0.9961(13) 1.0947(9) -0.2868(7)
H1A H 0.8625 1.0697 -0.2642
C6A C 1.0591(13) 1.1254(8) -0.3899(7)
H2A H 0.9724 1.1235 -0.4443
C7A C 1.2584(13) 1.1585(8) -0.4050(7)
C8A C 1.3891(13) 1.1961(8) -0.4984(7)
C9A C 1.5489(14) 1.1929(9) -0.6457(7)
C10A C 1.6123(15) 1.1701(9) -0.7396(7)
H3A H 1.5419 1.1229 -0.7665
C11A C 1.7816(17) 1.2209(9) -0.7886(8)
H4A H 1.8307 1.2075 -0.8513
C12A C 1.8824(18) 1.2895(10) -0.7518(8)
H5A H 1.9987 1.3224 -0.7897
C13A C 1.8207(17) 1.3136(10) -0.6597(8)
H6A H 1.8916 1.3623 -0.6349
C14A C 1.6502(16) 1.2626(9) -0.6063(7)
C15A C 1.5435(15) 1.2628(8) -0.5100(8)
H7A H 1.5760 1.3022 -0.4641
C16A C 1.4253(13) 1.1724(7) -0.0677(7)
C17A C 1.3483(17) 1.3001(8) -0.1176(8)
C18A C 1.1999(17) 1.3509(11) -0.0489(11)
C19A C 1.325(3) 1.3675(16) 0.0371(12)
C20A C 1.616(3) 1.3749(16) -0.2464(11)
C21A C 1.768(2) 1.4670(11) -0.2792(10)
C22A C 1.868(2) 1.4479(11) -0.3805(10)
N1A N 1.2518(10) 1.1026(6) -0.0461(5)
N2A N 1.3877(11) 1.1521(7) -0.5787(5)
O1A O 1.2874(9) 1.0619(6) 0.1308(5)
S1A S 1.3684(4) 1.1518(3) -0.29073(19)
C23A C 1.2589(14) 1.0668(9) -0.5884(7)
H8A H 1.1107 1.1043 -0.6064
H9A H 1.3194 1.0342 -0.6424
H10A H 1.2605 1.0050 -0.5227
C24A C 1.549(2) 1.3606(11) -0.1371(10)
C25? C 0.610(5) 0.744(3) 0.003(3)
C26? C 0.852(5) 0.695(5) 0.014(7)
C27? C 0.867(10) 0.564(4) 0.033(10)
C28? C 0.495(7) 0.642(2) 0.063(4)
C29? C 0.601(9) 0.599(6) 0.171(4)
C30? C 0.442(13) 0.530(6) 0.243(4)
C31? C 0.453(13) 0.558(7) 0.345(5)
loop_
_geom_bond_atom_site_label_1
_geom_bond_atom_site_label_2
_geom_bond_site_symmetry_1
_geom_bond_site_symmetry_2
C1 C2 1_555 1_555
C2 C2A 1_555 1_555
C3 C4 1_555 1_555
C4 C5 1_555 1_555
C5 H1 1_555 1_555
C6 C5 1_555 1_555
H2 C6 1_555 1_555
C7 C6 1_555 1_555
C8 C7 1_555 1_555
C9 C10 1_555 1_555
C10 H3 1_555 1_555
C11 C10 1_555 1_555
H4 C11 1_555 1_555
C12 C11 1_555 1_555
H5 C12 1_555 1_555
C13 C12 1_555 1_555
H6 C13 1_555 1_555
C14 C9 1_555 1_555
C15 C8 1_555 1_555
H7 C15 1_555 1_555
C16 C17 1_555 1_555
C17 C18 1_555 1_555
C18 C19 1_555 1_555
C20 C21 1_555 1_555
C21 C22 1_555 1_555
N1 C1 1_555 1_555
N2 C8 1_555 1_555
O1 C1 1_555 1_555
S1 C4 1_555 1_555
C23 N2 1_555 1_555
H8 C23 1_555 1_555
H9 C23 1_555 1_555
H10 C23 1_555 1_555
C24 C17 1_555 1_555
C1A C2A 1_555 1_555
C2A C3 1_555 1_555
C3A C2 1_555 1_555
C4A C3A 1_555 1_555
C5A C4A 1_555 1_555
H1A C5A 1_555 1_555
C6A C5A 1_555 1_555
H2A C6A 1_555 1_555
C7A C6A 1_555 1_555
C8A C7A 1_555 1_555
C9A C10A 1_555 1_555
C10A H3A 1_555 1_555
C11A C10A 1_555 1_555
H4A C11A 1_555 1_555
C12A C11A 1_555 1_555
H5A C12A 1_555 1_555
C13A C12A 1_555 1_555
H6A C13A 1_555 1_555
C14A C9A 1_555 1_555
C15A C8A 1_555 1_555
H7A C15A 1_555 1_555
C16A C17A 1_555 1_555
C17A C18A 1_555 1_555
C18A C19A 1_555 1_555
C20A C21A 1_555 1_555
C21A C22A 1_555 1_555
N1A C1A 1_555 1_555
N2A C8A 1_555 1_555
O1A C1A 1_555 1_555
S1A C4A 1_555 1_555
C23A N2A 1_555 1_555
H8A C23A 1_555 1_555
H9A C23A 1_555 1_555
H10A C23A 1_555 1_555
C24A C17A 1_555 1_555
C3 N1 1_555 1_555
C7 S1 1_555 1_555
C9 N2 1_555 1_555
C13 C14 1_555 1_555
C14 C15 1_555 1_555
C16 N1 1_555 1_555
C20 C24 1_555 1_555
C3A N1A 1_555 1_555
C7A S1A 1_555 1_555
C9A N2A 1_555 1_555
C13A C14A 1_555 1_555
C14A C15A 1_555 1_555
C16A N1A 1_555 1_555
C20A C24A 1_555 1_555

#END
