
#######################################################################
#
#                 Cambridge Crystallographic Data Centre
#                                CCDC 
#
#######################################################################
#
# If this CIF has been generated from an entry in the Cambridge 
# Structural Database, then it will include bibliographic, chemical, 
# crystal, experimental, refinement or atomic coordinate data resulting 
# from the CCDC's data processing and validation procedures.
#
#######################################################################

data_KEMGAL
_chemical_formula_moiety         'C25 H30 N1 O1 1+,Cl1 1-'
_chemical_name_systematic        
'(R)-N-((R)-1-(2-Hydroxy-5-methylphenyl)-2-phenylethyl)-2-methyl-1-phenylpropylammonium chloride'
_symmetry_cell_setting           orthorhombic
_symmetry_space_group_name_H-M   'P 21 21 21'
_symmetry_Int_Tables_number      19
_space_group_name_Hall           'P 2ac 2ab'
loop_
_symmetry_equiv_pos_site_id
_symmetry_equiv_pos_as_xyz
1 x,y,z
2 1/2-x,-y,1/2+z
3 -x,1/2+y,1/2-z
4 1/2+x,1/2-y,-z
_cell_length_a                   9.964(2)
_cell_length_b                   11.565(2)
_cell_length_c                   19.882(4)
_cell_angle_alpha                90
_cell_angle_beta                 90
_cell_angle_gamma                90
_cell_volume                     2291.08
_exptl_crystal_colour            colorless
_exptl_crystal_description       block
_chemical_melting_point          '475-476 K'
_cell_formula_units_Z            4
_exptl_crystal_recrystallization_method 'ethyl acetate/ethanol'
loop_
_atom_site_label
_atom_site_type_symbol
_atom_site_fract_x
_atom_site_fract_y
_atom_site_fract_z
C1 C 0.1463(3) 0.5176(2) 0.88723(14)
C2 C 0.1408(4) 0.6082(3) 0.93194(14)
H1 H 0.0649 0.6549 0.9339
C3 C 0.2478(4) 0.6295(3) 0.97370(16)
H2 H 0.2435 0.6914 1.0034
C4 C 0.3614(3) 0.5614(3) 0.97276(14)
C5 C 0.4820(4) 0.5902(3) 1.01569(17)
H3 H 0.5198 0.5202 1.0334
H4 H 0.4549 0.6395 1.0521
H5 H 0.5479 0.6293 0.9888
C6 C 0.3634(3) 0.4690(2) 0.92814(13)
H6 H 0.4387 0.4216 0.9267
C7 C 0.2567(3) 0.4451(2) 0.88567(13)
C8 C 0.2611(3) 0.3412(2) 0.83939(11)
H7 H 0.3523 0.3096 0.8398
C9 C 0.1629(3) 0.2444(2) 0.85856(14)
H8 H 0.0755 0.2778 0.8678
H9 H 0.1533 0.1917 0.8209
C10 C 0.2099(3) 0.1779(3) 0.91947(13)
C11 C 0.1790(4) 0.2133(3) 0.98405(15)
H10 H 0.1273 0.2793 0.9906
C12 C 0.2245(5) 0.1511(3) 1.03900(17)
H11 H 0.2037 0.1758 1.0823
C13 C 0.2990(4) 0.0547(4) 1.0301(2)
H12 H 0.3305 0.0142 1.0673
C14 C 0.3283(4) 0.0166(4) 0.9670(2)
H13 H 0.3776 -0.0509 0.9610
C15 C 0.2840(4) 0.0791(3) 0.91200(17)
H14 H 0.3051 0.0535 0.8690
C16 C 0.3237(3) 0.4615(2) 0.73565(13)
H15 H 0.3304 0.5298 0.7646
C17 C 0.2646(4) 0.5003(3) 0.66817(15)
H16 H 0.2578 0.4325 0.6388
C18 C 0.1256(4) 0.5526(3) 0.67546(16)
H17 H 0.0630 0.4935 0.6883
H18 H 0.0984 0.5858 0.6333
H19 H 0.1274 0.6117 0.7094
C19 C 0.3581(5) 0.5866(3) 0.63542(18)
H20 H 0.3659 0.6538 0.6635
H21 H 0.3228 0.6087 0.5924
H22 H 0.4450 0.5522 0.6296
C20 C 0.4622(3) 0.4092(2) 0.73013(14)
C21 C 0.5691(4) 0.4562(3) 0.76413(15)
H23 H 0.5541 0.5179 0.7932
C22 C 0.6982(4) 0.4145(4) 0.75654(19)
H24 H 0.7693 0.4485 0.7795
C23 C 0.7197(4) 0.3219(3) 0.7144(2)
H25 H 0.8059 0.2926 0.7090
C24 C 0.6153(4) 0.2728(3) 0.68051(18)
H26 H 0.6306 0.2103 0.6520
C25 C 0.4874(4) 0.3154(3) 0.68839(14)
H27 H 0.4167 0.2809 0.6654
N1 N 0.2278(2) 0.37861(18) 0.76843(10)
H28 H 0.2226 0.3149 0.7426
H29 H 0.1459 0.4115 0.7688
O1 O 0.0433(2) 0.49385(17) 0.84297(11)
H30 H -0.0019 0.5522 0.8373
Cl1 Cl 0.15209(11) 0.18788(7) 0.66694(4)
loop_
_geom_bond_atom_site_label_1
_geom_bond_atom_site_label_2
_geom_bond_site_symmetry_1
_geom_bond_site_symmetry_2
C1 C2 1_555 1_555
C2 H1 1_555 1_555
C3 C2 1_555 1_555
H2 C3 1_555 1_555
C4 C3 1_555 1_555
C5 C4 1_555 1_555
H3 C5 1_555 1_555
H4 C5 1_555 1_555
H5 C5 1_555 1_555
C6 C4 1_555 1_555
H6 C6 1_555 1_555
C7 C1 1_555 1_555
C8 C7 1_555 1_555
H7 C8 1_555 1_555
C9 C8 1_555 1_555
H8 C9 1_555 1_555
H9 C9 1_555 1_555
C10 C9 1_555 1_555
C11 C10 1_555 1_555
H10 C11 1_555 1_555
C12 C11 1_555 1_555
H11 C12 1_555 1_555
C13 C12 1_555 1_555
H12 C13 1_555 1_555
C14 C13 1_555 1_555
H13 C14 1_555 1_555
C15 C10 1_555 1_555
H14 C15 1_555 1_555
C16 H15 1_555 1_555
C17 C16 1_555 1_555
H16 C17 1_555 1_555
C18 C17 1_555 1_555
H17 C18 1_555 1_555
H18 C18 1_555 1_555
H19 C18 1_555 1_555
C19 C17 1_555 1_555
H20 C19 1_555 1_555
H21 C19 1_555 1_555
H22 C19 1_555 1_555
C20 C16 1_555 1_555
C21 C20 1_555 1_555
H23 C21 1_555 1_555
C22 C21 1_555 1_555
H24 C22 1_555 1_555
C23 C22 1_555 1_555
H25 C23 1_555 1_555
C24 C23 1_555 1_555
H26 C24 1_555 1_555
C25 C20 1_555 1_555
H27 C25 1_555 1_555
N1 C8 1_555 1_555
H28 N1 1_555 1_555
H29 N1 1_555 1_555
O1 C1 1_555 1_555
H30 O1 1_555 1_555
C6 C7 1_555 1_555
C14 C15 1_555 1_555
C16 N1 1_555 1_555
C24 C25 1_555 1_555

#END
