
#######################################################################
#
#                 Cambridge Crystallographic Data Centre
#                                CCDC 
#
#######################################################################
#
# If this CIF has been generated from an entry in the Cambridge 
# Structural Database, then it will include bibliographic, chemical, 
# crystal, experimental, refinement or atomic coordinate data resulting 
# from the CCDC's data processing and validation procedures.
#
#######################################################################

data_KEMJUK
_chemical_formula_moiety         'C25 H25 N3 O2'
_chemical_name_systematic        
(2-benzyl-5-methyl-3-phenyl-1,2-oxazolidin-4-yl)(2,3-dihydro-1H-pyrrolo[2,3-b]pyridin-1-yl)methanone
_symmetry_cell_setting           orthorhombic
_symmetry_space_group_name_H-M   'P 21 21 21'
_symmetry_Int_Tables_number      19
_space_group_name_Hall           'P 2ac 2ab'
loop_
_symmetry_equiv_pos_site_id
_symmetry_equiv_pos_as_xyz
1 x,y,z
2 1/2-x,-y,1/2+z
3 1/2+x,1/2-y,-z
4 -x,1/2+y,1/2-z
_cell_length_a                   7.80658(14)
_cell_length_b                   15.2492(3)
_cell_length_c                   34.5094(6)
_cell_angle_alpha                90
_cell_angle_beta                 90
_cell_angle_gamma                90
_cell_volume                     4108.14
_exptl_crystal_colour            colorless
_exptl_crystal_description       prism
_cell_formula_units_Z            8
loop_
_atom_site_label
_atom_site_type_symbol
_atom_site_fract_x
_atom_site_fract_y
_atom_site_fract_z
O1 O 0.3512(2) 0.67140(9) 0.48963(4)
O2 O 0.35136(19) 0.43437(8) 0.43897(4)
N1 N 0.3968(2) 0.74637(10) 0.43463(4)
N2 N 0.3495(2) 0.71257(10) 0.36702(4)
N3 N 0.5245(2) 0.46554(10) 0.42949(5)
C1 C 0.4189(3) 0.76180(12) 0.39461(5)
C2 C 0.3591(3) 0.67038(13) 0.45403(6)
C3 C 0.6502(3) 0.60344(12) 0.40648(6)
C4 C 0.5191(3) 0.83632(13) 0.38903(6)
C5 C 0.5589(3) 0.85921(14) 0.35163(6)
H1 H 0.6312 0.9079 0.3463
C6 C 0.6607(3) 0.31780(13) 0.42308(6)
C7 C 0.3313(3) 0.58638(12) 0.43129(5)
H2 H 0.2359 0.5962 0.4124
C8 C 0.3867(3) 0.73821(13) 0.33064(6)
H3 H 0.3388 0.7057 0.3098
C9 C 0.4892(3) 0.54915(12) 0.40869(6)
H4 H 0.4520 0.5348 0.3817
C10 C 0.8712(3) 0.69118(13) 0.43658(6)
H5 H 0.9219 0.7148 0.4593
C11 C 0.8646(3) 0.67685(13) 0.36765(6)
H6 H 0.9118 0.6897 0.3429
C12 C 0.7297(3) 0.63672(12) 0.43950(6)
H7 H 0.6862 0.6219 0.4644
C13 C 0.2813(3) 0.50998(13) 0.45820(6)
H8 H 0.3387 0.5177 0.4839
C14 C 0.9390(3) 0.71118(13) 0.40062(6)
H9 H 1.0362 0.7484 0.3986
C15 C 0.5955(3) 0.40025(13) 0.40333(6)
H10 H 0.6911 0.4272 0.3887
H11 H 0.5061 0.3835 0.3844
C16 C 0.7214(3) 0.62374(13) 0.37053(6)
H12 H 0.6708 0.6008 0.3476
C17 C 0.4692(3) 0.82059(13) 0.45694(6)
H13 H 0.5475 0.7991 0.4774
H14 H 0.3767 0.8553 0.4692
C18 C 0.5667(3) 0.87622(13) 0.42725(6)
H15 H 0.5306 0.9384 0.4286
H16 H 0.6918 0.8727 0.4316
C19 C 0.4903(3) 0.80902(13) 0.32170(6)
H17 H 0.5144 0.8232 0.2955
C20 C 0.7551(3) 0.25792(13) 0.40125(6)
H18 H 0.7765 0.2694 0.3746
C21 C 0.7882(3) 0.16562(14) 0.45669(6)
H19 H 0.8324 0.1139 0.4683
C22 C 0.8179(3) 0.18205(14) 0.41798(6)
H20 H 0.8812 0.1414 0.4028
C23 C 0.6306(3) 0.29990(14) 0.46162(6)
H21 H 0.5654 0.3398 0.4768
C24 C 0.0926(3) 0.49565(14) 0.46430(6)
H22 H 0.0433 0.5468 0.4774
H23 H 0.0364 0.4875 0.4392
H24 H 0.0752 0.4433 0.4803
C25 C 0.6947(3) 0.22414(14) 0.47851(6)
H25 H 0.6741 0.2126 0.5052
O3 O 1.1318(2) 0.53007(9) 0.15741(4)
O4 O 1.1326(2) 0.60978(9) 0.26891(4)
N4 N 1.2400(2) 0.33561(11) 0.26461(5)
N5 N 0.9719(2) 0.49056(11) 0.17165(4)
N6 N 1.1626(2) 0.47427(10) 0.29318(4)
C26 C 1.1867(3) 0.38288(13) 0.29446(6)
C27 C 0.8463(3) 0.48618(13) 0.10623(5)
C28 C 1.1564(3) 0.53141(13) 0.26269(6)
C29 C 1.0302(3) 0.43893(13) 0.20589(5)
H26 H 1.0767 0.3813 0.1969
C30 C 1.1984(3) 0.56945(13) 0.19200(6)
H27 H 1.1265 0.6209 0.1996
C31 C 0.8989(3) 0.46861(14) 0.06828(6)
H28 H 0.9811 0.4240 0.0635
C32 C 0.8824(3) 0.42265(14) 0.23310(5)
C33 C 1.1477(3) 0.35174(14) 0.33132(6)
C34 C 0.7268(3) 0.55210(13) 0.11203(6)
H29 H 0.6887 0.5645 0.1376
C35 C 0.8314(3) 0.51629(14) 0.03761(6)
H30 H 0.8665 0.5035 0.0119
C36 C 1.1806(3) 0.49593(13) 0.22208(5)
H31 H 1.2876 0.4599 0.2216
C37 C 1.2526(3) 0.24857(14) 0.27208(6)
H32 H 1.2892 0.2113 0.2516
C38 C 1.1631(3) 0.26323(14) 0.33778(6)
H33 H 1.1382 0.2387 0.3624
C39 C 0.9140(3) 0.43462(14) 0.14011(6)
H34 H 0.8227 0.3952 0.1498
H35 H 1.0106 0.3976 0.1313
C40 C 1.0938(3) 0.42527(14) 0.35721(6)
H36 H 1.1700 0.4295 0.3801
H37 H 0.9744 0.4171 0.3662
C41 C 0.8480(3) 0.33834(15) 0.24623(6)
H38 H 0.9108 0.2903 0.2360
C42 C 0.7838(3) 0.49137(16) 0.24708(6)
H39 H 0.8033 0.5492 0.2378
C43 C 1.1094(3) 0.50710(14) 0.33171(6)
H40 H 0.9982 0.5380 0.3300
H41 H 1.1961 0.5479 0.3423
C44 C 0.6619(3) 0.60025(14) 0.08147(6)
H42 H 0.5816 0.6458 0.0862
C45 C 1.2162(3) 0.21060(14) 0.30709(6)
H43 H 1.2271 0.1490 0.3104
C46 C 0.7139(3) 0.58198(14) 0.04418(6)
H44 H 0.6688 0.6146 0.0231
C47 C 1.3796(3) 0.59805(14) 0.18485(6)
H45 H 1.4259 0.6250 0.2084
H46 H 1.4493 0.5470 0.1778
H47 H 1.3819 0.6408 0.1636
C48 C 0.6569(3) 0.4763(2) 0.27449(6)
H48 H 0.5889 0.5235 0.2838
C49 C 0.7251(4) 0.3235(2) 0.27372(7)
H49 H 0.7053 0.2655 0.2828
C50 C 0.6299(4) 0.3921(2) 0.28824(7)
H50 H 0.5459 0.3817 0.3076
loop_
_geom_bond_atom_site_label_1
_geom_bond_atom_site_label_2
_geom_bond_site_symmetry_1
_geom_bond_site_symmetry_2
O1 C2 1_555 1_555
O2 N3 1_555 1_555
N1 C1 1_555 1_555
N2 C1 1_555 1_555
N3 C9 1_555 1_555
C1 C4 1_555 1_555
C2 N1 1_555 1_555
C3 C9 1_555 1_555
C4 C5 1_555 1_555
C5 H1 1_555 1_555
C6 C15 1_555 1_555
C7 C2 1_555 1_555
H2 C7 1_555 1_555
C8 N2 1_555 1_555
H3 C8 1_555 1_555
C9 C7 1_555 1_555
H4 C9 1_555 1_555
C10 H5 1_555 1_555
C11 H6 1_555 1_555
C12 C3 1_555 1_555
H7 C12 1_555 1_555
C13 O2 1_555 1_555
H8 C13 1_555 1_555
C14 C10 1_555 1_555
H9 C14 1_555 1_555
C15 N3 1_555 1_555
H10 C15 1_555 1_555
H11 C15 1_555 1_555
C16 C3 1_555 1_555
H12 C16 1_555 1_555
C17 N1 1_555 1_555
H13 C17 1_555 1_555
H14 C17 1_555 1_555
C18 C4 1_555 1_555
H15 C18 1_555 1_555
H16 C18 1_555 1_555
C19 C5 1_555 1_555
H17 C19 1_555 1_555
C20 C6 1_555 1_555
H18 C20 1_555 1_555
C21 H19 1_555 1_555
C22 C20 1_555 1_555
H20 C22 1_555 1_555
C23 C6 1_555 1_555
H21 C23 1_555 1_555
C24 C13 1_555 1_555
H22 C24 1_555 1_555
H23 C24 1_555 1_555
H24 C24 1_555 1_555
C25 C21 1_555 1_555
H25 C25 1_555 1_555
O3 N5 1_555 1_555
O4 C28 1_555 1_555
N4 C26 1_555 1_555
N5 C29 1_555 1_555
N6 C26 1_555 1_555
C26 C33 1_555 1_555
C27 C31 1_555 1_555
C28 N6 1_555 1_555
C29 H26 1_555 1_555
C30 O3 1_555 1_555
H27 C30 1_555 1_555
C31 H28 1_555 1_555
C32 C29 1_555 1_555
C33 C38 1_555 1_555
C34 C27 1_555 1_555
H29 C34 1_555 1_555
C35 C31 1_555 1_555
H30 C35 1_555 1_555
C36 C28 1_555 1_555
H31 C36 1_555 1_555
C37 N4 1_555 1_555
H32 C37 1_555 1_555
C38 H33 1_555 1_555
C39 N5 1_555 1_555
H34 C39 1_555 1_555
H35 C39 1_555 1_555
C40 C33 1_555 1_555
H36 C40 1_555 1_555
H37 C40 1_555 1_555
C41 C32 1_555 1_555
H38 C41 1_555 1_555
C42 C32 1_555 1_555
H39 C42 1_555 1_555
C43 N6 1_555 1_555
H40 C43 1_555 1_555
H41 C43 1_555 1_555
C44 C34 1_555 1_555
H42 C44 1_555 1_555
C45 C37 1_555 1_555
H43 C45 1_555 1_555
C46 C35 1_555 1_555
H44 C46 1_555 1_555
C47 C30 1_555 1_555
H45 C47 1_555 1_555
H46 C47 1_555 1_555
H47 C47 1_555 1_555
C48 C42 1_555 1_555
H48 C48 1_555 1_555
C49 C41 1_555 1_555
H49 C49 1_555 1_555
C50 C48 1_555 1_555
H50 C50 1_555 1_555
C7 C13 1_555 1_555
C8 C19 1_555 1_555
C10 C12 1_555 1_555
C11 C14 1_555 1_555
C11 C16 1_555 1_555
C17 C18 1_555 1_555
C21 C22 1_555 1_555
C23 C25 1_555 1_555
C27 C39 1_555 1_555
C29 C36 1_555 1_555
C30 C36 1_555 1_555
C38 C45 1_555 1_555
C40 C43 1_555 1_555
C44 C46 1_555 1_555
C49 C50 1_555 1_555

#END
