
#######################################################################
#
#                 Cambridge Crystallographic Data Centre
#                                CCDC 
#
#######################################################################
#
# If this CIF has been generated from an entry in the Cambridge 
# Structural Database, then it will include bibliographic, chemical, 
# crystal, experimental, refinement or atomic coordinate data resulting 
# from the CCDC's data processing and validation procedures.
#
#######################################################################

data_KEMKOF
_chemical_formula_moiety         'C27 H28 Cl1 N3'
_chemical_name_systematic        
N-t-butyl-1-[(4'-chloro[1,1'-biphenyl]-4-yl)methyl]-4-methyl-3-phenyl-1H-pyrazol-5-amine
_symmetry_cell_setting           triclinic
_symmetry_space_group_name_H-M   'P -1'
_symmetry_Int_Tables_number      2
_space_group_name_Hall           '-P 1'
loop_
_symmetry_equiv_pos_site_id
_symmetry_equiv_pos_as_xyz
1 x,y,z
2 -x,-y,-z
_cell_length_a                   10.2133(5)
_cell_length_b                   10.5533(6)
_cell_length_c                   24.2274(10)
_cell_angle_alpha                94.844(4)
_cell_angle_beta                 101.520(4)
_cell_angle_gamma                106.326(4)
_cell_volume                     2427.95
_exptl_crystal_colour            colorless
_exptl_crystal_description       needle
_cell_formula_units_Z            4
loop_
_atom_site_label
_atom_site_type_symbol
_atom_site_fract_x
_atom_site_fract_y
_atom_site_fract_z
Cl1 Cl 0.44634(11) 0.16756(11) 0.61608(3)
N1 N 0.6565(3) 0.5218(2) 0.21352(10)
N2 N 0.7354(3) 0.6485(2) 0.23368(10)
N3 N 0.4425(3) 0.3878(3) 0.14952(10)
H1 H 0.359436 0.388581 0.151264
C1 C 0.4822(3) 0.2128(3) 0.55189(11)
C2 C 0.5674(3) 0.3373(3) 0.55037(12)
H2 H 0.606501 0.398397 0.583668
C3 C 0.5953(3) 0.3723(3) 0.49954(11)
H3 H 0.653667 0.457244 0.498941
C4 C 0.5379(2) 0.2828(2) 0.44878(10)
C5 C 0.4497(3) 0.1581(3) 0.45165(11)
H4 H 0.408529 0.097037 0.418431
C6 C 0.4214(3) 0.1224(3) 0.50231(12)
H5 H 0.361872 0.038200 0.503240
C7 C 0.5733(2) 0.3191(2) 0.39469(10)
C8 C 0.6193(3) 0.4507(3) 0.38548(12)
H6 H 0.625001 0.518870 0.413667
C9 C 0.6568(3) 0.4831(3) 0.33545(12)
H7 H 0.687461 0.572314 0.330710
C10 C 0.6495(3) 0.3848(3) 0.29237(11)
C11 C 0.6024(3) 0.2540(3) 0.30123(12)
H8 H 0.595171 0.186022 0.272666
C12 C 0.5657(3) 0.2207(3) 0.35090(12)
H9 H 0.535245 0.131284 0.355356
C13 C 0.6982(4) 0.4144(3) 0.23896(13)
H10 H 0.799761 0.437853 0.247589
H11 H 0.661286 0.333806 0.211128
C14 C 0.6678(3) 0.7228(3) 0.20506(12)
C15 C 0.5456(3) 0.6432(3) 0.16544(12)
C16 C 0.5409(3) 0.5134(3) 0.17229(11)
C17 C 0.4388(4) 0.6839(4) 0.12474(15)
H12 H 0.437702 0.771015 0.139306
H13 H 0.347715 0.620776 0.120501
H14 H 0.462583 0.686052 0.088375
C18 C 0.7280(3) 0.9527(3) 0.17838(9)
H15 H 0.685663 0.916547 0.140487
C19 C 0.7920(3) 1.0896(3) 0.19337(15)
H16 H 0.792332 1.145064 0.165503
C20 C 0.8553(3) 1.14361(16) 0.25000(18)
H17 H 0.898069 1.235210 0.260027
C21 C 0.8548(3) 1.0607(3) 0.29165(12)
H18 H 0.897137 1.096839 0.329537
C22 C 0.7908(3) 0.9238(2) 0.27666(9)
H19 H 0.790468 0.868321 0.304522
C23 C 0.7275(2) 0.86978(17) 0.22003(10)
C24 C 0.4409(3) 0.3183(3) 0.09319(14)
C25 C 0.3136(7) 0.1967(7) 0.0752(4)
H20 H 0.283610 0.180188 0.034412
H21 H 0.239395 0.211584 0.091138
H22 H 0.336760 0.120901 0.088648
C26 C 0.4439(9) 0.4104(7) 0.0479(3)
H23 H 0.443975 0.362581 0.012353
H24 H 0.527054 0.485897 0.059460
H25 H 0.362588 0.440579 0.043242
C27 C 0.5747(6) 0.2750(9) 0.1005(4)
H26 H 0.583861 0.241234 0.063857
H27 H 0.568368 0.206341 0.124324
H28 H 0.655065 0.350313 0.117800
Cl2 Cl -0.07952(11) 0.12167(11) 0.59328(4)
N4 N 0.1675(2) 0.5697(2) 0.21340(8)
N5 N 0.1365(2) 0.4600(2) 0.17443(9)
N6 N 0.0987(2) 0.7639(2) 0.23530(9)
H38 H 0.016997 0.765526 0.238790
C31 C 0.14276(14) 0.2548(2) 0.47998(8)
H39 H 0.231073 0.260776 0.473729
C32 C 0.05106(17) 0.30258(18) 0.44321(6)
C33 C -0.08094(16) 0.2937(2) 0.45256(8)
H40 H -0.142295 0.325664 0.427959
C34 C -0.12124(16) 0.2371(2) 0.49867(9)
H41 H -0.209561 0.231210 0.504916
C35 C -0.02955(19) 0.1894(2) 0.53543(7)
C36 C 0.10245(18) 0.1983(2) 0.52609(8)
H42 H 0.163805 0.166319 0.550688
C37 C 0.0976(2) 0.3664(2) 0.39468(10)
C38 C 0.1898(3) 0.3265(3) 0.36742(11)
H43 H 0.218381 0.253973 0.377936
C39 C 0.2404(3) 0.3908(3) 0.32520(11)
H44 H 0.301357 0.360657 0.307618
C40 C 0.2011(3) 0.4996(2) 0.30889(10)
C41 C 0.1048(3) 0.5383(3) 0.33437(11)
H45 H 0.073937 0.608841 0.322747
C42 C 0.0546(3) 0.4740(3) 0.37639(12)
H46 H -0.008938 0.502362 0.392966
C43 C 0.2669(3) 0.5796(3) 0.26729(11)
H47 H 0.306187 0.672637 0.284498
H48 H 0.343332 0.548551 0.259730
C44 C 0.0332(2) 0.4713(3) 0.13347(10)
C45 C -0.0009(2) 0.5894(3) 0.14569(10)
C46 C 0.0878(3) 0.6499(2) 0.19805(10)
C47 C -0.1105(3) 0.6404(4) 0.11206(13)
H49 H -0.074961 0.684322 0.082573
H50 H -0.133316 0.702573 0.136869
H51 H -0.193169 0.566943 0.095241
C48 C -0.0722(3) 0.12958(17) 0.04765(11)
H52 H -0.064849 0.045349 0.052886
C49 C -0.1377(3) 0.1508(2) -0.00529(9)
H53 H -0.174091 0.080766 -0.035469
C50 C -0.1487(3) 0.2767(3) -0.01311(6)
H54 H -0.192501 0.290899 -0.048530
C51 C -0.0943(2) 0.3814(2) 0.03200(8)
H55 H -0.101668 0.465617 0.026765
C52 C -0.0288(2) 0.36016(17) 0.08494(6)
C53 C -0.0178(2) 0.2343(2) 0.09276(8)
H56 H 0.025986 0.220070 0.128182
C54 C 0.1843(3) 0.8981(3) 0.22843(13)
C55 C 0.1174(6) 0.9456(5) 0.1761(2)
H57 H 0.017301 0.916180 0.170917
H58 H 0.142061 0.909507 0.143338
H59 H 0.150393 1.041383 0.180812
C56 C 0.1929(4) 0.9919(3) 0.28035(17)
H60 H 0.099946 0.988295 0.283730
H61 H 0.243477 1.081246 0.276777
H62 H 0.240875 0.965836 0.313658
C57 C 0.3313(4) 0.8975(4) 0.2271(2)
H63 H 0.376512 0.880523 0.263178
H64 H 0.383608 0.982690 0.219666
H65 H 0.327248 0.828884 0.197558
C28? C 0.5834(6) 0.3485(9) 0.0807(4)
H29? H 0.578997 0.290388 0.047221
H30? H 0.648342 0.334626 0.112423
H31? H 0.614187 0.439658 0.074461
C29? C 0.3838(9) 0.1719(6) 0.0990(4)
H32? H 0.374023 0.117475 0.063748
H33? H 0.293941 0.155769 0.108222
H34? H 0.447502 0.150093 0.128819
C30? C 0.3385(8) 0.3535(9) 0.0463(3)
H35? H 0.336514 0.307415 0.010121
H36? H 0.368445 0.448101 0.045839
H37? H 0.246359 0.327173 0.053573
loop_
_geom_bond_atom_site_label_1
_geom_bond_atom_site_label_2
_geom_bond_site_symmetry_1
_geom_bond_site_symmetry_2
Cl1 C1 1_555 1_555
N1 N2 1_555 1_555
N2 C14 1_555 1_555
N3 H1 1_555 1_555
C1 C2 1_555 1_555
C2 H2 1_555 1_555
C3 C2 1_555 1_555
H3 C3 1_555 1_555
C4 C3 1_555 1_555
C5 C4 1_555 1_555
H4 C5 1_555 1_555
C6 C1 1_555 1_555
H5 C6 1_555 1_555
C7 C4 1_555 1_555
C8 C7 1_555 1_555
H6 C8 1_555 1_555
C9 C8 1_555 1_555
H7 C9 1_555 1_555
C10 C9 1_555 1_555
C11 C10 1_555 1_555
H8 C11 1_555 1_555
C12 C7 1_555 1_555
H9 C12 1_555 1_555
C13 N1 1_555 1_555
H10 C13 1_555 1_555
H11 C13 1_555 1_555
C14 C15 1_555 1_555
C15 C16 1_555 1_555
C16 N1 1_555 1_555
C17 C15 1_555 1_555
H12 C17 1_555 1_555
H13 C17 1_555 1_555
H14 C17 1_555 1_555
C18 H15 1_555 1_555
C19 C18 1_555 1_555
H16 C19 1_555 1_555
C20 C19 1_555 1_555
H17 C20 1_555 1_555
C21 C20 1_555 1_555
H18 C21 1_555 1_555
C22 C21 1_555 1_555
H19 C22 1_555 1_555
C23 C14 1_555 1_555
C24 N3 1_555 1_555
C25 C24 1_555 1_555
H20 C25 1_555 1_555
H21 C25 1_555 1_555
H22 C25 1_555 1_555
C26 C24 1_555 1_555
H23 C26 1_555 1_555
H24 C26 1_555 1_555
H25 C26 1_555 1_555
C27 C24 1_555 1_555
H26 C27 1_555 1_555
H27 C27 1_555 1_555
H28 C27 1_555 1_555
Cl2 C35 1_555 1_555
N4 N5 1_555 1_555
N5 C44 1_555 1_555
N6 H38 1_555 1_555
C31 H39 1_555 1_555
C32 C31 1_555 1_555
C33 C32 1_555 1_555
H40 C33 1_555 1_555
C34 C33 1_555 1_555
H41 C34 1_555 1_555
C35 C34 1_555 1_555
C36 C31 1_555 1_555
H42 C36 1_555 1_555
C37 C32 1_555 1_555
C38 C37 1_555 1_555
H43 C38 1_555 1_555
C39 C38 1_555 1_555
H44 C39 1_555 1_555
C40 C39 1_555 1_555
C41 C40 1_555 1_555
H45 C41 1_555 1_555
C42 C37 1_555 1_555
H46 C42 1_555 1_555
C43 N4 1_555 1_555
H47 C43 1_555 1_555
H48 C43 1_555 1_555
C44 C45 1_555 1_555
C45 C46 1_555 1_555
C46 N4 1_555 1_555
C47 C45 1_555 1_555
H49 C47 1_555 1_555
H50 C47 1_555 1_555
H51 C47 1_555 1_555
C48 H52 1_555 1_555
C49 C48 1_555 1_555
H53 C49 1_555 1_555
C50 C49 1_555 1_555
H54 C50 1_555 1_555
C51 C50 1_555 1_555
H55 C51 1_555 1_555
C52 C44 1_555 1_555
C53 C48 1_555 1_555
H56 C53 1_555 1_555
C54 N6 1_555 1_555
C55 C54 1_555 1_555
H57 C55 1_555 1_555
H58 C55 1_555 1_555
H59 C55 1_555 1_555
C56 C54 1_555 1_555
H60 C56 1_555 1_555
H61 C56 1_555 1_555
H62 C56 1_555 1_555
C57 C54 1_555 1_555
H63 C57 1_555 1_555
H64 C57 1_555 1_555
H65 C57 1_555 1_555
N3 C16 1_555 1_555
C5 C6 1_555 1_555
C10 C13 1_555 1_555
C11 C12 1_555 1_555
C18 C23 1_555 1_555
C22 C23 1_555 1_555
N6 C46 1_555 1_555
C35 C36 1_555 1_555
C40 C43 1_555 1_555
C41 C42 1_555 1_555
C51 C52 1_555 1_555
C52 C53 1_555 1_555

#END
