
#######################################################################
#
#                 Cambridge Crystallographic Data Centre
#                                CCDC 
#
#######################################################################
#
# If this CIF has been generated from an entry in the Cambridge 
# Structural Database, then it will include bibliographic, chemical, 
# crystal, experimental, refinement or atomic coordinate data resulting 
# from the CCDC's data processing and validation procedures.
#
#######################################################################

data_KEMLEW
_chemical_formula_moiety         'C29 H31 N1 O5 S1'
_chemical_name_systematic        
3-(2H-1,3-benzodioxol-5-yl)-6-(benzyloxy)-1-[(4-methylphenyl)sulfonyl]octahydro-1H-indole
_symmetry_cell_setting           triclinic
_symmetry_space_group_name_H-M   'P -1'
_symmetry_Int_Tables_number      2
_space_group_name_Hall           '-P 1'
loop_
_symmetry_equiv_pos_site_id
_symmetry_equiv_pos_as_xyz
1 x,y,z
2 -x,-y,-z
_cell_length_a                   9.8723(9)
_cell_length_b                   11.9407(14)
_cell_length_c                   12.7238(13)
_cell_angle_alpha                88.395(9)
_cell_angle_beta                 70.226(9)
_cell_angle_gamma                66.709(10)
_cell_volume                     1286.7
_exptl_crystal_colour            colorless
_exptl_crystal_description       block
_cell_formula_units_Z            2
loop_
_atom_site_label
_atom_site_type_symbol
_atom_site_fract_x
_atom_site_fract_y
_atom_site_fract_z
S1 S 0.67310(9) 0.09774(7) 0.07584(7)
O1 O 0.5110(2) 0.1323(2) 0.14479(18)
O2 O 0.7946(3) 0.0173(2) 0.11403(19)
O3 O 0.5230(4) 0.3338(3) -0.5568(2)
O4 O 0.5361(4) 0.1366(3) -0.5617(2)
O5 O 1.0215(3) -0.3782(2) -0.2280(2)
N1 N 0.7008(3) 0.0333(2) -0.0432(2)
C1 C 0.6486(4) 0.2458(3) -0.3151(3)
H1 H 0.6757 0.2740 -0.2612
C2 C 0.6056(4) 0.3229(3) -0.3930(3)
H2 H 0.6010 0.4022 -0.3912
C3 C 0.5704(4) 0.2769(4) -0.4719(3)
C4 C 0.5770(4) 0.1600(3) -0.4748(3)
C5 C 0.6173(4) 0.0835(3) -0.3983(3)
H3 H 0.6212 0.0045 -0.4016
C6 C 0.6525(4) 0.1277(3) -0.3151(3)
C7 C 0.6968(3) 0.0463(3) -0.2291(3)
H4 H 0.6834 -0.0288 -0.2410
C8 C 0.8663(3) 0.0084(3) -0.2327(3)
H5 H 0.8827 0.0836 -0.2280
C9 C 0.8630(3) -0.0462(3) -0.1232(3)
H6 H 0.9436 -0.0396 -0.0985
C10 C 0.5980(3) 0.1023(3) -0.1063(3)
H7 H 0.5735 0.1893 -0.0970
H8 H 0.5002 0.0912 -0.0812
C11 C 0.6974(3) 0.2364(3) 0.0535(2)
C12 C 0.5749(4) 0.3470(3) 0.1058(3)
H9 H 0.4774 0.3498 0.1519
C13 C 0.5981(4) 0.4540(3) 0.0891(3)
H10 H 0.5156 0.5285 0.1256
C14 C 0.7402(4) 0.4530(3) 0.0199(3)
C15 C 0.8596(4) 0.3420(3) -0.0331(3)
H11 H 0.9555 0.3398 -0.0816
C16 C 0.8413(4) 0.2336(3) -0.0167(3)
H12 H 0.9248 0.1592 -0.0523
C17 C 0.7627(5) 0.5712(3) 0.0029(4)
H13 H 0.8646 0.5586 0.0038
H14 H 0.6821 0.6342 0.0623
H15 H 0.7557 0.5959 -0.0682
C18 C 0.9993(4) -0.0763(3) -0.3355(3)
H16 H 1.0988 -0.0784 -0.3363
H17 H 0.9831 -0.0435 -0.4030
C19 C 1.0087(4) -0.2069(3) -0.3372(3)
H18 H 0.9150 -0.2067 -0.3464
H19 H 1.0997 -0.2586 -0.4008
C20 C 1.0219(4) -0.2589(3) -0.2298(3)
H20 H 1.1190 -0.2629 -0.2218
C21 C 0.8802(3) -0.1790(3) -0.1295(3)
H21 H 0.8915 -0.2120 -0.0610
H22 H 0.7854 -0.1807 -0.1350
C22 C 0.4924(7) 0.2480(5) -0.6084(4)
H23 H 0.3809 0.2805 -0.5973
H24 H 0.5515 0.2337 -0.6887
C23 C 1.1666(4) -0.4753(3) -0.2896(4)
H25 H 1.2357 -0.4986 -0.2463
H26 H 1.2184 -0.4501 -0.3594
C24 C 1.1322(4) -0.5822(3) -0.3137(3)
C25 C 1.0206(6) -0.5651(4) -0.3614(4)
H27 H 0.9628 -0.4864 -0.3741
C26 C 0.9925(7) -0.6610(6) -0.3906(5)
H28 H 0.9175 -0.6477 -0.4238
C27 C 1.0747(8) -0.7751(6) -0.3708(5)
H29 H 1.0569 -0.8406 -0.3917
C28 C 1.1823(6) -0.7960(4) -0.3211(5)
H30 H 1.2362 -0.8748 -0.3064
C29 C 1.2124(5) -0.6971(4) -0.2916(4)
H31 H 1.2862 -0.7104 -0.2575
loop_
_geom_bond_atom_site_label_1
_geom_bond_atom_site_label_2
_geom_bond_site_symmetry_1
_geom_bond_site_symmetry_2
S1 O1 1_555 1_555
O2 S1 1_555 1_555
O3 C3 1_555 1_555
O4 C4 1_555 1_555
O5 C20 1_555 1_555
N1 S1 1_555 1_555
C1 H1 1_555 1_555
C2 C1 1_555 1_555
H2 C2 1_555 1_555
C3 C2 1_555 1_555
C4 C3 1_555 1_555
C5 C4 1_555 1_555
H3 C5 1_555 1_555
C6 C1 1_555 1_555
C7 C6 1_555 1_555
H4 C7 1_555 1_555
C8 C7 1_555 1_555
H5 C8 1_555 1_555
C9 N1 1_555 1_555
H6 C9 1_555 1_555
C10 N1 1_555 1_555
H7 C10 1_555 1_555
H8 C10 1_555 1_555
C11 S1 1_555 1_555
C12 C11 1_555 1_555
H9 C12 1_555 1_555
C13 C12 1_555 1_555
H10 C13 1_555 1_555
C14 C13 1_555 1_555
C15 C14 1_555 1_555
H11 C15 1_555 1_555
C16 C11 1_555 1_555
H12 C16 1_555 1_555
C17 C14 1_555 1_555
H13 C17 1_555 1_555
H14 C17 1_555 1_555
H15 C17 1_555 1_555
C18 C8 1_555 1_555
H16 C18 1_555 1_555
H17 C18 1_555 1_555
C19 C18 1_555 1_555
H18 C19 1_555 1_555
H19 C19 1_555 1_555
C20 C19 1_555 1_555
H20 C20 1_555 1_555
C21 C9 1_555 1_555
H21 C21 1_555 1_555
H22 C21 1_555 1_555
C22 O3 1_555 1_555
H23 C22 1_555 1_555
H24 C22 1_555 1_555
C23 O5 1_555 1_555
H25 C23 1_555 1_555
H26 C23 1_555 1_555
C24 C23 1_555 1_555
C25 C24 1_555 1_555
H27 C25 1_555 1_555
C26 C25 1_555 1_555
H28 C26 1_555 1_555
C27 C26 1_555 1_555
H29 C27 1_555 1_555
C28 C27 1_555 1_555
H30 C28 1_555 1_555
C29 C24 1_555 1_555
H31 C29 1_555 1_555
O4 C22 1_555 1_555
C5 C6 1_555 1_555
C7 C10 1_555 1_555
C8 C9 1_555 1_555
C15 C16 1_555 1_555
C20 C21 1_555 1_555
C28 C29 1_555 1_555

#END
