
#######################################################################
#
#                 Cambridge Crystallographic Data Centre
#                                CCDC 
#
#######################################################################
#
# If this CIF has been generated from an entry in the Cambridge 
# Structural Database, then it will include bibliographic, chemical, 
# crystal, experimental, refinement or atomic coordinate data resulting 
# from the CCDC's data processing and validation procedures.
#
#######################################################################

data_KEMNEY
_chemical_compound_source        'stems of Physalis pubescens L.'
_chemical_name_common            'Withapubeside A monohydrate'
_chemical_formula_moiety         'C41 H66 O15,H2 O1'
_chemical_name_systematic        
'1-{5-[1-(1-hydroxy-3-{[3,4,5-trihydroxy-6-({[3,4,5-trihydroxy-6-(hydroxymethyl)oxan-2-yl]oxy}methyl)oxan-2-yl]oxy}androst-5-en-17-yl)ethyl]-2-methoxy-3-methyloxolan-3-yl}ethan-1-one monohydrate'
_symmetry_cell_setting           orthorhombic
_symmetry_space_group_name_H-M   'P 21 21 21'
_symmetry_Int_Tables_number      19
_space_group_name_Hall           'P 2ac 2ab'
loop_
_symmetry_equiv_pos_site_id
_symmetry_equiv_pos_as_xyz
1 x,y,z
2 1/2-x,-y,1/2+z
3 -x,1/2+y,1/2-z
4 1/2+x,1/2-y,-z
_cell_length_a                   7.9929(4)
_cell_length_b                   9.2895(5)
_cell_length_c                   54.987(4)
_cell_angle_alpha                90
_cell_angle_beta                 90
_cell_angle_gamma                90
_cell_volume                     4082.79
_exptl_crystal_colour            colorless
_exptl_crystal_description       block
_cell_formula_units_Z            4
loop_
_atom_site_label
_atom_site_type_symbol
_atom_site_fract_x
_atom_site_fract_y
_atom_site_fract_z
O1 O 0.5975(5) 0.1020(4) 0.56706(7)
O2 O 0.5891(5) 0.8338(4) 0.51123(7)
H1 H 0.5426 0.8825 0.5008
O3 O 0.6763(5) 0.5995(4) 0.53833(7)
O4 O 0.7048(5) 0.3223(4) 0.55857(7)
O5 O 0.2330(5) 0.9157(4) 0.51464(7)
H2 H 0.2023 0.8496 0.5058
O6 O 0.4436(5) 0.6166(4) 0.56170(7)
O7 O 0.8452(5) -0.0272(4) 0.53522(7)
H3 H 0.7677 -0.0747 0.5297
O8 O 1.0535(5) 0.4569(4) 0.52162(7)
H4 H 1.1377 0.4278 0.5286
O9 O 0.0984(5) 0.8693(5) 0.56395(7)
H5 H 0.0359 0.9048 0.5538
O10 O 1.0220(6) 0.1664(4) 0.50495(7)
H6 H 1.0612 0.0850 0.5059
O11 O 0.3327(6) -0.0379(5) 0.80103(7)
O12 O 0.4556(6) 0.0965(5) 0.83182(8)
O13 O 0.3531(8) 0.2898(5) 0.62723(9)
H7 H 0.2754 0.3213 0.6354
O14 O -0.0488(7) -0.1195(7) 0.84864(10)
C1 C 0.5184(7) 0.0230(6) 0.68501(10)
H8 H 0.5148 -0.0818 0.6830
C2 C 0.4653(7) 0.7592(5) 0.52542(9)
H9 H 0.4158 0.6816 0.5157
C3 C 0.8025(7) 0.1210(5) 0.53475(9)
H10 H 0.7142 0.1376 0.5227
C4 C 0.5582(7) 0.1300(6) 0.59223(10)
H11 H 0.5892 0.2296 0.5960
C5 C 0.6094(7) 0.0501(6) 0.63501(10)
C6 C 0.3907(7) 0.0921(6) 0.66755(10)
H12 H 0.4113 0.1960 0.6680
C7 C 0.7989(6) 0.5616(5) 0.55631(10)
H13 H 0.7526 0.5756 0.5724
H14 H 0.8960 0.6234 0.5547
C8 C 0.9146(6) 0.3678(5) 0.52794(10)
H15 H 0.8247 0.3842 0.5161
C9 C 0.3195(7) 0.7079(6) 0.57241(10)
H16 H 0.3747 0.7838 0.5818
C10 C 0.9582(7) 0.2077(5) 0.52793(10)
H17 H 1.0445 0.1906 0.5402
C11 C 0.3262(8) 0.1397(6) 0.62249(11)
H18 H 0.2065 0.1197 0.6244
C12 C 0.3282(7) 0.8588(6) 0.53452(10)
H19 H 0.3803 0.9390 0.5433
C13 C 0.8502(7) 0.4070(5) 0.55320(10)
H20 H 0.9373 0.3846 0.5652
C14 C 0.5578(7) 0.6955(5) 0.54700(9)
H21 H 0.6116 0.7717 0.5565
C15 C 0.7433(7) 0.1715(5) 0.55969(10)
H22 H 0.8318 0.1551 0.5717
C16 C 0.2151(7) 0.7762(6) 0.55223(10)
H23 H 0.1545 0.7008 0.5434
C17 C 0.3724(7) 0.1134(6) 0.59596(11)
H24 H 0.3384 0.0171 0.5913
H25 H 0.3133 0.1814 0.5857
C18 C 0.4241(7) 0.0436(6) 0.64084(9)
C19 C 0.1722(8) -0.0024(7) 0.76419(10)
H26 H 0.1777 -0.1078 0.7642
C20 C 0.3083(7) 0.0532(6) 0.74674(10)
H27 H 0.3076 0.1585 0.7479
C21 C 0.4764(7) 0.0590(7) 0.71113(10)
H28 H 0.4814 0.1641 0.7124
C22 C 0.3354(8) -0.0084(6) 0.82619(11)
H29 H 0.3605 -0.0970 0.8351
C23 C 0.1546(8) 0.0448(7) 0.83303(11)
C24 C 0.2066(8) 0.0495(7) 0.79008(11)
H30 H 0.2452 0.1495 0.7896
C25 C 0.2998(8) 0.0154(6) 0.71915(10)
C26 C 0.0650(8) 0.0363(7) 0.80847(10)
H31 H 0.0067 -0.0546 0.8067
H32 H -0.0146 0.1144 0.8067
C27 C 0.7270(8) 0.0702(7) 0.65194(11)
H33 H 0.8369 0.0810 0.6467
C28 C 0.3628(9) -0.1120(7) 0.63701(11)
H34 H 0.4080 -0.1491 0.6221
H35 H 0.2428 -0.1131 0.6362
H36 H 0.3995 -0.1709 0.6503
C29 C 0.6572(9) 0.0306(7) 0.60875(10)
H37 H 0.6372 -0.0685 0.6040
H38 H 0.7757 0.0500 0.6068
C30 C 0.2165(8) 0.6147(7) 0.58933(12)
H39 H 0.1057 0.5896 0.5864
C31 C 0.1799(9) 0.0995(8) 0.70289(11)
H40 H 0.0658 0.0742 0.7071
H41 H 0.1941 0.2016 0.7059
C32 C 0.2674(10) -0.1463(7) 0.71635(12)
H42 H 0.3378 -0.1986 0.7274
H43 H 0.2919 -0.1751 0.7000
H44 H 0.1522 -0.1665 0.7199
C33 C 0.0804(9) -0.0530(8) 0.85238(12)
O15 O 0.3049(12) 0.5707(8) 0.60963(12)
H45 H 0.3428 0.4898 0.6073
C34 C 0.4857(8) 0.0029(8) 0.75412(11)
H46 H 0.5337 0.0687 0.7659
H47 H 0.4810 -0.0924 0.7613
C35 C 0.5926(9) 0.0005(10) 0.73067(11)
H48 H 0.6908 0.0610 0.7324
H49 H 0.6280 -0.0967 0.7268
C36 C 0.6948(8) 0.0767(7) 0.67854(11)
H50 H 0.7075 0.1753 0.6841
H51 H 0.7770 0.0183 0.6870
C37 C 0.2080(9) 0.0698(9) 0.67608(11)
H52 H 0.1357 0.1325 0.6667
H53 H 0.1754 -0.0287 0.6726
C38 C 0.6212(8) 0.0481(7) 0.82705(13)
H54 H 0.6408 0.0485 0.8098
H55 H 0.6347 -0.0478 0.8332
H56 H 0.6997 0.1111 0.8349
C39 C 0.1553(11) 0.2002(8) 0.84280(13)
H57 H 0.2301 0.2067 0.8564
H58 H 0.0443 0.2261 0.8479
H59 H 0.1917 0.2645 0.8302
C40 C 0.1681(11) -0.0627(8) 0.87639(12)
H60 H 0.1197 0.0053 0.8875
H61 H 0.2846 -0.0413 0.8742
H62 H 0.1561 -0.1582 0.8828
C41 C -0.0037(9) 0.0411(11) 0.75599(13)
H63 H -0.0089 0.1437 0.7541
H64 H -0.0838 0.0111 0.7680
H65 H -0.0288 -0.0043 0.7407
O17 O 1.3334(6) 0.3446(5) 0.53796(9)
H68 H 1.3972 0.3919 0.5474
H69 H 1.3726 0.3467 0.5236
H66? H 0.2354 0.5170 0.5918
O16? O 0.091(3) 0.693(2) 0.6006(3)
H67? H 0.0728 0.6589 0.6142
loop_
_geom_bond_atom_site_label_1
_geom_bond_atom_site_label_2
_geom_bond_site_symmetry_1
_geom_bond_site_symmetry_2
O1 C4 1_555 1_555
O2 H1 1_555 1_555
O3 C7 1_555 1_555
O4 C13 1_555 1_555
O5 H2 1_555 1_555
O6 C9 1_555 1_555
O7 H3 1_555 1_555
O8 H4 1_555 1_555
O9 H5 1_555 1_555
O10 H6 1_555 1_555
O11 C22 1_555 1_555
O12 C22 1_555 1_555
O13 H7 1_555 1_555
O14 C33 1_555 1_555
C1 H8 1_555 1_555
C2 O2 1_555 1_555
H9 C2 1_555 1_555
C3 O7 1_555 1_555
H10 C3 1_555 1_555
C4 H11 1_555 1_555
C5 C18 1_555 1_555
C6 C1 1_555 1_555
H12 C6 1_555 1_555
C7 H13 1_555 1_555
H14 C7 1_555 1_555
C8 O8 1_555 1_555
H15 C8 1_555 1_555
C9 H16 1_555 1_555
C10 O10 1_555 1_555
H17 C10 1_555 1_555
C11 O13 1_555 1_555
H18 C11 1_555 1_555
C12 O5 1_555 1_555
H19 C12 1_555 1_555
C13 C7 1_555 1_555
H20 C13 1_555 1_555
C14 O3 1_555 1_555
H21 C14 1_555 1_555
C15 O1 1_555 1_555
H22 C15 1_555 1_555
C16 O9 1_555 1_555
H23 C16 1_555 1_555
C17 C4 1_555 1_555
H24 C17 1_555 1_555
H25 C17 1_555 1_555
C18 C6 1_555 1_555
C19 H26 1_555 1_555
C20 C19 1_555 1_555
H27 C20 1_555 1_555
C21 C1 1_555 1_555
H28 C21 1_555 1_555
C22 H29 1_555 1_555
C23 C22 1_555 1_555
C24 O11 1_555 1_555
H30 C24 1_555 1_555
C25 C20 1_555 1_555
C26 C23 1_555 1_555
H31 C26 1_555 1_555
H32 C26 1_555 1_555
C27 C5 1_555 1_555
H33 C27 1_555 1_555
C28 C18 1_555 1_555
H34 C28 1_555 1_555
H35 C28 1_555 1_555
H36 C28 1_555 1_555
C29 C4 1_555 1_555
H37 C29 1_555 1_555
H38 C29 1_555 1_555
C30 C9 1_555 1_555
H39 C30 1_555 1_555
C31 C25 1_555 1_555
H40 C31 1_555 1_555
H41 C31 1_555 1_555
C32 C25 1_555 1_555
H42 C32 1_555 1_555
H43 C32 1_555 1_555
H44 C32 1_555 1_555
C33 C23 1_555 1_555
O15 C30 1_555 1_555
H45 O15 1_555 1_555
C34 C20 1_555 1_555
H46 C34 1_555 1_555
H47 C34 1_555 1_555
C35 C21 1_555 1_555
H48 C35 1_555 1_555
H49 C35 1_555 1_555
C36 C1 1_555 1_555
H50 C36 1_555 1_555
H51 C36 1_555 1_555
C37 C6 1_555 1_555
H52 C37 1_555 1_555
H53 C37 1_555 1_555
C38 O12 1_555 1_555
H54 C38 1_555 1_555
H55 C38 1_555 1_555
H56 C38 1_555 1_555
C39 C23 1_555 1_555
H57 C39 1_555 1_555
H58 C39 1_555 1_555
H59 C39 1_555 1_555
C40 C33 1_555 1_555
H60 C40 1_555 1_555
H61 C40 1_555 1_555
H62 C40 1_555 1_555
C41 C19 1_555 1_555
H63 C41 1_555 1_555
H64 C41 1_555 1_555
H65 C41 1_555 1_555
O17 H68 1_555 1_555
H69 O17 1_555 1_555
O4 C15 1_555 1_555
O6 C14 1_555 1_555
C2 C12 1_555 1_555
C2 C14 1_555 1_555
C3 C10 1_555 1_555
C3 C15 1_555 1_555
C5 C29 1_555 1_555
C8 C10 1_555 1_555
C8 C13 1_555 1_555
C9 C16 1_555 1_555
C11 C17 1_555 1_555
C11 C18 1_555 1_555
C12 C16 1_555 1_555
C19 C24 1_555 1_555
C21 C25 1_555 1_555
C24 C26 1_555 1_555
C27 C36 1_555 1_555
C31 C37 1_555 1_555
C34 C35 1_555 1_555

#END
