
#######################################################################
#
#                 Cambridge Crystallographic Data Centre
#                                CCDC 
#
#######################################################################
#
# If this CIF has been generated from an entry in the Cambridge 
# Structural Database, then it will include bibliographic, chemical, 
# crystal, experimental, refinement or atomic coordinate data resulting 
# from the CCDC's data processing and validation procedures.
#
#######################################################################

data_KEMNIZ
_chemical_formula_moiety         'C16 H12 O4'
_chemical_name_systematic        (S,S)-3,6-Diphenyl-1,4-dioxane-2,5-dione
_symmetry_cell_setting           orthorhombic
_symmetry_space_group_name_H-M   'P 21 21 21'
_symmetry_Int_Tables_number      19
_space_group_name_Hall           'P 2ac 2ab'
loop_
_symmetry_equiv_pos_site_id
_symmetry_equiv_pos_as_xyz
1 x,y,z
2 1/2+x,1/2-y,-z
3 -x,1/2+y,1/2-z
4 1/2-x,-y,1/2+z
_cell_length_a                   5.103(3)
_cell_length_b                   9.272(6)
_cell_length_c                   26.50(3)
_cell_angle_alpha                90
_cell_angle_beta                 90
_cell_angle_gamma                90
_cell_volume                     1253.85
_exptl_crystal_colour            colorless
_cell_formula_units_Z            4
loop_
_atom_site_label
_atom_site_type_symbol
_atom_site_fract_x
_atom_site_fract_y
_atom_site_fract_z
O1 O 0.8855(9) 0.9598(4) 0.72154(13)
C1 C 0.9426(13) 0.9720(6) 0.7711(2)
C2 C 0.7325(13) 0.9227(6) 0.8062(2)
O2 O 0.6053(9) 0.7955(4) 0.78614(12)
C3 C 0.5061(14) 0.8069(6) 0.7395(2)
C4 C 0.6191(13) 0.9295(6) 0.7084(2)
O3 O 1.1523(9) 1.0149(4) 0.78302(14)
O4 O 0.3439(9) 0.7254(4) 0.72465(14)
C5 C 0.8254(12) 0.8864(6) 0.8582(2)
C6 C 0.7120(1) 0.9551(7) 0.8981(2)
C7 C 0.794(2) 0.9201(9) 0.9468(2)
C8 C 0.985(2) 0.8225(9) 0.9555(3)
C9 C 1.098(2) 0.7538(9) 0.9148(3)
C10 C 1.0168(14) 0.7861(7) 0.8655(2)
C11 C 0.6140(13) 0.8936(6) 0.6528(2)
C12 C 0.785(2) 0.7964(7) 0.6336(2)
C13 C 0.773(2) 0.7585(8) 0.5831(2)
C14 C 0.586(2) 0.8210(9) 0.5525(2)
C15 C 0.415(2) 0.9158(10) 0.5719(2)
C16 C 0.426(2) 0.9543(7) 0.6233(2)
H1 H 0.605(12) 1.002(6) 0.808(2)
H2 H 0.527(11) 1.003(7) 0.712(2)
H3 H 0.554(13) 1.030(7) 0.893(2)
H4 H 0.738(12) 0.971(6) 0.972(2)
H5 H 1.06(2) 0.812(7) 0.991(3)
H6 H 1.232(12) 0.707(7) 0.918(2)
H7 H 1.14(2) 0.743(8) 0.839(2)
H8 H 0.934(12) 0.757(6) 0.654(2)
H9 H 0.89(2) 0.695(9) 0.570(3)
H10 H 0.567(12) 0.794(6) 0.516(2)
H11 H 0.275(13) 0.944(6) 0.555(2)
H12 H 0.30(2) 1.021(9) 0.635(3)
loop_
_geom_bond_atom_site_label_1
_geom_bond_atom_site_label_2
_geom_bond_site_symmetry_1
_geom_bond_site_symmetry_2
O1 C1 1_555 1_555
C1 C2 1_555 1_555
C2 O2 1_555 1_555
O2 C3 1_555 1_555
C3 C4 1_555 1_555
C4 O1 1_555 1_555
O3 C1 1_555 1_555
O4 C3 1_555 1_555
C5 C2 1_555 1_555
C6 C5 1_555 1_555
C7 C6 1_555 1_555
C8 C7 1_555 1_555
C9 C8 1_555 1_555
C10 C5 1_555 1_555
C11 C4 1_555 1_555
C12 C11 1_555 1_555
C13 C12 1_555 1_555
C14 C13 1_555 1_555
C15 C14 1_555 1_555
C16 C11 1_555 1_555
H1 C2 1_555 1_555
H2 C4 1_555 1_555
H3 C6 1_555 1_555
H4 C7 1_555 1_555
H5 C8 1_555 1_555
H6 C9 1_555 1_555
H7 C10 1_555 1_555
H8 C12 1_555 1_555
H9 C13 1_555 1_555
H10 C14 1_555 1_555
H11 C15 1_555 1_555
H12 C16 1_555 1_555
C9 C10 1_555 1_555
C15 C16 1_555 1_555

#END
