
#######################################################################
#
#                 Cambridge Crystallographic Data Centre
#                                CCDC 
#
#######################################################################
#
# If this CIF has been generated from an entry in the Cambridge 
# Structural Database, then it will include bibliographic, chemical, 
# crystal, experimental, refinement or atomic coordinate data resulting 
# from the CCDC's data processing and validation procedures.
#
#######################################################################

data_KEMPIE
_chemical_formula_moiety         'C21 H18 F4 O1'
_chemical_name_systematic        
9-(3-fluorophenyl)-11-(2,2,2-trifluoroethyl)-6,7,8,11-tetrahydro-5H-benzo[9]annulen-5-one
_symmetry_cell_setting           monoclinic
_symmetry_space_group_name_H-M   'P 21/c'
_symmetry_Int_Tables_number      14
_space_group_name_Hall           '-P 2ybc'
loop_
_symmetry_equiv_pos_site_id
_symmetry_equiv_pos_as_xyz
1 x,y,z
2 -x,1/2+y,1/2-z
3 -x,-y,-z
4 x,1/2-y,1/2+z
_cell_length_a                   7.7396(6)
_cell_length_b                   10.6361(8)
_cell_length_c                   20.5195(15)
_cell_angle_alpha                90
_cell_angle_beta                 95.590(2)
_cell_angle_gamma                90
_cell_volume                     1681.12
_exptl_crystal_colour            colorless
_exptl_crystal_description       block
_cell_formula_units_Z            4
loop_
_atom_site_label
_atom_site_type_symbol
_atom_site_fract_x
_atom_site_fract_y
_atom_site_fract_z
F1 F 0.88895(10) 0.35128(8) 0.53604(4)
F2 F 0.59593(10) 0.94223(8) 0.41970(4)
F3 F 0.83786(11) 1.02491(7) 0.45895(4)
F4 F 0.79146(11) 0.82853(8) 0.47310(4)
O1 O 0.63451(11) 0.48938(8) 0.21664(4)
C1 C 0.76783(17) 0.92147(12) 0.42910(6)
C2 C 0.84764(16) 0.89566(12) 0.36654(6)
H1 H 0.9674 0.8644 0.3776
H2 H 0.8555 0.9758 0.3425
C3 C 0.74824(16) 0.79984(11) 0.32090(6)
H3 H 0.6287 0.8333 0.3087
C4 C 0.83643(15) 0.78112(11) 0.25768(6)
C5 C 0.97667(16) 0.85454(12) 0.24252(6)
H4 H 1.0196 0.9182 0.2723
C6 C 1.05511(17) 0.83697(13) 0.18506(7)
H5 H 1.1473 0.8906 0.1753
C7 C 0.99962(17) 0.74179(13) 0.14209(6)
H6 H 1.0533 0.7294 0.1029
C8 C 0.86433(16) 0.66457(12) 0.15710(6)
H7 H 0.8286 0.5969 0.1287
C9 C 0.77995(15) 0.68506(12) 0.21342(6)
C10 C 0.62421(16) 0.60351(12) 0.22052(6)
C11 C 0.44953(16) 0.66737(12) 0.22312(6)
H8 H 0.3816 0.6582 0.1799
H9 H 0.4689 0.7583 0.2312
C12 C 0.34298(16) 0.61488(12) 0.27593(6)
H10 H 0.3495 0.5219 0.2755
H11 H 0.2198 0.6390 0.2655
C13 C 0.40641(16) 0.66270(12) 0.34485(6)
H12 H 0.4061 0.7558 0.3445
H13 H 0.3238 0.6348 0.3758
C14 C 0.58668(16) 0.61726(11) 0.36931(6)
C15 C 0.73223(16) 0.67586(11) 0.35579(6)
H14 H 0.8381 0.6345 0.3698
C16 C 0.59889(16) 0.49940(12) 0.40882(6)
C17 C 0.46920(17) 0.40726(12) 0.40230(6)
H15 H 0.3702 0.4196 0.3718
C18 C 0.48256(18) 0.29838(13) 0.43956(6)
H16 H 0.3929 0.2372 0.4340
C19 C 0.62412(18) 0.27726(12) 0.48471(6)
H17 H 0.6342 0.2027 0.5103
C20 C 0.74951(16) 0.36906(13) 0.49096(6)
C21 C 0.74091(16) 0.47867(12) 0.45523(6)
H18 H 0.8305 0.5397 0.4620
loop_
_geom_bond_atom_site_label_1
_geom_bond_atom_site_label_2
_geom_bond_site_symmetry_1
_geom_bond_site_symmetry_2
F1 C20 1_555 1_555
F2 C1 1_555 1_555
F3 C1 1_555 1_555
F4 C1 1_555 1_555
O1 C10 1_555 1_555
C1 C2 1_555 1_555
C2 H1 1_555 1_555
H2 C2 1_555 1_555
C3 C2 1_555 1_555
H3 C3 1_555 1_555
C4 C3 1_555 1_555
C5 C4 1_555 1_555
H4 C5 1_555 1_555
C6 C5 1_555 1_555
H5 C6 1_555 1_555
C7 C6 1_555 1_555
H6 C7 1_555 1_555
C8 C7 1_555 1_555
H7 C8 1_555 1_555
C9 C4 1_555 1_555
C10 C9 1_555 1_555
C11 C10 1_555 1_555
H8 C11 1_555 1_555
H9 C11 1_555 1_555
C12 C11 1_555 1_555
H10 C12 1_555 1_555
H11 C12 1_555 1_555
C13 C12 1_555 1_555
H12 C13 1_555 1_555
H13 C13 1_555 1_555
C14 C13 1_555 1_555
C15 C3 1_555 1_555
H14 C15 1_555 1_555
C16 C14 1_555 1_555
C17 C16 1_555 1_555
H15 C17 1_555 1_555
C18 C17 1_555 1_555
H16 C18 1_555 1_555
C19 C18 1_555 1_555
H17 C19 1_555 1_555
C20 C19 1_555 1_555
C21 C16 1_555 1_555
H18 C21 1_555 1_555
C8 C9 1_555 1_555
C14 C15 1_555 1_555
C20 C21 1_555 1_555

#END
