
#######################################################################
#
#                 Cambridge Crystallographic Data Centre
#                                CCDC 
#
#######################################################################
#
# If this CIF has been generated from an entry in the Cambridge 
# Structural Database, then it will include bibliographic, chemical, 
# crystal, experimental, refinement or atomic coordinate data resulting 
# from the CCDC's data processing and validation procedures.
#
#######################################################################

data_KEMXOS
_chemical_formula_moiety         'C22 H21 N1 O2 S2'
_chemical_name_systematic        
1-cyclopropyl-1-methyl-3-phenyl-2-[(thiophen-2-yl)sulfonyl]-2,3-dihydro-1H-isoindole
_symmetry_cell_setting           monoclinic
_symmetry_space_group_name_H-M   'P 21/c'
_symmetry_Int_Tables_number      14
_space_group_name_Hall           '-P 2ybc'
loop_
_symmetry_equiv_pos_site_id
_symmetry_equiv_pos_as_xyz
1 x,y,z
2 -x,1/2+y,1/2-z
3 -x,-y,-z
4 x,1/2-y,1/2+z
_cell_length_a                   9.498(2)
_cell_length_b                   15.525(4)
_cell_length_c                   12.999(3)
_cell_angle_alpha                90
_cell_angle_beta                 95.666(2)
_cell_angle_gamma                90
_cell_volume                     1907.42
_exptl_crystal_colour            colorless
_exptl_crystal_description       block
_cell_formula_units_Z            4
loop_
_atom_site_label
_atom_site_type_symbol
_atom_site_fract_x
_atom_site_fract_y
_atom_site_fract_z
S1 S 0.21296(5) 0.22604(3) 0.29507(4)
S2 S 0.08471(8) 0.20018(5) 0.07636(5)
O1 O 0.24154(18) 0.17018(11) 0.38218(12)
O2 O 0.09437(17) 0.28337(11) 0.29042(13)
N1 N 0.35315(18) 0.28384(11) 0.28439(13)
C1 C 0.5016(2) 0.25910(14) 0.32986(16)
C2 C 0.5889(2) 0.31458(14) 0.26425(16)
C3 C 0.7363(2) 0.31834(15) 0.26628(18)
H1 H 0.7936 0.2851 0.3130
C4 C 0.7957(3) 0.37249(17) 0.19734(19)
H2 H 0.8936 0.3761 0.1987
C5 C 0.7111(3) 0.42113(17) 0.1265(2)
H3 H 0.7526 0.4576 0.0815
C6 C 0.5650(3) 0.41581(15) 0.12226(17)
H4 H 0.5080 0.4476 0.0739
C7 C 0.5055(2) 0.36200(14) 0.19160(16)
C8 C 0.3504(2) 0.34351(14) 0.19506(15)
H5 H 0.3153 0.3123 0.1322
C9 C 0.5373(3) 0.16390(15) 0.3161(2)
H6 H 0.4779 0.1291 0.3549
H7 H 0.6347 0.1540 0.3405
H8 H 0.5218 0.1489 0.2442
C10 C 0.5135(2) 0.28229(16) 0.44445(17)
H9 H 0.4471 0.2508 0.4837
C11 C 0.6512(3) 0.30225(18) 0.50551(19)
H10 H 0.7354 0.3039 0.4690
H11 H 0.6659 0.2807 0.5758
C12 C 0.5432(3) 0.37184(18) 0.48273(19)
H12 H 0.4927 0.3923 0.5393
H13 H 0.5622 0.4154 0.4324
C13 C 0.2620(2) 0.42426(14) 0.20341(16)
C14 C 0.2628(3) 0.46950(15) 0.29544(17)
H14 H 0.3145 0.4488 0.3548
C15 C 0.1871(3) 0.54536(16) 0.29945(19)
H15 H 0.1873 0.5751 0.3616
C16 C 0.1110(2) 0.57726(16) 0.2112(2)
H16 H 0.0609 0.6286 0.2138
C17 C 0.1099(3) 0.53242(17) 0.11927(19)
H17 H 0.0592 0.5538 0.0599
C18 C 0.1841(2) 0.45558(15) 0.11521(17)
H18 H 0.1817 0.4251 0.0535
C19 C 0.1839(2) 0.16196(15) 0.18413(16)
C20 C 0.2330(2) 0.07498(15) 0.17304(17)
H19 H 0.2872 0.0426 0.2224
C21 C 0.1810(3) 0.04805(18) 0.0696(2)
H20 H 0.1990 -0.0064 0.0442
C22 C 0.1048(3) 0.10741(19) 0.0126(2)
H21 H 0.0670 0.0980 -0.0552
loop_
_geom_bond_atom_site_label_1
_geom_bond_atom_site_label_2
_geom_bond_site_symmetry_1
_geom_bond_site_symmetry_2
S1 O1 1_555 1_555
S2 C19 1_555 1_555
O2 S1 1_555 1_555
N1 S1 1_555 1_555
C1 N1 1_555 1_555
C2 C1 1_555 1_555
C3 C2 1_555 1_555
H1 C3 1_555 1_555
C4 C3 1_555 1_555
H2 C4 1_555 1_555
C5 C4 1_555 1_555
H3 C5 1_555 1_555
C6 C5 1_555 1_555
H4 C6 1_555 1_555
C7 C2 1_555 1_555
C8 N1 1_555 1_555
H5 C8 1_555 1_555
C9 C1 1_555 1_555
H6 C9 1_555 1_555
H7 C9 1_555 1_555
H8 C9 1_555 1_555
C10 C1 1_555 1_555
H9 C10 1_555 1_555
C11 C10 1_555 1_555
H10 C11 1_555 1_555
H11 C11 1_555 1_555
C12 C10 1_555 1_555
H12 C12 1_555 1_555
H13 C12 1_555 1_555
C13 C8 1_555 1_555
C14 C13 1_555 1_555
H14 C14 1_555 1_555
C15 C14 1_555 1_555
H15 C15 1_555 1_555
C16 C15 1_555 1_555
H16 C16 1_555 1_555
C17 C16 1_555 1_555
H17 C17 1_555 1_555
C18 C13 1_555 1_555
H18 C18 1_555 1_555
C19 S1 1_555 1_555
C20 C19 1_555 1_555
H19 C20 1_555 1_555
C21 C20 1_555 1_555
H20 C21 1_555 1_555
C22 S2 1_555 1_555
H21 C22 1_555 1_555
C6 C7 1_555 1_555
C7 C8 1_555 1_555
C11 C12 1_555 1_555
C17 C18 1_555 1_555
C21 C22 1_555 1_555

#END
