
#######################################################################
#
#                 Cambridge Crystallographic Data Centre
#                                CCDC 
#
#######################################################################
#
# If this CIF has been generated from an entry in the Cambridge 
# Structural Database, then it will include bibliographic, chemical, 
# crystal, experimental, refinement or atomic coordinate data resulting 
# from the CCDC's data processing and validation procedures.
#
#######################################################################

data_KEMXIM
_chemical_formula_moiety         'C25 H27 N1 O2 S2'
_chemical_name_systematic        
1-cyclohexyl-1-methyl-3-phenyl-2-[(thiophen-2-yl)sulfonyl]-2,3-dihydro-1H-isoindole
_symmetry_cell_setting           monoclinic
_symmetry_space_group_name_H-M   'P 21/c'
_symmetry_Int_Tables_number      14
_space_group_name_Hall           '-P 2ybc'
loop_
_symmetry_equiv_pos_site_id
_symmetry_equiv_pos_as_xyz
1 x,y,z
2 -x,1/2+y,1/2-z
3 -x,-y,-z
4 x,1/2-y,1/2+z
_cell_length_a                   10.498(2)
_cell_length_b                   12.404(3)
_cell_length_c                   17.077(4)
_cell_angle_alpha                90
_cell_angle_beta                 93.234(4)
_cell_angle_gamma                90
_cell_volume                     2220.18
_exptl_crystal_colour            colorless
_exptl_crystal_description       block
_cell_formula_units_Z            4
loop_
_atom_site_label
_atom_site_type_symbol
_atom_site_fract_x
_atom_site_fract_y
_atom_site_fract_z
S1 S 0.69491(4) 0.44240(4) 0.71187(3)
S2 S 0.55664(7) 0.36303(9) 0.85033(4)
O1 O 0.78681(14) 0.48278(13) 0.76973(10)
O2 O 0.66000(15) 0.50590(11) 0.64424(9)
N1 N 0.74256(13) 0.32370(12) 0.68479(9)
C1 C 0.87202(15) 0.27547(15) 0.70972(10)
C2 C 0.87093(16) 0.17981(14) 0.65437(10)
C3 C 0.96028(18) 0.09647(16) 0.65266(11)
H1 H 1.0309 0.0954 0.6881
C4 C 0.9420(2) 0.01565(17) 0.59738(12)
H2 H 1.0006 -0.0405 0.5960
C5 C 0.8374(2) 0.01717(17) 0.54402(12)
H3 H 0.8253 -0.0387 0.5080
C6 C 0.75071(19) 0.10148(16) 0.54408(11)
H4 H 0.6811 0.1034 0.5079
C7 C 0.76987(16) 0.18289(14) 0.59915(10)
C8 C 0.69417(16) 0.28507(14) 0.60565(10)
H5 H 0.7217 0.3361 0.5662
C9 C 0.98208(18) 0.35105(17) 0.69046(13)
H6 H 0.9671 0.3791 0.6383
H7 H 1.0609 0.3117 0.6937
H8 H 0.9869 0.4096 0.7273
C10 C 0.87348(16) 0.24443(16) 0.79794(10)
H9 H 0.8441 0.3079 0.8259
C11 C 1.0062(2) 0.2159(2) 0.83505(13)
H10 H 1.0391 0.1530 0.8091
H11 H 1.0644 0.2754 0.8278
C12 C 0.9988(2) 0.1927(3) 0.92293(13)
H12 H 1.0823 0.1710 0.9445
H13 H 0.9749 0.2582 0.9495
C13 C 0.9028(3) 0.1048(2) 0.93836(13)
H14 H 0.9316 0.0372 0.9170
H15 H 0.8973 0.0958 0.9945
C14 C 0.7723(2) 0.1324(2) 0.90159(11)
H16 H 0.7396 0.1960 0.9267
H17 H 0.7140 0.0732 0.9096
C15 C 0.7800(2) 0.15339(18) 0.81347(11)
H18 H 0.8072 0.0881 0.7880
H19 H 0.6960 0.1723 0.7911
C16 C 0.55053(16) 0.27248(14) 0.59537(10)
C17 C 0.48479(18) 0.19730(16) 0.63819(11)
H20 H 0.5291 0.1533 0.6745
C18 C 0.35330(19) 0.18786(17) 0.62688(13)
H21 H 0.3097 0.1381 0.6561
C19 C 0.28668(18) 0.25200(18) 0.57251(12)
H22 H 0.1985 0.2457 0.5655
C20 C 0.35128(18) 0.32546(17) 0.52866(12)
H23 H 0.3068 0.3680 0.4915
C21 C 0.48311(18) 0.33573(16) 0.54022(11)
H24 H 0.5264 0.3854 0.5107
C22 C 0.55460(17) 0.41929(15) 0.75973(11)
C23 C 0.43085(17) 0.43933(17) 0.73101(11)
H25 H 0.4090 0.4687 0.6820
C24 C 0.3423(2) 0.4091(2) 0.78636(15)
H26 H 0.2546 0.4180 0.7778
C25 C 0.3954(3) 0.3671(3) 0.85118(18)
H27 H 0.3495 0.3426 0.8927
loop_
_geom_bond_atom_site_label_1
_geom_bond_atom_site_label_2
_geom_bond_site_symmetry_1
_geom_bond_site_symmetry_2
S1 O1 1_555 1_555
S2 C22 1_555 1_555
O2 S1 1_555 1_555
N1 S1 1_555 1_555
C1 N1 1_555 1_555
C2 C1 1_555 1_555
C3 C2 1_555 1_555
H1 C3 1_555 1_555
C4 C3 1_555 1_555
H2 C4 1_555 1_555
C5 C4 1_555 1_555
H3 C5 1_555 1_555
C6 C5 1_555 1_555
H4 C6 1_555 1_555
C7 C2 1_555 1_555
C8 N1 1_555 1_555
H5 C8 1_555 1_555
C9 C1 1_555 1_555
H6 C9 1_555 1_555
H7 C9 1_555 1_555
H8 C9 1_555 1_555
C10 C1 1_555 1_555
H9 C10 1_555 1_555
C11 C10 1_555 1_555
H10 C11 1_555 1_555
H11 C11 1_555 1_555
C12 C11 1_555 1_555
H12 C12 1_555 1_555
H13 C12 1_555 1_555
C13 C12 1_555 1_555
H14 C13 1_555 1_555
H15 C13 1_555 1_555
C14 C13 1_555 1_555
H16 C14 1_555 1_555
H17 C14 1_555 1_555
C15 C10 1_555 1_555
H18 C15 1_555 1_555
H19 C15 1_555 1_555
C16 C8 1_555 1_555
C17 C16 1_555 1_555
H20 C17 1_555 1_555
C18 C17 1_555 1_555
H21 C18 1_555 1_555
C19 C18 1_555 1_555
H22 C19 1_555 1_555
C20 C19 1_555 1_555
H23 C20 1_555 1_555
C21 C16 1_555 1_555
H24 C21 1_555 1_555
C22 S1 1_555 1_555
C23 C22 1_555 1_555
H25 C23 1_555 1_555
C24 C23 1_555 1_555
H26 C24 1_555 1_555
C25 S2 1_555 1_555
H27 C25 1_555 1_555
C6 C7 1_555 1_555
C7 C8 1_555 1_555
C14 C15 1_555 1_555
C20 C21 1_555 1_555
C24 C25 1_555 1_555

#END
