
#######################################################################
#
#                 Cambridge Crystallographic Data Centre
#                                CCDC 
#
#######################################################################
#
# If this CIF has been generated from an entry in the Cambridge 
# Structural Database, then it will include bibliographic, chemical, 
# crystal, experimental, refinement or atomic coordinate data resulting 
# from the CCDC's data processing and validation procedures.
#
#######################################################################

data_KEMZOU
_chemical_formula_moiety         'C24 H23 N1 O3 S1'
_chemical_name_systematic        
1-[(4-methylphenyl)sulfonyl]-3-phenyl-3a,4,5,6,9,9a-hexahydro-1H-5,9-methanocycloocta[b]pyrrol-10-one
_symmetry_cell_setting           orthorhombic
_symmetry_space_group_name_H-M   'P b c a'
_symmetry_Int_Tables_number      61
_space_group_name_Hall           '-P 2ac 2ab'
loop_
_symmetry_equiv_pos_site_id
_symmetry_equiv_pos_as_xyz
1 x,y,z
2 1/2-x,-y,1/2+z
3 1/2+x,1/2-y,-z
4 -x,1/2+y,1/2-z
5 -x,-y,-z
6 1/2+x,y,1/2-z
7 1/2-x,1/2+y,z
8 x,1/2-y,1/2+z
_cell_length_a                   11.4003(4)
_cell_length_b                   19.0603(8)
_cell_length_c                   19.1957(6)
_cell_angle_alpha                90
_cell_angle_beta                 90
_cell_angle_gamma                90
_cell_volume                     4171.09
_exptl_crystal_colour            'light colorless'
_exptl_crystal_description       block
_cell_formula_units_Z            8
loop_
_atom_site_label
_atom_site_type_symbol
_atom_site_fract_x
_atom_site_fract_y
_atom_site_fract_z
S1 S 0.11732(5) 0.13239(3) 0.47777(3)
O1 O -0.25203(17) 0.14366(10) 0.55165(10)
O2 O 0.03652(15) 0.07689(9) 0.46345(8)
O3 O 0.14848(17) 0.18085(9) 0.42411(7)
N1 N 0.05906(16) 0.18071(9) 0.54122(8)
C1 C 0.03052(18) 0.14518(11) 0.60903(10)
H1 H 0.0971 0.1154 0.6221
C2 C -0.08017(19) 0.09962(12) 0.60759(11)
H2 H -0.0768 0.0666 0.5685
C3 C -0.0870(2) 0.06040(12) 0.67559(13)
H3 H -0.0491 0.0174 0.6792
C4 C -0.1442(2) 0.08435(14) 0.72987(13)
H4 H -0.1424 0.0580 0.7706
C5 C -0.2117(3) 0.15096(15) 0.73032(13)
H5 H -0.1847 0.1796 0.7689
H6 H -0.2938 0.1402 0.7384
C6 C -0.2014(2) 0.19381(13) 0.66280(12)
H7 H -0.2733 0.2212 0.6565
C7 C -0.09564(19) 0.24378(12) 0.66106(12)
H8 H -0.0995 0.2741 0.7016
H9 H -0.1022 0.2733 0.6201
C8 C 0.02528(18) 0.20780(11) 0.66001(10)
H10 H 0.0480 0.1931 0.7070
C9 C -0.1870(2) 0.14549(12) 0.60157(12)
C10 C 0.11791(18) 0.25547(11) 0.62872(10)
C11 C 0.12627(19) 0.24052(11) 0.56113(11)
H11 H 0.1714 0.2665 0.5301
C12 C 0.1817(2) 0.31092(11) 0.66571(10)
C13 C 0.1453(2) 0.33632(12) 0.72993(11)
H12 H 0.0778 0.3183 0.7504
C14 C 0.2081(3) 0.38798(13) 0.76375(13)
H13 H 0.1821 0.4048 0.8065
C15 C 0.3087(3) 0.41478(14) 0.73483(13)
H14 H 0.3503 0.4499 0.7577
C16 C 0.3478(2) 0.38934(14) 0.67186(13)
H15 H 0.4164 0.4069 0.6523
C17 C 0.2855(2) 0.33799(13) 0.63798(12)
H16 H 0.3130 0.3209 0.5957
C18 C 0.24534(19) 0.09585(13) 0.51321(11)
C19 C 0.3463(2) 0.13673(14) 0.51860(13)
H17 H 0.3476 0.1822 0.5009
C20 C 0.4445(2) 0.10886(17) 0.55056(14)
H18 H 0.5121 0.1359 0.5541
C21 C 0.4438(2) 0.04145(16) 0.57736(12)
C22 C 0.3433(2) 0.00202(15) 0.57127(13)
H19 H 0.3423 -0.0434 0.5889
C23 C 0.2436(2) 0.02828(13) 0.53951(12)
H20 H 0.1763 0.0009 0.5359
C24 C 0.5513(2) 0.0120(2) 0.61343(15)
H21 H 0.5593 0.0331 0.6585
H22 H 0.6197 0.0220 0.5860
H23 H 0.5429 -0.0379 0.6185
loop_
_geom_bond_atom_site_label_1
_geom_bond_atom_site_label_2
_geom_bond_site_symmetry_1
_geom_bond_site_symmetry_2
S1 O2 1_555 1_555
O1 C9 1_555 1_555
O3 S1 1_555 1_555
N1 S1 1_555 1_555
C1 N1 1_555 1_555
H1 C1 1_555 1_555
C2 C1 1_555 1_555
H2 C2 1_555 1_555
C3 C2 1_555 1_555
H3 C3 1_555 1_555
C4 C3 1_555 1_555
H4 C4 1_555 1_555
C5 C4 1_555 1_555
H5 C5 1_555 1_555
H6 C5 1_555 1_555
C6 C5 1_555 1_555
H7 C6 1_555 1_555
C7 C6 1_555 1_555
H8 C7 1_555 1_555
H9 C7 1_555 1_555
C8 C1 1_555 1_555
H10 C8 1_555 1_555
C9 C2 1_555 1_555
C10 C8 1_555 1_555
C11 N1 1_555 1_555
H11 C11 1_555 1_555
C12 C10 1_555 1_555
C13 C12 1_555 1_555
H12 C13 1_555 1_555
C14 C13 1_555 1_555
H13 C14 1_555 1_555
C15 C14 1_555 1_555
H14 C15 1_555 1_555
C16 C15 1_555 1_555
H15 C16 1_555 1_555
C17 C12 1_555 1_555
H16 C17 1_555 1_555
C18 S1 1_555 1_555
C19 C18 1_555 1_555
H17 C19 1_555 1_555
C20 C19 1_555 1_555
H18 C20 1_555 1_555
C21 C20 1_555 1_555
C22 C21 1_555 1_555
H19 C22 1_555 1_555
C23 C18 1_555 1_555
H20 C23 1_555 1_555
C24 C21 1_555 1_555
H21 C24 1_555 1_555
H22 C24 1_555 1_555
H23 C24 1_555 1_555
C6 C9 1_555 1_555
C7 C8 1_555 1_555
C10 C11 1_555 1_555
C16 C17 1_555 1_555
C22 C23 1_555 1_555

#END
