
#######################################################################
#
#                 Cambridge Crystallographic Data Centre
#                                CCDC 
#
#######################################################################
#
# If this CIF has been generated from an entry in the Cambridge 
# Structural Database, then it will include bibliographic, chemical, 
# crystal, experimental, refinement or atomic coordinate data resulting 
# from the CCDC's data processing and validation procedures.
#
#######################################################################

data_KEMZAF
_chemical_formula_moiety         'C20 H26 O3 S1'
_chemical_name_systematic        
1-(11,11-Dimethyl-3-oxido-5-oxa-3-thiatricyclo[6.2.1.0^1,6^]undec-4-yl)-3-phenylprop-2-en-1-ol
_symmetry_cell_setting           orthorhombic
_symmetry_space_group_name_H-M   'P 21 21 21'
_symmetry_Int_Tables_number      19
_space_group_name_Hall           'P 2ac 2ab'
loop_
_symmetry_equiv_pos_site_id
_symmetry_equiv_pos_as_xyz
1 x,y,z
2 1/2-x,-y,1/2+z
3 -x,1/2+y,1/2-z
4 1/2+x,1/2-y,-z
_cell_length_a                   11.498(3)
_cell_length_b                   22.873(6)
_cell_length_c                   7.174(2)
_cell_angle_alpha                90
_cell_angle_beta                 90
_cell_angle_gamma                90
_cell_volume                     1886.72
_exptl_crystal_colour            colorless
_exptl_crystal_description       block
_cell_formula_units_Z            4
loop_
_atom_site_label
_atom_site_type_symbol
_atom_site_fract_x
_atom_site_fract_y
_atom_site_fract_z
S1 S 0.87568(6) 0.56268(3) 0.18317(9)
O1 O 0.88584(16) 0.64312(7) -0.0813(2)
O2 O 0.82159(17) 0.50290(8) 0.2005(3)
O3 O 0.8839(2) 0.54795(10) -0.3747(3)
H1 H 0.8142 0.5405 -0.3745
C1 C 0.7770(2) 0.67520(12) 0.2022(4)
C2 C 0.7985(3) 0.68199(12) -0.0082(4)
H2 H 0.7254 0.6769 -0.0766
C3 C 0.8409(3) 0.74560(12) -0.0257(4)
H3 H 0.9207 0.7471 -0.0692
H4 H 0.7921 0.7676 -0.1108
C4 C 0.8308(3) 0.76931(12) 0.1737(4)
H5 H 0.8759 0.8050 0.1963
C5 C 0.7022(3) 0.77488(14) 0.2204(5)
H6 H 0.6601 0.7946 0.1216
H7 H 0.6907 0.7959 0.3364
C6 C 0.6636(3) 0.71011(13) 0.2384(5)
H8 H 0.6333 0.7021 0.3619
H9 H 0.6046 0.7006 0.1466
C7 C 0.8705(3) 0.71599(12) 0.2910(4)
C8 C 0.9972(3) 0.69840(15) 0.2610(5)
H10 H 1.0108 0.6920 0.1305
H11 H 1.0132 0.6631 0.3287
H12 H 1.0473 0.7291 0.3047
C9 C 0.8552(4) 0.72478(16) 0.5021(4)
H13 H 0.7766 0.7364 0.5278
H14 H 0.9076 0.7546 0.5445
H15 H 0.8719 0.6888 0.5657
C10 C 0.7654(2) 0.61204(12) 0.2678(4)
H16 H 0.6899 0.5974 0.2290
H17 H 0.7670 0.6116 0.4030
C11 C 0.8549(2) 0.58424(11) -0.0629(3)
H18 H 0.7726 0.5798 -0.0952
C12 C 0.9275(2) 0.54457(12) -0.1908(4)
H19 H 0.9170 0.5042 -0.1478
C13 C 1.0549(2) 0.55715(12) -0.1900(5)
H20 H 1.0924(15) 0.56001(17) -0.074(5)
C14 C 1.1177(3) 0.56443(13) -0.3407(5)
H21 H 1.0783(17) 0.56375(13) -0.453(5)
C15 C 1.2446(3) 0.57360(13) -0.3502(6)
C16 C 1.2929(4) 0.59395(17) -0.5172(8)
H22 H 1.2453 0.6009 -0.6196
C17 C 1.4125(5) 0.60377(19) -0.5300(10)
H23 H 1.4439 0.6191 -0.6390
C18 C 1.4825(4) 0.59110(19) -0.3852(11)
H24 H 1.5622 0.5970 -0.3960
C19 C 1.4382(3) 0.56980(18) -0.2237(9)
H25 H 1.4873 0.5612 -0.1243
C20 C 1.3189(3) 0.56081(15) -0.2076(8)
H26 H 1.2892 0.5457 -0.0970
loop_
_geom_bond_atom_site_label_1
_geom_bond_atom_site_label_2
_geom_bond_site_symmetry_1
_geom_bond_site_symmetry_2
S1 O2 1_555 1_555
O1 C2 1_555 1_555
O3 H1 1_555 1_555
C1 C2 1_555 1_555
C2 H2 1_555 1_555
C3 C2 1_555 1_555
H3 C3 1_555 1_555
H4 C3 1_555 1_555
C4 C3 1_555 1_555
H5 C4 1_555 1_555
C5 C4 1_555 1_555
H6 C5 1_555 1_555
H7 C5 1_555 1_555
C6 C1 1_555 1_555
H8 C6 1_555 1_555
H9 C6 1_555 1_555
C7 C1 1_555 1_555
C8 C7 1_555 1_555
H10 C8 1_555 1_555
H11 C8 1_555 1_555
H12 C8 1_555 1_555
C9 C7 1_555 1_555
H13 C9 1_555 1_555
H14 C9 1_555 1_555
H15 C9 1_555 1_555
C10 S1 1_555 1_555
H16 C10 1_555 1_555
H17 C10 1_555 1_555
C11 S1 1_555 1_555
H18 C11 1_555 1_555
C12 O3 1_555 1_555
H19 C12 1_555 1_555
C13 C12 1_555 1_555
H20 C13 1_555 1_555
C14 C13 1_555 1_555
H21 C14 1_555 1_555
C15 C14 1_555 1_555
C16 C15 1_555 1_555
H22 C16 1_555 1_555
C17 C16 1_555 1_555
H23 C17 1_555 1_555
C18 C17 1_555 1_555
H24 C18 1_555 1_555
C19 C18 1_555 1_555
H25 C19 1_555 1_555
C20 C15 1_555 1_555
H26 C20 1_555 1_555
O1 C11 1_555 1_555
C1 C10 1_555 1_555
C4 C7 1_555 1_555
C5 C6 1_555 1_555
C11 C12 1_555 1_555
C19 C20 1_555 1_555

#END
