
#######################################################################
#
#                 Cambridge Crystallographic Data Centre
#                                CCDC 
#
#######################################################################
#
# If this CIF has been generated from an entry in the Cambridge 
# Structural Database, then it will include bibliographic, chemical, 
# crystal, experimental, refinement or atomic coordinate data resulting 
# from the CCDC's data processing and validation procedures.
#
#######################################################################

data_KENCAJ
_chemical_formula_moiety         'C24 H27 Cl1 N6 O2'
_chemical_name_systematic        
2-Amino-6-(((6-chloropyridin-3-yl)methyl)(ethyl)amino)-4-(4-isopropylphenyl)-1-methyl-5-nitro-1,4-dihydropyridine-3-carbonitrile
_symmetry_cell_setting           monoclinic
_symmetry_space_group_name_H-M   'P 21/c'
_symmetry_Int_Tables_number      14
_space_group_name_Hall           '-P 2ybc'
loop_
_symmetry_equiv_pos_site_id
_symmetry_equiv_pos_as_xyz
1 x,y,z
2 -x,1/2+y,1/2-z
3 -x,-y,-z
4 x,1/2-y,1/2+z
_cell_length_a                   11.1272(10)
_cell_length_b                   13.4939(13)
_cell_length_c                   17.1732(16)
_cell_angle_alpha                90
_cell_angle_beta                 96.884(2)
_cell_angle_gamma                90
_cell_volume                     2559.96
_exptl_crystal_colour            yellow
_exptl_crystal_description       block
_cell_formula_units_Z            4
loop_
_atom_site_label
_atom_site_type_symbol
_atom_site_fract_x
_atom_site_fract_y
_atom_site_fract_z
C1 C 0.0255(4) 0.1902(4) 0.4993(3)
C2 C 0.0155(5) 0.1548(5) 0.4241(3)
H1 H -0.0555 0.1627 0.3901
C3 C 0.1130(4) 0.1079(4) 0.4010(2)
H2 H 0.1082 0.0803 0.3511
C4 C 0.2195(3) 0.1010(3) 0.45135(18)
C5 C 0.2185(4) 0.1434(4) 0.5230(2)
H3 H 0.2896 0.1414 0.5574
C6 C 0.3282(4) 0.0466(3) 0.42917(18)
H4 H 0.3899 0.0441 0.4741
H5 H 0.3055 -0.0209 0.4148
C7 C 0.4569(4) 0.1814(3) 0.3828(2)
H6 H 0.4603 0.2204 0.3357
H7 H 0.4207 0.2223 0.4202
C8 C 0.5805(5) 0.1555(4) 0.4159(4)
H8 H 0.5785 0.1219 0.4650
H9 H 0.6279 0.2149 0.4242
H10 H 0.6160 0.1129 0.3801
C9 C 0.3681(2) 0.0518(2) 0.29235(16)
C10 C 0.3819(3) 0.0764(2) 0.15486(15)
C11 C 0.3589(3) -0.0206(2) 0.13897(16)
C12 C 0.3004(3) -0.0819(2) 0.19850(15)
H11 H 0.3196 -0.1518 0.1905
C13 C 0.3636(2) -0.0502(2) 0.27710(15)
C14 C 0.2958(3) 0.2101(2) 0.22761(19)
H12 H 0.2535 0.2156 0.2729
H13 H 0.2394 0.2167 0.1810
H14 H 0.3557 0.2614 0.2288
C15 C 0.3894(3) -0.0648(2) 0.06981(19)
C16 C 0.1635(6) -0.0714(10) 0.1918(6)
C17 C 0.0998(8) -0.0178(8) 0.1312(4)
H15 H 0.1399 0.0078 0.0912
C18 C -0.0238(8) -0.0024(8) 0.1306(5)
H16 H -0.0665 0.0335 0.0900
C19 C -0.0837(6) -0.0406(11) 0.1905(6)
C20 C -0.0200(7) -0.0943(11) 0.2510(6)
H17 H -0.0600 -0.1198 0.2911
C21 C 0.1037(7) -0.1097(10) 0.2517(6)
H18 H 0.1463 -0.1456 0.2922
C22 C -0.2208(10) -0.0260(14) 0.1899(10)
H19 H -0.2455 -0.0654 0.2332
C23 C -0.2835(18) -0.0694(17) 0.1151(10)
H20 H -0.3694 -0.0689 0.1168
H21 H -0.2565 -0.1363 0.1095
H22 H -0.2645 -0.0306 0.0713
C24 C -0.250(2) 0.0771(15) 0.2048(11)
H23 H -0.2329 0.1174 0.1615
H24 H -0.2030 0.0993 0.2520
H25 H -0.3349 0.0823 0.2108
Cl1 Cl -0.10205(15) 0.24571(18) 0.53248(12)
N1 N 0.1222(4) 0.1879(4) 0.5478(2)
N2 N 0.3785(3) 0.09454(19) 0.36324(13)
N3 N 0.3551(2) 0.11307(16) 0.22775(13)
N4 N 0.4220(3) 0.1445(2) 0.10730(16)
H26 H 0.446(3) 0.120(2) 0.0657(13)
H27 H 0.459(3) 0.1960(17) 0.1276(19)
N5 N 0.4130(4) -0.1034(3) 0.01492(19)
N6 N 0.4307(2) -0.11758(19) 0.32363(15)
O1 O 0.4271(3) -0.20683(17) 0.30269(15)
O2 O 0.4958(2) -0.09233(18) 0.38466(13)
C25? C 0.1630(7) -0.0665(9) 0.1991(7)
C26? C 0.0954(8) 0.0061(7) 0.1564(5)
C27? C -0.0267(8) 0.0176(8) 0.1645(5)
C28? C -0.0811(7) -0.0436(10) 0.2151(8)
C29? C -0.0135(11) -0.1162(11) 0.2578(10)
C30? C 0.1086(10) -0.1277(10) 0.2498(9)
C31? C -0.2169(12) -0.0246(15) 0.2271(10)
C32? C -0.2951(13) -0.0623(15) 0.1561(9)
C33? C -0.245(2) 0.0739(16) 0.2512(12)
H28? H 0.1318 0.0471 0.1225
H29? H -0.0719 0.0662 0.1359
H30? H -0.0499 -0.1572 0.2917
H31? H 0.1538 -0.1763 0.2783
H32? H -0.2333 -0.0681 0.2703
H33? H -0.3753 -0.0746 0.1691
H34? H -0.2615 -0.1227 0.1385
H35? H -0.2986 -0.0137 0.1150
H36? H -0.2050 0.1213 0.2214
H37? H -0.2171 0.0820 0.3060
H38? H -0.3306 0.0842 0.2425
loop_
_geom_bond_atom_site_label_1
_geom_bond_atom_site_label_2
_geom_bond_site_symmetry_1
_geom_bond_site_symmetry_2
C1 C2 1_555 1_555
C2 H1 1_555 1_555
C3 C2 1_555 1_555
H2 C3 1_555 1_555
C4 C3 1_555 1_555
C5 C4 1_555 1_555
H3 C5 1_555 1_555
C6 C4 1_555 1_555
H4 C6 1_555 1_555
H5 C6 1_555 1_555
C7 H6 1_555 1_555
H7 C7 1_555 1_555
C8 C7 1_555 1_555
H8 C8 1_555 1_555
H9 C8 1_555 1_555
H10 C8 1_555 1_555
C9 C13 1_555 1_555
C10 C11 1_555 1_555
C11 C12 1_555 1_555
C12 H11 1_555 1_555
C13 C12 1_555 1_555
C14 H12 1_555 1_555
H13 C14 1_555 1_555
H14 C14 1_555 1_555
C15 C11 1_555 1_555
C16 C12 1_555 1_555
C17 C16 1_555 1_555
H15 C17 1_555 1_555
C18 C17 1_555 1_555
H16 C18 1_555 1_555
C19 C18 1_555 1_555
C20 C19 1_555 1_555
H17 C20 1_555 1_555
C21 C16 1_555 1_555
H18 C21 1_555 1_555
C22 C19 1_555 1_555
H19 C22 1_555 1_555
C23 C22 1_555 1_555
H20 C23 1_555 1_555
H21 C23 1_555 1_555
H22 C23 1_555 1_555
C24 C22 1_555 1_555
H23 C24 1_555 1_555
H24 C24 1_555 1_555
H25 C24 1_555 1_555
Cl1 C1 1_555 1_555
N1 C1 1_555 1_555
N2 C6 1_555 1_555
N3 C9 1_555 1_555
N4 C10 1_555 1_555
H26 N4 1_555 1_555
H27 N4 1_555 1_555
N5 C15 1_555 1_555
N6 C13 1_555 1_555
O1 N6 1_555 1_555
O2 N6 1_555 1_555
C5 N1 1_555 1_555
C7 N2 1_555 1_555
C9 N2 1_555 1_555
C10 N3 1_555 1_555
C14 N3 1_555 1_555
C20 C21 1_555 1_555

#END
