
#######################################################################
#
#                 Cambridge Crystallographic Data Centre
#                                CCDC 
#
#######################################################################
#
# If this CIF has been generated from an entry in the Cambridge 
# Structural Database, then it will include bibliographic, chemical, 
# crystal, experimental, refinement or atomic coordinate data resulting 
# from the CCDC's data processing and validation procedures.
#
#######################################################################

data_KENDOX
_chemical_formula_moiety         'C20 H18 N2 O5 S1'
_chemical_name_systematic        
N-((E)-3-(2-Furyl)-2-nitro-1-phenylprop-2-enyl)-4-methylbenzenesulfonamide
_chemical_properties_biological  
'potent inhibitor of HeLa cell proliferation; inhibits microtubule assembly in vitro; binds to tubulin, decreasing its intrinsic fluorescence'
_symmetry_cell_setting           triclinic
_symmetry_space_group_name_H-M   'P -1'
_symmetry_Int_Tables_number      2
_space_group_name_Hall           '-P 1'
loop_
_symmetry_equiv_pos_site_id
_symmetry_equiv_pos_as_xyz
1 x,y,z
2 -x,-y,-z
_cell_length_a                   8.8738(8)
_cell_length_b                   12.5069(13)
_cell_length_c                   17.5191(11)
_cell_angle_alpha                96.519(6)
_cell_angle_beta                 92.166(6)
_cell_angle_gamma                96.945(8)
_cell_volume                     1914.97
_exptl_crystal_colour            'pale yellow'
_exptl_crystal_description       block
_cell_formula_units_Z            4
loop_
_atom_site_label
_atom_site_type_symbol
_atom_site_fract_x
_atom_site_fract_y
_atom_site_fract_z
S1 S 0.20323(14) 0.39948(10) 0.49515(7)
O1 O 0.2967(4) 0.3327(2) 0.53131(17)
O2 O 0.1618(4) 0.4949(2) 0.53853(17)
O3 O -0.2003(4) 0.2975(3) 0.3569(2)
O4 O -0.1396(4) 0.2774(3) 0.2386(2)
O5 O 0.3249(4) 0.1423(3) 0.35059(17)
N1 N 0.0425(4) 0.3270(3) 0.46634(19)
H1 H -0.0415 0.3499 0.4793
N2 N -0.1129(5) 0.2713(3) 0.3075(3)
C1 C 0.2896(5) 0.4359(3) 0.4116(2)
C2 C 0.4227(6) 0.3980(4) 0.3897(3)
H2 H 0.4755 0.3605 0.4226
C3 C 0.4773(6) 0.4155(4) 0.3198(3)
H3 H 0.5689 0.3915 0.3062
C4 C 0.3992(6) 0.4681(4) 0.2688(3)
C5 C 0.2698(6) 0.5097(4) 0.2928(3)
H4 H 0.2191 0.5498 0.2609
C6 C 0.2148(6) 0.4929(4) 0.3632(3)
H5 H 0.1262 0.5204 0.3782
C7 C -0.1774(6) 0.1541(5) 0.4986(3)
H6 H -0.1756 0.2233 0.5247
C8 C -0.2805(7) 0.0697(6) 0.5172(3)
H7 H -0.3483 0.0830 0.5553
C9 C -0.2834(7) -0.0333(5) 0.4800(3)
H8 H -0.3515 -0.0901 0.4930
C10 C -0.1875(8) -0.0502(5) 0.4251(4)
H9 H -0.1901 -0.1193 0.3987
C11 C -0.0838(7) 0.0327(4) 0.4063(3)
H10 H -0.0160 0.0180 0.3685
C12 C -0.0787(5) 0.1360(4) 0.4422(3)
C13 C 0.0400(6) 0.2219(4) 0.4181(2)
C14 C 0.0267(5) 0.2312(3) 0.3333(3)
C15 C 0.1222(5) 0.2047(3) 0.2784(3)
H11 H 0.0885 0.2142 0.2290
C16 C 0.2644(5) 0.1653(3) 0.2824(3)
C17 C 0.3614(6) 0.1483(4) 0.2266(3)
H12 H 0.3462 0.1572 0.1750
C18 C 0.4900(7) 0.1147(4) 0.2610(3)
H13 H 0.5770 0.0977 0.2368
C19 C 0.4629(6) 0.1119(4) 0.3350(3)
H14 H 0.5299 0.0917 0.3712
C39 C 0.4516(6) 0.4789(5) 0.1888(3)
H29 H 0.3814 0.5154 0.1614
H30 H 0.4563 0.4082 0.1620
H31 H 0.5507 0.5202 0.1920
H36 H 0.140(4) 0.205(3) 0.4247(18)
S2 S 0.10029(13) 0.02999(9) 0.88518(7)
O6 O 0.0379(3) -0.0645(2) 0.91835(16)
O7 O 0.2129(3) 0.0220(2) 0.82946(17)
O8 O 0.1679(3) 0.2694(2) 1.08733(16)
O9 O 0.0824(4) 0.4176(3) 1.06623(18)
O10 O 0.2255(3) 0.3142(2) 0.79395(17)
N3 N 0.1732(4) 0.1143(2) 0.95720(18)
H15 H 0.1606 0.0983 1.0032
N4 N 0.1372(4) 0.3345(3) 1.0435(2)
C20 C -0.0503(5) 0.0850(3) 0.8434(2)
C21 C -0.0452(6) 0.1148(4) 0.7707(3)
H16 H 0.0413 0.1083 0.7430
C22 C -0.1688(6) 0.1547(4) 0.7381(3)
H17 H -0.1633 0.1759 0.6890
C23 C -0.2988(6) 0.1633(4) 0.7770(3)
C24 C -0.3011(6) 0.1348(4) 0.8507(3)
H18 H -0.3877 0.1412 0.8784
C25 C -0.1786(6) 0.0970(4) 0.8844(3)
H19 H -0.1820 0.0796 0.9346
C26 C 0.5090(5) 0.3316(4) 0.9808(3)
H20 H 0.4736 0.3845 0.9541
C27 C 0.6541(6) 0.3488(5) 1.0148(3)
H21 H 0.7168 0.4122 1.0090
C28 C 0.7072(6) 0.2747(6) 1.0568(3)
H22 H 0.8035 0.2883 1.0813
C29 C 0.6159(6) 0.1798(5) 1.0621(3)
H23 H 0.6515 0.1281 1.0899
C30 C 0.4724(5) 0.1596(4) 1.0270(3)
H24 H 0.4126 0.0941 1.0307
C31 C 0.4163(5) 0.2364(3) 0.9862(2)
C32 C 0.2606(5) 0.2177(3) 0.9455(2)
C33 C 0.1707(4) 0.3121(3) 0.9629(2)
C34 C 0.1238(5) 0.3790(3) 0.9157(2)
H25 H 0.0667 0.4303 0.9386
C35 C 0.1455(5) 0.3856(3) 0.8367(3)
C36 C 0.1029(5) 0.4584(4) 0.7910(3)
H26 H 0.0484 0.5156 0.8057
C37 C 0.1560(6) 0.4318(4) 0.7177(3)
H27 H 0.1434 0.4677 0.6746
C38 C 0.2280(6) 0.3450(4) 0.7220(3)
H28 H 0.2740 0.3100 0.6811
C40 C -0.4343(7) 0.2000(5) 0.7395(4)
H32 H -0.4024 0.2425 0.6993
H33 H -0.4844 0.2432 0.7771
H34 H -0.5034 0.1379 0.7180
H35 H 0.274(3) 0.211(2) 0.8924(18)
loop_
_geom_bond_atom_site_label_1
_geom_bond_atom_site_label_2
_geom_bond_site_symmetry_1
_geom_bond_site_symmetry_2
S1 O1 1_555 1_555
O2 S1 1_555 1_555
O3 N2 1_555 1_555
O4 N2 1_555 1_555
O5 C16 1_555 1_555
N1 S1 1_555 1_555
H1 N1 1_555 1_555
N2 C14 1_555 1_555
C1 S1 1_555 1_555
C2 C1 1_555 1_555
H2 C2 1_555 1_555
C3 C2 1_555 1_555
H3 C3 1_555 1_555
C4 C3 1_555 1_555
C5 C4 1_555 1_555
H4 C5 1_555 1_555
C6 C1 1_555 1_555
H5 C6 1_555 1_555
C7 H6 1_555 1_555
C8 C7 1_555 1_555
H7 C8 1_555 1_555
C9 C8 1_555 1_555
H8 C9 1_555 1_555
C10 C9 1_555 1_555
H9 C10 1_555 1_555
C11 C10 1_555 1_555
H10 C11 1_555 1_555
C12 C7 1_555 1_555
C13 N1 1_555 1_555
C14 C13 1_555 1_555
C15 C14 1_555 1_555
H11 C15 1_555 1_555
C16 C15 1_555 1_555
C17 C16 1_555 1_555
H12 C17 1_555 1_555
C18 C17 1_555 1_555
H13 C18 1_555 1_555
C19 O5 1_555 1_555
H14 C19 1_555 1_555
S2 O6 1_555 1_555
O7 S2 1_555 1_555
O8 N4 1_555 1_555
O9 N4 1_555 1_555
O10 C35 1_555 1_555
N3 S2 1_555 1_555
H15 N3 1_555 1_555
N4 C33 1_555 1_555
C20 S2 1_555 1_555
C21 C20 1_555 1_555
H16 C21 1_555 1_555
C22 C21 1_555 1_555
H17 C22 1_555 1_555
C23 C22 1_555 1_555
C24 C23 1_555 1_555
H18 C24 1_555 1_555
C25 C20 1_555 1_555
H19 C25 1_555 1_555
C26 H20 1_555 1_555
C27 C26 1_555 1_555
H21 C27 1_555 1_555
C28 C27 1_555 1_555
H22 C28 1_555 1_555
C29 C28 1_555 1_555
H23 C29 1_555 1_555
C30 C29 1_555 1_555
H24 C30 1_555 1_555
C31 C26 1_555 1_555
C32 N3 1_555 1_555
C33 C32 1_555 1_555
C34 C33 1_555 1_555
H25 C34 1_555 1_555
C35 C34 1_555 1_555
C36 C35 1_555 1_555
H26 C36 1_555 1_555
C37 C36 1_555 1_555
H27 C37 1_555 1_555
C38 O10 1_555 1_555
H28 C38 1_555 1_555
C39 C4 1_555 1_555
H29 C39 1_555 1_555
H30 C39 1_555 1_555
H31 C39 1_555 1_555
C40 C23 1_555 1_555
H32 C40 1_555 1_555
H33 C40 1_555 1_555
H34 C40 1_555 1_555
H35 C32 1_555 1_555
H36 C13 1_555 1_555
C5 C6 1_555 1_555
C11 C12 1_555 1_555
C12 C13 1_555 1_555
C18 C19 1_555 1_555
C24 C25 1_555 1_555
C30 C31 1_555 1_555
C31 C32 1_555 1_555
C37 C38 1_555 1_555

#END
