
#######################################################################
#
#                 Cambridge Crystallographic Data Centre
#                                CCDC 
#
#######################################################################
#
# If this CIF has been generated from an entry in the Cambridge 
# Structural Database, then it will include bibliographic, chemical, 
# crystal, experimental, refinement or atomic coordinate data resulting 
# from the CCDC's data processing and validation procedures.
#
#######################################################################

data_KENFAN
_chemical_formula_moiety         'C34 H24 N2 O2'
_chemical_name_systematic        
4-(1-methyl-2-phenyl-3H-indolizin-4-ium-3-ylidene)-2-(1-methyl-2-phenylindolizin-3-yl)-3-oxocyclobut-1-en-1-olate
_symmetry_cell_setting           monoclinic
_symmetry_space_group_name_H-M   'P 21/c'
_symmetry_Int_Tables_number      14
_space_group_name_Hall           '-P 2ybc'
loop_
_symmetry_equiv_pos_site_id
_symmetry_equiv_pos_as_xyz
1 x,y,z
2 -x,1/2+y,1/2-z
3 -x,-y,-z
4 x,1/2-y,1/2+z
_cell_length_a                   15.4125(6)
_cell_length_b                   10.5171(4)
_cell_length_c                   15.3460(6)
_cell_angle_alpha                90
_cell_angle_beta                 96.983(2)
_cell_angle_gamma                90
_cell_volume                     2469.06
_exptl_crystal_colour            'metallic greenish black'
_exptl_crystal_description       hexagonal
_cell_formula_units_Z            4
loop_
_atom_site_label
_atom_site_type_symbol
_atom_site_fract_x
_atom_site_fract_y
_atom_site_fract_z
O1 O 0.07035(8) -0.02960(11) 0.13685(7)
N1 N -0.09708(8) 0.29380(12) -0.00528(8)
C1 C -0.02875(9) 0.22019(14) 0.03877(9)
C2 C 0.01286(9) 0.30061(14) 0.10710(9)
C3 C -0.01276(9) 0.09475(14) 0.01599(9)
C4 C 0.03337(10) -0.01284(14) 0.06206(9)
C5 C 0.09087(10) 0.27229(13) 0.16963(10)
C6 C -0.02894(10) 0.41734(14) 0.10301(10)
C7 C -0.09756(10) 0.41231(14) 0.03387(10)
C8 C -0.15990(10) 0.26051(17) -0.07258(10)
H1 H -0.1598 0.1798 -0.0973
C9 C 0.09121(13) 0.30566(16) 0.25748(11)
H2 H 0.0411 0.3393 0.2767
C10 C -0.00644(13) 0.53394(15) 0.15652(12)
H3 H -0.0381 0.5338 0.2067
H4 H -0.0220 0.6080 0.1215
H5 H 0.0552 0.5350 0.1758
C11 C -0.16260(12) 0.49977(17) 0.00224(12)
H6 H -0.1639 0.5799 0.0276
C12 C -0.22200(12) 0.3462(2) -0.10261(12)
H7 H -0.2642 0.3242 -0.1487
C13 C 0.16617(12) 0.22130(17) 0.14294(13)
H8 H 0.1668 0.1970 0.0848
C14 C -0.22347(12) 0.4674(2) -0.06530(13)
H9 H -0.2662 0.5256 -0.0868
C15 C 0.16574(16) 0.28902(19) 0.31648(14)
H10 H 0.1652 0.3112 0.3751
C16 C 0.24007(16) 0.2403(2) 0.28916(18)
H11 H 0.2901 0.2301 0.3290
C17 C 0.24071(14) 0.2063(2) 0.20268(18)
H12 H 0.2913 0.1732 0.1841
O1B O -0.07035(8) 0.02960(11) -0.13685(7)
N1B N 0.09708(8) -0.29380(12) 0.00528(8)
C1B C 0.02875(9) -0.22019(14) -0.03877(9)
C2B C -0.01286(9) -0.30061(14) -0.10710(9)
C3B C 0.01276(9) -0.09475(14) -0.01599(9)
C4B C -0.03337(10) 0.01284(14) -0.06206(9)
C5B C -0.09087(10) -0.27229(13) -0.16963(10)
C6B C 0.02894(10) -0.41734(14) -0.10301(10)
C7B C 0.09756(10) -0.41231(14) -0.03387(10)
C8B C 0.15990(10) -0.26051(17) 0.07258(10)
H1B H 0.1598 -0.1798 0.0973
C9B C -0.09121(13) -0.30566(16) -0.25748(11)
H2B H -0.0411 -0.3393 -0.2767
C10B C 0.00644(13) -0.53394(15) -0.15652(12)
H3B H 0.0381 -0.5338 -0.2067
H4B H 0.0220 -0.6080 -0.1215
H5B H -0.0552 -0.5350 -0.1758
C11B C 0.16260(12) -0.49977(17) -0.00224(12)
H6B H 0.1639 -0.5799 -0.0276
C12B C 0.22200(12) -0.3462(2) 0.10261(12)
H7B H 0.2642 -0.3242 0.1487
C13B C -0.16617(12) -0.22130(17) -0.14294(13)
H8B H -0.1668 -0.1970 -0.0848
C14B C 0.22347(12) -0.4674(2) 0.06530(13)
H9B H 0.2662 -0.5256 0.0868
C15B C -0.16574(16) -0.28902(19) -0.31648(14)
H10B H -0.1652 -0.3112 -0.3751
C16B C -0.24007(16) -0.2403(2) -0.28916(18)
H11B H -0.2901 -0.2301 -0.3290
C17B C -0.24071(14) -0.2063(2) -0.20268(18)
H12B H -0.2913 -0.1732 -0.1841
N2 N 0.67099(9) 0.18994(14) 0.58577(9)
O2 O 0.39534(9) 0.13204(13) 0.43676(11)
C18 C 0.59846(10) 0.18180(16) 0.52036(11)
C19 C 0.54342(11) 0.07666(16) 0.50973(11)
C20 C 0.70951(11) 0.30754(17) 0.58145(11)
C21 C 0.70212(12) 0.10180(19) 0.64733(11)
H13 H 0.6735 0.0245 0.6509
C22 C 0.45248(11) 0.06014(17) 0.46916(12)
C23 C 0.59530(11) 0.29942(16) 0.47426(11)
C24 C 0.53871(12) 0.32690(18) 0.39147(12)
C25 C 0.77529(12) 0.1283(2) 0.70318(12)
H14 H 0.7973 0.0680 0.7444
C26 C 0.81757(12) 0.2446(2) 0.69926(12)
H15 H 0.8682 0.2611 0.7370
C27 C 0.66297(12) 0.37645(18) 0.51219(12)
C28 C 0.78494(12) 0.3342(2) 0.64026(13)
H16 H 0.8123 0.4129 0.6387
C29 C 0.53769(14) 0.2454(2) 0.32076(14)
H17 H 0.5696 0.1703 0.3270
C30 C 0.69045(18) 0.5038(2) 0.48323(18)
H18 H 0.6649 0.5686 0.5160
H19 H 0.6712 0.5144 0.4218
H20 H 0.7530 0.5103 0.4933
C31 C 0.48715(18) 0.4343(2) 0.37976(16)
H21 H 0.4859 0.4910 0.4261
C32 C 0.44045(17) 0.3815(3) 0.23110(18)
H22 H 0.4091 0.4011 0.1771
C33 C 0.49007(17) 0.2736(3) 0.24075(16)
H23 H 0.4918 0.2188 0.1934
C34 C 0.4374(2) 0.4593(3) 0.3005(2)
H24 H 0.4014 0.5306 0.2950
N2B N 0.32901(9) -0.18994(14) 0.41423(9)
O2B O 0.60466(9) -0.13204(13) 0.56324(11)
C18B C 0.40154(10) -0.18180(16) 0.47964(11)
C19B C 0.45658(11) -0.07666(16) 0.49027(11)
C20B C 0.29049(11) -0.30754(17) 0.41855(11)
C21B C 0.29788(12) -0.10180(19) 0.35267(11)
H13B H 0.3265 -0.0245 0.3491
C22B C 0.54752(11) -0.06014(17) 0.53084(12)
C23B C 0.40470(11) -0.29942(16) 0.52574(11)
C24B C 0.46129(12) -0.32690(18) 0.60853(12)
C25B C 0.22471(12) -0.1283(2) 0.29682(12)
H14B H 0.2027 -0.0680 0.2556
C26B C 0.18243(12) -0.2446(2) 0.30074(12)
H15B H 0.1318 -0.2611 0.2630
C27B C 0.33703(12) -0.37645(18) 0.48781(12)
C28B C 0.21506(12) -0.3342(2) 0.35974(13)
H16B H 0.1877 -0.4129 0.3613
C29B C 0.46231(14) -0.2454(2) 0.67924(14)
H17B H 0.4304 -0.1703 0.6730
C30B C 0.30955(18) -0.5038(2) 0.51677(18)
H18B H 0.3351 -0.5686 0.4840
H19B H 0.3288 -0.5144 0.5782
H20B H 0.2470 -0.5103 0.5067
C31B C 0.51285(18) -0.4343(2) 0.62024(16)
H21B H 0.5141 -0.4910 0.5739
C32B C 0.55955(17) -0.3815(3) 0.76890(18)
H22B H 0.5909 -0.4011 0.8229
C33B C 0.50993(17) -0.2736(3) 0.75925(16)
H23B H 0.5082 -0.2188 0.8066
C34B C 0.5626(2) -0.4593(3) 0.6995(2)
H24B H 0.5986 -0.5306 0.7050
loop_
_geom_bond_atom_site_label_1
_geom_bond_atom_site_label_2
_geom_bond_site_symmetry_1
_geom_bond_site_symmetry_2
O1 C4 1_555 1_555
N1 C1 1_555 1_555
C1 C2 1_555 1_555
C2 C5 1_555 1_555
C3 C1 1_555 1_555
C4 C3 1_555 1_555
C5 C9 1_555 1_555
C6 C2 1_555 1_555
C7 N1 1_555 1_555
C8 N1 1_555 1_555
H1 C8 1_555 1_555
C9 H2 1_555 1_555
C10 C6 1_555 1_555
H3 C10 1_555 1_555
H4 C10 1_555 1_555
H5 C10 1_555 1_555
C11 C7 1_555 1_555
H6 C11 1_555 1_555
C12 C8 1_555 1_555
H7 C12 1_555 1_555
C13 C5 1_555 1_555
H8 C13 1_555 1_555
C14 C11 1_555 1_555
H9 C14 1_555 1_555
C15 C9 1_555 1_555
H10 C15 1_555 1_555
C16 C15 1_555 1_555
H11 C16 1_555 1_555
C17 C13 1_555 1_555
H12 C17 1_555 1_555
N2 C18 1_555 1_555
O2 C22 1_555 1_555
C18 C19 1_555 1_555
C19 C22 1_555 1_555
C20 N2 1_555 1_555
C21 N2 1_555 1_555
H13 C21 1_555 1_555
C22 C19B 1_555 1_555
C23 C18 1_555 1_555
C24 C23 1_555 1_555
C25 C21 1_555 1_555
H14 C25 1_555 1_555
C26 C25 1_555 1_555
H15 C26 1_555 1_555
C27 C20 1_555 1_555
C28 C20 1_555 1_555
H16 C28 1_555 1_555
C29 C24 1_555 1_555
H17 C29 1_555 1_555
C30 C27 1_555 1_555
H18 C30 1_555 1_555
H19 C30 1_555 1_555
H20 C30 1_555 1_555
C31 C24 1_555 1_555
H21 C31 1_555 1_555
C32 H22 1_555 1_555
C33 C29 1_555 1_555
H23 C33 1_555 1_555
C34 C31 1_555 1_555
H24 C34 1_555 1_555
O1B C4B 1_555 1_555
N1B C1B 1_555 1_555
C1B C2B 1_555 1_555
C2B C5B 1_555 1_555
C3B C4 1_555 1_555
C4B C3 1_555 1_555
C5B C9B 1_555 1_555
C6B C2B 1_555 1_555
C7B N1B 1_555 1_555
C8B N1B 1_555 1_555
H1B C8B 1_555 1_555
C9B H2B 1_555 1_555
C10B C6B 1_555 1_555
H3B C10B 1_555 1_555
H4B C10B 1_555 1_555
H5B C10B 1_555 1_555
C11B C7B 1_555 1_555
H6B C11B 1_555 1_555
C12B C8B 1_555 1_555
H7B C12B 1_555 1_555
C13B C5B 1_555 1_555
H8B C13B 1_555 1_555
C14B C11B 1_555 1_555
H9B C14B 1_555 1_555
C15B C9B 1_555 1_555
H10B C15B 1_555 1_555
C16B C15B 1_555 1_555
H11B C16B 1_555 1_555
C17B C13B 1_555 1_555
H12B C17B 1_555 1_555
N2B C18B 1_555 1_555
O2B C22B 1_555 1_555
C18B C19B 1_555 1_555
C19B C22B 1_555 1_555
C20B N2B 1_555 1_555
C21B N2B 1_555 1_555
H13B C21B 1_555 1_555
C22B C19 1_555 1_555
C23B C18B 1_555 1_555
C24B C23B 1_555 1_555
C25B C21B 1_555 1_555
H14B C25B 1_555 1_555
C26B C25B 1_555 1_555
H15B C26B 1_555 1_555
C27B C20B 1_555 1_555
C28B C20B 1_555 1_555
H16B C28B 1_555 1_555
C29B C24B 1_555 1_555
H17B C29B 1_555 1_555
C30B C27B 1_555 1_555
H18B C30B 1_555 1_555
H19B C30B 1_555 1_555
H20B C30B 1_555 1_555
C31B C24B 1_555 1_555
H21B C31B 1_555 1_555
C32B H22B 1_555 1_555
C33B C29B 1_555 1_555
H23B C33B 1_555 1_555
C34B C31B 1_555 1_555
H24B C34B 1_555 1_555
C6 C7 1_555 1_555
C12 C14 1_555 1_555
C16 C17 1_555 1_555
C23 C27 1_555 1_555
C26 C28 1_555 1_555
C32 C33 1_555 1_555
C32 C34 1_555 1_555
C1B C3B 1_555 1_555
C3B C4B 1_555 1_555
C6B C7B 1_555 1_555
C12B C14B 1_555 1_555
C16B C17B 1_555 1_555
C23B C27B 1_555 1_555
C26B C28B 1_555 1_555
C32B C33B 1_555 1_555
C32B C34B 1_555 1_555

#END
