
#######################################################################
#
#                 Cambridge Crystallographic Data Centre
#                                CCDC 
#
#######################################################################
#
# If this CIF has been generated from an entry in the Cambridge 
# Structural Database, then it will include bibliographic, chemical, 
# crystal, experimental, refinement or atomic coordinate data resulting 
# from the CCDC's data processing and validation procedures.
#
#######################################################################

data_KENGES
_chemical_formula_moiety         'C6 F2 N12 O12'
_chemical_name_systematic        
2,2'-bis[fluoro(dinitro)methyl]-5,5'-dinitro-2H,2'H-3,3'-bi-1,2,4-triazole
_symmetry_cell_setting           monoclinic
_symmetry_space_group_name_H-M   'P 21/n'
_symmetry_Int_Tables_number      14
_space_group_name_Hall           '-P 2yn'
loop_
_symmetry_equiv_pos_site_id
_symmetry_equiv_pos_as_xyz
1 x,y,z
2 1/2-x,1/2+y,1/2-z
3 -x,-y,-z
4 1/2+x,1/2-y,1/2+z
_cell_length_a                   8.904(7)
_cell_length_b                   6.824(6)
_cell_length_c                   13.598(11)
_cell_angle_alpha                90
_cell_angle_beta                 101.189(15)
_cell_angle_gamma                90
_cell_volume                     810.522
_exptl_crystal_colour            colorless
_exptl_crystal_description       block
_cell_formula_units_Z            2
loop_
_atom_site_label
_atom_site_type_symbol
_atom_site_fract_x
_atom_site_fract_y
_atom_site_fract_z
N1 N 0.35668(16) 0.1045(2) 0.06534(11)
F1 F 0.83979(12) 0.03280(18) 0.11792(9)
O1 O 0.91450(19) 0.2456(3) -0.02448(14)
O2 O 0.6779(2) 0.3496(3) -0.06016(14)
C1 C 0.7633(2) 0.1957(3) 0.09562(14)
N2 N 0.60330(15) 0.1772(2) 0.09749(11)
C2 C 0.48876(19) 0.0677(3) 0.03924(13)
O3 O 0.8262(2) 0.5218(3) 0.14144(17)
N3 N 0.83238(19) 0.3554(4) 0.17308(16)
C3 C 0.3969(2) 0.2371(3) 0.14010(13)
N4 N 0.28443(18) 0.3253(3) 0.19099(12)
O4 O 0.15112(18) 0.3140(3) 0.14937(15)
O5 O 0.3313(2) 0.4134(3) 0.26828(13)
N5 N 0.54145(17) 0.2893(2) 0.16317(11)
O6 O 0.88358(19) 0.2949(4) 0.25674(14)
N6 N 0.7880(2) 0.2710(3) -0.00762(14)
N1B N 0.64332(16) -0.1045(2) -0.06534(11)
F1B F 0.16021(12) -0.03280(18) -0.11792(9)
O1B O 0.08550(19) -0.2456(3) 0.02448(14)
O2B O 0.3221(2) -0.3496(3) 0.06016(14)
C1B C 0.2367(2) -0.1957(3) -0.09562(14)
N2B N 0.39670(15) -0.1772(2) -0.09749(11)
C2B C 0.51124(19) -0.0677(3) -0.03924(13)
O3B O 0.1738(2) -0.5218(3) -0.14144(17)
N3B N 0.16762(19) -0.3554(4) -0.17308(16)
C3B C 0.6031(2) -0.2371(3) -0.14010(13)
N4B N 0.71557(18) -0.3253(3) -0.19099(12)
O4B O 0.84888(18) -0.3140(3) -0.14937(15)
O5B O 0.6687(2) -0.4134(3) -0.26828(13)
N5B N 0.45855(17) -0.2893(2) -0.16317(11)
O6B O 0.11642(19) -0.2949(4) -0.25674(14)
N6B N 0.2120(2) -0.2710(3) 0.00762(14)
loop_
_geom_bond_atom_site_label_1
_geom_bond_atom_site_label_2
_geom_bond_site_symmetry_1
_geom_bond_site_symmetry_2
N1 C2 1_555 1_555
F1 C1 1_555 1_555
O1 N6 1_555 1_555
O2 N6 1_555 1_555
C1 N2 1_555 1_555
N2 C2 1_555 1_555
C2 C2B 1_555 1_555
O3 N3 1_555 1_555
N3 C1 1_555 1_555
C3 N1 1_555 1_555
N4 C3 1_555 1_555
O4 N4 1_555 1_555
O5 N4 1_555 1_555
N5 N2 1_555 1_555
O6 N3 1_555 1_555
N6 C1 1_555 1_555
N1B C2B 1_555 1_555
F1B C1B 1_555 1_555
O1B N6B 1_555 1_555
O2B N6B 1_555 1_555
C1B N2B 1_555 1_555
N2B C2B 1_555 1_555
O3B N3B 1_555 1_555
N3B C1B 1_555 1_555
C3B N1B 1_555 1_555
N4B C3B 1_555 1_555
O4B N4B 1_555 1_555
O5B N4B 1_555 1_555
N5B N2B 1_555 1_555
O6B N3B 1_555 1_555
N6B C1B 1_555 1_555
C3 N5 1_555 1_555
C3B N5B 1_555 1_555

#END
