
#######################################################################
#
#                 Cambridge Crystallographic Data Centre
#                                CCDC 
#
#######################################################################
#
# If this CIF has been generated from an entry in the Cambridge 
# Structural Database, then it will include bibliographic, chemical, 
# crystal, experimental, refinement or atomic coordinate data resulting 
# from the CCDC's data processing and validation procedures.
#
#######################################################################

data_KENGIV
_chemical_formula_moiety         'C9 H9 N2 1+,Br1 1-'
_chemical_name_systematic        '2-methyl-1,8-naphthyridin-1-ium bromide'
_symmetry_cell_setting           orthorhombic
_symmetry_space_group_name_H-M   'P b c a'
_symmetry_Int_Tables_number      61
_space_group_name_Hall           '-P 2ac 2ab'
loop_
_symmetry_equiv_pos_site_id
_symmetry_equiv_pos_as_xyz
1 x,y,z
2 1/2-x,-y,1/2+z
3 -x,1/2+y,1/2-z
4 1/2+x,1/2-y,-z
5 -x,-y,-z
6 1/2+x,y,1/2-z
7 x,1/2-y,1/2+z
8 1/2-x,1/2+y,z
_cell_length_a                   13.848(5)
_cell_length_b                   7.725(3)
_cell_length_c                   16.782(6)
_cell_angle_alpha                90
_cell_angle_beta                 90
_cell_angle_gamma                90
_cell_volume                     1795.27
_cell_formula_units_Z            8
loop_
_atom_site_label
_atom_site_type_symbol
_atom_site_fract_x
_atom_site_fract_y
_atom_site_fract_z
Br1 Br 0.40263(3) 0.21315(6) 0.56930(2)
N1 N 0.2174(2) 0.1764(4) 0.18101(16)
H1 H 0.2692 0.1948 0.1540
N2 N 0.3156(2) 0.0667(4) 0.27915(18)
C1 C 0.1336(3) 0.2198(5) 0.1482(2)
C2 C 0.0491(3) 0.1920(5) 0.1929(3)
H2 H -0.0106 0.2211 0.1713
C3 C 0.0536(3) 0.1235(6) 0.2670(3)
H3 H -0.0029 0.1074 0.2960
C4 C 0.1420(3) 0.0769(5) 0.3002(2)
C5 C 0.1549(4) 0.0064(6) 0.3764(2)
H4 H 0.1017 -0.0133 0.4089
C6 C 0.2442(4) -0.0331(6) 0.4026(3)
H5 H 0.2535 -0.0812 0.4528
C7 C 0.3223(3) -0.0001(5) 0.3524(2)
H6 H 0.3837 -0.0265 0.3713
C8 C 0.2265(3) 0.1041(5) 0.2553(2)
C9 C 0.1315(4) 0.2961(6) 0.0687(2)
H7 H 0.1961 0.3034 0.0481
H8 H 0.1040 0.4100 0.0715
H9 H 0.0930 0.2251 0.0341
loop_
_geom_bond_atom_site_label_1
_geom_bond_atom_site_label_2
_geom_bond_site_symmetry_1
_geom_bond_site_symmetry_2
N1 H1 1_555 1_555
N2 C7 1_555 1_555
C1 N1 1_555 1_555
C2 C1 1_555 1_555
H2 C2 1_555 1_555
C3 C2 1_555 1_555
H3 C3 1_555 1_555
C4 C3 1_555 1_555
C5 C4 1_555 1_555
H4 C5 1_555 1_555
C6 C5 1_555 1_555
H5 C6 1_555 1_555
C7 C6 1_555 1_555
H6 C7 1_555 1_555
C8 N1 1_555 1_555
C9 C1 1_555 1_555
H7 C9 1_555 1_555
H8 C9 1_555 1_555
H9 C9 1_555 1_555
N2 C8 1_555 1_555
C4 C8 1_555 1_555

#END
