
#######################################################################
#
#                 Cambridge Crystallographic Data Centre
#                                CCDC 
#
#######################################################################
#
# If this CIF has been generated from an entry in the Cambridge 
# Structural Database, then it will include bibliographic, chemical, 
# crystal, experimental, refinement or atomic coordinate data resulting 
# from the CCDC's data processing and validation procedures.
#
#######################################################################

data_KENHIW
_chemical_formula_moiety         'C25 H20 N4 O2'
_chemical_name_systematic        
2-Amino-1,5-bis(4-methylphenyl)-4-(4-nitrophenyl)-1H-pyrrole-3-carbonitrile
_symmetry_cell_setting           monoclinic
_symmetry_space_group_name_H-M   'P 21/c'
_symmetry_Int_Tables_number      14
_space_group_name_Hall           '-P 2ybc'
loop_
_symmetry_equiv_pos_site_id
_symmetry_equiv_pos_as_xyz
1 x,y,z
2 -x,1/2+y,1/2-z
3 -x,-y,-z
4 x,1/2-y,1/2+z
_cell_length_a                   11.7035(14)
_cell_length_b                   15.0920(17)
_cell_length_c                   14.2500(12)
_cell_angle_alpha                90
_cell_angle_beta                 122.636(7)
_cell_angle_gamma                90
_cell_volume                     2119.57
_cell_formula_units_Z            4
loop_
_atom_site_label
_atom_site_type_symbol
_atom_site_fract_x
_atom_site_fract_y
_atom_site_fract_z
C1 C 0.70022(15) 0.73300(10) 0.71528(13)
H1 H 0.6127 0.7123 0.6871
C2 C 0.76679(17) 0.78214(11) 0.81300(13)
H2 H 0.7227 0.7942 0.8497
C3 C 0.89751(16) 0.81364(10) 0.85718(12)
C4 C 0.9706(2) 0.86513(14) 0.96510(16)
H3 H 1.0057 0.9191 0.9547
H4 H 1.0440 0.8302 1.0219
H5 H 0.9084 0.8788 0.9874
C5 C 0.95941(16) 0.79640(11) 0.79959(14)
H6 H 1.0466 0.8176 0.8274
C6 C 0.89411(16) 0.74803(11) 0.70097(14)
H7 H 0.9367 0.7379 0.6626
C7 C 0.76501(14) 0.71505(9) 0.66023(11)
C8 C 0.74277(15) 0.57229(10) 0.56697(11)
C9 C 0.64756(14) 0.53172(9) 0.46778(11)
C10 C 0.65723(16) 0.44258(10) 0.44139(12)
C11 C 0.54405(14) 0.59649(9) 0.40106(11)
C12 C 0.42829(14) 0.58189(9) 0.28585(11)
C13 C 0.36116(15) 0.50058(10) 0.25622(12)
H8 H 0.3886 0.4567 0.3100
C14 C 0.25454(15) 0.48390(11) 0.14844(13)
H9 H 0.2109 0.4293 0.1290
C15 C 0.21457(14) 0.55065(11) 0.07041(11)
C16 C 0.27765(16) 0.63235(11) 0.09605(12)
H10 H 0.2483 0.6763 0.0420
C17 C 0.38531(16) 0.64734(10) 0.20371(12)
H11 H 0.4299 0.7016 0.2220
C18 C 0.57838(14) 0.67313(9) 0.46228(11)
C19 C 0.50602(15) 0.75866(9) 0.43298(11)
C20 C 0.36633(16) 0.75958(11) 0.38529(14)
H12 H 0.3218 0.7073 0.3813
C21 C 0.29271(17) 0.83731(12) 0.34371(15)
H13 H 0.1991 0.8361 0.3107
C22 C 0.35561(19) 0.91656(11) 0.35042(14)
C23 C 0.2749(2) 1.00045(14) 0.2993(2)
H14 H 0.1822 0.9907 0.2763
H15 H 0.2785 1.0166 0.2358
H16 H 0.3126 1.0473 0.3533
C24 C 0.49552(19) 0.91617(11) 0.40244(16)
H17 H 0.5403 0.9693 0.4105
C25 C 0.57055(17) 0.83864(10) 0.44277(14)
H18 H 0.6642 0.8402 0.4764
N1 N 0.70201(12) 0.65811(8) 0.56401(9)
N2 N 0.86127(13) 0.53894(9) 0.65466(10)
H19 H 0.9137 0.5721 0.7110
H20 H 0.8834 0.4848 0.6535
N3 N 0.66642(17) 0.36984(10) 0.42290(14)
N4 N 0.10166(14) 0.53369(11) -0.04383(11)
O1 O 0.04857(14) 0.59761(10) -0.10614(10)
O2 O 0.06363(14) 0.45741(10) -0.07275(11)
loop_
_geom_bond_atom_site_label_1
_geom_bond_atom_site_label_2
_geom_bond_site_symmetry_1
_geom_bond_site_symmetry_2
C1 H1 1_555 1_555
C2 C1 1_555 1_555
H2 C2 1_555 1_555
C3 C2 1_555 1_555
C4 C3 1_555 1_555
H3 C4 1_555 1_555
H4 C4 1_555 1_555
H5 C4 1_555 1_555
C5 C3 1_555 1_555
H6 C5 1_555 1_555
C6 C5 1_555 1_555
H7 C6 1_555 1_555
C7 C1 1_555 1_555
C8 C9 1_555 1_555
C9 C10 1_555 1_555
C10 N3 1_555 1_555
C11 C9 1_555 1_555
C12 C11 1_555 1_555
C13 C12 1_555 1_555
H8 C13 1_555 1_555
C14 C13 1_555 1_555
H9 C14 1_555 1_555
C15 C14 1_555 1_555
C16 C15 1_555 1_555
H10 C16 1_555 1_555
C17 C12 1_555 1_555
H11 C17 1_555 1_555
C18 C11 1_555 1_555
C19 C18 1_555 1_555
C20 C19 1_555 1_555
H12 C20 1_555 1_555
C21 C20 1_555 1_555
H13 C21 1_555 1_555
C22 C21 1_555 1_555
C23 C22 1_555 1_555
H14 C23 1_555 1_555
H15 C23 1_555 1_555
H16 C23 1_555 1_555
C24 C22 1_555 1_555
H17 C24 1_555 1_555
C25 C19 1_555 1_555
H18 C25 1_555 1_555
N1 C7 1_555 1_555
N2 C8 1_555 1_555
H19 N2 1_555 1_555
H20 N2 1_555 1_555
N4 C15 1_555 1_555
O1 N4 1_555 1_555
O2 N4 1_555 1_555
C6 C7 1_555 1_555
C8 N1 1_555 1_555
C16 C17 1_555 1_555
C18 N1 1_555 1_555
C24 C25 1_555 1_555

#END
