
#######################################################################
#
#                 Cambridge Crystallographic Data Centre
#                                CCDC 
#
#######################################################################
#
# If this CIF has been generated from an entry in the Cambridge 
# Structural Database, then it will include bibliographic, chemical, 
# crystal, experimental, refinement or atomic coordinate data resulting 
# from the CCDC's data processing and validation procedures.
#
#######################################################################

data_KENHOC
_chemical_formula_moiety         'C25 H20 N4 O2'
_chemical_name_systematic        
2-Amino-1-benzyl-5-(4-methylphenyl)-4-(4-nitrophenyl)-1H-pyrrole-3-carbonitrile
_symmetry_cell_setting           monoclinic
_symmetry_space_group_name_H-M   'C 2/c'
_symmetry_Int_Tables_number      15
_space_group_name_Hall           '-C 2yn'
loop_
_symmetry_equiv_pos_site_id
_symmetry_equiv_pos_as_xyz
1 x,y,z
2 -x,y,1/2-z
3 1/2+x,1/2+y,z
4 1/2-x,1/2+y,1/2-z
5 -x,-y,-z
6 x,-y,1/2+z
7 1/2-x,1/2-y,-z
8 1/2+x,1/2-y,1/2+z
_cell_length_a                   21.716(4)
_cell_length_b                   11.461(2)
_cell_length_c                   18.762(4)
_cell_angle_alpha                90
_cell_angle_beta                 116.872(2)
_cell_angle_gamma                90
_cell_volume                     4165.39
_cell_formula_units_Z            8
loop_
_atom_site_label
_atom_site_type_symbol
_atom_site_fract_x
_atom_site_fract_y
_atom_site_fract_z
C1 C 0.12885(12) -0.00222(16) 1.11744(11)
H1 H 0.0975 -0.0097 1.1383
C2 C 0.17453(14) -0.09150(17) 1.12742(13)
H2 H 0.1738 -0.1586 1.1549
C3 C 0.22084(13) -0.08199(18) 1.09725(15)
H3 H 0.2517 -0.1423 1.1045
C4 C 0.22194(12) 0.0174(2) 1.05584(15)
H4 H 0.2533 0.0235 1.0349
C5 C 0.17600(11) 0.10814(17) 1.04554(13)
H5 H 0.1769 0.1750 1.0179
C6 C 0.12901(10) 0.09907(14) 1.07645(10)
C7 C 0.07762(11) 0.19442(15) 1.06631(12)
H6 H 0.0344 0.1771 1.0199
H7 H 0.0690 0.1952 1.1127
C8 C 0.07748(9) 0.37646(13) 0.98622(10)
C9 C 0.01863(9) 0.33961(14) 0.91092(10)
C10 C 0.01483(10) 0.22976(14) 0.87669(10)
H8 H 0.0503 0.1764 0.9023
C11 C -0.04077(10) 0.19935(16) 0.80559(12)
H9 H -0.0423 0.1253 0.7846
C12 C -0.09441(10) 0.27664(17) 0.76473(11)
C13 C -0.15445(12) 0.2434(2) 0.68622(13)
H10 H -0.1455 0.2686 0.6430
H11 H -0.1957 0.2802 0.6819
H12 H -0.1603 0.1602 0.6839
C14 C -0.09081(10) 0.38616(16) 0.79823(11)
H13 H -0.1261 0.4397 0.7719
C15 C -0.03566(10) 0.41707(15) 0.87019(11)
H14 H -0.0348 0.4905 0.8917
C16 C 0.11447(9) 0.47871(14) 1.00484(10)
C17 C 0.16284(9) 0.47375(14) 1.08825(10)
C18 C 0.21336(10) 0.55658(16) 1.13569(11)
C19 C 0.15241(9) 0.36871(14) 1.11782(10)
C20 C 0.10544(9) 0.57945(14) 0.95174(10)
C21 C 0.10612(11) 0.69192(15) 0.98021(11)
H15 H 0.1117 0.7021 1.0320
C22 C 0.09862(11) 0.78879(15) 0.93295(11)
H16 H 0.0991 0.8636 0.9524
C23 C 0.09052(9) 0.77202(15) 0.85677(11)
C24 C 0.08839(10) 0.66180(16) 0.82550(11)
H17 H 0.0821 0.6525 0.7734
C25 C 0.09588(10) 0.56579(15) 0.87348(11)
H18 H 0.0945 0.4912 0.8533
N1 N 0.10123(8) 0.30994(11) 1.05651(8)
N2 N 0.18134(10) 0.32842(14) 1.19458(9)
H19 H 0.1673 0.2638 1.2056
H20 H 0.2136 0.3676 1.2319
N3 N 0.25385(11) 0.62200(16) 1.17639(12)
N4 N 0.08272(9) 0.87521(14) 0.80677(11)
O1 O 0.08900(11) 0.97148(13) 0.83733(10)
O2 O 0.06894(9) 0.86028(14) 0.73667(9)
loop_
_geom_bond_atom_site_label_1
_geom_bond_atom_site_label_2
_geom_bond_site_symmetry_1
_geom_bond_site_symmetry_2
C1 H1 1_555 1_555
C2 C1 1_555 1_555
H2 C2 1_555 1_555
C3 C2 1_555 1_555
H3 C3 1_555 1_555
C4 C3 1_555 1_555
H4 C4 1_555 1_555
C5 C4 1_555 1_555
H5 C5 1_555 1_555
C6 C1 1_555 1_555
C7 C6 1_555 1_555
H6 C7 1_555 1_555
H7 C7 1_555 1_555
C8 C9 1_555 1_555
C9 C10 1_555 1_555
C10 H8 1_555 1_555
C11 C10 1_555 1_555
H9 C11 1_555 1_555
C12 C11 1_555 1_555
C13 C12 1_555 1_555
H10 C13 1_555 1_555
H11 C13 1_555 1_555
H12 C13 1_555 1_555
C14 C12 1_555 1_555
H13 C14 1_555 1_555
C15 C9 1_555 1_555
H14 C15 1_555 1_555
C16 C8 1_555 1_555
C17 C16 1_555 1_555
C18 C17 1_555 1_555
C19 C17 1_555 1_555
C20 C16 1_555 1_555
C21 C20 1_555 1_555
H15 C21 1_555 1_555
C22 C21 1_555 1_555
H16 C22 1_555 1_555
C23 C22 1_555 1_555
C24 C23 1_555 1_555
H17 C24 1_555 1_555
C25 C20 1_555 1_555
H18 C25 1_555 1_555
N1 C7 1_555 1_555
N2 C19 1_555 1_555
H19 N2 1_555 1_555
H20 N2 1_555 1_555
N3 C18 1_555 1_555
N4 C23 1_555 1_555
O1 N4 1_555 1_555
O2 N4 1_555 1_555
C5 C6 1_555 1_555
C8 N1 1_555 1_555
C14 C15 1_555 1_555
C19 N1 1_555 1_555
C24 C25 1_555 1_555

#END
