
#######################################################################
#
#                 Cambridge Crystallographic Data Centre
#                                CCDC 
#
#######################################################################
#
# If this CIF has been generated from an entry in the Cambridge 
# Structural Database, then it will include bibliographic, chemical, 
# crystal, experimental, refinement or atomic coordinate data resulting 
# from the CCDC's data processing and validation procedures.
#
#######################################################################

data_KENJOE
_chemical_formula_moiety         'C14 H12 O3 S1'
_chemical_name_systematic        
'2,3-Dimethyldibenzo[c,e][1,2]oxathiine 6,6-dioxide'
_symmetry_cell_setting           monoclinic
_symmetry_space_group_name_H-M   'P 21/c'
_symmetry_Int_Tables_number      14
_space_group_name_Hall           '-P 2ybc'
loop_
_symmetry_equiv_pos_site_id
_symmetry_equiv_pos_as_xyz
1 x,y,z
2 -x,1/2+y,1/2-z
3 -x,-y,-z
4 x,1/2-y,1/2+z
_cell_length_a                   7.5008(3)
_cell_length_b                   8.0491(3)
_cell_length_c                   19.9982(7)
_cell_angle_alpha                90
_cell_angle_beta                 98.563(4)
_cell_angle_gamma                90
_cell_volume                     1193.93
_cell_formula_units_Z            4
loop_
_atom_site_label
_atom_site_type_symbol
_atom_site_fract_x
_atom_site_fract_y
_atom_site_fract_z
S1 S 0.85283(8) 0.15868(6) 0.63103(2)
O1 O 0.6847(2) 0.23808(18) 0.63462(8)
O2 O 0.93138(18) 0.22971(16) 0.56739(6)
O3 O 0.9943(2) 0.1758(2) 0.68602(7)
C1 C 0.8324(2) 0.1974(2) 0.50293(9)
C2 C 0.7539(2) 0.0433(2) 0.48796(9)
C3 C 0.7555(2) -0.0861(2) 0.54008(9)
C4 C 0.7538(3) 0.2960(3) 0.38939(10)
C5 C 0.8301(3) 0.3222(2) 0.45588(10)
H1 H 0.8801 0.4251 0.4689
C6 C 0.6814(3) 0.1396(3) 0.37102(9)
C7 C 0.6793(3) 0.0190(3) 0.42031(9)
H2 H 0.6258 -0.0828 0.4078
C8 C 0.8140(3) -0.0489(2) 0.60832(9)
C9 C 0.8280(3) -0.1670(3) 0.65909(11)
H3 H 0.8735 -0.1391 0.7035
C10 C 0.7013(3) -0.2494(2) 0.52574(11)
H4 H 0.6605 -0.2799 0.4812
C11 C 0.7071(3) -0.3667(3) 0.57618(12)
H5 H 0.6662 -0.4738 0.5654
C12 C 0.7498(3) 0.4355(3) 0.33919(11)
H6 H 0.8020 0.3985 0.3008
H7 H 0.8175 0.5279 0.3599
H8 H 0.6273 0.4690 0.3248
C13 C 0.6094(3) 0.0988(3) 0.29848(10)
H9 H 0.5596 -0.0113 0.2959
H10 H 0.7055 0.1045 0.2718
H11 H 0.5171 0.1772 0.2815
C14 C 0.7728(3) -0.3274(3) 0.64244(12)
H12 H 0.7800 -0.4087 0.6758
loop_
_geom_bond_atom_site_label_1
_geom_bond_atom_site_label_2
_geom_bond_site_symmetry_1
_geom_bond_site_symmetry_2
S1 O1 1_555 1_555
O2 S1 1_555 1_555
O3 S1 1_555 1_555
C1 O2 1_555 1_555
C2 C1 1_555 1_555
C3 C2 1_555 1_555
C4 C5 1_555 1_555
C5 C1 1_555 1_555
H1 C5 1_555 1_555
C6 C4 1_555 1_555
C7 C2 1_555 1_555
H2 C7 1_555 1_555
C8 S1 1_555 1_555
C9 C8 1_555 1_555
H3 C9 1_555 1_555
C10 C3 1_555 1_555
H4 C10 1_555 1_555
C11 C10 1_555 1_555
H5 C11 1_555 1_555
C12 C4 1_555 1_555
H6 C12 1_555 1_555
H7 C12 1_555 1_555
H8 C12 1_555 1_555
C13 C6 1_555 1_555
H9 C13 1_555 1_555
H10 C13 1_555 1_555
H11 C13 1_555 1_555
C14 C9 1_555 1_555
H12 C14 1_555 1_555
C3 C8 1_555 1_555
C6 C7 1_555 1_555
C11 C14 1_555 1_555

#END
