
#######################################################################
#
#                 Cambridge Crystallographic Data Centre
#                                CCDC 
#
#######################################################################
#
# If this CIF has been generated from an entry in the Cambridge 
# Structural Database, then it will include bibliographic, chemical, 
# crystal, experimental, refinement or atomic coordinate data resulting 
# from the CCDC's data processing and validation procedures.
#
#######################################################################

data_KENLEU
_chemical_formula_moiety         'C13 H16 F3 N1 O3'
_chemical_name_systematic        
2-(2,3-Dihydroxy-3-methylbutyl)trifluoroacetanilide
_symmetry_cell_setting           monoclinic
_symmetry_space_group_name_H-M   'P 21/n'
_symmetry_Int_Tables_number      14
_space_group_name_Hall           '-P 2yn'
loop_
_symmetry_equiv_pos_site_id
_symmetry_equiv_pos_as_xyz
1 x,y,z
2 1/2-x,1/2+y,1/2-z
3 -x,-y,-z
4 1/2+x,1/2-y,1/2+z
_cell_length_a                   16.517(7)
_cell_length_b                   12.646(5)
_cell_length_c                   6.835(2)
_cell_angle_alpha                90
_cell_angle_beta                 96.65(3)
_cell_angle_gamma                90
_cell_volume                     1418.05
_exptl_crystal_colour            colorless
_chemical_melting_point          113-114deg.C
_cell_formula_units_Z            4
loop_
_atom_site_label
_atom_site_type_symbol
_atom_site_fract_x
_atom_site_fract_y
_atom_site_fract_z
C1 C 0.1727(4) 0.0999(4) -0.3342(8)
O1 O 0.1657(2) 0.2102(2) -0.2891(4)
C2 C 0.1073(4) 0.0766(4) -0.4983(8)
C3 C 0.2575(4) 0.0858(5) -0.3885(9)
C4 C 0.1572(3) 0.0460(4) -0.1425(8)
O2 O 0.2146(2) 0.0790(2) 0.0182(5)
C5 C 0.1629(3) -0.0755(4) -0.1531(7)
C6 C 0.1414(3) -0.1315(4) 0.0288(7)
C7 C 0.0636(3) -0.1733(4) 0.0346(9)
C8 C 0.0442(4) -0.2284(4) 0.1978(12)
C9 C 0.1011(4) -0.2424(4) 0.3567(9)
C10 C 0.1782(3) -0.2018(4) 0.3569(7)
C11 C 0.1981(3) -0.1468(4) 0.1929(8)
N1 N 0.2772(3) -0.1030(3) 0.1899(6)
C12 C 0.3467(3) -0.1496(4) 0.2562(8)
O3 O 0.3571(12) -0.2351(3) 0.3366(5)
C13 C 0.4231(5) -0.0872(7) 0.2151(15)
F1 F 0.4104(9) 0.0021(16) 0.1466(60)
F2 F 0.4691(18) -0.1483(15) 0.1268(67)
F3 F 0.4611(20) -0.0663(30) 0.3983(36)
H1 H 0.178 0.242 -0.390
H2 H 0.099 0.000 -0.523
H3 H 0.053 0.100 -0.469
H4 H 0.114 0.107 -0.624
H5 H 0.296 0.112 -0.284
H6 H 0.269 0.009 -0.399
H7 H 0.270 0.116 -0.508
H8 H 0.101 0.063 -0.116
H9 H 0.211 0.155 0.025
H10 H 0.218 -0.093 -0.175
H11 H 0.128 -0.100 -0.268
H12 H 0.022 -0.164 -0.081
H13 H -0.011 -0.254 0.199
H14 H 0.087 -0.281 0.474
H15 H 0.220 -0.210 0.470
H16 H 0.280 -0.020 0.140
F4? F 0.4892(9) -0.1263(18) 0.2709(52)
F5? F 0.4185(15) -0.0621(39) 0.0205(27)
F6? F 0.4253(17) 0.0027(20) 0.3068(70)
loop_
_geom_bond_atom_site_label_1
_geom_bond_atom_site_label_2
_geom_bond_site_symmetry_1
_geom_bond_site_symmetry_2
C1 O1 1_555 1_555
O1 H1 1_555 1_555
C2 C1 1_555 1_555
C3 C1 1_555 1_555
C4 C1 1_555 1_555
O2 C4 1_555 1_555
C5 C4 1_555 1_555
C6 C5 1_555 1_555
C7 C6 1_555 1_555
C8 C7 1_555 1_555
C9 C8 1_555 1_555
C10 C9 1_555 1_555
C11 C6 1_555 1_555
N1 C11 1_555 1_555
C12 N1 1_555 1_555
O3 C12 1_555 1_555
C13 C12 1_555 1_555
F1 C13 1_555 1_555
F2 C13 1_555 1_555
F3 C13 1_555 1_555
H2 C2 1_555 1_555
H3 C2 1_555 1_555
H4 C2 1_555 1_555
H5 C3 1_555 1_555
H6 C3 1_555 1_555
H7 C3 1_555 1_555
H8 C4 1_555 1_555
H9 O2 1_555 1_555
H10 C5 1_555 1_555
H11 C5 1_555 1_555
H12 C7 1_555 1_555
H13 C8 1_555 1_555
H14 C9 1_555 1_555
H15 C10 1_555 1_555
H16 N1 1_555 1_555
C10 C11 1_555 1_555

#END
