
#######################################################################
#
#                 Cambridge Crystallographic Data Centre
#                                CCDC 
#
#######################################################################
#
# If this CIF has been generated from an entry in the Cambridge 
# Structural Database, then it will include bibliographic, chemical, 
# crystal, experimental, refinement or atomic coordinate data resulting 
# from the CCDC's data processing and validation procedures.
#
#######################################################################

data_KENNEX
_chemical_formula_moiety         'C19 H25 N2 P1'
_chemical_name_systematic        
1-(2-(diphenylphosphino)ethyl)-4-methylpiperazine
_symmetry_cell_setting           monoclinic
_symmetry_space_group_name_H-M   'P 21/c'
_symmetry_Int_Tables_number      14
_space_group_name_Hall           '-P 2ybc'
loop_
_symmetry_equiv_pos_site_id
_symmetry_equiv_pos_as_xyz
1 x,y,z
2 -x,1/2+y,1/2-z
3 -x,-y,-z
4 x,1/2-y,1/2+z
_cell_length_a                   7.1829(14)
_cell_length_b                   7.3477(14)
_cell_length_c                   33.014(6)
_cell_angle_alpha                90
_cell_angle_beta                 90.10(1)
_cell_angle_gamma                90
_cell_volume                     1742.4
_exptl_crystal_colour            colorless
_exptl_crystal_description       plate
_cell_formula_units_Z            4
loop_
_atom_site_label
_atom_site_type_symbol
_atom_site_fract_x
_atom_site_fract_y
_atom_site_fract_z
P1 P 0.43855(11) 0.72820(11) 0.16358(2)
N1 N 0.7397(4) 0.7151(4) 0.10265(8)
N2 N 0.8422(4) 0.4468(4) 0.04373(8)
C1 C 0.7909(5) 0.7662(5) 0.06154(10)
H1 H 0.7244 0.8742 0.0539
H2 H 0.9218 0.7923 0.0605
C2 C 0.7465(5) 0.6145(5) 0.03230(10)
H3 H 0.7823 0.6492 0.0054
H4 H 0.6146 0.5935 0.0323
C3 C 0.7875(5) 0.3958(5) 0.08475(10)
H5 H 0.6556 0.3748 0.0856
H6 H 0.8495 0.2855 0.0926
C4 C 0.8367(5) 0.5472(4) 0.11392(10)
H7 H 0.9687 0.5677 0.1131
H8 H 0.8040 0.5129 0.1411
C5 C 0.7710(5) 0.8606(5) 0.13194(10)
H9 H 0.9025 0.8762 0.1360
H10 H 0.7222 0.9722 0.1212
C6 C 0.6757(4) 0.8216(5) 0.17246(10)
H11 H 0.6680 0.9310 0.1883
H12 H 0.7485 0.7345 0.1873
C7 C 0.7993(5) 0.2995(5) 0.01528(11)
H13 H 0.8360 0.3341 -0.0116
H14 H 0.6680 0.2751 0.0157
H15 H 0.8661 0.1921 0.0233
C8 C 0.3435(4) 0.9225(4) 0.13533(9)
C9 C 0.3103(4) 1.0927(4) 0.15281(10)
H16 H 0.3227 1.1069 0.1816
C10 C 0.2576(5) 1.2401(5) 0.12902(11)
H17 H 0.2380 1.3565 0.1415
C11 C 0.2358(5) 1.2198(5) 0.08759(11)
H18 H 0.1984 1.3216 0.0713
C12 C 0.2660(5) 1.0506(5) 0.06981(10)
H19 H 0.2506 1.0354 0.0411
C13 C 0.3192(4) 0.9028(5) 0.09362(10)
H20 H 0.3394 0.7862 0.0813
C14 C 0.3306(4) 0.7553(4) 0.21376(9)
C15 C 0.4161(5) 0.8279(4) 0.24805(10)
H21 H 0.5389 0.8787 0.2461
C16 C 0.3257(5) 0.8265(5) 0.28543(10)
H22 H 0.3856 0.8779 0.3088
C17 C 0.1489(5) 0.7541(5) 0.28908(10)
H23 H 0.0887 0.7522 0.3150
C18 C 0.0610(5) 0.6821(5) 0.25523(10)
H24 H -0.0627 0.6338 0.2575
C19 C 0.1518(5) 0.6818(5) 0.21821(10)
H25 H 0.0913 0.6295 0.1950
loop_
_geom_bond_atom_site_label_1
_geom_bond_atom_site_label_2
_geom_bond_site_symmetry_1
_geom_bond_site_symmetry_2
P1 C6 1_555 1_555
N1 C1 1_555 1_555
N2 C2 1_555 1_555
C1 H1 1_555 1_555
H2 C1 1_555 1_555
C2 C1 1_555 1_555
H3 C2 1_555 1_555
H4 C2 1_555 1_555
C3 N2 1_555 1_555
H5 C3 1_555 1_555
H6 C3 1_555 1_555
C4 N1 1_555 1_555
H7 C4 1_555 1_555
H8 C4 1_555 1_555
C5 N1 1_555 1_555
H9 C5 1_555 1_555
H10 C5 1_555 1_555
C6 C5 1_555 1_555
H11 C6 1_555 1_555
H12 C6 1_555 1_555
C7 N2 1_555 1_555
H13 C7 1_555 1_555
H14 C7 1_555 1_555
H15 C7 1_555 1_555
C8 P1 1_555 1_555
C9 C8 1_555 1_555
H16 C9 1_555 1_555
C10 C9 1_555 1_555
H17 C10 1_555 1_555
C11 C10 1_555 1_555
H18 C11 1_555 1_555
C12 C11 1_555 1_555
H19 C12 1_555 1_555
C13 C8 1_555 1_555
H20 C13 1_555 1_555
C14 P1 1_555 1_555
C15 C14 1_555 1_555
H21 C15 1_555 1_555
C16 C15 1_555 1_555
H22 C16 1_555 1_555
C17 C16 1_555 1_555
H23 C17 1_555 1_555
C18 C17 1_555 1_555
H24 C18 1_555 1_555
C19 C14 1_555 1_555
H25 C19 1_555 1_555
C3 C4 1_555 1_555
C12 C13 1_555 1_555
C18 C19 1_555 1_555

#END
