
#######################################################################
#
#                 Cambridge Crystallographic Data Centre
#                                CCDC 
#
#######################################################################
#
# If this CIF has been generated from an entry in the Cambridge 
# Structural Database, then it will include bibliographic, chemical, 
# crystal, experimental, refinement or atomic coordinate data resulting 
# from the CCDC's data processing and validation procedures.
#
#######################################################################

data_KENRED
_chemical_formula_moiety         
'C72 H84 N12,0.77(C1 H2 Cl2),0.32(C1 H4 O1),1.57(H2 O1)'
_chemical_name_systematic        
'5,12,20,27,35,42,50,57,62,69,74,81-dodecaazatridecacyclo[29.29.10.10^16,46^.1^3,59^.1^14,18^.1^29,33^.1^44,48^.0^6,11^.0^21,26^.0^36,41^.0^51,56^.0^63,68^.0^75,80^]tetraoctaconta-1,3(71),4,12,14(84),15,17,19,27,29(83),30,32,34,42,44(72),45,47,49,57,59,61,69,73,81-tetracosaene dichloromethane methanol solvate hydrate'
_symmetry_cell_setting           rhombohedral
_symmetry_space_group_name_H-M   'R -3'
_symmetry_Int_Tables_number      148
_space_group_name_Hall           '-R 3'
loop_
_symmetry_equiv_pos_site_id
_symmetry_equiv_pos_as_xyz
1 x,y,z
2 -y,x-y,z
3 -x+y,-x,z
4 2/3+x,1/3+y,1/3+z
5 2/3-y,1/3+x-y,1/3+z
6 2/3-x+y,1/3-x,1/3+z
7 1/3+x,2/3+y,2/3+z
8 1/3-y,2/3+x-y,2/3+z
9 1/3-x+y,2/3-x,2/3+z
10 -x,-y,-z
11 y,-x+y,-z
12 x-y,x,-z
13 1/3-x,2/3-y,2/3-z
14 1/3+y,2/3-x+y,2/3-z
15 1/3+x-y,2/3+x,2/3-z
16 2/3-x,1/3-y,1/3-z
17 2/3+y,1/3-x+y,1/3-z
18 2/3+x-y,1/3+x,1/3-z
_cell_length_a                   24.4830(11)
_cell_length_b                   24.4830(11)
_cell_length_c                   19.6123(9)
_cell_angle_alpha                90
_cell_angle_beta                 90
_cell_angle_gamma                120
_cell_volume                     10181
_exptl_crystal_colour            colorless
_exptl_crystal_description       needle
_cell_formula_units_Z            6
loop_
_atom_site_label
_atom_site_type_symbol
_atom_site_fract_x
_atom_site_fract_y
_atom_site_fract_z
O1 O 0.6377(2) 0.3590(2) 0.3774(3)
N1 N 0.50055(11) 0.37817(11) 0.43084(12)
N2 N 0.41794(11) 0.13029(11) 0.67921(11)
C1 C 0.61608(13) 0.27155(13) 0.74857(14)
N3 N 0.61505(11) 0.50187(10) 0.44399(12)
C2 C 0.47799(13) 0.29132(13) 0.50602(15)
C3 C 0.56386(13) 0.20613(13) 0.75619(14)
H1 H 0.5702 0.1723 0.7430
C4 C 0.44973(12) 0.42954(13) 0.37440(15)
H2 H 0.4088 0.3981 0.3945
H3 H 0.4540 0.4134 0.3296
N4 N 0.51116(11) 0.19401(10) 0.77972(12)
C5 C 0.60536(13) 0.32241(13) 0.74782(14)
H4 H 0.5633 0.3149 0.7468
C6 C 0.56833(13) 0.54914(13) 0.37434(15)
H5 H 0.5702 0.5715 0.4171
H6 H 0.6074 0.5763 0.3484
C7 C 0.48117(14) 0.19698(13) 0.47709(15)
C8 C 0.50282(13) 0.43801(12) 0.42070(14)
H7 H 0.4968 0.4530 0.4660
C9 C 0.49032(14) 0.25587(14) 0.45940(14)
H8 H 0.5051 0.2722 0.4151
C10 C 0.45666(14) 0.26656(14) 0.57096(14)
H9 H 0.4493 0.2908 0.6036
C11 C 0.45062(15) 0.49203(15) 0.36428(17)
H10 H 0.4153 0.4853 0.3341
H11 H 0.4449 0.5075 0.4088
C12 C 0.34029(14) 0.02616(15) 0.83399(16)
H12 H 0.3208 0.0488 0.8557
H13 H 0.3099 -0.0196 0.8372
C13 C 0.48668(14) 0.35403(13) 0.48948(15)
H14 H 0.4815 0.3774 0.5250
C14 C 0.46324(13) 0.12717(13) 0.78770(13)
H15 H 0.4791 0.1005 0.7666
C15 C 0.42450(13) 0.18266(13) 0.65865(15)
H16 H 0.4153 0.2071 0.6892
C16 C 0.45878(14) 0.17257(14) 0.54167(14)
H17 H 0.4522 0.1321 0.5534
C17 C 0.44590(13) 0.20659(13) 0.58898(14)
C18 C 0.35311(14) 0.04508(14) 0.75914(14)
H18 H 0.3134 0.0369 0.7369
H19 H 0.3679 0.0189 0.7360
C19 C 0.45098(15) 0.11126(15) 0.86348(15)
H20 H 0.4365 0.1383 0.8851
H21 H 0.4905 0.1195 0.8861
C20 C 0.40018(16) 0.04105(16) 0.87231(16)
H22 H 0.4166 0.0141 0.8549
H23 H 0.3905 0.0316 0.9214
C21 C 0.56685(13) 0.48749(13) 0.39265(13)
H24 H 0.5767 0.4704 0.3511
C22 C 0.49740(14) 0.16159(14) 0.42731(14)
H25 H 0.5074 0.1764 0.3817
C23 C 0.40275(13) 0.11479(12) 0.75102(13)
H26 H 0.3868 0.1418 0.7711
C24 C 0.51268(14) 0.54083(15) 0.33285(16)
H27 H 0.5158 0.5276 0.2860
H28 H 0.5137 0.5817 0.3298
N1A N 0.62183(11) 0.12238(16) 0.43084(12)
N2A N 0.86971(11) 0.28765(16) 0.67921(11)
C1A C 0.72845(13) 0.34453(18) 0.74857(14)
N3A N 0.49813(10) 0.11318(15) 0.44399(12)
C2A C 0.70868(13) 0.18667(18) 0.50602(15)
C3A C 0.79387(13) 0.35773(18) 0.75619(14)
H1A H 0.8277 0.3979 0.7430
C4A C 0.57046(13) 0.02019(18) 0.37440(15)
H2A H 0.6019 0.0107 0.3945
H3A H 0.5866 0.0406 0.3296
N4A N 0.80599(10) 0.31715(15) 0.77972(12)
C5A C 0.67759(13) 0.28295(18) 0.74782(14)
H4A H 0.6851 0.2484 0.7468
C6A C 0.45086(13) 0.01919(18) 0.37434(15)
H5A H 0.4285 -0.0013 0.4171
H6A H 0.4237 0.0311 0.3484
C7A C 0.80302(13) 0.28419(19) 0.47709(15)
C8A C 0.56199(12) 0.06481(18) 0.42070(14)
H7A H 0.5470 0.0438 0.4660
C9A C 0.74413(14) 0.23445(20) 0.45940(14)
H8A H 0.7278 0.2329 0.4151
C10A C 0.73344(14) 0.19010(20) 0.57096(14)
H9A H 0.7092 0.1585 0.6036
C11A C 0.50797(15) -0.04141(21) 0.36428(17)
H10A H 0.5147 -0.0700 0.3341
H11A H 0.4925 -0.0626 0.4088
C12A C 0.97384(15) 0.31413(21) 0.83399(16)
H12A H 0.9512 0.2720 0.8557
H13A H 1.0196 0.3295 0.8372
C13A C 0.64597(13) 0.13265(19) 0.48948(15)
H14A H 0.6226 0.1041 0.5250
C14A C 0.87283(13) 0.33607(18) 0.78770(13)
H15A H 0.8995 0.3786 0.7666
C15A C 0.81734(13) 0.24184(18) 0.65865(15)
H16A H 0.7929 0.2082 0.6892
C16A C 0.82743(14) 0.28621(20) 0.54167(14)
H17A H 0.8679 0.3201 0.5534
C17A C 0.79341(13) 0.23931(18) 0.58898(14)
C18A C 0.95492(14) 0.30803(20) 0.75914(14)
H18A H 0.9631 0.2765 0.7369
H19A H 0.9811 0.3490 0.7360
C19A C 0.88874(15) 0.33972(21) 0.86348(15)
H20A H 0.8617 0.2982 0.8851
H21A H 0.8805 0.3710 0.8861
C20A C 0.95895(16) 0.35913(23) 0.87231(16)
H22A H 0.9859 0.4025 0.8549
H23A H 0.9684 0.3589 0.9214
C21A C 0.51251(13) 0.07936(18) 0.39265(13)
H24A H 0.5296 0.1063 0.3511
C22A C 0.83841(14) 0.33581(20) 0.42731(14)
H25A H 0.8236 0.3310 0.3817
C23A C 0.88521(12) 0.28796(18) 0.75102(13)
H26A H 0.8582 0.2450 0.7711
C24A C 0.45917(15) -0.02815(21) 0.33285(16)
H27A H 0.4724 -0.0118 0.2860
H28A H 0.4183 -0.0680 0.3298
N1B N 0.87762(16) 0.49945(11) 0.43084(12)
N2B N 0.71235(16) 0.58206(11) 0.67921(11)
C1B C 0.65547(18) 0.38392(13) 0.74857(14)
N3B N 0.88682(15) 0.38495(11) 0.44399(12)
C2B C 0.81333(18) 0.52201(13) 0.50602(15)
C3B C 0.64227(18) 0.43614(13) 0.75619(14)
H1B H 0.6021 0.4298 0.7430
C4B C 0.97981(18) 0.55027(12) 0.37440(15)
H2B H 0.9893 0.5912 0.3945
H3B H 0.9594 0.5460 0.3296
N4B N 0.68285(15) 0.48884(11) 0.77972(12)
C5B C 0.71705(18) 0.39464(13) 0.74782(14)
H4B H 0.7516 0.4367 0.7468
C6B C 0.98081(18) 0.43167(13) 0.37434(15)
H5B H 1.0013 0.4298 0.4171
H6B H 0.9689 0.3926 0.3484
C7B C 0.71581(19) 0.51883(14) 0.47709(15)
C8B C 0.93519(18) 0.49718(13) 0.42070(14)
H7B H 0.9562 0.5032 0.4660
C9B C 0.76555(20) 0.50968(14) 0.45940(14)
H8B H 0.7671 0.4949 0.4151
C10B C 0.80990(20) 0.54334(14) 0.57096(14)
H9B H 0.8415 0.5507 0.6036
C11B C 1.04141(21) 0.54938(15) 0.36428(17)
H10B H 1.0700 0.5847 0.3341
H11B H 1.0626 0.5551 0.4088
C12B C 0.68587(21) 0.65971(14) 0.83399(16)
H12B H 0.7280 0.6792 0.8557
H13B H 0.6705 0.6901 0.8372
C13B C 0.86735(19) 0.51332(14) 0.48948(15)
H14B H 0.8959 0.5185 0.5250
C14B C 0.66393(18) 0.53676(13) 0.78770(13)
H15B H 0.6214 0.5209 0.7666
C15B C 0.75816(18) 0.57550(13) 0.65865(15)
H16B H 0.7918 0.5847 0.6892
C16B C 0.71379(20) 0.54122(14) 0.54167(14)
H17B H 0.6799 0.5478 0.5534
C17B C 0.76069(18) 0.55410(13) 0.58898(14)
C18B C 0.69197(20) 0.64689(14) 0.75914(14)
H18B H 0.7235 0.6866 0.7369
H19B H 0.6510 0.6321 0.7360
C19B C 0.66028(21) 0.54902(15) 0.86348(15)
H20B H 0.7018 0.5635 0.8851
H21B H 0.6290 0.5095 0.8861
C20B C 0.64087(23) 0.59982(16) 0.87231(16)
H22B H 0.5975 0.5834 0.8549
H23B H 0.6411 0.6095 0.9214
C21B C 0.92064(18) 0.43315(13) 0.39265(13)
H24B H 0.8937 0.4233 0.3511
C22B C 0.66419(20) 0.50260(14) 0.42731(14)
H25B H 0.6690 0.4926 0.3817
C23B C 0.71204(18) 0.59725(13) 0.75102(13)
H26B H 0.7550 0.6132 0.7711
C24B C 1.02815(21) 0.48732(14) 0.33285(16)
H27B H 1.0118 0.4842 0.2860
H28B H 1.0680 0.4863 0.3298
H29? H 0.6045 0.3298 0.3602
C25? C 0.6667 0.3333 0.4172(18)
H30? H 0.6353 0.2923 0.4340
H31? H 0.6866 0.3602 0.4569
H32? H 0.6977 0.3298 0.3919
Cl1? Cl 0.61796(16) 0.2542(2) 0.56259(16)
C26? C 0.6667 0.3333 0.5709(6)
H33? H 0.7007 0.3464 0.5366
H34? H 0.6867 0.3410 0.6164
loop_
_geom_bond_atom_site_label_1
_geom_bond_atom_site_label_2
_geom_bond_site_symmetry_1
_geom_bond_site_symmetry_2
N1 C8 1_555 1_555
N2 C15 1_555 1_555
C1 C3 1_555 1_555
N3 C21 1_555 1_555
C2 C9 1_555 1_555
C3 H1 1_555 1_555
C4 H2 1_555 1_555
H3 C4 1_555 1_555
N4 C3 1_555 1_555
C5 C1 1_555 1_555
H4 C5 1_555 1_555
C6 H5 1_555 1_555
H6 C6 1_555 1_555
C7 C9 1_555 1_555
C8 C4 1_555 1_555
H7 C8 1_555 1_555
C9 H8 1_555 1_555
C10 C2 1_555 1_555
H9 C10 1_555 1_555
C11 C4 1_555 1_555
H10 C11 1_555 1_555
H11 C11 1_555 1_555
C12 H12 1_555 1_555
H13 C12 1_555 1_555
C13 N1 1_555 1_555
H14 C13 1_555 1_555
C14 N4 1_555 1_555
H15 C14 1_555 1_555
C15 H16 1_555 1_555
C16 C7 1_555 1_555
H17 C16 1_555 1_555
C17 C10 1_555 1_555
C18 C12 1_555 1_555
H18 C18 1_555 1_555
H19 C18 1_555 1_555
C19 C14 1_555 1_555
H20 C19 1_555 1_555
H21 C19 1_555 1_555
C20 C12 1_555 1_555
H22 C20 1_555 1_555
H23 C20 1_555 1_555
C21 C6 1_555 1_555
H24 C21 1_555 1_555
C22 C7 1_555 1_555
H25 C22 1_555 1_555
C23 N2 1_555 1_555
H26 C23 1_555 1_555
C24 C6 1_555 1_555
H27 C24 1_555 1_555
H28 C24 1_555 1_555
N1A C8A 1_555 1_555
N2A C15A 1_555 1_555
C1A C3A 1_555 1_555
N3A C22 1_555 1_555
C2A C9A 1_555 1_555
C3A H1A 1_555 1_555
C4A H2A 1_555 1_555
H3A C4A 1_555 1_555
N4A C3A 1_555 1_555
C5A C1 1_555 1_555
H4A C5A 1_555 1_555
C6A H5A 1_555 1_555
H6A C6A 1_555 1_555
C7A C9A 1_555 1_555
C8A C4A 1_555 1_555
H7A C8A 1_555 1_555
C9A H8A 1_555 1_555
C10A C2A 1_555 1_555
H9A C10A 1_555 1_555
C11A C4A 1_555 1_555
H10A C11A 1_555 1_555
H11A C11A 1_555 1_555
C12A H12A 1_555 1_555
H13A C12A 1_555 1_555
C13A N1A 1_555 1_555
H14A C13A 1_555 1_555
C14A N4A 1_555 1_555
H15A C14A 1_555 1_555
C15A H16A 1_555 1_555
C16A C7A 1_555 1_555
H17A C16A 1_555 1_555
C17A C10A 1_555 1_555
C18A C12A 1_555 1_555
H18A C18A 1_555 1_555
H19A C18A 1_555 1_555
C19A C14A 1_555 1_555
H20A C19A 1_555 1_555
H21A C19A 1_555 1_555
C20A C12A 1_555 1_555
H22A C20A 1_555 1_555
H23A C20A 1_555 1_555
C21A N3A 1_555 1_555
H24A C21A 1_555 1_555
C22A C7A 1_555 1_555
H25A C22A 1_555 1_555
C23A N2A 1_555 1_555
H26A C23A 1_555 1_555
C24A C6A 1_555 1_555
H27A C24A 1_555 1_555
H28A C24A 1_555 1_555
N1B C8B 1_555 1_555
N2B C15B 1_555 1_555
C1B C5 1_555 1_555
N3B C22A 1_555 1_555
C2B C9B 1_555 1_555
C3B C1B 1_555 1_555
H1B C3B 1_555 1_555
C4B H2B 1_555 1_555
H3B C4B 1_555 1_555
N4B C3B 1_555 1_555
C5B C1A 1_555 1_555
H4B C5B 1_555 1_555
C6B H5B 1_555 1_555
H6B C6B 1_555 1_555
C7B C9B 1_555 1_555
C8B C4B 1_555 1_555
H7B C8B 1_555 1_555
C9B H8B 1_555 1_555
C10B C2B 1_555 1_555
H9B C10B 1_555 1_555
C11B C4B 1_555 1_555
H10B C11B 1_555 1_555
H11B C11B 1_555 1_555
C12B H12B 1_555 1_555
H13B C12B 1_555 1_555
C13B N1B 1_555 1_555
H14B C13B 1_555 1_555
C14B N4B 1_555 1_555
H15B C14B 1_555 1_555
C15B H16B 1_555 1_555
C16B C7B 1_555 1_555
H17B C16B 1_555 1_555
C17B C10B 1_555 1_555
C18B C12B 1_555 1_555
H18B C18B 1_555 1_555
H19B C18B 1_555 1_555
C19B C14B 1_555 1_555
H20B C19B 1_555 1_555
H21B C19B 1_555 1_555
C20B C12B 1_555 1_555
H22B C20B 1_555 1_555
H23B C20B 1_555 1_555
C21B N3B 1_555 1_555
H24B C21B 1_555 1_555
C22B N3 1_555 1_555
H25B C22B 1_555 1_555
C23B N2B 1_555 1_555
H26B C23B 1_555 1_555
C24B C6B 1_555 1_555
H27B C24B 1_555 1_555
H28B C24B 1_555 1_555
C2 C13 1_555 1_555
C8 C21 1_555 1_555
C11 C24 1_555 1_555
C14 C23 1_555 1_555
C15 C17 1_555 1_555
C16 C17 1_555 1_555
C18 C23 1_555 1_555
C19 C20 1_555 1_555
C1A C5A 1_555 1_555
C2A C13A 1_555 1_555
C6A C21A 1_555 1_555
C8A C21A 1_555 1_555
C11A C24A 1_555 1_555
C14A C23A 1_555 1_555
C15A C17A 1_555 1_555
C16A C17A 1_555 1_555
C18A C23A 1_555 1_555
C19A C20A 1_555 1_555
C1B C5B 1_555 1_555
C2B C13B 1_555 1_555
C6B C21B 1_555 1_555
C7B C22B 1_555 1_555
C8B C21B 1_555 1_555
C11B C24B 1_555 1_555
C14B C23B 1_555 1_555
C15B C17B 1_555 1_555
C16B C17B 1_555 1_555
C18B C23B 1_555 1_555
C19B C20B 1_555 1_555

#END
