
#######################################################################
#
#                 Cambridge Crystallographic Data Centre
#                                CCDC 
#
#######################################################################
#
# If this CIF has been generated from an entry in the Cambridge 
# Structural Database, then it will include bibliographic, chemical, 
# crystal, experimental, refinement or atomic coordinate data resulting 
# from the CCDC's data processing and validation procedures.
#
#######################################################################

data_KENVOP
_chemical_formula_moiety         'C25 H34 N2 O5 S1'
_chemical_name_systematic        
'methyl (2R,4R,5R)-2-(((1R,5S,5R)-10,10-dimethyl-3,3-dioxo-3-thia-4-azatricyclo[5.2.1.0^1,5^]dec-4-yl)carbonyl)-5-phenylethylpyrrolidine-4-carboxylate'
_symmetry_cell_setting           monoclinic
_symmetry_space_group_name_H-M   'C 2'
_symmetry_Int_Tables_number      5
_space_group_name_Hall           'C 2y'
loop_
_symmetry_equiv_pos_site_id
_symmetry_equiv_pos_as_xyz
1 x,y,z
2 -x,y,-z
3 1/2+x,1/2+y,z
4 1/2-x,1/2+y,-z
_cell_length_a                   25.555(3)
_cell_length_b                   7.2399(9)
_cell_length_c                   15.3012(18)
_cell_angle_alpha                90
_cell_angle_beta                 122.954(2)
_cell_angle_gamma                90
_cell_volume                     2375.48
_exptl_crystal_colour            colorless
_exptl_crystal_description       block
_chemical_melting_point          147-150deg.C(dec.)
_cell_formula_units_Z            4
loop_
_atom_site_label
_atom_site_type_symbol
_atom_site_fract_x
_atom_site_fract_y
_atom_site_fract_z
S1 S 0.71140(2) 1.23553(7) 0.83493(4)
O1 O 0.68873(7) 0.6146(2) 0.48679(12)
O2 O 0.73840(7) 0.6994(2) 0.65464(11)
O3 O 0.72068(7) 0.7229(2) 0.83892(11)
O4 O 0.68257(9) 1.3130(2) 0.73327(13)
O5 O 0.67360(7) 1.2184(3) 0.87747(13)
N1 N 0.60960(8) 0.7210(3) 0.65392(13)
H1 H 0.6043 0.6379 0.6904
N2 N 0.74162(8) 1.0254(2) 0.83774(13)
C1 C 0.64204(10) 0.8976(3) 0.69227(16)
H2 H 0.6154 0.9826 0.7036
C2 C 0.58756(9) 0.7079(3) 0.54322(15)
H3 H 0.5469 0.7750 0.5027
C3 C 0.63578(9) 0.8187(3) 0.53232(16)
H4 H 0.6168 0.8625 0.4591
C4 C 0.64911(10) 0.9807(3) 0.60525(16)
H5 H 0.6188 1.0820 0.5682
H6 H 0.6918 1.0289 0.6348
C5 C 0.70333(10) 0.8709(3) 0.79490(16)
C6 C 0.80341(9) 1.0030(3) 0.93519(16)
H7 H 0.7990 0.9588 0.9928
C7 C 0.83418(9) 1.1947(3) 0.96057(15)
C8 C 0.78452(10) 1.3411(3) 0.92712(18)
H8 H 0.7925 1.4468 0.8949
H9 H 0.7844 1.3868 0.9880
C9 C 0.88680(10) 1.1844(4) 1.07751(16)
H10 H 0.9054 1.3074 1.1051
H11 H 0.8712 1.1336 1.1193
C10 C 0.93392(10) 1.0526(4) 1.07707(19)
H12 H 0.9389 0.9383 1.1165
H13 H 0.9751 1.1126 1.1079
C11 C 0.90482(10) 1.0101(3) 0.96073(18)
H14 H 0.9353 0.9666 0.9434
C12 C 0.84940(10) 0.8786(3) 0.92560(18)
H15 H 0.8620 0.7695 0.9718
H16 H 0.8311 0.8368 0.8530
C13 C 0.87176(10) 1.1939(3) 0.90765(16)
C14 C 0.83354(11) 1.1868(4) 0.78864(17)
H17 H 0.8067 1.2962 0.7608
H18 H 0.8076 1.0753 0.7650
H19 H 0.8617 1.1843 0.7639
C15 C 0.91535(11) 1.3607(4) 0.93943(19)
H20 H 0.9419 1.3463 0.9118
H21 H 0.9416 1.3688 1.0156
H22 H 0.8905 1.4737 0.9113
C16 C 0.57602(10) 0.5099(3) 0.50390(17)
H23 H 0.5523 0.4437 0.5282
H24 H 0.6164 0.4460 0.5326
C17 C 0.53911(10) 0.5058(3) 0.38395(17)
H25 H 0.4956 0.5446 0.3559
H26 H 0.5577 0.5956 0.3596
C18 C 0.53872(10) 0.3169(3) 0.34172(15)
C19 C 0.49836(10) 0.1798(3) 0.33298(17)
H27 H 0.4703 0.2045 0.3541
C20 C 0.49829(10) 0.0065(3) 0.29375(18)
H28 H 0.4706 -0.0867 0.2888
C21 C 0.53879(11) -0.0298(4) 0.26188(17)
H29 H 0.5386 -0.1476 0.2343
C22 C 0.57946(11) 0.1056(4) 0.27037(18)
H30 H 0.6072 0.0808 0.2485
C23 C 0.57989(11) 0.2769(3) 0.31054(18)
H31 H 0.6084 0.3686 0.3171
C24 C 0.69342(9) 0.7072(3) 0.56748(16)
C25 C 0.73967(12) 0.4922(4) 0.5142(2)
H32 H 0.7785 0.5633 0.5459
H33 H 0.7321 0.4300 0.4514
H34 H 0.7432 0.3999 0.5640
loop_
_geom_bond_atom_site_label_1
_geom_bond_atom_site_label_2
_geom_bond_site_symmetry_1
_geom_bond_site_symmetry_2
S1 O4 1_555 1_555
O1 C24 1_555 1_555
O2 C24 1_555 1_555
O3 C5 1_555 1_555
O5 S1 1_555 1_555
N1 H1 1_555 1_555
N2 S1 1_555 1_555
C1 N1 1_555 1_555
H2 C1 1_555 1_555
C2 N1 1_555 1_555
H3 C2 1_555 1_555
C3 C2 1_555 1_555
H4 C3 1_555 1_555
C4 C1 1_555 1_555
H5 C4 1_555 1_555
H6 C4 1_555 1_555
C5 N2 1_555 1_555
C6 N2 1_555 1_555
H7 C6 1_555 1_555
C7 C6 1_555 1_555
C8 S1 1_555 1_555
H8 C8 1_555 1_555
H9 C8 1_555 1_555
C9 C7 1_555 1_555
H10 C9 1_555 1_555
H11 C9 1_555 1_555
C10 C9 1_555 1_555
H12 C10 1_555 1_555
H13 C10 1_555 1_555
C11 C10 1_555 1_555
H14 C11 1_555 1_555
C12 C6 1_555 1_555
H15 C12 1_555 1_555
H16 C12 1_555 1_555
C13 C7 1_555 1_555
C14 C13 1_555 1_555
H17 C14 1_555 1_555
H18 C14 1_555 1_555
H19 C14 1_555 1_555
C15 C13 1_555 1_555
H20 C15 1_555 1_555
H21 C15 1_555 1_555
H22 C15 1_555 1_555
C16 C2 1_555 1_555
H23 C16 1_555 1_555
H24 C16 1_555 1_555
C17 C16 1_555 1_555
H25 C17 1_555 1_555
H26 C17 1_555 1_555
C18 C17 1_555 1_555
C19 C18 1_555 1_555
H27 C19 1_555 1_555
C20 C19 1_555 1_555
H28 C20 1_555 1_555
C21 C20 1_555 1_555
H29 C21 1_555 1_555
C22 C21 1_555 1_555
H30 C22 1_555 1_555
C23 C18 1_555 1_555
H31 C23 1_555 1_555
C24 C3 1_555 1_555
C25 O1 1_555 1_555
H32 C25 1_555 1_555
H33 C25 1_555 1_555
H34 C25 1_555 1_555
C1 C5 1_555 1_555
C3 C4 1_555 1_555
C7 C8 1_555 1_555
C11 C12 1_555 1_555
C11 C13 1_555 1_555
C22 C23 1_555 1_555

#END
