
#######################################################################
#
#                 Cambridge Crystallographic Data Centre
#                                CCDC 
#
#######################################################################
#
# If this CIF has been generated from an entry in the Cambridge 
# Structural Database, then it will include bibliographic, chemical, 
# crystal, experimental, refinement or atomic coordinate data resulting 
# from the CCDC's data processing and validation procedures.
#
#######################################################################

data_KEPFUH
_chemical_formula_moiety         'C18 H19 N3 O4 S1'
_chemical_name_systematic        
'ethyl \a-diazo-\b-phenyl-\b-tosylaminopropanoate'
_symmetry_cell_setting           monoclinic
_symmetry_space_group_name_H-M   'P 21/n'
_symmetry_Int_Tables_number      14
_space_group_name_Hall           '-P 2yn'
loop_
_symmetry_equiv_pos_site_id
_symmetry_equiv_pos_as_xyz
1 x,y,z
2 1/2-x,1/2+y,1/2-z
3 -x,-y,-z
4 1/2+x,1/2-y,1/2+z
_cell_length_a                   13.149(3)
_cell_length_b                   7.9054(16)
_cell_length_c                   18.720(4)
_cell_angle_alpha                90
_cell_angle_beta                 103.19(3)
_cell_angle_gamma                90
_cell_volume                     1894.57
_exptl_crystal_colour            colorless
_exptl_crystal_description       Block
_cell_formula_units_Z            4
loop_
_atom_site_label
_atom_site_type_symbol
_atom_site_fract_x
_atom_site_fract_y
_atom_site_fract_z
S1 S 0.15703(5) 0.18015(8) 0.11864(3)
O1 O 0.21998(12) 0.7463(2) 0.02459(8)
O2 O 0.05805(12) 0.6487(2) 0.02348(8)
O3 O 0.21954(13) 0.1479(2) 0.19048(8)
O4 O 0.08612(13) 0.0548(2) 0.08185(9)
N1 N 0.08667(15) 0.3443(2) 0.12523(11)
N2 N 0.29119(17) 0.6304(3) 0.15460(10)
N3 N 0.37673(19) 0.6509(4) 0.17823(12)
C1 C 0.14885(19) 0.6695(3) 0.05405(12)
C2 C 0.19132(17) 0.6059(3) 0.12737(12)
C3 C 0.13087(16) 0.4949(3) 0.16823(11)
H1 H 0.1808 0.4533 0.2118
C4 C 0.04471(16) 0.5842(3) 0.19526(11)
C5 C 0.0343(2) 0.7581(3) 0.19356(13)
H2 H 0.0791 0.8235 0.1731
C6 C -0.0418(2) 0.8358(4) 0.22194(15)
H3 H -0.0483 0.9530 0.2198
C7 C -0.1076(2) 0.7427(4) 0.25319(16)
H4 H -0.1583 0.7961 0.2725
C8 C -0.0983(2) 0.5709(4) 0.25586(15)
H5 H -0.1425 0.5067 0.2774
C9 C -0.02328(19) 0.4919(4) 0.22648(13)
H6 H -0.0185 0.3745 0.2278
C10 C 0.1814(2) 0.8118(4) -0.04885(14)
H7 H 0.1329 0.7317 -0.0777
H8 H 0.1446 0.9173 -0.0467
C11 C 0.2663(3) 0.8392(6) -0.08235(18)
H9 H 0.2407 0.8835 -0.1309
H10 H 0.3017 0.7340 -0.0852
H11 H 0.3140 0.9185 -0.0537
C12 C 0.24301(18) 0.2301(3) 0.06215(12)
C13 C 0.3490(2) 0.2133(4) 0.08802(15)
H12 H 0.3765 0.1812 0.1364
C14 C 0.4139(2) 0.2449(5) 0.04137(18)
H13 H 0.4857 0.2344 0.0590
C15 C 0.3761(3) 0.2912(4) -0.03037(18)
C16 C 0.2701(2) 0.3099(4) -0.05463(15)
H14 H 0.2430 0.3449 -0.1026
C17 C 0.2035(2) 0.2785(3) -0.00992(13)
H15 H 0.1317 0.2895 -0.0278
C18 C 0.4490(3) 0.3201(5) -0.0813(2)
H16 H 0.4090 0.3512 -0.1290
H17 H 0.4871 0.2181 -0.0849
H18 H 0.4971 0.4093 -0.0622
H19 H 0.0491(17) 0.361(3) 0.0892(11)
loop_
_geom_bond_atom_site_label_1
_geom_bond_atom_site_label_2
_geom_bond_site_symmetry_1
_geom_bond_site_symmetry_2
S1 O3 1_555 1_555
O1 C1 1_555 1_555
O2 C1 1_555 1_555
O4 S1 1_555 1_555
N1 S1 1_555 1_555
N2 N3 1_555 1_555
C1 C2 1_555 1_555
C2 N2 1_555 1_555
C3 N1 1_555 1_555
H1 C3 1_555 1_555
C4 C3 1_555 1_555
C5 C4 1_555 1_555
H2 C5 1_555 1_555
C6 C5 1_555 1_555
H3 C6 1_555 1_555
C7 C6 1_555 1_555
H4 C7 1_555 1_555
C8 C7 1_555 1_555
H5 C8 1_555 1_555
C9 C4 1_555 1_555
H6 C9 1_555 1_555
C10 O1 1_555 1_555
H7 C10 1_555 1_555
H8 C10 1_555 1_555
C11 C10 1_555 1_555
H9 C11 1_555 1_555
H10 C11 1_555 1_555
H11 C11 1_555 1_555
C12 S1 1_555 1_555
C13 C12 1_555 1_555
H12 C13 1_555 1_555
C14 C13 1_555 1_555
H13 C14 1_555 1_555
C15 C14 1_555 1_555
C16 C15 1_555 1_555
H14 C16 1_555 1_555
C17 C12 1_555 1_555
H15 C17 1_555 1_555
C18 C15 1_555 1_555
H16 C18 1_555 1_555
H17 C18 1_555 1_555
H18 C18 1_555 1_555
H19 N1 1_555 1_555
C2 C3 1_555 1_555
C8 C9 1_555 1_555
C16 C17 1_555 1_555

#END
