
#######################################################################
#
#                 Cambridge Crystallographic Data Centre
#                                CCDC 
#
#######################################################################
#
# If this CIF has been generated from an entry in the Cambridge 
# Structural Database, then it will include bibliographic, chemical, 
# crystal, experimental, refinement or atomic coordinate data resulting 
# from the CCDC's data processing and validation procedures.
#
#######################################################################

data_KEPKAU
_chemical_formula_moiety         'C16 H11 N3 O2,H2 O1'
_chemical_name_systematic        
"4,2':6',4''-terpyridine-4'-carboxylic acid monohydrate"
_symmetry_cell_setting           orthorhombic
_symmetry_space_group_name_H-M   'P b c a'
_symmetry_Int_Tables_number      61
_space_group_name_Hall           '-P 2ac 2ab'
loop_
_symmetry_equiv_pos_site_id
_symmetry_equiv_pos_as_xyz
1 x,y,z
2 1/2-x,-y,1/2+z
3 -x,1/2+y,1/2-z
4 1/2+x,1/2-y,-z
5 -x,-y,-z
6 1/2+x,y,1/2-z
7 x,1/2-y,1/2+z
8 1/2-x,1/2+y,z
_cell_length_a                   13.086(3)
_cell_length_b                   10.706(2)
_cell_length_c                   19.480(4)
_cell_angle_alpha                90
_cell_angle_beta                 90
_cell_angle_gamma                90
_cell_volume                     2729.12
_exptl_crystal_colour            colorless
_exptl_crystal_description       block
_cell_formula_units_Z            8
loop_
_atom_site_label
_atom_site_type_symbol
_atom_site_fract_x
_atom_site_fract_y
_atom_site_fract_z
N1 N 0.09536(18) 0.42877(19) 0.62754(11)
N2 N 0.12525(15) 0.88918(17) 0.58608(9)
N3 N 0.14810(16) 1.18154(19) 0.38757(10)
O1 O 0.15386(15) 1.02974(16) 0.83005(8)
O2 O 0.14375(16) 1.20750(15) 0.77123(8)
H1 H 0.1447 1.2385 0.8097
C1 C 0.1042(2) 0.4843(2) 0.68836(13)
H2 H 0.1056 0.4337 0.7271
C2 C 0.11130(19) 0.6116(2) 0.69794(13)
H3 H 0.1172 0.6446 0.7419
C3 C 0.10955(18) 0.6901(2) 0.64106(11)
C4 C 0.0997(2) 0.6336(2) 0.57744(12)
H4 H 0.0976 0.6818 0.5378
C5 C 0.0931(2) 0.5055(2) 0.57342(14)
H5 H 0.0866 0.4698 0.5301
C6 C 0.12018(17) 0.8280(2) 0.64610(11)
C7 C 0.12539(18) 0.8906(2) 0.70849(12)
H6 H 0.1228 0.8463 0.7495
C8 C 0.13443(18) 1.0192(2) 0.70919(11)
C9 C 0.13670(18) 1.0826(2) 0.64708(11)
H7 H 0.1403 1.1693 0.6460
C10 C 0.13348(18) 1.0140(2) 0.58642(11)
C11 C 0.1607(2) 1.2501(2) 0.44393(12)
H8 H 0.1723 1.3353 0.4391
C12 C 0.1574(2) 1.2008(2) 0.50886(12)
H9 H 0.1671 1.2520 0.5469
C13 C 0.13949(18) 1.0736(2) 0.51750(11)
C14 C 0.12699(19) 1.0026(2) 0.45848(11)
H10 H 0.1155 0.9170 0.4616
C15 C 0.1317(2) 1.0594(2) 0.39551(12)
H11 H 0.1231 1.0105 0.3565
C16 C 0.14445(19) 1.0874(2) 0.77632(12)
O3 O 0.4050(2) 0.2270(2) 0.38035(15)
H12 H 0.375(3) 0.159(3) 0.370(2)
H13 H 0.4672(17) 0.202(3) 0.379(2)
loop_
_geom_bond_atom_site_label_1
_geom_bond_atom_site_label_2
_geom_bond_site_symmetry_1
_geom_bond_site_symmetry_2
N1 C1 1_555 1_555
N2 C6 1_555 1_555
N3 C11 1_555 1_555
O1 C16 1_555 1_555
O2 H1 1_555 1_555
C1 H2 1_555 1_555
C2 C1 1_555 1_555
H3 C2 1_555 1_555
C3 C2 1_555 1_555
C4 C3 1_555 1_555
H4 C4 1_555 1_555
C5 N1 1_555 1_555
H5 C5 1_555 1_555
C6 C3 1_555 1_555
C7 C6 1_555 1_555
H6 C7 1_555 1_555
C8 C7 1_555 1_555
C9 C8 1_555 1_555
H7 C9 1_555 1_555
C10 N2 1_555 1_555
C11 H8 1_555 1_555
C12 C11 1_555 1_555
H9 C12 1_555 1_555
C13 C10 1_555 1_555
C14 C13 1_555 1_555
H10 C14 1_555 1_555
C15 N3 1_555 1_555
H11 C15 1_555 1_555
C16 O2 1_555 1_555
O3 H12 1_555 1_555
H13 O3 1_555 1_555
C4 C5 1_555 1_555
C8 C16 1_555 1_555
C9 C10 1_555 1_555
C12 C13 1_555 1_555
C14 C15 1_555 1_555

#END
