
#######################################################################
#
#                 Cambridge Crystallographic Data Centre
#                                CCDC 
#
#######################################################################
#
# If this CIF has been generated from an entry in the Cambridge 
# Structural Database, then it will include bibliographic, chemical, 
# crystal, experimental, refinement or atomic coordinate data resulting 
# from the CCDC's data processing and validation procedures.
#
#######################################################################

data_KEPMAU
_chemical_formula_moiety         'C14 H17 N1 O1'
_chemical_name_systematic        
6-Benzyl-1,3-dimethyl-3,6-dihydro-1H-pyridin-2-one
_symmetry_cell_setting           orthorhombic
_symmetry_space_group_name_H-M   'P 21 21 21'
_symmetry_Int_Tables_number      19
_space_group_name_Hall           'P 2ac 2ab'
loop_
_symmetry_equiv_pos_site_id
_symmetry_equiv_pos_as_xyz
1 x,y,z
2 1/2-x,-y,1/2+z
3 1/2+x,1/2-y,-z
4 -x,1/2+y,1/2-z
_cell_length_a                   8.683(2)
_cell_length_b                   10.611(2)
_cell_length_c                   12.899(3)
_cell_angle_alpha                90
_cell_angle_beta                 90
_cell_angle_gamma                90
_cell_volume                     1188.45
_exptl_crystal_colour            colorless
_exptl_crystal_description       platelet
_cell_formula_units_Z            4
loop_
_atom_site_label
_atom_site_type_symbol
_atom_site_fract_x
_atom_site_fract_y
_atom_site_fract_z
O1 O 0.4053(1) 0.76390(10) 0.35582(9)
N1 N 0.3624(1) 0.5562(1) 0.33711(9)
C1 C 0.2838(2) 0.4368(1) 0.3603(1)
C2 C 0.3364(2) 0.6678(1) 0.3836(1)
C3 C 0.2186(2) 0.6752(1) 0.4707(1)
C4 C 0.1207(2) 0.5603(2) 0.4811(1)
C5 C 0.1510(2) 0.4546(2) 0.4318(1)
C6 C 0.4688(2) 0.5550(2) 0.2491(1)
C7 C 0.2965(2) 0.7094(2) 0.5739(1)
C8 C 0.3974(2) 0.3369(1) 0.4021(1)
C9 C 0.4675(2) 0.3710(1) 0.5049(1)
C10 C 0.5970(2) 0.4490(2) 0.5114(1)
C11 C 0.6592(2) 0.4829(2) 0.6060(2)
C12 C 0.5941(2) 0.4386(2) 0.6969(1)
C13 C 0.4671(2) 0.3589(2) 0.6923(1)
C14 C 0.4043(2) 0.3270(2) 0.5975(1)
H1 H 0.2438 0.4055 0.2968
H2 H 0.1512 0.7428 0.4542
H3 H 0.0331 0.5636 0.5251
H4 H 0.0838 0.3853 0.4426
H5 H 0.4205 0.5925 0.1907
H6 H 0.4960 0.4705 0.2332
H7 H 0.5589 0.6012 0.2665
H8 H 0.2209 0.7136 0.6270
H9 H 0.3706 0.6469 0.5909
H10 H 0.3459 0.7889 0.5674
H11 H 0.3435 0.2595 0.4097
H12 H 0.4779 0.3267 0.3530
H13 H 0.6430 0.4794 0.4495
H14 H 0.7466 0.5365 0.6086
H15 H 0.6359 0.4625 0.7620
H16 H 0.4234 0.3263 0.7543
H17 H 0.3161 0.2740 0.5953
loop_
_geom_bond_atom_site_label_1
_geom_bond_atom_site_label_2
_geom_bond_site_symmetry_1
_geom_bond_site_symmetry_2
O1 C2 1_555 1_555
N1 C1 1_555 1_555
C1 C5 1_555 1_555
C2 N1 1_555 1_555
C3 C2 1_555 1_555
C4 C3 1_555 1_555
C5 C4 1_555 1_555
C6 N1 1_555 1_555
C7 C3 1_555 1_555
C8 C1 1_555 1_555
C9 C8 1_555 1_555
C10 C9 1_555 1_555
C11 C10 1_555 1_555
C12 C11 1_555 1_555
C13 C12 1_555 1_555
C14 C9 1_555 1_555
H1 C1 1_555 1_555
H2 C3 1_555 1_555
H3 C4 1_555 1_555
H4 C5 1_555 1_555
H5 C6 1_555 1_555
H6 C6 1_555 1_555
H7 C6 1_555 1_555
H8 C7 1_555 1_555
H9 C7 1_555 1_555
H10 C7 1_555 1_555
H11 C8 1_555 1_555
H12 C8 1_555 1_555
H13 C10 1_555 1_555
H14 C11 1_555 1_555
H15 C12 1_555 1_555
H16 C13 1_555 1_555
H17 C14 1_555 1_555
C13 C14 1_555 1_555

#END
