
#######################################################################
#
#                 Cambridge Crystallographic Data Centre
#                                CCDC 
#
#######################################################################
#
# If this CIF has been generated from an entry in the Cambridge 
# Structural Database, then it will include bibliographic, chemical, 
# crystal, experimental, refinement or atomic coordinate data resulting 
# from the CCDC's data processing and validation procedures.
#
#######################################################################

data_KEPNOK
_chemical_formula_moiety         'C20 H21 Br1 O4'
_chemical_name_systematic        
'Ethyl 6-(4-bromophenyl)-4-hydroxy-4-phenyltetrahydro-2H-pyran-2-carboxylate'
_symmetry_cell_setting           monoclinic
_symmetry_space_group_name_H-M   'C 2'
_symmetry_Int_Tables_number      5
_space_group_name_Hall           'C 2y'
loop_
_symmetry_equiv_pos_site_id
_symmetry_equiv_pos_as_xyz
1 x,y,z
2 -x,y,-z
3 1/2+x,1/2+y,z
4 1/2-x,1/2+y,-z
_cell_length_a                   23.318(4)
_cell_length_b                   7.5855(7)
_cell_length_c                   10.5790(13)
_cell_angle_alpha                90
_cell_angle_beta                 101.398(13)
_cell_angle_gamma                90
_cell_volume                     1834.3
_exptl_crystal_colour            colorless
_exptl_crystal_description       block
_cell_formula_units_Z            4
loop_
_atom_site_label
_atom_site_type_symbol
_atom_site_fract_x
_atom_site_fract_y
_atom_site_fract_z
Br1 Br 0.529548(17) 0.02260(6) 0.81634(4)
O1 O 0.35691(13) 0.6432(3) 1.0107(3)
O2 O 0.30804(12) 0.9695(3) 0.7873(3)
H1 H 0.2850 1.0557 0.7791
O3 O 0.26574(14) 0.7687(4) 1.2023(3)
O4 O 0.36357(14) 0.7753(4) 1.2550(3)
C1 C 0.48157(19) 0.2186(5) 0.8371(4)
C2 C 0.4268(2) 0.1882(5) 0.8608(4)
H2 H 0.4129 0.0710 0.8653
C3 C 0.3917(2) 0.3304(5) 0.8783(5)
H3 H 0.3537 0.3101 0.8951
C4 C 0.41178(16) 0.5042(7) 0.8713(3)
C5 C 0.46703(16) 0.5290(9) 0.8453(3)
H4 H 0.4808 0.6456 0.8378
C6 C 0.5031(2) 0.3865(5) 0.8298(4)
H5 H 0.5415 0.4051 0.8147
C7 C 0.3732(2) 0.6576(6) 0.8866(4)
H6 H 0.3954 0.7696 0.8832
C8 C 0.31791(19) 0.6604(5) 0.7799(4)
H7 H 0.3294 0.6748 0.6953
H8 H 0.2973 0.5461 0.7793
C9 C 0.27621(19) 0.8098(5) 0.7990(4)
C10 C 0.26461(18) 0.7964(5) 0.9358(4)
H9 H 0.2412 0.8990 0.9536
H10 H 0.2419 0.6881 0.9440
C11 C 0.32206(18) 0.7917(5) 1.0331(4)
H11 H 0.3443 0.9024 1.0248
C12 C 0.2210(2) 0.8008(5) 0.6935(4)
C13 C 0.1658(2) 0.7771(6) 0.7167(5)
H12 H 0.1602 0.7670 0.8029
C14 C 0.1176(2) 0.7675(7) 0.6144(5)
H13 H 0.0795 0.7522 0.6317
C15 C 0.1251(2) 0.7803(6) 0.4887(4)
H14 H 0.0924 0.7722 0.4192
C16 C 0.1805(2) 0.8048(6) 0.4649(4)
H15 H 0.1861 0.8129 0.3785
C17 C 0.2278(2) 0.8177(5) 0.5651(4)
H16 H 0.2656 0.8385 0.5472
C18 C 0.3128(2) 0.7764(5) 1.1704(4)
C19 C 0.3597(2) 0.7681(7) 1.3902(5)
H17 H 0.3375 0.6623 1.4070
H18 H 0.3393 0.8738 1.4137
C20 C 0.4207(2) 0.7607(7) 1.4680(4)
H19 H 0.4193 0.7571 1.5599
H20 H 0.4423 0.8654 1.4501
H21 H 0.4403 0.6546 1.4449
loop_
_geom_bond_atom_site_label_1
_geom_bond_atom_site_label_2
_geom_bond_site_symmetry_1
_geom_bond_site_symmetry_2
Br1 C1 1_555 1_555
O1 C7 1_555 1_555
O2 H1 1_555 1_555
O3 C18 1_555 1_555
O4 C18 1_555 1_555
C1 C2 1_555 1_555
C2 H2 1_555 1_555
C3 C2 1_555 1_555
H3 C3 1_555 1_555
C4 C3 1_555 1_555
C5 C4 1_555 1_555
H4 C5 1_555 1_555
C6 C1 1_555 1_555
H5 C6 1_555 1_555
C7 C4 1_555 1_555
H6 C7 1_555 1_555
C8 C7 1_555 1_555
H7 C8 1_555 1_555
H8 C8 1_555 1_555
C9 O2 1_555 1_555
C10 C9 1_555 1_555
H9 C10 1_555 1_555
H10 C10 1_555 1_555
C11 O1 1_555 1_555
H11 C11 1_555 1_555
C12 C9 1_555 1_555
C13 C12 1_555 1_555
H12 C13 1_555 1_555
C14 C13 1_555 1_555
H13 C14 1_555 1_555
C15 C14 1_555 1_555
H14 C15 1_555 1_555
C16 C15 1_555 1_555
H15 C16 1_555 1_555
C17 C12 1_555 1_555
H16 C17 1_555 1_555
C18 C11 1_555 1_555
C19 O4 1_555 1_555
H17 C19 1_555 1_555
H18 C19 1_555 1_555
C20 C19 1_555 1_555
H19 C20 1_555 1_555
H20 C20 1_555 1_555
H21 C20 1_555 1_555
C5 C6 1_555 1_555
C8 C9 1_555 1_555
C10 C11 1_555 1_555
C16 C17 1_555 1_555

#END
