
#######################################################################
#
#                 Cambridge Crystallographic Data Centre
#                                CCDC 
#
#######################################################################
#
# If this CIF has been generated from an entry in the Cambridge 
# Structural Database, then it will include bibliographic, chemical, 
# crystal, experimental, refinement or atomic coordinate data resulting 
# from the CCDC's data processing and validation procedures.
#
#######################################################################

data_KEPNIF
_chemical_formula_moiety         'C24 H27 N1 O4 S1'
_chemical_name_systematic        
1-{4-[1-(4-methoxyphenyl)ethenyl]-3-methyl-2-methylidene-1-[(4-methylphenyl)sulfonyl]pyrrolidin-3-yl}ethan-1-one
_symmetry_cell_setting           triclinic
_symmetry_space_group_name_H-M   'P -1'
_symmetry_Int_Tables_number      2
_space_group_name_Hall           '-P 1'
loop_
_symmetry_equiv_pos_site_id
_symmetry_equiv_pos_as_xyz
1 x,y,z
2 -x,-y,-z
_cell_length_a                   8.0505(7)
_cell_length_b                   12.1910(11)
_cell_length_c                   13.2843(11)
_cell_angle_alpha                117.189(2)
_cell_angle_beta                 99.937(2)
_cell_angle_gamma                96.539(2)
_cell_volume                     1114.33
_exptl_crystal_colour            colorless
_exptl_crystal_description       block
_cell_formula_units_Z            2
loop_
_atom_site_label
_atom_site_type_symbol
_atom_site_fract_x
_atom_site_fract_y
_atom_site_fract_z
S1 S 0.01610(6) 0.18036(5) 0.19696(4)
O1 O 0.0960(2) 0.11258(14) 0.24746(14)
O2 O -0.16587(18) 0.14356(15) 0.14656(13)
O3 O 0.4000(2) 0.13834(18) -0.52227(15)
O4 O 0.5938(2) 0.3369(2) 0.0282(2)
N1 N 0.10395(19) 0.16953(15) 0.09092(14)
C1 C 0.1822(2) 0.22517(19) -0.24047(17)
C2 C 0.1543(3) 0.1014(2) -0.32771(18)
H1 H 0.0881 0.0381 -0.3216
C3 C 0.2217(3) 0.0687(2) -0.42379(19)
H2 H 0.1974 -0.0151 -0.4827
C4 C 0.3251(3) 0.1609(2) -0.43196(19)
C5 C 0.3597(3) 0.2844(2) -0.3439(2)
H3 H 0.4315 0.3468 -0.3480
C6 C 0.2888(3) 0.3162(2) -0.2499(2)
H4 H 0.3127 0.4002 -0.1915
C7 C 0.0700(2) 0.34109(19) 0.30209(17)
C8 C 0.2122(3) 0.3877(2) 0.39618(19)
H5 H 0.2766 0.3333 0.4067
C9 C 0.2583(3) 0.5160(2) 0.4748(2)
H6 H 0.3547 0.5473 0.5378
C10 C 0.1648(3) 0.5982(2) 0.4618(2)
C11 C 0.0222(3) 0.5495(2) 0.3685(2)
H7 H -0.0430 0.6041 0.3593
C12 C -0.0279(3) 0.4214(2) 0.28744(19)
H8 H -0.1249 0.3904 0.2249
C13 C 0.0053(2) 0.1903(2) -0.00084(17)
H9 H -0.0366 0.2676 0.0330
H10 H -0.0920 0.1200 -0.0518
C14 C 0.1380(2) 0.20009(18) -0.06653(16)
H11 H 0.1504 0.1142 -0.1168
C15 C 0.3093(2) 0.2706(2) 0.03408(18)
C16 C 0.2857(2) 0.2095(2) 0.10979(17)
C17 C 0.0943(3) 0.2586(2) -0.14343(18)
C18 C -0.0168(4) 0.3316(3) -0.1314(3)
H12 H -0.0410 0.3625 -0.1834
H13 H -0.0715 0.3524 -0.0710
C19 C 0.3176(3) 0.4149(2) 0.1059(2)
H14 H 0.4236 0.4549 0.1664
H15 H 0.2214 0.4276 0.1406
H16 H 0.3130 0.4512 0.0551
C20 C 0.4089(3) 0.1989(3) 0.1812(2)
H17 H 0.3812 0.1624 0.2259
H18 H 0.5241 0.2280 0.1873
C21 C 0.4740(3) 0.2481(2) -0.0070(2)
C22 C 0.4835(3) 0.1173(3) -0.0854(2)
H19 H 0.5937 0.1170 -0.1037
H20 H 0.3931 0.0822 -0.1561
H21 H 0.4697 0.0675 -0.0473
C23 C 0.2159(4) 0.7378(2) 0.5475(3)
H22 H 0.1364 0.7800 0.5243
H23 H 0.3306 0.7709 0.5485
H24 H 0.2132 0.7512 0.6242
C24 C 0.3566(4) 0.0152(3) -0.6191(2)
H25 H 0.4171 0.0131 -0.6760
H26 H 0.2342 -0.0081 -0.6535
H27 H 0.3888 -0.0433 -0.5936
loop_
_geom_bond_atom_site_label_1
_geom_bond_atom_site_label_2
_geom_bond_site_symmetry_1
_geom_bond_site_symmetry_2
S1 O1 1_555 1_555
O2 S1 1_555 1_555
O3 C4 1_555 1_555
O4 C21 1_555 1_555
N1 S1 1_555 1_555
C1 C2 1_555 1_555
C2 H1 1_555 1_555
C3 C2 1_555 1_555
H2 C3 1_555 1_555
C4 C3 1_555 1_555
C5 C4 1_555 1_555
H3 C5 1_555 1_555
C6 C1 1_555 1_555
H4 C6 1_555 1_555
C7 S1 1_555 1_555
C8 C7 1_555 1_555
H5 C8 1_555 1_555
C9 C8 1_555 1_555
H6 C9 1_555 1_555
C10 C9 1_555 1_555
C11 C10 1_555 1_555
H7 C11 1_555 1_555
C12 C7 1_555 1_555
H8 C12 1_555 1_555
C13 N1 1_555 1_555
H9 C13 1_555 1_555
H10 C13 1_555 1_555
C14 C13 1_555 1_555
H11 C14 1_555 1_555
C15 C14 1_555 1_555
C16 N1 1_555 1_555
C17 C1 1_555 1_555
C18 C17 1_555 1_555
H12 C18 1_555 1_555
H13 C18 1_555 1_555
C19 C15 1_555 1_555
H14 C19 1_555 1_555
H15 C19 1_555 1_555
H16 C19 1_555 1_555
C20 C16 1_555 1_555
H17 C20 1_555 1_555
H18 C20 1_555 1_555
C21 C15 1_555 1_555
C22 C21 1_555 1_555
H19 C22 1_555 1_555
H20 C22 1_555 1_555
H21 C22 1_555 1_555
C23 C10 1_555 1_555
H22 C23 1_555 1_555
H23 C23 1_555 1_555
H24 C23 1_555 1_555
C24 O3 1_555 1_555
H25 C24 1_555 1_555
H26 C24 1_555 1_555
H27 C24 1_555 1_555
C5 C6 1_555 1_555
C11 C12 1_555 1_555
C14 C17 1_555 1_555
C15 C16 1_555 1_555

#END
