
#######################################################################
#
#                 Cambridge Crystallographic Data Centre
#                                CCDC 
#
#######################################################################
#
# If this CIF has been generated from an entry in the Cambridge 
# Structural Database, then it will include bibliographic, chemical, 
# crystal, experimental, refinement or atomic coordinate data resulting 
# from the CCDC's data processing and validation procedures.
#
#######################################################################

data_KEPROP
_chemical_formula_moiety         'C24 H19 N3'
_chemical_name_systematic        
5-methyl-2-(4-methylphenyl)-3-phenyl-5H-pyrazino[2,3-b]indole
_symmetry_cell_setting           monoclinic
_symmetry_space_group_name_H-M   'P 21/c'
_symmetry_Int_Tables_number      14
_space_group_name_Hall           '-P 2ybc'
loop_
_symmetry_equiv_pos_site_id
_symmetry_equiv_pos_as_xyz
1 x,y,z
2 -x,1/2+y,1/2-z
3 -x,-y,-z
4 x,1/2-y,1/2+z
_cell_length_a                   11.4420(10)
_cell_length_b                   8.5551(7)
_cell_length_c                   18.9959(18)
_cell_angle_alpha                90
_cell_angle_beta                 104.723(10)
_cell_angle_gamma                90
_cell_volume                     1798.41
_exptl_crystal_colour            'light yellow'
_exptl_crystal_description       plate
_cell_formula_units_Z            4
loop_
_atom_site_label
_atom_site_type_symbol
_atom_site_fract_x
_atom_site_fract_y
_atom_site_fract_z
N1 N 1.07995(19) 0.1979(2) 0.01205(12)
N2 N 0.91688(18) 0.2899(2) 0.05860(11)
N3 N 0.98451(19) 0.0417(2) 0.15971(11)
C1 C 1.2315(2) -0.1115(3) 0.12782(16)
H1 H 1.220165 -0.166498 0.167796
C2 C 1.3271(3) -0.1450(4) 0.09904(17)
H2 H 1.381648 -0.222551 0.120303
C3 C 1.3440(3) -0.0651(4) 0.03873(18)
H3 H 1.409606 -0.090647 0.020430
C4 C 1.2659(3) 0.0509(3) 0.00532(17)
H4 H 1.277216 0.103755 -0.035224
C5 C 1.1694(2) 0.0858(3) 0.03473(14)
C6 C 1.1521(2) 0.0062(3) 0.09597(14)
C7 C 1.0456(2) 0.0746(3) 0.11040(13)
C8 C 1.0069(2) 0.1923(3) 0.05846(13)
C9 C 0.8605(2) 0.2628(3) 0.11149(13)
C10 C 0.8887(2) 0.1340(3) 0.15897(13)
C11 C 1.0638(3) 0.3023(3) -0.04981(17)
H5 H 0.981342 0.337161 -0.064025
H6 H 1.082912 0.247994 -0.089669
H7 H 1.116292 0.390895 -0.036699
C12 C 0.7759(2) 0.3902(3) 0.11959(14)
C13 C 0.6931(2) 0.4504(3) 0.05905(15)
H8 H 0.682408 0.402237 0.013961
C14 C 0.6266(3) 0.5823(3) 0.06594(18)
H9 H 0.571065 0.622467 0.025480
C15 C 0.6426(3) 0.6532(3) 0.13191(19)
H10 H 0.598579 0.742532 0.136192
C16 C 0.7233(3) 0.5934(4) 0.19211(18)
H11 H 0.733421 0.641869 0.237092
C17 C 0.7891(2) 0.4619(3) 0.18595(15)
H12 H 0.843019 0.421105 0.226977
C18 C 0.8143(2) 0.0841(3) 0.20855(14)
C19 C 0.6892(2) 0.0884(3) 0.18805(15)
H13 H 0.649945 0.133323 0.143777
C20 C 0.6221(3) 0.0272(3) 0.23204(16)
H14 H 0.538197 0.030700 0.216683
C21 C 0.6767(3) -0.0397(3) 0.29893(16)
C22 C 0.8007(3) -0.0392(3) 0.31943(16)
H15 H 0.839910 -0.080628 0.364522
C23 C 0.8686(3) 0.0199(3) 0.27595(15)
H16 H 0.952470 0.016918 0.291775
C24 C 0.6042(3) -0.1131(4) 0.3457(2)
H17 H 0.627596 -0.220535 0.354509
H18 H 0.519844 -0.107497 0.321321
H19 H 0.618823 -0.058309 0.391200
loop_
_geom_bond_atom_site_label_1
_geom_bond_atom_site_label_2
_geom_bond_site_symmetry_1
_geom_bond_site_symmetry_2
N1 C5 1_555 1_555
N2 C8 1_555 1_555
N3 C7 1_555 1_555
C1 H1 1_555 1_555
C2 C1 1_555 1_555
H2 C2 1_555 1_555
C3 C2 1_555 1_555
H3 C3 1_555 1_555
C4 C3 1_555 1_555
H4 C4 1_555 1_555
C5 C4 1_555 1_555
C6 C1 1_555 1_555
C7 C6 1_555 1_555
C8 N1 1_555 1_555
C9 N2 1_555 1_555
C10 N3 1_555 1_555
C11 N1 1_555 1_555
H5 C11 1_555 1_555
H6 C11 1_555 1_555
H7 C11 1_555 1_555
C12 C9 1_555 1_555
C13 C12 1_555 1_555
H8 C13 1_555 1_555
C14 C13 1_555 1_555
H9 C14 1_555 1_555
C15 C14 1_555 1_555
H10 C15 1_555 1_555
C16 C15 1_555 1_555
H11 C16 1_555 1_555
C17 C12 1_555 1_555
H12 C17 1_555 1_555
C18 C10 1_555 1_555
C19 C18 1_555 1_555
H13 C19 1_555 1_555
C20 C19 1_555 1_555
H14 C20 1_555 1_555
C21 C20 1_555 1_555
C22 C21 1_555 1_555
H15 C22 1_555 1_555
C23 C18 1_555 1_555
H16 C23 1_555 1_555
C24 C21 1_555 1_555
H17 C24 1_555 1_555
H18 C24 1_555 1_555
H19 C24 1_555 1_555
C5 C6 1_555 1_555
C7 C8 1_555 1_555
C9 C10 1_555 1_555
C16 C17 1_555 1_555
C22 C23 1_555 1_555

#END
