
#######################################################################
#
#                 Cambridge Crystallographic Data Centre
#                                CCDC 
#
#######################################################################
#
# If this CIF has been generated from an entry in the Cambridge 
# Structural Database, then it will include bibliographic, chemical, 
# crystal, experimental, refinement or atomic coordinate data resulting 
# from the CCDC's data processing and validation procedures.
#
#######################################################################

data_KEPTAC01
_chemical_formula_moiety         'C60 H60 S6'
_chemical_name_systematic        
syn/anti-1,2,7,8-bis(thieno)-3,4,5,6,9,10,11,12-tetrakis(2-hexylthieno)coronene
_symmetry_cell_setting           triclinic
_symmetry_space_group_name_H-M   'P -1'
_symmetry_Int_Tables_number      2
_space_group_name_Hall           '-P 1'
loop_
_symmetry_equiv_pos_site_id
_symmetry_equiv_pos_as_xyz
1 x,y,z
2 -x,-y,-z
_cell_length_a                   13.8948(9)
_cell_length_b                   14.4076(8)
_cell_length_c                   14.5193(7)
_cell_angle_alpha                61.552(3)
_cell_angle_beta                 70.858(3)
_cell_angle_gamma                74.447(3)
_cell_volume                     2392.33
_exptl_crystal_colour            yellow
_exptl_crystal_description       prism
_cell_formula_units_Z            2
_exptl_crystal_recrystallization_method toluene
loop_
_atom_site_label
_atom_site_type_symbol
_atom_site_fract_x
_atom_site_fract_y
_atom_site_fract_z
S1 S 1.02773(8) 0.51188(7) 0.24938(8)
S2 S 0.83659(8) 0.13130(8) 0.14344(9)
S3 S 1.19034(8) -0.34308(7) 0.48715(8)
S4 S 1.34896(8) 0.04395(8) 0.61605(8)
C1 C 1.0816(3) 0.1866(3) 0.3777(3)
C2 C 1.0321(3) 0.1708(3) 0.3143(3)
C3 C 1.0433(3) 0.0660(3) 0.3190(3)
C4 C 1.1072(3) -0.0218(3) 0.3848(3)
C5 C 1.1567(3) -0.0050(3) 0.4476(3)
C6 C 1.1415(3) 0.0988(3) 0.4467(3)
C7 C 1.1896(3) 0.1151(3) 0.5090(3)
C8 C 1.1669(3) 0.2160(3) 0.5124(3)
C9 C 1.1108(3) 0.3018(3) 0.4437(3)
C10 C 1.0721(3) 0.2908(3) 0.3718(3)
C11 C 1.0265(3) 0.3772(3) 0.2903(3)
C12 C 0.9800(3) 0.3633(3) 0.2269(3)
C13 C 0.9736(3) 0.2580(3) 0.2470(3)
C14 C 0.9107(3) 0.2375(3) 0.2002(3)
C15 C 0.9227(3) 0.1363(3) 0.2045(3)
C16 C 0.9936(3) 0.0507(3) 0.2580(3)
C17 C 1.0170(3) -0.0495(3) 0.2526(3)
C18 C 1.0784(3) -0.1343(3) 0.3148(3)
C19 C 1.1215(3) -0.1229(3) 0.3853(3)
C20 C 1.1773(3) -0.2089(3) 0.4585(3)
C21 C 1.2252(3) -0.1952(3) 0.5207(3)
C22 C 1.2218(3) -0.0901(3) 0.5098(3)
C23 C 1.2833(3) -0.0674(3) 0.5580(3)
C24 C 1.2631(3) 0.0315(3) 0.5602(3)
C25 C 0.9725(3) 0.5490(3) 0.1430(3)
C26 C 0.7799(3) 0.2635(3) 0.1171(3)
C27 C 1.2544(3) -0.3814(3) 0.5874(3)
C28 C 1.4155(3) -0.0815(3) 0.6328(3)
C29 C 0.9521(3) 0.4625(3) 0.1420(3)
C30 C 0.8281(3) 0.3075(3) 0.1513(3)
C31 C 1.2670(3) -0.2949(3) 0.5945(3)
C32 C 1.3716(3) -0.1308(3) 0.5993(3)
H1 H 0.9223 0.4674 0.0893
H2 H 0.8091 0.3790 0.1429
H3 H 1.3017 -0.3004 0.6439
H4 H 1.3975 -0.2002 0.6026
C33 C 1.5108(4) -0.1180(4) 0.6766(4)
H5 H 1.5601 -0.0711 0.6276
H6 H 1.4929 -0.1154 0.7445
C34 C 1.5589(4) -0.2292(4) 0.6912(5)
H7 H 1.5806 -0.2304 0.6225
H8 H 1.5078 -0.2749 0.7363
C35 C 1.6500(4) -0.2717(5) 0.7432(5)
H9 H 1.6945 -0.2186 0.7079
H10 H 1.6854 -0.3340 0.7339
C36 C 1.6239(5) -0.2998(5) 0.8599(5)
H11 H 1.5906 -0.2375 0.8702
H12 H 1.5781 -0.3518 0.8959
C37 C 1.7217(5) -0.3469(6) 0.9110(5)
H13 H 1.7664 -0.2942 0.8774
H14 H 1.7566 -0.4079 0.8987
C38 C 1.6908(5) -0.3757(6) 1.0288(5)
H15 H 1.7489 -0.4036 1.0595
H16 H 1.6557 -0.3145 1.0404
H17 H 1.6459 -0.4281 1.0617
C39 C 0.9540(3) 0.6644(3) 0.0665(3)
H18 H 1.0135 0.6960 0.0479
H19 H 0.9432 0.6680 0.0035
C40 C 0.8620(3) 0.7294(3) 0.1112(3)
H20 H 0.8729 0.7286 0.1729
H21 H 0.8021 0.6979 0.1313
C41 C 0.8456(3) 0.8439(3) 0.0289(3)
H22 H 0.9032 0.8770 0.0134
H23 H 0.8406 0.8443 -0.0349
C42 C 0.7483(3) 0.9077(3) 0.0685(4)
H24 H 0.7556 0.9108 0.1298
H25 H 0.6916 0.8715 0.0887
C43 C 0.7272(4) 1.0219(3) -0.0146(4)
H26 H 0.7819 1.0597 -0.0323
H27 H 0.7231 1.0194 -0.0774
C44 C 0.6275(4) 1.0796(4) 0.0253(5)
H28 H 0.6159 1.1500 -0.0284
H29 H 0.6313 1.0826 0.0880
H30 H 0.5725 1.0422 0.0428
C45 C 0.6939(3) 0.3114(4) 0.0634(4)
H31 H 0.6654 0.3772 0.0679
H32 H 0.6433 0.2643 0.1002
C46 C 0.7247(4) 0.3328(4) -0.0556(4)
H33 H 0.7765 0.3784 -0.0925
H34 H 0.7512 0.2668 -0.0605
C47 C 0.6344(4) 0.3844(4) -0.1102(4)
H35 H 0.6157 0.4558 -0.1180
H36 H 0.5778 0.3458 -0.0663
C48 C 0.6612(5) 0.3862(5) -0.2213(5)
H37 H 0.7118 0.4326 -0.2668
H38 H 0.6896 0.3158 -0.2131
C49 C 0.5724(6) 0.4238(6) -0.2754(6)
H39 H 0.5941 0.4139 -0.3397
H40 H 0.5178 0.3835 -0.2275
C50 C 0.5347(6) 0.5353(6) -0.3034(6)
H41 H 0.4787 0.5590 -0.3368
H42 H 0.5896 0.5753 -0.3511
H43 H 0.5132 0.5449 -0.2389
C51 C 1.2824(3) -0.4974(3) 0.6552(3)
H44 H 1.3095 -0.5032 0.7102
H45 H 1.2219 -0.5308 0.6871
C52 C 1.3627(3) -0.5569(3) 0.5947(4)
H46 H 1.4229 -0.5228 0.5609
H47 H 1.3352 -0.5540 0.5414
C53 C 1.3916(3) -0.6737(3) 0.6669(3)
H48 H 1.4130 -0.6766 0.7241
H49 H 1.3328 -0.7093 0.6956
C54 C 1.4780(4) -0.7319(3) 0.6082(4)
H50 H 1.5355 -0.6940 0.5770
H51 H 1.4552 -0.7309 0.5527
C55 C 1.5133(4) -0.8468(3) 0.6810(4)
H52 H 1.5570 -0.8807 0.6368
H53 H 1.4539 -0.8816 0.7216
C56 C 1.5700(4) -0.8575(5) 0.7581(5)
H54 H 1.5891 -0.9306 0.8013
H55 H 1.6300 -0.8235 0.7184
H56 H 1.5269 -0.8244 0.8032
S5 S 1.20872(16) 0.2516(2) 0.5892(2)
S6 S 1.0994(2) -0.2418(2) 0.2895(2)
C57 C 1.1596(7) 0.3504(7) 0.5632(7)
C58 C 1.0449(7) -0.2061(7) 0.2184(7)
C59 C 1.0826(9) 0.3991(9) 0.4736(9)
C60 C 0.9983(12) -0.0780(13) 0.1746(14)
H57 H 1.0561 -0.2548 0.1836
H58 H 0.9552 -0.0346 0.1208
H59 H 1.1396 0.4254 0.5734
H60 H 1.0292 0.4619 0.4497
S7? S 1.09900(17) 0.41448(18) 0.45798(18)
S8? S 0.97586(15) -0.07962(18) 0.17262(19)
C61? C 1.1445(7) 0.3774(7) 0.5397(7)
C62? C 1.0294(8) -0.1793(7) 0.1927(8)
C63? C 1.1837(6) 0.2446(7) 0.5909(8)
C64? C 1.0875(14) -0.2339(15) 0.3025(15)
H61? H 1.0214 -0.2122 0.1491
H62? H 1.1121 -0.3075 0.3521
H63? H 1.1757 0.3882 0.5978
H64? H 1.2091 0.1927 0.6569
loop_
_geom_bond_atom_site_label_1
_geom_bond_atom_site_label_2
_geom_bond_site_symmetry_1
_geom_bond_site_symmetry_2
S1 C11 1_555 1_555
S2 C15 1_555 1_555
S3 C20 1_555 1_555
S4 C24 1_555 1_555
C1 C2 1_555 1_555
C2 C3 1_555 1_555
C3 C4 1_555 1_555
C4 C5 1_555 1_555
C5 C6 1_555 1_555
C6 C1 1_555 1_555
C7 C6 1_555 1_555
C8 C7 1_555 1_555
C9 C8 1_555 1_555
C10 C1 1_555 1_555
C11 C10 1_555 1_555
C12 C11 1_555 1_555
C13 C2 1_555 1_555
C14 C13 1_555 1_555
C15 C14 1_555 1_555
C16 C3 1_555 1_555
C17 C16 1_555 1_555
C18 C17 1_555 1_555
C19 C4 1_555 1_555
C20 C19 1_555 1_555
C21 C20 1_555 1_555
C22 C5 1_555 1_555
C23 C22 1_555 1_555
C24 C7 1_555 1_555
C25 S1 1_555 1_555
C26 S2 1_555 1_555
C27 S3 1_555 1_555
C28 S4 1_555 1_555
C29 C12 1_555 1_555
C30 C14 1_555 1_555
C31 C21 1_555 1_555
C32 C23 1_555 1_555
H1 C29 1_555 1_555
H2 C30 1_555 1_555
H3 C31 1_555 1_555
H4 C32 1_555 1_555
C33 C28 1_555 1_555
H5 C33 1_555 1_555
H6 C33 1_555 1_555
C34 C33 1_555 1_555
H7 C34 1_555 1_555
H8 C34 1_555 1_555
C35 C34 1_555 1_555
H9 C35 1_555 1_555
H10 C35 1_555 1_555
C36 C35 1_555 1_555
H11 C36 1_555 1_555
H12 C36 1_555 1_555
C37 C36 1_555 1_555
H13 C37 1_555 1_555
H14 C37 1_555 1_555
C38 C37 1_555 1_555
H15 C38 1_555 1_555
H16 C38 1_555 1_555
H17 C38 1_555 1_555
C39 C25 1_555 1_555
H18 C39 1_555 1_555
H19 C39 1_555 1_555
C40 C39 1_555 1_555
H20 C40 1_555 1_555
H21 C40 1_555 1_555
C41 C40 1_555 1_555
H22 C41 1_555 1_555
H23 C41 1_555 1_555
C42 C41 1_555 1_555
H24 C42 1_555 1_555
H25 C42 1_555 1_555
C43 C42 1_555 1_555
H26 C43 1_555 1_555
H27 C43 1_555 1_555
C44 C43 1_555 1_555
H28 C44 1_555 1_555
H29 C44 1_555 1_555
H30 C44 1_555 1_555
C45 C26 1_555 1_555
H31 C45 1_555 1_555
H32 C45 1_555 1_555
C46 C45 1_555 1_555
H33 C46 1_555 1_555
H34 C46 1_555 1_555
C47 C46 1_555 1_555
H35 C47 1_555 1_555
H36 C47 1_555 1_555
C48 C47 1_555 1_555
H37 C48 1_555 1_555
H38 C48 1_555 1_555
C49 C48 1_555 1_555
H39 C49 1_555 1_555
H40 C49 1_555 1_555
C50 C49 1_555 1_555
H41 C50 1_555 1_555
H42 C50 1_555 1_555
H43 C50 1_555 1_555
C51 C27 1_555 1_555
H44 C51 1_555 1_555
H45 C51 1_555 1_555
C52 C51 1_555 1_555
H46 C52 1_555 1_555
H47 C52 1_555 1_555
C53 C52 1_555 1_555
H48 C53 1_555 1_555
H49 C53 1_555 1_555
C54 C53 1_555 1_555
H50 C54 1_555 1_555
H51 C54 1_555 1_555
C55 C54 1_555 1_555
H52 C55 1_555 1_555
H53 C55 1_555 1_555
C56 C55 1_555 1_555
H54 C56 1_555 1_555
H55 C56 1_555 1_555
H56 C56 1_555 1_555
S5 C8 1_555 1_555
S6 C18 1_555 1_555
C57 S5 1_555 1_555
C58 S6 1_555 1_555
C59 C9 1_555 1_555
C60 C17 1_555 1_555
H57 C58 1_555 1_555
H58 C60 1_555 1_555
H59 C57 1_555 1_555
H60 C59 1_555 1_555
C9 C10 1_555 1_555
C12 C13 1_555 1_555
C15 C16 1_555 1_555
C18 C19 1_555 1_555
C21 C22 1_555 1_555
C23 C24 1_555 1_555
C25 C29 1_555 1_555
C26 C30 1_555 1_555
C27 C31 1_555 1_555
C28 C32 1_555 1_555
C57 C59 1_555 1_555
C58 C60 1_555 1_555

#END
