
#######################################################################
#
#                 Cambridge Crystallographic Data Centre
#                                CCDC 
#
#######################################################################
#
# If this CIF has been generated from an entry in the Cambridge 
# Structural Database, then it will include bibliographic, chemical, 
# crystal, experimental, refinement or atomic coordinate data resulting 
# from the CCDC's data processing and validation procedures.
#
#######################################################################

data_KEPTAC
_chemical_formula_moiety         'C60 H60 S6'
_chemical_name_systematic        
syn/anti-1,2,7,8-bis(thieno)-3,4,5,6,9,10,11,12-tetrakis(2-hexylthieno)coronene
_symmetry_cell_setting           triclinic
_symmetry_space_group_name_H-M   'P -1'
_symmetry_Int_Tables_number      2
_space_group_name_Hall           '-P 1'
loop_
_symmetry_equiv_pos_site_id
_symmetry_equiv_pos_as_xyz
1 x,y,z
2 -x,-y,-z
_cell_length_a                   7.9721(3)
_cell_length_b                   17.2319(8)
_cell_length_c                   18.5026(9)
_cell_angle_alpha                109.117(2)
_cell_angle_beta                 91.667(3)
_cell_angle_gamma                93.427(3)
_cell_volume                     2394.12
_exptl_crystal_colour            yellow
_exptl_crystal_description       prism
_cell_formula_units_Z            2
_exptl_crystal_recrystallization_method p-xylene
loop_
_atom_site_label
_atom_site_type_symbol
_atom_site_fract_x
_atom_site_fract_y
_atom_site_fract_z
S1 S 0.71108(7) 0.88989(3) 0.07827(3)
S2 S 0.26573(7) 0.56382(4) -0.26952(3)
S3 S 0.00500(7) 0.29904(3) -0.01289(3)
S4 S 0.46392(8) 0.62435(4) 0.33378(3)
C1 C 0.4780(2) 0.66580(12) 0.06316(12)
C2 C 0.4183(2) 0.63997(12) -0.01579(12)
C3 C 0.3161(3) 0.56386(12) -0.04815(12)
C4 C 0.2709(2) 0.51388(12) -0.00101(12)
C5 C 0.3304(3) 0.53981(12) 0.07812(12)
C6 C 0.4349(2) 0.61542(12) 0.11019(12)
C7 C 0.4926(3) 0.64190(12) 0.18834(12)
C8 C 0.6025(3) 0.71491(13) 0.21789(12)
C9 C 0.6451(3) 0.76295(13) 0.17216(12)
C10 C 0.5797(3) 0.74081(12) 0.09525(12)
C11 C 0.6064(3) 0.79195(12) 0.04923(12)
C12 C 0.5439(3) 0.76962(12) -0.02628(12)
C13 C 0.4589(3) 0.68991(12) -0.06185(12)
C14 C 0.4124(3) 0.65939(13) -0.14218(12)
C15 C 0.3107(3) 0.58686(13) -0.17178(12)
C16 C 0.2571(3) 0.53807(13) -0.12609(12)
C17 C 0.1509(3) 0.46452(13) -0.15630(12)
C18 C 0.1028(3) 0.41728(12) -0.11069(13)
C19 C 0.1641(3) 0.44065(12) -0.03272(12)
C20 C 0.1259(3) 0.39224(13) 0.01470(13)
C21 C 0.1875(3) 0.41412(13) 0.09080(12)
C22 C 0.2855(3) 0.49113(12) 0.12521(12)
C23 C 0.3323(3) 0.52213(13) 0.20525(13)
C24 C 0.4344(3) 0.59535(13) 0.23462(12)
C25 C 0.6638(3) 0.90289(13) -0.00868(13)
C26 C 0.3894(3) 0.64901(14) -0.27182(13)
C27 C 0.0397(3) 0.28717(13) 0.07520(13)
C28 C 0.3411(3) 0.53936(14) 0.33679(14)
C29 C 0.5742(3) 0.83553(13) -0.05743(13)
C30 C 0.4603(3) 0.69266(14) -0.20154(13)
C31 C 0.1381(3) 0.35146(14) 0.12354(14)
C32 C 0.2806(3) 0.49208(14) 0.26574(13)
H1 H 0.5344 0.8322 -0.1073
H2 H 0.5341 0.7407 -0.1920
H3 H 0.1724 0.3550 0.1742
H4 H 0.2106 0.4429 0.2566
C33 C 0.3151(3) 0.52568(16) 0.41163(14)
H5 H 0.2672 0.5725 0.4450
H6 H 0.4216 0.5197 0.4329
C34 C 0.1993(3) 0.44946(16) 0.40510(14)
H7 H 0.0897 0.4572 0.3884
H8 H 0.2415 0.4030 0.3685
C35 C 0.1885(3) 0.43282(16) 0.48079(14)
H9 H 0.1436 0.4787 0.5169
H10 H 0.2988 0.4268 0.4981
C36 C 0.0781(3) 0.35562(16) 0.47525(14)
H11 H -0.0335 0.3626 0.4603
H12 H 0.1199 0.3100 0.4375
C37 C 0.0741(4) 0.33782(18) 0.55055(15)
H13 H 0.0297 0.3830 0.5879
H14 H 0.1863 0.3325 0.5660
C38 C -0.0308(4) 0.2596(2) 0.54557(17)
H15 H -0.0281 0.2517 0.5940
H16 H -0.1436 0.2644 0.5305
H17 H 0.0130 0.2139 0.5087
C39 C 0.7211(3) 0.98139(14) -0.02286(14)
H18 H 0.6666 1.0255 0.0110
H19 H 0.8394 0.9909 -0.0126
C40 C 0.6816(3) 0.97916(14) -0.10476(14)
H20 H 0.5633 0.9702 -0.1150
H21 H 0.7355 0.9349 -0.1388
C41 C 0.7415(3) 1.05886(14) -0.11875(14)
H22 H 0.6887 1.1033 -0.0844
H23 H 0.8600 1.0676 -0.1092
C42 C 0.6995(3) 1.05585(15) -0.20040(15)
H24 H 0.7571 1.0130 -0.2343
H25 H 0.5816 1.0439 -0.2105
C43 C 0.7480(3) 1.13558(15) -0.21546(15)
H26 H 0.8655 1.1483 -0.2043
H27 H 0.6883 1.1782 -0.1825
C44 C 0.7078(4) 1.1306(2) -0.29796(18)
H28 H 0.7405 1.1817 -0.3046
H29 H 0.7675 1.0883 -0.3313
H30 H 0.5904 1.1182 -0.3095
C45 C 0.4020(3) 0.66569(16) -0.34651(14)
H31 H 0.2914 0.6697 -0.3648
H32 H 0.4507 0.6206 -0.3820
C46 C 0.5066(4) 0.74459(16) -0.34151(14)
H33 H 0.4645 0.7897 -0.3033
H34 H 0.6202 0.7393 -0.3280
C47 C 0.5004(4) 0.76099(17) -0.41732(15)
H35 H 0.3860 0.7645 -0.4310
H36 H 0.5443 0.7159 -0.4549
C48 C 0.5985(4) 0.83958(17) -0.41649(16)
H37 H 0.5598 0.8846 -0.3770
H38 H 0.7144 0.8350 -0.4065
C49 C 0.5793(5) 0.8561(2) -0.49218(17)
H39 H 0.4638 0.8627 -0.5009
H40 H 0.6132 0.8096 -0.5317
C50 C 0.6808(6) 0.9318(2) -0.4949(2)
H41 H 0.6634 0.9389 -0.5433
H42 H 0.6473 0.9786 -0.4557
H43 H 0.7967 0.9256 -0.4865
C51 C -0.0380(3) 0.21248(14) 0.08990(14)
H44 H -0.1552 0.2078 0.0770
H45 H 0.0118 0.1654 0.0581
C52 C -0.0152(3) 0.21497(15) 0.17231(15)
H46 H -0.0588 0.2637 0.2047
H47 H 0.1016 0.2158 0.1846
C53 C -0.1040(3) 0.14062(15) 0.18602(15)
H48 H -0.2210 0.1407 0.1747
H49 H -0.0622 0.0921 0.1524
C54 C -0.0806(4) 0.14020(16) 0.26768(16)
H50 H -0.1218 0.1888 0.3015
H51 H 0.0362 0.1395 0.2791
C55 C -0.1730(5) 0.06602(18) 0.27961(17)
H52 H -0.2898 0.0674 0.2687
H53 H -0.1328 0.0177 0.2449
C56 C -0.1495(6) 0.0629(2) 0.35984(19)
H54 H -0.2096 0.0153 0.3640
H55 H -0.1901 0.1108 0.3950
H56 H -0.0331 0.0611 0.3712
S5 S 0.76792(13) 0.84747(7) 0.22181(6)
S6 S 0.06489(14) 0.42416(8) -0.24514(8)
C57 C 0.7805(5) 0.8199(3) 0.3025(2)
C58 C -0.0389(5) 0.3442(2) -0.2258(2)
C59 C 0.7043(7) 0.7491(3) 0.2943(3)
C60 C -0.0130(12) 0.3439(5) -0.1513(4)
H57 H 0.7126 0.7191 0.3321
H58 H -0.0621 0.3014 -0.1304
H59 H 0.8388 0.8557 0.3517
H60 H -0.1131 0.3017 -0.2658
S7? S 0.6877(2) 0.75701(12) 0.30799(10)
S8? S -0.0273(4) 0.33366(14) -0.16212(12)
C61? C 0.7992(7) 0.8358(4) 0.2857(3)
C62? C -0.0258(7) 0.3600(3) -0.2441(3)
C63? C 0.8011(7) 0.8363(4) 0.2096(4)
C64? C 0.0945(8) 0.4156(4) -0.2464(4)
H61? H 0.8721 0.8697 0.1852
H62? H 0.1418 0.4268 -0.2918
H63? H 0.8650 0.8811 0.3267
H64? H -0.1084 0.3320 -0.2880
loop_
_geom_bond_atom_site_label_1
_geom_bond_atom_site_label_2
_geom_bond_site_symmetry_1
_geom_bond_site_symmetry_2
S1 C11 1_555 1_555
S2 C15 1_555 1_555
S3 C20 1_555 1_555
S4 C24 1_555 1_555
C1 C2 1_555 1_555
C2 C3 1_555 1_555
C3 C4 1_555 1_555
C4 C5 1_555 1_555
C5 C6 1_555 1_555
C6 C1 1_555 1_555
C7 C6 1_555 1_555
C8 C7 1_555 1_555
C9 C8 1_555 1_555
C10 C1 1_555 1_555
C11 C10 1_555 1_555
C12 C11 1_555 1_555
C13 C2 1_555 1_555
C14 C13 1_555 1_555
C15 C14 1_555 1_555
C16 C3 1_555 1_555
C17 C16 1_555 1_555
C18 C17 1_555 1_555
C19 C4 1_555 1_555
C20 C19 1_555 1_555
C21 C20 1_555 1_555
C22 C5 1_555 1_555
C23 C22 1_555 1_555
C24 C7 1_555 1_555
C25 S1 1_555 1_555
C26 S2 1_555 1_555
C27 S3 1_555 1_555
C28 S4 1_555 1_555
C29 C12 1_555 1_555
C30 C14 1_555 1_555
C31 C21 1_555 1_555
C32 C23 1_555 1_555
H1 C29 1_555 1_555
H2 C30 1_555 1_555
H3 C31 1_555 1_555
H4 C32 1_555 1_555
C33 C28 1_555 1_555
H5 C33 1_555 1_555
H6 C33 1_555 1_555
C34 C33 1_555 1_555
H7 C34 1_555 1_555
H8 C34 1_555 1_555
C35 C34 1_555 1_555
H9 C35 1_555 1_555
H10 C35 1_555 1_555
C36 C35 1_555 1_555
H11 C36 1_555 1_555
H12 C36 1_555 1_555
C37 C36 1_555 1_555
H13 C37 1_555 1_555
H14 C37 1_555 1_555
C38 C37 1_555 1_555
H15 C38 1_555 1_555
H16 C38 1_555 1_555
H17 C38 1_555 1_555
C39 C25 1_555 1_555
H18 C39 1_555 1_555
H19 C39 1_555 1_555
C40 C39 1_555 1_555
H20 C40 1_555 1_555
H21 C40 1_555 1_555
C41 C40 1_555 1_555
H22 C41 1_555 1_555
H23 C41 1_555 1_555
C42 C41 1_555 1_555
H24 C42 1_555 1_555
H25 C42 1_555 1_555
C43 C42 1_555 1_555
H26 C43 1_555 1_555
H27 C43 1_555 1_555
C44 C43 1_555 1_555
H28 C44 1_555 1_555
H29 C44 1_555 1_555
H30 C44 1_555 1_555
C45 C26 1_555 1_555
H31 C45 1_555 1_555
H32 C45 1_555 1_555
C46 C45 1_555 1_555
H33 C46 1_555 1_555
H34 C46 1_555 1_555
C47 C46 1_555 1_555
H35 C47 1_555 1_555
H36 C47 1_555 1_555
C48 C47 1_555 1_555
H37 C48 1_555 1_555
H38 C48 1_555 1_555
C49 C48 1_555 1_555
H39 C49 1_555 1_555
H40 C49 1_555 1_555
C50 C49 1_555 1_555
H41 C50 1_555 1_555
H42 C50 1_555 1_555
H43 C50 1_555 1_555
C51 C27 1_555 1_555
H44 C51 1_555 1_555
H45 C51 1_555 1_555
C52 C51 1_555 1_555
H46 C52 1_555 1_555
H47 C52 1_555 1_555
C53 C52 1_555 1_555
H48 C53 1_555 1_555
H49 C53 1_555 1_555
C54 C53 1_555 1_555
H50 C54 1_555 1_555
H51 C54 1_555 1_555
C55 C54 1_555 1_555
H52 C55 1_555 1_555
H53 C55 1_555 1_555
C56 C55 1_555 1_555
H54 C56 1_555 1_555
H55 C56 1_555 1_555
H56 C56 1_555 1_555
S5 C9 1_555 1_555
S6 C17 1_555 1_555
C57 S5 1_555 1_555
C58 S6 1_555 1_555
C59 C8 1_555 1_555
C60 C18 1_555 1_555
H57 C59 1_555 1_555
H58 C60 1_555 1_555
H59 C57 1_555 1_555
H60 C58 1_555 1_555
C9 C10 1_555 1_555
C12 C13 1_555 1_555
C15 C16 1_555 1_555
C18 C19 1_555 1_555
C21 C22 1_555 1_555
C23 C24 1_555 1_555
C25 C29 1_555 1_555
C26 C30 1_555 1_555
C27 C31 1_555 1_555
C28 C32 1_555 1_555
C57 C59 1_555 1_555
C58 C60 1_555 1_555

#END
