
#######################################################################
#
#                 Cambridge Crystallographic Data Centre
#                                CCDC 
#
#######################################################################
#
# If this CIF has been generated from an entry in the Cambridge 
# Structural Database, then it will include bibliographic, chemical, 
# crystal, experimental, refinement or atomic coordinate data resulting 
# from the CCDC's data processing and validation procedures.
#
#######################################################################

data_KEPVAD
_chemical_formula_moiety         'C18 H20 O2 S2'
_chemical_name_systematic        
2,5-Dioxa-13,16-dithiatricyclo[16.4.0.0^6,11^]docosa-1(18),6,8,10,19,21-hexaene
_symmetry_cell_setting           orthorhombic
_symmetry_space_group_name_H-M   'P 21 21 21'
_symmetry_Int_Tables_number      19
_space_group_name_Hall           'P 2ac 2ab'
loop_
_symmetry_equiv_pos_site_id
_symmetry_equiv_pos_as_xyz
1 x,y,z
2 1/2-x,-y,1/2+z
3 -x,1/2+y,1/2-z
4 1/2+x,1/2-y,-z
_cell_length_a                   8.7160(8)
_cell_length_b                   11.6729(11)
_cell_length_c                   16.7701(15)
_cell_angle_alpha                90
_cell_angle_beta                 90
_cell_angle_gamma                90
_cell_volume                     1706.21
_exptl_crystal_colour            'pale yellow'
_exptl_crystal_description       plate
_chemical_melting_point          128-130deg.C
_cell_formula_units_Z            4
_exptl_crystal_recrystallization_method dichloromethane
loop_
_atom_site_label
_atom_site_type_symbol
_atom_site_fract_x
_atom_site_fract_y
_atom_site_fract_z
S1 S 0.35951(13) 0.91967(7) 0.74268(5)
S2 S 0.19799(13) 0.62017(8) 0.60880(5)
O1 O 0.2425(3) 0.7226(2) 0.91642(13)
O2 O 0.1451(3) 0.52965(19) 0.83329(12)
C1 C 0.1423(4) 0.6400(3) 0.95119(18)
H1 H 0.0364 0.6591 0.9395
H2 H 0.1556 0.6385 1.0086
C2 C 0.2394(4) 0.8333(3) 0.94479(17)
C3 C 0.1441(4) 0.8697(3) 1.00627(17)
H3 H 0.0747 0.8194 1.0297
C4 C 0.1544(5) 0.9829(4) 1.0322(2)
H4 H 0.0915 1.0077 1.0736
C5 C 0.2544(5) 1.0576(3) 0.9983(2)
H5 H 0.2610 1.1326 1.0168
C6 C 0.3462(5) 1.0213(3) 0.93608(19)
H6 H 0.4142 1.0727 0.9127
C7 C 0.3392(4) 0.9097(3) 0.90781(17)
C8 C 0.4370(4) 0.8743(3) 0.83783(18)
H7 H 0.4471 0.7916 0.8378
H8 H 0.5388 0.9067 0.8442
C9 C 0.2300(4) 0.8051(3) 0.71323(19)
H9 H 0.1726 0.7800 0.7596
H10 H 0.1573 0.8347 0.6746
C10 C 0.3129(4) 0.7027(3) 0.6772(2)
H11 H 0.3469 0.6530 0.7201
H12 H 0.4036 0.7298 0.6494
C11 C 0.0637(4) 0.5457(3) 0.67308(19)
H13 H 0.0328 0.5971 0.7156
H14 H -0.0273 0.5270 0.6424
C12 C 0.1255(4) 0.4374(3) 0.70962(19)
C13 C 0.1409(4) 0.3391(3) 0.6644(2)
H15 H 0.1140 0.3414 0.6107
C14 C 0.1947(4) 0.2375(3) 0.6961(2)
H16 H 0.2032 0.1724 0.6644
C15 C 0.2354(4) 0.2344(3) 0.7749(2)
H17 H 0.2730 0.1667 0.7967
C16 C 0.2215(4) 0.3294(3) 0.8222(2)
H18 H 0.2494 0.3260 0.8757
C17 C 0.1656(4) 0.4308(3) 0.79014(19)
C18 C 0.1820(4) 0.5262(3) 0.91620(18)
H19 H 0.2904 0.5106 0.9233
H20 H 0.1240 0.4662 0.9424
loop_
_geom_bond_atom_site_label_1
_geom_bond_atom_site_label_2
_geom_bond_site_symmetry_1
_geom_bond_site_symmetry_2
S1 C8 1_555 1_555
S2 C10 1_555 1_555
O1 C1 1_555 1_555
O2 C17 1_555 1_555
C1 H1 1_555 1_555
H2 C1 1_555 1_555
C2 O1 1_555 1_555
C3 C2 1_555 1_555
H3 C3 1_555 1_555
C4 C3 1_555 1_555
H4 C4 1_555 1_555
C5 C4 1_555 1_555
H5 C5 1_555 1_555
C6 C5 1_555 1_555
H6 C6 1_555 1_555
C7 C2 1_555 1_555
C8 C7 1_555 1_555
H7 C8 1_555 1_555
H8 C8 1_555 1_555
C9 S1 1_555 1_555
H9 C9 1_555 1_555
H10 C9 1_555 1_555
C10 C9 1_555 1_555
H11 C10 1_555 1_555
H12 C10 1_555 1_555
C11 S2 1_555 1_555
H13 C11 1_555 1_555
H14 C11 1_555 1_555
C12 C11 1_555 1_555
C13 C12 1_555 1_555
H15 C13 1_555 1_555
C14 C13 1_555 1_555
H16 C14 1_555 1_555
C15 C14 1_555 1_555
H17 C15 1_555 1_555
C16 C15 1_555 1_555
H18 C16 1_555 1_555
C17 C12 1_555 1_555
C18 O2 1_555 1_555
H19 C18 1_555 1_555
H20 C18 1_555 1_555
C1 C18 1_555 1_555
C6 C7 1_555 1_555
C16 C17 1_555 1_555

#END
