
#######################################################################
#
#                 Cambridge Crystallographic Data Centre
#                                CCDC 
#
#######################################################################
#
# If this CIF has been generated from an entry in the Cambridge 
# Structural Database, then it will include bibliographic, chemical, 
# crystal, experimental, refinement or atomic coordinate data resulting 
# from the CCDC's data processing and validation procedures.
#
#######################################################################

data_KEPWIO
_chemical_formula_moiety         'C22 H23 N3 O5,H2 O1'
_chemical_name_systematic        
'5-(3-ethoxy-3-oxo-1-phenyl-2-(pyridin-1-ium-1-yl)propyl)-1,3-dimethyl-2,4,6-trioxohexahydropyrimidin-5-ide monohydrate'
_symmetry_cell_setting           triclinic
_symmetry_space_group_name_H-M   'P -1'
_symmetry_Int_Tables_number      2
_space_group_name_Hall           '-P 1'
loop_
_symmetry_equiv_pos_site_id
_symmetry_equiv_pos_as_xyz
1 x,y,z
2 -x,-y,-z
_cell_length_a                   7.95400(18)
_cell_length_b                   8.88990(16)
_cell_length_c                   16.208(3)
_cell_angle_alpha                92.4320(2)
_cell_angle_beta                 98.6710(2)
_cell_angle_gamma                110.7130(2)
_cell_volume                     1054.04
_exptl_crystal_colour            colorless
_exptl_crystal_description       block
_cell_formula_units_Z            2
loop_
_atom_site_label
_atom_site_type_symbol
_atom_site_fract_x
_atom_site_fract_y
_atom_site_fract_z
C1 C 0.7415(3) 0.4387(2) 0.49811(10)
C2 C 0.7113(3) 0.6903(2) 0.46001(13)
H1 H 0.6793 0.6929 0.5147
H2 H 0.6253 0.7157 0.4203
H3 H 0.8317 0.7683 0.4613
C3 C 0.7543(3) 0.1842(3) 0.54088(13)
H4 H 0.8567 0.2485 0.5827
H5 H 0.7783 0.0944 0.5175
H6 H 0.6472 0.1449 0.5661
C4 C 0.6839(2) 0.21562(19) 0.38981(9)
C5 C 0.6708(2) 0.47452(18) 0.34887(9)
C6 C 0.6627(2) 0.31659(17) 0.32727(9)
C7 C 0.6248(2) 0.24646(17) 0.23666(9)
H7 H 0.5981 0.1303 0.2380
C8 C 0.7820(2) 0.30771(18) 0.18756(9)
C9 C 0.7961(2) 0.2041(2) 0.12462(12)
H8 H 0.7105 0.0993 0.1137
C10 C 0.9340(3) 0.2527(3) 0.07796(13)
H9 H 0.9403 0.1810 0.0361
C11 C 1.0615(3) 0.4065(3) 0.09340(13)
H10 H 1.1526 0.4405 0.0610
C12 C 1.0544(3) 0.5110(2) 0.15715(15)
H11 H 1.1428 0.6146 0.1687
C13 C 0.9149(3) 0.4613(2) 0.20413(12)
H12 H 0.9111 0.5321 0.2471
C14 C 0.4469(2) 0.26213(18) 0.18882(9)
H13 H 0.4630 0.3769 0.1924
C15 C 0.2189(2) 0.2620(2) 0.27409(10)
H14 H 0.2658 0.3742 0.2767
C16 C 0.0758(2) 0.1865(2) 0.31392(11)
H15 H 0.0252 0.2472 0.3430
C17 C 0.0075(3) 0.0205(3) 0.31060(12)
H16 H -0.0917 -0.0322 0.3360
C18 C 0.0882(3) -0.0669(2) 0.26905(12)
H17 H 0.0455 -0.1790 0.2676
C19 C 0.2313(2) 0.0121(2) 0.22995(11)
H18 H 0.2867 -0.0465 0.2025
C20 C 0.4028(2) 0.19708(19) 0.09603(10)
C21 C 0.4522(3) 0.2740(3) -0.03981(11)
H19 H 0.4746 0.1742 -0.0466
H20 H 0.5462 0.3579 -0.0612
C22 C 0.2714(4) 0.2529(3) -0.08859(13)
H21 H 0.1793 0.1639 -0.0706
H22 H 0.2710 0.2314 -0.1472
H23 H 0.2464 0.3498 -0.0796
N1 N 0.7248(2) 0.28374(18) 0.47397(8)
N2 N 0.7074(2) 0.52905(17) 0.43519(8)
N3 N 0.29211(17) 0.17513(15) 0.23127(8)
O1 O 0.7817(3) 0.49324(19) 0.57225(8)
O2 O 0.67072(19) 0.07225(14) 0.37701(8)
O3 O 0.64784(19) 0.57062(14) 0.29775(7)
O4 O 0.3306(2) 0.05744(15) 0.06935(8)
O5 O 0.46297(18) 0.31837(14) 0.04997(7)
O6 O 0.4879(3) 0.8049(2) 0.25492(13)
H24 H 0.521(4) 0.728(4) 0.267(2)
H25 H 0.535(4) 0.880(4) 0.294(2)
loop_
_geom_bond_atom_site_label_1
_geom_bond_atom_site_label_2
_geom_bond_site_symmetry_1
_geom_bond_site_symmetry_2
C1 N1 1_555 1_555
C2 H1 1_555 1_555
H2 C2 1_555 1_555
H3 C2 1_555 1_555
C3 H4 1_555 1_555
H5 C3 1_555 1_555
H6 C3 1_555 1_555
C4 C6 1_555 1_555
C5 C6 1_555 1_555
C6 C7 1_555 1_555
C7 H7 1_555 1_555
C8 C7 1_555 1_555
C9 C8 1_555 1_555
H8 C9 1_555 1_555
C10 C9 1_555 1_555
H9 C10 1_555 1_555
C11 C10 1_555 1_555
H10 C11 1_555 1_555
C12 C11 1_555 1_555
H11 C12 1_555 1_555
C13 C8 1_555 1_555
H12 C13 1_555 1_555
C14 C7 1_555 1_555
H13 C14 1_555 1_555
C15 H14 1_555 1_555
C16 C15 1_555 1_555
H15 C16 1_555 1_555
C17 C16 1_555 1_555
H16 C17 1_555 1_555
C18 C17 1_555 1_555
H17 C18 1_555 1_555
C19 C18 1_555 1_555
H18 C19 1_555 1_555
C20 C14 1_555 1_555
C21 H19 1_555 1_555
H20 C21 1_555 1_555
C22 C21 1_555 1_555
H21 C22 1_555 1_555
H22 C22 1_555 1_555
H23 C22 1_555 1_555
N1 C3 1_555 1_555
N2 C1 1_555 1_555
N3 C14 1_555 1_555
O1 C1 1_555 1_555
O2 C4 1_555 1_555
O3 C5 1_555 1_555
O4 C20 1_555 1_555
O5 C20 1_555 1_555
O6 H24 1_555 1_555
H25 O6 1_555 1_555
C2 N2 1_555 1_555
C4 N1 1_555 1_555
C5 N2 1_555 1_555
C12 C13 1_555 1_555
C15 N3 1_555 1_555
C19 N3 1_555 1_555
C21 O5 1_555 1_555

#END
