
#######################################################################
#
#                 Cambridge Crystallographic Data Centre
#                                CCDC 
#
#######################################################################
#
# If this CIF has been generated from an entry in the Cambridge 
# Structural Database, then it will include bibliographic, chemical, 
# crystal, experimental, refinement or atomic coordinate data resulting 
# from the CCDC's data processing and validation procedures.
#
#######################################################################

data_KEPXUB
_chemical_formula_moiety         'C24 H19 N3 O2'
_chemical_name_systematic        
3',5'-diphenyl-1-(prop-2-en-1-yl)-3'H-spiro[indole-3,2'-[1,3,4]oxadiazol]-2(1H)-one
_symmetry_cell_setting           monoclinic
_symmetry_space_group_name_H-M   'P 21/n'
_symmetry_Int_Tables_number      14
_space_group_name_Hall           '-P 2yn'
loop_
_symmetry_equiv_pos_site_id
_symmetry_equiv_pos_as_xyz
1 x,y,z
2 1/2-x,1/2+y,1/2-z
3 -x,-y,-z
4 1/2+x,1/2-y,1/2+z
_cell_length_a                   11.6473(4)
_cell_length_b                   9.4192(3)
_cell_length_c                   18.4114(6)
_cell_angle_alpha                90
_cell_angle_beta                 105.5593(9)
_cell_angle_gamma                90
_cell_volume                     1945.86
_exptl_crystal_colour            yellow
_exptl_crystal_description       block
_cell_formula_units_Z            4
loop_
_atom_site_label
_atom_site_type_symbol
_atom_site_fract_x
_atom_site_fract_y
_atom_site_fract_z
C1 C 0.32801(11) 0.62968(13) 0.63308(7)
C2 C 0.34820(11) 0.62675(14) 0.71487(7)
C3 C 0.39516(13) 0.74288(15) 0.75927(8)
H1 H 0.4150 0.8267 0.7366
C4 C 0.41314(14) 0.73645(17) 0.83692(8)
H2 H 0.4457 0.8158 0.8673
C5 C 0.38386(13) 0.61524(18) 0.87000(8)
H3 H 0.3956 0.6114 0.9231
C6 C 0.33736(13) 0.49923(18) 0.82576(8)
H4 H 0.3176 0.4157 0.8487
C7 C 0.31950(13) 0.50392(17) 0.74852(8)
H5 H 0.2878 0.4238 0.7184
C8 C 0.19947(11) 0.52241(13) 0.45299(7)
C9 C 0.11053(12) 0.43144(14) 0.46195(8)
H6 H 0.1055 0.4074 0.5111
C10 C 0.02903(13) 0.37557(15) 0.39938(8)
H7 H -0.0318 0.3137 0.4060
C11 C 0.03540(14) 0.40884(17) 0.32767(8)
H8 H -0.0207 0.3704 0.2849
C12 C 0.12420(15) 0.49869(19) 0.31884(8)
H9 H 0.1291 0.5218 0.2695
C13 C 0.20632(13) 0.55576(17) 0.38064(8)
H10 H 0.2671 0.6174 0.3737
C14 C 0.32620(11) 0.72520(13) 0.52086(7)
C15 C 0.22397(11) 0.83546(14) 0.49088(7)
C16 C 0.19108(13) 1.04536(15) 0.40546(8)
H11 H 0.2409 1.1321 0.4150
H12 H 0.1224 1.0608 0.4267
C17 C 0.14609(14) 1.0235(2) 0.32254(9)
H13 H 0.1093 0.9343 0.3076
C18 C 0.1497(2) 1.1054(3) 0.26956(15)
H14 H 0.1852 1.1965 0.2802
H15 H 0.1168 1.0763 0.2188
C19 C 0.37535(11) 0.88796(14) 0.43776(7)
C20 C 0.44265(12) 0.95571(15) 0.39680(8)
H16 H 0.4149 1.0393 0.3687
C21 C 0.55277(13) 0.89650(16) 0.39836(8)
H17 H 0.6009 0.9405 0.3706
C22 C 0.59378(13) 0.77496(16) 0.43941(9)
H18 H 0.6687 0.7358 0.4387
C23 C 0.52589(12) 0.70982(15) 0.48167(8)
H19 H 0.5543 0.6274 0.5107
C24 C 0.41683(11) 0.76730(14) 0.48054(7)
N1 N 0.27683(10) 0.53392(12) 0.58725(6)
N2 N 0.28635(10) 0.57642(11) 0.51596(6)
N3 N 0.26109(10) 0.92590(12) 0.44425(6)
O1 O 0.37005(8) 0.74404(9) 0.60129(5)
O2 O 0.13101(8) 0.83932(11) 0.50852(5)
C25? C 0.1569(5) 0.9268(8) 0.2812(4)
loop_
_geom_bond_atom_site_label_1
_geom_bond_atom_site_label_2
_geom_bond_site_symmetry_1
_geom_bond_site_symmetry_2
C1 C2 1_555 1_555
C2 C3 1_555 1_555
C3 H1 1_555 1_555
C4 C3 1_555 1_555
H2 C4 1_555 1_555
C5 C4 1_555 1_555
H3 C5 1_555 1_555
C6 C5 1_555 1_555
H4 C6 1_555 1_555
C7 C2 1_555 1_555
H5 C7 1_555 1_555
C8 C9 1_555 1_555
C9 H6 1_555 1_555
C10 C9 1_555 1_555
H7 C10 1_555 1_555
C11 C10 1_555 1_555
H8 C11 1_555 1_555
C12 C11 1_555 1_555
H9 C12 1_555 1_555
C13 C8 1_555 1_555
H10 C13 1_555 1_555
C14 C15 1_555 1_555
C15 N3 1_555 1_555
C16 H11 1_555 1_555
H12 C16 1_555 1_555
C17 C16 1_555 1_555
H13 C17 1_555 1_555
C18 C17 1_555 1_555
H14 C18 1_555 1_555
H15 C18 1_555 1_555
C19 C20 1_555 1_555
C20 H16 1_555 1_555
C21 C20 1_555 1_555
H17 C21 1_555 1_555
C22 C21 1_555 1_555
H18 C22 1_555 1_555
C23 C22 1_555 1_555
H19 C23 1_555 1_555
C24 C14 1_555 1_555
N1 C1 1_555 1_555
N2 C8 1_555 1_555
N3 C16 1_555 1_555
O1 C1 1_555 1_555
O2 C15 1_555 1_555
C6 C7 1_555 1_555
C12 C13 1_555 1_555
C14 N2 1_555 1_555
C14 O1 1_555 1_555
C19 C24 1_555 1_555
C19 N3 1_555 1_555
C23 C24 1_555 1_555
N1 N2 1_555 1_555

#END
