
#######################################################################
#
#                 Cambridge Crystallographic Data Centre
#                                CCDC 
#
#######################################################################
#
# If this CIF has been generated from an entry in the Cambridge 
# Structural Database, then it will include bibliographic, chemical, 
# crystal, experimental, refinement or atomic coordinate data resulting 
# from the CCDC's data processing and validation procedures.
#
#######################################################################

data_KEPYUB
_chemical_formula_moiety         'C21 H34 O3 Si1,H2 O1'
_chemical_name_systematic        
'1-(3-[dimethyl(phenyl)silyl]-3a,4-dimethyloctahydro-1-benzofuran-2-yl)-2-methoxyethanol monohydrate'
_symmetry_cell_setting           orthorhombic
_symmetry_space_group_name_H-M   'P 21 21 21'
_symmetry_Int_Tables_number      19
_space_group_name_Hall           'P 2ac 2ab'
loop_
_symmetry_equiv_pos_site_id
_symmetry_equiv_pos_as_xyz
1 x,y,z
2 1/2+x,1/2-y,-z
3 -x,1/2+y,1/2-z
4 1/2-x,-y,1/2+z
_cell_length_a                   7.2946(3)
_cell_length_b                   13.3574(5)
_cell_length_c                   22.0331(9)
_cell_angle_alpha                90
_cell_angle_beta                 90
_cell_angle_gamma                90
_cell_volume                     2146.84
_exptl_crystal_colour            colorless
_exptl_crystal_description       plate
_cell_formula_units_Z            4
loop_
_atom_site_label
_atom_site_type_symbol
_atom_site_fract_x
_atom_site_fract_y
_atom_site_fract_z
Si1 Si -0.03181(8) 1.05700(4) 0.18346(3)
O1 O 0.2822(2) 0.71992(12) 0.17444(9)
O2 O -0.0878(2) 0.78583(12) 0.07252(9)
H1 H -0.0288 0.7716 0.0409
O3 O 0.2545(2) 0.89208(12) 0.05959(8)
C1 C -0.3874(3) 0.84347(16) 0.30438(13)
H2 H -0.4615 0.8024 0.3296
C2 C -0.4509(3) 0.87420(17) 0.24888(13)
H3 H -0.5688 0.8537 0.2355
C3 C -0.3439(3) 0.93503(18) 0.21226(12)
H4 H -0.3896 0.9555 0.1738
C4 C -0.1700(3) 0.96685(15) 0.23075(12)
C5 C 0.0236(3) 0.99265(16) 0.10902(11)
H5 H -0.0965 0.9697 0.0922
C6 C 0.1443(3) 0.89716(17) 0.11457(12)
H6 H 0.2278 0.9048 0.1503
C7 C 0.0359(3) 0.79961(16) 0.12141(11)
H7 H -0.0366 0.8033 0.1599
C8 C 0.1605(3) 0.70858(17) 0.12480(12)
H8 H 0.0860 0.6473 0.1302
H9 H 0.2310 0.7020 0.0866
C9 C 0.4260(3) 0.64855(19) 0.17312(14)
H10 H 0.3740 0.5809 0.1730
H11 H 0.5037 0.6570 0.2091
H12 H 0.4998 0.6584 0.1364
C10 C -0.2148(3) 0.87257(17) 0.32342(13)
H13 H -0.1696 0.8507 0.3616
C11 C -0.1084(3) 0.93321(17) 0.28718(12)
H14 H 0.0099 0.9526 0.3009
C12 C 0.1722(3) 1.09376(18) 0.23005(12)
H15 H 0.2368 1.1490 0.2101
H16 H 0.2550 1.0363 0.2340
H17 H 0.1315 1.1151 0.2704
C13 C 0.1764(3) 0.96156(15) 0.01732(12)
H18 H 0.0617 0.9307 0.0009
C14 C 0.2973(3) 0.98633(18) -0.03589(13)
H19 H 0.3267 0.9250 -0.0592
H20 H 0.4134 1.0170 -0.0218
C15 C 0.1894(4) 1.06048(19) -0.07552(13)
H21 H 0.2694 1.0844 -0.1088
H22 H 0.0840 1.0252 -0.0941
C16 C 0.1186(4) 1.15095(18) -0.03959(12)
H23 H 0.0408 1.1921 -0.0667
H24 H 0.2247 1.1925 -0.0273
C17 C 0.0067(3) 1.12410(16) 0.01782(12)
H25 H -0.0084 1.1870 0.0420
C18 C -0.1852(3) 1.08719(19) 0.00105(12)
H26 H -0.1756 1.0235 -0.0208
H27 H -0.2455 1.1369 -0.0249
H28 H -0.2575 1.0776 0.0381
C19 C 0.1201(3) 1.05064(17) 0.05670(11)
C20 C 0.2903(3) 1.10530(18) 0.08201(13)
H29 H 0.3602 1.0595 0.1079
H30 H 0.2511 1.1634 0.1059
H31 H 0.3676 1.1277 0.0483
C21 C -0.1788(3) 1.16956(17) 0.16887(12)
H32 H -0.2145 1.1998 0.2076
H33 H -0.2889 1.1493 0.1466
H34 H -0.1099 1.2184 0.1448
O4 O 0.5528(3) 0.77026(16) 0.03482(10)
H35 H 0.658(3) 0.784(2) 0.0494(13)
H36 H 0.492(4) 0.8248(17) 0.0424(14)
loop_
_geom_bond_atom_site_label_1
_geom_bond_atom_site_label_2
_geom_bond_site_symmetry_1
_geom_bond_site_symmetry_2
Si1 C4 1_555 1_555
O1 C8 1_555 1_555
O2 H1 1_555 1_555
O3 C6 1_555 1_555
C1 H2 1_555 1_555
C2 C1 1_555 1_555
H3 C2 1_555 1_555
C3 C2 1_555 1_555
H4 C3 1_555 1_555
C4 C3 1_555 1_555
C5 Si1 1_555 1_555
H5 C5 1_555 1_555
C6 C5 1_555 1_555
H6 C6 1_555 1_555
C7 O2 1_555 1_555
H7 C7 1_555 1_555
C8 C7 1_555 1_555
H8 C8 1_555 1_555
H9 C8 1_555 1_555
C9 O1 1_555 1_555
H10 C9 1_555 1_555
H11 C9 1_555 1_555
H12 C9 1_555 1_555
C10 C1 1_555 1_555
H13 C10 1_555 1_555
C11 C4 1_555 1_555
H14 C11 1_555 1_555
C12 Si1 1_555 1_555
H15 C12 1_555 1_555
H16 C12 1_555 1_555
H17 C12 1_555 1_555
C13 O3 1_555 1_555
H18 C13 1_555 1_555
C14 C13 1_555 1_555
H19 C14 1_555 1_555
H20 C14 1_555 1_555
C15 C14 1_555 1_555
H21 C15 1_555 1_555
H22 C15 1_555 1_555
C16 C15 1_555 1_555
H23 C16 1_555 1_555
H24 C16 1_555 1_555
C17 C16 1_555 1_555
H25 C17 1_555 1_555
C18 C17 1_555 1_555
H26 C18 1_555 1_555
H27 C18 1_555 1_555
H28 C18 1_555 1_555
C19 C5 1_555 1_555
C20 C19 1_555 1_555
H29 C20 1_555 1_555
H30 C20 1_555 1_555
H31 C20 1_555 1_555
C21 Si1 1_555 1_555
H32 C21 1_555 1_555
H33 C21 1_555 1_555
H34 C21 1_555 1_555
O4 H35 1_555 1_555
H36 O4 1_555 1_555
C6 C7 1_555 1_555
C10 C11 1_555 1_555
C13 C19 1_555 1_555
C17 C19 1_555 1_555

#END
