
#######################################################################
#
#                 Cambridge Crystallographic Data Centre
#                                CCDC 
#
#######################################################################
#
# If this CIF has been generated from an entry in the Cambridge 
# Structural Database, then it will include bibliographic, chemical, 
# crystal, experimental, refinement or atomic coordinate data resulting 
# from the CCDC's data processing and validation procedures.
#
#######################################################################

data_KEQDIV01
_chemical_formula_moiety         'C17 H12 O2'
_chemical_name_systematic        4,6-diphenyl-2H-pyran-2-one
_symmetry_cell_setting           triclinic
_symmetry_space_group_name_H-M   'P -1'
_symmetry_Int_Tables_number      2
_space_group_name_Hall           '-P 1'
loop_
_symmetry_equiv_pos_site_id
_symmetry_equiv_pos_as_xyz
1 x,y,z
2 -x,-y,-z
_cell_length_a                   7.1649(11)
_cell_length_b                   7.1976(11)
_cell_length_c                   25.276(4)
_cell_angle_alpha                92.384(3)
_cell_angle_beta                 92.571(3)
_cell_angle_gamma                90.050(3)
_cell_volume                     1301.04
_exptl_crystal_colour            colorless
_exptl_crystal_description       block
_cell_formula_units_Z            4
loop_
_atom_site_label
_atom_site_type_symbol
_atom_site_fract_x
_atom_site_fract_y
_atom_site_fract_z
O1 O 0.2312(4) 0.8993(4) 0.04639(12)
C1 C 0.2688(4) 0.8871(4) -0.04607(12)
H1 H 0.2811 0.8189 -0.0778
C2 C 0.2310(5) 1.0868(4) 0.04700(14)
C3 C 0.2906(5) 1.1571(5) -0.09897(14)
C4 C 0.2097(5) 1.1852(5) 0.09888(14)
C5 C 0.2497(5) 1.1752(5) 0.00006(14)
H2 H 0.2490 1.3044 0.0001
C6 C 0.2695(5) 1.0736(5) -0.04718(14)
O2 O 0.2499(6) 0.6245(4) -0.00011(14)
C7 C 0.1335(5) 1.3626(5) 0.10193(15)
H3 H 0.0976 1.4214 0.0710
C8 C 0.3670(5) 1.3327(5) -0.10243(16)
H4 H 0.4042 1.4005 -0.0716
C9 C 0.2506(6) 0.7905(5) -0.00003(15)
C10 C 0.2637(6) 1.1019(6) 0.14570(16)
H5 H 0.3158 0.9835 0.1445
C11 C 0.1642(8) 1.3673(7) 0.19630(18)
H6 H 0.1486 1.4278 0.2290
C12 C 0.1108(6) 1.4517(6) 0.15058(17)
H7 H 0.0589 1.5701 0.1523
C13 C 0.2351(6) 1.0604(6) -0.14577(17)
H8 H 0.1841 0.9420 -0.1444
C14 C 0.2548(8) 1.1378(8) -0.19406(18)
H9 H 0.2140 1.0727 -0.2250
C15 C 0.2408(7) 1.1926(8) 0.19359(19)
H10 H 0.2775 1.1353 0.2247
C16 C 0.3883(6) 1.4074(6) -0.15078(18)
H11 H 0.4402 1.5254 -0.1525
C17 C 0.3340(7) 1.3099(8) -0.19682(18)
H12 H 0.3509 1.3605 -0.2295
C18 C 0.1043(4) 0.2669(5) 0.45416(13)
H13 H 0.1628 0.2771 0.4223
C19 C -0.1719(5) 0.2515(5) 0.50031(15)
H14 H -0.3017 0.2524 0.5003
O3 O 0.1195(4) 0.2314(5) 0.54629(14)
C20 C -0.0691(4) 0.2321(5) 0.54752(15)
C21 C -0.1524(5) 0.2117(5) 0.59918(15)
C22 C -0.0846(5) 0.2696(5) 0.45334(15)
C23 C -0.1828(5) 0.2880(5) 0.40152(15)
C24 C -0.3617(6) 0.3610(6) 0.39768(18)
H15 H -0.4209 0.3976 0.4284
O4 O 0.3803(4) 0.2488(7) 0.49972(16)
C25 C 0.2142(5) 0.2499(7) 0.49967(18)
C26 C -0.3310(6) 0.1403(6) 0.60222(17)
H16 H -0.3997 0.1064 0.5712
C27 C -0.0981(8) 0.2376(6) 0.3543(2)
H17 H 0.0223 0.1894 0.3557
C28 C -0.0540(7) 0.2619(6) 0.64619(19)
H18 H 0.0661 0.3105 0.6452
C29 C -0.1886(13) 0.2577(9) 0.3062(2)
H19 H -0.1297 0.2245 0.2752
C30 C -0.1322(12) 0.2406(9) 0.6938(2)
H20 H -0.0639 0.2739 0.7249
C31 C -0.3693(13) 0.3282(10) 0.3039(3)
H21 H -0.4322 0.3394 0.2712
C32 C -0.4540(8) 0.3803(8) 0.3486(2)
H22 H -0.5741 0.4292 0.3467
C33 C -0.3076(12) 0.1716(9) 0.6967(2)
H23 H -0.3596 0.1602 0.7295
C34 C -0.4086(9) 0.1186(7) 0.6507(2)
H24 H -0.5279 0.0687 0.6524
loop_
_geom_bond_atom_site_label_1
_geom_bond_atom_site_label_2
_geom_bond_site_symmetry_1
_geom_bond_site_symmetry_2
O1 C2 1_555 1_555
C1 H1 1_555 1_555
C2 C4 1_555 1_555
C3 C6 1_555 1_555
C4 C7 1_555 1_555
C5 C2 1_555 1_555
H2 C5 1_555 1_555
C6 C1 1_555 1_555
O2 C9 1_555 1_555
C7 H3 1_555 1_555
C8 C3 1_555 1_555
H4 C8 1_555 1_555
C9 O1 1_555 1_555
C10 C4 1_555 1_555
H5 C10 1_555 1_555
C11 H6 1_555 1_555
C12 C7 1_555 1_555
H7 C12 1_555 1_555
C13 C3 1_555 1_555
H8 C13 1_555 1_555
C14 C13 1_555 1_555
H9 C14 1_555 1_555
C15 C10 1_555 1_555
H10 C15 1_555 1_555
C16 C8 1_555 1_555
H11 C16 1_555 1_555
C17 C14 1_555 1_555
H12 C17 1_555 1_555
C18 H13 1_555 1_555
C19 H14 1_555 1_555
O3 C20 1_555 1_555
C20 C19 1_555 1_555
C21 C20 1_555 1_555
C22 C18 1_555 1_555
C23 C22 1_555 1_555
C24 C23 1_555 1_555
H15 C24 1_555 1_555
O4 C25 1_555 1_555
C25 C18 1_555 1_555
C26 C21 1_555 1_555
H16 C26 1_555 1_555
C27 C23 1_555 1_555
H17 C27 1_555 1_555
C28 C21 1_555 1_555
H18 C28 1_555 1_555
C29 C27 1_555 1_555
H19 C29 1_555 1_555
C30 C28 1_555 1_555
H20 C30 1_555 1_555
C31 C29 1_555 1_555
H21 C31 1_555 1_555
C32 C24 1_555 1_555
H22 C32 1_555 1_555
C33 C30 1_555 1_555
H23 C33 1_555 1_555
C34 C26 1_555 1_555
H24 C34 1_555 1_555
C1 C9 1_555 1_555
C5 C6 1_555 1_555
C11 C12 1_555 1_555
C11 C15 1_555 1_555
C16 C17 1_555 1_555
C19 C22 1_555 1_555
O3 C25 1_555 1_555
C31 C32 1_555 1_555
C33 C34 1_555 1_555

#END
