
#######################################################################
#
#                 Cambridge Crystallographic Data Centre
#                                CCDC 
#
#######################################################################
#
# If this CIF has been generated from an entry in the Cambridge 
# Structural Database, then it will include bibliographic, chemical, 
# crystal, experimental, refinement or atomic coordinate data resulting 
# from the CCDC's data processing and validation procedures.
#
#######################################################################

data_KEQHOE
_chemical_formula_moiety         'C20 H14 Cl2 N2'
_chemical_name_systematic        
1-(2-Chlorobenzyl)-2-(2-chlorophenyl)-1H-benzimidazole
_symmetry_cell_setting           triclinic
_symmetry_space_group_name_H-M   'P -1'
_symmetry_Int_Tables_number      2
_space_group_name_Hall           '-P 1'
loop_
_symmetry_equiv_pos_site_id
_symmetry_equiv_pos_as_xyz
1 x,y,z
2 -x,-y,-z
_cell_length_a                   9.1302(18)
_cell_length_b                   9.6848(19)
_cell_length_c                   10.862(2)
_cell_angle_alpha                90.29(3)
_cell_angle_beta                 98.89(3)
_cell_angle_gamma                115.61(3)
_cell_volume                     852.912
_exptl_crystal_colour            yellow
_exptl_crystal_description       block
_cell_formula_units_Z            2
_exptl_crystal_recrystallization_method ethanol
loop_
_atom_site_label
_atom_site_type_symbol
_atom_site_fract_x
_atom_site_fract_y
_atom_site_fract_z
Cl1 Cl 0.51604(14) 0.27061(14) -0.05707(9)
Cl2 Cl 0.96229(12) 0.89486(10) 0.13136(8)
N1 N 1.1616(3) 0.7020(3) 0.3727(2)
N2 N 0.9470(3) 0.5543(3) 0.2255(2)
C1 C 1.1968(4) 0.5930(3) 0.3161(3)
C2 C 1.3384(4) 0.5681(4) 0.3391(4)
H1 H 1.4287 0.6298 0.3990
C3 C 1.3390(5) 0.4496(5) 0.2701(4)
H2 H 1.4315 0.4306 0.2836
C4 C 1.2035(6) 0.3566(5) 0.1798(4)
H3 H 1.2086 0.2774 0.1347
C5 C 1.0639(5) 0.3782(4) 0.1557(3)
H4 H 0.9738 0.3153 0.0962
C6 C 1.0635(4) 0.4991(3) 0.2247(3)
C7 C 1.0128(4) 0.6742(3) 0.3157(3)
C8 C 0.7843(4) 0.4891(3) 0.1461(3)
H5 H 0.7967 0.4746 0.0606
H6 H 0.7373 0.5616 0.1481
C9 C 0.6661(3) 0.3370(3) 0.1857(3)
C10 C 0.6766(4) 0.3009(4) 0.3089(3)
H7 H 0.7625 0.3691 0.3689
C11 C 0.5623(4) 0.1661(4) 0.3445(3)
H8 H 0.5705 0.1451 0.4281
C12 C 0.4365(5) 0.0624(4) 0.2572(4)
H9 H 0.3599 -0.0289 0.2814
C13 C 0.4241(5) 0.0943(4) 0.1340(4)
H10 H 0.3399 0.0240 0.0743
C14 C 0.5376(4) 0.2314(4) 0.0991(3)
C15 C 0.9223(3) 0.7595(3) 0.3494(3)
C16 C 0.8705(4) 0.7430(4) 0.4643(3)
H11 H 0.8876 0.6736 0.5165
C17 C 0.7945(5) 0.8272(4) 0.5025(3)
H12 H 0.7611 0.8148 0.5800
C18 C 0.7682(4) 0.9291(4) 0.4262(4)
H13 H 0.7171 0.9860 0.4524
C19 C 0.8166(4) 0.9483(4) 0.3111(3)
H14 H 0.7976 1.0170 0.2591
C20 C 0.8934(4) 0.8643(3) 0.2743(3)
loop_
_geom_bond_atom_site_label_1
_geom_bond_atom_site_label_2
_geom_bond_site_symmetry_1
_geom_bond_site_symmetry_2
Cl1 C14 1_555 1_555
Cl2 C20 1_555 1_555
N1 C1 1_555 1_555
N2 C6 1_555 1_555
C1 C2 1_555 1_555
C2 H1 1_555 1_555
C3 C2 1_555 1_555
H2 C3 1_555 1_555
C4 C3 1_555 1_555
H3 C4 1_555 1_555
C5 C4 1_555 1_555
H4 C5 1_555 1_555
C6 C1 1_555 1_555
C7 N1 1_555 1_555
C8 N2 1_555 1_555
H5 C8 1_555 1_555
H6 C8 1_555 1_555
C9 C8 1_555 1_555
C10 C9 1_555 1_555
H7 C10 1_555 1_555
C11 C10 1_555 1_555
H8 C11 1_555 1_555
C12 C11 1_555 1_555
H9 C12 1_555 1_555
C13 C12 1_555 1_555
H10 C13 1_555 1_555
C14 C9 1_555 1_555
C15 C7 1_555 1_555
C16 C15 1_555 1_555
H11 C16 1_555 1_555
C17 C16 1_555 1_555
H12 C17 1_555 1_555
C18 C17 1_555 1_555
H13 C18 1_555 1_555
C19 C18 1_555 1_555
H14 C19 1_555 1_555
C20 C15 1_555 1_555
N2 C7 1_555 1_555
C5 C6 1_555 1_555
C13 C14 1_555 1_555
C19 C20 1_555 1_555

#END
