
#######################################################################
#
#                 Cambridge Crystallographic Data Centre
#                                CCDC 
#
#######################################################################
#
# If this CIF has been generated from an entry in the Cambridge 
# Structural Database, then it will include bibliographic, chemical, 
# crystal, experimental, refinement or atomic coordinate data resulting 
# from the CCDC's data processing and validation procedures.
#
#######################################################################

data_KEQHIY
_chemical_name_common            7-Cinnamoyloxy-4-methylcoumarin
_chemical_formula_moiety         'C19 H14 O4'
_chemical_name_systematic        
4-Methyl-7-(3-phenylpropenoyl)oxy-2H-1-benzopyran-2-one
_symmetry_cell_setting           triclinic
_symmetry_space_group_name_H-M   'P -1'
_symmetry_Int_Tables_number      2
_space_group_name_Hall           '-P 1'
loop_
_symmetry_equiv_pos_site_id
_symmetry_equiv_pos_as_xyz
1 x,y,z
2 -x,-y,-z
_cell_length_a                   7.349(2)
_cell_length_b                   10.420(3)
_cell_length_c                   10.658(3)
_cell_angle_alpha                79.076(5)
_cell_angle_beta                 71.784(4)
_cell_angle_gamma                78.503(5)
_cell_volume                     752.569
_exptl_crystal_colour            colorless
_exptl_crystal_description       prismatic
_chemical_melting_point          '426-427 K'
_cell_formula_units_Z            2
_exptl_crystal_recrystallization_method ethanol
loop_
_atom_site_label
_atom_site_type_symbol
_atom_site_fract_x
_atom_site_fract_y
_atom_site_fract_z
O1 O 0.7992(2) 0.68816(14) 0.87147(13)
O2 O 0.7838(2) 0.87764(17) 0.93992(15)
O3 O 0.7739(2) 0.30059(16) 0.70837(14)
O4 O 1.0804(3) 0.3232(2) 0.59534(19)
C1 C 0.7757(3) 0.7607(2) 0.9730(2)
C2 C 0.7451(3) 0.6902(2) 1.1056(2)
H1 H 0.7364 0.7361 1.1745
C3 C 0.7284(3) 0.5616(2) 1.13488(19)
C4 C 0.7448(3) 0.4894(2) 1.02753(19)
C5 C 0.7269(3) 0.3552(2) 1.0444(2)
H2 H 0.7037 0.3072 1.1293
C6 C 0.7431(3) 0.2935(2) 0.9374(2)
H3 H 0.7317 0.2044 0.9497
C7 C 0.7763(3) 0.3649(2) 0.8122(2)
C8 C 0.7944(3) 0.4964(2) 0.7894(2)
H4 H 0.8159 0.5435 0.7041
C9 C 0.7794(3) 0.5561(2) 0.8980(2)
C10 C 0.6921(4) 0.4925(2) 1.2752(2)
H5 H 0.6942 0.5524 1.3328
H6 H 0.7912 0.4176 1.2793
H7 H 0.5679 0.4633 1.3034
C11 C 0.9325(4) 0.2857(2) 0.6034(2)
C12 C 0.9008(3) 0.2214(2) 0.5035(2)
H8 H 1.0077 0.1973 0.4333
C13 C 0.7319(3) 0.1948(2) 0.5053(2)
H9 H 0.6275 0.2158 0.5782
C14 C 0.6913(3) 0.13575(19) 0.40477(18)
C15 C 0.5005(3) 0.1471(2) 0.4027(2)
H10 H 0.4015 0.1899 0.4663
C16 C 0.4562(3) 0.0959(2) 0.3072(2)
H11 H 0.3283 0.1061 0.3056
C17 C 0.6009(4) 0.0300(2) 0.2144(2)
H12 H 0.5709 -0.0057 0.1509
C18 C 0.7902(4) 0.0168(2) 0.2157(2)
H13 H 0.8880 -0.0282 0.1531
C19 C 0.8354(3) 0.0695(2) 0.3092(2)
H14 H 0.9641 0.0610 0.3085
loop_
_geom_bond_atom_site_label_1
_geom_bond_atom_site_label_2
_geom_bond_site_symmetry_1
_geom_bond_site_symmetry_2
O1 C1 1_555 1_555
O2 C1 1_555 1_555
O3 C7 1_555 1_555
O4 C11 1_555 1_555
C1 C2 1_555 1_555
C2 H1 1_555 1_555
C3 C2 1_555 1_555
C4 C3 1_555 1_555
C5 C4 1_555 1_555
H2 C5 1_555 1_555
C6 C5 1_555 1_555
H3 C6 1_555 1_555
C7 C6 1_555 1_555
C8 C7 1_555 1_555
H4 C8 1_555 1_555
C9 O1 1_555 1_555
C10 C3 1_555 1_555
H5 C10 1_555 1_555
H6 C10 1_555 1_555
H7 C10 1_555 1_555
C11 O3 1_555 1_555
C12 C11 1_555 1_555
H8 C12 1_555 1_555
C13 C12 1_555 1_555
H9 C13 1_555 1_555
C14 C13 1_555 1_555
C15 C14 1_555 1_555
H10 C15 1_555 1_555
C16 C15 1_555 1_555
H11 C16 1_555 1_555
C17 C16 1_555 1_555
H12 C17 1_555 1_555
C18 C17 1_555 1_555
H13 C18 1_555 1_555
C19 C14 1_555 1_555
H14 C19 1_555 1_555
C4 C9 1_555 1_555
C8 C9 1_555 1_555
C18 C19 1_555 1_555

#END
