
#######################################################################
#
#                 Cambridge Crystallographic Data Centre
#                                CCDC 
#
#######################################################################
#
# If this CIF has been generated from an entry in the Cambridge 
# Structural Database, then it will include bibliographic, chemical, 
# crystal, experimental, refinement or atomic coordinate data resulting 
# from the CCDC's data processing and validation procedures.
#
#######################################################################

data_KEQHAR
_chemical_formula_moiety         'C13 H18 Br1 N1 O2'
_chemical_name_systematic        
10-cyano-3-(1'-bromoethyl)-2,9-dioxabicyclo[6.3.0]undec-4-ene
_symmetry_cell_setting           orthorhombic
_symmetry_space_group_name_H-M   'P 21 21 21'
_symmetry_Int_Tables_number      19
_space_group_name_Hall           'P 2ac 2ab'
loop_
_symmetry_equiv_pos_site_id
_symmetry_equiv_pos_as_xyz
1 x,y,z
2 1/2+x,1/2-y,-z
3 -x,1/2+y,1/2-z
4 1/2-x,-y,1/2+z
_cell_length_a                   5.1753(9)
_cell_length_b                   8.4468(11)
_cell_length_c                   30.485(5)
_cell_angle_alpha                90
_cell_angle_beta                 90
_cell_angle_gamma                90
_cell_volume                     1332.64
_exptl_crystal_colour            colorless
_exptl_crystal_description       chunk
_cell_formula_units_Z            4
loop_
_atom_site_label
_atom_site_type_symbol
_atom_site_fract_x
_atom_site_fract_y
_atom_site_fract_z
Br1 Br 0.77955(9) 0.59884(5) 0.426735(14)
O1 O 0.2998(6) 0.9420(3) 0.37278(7)
O2 O 0.0799(7) 1.2577(4) 0.35747(9)
N1 N 0.0637(12) 1.4174(6) 0.25675(14)
C1 C 0.3903(8) 1.1209(5) 0.31436(11)
C2 C 0.3055(10) 1.2298(4) 0.38360(11)
C3 C 0.4093(8) 0.8300(5) 0.40294(11)
C4 C 0.6871(9) 0.7856(4) 0.39081(11)
C5 C 0.1228(9) 1.1943(5) 0.31471(11)
C6 C 0.4349(8) 1.0854(4) 0.36290(11)
C7 C 0.4578(11) 1.1674(6) 0.45858(13)
C8 C 0.3692(9) 0.8781(5) 0.45127(11)
C9 C 0.5199(10) 1.0201(6) 0.46640(13)
C10 C 0.7358(10) 0.7480(5) 0.34274(11)
C11 C 0.2290(10) 1.2150(5) 0.43100(11)
C12 C 0.0885(11) 1.3214(6) 0.28213(14)
C13 C 0.5588(11) 0.6282(6) 0.32204(16)
H1 H 0.5183 1.1944 0.3031
H2 H 0.3940 1.0248 0.2969
H3 H 0.4217 1.3207 0.3806
H4 H 0.3086 0.7327 0.3991
H5 H 0.8003 0.8734 0.3993
H6 H -0.0052 1.1112 0.3091
H7 H 0.6189 1.0787 0.3702
H8 H 0.551(9) 1.255(5) 0.4689(13)
H9 H 0.1869 0.8991 0.4558
H10 H 0.4154 0.7888 0.4697
H11 H 0.672(8) 0.997(5) 0.4811(11)
H12 H 0.7228 0.8458 0.3262
H13 H 0.9120 0.7102 0.3398
H14 H 0.0936 1.1363 0.4339
H15 H 0.1617 1.3155 0.4413
H16 H 0.5668 0.5309 0.3383
H17 H 0.6119 0.6094 0.2923
H18 H 0.3849 0.6677 0.3223
loop_
_geom_bond_atom_site_label_1
_geom_bond_atom_site_label_2
_geom_bond_site_symmetry_1
_geom_bond_site_symmetry_2
Br1 C4 1_555 1_555
O1 C3 1_555 1_555
O2 C2 1_555 1_555
N1 C12 1_555 1_555
C1 C5 1_555 1_555
C2 C6 1_555 1_555
C3 C4 1_555 1_555
C4 C10 1_555 1_555
C5 O2 1_555 1_555
C6 O1 1_555 1_555
C7 C9 1_555 1_555
C8 C3 1_555 1_555
C9 C8 1_555 1_555
C10 C13 1_555 1_555
C11 C2 1_555 1_555
C12 C5 1_555 1_555
C13 H16 1_555 1_555
H1 C1 1_555 1_555
H2 C1 1_555 1_555
H3 C2 1_555 1_555
H4 C3 1_555 1_555
H5 C4 1_555 1_555
H6 C5 1_555 1_555
H7 C6 1_555 1_555
H8 C7 1_555 1_555
H9 C8 1_555 1_555
H10 C8 1_555 1_555
H11 C9 1_555 1_555
H12 C10 1_555 1_555
H13 C10 1_555 1_555
H14 C11 1_555 1_555
H15 C11 1_555 1_555
H17 C13 1_555 1_555
H18 C13 1_555 1_555
C1 C6 1_555 1_555
C7 C11 1_555 1_555

#END
