
#######################################################################
#
#                 Cambridge Crystallographic Data Centre
#                                CCDC 
#
#######################################################################
#
# If this CIF has been generated from an entry in the Cambridge 
# Structural Database, then it will include bibliographic, chemical, 
# crystal, experimental, refinement or atomic coordinate data resulting 
# from the CCDC's data processing and validation procedures.
#
#######################################################################

data_KEQHUM
_chemical_formula_moiety         'C26 H37 B1 Br1 N2 1+,B1 Br4 1-,C7 H8'
_chemical_name_systematic        
'2-bromo-1,3-bis[2,6-bis(propan-2-yl)phenyl]-1,3,2-diazaborol-3-ium tetrabromoborate toluene solvate'
_symmetry_cell_setting           monoclinic
_symmetry_space_group_name_H-M   'P 21/c'
_symmetry_Int_Tables_number      14
_space_group_name_Hall           '-P 2ybc'
loop_
_symmetry_equiv_pos_site_id
_symmetry_equiv_pos_as_xyz
1 x,y,z
2 -x,1/2+y,1/2-z
3 -x,-y,-z
4 x,1/2-y,1/2+z
_cell_length_a                   12.317(2)
_cell_length_b                   22.811(5)
_cell_length_c                   14.606(3)
_cell_angle_alpha                90
_cell_angle_beta                 109.718(6)
_cell_angle_gamma                90
_cell_volume                     3863.12
_exptl_crystal_colour            yellow
_exptl_crystal_description       plate
_cell_formula_units_Z            4
loop_
_atom_site_label
_atom_site_type_symbol
_atom_site_fract_x
_atom_site_fract_y
_atom_site_fract_z
B2 B 0.3399(4) 0.43916(19) 0.6009(3)
Br2 Br 0.48406(3) 0.41283(2) 0.57540(3)
Br3 Br 0.35675(4) 0.42254(2) 0.73992(3)
Br4 Br 0.31817(4) 0.52607(2) 0.57583(3)
Br5 Br 0.20592(3) 0.39512(2) 0.51031(3)
B1 B 0.7935(3) 0.55720(17) 0.8244(3)
Br1 Br 0.90597(4) 0.57038(2) 0.94702(3)
N1 N 0.7012(2) 0.59366(12) 0.77333(19)
N2 N 0.7883(2) 0.50634(12) 0.7608(2)
C1 C 0.6408(3) 0.56919(15) 0.6808(3)
H1 H 0.5569(17) 0.567(2) 0.657(4)
H2 H 0.636(5) 0.5956(19) 0.625(3)
C2 C 0.7018(3) 0.51452(15) 0.6762(3)
H3 H 0.692(4) 0.4860(15) 0.627(2)
C3 C 0.8618(3) 0.45437(15) 0.7818(2)
C4 C 0.9667(3) 0.45748(16) 0.7654(3)
C5 C 1.0370(4) 0.40768(19) 0.7894(3)
H4 H 1.1091 0.4076 0.7790
C6 C 1.0029(4) 0.35909(19) 0.8276(3)
H5 H 1.0525 0.3260 0.8445
C7 C 0.8976(4) 0.35736(17) 0.8421(3)
H6 H 0.8757 0.3230 0.8682
C8 C 0.8232(3) 0.40508(15) 0.8191(3)
C9 C 0.7088(3) 0.40345(16) 0.8371(3)
H7 H 0.6552 0.4311 0.7901
C10 C 0.6528(4) 0.34306(18) 0.8202(4)
H8 H 0.5796 0.3445 0.8328
H9 H 0.6384 0.3311 0.7527
H10 H 0.7044 0.3147 0.8642
C11 C 0.7231(5) 0.4250(2) 0.9400(4)
H11 H 0.7591 0.4639 0.9500
H12 H 0.6472 0.4274 0.9478
H13 H 0.7720 0.3975 0.9878
C12 C 1.0055(3) 0.51086(18) 0.7237(3)
H14 H 0.9448 0.5417 0.7127
C13 C 1.1183(4) 0.5354(2) 0.7937(4)
H15 H 1.1087 0.5446 0.8561
H16 H 1.1796 0.5062 0.8038
H17 H 1.1389 0.5711 0.7661
C14 C 1.0187(4) 0.4961(2) 0.6252(3)
H18 H 1.0439 0.5311 0.5990
H19 H 1.0762 0.4650 0.6342
H20 H 0.9445 0.4828 0.5796
C15 C 0.6640(3) 0.64835(15) 0.8038(2)
C16 C 0.7043(4) 0.70120(16) 0.7774(3)
C17 C 0.6675(4) 0.75270(17) 0.8078(3)
H21 H 0.6920 0.7892 0.7904
C18 C 0.5966(4) 0.75198(18) 0.8624(3)
H22 H 0.5731 0.7879 0.8830
C19 C 0.5589(4) 0.69963(18) 0.8880(3)
H23 H 0.5096 0.7000 0.9259
C20 C 0.5918(3) 0.64605(16) 0.8592(3)
C21 C 0.5510(4) 0.58927(17) 0.8901(3)
H24 H 0.5806 0.5563 0.8601
C22 C 0.6017(4) 0.5823(2) 1.0017(3)
H25 H 0.6860 0.5850 1.0228
H26 H 0.5718 0.6134 1.0328
H27 H 0.5796 0.5440 1.0203
C23 C 0.4203(4) 0.5853(2) 0.8547(3)
H28 H 0.3971 0.5480 0.8760
H29 H 0.3890 0.6179 0.8818
H30 H 0.3904 0.5874 0.7835
C24 C 0.7903(5) 0.70286(19) 0.7219(4)
H31 H 0.7994 0.6621 0.7005
C25 C 0.9092(5) 0.7244(3) 0.7884(5)
H32 H 0.9628 0.7252 0.7518
H33 H 0.9017 0.7640 0.8118
H34 H 0.9387 0.6979 0.8441
C26 C 0.7435(5) 0.7413(2) 0.6311(3)
H35 H 0.7990 0.7420 0.5964
H36 H 0.6700 0.7252 0.5885
H37 H 0.7314 0.7813 0.6504
loop_
_geom_bond_atom_site_label_1
_geom_bond_atom_site_label_2
_geom_bond_site_symmetry_1
_geom_bond_site_symmetry_2
B1 Br1 1_555 1_555
N1 B1 1_555 1_555
N2 B1 1_555 1_555
C1 N1 1_555 1_555
H1 C1 1_555 1_555
H2 C1 1_555 1_555
C2 N2 1_555 1_555
H3 C2 1_555 1_555
C3 N2 1_555 1_555
C4 C3 1_555 1_555
C5 C4 1_555 1_555
H4 C5 1_555 1_555
C6 C5 1_555 1_555
H5 C6 1_555 1_555
C7 C6 1_555 1_555
H6 C7 1_555 1_555
C8 C3 1_555 1_555
C9 C8 1_555 1_555
H7 C9 1_555 1_555
C10 C9 1_555 1_555
H8 C10 1_555 1_555
H9 C10 1_555 1_555
H10 C10 1_555 1_555
C11 C9 1_555 1_555
H11 C11 1_555 1_555
H12 C11 1_555 1_555
H13 C11 1_555 1_555
C12 C4 1_555 1_555
H14 C12 1_555 1_555
C13 C12 1_555 1_555
H15 C13 1_555 1_555
H16 C13 1_555 1_555
H17 C13 1_555 1_555
C14 C12 1_555 1_555
H18 C14 1_555 1_555
H19 C14 1_555 1_555
H20 C14 1_555 1_555
C15 N1 1_555 1_555
C16 C15 1_555 1_555
C17 C16 1_555 1_555
H21 C17 1_555 1_555
C18 C17 1_555 1_555
H22 C18 1_555 1_555
C19 C18 1_555 1_555
H23 C19 1_555 1_555
C20 C15 1_555 1_555
C21 C20 1_555 1_555
H24 C21 1_555 1_555
C22 C21 1_555 1_555
H25 C22 1_555 1_555
H26 C22 1_555 1_555
H27 C22 1_555 1_555
C23 C21 1_555 1_555
H28 C23 1_555 1_555
H29 C23 1_555 1_555
H30 C23 1_555 1_555
C24 C16 1_555 1_555
H31 C24 1_555 1_555
C25 C24 1_555 1_555
H32 C25 1_555 1_555
H33 C25 1_555 1_555
H34 C25 1_555 1_555
C26 C24 1_555 1_555
H35 C26 1_555 1_555
H36 C26 1_555 1_555
H37 C26 1_555 1_555
B2 Br2 1_555 1_555
Br3 B2 1_555 1_555
Br4 B2 1_555 1_555
Br5 B2 1_555 1_555
C1 C2 1_555 1_555
C7 C8 1_555 1_555
C19 C20 1_555 1_555

#END
