
#######################################################################
#
#                 Cambridge Crystallographic Data Centre
#                                CCDC 
#
#######################################################################
#
# If this CIF has been generated from an entry in the Cambridge 
# Structural Database, then it will include bibliographic, chemical, 
# crystal, experimental, refinement or atomic coordinate data resulting 
# from the CCDC's data processing and validation procedures.
#
#######################################################################

data_KEQJAS
_chemical_formula_moiety         'C11 H15 N1 O1 S1'
_chemical_name_systematic        'O-Isobutyl N-phenylthiocarbamate'
_symmetry_cell_setting           monoclinic
_symmetry_space_group_name_H-M   'C 2/c'
_symmetry_Int_Tables_number      15
_space_group_name_Hall           '-C 2yn'
loop_
_symmetry_equiv_pos_site_id
_symmetry_equiv_pos_as_xyz
1 x,y,z
2 1/2+x,1/2+y,z
3 -x,y,1/2-z
4 1/2-x,1/2+y,1/2-z
5 -x,-y,-z
6 1/2-x,1/2-y,-z
7 x,-y,1/2+z
8 1/2+x,1/2-y,1/2+z
_cell_length_a                   27.129(5)
_cell_length_b                   6.0663(12)
_cell_length_c                   15.613(3)
_cell_angle_alpha                90
_cell_angle_beta                 118.07(3)
_cell_angle_gamma                90
_cell_volume                     2267.23
_exptl_crystal_colour            colorless
_exptl_crystal_description       block
_cell_formula_units_Z            8
_exptl_crystal_recrystallization_method ethanol
loop_
_atom_site_label
_atom_site_type_symbol
_atom_site_fract_x
_atom_site_fract_y
_atom_site_fract_z
S1 S 0.23603(2) 0.65523(9) 0.32720(4)
O1 O 0.33407(5) 0.8624(2) 0.41747(10)
N1 N 0.33122(6) 0.5773(3) 0.32686(11)
H1 H 0.3114 0.4761 0.2869
C1 C 0.40729(8) 0.3885(3) 0.32440(15)
H2 H 0.3836 0.2677 0.3000
C2 C 0.46099(9) 0.3746(4) 0.33734(18)
H3 H 0.4731 0.2459 0.3207
C3 C 0.49667(9) 0.5495(4) 0.37462(17)
H4 H 0.5331 0.5402 0.3840
C4 C 0.47816(9) 0.7381(4) 0.39796(17)
H5 H 0.5024 0.8568 0.4238
C5 C 0.42405(9) 0.7559(4) 0.38399(16)
H6 H 0.4119 0.8862 0.3994
C6 C 0.38815(7) 0.5784(3) 0.34697(13)
C7 C 0.30296(7) 0.7042(3) 0.35855(13)
C8 C 0.31012(8) 1.0165(4) 0.45887(15)
H7 H 0.2902 0.9377 0.4873
H8 H 0.2841 1.1149 0.4091
C9 C 0.35813(8) 1.1456(3) 0.53590(14)
H9 H 0.3788 1.2158 0.5059
C10 C 0.39780(9) 0.9966(4) 0.61695(16)
H10 H 0.4124 0.8865 0.5908
H11 H 0.3781 0.9262 0.6469
H12 H 0.4280 1.0826 0.6644
C11 C 0.33457(11) 1.3259(4) 0.57460(17)
H13 H 0.3100 1.4190 0.5220
H14 H 0.3647 1.4125 0.6219
H15 H 0.3142 1.2597 0.6042
loop_
_geom_bond_atom_site_label_1
_geom_bond_atom_site_label_2
_geom_bond_site_symmetry_1
_geom_bond_site_symmetry_2
S1 C7 1_555 1_555
O1 C7 1_555 1_555
N1 H1 1_555 1_555
C1 H2 1_555 1_555
C2 C1 1_555 1_555
H3 C2 1_555 1_555
C3 C2 1_555 1_555
H4 C3 1_555 1_555
C4 C3 1_555 1_555
H5 C4 1_555 1_555
C5 C4 1_555 1_555
H6 C5 1_555 1_555
C6 N1 1_555 1_555
C7 N1 1_555 1_555
C8 O1 1_555 1_555
H7 C8 1_555 1_555
H8 C8 1_555 1_555
C9 C8 1_555 1_555
H9 C9 1_555 1_555
C10 C9 1_555 1_555
H10 C10 1_555 1_555
H11 C10 1_555 1_555
H12 C10 1_555 1_555
C11 C9 1_555 1_555
H13 C11 1_555 1_555
H14 C11 1_555 1_555
H15 C11 1_555 1_555
C1 C6 1_555 1_555
C5 C6 1_555 1_555

#END
