
#######################################################################
#
#                 Cambridge Crystallographic Data Centre
#                                CCDC 
#
#######################################################################
#
# If this CIF has been generated from an entry in the Cambridge 
# Structural Database, then it will include bibliographic, chemical, 
# crystal, experimental, refinement or atomic coordinate data resulting 
# from the CCDC's data processing and validation procedures.
#
#######################################################################

data_KEQKUN01
_chemical_formula_moiety         'C35 H24'
_chemical_name_systematic        
2',7'-bis(Naphthalen-1-yl)spiro(cyclopropane-1,9'-fluorene)
_symmetry_cell_setting           orthorhombic
_symmetry_space_group_name_H-M   'P c a 21'
_symmetry_Int_Tables_number      29
_space_group_name_Hall           'P 2c -2ac'
loop_
_symmetry_equiv_pos_site_id
_symmetry_equiv_pos_as_xyz
1 x,y,z
2 -x,-y,1/2+z
3 1/2-x,y,1/2+z
4 1/2+x,-y,z
_cell_length_a                   17.355(4)
_cell_length_b                   18.225(4)
_cell_length_c                   7.4532(18)
_cell_angle_alpha                90
_cell_angle_beta                 90
_cell_angle_gamma                90
_cell_volume                     2357.41
_exptl_crystal_colour            colorless
_exptl_crystal_description       block
_chemical_melting_point          '194.3 deg.C'
_cell_formula_units_Z            4
_exptl_crystal_recrystallization_method dichloromethane/hexane
loop_
_atom_site_label
_atom_site_type_symbol
_atom_site_fract_x
_atom_site_fract_y
_atom_site_fract_z
C1 C 0.62454(6) 0.44895(6) 0.1875(2)
C2 C 0.58007(6) 0.41678(6) 0.3230(2)
C3 C 0.57818(6) 0.33753(6) 0.2922(2)
C4 C 0.54350(8) 0.28126(8) 0.3877(2)
C5 C 0.55384(8) 0.20934(8) 0.3297(2)
C6 C 0.59815(8) 0.19228(8) 0.1799(2)
C7 C 0.63169(8) 0.25009(8) 0.0833(2)
C8 C 0.62206(6) 0.32157(6) 0.13903(19)
C9 C 0.65211(6) 0.39127(6) 0.0626(2)
C10 C 0.65786(9) 0.40431(9) -0.1378(2)
C11 C 0.72910(8) 0.39603(8) -0.0316(2)
C12 C 0.63770(6) 0.52374(6) 0.1869(2)
C13 C 0.60703(6) 0.56793(6) 0.3219(2)
C14 C 0.56166(8) 0.53512(8) 0.4541(2)
C15 C 0.54774(8) 0.46004(8) 0.4551(2)
C16 C 0.61904(8) 0.64879(6) 0.3193(2)
C17 C 0.55663(8) 0.69432(9) 0.3327(2)
C18 C 0.56388(10) 0.77087(9) 0.3174(2)
C19 C 0.63382(11) 0.80094(9) 0.2875(2)
C20 C 0.70106(9) 0.75701(8) 0.2805(2)
C21 C 0.77522(11) 0.78813(10) 0.2573(2)
C22 C 0.83897(11) 0.74605(11) 0.2614(2)
C23 C 0.83315(9) 0.67072(10) 0.2877(2)
C24 C 0.76289(8) 0.63897(8) 0.3043(2)
C25 C 0.69398(8) 0.68032(8) 0.2983(2)
C26 C 0.60718(8) 0.11457(8) 0.1219(2)
C27 C 0.54353(10) 0.07348(9) 0.0860(2)
C28 C 0.54846(11) 0.00059(9) 0.0283(3)
C29 C 0.61772(12) -0.03036(10) 0.0044(2)
C30 C 0.68594(11) 0.00847(9) 0.0397(2)
C31 C 0.75953(12) -0.02278(10) 0.0164(2)
C32 C 0.82435(12) 0.01418(12) 0.0543(2)
C33 C 0.82062(10) 0.08571(11) 0.1203(2)
C34 C 0.75063(9) 0.11918(8) 0.1438(2)
C35 C 0.68122(9) 0.08223(9) 0.1015(2)
H1 H 0.5143 0.2920 0.4890
H2 H 0.5307 0.1716 0.3942
H3 H 0.6608 0.2400 -0.0185
H4 H 0.6424 0.3662 -0.2214
H5 H 0.6440 0.4519 -0.1862
H6 H 0.7621 0.4381 -0.0104
H7 H 0.7605 0.3524 -0.0456
H8 H 0.6680 0.5447 0.0978
H9 H 0.5399 0.5649 0.5419
H10 H 0.5183 0.4388 0.5454
H11 H 0.5083 0.6737 0.3523
H12 H 0.5206 0.8005 0.3290
H13 H 0.6378 0.8514 0.2719
H14 H 0.7802 0.8381 0.2355
H15 H 0.8872 0.7678 0.2495
H16 H 0.8775 0.6422 0.2915
H17 H 0.7594 0.5885 0.3203
H18 H 0.4954 0.0940 0.1079
H19 H 0.5045 -0.0264 0.0014
H20 H 0.6210 -0.0779 -0.0404
H21 H 0.7639 -0.0700 -0.0299
H22 H 0.8721 -0.0079 0.0371
H23 H 0.8660 0.1099 0.1504
H24 H 0.7488 0.1668 0.1883
loop_
_geom_bond_atom_site_label_1
_geom_bond_atom_site_label_2
_geom_bond_site_symmetry_1
_geom_bond_site_symmetry_2
C1 C2 1_555 1_555
C2 C3 1_555 1_555
C3 C4 1_555 1_555
C4 C5 1_555 1_555
C5 C6 1_555 1_555
C6 C7 1_555 1_555
C7 C8 1_555 1_555
C8 C3 1_555 1_555
C9 C1 1_555 1_555
C10 C9 1_555 1_555
C11 C9 1_555 1_555
C12 C1 1_555 1_555
C13 C12 1_555 1_555
C14 C13 1_555 1_555
C15 C2 1_555 1_555
C16 C13 1_555 1_555
C17 C16 1_555 1_555
C18 C17 1_555 1_555
C19 C18 1_555 1_555
C20 C19 1_555 1_555
C21 C20 1_555 1_555
C22 C21 1_555 1_555
C23 C22 1_555 1_555
C24 C23 1_555 1_555
C25 C16 1_555 1_555
C26 C6 1_555 1_555
C27 C26 1_555 1_555
C28 C27 1_555 1_555
C29 C28 1_555 1_555
C30 C29 1_555 1_555
C31 C30 1_555 1_555
C32 C31 1_555 1_555
C33 C32 1_555 1_555
C34 C33 1_555 1_555
C35 C26 1_555 1_555
H1 C4 1_555 1_555
H2 C5 1_555 1_555
H3 C7 1_555 1_555
H4 C10 1_555 1_555
H5 C10 1_555 1_555
H6 C11 1_555 1_555
H7 C11 1_555 1_555
H8 C12 1_555 1_555
H9 C14 1_555 1_555
H10 C15 1_555 1_555
H11 C17 1_555 1_555
H12 C18 1_555 1_555
H13 C19 1_555 1_555
H14 C21 1_555 1_555
H15 C22 1_555 1_555
H16 C23 1_555 1_555
H17 C24 1_555 1_555
H18 C27 1_555 1_555
H19 C28 1_555 1_555
H20 C29 1_555 1_555
H21 C31 1_555 1_555
H22 C32 1_555 1_555
H23 C33 1_555 1_555
H24 C34 1_555 1_555
C8 C9 1_555 1_555
C10 C11 1_555 1_555
C14 C15 1_555 1_555
C20 C25 1_555 1_555
C24 C25 1_555 1_555
C30 C35 1_555 1_555
C34 C35 1_555 1_555

#END
