
#######################################################################
#
#                 Cambridge Crystallographic Data Centre
#                                CCDC 
#
#######################################################################
#
# If this CIF has been generated from an entry in the Cambridge 
# Structural Database, then it will include bibliographic, chemical, 
# crystal, experimental, refinement or atomic coordinate data resulting 
# from the CCDC's data processing and validation procedures.
#
#######################################################################

data_KEQNOJ
_chemical_formula_moiety         'C23 H28 N2 O6'
_chemical_name_systematic        
3,6-Anhydro-2-deoxy-2-(2,2-diphenylhydrazino)-5,7,8-tri-O-methyl-D-erythro-L-gulo-octono-1,4-lactone
_symmetry_cell_setting           monoclinic
_symmetry_space_group_name_H-M   'P 21'
_symmetry_Int_Tables_number      4
_space_group_name_Hall           'P 2yb'
loop_
_symmetry_equiv_pos_site_id
_symmetry_equiv_pos_as_xyz
1 x,y,z
2 -x,1/2+y,-z
_cell_length_a                   9.2836(5)
_cell_length_b                   8.5947(4)
_cell_length_c                   13.8264(6)
_cell_angle_alpha                90
_cell_angle_beta                 91.089(5)
_cell_angle_gamma                90
_cell_volume                     1103.01
_exptl_crystal_colour            colorless
_exptl_crystal_description       prism
_chemical_melting_point          '141-142 deg.C'
_cell_formula_units_Z            2
loop_
_atom_site_label
_atom_site_type_symbol
_atom_site_fract_x
_atom_site_fract_y
_atom_site_fract_z
O1 O 0.0988(2) 0.1003(2) 0.38413(12)
O2 O 0.1559(2) 0.4608(2) 0.40396(11)
O3 O 0.1604(2) 0.5221(2) 0.24694(13)
O4 O 0.1536(2) 0.1641(2) 0.59118(11)
O5 O 0.4382(2) 0.0169(2) 0.50707(12)
O6 O 0.3987(2) -0.0729(2) 0.30618(13)
N1 N -0.0034(2) 0.2506(2) 0.21236(13)
H1 H 0.0705(2) 0.2548(2) 0.17466(13)
N2 N -0.1307(2) 0.1650(2) 0.19094(13)
C1 C 0.2374(2) 0.1299(3) 0.4292(2)
H2 H 0.3014(2) 0.1793(3) 0.3817(2)
C2 C 0.2078(2) 0.2447(3) 0.5099(2)
H3 H 0.2941(2) 0.3071(3) 0.5272(2)
C3 C 0.0887(2) 0.3445(3) 0.4644(2)
H4 H 0.0250(2) 0.3909(3) 0.5132(2)
C4 C 0.1087(2) 0.4480(3) 0.3110(2)
C5 C -0.0110(2) 0.3299(3) 0.3042(2)
H5 H -0.1044(2) 0.3852(3) 0.3070(2)
C6 C 0.0081(2) 0.2329(3) 0.3955(2)
H6 H -0.0863(2) 0.2027(3) 0.4219(2)
C7 C 0.3029(2) -0.0231(3) 0.4622(2)
H7 H 0.2403(2) -0.0690(3) 0.5118(2)
C8 C 0.3213(3) -0.1404(3) 0.3825(2)
H8 H 0.3735(3) -0.2314(3) 0.4076(2)
H9 H 0.2266(3) -0.1750(3) 0.3585(2)
C9 C 0.1539(3) 0.2582(4) 0.6760(2)
H10 H 0.1162(3) 0.1987(4) 0.7295(2)
H11 H 0.0941(3) 0.3492(4) 0.6648(2)
H12 H 0.2517(3) 0.2908(4) 0.6915(2)
C10 C 0.4638(3) -0.0661(4) 0.5943(2)
H13 H 0.5562(3) -0.0355(4) 0.6221(2)
H14 H 0.4644(3) -0.1769(4) 0.5809(2)
H15 H 0.3882(3) -0.0428(4) 0.6395(2)
C11 C 0.4272(3) -0.1826(4) 0.2329(2)
H16 H 0.4803(3) -0.1328(4) 0.1817(2)
H17 H 0.3369(3) -0.2229(4) 0.2068(2)
H18 H 0.4839(3) -0.2674(4) 0.2599(2)
C12 C -0.1054(2) 0.0250(3) 0.1395(2)
C13 C -0.2091(3) -0.0360(3) 0.0758(2)
H19 H -0.2968(3) 0.0167(3) 0.0654(2)
C14 C -0.1827(3) -0.1746(3) 0.0277(2)
H20 H -0.2534(3) -0.2152(3) -0.0148(2)
C15 C -0.0555(3) -0.2531(3) 0.0409(2)
H21 H -0.0389(3) -0.3472(3) 0.0082(2)
C16 C 0.0477(3) -0.1919(3) 0.1029(2)
H22 H 0.1357(3) -0.2445(3) 0.1121(2)
C17 C 0.0237(3) -0.0541(3) 0.1518(2)
H23 H 0.0955(3) -0.0139(3) 0.1936(2)
C18 C -0.2604(2) 0.2511(3) 0.1736(2)
C19 C -0.3896(3) 0.1921(3) 0.2063(2)
H24 H -0.3902(3) 0.0978(3) 0.2406(2)
C20 C -0.5168(3) 0.2697(4) 0.1890(2)
H25 H -0.6041(3) 0.2260(4) 0.2092(2)
C21 C -0.5172(3) 0.4109(4) 0.1425(2)
H26 H -0.6042(3) 0.4644(4) 0.1312(2)
C22 C -0.3894(3) 0.4732(4) 0.1124(2)
H27 H -0.3889(3) 0.5707(4) 0.0817(2)
C23 C -0.2610(3) 0.3934(3) 0.1271(2)
H28 H -0.1743(3) 0.4362(3) 0.1054(2)
loop_
_geom_bond_atom_site_label_1
_geom_bond_atom_site_label_2
_geom_bond_site_symmetry_1
_geom_bond_site_symmetry_2
O1 C1 1_555 1_555
O2 C3 1_555 1_555
O3 C4 1_555 1_555
O4 C2 1_555 1_555
O5 C7 1_555 1_555
O6 C8 1_555 1_555
N1 H1 1_555 1_555
N2 N1 1_555 1_555
C1 H2 1_555 1_555
C2 C1 1_555 1_555
H3 C2 1_555 1_555
C3 C2 1_555 1_555
H4 C3 1_555 1_555
C4 O2 1_555 1_555
C5 N1 1_555 1_555
H5 C5 1_555 1_555
C6 O1 1_555 1_555
H6 C6 1_555 1_555
C7 C1 1_555 1_555
H7 C7 1_555 1_555
C8 C7 1_555 1_555
H8 C8 1_555 1_555
H9 C8 1_555 1_555
C9 O4 1_555 1_555
H10 C9 1_555 1_555
H11 C9 1_555 1_555
H12 C9 1_555 1_555
C10 O5 1_555 1_555
H13 C10 1_555 1_555
H14 C10 1_555 1_555
H15 C10 1_555 1_555
C11 O6 1_555 1_555
H16 C11 1_555 1_555
H17 C11 1_555 1_555
H18 C11 1_555 1_555
C12 N2 1_555 1_555
C13 C12 1_555 1_555
H19 C13 1_555 1_555
C14 C13 1_555 1_555
H20 C14 1_555 1_555
C15 C14 1_555 1_555
H21 C15 1_555 1_555
C16 C15 1_555 1_555
H22 C16 1_555 1_555
C17 C12 1_555 1_555
H23 C17 1_555 1_555
C18 N2 1_555 1_555
C19 C18 1_555 1_555
H24 C19 1_555 1_555
C20 C19 1_555 1_555
H25 C20 1_555 1_555
C21 C20 1_555 1_555
H26 C21 1_555 1_555
C22 C21 1_555 1_555
H27 C22 1_555 1_555
C23 C18 1_555 1_555
H28 C23 1_555 1_555
C3 C6 1_555 1_555
C4 C5 1_555 1_555
C5 C6 1_555 1_555
C16 C17 1_555 1_555
C22 C23 1_555 1_555

#END
