
#######################################################################
#
#                 Cambridge Crystallographic Data Centre
#                                CCDC 
#
#######################################################################
#
# If this CIF has been generated from an entry in the Cambridge 
# Structural Database, then it will include bibliographic, chemical, 
# crystal, experimental, refinement or atomic coordinate data resulting 
# from the CCDC's data processing and validation procedures.
#
#######################################################################

data_KEQNIE
_chemical_formula_moiety         'C12 H18 N4 O3 S1'
_chemical_name_systematic        
'7-(Piperidin-1-yl)-2-propyl-4-oxa-5-thia-1,6,7a-triazaindene 5,5-dioxide'
_symmetry_cell_setting           triclinic
_symmetry_space_group_name_H-M   'P -1'
_symmetry_Int_Tables_number      2
_space_group_name_Hall           '-P 1'
loop_
_symmetry_equiv_pos_site_id
_symmetry_equiv_pos_as_xyz
1 x,y,z
2 -x,-y,-z
_cell_length_a                   9.68340(10)
_cell_length_b                   11.9792(2)
_cell_length_c                   13.5579(2)
_cell_angle_alpha                82.8200(10)
_cell_angle_beta                 69.5710(10)
_cell_angle_gamma                68.1840(10)
_cell_volume                     1368.22
_exptl_crystal_colour            colorless
_exptl_crystal_description       prismatic
_chemical_melting_point          353-355K
_cell_formula_units_Z            4
_exptl_crystal_recrystallization_method propan-2-ol
loop_
_atom_site_label
_atom_site_type_symbol
_atom_site_fract_x
_atom_site_fract_y
_atom_site_fract_z
C1 C 0.17850(19) 0.57720(14) 0.36605(13)
C2 C 0.1986(2) 0.48629(15) 0.30769(13)
H1 H 0.1994 0.4078 0.3303
C3 C 0.2185(2) 0.53391(14) 0.20444(13)
C4 C 0.2367(2) 0.47276(15) 0.10813(14)
H2 H 0.2848 0.5139 0.0450
H3 H 0.1309 0.4819 0.1080
C5 C 0.3370(2) 0.33948(16) 0.10005(15)
H4 H 0.2935 0.2993 0.1655
H5 H 0.3293 0.3037 0.0410
C6 C 0.5076(2) 0.31467(19) 0.08303(17)
H6 H 0.5171 0.3448 0.1435
H7 H 0.5514 0.3552 0.0190
H8 H 0.5657 0.2278 0.0755
C7 C 0.17194(19) 0.78497(14) 0.33884(13)
C8 C 0.1781(2) 0.98772(14) 0.31655(13)
H9 H 0.1113 0.9937 0.3915
H10 H 0.1184 1.0508 0.2772
C9 C 0.3284(2) 1.00774(16) 0.30660(14)
H11 H 0.3844 0.9481 0.3500
H12 H 0.3019 1.0890 0.3331
C10 C 0.4350(2) 0.99546(15) 0.19238(13)
H13 H 0.5360 1.0020 0.1878
H14 H 0.3844 1.0613 0.1505
C11 C 0.4661(2) 0.87439(15) 0.14774(14)
H15 H 0.5272 0.8710 0.0718
H16 H 0.5308 0.8095 0.1830
C12 C 0.3153(2) 0.85237(15) 0.16207(13)
H17 H 0.2571 0.9098 0.1187
H18 H 0.3415 0.7699 0.1383
N1 N 0.11644(17) 0.80440(12) 0.44248(10)
N2 N 0.18862(16) 0.67496(11) 0.30195(10)
N3 N 0.21167(17) 0.64692(12) 0.19956(11)
N4 N 0.21523(16) 0.86757(12) 0.27451(10)
O1 O -0.11454(14) 0.73368(10) 0.51039(9)
O2 O 0.04558(15) 0.71855(11) 0.62010(9)
O3 O 0.15326(14) 0.58445(10) 0.47088(9)
S2 S 0.03367(5) 0.71953(4) 0.51880(3)
C13 C 0.07253(19) 0.11250(14) 0.85739(13)
C14 C 0.1051(2) 0.02139(15) 0.79455(13)
H19 H 0.0685 -0.0443 0.8117
C15 C 0.2066(2) 0.04572(14) 0.69668(13)
C16 C 0.2706(2) -0.02444(15) 0.59642(13)
H20 H 0.3594 -0.0021 0.5474
H21 H 0.1875 -0.0012 0.5634
C17 C 0.3274(2) -0.16004(15) 0.61085(14)
H22 H 0.2424 -0.1820 0.6654
H23 H 0.3498 -0.1992 0.5441
C18 C 0.4734(2) -0.20726(17) 0.64273(18)
H24 H 0.5596 -0.1892 0.5875
H25 H 0.5034 -0.2945 0.6526
H26 H 0.4522 -0.1687 0.7087
C19 C 0.13916(19) 0.29273(14) 0.84172(13)
C20 C 0.2128(2) 0.38914(15) 0.66457(13)
H27 H 0.1380 0.4663 0.6494
H28 H 0.1969 0.3230 0.6382
C21 C 0.3797(2) 0.38526(15) 0.60995(14)
H29 H 0.3992 0.3957 0.5333
H30 H 0.4542 0.3059 0.6215
C22 C 0.4078(2) 0.48402(16) 0.65205(15)
H31 H 0.3450 0.5633 0.6308
H32 H 0.5204 0.4748 0.6208
C23 C 0.3625(2) 0.47952(16) 0.77182(15)
H33 H 0.4380 0.4068 0.7924
H34 H 0.3692 0.5507 0.7973
C24 C 0.1969(2) 0.47732(15) 0.82328(14)
H35 H 0.1740 0.4673 0.9003
H36 H 0.1196 0.5543 0.8103
N5 N 0.07921(17) 0.31059(12) 0.94519(11)
N6 N 0.14981(16) 0.18861(11) 0.80067(10)
N7 N 0.23691(16) 0.14388(12) 0.69911(10)
N8 N 0.18317(17) 0.37674(12) 0.77919(10)
O4 O -0.07925(17) 0.25077(11) 1.11407(9)
O5 O 0.18914(16) 0.11424(11) 1.03030(10)
O6 O -0.02125(14) 0.13982(10) 0.95931(9)
S1 S 0.04843(6) 0.20434(4) 1.02092(3)
loop_
_geom_bond_atom_site_label_1
_geom_bond_atom_site_label_2
_geom_bond_site_symmetry_1
_geom_bond_site_symmetry_2
C1 C2 1_555 1_555
C2 H1 1_555 1_555
C3 C2 1_555 1_555
C4 C3 1_555 1_555
H2 C4 1_555 1_555
H3 C4 1_555 1_555
C5 C4 1_555 1_555
H4 C5 1_555 1_555
H5 C5 1_555 1_555
C6 C5 1_555 1_555
H6 C6 1_555 1_555
H7 C6 1_555 1_555
H8 C6 1_555 1_555
C7 N1 1_555 1_555
C8 H9 1_555 1_555
H10 C8 1_555 1_555
C9 C8 1_555 1_555
H11 C9 1_555 1_555
H12 C9 1_555 1_555
C10 C9 1_555 1_555
H13 C10 1_555 1_555
H14 C10 1_555 1_555
C11 C10 1_555 1_555
H15 C11 1_555 1_555
H16 C11 1_555 1_555
C12 C11 1_555 1_555
H17 C12 1_555 1_555
H18 C12 1_555 1_555
C13 C14 1_555 1_555
C14 H19 1_555 1_555
C15 C14 1_555 1_555
C16 C15 1_555 1_555
H20 C16 1_555 1_555
H21 C16 1_555 1_555
C17 C16 1_555 1_555
H22 C17 1_555 1_555
H23 C17 1_555 1_555
C18 C17 1_555 1_555
H24 C18 1_555 1_555
H25 C18 1_555 1_555
H26 C18 1_555 1_555
C19 N5 1_555 1_555
C20 H27 1_555 1_555
H28 C20 1_555 1_555
C21 C20 1_555 1_555
H29 C21 1_555 1_555
H30 C21 1_555 1_555
C22 C21 1_555 1_555
H31 C22 1_555 1_555
H32 C22 1_555 1_555
C23 C22 1_555 1_555
H33 C23 1_555 1_555
H34 C23 1_555 1_555
C24 C23 1_555 1_555
H35 C24 1_555 1_555
H36 C24 1_555 1_555
N1 S2 1_555 1_555
N2 C1 1_555 1_555
N3 C3 1_555 1_555
N4 C7 1_555 1_555
N5 S1 1_555 1_555
N6 C13 1_555 1_555
N7 C15 1_555 1_555
N8 C19 1_555 1_555
O1 S2 1_555 1_555
O2 S2 1_555 1_555
O3 C1 1_555 1_555
O4 S1 1_555 1_555
O5 S1 1_555 1_555
O6 C13 1_555 1_555
S1 O6 1_555 1_555
S2 O3 1_555 1_555
C7 N2 1_555 1_555
C8 N4 1_555 1_555
C12 N4 1_555 1_555
C19 N6 1_555 1_555
C20 N8 1_555 1_555
C24 N8 1_555 1_555
N2 N3 1_555 1_555
N6 N7 1_555 1_555

#END
