
#######################################################################
#
#                 Cambridge Crystallographic Data Centre
#                                CCDC 
#
#######################################################################
#
# If this CIF has been generated from an entry in the Cambridge 
# Structural Database, then it will include bibliographic, chemical, 
# crystal, experimental, refinement or atomic coordinate data resulting 
# from the CCDC's data processing and validation procedures.
#
#######################################################################

data_KEQQON
_chemical_formula_moiety         'C8 H9 Cl2 N3'
_chemical_name_systematic        N^1^-(2,4-Dichloroanilino)acetamidine
_symmetry_cell_setting           monoclinic
_symmetry_space_group_name_H-M   'C 2/c'
_symmetry_Int_Tables_number      15
_space_group_name_Hall           '-C 2yn'
loop_
_symmetry_equiv_pos_site_id
_symmetry_equiv_pos_as_xyz
1 x,y,z
2 1/2+x,1/2+y,z
3 -x,y,1/2-z
4 1/2-x,1/2+y,1/2-z
5 -x,-y,-z
6 1/2-x,1/2-y,-z
7 x,-y,1/2+z
8 1/2+x,1/2-y,1/2+z
_cell_length_a                   22.832(5)
_cell_length_b                   4.7560(10)
_cell_length_c                   20.515(4)
_cell_angle_alpha                90
_cell_angle_beta                 115.74(3)
_cell_angle_gamma                90
_cell_volume                     2006.66
_exptl_crystal_colour            colorless
_exptl_crystal_description       block
_cell_formula_units_Z            8
_exptl_crystal_recrystallization_method ethanol
_exptl_crystal_preparation       photoconductivity
loop_
_atom_site_label
_atom_site_type_symbol
_atom_site_fract_x
_atom_site_fract_y
_atom_site_fract_z
C1 C 0.1601(2) 0.1845(3) 0.5875(2)
C2 C 0.1960(2) 0.3509(5) 0.5631(2)
C3 C 0.2627(2) 0.3669(5) 0.5985(2)
H1 H 0.2859 0.4806 0.5810
C4 C 0.2944(2) 0.2097(3) 0.6607(3)
C5 C 0.2609(3) 0.0446(2) 0.6864(3)
H2 H 0.2830 -0.0606 0.7282
C6 C 0.1939(2) 0.0326(3) 0.6505(2)
H3 H 0.1711 -0.0789 0.6689
C7 C 0.0265(2) 0.2692(5) 0.6064(3)
C8 C -0.0102(2) 0.1534(4) 0.6461(3)
H4 H 0.0200 0.0747 0.6914
H5 H -0.0396 0.0098 0.6173
H6 H -0.0343 0.3019 0.6549
Cl1 Cl 0.15608(7) 0.5473(3) 0.48471(8)
Cl2 Cl 0.37887(7) 0.2259(5) 0.70705(9)
N1 N 0.09229(17) 0.1582(8) 0.5468(2)
H7 H 0.0769 0.3248 0.5254
N2 N 0.05714(17) 0.0821(7) 0.5850(2)
H8 H 0.0689 -0.0721 0.6087
N3 N 0.0282(2) 0.5174(7) 0.5932(3)
H9 H -0.0034 0.5979 0.5942
loop_
_geom_bond_atom_site_label_1
_geom_bond_atom_site_label_2
_geom_bond_site_symmetry_1
_geom_bond_site_symmetry_2
C1 C2 1_555 1_555
C2 C3 1_555 1_555
C3 H1 1_555 1_555
C4 C3 1_555 1_555
C5 C4 1_555 1_555
H2 C5 1_555 1_555
C6 C1 1_555 1_555
H3 C6 1_555 1_555
C7 C8 1_555 1_555
C8 H4 1_555 1_555
H5 C8 1_555 1_555
H6 C8 1_555 1_555
Cl1 C2 1_555 1_555
Cl2 C4 1_555 1_555
N1 C1 1_555 1_555
H7 N1 1_555 1_555
N2 C7 1_555 1_555
H8 N2 1_555 1_555
N3 C7 1_555 1_555
H9 N3 1_555 1_555
C5 C6 1_555 1_555
N1 N2 1_555 1_555

#END
