
#######################################################################
#
#                 Cambridge Crystallographic Data Centre
#                                CCDC 
#
#######################################################################
#
# If this CIF has been generated from an entry in the Cambridge 
# Structural Database, then it will include bibliographic, chemical, 
# crystal, experimental, refinement or atomic coordinate data resulting 
# from the CCDC's data processing and validation procedures.
#
#######################################################################

data_KEQREE
_chemical_formula_moiety         'C25 H21 F1 N2 O2'
_chemical_name_systematic        
5,5'-Dimethoxy-3,3'-(3-fluorophenylmethanediyl)-bis(1H-indole)
_symmetry_cell_setting           monoclinic
_symmetry_space_group_name_H-M   'P 21/n'
_symmetry_Int_Tables_number      14
_space_group_name_Hall           '-P 2yn'
loop_
_symmetry_equiv_pos_site_id
_symmetry_equiv_pos_as_xyz
1 x,y,z
2 1/2-x,1/2+y,1/2-z
3 -x,-y,-z
4 1/2+x,1/2-y,1/2+z
_cell_length_a                   9.1910(18)
_cell_length_b                   10.838(2)
_cell_length_c                   20.879(4)
_cell_angle_alpha                90
_cell_angle_beta                 94.92(3)
_cell_angle_gamma                90
_cell_volume                     2072.14
_exptl_crystal_colour            colorless
_exptl_crystal_description       block
_cell_formula_units_Z            4
_exptl_crystal_recrystallization_method methanol
loop_
_atom_site_label
_atom_site_type_symbol
_atom_site_fract_x
_atom_site_fract_y
_atom_site_fract_z
F1 F -0.2216(2) 0.0862(3) 0.33107(16)
O1 O 0.4498(2) 0.2208(2) 0.20124(10)
O2 O 0.7422(2) 0.0847(2) 0.57780(12)
N1 N 0.4262(3) 0.5380(2) 0.40433(12)
H1 H 0.4601 0.6108 0.4123
N2 N 0.1917(3) 0.2460(2) 0.61893(11)
H2 H 0.1462 0.2551 0.6529
C1 C 0.3948(5) 0.1015(4) 0.2052(2)
H3 H 0.4099 0.0573 0.1665
H4 H 0.2921 0.1053 0.2106
H5 H 0.4443 0.0599 0.2414
C2 C 0.4375(3) 0.2996(3) 0.25222(13)
C3 C 0.5018(3) 0.4153(3) 0.24584(15)
H6 H 0.5440 0.4337 0.2081
C4 C 0.5045(3) 0.5018(3) 0.29308(15)
H7 H 0.5488 0.5781 0.2884
C5 C 0.4387(3) 0.4723(3) 0.34861(13)
C6 C 0.3509(3) 0.4681(3) 0.44485(14)
H8 H 0.3288 0.4927 0.4856
C7 C 0.3129(3) 0.3581(2) 0.41749(12)
C8 C 0.3693(2) 0.3581(2) 0.35559(12)
C9 C 0.3680(3) 0.2700(3) 0.30619(12)
H9 H 0.3219 0.1942 0.3097
C10 C 0.7887(3) 0.0938(3) 0.51488(19)
H10 H 0.8857 0.0611 0.5146
H11 H 0.7885 0.1788 0.5020
H12 H 0.7235 0.0478 0.4855
C11 C 0.6038(3) 0.1279(3) 0.58668(16)
C12 C 0.5700(4) 0.1303(3) 0.65061(16)
H13 H 0.6404 0.1062 0.6828
C13 C 0.4356(4) 0.1673(3) 0.66698(14)
H14 H 0.4133 0.1669 0.7096
C14 C 0.3334(3) 0.2056(3) 0.61788(13)
C15 C 0.1347(3) 0.2696(3) 0.55757(13)
H15 H 0.0400 0.2969 0.5463
C16 C 0.2370(3) 0.2470(2) 0.51520(12)
C17 C 0.3655(3) 0.2058(2) 0.55320(12)
C18 C 0.5036(3) 0.1664(2) 0.53740(13)
H16 H 0.5271 0.1662 0.4950
C19 C 0.2215(3) 0.2562(2) 0.44287(12)
H17 H 0.2582 0.1785 0.4265
C20 C 0.0620(3) 0.2677(2) 0.41548(12)
C21 C -0.0146(3) 0.3769(3) 0.42132(14)
H18 H 0.0321 0.4443 0.4415
C22 C -0.1602(3) 0.3870(3) 0.39742(16)
H19 H -0.2105 0.4605 0.4020
C23 C -0.2301(3) 0.2871(3) 0.36672(17)
H20 H -0.3273 0.2922 0.3505
C24 C -0.1526(3) 0.1815(3) 0.36102(17)
C25 C -0.0087(3) 0.1691(3) 0.38438(15)
H21 H 0.0404 0.0952 0.3793
loop_
_geom_bond_atom_site_label_1
_geom_bond_atom_site_label_2
_geom_bond_site_symmetry_1
_geom_bond_site_symmetry_2
F1 C24 1_555 1_555
O1 C1 1_555 1_555
O2 C10 1_555 1_555
N1 H1 1_555 1_555
N2 H2 1_555 1_555
C1 H3 1_555 1_555
H4 C1 1_555 1_555
H5 C1 1_555 1_555
C2 O1 1_555 1_555
C3 C2 1_555 1_555
H6 C3 1_555 1_555
C4 C3 1_555 1_555
H7 C4 1_555 1_555
C5 N1 1_555 1_555
C6 N1 1_555 1_555
H8 C6 1_555 1_555
C7 C6 1_555 1_555
C8 C5 1_555 1_555
C9 C2 1_555 1_555
H9 C9 1_555 1_555
C10 H10 1_555 1_555
H11 C10 1_555 1_555
H12 C10 1_555 1_555
C11 O2 1_555 1_555
C12 C11 1_555 1_555
H13 C12 1_555 1_555
C13 C12 1_555 1_555
H14 C13 1_555 1_555
C14 N2 1_555 1_555
C15 N2 1_555 1_555
H15 C15 1_555 1_555
C16 C15 1_555 1_555
C17 C14 1_555 1_555
C18 C11 1_555 1_555
H16 C18 1_555 1_555
C19 C7 1_555 1_555
H17 C19 1_555 1_555
C20 C19 1_555 1_555
C21 C20 1_555 1_555
H18 C21 1_555 1_555
C22 C21 1_555 1_555
H19 C22 1_555 1_555
C23 C22 1_555 1_555
H20 C23 1_555 1_555
C24 C23 1_555 1_555
C25 C20 1_555 1_555
H21 C25 1_555 1_555
C4 C5 1_555 1_555
C7 C8 1_555 1_555
C8 C9 1_555 1_555
C13 C14 1_555 1_555
C16 C17 1_555 1_555
C16 C19 1_555 1_555
C17 C18 1_555 1_555
C24 C25 1_555 1_555

#END
