
#######################################################################
#
#                 Cambridge Crystallographic Data Centre
#                                CCDC 
#
#######################################################################
#
# If this CIF has been generated from an entry in the Cambridge 
# Structural Database, then it will include bibliographic, chemical, 
# crystal, experimental, refinement or atomic coordinate data resulting 
# from the CCDC's data processing and validation procedures.
#
#######################################################################

data_KEQSEF
_chemical_formula_moiety         'C23 H24 O4 Si1'
_chemical_name_systematic        
2-Methyl-4-phenyl-2-(trimethylsilyloxy)-3,4-dihydro-2H-naphtho(2,3-b)pyran-5,10-dione
_symmetry_cell_setting           monoclinic
_symmetry_space_group_name_H-M   'P 21/c'
_symmetry_Int_Tables_number      14
_space_group_name_Hall           '-P 2ybc'
loop_
_symmetry_equiv_pos_site_id
_symmetry_equiv_pos_as_xyz
1 x,y,z
2 -x,1/2+y,1/2-z
3 -x,-y,-z
4 x,1/2-y,1/2+z
_cell_length_a                   12.699(3)
_cell_length_b                   11.342(2)
_cell_length_c                   15.023(3)
_cell_angle_alpha                90
_cell_angle_beta                 92.44(3)
_cell_angle_gamma                90
_cell_volume                     2161.83
_exptl_crystal_colour            colorless
_exptl_crystal_description       block
_chemical_melting_point          '415.2 K'
_cell_formula_units_Z            4
_exptl_crystal_recrystallization_method 'petroleum ether/ethyl acetate'
loop_
_atom_site_label
_atom_site_type_symbol
_atom_site_fract_x
_atom_site_fract_y
_atom_site_fract_z
Si1 Si -0.05337(7) 0.23798(10) 0.15303(7)
O1 O 0.05816(16) 0.2927(2) 0.19693(15)
O2 O 0.16459(16) 0.12970(19) 0.22992(14)
O3 O 0.34793(19) 0.2714(2) -0.01343(14)
O4 O 0.1861(2) -0.0822(2) 0.16494(16)
C1 C -0.1327(3) 0.1625(4) 0.2354(3)
H1 H -0.1489 0.2166 0.2819
H2 H -0.0936 0.0971 0.2603
H3 H -0.1969 0.1343 0.2068
C2 C -0.1210(3) 0.3691(4) 0.1077(3)
H4 H -0.1345 0.4228 0.1553
H5 H -0.1865 0.3462 0.0784
H6 H -0.0773 0.4070 0.0656
C3 C -0.0242(3) 0.1297(5) 0.0648(3)
H7 H 0.0110 0.0626 0.0911
H8 H 0.0203 0.1657 0.0224
H9 H -0.0889 0.1049 0.0351
C4 C 0.1363(3) 0.2498(3) 0.2562(2)
C5 C 0.0994(3) 0.2359(4) 0.3500(2)
H10 H 0.0383 0.1860 0.3493
H11 H 0.0820 0.3118 0.3734
H12 H 0.1546 0.2009 0.3869
C6 C 0.2319(2) 0.3267(3) 0.2517(2)
H13 H 0.2872 0.2960 0.2918
H14 H 0.2146 0.4055 0.2715
C7 C 0.2727(2) 0.3334(3) 0.1571(2)
H15 H 0.2235 0.3811 0.1201
C8 C 0.3801(2) 0.3923(3) 0.1592(2)
C9 C 0.3943(3) 0.4995(3) 0.1191(3)
H16 H 0.3373 0.5357 0.0894
C10 C 0.4905(4) 0.5548(4) 0.1217(3)
H17 H 0.4981 0.6271 0.0934
C11 C 0.5754(4) 0.5036(5) 0.1659(3)
H18 H 0.6408 0.5408 0.1677
C12 C 0.5633(3) 0.3979(4) 0.2072(3)
H19 H 0.6206 0.3630 0.2376
C13 C 0.4659(2) 0.3417(3) 0.2042(2)
H20 H 0.4585 0.2695 0.2327
C14 C 0.2747(2) 0.2102(3) 0.11953(19)
C15 C 0.3222(2) 0.1885(3) 0.0328(2)
C16 C 0.3382(2) 0.0658(3) 0.00310(19)
C17 C 0.3954(2) 0.0419(3) -0.0720(2)
H21 H 0.4222 0.1037 -0.1048
C18 C 0.4122(3) -0.0719(4) -0.0977(2)
H22 H 0.4492 -0.0868 -0.1486
C19 C 0.3750(3) -0.1648(4) -0.0491(3)
H23 H 0.3890 -0.2420 -0.0658
C20 C 0.3170(2) -0.1428(3) 0.0245(2)
H24 H 0.2909 -0.2053 0.0570
C21 C 0.2974(2) -0.0278(3) 0.05036(19)
C22 C 0.2324(2) -0.0038(3) 0.1277(2)
C23 C 0.2256(2) 0.1201(3) 0.15878(19)
loop_
_geom_bond_atom_site_label_1
_geom_bond_atom_site_label_2
_geom_bond_site_symmetry_1
_geom_bond_site_symmetry_2
Si1 O1 1_555 1_555
O1 C4 1_555 1_555
O2 C4 1_555 1_555
O3 C15 1_555 1_555
O4 C22 1_555 1_555
C1 Si1 1_555 1_555
H1 C1 1_555 1_555
H2 C1 1_555 1_555
H3 C1 1_555 1_555
C2 Si1 1_555 1_555
H4 C2 1_555 1_555
H5 C2 1_555 1_555
H6 C2 1_555 1_555
C3 Si1 1_555 1_555
H7 C3 1_555 1_555
H8 C3 1_555 1_555
H9 C3 1_555 1_555
C4 C5 1_555 1_555
C5 H10 1_555 1_555
H11 C5 1_555 1_555
H12 C5 1_555 1_555
C6 C4 1_555 1_555
H13 C6 1_555 1_555
H14 C6 1_555 1_555
C7 C6 1_555 1_555
H15 C7 1_555 1_555
C8 C7 1_555 1_555
C9 C8 1_555 1_555
H16 C9 1_555 1_555
C10 C9 1_555 1_555
H17 C10 1_555 1_555
C11 C10 1_555 1_555
H18 C11 1_555 1_555
C12 C11 1_555 1_555
H19 C12 1_555 1_555
C13 C8 1_555 1_555
H20 C13 1_555 1_555
C14 C7 1_555 1_555
C15 C14 1_555 1_555
C16 C15 1_555 1_555
C17 C16 1_555 1_555
H21 C17 1_555 1_555
C18 C17 1_555 1_555
H22 C18 1_555 1_555
C19 C18 1_555 1_555
H23 C19 1_555 1_555
C20 C19 1_555 1_555
H24 C20 1_555 1_555
C21 C16 1_555 1_555
C22 C21 1_555 1_555
C23 O2 1_555 1_555
C12 C13 1_555 1_555
C14 C23 1_555 1_555
C20 C21 1_555 1_555
C22 C23 1_555 1_555

#END
