
#######################################################################
#
#                 Cambridge Crystallographic Data Centre
#                                CCDC 
#
#######################################################################
#
# If this CIF has been generated from an entry in the Cambridge 
# Structural Database, then it will include bibliographic, chemical, 
# crystal, experimental, refinement or atomic coordinate data resulting 
# from the CCDC's data processing and validation procedures.
#
#######################################################################

data_KEQVUY
_chemical_formula_moiety         'C16 H15 Br1 N2 O4'
_chemical_name_systematic        
(E)-N'-(5-Bromo-2-hydroxybenzylidene)-3,5-dimethoxybenzohydrazide
_symmetry_cell_setting           monoclinic
_symmetry_space_group_name_H-M   'P 21/c'
_symmetry_Int_Tables_number      14
_space_group_name_Hall           '-P 2ybc'
loop_
_symmetry_equiv_pos_site_id
_symmetry_equiv_pos_as_xyz
1 x,y,z
2 -x,1/2+y,1/2-z
3 -x,-y,-z
4 x,1/2-y,1/2+z
_cell_length_a                   11.235(2)
_cell_length_b                   15.973(3)
_cell_length_c                   9.2501(16)
_cell_angle_alpha                90
_cell_angle_beta                 104.483(3)
_cell_angle_gamma                90
_cell_volume                     1607.24
_exptl_crystal_colour            colorless
_exptl_crystal_description       block
_cell_formula_units_Z            4
_exptl_crystal_recrystallization_method ethanol
loop_
_atom_site_label
_atom_site_type_symbol
_atom_site_fract_x
_atom_site_fract_y
_atom_site_fract_z
Br1 Br 0.42650(5) 1.21539(3) 0.43921(7)
N1 N 0.2731(3) 0.83944(19) 0.5746(3)
N2 N 0.2183(3) 0.77311(18) 0.4876(3)
H1 H 0.1975 0.7780 0.3920
O1 O 0.4072(3) 0.91282(19) 0.8199(3)
H2 H 0.3643 0.8758 0.7718
O2 O 0.2215(3) 0.69118(15) 0.6869(3)
O3 O 0.1522(3) 0.40314(18) 0.4269(4)
O4 O -0.0570(3) 0.5923(2) 0.0727(3)
C1 C 0.2843(3) 0.9066(2) 0.5041(4)
H3 H 0.2499 0.9089 0.4017
C2 C 0.3489(3) 0.9790(2) 0.5788(4)
C3 C 0.4088(4) 0.9795(3) 0.7307(5)
C4 C 0.4750(4) 1.0498(3) 0.7927(5)
H4 H 0.5157 1.0500 0.8935
C5 C 0.4809(4) 1.1188(3) 0.7066(6)
H5 H 0.5260 1.1654 0.7490
C6 C 0.4200(4) 1.1193(3) 0.5572(6)
C7 C 0.3559(4) 1.0501(2) 0.4948(5)
H6 H 0.3160 1.0505 0.3938
C8 C 0.1971(3) 0.7009(2) 0.5513(4)
C9 C 0.1422(3) 0.6323(2) 0.4452(4)
C10 C 0.1709(3) 0.5511(2) 0.4919(4)
H7 H 0.2199 0.5404 0.5871
C11 C 0.1257(4) 0.4856(3) 0.3954(5)
C12 C 0.0503(4) 0.5027(3) 0.2567(5)
H8 H 0.0194 0.4587 0.1922
C13 C 0.0200(4) 0.5836(3) 0.2120(5)
C14 C 0.0660(3) 0.6498(3) 0.3057(4)
H9 H 0.0463 0.7048 0.2759
C15 C 0.2308(5) 0.3837(3) 0.5680(6)
H10 H 0.2421 0.3242 0.5767
H11 H 0.1946 0.4034 0.6454
H12 H 0.3089 0.4104 0.5776
C16 C -0.0948(4) 0.6730(3) 0.0213(5)
H13 H -0.1470 0.6696 -0.0780
H14 H -0.0239 0.7064 0.0205
H15 H -0.1392 0.6982 0.0863
loop_
_geom_bond_atom_site_label_1
_geom_bond_atom_site_label_2
_geom_bond_site_symmetry_1
_geom_bond_site_symmetry_2
Br1 C6 1_555 1_555
N1 N2 1_555 1_555
N2 H1 1_555 1_555
O1 H2 1_555 1_555
O2 C8 1_555 1_555
O3 C11 1_555 1_555
O4 C13 1_555 1_555
C1 N1 1_555 1_555
H3 C1 1_555 1_555
C2 C1 1_555 1_555
C3 O1 1_555 1_555
C4 C3 1_555 1_555
H4 C4 1_555 1_555
C5 C4 1_555 1_555
H5 C5 1_555 1_555
C6 C5 1_555 1_555
C7 C2 1_555 1_555
H6 C7 1_555 1_555
C8 N2 1_555 1_555
C9 C8 1_555 1_555
C10 C9 1_555 1_555
H7 C10 1_555 1_555
C11 C10 1_555 1_555
C12 C11 1_555 1_555
H8 C12 1_555 1_555
C13 C12 1_555 1_555
C14 C9 1_555 1_555
H9 C14 1_555 1_555
C15 O3 1_555 1_555
H10 C15 1_555 1_555
H11 C15 1_555 1_555
H12 C15 1_555 1_555
C16 O4 1_555 1_555
H13 C16 1_555 1_555
H14 C16 1_555 1_555
H15 C16 1_555 1_555
C2 C3 1_555 1_555
C6 C7 1_555 1_555
C13 C14 1_555 1_555

#END
