
#######################################################################
#
#                 Cambridge Crystallographic Data Centre
#                                CCDC 
#
#######################################################################
#
# If this CIF has been generated from an entry in the Cambridge 
# Structural Database, then it will include bibliographic, chemical, 
# crystal, experimental, refinement or atomic coordinate data resulting 
# from the CCDC's data processing and validation procedures.
#
#######################################################################

data_KEQXAI
_chemical_formula_moiety         'C12 H16 Cl1 F4 N1 O3'
_chemical_name_systematic        
'ethyl 4-chloro-3-(diethylamino)-4-fluoro-2-(trifluoroacetyl)but-2-enoate'
_symmetry_cell_setting           monoclinic
_symmetry_space_group_name_H-M   'P 21/c'
_symmetry_Int_Tables_number      14
_space_group_name_Hall           '-P 2ybc'
loop_
_symmetry_equiv_pos_site_id
_symmetry_equiv_pos_as_xyz
1 x,y,z
2 -x,1/2+y,1/2-z
3 -x,-y,-z
4 x,1/2-y,1/2+z
_cell_length_a                   9.0871(3)
_cell_length_b                   27.9947(9)
_cell_length_c                   14.8373(4)
_cell_angle_alpha                90
_cell_angle_beta                 127.476(2)
_cell_angle_gamma                90
_cell_volume                     2995.45
_exptl_crystal_colour            colorless
_exptl_crystal_description       prism
_cell_formula_units_Z            8
loop_
_atom_site_label
_atom_site_type_symbol
_atom_site_fract_x
_atom_site_fract_y
_atom_site_fract_z
C1 C 0.1250(4) 0.86978(10) 0.3302(3)
C2 C -0.0681(4) 0.86167(10) 0.2579(2)
C3 C 0.1987(4) 0.91832(10) 0.3680(2)
C4 C 0.3879(5) 0.93071(11) 0.3940(3)
C5 C 0.2572(5) 0.82950(11) 0.3842(3)
C6 C 0.5476(6) 0.80589(16) 0.5587(5)
H1 H 0.6031 0.8097 0.6399
H2 H 0.4938 0.7734 0.5353
C7 C 0.6903(7) 0.80982(17) 0.5462(5)
H3 H 0.6408 0.8013 0.4683
H4 H 0.7921 0.7881 0.5996
H5 H 0.7365 0.8427 0.5620
C8 C -0.1350(5) 0.81322(11) 0.2669(3)
H6 H -0.0319 0.7896 0.2983
C9 C -0.1400(4) 0.93244(10) 0.1402(3)
H7 H -0.0187 0.9251 0.1573
H8 H -0.1257 0.9620 0.1815
C10 C -0.2835(5) 0.94093(11) 0.0127(3)
H9 H -0.3085 0.9108 -0.0281
H10 H -0.2356 0.9645 -0.0124
H11 H -0.3985 0.9529 -0.0032
C11 C -0.3877(4) 0.89412(11) 0.1409(3)
H12 H -0.4131 0.8656 0.1689
H13 H -0.4736 0.8936 0.0569
C12 C -0.4207(5) 0.93940(13) 0.1844(3)
H14 H -0.3296 0.9410 0.2672
H15 H -0.5460 0.9386 0.1631
H16 H -0.4075 0.9675 0.1505
N1 N -0.1934(3) 0.89267(8) 0.1807(2)
O1 O 0.1208(3) 0.95157(7) 0.37618(19)
O2 O 0.2439(4) 0.79188(8) 0.3394(3)
O3 O 0.3989(3) 0.84071(8) 0.4929(2)
F1 F 0.3686(3) 0.97114(7) 0.3410(2)
F2 F 0.5216(3) 0.93771(7) 0.50387(17)
F3 F 0.4479(3) 0.89755(6) 0.35809(18)
F4 F -0.2860(3) 0.79705(6) 0.16306(17)
Cl1 Cl -0.19551(15) 0.81658(3) 0.35972(9)
C13 C 0.8696(4) 0.13108(10) 0.1681(3)
C14 C 0.8260(4) 0.13926(10) 0.2417(3)
C15 C 0.8643(4) 0.08340(10) 0.1284(2)
C16 C 0.9970(5) 0.07047(10) 0.1003(3)
C17 C 0.8957(5) 0.17082(11) 0.1139(3)
C18 C 0.8340(7) 0.19422(15) -0.0626(4)
H17 H 0.7356 0.1879 -0.1442
H18 H 0.8147 0.2268 -0.0457
C19 C 1.0133(7) 0.19205(14) -0.0400(4)
H19 H 1.1107 0.2005 0.0395
H20 H 1.0154 0.2146 -0.0898
H21 H 1.0347 0.1596 -0.0544
C20 C 0.7452(5) 0.18740(10) 0.2355(3)
H22 H 0.7844 0.2108 0.2029
C21 C 0.9824(4) 0.06784(10) 0.3560(3)
H23 H 1.0668 0.0747 0.3364
H24 H 0.9112 0.0387 0.3142
C22 C 1.0969(5) 0.05822(11) 0.4819(3)
H25 H 1.1608 0.0876 0.5240
H26 H 1.1886 0.0333 0.5030
H27 H 1.0156 0.0475 0.5006
C23 C 0.7434(5) 0.10797(11) 0.3615(3)
H28 H 0.6675 0.1374 0.3357
H29 H 0.8284 0.1081 0.4455
C24 C 0.6167(5) 0.06442(12) 0.3199(3)
H30 H 0.5397 0.0627 0.2369
H31 H 0.5367 0.0672 0.3433
H32 H 0.6921 0.0354 0.3528
N2 N 0.8532(3) 0.10777(8) 0.3183(2)
O4 O 0.7689(3) 0.05017(7) 0.11986(18)
O5 O 0.9679(5) 0.20850(8) 0.1560(3)
O6 O 0.8175(4) 0.16003(8) 0.0043(2)
F5 F 1.0822(3) 0.02899(7) 0.1519(2)
F6 F 0.9094(3) 0.06332(7) -0.01107(18)
F7 F 1.1310(3) 0.10228(6) 0.13566(17)
F8 F 0.8055(3) 0.20367(6) 0.33928(17)
Cl2 Cl 0.49796(14) 0.18546(3) 0.14482(9)
loop_
_geom_bond_atom_site_label_1
_geom_bond_atom_site_label_2
_geom_bond_site_symmetry_1
_geom_bond_site_symmetry_2
C1 C2 1_555 1_555
C2 C8 1_555 1_555
C3 C1 1_555 1_555
C4 C3 1_555 1_555
C5 C1 1_555 1_555
C6 H1 1_555 1_555
H2 C6 1_555 1_555
C7 C6 1_555 1_555
H3 C7 1_555 1_555
H4 C7 1_555 1_555
H5 C7 1_555 1_555
C8 H6 1_555 1_555
C9 H7 1_555 1_555
H8 C9 1_555 1_555
C10 C9 1_555 1_555
H9 C10 1_555 1_555
H10 C10 1_555 1_555
H11 C10 1_555 1_555
C11 H12 1_555 1_555
H13 C11 1_555 1_555
C12 C11 1_555 1_555
H14 C12 1_555 1_555
H15 C12 1_555 1_555
H16 C12 1_555 1_555
N1 C2 1_555 1_555
O1 C3 1_555 1_555
O2 C5 1_555 1_555
O3 C5 1_555 1_555
F1 C4 1_555 1_555
F2 C4 1_555 1_555
F3 C4 1_555 1_555
F4 C8 1_555 1_555
Cl1 C8 1_555 1_555
C13 C14 1_555 1_555
C14 C20 1_555 1_555
C15 C13 1_555 1_555
C16 C15 1_555 1_555
C17 C13 1_555 1_555
C18 H17 1_555 1_555
H18 C18 1_555 1_555
C19 C18 1_555 1_555
H19 C19 1_555 1_555
H20 C19 1_555 1_555
H21 C19 1_555 1_555
C20 H22 1_555 1_555
C21 H23 1_555 1_555
H24 C21 1_555 1_555
C22 C21 1_555 1_555
H25 C22 1_555 1_555
H26 C22 1_555 1_555
H27 C22 1_555 1_555
C23 H28 1_555 1_555
H29 C23 1_555 1_555
C24 C23 1_555 1_555
H30 C24 1_555 1_555
H31 C24 1_555 1_555
H32 C24 1_555 1_555
N2 C14 1_555 1_555
O4 C15 1_555 1_555
O5 C17 1_555 1_555
O6 C17 1_555 1_555
F5 C16 1_555 1_555
F6 C16 1_555 1_555
F7 C16 1_555 1_555
F8 C20 1_555 1_555
Cl2 C20 1_555 1_555
C6 O3 1_555 1_555
C9 N1 1_555 1_555
C11 N1 1_555 1_555
C18 O6 1_555 1_555
C21 N2 1_555 1_555
C23 N2 1_555 1_555

#END
