
#######################################################################
#
#                 Cambridge Crystallographic Data Centre
#                                CCDC 
#
#######################################################################
#
# If this CIF has been generated from an entry in the Cambridge 
# Structural Database, then it will include bibliographic, chemical, 
# crystal, experimental, refinement or atomic coordinate data resulting 
# from the CCDC's data processing and validation procedures.
#
#######################################################################

data_KEQXOU
_chemical_formula_moiety         'C18 H16 Br1 N3 O1'
_chemical_name_systematic        
(E)-4-((4-Bromobenzylidene)amino)-1,5-dimethyl-2-phenyl-1H-pyrazol-3(2H)-one
_symmetry_cell_setting           orthorhombic
_symmetry_space_group_name_H-M   'P b c a'
_symmetry_Int_Tables_number      61
_space_group_name_Hall           '-P 2ac 2ab'
loop_
_symmetry_equiv_pos_site_id
_symmetry_equiv_pos_as_xyz
1 x,y,z
2 1/2-x,-y,1/2+z
3 -x,1/2+y,1/2-z
4 1/2+x,1/2-y,-z
5 -x,-y,-z
6 1/2+x,y,1/2-z
7 x,1/2-y,1/2+z
8 1/2-x,1/2+y,z
_cell_length_a                   6.9803(4)
_cell_length_b                   17.5191(9)
_cell_length_c                   26.9377(14)
_cell_angle_alpha                90
_cell_angle_beta                 90
_cell_angle_gamma                90
_cell_volume                     3294.17
_exptl_crystal_colour            yellow
_exptl_crystal_description       block
_cell_formula_units_Z            8
loop_
_atom_site_label
_atom_site_type_symbol
_atom_site_fract_x
_atom_site_fract_y
_atom_site_fract_z
C1 C 0.5658(6) 0.7643(2) 0.65022(14)
C2 C 0.5504(6) 0.6850(2) 0.65020(14)
H1 H 0.4751 0.6607 0.6265
C3 C 0.6478(6) 0.6423(2) 0.68558(15)
H2 H 0.6376 0.5894 0.6856
C4 C 0.7604(6) 0.6787(2) 0.72102(16)
H3 H 0.8250 0.6501 0.7448
C5 C 0.7762(6) 0.7576(2) 0.72087(15)
H4 H 0.8520 0.7818 0.7445
C6 C 0.6793(6) 0.8007(3) 0.68551(15)
H5 H 0.6902 0.8536 0.6855
C7 C 0.5741(6) 0.8537(2) 0.57949(14)
C8 C 0.4456(6) 0.8586(2) 0.53658(14)
C9 C 0.2862(5) 0.8182(2) 0.54792(13)
C10 C 0.6380(6) 0.9253(2) 0.48153(15)
H6 H 0.7260 0.9315 0.5071
C11 C 0.6804(5) 0.9534(2) 0.43779(14)
C12 C 0.8582(6) 0.9871(2) 0.42999(15)
H7 H 0.9460 0.9904 0.4559
C13 C 0.9045(5) 1.0159(2) 0.38349(14)
H8 H 1.0231 1.0387 0.3783
C14 C 0.7742(6) 1.0107(2) 0.34478(14)
C15 C 0.5964(6) 0.9767(2) 0.35242(15)
H9 H 0.5091 0.9731 0.3264
C16 C 0.5497(5) 0.9481(2) 0.39907(13)
H10 H 0.4309 0.9254 0.4043
C17 C 0.1385(6) 0.7684(2) 0.62533(14)
H11 H 0.0848 0.8157 0.6367
H12 H 0.1826 0.7393 0.6533
H13 H 0.0424 0.7398 0.6078
C18 C 0.1081(6) 0.8101(2) 0.51640(15)
H14 H 0.0819 0.7570 0.5109
H15 H 0.1278 0.8350 0.4851
H16 H 0.0015 0.8332 0.5332
Br1 Br 0.83900(7) 1.04881(3) 0.280562(16)
N1 N 0.4729(5) 0.81047(18) 0.61548(11)
N2 N 0.2996(4) 0.78398(17) 0.59204(11)
N3 N 0.4820(5) 0.88983(18) 0.49082(11)
O1 O 0.7378(4) 0.87729(16) 0.58694(10)
loop_
_geom_bond_atom_site_label_1
_geom_bond_atom_site_label_2
_geom_bond_site_symmetry_1
_geom_bond_site_symmetry_2
C1 C2 1_555 1_555
C2 H1 1_555 1_555
C3 C2 1_555 1_555
H2 C3 1_555 1_555
C4 C3 1_555 1_555
H3 C4 1_555 1_555
C5 C4 1_555 1_555
H4 C5 1_555 1_555
C6 C1 1_555 1_555
H5 C6 1_555 1_555
C7 C8 1_555 1_555
C8 C9 1_555 1_555
C9 C18 1_555 1_555
C10 H6 1_555 1_555
C11 C10 1_555 1_555
C12 C11 1_555 1_555
H7 C12 1_555 1_555
C13 C12 1_555 1_555
H8 C13 1_555 1_555
C14 C13 1_555 1_555
C15 C14 1_555 1_555
H9 C15 1_555 1_555
C16 C11 1_555 1_555
H10 C16 1_555 1_555
C17 H11 1_555 1_555
H12 C17 1_555 1_555
H13 C17 1_555 1_555
C18 H14 1_555 1_555
H15 C18 1_555 1_555
H16 C18 1_555 1_555
Br1 C14 1_555 1_555
N1 C1 1_555 1_555
N2 C9 1_555 1_555
N3 C8 1_555 1_555
O1 C7 1_555 1_555
C5 C6 1_555 1_555
C7 N1 1_555 1_555
C10 N3 1_555 1_555
C15 C16 1_555 1_555
C17 N2 1_555 1_555
N1 N2 1_555 1_555

#END
