
#######################################################################
#
#                 Cambridge Crystallographic Data Centre
#                                CCDC 
#
#######################################################################
#
# If this CIF has been generated from an entry in the Cambridge 
# Structural Database, then it will include bibliographic, chemical, 
# crystal, experimental, refinement or atomic coordinate data resulting 
# from the CCDC's data processing and validation procedures.
#
#######################################################################

data_KEQXEM
_chemical_formula_moiety         'C11 H5 F5 N4 O2,0.33(C1 H2 Cl2)'
_chemical_name_systematic        
"4-(difluoromethyl)-6-(trifluoromethyl)[2,2'-bipyrimidine]-5-carboxylic acid dichloromethane solvate"
_symmetry_cell_setting           monoclinic
_symmetry_space_group_name_H-M   'P 21/c'
_symmetry_Int_Tables_number      14
_space_group_name_Hall           '-P 2ybc'
loop_
_symmetry_equiv_pos_site_id
_symmetry_equiv_pos_as_xyz
1 x,y,z
2 -x,1/2+y,1/2-z
3 -x,-y,-z
4 x,1/2-y,1/2+z
_cell_length_a                   5.0545(5)
_cell_length_b                   14.1285(13)
_cell_length_c                   19.8321(17)
_cell_angle_alpha                90
_cell_angle_beta                 101.660(3)
_cell_angle_gamma                90
_cell_volume                     1387.03
_exptl_crystal_colour            colorless
_exptl_crystal_description       prism
_cell_formula_units_Z            4
loop_
_atom_site_label
_atom_site_type_symbol
_atom_site_fract_x
_atom_site_fract_y
_atom_site_fract_z
C1 C 0.4704(5) 0.62262(17) 0.64237(12)
C2 C 0.3960(5) 0.60716(16) 0.70532(12)
C3 C 0.4922(5) 0.52260(17) 0.73768(12)
C4 C 0.7107(5) 0.48650(16) 0.65157(11)
C5 C 0.8948(5) 0.42070(16) 0.62391(11)
C6 C 1.0987(6) 0.27688(19) 0.62953(14)
H1 H 1.1319 0.2157 0.6492
C7 C 1.2250(5) 0.30317(19) 0.57662(13)
H2 H 1.3439 0.2613 0.5599
C8 C 1.1714(6) 0.39273(19) 0.54900(13)
H3 H 1.2532 0.4123 0.5122
C9 C 0.3811(5) 0.71107(18) 0.59977(14)
C10 C 0.2242(5) 0.67209(17) 0.73810(12)
C11 C 0.4473(6) 0.4929(2) 0.80802(14)
H4 H 0.5896 0.4460 0.8281
N1 N 0.6284(4) 0.56467(14) 0.61544(10)
N2 N 0.6453(4) 0.46207(14) 0.71092(10)
N3 N 0.9313(4) 0.33522(14) 0.65372(11)
N4 N 1.0059(5) 0.45255(16) 0.57325(11)
O1 O 0.0054(4) 0.64783(14) 0.74793(11)
O2 O 0.3411(4) 0.75410(13) 0.75519(11)
H5 H 0.2398 0.7879 0.7739
F1 F 0.3787(5) 0.69665(15) 0.53328(9)
F2 F 0.1354(4) 0.73803(15) 0.60495(10)
F3 F 0.5568(6) 0.78067(18) 0.61741(17)
F4 F 0.4708(5) 0.57047(16) 0.85043(10)
F5 F 0.2099(5) 0.45415(19) 0.80502(12)
H6? H 0.4471 0.5526 0.8351
F6? F 0.6469(10) 0.4416(3) 0.84167(19)
loop_
_geom_bond_atom_site_label_1
_geom_bond_atom_site_label_2
_geom_bond_site_symmetry_1
_geom_bond_site_symmetry_2
C1 C2 1_555 1_555
C2 C3 1_555 1_555
C3 C11 1_555 1_555
C4 C5 1_555 1_555
C5 N3 1_555 1_555
C6 H1 1_555 1_555
C7 C6 1_555 1_555
H2 C7 1_555 1_555
C8 C7 1_555 1_555
H3 C8 1_555 1_555
C9 C1 1_555 1_555
C10 C2 1_555 1_555
C11 H4 1_555 1_555
N1 C1 1_555 1_555
N2 C3 1_555 1_555
N3 C6 1_555 1_555
N4 C5 1_555 1_555
O1 C10 1_555 1_555
O2 C10 1_555 1_555
H5 O2 1_555 1_555
F1 C9 1_555 1_555
F2 C9 1_555 1_555
F3 C9 1_555 1_555
F4 C11 1_555 1_555
F5 C11 1_555 1_555
C4 N1 1_555 1_555
C4 N2 1_555 1_555
C8 N4 1_555 1_555

#END
