
#######################################################################
#
#                 Cambridge Crystallographic Data Centre
#                                CCDC 
#
#######################################################################
#
# If this CIF has been generated from an entry in the Cambridge 
# Structural Database, then it will include bibliographic, chemical, 
# crystal, experimental, refinement or atomic coordinate data resulting 
# from the CCDC's data processing and validation procedures.
#
#######################################################################

data_KEQXIQ
_chemical_formula_moiety         'C9 H5 F7 N2 O2'
_chemical_name_systematic        
'4-(difluoromethyl)-2-methyl-6-(pentafluoroethyl)pyrimidine-5-carboxylic acid'
_symmetry_cell_setting           monoclinic
_symmetry_space_group_name_H-M   'P 21/c'
_symmetry_Int_Tables_number      14
_space_group_name_Hall           '-P 2ybc'
loop_
_symmetry_equiv_pos_site_id
_symmetry_equiv_pos_as_xyz
1 x,y,z
2 -x,1/2+y,1/2-z
3 -x,-y,-z
4 x,1/2-y,1/2+z
_cell_length_a                   10.8097(4)
_cell_length_b                   18.8335(7)
_cell_length_c                   13.7348(5)
_cell_angle_alpha                90
_cell_angle_beta                 128.234(2)
_cell_angle_gamma                90
_cell_volume                     2196.38
_exptl_crystal_colour            colorless
_exptl_crystal_description       block
_cell_formula_units_Z            8
loop_
_atom_site_label
_atom_site_type_symbol
_atom_site_fract_x
_atom_site_fract_y
_atom_site_fract_z
C1 C 0.4921(3) 0.86666(13) 0.0263(2)
C2 C 0.5397(3) 0.87743(13) 0.2123(2)
C3 C 0.5264(3) 0.80443(13) 0.2202(2)
C4 C 0.4984(3) 0.76532(13) 0.1223(2)
C5 C 0.4704(4) 0.90001(14) -0.0810(3)
H1 H 0.4666 0.9517 -0.0755
H2 H 0.3717 0.8832 -0.1580
H3 H 0.5587 0.8871 -0.0804
C6 C 0.5801(3) 0.92947(14) 0.3129(2)
C7 C 0.4398(4) 0.97164(14) 0.2854(3)
C8 C 0.5512(3) 0.76692(13) 0.3284(2)
C9 C 0.4952(4) 0.68436(14) 0.1250(2)
H4 H 0.6042 0.6655 0.1880
N1 N 0.5238(3) 0.90814(11) 0.1176(2)
N2 N 0.4795(3) 0.79484(11) 0.02618(19)
O1 O 0.6679(2) 0.73223(10) 0.40049(17)
O2 O 0.4321(2) 0.77522(10) 0.33013(18)
F1 F 0.6870(2) 0.97699(8) 0.33274(15)
F2 F 0.6466(2) 0.89436(8) 0.42166(13)
F3 F 0.3787(2) 1.01323(9) 0.18816(17)
F4 F 0.4864(2) 1.01230(9) 0.38138(17)
F5 F 0.3301(2) 0.92850(9) 0.26333(19)
F6 F 0.4005(2) 0.66347(8) 0.15293(16)
F7 F 0.4337(3) 0.65765(9) 0.01346(18)
H5 H 0.453(4) 0.7498(19) 0.396(3)
C10 C 0.0269(3) 0.86829(13) 0.5432(2)
C11 C -0.0195(3) 0.87930(13) 0.6840(2)
C12 C -0.0167(3) 0.80596(13) 0.6985(2)
C13 C 0.0065(3) 0.76623(13) 0.6253(2)
C14 C 0.0462(4) 0.90163(14) 0.4554(3)
H6 H -0.0397 0.8864 0.3707
H7 H 0.1473 0.8871 0.4765
H8 H 0.0438 0.9534 0.4609
C15 C -0.0606(3) 0.93212(14) 0.7447(2)
C16 C 0.0793(4) 0.97089(15) 0.8582(3)
C17 C -0.0450(3) 0.76868(14) 0.7808(2)
C18 C -0.0002(4) 0.68513(13) 0.6252(2)
H9 H -0.1107 0.6688 0.5829
N3 N 0.0043(3) 0.91014(11) 0.60916(19)
N4 N 0.0272(3) 0.79602(11) 0.54862(19)
O3 O -0.1644(2) 0.73547(11) 0.73718(17)
O4 O 0.0747(2) 0.77500(10) 0.89834(17)
F8 F -0.1586(2) 0.98213(8) 0.66123(15)
F9 F -0.1374(2) 0.89871(8) 0.78060(15)
F10 F 0.1544(2) 1.00964(10) 0.82926(17)
F11 F 0.0325(2) 1.01301(9) 0.90629(17)
F12 F 0.1798(2) 0.92401(9) 0.94379(15)
F13 F 0.0954(2) 0.66218(8) 0.74451(14)
F14 F 0.0552(3) 0.65774(8) 0.56906(17)
H10 H 0.049(4) 0.7597(17) 0.936(3)
loop_
_geom_bond_atom_site_label_1
_geom_bond_atom_site_label_2
_geom_bond_site_symmetry_1
_geom_bond_site_symmetry_2
C1 C5 1_555 1_555
C2 C3 1_555 1_555
C3 C4 1_555 1_555
C4 C9 1_555 1_555
C5 H1 1_555 1_555
H2 C5 1_555 1_555
H3 C5 1_555 1_555
C6 C2 1_555 1_555
C7 C6 1_555 1_555
C8 C3 1_555 1_555
C9 H4 1_555 1_555
N1 C1 1_555 1_555
N2 C1 1_555 1_555
O1 C8 1_555 1_555
O2 C8 1_555 1_555
F1 C6 1_555 1_555
F2 C6 1_555 1_555
F3 C7 1_555 1_555
F4 C7 1_555 1_555
F5 C7 1_555 1_555
F6 C9 1_555 1_555
F7 C9 1_555 1_555
H5 O2 1_555 1_555
C10 C14 1_555 1_555
C11 C12 1_555 1_555
C12 C13 1_555 1_555
C13 C18 1_555 1_555
C14 H6 1_555 1_555
H7 C14 1_555 1_555
H8 C14 1_555 1_555
C15 C11 1_555 1_555
C16 C15 1_555 1_555
C17 C12 1_555 1_555
C18 H9 1_555 1_555
N3 C10 1_555 1_555
N4 C10 1_555 1_555
O3 C17 1_555 1_555
O4 C17 1_555 1_555
F8 C15 1_555 1_555
F9 C15 1_555 1_555
F10 C16 1_555 1_555
F11 C16 1_555 1_555
F12 C16 1_555 1_555
F13 C18 1_555 1_555
F14 C18 1_555 1_555
H10 O4 1_555 1_555
C2 N1 1_555 1_555
C4 N2 1_555 1_555
C11 N3 1_555 1_555
C13 N4 1_555 1_555

#END
