
#######################################################################
#
#                 Cambridge Crystallographic Data Centre
#                                CCDC 
#
#######################################################################
#
# If this CIF has been generated from an entry in the Cambridge 
# Structural Database, then it will include bibliographic, chemical, 
# crystal, experimental, refinement or atomic coordinate data resulting 
# from the CCDC's data processing and validation procedures.
#
#######################################################################

data_KEQYIP01
_chemical_name_common            
N'-(2-chlorobenzylidene)pyrazine-2-carbohydrazide
_chemical_formula_moiety         'C12 H9 Cl1 N4 O1'
_chemical_name_systematic        
'2-Chlorobenzaldehyde (pyrazin-2-ylcarbonyl)hydrazone'
_symmetry_cell_setting           monoclinic
_symmetry_space_group_name_H-M   'P n'
_symmetry_Int_Tables_number      7
_space_group_name_Hall           'P -2yac'
loop_
_symmetry_equiv_pos_site_id
_symmetry_equiv_pos_as_xyz
1 x,y,z
2 1/2+x,-y,1/2+z
_cell_length_a                   6.7780(2)
_cell_length_b                   3.7889(1)
_cell_length_c                   21.9959(9)
_cell_angle_alpha                90
_cell_angle_beta                 95.550(2)
_cell_angle_gamma                90
_cell_volume                     562.232
_exptl_crystal_colour            colorless
_exptl_crystal_description       plate
_cell_formula_units_Z            2
loop_
_atom_site_label
_atom_site_type_symbol
_atom_site_fract_x
_atom_site_fract_y
_atom_site_fract_z
Cl1 Cl 0.64619(8) 0.85851(17) 0.45903(4)
O1 O 0.4623(3) 0.4296(6) 0.14765(10)
N1 N -0.0874(3) 0.7885(6) 0.06995(11)
N2 N 0.0479(3) 0.9044(6) 0.19306(11)
N3 N 0.4084(3) 0.6856(6) 0.23841(11)
H1 H 0.3247 0.8061 0.2585
N4 N 0.5879(3) 0.5824(6) 0.26778(11)
C1 C 0.1585(4) 0.7397(8) 0.15435(13)
C2 C 0.0939(4) 0.6852(7) 0.09372(13)
H2 H 0.1795 0.5720 0.0681
C3 C -0.1989(4) 0.9462(7) 0.10864(13)
H3 H -0.3289 1.0196 0.0940
C4 C -0.1323(4) 1.0082(7) 0.17002(13)
H4 H -0.2166 1.1255 0.1956
C5 C 0.3591(4) 0.6034(7) 0.17873(13)
C6 C 0.6245(4) 0.6934(7) 0.32252(13)
H5 H 0.5296 0.8366 0.3400
C7 C 0.8107(4) 0.6036(7) 0.35897(13)
C8 C 0.8360(4) 0.6674(7) 0.42171(13)
C9 C 1.0102(4) 0.5789(7) 0.45685(14)
H6 H 1.0236 0.6227 0.4996
C10 C 1.1643(4) 0.4263(7) 0.42915(14)
H7 H 1.2838 0.3630 0.4528
C11 C 1.1426(4) 0.3665(8) 0.36646(13)
H8 H 1.2486 0.2640 0.3473
C12 C 0.9689(4) 0.4545(7) 0.33181(13)
H9 H 0.9568 0.4132 0.2890
loop_
_geom_bond_atom_site_label_1
_geom_bond_atom_site_label_2
_geom_bond_site_symmetry_1
_geom_bond_site_symmetry_2
Cl1 C8 1_555 1_555
O1 C5 1_555 1_555
N1 C2 1_555 1_555
N2 C1 1_555 1_555
N3 H1 1_555 1_555
N4 N3 1_555 1_555
C1 C2 1_555 1_555
C2 H2 1_555 1_555
C3 N1 1_555 1_555
H3 C3 1_555 1_555
C4 N2 1_555 1_555
H4 C4 1_555 1_555
C5 N3 1_555 1_555
C6 N4 1_555 1_555
H5 C6 1_555 1_555
C7 C6 1_555 1_555
C8 C7 1_555 1_555
C9 C8 1_555 1_555
H6 C9 1_555 1_555
C10 C9 1_555 1_555
H7 C10 1_555 1_555
C11 C10 1_555 1_555
H8 C11 1_555 1_555
C12 C7 1_555 1_555
H9 C12 1_555 1_555
C1 C5 1_555 1_555
C3 C4 1_555 1_555
C11 C12 1_555 1_555

#END
