
#######################################################################
#
#                 Cambridge Crystallographic Data Centre
#                                CCDC 
#
#######################################################################
#
# If this CIF has been generated from an entry in the Cambridge 
# Structural Database, then it will include bibliographic, chemical, 
# crystal, experimental, refinement or atomic coordinate data resulting 
# from the CCDC's data processing and validation procedures.
#
#######################################################################

data_KERBOZ
_chemical_formula_moiety         'C18 H17 N3 O4'
_chemical_name_systematic        
'(E,E)-4-(Dimethylamino)benzaldehyde O-(3-(3-nitrophenyl)propenoyl)oxime'
_symmetry_cell_setting           monoclinic
_symmetry_space_group_name_H-M   'P 21/c'
_symmetry_Int_Tables_number      14
_space_group_name_Hall           '-P 2ybc'
loop_
_symmetry_equiv_pos_site_id
_symmetry_equiv_pos_as_xyz
1 x,y,z
2 -x,1/2+y,1/2-z
3 -x,-y,-z
4 x,1/2-y,1/2+z
_cell_length_a                   18.031(12)
_cell_length_b                   7.332(5)
_cell_length_c                   12.714(9)
_cell_angle_alpha                90
_cell_angle_beta                 99.338(11)
_cell_angle_gamma                90
_cell_volume                     1658.56
_exptl_crystal_colour            red
_exptl_crystal_description       needle
_chemical_melting_point          '453-455 K'
_cell_formula_units_Z            4
_exptl_crystal_recrystallization_method ethanol
loop_
_atom_site_label
_atom_site_type_symbol
_atom_site_fract_x
_atom_site_fract_y
_atom_site_fract_z
N1 N 0.8959(2) 0.2646(6) 1.0208(4)
N2 N 0.4335(2) 0.3501(6) 0.6726(4)
N3 N 0.1317(2) 0.3825(6) 0.3351(4)
O1 O 0.51241(16) 0.3451(5) 0.7166(3)
O2 O 0.47342(19) 0.3797(6) 0.8728(3)
O3 O 0.88809(19) 0.1982(6) 0.9322(3)
O4 O 0.9568(2) 0.2841(6) 1.0761(4)
C1 C 0.5233(3) 0.3587(7) 0.8238(4)
C2 C 0.6026(2) 0.3480(6) 0.8705(4)
H1 H 0.6384 0.3197 0.8280
C3 C 0.6232(2) 0.3785(6) 0.9724(4)
H2 H 0.5841 0.4064 1.0093
C4 C 0.6974(2) 0.3756(6) 1.0371(4)
C5 C 0.7604(2) 0.3198(6) 0.9979(4)
H3 H 0.7568 0.2803 0.9278
C6 C 0.8292(2) 0.3230(6) 1.0640(4)
C7 C 0.8373(3) 0.3757(7) 1.1684(4)
H4 H 0.8842 0.3750 1.2114
C8 C 0.7741(3) 0.4299(7) 1.2084(4)
H5 H 0.7779 0.4656 1.2793
C9 C 0.7051(3) 0.4310(6) 1.1428(4)
H6 H 0.6628 0.4696 1.1700
C10 C 0.4249(3) 0.3583(6) 0.5736(4)
H7 H 0.4665 0.3624 0.5391
C11 C 0.3496(2) 0.3612(6) 0.5119(4)
C12 C 0.2869(3) 0.3234(6) 0.5574(4)
H8 H 0.2934 0.2931 0.6294
C13 C 0.2155(3) 0.3286(7) 0.5012(4)
H9 H 0.1748 0.3017 0.5348
C14 C 0.2038(2) 0.3746(6) 0.3924(4)
C15 C 0.2664(3) 0.4122(6) 0.3462(4)
H10 H 0.2603 0.4439 0.2745
C16 C 0.3372(2) 0.4034(6) 0.4043(4)
H11 H 0.3782 0.4266 0.3704
C17 C 0.0674(3) 0.3227(8) 0.3814(5)
H12 H 0.0685 0.1923 0.3884
H13 H 0.0219 0.3588 0.3360
H14 H 0.0692 0.3773 0.4504
C18 C 0.1184(3) 0.4159(9) 0.2234(5)
H15 H 0.1514 0.5105 0.2068
H16 H 0.0671 0.4535 0.2018
H17 H 0.1275 0.3064 0.1861
loop_
_geom_bond_atom_site_label_1
_geom_bond_atom_site_label_2
_geom_bond_site_symmetry_1
_geom_bond_site_symmetry_2
N1 O3 1_555 1_555
N2 O1 1_555 1_555
N3 C14 1_555 1_555
O1 C1 1_555 1_555
O2 C1 1_555 1_555
O4 N1 1_555 1_555
C1 C2 1_555 1_555
C2 H1 1_555 1_555
C3 C2 1_555 1_555
H2 C3 1_555 1_555
C4 C3 1_555 1_555
C5 C4 1_555 1_555
H3 C5 1_555 1_555
C6 N1 1_555 1_555
C7 C6 1_555 1_555
H4 C7 1_555 1_555
C8 C7 1_555 1_555
H5 C8 1_555 1_555
C9 C4 1_555 1_555
H6 C9 1_555 1_555
C10 N2 1_555 1_555
H7 C10 1_555 1_555
C11 C10 1_555 1_555
C12 C11 1_555 1_555
H8 C12 1_555 1_555
C13 C12 1_555 1_555
H9 C13 1_555 1_555
C14 C13 1_555 1_555
C15 C14 1_555 1_555
H10 C15 1_555 1_555
C16 C11 1_555 1_555
H11 C16 1_555 1_555
C17 N3 1_555 1_555
H12 C17 1_555 1_555
H13 C17 1_555 1_555
H14 C17 1_555 1_555
C18 N3 1_555 1_555
H15 C18 1_555 1_555
H16 C18 1_555 1_555
H17 C18 1_555 1_555
C5 C6 1_555 1_555
C8 C9 1_555 1_555
C15 C16 1_555 1_555

#END
