
#######################################################################
#
#                 Cambridge Crystallographic Data Centre
#                                CCDC 
#
#######################################################################
#
# If this CIF has been generated from an entry in the Cambridge 
# Structural Database, then it will include bibliographic, chemical, 
# crystal, experimental, refinement or atomic coordinate data resulting 
# from the CCDC's data processing and validation procedures.
#
#######################################################################

data_KERBOB
_chemical_formula_moiety         'C17 H19 N1 S1'
_chemical_name_systematic        10-isopropyl-1,9-dimethyl-10H-phenothiazine
_symmetry_cell_setting           monoclinic
_symmetry_space_group_name_H-M   'P 21/c'
_symmetry_Int_Tables_number      14
_space_group_name_Hall           '-P 2ybc'
loop_
_symmetry_equiv_pos_site_id
_symmetry_equiv_pos_as_xyz
1 x,y,z
2 -x,1/2+y,1/2-z
3 -x,-y,-z
4 x,1/2-y,1/2+z
_cell_length_a                   11.569(2)
_cell_length_b                   8.1080(16)
_cell_length_c                   15.585(3)
_cell_angle_alpha                90
_cell_angle_beta                 99.09(3)
_cell_angle_gamma                90
_cell_volume                     1443.54
_exptl_crystal_colour            colorless
_exptl_crystal_description       block
_cell_formula_units_Z            4
loop_
_atom_site_label
_atom_site_type_symbol
_atom_site_fract_x
_atom_site_fract_y
_atom_site_fract_z
S1 S 0.19595(3) 0.62955(4) 0.50560(2)
N1 N 0.26007(10) 0.45698(14) 0.34808(7)
C1 C 0.34968(12) 0.56512(17) 0.39221(9)
C2 C 0.45905(13) 0.57641(18) 0.36459(10)
C3 C 0.53968(13) 0.6907(2) 0.40556(11)
H1 H 0.6136 0.7013 0.3868
C4 C 0.51440(14) 0.78906(19) 0.47288(11)
H2 H 0.5696 0.8690 0.4980
C5 C 0.40944(14) 0.77161(18) 0.50369(10)
H3 H 0.3933 0.8357 0.5514
C6 C 0.32764(13) 0.65852(17) 0.46358(9)
C7 C 0.17450(12) 0.41772(17) 0.48189(9)
C8 C 0.12263(12) 0.3189(2) 0.53795(9)
H4 H 0.0953 0.3657 0.5869
C9 C 0.11134(13) 0.15135(19) 0.52154(9)
H5 H 0.0736 0.0830 0.5581
C10 C 0.15528(12) 0.08336(18) 0.45154(9)
H6 H 0.1495 -0.0323 0.4422
C11 C 0.20771(12) 0.18053(18) 0.39445(9)
C12 C 0.21379(11) 0.35140(16) 0.40872(8)
C13 C 0.49081(15) 0.4683(2) 0.29369(12)
H7 H 0.4455 0.3658 0.2911
H8 H 0.5746 0.4425 0.3057
H9 H 0.4731 0.5260 0.2379
C14 C 0.25854(15) 0.1016(2) 0.32145(11)
H10 H 0.270(4) -0.029(5) 0.333(2)
H11 H 0.338(4) 0.146(5) 0.317(3)
H12 H 0.207(4) 0.117(5) 0.268(3)
C15 C 0.16705(12) 0.55286(18) 0.29029(9)
H13 H 0.1390 0.6439 0.3251
C16 C 0.06361(13) 0.4428(2) 0.2560(1)
H14 H 0.0067 0.5055 0.2154
H15 H 0.0265 0.4040 0.3046
H16 H 0.0910 0.3479 0.2258
C17 C 0.21870(15) 0.6283(2) 0.2157(1)
H17 H 0.1586 0.6930 0.1790
H18 H 0.2466 0.5403 0.1810
H19 H 0.2843 0.7003 0.2389
H20? H 0.273(5) 0.172(7) 0.276(3)
H21? H 0.215(5) 0.022(7) 0.295(4)
H22? H 0.334(5) 0.040(7) 0.342(3)
loop_
_geom_bond_atom_site_label_1
_geom_bond_atom_site_label_2
_geom_bond_site_symmetry_1
_geom_bond_site_symmetry_2
S1 C6 1_555 1_555
N1 C1 1_555 1_555
C1 C2 1_555 1_555
C2 C3 1_555 1_555
C3 H1 1_555 1_555
C4 C3 1_555 1_555
H2 C4 1_555 1_555
C5 C4 1_555 1_555
H3 C5 1_555 1_555
C6 C1 1_555 1_555
C7 S1 1_555 1_555
C8 C7 1_555 1_555
H4 C8 1_555 1_555
C9 C8 1_555 1_555
H5 C9 1_555 1_555
C10 C9 1_555 1_555
H6 C10 1_555 1_555
C11 C10 1_555 1_555
C12 N1 1_555 1_555
C13 C2 1_555 1_555
H7 C13 1_555 1_555
H8 C13 1_555 1_555
H9 C13 1_555 1_555
C14 C11 1_555 1_555
H10 C14 1_555 1_555
H11 C14 1_555 1_555
H12 C14 1_555 1_555
C15 N1 1_555 1_555
H13 C15 1_555 1_555
C16 C15 1_555 1_555
H14 C16 1_555 1_555
H15 C16 1_555 1_555
H16 C16 1_555 1_555
C17 C15 1_555 1_555
H17 C17 1_555 1_555
H18 C17 1_555 1_555
H19 C17 1_555 1_555
C5 C6 1_555 1_555
C7 C12 1_555 1_555
C11 C12 1_555 1_555

#END
