
#######################################################################
#
#                 Cambridge Crystallographic Data Centre
#                                CCDC 
#
#######################################################################
#
# If this CIF has been generated from an entry in the Cambridge 
# Structural Database, then it will include bibliographic, chemical, 
# crystal, experimental, refinement or atomic coordinate data resulting 
# from the CCDC's data processing and validation procedures.
#
#######################################################################

data_KERCIU01
_chemical_formula_moiety         'C13 H10 N6 O2'
_chemical_name_systematic        1,1'-(Methylenebis(oxy))bis(1H-benzotriazole)
_symmetry_cell_setting           monoclinic
_symmetry_space_group_name_H-M   'P 21/c'
_symmetry_Int_Tables_number      14
_space_group_name_Hall           '-P 2ybc'
loop_
_symmetry_equiv_pos_site_id
_symmetry_equiv_pos_as_xyz
1 x,y,z
2 -x,1/2+y,1/2-z
3 -x,-y,-z
4 x,1/2-y,1/2+z
_cell_length_a                   7.9486(3)
_cell_length_b                   23.3687(8)
_cell_length_c                   7.9814(3)
_cell_angle_alpha                90
_cell_angle_beta                 119.370(2)
_cell_angle_gamma                90
_cell_volume                     1291.98
_exptl_crystal_colour            white
_exptl_crystal_description       block
_cell_formula_units_Z            4
loop_
_atom_site_label
_atom_site_type_symbol
_atom_site_fract_x
_atom_site_fract_y
_atom_site_fract_z
O1 O 0.60871(15) 0.10586(4) 0.64381(14)
O2 O 0.31381(15) 0.13679(4) 0.61111(15)
N1 N 0.75272(19) -0.02180(5) 0.88259(18)
N2 N 0.69916(19) 0.01065(5) 0.73257(17)
N3 N 0.65528(18) 0.06225(5) 0.77521(16)
N4 N 0.33207(17) 0.19533(5) 0.61160(16)
N5 N 0.48086(18) 0.22176(5) 0.76006(17)
N6 N 0.45153(19) 0.27664(5) 0.72983(18)
C1 C 0.68446(19) 0.06515(6) 0.95783(18)
C2 C 0.7457(2) 0.01008(6) 1.02453(19)
C3 C 0.7876(2) -0.00516(7) 1.2110(2)
C4 C 0.7678(2) 0.03630(7) 1.3199(2)
C5 C 0.7072(2) 0.09190(7) 1.2496(2)
C6 C 0.6640(2) 0.10797(6) 1.0681(2)
C7 C 0.2807(2) 0.28491(6) 0.5610(2)
C8 C 0.2003(2) 0.23226(6) 0.4832(2)
C9 C 0.0252(2) 0.22609(8) 0.3140(3)
C10 C -0.0644(3) 0.27623(10) 0.2280(3)
C11 C 0.0153(3) 0.32974(9) 0.3042(3)
C12 C 0.1862(3) 0.33533(7) 0.4696(3)
C13 C 0.4070(3) 0.10974(7) 0.5196(2)
H1 H 0.830(2) -0.0433(6) 1.254(2)
H2 H 0.793(2) 0.0274(7) 1.445(2)
H3 H 0.696(2) 0.1195(7) 1.329(2)
H4 H 0.619(2) 0.1454(6) 1.018(2)
H5 H -0.020(2) 0.1895(7) 0.269(2)
H6 H -0.178(3) 0.2749(8) 0.116(3)
H7 H -0.055(3) 0.3646(9) 0.233(3)
H8 H 0.240(3) 0.3717(8) 0.521(3)
H9 H 0.350(2) 0.0703(6) 0.484(2)
H10 H 0.393(2) 0.1344(6) 0.413(2)
loop_
_geom_bond_atom_site_label_1
_geom_bond_atom_site_label_2
_geom_bond_site_symmetry_1
_geom_bond_site_symmetry_2
O1 N3 1_555 1_555
O2 N4 1_555 1_555
N1 N2 1_555 1_555
N2 N3 1_555 1_555
N3 C1 1_555 1_555
N4 N5 1_555 1_555
N5 N6 1_555 1_555
N6 C7 1_555 1_555
C1 C2 1_555 1_555
C2 N1 1_555 1_555
C3 C2 1_555 1_555
C4 C3 1_555 1_555
C5 C4 1_555 1_555
C6 C1 1_555 1_555
C7 C8 1_555 1_555
C8 N4 1_555 1_555
C9 C8 1_555 1_555
C10 C9 1_555 1_555
C11 C10 1_555 1_555
C12 C7 1_555 1_555
C13 O1 1_555 1_555
H1 C3 1_555 1_555
H2 C4 1_555 1_555
H3 C5 1_555 1_555
H4 C6 1_555 1_555
H5 C9 1_555 1_555
H6 C10 1_555 1_555
H7 C11 1_555 1_555
H8 C12 1_555 1_555
H9 C13 1_555 1_555
H10 C13 1_555 1_555
O2 C13 1_555 1_555
C5 C6 1_555 1_555
C11 C12 1_555 1_555

#END
