
#######################################################################
#
#                 Cambridge Crystallographic Data Centre
#                                CCDC 
#
#######################################################################
#
# If this CIF has been generated from an entry in the Cambridge 
# Structural Database, then it will include bibliographic, chemical, 
# crystal, experimental, refinement or atomic coordinate data resulting 
# from the CCDC's data processing and validation procedures.
#
#######################################################################

data_KERDER
_chemical_formula_moiety         'C18 H14 Cl1 N3 O2 S2'
_chemical_name_systematic        
2-(4-Chlorophenyl)-3-(5-(4-methoxyphenyl)-1,3,4-thiadiazol-2-yl)thiazolidin-4-one
_symmetry_cell_setting           monoclinic
_symmetry_space_group_name_H-M   'P 21/n'
_symmetry_Int_Tables_number      14
_space_group_name_Hall           '-P 2yn'
loop_
_symmetry_equiv_pos_site_id
_symmetry_equiv_pos_as_xyz
1 x,y,z
2 1/2-x,1/2+y,1/2-z
3 -x,-y,-z
4 1/2+x,1/2-y,1/2+z
_cell_length_a                   6.4380(13)
_cell_length_b                   31.803(6)
_cell_length_c                   9.2650(19)
_cell_angle_alpha                90
_cell_angle_beta                 109.08(3)
_cell_angle_gamma                90
_cell_volume                     1792.77
_exptl_crystal_colour            yellow
_exptl_crystal_description       block
_chemical_melting_point          '473-474 K'
_cell_formula_units_Z            4
_exptl_crystal_recrystallization_method acetone
loop_
_atom_site_label
_atom_site_type_symbol
_atom_site_fract_x
_atom_site_fract_y
_atom_site_fract_z
Cl1 Cl 0.7348(3) 0.24799(4) -0.00829(14)
S1 S 0.31512(14) 0.05189(3) 0.41703(10)
S2 S 0.91017(18) 0.16660(4) 0.70437(12)
O1 O -0.1718(4) -0.10762(8) -0.0496(3)
O2 O 0.3529(4) 0.11141(9) 0.6334(3)
N1 N 0.5600(5) 0.03143(10) 0.2587(4)
N2 N 0.6628(5) 0.06572(10) 0.3465(4)
N3 N 0.6289(4) 0.11312(9) 0.5302(3)
C1 C -0.3652(6) -0.11969(13) -0.0178(5)
H1 H -0.4397 -0.1414 -0.0875
H2 H -0.4604 -0.0958 -0.0294
H3 H -0.3259 -0.1300 0.0850
C2 C -0.0436(5) -0.07679(11) 0.0396(4)
C3 C 0.1322(6) -0.06375(11) -0.0042(4)
H4 H 0.1565 -0.0759 -0.0886
C4 C 0.2714(6) -0.03271(11) 0.0772(4)
H5 H 0.3897 -0.0242 0.0477
C5 C 0.2365(5) -0.01394(10) 0.2036(4)
C6 C 0.0588(6) -0.02738(11) 0.2445(4)
H6 H 0.0324 -0.0149 0.3276
C7 C -0.0807(6) -0.05884(11) 0.1648(4)
H7 H -0.1977 -0.0677 0.1951
C8 C 0.3789(5) 0.02072(11) 0.2826(4)
C9 C 0.5540(5) 0.07890(11) 0.4323(4)
C10 C 0.5270(6) 0.12574(12) 0.6318(4)
C11 C 0.6550(7) 0.15904(14) 0.7385(5)
H8 H 0.6820 0.1504 0.8435
H9 H 0.5724 0.1851 0.7213
C12 C 0.8306(6) 0.13461(11) 0.5297(4)
H10 H 0.9452 0.1137 0.5366
C13 C 0.7991(5) 0.16178(11) 0.3899(4)
C14 C 0.9333(6) 0.15665(11) 0.3021(4)
H11 H 1.0379 0.1353 0.3256
C15 C 0.9140(7) 0.18305(13) 0.1786(4)
H12 H 1.0054 0.1796 0.1197
C16 C 0.7582(7) 0.21416(12) 0.1451(4)
C17 C 0.6198(7) 0.21933(13) 0.2277(5)
H13 H 0.5127 0.2402 0.2019
C18 C 0.6409(7) 0.19318(12) 0.3502(5)
H14 H 0.5474 0.1966 0.4074
loop_
_geom_bond_atom_site_label_1
_geom_bond_atom_site_label_2
_geom_bond_site_symmetry_1
_geom_bond_site_symmetry_2
Cl1 C16 1_555 1_555
S1 C8 1_555 1_555
S2 C11 1_555 1_555
O1 C1 1_555 1_555
O2 C10 1_555 1_555
N1 N2 1_555 1_555
N2 C9 1_555 1_555
N3 C9 1_555 1_555
C1 H1 1_555 1_555
H2 C1 1_555 1_555
H3 C1 1_555 1_555
C2 O1 1_555 1_555
C3 C2 1_555 1_555
H4 C3 1_555 1_555
C4 C3 1_555 1_555
H5 C4 1_555 1_555
C5 C4 1_555 1_555
C6 C5 1_555 1_555
H6 C6 1_555 1_555
C7 C2 1_555 1_555
H7 C7 1_555 1_555
C8 N1 1_555 1_555
C9 S1 1_555 1_555
C10 N3 1_555 1_555
C11 C10 1_555 1_555
H8 C11 1_555 1_555
H9 C11 1_555 1_555
C12 S2 1_555 1_555
H10 C12 1_555 1_555
C13 C12 1_555 1_555
C14 C13 1_555 1_555
H11 C14 1_555 1_555
C15 C14 1_555 1_555
H12 C15 1_555 1_555
C16 C15 1_555 1_555
C17 C16 1_555 1_555
H13 C17 1_555 1_555
C18 C13 1_555 1_555
H14 C18 1_555 1_555
N3 C12 1_555 1_555
C5 C8 1_555 1_555
C6 C7 1_555 1_555
C17 C18 1_555 1_555

#END
