
#######################################################################
#
#                 Cambridge Crystallographic Data Centre
#                                CCDC 
#
#######################################################################
#
# If this CIF has been generated from an entry in the Cambridge 
# Structural Database, then it will include bibliographic, chemical, 
# crystal, experimental, refinement or atomic coordinate data resulting 
# from the CCDC's data processing and validation procedures.
#
#######################################################################

data_KERFUL
_chemical_formula_moiety         'C37 H46 O15,H2 O1'
_chemical_name_systematic        
'4,5,6,10b-tetrakis(acetyloxy)-9-[2-(acetyloxy)-3-oxobutyl]-4a,8,8-trimethyl-7-oxododecahydro-1H-cycloocta[3,4]benzo[1,2-b]oxet-10-yl benzoate monohydrate'
_symmetry_cell_setting           orthorhombic
_symmetry_space_group_name_H-M   'P 21 21 21'
_symmetry_Int_Tables_number      19
_space_group_name_Hall           'P 2ac 2ab'
loop_
_symmetry_equiv_pos_site_id
_symmetry_equiv_pos_as_xyz
1 x,y,z
2 1/2-x,-y,1/2+z
3 -x,1/2+y,1/2-z
4 1/2+x,1/2-y,-z
_cell_length_a                   11.820(8)
_cell_length_b                   14.305(10)
_cell_length_c                   22.783(16)
_cell_angle_alpha                90
_cell_angle_beta                 90
_cell_angle_gamma                90
_cell_volume                     3852.27
_exptl_crystal_colour            colorless
_exptl_crystal_description       block
_cell_formula_units_Z            4
loop_
_atom_site_label
_atom_site_type_symbol
_atom_site_fract_x
_atom_site_fract_y
_atom_site_fract_z
C1 C 0.3375(3) 0.5620(2) -0.02338(14)
H1 H 0.2956 0.5349 -0.0564
C2 C 0.2925(3) 0.6639(2) -0.01775(15)
C3 C 0.1640(3) 0.6639(3) -0.01704(15)
C4 C 0.0929(3) 0.5920(3) -0.05274(14)
H2 H 0.0134 0.6114 -0.0515
C5 C 0.0992(3) 0.4868(2) -0.03765(15)
H3 H 0.1682 0.4611 -0.0553
C6 C 0.0955(3) 0.4567(2) 0.02756(15)
C7 C -0.0183(3) 0.4875(3) 0.05635(17)
H4 H -0.0393 0.5486 0.0401
C8 C -0.0219(4) 0.4946(5) 0.1233(2)
H5 H -0.0383 0.5590 0.1334
H6 H -0.0852 0.4572 0.1370
C9 C 0.0799(4) 0.4655(3) 0.15699(19)
H7 H 0.0792 0.4938 0.1962
C10 C 0.2168(4) 0.3761(3) 0.14576(19)
H8 H 0.2402 0.3365 0.1134
H9 H 0.2678 0.3691 0.1788
C11 C 0.1978(3) 0.4784(3) 0.12785(15)
C12 C 0.1954(3) 0.5065(2) 0.06183(15)
H10 H 0.1779 0.5734 0.0611
C13 C 0.3128(3) 0.4959(2) 0.02975(14)
H11 H 0.3200 0.4311 0.0163
C14 C 0.4646(3) 0.5558(3) -0.04155(15)
H12 H 0.4990 0.6172 -0.0381
H13 H 0.5039 0.5139 -0.0150
C15 C 0.4779(3) 0.5209(3) -0.10392(16)
H14 H 0.4329 0.5598 -0.1305
C16 C 0.4046(4) 0.3889(3) -0.1558(2)
C17 C 0.3754(5) 0.2895(3) -0.1496(3)
H15 H 0.3048 0.2838 -0.1290
H16 H 0.4338 0.2581 -0.1279
H17 H 0.3685 0.2617 -0.1878
C18 C 0.6005(4) 0.5192(3) -0.12453(18)
C19 C 0.6587(5) 0.6112(4) -0.1285(3)
H18 H 0.7305 0.6034 -0.1477
H19 H 0.6704 0.6357 -0.0898
H20 H 0.6129 0.6539 -0.1507
C20 C 0.3388(3) 0.7154(3) 0.03705(16)
H21 H 0.3148 0.7795 0.0362
H22 H 0.4200 0.7127 0.0370
H23 H 0.3104 0.6858 0.0719
C21 C 0.3253(4) 0.7233(3) -0.07267(17)
H24 H 0.3068 0.6892 -0.1077
H25 H 0.4050 0.7360 -0.0720
H26 H 0.2842 0.7812 -0.0721
C22 C 0.0685(5) 0.6369(4) -0.15374(19)
C23 C 0.1154(5) 0.6259(4) -0.21466(18)
H27 H 0.0710 0.6621 -0.2417
H28 H 0.1130 0.5612 -0.2258
H29 H 0.1923 0.6475 -0.2155
C24 C 0.0229(4) 0.3907(3) -0.11506(17)
C25 C -0.0834(4) 0.3627(4) -0.1447(2)
H30 H -0.0737 0.3670 -0.1865
H31 H -0.1436 0.4035 -0.1327
H32 H -0.1018 0.2995 -0.1343
C26 C 0.1061(4) 0.3486(2) 0.02596(18)
H33 H 0.0558 0.3239 -0.0032
H34 H 0.0866 0.3234 0.0637
H35 H 0.1825 0.3317 0.0164
C27 C -0.2018(4) 0.4515(4) 0.0180(2)
C28 C -0.2763(4) 0.3694(4) 0.0029(3)
H36 H -0.3299 0.3595 0.0339
H37 H -0.2305 0.3145 -0.0018
H38 H -0.3158 0.3819 -0.0330
C29 C 0.2326(5) 0.6236(4) 0.17720(18)
C30 C 0.3194(5) 0.6724(4) 0.2162(2)
H39 H 0.2880 0.7297 0.2308
H40 H 0.3862 0.6857 0.1938
H41 H 0.3386 0.6324 0.2486
C31 C 0.4631(3) 0.4411(3) 0.09221(18)
C32 C 0.5534(3) 0.4712(3) 0.13384(17)
C33 C 0.6109(4) 0.4037(4) 0.1652(2)
H42 H 0.5940 0.3408 0.1595
C34 C 0.6937(4) 0.4292(5) 0.2052(2)
H43 H 0.7331 0.3834 0.2258
C35 C 0.7173(4) 0.5204(5) 0.2144(2)
H44 H 0.7705 0.5370 0.2425
C36 C 0.6633(5) 0.5895(5) 0.1824(2)
H45 H 0.6828 0.6520 0.1873
C37 C 0.5790(4) 0.5639(4) 0.1424(2)
H46 H 0.5401 0.6097 0.1216
O1 O 0.1003(4) 0.3653(2) 0.16113(14)
O2 O 0.4345(2) 0.42734(18) -0.10392(11)
O3 O 0.4000(5) 0.4338(3) -0.20019(17)
O4 O 0.6449(3) 0.4480(3) -0.13882(19)
O5 O 0.1101(2) 0.72221(18) 0.00982(12)
O6 O 0.1307(2) 0.59472(19) -0.11349(10)
O7 O -0.0156(5) 0.6770(5) -0.14127(19)
O8 O 0.00196(19) 0.44842(18) -0.06897(11)
O9 O 0.1160(3) 0.3662(3) -0.12950(14)
O10 O -0.1037(2) 0.42020(17) 0.03884(11)
O11 O -0.2259(3) 0.5308(3) 0.0127(2)
O12 O 0.2710(2) 0.5380(2) 0.16226(11)
O13 O 0.1452(4) 0.6547(2) 0.16136(15)
O14 O 0.4023(2) 0.51401(17) 0.07228(10)
O15 O 0.4465(3) 0.3612(2) 0.07817(17)
O16 O 0.4153(8) 0.7339(7) 0.7780(3)
H47 H 0.3747 0.7645 0.7539
H48 H 0.4697 0.6976 0.7691
loop_
_geom_bond_atom_site_label_1
_geom_bond_atom_site_label_2
_geom_bond_site_symmetry_1
_geom_bond_site_symmetry_2
C1 H1 1_555 1_555
C2 C1 1_555 1_555
C3 C2 1_555 1_555
C4 C3 1_555 1_555
H2 C4 1_555 1_555
C5 C4 1_555 1_555
H3 C5 1_555 1_555
C6 C5 1_555 1_555
C7 C6 1_555 1_555
H4 C7 1_555 1_555
C8 C7 1_555 1_555
H5 C8 1_555 1_555
H6 C8 1_555 1_555
C9 C8 1_555 1_555
H7 C9 1_555 1_555
C10 H8 1_555 1_555
H9 C10 1_555 1_555
C11 C9 1_555 1_555
C12 C6 1_555 1_555
H10 C12 1_555 1_555
C13 C1 1_555 1_555
H11 C13 1_555 1_555
C14 C1 1_555 1_555
H12 C14 1_555 1_555
H13 C14 1_555 1_555
C15 C14 1_555 1_555
H14 C15 1_555 1_555
C16 C17 1_555 1_555
C17 H15 1_555 1_555
H16 C17 1_555 1_555
H17 C17 1_555 1_555
C18 C15 1_555 1_555
C19 C18 1_555 1_555
H18 C19 1_555 1_555
H19 C19 1_555 1_555
H20 C19 1_555 1_555
C20 C2 1_555 1_555
H21 C20 1_555 1_555
H22 C20 1_555 1_555
H23 C20 1_555 1_555
C21 C2 1_555 1_555
H24 C21 1_555 1_555
H25 C21 1_555 1_555
H26 C21 1_555 1_555
C22 C23 1_555 1_555
C23 H27 1_555 1_555
H28 C23 1_555 1_555
H29 C23 1_555 1_555
C24 C25 1_555 1_555
C25 H30 1_555 1_555
H31 C25 1_555 1_555
H32 C25 1_555 1_555
C26 C6 1_555 1_555
H33 C26 1_555 1_555
H34 C26 1_555 1_555
H35 C26 1_555 1_555
C27 C28 1_555 1_555
C28 H36 1_555 1_555
H37 C28 1_555 1_555
H38 C28 1_555 1_555
C29 C30 1_555 1_555
C30 H39 1_555 1_555
H40 C30 1_555 1_555
H41 C30 1_555 1_555
C31 C32 1_555 1_555
C32 C33 1_555 1_555
C33 H42 1_555 1_555
C34 C33 1_555 1_555
H43 C34 1_555 1_555
C35 C34 1_555 1_555
H44 C35 1_555 1_555
C36 C35 1_555 1_555
H45 C36 1_555 1_555
C37 C32 1_555 1_555
H46 C37 1_555 1_555
O1 C9 1_555 1_555
O2 C15 1_555 1_555
O3 C16 1_555 1_555
O4 C18 1_555 1_555
O5 C3 1_555 1_555
O6 C4 1_555 1_555
O7 C22 1_555 1_555
O8 C5 1_555 1_555
O9 C24 1_555 1_555
O10 C7 1_555 1_555
O11 C27 1_555 1_555
O12 C11 1_555 1_555
O13 C29 1_555 1_555
O14 C13 1_555 1_555
O15 C31 1_555 1_555
O16 H47 1_555 1_555
H48 O16 1_555 1_555
C10 C11 1_555 1_555
C10 O1 1_555 1_555
C11 C12 1_555 1_555
C12 C13 1_555 1_555
C16 O2 1_555 1_555
C22 O6 1_555 1_555
C24 O8 1_555 1_555
C27 O10 1_555 1_555
C29 O12 1_555 1_555
C31 O14 1_555 1_555
C36 C37 1_555 1_555

#END
