
#######################################################################
#
#                 Cambridge Crystallographic Data Centre
#                                CCDC 
#
#######################################################################
#
# If this CIF has been generated from an entry in the Cambridge 
# Structural Database, then it will include bibliographic, chemical, 
# crystal, experimental, refinement or atomic coordinate data resulting 
# from the CCDC's data processing and validation procedures.
#
#######################################################################

data_KERGUL
_chemical_formula_moiety         'C21 H30 N2 O4'
_chemical_name_systematic        
't-Butyl (13-ethyl-13-hydroxy-5-methoxy-11-methyl-6-azatricyclo[7.3.1.0^2,7^]trideca-2,4,6,11-tetraen-1-yl)carbamate'
_symmetry_cell_setting           orthorhombic
_symmetry_space_group_name_H-M   'P 21 21 21'
_symmetry_Int_Tables_number      19
_space_group_name_Hall           'P 2ac 2ab'
loop_
_symmetry_equiv_pos_site_id
_symmetry_equiv_pos_as_xyz
1 x,y,z
2 1/2-x,-y,1/2+z
3 -x,1/2+y,1/2-z
4 1/2+x,1/2-y,-z
_cell_length_a                   9.9069(9)
_cell_length_b                   10.5077(9)
_cell_length_c                   20.4388(19)
_cell_angle_alpha                90
_cell_angle_beta                 90
_cell_angle_gamma                90
_cell_volume                     2127.65
_cell_formula_units_Z            4
loop_
_atom_site_label
_atom_site_type_symbol
_atom_site_fract_x
_atom_site_fract_y
_atom_site_fract_z
N1 N 0.0273(2) 0.75844(17) 0.77507(9)
N2 N 0.1548(2) 0.60418(18) 0.98765(9)
O1 O 0.38148(15) 0.78943(14) 0.98834(7)
H1 H 0.3874 0.7168 1.0028
O2 O -0.16264(19) 0.67469(16) 0.72497(9)
O3 O 0.34760(19) 0.54261(19) 1.03856(9)
O4 O 0.14165(16) 0.48823(14) 1.07716(7)
C1 C 0.2736(2) 0.7952(2) 0.94126(10)
C2 C 0.2154(2) 0.66028(19) 0.92842(10)
C3 C 0.3250(2) 0.5738(2) 0.90240(11)
H2 H 0.3189 0.4872 0.9114
C4 C 0.4285(2) 0.6142(2) 0.86767(12)
C5 C 0.4511(2) 0.7529(3) 0.85583(11)
H3 H 0.4681 0.7655 0.8095
H4 H 0.5317 0.7788 0.8793
C6 C 0.3347(2) 0.8397(2) 0.87639(10)
H5 H 0.3728 0.9245 0.8839
C7 C 0.2243(3) 0.8541(2) 0.82439(11)
H6 H 0.1819 0.9366 0.8299
H7 H 0.2666 0.8533 0.7816
C8 C 0.1162(2) 0.7538(2) 0.82555(10)
C9 C 0.1069(2) 0.66551(19) 0.87510(10)
C10 C 0.0041(2) 0.5752(2) 0.87112(11)
H8 H -0.0038 0.5130 0.9033
C11 C -0.0847(2) 0.5780(2) 0.82015(12)
H9 H -0.1531 0.5178 0.8167
C12 C -0.0700(2) 0.6727(2) 0.77391(11)
C13 C 0.5360(3) 0.5252(3) 0.84186(15)
H10 H 0.5085 0.4386 0.8489
H11 H 0.6194 0.5407 0.8644
H12 H 0.5484 0.5396 0.7959
C14 C 0.1667(2) 0.8847(2) 0.96847(11)
H13 H 0.0918 0.8875 0.9380
H14 H 0.1332 0.8495 1.0092
C15 C 0.2143(3) 1.0200(2) 0.98110(15)
H15 H 0.2416 1.0583 0.9406
H16 H 0.2893 1.0186 1.0108
H17 H 0.1419 1.0685 0.9999
C16 C -0.1532(3) 0.7741(3) 0.67798(13)
H18 H -0.0710 0.7650 0.6536
H19 H -0.1535 0.8548 0.6999
H20 H -0.2288 0.7695 0.6487
C17 C 0.2253(3) 0.5453(2) 1.03490(11)
C18 C 0.1961(3) 0.4146(2) 1.13280(12)
C19 C 0.0679(4) 0.3662(4) 1.16404(19)
H21 H 0.0167 0.3190 1.1324
H22 H 0.0154 0.4369 1.1794
H23 H 0.0902 0.3119 1.2002
C20 C 0.2739(4) 0.5002(3) 1.17776(16)
H24 H 0.2238 0.5770 1.1851
H25 H 0.3594 0.5206 1.1583
H26 H 0.2885 0.4577 1.2187
C21 C 0.2800(4) 0.3052(3) 1.10844(14)
H27 H 0.3584 0.3374 1.0863
H28 H 0.2276 0.2547 1.0787
H29 H 0.3077 0.2536 1.1448
H30 H 0.070(3) 0.621(2) 0.9958(11)
loop_
_geom_bond_atom_site_label_1
_geom_bond_atom_site_label_2
_geom_bond_site_symmetry_1
_geom_bond_site_symmetry_2
N1 C8 1_555 1_555
N2 C2 1_555 1_555
O1 H1 1_555 1_555
O2 C12 1_555 1_555
O3 C17 1_555 1_555
O4 C17 1_555 1_555
C1 O1 1_555 1_555
C2 C1 1_555 1_555
C3 C2 1_555 1_555
H2 C3 1_555 1_555
C4 C3 1_555 1_555
C5 C4 1_555 1_555
H3 C5 1_555 1_555
H4 C5 1_555 1_555
C6 C1 1_555 1_555
H5 C6 1_555 1_555
C7 C6 1_555 1_555
H6 C7 1_555 1_555
H7 C7 1_555 1_555
C8 C7 1_555 1_555
C9 C2 1_555 1_555
C10 C9 1_555 1_555
H8 C10 1_555 1_555
C11 C10 1_555 1_555
H9 C11 1_555 1_555
C12 N1 1_555 1_555
C13 C4 1_555 1_555
H10 C13 1_555 1_555
H11 C13 1_555 1_555
H12 C13 1_555 1_555
C14 C1 1_555 1_555
H13 C14 1_555 1_555
H14 C14 1_555 1_555
C15 C14 1_555 1_555
H15 C15 1_555 1_555
H16 C15 1_555 1_555
H17 C15 1_555 1_555
C16 O2 1_555 1_555
H18 C16 1_555 1_555
H19 C16 1_555 1_555
H20 C16 1_555 1_555
C17 N2 1_555 1_555
C18 O4 1_555 1_555
C19 C18 1_555 1_555
H21 C19 1_555 1_555
H22 C19 1_555 1_555
H23 C19 1_555 1_555
C20 C18 1_555 1_555
H24 C20 1_555 1_555
H25 C20 1_555 1_555
H26 C20 1_555 1_555
C21 C18 1_555 1_555
H27 C21 1_555 1_555
H28 C21 1_555 1_555
H29 C21 1_555 1_555
H30 N2 1_555 1_555
C5 C6 1_555 1_555
C8 C9 1_555 1_555
C11 C12 1_555 1_555

#END
