
#######################################################################
#
#                 Cambridge Crystallographic Data Centre
#                                CCDC 
#
#######################################################################
#
# If this CIF has been generated from an entry in the Cambridge 
# Structural Database, then it will include bibliographic, chemical, 
# crystal, experimental, refinement or atomic coordinate data resulting 
# from the CCDC's data processing and validation procedures.
#
#######################################################################

data_KERGET
_chemical_formula_moiety         'C18 H16'
_chemical_name_systematic        
cis-transoid-cis-Cyclobuta(1,2-a;3,4-a')di-indene
_symmetry_cell_setting           monoclinic
_symmetry_space_group_name_H-M   'P 21'
_symmetry_Int_Tables_number      4
_space_group_name_Hall           'P 2yb'
loop_
_symmetry_equiv_pos_site_id
_symmetry_equiv_pos_as_xyz
1 x,y,z
2 -x,1/2+y,-z
_cell_length_a                   7.162(2)
_cell_length_b                   6.320(3)
_cell_length_c                   13.647(2)
_cell_angle_alpha                90
_cell_angle_beta                 97.60(8)
_cell_angle_gamma                90
_cell_volume                     612.289
_cell_formula_units_Z            2
loop_
_atom_site_label
_atom_site_type_symbol
_atom_site_fract_x
_atom_site_fract_y
_atom_site_fract_z
C1 C 0.1569(8) 0.6744(9) 0.7969(4)
C2 C 0.3556(6) 0.7162(9) 0.7642(4)
C3 C 0.3387(7) 0.5114(8) 0.7004(4)
C4 C 0.1421(9) 0.4701(7) 0.7303(5)
C5 C -0.2452(9) 0.774(1) 0.6024(5)
C6 C -0.3105(9) 0.639(1) 0.5199(4)
C7 C -0.2355(9) 0.450(1) 0.5081(5)
C8 C -0.0910(8) 0.384(1) 0.5739(5)
C9 C -0.0127(7) 0.5035(8) 0.6531(4)
C10 C -0.1018(7) 0.7081(8) 0.6640(4)
C11 C 0.5860(8) 0.8000(9) 0.9244(4)
C12 C 0.7403(8) 0.726(1) 0.9905(4)
C13 C 0.8230(7) 0.528(1) 0.9791(5)
C14 C 0.7531(7) 0.4062(9) 0.9026(4)
C15 C 0.5954(8) 0.4746(9) 0.8310(5)
C16 C 0.5244(7) 0.6668(9) 0.8448(4)
C17 C -0.0018(8) 0.8199(9) 0.7556(4)
C18 C 0.5054(8) 0.363(1) 0.7432(5)
H1 H 0.1474 0.6797 0.8656
H2 H 0.3768 0.8548 0.7411
H3 H 0.3471 0.5031 0.6316
H4 H 0.1193 0.3322 0.7538
H5 H -0.3040 0.9059 0.6116
H6 H -0.4104 0.6871 0.4723
H7 H -0.2834 0.3632 0.4538
H8 H -0.0404 0.2472 0.5652
H9 H 0.5276 0.9320 0.9334
H10 H 0.7897 0.8130 1.0445
H11 H 0.9264 0.4813 1.0247
H12 H 0.8078 0.2714 0.8947
H13 H 0.0467 0.9525 0.7380
H14 H -0.0862 0.8409 0.8028
H15 H 0.5914 0.3446 0.6965
H16 H 0.4594 0.2290 0.7605
loop_
_geom_bond_atom_site_label_1
_geom_bond_atom_site_label_2
_geom_bond_site_symmetry_1
_geom_bond_site_symmetry_2
C1 C2 1_555 1_555
C2 C3 1_555 1_555
C3 C4 1_555 1_555
C4 C1 1_555 1_555
C5 C6 1_555 1_555
C6 C7 1_555 1_555
C7 C8 1_555 1_555
C8 C9 1_555 1_555
C9 C4 1_555 1_555
C10 C5 1_555 1_555
C11 C12 1_555 1_555
C12 C13 1_555 1_555
C13 C14 1_555 1_555
C14 C15 1_555 1_555
C15 C16 1_555 1_555
C16 C2 1_555 1_555
C17 C1 1_555 1_555
C18 C3 1_555 1_555
H1 C1 1_555 1_555
H2 C2 1_555 1_555
H3 C3 1_555 1_555
H4 C4 1_555 1_555
H5 C5 1_555 1_555
H6 C6 1_555 1_555
H7 C7 1_555 1_555
H8 C8 1_555 1_555
H9 C11 1_555 1_555
H10 C12 1_555 1_555
H11 C13 1_555 1_555
H12 C14 1_555 1_555
H13 C17 1_555 1_555
H14 C17 1_555 1_555
H15 C18 1_555 1_555
H16 C18 1_555 1_555
C9 C10 1_555 1_555
C10 C17 1_555 1_555
C11 C16 1_555 1_555
C15 C18 1_555 1_555

#END
