
#######################################################################
#
#                 Cambridge Crystallographic Data Centre
#                                CCDC 
#
#######################################################################
#
# If this CIF has been generated from an entry in the Cambridge 
# Structural Database, then it will include bibliographic, chemical, 
# crystal, experimental, refinement or atomic coordinate data resulting 
# from the CCDC's data processing and validation procedures.
#
#######################################################################

data_KERGUK
_chemical_formula_moiety         'C22 H22 O4'
_chemical_name_systematic        'Di-n-propyl anthracene-1,8-dicarboxylate'
_symmetry_cell_setting           orthorhombic
_symmetry_space_group_name_H-M   'P 21 21 21'
_symmetry_Int_Tables_number      19
_space_group_name_Hall           'P 2ac 2ab'
loop_
_symmetry_equiv_pos_site_id
_symmetry_equiv_pos_as_xyz
1 x,y,z
2 1/2-x,-y,1/2+z
3 -x,1/2+y,1/2-z
4 1/2+x,1/2-y,-z
_cell_length_a                   7.6072(12)
_cell_length_b                   13.725(2)
_cell_length_c                   17.628(3)
_cell_angle_alpha                90
_cell_angle_beta                 90
_cell_angle_gamma                90
_cell_volume                     1840.52
_exptl_crystal_colour            yellow
_exptl_crystal_description       Block
_cell_formula_units_Z            4
_exptl_crystal_recrystallization_method 'ethyl acetate'
loop_
_atom_site_label
_atom_site_type_symbol
_atom_site_fract_x
_atom_site_fract_y
_atom_site_fract_z
O1 O 0.1818(3) 0.32359(13) 0.26988(9)
O2 O 0.1549(4) 0.46521(14) 0.20946(10)
O3 O 0.4192(3) 0.68552(14) 0.14825(10)
O4 O 0.3455(3) 0.83886(13) 0.12106(9)
C1 C 0.3583(3) 0.79726(18) 0.24993(13)
C2 C 0.3896(4) 0.89288(19) 0.26697(15)
H1 H 0.4114 0.9366 0.2278
C3 C 0.3897(4) 0.9271(2) 0.34262(15)
H2 H 0.4134 0.9922 0.3529
C4 C 0.3553(4) 0.8646(2) 0.39988(15)
H3 H 0.3547 0.8876 0.4495
C5 C 0.2013(4) 0.5387(2) 0.49368(14)
H4 H 0.2083 0.5618 0.5432
C6 C 0.1519(4) 0.4457(2) 0.48133(15)
H5 H 0.1229 0.4056 0.5220
C7 C 0.1443(4) 0.4094(2) 0.40650(15)
H6 H 0.1100 0.3451 0.3988
C8 C 0.1853(4) 0.46513(19) 0.34524(13)
C9 C 0.2784(3) 0.63006(18) 0.29678(13)
H7 H 0.2788 0.6066 0.2473
C10 C 0.2842(4) 0.6995(2) 0.44475(13)
H8 H 0.2881 0.7224 0.4944
C11 C 0.3201(4) 0.76422(19) 0.38605(14)
C12 C 0.3200(4) 0.72818(19) 0.30942(13)
C13 C 0.2362(3) 0.56580(19) 0.35599(13)
C14 C 0.2427(4) 0.60186(19) 0.43256(14)
C15 C 0.1725(4) 0.4213(2) 0.26765(15)
C16 C 0.1793(4) 0.27457(19) 0.19715(13)
H9 H 0.2725 0.2996 0.1651
H10 H 0.0678 0.2860 0.1720
C17 C 0.2049(4) 0.16729(19) 0.21019(13)
H11 H 0.1041 0.1413 0.2371
H12 H 0.3082 0.1571 0.2415
C18 C 0.2272(4) 0.1135(2) 0.13542(14)
H13 H 0.1303 0.1285 0.1025
H14 H 0.2303 0.0446 0.1447
H15 H 0.3351 0.1333 0.1118
C19 C 0.3757(4) 0.7654(2) 0.16912(14)
C20 C 0.3789(5) 0.8176(2) 0.04153(13)
H16 H 0.2925 0.7715 0.0228
H17 H 0.4946 0.7889 0.0358
C21 C 0.3682(4) 0.9097(2) -0.00247(14)
H18 H 0.4493 0.9571 0.0186
H19 H 0.2503 0.9362 0.0011
C22 C 0.4139(5) 0.8907(2) -0.08537(15)
H20 H 0.5247 0.8574 -0.0883
H21 H 0.4217 0.9516 -0.1120
H22 H 0.3240 0.8511 -0.1080
loop_
_geom_bond_atom_site_label_1
_geom_bond_atom_site_label_2
_geom_bond_site_symmetry_1
_geom_bond_site_symmetry_2
O1 C15 1_555 1_555
O2 C15 1_555 1_555
O3 C19 1_555 1_555
O4 C19 1_555 1_555
C1 C2 1_555 1_555
C2 H1 1_555 1_555
C3 C2 1_555 1_555
H2 C3 1_555 1_555
C4 C3 1_555 1_555
H3 C4 1_555 1_555
C5 H4 1_555 1_555
C6 C5 1_555 1_555
H5 C6 1_555 1_555
C7 C6 1_555 1_555
H6 C7 1_555 1_555
C8 C7 1_555 1_555
C9 H7 1_555 1_555
C10 H8 1_555 1_555
C11 C4 1_555 1_555
C12 C1 1_555 1_555
C13 C8 1_555 1_555
C14 C5 1_555 1_555
C15 C8 1_555 1_555
C16 O1 1_555 1_555
H9 C16 1_555 1_555
H10 C16 1_555 1_555
C17 C16 1_555 1_555
H11 C17 1_555 1_555
H12 C17 1_555 1_555
C18 C17 1_555 1_555
H13 C18 1_555 1_555
H14 C18 1_555 1_555
H15 C18 1_555 1_555
C19 C1 1_555 1_555
C20 O4 1_555 1_555
H16 C20 1_555 1_555
H17 C20 1_555 1_555
C21 C20 1_555 1_555
H18 C21 1_555 1_555
H19 C21 1_555 1_555
C22 C21 1_555 1_555
H20 C22 1_555 1_555
H21 C22 1_555 1_555
H22 C22 1_555 1_555
C9 C12 1_555 1_555
C9 C13 1_555 1_555
C10 C11 1_555 1_555
C10 C14 1_555 1_555
C11 C12 1_555 1_555
C13 C14 1_555 1_555

#END
