
#######################################################################
#
#                 Cambridge Crystallographic Data Centre
#                                CCDC 
#
#######################################################################
#
# If this CIF has been generated from an entry in the Cambridge 
# Structural Database, then it will include bibliographic, chemical, 
# crystal, experimental, refinement or atomic coordinate data resulting 
# from the CCDC's data processing and validation procedures.
#
#######################################################################

data_KERGAP
_chemical_formula_moiety         'C18 H16'
_chemical_name_systematic        
cis-transoid-cis-Cyclobuta(1,2-a;4,3-a')di-indene
_symmetry_cell_setting           orthorhombic
_symmetry_space_group_name_H-M   'P b c a'
_symmetry_Int_Tables_number      61
_space_group_name_Hall           '-P 2ac 2ab'
loop_
_symmetry_equiv_pos_site_id
_symmetry_equiv_pos_as_xyz
1 x,y,z
2 1/2-x,-y,1/2+z
3 1/2+x,1/2-y,-z
4 -x,1/2+y,1/2-z
5 -x,-y,-z
6 1/2+x,y,1/2-z
7 1/2-x,1/2+y,z
8 x,1/2-y,1/2+z
_cell_length_a                   12.510(2)
_cell_length_b                   13.805(9)
_cell_length_c                   14.897(4)
_cell_angle_alpha                90
_cell_angle_beta                 90
_cell_angle_gamma                90
_cell_volume                     2572.72
_cell_formula_units_Z            8
loop_
_atom_site_label
_atom_site_type_symbol
_atom_site_fract_x
_atom_site_fract_y
_atom_site_fract_z
C1 C 0.3337(9) 0.5671(8) 0.0220(8)
C2 C 0.3367(10) 0.6686(8) -0.0226(8)
C3 C 0.2129(9) 0.6810(8) -0.0043(7)
C4 C 0.2080(9) 0.5697(7) 0.0191(7)
C5 C 0.2604(11) 0.3915(9) -0.1618(8)
C6 C 0.1603(13) 0.3826(10) -0.2007(8)
C7 C 0.0701(11) 0.4342(9) -0.1724(8)
C8 C 0.0785(10) 0.4963(9) -0.1012(8)
C9 C 0.1780(9) 0.5071(8) -0.0599(7)
C10 C 0.2693(12) 0.4565(8) -0.0891(7)
C11 C 0.3245(10) 0.8492(9) 0.1664(8)
C12 C 0.2324(13) 0.8683(9) 0.2154(8)
C13 C 0.1303(11) 0.8319(9) 0.1980(8)
C14 C 0.1215(9) 0.7685(8) 0.1272(8)
C15 C 0.2098(9) 0.7475(9) 0.0759(7)
C16 C 0.3123(8) 0.7829(8) 0.0950(8)
C17 C 0.3691(10) 0.4809(9) -0.0382(9)
C18 C 0.3947(8) 0.7480(10) 0.0311(8)
H1 H 0.3755 0.5583 0.0746
H2 H 0.3692 0.6732 -0.0801
H3 H 0.1607 0.7055 -0.0446
H4 H 0.1622 0.5499 0.0665
H5 H 0.3200 0.3556 -0.1831
H6 H 0.1524 0.3389 -0.2495
H7 H 0.0037 0.4262 -0.2024
H8 H 0.0180 0.5314 -0.0804
H9 H 0.3912 0.8787 0.1799
H10 H 0.2396 0.9102 0.2657
H11 H 0.0701 0.8500 0.2331
H12 H 0.0546 0.7393 0.1138
H13 H 0.4249 0.4996 -0.0779
H14 H 0.3921 0.4276 -0.0028
H15 H 0.4177 0.7989 -0.0073
H16 H 0.4545 0.7221 0.0621
loop_
_geom_bond_atom_site_label_1
_geom_bond_atom_site_label_2
_geom_bond_site_symmetry_1
_geom_bond_site_symmetry_2
C1 C2 1_555 1_555
C2 C3 1_555 1_555
C3 C4 1_555 1_555
C4 C1 1_555 1_555
C5 C6 1_555 1_555
C6 C7 1_555 1_555
C7 C8 1_555 1_555
C8 C9 1_555 1_555
C9 C4 1_555 1_555
C10 C5 1_555 1_555
C11 C12 1_555 1_555
C12 C13 1_555 1_555
C13 C14 1_555 1_555
C14 C15 1_555 1_555
C15 C3 1_555 1_555
C16 C11 1_555 1_555
C17 C1 1_555 1_555
C18 C2 1_555 1_555
H1 C1 1_555 1_555
H2 C2 1_555 1_555
H3 C3 1_555 1_555
H4 C4 1_555 1_555
H5 C5 1_555 1_555
H6 C6 1_555 1_555
H7 C7 1_555 1_555
H8 C8 1_555 1_555
H9 C11 1_555 1_555
H10 C12 1_555 1_555
H11 C13 1_555 1_555
H12 C14 1_555 1_555
H13 C17 1_555 1_555
H14 C17 1_555 1_555
H15 C18 1_555 1_555
H16 C18 1_555 1_555
C9 C10 1_555 1_555
C10 C17 1_555 1_555
C15 C16 1_555 1_555
C16 C18 1_555 1_555

#END
