
#######################################################################
#
#                 Cambridge Crystallographic Data Centre
#                                CCDC 
#
#######################################################################
#
# If this CIF has been generated from an entry in the Cambridge 
# Structural Database, then it will include bibliographic, chemical, 
# crystal, experimental, refinement or atomic coordinate data resulting 
# from the CCDC's data processing and validation procedures.
#
#######################################################################

data_KERGIX
_chemical_formula_moiety         'C17 H16'
_chemical_name_systematic        
endo-2-Phenyl-2,2a,7,7a-tetrahydro-1H-cyclobut(a)indene
_symmetry_cell_setting           monoclinic
_symmetry_space_group_name_H-M   'P 21/c'
_symmetry_Int_Tables_number      14
_space_group_name_Hall           '-P 2ybc'
loop_
_symmetry_equiv_pos_site_id
_symmetry_equiv_pos_as_xyz
1 x,y,z
2 -x,1/2+y,1/2-z
3 -x,-y,-z
4 x,1/2-y,1/2+z
_cell_length_a                   13.290(2)
_cell_length_b                   5.842(11)
_cell_length_c                   17.003(2)
_cell_angle_alpha                90
_cell_angle_beta                 109.44(1)
_cell_angle_gamma                90
_cell_volume                     1244.86
_cell_formula_units_Z            4
loop_
_atom_site_label
_atom_site_type_symbol
_atom_site_fract_x
_atom_site_fract_y
_atom_site_fract_z
C1 C 0.8891(4) -0.0304(8) 0.8705(3)
C2 C 0.9543(4) -0.2607(9) 0.8917(4)
C3 C 0.8659(5) -0.3499(9) 0.9266(3)
C4 C 0.8244(4) -0.1026(9) 0.9290(3)
C5 C 0.7096(4) -0.0550(8) 0.9052(3)
C6 C 0.6758(5) 0.1375(9) 0.9371(3)
C7 C 0.5667(5) 0.187(1) 0.9162(4)
C8 C 0.4892(5) 0.048(1) 0.8623(4)
C9 C 0.5246(5) -0.142(1) 0.8302(4)
C10 C 0.6326(4) -0.1929(9) 0.8504(3)
C11 C 0.8319(3) -0.0483(7) 0.7785(3)
C12 C 0.7560(4) 0.0997(8) 0.7280(3)
C13 C 0.7124(4) 0.055(1) 0.6432(3)
C14 C 0.7440(5) -0.136(1) 0.6086(3)
C15 C 0.8211(4) -0.2864(9) 0.6595(3)
C16 C 0.8655(4) -0.2405(8) 0.7446(3)
C17 C 0.9533(4) -0.3644(9) 0.8101(4)
H1 H 0.9172 0.1207 0.8786
H2 H 1.0270 -0.2758 0.9252
H3 H 0.8934 -0.4190 0.9799
H4 H 0.8152 -0.4496 0.8895
H5 H 0.8340 -0.0263 0.9804
H6 H 0.7270 0.2371 0.9736
H7 H 0.5454 0.3190 0.9394
H8 H 0.4153 0.0811 0.8482
H9 H 0.4735 -0.2407 0.7929
H10 H 0.6536 -0.3238 0.8264
H11 H 0.7340 0.2306 0.7514
H12 H 0.6606 0.1559 0.6085
H13 H 0.7135 -0.1656 0.5504
H14 H 0.8426 -0.4176 0.6359
H15 H 0.9385 -0.5237 0.8085
H16 H 1.0199 -0.3407 0.8020
loop_
_geom_bond_atom_site_label_1
_geom_bond_atom_site_label_2
_geom_bond_site_symmetry_1
_geom_bond_site_symmetry_2
C1 C2 1_555 1_555
C2 C3 1_555 1_555
C3 C4 1_555 1_555
C4 C1 1_555 1_555
C5 C4 1_555 1_555
C6 C5 1_555 1_555
C7 C6 1_555 1_555
C8 C7 1_555 1_555
C9 C8 1_555 1_555
C10 C5 1_555 1_555
C11 C1 1_555 1_555
C12 C11 1_555 1_555
C13 C12 1_555 1_555
C14 C13 1_555 1_555
C15 C14 1_555 1_555
C16 C11 1_555 1_555
C17 C2 1_555 1_555
H1 C1 1_555 1_555
H2 C2 1_555 1_555
H3 C3 1_555 1_555
H4 C3 1_555 1_555
H5 C4 1_555 1_555
H6 C6 1_555 1_555
H7 C7 1_555 1_555
H8 C8 1_555 1_555
H9 C9 1_555 1_555
H10 C10 1_555 1_555
H11 C12 1_555 1_555
H12 C13 1_555 1_555
H13 C14 1_555 1_555
H14 C15 1_555 1_555
H15 C17 1_555 1_555
H16 C17 1_555 1_555
C9 C10 1_555 1_555
C15 C16 1_555 1_555
C16 C17 1_555 1_555

#END
