
#######################################################################
#
#                 Cambridge Crystallographic Data Centre
#                                CCDC 
#
#######################################################################
#
# If this CIF has been generated from an entry in the Cambridge 
# Structural Database, then it will include bibliographic, chemical, 
# crystal, experimental, refinement or atomic coordinate data resulting 
# from the CCDC's data processing and validation procedures.
#
#######################################################################

data_KERHEU
_chemical_formula_moiety         'C20 H24'
_chemical_name_systematic        
1,1,2,2-Tetramethyl-trans-3,4-diphenylcyclobutane
_symmetry_cell_setting           monoclinic
_symmetry_space_group_name_H-M   'P 21/n'
_symmetry_Int_Tables_number      14
_space_group_name_Hall           '-P 2yn'
loop_
_symmetry_equiv_pos_site_id
_symmetry_equiv_pos_as_xyz
1 x,y,z
2 1/2-x,1/2+y,1/2-z
3 -x,-y,-z
4 1/2+x,1/2-y,1/2+z
_cell_length_a                   10.014(3)
_cell_length_b                   16.749(2)
_cell_length_c                   19.671(4)
_cell_angle_alpha                90
_cell_angle_beta                 76.68(6)
_cell_angle_gamma                90
_cell_volume                     3210.55
_cell_formula_units_Z            8
loop_
_atom_site_label
_atom_site_type_symbol
_atom_site_fract_x
_atom_site_fract_y
_atom_site_fract_z
C1 C -0.2758(5) 0.1093(3) 0.5525(2)
C2 C -0.1927(5) 0.0883(3) 0.6101(2)
C3 C -0.0714(5) 0.1374(3) 0.5654(2)
C4 C -0.1742(5) 0.1798(3) 0.5314(2)
C5 C 0.0246(5) 0.1815(3) 0.6006(2)
C6 C 0.1134(6) 0.1388(3) 0.6326(3)
C7 C 0.2013(6) 0.1769(4) 0.6670(3)
C8 C 0.2042(6) 0.2585(4) 0.6694(3)
C9 C 0.1201(7) 0.3025(3) 0.6378(3)
C10 C 0.0295(6) 0.2644(3) 0.6026(3)
C11 C -0.1328(5) 0.2102(3) 0.4567(2)
C12 C -0.2327(5) 0.2363(3) 0.4229(3)
C13 C -0.1947(6) 0.2625(3) 0.3543(3)
C14 C -0.0602(6) 0.2651(3) 0.3203(3)
C15 C 0.0395(6) 0.2411(3) 0.3533(3)
C16 C 0.0021(5) 0.2130(3) 0.4214(2)
C17 C -0.2594(6) 0.0473(3) 0.4951(3)
C18 C -0.4258(6) 0.1278(4) 0.5774(3)
C19 C -0.2521(6) 0.1268(3) 0.6798(3)
C20 C -0.1649(6) 0.0014(3) 0.6226(3)
H1 H 0.0070 0.1129 0.5367
H2 H -0.2030 0.2326 0.5445
H3 H 0.1136 0.0821 0.6307
H4 H 0.2595 0.1463 0.6889
H5 H 0.2645 0.2845 0.6929
H6 H 0.1225 0.3591 0.6395
H7 H -0.0277 0.2954 0.5803
H8 H -0.3266 0.2360 0.4469
H9 H -0.2631 0.2788 0.3307
H10 H -0.0351 0.2838 0.2733
H11 H 0.1334 0.2436 0.3296
H12 H 0.0710 0.1952 0.4440
H13 H -0.1649 0.0348 0.4786
H14 H -0.3085 0.0002 0.5131
H15 H -0.2945 0.0679 0.4575
H16 H -0.4378 0.1665 0.6133
H17 H -0.4601 0.1480 0.5395
H18 H -0.4741 0.0804 0.5951
H19 H -0.2701 0.1815 0.6727
H20 H -0.3351 0.1005 0.7018
H21 H -0.1883 0.1224 0.7087
H22 H -0.1274 -0.0235 0.5791
H23 H -0.1013 -0.0024 0.6516
H24 H -0.2481 -0.0243 0.6447
C21 C 1.2183(5) -0.0026(3) 0.0872(3)
C22 C 1.1351(6) 0.0611(3) 0.1424(3)
C23 C 1.0366(5) -0.0098(3) 0.1742(2)
C24 C 1.0853(5) -0.0559(3) 0.1039(2)
C25 C 0.8880(5) 0.0027(3) 0.2042(2)
C26 C 0.8432(6) 0.0518(3) 0.2633(3)
C27 C 0.7071(6) 0.0632(3) 0.2928(3)
C28 C 0.6085(6) 0.0271(3) 0.2653(3)
C29 C 0.6493(6) -0.0210(3) 0.2068(3)
C30 C 0.7879(5) -0.0326(3) 0.1766(3)
C31 C 1.0948(5) -0.1448(3) 0.1023(2)
C32 C 1.1393(6) -0.1839(4) 0.0383(3)
C33 C 1.1486(6) -0.2647(4) 0.0341(3)
C34 C 1.1121(6) -0.3102(3) 0.0941(3)
C35 C 1.0674(6) -0.2734(3) 0.1585(3)
C36 C 1.0601(6) -0.1924(3) 0.1613(2)
C37 C 1.3366(6) -0.0406(4) 0.1101(3)
C38 C 1.2650(7) 0.0274(4) 0.0114(3)
C39 C 1.0578(7) 0.1236(4) 0.1086(3)
C40 C 1.2145(7) 0.0999(4) 0.1901(3)
H25 H 1.0427 -0.0331 0.2175
H26 H 1.0275 -0.0595 0.0719
H27 H 0.9096 0.0776 0.2830
H28 H 0.6805 0.0963 0.3325
H29 H 0.5139 0.0348 0.2858
H30 H 0.5818 -0.0461 0.1873
H31 H 0.8139 -0.0652 0.1364
H32 H 1.1637 -0.1529 -0.0033
H33 H 1.1799 -0.2895 -0.0098
H34 H 1.1174 -0.3668 0.0915
H35 H 1.0421 -0.3045 0.2000
H36 H 1.0300 -0.1677 0.2055
H37 H 1.3070 -0.0589 0.1569
H38 H 1.3697 -0.0843 0.0805
H39 H 1.4079 -0.0024 0.1071
H40 H 1.1897 0.0513 -0.0027
H41 H 1.3362 0.0656 0.0083
H42 H 1.2980 -0.0163 -0.0181
H43 H 1.0090 0.0976 0.0789
H44 H 0.9950 0.1514 0.1440
H45 H 1.1216 0.1603 0.0819
H46 H 1.2611 0.0600 0.2101
H47 H 1.2792 0.1364 0.1639
H48 H 1.1527 0.1276 0.2260
loop_
_geom_bond_atom_site_label_1
_geom_bond_atom_site_label_2
_geom_bond_site_symmetry_1
_geom_bond_site_symmetry_2
C1 C2 1_555 1_555
C2 C3 1_555 1_555
C3 C4 1_555 1_555
C4 C1 1_555 1_555
C5 C3 1_555 1_555
C6 C5 1_555 1_555
C7 C6 1_555 1_555
C8 C7 1_555 1_555
C9 C8 1_555 1_555
C10 C5 1_555 1_555
C11 C4 1_555 1_555
C12 C11 1_555 1_555
C13 C12 1_555 1_555
C14 C13 1_555 1_555
C15 C14 1_555 1_555
C16 C11 1_555 1_555
C17 C1 1_555 1_555
C18 C1 1_555 1_555
C19 C2 1_555 1_555
C20 C2 1_555 1_555
H1 C3 1_555 1_555
H2 C4 1_555 1_555
H3 C6 1_555 1_555
H4 C7 1_555 1_555
H5 C8 1_555 1_555
H6 C9 1_555 1_555
H7 C10 1_555 1_555
H8 C12 1_555 1_555
H9 C13 1_555 1_555
H10 C14 1_555 1_555
H11 C15 1_555 1_555
H12 C16 1_555 1_555
H13 C17 1_555 1_555
H14 C17 1_555 1_555
H15 C17 1_555 1_555
H16 C18 1_555 1_555
H17 C18 1_555 1_555
H18 C18 1_555 1_555
H19 C19 1_555 1_555
H20 C19 1_555 1_555
H21 C19 1_555 1_555
H22 C20 1_555 1_555
H23 C20 1_555 1_555
H24 C20 1_555 1_555
C21 C22 1_555 1_555
C22 C23 1_555 1_555
C23 C24 1_555 1_555
C24 C21 1_555 1_555
C25 C23 1_555 1_555
C26 C25 1_555 1_555
C27 C26 1_555 1_555
C28 C27 1_555 1_555
C29 C28 1_555 1_555
C30 C25 1_555 1_555
C31 C24 1_555 1_555
C32 C31 1_555 1_555
C33 C32 1_555 1_555
C34 C33 1_555 1_555
C35 C34 1_555 1_555
C36 C31 1_555 1_555
C37 C21 1_555 1_555
C38 C21 1_555 1_555
C39 C22 1_555 1_555
C40 C22 1_555 1_555
H25 C23 1_555 1_555
H26 C24 1_555 1_555
H27 C26 1_555 1_555
H28 C27 1_555 1_555
H29 C28 1_555 1_555
H30 C29 1_555 1_555
H31 C30 1_555 1_555
H32 C32 1_555 1_555
H33 C33 1_555 1_555
H34 C34 1_555 1_555
H35 C35 1_555 1_555
H36 C36 1_555 1_555
H37 C37 1_555 1_555
H38 C37 1_555 1_555
H39 C37 1_555 1_555
H40 C38 1_555 1_555
H41 C38 1_555 1_555
H42 C38 1_555 1_555
H43 C39 1_555 1_555
H44 C39 1_555 1_555
H45 C39 1_555 1_555
H46 C40 1_555 1_555
H47 C40 1_555 1_555
H48 C40 1_555 1_555
C9 C10 1_555 1_555
C15 C16 1_555 1_555
C29 C30 1_555 1_555
C35 C36 1_555 1_555

#END
