
#######################################################################
#
#                 Cambridge Crystallographic Data Centre
#                                CCDC 
#
#######################################################################
#
# If this CIF has been generated from an entry in the Cambridge 
# Structural Database, then it will include bibliographic, chemical, 
# crystal, experimental, refinement or atomic coordinate data resulting 
# from the CCDC's data processing and validation procedures.
#
#######################################################################

data_KERJIB
_chemical_formula_moiety         'C21 H19 N3 O1 S1'
_chemical_name_systematic        
3-Phenyl-2-(piperidin-4-yl)benzo(4,5)thieno(3,2-d)pyrimidin-4(3H)-one
_symmetry_cell_setting           monoclinic
_symmetry_space_group_name_H-M   'C c'
_symmetry_Int_Tables_number      9
_space_group_name_Hall           'C -2yc'
loop_
_symmetry_equiv_pos_site_id
_symmetry_equiv_pos_as_xyz
1 x,y,z
2 x,-y,1/2+z
3 1/2+x,1/2+y,z
4 1/2+x,1/2-y,1/2+z
_cell_length_a                   17.2382(19)
_cell_length_b                   11.5365(13)
_cell_length_c                   8.9811(10)
_cell_angle_alpha                90
_cell_angle_beta                 90.631(2)
_cell_angle_gamma                90
_cell_volume                     1785.95
_exptl_crystal_colour            colorless
_exptl_crystal_description       block
_cell_formula_units_Z            4
_exptl_crystal_recrystallization_method ethanol/dichloromethane
loop_
_atom_site_label
_atom_site_type_symbol
_atom_site_fract_x
_atom_site_fract_y
_atom_site_fract_z
C1 C 0.40149(16) 1.0779(3) 0.5979(3)
C2 C 0.34903(18) 1.0332(3) 0.7003(4)
H1 H 0.3488 0.9544 0.7225
C3 C 0.2975(2) 1.1075(3) 0.7680(4)
H2 H 0.2631 1.0788 0.8380
C4 C 0.2964(2) 1.2243(3) 0.7328(4)
H3 H 0.2603 1.2723 0.7780
C5 C 0.3472(2) 1.2710(3) 0.6329(4)
H4 H 0.3465 1.3497 0.6106
C6 C 0.40001(18) 1.1967(3) 0.5663(4)
C7 C 0.46334(17) 1.0199(2) 0.5185(4)
C8 C 0.50584(17) 1.0945(3) 0.4356(4)
C9 C 0.57445(18) 1.0594(3) 0.3615(4)
C10 C 0.54041(16) 0.8672(2) 0.4623(3)
C11 C 0.65634(18) 0.8964(3) 0.3005(4)
C12 C 0.6462(2) 0.8195(3) 0.1859(4)
H5 H 0.5966 0.7957 0.1577
C13 C 0.7100(3) 0.7777(3) 0.1130(4)
H6 H 0.7033 0.7243 0.0364
C14 C 0.7831(2) 0.8132(4) 0.1508(5)
H7 H 0.8259 0.7837 0.1015
C15 C 0.7926(2) 0.8933(4) 0.2631(5)
H8 H 0.8421 0.9194 0.2875
C16 C 0.72951(18) 0.9355(3) 0.3402(4)
H9 H 0.7362 0.9890 0.4168
C17 C 0.62981(19) 0.7065(3) 0.5217(4)
H10 H 0.6249 0.6987 0.6288
H11 H 0.6712 0.7612 0.5023
C18 C 0.6495(2) 0.5904(3) 0.4546(4)
H12 H 0.6968 0.5609 0.5003
H13 H 0.6584 0.5995 0.3488
C19 C 0.5838(2) 0.5045(3) 0.4785(5)
H14 H 0.5810 0.4851 0.5834
H15 H 0.5943 0.4338 0.4237
C20 C 0.5065(2) 0.5550(3) 0.4264(5)
H16 H 0.5061 0.5612 0.3187
H17 H 0.4649 0.5030 0.4544
C21 C 0.4921(2) 0.6739(3) 0.4936(4)
H18 H 0.4440 0.7058 0.4542
H19 H 0.4875 0.6673 0.6009
N1 N 0.47930(14) 0.9044(2) 0.5289(3)
N2 N 0.58986(14) 0.9399(2) 0.3803(3)
N3 N 0.55649(14) 0.7505(2) 0.4576(3)
O1 O 0.61756(13) 1.12152(19) 0.2901(3)
S1 S 0.47218(6) 1.23687(6) 0.43985(11)
loop_
_geom_bond_atom_site_label_1
_geom_bond_atom_site_label_2
_geom_bond_site_symmetry_1
_geom_bond_site_symmetry_2
C1 C2 1_555 1_555
C2 H1 1_555 1_555
C3 C2 1_555 1_555
H2 C3 1_555 1_555
C4 C3 1_555 1_555
H3 C4 1_555 1_555
C5 C4 1_555 1_555
H4 C5 1_555 1_555
C6 C1 1_555 1_555
C7 C1 1_555 1_555
C8 C7 1_555 1_555
C9 C8 1_555 1_555
C10 N1 1_555 1_555
C11 C12 1_555 1_555
C12 H5 1_555 1_555
C13 C12 1_555 1_555
H6 C13 1_555 1_555
C14 C13 1_555 1_555
H7 C14 1_555 1_555
C15 C14 1_555 1_555
H8 C15 1_555 1_555
C16 C11 1_555 1_555
H9 C16 1_555 1_555
C17 H10 1_555 1_555
H11 C17 1_555 1_555
C18 C17 1_555 1_555
H12 C18 1_555 1_555
H13 C18 1_555 1_555
C19 C18 1_555 1_555
H14 C19 1_555 1_555
H15 C19 1_555 1_555
C20 C19 1_555 1_555
H16 C20 1_555 1_555
H17 C20 1_555 1_555
C21 C20 1_555 1_555
H18 C21 1_555 1_555
H19 C21 1_555 1_555
N1 C7 1_555 1_555
N2 C9 1_555 1_555
N3 C10 1_555 1_555
O1 C9 1_555 1_555
S1 C6 1_555 1_555
C5 C6 1_555 1_555
C8 S1 1_555 1_555
C10 N2 1_555 1_555
C11 N2 1_555 1_555
C15 C16 1_555 1_555
C17 N3 1_555 1_555
C21 N3 1_555 1_555

#END
