
#######################################################################
#
#                 Cambridge Crystallographic Data Centre
#                                CCDC 
#
#######################################################################
#
# If this CIF has been generated from an entry in the Cambridge 
# Structural Database, then it will include bibliographic, chemical, 
# crystal, experimental, refinement or atomic coordinate data resulting 
# from the CCDC's data processing and validation procedures.
#
#######################################################################

data_KERKOI
_chemical_formula_moiety         'C10 H8 O2'
_chemical_name_systematic        2-(prop-2-ynyloxy)benzaldehyde
_symmetry_cell_setting           triclinic
_symmetry_space_group_name_H-M   'P -1'
_symmetry_Int_Tables_number      2
_space_group_name_Hall           '-P 1'
loop_
_symmetry_equiv_pos_site_id
_symmetry_equiv_pos_as_xyz
1 x,y,z
2 -x,-y,-z
_cell_length_a                   4.4758(16)
_cell_length_b                   10.043(4)
_cell_length_c                   10.057(4)
_cell_angle_alpha                66.980(4)
_cell_angle_beta                 80.218(5)
_cell_angle_gamma                87.632(5)
_cell_volume                     409.862
_exptl_crystal_colour            colorless
_exptl_crystal_description       block
_cell_formula_units_Z            2
_exptl_crystal_recrystallization_method hexane/dichloromethane
loop_
_atom_site_label
_atom_site_type_symbol
_atom_site_fract_x
_atom_site_fract_y
_atom_site_fract_z
O1 O 0.5167(3) 0.38679(13) 0.76502(15)
O2 O 0.1836(3) 0.69206(12) 0.90225(12)
C1 C 0.2338(4) 0.59947(16) 0.71858(18)
C2 C 0.1718(4) 0.60703(19) 0.5850(2)
H1 H 0.2497 0.5376 0.5497
C3 C -0.0004(5) 0.7136(2) 0.5043(2)
H2 H -0.0370 0.7176 0.4145
C4 C -0.1195(4) 0.8153(2) 0.5576(2)
H3 H -0.2398 0.8872 0.5039
C5 C -0.0630(4) 0.81210(18) 0.6892(2)
H4 H -0.1433 0.8819 0.7235
C6 C 0.1139(4) 0.70445(16) 0.77052(17)
C7 C 0.4233(4) 0.48508(18) 0.7999(2)
H5 H 0.4758 0.4880 0.8843
C8 C 0.0804(5) 0.80090(19) 0.95746(19)
H6 H 0.1067 0.7675 1.0591
H7 H -0.1346 0.8142 0.9543
C9 C 0.2414(4) 0.9400(2) 0.87474(19)
C10 C 0.3692(5) 1.0517(3) 0.8132(2)
H8 H 0.473(6) 1.139(3) 0.767(3)
loop_
_geom_bond_atom_site_label_1
_geom_bond_atom_site_label_2
_geom_bond_site_symmetry_1
_geom_bond_site_symmetry_2
O1 C7 1_555 1_555
O2 C6 1_555 1_555
C1 C2 1_555 1_555
C2 H1 1_555 1_555
C3 C2 1_555 1_555
H2 C3 1_555 1_555
C4 C3 1_555 1_555
H3 C4 1_555 1_555
C5 C4 1_555 1_555
H4 C5 1_555 1_555
C6 C1 1_555 1_555
C7 C1 1_555 1_555
H5 C7 1_555 1_555
C8 O2 1_555 1_555
H6 C8 1_555 1_555
H7 C8 1_555 1_555
C9 C8 1_555 1_555
C10 C9 1_555 1_555
H8 C10 1_555 1_555
C5 C6 1_555 1_555

#END
