
#######################################################################
#
#                 Cambridge Crystallographic Data Centre
#                                CCDC 
#
#######################################################################
#
# If this CIF has been generated from an entry in the Cambridge 
# Structural Database, then it will include bibliographic, chemical, 
# crystal, experimental, refinement or atomic coordinate data resulting 
# from the CCDC's data processing and validation procedures.
#
#######################################################################

data_KERLUP
_chemical_formula_moiety         'C10 H10 N4 O6'
_chemical_name_systematic        'Ethyl ((2,4-dinitrophenyl)hydrazono)acetate'
_symmetry_cell_setting           monoclinic
_symmetry_space_group_name_H-M   'P 21/c'
_symmetry_Int_Tables_number      14
_space_group_name_Hall           '-P 2ybc'
loop_
_symmetry_equiv_pos_site_id
_symmetry_equiv_pos_as_xyz
1 x,y,z
2 -x,1/2+y,1/2-z
3 -x,-y,-z
4 x,1/2-y,1/2+z
_cell_length_a                   12.7089(16)
_cell_length_b                   28.235(4)
_cell_length_c                   7.1198(9)
_cell_angle_alpha                90
_cell_angle_beta                 91.901(2)
_cell_angle_gamma                90
_cell_volume                     2553.43
_exptl_crystal_colour            yellow
_exptl_crystal_description       block
_cell_formula_units_Z            8
_exptl_crystal_recrystallization_method dichloromethane
loop_
_atom_site_label
_atom_site_type_symbol
_atom_site_fract_x
_atom_site_fract_y
_atom_site_fract_z
O1 O 1.0739(2) -0.00525(6) 0.1895(3)
O2 O 1.22327(19) -0.03540(7) 0.1305(3)
O3 O 1.5017(2) 0.05421(12) -0.1079(5)
O4 O 1.4920(2) 0.13038(11) -0.1165(4)
O9 O 0.86423(17) 0.04526(7) 0.2737(3)
N1 N 1.1637(3) -0.00177(8) 0.1349(3)
N2 N 1.4540(3) 0.09136(15) -0.0895(4)
N3 N 1.0362(2) 0.08449(7) 0.1323(3)
H1 H 1.0073 0.0585 0.1674
N4 N 0.9811(2) 0.12568(7) 0.1279(3)
C1 C 1.1383(3) 0.08526(8) 0.0796(3)
C2 C 1.2017(3) 0.04450(8) 0.0765(4)
C3 C 1.3044(3) 0.04644(10) 0.0218(4)
H3 H 1.3453 0.0191 0.0201
C4 C 1.3458(3) 0.08909(12) -0.0301(4)
C5 C 1.2864(3) 0.12985(10) -0.0273(4)
H4 H 1.3160 0.1585 -0.0620
C6 C 1.1844(3) 0.12835(8) 0.0260(3)
H5 H 1.1449 0.1561 0.0270
C7 C 0.8871(3) 0.12597(9) 0.1847(4)
H6 H 0.8513 0.1547 0.1781
C8 C 0.8295(3) 0.08502(12) 0.2600(4)
O12 O 0.7354(2) 0.09807(7) 0.3101(4)
C9 C 0.6721(7) 0.0560(3) 0.367(2)
H7 H 0.6533 0.0365 0.2586
H8 H 0.7108 0.0369 0.4585
C10 C 0.5797(10) 0.0764(3) 0.447(2)
H9 H 0.6006 0.0984 0.5436
H10 H 0.5379 0.0517 0.4991
H11 H 0.5392 0.0926 0.3504
O5 O 0.9992(2) 0.25969(7) 0.5551(4)
O6 O 1.1551(2) 0.25242(7) 0.4547(4)
O7 O 1.34040(18) 0.10897(8) 0.4729(4)
O8 O 1.26042(19) 0.04374(7) 0.5135(3)
O10 O 0.76918(17) 0.26217(6) 0.6964(3)
O11 O 0.60949(18) 0.24321(6) 0.7990(3)
N5 N 1.0750(3) 0.23562(8) 0.5199(4)
N6 N 1.2626(2) 0.08679(9) 0.5074(3)
N7 N 0.89351(18) 0.18533(7) 0.6629(3)
H2 H 0.8886 0.2155 0.6471
N8 N 0.8121(2) 0.16031(7) 0.7281(3)
C13 C 0.9835(2) 0.16197(8) 0.6228(3)
C14 C 1.0732(2) 0.18484(7) 0.5551(3)
C15 C 1.1630(2) 0.16020(8) 0.5183(3)
H17 H 1.2218 0.1760 0.4758
C16 C 1.1658(2) 0.11204(8) 0.5445(3)
C17 C 1.0783(2) 0.08805(8) 0.6063(3)
H18 H 1.0803 0.0553 0.6208
C18 C 0.9896(2) 0.11251(8) 0.6456(3)
H19 H 0.9316 0.0962 0.6885
C19 C 0.7274(3) 0.18207(9) 0.7684(4)
H20 H 0.6730 0.1637 0.8134
C20 C 0.7071(3) 0.23337(10) 0.7507(4)
C21 C 0.5751(3) 0.29255(10) 0.7809(5)
H21 H 0.6182 0.3127 0.8624
H22 H 0.5815 0.3033 0.6524
C22 C 0.4652(3) 0.29462(14) 0.8347(6)
H23 H 0.4239 0.2734 0.7570
H24 H 0.4392 0.3263 0.8184
H25 H 0.4603 0.2855 0.9640
C11? C 0.6723(11) 0.0706(5) 0.464(2)
H12? H 0.7105 0.0434 0.5138
H13? H 0.6514 0.0910 0.5657
C12? C 0.5826(16) 0.0570(5) 0.337(2)
H14? H 0.5200 0.0543 0.4085
H15? H 0.5972 0.0271 0.2792
H16? H 0.5723 0.0808 0.2420
loop_
_geom_bond_atom_site_label_1
_geom_bond_atom_site_label_2
_geom_bond_site_symmetry_1
_geom_bond_site_symmetry_2
O1 N1 1_555 1_555
O2 N1 1_555 1_555
O3 N2 1_555 1_555
O4 N2 1_555 1_555
O5 N5 1_555 1_555
O6 N5 1_555 1_555
O7 N6 1_555 1_555
O8 N6 1_555 1_555
O9 C8 1_555 1_555
O10 C20 1_555 1_555
O11 C20 1_555 1_555
N1 C2 1_555 1_555
N2 C4 1_555 1_555
N3 H1 1_555 1_555
N4 N3 1_555 1_555
N5 C14 1_555 1_555
N6 C16 1_555 1_555
N7 H2 1_555 1_555
N8 N7 1_555 1_555
C1 N3 1_555 1_555
C2 C1 1_555 1_555
C3 C2 1_555 1_555
H3 C3 1_555 1_555
C4 C3 1_555 1_555
C5 C4 1_555 1_555
H4 C5 1_555 1_555
C6 C1 1_555 1_555
H5 C6 1_555 1_555
C7 N4 1_555 1_555
H6 C7 1_555 1_555
C8 C7 1_555 1_555
O12 C8 1_555 1_555
C9 O12 1_555 1_555
H7 C9 1_555 1_555
H8 C9 1_555 1_555
C10 C9 1_555 1_555
H9 C10 1_555 1_555
H10 C10 1_555 1_555
H11 C10 1_555 1_555
C13 N7 1_555 1_555
C14 C13 1_555 1_555
C15 C14 1_555 1_555
H17 C15 1_555 1_555
C16 C15 1_555 1_555
C17 C16 1_555 1_555
H18 C17 1_555 1_555
C18 C13 1_555 1_555
H19 C18 1_555 1_555
C19 N8 1_555 1_555
H20 C19 1_555 1_555
C20 C19 1_555 1_555
C21 O11 1_555 1_555
H21 C21 1_555 1_555
H22 C21 1_555 1_555
C22 C21 1_555 1_555
H23 C22 1_555 1_555
H24 C22 1_555 1_555
H25 C22 1_555 1_555
C5 C6 1_555 1_555
C17 C18 1_555 1_555

#END
