
#######################################################################
#
#                 Cambridge Crystallographic Data Centre
#                                CCDC 
#
#######################################################################
#
# If this CIF has been generated from an entry in the Cambridge 
# Structural Database, then it will include bibliographic, chemical, 
# crystal, experimental, refinement or atomic coordinate data resulting 
# from the CCDC's data processing and validation procedures.
#
#######################################################################

data_KERMOL
_chemical_formula_moiety         'C4 H12 N2 2+,2(C7 H5 O3 1-)'
_chemical_name_systematic        'Piperazinediium bis(3-hydroxybenzoate)'
_symmetry_cell_setting           monoclinic
_symmetry_space_group_name_H-M   'P 21/c'
_symmetry_Int_Tables_number      14
_space_group_name_Hall           '-P 2ybc'
loop_
_symmetry_equiv_pos_site_id
_symmetry_equiv_pos_as_xyz
1 x,y,z
2 -x,1/2+y,1/2-z
3 -x,-y,-z
4 x,1/2-y,1/2+z
_cell_length_a                   10.323(3)
_cell_length_b                   8.240(3)
_cell_length_c                   10.708(3)
_cell_angle_alpha                90
_cell_angle_beta                 104.348(4)
_cell_angle_gamma                90
_cell_volume                     882.428
_exptl_crystal_colour            colorless
_exptl_crystal_description       block
_cell_formula_units_Z            2
loop_
_atom_site_label
_atom_site_type_symbol
_atom_site_fract_x
_atom_site_fract_y
_atom_site_fract_z
O1 O 0.44043(11) 0.05643(14) 0.31867(12)
O2 O 0.28884(11) -0.09379(15) 0.18602(11)
O3 O -0.13294(11) 0.17061(16) 0.25669(13)
H1 H -0.1808 0.2084 0.3002
C1 C 0.21896(15) 0.06011(17) 0.34616(15)
C2 C -0.00664(15) 0.15034(19) 0.33199(16)
C3 C 0.08757(16) 0.08075(18) 0.27539(15)
H4 H 0.0625 0.0478 0.1897
C4 C 0.32354(14) 0.00362(18) 0.27972(15)
C5 C 0.03000(16) 0.1939(2) 0.46154(17)
H5 H -0.0321 0.2414 0.5000
C7 C 0.15935(17) 0.1660(2) 0.53267(16)
H8 H 0.1827 0.1913 0.6200
C8 C 0.25515(15) 0.1007(2) 0.47615(16)
H9 H 0.3423 0.0844 0.5246
N1 N 0.49849(13) -0.14167(16) 0.07707(13)
H2 H 0.5278 -0.2425 0.1013
H3 H 0.4393 -0.1135 0.1224
C6 C 0.43063(16) -0.1421(2) -0.06250(16)
H6 H 0.3535 -0.2134 -0.0778
H7 H 0.4914 -0.1831 -0.1111
C9 C 0.61366(16) -0.0271(2) 0.10778(16)
H10 H 0.6819 -0.0634 0.0661
H11 H 0.6522 -0.0260 0.2001
N1B N 0.50151(13) 0.14167(16) -0.07707(13)
H2B H 0.4722 0.2425 -0.1013
H3B H 0.5607 0.1135 -0.1224
C6B C 0.56937(16) 0.1421(2) 0.06250(16)
H6B H 0.6465 0.2134 0.0778
H7B H 0.5086 0.1831 0.1111
C9B C 0.38634(16) 0.0271(2) -0.10778(16)
H10B H 0.3181 0.0634 -0.0661
H11B H 0.3478 0.0260 -0.2001
loop_
_geom_bond_atom_site_label_1
_geom_bond_atom_site_label_2
_geom_bond_site_symmetry_1
_geom_bond_site_symmetry_2
O1 C4 1_555 1_555
O2 C4 1_555 1_555
O3 H1 1_555 1_555
N1 H2 1_555 1_555
H3 N1 1_555 1_555
C1 C3 1_555 1_555
C2 O3 1_555 1_555
C3 C2 1_555 1_555
H4 C3 1_555 1_555
C4 C1 1_555 1_555
C5 C2 1_555 1_555
H5 C5 1_555 1_555
C6 N1 1_555 1_555
H6 C6 1_555 1_555
H7 C6 1_555 1_555
C7 C5 1_555 1_555
H8 C7 1_555 1_555
C8 C1 1_555 1_555
H9 C8 1_555 1_555
C9 N1 1_555 1_555
H10 C9 1_555 1_555
H11 C9 1_555 1_555
N1B H2B 1_555 1_555
H3B N1B 1_555 1_555
C6B C9 1_555 1_555
H6B C6B 1_555 1_555
H7B C6B 1_555 1_555
C9B C6 1_555 1_555
H10B C9B 1_555 1_555
H11B C9B 1_555 1_555
C7 C8 1_555 1_555
N1B C6B 1_555 1_555
N1B C9B 1_555 1_555

#END
