
#######################################################################
#
#                 Cambridge Crystallographic Data Centre
#                                CCDC 
#
#######################################################################
#
# If this CIF has been generated from an entry in the Cambridge 
# Structural Database, then it will include bibliographic, chemical, 
# crystal, experimental, refinement or atomic coordinate data resulting 
# from the CCDC's data processing and validation procedures.
#
#######################################################################

data_KERMUR
_chemical_formula_moiety         'C4 H12 N2 2+,2(C7 H5 O4 1-)'
_chemical_name_systematic        'Piperazinediium bis(2,4-dihydroxybenzoate)'
_symmetry_cell_setting           monoclinic
_symmetry_space_group_name_H-M   'P 21/n'
_symmetry_Int_Tables_number      14
_space_group_name_Hall           '-P 2yn'
loop_
_symmetry_equiv_pos_site_id
_symmetry_equiv_pos_as_xyz
1 x,y,z
2 1/2-x,1/2+y,1/2-z
3 -x,-y,-z
4 1/2+x,1/2-y,1/2+z
_cell_length_a                   8.4797(12)
_cell_length_b                   9.7568(14)
_cell_length_c                   11.3367(16)
_cell_angle_alpha                90
_cell_angle_beta                 111.96
_cell_angle_gamma                90
_cell_volume                     869.887
_exptl_crystal_colour            colorless
_exptl_crystal_description       block
_cell_formula_units_Z            2
loop_
_atom_site_label
_atom_site_type_symbol
_atom_site_fract_x
_atom_site_fract_y
_atom_site_fract_z
O1 O 0.24603(14) 0.44261(11) 0.39737(9)
H1 H 0.3204 0.3839 0.4226
O2 O 0.59453(12) 0.36374(11) 0.76154(9)
O3 O 0.47833(14) 0.29838(10) 0.55966(10)
O4 O -0.00405(14) 0.79999(12) 0.54350(10)
H2 H 0.0015 0.8395 0.6088
C1 C 0.35946(17) 0.49102(14) 0.62212(13)
C2 C 0.12702(18) 0.62353(15) 0.47352(13)
H3 H 0.0546 0.6424 0.3905
C3 C 0.11675(18) 0.70044(15) 0.57256(14)
C4 C 0.48635(17) 0.37828(14) 0.65032(13)
C5 C 0.24499(17) 0.51812(14) 0.49717(12)
C6 C 0.2303(2) 0.67629(16) 0.69771(14)
H6 H 0.2255 0.7291 0.7646
C7 C 0.34867(18) 0.57343(16) 0.71990(13)
H7 H 0.4242 0.5580 0.8027
N1 N 0.13061(15) 0.45411(13) 0.11532(11)
H4 H 0.2230 0.4711 0.1857
H5 H 0.1055 0.3644 0.1149
C8 C -0.0151(2) 0.53706(16) 0.11885(14)
H8 H 0.0148 0.6335 0.1262
H9 H -0.0405 0.5114 0.1925
C9 C 0.16937(18) 0.48662(16) 0.00071(15)
H10 H 0.2622 0.4292 -0.0005
H11 H 0.2049 0.5815 0.0042
N1B N -0.13061(15) 0.54589(13) -0.11532(11)
H4B H -0.2230 0.5289 -0.1857
H5B H -0.1055 0.6356 -0.1149
C8B C 0.0151(2) 0.46294(16) -0.11885(14)
H8B H -0.0148 0.3665 -0.1262
H9B H 0.0405 0.4886 -0.1925
C9B C -0.16937(18) 0.51338(16) -0.00071(15)
H10B H -0.2622 0.5708 0.0005
H11B H -0.2049 0.4185 -0.0042
loop_
_geom_bond_atom_site_label_1
_geom_bond_atom_site_label_2
_geom_bond_site_symmetry_1
_geom_bond_site_symmetry_2
O1 H1 1_555 1_555
O2 C4 1_555 1_555
O3 C4 1_555 1_555
O4 H2 1_555 1_555
C1 C4 1_555 1_555
C2 H3 1_555 1_555
C3 O4 1_555 1_555
N1 H4 1_555 1_555
H5 N1 1_555 1_555
C5 O1 1_555 1_555
C6 C3 1_555 1_555
H6 C6 1_555 1_555
C7 C1 1_555 1_555
H7 C7 1_555 1_555
C8 N1 1_555 1_555
H8 C8 1_555 1_555
H9 C8 1_555 1_555
C9 N1 1_555 1_555
H10 C9 1_555 1_555
H11 C9 1_555 1_555
N1B H4B 1_555 1_555
H5B N1B 1_555 1_555
C8B C9 1_555 1_555
H8B C8B 1_555 1_555
H9B C8B 1_555 1_555
C9B C8 1_555 1_555
H10B C9B 1_555 1_555
H11B C9B 1_555 1_555
C1 C5 1_555 1_555
C2 C3 1_555 1_555
C2 C5 1_555 1_555
C6 C7 1_555 1_555
N1B C8B 1_555 1_555
N1B C9B 1_555 1_555

#END
