
#######################################################################
#
#                 Cambridge Crystallographic Data Centre
#                                CCDC 
#
#######################################################################
#
# If this CIF has been generated from an entry in the Cambridge 
# Structural Database, then it will include bibliographic, chemical, 
# crystal, experimental, refinement or atomic coordinate data resulting 
# from the CCDC's data processing and validation procedures.
#
#######################################################################

data_KERMOJ
_chemical_formula_moiety         'C3 H8 N1 O2 1+,C6 H4 Cl1 O3 S1 1-'
_chemical_name_systematic        'L-Alanine p-chlorobenzenesulfonate'
_symmetry_cell_setting           orthorhombic
_symmetry_space_group_name_H-M   'P 21 21 21'
_symmetry_Int_Tables_number      19
_space_group_name_Hall           'P 2ac 2ab'
loop_
_symmetry_equiv_pos_site_id
_symmetry_equiv_pos_as_xyz
1 x,y,z
2 1/2+x,1/2-y,-z
3 -x,1/2+y,1/2-z
4 1/2-x,-y,1/2+z
_cell_length_a                   8.806(1)
_cell_length_b                   26.528(9)
_cell_length_c                   5.247
_cell_angle_alpha                90
_cell_angle_beta                 90
_cell_angle_gamma                90
_cell_volume                     1225.73
_exptl_crystal_colour            colorless
_cell_formula_units_Z            4
loop_
_atom_site_label
_atom_site_type_symbol
_atom_site_fract_x
_atom_site_fract_y
_atom_site_fract_z
S1 S 0.4468(1) 0.8227 0.0326(2)
Cl1 Cl 0.5771(4) 1.0380(1) -0.4030(5)
O1 O 0.3181(4) 0.8280(1) 0.2033(8)
O2 O 0.5870(4) 0.8102(1) 0.1702(8)
O3 O 0.4184(4) 0.7897(1) -0.1798(8)
C1 C 0.4147(8) 0.9255(2) 0.0221(14)
C2 C 0.5980(8) 0.9368(2) -0.3998(13)
C3 C 0.4805(5) 0.8839(2) -0.0940(10)
C4 C 0.5359(9) 0.9778(2) -0.2839(14)
C5 C 0.5701(6) 0.8896(2) -0.3060(11)
C6 C 0.4407(11) 0.9731(2) -0.0752(15)
H1 H 0.320(11) 0.924(3) 0.197(23)
H2 H 0.667(8) 0.939(3) -0.534(15)
H3 H 0.611(11) 0.864(3) -0.384(16)
H4 H 0.417(9) 1.003(3) -0.001(18)
C7 C 0.5610(5) 0.6830(2) 0.2803(10)
O4 O 0.3713(4) 0.6731(1) -0.0303(8)
N1 N 0.5960(4) 0.7196(1) 0.4869(9)
O5 O 0.3064(4) 0.7103(1) 0.3365(8)
C8 C 0.5838(9) 0.6296(2) 0.3753(17)
C9 C 0.3996(5) 0.6914(2) 0.1977(11)
H5 H 0.536 0.743 0.598(1)
H6 H 0.601 0.751 0.422(1)
H7 H 0.697 0.711 0.593(1)
H8 H 0.505(1) 0.625 0.511(2)
H9 H 0.686(1) 0.622 0.446(2)
H10 H 0.562(1) 0.607 0.229(2)
H11 H 0.634(8) 0.687(2) 0.164(16)
H12 H 0.264(5) 0.679(3) -0.086(12)
loop_
_geom_bond_atom_site_label_1
_geom_bond_atom_site_label_2
_geom_bond_site_symmetry_1
_geom_bond_site_symmetry_2
S1 O1 1_555 1_555
Cl1 C4 1_555 1_555
O2 S1 1_555 1_555
O3 S1 1_555 1_555
C1 C3 1_555 1_555
C2 C4 1_555 1_555
C3 S1 1_555 1_555
C4 C6 1_555 1_555
C5 C2 1_555 1_555
C6 C1 1_555 1_555
H1 C1 1_555 1_555
H2 C2 1_555 1_555
H3 C5 1_555 1_555
H4 C6 1_555 1_555
C7 N1 1_555 1_555
O4 C9 1_555 1_555
N1 H5 1_555 1_555
O5 C9 1_555 1_555
C8 C7 1_555 1_555
C9 C7 1_555 1_555
H6 N1 1_555 1_555
H7 N1 1_555 1_555
H8 C8 1_555 1_555
H9 C8 1_555 1_555
H10 C8 1_555 1_555
H11 C7 1_555 1_555
H12 O4 1_555 1_555
C3 C5 1_555 1_555

#END
