
#######################################################################
#
#                 Cambridge Crystallographic Data Centre
#                                CCDC 
#
#######################################################################
#
# If this CIF has been generated from an entry in the Cambridge 
# Structural Database, then it will include bibliographic, chemical, 
# crystal, experimental, refinement or atomic coordinate data resulting 
# from the CCDC's data processing and validation procedures.
#
#######################################################################

data_KERNOM
_chemical_formula_moiety         'C6 H9 N2 O2 1+,Cl1 1-'
_chemical_name_systematic        
'3-(Carboxymethyl)-1-methylimidazolium chloride'
_symmetry_cell_setting           orthorhombic
_symmetry_space_group_name_H-M   'P c a 21'
_symmetry_Int_Tables_number      29
_space_group_name_Hall           'P 2c -2ac'
loop_
_symmetry_equiv_pos_site_id
_symmetry_equiv_pos_as_xyz
1 x,y,z
2 -x,-y,1/2+z
3 1/2+x,-y,z
4 1/2-x,y,1/2+z
_cell_length_a                   13.445(6)
_cell_length_b                   6.382(3)
_cell_length_c                   9.727(5)
_cell_angle_alpha                90
_cell_angle_beta                 90
_cell_angle_gamma                90
_cell_volume                     834.635
_exptl_crystal_colour            colorless
_exptl_crystal_description       block
_cell_formula_units_Z            4
loop_
_atom_site_label
_atom_site_type_symbol
_atom_site_fract_x
_atom_site_fract_y
_atom_site_fract_z
N1 N 0.74578(14) 0.1251(2) 0.9059(2)
N2 N 0.62431(12) 0.3453(2) 0.89827(19)
C1 C 0.80588(19) -0.0629(4) 0.8840(4)
H1 H 0.7737 -0.1517 0.8180
H2 H 0.8131 -0.1369 0.9693
H3 H 0.8703 -0.0234 0.8503
C2 C 0.76916(17) 0.2869(3) 0.9936(2)
H4 H 0.8266 0.2992 1.0462
C3 C 0.69336(18) 0.4238(4) 0.9887(3)
H5 H 0.6885 0.5486 1.0376
C4 C 0.65767(16) 0.1644(3) 0.8502(2)
H6 H 0.6247 0.0788 0.7876
C5 C 0.53049(15) 0.4436(4) 0.8601(3)
H7 H 0.4986 0.4985 0.9419
H8 H 0.4868 0.3387 0.8206
C6 C 0.54469(18) 0.6184(3) 0.7583(3)
O1 O 0.62412(13) 0.6676(3) 0.7108(2)
O2 O 0.45944(11) 0.7079(3) 0.7295(2)
H9 H 0.4695 0.8180 0.6883
Cl1 Cl 0.47032(4) 0.11300(8) 0.57800(5)
loop_
_geom_bond_atom_site_label_1
_geom_bond_atom_site_label_2
_geom_bond_site_symmetry_1
_geom_bond_site_symmetry_2
N1 C1 1_555 1_555
N2 C3 1_555 1_555
C1 H1 1_555 1_555
H2 C1 1_555 1_555
H3 C1 1_555 1_555
C2 N1 1_555 1_555
H4 C2 1_555 1_555
C3 C2 1_555 1_555
H5 C3 1_555 1_555
C4 N1 1_555 1_555
H6 C4 1_555 1_555
C5 N2 1_555 1_555
H7 C5 1_555 1_555
H8 C5 1_555 1_555
C6 C5 1_555 1_555
O1 C6 1_555 1_555
O2 C6 1_555 1_555
H9 O2 1_555 1_555
N2 C4 1_555 1_555

#END
