
#######################################################################
#
#                 Cambridge Crystallographic Data Centre
#                                CCDC 
#
#######################################################################
#
# If this CIF has been generated from an entry in the Cambridge 
# Structural Database, then it will include bibliographic, chemical, 
# crystal, experimental, refinement or atomic coordinate data resulting 
# from the CCDC's data processing and validation procedures.
#
#######################################################################

data_KERNAW
_chemical_formula_moiety         'C10 H12 S4 Se4'
_chemical_name_systematic        tetrakis(Methylseleno)tetrathiafulvalene
_symmetry_cell_setting           monoclinic
_symmetry_space_group_name_H-M   'P 21/a'
_symmetry_Int_Tables_number      14
_space_group_name_Hall           '-P 2yab'
loop_
_symmetry_equiv_pos_site_id
_symmetry_equiv_pos_as_xyz
1 x,y,z
2 1/2-x,1/2+y,-z
3 -x,-y,-z
4 1/2+x,1/2-y,z
_cell_length_a                   7.728(1)
_cell_length_b                   20.952(4)
_cell_length_c                   5.315(1)
_cell_angle_alpha                90
_cell_angle_beta                 90.57(2)
_cell_angle_gamma                90
_cell_volume                     860.547
_exptl_crystal_colour            dark-red
_cell_formula_units_Z            2
loop_
_atom_site_label
_atom_site_type_symbol
_atom_site_fract_x
_atom_site_fract_y
_atom_site_fract_z
Se1 Se 0.2470(1) 0.1366 -0.1950(2)
Se2 Se -0.1282(1) 0.2035 0.0232(2)
S1 S 0.1785(2) 0.0277(1) 0.2012(4)
S2 S -0.1445(3) 0.0858(1) 0.3855(4)
C1 C 0.0067(9) 0.0233(4) 0.4162(13)
C2 C 0.1146(9) 0.1011(3) 0.0676(13)
C3 C -0.0297(9) 0.1268(4) 0.1498(13)
C4 C 0.4535(13) 0.0868(6) -0.1748(22)
C5 C -0.0911(14) 0.2572(5) 0.3212(17)
H1 H 0.534(9) 0.107(4) -0.282(15)
H2 H 0.419(10) 0.046(4) -0.214(15)
H3 H 0.497(10) 0.097(4) -0.020(15)
H4 H -0.147(10) 0.290(4) 0.294(15)
H5 H 0.019(9) 0.262(4) 0.373(14)
H6 H -0.149(9) 0.234(4) 0.460(14)
C1B C -0.0067(9) -0.0233(4) 0.5838(13)
S1B S -0.1785(2) -0.0277(1) 0.7988(4)
S2B S 0.1445(3) -0.0858(1) 0.6145(4)
C2B C -0.1146(9) -0.1011(3) 0.9324(13)
C3B C 0.0297(9) -0.1268(4) 0.8502(13)
Se1B Se -0.2470(1) -0.1366 1.1950(2)
Se2B Se 0.1282(1) -0.2035 0.9768(2)
C4B C -0.4535(13) -0.0868(6) 1.1748(22)
C5B C 0.0911(14) -0.2572(5) 0.6788(17)
H1B H -0.534(9) -0.107(4) 1.282(15)
H2B H -0.419(10) -0.046(4) 1.214(15)
H3B H -0.497(10) -0.097(4) 1.020(15)
H4B H 0.147(10) -0.290(4) 0.706(15)
H5B H -0.019(9) -0.262(4) 0.627(14)
H6B H 0.149(9) -0.234(4) 0.540(14)
loop_
_geom_bond_atom_site_label_1
_geom_bond_atom_site_label_2
_geom_bond_site_symmetry_1
_geom_bond_site_symmetry_2
Se1 C2 1_555 1_555
Se2 C3 1_555 1_555
S1 C1 1_555 1_555
S2 C1 1_555 1_555
C1 C1B 1_555 1_555
C2 S1 1_555 1_555
C3 S2 1_555 1_555
C4 Se1 1_555 1_555
C5 Se2 1_555 1_555
H1 C4 1_555 1_555
H2 C4 1_555 1_555
H3 C4 1_555 1_555
H4 C5 1_555 1_555
H5 C5 1_555 1_555
H6 C5 1_555 1_555
C1B S1B 1_555 1_555
S1B C2B 1_555 1_555
S2B C1B 1_555 1_555
C2B C3B 1_555 1_555
C3B S2B 1_555 1_555
Se1B C2B 1_555 1_555
Se2B C3B 1_555 1_555
C4B Se1B 1_555 1_555
C5B Se2B 1_555 1_555
H1B C4B 1_555 1_555
H2B C4B 1_555 1_555
H3B C4B 1_555 1_555
H4B C5B 1_555 1_555
H5B C5B 1_555 1_555
H6B C5B 1_555 1_555
C2 C3 1_555 1_555

#END
