
#######################################################################
#
#                 Cambridge Crystallographic Data Centre
#                                CCDC 
#
#######################################################################
#
# If this CIF has been generated from an entry in the Cambridge 
# Structural Database, then it will include bibliographic, chemical, 
# crystal, experimental, refinement or atomic coordinate data resulting 
# from the CCDC's data processing and validation procedures.
#
#######################################################################

data_KERPON
_chemical_formula_moiety         'C10 H13 N1 O3'
_chemical_name_systematic        
'methyl 1-(2-cyanoethyl)-2-oxocyclopentane-1-carboxylate'
_symmetry_cell_setting           monoclinic
_symmetry_space_group_name_H-M   'P 21/n'
_symmetry_Int_Tables_number      14
_space_group_name_Hall           '-P 2yn'
loop_
_symmetry_equiv_pos_site_id
_symmetry_equiv_pos_as_xyz
1 x,y,z
2 1/2-x,1/2+y,1/2-z
3 -x,-y,-z
4 1/2+x,1/2-y,1/2+z
_cell_length_a                   12.41(3)
_cell_length_b                   6.300(16)
_cell_length_c                   13.26(4)
_cell_angle_alpha                90
_cell_angle_beta                 112.59(4)
_cell_angle_gamma                90
_cell_volume                     957.168
_exptl_crystal_colour            colorless
_exptl_crystal_description       block
_chemical_melting_point          '313.9-315.3 K'
_cell_formula_units_Z            4
_exptl_crystal_recrystallization_method toluene
loop_
_atom_site_label
_atom_site_type_symbol
_atom_site_fract_x
_atom_site_fract_y
_atom_site_fract_z
O1 O 0.8455(2) 1.1548(4) 0.5631(2)
O2 O 0.9793(2) 0.8069(4) 0.8553(2)
O3 O 1.02878(19) 1.0869(4) 0.78339(17)
N1 N 1.2482(3) 0.6967(5) 0.8394(3)
C1 C 0.8261(3) 0.9912(6) 0.5986(3)
C2 C 0.7100(3) 0.9082(6) 0.5852(3)
H1 H 0.6647 0.8737 0.5093
H2 H 0.6673 1.0118 0.6094
C3 C 0.7339(3) 0.7107(6) 0.6553(3)
H3 H 0.7404 0.7448 0.7288
H4 H 0.6724 0.6067 0.6242
C4 C 0.8481(3) 0.6292(5) 0.6559(3)
H5 H 0.8363 0.5495 0.5899
H6 H 0.8865 0.5386 0.7186
C5 C 0.9192(3) 0.8268(5) 0.6617(3)
C6 C 1.0056(3) 0.8086(5) 0.6072(3)
H7 H 1.0480 0.9413 0.6169
H8 H 0.9628 0.7884 0.5294
C7 C 1.0928(3) 0.6292(6) 0.6497(3)
H9 H 1.0509 0.5000 0.6510
H10 H 1.1315 0.6073 0.5994
C8 C 1.1799(4) 0.6657(6) 0.7569(4)
C9 C 0.9777(3) 0.9008(6) 0.7780(3)
C10 C 1.0924(3) 1.1707(6) 0.8902(3)
H11 H 1.0420 1.1794 0.9297
H12 H 1.1210 1.3097 0.8840
H13 H 1.1571 1.0790 0.9285
loop_
_geom_bond_atom_site_label_1
_geom_bond_atom_site_label_2
_geom_bond_site_symmetry_1
_geom_bond_site_symmetry_2
O1 C1 1_555 1_555
O2 C9 1_555 1_555
O3 C9 1_555 1_555
N1 C8 1_555 1_555
C1 C2 1_555 1_555
C2 H1 1_555 1_555
H2 C2 1_555 1_555
C3 C2 1_555 1_555
H3 C3 1_555 1_555
H4 C3 1_555 1_555
C4 C3 1_555 1_555
H5 C4 1_555 1_555
H6 C4 1_555 1_555
C5 C1 1_555 1_555
C6 C5 1_555 1_555
H7 C6 1_555 1_555
H8 C6 1_555 1_555
C7 C6 1_555 1_555
H9 C7 1_555 1_555
H10 C7 1_555 1_555
C8 C7 1_555 1_555
C9 C5 1_555 1_555
C10 O3 1_555 1_555
H11 C10 1_555 1_555
H12 C10 1_555 1_555
H13 C10 1_555 1_555
C4 C5 1_555 1_555

#END
