
#######################################################################
#
#                 Cambridge Crystallographic Data Centre
#                                CCDC 
#
#######################################################################
#
# If this CIF has been generated from an entry in the Cambridge 
# Structural Database, then it will include bibliographic, chemical, 
# crystal, experimental, refinement or atomic coordinate data resulting 
# from the CCDC's data processing and validation procedures.
#
#######################################################################

data_KERQAC
_chemical_formula_moiety         'C14 H14 Br1 N1 O5'
_chemical_name_systematic        
(+)-2-bromo-9-hydroxy-9-methyl-10-nitro-6a,7,8,9,10,10a-hexahydro-6H-benzo[c]chromen-6-one
_symmetry_cell_setting           monoclinic
_symmetry_space_group_name_H-M   'P 21'
_symmetry_Int_Tables_number      4
_space_group_name_Hall           'P 2yb'
loop_
_symmetry_equiv_pos_site_id
_symmetry_equiv_pos_as_xyz
1 x,y,z
2 -x,1/2+y,-z
_cell_length_a                   9.9789(7)
_cell_length_b                   7.0934(5)
_cell_length_c                   11.0379(7)
_cell_angle_alpha                90
_cell_angle_beta                 115.7253(12)
_cell_angle_gamma                90
_cell_volume                     703.871
_exptl_crystal_colour            colorless
_exptl_crystal_description       plate
_cell_formula_units_Z            2
loop_
_atom_site_label
_atom_site_type_symbol
_atom_site_fract_x
_atom_site_fract_y
_atom_site_fract_z
Br1 Br 0.09947(4) 0.24638(6) 1.23648(3)
O1 O -0.0681(2) 0.2564(6) 0.6434(2)
O2 O -0.0239(3) 0.3312(4) 0.4723(3)
O3 O 0.5347(3) 0.1619(4) 0.8145(3)
H1 H 0.5229 0.2674 0.8431
O4 O 0.3100(3) -0.2181(3) 0.8765(3)
O5 O 0.4202(3) 0.0153(4) 1.0082(2)
N1 N 0.3407(3) -0.0504(5) 0.8968(3)
C1 C 0.0237(4) 0.3271(5) 0.5917(4)
C2 C 0.1751(4) 0.3971(5) 0.6916(3)
H2 H 0.1609 0.5258 0.7211
C3 C 0.2816(4) 0.4163(5) 0.6264(4)
H3 H 0.3715 0.4859 0.6878
H4 H 0.2329 0.4899 0.5422
C4 C 0.3271(4) 0.2235(6) 0.5950(3)
H5 H 0.3999 0.2417 0.5573
H6 H 0.2384 0.1610 0.5254
C5 C 0.3955(4) 0.0942(5) 0.7178(3)
C6 C 0.2799(3) 0.0798(4) 0.7771(3)
H7 H 0.1870 0.0222 0.7072
C7 C 0.2396(3) 0.2726(6) 0.8164(3)
H8 H 0.3317 0.3329 0.8853
C8 C 0.1265(3) 0.2547(7) 0.8724(3)
C9 C -0.0228(3) 0.2493(7) 0.7822(3)
C10 C -0.1353(3) 0.2351(7) 0.8231(3)
H9 H -0.2364 0.2293 0.7588
C11 C -0.0977(4) 0.2294(7) 0.9602(3)
H10 H -0.1727 0.2173 0.9909
C12 C 0.0501(4) 0.2416(7) 1.0504(3)
C13 C 0.1617(3) 0.2539(7) 1.0093(3)
H11 H 0.2626 0.2617 1.0740
C14 C 0.4284(4) -0.0975(5) 0.6752(4)
H12 H 0.4929 -0.0815 0.6297
H13 H 0.3350 -0.1573 0.6136
H14 H 0.4785 -0.1773 0.7548
loop_
_geom_bond_atom_site_label_1
_geom_bond_atom_site_label_2
_geom_bond_site_symmetry_1
_geom_bond_site_symmetry_2
Br1 C12 1_555 1_555
O1 C1 1_555 1_555
O2 C1 1_555 1_555
O3 H1 1_555 1_555
O4 N1 1_555 1_555
O5 N1 1_555 1_555
N1 C6 1_555 1_555
C1 C2 1_555 1_555
C2 H2 1_555 1_555
C3 C2 1_555 1_555
H3 C3 1_555 1_555
H4 C3 1_555 1_555
C4 C3 1_555 1_555
H5 C4 1_555 1_555
H6 C4 1_555 1_555
C5 O3 1_555 1_555
C6 C5 1_555 1_555
H7 C6 1_555 1_555
C7 C2 1_555 1_555
H8 C7 1_555 1_555
C8 C7 1_555 1_555
C9 O1 1_555 1_555
C10 C9 1_555 1_555
H9 C10 1_555 1_555
C11 C10 1_555 1_555
H10 C11 1_555 1_555
C12 C11 1_555 1_555
C13 C8 1_555 1_555
H11 C13 1_555 1_555
C14 C5 1_555 1_555
H12 C14 1_555 1_555
H13 C14 1_555 1_555
H14 C14 1_555 1_555
C4 C5 1_555 1_555
C6 C7 1_555 1_555
C8 C9 1_555 1_555
C12 C13 1_555 1_555

#END
