
#######################################################################
#
#                 Cambridge Crystallographic Data Centre
#                                CCDC 
#
#######################################################################
#
# If this CIF has been generated from an entry in the Cambridge 
# Structural Database, then it will include bibliographic, chemical, 
# crystal, experimental, refinement or atomic coordinate data resulting 
# from the CCDC's data processing and validation procedures.
#
#######################################################################

data_KERQOP
_chemical_formula_moiety         'C18 H18 B1 N3 O3'
_chemical_name_systematic        
'(4-(((1,5-Dimethyl-3-oxo-2-phenyl-2,3-dihydro-1H-pyrazol-4-yl)imino)methyl)phenyl)boronic acid'
_symmetry_cell_setting           monoclinic
_symmetry_space_group_name_H-M   'P 21/c'
_symmetry_Int_Tables_number      14
_space_group_name_Hall           '-P 2ybc'
loop_
_symmetry_equiv_pos_site_id
_symmetry_equiv_pos_as_xyz
1 x,y,z
2 -x,1/2+y,1/2-z
3 -x,-y,-z
4 x,1/2-y,1/2+z
_cell_length_a                   13.990(6)
_cell_length_b                   6.624(3)
_cell_length_c                   18.751(9)
_cell_angle_alpha                90
_cell_angle_beta                 102.444(7)
_cell_angle_gamma                90
_cell_volume                     1696.83
_exptl_crystal_description       block
_cell_formula_units_Z            4
loop_
_atom_site_label
_atom_site_type_symbol
_atom_site_fract_x
_atom_site_fract_y
_atom_site_fract_z
B1 B -0.36222(13) 0.8856(3) 0.49679(11)
O1 O -0.43843(8) 0.7572(2) 0.48328(8)
H1 H -0.4870 0.8132 0.4918
O2 O -0.37392(8) 1.0697(2) 0.52589(8)
H2 H -0.3201 1.1213 0.5412
O3 O 0.20948(7) 0.70946(17) 0.40052(6)
N1 N 0.24795(9) 0.43068(19) 0.33764(7)
N2 N 0.19686(9) 0.26212(19) 0.30472(7)
N3 N 0.01102(9) 0.4668(2) 0.38466(7)
C1 C -0.26584(10) 0.8167(3) 0.47466(8)
C2 C -0.25336(11) 0.6195(3) 0.45282(9)
H3 H -0.3032 0.5262 0.4524
C3 C -0.16947(11) 0.5581(3) 0.43189(9)
H4 H -0.1633 0.4249 0.4178
C4 C -0.09407(10) 0.6941(2) 0.43165(8)
C5 C -0.10720(11) 0.8927(3) 0.45062(8)
H5 H -0.0588 0.9874 0.4485
C6 C -0.19074(11) 0.9523(3) 0.47264(9)
H6 H -0.1969 1.0857 0.4864
C7 C -0.00190(11) 0.6368(3) 0.41280(8)
H7 H 0.0497 0.7285 0.4217
C8 C 0.09936(10) 0.4235(2) 0.36486(8)
C9 C 0.18628(10) 0.5418(2) 0.37256(8)
C10 C 0.11073(11) 0.2548(2) 0.32550(8)
C11 C 0.04323(14) 0.0829(3) 0.30546(10)
H8 H 0.0307 0.0627 0.2536
H9 H -0.0172 0.1109 0.3199
H10 H 0.0723 -0.0366 0.3298
C12 C 0.25136(14) 0.0938(3) 0.28370(11)
H11 H 0.2853 0.0244 0.3267
H12 H 0.2979 0.1434 0.2570
H13 H 0.2070 0.0024 0.2535
C13 C 0.31557(11) 0.5260(2) 0.30130(9)
C14 C 0.29271(14) 0.5503(3) 0.22671(10)
H14 H 0.2339 0.5015 0.1992
C15 C 0.35806(16) 0.6477(3) 0.19346(11)
H15 H 0.3440 0.6632 0.1430
C16 C 0.44420(17) 0.7226(3) 0.23461(14)
H16 H 0.4879 0.7897 0.2119
C17 C 0.46549(14) 0.6986(3) 0.30835(13)
H17 H 0.5236 0.7504 0.3359
C18 C 0.40171(12) 0.5984(3) 0.34243(10)
H18 H 0.4169 0.5799 0.3928
loop_
_geom_bond_atom_site_label_1
_geom_bond_atom_site_label_2
_geom_bond_site_symmetry_1
_geom_bond_site_symmetry_2
B1 O1 1_555 1_555
O1 H1 1_555 1_555
O2 B1 1_555 1_555
H2 O2 1_555 1_555
O3 C9 1_555 1_555
N1 N2 1_555 1_555
N2 C10 1_555 1_555
N3 C7 1_555 1_555
C1 B1 1_555 1_555
C2 C1 1_555 1_555
H3 C2 1_555 1_555
C3 C2 1_555 1_555
H4 C3 1_555 1_555
C4 C3 1_555 1_555
C5 C4 1_555 1_555
H5 C5 1_555 1_555
C6 C1 1_555 1_555
H6 C6 1_555 1_555
C7 C4 1_555 1_555
H7 C7 1_555 1_555
C8 N3 1_555 1_555
C9 N1 1_555 1_555
C10 C8 1_555 1_555
C11 C10 1_555 1_555
H8 C11 1_555 1_555
H9 C11 1_555 1_555
H10 C11 1_555 1_555
C12 N2 1_555 1_555
H11 C12 1_555 1_555
H12 C12 1_555 1_555
H13 C12 1_555 1_555
C13 N1 1_555 1_555
C14 C13 1_555 1_555
H14 C14 1_555 1_555
C15 C14 1_555 1_555
H15 C15 1_555 1_555
C16 C15 1_555 1_555
H16 C16 1_555 1_555
C17 C16 1_555 1_555
H17 C17 1_555 1_555
C18 C13 1_555 1_555
H18 C18 1_555 1_555
C5 C6 1_555 1_555
C8 C9 1_555 1_555
C17 C18 1_555 1_555

#END
