
#######################################################################
#
#                 Cambridge Crystallographic Data Centre
#                                CCDC 
#
#######################################################################
#
# If this CIF has been generated from an entry in the Cambridge 
# Structural Database, then it will include bibliographic, chemical, 
# crystal, experimental, refinement or atomic coordinate data resulting 
# from the CCDC's data processing and validation procedures.
#
#######################################################################

data_KERRUV
_chemical_formula_moiety         'C13 H12 N2 O3 S1,H2 O1'
_chemical_name_systematic        
"N-(2-hydroxy-3-methoxybenzylidene)-N'-(2-thienylcarbonyl)hydrazine monohydrate"
_symmetry_cell_setting           orthorhombic
_symmetry_space_group_name_H-M   'P 21 21 21'
_symmetry_Int_Tables_number      19
_space_group_name_Hall           'P 2ac 2ab'
loop_
_symmetry_equiv_pos_site_id
_symmetry_equiv_pos_as_xyz
1 x,y,z
2 1/2-x,-y,1/2+z
3 -x,1/2+y,1/2-z
4 1/2+x,1/2-y,-z
_cell_length_a                   4.8349(15)
_cell_length_b                   12.890(4)
_cell_length_c                   22.123(7)
_cell_angle_alpha                90
_cell_angle_beta                 90
_cell_angle_gamma                90
_cell_volume                     1378.75
_exptl_crystal_colour            yellow
_exptl_crystal_description       block
_cell_formula_units_Z            4
_exptl_crystal_recrystallization_method N,N-dimethylformamide/water
loop_
_atom_site_label
_atom_site_type_symbol
_atom_site_fract_x
_atom_site_fract_y
_atom_site_fract_z
S1 S 0.95279(19) 0.85930(6) 0.89975(3)
O1 O 0.5723(5) 0.90115(13) 0.80076(9)
O2 O 0.0182(4) 0.88869(13) 0.65587(9)
H1 H 0.130(8) 0.877(3) 0.6850(16)
O3 O -0.3423(4) 0.91297(14) 0.57055(9)
N1 N 0.4425(5) 0.73508(17) 0.78137(9)
H2 H 0.454(6) 0.677(2) 0.7904(12)
N2 N 0.2606(5) 0.76270(15) 0.73657(9)
C1 C 1.1299(7) 0.7667(3) 0.93810(14)
H3 H 1.2580 0.7807 0.9684
C2 C 1.0630(7) 0.6704(2) 0.91943(13)
H4 H 1.1406 0.6105 0.9356
C3 C 0.8650(6) 0.66945(18) 0.87320(12)
H5 H 0.7971 0.6094 0.8553
C4 C 0.7827(5) 0.76882(17) 0.85741(11)
C5 C 0.5911(6) 0.80750(18) 0.81098(11)
C6 C 0.1149(6) 0.6891(2) 0.71431(11)
H6 H 0.1393 0.6224 0.7293
C7 C -0.0872(5) 0.70538(17) 0.66655(11)
C8 C -0.1253(5) 0.80234(17) 0.63951(11)
C9 C -0.3236(5) 0.81363(18) 0.59371(11)
C10 C -0.4790(6) 0.73024(19) 0.57500(12)
H7 H -0.6085 0.7383 0.5443
C11 C -0.4424(6) 0.63371(19) 0.60205(12)
H8 H -0.5495 0.5775 0.5899
C12 C -0.2470(6) 0.62167(18) 0.64692(12)
H9 H -0.2212 0.5568 0.6644
C13 C -0.5562(7) 0.9327(2) 0.52843(14)
H10 H -0.5237 0.8932 0.4923
H11 H -0.5593 1.0053 0.5187
H12 H -0.7307 0.9129 0.5456
O4 O 0.5418(6) 1.01644(14) 0.69903(10)
H13 H 0.666(7) 0.992(3) 0.6761(17)
H14 H 0.510(9) 0.979(2) 0.7320(13)
loop_
_geom_bond_atom_site_label_1
_geom_bond_atom_site_label_2
_geom_bond_site_symmetry_1
_geom_bond_site_symmetry_2
S1 C1 1_555 1_555
O1 C5 1_555 1_555
O2 H1 1_555 1_555
O3 C9 1_555 1_555
N1 H2 1_555 1_555
N2 N1 1_555 1_555
C1 H3 1_555 1_555
C2 C1 1_555 1_555
H4 C2 1_555 1_555
C3 C2 1_555 1_555
H5 C3 1_555 1_555
C4 S1 1_555 1_555
C5 N1 1_555 1_555
C6 N2 1_555 1_555
H6 C6 1_555 1_555
C7 C6 1_555 1_555
C8 O2 1_555 1_555
C9 C8 1_555 1_555
C10 C9 1_555 1_555
H7 C10 1_555 1_555
C11 C10 1_555 1_555
H8 C11 1_555 1_555
C12 C7 1_555 1_555
H9 C12 1_555 1_555
C13 O3 1_555 1_555
H10 C13 1_555 1_555
H11 C13 1_555 1_555
H12 C13 1_555 1_555
O4 H13 1_555 1_555
H14 O4 1_555 1_555
C3 C4 1_555 1_555
C4 C5 1_555 1_555
C7 C8 1_555 1_555
C11 C12 1_555 1_555

#END
