
#######################################################################
#
#                 Cambridge Crystallographic Data Centre
#                                CCDC 
#
#######################################################################
#
# If this CIF has been generated from an entry in the Cambridge 
# Structural Database, then it will include bibliographic, chemical, 
# crystal, experimental, refinement or atomic coordinate data resulting 
# from the CCDC's data processing and validation procedures.
#
#######################################################################

data_KERZUD
_chemical_formula_moiety         'C9 H15 N1 O1 S1'
_chemical_name_systematic        
(R)-3-Hydroxy-N,N-dimethyl-3-(2-thienyl)propanamine
_symmetry_cell_setting           orthorhombic
_symmetry_space_group_name_H-M   'P 21 21 21'
_symmetry_Int_Tables_number      19
_space_group_name_Hall           'P 2ac 2ab'
loop_
_symmetry_equiv_pos_site_id
_symmetry_equiv_pos_as_xyz
1 x,y,z
2 1/2-x,-y,1/2+z
3 -x,1/2+y,1/2-z
4 1/2+x,1/2-y,-z
_cell_length_a                   6.1000(12)
_cell_length_b                   9.6340(19)
_cell_length_c                   17.302(4)
_cell_angle_alpha                90
_cell_angle_beta                 90
_cell_angle_gamma                90
_cell_volume                     1016.79
_exptl_crystal_colour            colorless
_exptl_crystal_description       block
_chemical_melting_point          '346-347 K'
_cell_formula_units_Z            4
_exptl_crystal_recrystallization_method 'methyl t-butyl ether'
loop_
_atom_site_label
_atom_site_type_symbol
_atom_site_fract_x
_atom_site_fract_y
_atom_site_fract_z
S1 S 0.08429(16) 0.05783(13) 0.78744(7)
O1 O -0.0171(4) -0.1867(3) 0.89215(13)
N1 N 0.4614(4) -0.4837(3) 0.97470(15)
C1 C 0.2760(7) 0.1840(5) 0.7757(2)
H1 H 0.2483 0.2689 0.7521
C2 C 0.4721(7) 0.1471(4) 0.8043(2)
H2 H 0.5949 0.2043 0.8035
C3 C 0.4716(5) 0.0116(4) 0.83601(18)
H3 H 0.5947 -0.0308 0.8572
C4 C 0.2689(5) -0.0503(4) 0.83207(16)
C5 C 0.1952(5) -0.1921(4) 0.85730(18)
H4 H 0.1803 -0.2480 0.8103
C6 C 0.3665(5) -0.2636(3) 0.90722(18)
H5 H 0.5072 -0.2607 0.8811
H6 H 0.3810 -0.2139 0.9557
C7 C 0.3056(5) -0.4139(3) 0.9236(2)
H7 H 0.1612 -0.4166 0.9471
H8 H 0.2980 -0.4642 0.8751
C8 C 0.6742(5) -0.5060(4) 0.9373(2)
H9 H 0.7330 -0.4185 0.9208
H10 H 0.6557 -0.5656 0.8933
H11 H 0.7733 -0.5486 0.9733
C9 C 0.3725(7) -0.6180(4) 0.9983(3)
H12 H 0.2331 -0.6046 1.0229
H13 H 0.4717 -0.6618 1.0337
H14 H 0.3541 -0.6759 0.9536
H15 H -0.015(8) -0.145(5) 0.932(2)
loop_
_geom_bond_atom_site_label_1
_geom_bond_atom_site_label_2
_geom_bond_site_symmetry_1
_geom_bond_site_symmetry_2
S1 C1 1_555 1_555
O1 C5 1_555 1_555
N1 C7 1_555 1_555
C1 H1 1_555 1_555
C2 C1 1_555 1_555
H2 C2 1_555 1_555
C3 C2 1_555 1_555
H3 C3 1_555 1_555
C4 S1 1_555 1_555
C5 C4 1_555 1_555
H4 C5 1_555 1_555
C6 C5 1_555 1_555
H5 C6 1_555 1_555
H6 C6 1_555 1_555
C7 C6 1_555 1_555
H7 C7 1_555 1_555
H8 C7 1_555 1_555
C8 N1 1_555 1_555
H9 C8 1_555 1_555
H10 C8 1_555 1_555
H11 C8 1_555 1_555
C9 N1 1_555 1_555
H12 C9 1_555 1_555
H13 C9 1_555 1_555
H14 C9 1_555 1_555
H15 O1 1_555 1_555
C3 C4 1_555 1_555

#END
