
#######################################################################
#
#                 Cambridge Crystallographic Data Centre
#                                CCDC 
#
#######################################################################
#
# If this CIF has been generated from an entry in the Cambridge 
# Structural Database, then it will include bibliographic, chemical, 
# crystal, experimental, refinement or atomic coordinate data resulting 
# from the CCDC's data processing and validation procedures.
#
#######################################################################

data_KESDUH
_chemical_compound_source        'Salvia miltiorrhiza Bunge (Danshen)'
_chemical_formula_moiety         'C19 H18 O4'
_chemical_name_systematic        
6,7,8,9-Tetrahydro-1,6,6-trimethylfuro(3,2-c)naphth(2,1-e)oxepine-10,12-dione
_symmetry_cell_setting           orthorhombic
_symmetry_space_group_name_H-M   'P n a 21'
_symmetry_Int_Tables_number      33
_space_group_name_Hall           'P 2c -2n'
loop_
_symmetry_equiv_pos_site_id
_symmetry_equiv_pos_as_xyz
1 x,y,z
2 1/2-x,1/2+y,1/2+z
3 1/2+x,1/2-y,z
4 -x,-y,1/2+z
_cell_length_a                   17.305(7)
_cell_length_b                   11.963(3)
_cell_length_c                   7.618(7)
_cell_angle_alpha                90
_cell_angle_beta                 90
_cell_angle_gamma                90
_cell_volume                     1577.08
_exptl_crystal_colour            colorless
_cell_formula_units_Z            4
loop_
_atom_site_label
_atom_site_type_symbol
_atom_site_fract_x
_atom_site_fract_y
_atom_site_fract_z
O1 O 0.4606(1) 0.1807(2) 0.1338(3)
O2 O 0.4369(1) 0.1229(2) -0.4174(3)
O3 O 0.3783(1) 0.3210(2) 0.1242(4)
O4 O 0.5795(1) 0.1277(2) 0.0849(4)
C1 C 0.2643(2) 0.1269(2) 0.0834(4)
C2 C 0.2487(2) 0.1714(3) 0.2656(5)
C3 C 0.1864(2) 0.1050(4) 0.3589(5)
C4 C 0.1174(2) 0.0915(3) 0.2426(6)
C5 C 0.1336(2) 0.0260(2) 0.0773(5)
C6 C 0.2105(2) 0.0593(2) -0.0047(4)
C7 C 0.2294(2) 0.0209(2) -0.1728(5)
C8 C 0.2985(2) 0.0438(7) -0.2531(4)
C9 C 0.3531(1) 0.1078(2) -0.1663(4)
C10 C 0.3346(2) 0.1505(2) 0.0000
C11 C 0.3904(2) 0.2272(2) 0.0846(4)
C12 C 0.5181(2) 0.1474(2) 0.0209(4)
C13 C 0.5001(2) 0.1428(2) -0.1649(4)
C14 C 0.4290(2) 0.1280(2) -0.2405(4)
C15 C 0.5144(2) 0.1322(3) -0.4519(5)
C16 C 0.5558(2) 0.1427(3) -0.3057(5)
C17 C 0.6428(2) 0.1513(3) -0.2916(7)
C18 C 0.0671(2) 0.0505(4) -0.0524(7)
C19 C 0.1338(2) -0.1006(3) 0.1133(7)
H1 H 0.2954 0.1659 0.3329
H2 H 0.2333 0.2483 0.2576
H3 H 0.1714 0.1441 0.4635
H4 H 0.2058 0.0324 0.3896
H5 H 0.0776 0.0537 0.3073
H6 H 0.0997 0.1646 0.2097
H7 H 0.1925 -0.0241 -0.2347
H8 H 0.3089 0.0162 -0.3690
H9 H 0.5363 0.1313 -0.5677
H10 H 0.6618 0.0878 -0.2280
H11 H 0.6570 0.2186 -0.2312
H12 H 0.6647 0.1518 -0.4074
H13 H 0.0729 -0.0026 -0.1459
H14 H 0.0684 0.1249 -0.0996
H15 H 0.0185 0.0385 0.0054
H16 H 0.0851 -0.1166 0.1680
H17 H 0.1750 -0.1181 0.1932
H18 H 0.1391 -0.1449 0.0089
loop_
_geom_bond_atom_site_label_1
_geom_bond_atom_site_label_2
_geom_bond_site_symmetry_1
_geom_bond_site_symmetry_2
O1 C11 1_555 1_555
O2 C14 1_555 1_555
O3 C11 1_555 1_555
O4 C12 1_555 1_555
C1 C2 1_555 1_555
C2 C3 1_555 1_555
C3 C4 1_555 1_555
C4 C5 1_555 1_555
C5 C6 1_555 1_555
C6 C1 1_555 1_555
C7 C6 1_555 1_555
C8 C7 1_555 1_555
C9 C8 1_555 1_555
C10 C1 1_555 1_555
C11 C10 1_555 1_555
C12 O1 1_555 1_555
C13 C12 1_555 1_555
C14 C9 1_555 1_555
C15 O2 1_555 1_555
C16 C13 1_555 1_555
C17 C16 1_555 1_555
C18 C5 1_555 1_555
C19 C5 1_555 1_555
H1 C2 1_555 1_555
H2 C2 1_555 1_555
H3 C3 1_555 1_555
H4 C3 1_555 1_555
H5 C4 1_555 1_555
H6 C4 1_555 1_555
H7 C7 1_555 1_555
H8 C8 1_555 1_555
H9 C15 1_555 1_555
H10 C17 1_555 1_555
H11 C17 1_555 1_555
H12 C17 1_555 1_555
H13 C18 1_555 1_555
H14 C18 1_555 1_555
H15 C18 1_555 1_555
H16 C19 1_555 1_555
H17 C19 1_555 1_555
H18 C19 1_555 1_555
C9 C10 1_555 1_555
C13 C14 1_555 1_555
C15 C16 1_555 1_555

#END
