
#######################################################################
#
#                 Cambridge Crystallographic Data Centre
#                                CCDC 
#
#######################################################################
#
# If this CIF has been generated from an entry in the Cambridge 
# Structural Database, then it will include bibliographic, chemical, 
# crystal, experimental, refinement or atomic coordinate data resulting 
# from the CCDC's data processing and validation procedures.
#
#######################################################################

data_KESJUN
_chemical_formula_moiety         'C17 H21 F1 O4'
_chemical_name_systematic        
1-(4-Fluorophenyl)-12-\b-methoxy-10,11,13-trioxatricyclo(7.2.2.0^4,9^)tridecane
_chemical_properties_biological  'potential antimalarial activity'
_symmetry_cell_setting           monoclinic
_symmetry_space_group_name_H-M   'P 21'
_symmetry_Int_Tables_number      4
_space_group_name_Hall           'P 2yb'
loop_
_symmetry_equiv_pos_site_id
_symmetry_equiv_pos_as_xyz
1 x,y,z
2 -x,1/2+y,-z
_cell_length_a                   7.4196(19)
_cell_length_b                   8.7037(13)
_cell_length_c                   12.282(3)
_cell_angle_alpha                90
_cell_angle_beta                 92.02(3)
_cell_angle_gamma                90
_cell_volume                     792.654
_exptl_crystal_colour            colorless
_exptl_crystal_description       cubic
_chemical_melting_point          '81-84 deg.C'
_cell_formula_units_Z            2
loop_
_atom_site_label
_atom_site_type_symbol
_atom_site_fract_x
_atom_site_fract_y
_atom_site_fract_z
C1 C -0.1419(7) 1.0315(6) 0.2749(4)
H1 H -0.1960 0.9277 0.2787
C2 C -0.2332(8) 1.1105(8) 0.1763(4)
H2 H -0.1894 1.2164 0.1717
H3 H -0.3637 1.1141 0.1860
C3 C -0.1952(8) 1.0259(8) 0.0700(5)
H4 H -0.2489 0.9231 0.0716
H5 H -0.2507 1.0821 0.0083
C4 C 0.0052(9) 1.0124(8) 0.0552(5)
H6 H 0.0564 1.1152 0.0461
H7 H 0.0265 0.9536 -0.0112
C5 C 0.0997(8) 0.9339(7) 0.1516(4)
H8 H 0.2302 0.9372 0.1418
H9 H 0.0633 0.8257 0.1526
C6 C 0.0588(8) 1.0072(6) 0.2628(4)
C7 C 0.1827(8) 1.1417(6) 0.2892(4)
H10 H 0.3092 1.1097 0.2795
C8 C 0.2798(8) 1.3807(7) 0.2221(5)
H11 H 0.2464 1.4630 0.1721
H12 H 0.3933 1.3360 0.2011
H13 H 0.2929 1.4213 0.2954
C9 C 0.1210(7) 1.0817(5) 0.4743(4)
C10 C -0.0829(7) 1.0642(5) 0.4814(4)
H14 H -0.1104 0.9562 0.4960
H15 H -0.1230 1.1247 0.5433
C11 C -0.1898(7) 1.1139(6) 0.3805(4)
H16 H -0.1721 1.2245 0.3704
H17 H -0.3181 1.0972 0.3928
C12 C 0.2238(7) 1.1130(6) 0.5796(4)
C13 C 0.3840(7) 1.1984(6) 0.5821(4)
H18 H 0.4269 1.2396 0.5171
C14 C 0.4789(7) 1.2224(6) 0.6788(5)
H19 H 0.5876 1.2780 0.6808
C15 C 0.4110(8) 1.1633(6) 0.7719(4)
C16 C 0.2570(8) 1.0764(7) 0.7728(5)
H20 H 0.2171 1.0342 0.8382
C17 C 0.1630(8) 1.0523(6) 0.6773(4)
H21 H 0.0561 0.9944 0.6769
O1 O 0.1116(5) 0.8835(4) 0.3388(3)
O2 O 0.1413(5) 1.2641(4) 0.2183(3)
O3 O 0.1652(5) 1.1984(4) 0.3973(3)
O4 O 0.2069(5) 0.9419(4) 0.4380(3)
F1 F 0.5034(5) 1.1901(4) 0.8689(3)
loop_
_geom_bond_atom_site_label_1
_geom_bond_atom_site_label_2
_geom_bond_site_symmetry_1
_geom_bond_site_symmetry_2
C1 H1 1_555 1_555
C2 C1 1_555 1_555
H2 C2 1_555 1_555
H3 C2 1_555 1_555
C3 C2 1_555 1_555
H4 C3 1_555 1_555
H5 C3 1_555 1_555
C4 C3 1_555 1_555
H6 C4 1_555 1_555
H7 C4 1_555 1_555
C5 C4 1_555 1_555
H8 C5 1_555 1_555
H9 C5 1_555 1_555
C6 C1 1_555 1_555
C7 C6 1_555 1_555
H10 C7 1_555 1_555
C8 H11 1_555 1_555
H12 C8 1_555 1_555
H13 C8 1_555 1_555
C9 C10 1_555 1_555
C10 H14 1_555 1_555
H15 C10 1_555 1_555
C11 C1 1_555 1_555
H16 C11 1_555 1_555
H17 C11 1_555 1_555
C12 C9 1_555 1_555
C13 C12 1_555 1_555
H18 C13 1_555 1_555
C14 C13 1_555 1_555
H19 C14 1_555 1_555
C15 C14 1_555 1_555
C16 C15 1_555 1_555
H20 C16 1_555 1_555
C17 C12 1_555 1_555
H21 C17 1_555 1_555
O1 C6 1_555 1_555
O2 C7 1_555 1_555
O3 C7 1_555 1_555
O4 C9 1_555 1_555
F1 C15 1_555 1_555
C5 C6 1_555 1_555
C8 O2 1_555 1_555
C9 O3 1_555 1_555
C10 C11 1_555 1_555
C16 C17 1_555 1_555
O1 O4 1_555 1_555

#END
