
#######################################################################
#
#                 Cambridge Crystallographic Data Centre
#                                CCDC 
#
#######################################################################
#
# If this CIF has been generated from an entry in the Cambridge 
# Structural Database, then it will include bibliographic, chemical, 
# crystal, experimental, refinement or atomic coordinate data resulting 
# from the CCDC's data processing and validation procedures.
#
#######################################################################

data_KESKAU
_chemical_formula_moiety         'C17 H21 F1 O4'
_chemical_name_systematic        
1-(4-Fluorophenyl)-12-\a-methoxy-10,11,13-trioxatricyclo(7.2.2.0^4,9^)tridecane
_chemical_properties_biological  'potential antimalarial activity'
_symmetry_cell_setting           orthorhombic
_symmetry_space_group_name_H-M   'P 21 21 21'
_symmetry_Int_Tables_number      19
_space_group_name_Hall           'P 2ac 2ab'
loop_
_symmetry_equiv_pos_site_id
_symmetry_equiv_pos_as_xyz
1 x,y,z
2 1/2+x,1/2-y,-z
3 -x,1/2+y,1/2-z
4 1/2-x,-y,1/2+z
_cell_length_a                   8.0736(8)
_cell_length_b                   10.4646(15)
_cell_length_c                   18.277(2)
_cell_angle_alpha                90
_cell_angle_beta                 90
_cell_angle_gamma                90
_cell_volume                     1544.17
_exptl_crystal_colour            colorless
_exptl_crystal_description       cubic
_chemical_melting_point          '85-87 deg.C'
_cell_formula_units_Z            4
loop_
_atom_site_label
_atom_site_type_symbol
_atom_site_fract_x
_atom_site_fract_y
_atom_site_fract_z
C1 C -0.6225(2) 0.23889(17) 0.78404(11)
H1 H -0.6608 0.3280 0.7773
C2 C -0.7570(2) 0.1697(2) 0.82786(12)
H2 H -0.8629 0.1787 0.8022
H3 H -0.7302 0.0784 0.8297
C3 C -0.7768(3) 0.2189(2) 0.90523(12)
H4 H -0.8544 0.1637 0.9318
H5 H -0.8237 0.3052 0.9039
C4 C -0.6121(2) 0.2219(2) 0.94559(11)
H6 H -0.6277 0.2601 0.9941
H7 H -0.5713 0.1345 0.9523
C5 C -0.4853(2) 0.29911(19) 0.90286(11)
H8 H -0.3801 0.2992 0.9296
H9 H -0.5234 0.3878 0.8990
C6 C -0.4570(2) 0.24568(15) 0.82609(10)
C7 C -0.3683(2) 0.11733(17) 0.82668(10)
H10 H -0.4472 0.0523 0.8450
C8 C -0.1687(3) -0.0013(2) 0.89135(13)
H11 H -0.0767 0.0070 0.9251
H12 H -0.1305 -0.0409 0.8465
H13 H -0.2543 -0.0538 0.9133
C9 C -0.2858(2) 0.18158(15) 0.70616(10)
C10 C -0.4476(2) 0.21549(19) 0.66588(11)
H14 H -0.4483 0.3075 0.6559
H15 H -0.4490 0.1710 0.6187
C11 C -0.6047(2) 0.18117(19) 0.70780(11)
H16 H -0.6099 0.0879 0.7124
H17 H -0.7002 0.2080 0.6785
C12 C -0.1446(2) 0.14569(17) 0.65578(10)
C13 C -0.0541(2) 0.03460(17) 0.66527(10)
H18 H -0.0797 -0.0206 0.7042
C14 C 0.0745(2) 0.0039(2) 0.61763(11)
H19 H 0.1352 -0.0721 0.6236
C15 C 0.1103(2) 0.08640(19) 0.56214(11)
C16 C 0.0248(3) 0.19725(19) 0.55113(11)
H20 H 0.0525 0.2522 0.5123
C17 C -0.1040(3) 0.22707(19) 0.59843(11)
H21 H -0.1643 0.3030 0.5916
O1 O -0.35591(15) 0.34293(11) 0.79005(7)
O2 O -0.23427(15) 0.12208(12) 0.87544(7)
O3 O -0.31538(14) 0.07867(10) 0.75560(6)
O4 O -0.22091(14) 0.28631(11) 0.74645(6)
F1 F 0.23893(15) 0.05803(12) 0.51640(7)
loop_
_geom_bond_atom_site_label_1
_geom_bond_atom_site_label_2
_geom_bond_site_symmetry_1
_geom_bond_site_symmetry_2
C1 H1 1_555 1_555
C2 C1 1_555 1_555
H2 C2 1_555 1_555
H3 C2 1_555 1_555
C3 C2 1_555 1_555
H4 C3 1_555 1_555
H5 C3 1_555 1_555
C4 C3 1_555 1_555
H6 C4 1_555 1_555
H7 C4 1_555 1_555
C5 C4 1_555 1_555
H8 C5 1_555 1_555
H9 C5 1_555 1_555
C6 C1 1_555 1_555
C7 C6 1_555 1_555
H10 C7 1_555 1_555
C8 H11 1_555 1_555
H12 C8 1_555 1_555
H13 C8 1_555 1_555
C9 C10 1_555 1_555
C10 H14 1_555 1_555
H15 C10 1_555 1_555
C11 C1 1_555 1_555
H16 C11 1_555 1_555
H17 C11 1_555 1_555
C12 C9 1_555 1_555
C13 C12 1_555 1_555
H18 C13 1_555 1_555
C14 C13 1_555 1_555
H19 C14 1_555 1_555
C15 C14 1_555 1_555
C16 C15 1_555 1_555
H20 C16 1_555 1_555
C17 C12 1_555 1_555
H21 C17 1_555 1_555
O1 C6 1_555 1_555
O2 C7 1_555 1_555
O3 C7 1_555 1_555
O4 C9 1_555 1_555
F1 C15 1_555 1_555
C5 C6 1_555 1_555
C8 O2 1_555 1_555
C9 O3 1_555 1_555
C10 C11 1_555 1_555
C16 C17 1_555 1_555
O1 O4 1_555 1_555

#END
