
#######################################################################
#
#                 Cambridge Crystallographic Data Centre
#                                CCDC 
#
#######################################################################
#
# If this CIF has been generated from an entry in the Cambridge 
# Structural Database, then it will include bibliographic, chemical, 
# crystal, experimental, refinement or atomic coordinate data resulting 
# from the CCDC's data processing and validation procedures.
#
#######################################################################

data_KESMON
_chemical_formula_moiety         'C27 H22 O7'
_chemical_name_systematic        
'methyl 2-(4-(3-ethoxy-3-oxoprop-1-en-1-yl)-6-methoxy-3-oxo-3H-xanthen-9-yl)benzoate'
_symmetry_cell_setting           monoclinic
_symmetry_space_group_name_H-M   'P 21/c'
_symmetry_Int_Tables_number      14
_space_group_name_Hall           '-P 2ybc'
loop_
_symmetry_equiv_pos_site_id
_symmetry_equiv_pos_as_xyz
1 x,y,z
2 -x,1/2+y,1/2-z
3 -x,-y,-z
4 x,1/2-y,1/2+z
_cell_length_a                   10.4948(2)
_cell_length_b                   19.9403(5)
_cell_length_c                   11.4657(3)
_cell_angle_alpha                90
_cell_angle_beta                 115.1900(10)
_cell_angle_gamma                90
_cell_volume                     2171.24
_exptl_crystal_colour            'dark red'
_exptl_crystal_description       irregular
_cell_formula_units_Z            4
loop_
_atom_site_label
_atom_site_type_symbol
_atom_site_fract_x
_atom_site_fract_y
_atom_site_fract_z
O1 O 0.14130(15) 0.92860(6) -0.07987(11)
O2 O 0.35205(12) 0.76370(5) 0.24544(10)
O3 O 0.56009(15) 0.60379(6) 0.57696(12)
O4 O 0.62944(15) 0.86278(6) 0.66227(12)
O5 O 0.74109(14) 0.79148(6) 0.82672(11)
O6 O -0.02990(15) 0.64622(7) 0.04253(12)
O7 O -0.18437(15) 0.58893(7) -0.12682(12)
C1 C 0.2056(3) 0.98105(9) 0.01078(18)
H1 H 0.1886 1.0241 -0.0345
H2 H 0.3072 0.9730 0.0556
H3 H 0.1652 0.9821 0.0737
C2 C 0.26934(18) 0.77885(8) 0.11892(15)
C3 C 0.24928(18) 0.84643(8) 0.08956(15)
H4 H 0.2896 0.8796 0.1546
C4 C 0.16841(19) 0.86435(8) -0.03772(16)
C5 C 0.10785(19) 0.81548(9) -0.13401(16)
H5 H 0.0527 0.8285 -0.2208
C6 C 0.12893(19) 0.74883(8) -0.10177(16)
H6 H 0.0877 0.7159 -0.1670
C7 C 0.21056(19) 0.72836(8) 0.02610(15)
C8 C 0.23869(19) 0.66010(8) 0.06720(16)
C9 C 0.32071(19) 0.64557(8) 0.19427(16)
C10 C 0.3499(2) 0.57797(8) 0.24256(17)
H7 H 0.3129 0.5416 0.1844
C11 C 0.4279(2) 0.56533(9) 0.36705(17)
H8 H 0.4439 0.5200 0.3949
C12 C 0.4897(2) 0.61860(8) 0.46260(16)
C13 C 0.46310(19) 0.68835(8) 0.41642(15)
C14 C 0.37961(19) 0.69861(8) 0.28680(16)
C15 C 0.52014(19) 0.74531(8) 0.50272(16)
H9 H 0.4953 0.7885 0.4649
C16 C 0.60322(19) 0.74370(8) 0.62871(16)
H10 H 0.6288 0.7017 0.6715
C17 C 0.65593(19) 0.80591(9) 0.70271(16)
C18 C 0.8001(2) 0.84821(9) 0.91091(17)
H11 H 0.7240 0.8780 0.9095
H12 H 0.8619 0.8743 0.8824
C19 C 0.8840(2) 0.82113(10) 1.04545(17)
H13 H 0.9587 0.7916 1.0455
H14 H 0.8216 0.7957 1.0729
H15 H 0.9260 0.8585 1.1050
C20 C 0.1919(2) 0.60400(8) -0.02816(15)
C21 C 0.2945(2) 0.57430(9) -0.05869(17)
H16 H 0.3872 0.5922 -0.0235
C22 C 0.2629(2) 0.51905(9) -0.13970(17)
H17 H 0.3336 0.4986 -0.1587
C23 C 0.1258(2) 0.49408(9) -0.19287(17)
H18 H 0.1034 0.4560 -0.2478
C24 C 0.0223(2) 0.52397(9) -0.16678(16)
H19 H -0.0713 0.5072 -0.2060
C25 C 0.0541(2) 0.57887(8) -0.08295(15)
C26 C -0.0555(2) 0.60891(8) -0.04773(15)
C27 C -0.2966(2) 0.61685(11) -0.10025(19)
H20 H -0.3877 0.6024 -0.1671
H21 H -0.2910 0.6659 -0.0997
H22 H -0.2870 0.6011 -0.0160
loop_
_geom_bond_atom_site_label_1
_geom_bond_atom_site_label_2
_geom_bond_site_symmetry_1
_geom_bond_site_symmetry_2
O1 C1 1_555 1_555
O2 C2 1_555 1_555
O3 C12 1_555 1_555
O4 C17 1_555 1_555
O5 C17 1_555 1_555
O6 C26 1_555 1_555
O7 C26 1_555 1_555
C1 H1 1_555 1_555
H2 C1 1_555 1_555
H3 C1 1_555 1_555
C2 C3 1_555 1_555
C3 H4 1_555 1_555
C4 O1 1_555 1_555
C5 C4 1_555 1_555
H5 C5 1_555 1_555
C6 C5 1_555 1_555
H6 C6 1_555 1_555
C7 C2 1_555 1_555
C8 C7 1_555 1_555
C9 C8 1_555 1_555
C10 C9 1_555 1_555
H7 C10 1_555 1_555
C11 C10 1_555 1_555
H8 C11 1_555 1_555
C12 C11 1_555 1_555
C13 C12 1_555 1_555
C14 O2 1_555 1_555
C15 C13 1_555 1_555
H9 C15 1_555 1_555
C16 C15 1_555 1_555
H10 C16 1_555 1_555
C17 C16 1_555 1_555
C18 O5 1_555 1_555
H11 C18 1_555 1_555
H12 C18 1_555 1_555
C19 C18 1_555 1_555
H13 C19 1_555 1_555
H14 C19 1_555 1_555
H15 C19 1_555 1_555
C20 C8 1_555 1_555
C21 C20 1_555 1_555
H16 C21 1_555 1_555
C22 C21 1_555 1_555
H17 C22 1_555 1_555
C23 C22 1_555 1_555
H18 C23 1_555 1_555
C24 C23 1_555 1_555
H19 C24 1_555 1_555
C25 C20 1_555 1_555
C26 C25 1_555 1_555
C27 O7 1_555 1_555
H20 C27 1_555 1_555
H21 C27 1_555 1_555
H22 C27 1_555 1_555
C3 C4 1_555 1_555
C6 C7 1_555 1_555
C9 C14 1_555 1_555
C13 C14 1_555 1_555
C24 C25 1_555 1_555

#END
