
#######################################################################
#
#                 Cambridge Crystallographic Data Centre
#                                CCDC 
#
#######################################################################
#
# If this CIF has been generated from an entry in the Cambridge 
# Structural Database, then it will include bibliographic, chemical, 
# crystal, experimental, refinement or atomic coordinate data resulting 
# from the CCDC's data processing and validation procedures.
#
#######################################################################

data_KESSUZ
_chemical_name_common            
't-butyl (R)-3-(N-(3-chloropyridin-2-yl)-4-(1-methyl-5-(((S)-1-(pivaloyloxy)ethoxy)carbonyl)-1H-pyrazol-4-yl)benzamido)piperidine-1-carboxylate'
_chemical_formula_moiety         'C34 H42 Cl1 N5 O7'
_chemical_name_systematic        
't-butyl (R)-3-[(3-chloropyridin-2-yl){4-[5-({(S)-1-[(2,2-dimethylpropanoyl)oxy]ethoxy}carbonyl)-1-methyl-1H-pyrazol-4-yl]benzene-1-carbonyl}amino]piperidine-1-carboxylate'
_symmetry_cell_setting           monoclinic
_symmetry_space_group_name_H-M   'P 21'
_symmetry_Int_Tables_number      4
_space_group_name_Hall           'P 2yb'
loop_
_symmetry_equiv_pos_site_id
_symmetry_equiv_pos_as_xyz
1 x,y,z
2 -x,1/2+y,-z
_cell_length_a                   12.4773(17)
_cell_length_b                   10.6738(16)
_cell_length_c                   13.0360(18)
_cell_angle_alpha                90
_cell_angle_beta                 90.421(7)
_cell_angle_gamma                90
_cell_volume                     1736.09
_exptl_crystal_colour            colorless
_exptl_crystal_description       prism
_cell_formula_units_Z            2
_exptl_crystal_recrystallization_method acetonitrile
loop_
_atom_site_label
_atom_site_type_symbol
_atom_site_fract_x
_atom_site_fract_y
_atom_site_fract_z
C1 C 0.5471(3) 0.6138(5) 0.9884(2)
H1 H 0.6089 0.5605 0.9918
H2 H 0.5677 0.6949 0.9636
H3 H 0.4949 0.5779 0.9426
C2 C 0.4629(4) 0.5019(5) 1.1361(3)
H4 H 0.5232 0.4463 1.1407
H5 H 0.4099 0.4668 1.0908
H6 H 0.4326 0.5131 1.2029
C3 C 0.4059(3) 0.7203(5) 1.0944(3)
H7 H 0.3515 0.6924 1.0472
H8 H 0.4315 0.8012 1.0736
H9 H 0.3763 0.7259 1.1620
C4 C 0.49900(18) 0.6269(3) 1.09493(16)
C5 C 0.58907(16) 0.6756(2) 1.16161(16)
C6 C 0.69996(15) 0.8491(2) 1.19137(15)
H10 H 0.7056 0.8184 1.2621
C7 C 0.88479(16) 0.7948(2) 1.17746(14)
C8 C 0.6902(2) 0.9889(3) 1.1896(3)
H11 H 0.6912 1.0178 1.1199
H12 H 0.7492 1.0253 1.2268
H13 H 0.6241 1.0133 1.2209
C9 C 0.96302(14) 0.72800(19) 1.11381(14)
C10 C 1.05328(16) 0.6056(2) 1.00807(17)
H14 H 1.0712 0.5569 0.9515
C11 C 0.95662(14) 0.67011(19) 1.01809(14)
C12 C 1.1076(2) 0.7278(3) 1.2518(2)
H15 H 1.1805 0.6992 1.2549
H16 H 1.0671 0.6884 1.3052
H17 H 1.1059 0.8171 1.2609
C13 C 0.87240(14) 0.67366(19) 0.93801(12)
C14 C 0.83217(15) 0.78575(17) 0.90018(13)
H18 H 0.8548 0.8611 0.9288
C15 C 0.75912(14) 0.78653(17) 0.82076(12)
H19 H 0.7344 0.8624 0.7947
C16 C 0.72225(13) 0.67535(18) 0.77949(12)
C17 C 0.76203(17) 0.56255(19) 0.81732(14)
H20 H 0.7373 0.4872 0.7903
C18 C 0.83795(17) 0.56208(19) 0.89461(15)
H21 H 0.8662 0.4865 0.9178
C19 C 0.63057(14) 0.66780(18) 0.70574(12)
C20 C 0.71542(13) 0.82426(18) 0.59143(12)
C21 C 0.80800(14) 0.7719(2) 0.55033(13)
C22 C 0.88797(16) 0.8492(2) 0.51223(15)
H22 H 0.9507 0.8157 0.4856
C23 C 0.87174(19) 0.9758(3) 0.51496(19)
H23 H 0.9234 1.0306 0.4903
C24 C 0.7764(2) 1.0211(2) 0.55541(17)
H24 H 0.7652 1.1072 0.5551
C25 C 0.52942(13) 0.74717(18) 0.56002(12)
H25 H 0.4996 0.6623 0.5635
C26 C 0.55403(16) 0.7745(3) 0.44802(13)
H26 H 0.5851 0.8573 0.4415
H27 H 0.6050 0.7137 0.4222
C27 C 0.45014(16) 0.7670(3) 0.38670(13)
H28 H 0.4636 0.7908 0.3162
H29 H 0.4242 0.6814 0.3868
C28 C 0.36556(15) 0.8520(2) 0.43095(13)
H30 H 0.3875 0.9385 0.4224
H31 H 0.2988 0.8402 0.3935
C29 C 0.44525(13) 0.8368(2) 0.60231(12)
H32 H 0.4296 0.8155 0.6730
H33 H 0.4722 0.9220 0.6006
C30 C 0.24743(14) 0.82590(17) 0.57823(12)
C31 C 0.14724(15) 0.8362(2) 0.74056(14)
C32 C 0.0961(2) 0.9613(3) 0.7162(2)
H34 H 0.1492 1.0261 0.7212
H35 H 0.0398 0.9776 0.7642
H36 H 0.0670 0.9595 0.6479
C33 C 0.07293(18) 0.7264(2) 0.72130(18)
H37 H 0.0486 0.7279 0.6513
H38 H 0.0124 0.7321 0.7661
H39 H 0.1106 0.6495 0.7343
C34 C 0.1890(2) 0.8368(3) 0.85032(15)
H40 H 0.2239 0.7585 0.8648
H41 H 0.1302 0.8480 0.8965
H42 H 0.2392 0.9041 0.8590
Cl1 Cl 0.82331(4) 0.61081(5) 0.54187(4)
N1 N 1.06119(13) 0.69590(19) 1.15248(13)
N2 N 1.11644(14) 0.6222(2) 1.08931(16)
N3 N 0.62717(11) 0.74952(15) 0.62497(10)
N4 N 0.70039(13) 0.94833(16) 0.59448(12)
N5 N 0.34787(12) 0.82712(18) 0.53991(10)
O1 O 0.63822(15) 0.6161(2) 1.22285(15)
O2 O 0.61000(10) 0.79813(15) 1.14215(11)
O3 O 0.79018(10) 0.80537(17) 1.13067(9)
O4 O 0.90005(15) 0.8338(3) 1.26190(14)
O5 O 0.55897(11) 0.59184(16) 0.72120(10)
O6 O 0.16735(10) 0.82608(14) 0.52516(9)
O7 O 0.24735(10) 0.82109(15) 0.68131(9)
loop_
_geom_bond_atom_site_label_1
_geom_bond_atom_site_label_2
_geom_bond_site_symmetry_1
_geom_bond_site_symmetry_2
C1 H1 1_555 1_555
H2 C1 1_555 1_555
H3 C1 1_555 1_555
C2 H4 1_555 1_555
H5 C2 1_555 1_555
H6 C2 1_555 1_555
C3 H7 1_555 1_555
H8 C3 1_555 1_555
H9 C3 1_555 1_555
C4 C1 1_555 1_555
C5 C4 1_555 1_555
C6 H10 1_555 1_555
C7 C9 1_555 1_555
C8 C6 1_555 1_555
H11 C8 1_555 1_555
H12 C8 1_555 1_555
H13 C8 1_555 1_555
C9 C11 1_555 1_555
C10 H14 1_555 1_555
C11 C10 1_555 1_555
C12 H15 1_555 1_555
H16 C12 1_555 1_555
H17 C12 1_555 1_555
C13 C11 1_555 1_555
C14 C13 1_555 1_555
H18 C14 1_555 1_555
C15 C14 1_555 1_555
H19 C15 1_555 1_555
C16 C15 1_555 1_555
C17 C16 1_555 1_555
H20 C17 1_555 1_555
C18 C13 1_555 1_555
H21 C18 1_555 1_555
C19 C16 1_555 1_555
C20 C21 1_555 1_555
C21 C22 1_555 1_555
C22 H22 1_555 1_555
C23 C22 1_555 1_555
H23 C23 1_555 1_555
C24 C23 1_555 1_555
H24 C24 1_555 1_555
C25 H25 1_555 1_555
C26 C25 1_555 1_555
H26 C26 1_555 1_555
H27 C26 1_555 1_555
C27 C26 1_555 1_555
H28 C27 1_555 1_555
H29 C27 1_555 1_555
C28 C27 1_555 1_555
H30 C28 1_555 1_555
H31 C28 1_555 1_555
C29 C25 1_555 1_555
H32 C29 1_555 1_555
H33 C29 1_555 1_555
C30 N5 1_555 1_555
C31 C32 1_555 1_555
C32 H34 1_555 1_555
H35 C32 1_555 1_555
H36 C32 1_555 1_555
C33 C31 1_555 1_555
H37 C33 1_555 1_555
H38 C33 1_555 1_555
H39 C33 1_555 1_555
C34 C31 1_555 1_555
H40 C34 1_555 1_555
H41 C34 1_555 1_555
H42 C34 1_555 1_555
Cl1 C21 1_555 1_555
N1 C9 1_555 1_555
N2 C10 1_555 1_555
N3 C19 1_555 1_555
N4 C20 1_555 1_555
N5 C28 1_555 1_555
O1 C5 1_555 1_555
O2 C5 1_555 1_555
O3 C6 1_555 1_555
O4 C7 1_555 1_555
O5 C19 1_555 1_555
O6 C30 1_555 1_555
O7 C30 1_555 1_555
C2 C4 1_555 1_555
C3 C4 1_555 1_555
C6 O2 1_555 1_555
C7 O3 1_555 1_555
C12 N1 1_555 1_555
C17 C18 1_555 1_555
C20 N3 1_555 1_555
C24 N4 1_555 1_555
C25 N3 1_555 1_555
C29 N5 1_555 1_555
C31 O7 1_555 1_555
N1 N2 1_555 1_555

#END
