
#######################################################################
#
#                 Cambridge Crystallographic Data Centre
#                                CCDC 
#
#######################################################################
#
# If this CIF has been generated from an entry in the Cambridge 
# Structural Database, then it will include bibliographic, chemical, 
# crystal, experimental, refinement or atomic coordinate data resulting 
# from the CCDC's data processing and validation procedures.
#
#######################################################################

data_KESTEK
_chemical_formula_moiety         'C16 H17 N7 O5'
_chemical_name_systematic        
'(S)-ethyl (1-(5-(1-methyl-4-(4-nitrophenyl)-1H-pyrazol-5-yl)-1H-tetrazol-1-yl)ethyl) carbonate'
_symmetry_cell_setting           monoclinic
_symmetry_space_group_name_H-M   'P 21'
_symmetry_Int_Tables_number      4
_space_group_name_Hall           'P 2yb'
loop_
_symmetry_equiv_pos_site_id
_symmetry_equiv_pos_as_xyz
1 x,y,z
2 -x,1/2+y,-z
_cell_length_a                   9.1284(8)
_cell_length_b                   7.4486(7)
_cell_length_c                   13.8629(11)
_cell_angle_alpha                90
_cell_angle_beta                 107.149(6)
_cell_angle_gamma                90
_cell_volume                     900.685
_exptl_crystal_colour            colorless
_exptl_crystal_description       prism
_cell_formula_units_Z            2
_exptl_crystal_recrystallization_method 'ethyl acetate'
loop_
_atom_site_label
_atom_site_type_symbol
_atom_site_fract_x
_atom_site_fract_y
_atom_site_fract_z
O1 O 0.54548(18) 0.7936(3) 1.05767(12)
O2 O 0.73959(17) 0.6144(2) 1.06754(11)
O3 O 0.91801(14) 0.99060(19) 0.80103(9)
O4 O 0.76863(19) 1.2254(2) 0.82151(12)
O5 O 0.89644(15) 1.0424(2) 0.95001(9)
N1 N 0.63067(19) 0.7088(3) 1.01906(13)
N2 N 0.40983(17) 0.8247(3) 0.43006(12)
N3 N 0.56315(17) 0.8100(2) 0.44386(11)
N4 N 0.89150(18) 0.6482(2) 0.54354(12)
N5 N 1.04375(18) 0.6848(3) 0.59294(12)
N6 N 1.05639(17) 0.8228(3) 0.65280(12)
N7 N 0.91143(17) 0.8812(2) 0.64369(11)
C1 C 0.6021(2) 0.7244(3) 0.90939(15)
C2 C 0.4805(2) 0.8298(3) 0.85356(16)
H1 H 0.4132 0.8862 0.8850
C3 C 0.4601(2) 0.8504(3) 0.75145(15)
H2 H 0.3784 0.9225 0.7121
C4 C 0.5595(2) 0.7653(3) 0.70536(15)
C5 C 0.6773(2) 0.6532(3) 0.76396(15)
H3 H 0.7415 0.5907 0.7324
C6 C 0.7005(2) 0.6331(3) 0.86631(15)
H4 H 0.7808 0.5596 0.9061
C7 C 0.5361(2) 0.7905(3) 0.59706(14)
C8 C 0.3932(2) 0.8143(3) 0.52126(15)
H5 H 0.2973 0.8218 0.5348
C9 C 0.6427(2) 0.7901(3) 0.54322(14)
C10 C 0.6234(2) 0.8271(3) 0.35805(14)
H6 H 0.6717 0.9450 0.3598
H7 H 0.5395 0.8149 0.2952
H8 H 0.6996 0.7328 0.3614
C11 C 0.8120(2) 0.7715(3) 0.57607(13)
C12 C 0.8841(2) 1.0452(3) 0.69632(13)
H9 H 0.7737 1.0803 0.6700
C13 C 0.9843(2) 1.2017(3) 0.68398(15)
H10 H 1.0920 1.1739 0.7185
H11 H 0.9544 1.3101 0.7135
H12 H 0.9711 1.2217 0.6120
C14 C 0.8528(2) 1.0995(3) 0.85512(14)
C15 C 0.8366(3) 1.1533(3) 1.01751(15)
H13 H 0.7235 1.1611 0.9916
H14 H 0.8793 1.2763 1.0219
C16 C 0.8841(2) 1.0653(3) 1.12028(15)
H15 H 0.9962 1.0649 1.1469
H16 H 0.8461 0.9415 1.1144
H17 H 0.8408 1.1324 1.1662
loop_
_geom_bond_atom_site_label_1
_geom_bond_atom_site_label_2
_geom_bond_site_symmetry_1
_geom_bond_site_symmetry_2
O1 N1 1_555 1_555
O2 N1 1_555 1_555
O3 C12 1_555 1_555
O4 C14 1_555 1_555
O5 C14 1_555 1_555
N1 C1 1_555 1_555
N2 N3 1_555 1_555
N3 C9 1_555 1_555
N4 N5 1_555 1_555
N5 N6 1_555 1_555
N6 N7 1_555 1_555
N7 C11 1_555 1_555
C1 C2 1_555 1_555
C2 H1 1_555 1_555
C3 C2 1_555 1_555
H2 C3 1_555 1_555
C4 C3 1_555 1_555
C5 C4 1_555 1_555
H3 C5 1_555 1_555
C6 C1 1_555 1_555
H4 C6 1_555 1_555
C7 C4 1_555 1_555
C8 N2 1_555 1_555
H5 C8 1_555 1_555
C9 C7 1_555 1_555
C10 N3 1_555 1_555
H6 C10 1_555 1_555
H7 C10 1_555 1_555
H8 C10 1_555 1_555
C11 N4 1_555 1_555
C12 N7 1_555 1_555
H9 C12 1_555 1_555
C13 C12 1_555 1_555
H10 C13 1_555 1_555
H11 C13 1_555 1_555
H12 C13 1_555 1_555
C14 O3 1_555 1_555
C15 O5 1_555 1_555
H13 C15 1_555 1_555
H14 C15 1_555 1_555
C16 C15 1_555 1_555
H15 C16 1_555 1_555
H16 C16 1_555 1_555
H17 C16 1_555 1_555
C5 C6 1_555 1_555
C7 C8 1_555 1_555
C9 C11 1_555 1_555

#END
