
#######################################################################
#
#                 Cambridge Crystallographic Data Centre
#                                CCDC 
#
#######################################################################
#
# If this CIF has been generated from an entry in the Cambridge 
# Structural Database, then it will include bibliographic, chemical, 
# crystal, experimental, refinement or atomic coordinate data resulting 
# from the CCDC's data processing and validation procedures.
#
#######################################################################

data_KESTAG
_chemical_name_common            
'(1R)-1-[(ethoxycarbonyl)oxy]ethyl 4-(4-((3-chloropyridin-2-yl)[(3R)-piperidin-3-yl]carbamoyl)phenyl)-1-methyl-1H-pyrazole-5-carboxylate hydrochloride'
_chemical_formula_moiety         'C27 H31 Cl1 N5 O6 1+,Cl1 1-'
_chemical_name_systematic        
'(R,R)-3-[(3-chloropyridin-2-yl){4-[5-({1-[(ethoxycarbonyl)oxy]ethoxy}carbonyl)-1-methyl-1H-pyrazol-4-yl]benzene-1-carbonyl}amino]piperidin-1-ium chloride'
_symmetry_cell_setting           orthorhombic
_symmetry_space_group_name_H-M   'P 21 21 21'
_symmetry_Int_Tables_number      19
_space_group_name_Hall           'P 2ac 2ab'
loop_
_symmetry_equiv_pos_site_id
_symmetry_equiv_pos_as_xyz
1 x,y,z
2 1/2-x,-y,1/2+z
3 -x,1/2+y,1/2-z
4 1/2+x,1/2-y,-z
_cell_length_a                   6.7302(2)
_cell_length_b                   7.7861(2)
_cell_length_c                   56.2192(13)
_cell_angle_alpha                90
_cell_angle_beta                 90
_cell_angle_gamma                90
_cell_volume                     2946
_exptl_crystal_description       plate
_cell_formula_units_Z            4
loop_
_atom_site_label
_atom_site_type_symbol
_atom_site_fract_x
_atom_site_fract_y
_atom_site_fract_z
C1 C 0.3348(4) -0.3889(3) 0.08793(4)
C2 C 0.4237(5) -0.5469(4) 0.08795(6)
H1 H 0.3685 -0.6379 0.0964
C3 C 0.5965(5) -0.5682(4) 0.07524(6)
H2 H 0.6608 -0.6739 0.0749
C4 C 0.6725(4) -0.4301(4) 0.06299(5)
H3 H 0.7869 -0.4456 0.0540
C5 C 0.4241(3) -0.2538(3) 0.07623(4)
C6 C 0.2390(3) -0.0201(3) 0.05537(4)
H4 H 0.1931 0.0964 0.0590
C7 C 0.0573(4) -0.1248(4) 0.04901(5)
H5 H -0.0362 -0.1225 0.0621
H6 H 0.0957 -0.2433 0.0463
C8 C 0.1017(4) -0.0415(4) 0.00636(5)
H7 H 0.1458 -0.1556 0.0019
H8 H 0.0366 0.0103 -0.0073
C9 C -0.0417(4) -0.0533(4) 0.02676(5)
H9 H -0.1519 -0.1269 0.0223
H10 H -0.0945 0.0600 0.0302
C10 C 0.3816(4) -0.0063(3) 0.03451(4)
H11 H 0.4917 0.0683 0.0387
H12 H 0.4348 -0.1188 0.0307
C11 C 0.2985(3) -0.0058(3) 0.09814(4)
C12 C 0.4255(3) -0.0488(3) 0.11900(4)
C13 C 0.3400(4) -0.0437(4) 0.14155(4)
H13 H 0.2045 -0.0226 0.1430
C14 C 0.4511(4) -0.0690(4) 0.16159(4)
H14 H 0.3896 -0.0689 0.1764
C15 C 0.6557(4) -0.0950(3) 0.16008(4)
C16 C 0.7395(4) -0.1019(4) 0.13751(4)
H15 H 0.8752 -0.1223 0.1361
C17 C 0.6278(4) -0.0796(3) 0.11724(4)
H16 H 0.6880 -0.0852 0.1024
C18 C 0.7827(4) -0.1154(4) 0.18130(4)
C19 C 0.9473(5) -0.2224(4) 0.18315(6)
H17 H 0.9937 -0.2907 0.1708
C20 C 0.7691(4) -0.0389(4) 0.20345(5)
C21 C 0.9870(7) -0.0553(6) 0.24054(6)
H18 H 1.0686 -0.1446 0.2471
H19 H 0.8743 -0.0367 0.2507
H20 H 1.0628 0.0488 0.2394
C22 C 0.6401(5) 0.0965(4) 0.21326(5)
C23 C 0.4526(5) 0.3487(4) 0.20469(5)
H21 H 0.3601 0.3108 0.2171
C24 C 0.5719(7) 0.4993(5) 0.21287(7)
H22 H 0.6612 0.5340 0.2004
H23 H 0.6468 0.4680 0.2267
H24 H 0.4844 0.5927 0.2167
C25 C 0.1767(5) 0.3183(4) 0.17986(6)
C26 C -0.0756(7) 0.2962(5) 0.15096(10)
H25 H -0.0366 0.2197 0.1382
H26 H -0.1321 0.2258 0.1635
C27 C -0.2206(6) 0.4025(6) 0.14262(8)
H27 H -0.2777 0.4652 0.1556
H28 H -0.3220 0.3357 0.1350
H29 H -0.1643 0.4816 0.1314
Cl1 Cl 0.11033(12) -0.36314(10) 0.102773(14)
H30 H 0.246(5) 0.189(3) 0.0161(5)
H31 H 0.356(4) 0.078(4) -0.0003(4)
N1 N 0.5891(3) -0.2751(3) 0.06352(3)
N2 N 0.3423(3) -0.0841(2) 0.07675(3)
N3 N 0.2750(3) 0.0644(3) 0.01354(4)
N4 N 1.0310(5) -0.2165(4) 0.20448(5)
N5 N 0.9187(4) -0.1061(4) 0.21686(4)
O1 O 0.1683(3) 0.1028(2) 0.09957(3)
O2 O 0.5989(6) 0.1106(4) 0.23401(4)
O3 O 0.5791(3) 0.2083(2) 0.19692(3)
O4 O 0.3492(3) 0.4000(3) 0.18388(3)
O5 O 0.1093(5) 0.2131(4) 0.19256(6)
O6 O 0.1005(3) 0.3771(3) 0.16009(4)
Cl2 Cl 0.11618(10) 0.43232(9) 0.022990(11)
loop_
_geom_bond_atom_site_label_1
_geom_bond_atom_site_label_2
_geom_bond_site_symmetry_1
_geom_bond_site_symmetry_2
C1 C2 1_555 1_555
C2 H1 1_555 1_555
C3 C2 1_555 1_555
H2 C3 1_555 1_555
C4 C3 1_555 1_555
H3 C4 1_555 1_555
C5 C1 1_555 1_555
C6 H4 1_555 1_555
C7 C6 1_555 1_555
H5 C7 1_555 1_555
H6 C7 1_555 1_555
C8 H7 1_555 1_555
H8 C8 1_555 1_555
C9 C7 1_555 1_555
H9 C9 1_555 1_555
H10 C9 1_555 1_555
C10 C6 1_555 1_555
H11 C10 1_555 1_555
H12 C10 1_555 1_555
C11 C12 1_555 1_555
C12 C13 1_555 1_555
C13 H13 1_555 1_555
C14 C13 1_555 1_555
H14 C14 1_555 1_555
C15 C14 1_555 1_555
C16 C15 1_555 1_555
H15 C16 1_555 1_555
C17 C12 1_555 1_555
H16 C17 1_555 1_555
C18 C15 1_555 1_555
C19 C18 1_555 1_555
H17 C19 1_555 1_555
C20 C18 1_555 1_555
C21 H18 1_555 1_555
H19 C21 1_555 1_555
H20 C21 1_555 1_555
C22 C20 1_555 1_555
C23 H21 1_555 1_555
C24 C23 1_555 1_555
H22 C24 1_555 1_555
H23 C24 1_555 1_555
H24 C24 1_555 1_555
C25 O4 1_555 1_555
C26 H25 1_555 1_555
H26 C26 1_555 1_555
C27 C26 1_555 1_555
H27 C27 1_555 1_555
H28 C27 1_555 1_555
H29 C27 1_555 1_555
Cl1 C1 1_555 1_555
H30 N3 1_555 1_555
H31 N3 1_555 1_555
N1 C4 1_555 1_555
N2 C5 1_555 1_555
N3 C8 1_555 1_555
N4 C19 1_555 1_555
N5 C20 1_555 1_555
O1 C11 1_555 1_555
O2 C22 1_555 1_555
O3 C22 1_555 1_555
O4 C23 1_555 1_555
O5 C25 1_555 1_555
O6 C25 1_555 1_555
C5 N1 1_555 1_555
C6 N2 1_555 1_555
C8 C9 1_555 1_555
C10 N3 1_555 1_555
C11 N2 1_555 1_555
C16 C17 1_555 1_555
C21 N5 1_555 1_555
C23 O3 1_555 1_555
C26 O6 1_555 1_555
N4 N5 1_555 1_555

#END
