
#######################################################################
#
#                 Cambridge Crystallographic Data Centre
#                                CCDC 
#
#######################################################################
#
# If this CIF has been generated from an entry in the Cambridge 
# Structural Database, then it will include bibliographic, chemical, 
# crystal, experimental, refinement or atomic coordinate data resulting 
# from the CCDC's data processing and validation procedures.
#
#######################################################################

data_KESVAG
_chemical_formula_moiety         'C37 H34 N3 O3 P1'
_chemical_name_systematic        
(S,S,R)-9-((1-Phenylethyl)amino)-1,3-dibenzyl-1,3,3a,14b-tetrahydro-2H-dibenzo(4,5:8,9)(1,3,2)dioxaphosphonino(6,7-d)-imidazol-2-one
_symmetry_cell_setting           orthorhombic
_symmetry_space_group_name_H-M   'P 21 21 21'
_symmetry_Int_Tables_number      19
_space_group_name_Hall           'P 2ac 2ab'
loop_
_symmetry_equiv_pos_site_id
_symmetry_equiv_pos_as_xyz
1 x,y,z
2 1/2-x,-y,1/2+z
3 -x,1/2+y,1/2-z
4 1/2+x,1/2-y,-z
_cell_length_a                   11.8569(7)
_cell_length_b                   19.6421(12)
_cell_length_c                   27.9528(18)
_cell_angle_alpha                90
_cell_angle_beta                 90
_cell_angle_gamma                90
_cell_volume                     6510.05
_exptl_crystal_colour            colorless
_chemical_melting_point          74deg.C
_cell_formula_units_Z            8
loop_
_atom_site_label
_atom_site_type_symbol
_atom_site_fract_x
_atom_site_fract_y
_atom_site_fract_z
P1 P -0.08661(11) 0.79096(6) 0.16961(4)
O1 O 0.2339(3) 1.10013(16) 0.12762(12)
O2 O -0.0147(3) 0.81440(13) 0.12123(9)
O3 O -0.0516(3) 0.85353(13) 0.20639(9)
N1 N 0.1454(3) 1.00314(19) 0.10087(14)
N2 N 0.1455(3) 1.02455(18) 0.17852(15)
N3 N -0.0114(3) 0.73299(16) 0.19735(12)
H1 H -0.0325 0.6916 0.1929
C1 C 0.1815(4) 1.0476(3) 0.1344(2)
C2 C 0.0919(4) 0.9435(2) 0.12112(15)
H3 H 0.0168 0.9385 0.1069
C3 C 0.0780(4) 0.9621(2) 0.17514(15)
H4 H 0.1124 0.9265 0.1949
C4 C -0.0426(4) 0.9716(2) 0.18952(14)
C5 C -0.0969(4) 1.0338(2) 0.18637(16)
H5 H -0.0562 1.0719 0.1768
C6 C -0.2100(5) 1.0406(3) 0.19707(18)
H6 H -0.2452 1.0828 0.1944
C7 C -0.2692(5) 0.9851(3) 0.21146(19)
H7 H -0.3449 0.9897 0.2196
C8 C -0.2183(5) 0.9221(3) 0.21419(17)
H8 H -0.2597 0.8841 0.2235
C9 C -0.1053(4) 0.9159(2) 0.20302(14)
C10 C 0.1571(4) 0.8778(2) 0.11343(15)
C11 C 0.2727(5) 0.8797(3) 0.10549(17)
H9 H 0.3096 0.9213 0.1026
C12 C 0.3334(5) 0.8189(4) 0.1019(2)
H10 H 0.4112 0.8197 0.0980
C13 C 0.2761(6) 0.7572(3) 0.1043(2)
H11 H 0.3155 0.7164 0.1016
C14 C 0.1613(6) 0.7566(3) 0.11055(17)
H12 H 0.1235 0.7151 0.1114
C15 C 0.1005(5) 0.8165(3) 0.11565(15)
C16 C 0.1415(4) 1.0194(2) 0.05092(16)
H13 H 0.1591 0.9787 0.0327
H14 H 0.1994 1.0529 0.0441
C17 C 0.0285(5) 1.0470(3) 0.03409(18)
C18 C -0.0268(7) 1.0181(3) -0.0018(3)
H15 H 0.0024 0.9792 -0.0161
C19 C -0.1268(8) 1.0449(5) -0.0181(3)
H16 H -0.1633 1.0241 -0.0437
C20 C -0.1736(6) 1.1009(5) 0.0023(3)
H17 H -0.2411 1.1189 -0.0091
C21 C -0.1199(7) 1.1292(4) 0.0389(3)
H18 H -0.1510 1.1670 0.0540
C22 C -0.0169(5) 1.1029(3) 0.0550(2)
H19 H 0.0206 1.1240 0.0802
C23 C 0.1967(4) 1.0460(2) 0.22307(17)
H20 H 0.1379 1.0545 0.2464
H21 H 0.2369 1.0884 0.2179
C24 C 0.2777(5) 0.9937(3) 0.2428(2)
C25 C 0.2716(5) 0.9725(3) 0.2900(2)
H22 H 0.2197 0.9927 0.3104
C26 C 0.3414(7) 0.9217(4) 0.3071(3)
H23 H 0.3379 0.9085 0.3391
C27 C 0.4154(7) 0.8913(4) 0.2767(3)
H24 H 0.4600 0.8556 0.2876
C28 C 0.4251(6) 0.9123(4) 0.2307(3)
H25 H 0.4780 0.8924 0.2105
C29 C 0.3553(5) 0.9638(3) 0.2140(2)
H26 H 0.3618 0.9781 0.1824
C30 C 0.0868(5) 0.7417(2) 0.22868(19)
H27 H 0.1273 0.7826 0.2183
C31 C 0.0559(5) 0.7507(2) 0.28074(18)
C32 C 0.1295(5) 0.7810(3) 0.3113(2)
H28 H 0.1969 0.7982 0.2994
C33 C 0.1065(7) 0.7869(3) 0.3597(3)
H29 H 0.1583 0.8074 0.3800
C34 C 0.0091(7) 0.7627(3) 0.3770(2)
H30 H -0.0064 0.7675 0.4095
C35 C -0.0682(6) 0.7310(3) 0.3481(2)
H31 H -0.1350 0.7135 0.3605
C36 C -0.0430(5) 0.7258(2) 0.29925(19)
H32 H -0.0945 0.7050 0.2789
C37 C 0.1661(5) 0.6810(3) 0.22333(17)
H33 H 0.1281 0.6403 0.2333
H34 H 0.2317 0.6880 0.2429
H35 H 0.1884 0.6767 0.1905
P2 P 0.55301(12) 0.09865(7) 1.06434(5)
O4 O 0.4303(3) -0.10591(16) 0.85720(11)
O5 O 0.4915(3) 0.02279(15) 1.05911(9)
O6 O 0.5222(3) 0.12793(14) 1.00969(10)
N4 N 0.4255(3) -0.10180(19) 0.93988(14)
N5 N 0.4671(3) -0.0080(2) 0.89916(13)
N6 N 0.4565(3) 0.12902(17) 1.10091(11)
H2 H 0.3982 0.1042 1.1065
C38 C 0.4397(4) -0.0740(3) 0.89529(19)
C39 C 0.4449(4) -0.0519(2) 0.97744(15)
H36 H 0.3755 -0.0459 0.9960
C40 C 0.4701(4) 0.0153(2) 0.94860(15)
H37 H 0.5466 0.0308 0.9562
C41 C 0.3881(4) 0.0715(2) 0.95952(16)
C42 C 0.2808(5) 0.0714(2) 0.93942(16)
H38 H 0.2610 0.0363 0.9187
C43 C 0.2030(5) 0.1214(3) 0.94906(19)
H39 H 0.1316 0.1196 0.9354
C44 C 0.2320(6) 0.1743(3) 0.97925(19)
H40 H 0.1804 0.2087 0.9860
C45 C 0.3379(6) 0.1755(3) 0.99924(18)
H41 H 0.3572 0.2109 1.0198
C46 C 0.4170(5) 0.1249(3) 0.98931(17)
C47 C 0.5396(4) -0.0718(2) 1.01082(17)
C48 C 0.6092(5) -0.1267(3) 1.00170(19)
H42 H 0.5976 -0.1534 0.9747
C49 C 0.6973(6) -0.1420(3) 1.0333(3)
H43 H 0.7441 -0.1791 1.0273
C50 C 0.7143(7) -0.1027(4) 1.0728(3)
H44 H 0.7720 -0.1134 1.0940
C51 C 0.6466(6) -0.0474(3) 1.0813(2)
H45 H 0.6595 -0.0199 1.1078
C52 C 0.5615(5) -0.0331(3) 1.05108(18)
C53 C 0.3641(4) -0.1648(2) 0.94746(16)
H46 H 0.3879 -0.1843 0.9777
H47 H 0.3845 -0.1966 0.9224
C54 C 0.2373(5) -0.1571(2) 0.9480(2)
C55 C 0.1805(6) -0.1353(4) 0.9086(2)
H48 H 0.2209 -0.1234 0.8814
C56 C 0.0615(7) -0.1305(4) 0.9080(3)
H49 H 0.0234 -0.1161 0.8807
C57 C 0.0041(6) -0.1477(4) 0.9488(3)
H50 H -0.0743 -0.1456 0.9490
C58 C 0.0591(7) -0.1674(3) 0.9882(3)
H51 H 0.0192 -0.1775 1.0159
C59 C 0.1762(6) -0.1728(2) 0.9877(2)
H52 H 0.2135 -0.1874 1.0151
C60 C 0.5128(4) 0.0311(2) 0.86048(16)
H53 H 0.4927 0.0785 0.8648
H54 H 0.4797 0.0157 0.8306
C61 C 0.6397(5) 0.0248(3) 0.85746(17)
C62 C 0.7017(6) -0.0333(3) 0.8583(2)
H55 H 0.6653 -0.0747 0.8631
C63 C 0.8184(6) -0.0328(4) 0.8522(2)
H56 H 0.8615 -0.0723 0.8528
C64 C 0.8656(7) 0.0312(5) 0.8449(2)
H57 H 0.9310 0.0352 0.8268
C65 C 0.8183(12) 0.0881(7) 0.8639(5)
H58 H 0.8524 0.1235 0.8806
C66 C 0.7012(8) 0.0793(4) 0.8511(3)
H59 H 0.6657 0.1164 0.8369
C67 C 0.4634(5) 0.1961(2) 1.12485(16)
H60 H 0.4020 0.2242 1.1122
C68 C 0.4452(4) 0.1894(2) 1.17790(17)
C69 C 0.3736(5) 0.2314(3) 1.2014(2)
H61 H 0.3330 0.2637 1.1843
C70 C 0.3599(8) 0.2271(4) 1.2504(3)
H62 H 0.3101 0.2560 1.2662
C71 C 0.4191(10) 0.1809(6) 1.2748(3)
H63 H 0.4128 0.1790 1.3080
C72 C 0.4877(8) 0.1372(5) 1.2522(3)
H64 H 0.5269 0.1042 1.2694
C73 C 0.4994(5) 0.1416(3) 1.2039(2)
H65 H 0.5462 0.1108 1.1883
C74 C 0.5705(6) 0.2321(3) 1.1146(2)
H66 H 0.6327 0.2057 1.1264
H67 H 0.5700 0.2757 1.1300
H68 H 0.5783 0.2381 1.0807
loop_
_geom_bond_atom_site_label_1
_geom_bond_atom_site_label_2
_geom_bond_site_symmetry_1
_geom_bond_site_symmetry_2
P1 O2 1_555 1_555
P2 O5 1_555 1_555
O1 C1 1_555 1_555
O2 C15 1_555 1_555
O3 P1 1_555 1_555
O4 C38 1_555 1_555
O5 C52 1_555 1_555
O6 P2 1_555 1_555
N1 C1 1_555 1_555
N2 C1 1_555 1_555
N3 P1 1_555 1_555
H1 N3 1_555 1_555
N4 C38 1_555 1_555
N5 C38 1_555 1_555
N6 P2 1_555 1_555
H2 N6 1_555 1_555
C2 N1 1_555 1_555
H3 C2 1_555 1_555
C3 N2 1_555 1_555
H4 C3 1_555 1_555
C4 C3 1_555 1_555
C5 C4 1_555 1_555
H5 C5 1_555 1_555
C6 C5 1_555 1_555
H6 C6 1_555 1_555
C7 C6 1_555 1_555
H7 C7 1_555 1_555
C8 C7 1_555 1_555
H8 C8 1_555 1_555
C9 O3 1_555 1_555
C10 C2 1_555 1_555
C11 C10 1_555 1_555
H9 C11 1_555 1_555
C12 C11 1_555 1_555
H10 C12 1_555 1_555
C13 C12 1_555 1_555
H11 C13 1_555 1_555
C14 C13 1_555 1_555
H12 C14 1_555 1_555
C15 C10 1_555 1_555
C16 N1 1_555 1_555
H13 C16 1_555 1_555
H14 C16 1_555 1_555
C17 C16 1_555 1_555
C18 C17 1_555 1_555
H15 C18 1_555 1_555
C19 C18 1_555 1_555
H16 C19 1_555 1_555
C20 C19 1_555 1_555
H17 C20 1_555 1_555
C21 C20 1_555 1_555
H18 C21 1_555 1_555
C22 C17 1_555 1_555
H19 C22 1_555 1_555
C23 N2 1_555 1_555
H20 C23 1_555 1_555
H21 C23 1_555 1_555
C24 C23 1_555 1_555
C25 C24 1_555 1_555
H22 C25 1_555 1_555
C26 C25 1_555 1_555
H23 C26 1_555 1_555
C27 C26 1_555 1_555
H24 C27 1_555 1_555
C28 C27 1_555 1_555
H25 C28 1_555 1_555
C29 C24 1_555 1_555
H26 C29 1_555 1_555
C30 N3 1_555 1_555
H27 C30 1_555 1_555
C31 C30 1_555 1_555
C32 C31 1_555 1_555
H28 C32 1_555 1_555
C33 C32 1_555 1_555
H29 C33 1_555 1_555
C34 C33 1_555 1_555
H30 C34 1_555 1_555
C35 C34 1_555 1_555
H31 C35 1_555 1_555
C36 C31 1_555 1_555
H32 C36 1_555 1_555
C37 C30 1_555 1_555
H33 C37 1_555 1_555
H34 C37 1_555 1_555
H35 C37 1_555 1_555
C39 N4 1_555 1_555
H36 C39 1_555 1_555
C40 N5 1_555 1_555
H37 C40 1_555 1_555
C41 C40 1_555 1_555
C42 C41 1_555 1_555
H38 C42 1_555 1_555
C43 C42 1_555 1_555
H39 C43 1_555 1_555
C44 C43 1_555 1_555
H40 C44 1_555 1_555
C45 C44 1_555 1_555
H41 C45 1_555 1_555
C46 O6 1_555 1_555
C47 C39 1_555 1_555
C48 C47 1_555 1_555
H42 C48 1_555 1_555
C49 C48 1_555 1_555
H43 C49 1_555 1_555
C50 C49 1_555 1_555
H44 C50 1_555 1_555
C51 C50 1_555 1_555
H45 C51 1_555 1_555
C52 C47 1_555 1_555
C53 N4 1_555 1_555
H46 C53 1_555 1_555
H47 C53 1_555 1_555
C54 C53 1_555 1_555
C55 C54 1_555 1_555
H48 C55 1_555 1_555
C56 C55 1_555 1_555
H49 C56 1_555 1_555
C57 C56 1_555 1_555
H50 C57 1_555 1_555
C58 C57 1_555 1_555
H51 C58 1_555 1_555
C59 C54 1_555 1_555
H52 C59 1_555 1_555
C60 N5 1_555 1_555
H53 C60 1_555 1_555
H54 C60 1_555 1_555
C61 C60 1_555 1_555
C62 C61 1_555 1_555
H55 C62 1_555 1_555
C63 C62 1_555 1_555
H56 C63 1_555 1_555
C64 C63 1_555 1_555
H57 C64 1_555 1_555
C65 C64 1_555 1_555
H58 C65 1_555 1_555
C66 C61 1_555 1_555
H59 C66 1_555 1_555
C67 N6 1_555 1_555
H60 C67 1_555 1_555
C68 C67 1_555 1_555
C69 C68 1_555 1_555
H61 C69 1_555 1_555
C70 C69 1_555 1_555
H62 C70 1_555 1_555
C71 C70 1_555 1_555
H63 C71 1_555 1_555
C72 C71 1_555 1_555
H64 C72 1_555 1_555
C73 C68 1_555 1_555
H65 C73 1_555 1_555
C74 C67 1_555 1_555
H66 C74 1_555 1_555
H67 C74 1_555 1_555
H68 C74 1_555 1_555
C2 C3 1_555 1_555
C4 C9 1_555 1_555
C8 C9 1_555 1_555
C14 C15 1_555 1_555
C21 C22 1_555 1_555
C28 C29 1_555 1_555
C35 C36 1_555 1_555
C39 C40 1_555 1_555
C41 C46 1_555 1_555
C45 C46 1_555 1_555
C51 C52 1_555 1_555
C58 C59 1_555 1_555
C65 C66 1_555 1_555
C72 C73 1_555 1_555

#END
