
#######################################################################
#
#                 Cambridge Crystallographic Data Centre
#                                CCDC 
#
#######################################################################
#
# If this CIF has been generated from an entry in the Cambridge 
# Structural Database, then it will include bibliographic, chemical, 
# crystal, experimental, refinement or atomic coordinate data resulting 
# from the CCDC's data processing and validation procedures.
#
#######################################################################

data_KESWIR
_chemical_name_common            
'trioxohexaaza[3.3.3]propellane dimethyl sulfoxide solvate'
_chemical_formula_moiety         'C5 H6 N6 O3,C2 H6 O1 S1'
_chemical_name_systematic        
'2,4,6,8,9,11-hexaazatricyclo[3.3.3.0^1,5^]undecane-3,7,10-trione dimethyl sulfoxide solvate'
_symmetry_cell_setting           orthorhombic
_symmetry_space_group_name_H-M   'P n m a'
_symmetry_Int_Tables_number      62
_space_group_name_Hall           '-P 2ac 2n'
loop_
_symmetry_equiv_pos_site_id
_symmetry_equiv_pos_as_xyz
1 x,y,z
2 1/2+x,1/2-y,1/2-z
3 -x,1/2+y,-z
4 1/2-x,-y,1/2+z
5 -x,-y,-z
6 1/2-x,1/2+y,1/2+z
7 x,1/2-y,z
8 1/2+x,y,1/2-z
_cell_length_a                   15.0831(14)
_cell_length_b                   7.2136(7)
_cell_length_c                   11.2970(11)
_cell_angle_alpha                90
_cell_angle_beta                 90
_cell_angle_gamma                90
_cell_volume                     1229.15
_exptl_crystal_colour            colorless
_exptl_crystal_description       block
_cell_formula_units_Z            4
loop_
_atom_site_label
_atom_site_type_symbol
_atom_site_fract_x
_atom_site_fract_y
_atom_site_fract_z
O1 O 0.8478(2) 0.2500 0.6193(3)
C1 C 0.7934(3) 0.2500 0.5393(4)
N1 N 0.75926(18) 0.4022(4) 0.4855(3)
H1 H 0.764(2) 0.486(6) 0.509(3)
C2 C 0.68964(16) 0.3575(4) 0.4052(2)
N2 N 0.70657(18) 0.4037(4) 0.2835(2)
H2 H 0.725(3) 0.515(6) 0.261(3)
C3 C 0.7199(3) 0.2500 0.2164(4)
O2 O 0.7397(2) 0.2500 0.1109(3)
N3 N 0.60204(16) 0.4029(4) 0.4447(3)
H3 H 0.585(2) 0.506(5) 0.458(3)
C4 C 0.5532(3) 0.2500 0.4676(4)
O3 O 0.47580(19) 0.2500 0.5044(3)
N1F N 0.75926(18) 0.0978(4) 0.4855(3)
H1F H 0.764(2) 0.014(6) 0.509(3)
C2F C 0.68964(16) 0.1425(4) 0.4052(2)
N2F N 0.70657(18) 0.0963(4) 0.2835(2)
H2F H 0.725(3) -0.015(6) 0.261(3)
N3F N 0.60204(16) 0.0971(4) 0.4447(3)
H3F H 0.585(2) -0.006(5) 0.458(3)
O4 O 1.1946(2) 0.2500 0.7022(4)
S1 S 1.10644(14) 0.2500 0.6407(2)
C5 C 1.0487(3) 0.0608(8) 0.6971(7)
H4 H 1.0337 -0.0222 0.6338
H5 H 0.9954 0.1031 0.7350
H6 H 1.0850 -0.0029 0.7538
C5F C 1.0487(3) 0.4392(8) 0.6971(7)
H4F H 1.0337 0.5222 0.6338
H5F H 0.9954 0.3969 0.7350
H6F H 1.0850 0.5029 0.7538
S2? S 1.0959(2) 0.2500 0.7304(4)
loop_
_geom_bond_atom_site_label_1
_geom_bond_atom_site_label_2
_geom_bond_site_symmetry_1
_geom_bond_site_symmetry_2
O1 C1 1_555 1_555
C1 N1 1_555 1_555
N1 H1 1_555 1_555
C2 N1 1_555 1_555
N2 C2 1_555 1_555
H2 N2 1_555 1_555
C3 N2 1_555 1_555
O2 C3 1_555 1_555
N3 C2 1_555 1_555
H3 N3 1_555 1_555
C4 N3 1_555 1_555
O3 C4 1_555 1_555
O4 S1 1_555 1_555
S1 C5 1_555 1_555
C5 H4 1_555 1_555
H5 C5 1_555 1_555
H6 C5 1_555 1_555
N1F C1 1_555 1_555
H1F N1F 1_555 1_555
C2F C2 1_555 1_555
N2F C3 1_555 1_555
H2F N2F 1_555 1_555
N3F C4 1_555 1_555
H3F N3F 1_555 1_555
C5F S1 1_555 1_555
H4F C5F 1_555 1_555
H5F C5F 1_555 1_555
H6F C5F 1_555 1_555
N1F C2F 1_555 1_555
C2F N2F 1_555 1_555
C2F N3F 1_555 1_555

#END
