
#######################################################################
#
#                 Cambridge Crystallographic Data Centre
#                                CCDC 
#
#######################################################################
#
# If this CIF has been generated from an entry in the Cambridge 
# Structural Database, then it will include bibliographic, chemical, 
# crystal, experimental, refinement or atomic coordinate data resulting 
# from the CCDC's data processing and validation procedures.
#
#######################################################################

data_KESWOX
_chemical_formula_moiety         'C22 H20 F3 N2 O8 P1'
_chemical_name_systematic        
'methyl 1-(diethoxyphosphoryl)-3-(4-nitrobenzoyl)-2-(trifluoromethyl)indolizine-7-carboxylate'
_symmetry_cell_setting           monoclinic
_symmetry_space_group_name_H-M   'C 2/c'
_symmetry_Int_Tables_number      15
_space_group_name_Hall           '-C 2yn'
loop_
_symmetry_equiv_pos_site_id
_symmetry_equiv_pos_as_xyz
1 x,y,z
2 -x,y,1/2-z
3 1/2+x,1/2+y,z
4 1/2-x,1/2+y,1/2-z
5 -x,-y,-z
6 x,-y,1/2+z
7 1/2-x,1/2-y,-z
8 1/2+x,1/2-y,1/2+z
_cell_length_a                   26.99(2)
_cell_length_b                   8.123(6)
_cell_length_c                   24.595(19)
_cell_angle_alpha                90
_cell_angle_beta                 118.480(9)
_cell_angle_gamma                90
_cell_volume                     4739.66
_cell_formula_units_Z            8
loop_
_atom_site_label
_atom_site_type_symbol
_atom_site_fract_x
_atom_site_fract_y
_atom_site_fract_z
C1 C -0.00683(11) 0.7540(3) 0.99598(11)
C2 C -0.02860(11) 0.7953(3) 0.93213(12)
H1 H -0.0626 0.8514 0.9114
C3 C -0.00003(11) 0.7534(3) 0.90202(11)
H2 H -0.0146 0.7781 0.8603
C4 C 0.08755(11) 0.6241(3) 0.91193(11)
C5 C 0.13467(11) 0.5571(3) 0.96189(11)
C6 C 0.12644(11) 0.5594(3) 1.01469(11)
C7 C 0.07374(11) 0.6323(3) 0.99589(10)
C8 C 0.04263(11) 0.6732(3) 1.02645(11)
H3 H 0.0562 0.6444 1.0677
C9 C 0.07388(12) 0.6555(4) 0.84610(12)
C10 C 0.07725(11) 0.5164(3) 0.80882(11)
C11 C 0.08521(11) 0.5499(3) 0.75767(11)
H4 H 0.0879 0.6584 0.7473
C12 C 0.08905(11) 0.4232(3) 0.72258(11)
H5 H 0.0957 0.4441 0.6894
C13 C 0.08279(11) 0.2648(3) 0.73816(11)
C14 C 0.07269(12) 0.2279(4) 0.78672(12)
H6 H 0.0673 0.1196 0.7950
C15 C 0.07080(11) 0.3557(4) 0.82269(12)
H7 H 0.0651 0.3334 0.8564
C16 C -0.03702(12) 0.7986(3) 1.03110(13)
C17 C -0.11060(15) 0.9547(4) 1.03139(17)
H8 H -0.1333 0.8642 1.0318
H9 H -0.1345 1.0458 1.0097
H10 H -0.0851 0.9869 1.0731
C18 C 0.18672(12) 0.5073(4) 0.96001(13)
C19 C 0.2136(2) 0.1859(7) 1.1201(2)
H11 H 0.2121 0.0882 1.0967
H12 H 0.1886 0.1686 1.1378
C20 C 0.2718(3) 0.2082(9) 1.1708(3)
H13 H 0.2946 0.2560 1.1546
H14 H 0.2872 0.1034 1.1890
H15 H 0.2715 0.2799 1.2016
C21 C 0.2306(2) 0.7096(8) 1.1664(4)
H16 H 0.2086 0.6803 1.1867
H17 H 0.2185 0.8175 1.1478
C22 C 0.2918(2) 0.7150(10) 1.2129(3)
H18 H 0.2990 0.6389 1.2457
H19 H 0.3016 0.8243 1.2295
H20 H 0.3139 0.6853 1.1934
F1 F 0.19042(8) 0.5799(3) 0.91315(9)
F2 F 0.19012(9) 0.3469(3) 0.95191(11)
F3 F 0.23304(8) 0.5477(3) 1.01077(9)
N1 N 0.05118(9) 0.6734(3) 0.93338(9)
N2 N 0.08879(12) 0.1270(3) 0.70247(11)
O1 O -0.07891(9) 0.9052(3) 1.00059(9)
O2 O -0.02469(10) 0.7464(3) 1.08172(10)
O3 O 0.05880(12) 0.7911(3) 0.82384(10)
O4 O 0.10857(12) 0.1541(3) 0.66836(12)
O5 O 0.07418(16) -0.0083(3) 0.70946(13)
O6 O 0.13954(9) 0.4668(3) 1.12675(9)
O7 O 0.22164(12) 0.5971(5) 1.12151(12)
O8 O 0.19392(12) 0.3242(4) 1.07903(11)
P1 P 0.16928(3) 0.48588(11) 1.09123(3)
loop_
_geom_bond_atom_site_label_1
_geom_bond_atom_site_label_2
_geom_bond_site_symmetry_1
_geom_bond_site_symmetry_2
C1 C2 1_555 1_555
C2 H1 1_555 1_555
C3 C2 1_555 1_555
H2 C3 1_555 1_555
C4 C5 1_555 1_555
C5 C6 1_555 1_555
C6 C7 1_555 1_555
C7 C8 1_555 1_555
C8 C1 1_555 1_555
H3 C8 1_555 1_555
C9 C4 1_555 1_555
C10 C9 1_555 1_555
C11 C10 1_555 1_555
H4 C11 1_555 1_555
C12 C11 1_555 1_555
H5 C12 1_555 1_555
C13 C12 1_555 1_555
C14 C13 1_555 1_555
H6 C14 1_555 1_555
C15 C10 1_555 1_555
H7 C15 1_555 1_555
C16 C1 1_555 1_555
C17 H8 1_555 1_555
H9 C17 1_555 1_555
H10 C17 1_555 1_555
C18 C5 1_555 1_555
C19 H11 1_555 1_555
H12 C19 1_555 1_555
C20 C19 1_555 1_555
H13 C20 1_555 1_555
H14 C20 1_555 1_555
H15 C20 1_555 1_555
C21 H16 1_555 1_555
H17 C21 1_555 1_555
C22 C21 1_555 1_555
H18 C22 1_555 1_555
H19 C22 1_555 1_555
H20 C22 1_555 1_555
F1 C18 1_555 1_555
F2 C18 1_555 1_555
F3 C18 1_555 1_555
N1 C3 1_555 1_555
N2 C13 1_555 1_555
O1 C16 1_555 1_555
O2 C16 1_555 1_555
O3 C9 1_555 1_555
O4 N2 1_555 1_555
O5 N2 1_555 1_555
O6 P1 1_555 1_555
O7 C21 1_555 1_555
O8 C19 1_555 1_555
P1 C6 1_555 1_555
C4 N1 1_555 1_555
C7 N1 1_555 1_555
C14 C15 1_555 1_555
C17 O1 1_555 1_555
O7 P1 1_555 1_555
O8 P1 1_555 1_555

#END
