
#######################################################################
#
#                 Cambridge Crystallographic Data Centre
#                                CCDC 
#
#######################################################################
#
# If this CIF has been generated from an entry in the Cambridge 
# Structural Database, then it will include bibliographic, chemical, 
# crystal, experimental, refinement or atomic coordinate data resulting 
# from the CCDC's data processing and validation procedures.
#
#######################################################################

data_KESZAM
_chemical_formula_moiety         'C24 H21 Br1 N2 O3'
_chemical_name_systematic        
'methyl 5-[(3-bromophenyl)(hydroxy)methyl]-1,3-diphenyl-4,5-dihydro-1H-pyrazole-5-carboxylate'
_symmetry_cell_setting           monoclinic
_symmetry_space_group_name_H-M   'P 21/n'
_symmetry_Int_Tables_number      14
_space_group_name_Hall           '-P 2yn'
loop_
_symmetry_equiv_pos_site_id
_symmetry_equiv_pos_as_xyz
1 x,y,z
2 1/2-x,1/2+y,1/2-z
3 -x,-y,-z
4 1/2+x,1/2-y,1/2+z
_cell_length_a                   14.311(6)
_cell_length_b                   9.839(4)
_cell_length_c                   15.972(6)
_cell_angle_alpha                90
_cell_angle_beta                 112.273(5)
_cell_angle_gamma                90
_cell_volume                     2081.15
_exptl_crystal_colour            colorless
_exptl_crystal_description       Plate
_cell_formula_units_Z            4
loop_
_atom_site_label
_atom_site_type_symbol
_atom_site_fract_x
_atom_site_fract_y
_atom_site_fract_z
Br1 Br 0.83630(3) 0.80583(3) 0.44094(3)
O1 O 0.96159(16) 0.0472(2) 0.58947(15)
O2 O 0.85811(19) 0.0683(3) 0.66454(17)
O3 O 0.86806(17) 0.1571(2) 0.41100(14)
H1 H 0.919829 0.108226 0.432917
N1 N 0.81194(19) 0.3260(3) 0.59656(17)
N2 N 0.71233(19) 0.3431(3) 0.58540(17)
C1 C 0.8263(2) 0.2153(3) 0.54059(19)
C2 C 0.7167(2) 0.1614(3) 0.4926(2)
H2 H 0.694267 0.168099 0.425959
H3 H 0.710831 0.065926 0.509439
C3 C 0.6570(2) 0.2561(3) 0.5282(2)
C4 C 0.8918(2) 0.1020(3) 0.6001(2)
C5 C 0.9099(3) -0.0428(5) 0.7235(3)
H4 H 0.926642 -0.113087 0.687989
H5 H 0.866036 -0.081421 0.751869
H6 H 0.972117 -0.008838 0.770467
C6 C 0.8728(2) 0.2644(3) 0.47218(19)
H7 H 0.945075 0.289717 0.506055
C7 C 0.8168(2) 0.3861(3) 0.41739(19)
C8 C 0.8452(2) 0.5171(3) 0.4493(2)
H8 H 0.899296 0.531191 0.505705
C9 C 0.7942(2) 0.6268(3) 0.3983(2)
C10 C 0.7149(2) 0.6107(3) 0.3153(2)
H9 H 0.680672 0.687391 0.281241
C11 C 0.6873(2) 0.4803(3) 0.2834(2)
H10 H 0.633207 0.466943 0.226843
C12 C 0.7377(2) 0.3688(3) 0.3333(2)
H11 H 0.718472 0.279769 0.310137
C13 C 0.8856(2) 0.4066(3) 0.65981(19)
C14 C 0.9888(2) 0.3860(3) 0.6818(2)
H12 H 1.010763 0.312562 0.655205
C15 C 1.0598(2) 0.4719(4) 0.7422(2)
H13 H 1.129573 0.458368 0.754966
C16 C 1.0296(3) 0.5770(4) 0.7841(2)
H14 H 1.078290 0.634560 0.826098
C17 C 0.9276(3) 0.5970(4) 0.7638(2)
H15 H 0.906618 0.668478 0.792578
C18 C 0.8552(3) 0.5140(3) 0.7018(2)
H16 H 0.785435 0.530060 0.687888
C19 C 0.5474(2) 0.2526(4) 0.5008(2)
C20 C 0.4890(3) 0.1589(5) 0.4379(3)
H17 H 0.520910 0.094228 0.413328
C21 C 0.3847(3) 0.1582(5) 0.4103(3)
H18 H 0.345755 0.092706 0.367658
C22 C 0.3379(3) 0.2519(5) 0.4445(2)
H19 H 0.266302 0.253264 0.424342
C23 C 0.3950(3) 0.3446(4) 0.5085(3)
H20 H 0.362649 0.408353 0.533183
C24 C 0.4986(2) 0.3448(4) 0.5366(2)
H21 H 0.537247 0.408604 0.580781
loop_
_geom_bond_atom_site_label_1
_geom_bond_atom_site_label_2
_geom_bond_site_symmetry_1
_geom_bond_site_symmetry_2
Br1 C9 1_555 1_555
O1 C4 1_555 1_555
O2 C4 1_555 1_555
O3 H1 1_555 1_555
N1 N2 1_555 1_555
N2 C3 1_555 1_555
C1 N1 1_555 1_555
C2 C1 1_555 1_555
H2 C2 1_555 1_555
H3 C2 1_555 1_555
C3 C2 1_555 1_555
C4 C1 1_555 1_555
C5 O2 1_555 1_555
H4 C5 1_555 1_555
H5 C5 1_555 1_555
H6 C5 1_555 1_555
C6 O3 1_555 1_555
H7 C6 1_555 1_555
C7 C6 1_555 1_555
C8 C7 1_555 1_555
H8 C8 1_555 1_555
C9 C8 1_555 1_555
C10 C9 1_555 1_555
H9 C10 1_555 1_555
C11 C10 1_555 1_555
H10 C11 1_555 1_555
C12 C7 1_555 1_555
H11 C12 1_555 1_555
C13 N1 1_555 1_555
C14 C13 1_555 1_555
H12 C14 1_555 1_555
C15 C14 1_555 1_555
H13 C15 1_555 1_555
C16 C15 1_555 1_555
H14 C16 1_555 1_555
C17 C16 1_555 1_555
H15 C17 1_555 1_555
C18 C13 1_555 1_555
H16 C18 1_555 1_555
C19 C3 1_555 1_555
C20 C19 1_555 1_555
H17 C20 1_555 1_555
C21 C20 1_555 1_555
H18 C21 1_555 1_555
C22 C21 1_555 1_555
H19 C22 1_555 1_555
C23 C22 1_555 1_555
H20 C23 1_555 1_555
C24 C19 1_555 1_555
H21 C24 1_555 1_555
C1 C6 1_555 1_555
C11 C12 1_555 1_555
C17 C18 1_555 1_555
C23 C24 1_555 1_555

#END
