
#######################################################################
#
#                 Cambridge Crystallographic Data Centre
#                                CCDC 
#
#######################################################################
#
# If this CIF has been generated from an entry in the Cambridge 
# Structural Database, then it will include bibliographic, chemical, 
# crystal, experimental, refinement or atomic coordinate data resulting 
# from the CCDC's data processing and validation procedures.
#
#######################################################################

data_KETCEU
_chemical_formula_moiety         'C24 H20 B1 F2 N1 O3'
_chemical_name_systematic        
'[1-(9-ethyl-9H-carbazol-3-yl)-3-(oxy)-3-(4-methoxyphenyl)prop-2-en-1-onato](difluoro)boron'
_symmetry_cell_setting           monoclinic
_symmetry_space_group_name_H-M   'P 21/n'
_symmetry_Int_Tables_number      14
_space_group_name_Hall           '-P 2yn'
loop_
_symmetry_equiv_pos_site_id
_symmetry_equiv_pos_as_xyz
1 x,y,z
2 1/2-x,1/2+y,1/2-z
3 -x,-y,-z
4 1/2+x,1/2-y,1/2+z
_cell_length_a                   11.151(2)
_cell_length_b                   13.828(3)
_cell_length_c                   13.934(3)
_cell_angle_alpha                90
_cell_angle_beta                 112.20(3)
_cell_angle_gamma                90
_cell_volume                     1989.3
_exptl_crystal_colour            yellow
_exptl_crystal_description       block
_cell_formula_units_Z            4
loop_
_atom_site_label
_atom_site_type_symbol
_atom_site_fract_x
_atom_site_fract_y
_atom_site_fract_z
F1 F 0.20318(18) 0.46399(14) 0.67931(16)
F2 F 0.34697(19) 0.50530(14) 0.83816(17)
O1 O 0.3879(2) 0.36982(15) 0.75929(19)
O2 O 0.2124(2) 0.37374(14) 0.82305(18)
O3 O -0.1563(2) 0.10104(17) 0.95051(19)
N1 N 0.7664(2) 0.10697(18) 0.6453(2)
C1 C 0.8213(3) 0.1896(2) 0.6211(2)
C2 C 0.9257(3) 0.1959(3) 0.5891(2)
H1 H 0.9692 0.1399 0.5794
C3 C 0.9625(3) 0.2875(3) 0.5723(3)
H2 H 1.0329 0.2944 0.5503
C4 C 0.8999(3) 0.3706(3) 0.5866(3)
H3 H 0.9288 0.4325 0.5749
C5 C 0.7958(3) 0.3631(2) 0.6176(2)
H4 H 0.7523 0.4194 0.6266
C6 C 0.7566(3) 0.2723(2) 0.6353(2)
C7 C 0.6549(3) 0.2373(2) 0.6680(2)
C8 C 0.5610(3) 0.2823(2) 0.6947(2)
H5 H 0.5542 0.3508 0.6930
C9 C 0.4759(3) 0.2262(2) 0.7243(2)
C10 C 0.4875(3) 0.1243(2) 0.7266(2)
H6 H 0.4290 0.0867 0.7461
C11 C 0.5807(3) 0.0778(2) 0.7016(2)
H7 H 0.5872 0.0093 0.7036
C12 C 0.6658(3) 0.1346(2) 0.6729(2)
C13 C 0.8079(3) 0.0078(2) 0.6404(3)
H8 H 0.7867 -0.0320 0.6909
H9 H 0.9031 0.0068 0.6608
C14 C 0.7457(5) -0.0356(3) 0.5354(3)
H10 H 0.7596 0.0066 0.4841
H11 H 0.6525 -0.0428 0.5187
H12 H 0.7839 -0.0992 0.5343
C15 C 0.3788(3) 0.2747(2) 0.7540(2)
C16 C 0.2851(3) 0.2274(2) 0.7788(2)
H13 H 0.2749 0.1594 0.7698
C17 C 0.2058(3) 0.2793(2) 0.8169(2)
C18 C 0.1122(3) 0.2340(2) 0.8531(2)
C19 C 0.1058(3) 0.1331(2) 0.8622(3)
H14 H 0.1646 0.0930 0.8458
C20 C 0.0154(3) 0.0918(2) 0.8947(3)
H15 H 0.0122 0.0235 0.9009
C21 C -0.0711(3) 0.1496(2) 0.9184(2)
C22 C -0.0667(3) 0.2498(2) 0.9107(2)
H16 H -0.1258 0.2894 0.9272
C23 C 0.0259(3) 0.2910(2) 0.8785(2)
H17 H 0.0301 0.3594 0.8737
C24 C -0.2503(3) 0.1563(3) 0.9743(3)
H18 H -0.3039 0.1931 0.9130
H19 H -0.2057 0.2011 1.0312
H20 H -0.3053 0.1126 0.9951
B1 B 0.2876(3) 0.4300(3) 0.7745(3)
loop_
_geom_bond_atom_site_label_1
_geom_bond_atom_site_label_2
_geom_bond_site_symmetry_1
_geom_bond_site_symmetry_2
F1 B1 1_555 1_555
F2 B1 1_555 1_555
O1 C15 1_555 1_555
O2 C17 1_555 1_555
O3 C21 1_555 1_555
N1 C1 1_555 1_555
C1 C2 1_555 1_555
C2 H1 1_555 1_555
C3 C2 1_555 1_555
H2 C3 1_555 1_555
C4 C3 1_555 1_555
H3 C4 1_555 1_555
C5 C4 1_555 1_555
H4 C5 1_555 1_555
C6 C1 1_555 1_555
C7 C6 1_555 1_555
C8 C7 1_555 1_555
H5 C8 1_555 1_555
C9 C8 1_555 1_555
C10 C9 1_555 1_555
H6 C10 1_555 1_555
C11 C10 1_555 1_555
H7 C11 1_555 1_555
C12 N1 1_555 1_555
C13 N1 1_555 1_555
H8 C13 1_555 1_555
H9 C13 1_555 1_555
C14 C13 1_555 1_555
H10 C14 1_555 1_555
H11 C14 1_555 1_555
H12 C14 1_555 1_555
C15 C9 1_555 1_555
C16 C15 1_555 1_555
H13 C16 1_555 1_555
C17 C16 1_555 1_555
C18 C17 1_555 1_555
C19 C18 1_555 1_555
H14 C19 1_555 1_555
C20 C19 1_555 1_555
H15 C20 1_555 1_555
C21 C20 1_555 1_555
C22 C21 1_555 1_555
H16 C22 1_555 1_555
C23 C18 1_555 1_555
H17 C23 1_555 1_555
C24 O3 1_555 1_555
H18 C24 1_555 1_555
H19 C24 1_555 1_555
H20 C24 1_555 1_555
B1 O1 1_555 1_555
O2 B1 1_555 1_555
C5 C6 1_555 1_555
C7 C12 1_555 1_555
C11 C12 1_555 1_555
C22 C23 1_555 1_555

#END
