
#######################################################################
#
#                 Cambridge Crystallographic Data Centre
#                                CCDC 
#
#######################################################################
#
# If this CIF has been generated from an entry in the Cambridge 
# Structural Database, then it will include bibliographic, chemical, 
# crystal, experimental, refinement or atomic coordinate data resulting 
# from the CCDC's data processing and validation procedures.
#
#######################################################################

data_KETDOC
_chemical_compound_source        
'bark of Melodorum fruticosum Lour.(Annonaceae)'
_chemical_formula_moiety         'C16 H14 O6'
_chemical_name_systematic        Acetylmelodorinol
_chemical_properties_biological  'cytotoxic activity'
_symmetry_cell_setting           monoclinic
_symmetry_space_group_name_H-M   'P 21'
_symmetry_Int_Tables_number      4
_space_group_name_Hall           'P 2yb'
loop_
_symmetry_equiv_pos_site_id
_symmetry_equiv_pos_as_xyz
1 x,y,z
2 -x,1/2+y,-z
_cell_length_a                   7.278(3)
_cell_length_b                   11.676(2)
_cell_length_c                   9.351(3)
_cell_angle_alpha                90
_cell_angle_beta                 111.13(1)
_cell_angle_gamma                90
_cell_volume                     741.202
_exptl_crystal_colour            colorless
_chemical_melting_point          75-76deg.C
_cell_formula_units_Z            2
loop_
_atom_site_label
_atom_site_type_symbol
_atom_site_fract_x
_atom_site_fract_y
_atom_site_fract_z
O1 O 0.1726(4) 0.93700 0.7650(3)
O2 O 0.0020(5) 1.1006(3) 0.6839(4)
O3 O 0.4521(4) 0.6489(3) 1.1714(3)
O4 O 0.3130(4) 0.4789(3) 1.1811(3)
O5 O 0.6295(3) 0.7467(2) 0.9700(3)
O6 O 0.6957(4) 0.8766(3) 1.1583(3)
C1 C 0.1997(5) 0.8375(3) 0.6947(4)
C2 C 0.0453(5) 1.0081(4) 0.6517(4)
C3 C -0.0100(6) 0.9453(4) 0.5070(5)
C4 C 0.0821(6) 0.8458(4) 0.5333(4)
C5 C 0.3135(6) 0.7527(4) 0.7719(4)
C6 C 0.4191(5) 0.7497(4) 0.9424(4)
C7 C 0.3661(6) 0.6428(4) 1.0067(4)
C8 C 0.5202(5) 0.5645(4) 1.4140(4)
C9 C 0.4171(5) 0.5576(4) 1.2465(4)
C10 C 0.7495(6) 0.8173(4) 1.0772(4)
C11 C 0.9539(6) 0.8088(5) 1.0784(5)
C12 C 0.6386(6) 0.6573(4) 1.4835(4)
C13 C 0.7328(6) 0.6589(4) 1.6420(5)
C14 C 0.7088(6) 0.5686(4) 1.7287(4)
C15 C 0.5922(6) 0.4765(4) 1.6602(4)
C16 C 0.4973(6) 0.4748(4) 1.5026(5)
H1 H 0.65109 0.72004 1.42115
H2 H 0.81734 0.72270 1.69111
H3 H 0.77224 0.56980 1.83774
H4 H -0.09947 0.96979 0.40875
H5 H 0.57444 0.41339 1.72086
H6 H 0.07292 0.78674 0.45887
H7 H 0.41430 0.40991 1.45185
H8 H 0.33258 0.68794 0.71543
H9 H 0.38370 0.81393 0.99225
H10 H 0.22640 0.63527 0.97450
H11 H 0.41613 0.57791 0.97120
H12 H 0.95952 0.82950 0.98151
H13 H 1.00130 0.73153 1.10006
H14 H 1.03893 0.85716 1.15474
loop_
_geom_bond_atom_site_label_1
_geom_bond_atom_site_label_2
_geom_bond_site_symmetry_1
_geom_bond_site_symmetry_2
O1 C1 1_555 1_555
O2 C2 1_555 1_555
O3 C7 1_555 1_555
O4 C9 1_555 1_555
O5 C6 1_555 1_555
O6 C10 1_555 1_555
C1 C4 1_555 1_555
C2 O1 1_555 1_555
C3 C2 1_555 1_555
C4 C3 1_555 1_555
C5 C1 1_555 1_555
C6 C5 1_555 1_555
C7 C6 1_555 1_555
C8 C9 1_555 1_555
C9 O3 1_555 1_555
C10 O5 1_555 1_555
C11 C10 1_555 1_555
C12 C8 1_555 1_555
C13 C12 1_555 1_555
C14 C13 1_555 1_555
C15 C14 1_555 1_555
C16 C8 1_555 1_555
H1 C12 1_555 1_555
H2 C13 1_555 1_555
H3 C14 1_555 1_555
H4 C3 1_555 1_555
H5 C15 1_555 1_555
H6 C4 1_555 1_555
H7 C16 1_555 1_555
H8 C5 1_555 1_555
H9 C6 1_555 1_555
H10 C7 1_555 1_555
H11 C7 1_555 1_555
H12 C11 1_555 1_555
H13 C11 1_555 1_555
H14 C11 1_555 1_555
C15 C16 1_555 1_555

#END
