
#######################################################################
#
#                 Cambridge Crystallographic Data Centre
#                                CCDC 
#
#######################################################################
#
# If this CIF has been generated from an entry in the Cambridge 
# Structural Database, then it will include bibliographic, chemical, 
# crystal, experimental, refinement or atomic coordinate data resulting 
# from the CCDC's data processing and validation procedures.
#
#######################################################################

data_KETDIY
_chemical_formula_moiety         'C17 H17 B1 F2 N2 O1'
_chemical_name_systematic        
(2-((3,5-Dimethyl-2H-pyrrol-2-ylidene)(3-furyl)methyl)-3,5-dimethyl-1H-pyrrolato)(difluoro)boron
_symmetry_cell_setting           monoclinic
_symmetry_space_group_name_H-M   'P 21/n'
_symmetry_Int_Tables_number      14
_space_group_name_Hall           '-P 2yn'
loop_
_symmetry_equiv_pos_site_id
_symmetry_equiv_pos_as_xyz
1 x,y,z
2 1/2-x,1/2+y,1/2-z
3 -x,-y,-z
4 1/2+x,1/2-y,1/2+z
_cell_length_a                   12.053(2)
_cell_length_b                   6.8102(12)
_cell_length_c                   19.063(3)
_cell_angle_alpha                90
_cell_angle_beta                 101.338(9)
_cell_angle_gamma                90
_cell_volume                     1534.22
_cell_formula_units_Z            4
loop_
_atom_site_label
_atom_site_type_symbol
_atom_site_fract_x
_atom_site_fract_y
_atom_site_fract_z
B1 B 0.45414(14) 0.2032(3) 0.12197(8)
N1 N 0.52596(10) 0.06729(17) 0.17809(6)
N2 N 0.41343(10) 0.37577(18) 0.16289(5)
F1 F 0.36177(8) 0.10200(15) 0.08362(5)
F2 F 0.52068(9) 0.27396(16) 0.07547(5)
C1 C 0.58175(13) -0.0953(2) 0.16428(8)
C2 C 0.64433(13) -0.1690(2) 0.22876(9)
H1 H 0.6900 -0.2802 0.2334
C3 C 0.62714(12) -0.0500(2) 0.28413(8)
C4 C 0.55022(11) 0.0996(2) 0.25206(7)
C5 C 0.50302(10) 0.26106(18) 0.28104(6)
C6 C 0.43455(11) 0.3976(2) 0.23741(6)
C7 C 0.37884(12) 0.5721(2) 0.25344(7)
C8 C 0.32690(13) 0.6498(2) 0.18821(8)
H2 H 0.2841 0.7644 0.1818
C9 C 0.34897(12) 0.5287(2) 0.13352(7)
O1 O 0.53445(13) 0.2467(2) 0.47645(6)
C10 C 0.48251(15) 0.1928(3) 0.40915(8)
H3 H 0.4232 0.1035 0.3987
C11 C 0.52944(11) 0.2873(2) 0.35969(7)
C12 C 0.61574(15) 0.4073(2) 0.39909(9)
H4 H 0.6637 0.4904 0.3803
C13 C 0.61535(18) 0.3787(3) 0.46843(9)
H5 H 0.6637 0.4407 0.5059
C14 C 0.57440(16) -0.1738(3) 0.09060(9)
H6 H 0.4986 -0.1582 0.0639
H7 H 0.5940 -0.3106 0.0931
H8 H 0.6258 -0.1033 0.0673
C15 C 0.68325(14) -0.0777(2) 0.36086(9)
H9 H 0.6289 -0.1257 0.3874
H10 H 0.7130 0.0457 0.3805
H11 H 0.7438 -0.1707 0.3639
C16 C 0.30881(15) 0.5518(3) 0.05472(8)
H12 H 0.3715 0.5367 0.0310
H13 H 0.2762 0.6798 0.0448
H14 H 0.2528 0.4535 0.0377
C17 C 0.37312(15) 0.6605(3) 0.32464(9)
H15 H 0.3271 0.7765 0.3177
H16 H 0.4480 0.6942 0.3493
H17 H 0.3406 0.5673 0.3526
loop_
_geom_bond_atom_site_label_1
_geom_bond_atom_site_label_2
_geom_bond_site_symmetry_1
_geom_bond_site_symmetry_2
B1 N1 1_555 1_555
N1 C1 1_555 1_555
N2 B1 1_555 1_555
F1 B1 1_555 1_555
F2 B1 1_555 1_555
C1 C2 1_555 1_555
C2 H1 1_555 1_555
C3 C2 1_555 1_555
C4 N1 1_555 1_555
C5 C4 1_555 1_555
C6 N2 1_555 1_555
C7 C6 1_555 1_555
C8 C7 1_555 1_555
H2 C8 1_555 1_555
C9 N2 1_555 1_555
O1 C10 1_555 1_555
C10 H3 1_555 1_555
C11 C5 1_555 1_555
C12 C11 1_555 1_555
H4 C12 1_555 1_555
C13 O1 1_555 1_555
H5 C13 1_555 1_555
C14 C1 1_555 1_555
H6 C14 1_555 1_555
H7 C14 1_555 1_555
H8 C14 1_555 1_555
C15 C3 1_555 1_555
H9 C15 1_555 1_555
H10 C15 1_555 1_555
H11 C15 1_555 1_555
C16 C9 1_555 1_555
H12 C16 1_555 1_555
H13 C16 1_555 1_555
H14 C16 1_555 1_555
C17 C7 1_555 1_555
H15 C17 1_555 1_555
H16 C17 1_555 1_555
H17 C17 1_555 1_555
C3 C4 1_555 1_555
C5 C6 1_555 1_555
C8 C9 1_555 1_555
C10 C11 1_555 1_555
C12 C13 1_555 1_555

#END
