
#######################################################################
#
#                 Cambridge Crystallographic Data Centre
#                                CCDC 
#
#######################################################################
#
# If this CIF has been generated from an entry in the Cambridge 
# Structural Database, then it will include bibliographic, chemical, 
# crystal, experimental, refinement or atomic coordinate data resulting 
# from the CCDC's data processing and validation procedures.
#
#######################################################################

data_KETDAQ
_chemical_formula_moiety         'C17 H17 B1 F2 N2 O1'
_chemical_name_systematic        
(2-((3,5-Dimethyl-2H-pyrrol-2-ylidene)(2-furyl)methyl)-3,5-dimethyl-1H-pyrrolato)(difluoro)boron
_symmetry_cell_setting           orthorhombic
_symmetry_space_group_name_H-M   'P b c a'
_symmetry_Int_Tables_number      61
_space_group_name_Hall           '-P 2ac 2ab'
loop_
_symmetry_equiv_pos_site_id
_symmetry_equiv_pos_as_xyz
1 x,y,z
2 1/2-x,-y,1/2+z
3 -x,1/2+y,1/2-z
4 1/2+x,1/2-y,-z
5 -x,-y,-z
6 1/2+x,y,1/2-z
7 x,1/2-y,1/2+z
8 1/2-x,1/2+y,z
_cell_length_a                   12.9053(9)
_cell_length_b                   12.4096(8)
_cell_length_c                   19.5554(14)
_cell_angle_alpha                90
_cell_angle_beta                 90
_cell_angle_gamma                90
_cell_volume                     3131.79
_cell_formula_units_Z            8
loop_
_atom_site_label
_atom_site_type_symbol
_atom_site_fract_x
_atom_site_fract_y
_atom_site_fract_z
B1 B 0.12005(19) 0.4080(2) 0.37419(14)
F1 F 0.06503(12) 0.33390(14) 0.41419(8)
F2 F 0.17163(13) 0.47913(14) 0.41703(8)
N1 N 0.19814(14) 0.34900(15) 0.32774(10)
N2 N 0.04407(14) 0.46916(14) 0.32715(9)
C1 C 0.27823(19) 0.2863(2) 0.34854(15)
C2 C 0.3322(2) 0.2496(2) 0.29074(16)
H1 H 0.3903 0.2053 0.2915
C3 C 0.28541(18) 0.28987(19) 0.23261(15)
C4 C 0.19916(17) 0.35295(17) 0.25608(12)
C5 C 0.12322(16) 0.41028(17) 0.22078(11)
C6 C 0.04549(16) 0.46752(17) 0.25542(11)
C7 C -0.04019(17) 0.53019(18) 0.23139(12)
C8 C -0.08985(18) 0.5678(2) 0.28890(12)
H2 H -0.1485 0.6113 0.2892
C9 C -0.03729(18) 0.52950(19) 0.34731(12)
O1 O 0.0752(2) 0.3328(2) 0.10700(12)
C10 C 0.12198(18) 0.40818(19) 0.14519(12)
C11 C 0.1704(2) 0.4793(2) 0.10611(13)
H3 H 0.2093 0.5382 0.1205
C12 C 0.1507(3) 0.4472(3) 0.03808(18)
H4 H 0.1746 0.4824 -0.0009
C13 C 0.0941(3) 0.3610(3) 0.03854(15)
H5 H 0.0701 0.3242 0.0002
C14 C 0.3004(2) 0.2632(3) 0.42148(16)
H6 H 0.3498 0.3145 0.4385
H7 H 0.3283 0.1918 0.4257
H8 H 0.2376 0.2685 0.4475
C15 C 0.3217(2) 0.2711(2) 0.16080(17)
H9 H 0.3891 0.2386 0.1616
H10 H 0.3251 0.3386 0.1370
H11 H 0.2740 0.2240 0.1378
C16 C -0.0646(2) 0.5479(3) 0.42057(13)
H12 H -0.0814 0.4803 0.4417
H13 H -0.1233 0.5953 0.4233
H14 H -0.0068 0.5799 0.4438
C17 C -0.0739(2) 0.5529(2) 0.15948(13)
H15 H -0.1410 0.5864 0.1600
H16 H -0.0775 0.4866 0.1343
H17 H -0.0249 0.6003 0.1381
loop_
_geom_bond_atom_site_label_1
_geom_bond_atom_site_label_2
_geom_bond_site_symmetry_1
_geom_bond_site_symmetry_2
B1 F1 1_555 1_555
F2 B1 1_555 1_555
N1 B1 1_555 1_555
N2 B1 1_555 1_555
C1 N1 1_555 1_555
C2 C1 1_555 1_555
H1 C2 1_555 1_555
C3 C2 1_555 1_555
C4 N1 1_555 1_555
C5 C4 1_555 1_555
C6 N2 1_555 1_555
C7 C6 1_555 1_555
C8 C7 1_555 1_555
H2 C8 1_555 1_555
C9 N2 1_555 1_555
O1 C10 1_555 1_555
C10 C5 1_555 1_555
C11 C10 1_555 1_555
H3 C11 1_555 1_555
C12 C11 1_555 1_555
H4 C12 1_555 1_555
C13 O1 1_555 1_555
H5 C13 1_555 1_555
C14 C1 1_555 1_555
H6 C14 1_555 1_555
H7 C14 1_555 1_555
H8 C14 1_555 1_555
C15 C3 1_555 1_555
H9 C15 1_555 1_555
H10 C15 1_555 1_555
H11 C15 1_555 1_555
C16 C9 1_555 1_555
H12 C16 1_555 1_555
H13 C16 1_555 1_555
H14 C16 1_555 1_555
C17 C7 1_555 1_555
H15 C17 1_555 1_555
H16 C17 1_555 1_555
H17 C17 1_555 1_555
C3 C4 1_555 1_555
C5 C6 1_555 1_555
C8 C9 1_555 1_555
C12 C13 1_555 1_555

#END
