
#######################################################################
#
#                 Cambridge Crystallographic Data Centre
#                                CCDC 
#
#######################################################################
#
# If this CIF has been generated from an entry in the Cambridge 
# Structural Database, then it will include bibliographic, chemical, 
# crystal, experimental, refinement or atomic coordinate data resulting 
# from the CCDC's data processing and validation procedures.
#
#######################################################################

data_KETKIF
_chemical_formula_moiety         'C96 F36'
_chemical_name_systematic        dodecakis(Trifluoromethyl)-C84fullerene
_symmetry_cell_setting           tetragonal
_symmetry_space_group_name_H-M   'I 41/a'
_symmetry_Int_Tables_number      88
_space_group_name_Hall           '-I 4ad'
loop_
_symmetry_equiv_pos_site_id
_symmetry_equiv_pos_as_xyz
1 x,y,z
2 1/2-x,-y,1/2+z
3 3/4-y,1/4+x,1/4+z
4 3/4+y,3/4-x,3/4+z
5 1/2+x,1/2+y,1/2+z
6 -x,1/2-y,z
7 1/4-y,3/4+x,3/4+z
8 1/4+y,1/4-x,1/4+z
9 -x,-y,-z
10 1/2+x,y,1/2-z
11 1/4+y,3/4-x,3/4-z
12 1/4-y,1/4+x,1/4-z
13 1/2-x,1/2-y,1/2-z
14 x,1/2+y,-z
15 3/4+y,1/4-x,1/4-z
16 3/4-y,3/4+x,3/4-z
_cell_length_a                   16.6110(10)
_cell_length_b                   16.6110(10)
_cell_length_c                   43.550(2)
_cell_angle_alpha                90
_cell_angle_beta                 90
_cell_angle_gamma                90
_cell_volume                     12016.5
_exptl_crystal_colour            yellow
_exptl_crystal_description       block
_cell_formula_units_Z            8
loop_
_atom_site_label
_atom_site_type_symbol
_atom_site_fract_x
_atom_site_fract_y
_atom_site_fract_z
F1 F 0.5665(5) -0.1283(4) 0.11753(19)
F2 F 0.6209(5) -0.1087(5) 0.0719(2)
F3 F 0.5126(10) -0.1122(10) 0.0737(4)
F4 F 0.3384(8) 0.1561(10) -0.0104(3)
F5 F 0.4510(10) 0.1686(12) -0.0210(3)
F6 F 0.3834(11) 0.2677(8) -0.0193(3)
F7 F 0.3988(7) 0.0918(9) 0.2616(2)
F8 F 0.4520(12) 0.2068(9) 0.2740(3)
F9 F 0.5204(12) 0.0958(11) 0.2628(4)
F10 F 0.2924(10) -0.0225(12) 0.0434(4)
F11 F 0.4199(8) -0.0676(7) 0.0332(3)
F12 F 0.3529(13) 0.0132(9) 0.0123(3)
F13 F 0.1206(7) 0.3173(8) 0.1359(3)
F14 F 0.1897(8) 0.3931(8) 0.1639(4)
F15 F 0.1247(7) 0.2554(7) 0.1737(2)
F16 F 0.1750(9) 0.1385(11) 0.2039(4)
F17 F 0.2658(10) 0.1473(10) 0.2391(3)
F18 F 0.2290(12) 0.0459(10) 0.2105(4)
C1 C 0.5325(8) 0.0017(8) 0.1007(5)
C2 C 0.5430(10) 0.0653(13) 0.0722(5)
C3 C 0.4760(8) 0.0866(11) 0.0544(4)
C4 C 0.4892(6) 0.1567(10) 0.0385(4)
C5 C 0.4189(6) 0.2170(9) 0.0286(3)
C6 C 0.4445(9) 0.3089(9) 0.0346(2)
C7 C 0.3780(8) 0.3440(8) 0.0507(3)
C8 C 0.3915(8) 0.3937(10) 0.0754(4)
C9 C 0.3427(11) 0.3886(12) 0.1044(5)
C10 C 0.3848(8) 0.4707(8) 0.1114(3)
C11 C 0.4042(12) 0.4590(9) 0.1429(4)
C12 C 0.3338(13) 0.4101(13) 0.1533(5)
C13 C 0.3452(16) 0.3695(12) 0.1844(6)
C14 C 0.4257(11) 0.3777(8) 0.1942(5)
C15 C 0.4523(7) 0.3183(6) 0.2106(3)
C16 C 0.4204(9) 0.2379(7) 0.2131(2)
C17 C 0.4599(10) 0.1666(10) 0.2214(2)
C18 C 0.4520(10) 0.0952(7) 0.2020(3)
C19 C 0.5188(9) 0.0673(9) 0.1880(3)
C20 C 0.5207(14) 0.0239(7) 0.1592(4)
C21 C 0.4342(15) 0.0064(8) 0.1460(5)
C22 C 0.4553(9) -0.0030(9) 0.1133(3)
C23 C 0.3915(12) 0.0270(7) 0.0943(3)
C24 C 0.3961(8) 0.0543(10) 0.0630(3)
C25 C 0.3328(7) 0.1202(10) 0.0614(3)
C26 C 0.3462(8) 0.1968(10) 0.0496(4)
C27 C 0.3183(7) 0.2723(13) 0.0624(5)
C28 C 0.2844(9) 0.2762(10) 0.0867(3)
C29 C 0.2823(10) 0.3329(11) 0.1107(3)
C30 C 0.2772(10) 0.3621(11) 0.1399(4)
C31 C 0.2498(10) 0.2828(12) 0.1504(4)
C32 C 0.3064(11) 0.2886(10) 0.1769(5)
C33 C 0.3470(15) 0.2275(9) 0.1942(4)
C34 C 0.3095(11) 0.1427(6) 0.1891(4)
C35 C 0.3826(8) 0.0874(7) 0.1861(3)
C36 C 0.3766(8) 0.0369(5) 0.1592(2)
C37 C 0.3121(12) 0.0689(9) 0.1380(5)
C38 C 0.3181(9) 0.0668(12) 0.1092(4)
C39 C 0.2949(9) 0.1312(14) 0.0896(5)
C40 C 0.2650(7) 0.2116(9) 0.1048(3)
C41 C 0.2534(7) 0.1932(11) 0.1385(3)
C42 C 0.2746(9) 0.1359(8) 0.1556(4)
C43 C 0.5585(9) -0.0820(12) 0.0926(3)
C44 C 0.3972(7) 0.1985(13) -0.0052(3)
C45 C 0.4590(9) 0.1378(8) 0.2566(3)
C46 C 0.3692(8) -0.0175(11) 0.0416(3)
C47 C 0.1642(12) 0.3090(12) 0.1615(6)
C48 C 0.2491(12) 0.1194(11) 0.2133(4)
F1E F 0.4335(5) 0.6283(4) 0.11753(19)
F2E F 0.3791(5) 0.6087(5) 0.0719(2)
F3E F 0.4874(10) 0.6122(10) 0.0737(4)
F4E F 0.6616(8) 0.3439(10) -0.0104(3)
F5E F 0.5490(10) 0.3314(12) -0.0210(3)
F6E F 0.6166(11) 0.2323(8) -0.0193(3)
F7E F 0.6012(7) 0.4082(9) 0.2616(2)
F8E F 0.5480(12) 0.2932(9) 0.2740(3)
F9E F 0.4796(12) 0.4042(11) 0.2628(4)
F10E F 0.7076(10) 0.5225(12) 0.0434(4)
F11E F 0.5801(8) 0.5676(7) 0.0332(3)
F12E F 0.6471(13) 0.4868(9) 0.0123(3)
F13E F 0.8794(7) 0.1827(8) 0.1359(3)
F14E F 0.8103(8) 0.1069(8) 0.1639(4)
F15E F 0.8753(7) 0.2446(7) 0.1737(2)
F16E F 0.8250(9) 0.3615(11) 0.2039(4)
F17E F 0.7342(10) 0.3527(10) 0.2391(3)
F18E F 0.7710(12) 0.4541(10) 0.2105(4)
C1E C 0.4675(8) 0.4983(8) 0.1007(5)
C2E C 0.4570(10) 0.4347(13) 0.0722(5)
C3E C 0.5240(8) 0.4134(11) 0.0544(4)
C4E C 0.5108(6) 0.3433(10) 0.0385(4)
C5E C 0.5811(6) 0.2830(9) 0.0286(3)
C6E C 0.5555(9) 0.1911(9) 0.0346(2)
C7E C 0.6220(8) 0.1560(8) 0.0507(3)
C8E C 0.6085(8) 0.1063(10) 0.0754(4)
C9E C 0.6573(11) 0.1114(12) 0.1044(5)
C10E C 0.6152(8) 0.0293(8) 0.1114(3)
C11E C 0.5958(12) 0.0410(9) 0.1429(4)
C12E C 0.6662(13) 0.0899(13) 0.1533(5)
C13E C 0.6548(16) 0.1305(12) 0.1844(6)
C14E C 0.5743(11) 0.1223(8) 0.1942(5)
C15E C 0.5477(7) 0.1817(6) 0.2106(3)
C16E C 0.5796(9) 0.2621(7) 0.2131(2)
C17E C 0.5401(10) 0.3334(10) 0.2214(2)
C18E C 0.5480(10) 0.4048(7) 0.2020(3)
C19E C 0.4812(9) 0.4327(9) 0.1880(3)
C20E C 0.4793(14) 0.4761(7) 0.1592(4)
C21E C 0.5658(15) 0.4936(8) 0.1460(5)
C22E C 0.5447(9) 0.5030(9) 0.1133(3)
C23E C 0.6085(12) 0.4730(7) 0.0943(3)
C24E C 0.6039(8) 0.4457(10) 0.0630(3)
C25E C 0.6672(7) 0.3798(10) 0.0614(3)
C26E C 0.6538(8) 0.3032(10) 0.0496(4)
C27E C 0.6817(7) 0.2277(13) 0.0624(5)
C28E C 0.7156(9) 0.2238(10) 0.0867(3)
C29E C 0.7177(10) 0.1671(11) 0.1107(3)
C30E C 0.7228(10) 0.1379(11) 0.1399(4)
C31E C 0.7502(10) 0.2172(12) 0.1504(4)
C32E C 0.6936(11) 0.2114(10) 0.1769(5)
C33E C 0.6530(15) 0.2725(9) 0.1942(4)
C34E C 0.6905(11) 0.3573(6) 0.1891(4)
C35E C 0.6174(8) 0.4126(7) 0.1861(3)
C36E C 0.6234(8) 0.4631(5) 0.1592(2)
C37E C 0.6879(12) 0.4311(9) 0.1380(5)
C38E C 0.6819(9) 0.4332(12) 0.1092(4)
C39E C 0.7051(9) 0.3688(14) 0.0896(5)
C40E C 0.7350(7) 0.2884(9) 0.1048(3)
C41E C 0.7466(7) 0.3068(11) 0.1385(3)
C42E C 0.7254(9) 0.3641(8) 0.1556(4)
C43E C 0.4415(9) 0.5820(12) 0.0926(3)
C44E C 0.6028(7) 0.3015(13) -0.0052(3)
C45E C 0.5410(9) 0.3622(8) 0.2566(3)
C46E C 0.6308(8) 0.5175(11) 0.0416(3)
C47E C 0.8358(12) 0.1910(12) 0.1615(6)
C48E C 0.7509(12) 0.3806(11) 0.2133(4)
loop_
_geom_bond_atom_site_label_1
_geom_bond_atom_site_label_2
_geom_bond_site_symmetry_1
_geom_bond_site_symmetry_2
F1 C43 1_555 1_555
F2 C43 1_555 1_555
F3 C43 1_555 1_555
F4 C44 1_555 1_555
F5 C44 1_555 1_555
F6 C44 1_555 1_555
F7 C45 1_555 1_555
F8 C45 1_555 1_555
F9 C45 1_555 1_555
F10 C46 1_555 1_555
F11 C46 1_555 1_555
F12 C46 1_555 1_555
F13 C47 1_555 1_555
F14 C47 1_555 1_555
F15 C47 1_555 1_555
F16 C48 1_555 1_555
F17 C48 1_555 1_555
F18 C48 1_555 1_555
C1 C2 1_555 1_555
C2 C3 1_555 1_555
C3 C4 1_555 1_555
C4 C5 1_555 1_555
C5 C6 1_555 1_555
C6 C7 1_555 1_555
C7 C8 1_555 1_555
C8 C9 1_555 1_555
C9 C10 1_555 1_555
C10 C11 1_555 1_555
C11 C12 1_555 1_555
C12 C13 1_555 1_555
C13 C14 1_555 1_555
C14 C15 1_555 1_555
C15 C16 1_555 1_555
C16 C17 1_555 1_555
C17 C18 1_555 1_555
C18 C19 1_555 1_555
C19 C20 1_555 1_555
C20 C21 1_555 1_555
C21 C22 1_555 1_555
C22 C1 1_555 1_555
C23 C22 1_555 1_555
C24 C3 1_555 1_555
C25 C24 1_555 1_555
C26 C5 1_555 1_555
C27 C7 1_555 1_555
C28 C27 1_555 1_555
C29 C9 1_555 1_555
C30 C12 1_555 1_555
C31 C30 1_555 1_555
C32 C13 1_555 1_555
C33 C16 1_555 1_555
C34 C33 1_555 1_555
C35 C18 1_555 1_555
C36 C21 1_555 1_555
C37 C36 1_555 1_555
C38 C23 1_555 1_555
C39 C25 1_555 1_555
C40 C28 1_555 1_555
C41 C31 1_555 1_555
C42 C34 1_555 1_555
C43 C1 1_555 1_555
C44 C5 1_555 1_555
C45 C17 1_555 1_555
C46 C24 1_555 1_555
C47 C31 1_555 1_555
C48 C34 1_555 1_555
F1E C43E 1_555 1_555
F2E C43E 1_555 1_555
F3E C43E 1_555 1_555
F4E C44E 1_555 1_555
F5E C44E 1_555 1_555
F6E C44E 1_555 1_555
F7E C45E 1_555 1_555
F8E C45E 1_555 1_555
F9E C45E 1_555 1_555
F10E C46E 1_555 1_555
F11E C46E 1_555 1_555
F12E C46E 1_555 1_555
F13E C47E 1_555 1_555
F14E C47E 1_555 1_555
F15E C47E 1_555 1_555
F16E C48E 1_555 1_555
F17E C48E 1_555 1_555
F18E C48E 1_555 1_555
C1E C10 1_555 1_555
C2E C8 1_555 1_555
C3E C2E 1_555 1_555
C4E C6 1_555 1_555
C5E C4E 1_555 1_555
C6E C4 1_555 1_555
C7E C6E 1_555 1_555
C8E C2 1_555 1_555
C9E C8E 1_555 1_555
C10E C1 1_555 1_555
C11E C20 1_555 1_555
C12E C11E 1_555 1_555
C13E C12E 1_555 1_555
C14E C19 1_555 1_555
C15E C17 1_555 1_555
C16E C15E 1_555 1_555
C17E C15 1_555 1_555
C18E C17E 1_555 1_555
C19E C14 1_555 1_555
C20E C11 1_555 1_555
C21E C20E 1_555 1_555
C22E C1E 1_555 1_555
C23E C22E 1_555 1_555
C24E C3E 1_555 1_555
C25E C24E 1_555 1_555
C26E C5E 1_555 1_555
C27E C7E 1_555 1_555
C28E C27E 1_555 1_555
C29E C9E 1_555 1_555
C30E C12E 1_555 1_555
C31E C30E 1_555 1_555
C32E C13E 1_555 1_555
C33E C16E 1_555 1_555
C34E C33E 1_555 1_555
C35E C18E 1_555 1_555
C36E C21E 1_555 1_555
C37E C36E 1_555 1_555
C38E C23E 1_555 1_555
C39E C25E 1_555 1_555
C40E C28E 1_555 1_555
C41E C31E 1_555 1_555
C42E C34E 1_555 1_555
C43E C1E 1_555 1_555
C44E C5E 1_555 1_555
C45E C17E 1_555 1_555
C46E C24E 1_555 1_555
C47E C31E 1_555 1_555
C48E C34E 1_555 1_555
C23 C24 1_555 1_555
C25 C26 1_555 1_555
C26 C27 1_555 1_555
C28 C29 1_555 1_555
C29 C30 1_555 1_555
C31 C32 1_555 1_555
C32 C33 1_555 1_555
C34 C35 1_555 1_555
C35 C36 1_555 1_555
C37 C38 1_555 1_555
C37 C42 1_555 1_555
C38 C39 1_555 1_555
C39 C40 1_555 1_555
C40 C41 1_555 1_555
C41 C42 1_555 1_555
C1E C2E 1_555 1_555
C3E C4E 1_555 1_555
C5E C6E 1_555 1_555
C7E C8E 1_555 1_555
C9E C10E 1_555 1_555
C10E C11E 1_555 1_555
C13E C14E 1_555 1_555
C14E C15E 1_555 1_555
C16E C17E 1_555 1_555
C18E C19E 1_555 1_555
C19E C20E 1_555 1_555
C21E C22E 1_555 1_555
C23E C24E 1_555 1_555
C25E C26E 1_555 1_555
C26E C27E 1_555 1_555
C28E C29E 1_555 1_555
C29E C30E 1_555 1_555
C31E C32E 1_555 1_555
C32E C33E 1_555 1_555
C34E C35E 1_555 1_555
C35E C36E 1_555 1_555
C37E C38E 1_555 1_555
C37E C42E 1_555 1_555
C38E C39E 1_555 1_555
C39E C40E 1_555 1_555
C40E C41E 1_555 1_555
C41E C42E 1_555 1_555

#END
