
#######################################################################
#
#                 Cambridge Crystallographic Data Centre
#                                CCDC 
#
#######################################################################
#
# If this CIF has been generated from an entry in the Cambridge 
# Structural Database, then it will include bibliographic, chemical, 
# crystal, experimental, refinement or atomic coordinate data resulting 
# from the CCDC's data processing and validation procedures.
#
#######################################################################

data_KETKEB
_chemical_formula_moiety         'C96 F36'
_chemical_name_systematic        dodecakis(Trifluoromethyl)-C84fullerene
_symmetry_cell_setting           tetragonal
_symmetry_space_group_name_H-M   'P 42 b c'
_symmetry_Int_Tables_number      106
_space_group_name_Hall           'P 4c -2ab'
loop_
_symmetry_equiv_pos_site_id
_symmetry_equiv_pos_as_xyz
1 x,y,z
2 -x,-y,z
3 -y,x,1/2+z
4 y,-x,1/2+z
5 1/2+x,1/2-y,z
6 1/2-x,1/2+y,z
7 1/2-y,1/2-x,1/2+z
8 1/2+y,1/2+x,1/2+z
_cell_length_a                   16.0280(10)
_cell_length_b                   16.0280(10)
_cell_length_c                   45.983(3)
_cell_angle_alpha                90
_cell_angle_beta                 90
_cell_angle_gamma                90
_cell_volume                     11812.9
_exptl_crystal_colour            orange
_exptl_crystal_description       block
_cell_formula_units_Z            8
loop_
_atom_site_label
_atom_site_type_symbol
_atom_site_fract_x
_atom_site_fract_y
_atom_site_fract_z
F1 F 0.37789(19) 0.13128(17) 0.50687(6)
F2 F 0.4340(2) 0.10804(17) 0.46512(6)
F3 F 0.51013(19) 0.11648(19) 0.50325(7)
F4 F 0.6098(5) 0.5789(4) 0.59624(15)
F5 F 0.7078(4) 0.4949(6) 0.58407(11)
F6 F 0.5871(7) 0.4485(5) 0.59888(12)
F7 F 0.80492(19) 0.6959(2) 0.52678(6)
F8 F 0.72942(19) 0.66193(18) 0.56300(5)
F9 F 0.70623(19) 0.77572(17) 0.54014(7)
F10 F 0.9020(2) 0.5565(2) 0.44119(7)
F11 F 0.8700(2) 0.61670(18) 0.40117(6)
F12 F 0.8844(2) 0.48428(19) 0.40192(8)
F13 F 0.6238(3) 0.3443(2) 0.32782(7)
F14 F 0.4924(3) 0.3299(3) 0.32074(9)
F15 F 0.5534(4) 0.4446(2) 0.31079(7)
F16 F 0.8319(2) 0.33178(18) 0.39109(6)
F17 F 0.7852(2) 0.3979(2) 0.35419(6)
F18 F 0.7398(2) 0.2770(2) 0.36445(7)
C1 C 0.4419(4) 0.4340(3) 0.36626(9)
C2 C 0.4073(4) 0.3690(3) 0.38206(9)
C3 C 0.3327(4) 0.3787(3) 0.39768(9)
C4 C 0.3219(3) 0.3363(3) 0.42449(9)
C5 C 0.3839(3) 0.2871(3) 0.43701(9)
C6 C 0.3804(3) 0.2791(3) 0.46864(9)
C7 C 0.4551(3) 0.2412(3) 0.48479(9)
C8 C 0.4746(3) 0.2939(3) 0.51236(9)
C9 C 0.5615(3) 0.3073(3) 0.51282(9)
C10 C 0.5941(3) 0.3715(3) 0.52783(9)
C11 C 0.5439(3) 0.4264(3) 0.54430(9)
C12 C 0.5934(3) 0.5054(3) 0.55113(11)
C13 C 0.5423(3) 0.5811(3) 0.54282(9)
C14 C 0.5779(3) 0.6508(3) 0.52586(9)
C15 C 0.6690(3) 0.6501(3) 0.51650(9)
C16 C 0.6764(3) 0.6771(3) 0.48460(10)
C17 C 0.7310(3) 0.6188(3) 0.47034(9)
C18 C 0.7364(3) 0.6169(3) 0.44093(11)
C19 C 0.7644(3) 0.5404(3) 0.42444(10)
C20 C 0.7057(3) 0.5418(3) 0.39806(9)
C21 C 0.6671(4) 0.4760(3) 0.38473(10)
C22 C 0.5929(4) 0.4869(3) 0.36847(10)
C23 C 0.5367(4) 0.4142(3) 0.36063(10)
C24 C 0.5480(4) 0.3413(3) 0.38201(9)
C25 C 0.4712(4) 0.3131(3) 0.39374(10)
C26 C 0.4633(3) 0.2756(3) 0.42125(10)
C27 C 0.5371(3) 0.2625(3) 0.43673(10)
C28 C 0.5346(3) 0.2534(3) 0.46746(9)
C29 C 0.5971(3) 0.2857(3) 0.48503(9)
C30 C 0.6660(3) 0.3291(3) 0.47371(9)
C31 C 0.7003(3) 0.3991(3) 0.48961(9)
C32 C 0.6675(3) 0.4170(3) 0.51756(9)
C33 C 0.6666(4) 0.4957(3) 0.52939(11)
C34 C 0.6996(3) 0.5594(3) 0.51428(9)
C35 C 0.7402(3) 0.5444(3) 0.48787(9)
C36 C 0.7388(3) 0.4659(3) 0.47385(10)
C37 C 0.7471(3) 0.4611(3) 0.44240(10)
C38 C 0.7198(3) 0.3936(3) 0.42814(10)
C39 C 0.6951(4) 0.3870(3) 0.39563(10)
C40 C 0.6191(4) 0.3326(3) 0.39755(9)
C41 C 0.6136(3) 0.2929(3) 0.42584(10)
C42 C 0.6764(3) 0.3285(3) 0.44357(10)
C43 C 0.4445(3) 0.1478(3) 0.49048(9)
C44 C 0.6220(3) 0.5045(3) 0.58311(11)
C45 C 0.7268(3) 0.6979(3) 0.53688(9)
C46 C 0.8565(4) 0.5494(3) 0.41719(10)
C47 C 0.5519(4) 0.3839(3) 0.32938(10)
C48 C 0.7642(4) 0.3487(3) 0.37579(9)
F1A F 0.62211(19) 0.86872(17) 0.50687(6)
F2A F 0.5660(2) 0.89196(17) 0.46512(6)
F3A F 0.48987(19) 0.88352(19) 0.50325(7)
F4A F 0.3902(5) 0.4211(4) 0.59624(15)
F5A F 0.2922(4) 0.5051(6) 0.58407(11)
F6A F 0.4129(7) 0.5515(5) 0.59888(12)
F7A F 0.19508(19) 0.3041(2) 0.52678(6)
F8A F 0.27058(19) 0.33807(18) 0.56300(5)
F9A F 0.29377(19) 0.22428(17) 0.54014(7)
F10A F 0.0980(2) 0.4435(2) 0.44119(7)
F11A F 0.1300(2) 0.38330(18) 0.40117(6)
F12A F 0.1156(2) 0.51572(19) 0.40192(8)
F13A F 0.3762(3) 0.6557(2) 0.32782(7)
F14A F 0.5076(3) 0.6701(3) 0.32074(9)
F15A F 0.4466(4) 0.5554(2) 0.31079(7)
F16A F 0.1681(2) 0.66822(18) 0.39109(6)
F17A F 0.2148(2) 0.6021(2) 0.35419(6)
F18A F 0.2602(2) 0.7230(2) 0.36445(7)
C1A C 0.5581(4) 0.5660(3) 0.36626(9)
C2A C 0.5927(4) 0.6310(3) 0.38206(9)
C3A C 0.6673(4) 0.6213(3) 0.39768(9)
C4A C 0.6781(3) 0.6637(3) 0.42449(9)
C5A C 0.6161(3) 0.7129(3) 0.43701(9)
C6A C 0.6196(3) 0.7209(3) 0.46864(9)
C7A C 0.5449(3) 0.7588(3) 0.48479(9)
C8A C 0.5254(3) 0.7061(3) 0.51236(9)
C9A C 0.4385(3) 0.6927(3) 0.51282(9)
C10A C 0.4059(3) 0.6285(3) 0.52783(9)
C11A C 0.4561(3) 0.5736(3) 0.54430(9)
C12A C 0.4066(3) 0.4946(3) 0.55113(11)
C13A C 0.4577(3) 0.4189(3) 0.54282(9)
C14A C 0.4221(3) 0.3492(3) 0.52586(9)
C15A C 0.3310(3) 0.3499(3) 0.51650(9)
C16A C 0.3236(3) 0.3229(3) 0.48460(10)
C17A C 0.2690(3) 0.3812(3) 0.47034(9)
C18A C 0.2636(3) 0.3831(3) 0.44093(11)
C19A C 0.2356(3) 0.4596(3) 0.42444(10)
C20A C 0.2943(3) 0.4582(3) 0.39806(9)
C21A C 0.3329(4) 0.5240(3) 0.38473(10)
C22A C 0.4071(4) 0.5131(3) 0.36847(10)
C23A C 0.4633(4) 0.5858(3) 0.36063(10)
C24A C 0.4520(4) 0.6587(3) 0.38201(9)
C25A C 0.5288(4) 0.6869(3) 0.39374(10)
C26A C 0.5367(3) 0.7244(3) 0.42125(10)
C27A C 0.4629(3) 0.7375(3) 0.43673(10)
C28A C 0.4654(3) 0.7466(3) 0.46746(9)
C29A C 0.4029(3) 0.7143(3) 0.48503(9)
C30A C 0.3340(3) 0.6709(3) 0.47371(9)
C31A C 0.2997(3) 0.6009(3) 0.48961(9)
C32A C 0.3325(3) 0.5830(3) 0.51756(9)
C33A C 0.3334(4) 0.5043(3) 0.52939(11)
C34A C 0.3004(3) 0.4406(3) 0.51428(9)
C35A C 0.2598(3) 0.4556(3) 0.48787(9)
C36A C 0.2612(3) 0.5341(3) 0.47385(10)
C37A C 0.2529(3) 0.5389(3) 0.44240(10)
C38A C 0.2802(3) 0.6064(3) 0.42814(10)
C39A C 0.3049(4) 0.6130(3) 0.39563(10)
C40A C 0.3809(4) 0.6674(3) 0.39755(9)
C41A C 0.3864(3) 0.7071(3) 0.42584(10)
C42A C 0.3236(3) 0.6715(3) 0.44357(10)
C43A C 0.5555(3) 0.8522(3) 0.49048(9)
C44A C 0.3780(3) 0.4955(3) 0.58311(11)
C45A C 0.2732(3) 0.3021(3) 0.53688(9)
C46A C 0.1435(4) 0.4506(3) 0.41719(10)
C47A C 0.4481(4) 0.6161(3) 0.32938(10)
C48A C 0.2358(4) 0.6513(3) 0.37579(9)
F22 F 1.1537(2) 0.3759(3) 0.83578(6)
F23 F 1.0520(2) 0.4443(4) 0.85236(6)
F24 F 1.1663(3) 0.5049(2) 0.84291(9)
F25 F 1.1645(2) 0.16566(19) 0.77191(6)
F26 F 1.0967(2) 0.2118(2) 0.80845(7)
F27 F 1.2185(2) 0.2579(2) 0.79933(7)
F28 F 0.9233(4) 0.3906(4) 0.56736(8)
F29 F 1.0082(5) 0.3027(4) 0.57724(13)
F30 F 1.0521(4) 0.4126(4) 0.56553(9)
F31 F 0.7186(3) 0.3003(2) 0.62300(9)
F32 F 0.8010(2) 0.20050(19) 0.63413(7)
F33 F 0.8337(3) 0.2800(3) 0.59969(7)
F34 F 0.60702(19) 0.4385(2) 0.69805(6)
F35 F 0.6300(2) 0.38256(19) 0.65652(7)
F36 F 0.6158(3) 0.5151(2) 0.65956(8)
F37 F 0.87916(19) 0.1322(2) 0.76297(6)
F38 F 0.9385(2) 0.09869(19) 0.72232(7)
F39 F 1.0126(2) 0.1133(2) 0.76050(9)
C49 C 1.0870(3) 0.4659(4) 0.80239(10)
C50 C 1.1571(3) 0.4495(3) 0.78107(9)
C51 C 1.1669(3) 0.3797(3) 0.76599(10)
C52 C 1.2048(3) 0.3837(3) 0.73818(10)
C53 C 1.1697(3) 0.3217(3) 0.71994(10)
C54 C 1.1667(3) 0.3295(3) 0.68927(10)
C55 C 1.2145(3) 0.3997(3) 0.67844(10)
C56 C 1.1919(4) 0.4370(3) 0.65124(9)
C57 C 1.1281(4) 0.4027(3) 0.63496(10)
C58 C 1.0746(4) 0.4554(3) 0.61982(10)
C59 C 0.9937(4) 0.4080(4) 0.61261(11)
C60 C 0.9153(4) 0.4589(3) 0.62122(10)
C61 C 0.8496(4) 0.3333(3) 0.64664(9)
C62 C 0.7936(4) 0.4776(3) 0.65142(10)
C63 C 0.7411(4) 0.4579(3) 0.67854(10)
C64 C 0.7533(3) 0.5390(3) 0.69603(10)
C65 C 0.7635(3) 0.5419(3) 0.72626(11)
C66 C 0.7754(3) 0.4638(3) 0.74232(10)
C67 C 0.8152(3) 0.4727(4) 0.76973(10)
C68 C 0.8656(3) 0.4094(3) 0.78083(9)
C69 C 0.9344(3) 0.4444(4) 0.79620(9)
C70 C 1.0124(3) 0.4099(4) 0.79393(11)
C71 C 1.0237(3) 0.3319(3) 0.77816(10)
C72 C 1.1086(3) 0.3060(3) 0.76804(10)
C73 C 1.1050(3) 0.2809(3) 0.73493(10)
C74 C 1.0353(3) 0.2523(3) 0.72091(10)
C75 C 1.0301(4) 0.2596(3) 0.68912(10)
C76 C 1.0981(4) 0.2971(3) 0.67371(10)
C77 C 1.0830(4) 0.3312(3) 0.64576(9)
C78 C 1.0027(4) 0.3338(3) 0.63324(12)
C79 C 0.9370(4) 0.3008(3) 0.64884(10)
C80 C 0.8497(4) 0.4245(3) 0.63691(10)
C81 C 0.8220(4) 0.3250(3) 0.67928(10)
C82 C 0.7768(3) 0.3841(3) 0.69476(10)
C83 C 0.7854(3) 0.3871(3) 0.72555(11)
C84 C 0.8335(3) 0.3237(3) 0.73894(10)
C85 C 0.8786(3) 0.3359(3) 0.76602(10)
C86 C 0.9535(3) 0.2956(3) 0.76562(10)
C87 C 0.9567(3) 0.2365(3) 0.73884(10)
C88 C 0.8798(3) 0.2665(3) 0.72254(9)
C89 C 0.8756(4) 0.2702(3) 0.69310(11)
C90 C 0.9508(4) 0.2614(3) 0.67574(10)
C91 C 1.1162(3) 0.4468(4) 0.83402(10)
C92 C 0.9929(6) 0.3787(4) 0.57975(11)
C93 C 0.7996(4) 0.2781(3) 0.62593(10)
C94 C 0.6480(4) 0.4483(3) 0.67289(11)
C95 C 1.1474(3) 0.2331(4) 0.78717(10)
C96 C 0.9477(3) 0.1429(4) 0.74654(11)
F22A F 0.8463(2) 0.6241(3) 0.83578(6)
F23A F 0.9480(2) 0.5557(4) 0.85236(6)
F24A F 0.8337(3) 0.4951(2) 0.84291(9)
F25A F 0.8355(2) 0.83434(19) 0.77191(6)
F26A F 0.9033(2) 0.7882(2) 0.80845(7)
F27A F 0.7815(2) 0.7421(2) 0.79933(7)
F28A F 1.0767(4) 0.6094(4) 0.56736(8)
F29A F 0.9918(5) 0.6973(4) 0.57724(13)
F30A F 0.9479(4) 0.5874(4) 0.56553(9)
F31A F 1.2814(3) 0.6997(2) 0.62300(9)
F32A F 1.1990(2) 0.79950(19) 0.63413(7)
F33A F 1.1663(3) 0.7200(3) 0.59969(7)
F34A F 1.39298(19) 0.5615(2) 0.69805(6)
F35A F 1.3700(2) 0.61744(19) 0.65652(7)
F36A F 1.3842(3) 0.4849(2) 0.65956(8)
F37A F 1.12084(19) 0.8678(2) 0.76297(6)
F38A F 1.0615(2) 0.90131(19) 0.72232(7)
F39A F 0.9874(2) 0.8867(2) 0.76050(9)
C49A C 0.9130(3) 0.5341(4) 0.80239(10)
C50A C 0.8429(3) 0.5505(3) 0.78107(9)
C51A C 0.8331(3) 0.6203(3) 0.76599(10)
C52A C 0.7952(3) 0.6163(3) 0.73818(10)
C53A C 0.8303(3) 0.6783(3) 0.71994(10)
C54A C 0.8333(3) 0.6705(3) 0.68927(10)
C55A C 0.7855(3) 0.6003(3) 0.67844(10)
C56A C 0.8081(4) 0.5630(3) 0.65124(9)
C57A C 0.8719(4) 0.5973(3) 0.63496(10)
C58A C 0.9254(4) 0.5446(3) 0.61982(10)
C59A C 1.0063(4) 0.5920(4) 0.61261(11)
C60A C 1.0847(4) 0.5411(3) 0.62122(10)
C61A C 1.1504(4) 0.6667(3) 0.64664(9)
C62A C 1.2064(4) 0.5224(3) 0.65142(10)
C63A C 1.2589(4) 0.5421(3) 0.67854(10)
C64A C 1.2467(3) 0.4610(3) 0.69603(10)
C65A C 1.2365(3) 0.4581(3) 0.72626(11)
C66A C 1.2246(3) 0.5362(3) 0.74232(10)
C67A C 1.1848(3) 0.5273(4) 0.76973(10)
C68A C 1.1344(3) 0.5906(3) 0.78083(9)
C69A C 1.0656(3) 0.5556(4) 0.79620(9)
C70A C 0.9876(3) 0.5901(4) 0.79393(11)
C71A C 0.9763(3) 0.6681(3) 0.77816(10)
C72A C 0.8914(3) 0.6940(3) 0.76804(10)
C73A C 0.8950(3) 0.7191(3) 0.73493(10)
C74A C 0.9647(3) 0.7477(3) 0.72091(10)
C75A C 0.9699(4) 0.7404(3) 0.68912(10)
C76A C 0.9019(4) 0.7029(3) 0.67371(10)
C77A C 0.9170(4) 0.6688(3) 0.64576(9)
C78A C 0.9973(4) 0.6662(3) 0.63324(12)
C79A C 1.0630(4) 0.6992(3) 0.64884(10)
C80A C 1.1503(4) 0.5755(3) 0.63691(10)
C81A C 1.1780(4) 0.6750(3) 0.67928(10)
C82A C 1.2232(3) 0.6159(3) 0.69476(10)
C83A C 1.2146(3) 0.6129(3) 0.72555(11)
C84A C 1.1665(3) 0.6763(3) 0.73894(10)
C85A C 1.1214(3) 0.6641(3) 0.76602(10)
C86A C 1.0465(3) 0.7044(3) 0.76562(10)
C87A C 1.0433(3) 0.7635(3) 0.73884(10)
C88A C 1.1202(3) 0.7335(3) 0.72254(9)
C89A C 1.1244(4) 0.7298(3) 0.69310(11)
C90A C 1.0492(4) 0.7386(3) 0.67574(10)
C91A C 0.8838(3) 0.5532(4) 0.83402(10)
C92A C 1.0071(6) 0.6213(4) 0.57975(11)
C93A C 1.2004(4) 0.7219(3) 0.62593(10)
C94A C 1.3520(4) 0.5517(3) 0.67289(11)
C95A C 0.8526(3) 0.7669(4) 0.78717(10)
C96A C 1.0523(3) 0.8571(4) 0.74654(11)
F19? F 0.6743(7) 0.4434(7) 0.58759(12)
F20? F 0.5538(5) 0.4910(11) 0.59997(15)
F21? F 0.6559(11) 0.5694(6) 0.5922(3)
loop_
_geom_bond_atom_site_label_1
_geom_bond_atom_site_label_2
_geom_bond_site_symmetry_1
_geom_bond_site_symmetry_2
F1 C43 1_555 1_555
F2 C43 1_555 1_555
F3 C43 1_555 1_555
F4 C44 1_555 1_555
F5 C44 1_555 1_555
F6 C44 1_555 1_555
F7 C45 1_555 1_555
F8 C45 1_555 1_555
F9 C45 1_555 1_555
F10 C46 1_555 1_555
F11 C46 1_555 1_555
F12 C46 1_555 1_555
F13 C47 1_555 1_555
F14 C47 1_555 1_555
F15 C47 1_555 1_555
F16 C48 1_555 1_555
F17 C48 1_555 1_555
F18 C48 1_555 1_555
C1 C2 1_555 1_555
C2 C3 1_555 1_555
C3 C4 1_555 1_555
C4 C5 1_555 1_555
C5 C6 1_555 1_555
C6 C7 1_555 1_555
C7 C8 1_555 1_555
C8 C9 1_555 1_555
C9 C10 1_555 1_555
C10 C11 1_555 1_555
C11 C12 1_555 1_555
C12 C13 1_555 1_555
C13 C14 1_555 1_555
C14 C15 1_555 1_555
C15 C16 1_555 1_555
C16 C17 1_555 1_555
C17 C18 1_555 1_555
C18 C19 1_555 1_555
C19 C20 1_555 1_555
C20 C21 1_555 1_555
C21 C22 1_555 1_555
C22 C23 1_555 1_555
C23 C1 1_555 1_555
C24 C23 1_555 1_555
C25 C2 1_555 1_555
C26 C5 1_555 1_555
C27 C26 1_555 1_555
C28 C7 1_555 1_555
C29 C9 1_555 1_555
C30 C29 1_555 1_555
C31 C30 1_555 1_555
C32 C10 1_555 1_555
C33 C12 1_555 1_555
C34 C15 1_555 1_555
C35 C17 1_555 1_555
C36 C31 1_555 1_555
C37 C19 1_555 1_555
C38 C37 1_555 1_555
C39 C21 1_555 1_555
C40 C24 1_555 1_555
C41 C27 1_555 1_555
C42 C30 1_555 1_555
C43 C7 1_555 1_555
C44 C12 1_555 1_555
C45 C15 1_555 1_555
C46 C19 1_555 1_555
C47 C23 1_555 1_555
C48 C39 1_555 1_555
F22 C91 1_555 1_555
F23 C91 1_555 1_555
F24 C91 1_555 1_555
F25 C95 1_555 1_555
F26 C95 1_555 1_555
F27 C95 1_555 1_555
F28 C92 1_555 1_555
F29 C92 1_555 1_555
F30 C92 1_555 1_555
F31 C93 1_555 1_555
F32 C93 1_555 1_555
F33 C93 1_555 1_555
F34 C94 1_555 1_555
F35 C94 1_555 1_555
F36 C94 1_555 1_555
F37 C96 1_555 1_555
F38 C96 1_555 1_555
F39 C96 1_555 1_555
C49 C50 1_555 1_555
C50 C51 1_555 1_555
C51 C52 1_555 1_555
C52 C53 1_555 1_555
C53 C54 1_555 1_555
C54 C55 1_555 1_555
C55 C56 1_555 1_555
C56 C57 1_555 1_555
C57 C58 1_555 1_555
C58 C59 1_555 1_555
C59 C60 1_555 1_555
C60 C80 1_555 1_555
C61 C79 1_555 1_555
C62 C63 1_555 1_555
C63 C64 1_555 1_555
C64 C65 1_555 1_555
C65 C66 1_555 1_555
C66 C67 1_555 1_555
C67 C68 1_555 1_555
C68 C69 1_555 1_555
C69 C70 1_555 1_555
C70 C49 1_555 1_555
C71 C70 1_555 1_555
C72 C51 1_555 1_555
C73 C53 1_555 1_555
C74 C73 1_555 1_555
C75 C74 1_555 1_555
C76 C54 1_555 1_555
C77 C57 1_555 1_555
C78 C59 1_555 1_555
C79 C78 1_555 1_555
C80 C61 1_555 1_555
C81 C61 1_555 1_555
C82 C63 1_555 1_555
C83 C66 1_555 1_555
C84 C83 1_555 1_555
C85 C68 1_555 1_555
C86 C71 1_555 1_555
C87 C74 1_555 1_555
C88 C84 1_555 1_555
C89 C81 1_555 1_555
C90 C75 1_555 1_555
C91 C49 1_555 1_555
C92 C59 1_555 1_555
C93 C61 1_555 1_555
C94 C63 1_555 1_555
C95 C72 1_555 1_555
C96 C87 1_555 1_555
F1A C43A 1_555 1_555
F2A C43A 1_555 1_555
F3A C43A 1_555 1_555
F4A C44A 1_555 1_555
F5A C44A 1_555 1_555
F6A C44A 1_555 1_555
F7A C45A 1_555 1_555
F8A C45A 1_555 1_555
F9A C45A 1_555 1_555
F10A C46A 1_555 1_555
F11A C46A 1_555 1_555
F12A C46A 1_555 1_555
F13A C47A 1_555 1_555
F14A C47A 1_555 1_555
F15A C47A 1_555 1_555
F16A C48A 1_555 1_555
F17A C48A 1_555 1_555
F18A C48A 1_555 1_555
C1A C22 1_555 1_555
C2A C1A 1_555 1_555
C3A C20 1_555 1_555
C4A C18 1_555 1_555
C5A C4A 1_555 1_555
C6A C16 1_555 1_555
C7A C6A 1_555 1_555
C8A C14 1_555 1_555
C9A C8A 1_555 1_555
C10A C9A 1_555 1_555
C11A C13 1_555 1_555
C12A C11A 1_555 1_555
C13A C11 1_555 1_555
C14A C8 1_555 1_555
C15A C14A 1_555 1_555
C16A C6 1_555 1_555
C17A C16A 1_555 1_555
C18A C4 1_555 1_555
C19A C18A 1_555 1_555
C20A C3 1_555 1_555
C21A C20A 1_555 1_555
C22A C1 1_555 1_555
C23A C1A 1_555 1_555
C24A C23A 1_555 1_555
C25A C2A 1_555 1_555
C26A C5A 1_555 1_555
C27A C26A 1_555 1_555
C28A C7A 1_555 1_555
C29A C9A 1_555 1_555
C30A C29A 1_555 1_555
C31A C30A 1_555 1_555
C32A C10A 1_555 1_555
C33A C12A 1_555 1_555
C34A C15A 1_555 1_555
C35A C17A 1_555 1_555
C36A C31A 1_555 1_555
C37A C19A 1_555 1_555
C38A C37A 1_555 1_555
C39A C21A 1_555 1_555
C40A C24A 1_555 1_555
C41A C27A 1_555 1_555
C42A C30A 1_555 1_555
C43A C7A 1_555 1_555
C44A C12A 1_555 1_555
C45A C15A 1_555 1_555
C46A C19A 1_555 1_555
C47A C23A 1_555 1_555
C48A C39A 1_555 1_555
F22A C91A 1_555 1_555
F23A C91A 1_555 1_555
F24A C91A 1_555 1_555
F25A C95A 1_555 1_555
F26A C95A 1_555 1_555
F27A C95A 1_555 1_555
F28A C92A 1_555 1_555
F29A C92A 1_555 1_555
F30A C92A 1_555 1_555
F31A C93A 1_555 1_555
F32A C93A 1_555 1_555
F33A C93A 1_555 1_555
F34A C94A 1_555 1_555
F35A C94A 1_555 1_555
F36A C94A 1_555 1_555
F37A C96A 1_555 1_555
F38A C96A 1_555 1_555
F39A C96A 1_555 1_555
C49A C69 1_555 1_555
C50A C67 1_555 1_555
C51A C50A 1_555 1_555
C52A C65 1_555 1_555
C53A C52A 1_555 1_555
C54A C53A 1_555 1_555
C55A C64 1_555 1_555
C56A C62 1_555 1_555
C57A C56A 1_555 1_555
C58A C60 1_555 1_555
C59A C58A 1_555 1_555
C60A C58 1_555 1_555
C61A C79A 1_555 1_555
C62A C56 1_555 1_555
C63A C62A 1_555 1_555
C64A C55 1_555 1_555
C65A C52 1_555 1_555
C66A C65A 1_555 1_555
C67A C50 1_555 1_555
C68A C67A 1_555 1_555
C69A C49 1_555 1_555
C70A C49A 1_555 1_555
C71A C70A 1_555 1_555
C72A C51A 1_555 1_555
C73A C53A 1_555 1_555
C74A C73A 1_555 1_555
C75A C74A 1_555 1_555
C76A C54A 1_555 1_555
C77A C57A 1_555 1_555
C78A C59A 1_555 1_555
C79A C78A 1_555 1_555
C80A C60A 1_555 1_555
C81A C61A 1_555 1_555
C82A C63A 1_555 1_555
C83A C66A 1_555 1_555
C84A C83A 1_555 1_555
C85A C68A 1_555 1_555
C86A C71A 1_555 1_555
C87A C74A 1_555 1_555
C88A C84A 1_555 1_555
C89A C81A 1_555 1_555
C90A C75A 1_555 1_555
C91A C49A 1_555 1_555
C92A C59A 1_555 1_555
C93A C61A 1_555 1_555
C94A C63A 1_555 1_555
C95A C72A 1_555 1_555
C96A C87A 1_555 1_555
C24 C25 1_555 1_555
C25 C26 1_555 1_555
C27 C28 1_555 1_555
C28 C29 1_555 1_555
C31 C32 1_555 1_555
C32 C33 1_555 1_555
C33 C34 1_555 1_555
C34 C35 1_555 1_555
C35 C36 1_555 1_555
C36 C37 1_555 1_555
C38 C39 1_555 1_555
C38 C42 1_555 1_555
C39 C40 1_555 1_555
C40 C41 1_555 1_555
C41 C42 1_555 1_555
C62 C80 1_555 1_555
C71 C72 1_555 1_555
C72 C73 1_555 1_555
C75 C76 1_555 1_555
C76 C77 1_555 1_555
C77 C78 1_555 1_555
C79 C90 1_555 1_555
C81 C82 1_555 1_555
C82 C83 1_555 1_555
C84 C85 1_555 1_555
C85 C86 1_555 1_555
C86 C87 1_555 1_555
C87 C88 1_555 1_555
C88 C89 1_555 1_555
C89 C90 1_555 1_555
C2A C3A 1_555 1_555
C3A C4A 1_555 1_555
C5A C6A 1_555 1_555
C7A C8A 1_555 1_555
C10A C11A 1_555 1_555
C12A C13A 1_555 1_555
C13A C14A 1_555 1_555
C15A C16A 1_555 1_555
C17A C18A 1_555 1_555
C19A C20A 1_555 1_555
C21A C22A 1_555 1_555
C22A C23A 1_555 1_555
C24A C25A 1_555 1_555
C25A C26A 1_555 1_555
C27A C28A 1_555 1_555
C28A C29A 1_555 1_555
C31A C32A 1_555 1_555
C32A C33A 1_555 1_555
C33A C34A 1_555 1_555
C34A C35A 1_555 1_555
C35A C36A 1_555 1_555
C36A C37A 1_555 1_555
C38A C39A 1_555 1_555
C38A C42A 1_555 1_555
C39A C40A 1_555 1_555
C40A C41A 1_555 1_555
C41A C42A 1_555 1_555
C49A C50A 1_555 1_555
C51A C52A 1_555 1_555
C54A C55A 1_555 1_555
C55A C56A 1_555 1_555
C57A C58A 1_555 1_555
C59A C60A 1_555 1_555
C61A C80A 1_555 1_555
C62A C80A 1_555 1_555
C63A C64A 1_555 1_555
C64A C65A 1_555 1_555
C66A C67A 1_555 1_555
C68A C69A 1_555 1_555
C69A C70A 1_555 1_555
C71A C72A 1_555 1_555
C72A C73A 1_555 1_555
C75A C76A 1_555 1_555
C76A C77A 1_555 1_555
C77A C78A 1_555 1_555
C79A C90A 1_555 1_555
C81A C82A 1_555 1_555
C82A C83A 1_555 1_555
C84A C85A 1_555 1_555
C85A C86A 1_555 1_555
C86A C87A 1_555 1_555
C87A C88A 1_555 1_555
C88A C89A 1_555 1_555
C89A C90A 1_555 1_555

#END
