
#######################################################################
#
#                 Cambridge Crystallographic Data Centre
#                                CCDC 
#
#######################################################################
#
# If this CIF has been generated from an entry in the Cambridge 
# Structural Database, then it will include bibliographic, chemical, 
# crystal, experimental, refinement or atomic coordinate data resulting 
# from the CCDC's data processing and validation procedures.
#
#######################################################################

data_KETNII
_chemical_formula_moiety         'C20 H18 Cl1 N1 O3'
_chemical_name_systematic        
'Methyl 1-(4-chlorophenyl)-3-hydroxy-9-methyl-2,3-dihydro-1H-pyrrolo[1,2-a]indole-3-carboxylate'
_symmetry_cell_setting           orthorhombic
_symmetry_space_group_name_H-M   'P 21 21 2'
_symmetry_Int_Tables_number      18
_space_group_name_Hall           'P 2 2ab'
loop_
_symmetry_equiv_pos_site_id
_symmetry_equiv_pos_as_xyz
1 x,y,z
2 1/2+x,1/2-y,-z
3 1/2-x,1/2+y,-z
4 -x,-y,z
_cell_length_a                   10.3250(14)
_cell_length_b                   19.207(3)
_cell_length_c                   9.1045(12)
_cell_angle_alpha                90
_cell_angle_beta                 90
_cell_angle_gamma                90
_cell_volume                     1805.53
_cell_formula_units_Z            4
loop_
_atom_site_label
_atom_site_type_symbol
_atom_site_fract_x
_atom_site_fract_y
_atom_site_fract_z
C1 C 0.6212(2) 0.39014(11) 0.0775(3)
C2 C 0.6724(2) 0.33832(12) 0.1623(3)
H1 H 0.7609 0.3295 0.1605
C3 C 0.5913(2) 0.29894(11) 0.2513(3)
H2 H 0.6261 0.2640 0.3100
C4 C 0.4590(2) 0.31120(10) 0.2534(3)
C5 C 0.4109(2) 0.36423(11) 0.1668(3)
H3 H 0.3225 0.3735 0.1685
C6 C 0.4898(2) 0.40381(11) 0.0778(3)
H4 H 0.4554 0.4389 0.0192
C7 C 0.3664(2) 0.26737(10) 0.3446(3)
H5 H 0.2840 0.2922 0.3547
C8 C 0.3404(2) 0.19414(11) 0.2775(3)
H6 H 0.2487 0.1835 0.2814
H7 H 0.3678 0.1931 0.1756
C9 C 0.4178(2) 0.14010(10) 0.3675(3)
C10 C 0.4160(2) 0.24922(10) 0.4937(3)
C11 C 0.4372(2) 0.27902(11) 0.6271(3)
C12 C 0.4886(2) 0.22479(11) 0.7206(3)
C13 C 0.49372(19) 0.16278(11) 0.6361(2)
C14 C 0.5330(2) 0.09976(13) 0.6956(3)
H8 H 0.5374 0.0596 0.6385
C15 C 0.5654(3) 0.09889(14) 0.8428(3)
H9 H 0.5897 0.0572 0.8867
C16 C 0.5621(3) 0.15949(15) 0.9266(3)
H10 H 0.5860 0.1576 1.0251
C17 C 0.5246(2) 0.22199(14) 0.8672(3)
H11 H 0.5233 0.2620 0.9247
C18 C 0.4091(4) 0.35317(13) 0.6714(4)
H12 H 0.4884 0.3759 0.6982
H13 H 0.3510 0.3534 0.7537
H14 H 0.3699 0.3774 0.5906
C19 C 0.3353(2) 0.07649(10) 0.4112(3)
C20 C 0.1561(3) 0.03787(15) 0.5462(4)
H15 H 0.1220 0.0121 0.4646
H16 H 0.0860 0.0562 0.6036
H17 H 0.2081 0.0077 0.6061
Cl1 Cl 0.72240(7) 0.44036(3) -0.03469(9)
N1 N 0.45086(17) 0.17954(8) 0.4979(2)
O1 O 0.52721(16) 0.11751(8) 0.2911(2)
H18 H 0.5423 0.0768 0.3123
O2 O 0.35986(17) 0.01837(7) 0.3772(2)
O3 O 0.23493(17) 0.09457(8) 0.4923(2)
loop_
_geom_bond_atom_site_label_1
_geom_bond_atom_site_label_2
_geom_bond_site_symmetry_1
_geom_bond_site_symmetry_2
C1 C2 1_555 1_555
C2 H1 1_555 1_555
C3 C2 1_555 1_555
H2 C3 1_555 1_555
C4 C3 1_555 1_555
C5 C4 1_555 1_555
H3 C5 1_555 1_555
C6 C1 1_555 1_555
H4 C6 1_555 1_555
C7 C4 1_555 1_555
H5 C7 1_555 1_555
C8 C7 1_555 1_555
H6 C8 1_555 1_555
H7 C8 1_555 1_555
C9 C8 1_555 1_555
C10 C7 1_555 1_555
C11 C10 1_555 1_555
C12 C11 1_555 1_555
C13 C12 1_555 1_555
C14 C13 1_555 1_555
H8 C14 1_555 1_555
C15 C14 1_555 1_555
H9 C15 1_555 1_555
C16 C15 1_555 1_555
H10 C16 1_555 1_555
C17 C12 1_555 1_555
H11 C17 1_555 1_555
C18 C11 1_555 1_555
H12 C18 1_555 1_555
H13 C18 1_555 1_555
H14 C18 1_555 1_555
C19 C9 1_555 1_555
C20 H15 1_555 1_555
H16 C20 1_555 1_555
H17 C20 1_555 1_555
Cl1 C1 1_555 1_555
N1 C9 1_555 1_555
O1 C9 1_555 1_555
H18 O1 1_555 1_555
O2 C19 1_555 1_555
O3 C19 1_555 1_555
C5 C6 1_555 1_555
C10 N1 1_555 1_555
C13 N1 1_555 1_555
C16 C17 1_555 1_555
C20 O3 1_555 1_555

#END
