
#######################################################################
#
#                 Cambridge Crystallographic Data Centre
#                                CCDC 
#
#######################################################################
#
# If this CIF has been generated from an entry in the Cambridge 
# Structural Database, then it will include bibliographic, chemical, 
# crystal, experimental, refinement or atomic coordinate data resulting 
# from the CCDC's data processing and validation procedures.
#
#######################################################################

data_KETRIK
_chemical_formula_moiety         'C22 H24'
_chemical_name_systematic        
d,l-D~3~-Trishomocubylidene-D~3~-trishomocubane
_symmetry_cell_setting           triclinic
_symmetry_space_group_name_H-M   'P -1'
_symmetry_Int_Tables_number      2
_space_group_name_Hall           '-P 1'
loop_
_symmetry_equiv_pos_site_id
_symmetry_equiv_pos_as_xyz
1 x,y,z
2 -x,-y,-z
_cell_length_a                   6.315(1)
_cell_length_b                   10.865(1)
_cell_length_c                   11.369(1)
_cell_angle_alpha                102.40(1)
_cell_angle_beta                 92.64(1)
_cell_angle_gamma                96.68(1)
_cell_volume                     754.654
_chemical_melting_point          186deg.C
_cell_formula_units_Z            2
loop_
_atom_site_label
_atom_site_type_symbol
_atom_site_fract_x
_atom_site_fract_y
_atom_site_fract_z
C1 C 1.1328(2) 0.8922(1) 0.2047(1)
C2 C 1.1435(2) 0.7472(1) 0.1880(1)
C3 C 0.9036(3) 0.6860(1) 0.1616(1)
C4 C 0.8659(3) 0.6104(1) 0.2556(1)
C5 C 0.9795(3) 0.7079(1) 0.3590(1)
C6 C 1.2040(2) 0.7315(1) 0.3183(1)
C7 C 1.2857(2) 0.8642(1) 0.3910(1)
C8 C 1.1108(2) 0.9244(1) 0.3400(1)
C9 C 0.9010(2) 0.8351(2) 0.3439(1)
C10 C 0.8008(2) 0.8042(2) 0.2108(1)
C11 C 0.9144(3) 0.9039(2) 0.1523(2)
C12 C 0.4095(2) 0.2132(1) 0.1753(1)
C13 C 0.4219(2) 0.3604(1) 0.1965(1)
C14 C 0.6398(3) 0.4016(1) 0.1457(1)
C15 C 0.7585(3) 0.4971(2) 0.2499(1)
C16 C 0.7088(3) 0.4236(1) 0.3446(1)
C17 C 0.4653(3) 0.4074(1) 0.3373(1)
C18 C 0.4080(3) 0.2906(2) 0.3877(1)
C19 C 0.5204(3) 0.2056(1) 0.2948(1)
C20 C 0.7391(2) 0.2836(1) 0.2845(1)
C21 C 0.7435(2) 0.2822(2) 0.1468(1)
C22 C 0.5707(3) 0.1765(1) 0.0848(1)
H1 H 1.2566(22) 0.9378(13) 0.1800(12)
H2 H 1.2324(23) 0.7141(14) 0.1260(13)
H3 H 0.8625(22) 0.6444(13) 0.0758(13)
H4 H 0.9703(22) 0.6927(13) 0.4382(12)
H5 H 1.2950(23) 0.6643(13) 0.3239(13)
H6 H 1.2820(23) 0.8692(13) 0.4766(13)
H7 H 1.4234(22) 0.8993(14) 0.3684(12)
H8 H 1.1055(23) 1.0116(14) 0.3707(13)
H9 H 0.8116(23) 0.8659(14) 0.4036(13)
H10 H 0.6467(25) 0.7926(15) 0.2036(14)
H11 H 0.8916(24) 0.8802(14) 0.0622(13)
H12 H 0.8729(28) 0.9954(17) 0.1806(16)
H13 H 0.2692(22) 0.1667(13) 0.1589(13)
H14 H 0.2972(22) 0.3933(13) 0.1612(12)
H15 H 0.6275(23) 0.4255(13) 0.0673(13)
H16 H 0.7790(22) 0.4552(13) 0.4282(12)
H17 H 0.3996(23) 0.4845(14) 0.3736(13)
H18 H 0.4656(23) 0.3035(14) 0.4738(13)
H19 H 0.2502(26) 0.2603(15) 0.3813(14)
H20 H 0.5283(22) 0.1192(13) 0.3030(12)
H21 H 0.8619(22) 0.2529(13) 0.3167(12)
H22 H 0.8831(23) 0.2837(13) 0.1145(13)
H23 H 0.5248(23) 0.1851(14) 0.0016(13)
H24 H 0.6066(24) 0.0911(14) 0.0837(14)
loop_
_geom_bond_atom_site_label_1
_geom_bond_atom_site_label_2
_geom_bond_site_symmetry_1
_geom_bond_site_symmetry_2
C1 C2 1_555 1_555
C2 C3 1_555 1_555
C3 C4 1_555 1_555
C4 C5 1_555 1_555
C5 C6 1_555 1_555
C6 C2 1_555 1_555
C7 C6 1_555 1_555
C8 C1 1_555 1_555
C9 C5 1_555 1_555
C10 C3 1_555 1_555
C11 C1 1_555 1_555
C12 C13 1_555 1_555
C13 C14 1_555 1_555
C14 C15 1_555 1_555
C15 C4 1_555 1_555
C16 C15 1_555 1_555
C17 C13 1_555 1_555
C18 C17 1_555 1_555
C19 C12 1_555 1_555
C20 C16 1_555 1_555
C21 C14 1_555 1_555
C22 C12 1_555 1_555
H1 C1 1_555 1_555
H2 C2 1_555 1_555
H3 C3 1_555 1_555
H4 C5 1_555 1_555
H5 C6 1_555 1_555
H6 C7 1_555 1_555
H7 C7 1_555 1_555
H8 C8 1_555 1_555
H9 C9 1_555 1_555
H10 C10 1_555 1_555
H11 C11 1_555 1_555
H12 C11 1_555 1_555
H13 C12 1_555 1_555
H14 C13 1_555 1_555
H15 C14 1_555 1_555
H16 C16 1_555 1_555
H17 C17 1_555 1_555
H18 C18 1_555 1_555
H19 C18 1_555 1_555
H20 C19 1_555 1_555
H21 C20 1_555 1_555
H22 C21 1_555 1_555
H23 C22 1_555 1_555
H24 C22 1_555 1_555
C7 C8 1_555 1_555
C8 C9 1_555 1_555
C9 C10 1_555 1_555
C10 C11 1_555 1_555
C16 C17 1_555 1_555
C18 C19 1_555 1_555
C19 C20 1_555 1_555
C20 C21 1_555 1_555
C21 C22 1_555 1_555

#END
