
#######################################################################
#
#                 Cambridge Crystallographic Data Centre
#                                CCDC 
#
#######################################################################
#
# If this CIF has been generated from an entry in the Cambridge 
# Structural Database, then it will include bibliographic, chemical, 
# crystal, experimental, refinement or atomic coordinate data resulting 
# from the CCDC's data processing and validation procedures.
#
#######################################################################

data_KETTEJ
_chemical_formula_moiety         'C24 H27 N3 O3'
_chemical_name_systematic        
'(1,8-Diethyl-1,3,4,9-tetrahydropyrano(3,4-b)indol-1-yl)acetic acid (2-hydroxy-benzylidene)hydrazide'
_symmetry_cell_setting           monoclinic
_symmetry_space_group_name_H-M   'P 21/c'
_symmetry_Int_Tables_number      14
_space_group_name_Hall           '-P 2ybc'
loop_
_symmetry_equiv_pos_site_id
_symmetry_equiv_pos_as_xyz
1 x,y,z
2 -x,1/2+y,1/2-z
3 -x,-y,-z
4 x,1/2-y,1/2+z
_cell_length_a                   11.3758(11)
_cell_length_b                   15.9551(15)
_cell_length_c                   12.2538(12)
_cell_angle_alpha                90
_cell_angle_beta                 97.352(2)
_cell_angle_gamma                90
_cell_volume                     2205.8
_exptl_crystal_colour            colorless
_exptl_crystal_description       prismatic
_chemical_melting_point          462-463K
_cell_formula_units_Z            4
loop_
_atom_site_label
_atom_site_type_symbol
_atom_site_fract_x
_atom_site_fract_y
_atom_site_fract_z
O1 O 0.35284(14) 0.05026(9) -0.02672(12)
O2 O 0.43815(12) 0.15106(10) 0.29449(11)
O3 O 0.17509(18) 0.20848(14) -0.21470(15)
N1 N 0.31794(16) 0.15903(13) 0.08070(16)
N2 N 0.25834(15) 0.20069(12) -0.00744(14)
N3 N 0.66016(14) 0.12324(12) 0.10397(14)
C1 C 0.36472(18) 0.08327(14) 0.06405(18)
C2 C 0.43045(19) 0.04161(13) 0.16363(16)
H1 H 0.4760 -0.0043 0.1386
H2 H 0.3725 0.0174 0.2060
C3 C 0.51495(19) 0.09639(14) 0.24144(16)
C4 C 0.4973(2) 0.21998(16) 0.35297(19)
H3 H 0.5636 0.1991 0.4032
H4 H 0.4429 0.2477 0.3961
C5 C 0.5415(2) 0.28211(14) 0.27529(18)
H5 H 0.4753 0.3124 0.2358
H6 H 0.5940 0.3223 0.3161
C6 C 0.60628(17) 0.23512(13) 0.19632(16)
C7 C 0.59158(17) 0.15137(13) 0.18159(16)
C8 C 0.72027(16) 0.19085(12) 0.06803(16)
C9 C 0.68824(17) 0.26202(13) 0.12513(16)
C10 C 0.7383(2) 0.33903(13) 0.10311(19)
H7 H 0.7198 0.3871 0.1402
C11 C 0.8149(2) 0.34256(16) 0.0262(2)
H8 H 0.8481 0.3938 0.0108
C12 C 0.8442(2) 0.27129(16) -0.0297(2)
H9 H 0.8966 0.2765 -0.0817
C13 C 0.79904(18) 0.19319(14) -0.01119(17)
C14 C 0.8314(2) 0.11472(16) -0.0676(2)
H10 H 0.8286 0.0686 -0.0164
H11 H 0.7704 0.1045 -0.1290
C15 C 0.9438(4) 0.1117(3) -0.1085(4)
H12 H 0.9457 0.1531 -0.1651
H13 H 0.9552 0.0570 -0.1382
H14 H 1.0058 0.1229 -0.0495
C16 C 0.5886(3) 0.03965(17) 0.3266(2)
H15 H 0.6241 0.0762 0.3850
H16 H 0.5326 0.0043 0.3585
C17 C 0.6785(5) -0.0129(3) 0.3000(4)
H17 H 0.6991 -0.0521 0.3587
H18 H 0.7468 0.0201 0.2895
H19 H 0.6516 -0.0427 0.2335
C18 C 0.21981(18) 0.27383(15) 0.00733(17)
H20 H 0.2336 0.2987 0.0764
C19 C 0.15393(18) 0.31883(14) -0.08431(18)
C20 C 0.1085(2) 0.39771(16) -0.0671(2)
H21 H 0.1257 0.4226 0.0017
C21 C 0.0393(3) 0.43983(19) -0.1486(3)
H22 H 0.0116 0.4934 -0.1365
C22 C 0.0113(3) 0.4006(2) -0.2502(3)
H23 H -0.0394 0.4270 -0.3052
C23 C 0.0569(3) 0.3243(2) -0.2698(2)
H24 H 0.0385 0.2995 -0.3386
C24 C 0.1303(2) 0.28340(17) -0.18905(19)
H25 H 0.327(2) 0.1865(13) 0.145(2)
H26 H 0.6639(17) 0.0721(14) 0.0802(16)
H27 H 0.206(3) 0.1841(17) -0.154(3)
H28? H 0.6320 0.0011 0.2854
H29? H 0.6471 0.0754 0.3682
C25? C 0.5388(6) -0.0069(4) 0.4022(5)
H30? H 0.4934 -0.0517 0.3655
H31? H 0.4879 0.0281 0.4393
H32? H 0.6002 -0.0297 0.4549
loop_
_geom_bond_atom_site_label_1
_geom_bond_atom_site_label_2
_geom_bond_site_symmetry_1
_geom_bond_site_symmetry_2
O1 C1 1_555 1_555
O2 C3 1_555 1_555
O3 C24 1_555 1_555
N1 N2 1_555 1_555
N2 C18 1_555 1_555
N3 C7 1_555 1_555
C1 N1 1_555 1_555
C2 C1 1_555 1_555
H1 C2 1_555 1_555
H2 C2 1_555 1_555
C3 C2 1_555 1_555
C4 O2 1_555 1_555
H3 C4 1_555 1_555
H4 C4 1_555 1_555
C5 C4 1_555 1_555
H5 C5 1_555 1_555
H6 C5 1_555 1_555
C6 C5 1_555 1_555
C7 C3 1_555 1_555
C8 N3 1_555 1_555
C9 C6 1_555 1_555
C10 C9 1_555 1_555
H7 C10 1_555 1_555
C11 C10 1_555 1_555
H8 C11 1_555 1_555
C12 C11 1_555 1_555
H9 C12 1_555 1_555
C13 C8 1_555 1_555
C14 C13 1_555 1_555
H10 C14 1_555 1_555
H11 C14 1_555 1_555
C15 C14 1_555 1_555
H12 C15 1_555 1_555
H13 C15 1_555 1_555
H14 C15 1_555 1_555
C16 C3 1_555 1_555
H15 C16 1_555 1_555
H16 C16 1_555 1_555
C17 C16 1_555 1_555
H17 C17 1_555 1_555
H18 C17 1_555 1_555
H19 C17 1_555 1_555
C18 H20 1_555 1_555
C19 C18 1_555 1_555
C20 C19 1_555 1_555
H21 C20 1_555 1_555
C21 C20 1_555 1_555
H22 C21 1_555 1_555
C22 C21 1_555 1_555
H23 C22 1_555 1_555
C23 C22 1_555 1_555
H24 C23 1_555 1_555
C24 C19 1_555 1_555
H25 N1 1_555 1_555
H26 N3 1_555 1_555
H27 O3 1_555 1_555
C6 C7 1_555 1_555
C8 C9 1_555 1_555
C12 C13 1_555 1_555
C23 C24 1_555 1_555

#END
