
#######################################################################
#
#                 Cambridge Crystallographic Data Centre
#                                CCDC 
#
#######################################################################
#
# If this CIF has been generated from an entry in the Cambridge 
# Structural Database, then it will include bibliographic, chemical, 
# crystal, experimental, refinement or atomic coordinate data resulting 
# from the CCDC's data processing and validation procedures.
#
#######################################################################

data_KETXAK
_chemical_formula_moiety         'C20 H12 F1 N1 O1 S1'
_chemical_name_systematic        
(2-(1,3-Benzothiazol-2-yl)-4-fluorophenyl)(phenyl)methanone
_symmetry_cell_setting           triclinic
_symmetry_space_group_name_H-M   'P -1'
_symmetry_Int_Tables_number      2
_space_group_name_Hall           '-P 1'
loop_
_symmetry_equiv_pos_site_id
_symmetry_equiv_pos_as_xyz
1 x,y,z
2 -x,-y,-z
_cell_length_a                   7.5170(7)
_cell_length_b                   8.8619(8)
_cell_length_c                   12.8151(11)
_cell_angle_alpha                86.442(7)
_cell_angle_beta                 74.225(7)
_cell_angle_gamma                81.160(7)
_cell_volume                     811.581
_exptl_crystal_colour            colorless
_exptl_crystal_description       block
_cell_formula_units_Z            2
loop_
_atom_site_label
_atom_site_type_symbol
_atom_site_fract_x
_atom_site_fract_y
_atom_site_fract_z
S1 S 0.16295(7) 1.02739(5) 0.19479(4)
F1 F 0.2899(2) 1.0156(2) 0.58388(12)
O1 O 0.3453(2) 0.41956(17) 0.32973(15)
N1 N 0.34897(18) 0.75643(14) 0.16016(10)
C1 C -0.0803(2) 0.6531(2) 0.31612(17)
H1 H -0.0881 0.7223 0.3694
C2 C -0.2185(3) 0.5550(3) 0.1919(2)
H2 H -0.3188 0.5571 0.1621
C3 C -0.0595(3) 0.4514(3) 0.1564(2)
H3 H -0.0514 0.3844 0.1017
C4 C 0.2389(2) 0.5379(2) 0.33145(15)
C5 C 0.3359(2) 0.81785(17) 0.05950(12)
C6 C 0.4089(3) 0.7442(2) -0.03888(14)
H4 H 0.4714 0.6449 -0.0414
C7 C 0.3872(3) 0.8205(2) -0.13247(15)
H5 H 0.4352 0.7720 -0.1986
C8 C -0.2281(3) 0.6547(2) 0.2710(2)
H6 H -0.3355 0.7246 0.2948
C9 C 0.0874(3) 0.4470(2) 0.2018(2)
H7 H 0.1932 0.3753 0.1785
C10 C 0.0797(2) 0.54784(18) 0.28161(15)
C11 C 0.2949(3) 0.9683(3) -0.12930(15)
H8 H 0.2829 1.0178 -0.1937
C12 C 0.2208(3) 1.0436(2) -0.03358(16)
H9 H 0.1586 1.1430 -0.0322
C13 C 0.2414(2) 0.96664(18) 0.06207(13)
C14 C 0.2662(2) 0.85262(17) 0.23602(12)
C15 C 0.2586(2) 0.6703(2) 0.39297(14)
C16 C 0.2757(3) 0.6406(3) 0.49843(17)
H10 H 0.2806 0.5407 0.5255
C17 C 0.2853(4) 0.7558(3) 0.56330(17)
H11 H 0.2956 0.7352 0.6336
C18 C 0.2794(3) 0.9002(3) 0.52124(17)
C19 C 0.2687(3) 0.9368(2) 0.41696(15)
H12 H 0.2676 1.0372 0.3909
C20 C 0.2594(2) 0.82005(19) 0.35125(13)
loop_
_geom_bond_atom_site_label_1
_geom_bond_atom_site_label_2
_geom_bond_site_symmetry_1
_geom_bond_site_symmetry_2
S1 C13 1_555 1_555
F1 C18 1_555 1_555
O1 C4 1_555 1_555
N1 C5 1_555 1_555
C1 H1 1_555 1_555
C2 H2 1_555 1_555
C3 C2 1_555 1_555
H3 C3 1_555 1_555
C4 C10 1_555 1_555
C5 C6 1_555 1_555
C6 H4 1_555 1_555
C7 C6 1_555 1_555
H5 C7 1_555 1_555
C8 C1 1_555 1_555
H6 C8 1_555 1_555
C9 C3 1_555 1_555
H7 C9 1_555 1_555
C10 C1 1_555 1_555
C11 C7 1_555 1_555
H8 C11 1_555 1_555
C12 C11 1_555 1_555
H9 C12 1_555 1_555
C13 C5 1_555 1_555
C14 S1 1_555 1_555
C15 C4 1_555 1_555
C16 C15 1_555 1_555
H10 C16 1_555 1_555
C17 C16 1_555 1_555
H11 C17 1_555 1_555
C18 C17 1_555 1_555
C19 C18 1_555 1_555
H12 C19 1_555 1_555
C20 C14 1_555 1_555
N1 C14 1_555 1_555
C2 C8 1_555 1_555
C9 C10 1_555 1_555
C12 C13 1_555 1_555
C15 C20 1_555 1_555
C19 C20 1_555 1_555

#END
