
#######################################################################
#
#                 Cambridge Crystallographic Data Centre
#                                CCDC 
#
#######################################################################
#
# If this CIF has been generated from an entry in the Cambridge 
# Structural Database, then it will include bibliographic, chemical, 
# crystal, experimental, refinement or atomic coordinate data resulting 
# from the CCDC's data processing and validation procedures.
#
#######################################################################

data_KETXOW
_chemical_formula_moiety         'C16 H24 O4 S2'
_chemical_name_systematic        
(4aS,8aS,12aR,16aR)-Perhydrodipyrano(3,2-b;3',2'-h)(1,7)dioxacyclododecane-6,14-dithione
_symmetry_cell_setting           monoclinic
_symmetry_space_group_name_H-M   'P 21/n'
_symmetry_Int_Tables_number      14
_space_group_name_Hall           '-P 2yn'
loop_
_symmetry_equiv_pos_site_id
_symmetry_equiv_pos_as_xyz
1 x,y,z
2 1/2-x,1/2+y,1/2-z
3 -x,-y,-z
4 1/2+x,1/2-y,1/2+z
_cell_length_a                   9.855(1)
_cell_length_b                   7.835(1)
_cell_length_c                   12.063(1)
_cell_angle_alpha                90
_cell_angle_beta                 112.86(1)
_cell_angle_gamma                90
_cell_volume                     858.274
_exptl_crystal_colour            'light yellow'
_chemical_melting_point          191-192deg.C
_cell_formula_units_Z            2
loop_
_atom_site_label
_atom_site_type_symbol
_atom_site_fract_x
_atom_site_fract_y
_atom_site_fract_z
S1 S 0.8036(2) 0.2029(2) 0.5345(1)
C1 C 0.3008(4) 0.1586(6) 0.5664(3)
C2 C 0.1997(5) 0.3118(7) 0.5376(4)
C3 C 0.2200(5) 0.4064(7) 0.6537(4)
C4 C 0.3814(5) 0.4472(7) 0.7210(4)
C5 C 0.4606(4) 0.2012(6) 0.6447(3)
C6 C 0.5552(5) 0.0433(6) 0.6909(4)
C7 C 0.7172(4) 0.0685(6) 0.7094(4)
C8 C 0.7378(4) 0.0541(5) 0.5927(4)
O1 O 0.4672(3) 0.2939(4) 0.7488(2)
O2 O 0.6949(3) -0.0996(4) 0.5472(2)
H1 H 0.2635 0.0758 0.6082
H2 H 0.4984 0.2663 0.5965
H3 H 0.0988 0.2757 0.4987
H4 H 0.2223 0.3854 0.4848
H5 H 0.1863 0.3384 0.7037
H6 H 0.1633 0.5108 0.6356
H7 H 0.3950 0.5080 0.7932
H8 H 0.4130 0.5199 0.6712
H9 H 0.5135 -0.0494 0.6351
H10 H 0.5496 0.0085 0.7664
H11 H 0.7772 -0.0177 0.7639
H12 H 0.7493 0.1768 0.7439
O2B O 0.3051(3) 0.0996(4) 0.4528(2)
C1B C 0.6992(4) -0.1586(6) 0.4336(3)
C8B C 0.2622(4) -0.0541(5) 0.4073(4)
C2B C 0.8003(5) -0.3118(7) 0.4624(4)
C5B C 0.5394(4) -0.2012(6) 0.3553(3)
H1B H 0.7365 -0.0758 0.3918
S1B S 0.1964(2) -0.2029(2) 0.4655(1)
C7B C 0.2828(4) -0.0685(6) 0.2906(4)
C3B C 0.7800(5) -0.4064(7) 0.3463(4)
H3B H 0.9012 -0.2757 0.5013
H4B H 0.7777 -0.3854 0.5152
C6B C 0.4448(5) -0.0433(6) 0.3091(4)
O1B O 0.5328(3) -0.2939(4) 0.2512(2)
H2B H 0.5016 -0.2663 0.4035
H11B H 0.2228 0.0177 0.2361
H12B H 0.2507 -0.1768 0.2561
C4B C 0.6186(5) -0.4472(7) 0.2790(4)
H5B H 0.8137 -0.3384 0.2963
H6B H 0.8367 -0.5108 0.3644
H9B H 0.4865 0.0494 0.3649
H10B H 0.4504 -0.0085 0.2336
H7B H 0.6050 -0.5080 0.2068
H8B H 0.5870 -0.5199 0.3288
loop_
_geom_bond_atom_site_label_1
_geom_bond_atom_site_label_2
_geom_bond_site_symmetry_1
_geom_bond_site_symmetry_2
S1 C8 1_555 1_555
C1 C2 1_555 1_555
C2 C3 1_555 1_555
C3 C4 1_555 1_555
C4 O1 1_555 1_555
C5 C1 1_555 1_555
C6 C5 1_555 1_555
C7 C6 1_555 1_555
C8 C7 1_555 1_555
O1 C5 1_555 1_555
O2 C8 1_555 1_555
H1 C1 1_555 1_555
H2 C5 1_555 1_555
H3 C2 1_555 1_555
H4 C2 1_555 1_555
H5 C3 1_555 1_555
H6 C3 1_555 1_555
H7 C4 1_555 1_555
H8 C4 1_555 1_555
H9 C6 1_555 1_555
H10 C6 1_555 1_555
H11 C7 1_555 1_555
H12 C7 1_555 1_555
O2B C1 1_555 1_555
C1B O2 1_555 1_555
C8B O2B 1_555 1_555
C2B C1B 1_555 1_555
C5B C1B 1_555 1_555
H1B C1B 1_555 1_555
S1B C8B 1_555 1_555
C7B C8B 1_555 1_555
C3B C2B 1_555 1_555
H3B C2B 1_555 1_555
H4B C2B 1_555 1_555
C6B C5B 1_555 1_555
O1B C5B 1_555 1_555
H2B C5B 1_555 1_555
H11B C7B 1_555 1_555
H12B C7B 1_555 1_555
C4B C3B 1_555 1_555
H5B C3B 1_555 1_555
H6B C3B 1_555 1_555
H9B C6B 1_555 1_555
H10B C6B 1_555 1_555
H7B C4B 1_555 1_555
H8B C4B 1_555 1_555
C7B C6B 1_555 1_555
O1B C4B 1_555 1_555

#END
