
#######################################################################
#
#                 Cambridge Crystallographic Data Centre
#                                CCDC 
#
#######################################################################
#
# If this CIF has been generated from an entry in the Cambridge 
# Structural Database, then it will include bibliographic, chemical, 
# crystal, experimental, refinement or atomic coordinate data resulting 
# from the CCDC's data processing and validation procedures.
#
#######################################################################

data_KETXEO
_chemical_formula_moiety         'C20 H13 N1 O1 S1'
_chemical_name_systematic        
(2-(1,3-Benzothiazol-2-yl)phenyl)(phenyl)methanone
_symmetry_cell_setting           triclinic
_symmetry_space_group_name_H-M   'P -1'
_symmetry_Int_Tables_number      2
_space_group_name_Hall           '-P 1'
loop_
_symmetry_equiv_pos_site_id
_symmetry_equiv_pos_as_xyz
1 x,y,z
2 -x,-y,-z
_cell_length_a                   7.300(2)
_cell_length_b                   10.932(3)
_cell_length_c                   11.142(2)
_cell_angle_alpha                118.643(14)
_cell_angle_beta                 96.025(17)
_cell_angle_gamma                94.158(18)
_cell_volume                     768.325
_exptl_crystal_colour            colorless
_exptl_crystal_description       block
_cell_formula_units_Z            2
loop_
_atom_site_label
_atom_site_type_symbol
_atom_site_fract_x
_atom_site_fract_y
_atom_site_fract_z
S1 S 0.76157(14) -0.04052(12) -0.08888(9)
O1 O 1.0504(4) 0.1826(4) 0.3965(3)
N1 N 0.7648(5) -0.0458(4) 0.1421(3)
C1 C 0.8703(7) 0.1534(5) 0.5946(4)
H1 H 0.9956 0.1426 0.5958
C2 C 0.7750(8) 0.1402(6) 0.6895(5)
H2 H 0.8367 0.1225 0.7556
C3 C 0.5886(8) 0.1534(6) 0.6861(5)
H3 H 0.5247 0.1441 0.7500
C4 C 0.4958(7) 0.1803(5) 0.5882(5)
H4 H 0.3696 0.1882 0.5861
C5 C 0.5900(6) 0.1956(5) 0.4931(4)
H5 H 0.5275 0.2140 0.4277
C6 C 0.7789(6) 0.1831(4) 0.4965(4)
C7 C 0.8887(5) 0.2013(4) 0.3998(4)
C8 C 0.8000(6) 0.2642(4) 0.3157(4)
C9 C 0.7822(7) 0.4071(6) 0.3888(5)
H6 H 0.8103 0.4550 0.4850
C10 C 0.7238(8) 0.4783(6) 0.3212(6)
H7 H 0.7156 0.5739 0.3717
C11 C 0.6776(7) 0.4081(6) 0.1790(6)
H8 H 0.6391 0.4561 0.1331
C12 C 0.6891(6) 0.2646(6) 0.1045(4)
H9 H 0.6559 0.2173 0.0086
C13 C 0.7493(5) 0.1900(4) 0.1701(4)
C14 C 0.7567(5) 0.0381(4) 0.0899(3)
C15 C 0.7776(5) -0.1818(5) 0.0402(4)
C16 C 0.7771(5) -0.1995(5) -0.0939(4)
C17 C 0.7885(7) -0.3303(5) -0.2060(4)
H10 H 0.7878 -0.3413 -0.2942
C18 C 0.8008(8) -0.4438(6) -0.1834(5)
H11 H 0.8086 -0.5319 -0.2572
C19 C 0.8017(7) -0.4272(6) -0.0510(5)
H12 H 0.8109 -0.5045 -0.0379
C20 C 0.7892(7) -0.2980(5) 0.0609(5)
H13 H 0.7884 -0.2884 0.1485
loop_
_geom_bond_atom_site_label_1
_geom_bond_atom_site_label_2
_geom_bond_site_symmetry_1
_geom_bond_site_symmetry_2
S1 C14 1_555 1_555
O1 C7 1_555 1_555
N1 C14 1_555 1_555
C1 H1 1_555 1_555
C2 C1 1_555 1_555
H2 C2 1_555 1_555
C3 C2 1_555 1_555
H3 C3 1_555 1_555
C4 C3 1_555 1_555
H4 C4 1_555 1_555
C5 C4 1_555 1_555
H5 C5 1_555 1_555
C6 C1 1_555 1_555
C7 C6 1_555 1_555
C8 C7 1_555 1_555
C9 C8 1_555 1_555
H6 C9 1_555 1_555
C10 C9 1_555 1_555
H7 C10 1_555 1_555
C11 C10 1_555 1_555
H8 C11 1_555 1_555
C12 C11 1_555 1_555
H9 C12 1_555 1_555
C13 C8 1_555 1_555
C14 C13 1_555 1_555
C15 N1 1_555 1_555
C16 S1 1_555 1_555
C17 C16 1_555 1_555
H10 C17 1_555 1_555
C18 C17 1_555 1_555
H11 C18 1_555 1_555
C19 C18 1_555 1_555
H12 C19 1_555 1_555
C20 C15 1_555 1_555
H13 C20 1_555 1_555
C5 C6 1_555 1_555
C12 C13 1_555 1_555
C15 C16 1_555 1_555
C19 C20 1_555 1_555

#END
