
#######################################################################
#
#                 Cambridge Crystallographic Data Centre
#                                CCDC 
#
#######################################################################
#
# If this CIF has been generated from an entry in the Cambridge 
# Structural Database, then it will include bibliographic, chemical, 
# crystal, experimental, refinement or atomic coordinate data resulting 
# from the CCDC's data processing and validation procedures.
#
#######################################################################

data_KETXUE
_chemical_formula_moiety         'C26 H17 Br1'
_chemical_name_systematic        9-(2-Bromophenyl)-10-phenylanthracene
_symmetry_cell_setting           monoclinic
_symmetry_space_group_name_H-M   'P c'
_symmetry_Int_Tables_number      7
_space_group_name_Hall           'P -2yc'
loop_
_symmetry_equiv_pos_site_id
_symmetry_equiv_pos_as_xyz
1 x,y,z
2 x,-y,1/2+z
_cell_length_a                   11.472(2)
_cell_length_b                   7.7813(13)
_cell_length_c                   12.188(2)
_cell_angle_alpha                90
_cell_angle_beta                 116.190(3)
_cell_angle_gamma                90
_cell_volume                     976.289
_cell_formula_units_Z            4
loop_
_atom_site_label
_atom_site_type_symbol
_atom_site_fract_x
_atom_site_fract_y
_atom_site_fract_z
C1 C 0.7387(11) 0.1353(18) 0.1507(10)
H1 H 0.6706 0.1312 0.0723
C2 C 0.8446(10) 0.0041(12) 0.1825(10)
H2 H 0.8443 -0.0766 0.1260
C3 C 0.9371(12) 0.0099(12) 0.2937(13)
H3 H 1.0052 -0.0675 0.3135
C4 C 0.9441(8) 0.1304(10) 0.3933(8)
C5 C 0.8320(10) 0.2461(11) 0.3517(8)
C6 C 0.7343(10) 0.2524(13) 0.2227(12)
H4 H 0.6717 0.3384 0.1945
C7 C 0.8372(8) 0.3742(10) 0.4401(9)
C8 C 0.9445(10) 0.3722(12) 0.5696(10)
C9 C 1.0407(10) 0.2411(10) 0.5901(10)
C10 C 1.0414(10) 0.1339(11) 0.5051(9)
C11 C 1.1425(12) 0.2527(13) 0.7059(10)
H5 H 1.2130 0.1790 0.7270
C12 C 1.1434(11) 0.3740(11) 0.7944(9)
H6 H 1.2130 0.3810 0.8717
C13 C 1.0488(12) 0.4681(16) 0.7643(12)
H7 H 1.0476 0.5384 0.8255
C14 C 0.9443(11) 0.4832(14) 0.6517(10)
H8 H 0.8791 0.5645 0.6345
C15 C 1.1475(11) 0.0080(13) 0.5408(9)
C16 C 1.1516(13) -0.1353(13) 0.6043(12)
H9 H 1.0892 -0.1510 0.6326
C17 C 1.2501(14) -0.2654(13) 0.6298(10)
H10 H 1.2315 -0.3742 0.6494
C18 C 1.344(2) -0.250(2) 0.629(2)
H11 H 1.4101 -0.3299 0.6652
C19 C 1.3621(12) -0.107(3) 0.5710(17)
H12 H 1.4344 -0.0960 0.5557
C20 C 1.2626(11) 0.028(2) 0.5347(13)
C21 C 0.7321(9) 0.5064(11) 0.4064(10)
C22 C 0.6198(12) 0.4664(13) 0.4205(12)
C23 C 0.5182(13) 0.5927(16) 0.3760(14)
H13 H 0.4425 0.5738 0.3844
C24 C 0.5312(14) 0.7438(17) 0.3201(11)
H14 H 0.4618 0.8200 0.2874
C25 C 0.6651(16) 0.7892(14) 0.3113(13)
H15 H 0.6782 0.8911 0.2784
C26 C 0.7484(11) 0.6733(12) 0.3529(11)
H16 H 0.8274 0.6920 0.3507
Br1 Br 0.5878(3) 0.2743(4) 0.4717(4)
Br2? Br 1.2950(4) 0.2224(5) 0.4753(4)
loop_
_geom_bond_atom_site_label_1
_geom_bond_atom_site_label_2
_geom_bond_site_symmetry_1
_geom_bond_site_symmetry_2
C1 H1 1_555 1_555
C2 C1 1_555 1_555
H2 C2 1_555 1_555
C3 C2 1_555 1_555
H3 C3 1_555 1_555
C4 C3 1_555 1_555
C5 C4 1_555 1_555
C6 C1 1_555 1_555
H4 C6 1_555 1_555
C7 C5 1_555 1_555
C8 C7 1_555 1_555
C9 C8 1_555 1_555
C10 C4 1_555 1_555
C11 C9 1_555 1_555
H5 C11 1_555 1_555
C12 C11 1_555 1_555
H6 C12 1_555 1_555
C13 C12 1_555 1_555
H7 C13 1_555 1_555
C14 C8 1_555 1_555
H8 C14 1_555 1_555
C15 C10 1_555 1_555
C16 C15 1_555 1_555
H9 C16 1_555 1_555
C17 C16 1_555 1_555
H10 C17 1_555 1_555
C18 C17 1_555 1_555
H11 C18 1_555 1_555
C19 C18 1_555 1_555
H12 C19 1_555 1_555
C20 C15 1_555 1_555
C21 C7 1_555 1_555
C22 C21 1_555 1_555
C23 C22 1_555 1_555
H13 C23 1_555 1_555
C24 C23 1_555 1_555
H14 C24 1_555 1_555
C25 C24 1_555 1_555
H15 C25 1_555 1_555
C26 C21 1_555 1_555
H16 C26 1_555 1_555
Br1 C22 1_555 1_555
C5 C6 1_555 1_555
C9 C10 1_555 1_555
C13 C14 1_555 1_555
C19 C20 1_555 1_555
C25 C26 1_555 1_555

#END
