
#######################################################################
#
#                 Cambridge Crystallographic Data Centre
#                                CCDC 
#
#######################################################################
#
# If this CIF has been generated from an entry in the Cambridge 
# Structural Database, then it will include bibliographic, chemical, 
# crystal, experimental, refinement or atomic coordinate data resulting 
# from the CCDC's data processing and validation procedures.
#
#######################################################################

data_KETYAL
_chemical_formula_moiety         'C26 H17 Cl1'
_chemical_name_systematic        9-(2-Chlorophenyl)-10-phenylanthracene
_symmetry_cell_setting           monoclinic
_symmetry_space_group_name_H-M   'P c'
_symmetry_Int_Tables_number      7
_space_group_name_Hall           'P -2yc'
loop_
_symmetry_equiv_pos_site_id
_symmetry_equiv_pos_as_xyz
1 x,y,z
2 x,-y,1/2+z
_cell_length_a                   11.5377(16)
_cell_length_b                   7.8535(11)
_cell_length_c                   11.8257(16)
_cell_angle_alpha                90
_cell_angle_beta                 115.637(2)
_cell_angle_gamma                90
_cell_volume                     966.053
_cell_formula_units_Z            2
loop_
_atom_site_label
_atom_site_type_symbol
_atom_site_fract_x
_atom_site_fract_y
_atom_site_fract_z
C1 C 0.5663(5) 0.2395(6) 0.6475(5)
H1 H 0.4972 0.3138 0.6256
Cl1 Cl 0.4285(2) 0.2801(3) 0.8884(3)
C2 C 0.8788(6) 0.4981(8) 1.1864(5)
H2 H 0.8803 0.5775 1.2454
C3 C 0.3635(7) 0.7334(10) 0.7395(7)
H3 H 0.2957 0.8106 0.7115
C4 C 0.7757(4) 0.3767(5) 0.9769(4)
C5 C 0.7786(5) 0.4957(6) 1.0710(5)
H4 H 0.7108 0.5715 1.0523
C6 C 0.6685(4) 0.2482(5) 0.7702(4)
C7 C 0.6720(4) 0.3706(6) 0.8582(4)
C8 C 0.9873(5) 0.0120(7) 0.9600(5)
C9 C 0.8774(4) 0.1362(5) 0.9227(4)
C10 C 0.3527(6) 0.5827(10) 0.7904(7)
H5 H 0.2773 0.5585 0.7978
C11 C 0.8786(5) 0.2581(6) 1.0095(5)
C12 C 0.4499(5) 0.4662(8) 0.8310(5)
C13 C 0.7734(4) 0.1289(6) 0.8023(4)
C14 C 0.5650(5) 0.4971(6) 0.8220(4)
C15 C 0.9812(5) 0.3807(7) 1.2179(5)
H6 H 1.0486 0.3836 1.2980
C16 C 0.5670(5) 0.1247(8) 0.5608(5)
H7 H 0.4996 0.1232 0.4807
C17 C 0.5725(6) 0.6537(8) 0.7671(6)
H8 H 0.6461 0.6766 0.7563
C18 C 0.7681(5) 0.0093(7) 0.7095(5)
H9 H 0.8339 -0.0700 0.7296
C19 C 0.9852(8) -0.1365(9) 1.0184(7)
H10 H 0.9158 -0.1652 1.0349
C20 C 0.4779(8) 0.7727(9) 0.7293(7)
H11 H 0.4882 0.8770 0.6976
C21 C 1.0904(6) 0.0430(10) 0.9360(8)
H12 H 1.0951 0.1396 0.8927
C22 C 1.0944(13) -0.2468(12) 1.0536(8)
H13 H 1.0918 -0.3454 1.0961
C23 C 1.1964(7) -0.0869(16) 0.9832(10)
H14 H 1.2712 -0.0646 0.9744
C24 C 0.9834(5) 0.2656(6) 1.1354(5)
H15 H 1.0519 0.1902 1.1585
C25 C 0.6701(6) 0.0080(8) 0.5928(6)
H16 H 0.6704 -0.0697 0.5336
C26 C 1.1885(11) -0.2294(14) 1.0358(10)
H17 H 1.2520 -0.3126 1.0583
loop_
_geom_bond_atom_site_label_1
_geom_bond_atom_site_label_2
_geom_bond_site_symmetry_1
_geom_bond_site_symmetry_2
C1 H1 1_555 1_555
Cl1 C12 1_555 1_555
C2 H2 1_555 1_555
C3 H3 1_555 1_555
C4 C5 1_555 1_555
C5 C2 1_555 1_555
H4 C5 1_555 1_555
C6 C1 1_555 1_555
C7 C4 1_555 1_555
C8 C9 1_555 1_555
C9 C11 1_555 1_555
C10 C3 1_555 1_555
H5 C10 1_555 1_555
C11 C4 1_555 1_555
C12 C10 1_555 1_555
C13 C6 1_555 1_555
C14 C7 1_555 1_555
C15 C2 1_555 1_555
H6 C15 1_555 1_555
C16 C1 1_555 1_555
H7 C16 1_555 1_555
C17 C14 1_555 1_555
H8 C17 1_555 1_555
C18 C13 1_555 1_555
H9 C18 1_555 1_555
C19 C8 1_555 1_555
H10 C19 1_555 1_555
C20 C3 1_555 1_555
H11 C20 1_555 1_555
C21 C8 1_555 1_555
H12 C21 1_555 1_555
C22 C19 1_555 1_555
H13 C22 1_555 1_555
C23 C21 1_555 1_555
H14 C23 1_555 1_555
C24 C11 1_555 1_555
H15 C24 1_555 1_555
C25 C16 1_555 1_555
H16 C25 1_555 1_555
C26 C22 1_555 1_555
H17 C26 1_555 1_555
C6 C7 1_555 1_555
C9 C13 1_555 1_555
C12 C14 1_555 1_555
C15 C24 1_555 1_555
C17 C20 1_555 1_555
C18 C25 1_555 1_555
C23 C26 1_555 1_555

#END
