
#######################################################################
#
#                 Cambridge Crystallographic Data Centre
#                                CCDC 
#
#######################################################################
#
# If this CIF has been generated from an entry in the Cambridge 
# Structural Database, then it will include bibliographic, chemical, 
# crystal, experimental, refinement or atomic coordinate data resulting 
# from the CCDC's data processing and validation procedures.
#
#######################################################################

data_KEVBAO
_chemical_formula_moiety         'C17 H28 O4 S2'
_chemical_name_systematic        
5a,9a-bis(Methylthio)perhydropyrano(3,2-b)pyrano(2',3':5,6)pyrano(2,3-f)oxepane
_symmetry_cell_setting           orthorhombic
_symmetry_space_group_name_H-M   'P 21 21 21'
_symmetry_Int_Tables_number      19
_space_group_name_Hall           'P 2ac 2ab'
loop_
_symmetry_equiv_pos_site_id
_symmetry_equiv_pos_as_xyz
1 x,y,z
2 1/2+x,1/2-y,-z
3 -x,1/2+y,1/2-z
4 1/2-x,-y,1/2+z
_cell_length_a                   9.377(1)
_cell_length_b                   12.016(1)
_cell_length_c                   15.836(2)
_cell_angle_alpha                90
_cell_angle_beta                 90
_cell_angle_gamma                90
_cell_volume                     1784.31
_cell_formula_units_Z            4
loop_
_atom_site_label
_atom_site_type_symbol
_atom_site_fract_x
_atom_site_fract_y
_atom_site_fract_z
S1 S 0.4743(1) 0.0255(1) 0.75323(6)
S2 S 0.6745(1) -0.00267(8) 1.00590(5)
C1 C 1.0335(5) 0.0226(4) 0.7246(3)
C2 C 1.0654(4) 0.1202(4) 0.7800(3)
C3 C 0.9282(4) 0.1781(3) 0.8096(3)
C4 C 0.8329(4) 0.0890(3) 0.8474(2)
C5 C 0.8075(4) -0.0039(4) 0.7844(2)
C6 C 0.7037(4) -0.0893(3) 0.8195(2)
C7 C 0.5659(4) -0.0335(3) 0.8477(2)
C8 C 0.6003(4) 0.0650(3) 0.9094(2)
C9 C 0.4741(4) 0.1365(3) 0.9318(2)
C10 C 0.3635(5) 0.0931(3) 0.9935(3)
C11 C 0.3157(4) -0.0286(3) 0.9905(2)
C12 C 0.3341(4) -0.0939(3) 0.9076(2)
C13 C 0.2646(4) -0.2066(3) 0.9145(3)
C14 C 0.1086(5) -0.1957(3) 0.9421(3)
C15 C 0.0998(5) -0.1274(4) 1.0204(3)
C16 C 0.4246(5) -0.1021(5) 0.7005(2)
C17 C 0.7415(7) 0.1179(4) 1.0589(3)
O1 O 0.9389(3) -0.0564(3) 0.7640(2)
O2 O 0.7009(3) 0.1384(2) 0.8722(2)
O3 O 0.4824(3) -0.1149(2) 0.8877(2)
O4 O 0.1653(3) -0.0237(3) 1.0093(2)
H1 H 0.8793 0.0563 0.8956
H2 H 0.7690 0.0303 0.7345
H3 H 0.3760 -0.0689 1.0267
H4 H 0.2919 -0.0481 0.8649
H5 H 1.1200 -0.0121 0.7082
H6 H 0.9892 0.0522 0.6735
H7 H 1.1268 0.1697 0.7528
H8 H 1.1132 0.0905 0.8297
H9 H 0.8820 0.2122 0.7613
H10 H 0.9491 0.2355 0.8491
H11 H 0.7450 -0.1260 0.8660
H12 H 0.6814 -0.1422 0.7764
H13 H 0.4249 0.1536 0.8805
H14 H 0.5104 0.2047 0.9549
H15 H 0.2780 0.1374 0.9866
H16 H 0.3984 0.1057 1.0493
H17 H 0.3144 -0.2504 0.9544
H18 H 0.2686 -0.2427 0.8604
H19 H 0.0687 -0.2684 0.9513
H20 H 0.0541 -0.1607 0.8980
H21 H 0.1474 -0.1680 1.0643
H22 H 0.0026 -0.1187 1.0353
H23 H 0.3873 -0.0847 0.6463
H24 H 0.3522 -0.1382 0.7331
H25 H 0.5044 -0.1486 0.6958
H26 H 0.7813 0.1688 1.0188
H27 H 0.8193 0.0960 1.0964
H28 H 0.6709 0.1528 1.0906
loop_
_geom_bond_atom_site_label_1
_geom_bond_atom_site_label_2
_geom_bond_site_symmetry_1
_geom_bond_site_symmetry_2
S1 C7 1_555 1_555
S2 C8 1_555 1_555
C1 C2 1_555 1_555
C2 C3 1_555 1_555
C3 C4 1_555 1_555
C4 C5 1_555 1_555
C5 C6 1_555 1_555
C6 C7 1_555 1_555
C7 C8 1_555 1_555
C8 C9 1_555 1_555
C9 C10 1_555 1_555
C10 C11 1_555 1_555
C11 C12 1_555 1_555
C12 C13 1_555 1_555
C13 C14 1_555 1_555
C14 C15 1_555 1_555
C15 O4 1_555 1_555
C16 S1 1_555 1_555
C17 S2 1_555 1_555
O1 C1 1_555 1_555
O2 C4 1_555 1_555
O3 C7 1_555 1_555
O4 C11 1_555 1_555
H1 C4 1_555 1_555
H2 C5 1_555 1_555
H3 C11 1_555 1_555
H4 C12 1_555 1_555
H5 C1 1_555 1_555
H6 C1 1_555 1_555
H7 C2 1_555 1_555
H8 C2 1_555 1_555
H9 C3 1_555 1_555
H10 C3 1_555 1_555
H11 C6 1_555 1_555
H12 C6 1_555 1_555
H13 C9 1_555 1_555
H14 C9 1_555 1_555
H15 C10 1_555 1_555
H16 C10 1_555 1_555
H17 C13 1_555 1_555
H18 C13 1_555 1_555
H19 C14 1_555 1_555
H20 C14 1_555 1_555
H21 C15 1_555 1_555
H22 C15 1_555 1_555
H23 C16 1_555 1_555
H24 C16 1_555 1_555
H25 C16 1_555 1_555
H26 C17 1_555 1_555
H27 C17 1_555 1_555
H28 C17 1_555 1_555
C5 O1 1_555 1_555
C8 O2 1_555 1_555
C12 O3 1_555 1_555

#END
