
#######################################################################
#
#                 Cambridge Crystallographic Data Centre
#                                CCDC 
#
#######################################################################
#
# If this CIF has been generated from an entry in the Cambridge 
# Structural Database, then it will include bibliographic, chemical, 
# crystal, experimental, refinement or atomic coordinate data resulting 
# from the CCDC's data processing and validation procedures.
#
#######################################################################

data_KEVCET
_chemical_formula_moiety         'C20 H32 S3'
_chemical_name_systematic        
1,2;3,4-bis(2,6-Dimethyl-4-thiahepta-2,6-diyl)thiophene
_symmetry_cell_setting           triclinic
_symmetry_space_group_name_H-M   'P -1'
_symmetry_Int_Tables_number      2
_space_group_name_Hall           '-P 1'
loop_
_symmetry_equiv_pos_site_id
_symmetry_equiv_pos_as_xyz
1 x,y,z
2 -x,-y,-z
_cell_length_a                   10.100(5)
_cell_length_b                   11.782(3)
_cell_length_c                   17.257(2)
_cell_angle_alpha                75.36(1)
_cell_angle_beta                 98.09(2)
_cell_angle_gamma                89.97(3)
_cell_volume                     1965.71
_chemical_melting_point          130.5-133deg.C
_cell_formula_units_Z            4
loop_
_atom_site_label
_atom_site_type_symbol
_atom_site_fract_x
_atom_site_fract_y
_atom_site_fract_z
S1 S 0.3349(2) 0.2419(2) 0.2895(1)
S2 S -0.0943(2) 0.4538(1) 0.12582(9)
S3 S -0.4685(2) 0.5458(2) 0.2726(1)
C1 C 0.2504(7) 0.3541(5) 0.3210(4)
C2 C 0.1098(6) 0.3275(5) 0.3499(4)
C3 C -0.0014(6) 0.3660(5) 0.2756(3)
C4 C -0.1329(6) 0.4306(4) 0.2725(3)
C5 C -0.2178(6) 0.4131(5) 0.3429(4)
C6 C -0.3699(7) 0.4097(6) 0.3063(4)
C7 C -0.3606(7) 0.6348(5) 0.2128(4)
C8 C -0.2987(6) 0.5812(5) 0.1527(4)
C9 C -0.1824(6) 0.4886(5) 0.1955(3)
C10 C 0.0200(6) 0.3644(5) 0.1999(3)
C11 C 0.1216(6) 0.3036(5) 0.1608(4)
C12 C 0.2026(7) 0.2014(5) 0.2235(4)
C13 C 0.1115(7) 0.1979(5) 0.4007(4)
C14 C 0.1067(7) 0.4095(5) 0.4073(4)
C15 C 0.2132(7) 0.3917(6) 0.1155(4)
C16 C 0.0397(7) 0.2414(6) 0.1012(4)
C17 C -0.2009(7) 0.5035(5) 0.3947(4)
C18 C -0.1925(7) 0.2884(5) 0.3999(4)
C19 C -0.4058(7) 0.5307(6) 0.1006(4)
C20 C -0.2354(7) 0.6883(6) 0.0976(4)
H1 H 0.2380 0.4211 0.2759
H2 H 0.3087 0.3718 0.3640
H4 H -0.4115 0.3596 0.3479
H5 H -0.2875 0.6560 0.2482
H6 H -0.4083 0.7057 0.1820
H7 H 0.1410 0.1556 0.2550
H8 H 0.2388 0.1531 0.1937
H9 H 0.0868 0.1963 0.4532
H10 H 0.1974 0.1626 0.4082
H11 H 0.0478 0.1554 0.3746
H12 H 0.1825 0.3961 0.4474
H13 H 0.0273 0.3976 0.4330
H14 H 0.1034 0.4904 0.3766
H15 H 0.1626 0.4402 0.0679
H16 H 0.2832 0.3514 0.1013
H17 H 0.2504 0.4404 0.1492
H18 H 0.0000 0.3046 0.0488
H19 H 0.0368 0.1617 0.1224
H20 H 0.0832 0.2556 0.0518
H21 H -0.1446 0.4708 0.4440
H22 H -0.2864 0.5243 0.4059
H23 H -0.1628 0.5724 0.3657
H24 H -0.1063 0.2852 0.4325
H25 H -0.1899 0.2330 0.3681
H26 H -0.2588 0.2706 0.4331
H27 H -0.4492 0.4692 0.1326
H28 H -0.3663 0.5023 0.0615
H29 H -0.4716 0.5915 0.0714
H30 H -0.1995 0.6622 0.0567
H31 H -0.1686 0.7194 0.1286
H32 H -0.3047 0.7467 0.0722
S4 S 0.9670(2) 0.2544(2) 0.7246(1)
S5 S 0.5971(2) 0.0496(1) 0.87360(9)
S6 S 0.1647(2) -0.0379(2) 0.7122(1)
C21 C 0.8677(6) 0.1452(5) 0.6903(4)
C22 C 0.7161(6) 0.1736(5) 0.6557(4)
C23 C 0.6326(6) 0.1373(4) 0.7268(3)
C24 C 0.5019(6) 0.0738(4) 0.7246(3)
C25 C 0.3887(6) 0.0929(5) 0.6503(3)
C26 C 0.2492(6) 0.0967(5) 0.6808(4)
C27 C 0.2985(7) -0.1286(5) 0.7779(4)
C28 C 0.3816(6) -0.0736(5) 0.8385(4)
C29 C 0.4809(6) 0.0154(5) 0.8011(3)
C30 C 0.6834(6) 0.1378(5) 0.8045(4)
C31 C 0.7990(6) 0.1989(5) 0.8450(4)
C32 C 0.8597(6) 0.2974(5) 0.7872(4)
C33 C 0.6987(7) 0.3047(5) 0.6051(4)
C34 C 0.6896(7) 0.0930(5) 0.5977(4)
C35 C 0.9085(7) 0.1089(6) 0.8975(5)
C36 C 0.7397(7) 0.2618(6) 0.9026(4)
C37 C 0.3846(7) 0.0030(5) 0.5978(4)
C38 C 0.3915(7) 0.2185(5) 0.5955(4)
C39 C 0.2904(7) -0.0190(6) 0.8856(4)
C40 C 0.4617(8) -0.1793(6) 0.8997(5)
H33 H 0.8715 0.0767 0.7351
H34 H 0.9082 0.1242 0.6487
H35 H 0.2632 0.1322 0.7241
H36 H 0.1913 0.1471 0.6363
H37 H 0.3587 -0.1482 0.7443
H38 H 0.2624 -0.1980 0.8062
H39 H 0.7884 0.3449 0.7524
H40 H 0.9111 0.3431 0.8179
H41 H 0.6454 0.3088 0.5547
H42 H 0.7836 0.3347 0.5974
H43 H 0.6550 0.3493 0.6341
H44 H 0.7463 0.1131 0.5566
H45 H 0.5983 0.1038 0.5714
H46 H 0.7059 0.0133 0.6259
H47 H 0.8761 0.0667 0.9459
H48 H 0.9860 0.1486 0.9119
H49 H 0.9295 0.0552 0.8681
H50 H 0.7030 0.2061 0.9427
H51 H 0.6714 0.3168 0.8710
H52 H 0.8081 0.3020 0.9269
H53 H 0.3889 0.0441 0.5427
H54 H 0.3074 -0.0400 0.6011
H55 H 0.4626 -0.0487 0.6166
H56 H 0.3130 0.2375 0.5574
H57 H 0.4677 0.2243 0.5669
H58 H 0.4010 0.2735 0.6279
H59 H 0.3411 -0.0028 0.9310
H60 H 0.2222 -0.0725 0.9021
H61 H 0.2477 0.0517 0.8506
H62 H 0.4951 -0.1590 0.9477
H63 H 0.5336 -0.2017 0.8756
H64 H 0.4045 -0.2446 0.9114
H3? H -0.0480 0.2772 0.0840
loop_
_geom_bond_atom_site_label_1
_geom_bond_atom_site_label_2
_geom_bond_site_symmetry_1
_geom_bond_site_symmetry_2
S1 C1 1_555 1_555
S2 C9 1_555 1_555
S3 C6 1_555 1_555
C1 C2 1_555 1_555
C2 C3 1_555 1_555
C3 C4 1_555 1_555
C4 C5 1_555 1_555
C5 C6 1_555 1_555
C6 H4 1_555 1_555
C7 S3 1_555 1_555
C8 C7 1_555 1_555
C9 C4 1_555 1_555
C10 S2 1_555 1_555
C11 C10 1_555 1_555
C12 S1 1_555 1_555
C13 C2 1_555 1_555
C14 C2 1_555 1_555
C15 C11 1_555 1_555
C16 C11 1_555 1_555
C17 C5 1_555 1_555
C18 C5 1_555 1_555
C19 C8 1_555 1_555
C20 C8 1_555 1_555
S4 C21 1_555 1_555
S5 C29 1_555 1_555
S6 C26 1_555 1_555
C21 C22 1_555 1_555
C22 C23 1_555 1_555
C23 C24 1_555 1_555
C24 C25 1_555 1_555
C25 C26 1_555 1_555
C26 H35 1_555 1_555
C27 S6 1_555 1_555
C28 C27 1_555 1_555
C29 C24 1_555 1_555
C30 S5 1_555 1_555
C31 C30 1_555 1_555
C32 S4 1_555 1_555
C33 C22 1_555 1_555
C34 C22 1_555 1_555
C35 C31 1_555 1_555
C36 C31 1_555 1_555
C37 C25 1_555 1_555
C38 C25 1_555 1_555
C39 C28 1_555 1_555
C40 C28 1_555 1_555
H1 C1 1_555 1_555
H2 C1 1_555 1_555
H5 C7 1_555 1_555
H6 C7 1_555 1_555
H7 C12 1_555 1_555
H8 C12 1_555 1_555
H9 C13 1_555 1_555
H10 C13 1_555 1_555
H11 C13 1_555 1_555
H12 C14 1_555 1_555
H13 C14 1_555 1_555
H14 C14 1_555 1_555
H15 C15 1_555 1_555
H16 C15 1_555 1_555
H17 C15 1_555 1_555
H18 C16 1_555 1_555
H19 C16 1_555 1_555
H20 C16 1_555 1_555
H21 C17 1_555 1_555
H22 C17 1_555 1_555
H23 C17 1_555 1_555
H24 C18 1_555 1_555
H25 C18 1_555 1_555
H26 C18 1_555 1_555
H27 C19 1_555 1_555
H28 C19 1_555 1_555
H29 C19 1_555 1_555
H30 C20 1_555 1_555
H31 C20 1_555 1_555
H32 C20 1_555 1_555
H33 C21 1_555 1_555
H34 C21 1_555 1_555
H36 C26 1_555 1_555
H37 C27 1_555 1_555
H38 C27 1_555 1_555
H39 C32 1_555 1_555
H40 C32 1_555 1_555
H41 C33 1_555 1_555
H42 C33 1_555 1_555
H43 C33 1_555 1_555
H44 C34 1_555 1_555
H45 C34 1_555 1_555
H46 C34 1_555 1_555
H47 C35 1_555 1_555
H48 C35 1_555 1_555
H49 C35 1_555 1_555
H50 C36 1_555 1_555
H51 C36 1_555 1_555
H52 C36 1_555 1_555
H53 C37 1_555 1_555
H54 C37 1_555 1_555
H55 C37 1_555 1_555
H56 C38 1_555 1_555
H57 C38 1_555 1_555
H58 C38 1_555 1_555
H59 C39 1_555 1_555
H60 C39 1_555 1_555
H61 C39 1_555 1_555
H62 C40 1_555 1_555
H63 C40 1_555 1_555
H64 C40 1_555 1_555
C3 C10 1_555 1_555
C8 C9 1_555 1_555
C11 C12 1_555 1_555
C23 C30 1_555 1_555
C28 C29 1_555 1_555
C31 C32 1_555 1_555

#END
