
#######################################################################
#
#                 Cambridge Crystallographic Data Centre
#                                CCDC 
#
#######################################################################
#
# If this CIF has been generated from an entry in the Cambridge 
# Structural Database, then it will include bibliographic, chemical, 
# crystal, experimental, refinement or atomic coordinate data resulting 
# from the CCDC's data processing and validation procedures.
#
#######################################################################

data_KEVHOL
_chemical_formula_moiety         'C22 H29 F1 N2 O4'
_chemical_name_systematic        
't-butyl 9-(4-fluorobenzene-1-carbonyl)-4-hydroxy-4-methylhexahydro-1H-3a,7-epiminocyclohepta[c]pyrrole-2(3H)-carboxylate'
_symmetry_cell_setting           monoclinic
_symmetry_space_group_name_H-M   'P 21/c'
_symmetry_Int_Tables_number      14
_space_group_name_Hall           '-P 2ybc'
loop_
_symmetry_equiv_pos_site_id
_symmetry_equiv_pos_as_xyz
1 x,y,z
2 -x,1/2+y,1/2-z
3 -x,-y,-z
4 x,1/2-y,1/2+z
_cell_length_a                   10.7014(2)
_cell_length_b                   14.4421(3)
_cell_length_c                   14.1016(4)
_cell_angle_alpha                90
_cell_angle_beta                 106.984(3)
_cell_angle_gamma                90
_cell_volume                     2084.36
_exptl_crystal_colour            colorless
_exptl_crystal_description       block
_cell_formula_units_Z            4
loop_
_atom_site_label
_atom_site_type_symbol
_atom_site_fract_x
_atom_site_fract_y
_atom_site_fract_z
F1 F -0.00783(8) 0.13304(6) 0.03131(7)
O1 O 0.57219(9) 0.13662(6) 0.01388(7)
N1 N 0.48677(9) 0.24527(7) -0.10522(7)
C1 C 0.10949(12) 0.14444(10) 0.01405(9)
O2 O 0.68540(9) 0.12126(6) -0.14014(8)
N2 N 0.70253(10) 0.40422(7) -0.01672(8)
C2 C 0.18730(13) 0.06778(9) 0.01631(10)
H1 H 0.1604 0.0092 0.0296
O3 O 0.77131(10) 0.54184(6) 0.05677(8)
C3 C 0.30699(12) 0.08062(9) -0.00178(9)
H2 H 0.3618 0.0303 0.0000
O4 O 0.88327(8) 0.40777(6) 0.10969(6)
C4 C 0.34524(12) 0.16894(8) -0.02258(8)
C5 C 0.26409(12) 0.24479(8) -0.02378(9)
H3 H 0.2900 0.3036 -0.0373
C6 C 0.14500(12) 0.23285(9) -0.00491(9)
H4 H 0.0905 0.2830 -0.0050
C7 C 0.47737(12) 0.18101(8) -0.03724(9)
C8 C 0.38504(11) 0.25930(9) -0.20133(9)
H5 H 0.2970 0.2551 -0.1939
C9 C 0.40819(12) 0.18408(9) -0.27094(9)
H6 H 0.4018 0.1235 -0.2429
H7 H 0.3414 0.1882 -0.3344
C10 C 0.54322(12) 0.19521(9) -0.28636(9)
H8 H 0.5413 0.2481 -0.3292
H9 H 0.5618 0.1407 -0.3201
C11 C 0.65464(12) 0.20877(9) -0.18959(9)
C12 C 0.61058(11) 0.27840(8) -0.12194(9)
C13 C 0.56129(11) 0.37175(8) -0.17489(9)
H10 H 0.6102 0.3881 -0.2214
C14 C 0.41492(11) 0.35759(9) -0.22996(9)
H11 H 0.3617 0.4029 -0.2088
H12 H 0.3989 0.3628 -0.3011
C15 C 0.77646(13) 0.23983(10) -0.21603(11)
C16 C 0.71474(11) 0.30383(8) -0.02457(9)
H13 H 0.6979 0.2726 0.0314
H14 H 0.8014 0.2871 -0.0273
C17 C 0.58731(12) 0.44125(8) -0.08972(10)
H15 H 0.6044 0.5025 -0.1114
H16 H 0.5137 0.4447 -0.0628
C18 C 0.78477(12) 0.45844(8) 0.05105(9)
C19 C 0.98998(12) 0.45257(9) 0.18673(9)
C20 C 1.07321(12) 0.37031(10) 0.23425(10)
H17 H 1.0230 0.3300 0.2631
H18 H 1.1487 0.3918 0.2849
H19 H 1.1006 0.3372 0.1847
C21 C 0.93781(14) 0.50294(11) 0.26194(11)
H20 H 0.8926 0.5579 0.2323
H21 H 1.0092 0.5195 0.3185
H22 H 0.8787 0.4632 0.2825
C22 C 1.06763(15) 0.51535(12) 0.13834(12)
H23 H 1.0963 0.4807 0.0905
H24 H 1.1422 0.5392 0.1881
H25 H 1.0134 0.5658 0.1059
H26 H 0.8555(19) 0.2418(13) -0.1562(15)
H27 H 0.7954(18) 0.1964(13) -0.2621(14)
H28 H 0.7635(18) 0.2981(14) -0.2499(14)
H29 H 0.658(2) 0.1211(14) -0.0871(17)
loop_
_geom_bond_atom_site_label_1
_geom_bond_atom_site_label_2
_geom_bond_site_symmetry_1
_geom_bond_site_symmetry_2
F1 C1 1_555 1_555
O1 C7 1_555 1_555
N1 C7 1_555 1_555
C1 C2 1_555 1_555
O2 C11 1_555 1_555
N2 C16 1_555 1_555
C2 H1 1_555 1_555
O3 C18 1_555 1_555
C3 C2 1_555 1_555
H2 C3 1_555 1_555
O4 C18 1_555 1_555
C4 C3 1_555 1_555
C5 C4 1_555 1_555
H3 C5 1_555 1_555
C6 C1 1_555 1_555
H4 C6 1_555 1_555
C7 C4 1_555 1_555
C8 N1 1_555 1_555
H5 C8 1_555 1_555
C9 C8 1_555 1_555
H6 C9 1_555 1_555
H7 C9 1_555 1_555
C10 C9 1_555 1_555
H8 C10 1_555 1_555
H9 C10 1_555 1_555
C11 C10 1_555 1_555
C12 N1 1_555 1_555
C13 C12 1_555 1_555
H10 C13 1_555 1_555
C14 C8 1_555 1_555
H11 C14 1_555 1_555
H12 C14 1_555 1_555
C15 C11 1_555 1_555
C16 C12 1_555 1_555
H13 C16 1_555 1_555
H14 C16 1_555 1_555
C17 N2 1_555 1_555
H15 C17 1_555 1_555
H16 C17 1_555 1_555
C18 N2 1_555 1_555
C19 O4 1_555 1_555
C20 C19 1_555 1_555
H17 C20 1_555 1_555
H18 C20 1_555 1_555
H19 C20 1_555 1_555
C21 C19 1_555 1_555
H20 C21 1_555 1_555
H21 C21 1_555 1_555
H22 C21 1_555 1_555
C22 C19 1_555 1_555
H23 C22 1_555 1_555
H24 C22 1_555 1_555
H25 C22 1_555 1_555
H26 C15 1_555 1_555
H27 C15 1_555 1_555
H28 C15 1_555 1_555
H29 O2 1_555 1_555
C5 C6 1_555 1_555
C11 C12 1_555 1_555
C13 C14 1_555 1_555
C13 C17 1_555 1_555

#END
