
#######################################################################
#
#                 Cambridge Crystallographic Data Centre
#                                CCDC 
#
#######################################################################
#
# If this CIF has been generated from an entry in the Cambridge 
# Structural Database, then it will include bibliographic, chemical, 
# crystal, experimental, refinement or atomic coordinate data resulting 
# from the CCDC's data processing and validation procedures.
#
#######################################################################

data_KEVHEA
_chemical_formula_moiety         'C66 H74 N2 Na2 O4 P2 S2'
_chemical_name_systematic        
'bis(\m~2~-N-(diphenylmethyl)-P,P-diphenylphosphinothioic amidato)-tetrakis(tetrahydrofuran)-di-sodium'
_symmetry_cell_setting           triclinic
_symmetry_space_group_name_H-M   'P -1'
_symmetry_Int_Tables_number      2
_space_group_name_Hall           '-P 1'
loop_
_symmetry_equiv_pos_site_id
_symmetry_equiv_pos_as_xyz
1 x,y,z
2 -x,-y,-z
_cell_length_a                   10.5054(11)
_cell_length_b                   12.9521(12)
_cell_length_c                   13.3762(13)
_cell_angle_alpha                108.731(9)
_cell_angle_beta                 108.054(9)
_cell_angle_gamma                104.940(9)
_cell_volume                     1504.22
_exptl_crystal_colour            colorless
_exptl_crystal_description       plates
_cell_formula_units_Z            1
loop_
_atom_site_label
_atom_site_type_symbol
_atom_site_fract_x
_atom_site_fract_y
_atom_site_fract_z
Na1 Na 1.02102(13) 0.48945(11) 0.36306(11)
S1 S 0.76255(9) 0.45309(7) 0.41315(7)
P1 P 0.70998(8) 0.29542(7) 0.28600(7)
O1 O 1.2099(3) 0.5265(2) 0.3007(2)
O2 O 0.9414(3) 0.6195(2) 0.2877(3)
N1 N 0.8404(3) 0.2918(2) 0.2501(2)
C1 C 0.5432(3) 0.2670(3) 0.1651(3)
C2 C 0.4203(3) 0.2742(3) 0.1830(3)
H1 H 0.4234 0.2928 0.2571
C3 C 0.2954(4) 0.2539(3) 0.0922(3)
H2 H 0.2148 0.2594 0.1051
C4 C 0.2904(4) 0.2254(3) -0.0178(3)
H3 H 0.2061 0.2115 -0.0794
C5 C 0.4094(4) 0.2173(3) -0.0370(3)
H4 H 0.4051 0.1977 -0.1116
C6 C 0.5355(3) 0.2380(3) 0.0536(3)
H5 H 0.6155 0.2324 0.0398
C7 C 0.6450(3) 0.1739(3) 0.3240(3)
C8 C 0.7080(4) 0.1866(3) 0.4366(3)
H6 H 0.7793 0.2598 0.4950
C9 C 0.6678(5) 0.0930(4) 0.4649(4)
H7 H 0.7123 0.1031 0.5412
C10 C 0.5607(4) -0.0156(4) 0.3783(4)
H8 H 0.5331 -0.0789 0.3965
C11 C 0.4946(4) -0.0305(3) 0.2651(4)
H9 H 0.4223 -0.1035 0.2073
C12 C 0.5363(3) 0.0633(3) 0.2377(3)
H10 H 0.4918 0.0529 0.1613
C13 C 0.8459(3) 0.1788(3) 0.1847(3)
H11 H 0.7525 0.1145 0.1591
C14 C 0.9659(3) 0.1585(3) 0.2644(3)
C15 C 0.9349(4) 0.0685(3) 0.2991(3)
H12 H 0.8383 0.0184 0.2722
C16 C 1.0446(4) 0.0519(3) 0.3726(3)
H13 H 1.0214 -0.0092 0.3945
C17 C 1.1900(4) 0.1265(3) 0.4144(3)
H14 H 1.2641 0.1153 0.4638
C18 C 1.2231(4) 0.2176(3) 0.3816(3)
H15 H 1.3197 0.2678 0.4088
C19 C 1.1118(3) 0.2335(3) 0.3079(3)
H16 H 1.1348 0.2955 0.2872
C20 C 0.8688(3) 0.1747(3) 0.0760(3)
C21 C 0.8561(4) 0.0681(3) -0.0040(3)
H17 H 0.8352 0.0013 0.0101
C22 C 0.8738(4) 0.0598(3) -0.1042(3)
H18 H 0.8639 -0.0124 -0.1570
C23 C 0.9064(4) 0.1587(4) -0.1259(3)
H19 H 0.9174 0.1531 -0.1936
C24 C 0.9224(4) 0.2654(3) -0.0461(3)
H20 H 0.9460 0.3326 -0.0593
C25 C 0.9031(3) 0.2729(3) 0.0542(3)
H21 H 0.9137 0.3453 0.1072
C26 C 1.3587(4) 0.5459(4) 0.3639(4)
H22 H 1.3713 0.4715 0.3406
H23 H 1.3860 0.5793 0.4473
C27 C 1.4485(5) 0.6278(6) 0.3364(5)
H24 H 1.5340 0.6120 0.3368
H25 H 1.4795 0.7095 0.3915
C28 C 1.3475(6) 0.6033(6) 0.2148(5)
H26 H 1.3735 0.6728 0.2003
H27 H 1.3495 0.5375 0.1554
C29 C 1.2063(5) 0.5738(5) 0.2172(4)
H28 H 1.1851 0.6442 0.2392
H29 H 1.1308 0.5155 0.1404
C30 C 0.9139(5) 0.7124(4) 0.3614(4)
H30 H 0.9978 0.7873 0.3996
H31 H 0.8949 0.6929 0.4210
C31 C 0.7840(4) 0.7211(4) 0.2840(4)
H32 H 0.8125 0.7781 0.2543
H33 H 0.7264 0.7433 0.3248
C32 C 0.8213(4) 0.5587(4) 0.1727(4)
H34 H 0.7910 0.4734 0.1444
H35 H 0.8495 0.5820 0.1181
C33 C 0.7003(4) 0.5941(3) 0.1853(4)
H36 H 0.6411 0.5425 0.2071
H37 H 0.6385 0.5930 0.1137
Na1A Na 0.97898(13) 0.51055(11) 0.63694(11)
S1A S 1.23745(9) 0.54691(7) 0.58685(7)
P1A P 1.29002(8) 0.70458(7) 0.71400(7)
O1A O 0.7901(3) 0.4735(2) 0.6993(2)
O2A O 1.0586(3) 0.3805(2) 0.7123(3)
N1A N 1.1596(3) 0.7082(2) 0.7499(2)
C1A C 1.4568(3) 0.7330(3) 0.8349(3)
C2A C 1.5797(3) 0.7258(3) 0.8170(3)
H1A H 1.5766 0.7072 0.7429
C3A C 1.7046(4) 0.7461(3) 0.9078(3)
H2A H 1.7852 0.7406 0.8949
C4A C 1.7096(4) 0.7746(3) 1.0178(3)
H3A H 1.7939 0.7885 1.0794
C5A C 1.5906(4) 0.7827(3) 1.0370(3)
H4A H 1.5949 0.8023 1.1116
C6A C 1.4645(3) 0.7620(3) 0.9464(3)
H5A H 1.3845 0.7676 0.9602
C7A C 1.3550(3) 0.8261(3) 0.6760(3)
C8A C 1.2920(4) 0.8134(3) 0.5634(3)
H6A H 1.2207 0.7402 0.5050
C9A C 1.3322(5) 0.9070(4) 0.5351(4)
H7A H 1.2877 0.8969 0.4588
C10A C 1.4393(4) 1.0156(4) 0.6217(4)
H8A H 1.4669 1.0789 0.6035
C11A C 1.5054(4) 1.0305(3) 0.7349(4)
H9A H 1.5777 1.1035 0.7927
C12A C 1.4637(3) 0.9367(3) 0.7623(3)
H10A H 1.5082 0.9471 0.8387
C13A C 1.1541(3) 0.8212(3) 0.8153(3)
H11A H 1.2475 0.8855 0.8409
C14A C 1.0341(3) 0.8415(3) 0.7356(3)
C15A C 1.0651(4) 0.9315(3) 0.7009(3)
H12A H 1.1617 0.9816 0.7278
C16A C 0.9554(4) 0.9481(3) 0.6274(3)
H13A H 0.9786 1.0092 0.6055
C17A C 0.8100(4) 0.8735(3) 0.5856(3)
H14A H 0.7359 0.8847 0.5362
C18A C 0.7769(4) 0.7824(3) 0.6184(3)
H15A H 0.6803 0.7322 0.5912
C19A C 0.8882(3) 0.7665(3) 0.6921(3)
H16A H 0.8652 0.7045 0.7128
C20A C 1.1312(3) 0.8253(3) 0.9240(3)
C21A C 1.1439(4) 0.9319(3) 1.0040(3)
H17A H 1.1648 0.9987 0.9899
C22A C 1.1262(4) 0.9402(3) 1.1042(3)
H18A H 1.1361 1.0124 1.1570
C23A C 1.0936(4) 0.8413(4) 1.1259(3)
H19A H 1.0826 0.8469 1.1936
C24A C 1.0776(4) 0.7346(3) 1.0461(3)
H20A H 1.0540 0.6674 1.0593
C25A C 1.0969(3) 0.7271(3) 0.9458(3)
H21A H 1.0863 0.6547 0.8928
C26A C 0.6413(4) 0.4541(4) 0.6361(4)
H22A H 0.6287 0.5285 0.6594
H23A H 0.6140 0.4207 0.5527
C27A C 0.5515(5) 0.3722(6) 0.6636(5)
H24A H 0.4660 0.3880 0.6632
H25A H 0.5205 0.2905 0.6085
C28A C 0.6525(6) 0.3967(6) 0.7852(5)
H26A H 0.6265 0.3272 0.7997
H27A H 0.6505 0.4625 0.8446
C29A C 0.7937(5) 0.4262(5) 0.7828(4)
H28A H 0.8149 0.3558 0.7608
H29A H 0.8692 0.4845 0.8596
C30A C 1.0861(5) 0.2876(4) 0.6386(4)
H30A H 1.0022 0.2127 0.6004
H31A H 1.1051 0.3071 0.5790
C31A C 1.2160(4) 0.2789(4) 0.7160(4)
H32A H 1.1875 0.2219 0.7457
H33A H 1.2736 0.2567 0.6752
C32A C 1.1787(4) 0.4413(4) 0.8273(4)
H34A H 1.2090 0.5266 0.8556
H35A H 1.1505 0.4180 0.8819
C33A C 1.2997(4) 0.4059(3) 0.8147(4)
H36A H 1.3589 0.4575 0.7929
H37A H 1.3615 0.4070 0.8863
loop_
_geom_bond_atom_site_label_1
_geom_bond_atom_site_label_2
_geom_bond_site_symmetry_1
_geom_bond_site_symmetry_2
Na1 S1 1_555 1_555
S1 P1 1_555 1_555
P1 N1 1_555 1_555
O1 Na1 1_555 1_555
O2 Na1 1_555 1_555
N1 Na1 1_555 1_555
C1 P1 1_555 1_555
C2 C1 1_555 1_555
H1 C2 1_555 1_555
C3 C2 1_555 1_555
H2 C3 1_555 1_555
C4 C3 1_555 1_555
H3 C4 1_555 1_555
C5 C4 1_555 1_555
H4 C5 1_555 1_555
C6 C1 1_555 1_555
H5 C6 1_555 1_555
C7 P1 1_555 1_555
C8 C7 1_555 1_555
H6 C8 1_555 1_555
C9 C8 1_555 1_555
H7 C9 1_555 1_555
C10 C9 1_555 1_555
H8 C10 1_555 1_555
C11 C10 1_555 1_555
H9 C11 1_555 1_555
C12 C7 1_555 1_555
H10 C12 1_555 1_555
C13 N1 1_555 1_555
H11 C13 1_555 1_555
C14 C13 1_555 1_555
C15 C14 1_555 1_555
H12 C15 1_555 1_555
C16 C15 1_555 1_555
H13 C16 1_555 1_555
C17 C16 1_555 1_555
H14 C17 1_555 1_555
C18 C17 1_555 1_555
H15 C18 1_555 1_555
C19 C14 1_555 1_555
H16 C19 1_555 1_555
C20 C13 1_555 1_555
C21 C20 1_555 1_555
H17 C21 1_555 1_555
C22 C21 1_555 1_555
H18 C22 1_555 1_555
C23 C22 1_555 1_555
H19 C23 1_555 1_555
C24 C23 1_555 1_555
H20 C24 1_555 1_555
C25 C20 1_555 1_555
H21 C25 1_555 1_555
C26 O1 1_555 1_555
H22 C26 1_555 1_555
H23 C26 1_555 1_555
C27 C26 1_555 1_555
H24 C27 1_555 1_555
H25 C27 1_555 1_555
C28 C27 1_555 1_555
H26 C28 1_555 1_555
H27 C28 1_555 1_555
C29 O1 1_555 1_555
H28 C29 1_555 1_555
H29 C29 1_555 1_555
C30 O2 1_555 1_555
H30 C30 1_555 1_555
H31 C30 1_555 1_555
C31 C30 1_555 1_555
H32 C31 1_555 1_555
H33 C31 1_555 1_555
C32 O2 1_555 1_555
H34 C32 1_555 1_555
H35 C32 1_555 1_555
C33 C31 1_555 1_555
H36 C33 1_555 1_555
H37 C33 1_555 1_555
Na1A S1 1_555 1_555
S1A Na1 1_555 1_555
P1A S1A 1_555 1_555
O1A Na1A 1_555 1_555
O2A Na1A 1_555 1_555
N1A Na1A 1_555 1_555
C1A P1A 1_555 1_555
C2A C1A 1_555 1_555
H1A C2A 1_555 1_555
C3A C2A 1_555 1_555
H2A C3A 1_555 1_555
C4A C3A 1_555 1_555
H3A C4A 1_555 1_555
C5A C4A 1_555 1_555
H4A C5A 1_555 1_555
C6A C1A 1_555 1_555
H5A C6A 1_555 1_555
C7A P1A 1_555 1_555
C8A C7A 1_555 1_555
H6A C8A 1_555 1_555
C9A C8A 1_555 1_555
H7A C9A 1_555 1_555
C10A C9A 1_555 1_555
H8A C10A 1_555 1_555
C11A C10A 1_555 1_555
H9A C11A 1_555 1_555
C12A C7A 1_555 1_555
H10A C12A 1_555 1_555
C13A N1A 1_555 1_555
H11A C13A 1_555 1_555
C14A C13A 1_555 1_555
C15A C14A 1_555 1_555
H12A C15A 1_555 1_555
C16A C15A 1_555 1_555
H13A C16A 1_555 1_555
C17A C16A 1_555 1_555
H14A C17A 1_555 1_555
C18A C17A 1_555 1_555
H15A C18A 1_555 1_555
C19A C14A 1_555 1_555
H16A C19A 1_555 1_555
C20A C13A 1_555 1_555
C21A C20A 1_555 1_555
H17A C21A 1_555 1_555
C22A C21A 1_555 1_555
H18A C22A 1_555 1_555
C23A C22A 1_555 1_555
H19A C23A 1_555 1_555
C24A C23A 1_555 1_555
H20A C24A 1_555 1_555
C25A C20A 1_555 1_555
H21A C25A 1_555 1_555
C26A O1A 1_555 1_555
H22A C26A 1_555 1_555
H23A C26A 1_555 1_555
C27A C26A 1_555 1_555
H24A C27A 1_555 1_555
H25A C27A 1_555 1_555
C28A C27A 1_555 1_555
H26A C28A 1_555 1_555
H27A C28A 1_555 1_555
C29A O1A 1_555 1_555
H28A C29A 1_555 1_555
H29A C29A 1_555 1_555
C30A O2A 1_555 1_555
H30A C30A 1_555 1_555
H31A C30A 1_555 1_555
C31A C30A 1_555 1_555
H32A C31A 1_555 1_555
H33A C31A 1_555 1_555
C32A O2A 1_555 1_555
H34A C32A 1_555 1_555
H35A C32A 1_555 1_555
C33A C31A 1_555 1_555
H36A C33A 1_555 1_555
H37A C33A 1_555 1_555
C5 C6 1_555 1_555
C11 C12 1_555 1_555
C18 C19 1_555 1_555
C24 C25 1_555 1_555
C28 C29 1_555 1_555
C32 C33 1_555 1_555
Na1A S1A 1_555 1_555
P1A N1A 1_555 1_555
C5A C6A 1_555 1_555
C11A C12A 1_555 1_555
C18A C19A 1_555 1_555
C24A C25A 1_555 1_555
C28A C29A 1_555 1_555
C32A C33A 1_555 1_555

#END
