
#######################################################################
#
#                 Cambridge Crystallographic Data Centre
#                                CCDC 
#
#######################################################################
#
# If this CIF has been generated from an entry in the Cambridge 
# Structural Database, then it will include bibliographic, chemical, 
# crystal, experimental, refinement or atomic coordinate data resulting 
# from the CCDC's data processing and validation procedures.
#
#######################################################################

data_KEVHOK
_chemical_formula_moiety         'C32 H34 N2 2+,2(I3 1-)'
_chemical_name_systematic        
"N,N,N',N'-Tetrabenzylbut-2-yne-1,4-diaminium bis(triiodide)"
_symmetry_cell_setting           triclinic
_symmetry_space_group_name_H-M   'P -1'
_symmetry_Int_Tables_number      2
_space_group_name_Hall           '-P 1'
loop_
_symmetry_equiv_pos_site_id
_symmetry_equiv_pos_as_xyz
1 x,y,z
2 -x,-y,-z
_cell_length_a                   9.4807(19)
_cell_length_b                   9.5065(19)
_cell_length_c                   11.255(2)
_cell_angle_alpha                104.13(3)
_cell_angle_beta                 110.58(3)
_cell_angle_gamma                91.92(3)
_cell_volume                     912.937
_cell_formula_units_Z            1
loop_
_atom_site_label
_atom_site_type_symbol
_atom_site_fract_x
_atom_site_fract_y
_atom_site_fract_z
I1 I -0.05171(3) 0.10442(3) 0.18096(3)
I2 I 0.15275(3) 0.34283(2) 0.40477(2)
I3 I 0.34283(3) 0.58744(3) 0.61605(3)
N1 N 0.1223(3) 0.8197(3) 0.3152(3)
H1 H 0.0794 0.8823 0.2674
C1 C 0.1141(4) 0.6741(4) 0.2182(4)
H2 H 0.1811 0.6846 0.1717
H3 H 0.1482 0.6015 0.2658
C2 C -0.0463(4) 0.6231(4) 0.1201(4)
C3 C -0.1350(4) 0.5095(4) 0.1298(4)
H4 H -0.0958 0.4639 0.1967
C4 C -0.2830(4) 0.4652(4) 0.0383(4)
H5 H -0.3429 0.3889 0.0432
C5 C -0.3409(4) 0.5343(4) -0.0597(4)
H6 H -0.4406 0.5058 -0.1193
C6 C -0.2521(4) 0.6455(4) -0.0704(4)
H7 H -0.2912 0.6905 -0.1377
C7 C -0.1033(4) 0.6898(4) 0.0205(4)
H8 H -0.0429 0.7643 0.0138
C8 C 0.2837(4) 0.8894(4) 0.4044(4)
H9 H 0.2809 0.9881 0.4528
H10 H 0.3250 0.8343 0.4682
C9 C 0.3874(4) 0.8950(4) 0.3308(4)
C10 C 0.3841(5) 0.9971(4) 0.2628(5)
H11 H 0.3173 1.0665 0.2634
C11 C 0.4786(5) 0.9987(5) 0.1930(5)
H12 H 0.4740 1.0670 0.1455
C12 C 0.5815(5) 0.8955(5) 0.1949(5)
H13 H 0.6464 0.8959 0.1493
C13 C 0.5861(4) 0.7947(4) 0.2639(5)
H14 H 0.6543 0.7266 0.2648
C14 C 0.4904(4) 0.7930(4) 0.3323(4)
H15 H 0.4945 0.7241 0.3792
C15 C 0.0300(4) 0.8018(4) 0.3960(4)
H16 H -0.0686 0.7474 0.3383
H17 H 0.0806 0.7459 0.4566
C16 C 0.0095(4) 0.9426(4) 0.4705(4)
N1A N -0.1223(3) 1.1803(3) 0.6848(3)
H1A H -0.0794 1.1177 0.7326
C1A C -0.1141(4) 1.3259(4) 0.7818(4)
H2A H -0.1811 1.3154 0.8283
H3A H -0.1482 1.3985 0.7342
C2A C 0.0463(4) 1.3769(4) 0.8799(4)
C3A C 0.1350(4) 1.4905(4) 0.8702(4)
H4A H 0.0958 1.5361 0.8033
C4A C 0.2830(4) 1.5348(4) 0.9617(4)
H5A H 0.3429 1.6111 0.9568
C5A C 0.3409(4) 1.4657(4) 1.0597(4)
H6A H 0.4406 1.4942 1.1193
C6A C 0.2521(4) 1.3545(4) 1.0704(4)
H7A H 0.2912 1.3095 1.1377
C7A C 0.1033(4) 1.3102(4) 0.9795(4)
H8A H 0.0429 1.2357 0.9862
C8A C -0.2837(4) 1.1106(4) 0.5956(4)
H9A H -0.2809 1.0119 0.5472
H10A H -0.3250 1.1657 0.5318
C9A C -0.3874(4) 1.1050(4) 0.6692(4)
C10A C -0.3841(5) 1.0029(4) 0.7372(5)
H11A H -0.3173 0.9335 0.7366
C11A C -0.4786(5) 1.0013(5) 0.8070(5)
H12A H -0.4740 0.9330 0.8545
C12A C -0.5815(5) 1.1045(5) 0.8051(5)
H13A H -0.6464 1.1041 0.8507
C13A C -0.5861(4) 1.2053(4) 0.7361(5)
H14A H -0.6543 1.2734 0.7352
C14A C -0.4904(4) 1.2070(4) 0.6677(4)
H15A H -0.4945 1.2759 0.6208
C15A C -0.0300(4) 1.1982(4) 0.6040(4)
H16A H 0.0686 1.2526 0.6617
H17A H -0.0806 1.2541 0.5434
C16A C -0.0095(4) 1.0574(4) 0.5295(4)
loop_
_geom_bond_atom_site_label_1
_geom_bond_atom_site_label_2
_geom_bond_site_symmetry_1
_geom_bond_site_symmetry_2
I1 I2 1_555 1_555
I2 I3 1_555 1_555
N1 H1 1_555 1_555
C1 N1 1_555 1_555
H2 C1 1_555 1_555
H3 C1 1_555 1_555
C2 C1 1_555 1_555
C3 C2 1_555 1_555
H4 C3 1_555 1_555
C4 C3 1_555 1_555
H5 C4 1_555 1_555
C5 C4 1_555 1_555
H6 C5 1_555 1_555
C6 C5 1_555 1_555
H7 C6 1_555 1_555
C7 C2 1_555 1_555
H8 C7 1_555 1_555
C8 N1 1_555 1_555
H9 C8 1_555 1_555
H10 C8 1_555 1_555
C9 C8 1_555 1_555
C10 C9 1_555 1_555
H11 C10 1_555 1_555
C11 C10 1_555 1_555
H12 C11 1_555 1_555
C12 C11 1_555 1_555
H13 C12 1_555 1_555
C13 C12 1_555 1_555
H14 C13 1_555 1_555
C14 C9 1_555 1_555
H15 C14 1_555 1_555
C15 N1 1_555 1_555
H16 C15 1_555 1_555
H17 C15 1_555 1_555
C16 C15 1_555 1_555
N1A H1A 1_555 1_555
C1A N1A 1_555 1_555
H2A C1A 1_555 1_555
H3A C1A 1_555 1_555
C2A C1A 1_555 1_555
C3A C2A 1_555 1_555
H4A C3A 1_555 1_555
C4A C3A 1_555 1_555
H5A C4A 1_555 1_555
C5A C4A 1_555 1_555
H6A C5A 1_555 1_555
C6A C5A 1_555 1_555
H7A C6A 1_555 1_555
C7A C2A 1_555 1_555
H8A C7A 1_555 1_555
C8A N1A 1_555 1_555
H9A C8A 1_555 1_555
H10A C8A 1_555 1_555
C9A C8A 1_555 1_555
C10A C9A 1_555 1_555
H11A C10A 1_555 1_555
C11A C10A 1_555 1_555
H12A C11A 1_555 1_555
C12A C11A 1_555 1_555
H13A C12A 1_555 1_555
C13A C12A 1_555 1_555
H14A C13A 1_555 1_555
C14A C9A 1_555 1_555
H15A C14A 1_555 1_555
C15A N1A 1_555 1_555
H16A C15A 1_555 1_555
H17A C15A 1_555 1_555
C16A C16 1_555 1_555
C6 C7 1_555 1_555
C13 C14 1_555 1_555
C6A C7A 1_555 1_555
C13A C14A 1_555 1_555
C15A C16A 1_555 1_555

#END
