
#######################################################################
#
#                 Cambridge Crystallographic Data Centre
#                                CCDC 
#
#######################################################################
#
# If this CIF has been generated from an entry in the Cambridge 
# Structural Database, then it will include bibliographic, chemical, 
# crystal, experimental, refinement or atomic coordinate data resulting 
# from the CCDC's data processing and validation procedures.
#
#######################################################################

data_KEVHEB
_chemical_formula_moiety         'C16 H11 F1 N2 O3'
_chemical_name_systematic        
N'-(4-fluorophenyl)-2-oxo-2H-chromene-3-carbohydrazide
_symmetry_cell_setting           triclinic
_symmetry_space_group_name_H-M   'P -1'
_symmetry_Int_Tables_number      2
_space_group_name_Hall           '-P 1'
loop_
_symmetry_equiv_pos_site_id
_symmetry_equiv_pos_as_xyz
1 x,y,z
2 -x,-y,-z
_cell_length_a                   7.1682(3)
_cell_length_b                   9.0559(4)
_cell_length_c                   11.2242(5)
_cell_angle_alpha                82.993(2)
_cell_angle_beta                 75.655(2)
_cell_angle_gamma                72.4930(10)
_cell_volume                     672.311
_exptl_crystal_colour            colorless
_exptl_crystal_description       Block
_cell_formula_units_Z            2
loop_
_atom_site_label
_atom_site_type_symbol
_atom_site_fract_x
_atom_site_fract_y
_atom_site_fract_z
C1 C 0.4640(2) 0.19418(18) 1.10717(15)
C2 C 0.6067(3) 0.1735(2) 1.17535(17)
H1 H 0.6880 0.2395 1.1626
C3 C 0.6255(3) 0.0525(2) 1.26282(18)
H2 H 0.7210 0.0365 1.3095
C4 C 0.5040(3) -0.0457(2) 1.28228(18)
H3 H 0.5186 -0.1267 1.3419
C5 C 0.3622(3) -0.02427(19) 1.21411(16)
H4 H 0.2814 -0.0907 1.2273
C6 C 0.3396(2) 0.09777(18) 1.12472(15)
C7 C 0.1934(2) 0.13166(18) 1.05158(15)
H5 H 0.1090 0.0685 1.0616
C8 C 0.1745(2) 0.25259(17) 0.96857(14)
C9 C 0.3096(3) 0.34991(19) 0.94908(15)
C10 C 0.0143(2) 0.28160(18) 0.89786(14)
C11 C -0.1442(3) 0.38558(18) 0.65730(15)
C12 C 0.0476(3) 0.3247(2) 0.58775(17)
H6 H 0.1582 0.3204 0.6186
C13 C 0.0759(3) 0.2703(2) 0.47284(18)
H7 H 0.2046 0.2298 0.4259
C14 C -0.0889(3) 0.2771(2) 0.42961(18)
C15 C -0.2791(3) 0.3327(3) 0.49691(19)
H8 H -0.3887 0.3339 0.4661
C16 C -0.3072(3) 0.3871(2) 0.61132(17)
H9 H -0.4366 0.4253 0.6580
F1 F -0.0627(2) 0.2294(2) 0.31452(12)
N1 N -0.0250(2) 0.41660(16) 0.83049(13)
H10 H 0.0471 0.4787 0.8254
N2 N -0.1810(2) 0.45639(17) 0.76909(13)
H11 H -0.2945 0.5211 0.7980
O1 O 0.44764(18) 0.31561(13) 1.02018(11)
O2 O 0.3133(2) 0.45866(15) 0.87478(12)
O3 O -0.08147(19) 0.18905(14) 0.90443(12)
loop_
_geom_bond_atom_site_label_1
_geom_bond_atom_site_label_2
_geom_bond_site_symmetry_1
_geom_bond_site_symmetry_2
C1 C2 1_555 1_555
C2 H1 1_555 1_555
C3 C2 1_555 1_555
H2 C3 1_555 1_555
C4 C3 1_555 1_555
H3 C4 1_555 1_555
C5 C4 1_555 1_555
H4 C5 1_555 1_555
C6 C1 1_555 1_555
C7 C6 1_555 1_555
H5 C7 1_555 1_555
C8 C7 1_555 1_555
C9 C8 1_555 1_555
C10 C8 1_555 1_555
C11 C12 1_555 1_555
C12 H6 1_555 1_555
C13 C12 1_555 1_555
H7 C13 1_555 1_555
C14 C13 1_555 1_555
C15 C14 1_555 1_555
H8 C15 1_555 1_555
C16 C11 1_555 1_555
H9 C16 1_555 1_555
F1 C14 1_555 1_555
N1 C10 1_555 1_555
H10 N1 1_555 1_555
N2 C11 1_555 1_555
H11 N2 1_555 1_555
O1 C1 1_555 1_555
O2 C9 1_555 1_555
O3 C10 1_555 1_555
C5 C6 1_555 1_555
C9 O1 1_555 1_555
C15 C16 1_555 1_555
N1 N2 1_555 1_555

#END
