
#######################################################################
#
#                 Cambridge Crystallographic Data Centre
#                                CCDC 
#
#######################################################################
#
# If this CIF has been generated from an entry in the Cambridge 
# Structural Database, then it will include bibliographic, chemical, 
# crystal, experimental, refinement or atomic coordinate data resulting 
# from the CCDC's data processing and validation procedures.
#
#######################################################################

data_KEVNUX
_chemical_formula_moiety         'C23 H28 O5,C1 H4 O1'
_chemical_name_systematic        
'9-hydroxy-1a,4a,7-trimethyl-1-(3-methylbut-2-enoyl)-1,1a,2,3,4,4a,9b,9c-octahydrocyclobuta[kl]xanthene-8-carboxylic acid methanol solvate'
_symmetry_cell_setting           monoclinic
_symmetry_space_group_name_H-M   'P 21'
_symmetry_Int_Tables_number      4
_space_group_name_Hall           'P 2yb'
loop_
_symmetry_equiv_pos_site_id
_symmetry_equiv_pos_as_xyz
1 x,y,z
2 -x,1/2+y,-z
_cell_length_a                   7.9702(2)
_cell_length_b                   12.9777(3)
_cell_length_c                   11.4394(3)
_cell_angle_alpha                90
_cell_angle_beta                 110.353(2)
_cell_angle_gamma                90
_cell_volume                     1109.36
_exptl_crystal_colour            colorless
_exptl_crystal_description       block
_cell_formula_units_Z            2
loop_
_atom_site_label
_atom_site_type_symbol
_atom_site_fract_x
_atom_site_fract_y
_atom_site_fract_z
O1 O 0.8349(3) 0.91304(17) 0.38113(19)
H1 H 0.8566 0.8909 0.3188
O2 O 0.7708(3) 0.8393(2) 0.1670(2)
O3 O 0.4980(3) 0.7895(2) 0.05101(19)
H2 H 0.5538 0.7690 0.0051
O4 O 0.3594(3) 0.96264(15) 0.53035(17)
O5 O 0.9104(3) 0.78130(17) 0.84194(18)
C1 C 0.4369(4) 1.0579(2) 0.5971(2)
C2 C 0.6433(4) 1.0564(2) 0.6476(2)
H3 H 0.6956 1.1264 0.6473
C3 C 0.7208(4) 0.9744(2) 0.5802(2)
H4 H 0.8399 0.9961 0.5776
C4 C 0.6564(4) 0.9069(2) 0.3590(2)
C5 C 0.5347(4) 0.8676(2) 0.2456(2)
C6 C 0.3499(4) 0.8619(2) 0.2305(2)
C7 C 0.2955(4) 0.8959(2) 0.3261(2)
H5 H 0.1723 0.8934 0.3164
C8 C 0.3595(4) 1.0621(2) 0.7019(3)
H6 H 0.2276 1.0559 0.6656
H7 H 0.3880 1.1297 0.7442
C9 C 0.4331(4) 0.9764(2) 0.7978(3)
H8 H 0.3723 0.9782 0.8599
H9 H 0.4092 0.9086 0.7556
C10 C 0.6331(4) 0.9901(2) 0.8633(2)
H10 H 0.6798 0.9310 0.9201
H11 H 0.6545 1.0534 0.9146
C11 C 0.7368(4) 0.9976(2) 0.7732(2)
C12 C 0.7417(4) 0.9006(2) 0.6923(2)
H12 H 0.6271 0.8619 0.6747
C13 C 0.8948(4) 0.82587(19) 0.7432(2)
C14 C 1.0153(4) 0.8073(2) 0.6742(3)
H13 H 1.0140 0.8555 0.6114
C15 C 1.1276(4) 0.7271(2) 0.6934(3)
C16 C 1.2376(5) 0.7126(3) 0.6110(3)
H14 H 1.2096 0.7675 0.5483
H15 H 1.2098 0.6456 0.5692
H16 H 1.3651 0.7153 0.6618
C17 C 1.1562(5) 0.6468(3) 0.7926(3)
H17 H 1.2290 0.6757 0.8735
H18 H 1.2180 0.5874 0.7734
H19 H 1.0402 0.6248 0.7957
C18 C 0.3679(4) 1.1467(2) 0.5055(3)
H20 H 0.4135 1.1394 0.4367
H21 H 0.4091 1.2122 0.5485
H22 H 0.2368 1.1455 0.4726
C19 C 0.9249(4) 1.0382(2) 0.8406(3)
H23 H 0.9180 1.1088 0.8693
H24 H 0.9923 1.0380 0.7835
H25 H 0.9854 0.9941 0.9125
C20 C 0.2058(4) 0.8258(2) 0.1123(3)
H26 H 0.2257 0.7531 0.0978
H27 H 0.2101 0.8671 0.0417
H28 H 0.0884 0.8336 0.1209
C21 C 0.6106(4) 0.8317(2) 0.1520(2)
C22 C 0.5990(4) 0.93959(19) 0.4551(2)
C23 C 0.4185(4) 0.93377(19) 0.4361(2)
O6 O 0.3748(3) 1.21743(18) 1.1091(2)
H29 H 0.2881 1.2470 1.1206
C24 C 0.3482(6) 1.1095(3) 1.1058(4)
H30 H 0.4244 1.0765 1.0654
H31 H 0.2225 1.0939 1.0586
H32 H 0.3794 1.0832 1.1911
loop_
_geom_bond_atom_site_label_1
_geom_bond_atom_site_label_2
_geom_bond_site_symmetry_1
_geom_bond_site_symmetry_2
O1 H1 1_555 1_555
O2 C21 1_555 1_555
O3 H2 1_555 1_555
O4 C1 1_555 1_555
O5 C13 1_555 1_555
C1 C2 1_555 1_555
C2 H3 1_555 1_555
C3 C2 1_555 1_555
H4 C3 1_555 1_555
C4 O1 1_555 1_555
C5 C4 1_555 1_555
C6 C5 1_555 1_555
C7 C6 1_555 1_555
H5 C7 1_555 1_555
C8 C1 1_555 1_555
H6 C8 1_555 1_555
H7 C8 1_555 1_555
C9 C8 1_555 1_555
H8 C9 1_555 1_555
H9 C9 1_555 1_555
C10 C9 1_555 1_555
H10 C10 1_555 1_555
H11 C10 1_555 1_555
C11 C2 1_555 1_555
C12 C3 1_555 1_555
H12 C12 1_555 1_555
C13 C12 1_555 1_555
C14 C13 1_555 1_555
H13 C14 1_555 1_555
C15 C14 1_555 1_555
C16 C15 1_555 1_555
H14 C16 1_555 1_555
H15 C16 1_555 1_555
H16 C16 1_555 1_555
C17 C15 1_555 1_555
H17 C17 1_555 1_555
H18 C17 1_555 1_555
H19 C17 1_555 1_555
C18 C1 1_555 1_555
H20 C18 1_555 1_555
H21 C18 1_555 1_555
H22 C18 1_555 1_555
C19 C11 1_555 1_555
H23 C19 1_555 1_555
H24 C19 1_555 1_555
H25 C19 1_555 1_555
C20 C6 1_555 1_555
H26 C20 1_555 1_555
H27 C20 1_555 1_555
H28 C20 1_555 1_555
C21 O3 1_555 1_555
C22 C3 1_555 1_555
C23 O4 1_555 1_555
O6 H29 1_555 1_555
C24 O6 1_555 1_555
H30 C24 1_555 1_555
H31 C24 1_555 1_555
H32 C24 1_555 1_555
C4 C22 1_555 1_555
C5 C21 1_555 1_555
C7 C23 1_555 1_555
C10 C11 1_555 1_555
C11 C12 1_555 1_555
C22 C23 1_555 1_555

#END
