
#######################################################################
#
#                 Cambridge Crystallographic Data Centre
#                                CCDC 
#
#######################################################################
#
# If this CIF has been generated from an entry in the Cambridge 
# Structural Database, then it will include bibliographic, chemical, 
# crystal, experimental, refinement or atomic coordinate data resulting 
# from the CCDC's data processing and validation procedures.
#
#######################################################################

data_KEVPAD
_chemical_formula_moiety         'C16 H24 N2 O10'
_chemical_name_systematic        
2,3,4,5-Tetra-O-acetyl-N,N'-dimethyl-D-glucaramide
_symmetry_cell_setting           monoclinic
_symmetry_space_group_name_H-M   'P 21'
_symmetry_Int_Tables_number      4
_space_group_name_Hall           'P 2yb'
loop_
_symmetry_equiv_pos_site_id
_symmetry_equiv_pos_as_xyz
1 x,y,z
2 -x,1/2+y,-z
_cell_length_a                   8.7306(3)
_cell_length_b                   9.1545(3)
_cell_length_c                   12.9362(5)
_cell_angle_alpha                90
_cell_angle_beta                 106.910(2)
_cell_angle_gamma                90
_cell_volume                     989.213
_exptl_crystal_colour            colorless
_exptl_crystal_description       rod
_chemical_melting_point          '228-229 deg.C'
_cell_formula_units_Z            2
_exptl_crystal_recrystallization_method ethanol
loop_
_atom_site_label
_atom_site_type_symbol
_atom_site_fract_x
_atom_site_fract_y
_atom_site_fract_z
C1 C 0.4842(3) 0.6390(3) -0.0284(2)
C2 C 0.4145(3) 0.5890(3) 0.0606(2)
H1 H 0.3559 0.4974 0.0388
C3 C 0.5472(3) 0.5647(3) 0.1668(2)
H2 H 0.6294 0.5025 0.1515
C4 C 0.4895(4) 0.4903(3) 0.2538(2)
H3 H 0.4330 0.4000 0.2248
C5 C 0.6258(3) 0.4555(3) 0.3558(2)
H4 H 0.6791 0.5452 0.3892
C6 C 0.5582(3) 0.3707(3) 0.4351(2)
C7 C 0.4199(4) 0.3872(4) 0.5735(2)
H5 H 0.3345 0.3272 0.5311
H6 H 0.3766 0.4633 0.6076
H7 H 0.4921 0.3284 0.6278
C8 C 0.8743(4) 0.3321(3) 0.3984(2)
C9 C 0.9690(4) 0.2203(4) 0.3597(2)
H8 H 1.0801 0.2472 0.3820
H9 H 0.9317 0.2148 0.2823
H10 H 0.9562 0.1269 0.3899
C10 C 0.2381(4) 0.5318(4) 0.2867(2)
C11 C 0.1522(4) 0.6345(4) 0.3386(3)
H11 H 0.0455 0.5993 0.3295
H12 H 0.1475 0.7290 0.3056
H13 H 0.2079 0.6418 0.4142
C12 C 0.7603(3) 0.7364(3) 0.1883(2)
C13 C 0.8269(3) 0.8755(3) 0.2422(2)
H14 H 0.8658 0.8604 0.3189
H15 H 0.7446 0.9487 0.2268
H16 H 0.9134 0.9073 0.2158
C14 C 0.1673(3) 0.7069(3) -0.0068(2)
C15 C 0.0664(4) 0.8339(3) 0.0071(3)
H17 H 0.1071 0.9220 -0.0154
H18 H 0.0696 0.8420 0.0817
H19 H -0.0421 0.8188 -0.0363
C16 C 0.6175(4) 0.5653(3) -0.1606(2)
H20 H 0.5442 0.6171 -0.2189
H21 H 0.6489 0.4758 -0.1873
H22 H 0.7104 0.6246 -0.1303
N1 N 0.5401(3) 0.5328(3) -0.07787(17)
H23 H 0.5303 0.4434 -0.0605
N2 N 0.5057(3) 0.4515(3) 0.5040(2)
H24 H 0.5232 0.5441 0.5072
O1 O 0.5488(3) 0.2365(2) 0.43113(15)
O2 O 0.7348(2) 0.3636(2) 0.32170(15)
O3 O 0.9107(3) 0.3891(3) 0.48613(16)
O4 O 0.3831(2) 0.5856(2) 0.28851(15)
O5 O 0.1907(3) 0.4144(3) 0.2487(2)
O6 O 0.6212(2) 0.7018(2) 0.20946(14)
O7 O 0.8202(3) 0.6611(2) 0.13384(17)
O8 O 0.3056(2) 0.6991(2) 0.07637(14)
O9 O 0.1343(3) 0.6221(2) -0.07953(16)
O10 O 0.4895(3) 0.7700(2) -0.05041(15)
loop_
_geom_bond_atom_site_label_1
_geom_bond_atom_site_label_2
_geom_bond_site_symmetry_1
_geom_bond_site_symmetry_2
C1 C2 1_555 1_555
C2 H1 1_555 1_555
C3 C2 1_555 1_555
H2 C3 1_555 1_555
C4 C3 1_555 1_555
H3 C4 1_555 1_555
C5 C4 1_555 1_555
H4 C5 1_555 1_555
C6 C5 1_555 1_555
C7 H5 1_555 1_555
H6 C7 1_555 1_555
H7 C7 1_555 1_555
C8 C9 1_555 1_555
C9 H8 1_555 1_555
H9 C9 1_555 1_555
H10 C9 1_555 1_555
C10 C11 1_555 1_555
C11 H11 1_555 1_555
H12 C11 1_555 1_555
H13 C11 1_555 1_555
C12 C13 1_555 1_555
C13 H14 1_555 1_555
H15 C13 1_555 1_555
H16 C13 1_555 1_555
C14 C15 1_555 1_555
C15 H17 1_555 1_555
H18 C15 1_555 1_555
H19 C15 1_555 1_555
C16 H20 1_555 1_555
H21 C16 1_555 1_555
H22 C16 1_555 1_555
N1 C1 1_555 1_555
H23 N1 1_555 1_555
N2 C6 1_555 1_555
H24 N2 1_555 1_555
O1 C6 1_555 1_555
O2 C5 1_555 1_555
O3 C8 1_555 1_555
O4 C4 1_555 1_555
O5 C10 1_555 1_555
O6 C3 1_555 1_555
O7 C12 1_555 1_555
O8 C2 1_555 1_555
O9 C14 1_555 1_555
O10 C1 1_555 1_555
C7 N2 1_555 1_555
C8 O2 1_555 1_555
C10 O4 1_555 1_555
C12 O6 1_555 1_555
C14 O8 1_555 1_555
C16 N1 1_555 1_555

#END
