
#######################################################################
#
#                 Cambridge Crystallographic Data Centre
#                                CCDC 
#
#######################################################################
#
# If this CIF has been generated from an entry in the Cambridge 
# Structural Database, then it will include bibliographic, chemical, 
# crystal, experimental, refinement or atomic coordinate data resulting 
# from the CCDC's data processing and validation procedures.
#
#######################################################################

data_KEVVUE
_chemical_formula_moiety         'C15 H16 Br1 N3 O3'
_chemical_name_systematic        
't-Butyl (7-bromo-3-cyano-1-methyl-2-oxo-2,3-dihydro-1H-indol-3-yl)carbamate'
_symmetry_cell_setting           monoclinic
_symmetry_space_group_name_H-M   'P 21'
_symmetry_Int_Tables_number      4
_space_group_name_Hall           'P 2yb'
loop_
_symmetry_equiv_pos_site_id
_symmetry_equiv_pos_as_xyz
1 x,y,z
2 -x,1/2+y,-z
_cell_length_a                   9.752(5)
_cell_length_b                   8.789(4)
_cell_length_c                   10.209(5)
_cell_angle_alpha                90
_cell_angle_beta                 101.784(5)
_cell_angle_gamma                90
_cell_volume                     856.575
_exptl_crystal_colour            colorless
_exptl_crystal_description       block
_cell_formula_units_Z            2
loop_
_atom_site_label
_atom_site_type_symbol
_atom_site_fract_x
_atom_site_fract_y
_atom_site_fract_z
Br1 Br 0.59246(3) 0.94793(7) 0.26670(4)
C1 C 0.3254(3) 0.9373(6) 0.3493(3)
C2 C 0.4255(4) 1.0231(5) 0.3078(4)
C3 C 0.4028(5) 1.1799(5) 0.2933(5)
H1 H 0.4701 1.2405 0.2662
C4 C 0.2835(5) 1.2459(5) 0.3182(5)
H2 H 0.2688 1.3498 0.3047
C5 C 0.1849(5) 1.1583(5) 0.3633(5)
H3 H 0.1051 1.2026 0.3833
C6 C 0.2070(3) 1.0072(4) 0.3776(4)
C7 C 0.1134(3) 0.8893(4) 0.4179(4)
C8 C 0.2000(4) 0.7410(5) 0.4169(4)
C9 C 0.4221(5) 0.6623(5) 0.3597(5)
H4 H 0.3997 0.5695 0.4003
H5 H 0.5130 0.6969 0.4045
H6 H 0.4224 0.6445 0.2670
C10 C -0.0146(4) 0.8751(4) 0.3122(5)
C11 C 0.1732(4) 0.9063(4) 0.6587(4)
C12 C 0.2024(4) 0.9430(8) 0.8999(4)
C13 C 0.1002(5) 1.0067(6) 0.9785(5)
H7 H 0.0176 0.9445 0.9643
H8 H 0.0753 1.1087 0.9492
H9 H 0.1428 1.0075 1.0720
C14 C 0.3279(5) 1.0435(7) 0.9106(5)
H10 H 0.2988 1.1427 0.8764
H11 H 0.3908 1.0006 0.8595
H12 H 0.3746 1.0517 1.0027
C15 C 0.2421(7) 0.7814(7) 0.9388(6)
H13 H 0.3117 0.7472 0.8912
H14 H 0.1607 0.7176 0.9166
H15 H 0.2792 0.7762 1.0333
N1 N 0.3172(3) 0.7785(3) 0.3710(3)
N2 N -0.1095(3) 0.8661(5) 0.2306(4)
N3 N 0.0722(3) 0.9086(4) 0.5448(3)
O1 O 0.1659(3) 0.6152(3) 0.4436(3)
O2 O 0.2920(3) 0.8683(3) 0.6597(3)
O3 O 0.1178(2) 0.9464(6) 0.7621(2)
H16 H 0.008(3) 0.962(4) 0.537(3)
loop_
_geom_bond_atom_site_label_1
_geom_bond_atom_site_label_2
_geom_bond_site_symmetry_1
_geom_bond_site_symmetry_2
Br1 C2 1_555 1_555
C1 C2 1_555 1_555
C2 C3 1_555 1_555
C3 H1 1_555 1_555
C4 C3 1_555 1_555
H2 C4 1_555 1_555
C5 C4 1_555 1_555
H3 C5 1_555 1_555
C6 C1 1_555 1_555
C7 C6 1_555 1_555
C8 C7 1_555 1_555
C9 H4 1_555 1_555
H5 C9 1_555 1_555
H6 C9 1_555 1_555
C10 C7 1_555 1_555
C11 N3 1_555 1_555
C12 C13 1_555 1_555
C13 H7 1_555 1_555
H8 C13 1_555 1_555
H9 C13 1_555 1_555
C14 C12 1_555 1_555
H10 C14 1_555 1_555
H11 C14 1_555 1_555
H12 C14 1_555 1_555
C15 C12 1_555 1_555
H13 C15 1_555 1_555
H14 C15 1_555 1_555
H15 C15 1_555 1_555
N1 C1 1_555 1_555
N2 C10 1_555 1_555
N3 C7 1_555 1_555
O1 C8 1_555 1_555
O2 C11 1_555 1_555
O3 C11 1_555 1_555
H16 N3 1_555 1_555
C5 C6 1_555 1_555
C8 N1 1_555 1_555
C9 N1 1_555 1_555
C12 O3 1_555 1_555

#END
