
#######################################################################
#
#                 Cambridge Crystallographic Data Centre
#                                CCDC 
#
#######################################################################
#
# If this CIF has been generated from an entry in the Cambridge 
# Structural Database, then it will include bibliographic, chemical, 
# crystal, experimental, refinement or atomic coordinate data resulting 
# from the CCDC's data processing and validation procedures.
#
#######################################################################

data_KEVYUF
_chemical_formula_moiety         'C17 H23 N1 O1'
_chemical_name_systematic        
(2'R*(S*),2\a,3a\a,7a\a)-2'-(1-Phenylethyl)octahydrospiro(2H-indene-2,3'-oxaziridine)
_symmetry_cell_setting           orthorhombic
_symmetry_space_group_name_H-M   'P 21 21 21'
_symmetry_Int_Tables_number      19
_space_group_name_Hall           'P 2ac 2ab'
loop_
_symmetry_equiv_pos_site_id
_symmetry_equiv_pos_as_xyz
1 x,y,z
2 1/2+x,1/2-y,-z
3 -x,1/2+y,1/2-z
4 1/2-x,-y,1/2+z
_cell_length_a                   13.123(3)
_cell_length_b                   14.091(4)
_cell_length_c                   8.039(1)
_cell_angle_alpha                90
_cell_angle_beta                 90
_cell_angle_gamma                90
_cell_volume                     1486.54
_exptl_crystal_colour            colorless
_cell_formula_units_Z            4
loop_
_atom_site_label
_atom_site_type_symbol
_atom_site_fract_x
_atom_site_fract_y
_atom_site_fract_z
O1 O 0.1906(2) 0.0214(2) 0.6433(4)
N1 N 0.1141(2) 0.0956(2) 0.7024(4)
C1 C 0.2098(3) 0.1197(3) 0.6207(5)
C2 C 0.2979(3) 0.1655(3) 0.7053(6)
C3 C 0.3458(3) 0.2319(3) 0.5756(5)
C4 C 0.4015(3) 0.3196(3) 0.6470(6)
C5 C 0.3249(4) 0.3930(3) 0.7182(6)
C6 C 0.2465(4) 0.4193(3) 0.5911(8)
C7 C 0.1881(3) 0.3320(3) 0.5381(6)
C8 C 0.2548(3) 0.2557(3) 0.4628(5)
C9 C 0.2027(3) 0.1597(3) 0.4471(5)
C10 C 0.1134(3) 0.0995(3) 0.8872(5)
C11 C 0.0436(5) 0.0222(4) 0.9518(8)
C12 C 0.0774(3) 0.1984(2) 0.9314(4)
C13 C -0.0124(3) 0.2336(3) 0.8661(5)
C14 C -0.0429(4) 0.3244(3) 0.9007(6)
C15 C 0.0152(4) 0.3824(3) 0.9999(6)
C16 C 0.1028(4) 0.3479(3) 1.0680(6)
C17 C 0.1342(3) 0.2560(3) 1.0338(5)
H1 H 0.272(3) 0.202(3) 0.807(5)
H2 H 0.336(3) 0.126(3) 0.740(5)
H3 H 0.403(3) 0.193(2) 0.509(5)
H4 H 0.448(3) 0.293(3) 0.737(5)
H5 H 0.444(3) 0.351(3) 0.559(5)
H6 H 0.272(3) 0.367(3) 0.831(6)
H7 H 0.362(4) 0.456(4) 0.751(7)
H8 H 0.218(4) 0.465(4) 0.648(7)
H9 H 0.266(4) 0.458(4) 0.492(8)
H10 H 0.139(3) 0.302(3) 0.632(5)
H11 H 0.127(3) 0.350(3) 0.460(6)
H12 H 0.267(3) 0.272(3) 0.353(5)
H13 H 0.244(2) 0.114(3) 0.378(4)
H14 H 0.125(3) 0.167(3) 0.405(5)
H15 H 0.202(3) 0.098(3) 0.935(5)
H16 H 0.039(4) 0.032(3) 1.080(7)
H17 H -0.031(5) 0.036(4) 0.913(7)
H18 H 0.067(4) -0.042(3) 0.914(6)
H19 H -0.051(3) 0.190(3) 0.793(5)
H20 H -0.097(3) 0.348(3) 0.849(5)
H21 H -0.010(3) 0.447(3) 1.017(6)
H22 H 0.138(4) 0.390(3) 1.138(7)
loop_
_geom_bond_atom_site_label_1
_geom_bond_atom_site_label_2
_geom_bond_site_symmetry_1
_geom_bond_site_symmetry_2
O1 N1 1_555 1_555
N1 C1 1_555 1_555
C1 O1 1_555 1_555
C2 C1 1_555 1_555
C3 C2 1_555 1_555
C4 C3 1_555 1_555
C5 C4 1_555 1_555
C6 C5 1_555 1_555
C7 C6 1_555 1_555
C8 C3 1_555 1_555
C9 C1 1_555 1_555
C10 N1 1_555 1_555
C11 C10 1_555 1_555
C12 C10 1_555 1_555
C13 C12 1_555 1_555
C14 C13 1_555 1_555
C15 C14 1_555 1_555
C16 C15 1_555 1_555
C17 C12 1_555 1_555
H1 C2 1_555 1_555
H2 C2 1_555 1_555
H3 C3 1_555 1_555
H4 C4 1_555 1_555
H5 C4 1_555 1_555
H6 C5 1_555 1_555
H7 C5 1_555 1_555
H8 C6 1_555 1_555
H9 C6 1_555 1_555
H10 C7 1_555 1_555
H11 C7 1_555 1_555
H12 C8 1_555 1_555
H13 C9 1_555 1_555
H14 C9 1_555 1_555
H15 C10 1_555 1_555
H16 C11 1_555 1_555
H17 C11 1_555 1_555
H18 C11 1_555 1_555
H19 C13 1_555 1_555
H20 C14 1_555 1_555
H21 C15 1_555 1_555
H22 C16 1_555 1_555
C7 C8 1_555 1_555
C8 C9 1_555 1_555
C16 C17 1_555 1_555

#END
