
#######################################################################
#
#                 Cambridge Crystallographic Data Centre
#                                CCDC 
#
#######################################################################
#
# If this CIF has been generated from an entry in the Cambridge 
# Structural Database, then it will include bibliographic, chemical, 
# crystal, experimental, refinement or atomic coordinate data resulting 
# from the CCDC's data processing and validation procedures.
#
#######################################################################

data_KEVYOZ
_chemical_formula_moiety         'C21 H25 N1 O1'
_chemical_name_systematic        
(2S*(R*),3(trans))-6-Methyl-6-phenyl-2-(1'-phenylethyl)-1-oxa-2-azaspiro(2.5)octane
_symmetry_cell_setting           monoclinic
_symmetry_space_group_name_H-M   'C 2/c'
_symmetry_Int_Tables_number      15
_space_group_name_Hall           '-C 2yn'
loop_
_symmetry_equiv_pos_site_id
_symmetry_equiv_pos_as_xyz
1 x,y,z
2 1/2+x,1/2+y,z
3 -x,y,1/2-z
4 1/2-x,1/2+y,1/2-z
5 -x,-y,-z
6 1/2-x,1/2-y,-z
7 x,-y,1/2+z
8 1/2+x,1/2-y,1/2+z
_cell_length_a                   18.705(2)
_cell_length_b                   7.416(1)
_cell_length_c                   24.904(3)
_cell_angle_alpha                90
_cell_angle_beta                 95.38(1)
_cell_angle_gamma                90
_cell_volume                     3439.37
_exptl_crystal_colour            colorless
_chemical_melting_point          102-103deg.C
_cell_formula_units_Z            8
loop_
_atom_site_label
_atom_site_type_symbol
_atom_site_fract_x
_atom_site_fract_y
_atom_site_fract_z
O1 O 0.36260(8) -0.3134(2) 0.01881(6)
N1 N 0.41740(9) -0.1834(2) 0.04623(6)
C1 C 0.3412(1) -0.1661(3) 0.05031(8)
C2 C 0.3090(1) -0.0024(3) 0.02197(9)
C3 C 0.3188(1) 0.1554(3) 0.06139(9)
C4 C 0.2850(1) 0.1258(3) 0.11482(9)
C5 C 0.3107(1) -0.0568(3) 0.13988(8)
C6 C 0.3043(1) -0.2154(3) 0.09952(9)
C7 C 0.4621(1) -0.2689(3) 0.09080(8)
C8 C 0.5087(1) -0.1209(3) 0.11640(8)
C9 C 0.5422(1) 0.0028(3) 0.0856(1)
C10 C 0.5857(1) 0.1370(3) 0.1094(1)
C11 C 0.5955(1) 0.1487(3) 0.1654(1)
C12 C 0.5639(1) 0.0284(4) 0.1961(1)
C13 C 0.5197(1) -0.1066(3) 0.17198(9)
C14 C 0.5067(2) -0.4186(4) 0.0689(1)
C15 C 0.3083(1) 0.2745(3) 0.15535(8)
C16 C 0.3811(1) 0.3052(3) 0.1689(1)
C17 C 0.4045(2) 0.4360(4) 0.2060(1)
C18 C 0.3549(2) 0.5384(4) 0.2312(1)
C19 C 0.2839(2) 0.5091(4) 0.2181(1)
C20 C 0.2603(2) 0.3783(3) 0.1805(1)
C21 C 0.2022(1) 0.1209(4) 0.1028(1)
H1 H 0.254(1) -0.024(3) 0.011(1)
H2 H 0.331(1) 0.026(3) -0.010(1)
H3 H 0.298(1) 0.258(3) 0.0425(8)
H4 H 0.370(2) 0.177(3) 0.072(1)
H5 H 0.285(1) -0.086(3) 0.1719(9)
H6 H 0.364(1) -0.047(3) 0.1523(8)
H7 H 0.326(1) -0.320(3) 0.1164(9)
H8 H 0.435(1) -0.327(4) 0.119(1)
H9 H 0.536(2) 0.004(4) 0.051(2)
H10 H 0.608(1) 0.223(4) 0.089(1)
H11 H 0.619(1) 0.254(4) 0.182(1)
H12 H 0.571(1) 0.032(3) 0.239(1)
H13 H 0.496(2) -0.200(5) 0.192(1)
H14 H 0.532(2) -0.464(4) 0.104(1)
H15 H 0.538(1) -0.363(3) 0.041(1)
H16 H 0.477(2) -0.513(4) 0.052(1)
H17 H 0.414(2) 0.233(4) 0.154(1)
H18 H 0.458(2) 0.460(5) 0.212(2)
H19 H 0.368(2) 0.631(4) 0.256(1)
H20 H 0.247(1) 0.581(3) 0.238(1)
H21 H 0.214(2) 0.360(4) 0.174(1)
H22 H 0.175(2) 0.095(3) 0.139(1)
H23 H 0.182(2) 0.028(5) 0.073(2)
H24 H 0.175(2) 0.241(4) 0.087(1)
loop_
_geom_bond_atom_site_label_1
_geom_bond_atom_site_label_2
_geom_bond_site_symmetry_1
_geom_bond_site_symmetry_2
O1 N1 1_555 1_555
N1 C1 1_555 1_555
C1 O1 1_555 1_555
C2 C1 1_555 1_555
C3 C2 1_555 1_555
C4 C3 1_555 1_555
C5 C4 1_555 1_555
C6 C1 1_555 1_555
C7 N1 1_555 1_555
C8 C7 1_555 1_555
C9 C8 1_555 1_555
C10 C9 1_555 1_555
C11 C10 1_555 1_555
C12 C11 1_555 1_555
C13 C8 1_555 1_555
C14 C7 1_555 1_555
C15 C4 1_555 1_555
C16 C15 1_555 1_555
C17 C16 1_555 1_555
C18 C17 1_555 1_555
C19 C18 1_555 1_555
C20 C15 1_555 1_555
C21 C4 1_555 1_555
H1 C2 1_555 1_555
H2 C2 1_555 1_555
H3 C3 1_555 1_555
H4 C3 1_555 1_555
H5 C5 1_555 1_555
H6 C5 1_555 1_555
H7 C6 1_555 1_555
H8 C7 1_555 1_555
H9 C9 1_555 1_555
H10 C10 1_555 1_555
H11 C11 1_555 1_555
H12 C12 1_555 1_555
H13 C13 1_555 1_555
H14 C14 1_555 1_555
H15 C14 1_555 1_555
H16 C14 1_555 1_555
H17 C16 1_555 1_555
H18 C17 1_555 1_555
H19 C18 1_555 1_555
H20 C19 1_555 1_555
H21 C20 1_555 1_555
H22 C21 1_555 1_555
H23 C21 1_555 1_555
H24 C21 1_555 1_555
C5 C6 1_555 1_555
C12 C13 1_555 1_555
C19 C20 1_555 1_555

#END
