
#######################################################################
#
#                 Cambridge Crystallographic Data Centre
#                                CCDC 
#
#######################################################################
#
# If this CIF has been generated from an entry in the Cambridge 
# Structural Database, then it will include bibliographic, chemical, 
# crystal, experimental, refinement or atomic coordinate data resulting 
# from the CCDC's data processing and validation procedures.
#
#######################################################################

data_KEWDOI
_chemical_formula_moiety         'C28 H22 F1 N3'
_chemical_name_systematic        
'[1-(9-butyl-9H-carbazol-3-yl)-3-(4-fluorophenyl)prop-2-en-1-ylidene]propanedinitrile'
_symmetry_cell_setting           monoclinic
_symmetry_space_group_name_H-M   'P 21/c'
_symmetry_Int_Tables_number      14
_space_group_name_Hall           '-P 2ybc'
loop_
_symmetry_equiv_pos_site_id
_symmetry_equiv_pos_as_xyz
1 x,y,z
2 -x,1/2+y,1/2-z
3 -x,-y,-z
4 x,1/2-y,1/2+z
_cell_length_a                   12.758(5)
_cell_length_b                   14.223(5)
_cell_length_c                   12.808(5)
_cell_angle_alpha                90
_cell_angle_beta                 93.522(4)
_cell_angle_gamma                90
_cell_volume                     2319.71
_exptl_crystal_colour            orange
_exptl_crystal_description       bulk
_cell_formula_units_Z            4
_exptl_crystal_recrystallization_method 'Vapour deposition'
loop_
_atom_site_label
_atom_site_type_symbol
_atom_site_fract_x
_atom_site_fract_y
_atom_site_fract_z
C1 C 0.5108(2) 0.12073(19) 0.7155(2)
C2 C 0.6762(2) 0.1970(2) 0.7866(2)
H1 H 0.6369 0.2429 0.8181
C3 C 0.4604(2) 0.1095(2) 0.6186(2)
C4 C 0.4312(2) 0.1334(2) 1.0005(2)
C5 C 0.4884(2) 0.1223(2) 0.9060(2)
H2 H 0.5599 0.1100 0.9157
C6 C 0.7845(2) 0.1984(2) 0.7978(2)
C7 C 0.6262(2) 0.1252(2) 0.7271(2)
C8 C 0.8437(2) 0.1272(2) 0.7518(2)
C9 C 0.4493(2) 0.1279(2) 0.8073(2)
H3 H 0.3774 0.1371 0.7961
N1 N 0.94948(19) 0.1445(2) 0.7751(2)
C10 C 0.5135(3) 0.1158(2) 0.5235(2)
C11 C 0.6869(2) 0.0561(2) 0.6808(2)
H4 H 0.6532 0.0094 0.6404
C12 C 0.8589(2) 0.2604(2) 0.8538(2)
C13 C 0.7950(2) 0.0555(2) 0.6934(3)
H5 H 0.8342 0.0085 0.6637
F1 F 0.2816(2) 0.1731(2) 1.2726(2)
C14 C 0.9592(2) 0.2245(2) 0.8381(2)
C15 C 0.4848(3) 0.1251(2) 1.0977(3)
H6 H 0.5561 0.1107 1.1013
C16 C 0.3502(2) 0.0937(2) 0.6053(3)
N2 N 0.5514(3) 0.1226(3) 0.4451(2)
C17 C 0.4343(3) 0.1379(3) 1.1895(3)
H7 H 0.4708 0.1323 1.2543
N3 N 0.2608(2) 0.0801(3) 0.5937(3)
C18 C 0.3252(3) 0.1556(3) 0.9985(3)
H8 H 0.2875 0.1626 0.9345
C19 C 0.8476(3) 0.3402(3) 0.9146(3)
H9 H 0.7814 0.3643 0.9253
C20 C 1.0361(3) 0.3465(3) 0.9427(3)
H10 H 1.0951 0.3760 0.9738
C21 C 0.3306(3) 0.1585(3) 1.1825(3)
C22 C 0.9377(3) 0.3831(3) 0.9590(3)
H11 H 0.9319 0.4367 0.9998
C23 C 1.0495(3) 0.2681(3) 0.8822(3)
H12 H 1.1160 0.2450 0.8711
C24 C 1.0366(3) 0.0854(4) 0.7482(4)
H13 H 1.0975 0.1243 0.7377
H14 H 1.0182 0.0525 0.6833
C25 C 0.2741(3) 0.1675(3) 1.0903(3)
H15 H 0.2028 0.1814 1.0884
C26 C 1.0649(6) 0.0098(6) 0.8401(5)
H16 H 1.0701 0.0442 0.9056
H17 H 1.0051 -0.0321 0.8430
C27 C 1.1514(7) -0.0446(7) 0.8378(7)
H18 H 1.2150 -0.0092 0.8558
H19 H 1.1567 -0.0742 0.7701
C28 C 1.1286(12) -0.1160(7) 0.9220(8)
H20 H 1.1429 -0.0883 0.9898
H21 H 1.1724 -0.1703 0.9151
H22 H 1.0561 -0.1344 0.9143
loop_
_geom_bond_atom_site_label_1
_geom_bond_atom_site_label_2
_geom_bond_site_symmetry_1
_geom_bond_site_symmetry_2
C1 C3 1_555 1_555
C2 H1 1_555 1_555
C3 C10 1_555 1_555
C4 C5 1_555 1_555
C5 H2 1_555 1_555
C6 C2 1_555 1_555
C7 C1 1_555 1_555
C8 C6 1_555 1_555
C9 C1 1_555 1_555
H3 C9 1_555 1_555
N1 C8 1_555 1_555
C10 N2 1_555 1_555
C11 C7 1_555 1_555
H4 C11 1_555 1_555
C12 C6 1_555 1_555
C13 C8 1_555 1_555
H5 C13 1_555 1_555
F1 C21 1_555 1_555
C14 N1 1_555 1_555
C15 C4 1_555 1_555
H6 C15 1_555 1_555
C16 C3 1_555 1_555
C17 C15 1_555 1_555
H7 C17 1_555 1_555
N3 C16 1_555 1_555
C18 C4 1_555 1_555
H8 C18 1_555 1_555
C19 C12 1_555 1_555
H9 C19 1_555 1_555
C20 H10 1_555 1_555
C21 C17 1_555 1_555
C22 C19 1_555 1_555
H11 C22 1_555 1_555
C23 C14 1_555 1_555
H12 C23 1_555 1_555
C24 N1 1_555 1_555
H13 C24 1_555 1_555
H14 C24 1_555 1_555
C25 C18 1_555 1_555
H15 C25 1_555 1_555
C26 C24 1_555 1_555
H16 C26 1_555 1_555
H17 C26 1_555 1_555
C27 C26 1_555 1_555
H18 C27 1_555 1_555
H19 C27 1_555 1_555
C28 C27 1_555 1_555
H20 C28 1_555 1_555
H21 C28 1_555 1_555
H22 C28 1_555 1_555
C2 C7 1_555 1_555
C5 C9 1_555 1_555
C11 C13 1_555 1_555
C12 C14 1_555 1_555
C20 C22 1_555 1_555
C20 C23 1_555 1_555
C21 C25 1_555 1_555

#END
