
#######################################################################
#
#                 Cambridge Crystallographic Data Centre
#                                CCDC 
#
#######################################################################
#
# If this CIF has been generated from an entry in the Cambridge 
# Structural Database, then it will include bibliographic, chemical, 
# crystal, experimental, refinement or atomic coordinate data resulting 
# from the CCDC's data processing and validation procedures.
#
#######################################################################

data_KEWHUS
_chemical_formula_moiety         
'C27 H12 Cl3 N9 O6,2(C8 H20 N1 1+),2(C1 H4 O1),2(Br1 1-)'
_chemical_name_systematic        
'bis(tetraethylammonium) bis(bromide) 5,17,29-trichloro-2,8,14,20,26,32-hexaoxa-4,6,16,18,28,30,38,40,42-nonaazaheptacyclo[31.3.1.1^3,7^.1^9,13^.1^15,19^.1^21,25^.1^27,31^]dotetraconta-1(37),3(42),4,6,9(41),10,12,15(40),16,18,21(39),22,24,27(38),28,30,33,35-octadecaene methanol solvate'
_symmetry_cell_setting           triclinic
_symmetry_space_group_name_H-M   'P -1'
_symmetry_Int_Tables_number      2
_space_group_name_Hall           '-P 1'
loop_
_symmetry_equiv_pos_site_id
_symmetry_equiv_pos_as_xyz
1 x,y,z
2 -x,-y,-z
_cell_length_a                   13.586(3)
_cell_length_b                   14.973(3)
_cell_length_c                   15.435(3)
_cell_angle_alpha                62.32(3)
_cell_angle_beta                 67.84(3)
_cell_angle_gamma                77.10(3)
_cell_volume                     2570.7
_exptl_crystal_colour            colorless
_exptl_crystal_description       plate
_cell_formula_units_Z            2
loop_
_atom_site_label
_atom_site_type_symbol
_atom_site_fract_x
_atom_site_fract_y
_atom_site_fract_z
Br1 Br -0.09553(6) 0.51744(6) 0.88812(7)
Br2 Br 0.12022(7) 0.86249(6) 0.36402(7)
Cl1 Cl 0.3898(2) -0.07123(16) 0.6268(2)
Cl2 Cl 0.39124(17) 0.44798(16) 1.18895(15)
Cl3 Cl 0.45291(18) 0.98227(16) 0.13411(16)
O1 O 0.3339(6) 0.2899(4) 0.4824(5)
O2 O 0.3133(5) 0.1201(4) 0.8242(5)
O3 O 0.3144(5) 0.2849(4) 1.0179(4)
O4 O 0.3493(5) 0.6283(4) 0.8519(4)
O5 O 0.3888(5) 0.7856(4) 0.4993(4)
O6 O 0.3300(5) 0.6452(4) 0.3147(4)
N1 N 0.3625(6) 0.1243(5) 0.5514(6)
N2 N 0.3475(6) 0.0365(5) 0.7292(6)
N3 N 0.3228(6) 0.2152(5) 0.6540(5)
N4 N 0.3564(5) 0.3626(5) 1.0913(5)
N5 N 0.3340(5) 0.4564(5) 0.9250(5)
N6 N 0.3714(5) 0.5411(5) 1.0057(5)
N7 N 0.4184(5) 0.8722(5) 0.3300(5)
N8 N 0.3587(5) 0.7049(5) 0.4149(5)
N9 N 0.3926(6) 0.7985(5) 0.2340(5)
C1 C 0.3660(7) 0.0427(6) 0.6367(7)
C2 C 0.3287(6) 0.1243(6) 0.7333(6)
C3 C 0.3400(7) 0.2078(6) 0.5670(7)
C4 C 0.2682(7) 0.2016(6) 0.8540(6)
C5 C 0.1781(7) 0.2569(7) 0.8328(7)
H1 H 0.1481 0.2471 0.7915
C6 C 0.1328(7) 0.3265(6) 0.8729(7)
H2 H 0.0711 0.3663 0.8583
C7 C 0.1765(6) 0.3401(6) 0.9362(6)
H3 H 0.1439 0.3864 0.9664
C8 C 0.2679(7) 0.2833(6) 0.9515(6)
C9 C 0.3154(7) 0.2121(6) 0.9111(6)
H4 H 0.3781 0.1728 0.9233
C10 C 0.3336(6) 0.3736(6) 1.0100(6)
C11 C 0.3728(6) 0.4496(6) 1.0827(6)
C12 C 0.3503(6) 0.5381(6) 0.9296(6)
C13 C 0.3067(6) 0.6432(6) 0.7752(6)
C14 C 0.3692(7) 0.6943(6) 0.6755(6)
H5 H 0.4399 0.7091 0.6603
C15 C 0.3253(7) 0.7235(6) 0.5977(6)
C16 C 0.2247(7) 0.7015(7) 0.6179(7)
H6 H 0.1956 0.7239 0.5635
C17 C 0.1649(7) 0.6453(6) 0.7202(7)
H7 H 0.0965 0.6256 0.7350
C18 C 0.2054(7) 0.6182(6) 0.8009(7)
H8 H 0.1641 0.5836 0.8708
C19 C 0.3886(6) 0.7863(6) 0.4136(6)
C20 C 0.4188(6) 0.8710(6) 0.2467(6)
C21 C 0.3626(7) 0.7176(6) 0.3248(6)
C22 C 0.2843(7) 0.5596(6) 0.4026(6)
C23 C 0.1837(7) 0.5687(7) 0.4697(7)
H9 H 0.1501 0.6333 0.4635
C24 C 0.1338(7) 0.4811(6) 0.5459(7)
H10 H 0.0652 0.4859 0.5924
C25 C 0.1831(8) 0.3862(7) 0.5550(7)
H11 H 0.1485 0.3261 0.6063
C26 C 0.2830(7) 0.3821(6) 0.4875(6)
C27 C 0.3376(7) 0.4695(6) 0.4101(7)
H12 H 0.4077 0.4653 0.3657
O7 O -0.0745(6) 0.8551(5) 0.2934(6)
H13 H -0.0243 0.8570 0.3116
C28 C -0.0785(9) 0.9547(9) 0.2233(9)
H14 H -0.1230 0.9959 0.2596
H15 H -0.1089 0.9600 0.1726
H16 H -0.0063 0.9789 0.1878
N10 N -0.1748(5) 0.8465(5) 0.6384(5)
C29 C -0.0770(7) 0.8659(7) 0.6530(7)
H17 H -0.0122 0.8426 0.6096
H18 H -0.0742 0.9397 0.6275
C30 C -0.0742(8) 0.8148(7) 0.7636(7)
H19 H -0.1313 0.8452 0.8052
H20 H -0.0053 0.8237 0.7643
H21 H -0.0843 0.7425 0.7924
C31 C -0.2742(6) 0.8805(7) 0.7076(7)
H22 H -0.2782 0.8377 0.7805
H23 H -0.2674 0.9510 0.6931
C32 C -0.3778(7) 0.8752(8) 0.6934(7)
H24 H -0.4363 0.9088 0.7306
H25 H -0.3926 0.8043 0.7207
H26 H -0.3708 0.9090 0.6198
C33 C -0.1666(7) 0.9042(6) 0.5268(6)
H27 H -0.2188 0.8791 0.5138
H28 H -0.0947 0.8894 0.4850
C34 C -0.1857(8) 1.0190(7) 0.4891(7)
H29 H -0.2613 1.0358 0.5180
H30 H -0.1651 1.0510 0.4136
H31 H -0.1430 1.0437 0.5116
C35 C -0.1804(7) 0.7357(6) 0.6683(7)
H32 H -0.2463 0.7270 0.6606
H33 H -0.1859 0.6973 0.7421
C36 C -0.0866(7) 0.6907(7) 0.6062(8)
H34 H -0.0963 0.6190 0.6309
H35 H -0.0209 0.6975 0.6144
H36 H -0.0818 0.7264 0.5332
N11 N 0.7874(5) 0.2114(5) 0.9400(5)
C37 C 0.7939(7) 0.1529(6) 0.8808(7)
H37 H 0.8654 0.1596 0.8287
H38 H 0.7414 0.1846 0.8430
C38 C 0.7744(9) 0.0418(7) 0.9436(8)
H39 H 0.7765 0.0119 0.8982
H40 H 0.7045 0.0335 0.9966
H41 H 0.8297 0.0078 0.9766
C39 C 0.8785(8) 0.1732(7) 0.9855(7)
H42 H 0.8739 0.0996 1.0283
H43 H 0.9465 0.1838 0.9281
C40 C 0.8819(9) 0.2224(8) 1.0507(8)
H44 H 0.8814 0.2959 1.0110
H45 H 0.9469 0.1982 1.0704
H46 H 0.8196 0.2048 1.1130
C41 C 0.6804(8) 0.1990(7) 1.0275(7)
H47 H 0.6787 0.1284 1.0806
H48 H 0.6770 0.2435 1.0602
C42 C 0.5835(7) 0.2228(8) 0.9948(7)
H49 H 0.5805 0.2943 0.9471
H50 H 0.5197 0.2090 1.0556
H51 H 0.5867 0.1808 0.9604
C43 C 0.7952(7) 0.3246(6) 0.8641(6)
H52 H 0.7314 0.3470 0.8412
H53 H 0.7929 0.3634 0.9022
C44 C 0.8934(7) 0.3518(7) 0.7688(7)
H54 H 0.8945 0.3176 0.7276
H55 H 0.9575 0.3303 0.7899
H56 H 0.8914 0.4251 0.7275
C45 C 0.6139(9) 0.5480(9) 0.3542(9)
H57 H 0.5714 0.5031 0.4231
H58 H 0.6182 0.6127 0.3537
H59 H 0.6857 0.5167 0.3366
O8 O 0.5654(6) 0.5643(6) 0.2814(6)
H60 H 0.6059 0.5401 0.2399
loop_
_geom_bond_atom_site_label_1
_geom_bond_atom_site_label_2
_geom_bond_site_symmetry_1
_geom_bond_site_symmetry_2
Cl1 C1 1_555 1_555
Cl2 C11 1_555 1_555
Cl3 C20 1_555 1_555
O1 C3 1_555 1_555
O2 C2 1_555 1_555
O3 C8 1_555 1_555
O4 C12 1_555 1_555
O5 C15 1_555 1_555
O6 C21 1_555 1_555
N1 C1 1_555 1_555
N2 C1 1_555 1_555
N3 C2 1_555 1_555
N4 C10 1_555 1_555
N5 C10 1_555 1_555
N6 C11 1_555 1_555
N7 C19 1_555 1_555
N8 C19 1_555 1_555
N9 C20 1_555 1_555
C2 N2 1_555 1_555
C3 N1 1_555 1_555
C4 O2 1_555 1_555
C5 C4 1_555 1_555
H1 C5 1_555 1_555
C6 C5 1_555 1_555
H2 C6 1_555 1_555
C7 C6 1_555 1_555
H3 C7 1_555 1_555
C8 C7 1_555 1_555
C9 C4 1_555 1_555
H4 C9 1_555 1_555
C10 O3 1_555 1_555
C11 N4 1_555 1_555
C12 N5 1_555 1_555
C13 O4 1_555 1_555
C14 C13 1_555 1_555
H5 C14 1_555 1_555
C15 C14 1_555 1_555
C16 C15 1_555 1_555
H6 C16 1_555 1_555
C17 C16 1_555 1_555
H7 C17 1_555 1_555
C18 C13 1_555 1_555
H8 C18 1_555 1_555
C19 O5 1_555 1_555
C20 N7 1_555 1_555
C21 N8 1_555 1_555
C22 O6 1_555 1_555
C23 C22 1_555 1_555
H9 C23 1_555 1_555
C24 C23 1_555 1_555
H10 C24 1_555 1_555
C25 C24 1_555 1_555
H11 C25 1_555 1_555
C26 O1 1_555 1_555
C27 C22 1_555 1_555
H12 C27 1_555 1_555
O7 H13 1_555 1_555
C28 O7 1_555 1_555
H14 C28 1_555 1_555
H15 C28 1_555 1_555
H16 C28 1_555 1_555
N10 C29 1_555 1_555
C29 H17 1_555 1_555
H18 C29 1_555 1_555
C30 C29 1_555 1_555
H19 C30 1_555 1_555
H20 C30 1_555 1_555
H21 C30 1_555 1_555
C31 N10 1_555 1_555
H22 C31 1_555 1_555
H23 C31 1_555 1_555
C32 C31 1_555 1_555
H24 C32 1_555 1_555
H25 C32 1_555 1_555
H26 C32 1_555 1_555
C33 N10 1_555 1_555
H27 C33 1_555 1_555
H28 C33 1_555 1_555
C34 C33 1_555 1_555
H29 C34 1_555 1_555
H30 C34 1_555 1_555
H31 C34 1_555 1_555
C35 N10 1_555 1_555
H32 C35 1_555 1_555
H33 C35 1_555 1_555
C36 C35 1_555 1_555
H34 C36 1_555 1_555
H35 C36 1_555 1_555
H36 C36 1_555 1_555
N11 C37 1_555 1_555
C37 H37 1_555 1_555
H38 C37 1_555 1_555
C38 C37 1_555 1_555
H39 C38 1_555 1_555
H40 C38 1_555 1_555
H41 C38 1_555 1_555
C39 N11 1_555 1_555
H42 C39 1_555 1_555
H43 C39 1_555 1_555
C40 C39 1_555 1_555
H44 C40 1_555 1_555
H45 C40 1_555 1_555
H46 C40 1_555 1_555
C41 N11 1_555 1_555
H47 C41 1_555 1_555
H48 C41 1_555 1_555
C42 C41 1_555 1_555
H49 C42 1_555 1_555
H50 C42 1_555 1_555
H51 C42 1_555 1_555
C43 N11 1_555 1_555
H52 C43 1_555 1_555
H53 C43 1_555 1_555
C44 C43 1_555 1_555
H54 C44 1_555 1_555
H55 C44 1_555 1_555
H56 C44 1_555 1_555
C45 H57 1_555 1_555
H58 C45 1_555 1_555
H59 C45 1_555 1_555
O8 C45 1_555 1_555
H60 O8 1_555 1_555
N3 C3 1_555 1_555
N6 C12 1_555 1_555
N9 C21 1_555 1_555
C8 C9 1_555 1_555
C17 C18 1_555 1_555
C25 C26 1_555 1_555
C26 C27 1_555 1_555

#END
