
#######################################################################
#
#                 Cambridge Crystallographic Data Centre
#                                CCDC 
#
#######################################################################
#
# If this CIF has been generated from an entry in the Cambridge 
# Structural Database, then it will include bibliographic, chemical, 
# crystal, experimental, refinement or atomic coordinate data resulting 
# from the CCDC's data processing and validation procedures.
#
#######################################################################

data_KEWHIG
_chemical_formula_moiety         'C27 H12 Cl3 N9 O6,C3 H6 O1'
_chemical_name_systematic        
'5,17,29-trichloro-2,8,14,20,26,32-hexaoxa-4,6,16,18,28,30,38,40,42-nonaazaheptacyclo[31.3.1.1^3,7^.1^9,13^.1^15,19^.1^21,25^.1^27,31^]dotetraconta-1(37),3(42),4,6,9(41),10,12,15(40),16,18,21(39),22,24,27(38),28,30,33,35-octadecaene acetone solvate'
_symmetry_cell_setting           monoclinic
_symmetry_space_group_name_H-M   'C 2/c'
_symmetry_Int_Tables_number      15
_space_group_name_Hall           '-C 2yn'
loop_
_symmetry_equiv_pos_site_id
_symmetry_equiv_pos_as_xyz
1 x,y,z
2 -x,y,1/2-z
3 1/2+x,1/2+y,z
4 1/2-x,1/2+y,1/2-z
5 -x,-y,-z
6 x,-y,1/2+z
7 1/2-x,1/2-y,-z
8 1/2+x,1/2-y,1/2+z
_cell_length_a                   28.697(6)
_cell_length_b                   12.164(2)
_cell_length_c                   19.606(4)
_cell_angle_alpha                90
_cell_angle_beta                 113.203(3)
_cell_angle_gamma                90
_cell_volume                     6290.3
_exptl_crystal_colour            colorless
_exptl_crystal_description       block
_cell_formula_units_Z            8
loop_
_atom_site_label
_atom_site_type_symbol
_atom_site_fract_x
_atom_site_fract_y
_atom_site_fract_z
Cl1 Cl 0.47111(2) 0.66352(6) 0.61353(3)
Cl2 Cl 0.71264(3) -0.10913(7) 0.74634(4)
Cl3 Cl 0.87652(3) 0.80214(5) 0.89327(4)
O1 O 0.63030(6) 0.69107(14) 0.82561(9)
O2 O 0.56762(6) 0.34810(15) 0.74274(9)
O3 O 0.74045(6) 0.23796(15) 0.88343(10)
O4 O 0.87423(6) 0.06774(14) 0.86290(10)
O5 O 0.94175(6) 0.43344(14) 0.92777(10)
O6 O 0.78581(6) 0.48237(14) 0.92993(10)
N1 N 0.55596(7) 0.67466(18) 0.72812(10)
N2 N 0.52421(7) 0.49656(19) 0.68334(10)
N3 N 0.60147(7) 0.51534(16) 0.79046(10)
N4 N 0.72614(7) 0.07407(17) 0.81929(10)
N5 N 0.79757(8) -0.00727(17) 0.80580(11)
N6 N 0.80763(7) 0.15714(17) 0.87609(11)
N7 N 0.90864(7) 0.60205(17) 0.90888(11)
N8 N 0.82713(7) 0.63306(16) 0.90971(10)
N9 N 0.86229(7) 0.45289(16) 0.92922(11)
C1 C 0.74917(8) 0.5526(2) 0.93768(13)
C2 C 0.75402(9) 0.5796(2) 1.00857(13)
H1 H 0.7827 0.5559 1.0505
C3 C 0.71670(9) 0.6414(2) 1.01729(13)
H2 H 0.7194 0.6602 1.0657
C4 C 0.67516(9) 0.6764(2) 0.95610(13)
H3 H 0.6495 0.7200 0.9621
C5 C 0.67166(8) 0.6471(2) 0.88661(12)
C6 C 0.70825(9) 0.5849(2) 0.87539(13)
H4 H 0.7053 0.5654 0.8270
C7 C 0.59490(8) 0.6224(2) 0.78035(12)
C8 C 0.52308(8) 0.6049(2) 0.68280(12)
C9 C 0.56469(8) 0.4577(2) 0.73966(12)
C10 C 0.60566(9) 0.3017(2) 0.80665(13)
C11 C 0.59190(9) 0.2694(2) 0.86290(14)
H5 H 0.5580 0.2785 0.8585
C12 C 0.62792(10) 0.2234(2) 0.92616(15)
H6 H 0.6189 0.2017 0.9659
C13 C 0.67714(10) 0.2090(2) 0.93157(14)
H7 H 0.7021 0.1768 0.9746
C14 C 0.68915(9) 0.2419(2) 0.87374(13)
C15 C 0.65439(9) 0.2896(2) 0.81010(13)
H8 H 0.6635 0.3128 0.7708
C16 C 0.75788(8) 0.15247(19) 0.85824(12)
C17 C 0.74943(9) -0.0018(2) 0.79595(12)
C18 C 0.82456(9) 0.07467(19) 0.84858(12)
C19 C 0.90752(9) 0.1431(2) 0.91365(13)
C20 C 0.94248(9) 0.1017(2) 0.97880(14)
H9 H 0.9425 0.0259 0.9904
C21 C 0.97762(10) 0.1728(2) 1.02717(14)
H10 H 1.0025 0.1455 1.0722
C22 C 0.97678(9) 0.2835(2) 1.01055(14)
H11 H 1.0007 0.3327 1.0439
C23 C 0.94075(8) 0.3210(2) 0.94487(13)
C24 C 0.90611(8) 0.2524(2) 0.89452(13)
H12 H 0.8822 0.2791 0.8485
C25 C 0.90203(8) 0.49679(19) 0.92183(13)
C26 C 0.87044(9) 0.6631(2) 0.90530(12)
C27 C 0.82665(8) 0.5260(2) 0.92291(12)
O7 O 0.61661(8) 0.08212(19) 0.42529(11)
C28 C 0.59941(11) 0.0298(3) 0.30196(17)
H13 H 0.5842 0.0868 0.2644
H14 H 0.5867 -0.0425 0.2807
H15 H 0.6364 0.0317 0.3183
C29 C 0.58566(10) 0.0502(2) 0.36672(15)
C30 C 0.53262(12) 0.0293(4) 0.35683(19)
H16 H 0.5300 0.0322 0.4052
H17 H 0.5222 -0.0436 0.3347
H18 H 0.5105 0.0854 0.3240
loop_
_geom_bond_atom_site_label_1
_geom_bond_atom_site_label_2
_geom_bond_site_symmetry_1
_geom_bond_site_symmetry_2
Cl1 C8 1_555 1_555
Cl2 C17 1_555 1_555
Cl3 C26 1_555 1_555
O1 C5 1_555 1_555
O2 C9 1_555 1_555
O3 C14 1_555 1_555
O4 C18 1_555 1_555
O5 C23 1_555 1_555
O6 C1 1_555 1_555
N1 C7 1_555 1_555
N2 C8 1_555 1_555
N3 C7 1_555 1_555
N4 C16 1_555 1_555
N5 C17 1_555 1_555
N6 C16 1_555 1_555
N7 C25 1_555 1_555
N8 C26 1_555 1_555
N9 C25 1_555 1_555
C1 C2 1_555 1_555
C2 H1 1_555 1_555
C3 C2 1_555 1_555
H2 C3 1_555 1_555
C4 C3 1_555 1_555
H3 C4 1_555 1_555
C5 C4 1_555 1_555
C6 C1 1_555 1_555
H4 C6 1_555 1_555
C7 O1 1_555 1_555
C8 N1 1_555 1_555
C9 N2 1_555 1_555
C10 O2 1_555 1_555
C11 C10 1_555 1_555
H5 C11 1_555 1_555
C12 C11 1_555 1_555
H6 C12 1_555 1_555
C13 C12 1_555 1_555
H7 C13 1_555 1_555
C14 C13 1_555 1_555
C15 C10 1_555 1_555
H8 C15 1_555 1_555
C16 O3 1_555 1_555
C17 N4 1_555 1_555
C18 N5 1_555 1_555
C19 O4 1_555 1_555
C20 C19 1_555 1_555
H9 C20 1_555 1_555
C21 C20 1_555 1_555
H10 C21 1_555 1_555
C22 C21 1_555 1_555
H11 C22 1_555 1_555
C23 C22 1_555 1_555
C24 C19 1_555 1_555
H12 C24 1_555 1_555
C25 O5 1_555 1_555
C26 N7 1_555 1_555
C27 O6 1_555 1_555
O7 C29 1_555 1_555
C28 H13 1_555 1_555
H14 C28 1_555 1_555
H15 C28 1_555 1_555
C29 C28 1_555 1_555
C30 C29 1_555 1_555
H16 C30 1_555 1_555
H17 C30 1_555 1_555
H18 C30 1_555 1_555
N3 C9 1_555 1_555
N6 C18 1_555 1_555
N8 C27 1_555 1_555
N9 C27 1_555 1_555
C5 C6 1_555 1_555
C14 C15 1_555 1_555
C23 C24 1_555 1_555

#END
