
#######################################################################
#
#                 Cambridge Crystallographic Data Centre
#                                CCDC 
#
#######################################################################
#
# If this CIF has been generated from an entry in the Cambridge 
# Structural Database, then it will include bibliographic, chemical, 
# crystal, experimental, refinement or atomic coordinate data resulting 
# from the CCDC's data processing and validation procedures.
#
#######################################################################

data_KEWHOM
_chemical_formula_moiety         
'C27 H12 Cl3 N9 O6,3(C8 H20 N1 1+),C1 H4 O1,C2 H3 N1,3(Cl1 1-)'
_chemical_name_systematic        
'tris(tetraethylammonium) tris(chloride) 5,17,29-trichloro-2,8,14,20,26,32-hexaoxa-4,6,16,18,28,30,38,40,42-nonaazaheptacyclo[31.3.1.1^3,7^.1^9,13^.1^15,19^.1^21,25^.1^27,31^]dotetraconta-1(37),3(42),4,6,9(41),10,12,15(40),16,18,21(39),22,24,27(38),28,30,33,35-octadecaene acetonitrile methanol solvate'
_symmetry_cell_setting           monoclinic
_symmetry_space_group_name_H-M   'P 21/c'
_symmetry_Int_Tables_number      14
_space_group_name_Hall           '-P 2ybc'
loop_
_symmetry_equiv_pos_site_id
_symmetry_equiv_pos_as_xyz
1 x,y,z
2 -x,1/2+y,1/2-z
3 -x,-y,-z
4 x,1/2-y,1/2+z
_cell_length_a                   13.777(4)
_cell_length_b                   17.409(5)
_cell_length_c                   26.825(9)
_cell_angle_alpha                90
_cell_angle_beta                 93.706(5)
_cell_angle_gamma                90
_cell_volume                     6420.36
_exptl_crystal_colour            colorless
_exptl_crystal_description       plate
_cell_formula_units_Z            4
loop_
_atom_site_label
_atom_site_type_symbol
_atom_site_fract_x
_atom_site_fract_y
_atom_site_fract_z
Cl1 Cl 0.56770(11) 1.16216(7) 0.73127(5)
Cl2 Cl 1.16797(9) 0.75193(7) 0.56813(5)
Cl3 Cl 0.59164(11) 0.35606(7) 0.75938(6)
O1 O 0.6493(2) 0.89386(16) 0.73636(11)
O2 O 0.5643(2) 1.00397(18) 0.58306(12)
O3 O 0.8606(2) 0.88404(17) 0.54161(12)
O4 O 0.8619(2) 0.61878(17) 0.55237(12)
O5 O 0.5760(2) 0.49406(19) 0.60197(13)
O6 O 0.6673(3) 0.62464(17) 0.74760(11)
N1 N 0.6070(3) 1.0170(2) 0.73196(14)
N2 N 0.5634(3) 1.0746(2) 0.65245(15)
N3 N 0.6050(3) 0.9415(2) 0.65760(13)
N4 N 1.0006(3) 0.8205(2) 0.55208(13)
N5 N 1.0008(3) 0.6837(2) 0.55718(13)
N6 N 0.8503(3) 0.7517(2) 0.54843(13)
N7 N 0.5828(3) 0.4322(2) 0.67544(17)
N8 N 0.6265(3) 0.5009(2) 0.75076(15)
N9 N 0.6169(3) 0.5667(2) 0.67254(14)
C1 C 0.5797(3) 1.0746(2) 0.70212(18)
C2 C 0.6198(3) 0.9526(2) 0.70684(16)
C3 C 0.5793(3) 1.0061(2) 0.63343(17)
C4 C 0.6136(3) 0.9489(2) 0.55575(16)
C5 C 0.7132(3) 0.9378(2) 0.56487(16)
H1 H 0.7485 0.9625 0.5919
C6 C 0.7582(3) 0.8896(2) 0.53310(16)
C7 C 0.7096(4) 0.8540(3) 0.49205(17)
H2 H 0.7433 0.8219 0.4703
C8 C 0.6105(4) 0.8670(3) 0.48405(18)
H3 H 0.5756 0.8433 0.4564
C9 C 0.5614(4) 0.9142(3) 0.51591(17)
H4 H 0.4934 0.9226 0.5105
C10 C 0.9033(3) 0.8149(2) 0.54718(15)
C11 C 1.0419(3) 0.7523(3) 0.55764(15)
C12 C 0.9037(3) 0.6884(3) 0.55212(15)
C13 C 0.7598(3) 0.6097(2) 0.54483(17)
C14 C 0.7192(3) 0.5634(2) 0.57941(17)
H5 H 0.7565 0.5433 0.6074
C15 C 0.6208(3) 0.5476(3) 0.57116(18)
C16 C 0.5658(4) 0.5763(3) 0.5306(2)
H6 H 0.4983 0.5652 0.5263
C17 C 0.6102(4) 0.6215(3) 0.49596(19)
H7 H 0.5732 0.6406 0.4675
C18 C 0.7090(4) 0.6388(3) 0.50282(18)
H8 H 0.7403 0.6695 0.4794
C19 C 0.5939(3) 0.4988(3) 0.65208(19)
C20 C 0.6005(3) 0.4394(3) 0.7246(2)
C21 C 0.6366(3) 0.5621(3) 0.72151(18)
C22 C 0.6974(3) 0.6909(2) 0.72235(16)
C23 C 0.7738(3) 0.6891(3) 0.69207(17)
H9 H 0.8031 0.6418 0.6837
C24 C 0.8075(4) 0.7590(3) 0.67390(17)
H10 H 0.8603 0.7590 0.6528
C25 C 0.7652(3) 0.8284(3) 0.68609(15)
H11 H 0.7885 0.8757 0.6738
C26 C 0.6883(3) 0.8264(2) 0.71662(16)
C27 C 0.6525(3) 0.7588(2) 0.73480(16)
H12 H 0.5988 0.7587 0.7552
Cl4 Cl 0.83827(8) 0.48781(7) 0.69097(4)
Cl5 Cl 0.90381(9) 0.73717(7) 0.43014(4)
Cl6 Cl 0.81886(8) 0.46158(7) 0.17369(4)
C28 C 0.3428(5) 0.2685(5) 0.6336(4)
H13 H 0.3388 0.2702 0.5970
H14 H 0.3526 0.2153 0.6448
H15 H 0.3975 0.3001 0.6467
O7 O 0.2596(5) 0.2957(5) 0.6506(3)
H16 H 0.2121 0.2796 0.6323
N10 N 0.7756(3) 0.2662(2) 0.60235(13)
C29 C 0.7819(4) 0.2263(3) 0.55263(17)
H17 H 0.8497 0.2302 0.5427
H18 H 0.7400 0.2543 0.5273
C30 C 0.7523(4) 0.1419(3) 0.55134(19)
H19 H 0.7648 0.1200 0.5187
H20 H 0.6829 0.1376 0.5568
H21 H 0.7902 0.1140 0.5776
C31 C 0.7810(4) 0.3528(3) 0.59430(18)
H22 H 0.7226 0.3690 0.5735
H23 H 0.7787 0.3785 0.6271
C32 C 0.8699(4) 0.3804(3) 0.5698(2)
H24 H 0.8667 0.3636 0.5349
H25 H 0.9283 0.3591 0.5874
H26 H 0.8726 0.4367 0.5711
C33 C 0.6808(4) 0.2476(3) 0.62564(19)
H27 H 0.6787 0.2765 0.6574
H28 H 0.6801 0.1922 0.6339
C34 C 0.5897(4) 0.2664(4) 0.5927(2)
H29 H 0.5943 0.2429 0.5598
H30 H 0.5837 0.3223 0.5891
H31 H 0.5324 0.2462 0.6082
C35 C 0.8601(4) 0.2379(3) 0.63766(17)
H32 H 0.8564 0.1813 0.6399
H33 H 0.9219 0.2509 0.6227
C36 C 0.8635(4) 0.2705(3) 0.69017(19)
H34 H 0.8609 0.3267 0.6886
H35 H 0.9240 0.2544 0.7085
H36 H 0.8078 0.2513 0.7074
N11 N 0.8667(3) 0.9887(2) 0.36497(15)
C37 C 0.9676(5) 0.9976(4) 0.3895(3)
H37 H 0.9753 1.0511 0.4015
H38 H 1.0151 0.9893 0.3638
C38 C 0.9931(5) 0.9436(4) 0.4332(2)
H39 H 0.9890 0.8903 0.4216
H40 H 0.9473 0.9516 0.4592
H41 H 1.0594 0.9544 0.4469
C39 C 0.8389(5) 0.9078(4) 0.3528(3)
H42 H 0.7703 0.9072 0.3392
H43 H 0.8423 0.8778 0.3843
C40 C 0.9006(5) 0.8674(4) 0.3158(2)
H44 H 0.8976 0.8962 0.2843
H45 H 0.8757 0.8153 0.3096
H46 H 0.9681 0.8648 0.3295
C41 C 0.8582(6) 1.0370(4) 0.3182(2)
H47 H 0.9026 1.0149 0.2944
H48 H 0.7911 1.0310 0.3031
C42 C 0.8789(7) 1.1206(4) 0.3222(2)
H49 H 0.8803 1.1427 0.2886
H50 H 0.9421 1.1285 0.3404
H51 H 0.8280 1.1458 0.3402
C43 C 0.7964(5) 1.0201(5) 0.4037(3)
H52 H 0.8011 0.9861 0.4334
H53 H 0.8193 1.0716 0.4146
C44 C 0.6925(5) 1.0261(5) 0.3858(3)
H54 H 0.6851 1.0655 0.3597
H55 H 0.6536 1.0402 0.4137
H56 H 0.6701 0.9765 0.3720
N12 N 0.8456(3) 0.4904(2) 0.34945(14)
C45 C 0.9322(4) 0.4361(3) 0.3439(2)
H57 H 0.9918 0.4677 0.3426
H58 H 0.9399 0.4037 0.3742
C46 C 0.9258(5) 0.3846(4) 0.2993(2)
H59 H 0.9074 0.4148 0.2694
H60 H 0.8766 0.3449 0.3037
H61 H 0.9890 0.3603 0.2956
C47 C 0.8289(4) 0.5421(4) 0.3040(2)
H62 H 0.8175 0.5094 0.2740
H63 H 0.7691 0.5726 0.3078
C48 C 0.9116(4) 0.5966(4) 0.2956(3)
H64 H 0.8933 0.6303 0.2672
H65 H 0.9696 0.5671 0.2884
H66 H 0.9255 0.6278 0.3256
C49 C 0.8653(5) 0.5366(4) 0.3956(2)
H67 H 0.8135 0.5759 0.3966
H68 H 0.9274 0.5642 0.3924
C50 C 0.8716(6) 0.4958(4) 0.4448(2)
H69 H 0.9201 0.4547 0.4442
H70 H 0.8080 0.4737 0.4509
H71 H 0.8907 0.5323 0.4715
C51 C 0.7555(4) 0.4390(4) 0.3518(2)
H72 H 0.7700 0.3974 0.3763
H73 H 0.7411 0.4150 0.3187
C52 C 0.6648(4) 0.4832(4) 0.3668(3)
H74 H 0.6510 0.5254 0.3432
H75 H 0.6768 0.5039 0.4005
H76 H 0.6089 0.4482 0.3660
N13 N 0.3977(5) 0.7458(5) 0.5551(3)
C53 C 0.5707(4) 0.7511(3) 0.5993(2)
H77 H 0.6177 0.7523 0.5734
H78 H 0.5825 0.7057 0.6204
H79 H 0.5781 0.7975 0.6199
C54 C 0.4720(5) 0.7481(4) 0.5758(3)
loop_
_geom_bond_atom_site_label_1
_geom_bond_atom_site_label_2
_geom_bond_site_symmetry_1
_geom_bond_site_symmetry_2
Cl1 C1 1_555 1_555
Cl2 C11 1_555 1_555
Cl3 C20 1_555 1_555
O1 C2 1_555 1_555
O2 C3 1_555 1_555
O3 C6 1_555 1_555
O4 C12 1_555 1_555
O5 C15 1_555 1_555
O6 C21 1_555 1_555
N1 C1 1_555 1_555
N2 C1 1_555 1_555
N3 C2 1_555 1_555
N4 C10 1_555 1_555
N5 C11 1_555 1_555
N6 C10 1_555 1_555
N7 C19 1_555 1_555
N8 C20 1_555 1_555
N9 C19 1_555 1_555
C2 N1 1_555 1_555
C3 N2 1_555 1_555
C4 O2 1_555 1_555
C5 C4 1_555 1_555
H1 C5 1_555 1_555
C6 C5 1_555 1_555
C7 C6 1_555 1_555
H2 C7 1_555 1_555
C8 C7 1_555 1_555
H3 C8 1_555 1_555
C9 C4 1_555 1_555
H4 C9 1_555 1_555
C10 O3 1_555 1_555
C11 N4 1_555 1_555
C12 N5 1_555 1_555
C13 O4 1_555 1_555
C14 C13 1_555 1_555
H5 C14 1_555 1_555
C15 C14 1_555 1_555
C16 C15 1_555 1_555
H6 C16 1_555 1_555
C17 C16 1_555 1_555
H7 C17 1_555 1_555
C18 C13 1_555 1_555
H8 C18 1_555 1_555
C19 O5 1_555 1_555
C20 N7 1_555 1_555
C21 N8 1_555 1_555
C22 O6 1_555 1_555
C23 C22 1_555 1_555
H9 C23 1_555 1_555
C24 C23 1_555 1_555
H10 C24 1_555 1_555
C25 C24 1_555 1_555
H11 C25 1_555 1_555
C26 O1 1_555 1_555
C27 C22 1_555 1_555
H12 C27 1_555 1_555
C28 H13 1_555 1_555
H14 C28 1_555 1_555
H15 C28 1_555 1_555
O7 C28 1_555 1_555
H16 O7 1_555 1_555
N10 C29 1_555 1_555
C29 H17 1_555 1_555
H18 C29 1_555 1_555
C30 C29 1_555 1_555
H19 C30 1_555 1_555
H20 C30 1_555 1_555
H21 C30 1_555 1_555
C31 N10 1_555 1_555
H22 C31 1_555 1_555
H23 C31 1_555 1_555
C32 C31 1_555 1_555
H24 C32 1_555 1_555
H25 C32 1_555 1_555
H26 C32 1_555 1_555
C33 N10 1_555 1_555
H27 C33 1_555 1_555
H28 C33 1_555 1_555
C34 C33 1_555 1_555
H29 C34 1_555 1_555
H30 C34 1_555 1_555
H31 C34 1_555 1_555
C35 N10 1_555 1_555
H32 C35 1_555 1_555
H33 C35 1_555 1_555
C36 C35 1_555 1_555
H34 C36 1_555 1_555
H35 C36 1_555 1_555
H36 C36 1_555 1_555
N11 C37 1_555 1_555
C37 H37 1_555 1_555
H38 C37 1_555 1_555
C38 C37 1_555 1_555
H39 C38 1_555 1_555
H40 C38 1_555 1_555
H41 C38 1_555 1_555
C39 N11 1_555 1_555
H42 C39 1_555 1_555
H43 C39 1_555 1_555
C40 C39 1_555 1_555
H44 C40 1_555 1_555
H45 C40 1_555 1_555
H46 C40 1_555 1_555
C41 N11 1_555 1_555
H47 C41 1_555 1_555
H48 C41 1_555 1_555
C42 C41 1_555 1_555
H49 C42 1_555 1_555
H50 C42 1_555 1_555
H51 C42 1_555 1_555
C43 N11 1_555 1_555
H52 C43 1_555 1_555
H53 C43 1_555 1_555
C44 C43 1_555 1_555
H54 C44 1_555 1_555
H55 C44 1_555 1_555
H56 C44 1_555 1_555
N12 C45 1_555 1_555
C45 H57 1_555 1_555
H58 C45 1_555 1_555
C46 C45 1_555 1_555
H59 C46 1_555 1_555
H60 C46 1_555 1_555
H61 C46 1_555 1_555
C47 N12 1_555 1_555
H62 C47 1_555 1_555
H63 C47 1_555 1_555
C48 C47 1_555 1_555
H64 C48 1_555 1_555
H65 C48 1_555 1_555
H66 C48 1_555 1_555
C49 N12 1_555 1_555
H67 C49 1_555 1_555
H68 C49 1_555 1_555
C50 C49 1_555 1_555
H69 C50 1_555 1_555
H70 C50 1_555 1_555
H71 C50 1_555 1_555
C51 N12 1_555 1_555
H72 C51 1_555 1_555
H73 C51 1_555 1_555
C52 C51 1_555 1_555
H74 C52 1_555 1_555
H75 C52 1_555 1_555
H76 C52 1_555 1_555
N13 C54 1_555 1_555
C53 H77 1_555 1_555
H78 C53 1_555 1_555
H79 C53 1_555 1_555
C54 C53 1_555 1_555
N3 C3 1_555 1_555
N6 C12 1_555 1_555
N9 C21 1_555 1_555
C8 C9 1_555 1_555
C17 C18 1_555 1_555
C25 C26 1_555 1_555
C26 C27 1_555 1_555

#END
