
#######################################################################
#
#                 Cambridge Crystallographic Data Centre
#                                CCDC 
#
#######################################################################
#
# If this CIF has been generated from an entry in the Cambridge 
# Structural Database, then it will include bibliographic, chemical, 
# crystal, experimental, refinement or atomic coordinate data resulting 
# from the CCDC's data processing and validation procedures.
#
#######################################################################

data_KEWLUW
_chemical_formula_moiety         'C11 H12 N2 O3'
_chemical_name_systematic        
'ethyl 3-methyl-2-oxo-2,3-dihydro-1H-benzimidazole-1-carboxylate'
_symmetry_cell_setting           monoclinic
_symmetry_space_group_name_H-M   'P 21/c'
_symmetry_Int_Tables_number      14
_space_group_name_Hall           '-P 2ybc'
loop_
_symmetry_equiv_pos_site_id
_symmetry_equiv_pos_as_xyz
1 x,y,z
2 -x,1/2+y,1/2-z
3 -x,-y,-z
4 x,1/2-y,1/2+z
_cell_length_a                   4.6419(3)
_cell_length_b                   24.9757(17)
_cell_length_c                   9.3367(6)
_cell_angle_alpha                90
_cell_angle_beta                 97.371(2)
_cell_angle_gamma                90
_cell_volume                     1073.5
_exptl_crystal_description       cubic
_cell_formula_units_Z            4
loop_
_atom_site_label
_atom_site_type_symbol
_atom_site_fract_x
_atom_site_fract_y
_atom_site_fract_z
O1 O 0.3545(4) 0.60376(6) 0.59324(19)
O2 O 0.6152(4) 0.53863(7) 0.7145(2)
O3 O 0.4965(4) 0.70489(7) 0.6628(2)
N1 N 0.7191(4) 0.62616(7) 0.7653(2)
N2 N 0.8803(5) 0.70555(8) 0.8450(2)
C1 C 1.0510(5) 0.66714(10) 0.9236(3)
C2 C 0.9533(5) 0.61715(9) 0.8754(3)
C3 C 0.5613(6) 0.58487(11) 0.6913(3)
C4 C 1.0819(6) 0.57137(10) 0.9340(3)
H1 H 1.0176 0.5377 0.9018
C5 C 0.6754(6) 0.68226(10) 0.7471(3)
C6 C 1.2804(6) 0.67331(11) 1.0312(3)
H2 H 1.3458 0.7070 1.0630
C7 C 0.1876(6) 0.56255(11) 0.5089(3)
H3 H 0.0848 0.5404 0.5711
H4 H 0.3155 0.5398 0.4613
C8 C 1.3125(6) 0.57740(12) 1.0435(3)
H5 H 1.4030 0.5471 1.0863
C9 C 1.4087(6) 0.62708(12) 1.0896(3)
H6 H 1.5649 0.6297 1.1624
C10 C -0.0229(6) 0.59056(12) 0.3996(3)
H7 H -0.1428 0.6141 0.4479
H8 H -0.1428 0.5646 0.3445
H9 H 0.0816 0.6110 0.3361
C11 C 0.9108(7) 0.76339(10) 0.8603(3)
H10 H 1.0286 0.7767 0.7908
H11 H 1.0013 0.7718 0.9559
H12 H 0.7224 0.7798 0.8442
loop_
_geom_bond_atom_site_label_1
_geom_bond_atom_site_label_2
_geom_bond_site_symmetry_1
_geom_bond_site_symmetry_2
O1 C3 1_555 1_555
O2 C3 1_555 1_555
O3 C5 1_555 1_555
N1 C2 1_555 1_555
N2 C1 1_555 1_555
C1 C2 1_555 1_555
C2 C4 1_555 1_555
C3 N1 1_555 1_555
C4 H1 1_555 1_555
C5 N1 1_555 1_555
C6 C1 1_555 1_555
H2 C6 1_555 1_555
C7 O1 1_555 1_555
H3 C7 1_555 1_555
H4 C7 1_555 1_555
C8 C4 1_555 1_555
H5 C8 1_555 1_555
C9 C6 1_555 1_555
H6 C9 1_555 1_555
C10 C7 1_555 1_555
H7 C10 1_555 1_555
H8 C10 1_555 1_555
H9 C10 1_555 1_555
C11 N2 1_555 1_555
H10 C11 1_555 1_555
H11 C11 1_555 1_555
H12 C11 1_555 1_555
N2 C5 1_555 1_555
C8 C9 1_555 1_555

#END
