
#######################################################################
#
#                 Cambridge Crystallographic Data Centre
#                                CCDC 
#
#######################################################################
#
# If this CIF has been generated from an entry in the Cambridge 
# Structural Database, then it will include bibliographic, chemical, 
# crystal, experimental, refinement or atomic coordinate data resulting 
# from the CCDC's data processing and validation procedures.
#
#######################################################################

data_KEWMAD
_chemical_formula_moiety         'C10 H13 N2 O1 1+,Br1 1-'
_chemical_name_systematic        
'1-(2-hydroxyethyl)-3-methyl-1H-3,1-benzimidazol-3-ium bromide'
_symmetry_cell_setting           monoclinic
_symmetry_space_group_name_H-M   'P 21/n'
_symmetry_Int_Tables_number      14
_space_group_name_Hall           '-P 2yn'
loop_
_symmetry_equiv_pos_site_id
_symmetry_equiv_pos_as_xyz
1 x,y,z
2 1/2-x,1/2+y,1/2-z
3 -x,-y,-z
4 1/2+x,1/2-y,1/2+z
_cell_length_a                   8.9971(5)
_cell_length_b                   8.2161(5)
_cell_length_c                   14.9390(9)
_cell_angle_alpha                90
_cell_angle_beta                 92.864(2)
_cell_angle_gamma                90
_cell_volume                     1102.93
_exptl_crystal_colour            white
_exptl_crystal_description       Cubic
_cell_formula_units_Z            4
loop_
_atom_site_label
_atom_site_type_symbol
_atom_site_fract_x
_atom_site_fract_y
_atom_site_fract_z
Br1 Br 0.47196(4) 0.03492(4) 0.75795(2)
N1 N 0.5150(3) 0.4507(3) 0.66575(15)
N2 N 0.3464(3) 0.3149(3) 0.58696(17)
O1 O 0.5099(3) 0.3852(4) 0.85807(17)
H1 H 0.4984 0.2921 0.8392
C1 C 0.5871(3) 0.3752(3) 0.59682(18)
C2 C 0.4803(3) 0.2892(3) 0.54636(19)
C3 C 0.7353(3) 0.3785(4) 0.5748(2)
H2 H 0.8076 0.4347 0.6091
C4 C 0.5149(4) 0.2043(4) 0.4703(2)
H3 H 0.4431 0.1468 0.4364
C5 C 0.3722(4) 0.4103(4) 0.6573(2)
H4 H 0.3001 0.4445 0.6956
C6 C 0.5831(4) 0.5529(4) 0.7366(2)
H5 H 0.5128 0.6362 0.7526
H6 H 0.6697 0.6069 0.7143
C7 C 0.6603(4) 0.2092(4) 0.4477(2)
H7 H 0.6877 0.1545 0.3966
C8 C 0.7685(4) 0.2937(4) 0.4991(2)
H8 H 0.8662 0.2926 0.4815
C9 C 0.6286(4) 0.4565(4) 0.8179(2)
H9 H 0.6974 0.3720 0.8014
H10 H 0.6806 0.5273 0.8610
C10 C 0.2018(4) 0.2441(5) 0.5593(3)
H11 H 0.2027 0.1297 0.5723
H12 H 0.1829 0.2604 0.4961
H13 H 0.1251 0.2961 0.5914
loop_
_geom_bond_atom_site_label_1
_geom_bond_atom_site_label_2
_geom_bond_site_symmetry_1
_geom_bond_site_symmetry_2
N1 C1 1_555 1_555
N2 C2 1_555 1_555
O1 H1 1_555 1_555
C1 C2 1_555 1_555
C2 C4 1_555 1_555
C3 C1 1_555 1_555
H2 C3 1_555 1_555
C4 H3 1_555 1_555
C5 N1 1_555 1_555
H4 C5 1_555 1_555
C6 N1 1_555 1_555
H5 C6 1_555 1_555
H6 C6 1_555 1_555
C7 C4 1_555 1_555
H7 C7 1_555 1_555
C8 C3 1_555 1_555
H8 C8 1_555 1_555
C9 O1 1_555 1_555
H9 C9 1_555 1_555
H10 C9 1_555 1_555
C10 N2 1_555 1_555
H11 C10 1_555 1_555
H12 C10 1_555 1_555
H13 C10 1_555 1_555
N2 C5 1_555 1_555
C6 C9 1_555 1_555
C7 C8 1_555 1_555

#END
