
#######################################################################
#
#                 Cambridge Crystallographic Data Centre
#                                CCDC 
#
#######################################################################
#
# If this CIF has been generated from an entry in the Cambridge 
# Structural Database, then it will include bibliographic, chemical, 
# crystal, experimental, refinement or atomic coordinate data resulting 
# from the CCDC's data processing and validation procedures.
#
#######################################################################

data_KEWNUW02
_chemical_formula_moiety         'C10 H10 F3 I1 O1'
_chemical_name_systematic        
3,3-dimethyl-1-(trifluoromethyl)-1,3-dihydro-1,2-benziodoxole
_symmetry_cell_setting           monoclinic
_symmetry_space_group_name_H-M   'P 21/n'
_symmetry_Int_Tables_number      14
_space_group_name_Hall           '-P 2yn'
loop_
_symmetry_equiv_pos_site_id
_symmetry_equiv_pos_as_xyz
1 x,y,z
2 1/2-x,1/2+y,1/2-z
3 -x,-y,-z
4 1/2+x,1/2-y,1/2+z
_cell_length_a                   9.1507(5)
_cell_length_b                   9.0836(5)
_cell_length_c                   13.3668(7)
_cell_angle_alpha                90
_cell_angle_beta                 93.2446(16)
_cell_angle_gamma                90
_cell_volume                     1109.28
_exptl_crystal_colour            colorless
_exptl_crystal_description       block
_cell_formula_units_Z            4
loop_
_atom_site_label
_atom_site_type_symbol
_atom_site_fract_x
_atom_site_fract_y
_atom_site_fract_z
I1 I 0.595768(4) 0.532982(4) 0.356044(3)
F1 F 0.88994(17) 0.4488(3) 0.30372(13)
F2 F 0.8187(2) 0.6230(2) 0.20114(12)
F3 F 0.7472(2) 0.3995(2) 0.17368(11)
O1 O 0.40865(12) 0.58560(14) 0.43607(7)
C1 C 0.77466(9) 0.50009(11) 0.24668(6)
C2 C 0.32560(9) 0.70305(9) 0.39322(5)
C3 C 0.38762(17) 0.85183(13) 0.43162(8)
C4 C 0.16844(13) 0.68253(19) 0.42262(9)
C5 C 0.33670(9) 0.69646(9) 0.27975(5)
C6 C 0.23505(12) 0.76211(12) 0.21155(7)
C7 C 0.25286(13) 0.75499(13) 0.10881(7)
C8 C 0.37352(11) 0.68347(11) 0.07292(6)
C9 C 0.47744(9) 0.61802(9) 0.13922(5)
C10 C 0.45582(8) 0.62644(8) 0.24122(5)
H1 H 0.384307 0.855949 0.51296
H2 H 0.320946 0.940717 0.398635
H3 H 0.500204 0.863697 0.410223
H4 H 0.128393 0.575448 0.39647
H5 H 0.099059 0.768432 0.388416
H6 H 0.164474 0.687486 0.503899
H7 H 0.136759 0.815438 0.236434
H8 H 0.16913 0.801802 0.056959
H9 H 0.383647 0.674033 -0.007688
H10 H 0.571728 0.565663 0.107801
loop_
_geom_bond_atom_site_label_1
_geom_bond_atom_site_label_2
_geom_bond_site_symmetry_1
_geom_bond_site_symmetry_2
I1 O1 1_555 1_555
F1 C1 1_555 1_555
F2 C1 1_555 1_555
F3 C1 1_555 1_555
O1 C2 1_555 1_555
C1 I1 1_555 1_555
C2 C3 1_555 1_555
C3 H1 1_555 1_555
C4 C2 1_555 1_555
C5 C2 1_555 1_555
C6 C5 1_555 1_555
C7 C6 1_555 1_555
C8 C7 1_555 1_555
C9 C8 1_555 1_555
C10 I1 1_555 1_555
H2 C3 1_555 1_555
H3 C3 1_555 1_555
H4 C4 1_555 1_555
H5 C4 1_555 1_555
H6 C4 1_555 1_555
H7 C6 1_555 1_555
H8 C7 1_555 1_555
H9 C8 1_555 1_555
H10 C9 1_555 1_555
C5 C10 1_555 1_555
C9 C10 1_555 1_555

#END
