
#######################################################################
#
#                 Cambridge Crystallographic Data Centre
#                                CCDC 
#
#######################################################################
#
# If this CIF has been generated from an entry in the Cambridge 
# Structural Database, then it will include bibliographic, chemical, 
# crystal, experimental, refinement or atomic coordinate data resulting 
# from the CCDC's data processing and validation procedures.
#
#######################################################################

data_KEWNUW01
_chemical_formula_moiety         'C10 H10 F3 I1 O1'
_chemical_name_systematic        
3,3-dimethyl-1-(trifluoromethyl)-1,3-dihydro-1,2-benziodoxole
_symmetry_cell_setting           monoclinic
_symmetry_space_group_name_H-M   'P 21/n'
_symmetry_Int_Tables_number      14
_space_group_name_Hall           '-P 2yn'
loop_
_symmetry_equiv_pos_site_id
_symmetry_equiv_pos_as_xyz
1 x,y,z
2 1/2-x,1/2+y,1/2-z
3 -x,-y,-z
4 1/2+x,1/2-y,1/2+z
_cell_length_a                   9.1507(5)
_cell_length_b                   9.0836(5)
_cell_length_c                   13.3668(7)
_cell_angle_alpha                90
_cell_angle_beta                 93.2446(16)
_cell_angle_gamma                90
_cell_volume                     1109.28
_exptl_crystal_colour            colorless
_exptl_crystal_description       block
_cell_formula_units_Z            4
loop_
_atom_site_label
_atom_site_type_symbol
_atom_site_fract_x
_atom_site_fract_y
_atom_site_fract_z
I1 I 0.59578(2) 0.53298(2) 0.35605(2)
F1 F 0.89002(8) 0.44989(10) 0.30358(6)
F2 F 0.81859(8) 0.62299(8) 0.20120(5)
F3 F 0.74727(8) 0.39939(8) 0.17395(5)
O1 O 0.40862(7) 0.58529(7) 0.43612(4)
C1 C 0.77438(10) 0.50003(11) 0.24671(6)
C2 C 0.32553(9) 0.70305(10) 0.39321(6)
C3 C 0.38690(14) 0.85171(12) 0.43152(8)
H1 H 0.383581 0.855749 0.504624
H2 H 0.327781 0.931919 0.401467
H3 H 0.488431 0.862111 0.412876
C4 C 0.16804(11) 0.68175(16) 0.42259(8)
H4 H 0.132308 0.585363 0.399116
H5 H 0.106051 0.759309 0.391862
H6 H 0.164696 0.686927 0.495661
C5 C 0.33671(9) 0.69645(9) 0.27963(5)
C6 C 0.23537(12) 0.76200(12) 0.21141(7)
H7 H 0.153190 0.812154 0.235337
C7 C 0.25321(13) 0.75480(12) 0.10900(7)
H8 H 0.182711 0.798877 0.063466
C8 C 0.37345(11) 0.68357(11) 0.07303(6)
H9 H 0.385196 0.679319 0.002924
C9 C 0.47730(9) 0.61809(9) 0.13924(5)
H10 H 0.560274 0.569236 0.115381
C10 C 0.45578(8) 0.62646(8) 0.24115(5)
loop_
_geom_bond_atom_site_label_1
_geom_bond_atom_site_label_2
_geom_bond_site_symmetry_1
_geom_bond_site_symmetry_2
I1 O1 1_555 1_555
F1 C1 1_555 1_555
F2 C1 1_555 1_555
F3 C1 1_555 1_555
O1 C2 1_555 1_555
C1 I1 1_555 1_555
C2 C3 1_555 1_555
C3 H1 1_555 1_555
H2 C3 1_555 1_555
H3 C3 1_555 1_555
C4 C2 1_555 1_555
H4 C4 1_555 1_555
H5 C4 1_555 1_555
H6 C4 1_555 1_555
C5 C2 1_555 1_555
C6 C5 1_555 1_555
H7 C6 1_555 1_555
C7 C6 1_555 1_555
H8 C7 1_555 1_555
C8 C7 1_555 1_555
H9 C8 1_555 1_555
C9 C8 1_555 1_555
H10 C9 1_555 1_555
C10 I1 1_555 1_555
C5 C10 1_555 1_555
C9 C10 1_555 1_555

#END
