
#######################################################################
#
#                 Cambridge Crystallographic Data Centre
#                                CCDC 
#
#######################################################################
#
# If this CIF has been generated from an entry in the Cambridge 
# Structural Database, then it will include bibliographic, chemical, 
# crystal, experimental, refinement or atomic coordinate data resulting 
# from the CCDC's data processing and validation procedures.
#
#######################################################################

data_KEWPUA
_chemical_formula_moiety         'C21 H14 Cl1 N3 O1'
_chemical_name_systematic        
6-benzyl-3-chlorobenzimidazo[2,1-b]quinazolin-12(6H)-one
_symmetry_cell_setting           monoclinic
_symmetry_space_group_name_H-M   'P 21/n'
_symmetry_Int_Tables_number      14
_space_group_name_Hall           '-P 2yn'
loop_
_symmetry_equiv_pos_site_id
_symmetry_equiv_pos_as_xyz
1 x,y,z
2 1/2-x,1/2+y,1/2-z
3 -x,-y,-z
4 1/2+x,1/2-y,1/2+z
_cell_length_a                   5.070(4)
_cell_length_b                   20.668(16)
_cell_length_c                   16.000(13)
_cell_angle_alpha                90
_cell_angle_beta                 93.39(2)
_cell_angle_gamma                90
_cell_volume                     1673.65
_exptl_crystal_colour            white
_exptl_crystal_description       Needle
_cell_formula_units_Z            4
loop_
_atom_site_label
_atom_site_type_symbol
_atom_site_fract_x
_atom_site_fract_y
_atom_site_fract_z
Cl1 Cl 1.3402(5) 0.05599(11) 0.34460(15)
O1 O 0.6171(10) 0.1726(2) 0.6535(3)
N1 N 0.4801(11) 0.2347(3) 0.5410(3)
N2 N 0.6414(12) 0.2246(3) 0.4031(4)
N3 N 0.3051(12) 0.2976(3) 0.4399(4)
C1 C 0.6379(14) 0.1860(3) 0.5792(4)
C2 C 0.2901(13) 0.2733(3) 0.5782(4)
C3 C 0.8060(14) 0.1755(3) 0.4359(4)
C4 C 0.8121(13) 0.1558(3) 0.5201(4)
C5 C 0.4893(15) 0.2512(3) 0.4559(4)
C6 C 0.1764(14) 0.3121(3) 0.5127(5)
C7 C 0.4317(15) 0.3852(3) 0.3431(4)
C8 C 0.9757(14) 0.1452(4) 0.3825(5)
H1 H 0.9780 0.1582 0.3269
C9 C 0.9780(15) 0.1050(3) 0.5483(5)
H2 H 0.9742 0.0913 0.6035
C10 C 0.6048(16) 0.3837(4) 0.2793(4)
H3 H 0.6136 0.3476 0.2449
C11 C 0.4213(16) 0.4392(4) 0.3932(5)
H4 H 0.3041 0.4407 0.4357
C12 C 0.2084(16) 0.2776(4) 0.6584(5)
H5 H 0.2870 0.2528 0.7015
C13 C 1.1455(16) 0.0751(3) 0.4964(5)
H6 H 1.2587 0.0422 0.5156
C14 C -0.0229(16) 0.3549(4) 0.5287(5)
H7 H -0.0985 0.3812 0.4866
C15 C 0.2566(16) 0.3270(4) 0.3568(4)
H8 H 0.0731 0.3403 0.3500
H9 H 0.2865 0.2948 0.3143
C16 C 1.1389(16) 0.0964(4) 0.4119(5)
C17 C 0.5869(19) 0.4915(4) 0.3800(5)
H10 H 0.5802 0.5276 0.4143
C18 C 0.0050(18) 0.3201(4) 0.6726(5)
H11 H -0.0576 0.3235 0.7259
C19 C -0.1060(16) 0.3577(4) 0.6079(6)
H12 H -0.2424 0.3859 0.6191
C20 C 0.7676(18) 0.4380(4) 0.2674(5)
H13 H 0.8833 0.4377 0.2244
C21 C 0.7571(18) 0.4906(4) 0.3180(6)
H14 H 0.8667 0.5259 0.3101
loop_
_geom_bond_atom_site_label_1
_geom_bond_atom_site_label_2
_geom_bond_site_symmetry_1
_geom_bond_site_symmetry_2
Cl1 C16 1_555 1_555
O1 C1 1_555 1_555
N1 C1 1_555 1_555
N2 C3 1_555 1_555
N3 C5 1_555 1_555
C1 C4 1_555 1_555
C2 N1 1_555 1_555
C3 C4 1_555 1_555
C4 C9 1_555 1_555
C5 N1 1_555 1_555
C6 N3 1_555 1_555
C7 C10 1_555 1_555
C8 C3 1_555 1_555
H1 C8 1_555 1_555
C9 H2 1_555 1_555
C10 H3 1_555 1_555
C11 C7 1_555 1_555
H4 C11 1_555 1_555
C12 C2 1_555 1_555
H5 C12 1_555 1_555
C13 C9 1_555 1_555
H6 C13 1_555 1_555
C14 C6 1_555 1_555
H7 C14 1_555 1_555
C15 N3 1_555 1_555
H8 C15 1_555 1_555
H9 C15 1_555 1_555
C16 C8 1_555 1_555
C17 C11 1_555 1_555
H10 C17 1_555 1_555
C18 C12 1_555 1_555
H11 C18 1_555 1_555
C19 C14 1_555 1_555
H12 C19 1_555 1_555
C20 C10 1_555 1_555
H13 C20 1_555 1_555
C21 C17 1_555 1_555
H14 C21 1_555 1_555
N2 C5 1_555 1_555
C2 C6 1_555 1_555
C7 C15 1_555 1_555
C13 C16 1_555 1_555
C18 C19 1_555 1_555
C20 C21 1_555 1_555

#END
