
#######################################################################
#
#                 Cambridge Crystallographic Data Centre
#                                CCDC 
#
#######################################################################
#
# If this CIF has been generated from an entry in the Cambridge 
# Structural Database, then it will include bibliographic, chemical, 
# crystal, experimental, refinement or atomic coordinate data resulting 
# from the CCDC's data processing and validation procedures.
#
#######################################################################

data_KEWREJ
_chemical_compound_source        'seeds of Pseudolarix kaempferi'
_chemical_formula_moiety         'C30 H42 O6'
_chemical_name_systematic        'Pseudolarolide E'
_chemical_properties_biological  'potent cytotoxic agent'
_symmetry_cell_setting           orthorhombic
_symmetry_space_group_name_H-M   'P 21 21 21'
_symmetry_Int_Tables_number      19
_space_group_name_Hall           'P 2ac 2ab'
loop_
_symmetry_equiv_pos_site_id
_symmetry_equiv_pos_as_xyz
1 x,y,z
2 1/2+x,1/2-y,-z
3 -x,1/2+y,1/2-z
4 1/2-x,-y,1/2+z
_cell_length_a                   12.005(1)
_cell_length_b                   21.972(2)
_cell_length_c                   10.256(1)
_cell_angle_alpha                90
_cell_angle_beta                 90
_cell_angle_gamma                90
_cell_volume                     2705.26
_chemical_melting_point          209-211deg.C
_cell_formula_units_Z            4
loop_
_atom_site_label
_atom_site_type_symbol
_atom_site_fract_x
_atom_site_fract_y
_atom_site_fract_z
C1 C -0.0342(2) -0.09367(9) 0.3446(2)
C2 C 0.0074(2) -0.14861(10) 0.3171(2)
C3 C -0.0206(2) -0.18962(10) 0.2098(2)
C4 C -0.2004(2) -0.13895(10) 0.1389(2)
C5 C -0.1649(2) -0.07192(10) 0.1505(2)
C6 C -0.0830(2) -0.05010(11) 0.0486(2)
C7 C -0.0641(2) 0.01920(10) 0.0503(2)
C8 C 0.0574(2) 0.03813(10) 0.0229(2)
C9 C -0.0582(2) -0.00640(11) 0.4670(2)
C10 C -0.1213(2) -0.05745(9) 0.2826(2)
C11 C 0.0209(2) 0.04894(11) 0.4714(2)
C12 C 0.0328(2) 0.08802(10) 0.3460(2)
C13 C 0.1336(2) 0.07769(9) 0.2528(2)
C14 C 0.1049(2) 0.09166(9) 0.1026(2)
C15 C 0.2207(2) 0.10971(12) 0.0435(2)
C16 C 0.3012(2) 0.11610(9) 0.1568(2)
C17 C 0.2283(2) 0.12480(9) 0.2765(2)
C18 C 0.3019(2) 0.12613(10) 0.3980(2)
C19 C 0.3922(2) 0.17498(10) 0.3739(2)
C20 C 0.4507(2) 0.17197(9) 0.2438(2)
C21 C 0.5298(2) 0.22457(10) 0.2146(3)
C22 C 0.6216(2) 0.19549(11) 0.1344(3)
C23 C -0.2640(2) -0.15025(13) 0.0125(3)
C24 C -0.2698(2) -0.15929(12) 0.2555(3)
C25 C -0.1389(2) -0.00865(10) 0.3569(2)
C26 C 0.1798(2) 0.01252(9) 0.2659(2)
C27 C 0.0259(2) 0.14619(11) 0.0876(3)
C28 C 0.2430(2) 0.14183(15) 0.5260(3)
C29 C 0.7358(2) 0.22518(14) 0.1450(4)
C30 C 0.6210(2) 0.13089(10) 0.1836(2)
O1 O 0.0046(1) -0.06272(7) 0.4504(1)
O2 O -0.1049(1) -0.17928(7) 0.1236(2)
O3 O 0.0341(2) -0.23473(8) 0.1893(2)
O4 O 0.3775(1) 0.16621(6) 0.1377(2)
O5 O 0.5245(1) 0.11855(6) 0.2461(2)
O6 O 0.6926(1) 0.09291(8) 0.1754(2)
H1 H 0.065(2) -0.1658(11) 0.372(3)
H2 H -0.247(2) -0.0488(12) 0.132(3)
H3 H -0.107(2) -0.0637(10) -0.031(2)
H4 H -0.007(2) -0.0760(13) 0.079(3)
H5 H -0.087(2) 0.0374(12) 0.135(3)
H6 H -0.119(2) 0.0382(13) -0.009(3)
H7 H 0.063(3) 0.0528(14) -0.074(3)
H8 H 0.109(2) 0.0022(11) 0.031(3)
H9 H -0.095(2) -0.0127(10) 0.556(2)
H10 H -0.002(2) 0.0746(11) 0.538(3)
H11 H 0.089(2) 0.0329(10) 0.501(2)
H12 H -0.041(2) 0.0831(10) 0.294(2)
H13 H 0.036(2) 0.1319(11) 0.369(3)
H14 H 0.207(2) 0.1493(12) -0.002(3)
H15 H 0.248(2) 0.0780(12) -0.010(3)
H16 H 0.350(2) 0.0761(9) 0.169(2)
H17 H 0.194(2) 0.1674(8) 0.268(2)
H18 H 0.336(2) 0.0829(9) 0.406(2)
H19 H 0.447(2) 0.1738(11) 0.443(2)
H20 H 0.349(2) 0.2190(9) 0.376(2)
H21 H 0.559(2) 0.2402(10) 0.301(2)
H22 H 0.498(2) 0.2573(11) 0.180(3)
H23 H 0.599(2) 0.1911(12) 0.048(3)
H24 H -0.218(2) -0.1359(12) -0.065(3)
H25 H -0.278(2) -0.1964(13) 0.004(3)
H26 H -0.330(3) -0.1191(16) 0.007(4)
H27 H -0.226(2) -0.1521(11) 0.344(3)
H28 H -0.341(2) -0.1328(12) 0.257(3)
H29 H -0.287(3) -0.2023(13) 0.247(3)
H30 H -0.194(2) 0.0255(9) 0.342(2)
H31 H 0.216(2) 0.0048(10) 0.351(2)
H32 H 0.122(2) -0.0184(10) 0.261(2)
H33 H 0.243(2) 0.0052(10) 0.202(2)
H34 H 0.057(2) 0.1851(12) 0.134(3)
H35 H 0.016(2) 0.1586(13) -0.009(3)
H36 H -0.051(2) 0.1373(10) 0.115(3)
H37 H 0.192(2) 0.1108(13) 0.559(3)
H38 H 0.299(3) 0.1499(14) 0.592(3)
H39 H 0.190(2) 0.1760(13) 0.518(3)
H40 H 0.787(3) 0.2032(14) 0.105(3)
H41 H 0.746(3) 0.2695(18) 0.109(4)
H42 H 0.765(4) 0.2268(19) 0.238(5)
H43? H -0.226(2) -0.1521(11) 0.344(3)
loop_
_geom_bond_atom_site_label_1
_geom_bond_atom_site_label_2
_geom_bond_site_symmetry_1
_geom_bond_site_symmetry_2
C1 C2 1_555 1_555
C2 C3 1_555 1_555
C3 O2 1_555 1_555
C4 C5 1_555 1_555
C5 C6 1_555 1_555
C6 C7 1_555 1_555
C7 C8 1_555 1_555
C8 C14 1_555 1_555
C9 C11 1_555 1_555
C10 C1 1_555 1_555
C11 C12 1_555 1_555
C12 C13 1_555 1_555
C13 C14 1_555 1_555
C14 C15 1_555 1_555
C15 C16 1_555 1_555
C16 C17 1_555 1_555
C17 C13 1_555 1_555
C18 C17 1_555 1_555
C19 C18 1_555 1_555
C20 C19 1_555 1_555
C21 C20 1_555 1_555
C22 C21 1_555 1_555
C23 C4 1_555 1_555
C24 C4 1_555 1_555
C25 C9 1_555 1_555
C26 C13 1_555 1_555
C27 C14 1_555 1_555
C28 C18 1_555 1_555
C29 C22 1_555 1_555
C30 C22 1_555 1_555
O1 C1 1_555 1_555
O2 C4 1_555 1_555
O3 C3 1_555 1_555
O4 C16 1_555 1_555
O5 C20 1_555 1_555
O6 C30 1_555 1_555
H1 C2 1_555 1_555
H2 C5 1_555 1_555
H3 C6 1_555 1_555
H4 C6 1_555 1_555
H5 C7 1_555 1_555
H6 C7 1_555 1_555
H7 C8 1_555 1_555
H8 C8 1_555 1_555
H9 C9 1_555 1_555
H10 C11 1_555 1_555
H11 C11 1_555 1_555
H12 C12 1_555 1_555
H13 C12 1_555 1_555
H14 C15 1_555 1_555
H15 C15 1_555 1_555
H16 C16 1_555 1_555
H17 C17 1_555 1_555
H18 C18 1_555 1_555
H19 C19 1_555 1_555
H20 C19 1_555 1_555
H21 C21 1_555 1_555
H22 C21 1_555 1_555
H23 C22 1_555 1_555
H24 C23 1_555 1_555
H25 C23 1_555 1_555
H26 C23 1_555 1_555
H27 C24 1_555 1_555
H28 C24 1_555 1_555
H29 C24 1_555 1_555
H30 C25 1_555 1_555
H31 C26 1_555 1_555
H32 C26 1_555 1_555
H33 C26 1_555 1_555
H34 C27 1_555 1_555
H35 C27 1_555 1_555
H36 C27 1_555 1_555
H37 C28 1_555 1_555
H38 C28 1_555 1_555
H39 C28 1_555 1_555
H40 C29 1_555 1_555
H41 C29 1_555 1_555
H42 C29 1_555 1_555
C5 C10 1_555 1_555
C9 O1 1_555 1_555
C10 C25 1_555 1_555
C20 O4 1_555 1_555
C30 O5 1_555 1_555

#END
