
#######################################################################
#
#                 Cambridge Crystallographic Data Centre
#                                CCDC 
#
#######################################################################
#
# If this CIF has been generated from an entry in the Cambridge 
# Structural Database, then it will include bibliographic, chemical, 
# crystal, experimental, refinement or atomic coordinate data resulting 
# from the CCDC's data processing and validation procedures.
#
#######################################################################

data_KEWRUB
_chemical_formula_moiety         'C25 H23 Br1 O1'
_chemical_name_systematic        
2-Benzyl-3-(4-bromophenyl)-5-t-butyl-1-benzofuran
_symmetry_cell_setting           monoclinic
_symmetry_space_group_name_H-M   'P 21/c'
_symmetry_Int_Tables_number      14
_space_group_name_Hall           '-P 2ybc'
loop_
_symmetry_equiv_pos_site_id
_symmetry_equiv_pos_as_xyz
1 x,y,z
2 -x,1/2+y,1/2-z
3 -x,-y,-z
4 x,1/2-y,1/2+z
_cell_length_a                   9.5817(6)
_cell_length_b                   17.9668(12)
_cell_length_c                   11.8020(8)
_cell_angle_alpha                90
_cell_angle_beta                 105.7220(10)
_cell_angle_gamma                90
_cell_volume                     1955.73
_cell_formula_units_Z            4
loop_
_atom_site_label
_atom_site_type_symbol
_atom_site_fract_x
_atom_site_fract_y
_atom_site_fract_z
Br1 Br 0.21067(3) 1.008333(17) 0.53069(3)
O1 O 0.91767(19) 0.94796(9) 1.11853(15)
C1 C 0.9183(3) 1.02471(14) 1.1209(2)
C2 C 0.3778(3) 0.99724(13) 0.6601(2)
C3 C 0.5028(3) 1.03510(15) 0.6601(2)
H1 H 0.5075 1.0633 0.5952
C4 C 0.6161(3) 0.98865(12) 0.8566(2)
C5 C 0.7389(3) 0.98807(13) 0.9618(2)
C6 C 0.8076(3) 0.92758(14) 1.0211(2)
C7 C 0.7905(3) 1.12940(14) 1.0148(2)
H2 H 0.7184 1.1486 0.9523
C8 C 0.7059(3) 0.72525(15) 1.0598(2)
H3 H 0.7502 0.7018 1.0084
C9 C 0.3696(3) 0.95334(14) 0.7548(2)
H4 H 0.2857 0.9268 0.7529
C10 C 0.6351(3) 0.68342(15) 1.1243(3)
H5 H 0.6319 0.6319 1.1163
C11 C 0.8531(3) 1.26119(14) 1.0843(2)
C12 C 0.7121(3) 0.80259(14) 1.0704(2)
C13 C 0.8777(3) 1.17716(14) 1.0970(2)
C14 C 0.4885(3) 0.94987(13) 0.8519(2)
H6 H 0.4834 0.9209 0.9159
C15 C 0.7905(3) 0.84690(14) 0.9969(2)
H7 H 0.8862 0.8255 1.0081
H8 H 0.7386 0.8404 0.9147
C16 C 0.5686(3) 0.71717(16) 1.2009(3)
H9 H 0.5204 0.6887 1.2443
C17 C 0.6451(3) 0.83615(14) 1.1472(2)
H10 H 0.6475 0.8877 1.1553
C18 C 0.6220(3) 1.03072(15) 0.7582(2)
H11 H 0.7067 1.0561 0.7584
C19 C 0.8116(3) 1.05250(14) 1.0264(2)
C20 C 0.9845(3) 1.14548(15) 1.1911(2)
H12 H 1.0427 1.1771 1.2465
C21 C 1.0067(3) 1.06928(15) 1.2047(2)
H13 H 1.0779 1.0495 1.2674
C22 C 0.9710(4) 1.30605(16) 1.1710(3)
H14 H 0.9690 1.2948 1.2501
H15 H 0.9537 1.3582 1.1563
H16 H 1.0642 1.2932 1.1610
C23 C 0.8505(3) 1.28650(15) 0.9596(2)
H17 H 0.9414 1.2745 0.9443
H18 H 0.8351 1.3393 0.9529
H19 H 0.7734 1.2615 0.9034
C24 C 0.5742(3) 0.79326(15) 1.2123(2)
H20 H 0.5301 0.8163 1.2642
C25 C 0.7064(3) 1.28005(17) 1.1065(3)
H21 H 0.6311 1.2523 1.0530
H22 H 0.6877 1.3323 1.0944
H23 H 0.7088 1.2673 1.1860
loop_
_geom_bond_atom_site_label_1
_geom_bond_atom_site_label_2
_geom_bond_site_symmetry_1
_geom_bond_site_symmetry_2
Br1 C2 1_555 1_555
O1 C1 1_555 1_555
C1 C19 1_555 1_555
C2 C3 1_555 1_555
C3 H1 1_555 1_555
C4 C5 1_555 1_555
C5 C6 1_555 1_555
C6 O1 1_555 1_555
C7 H2 1_555 1_555
C8 H3 1_555 1_555
C9 C2 1_555 1_555
H4 C9 1_555 1_555
C10 C8 1_555 1_555
H5 C10 1_555 1_555
C11 C13 1_555 1_555
C12 C8 1_555 1_555
C13 C7 1_555 1_555
C14 C4 1_555 1_555
H6 C14 1_555 1_555
C15 C6 1_555 1_555
H7 C15 1_555 1_555
H8 C15 1_555 1_555
C16 C10 1_555 1_555
H9 C16 1_555 1_555
C17 C12 1_555 1_555
H10 C17 1_555 1_555
C18 C3 1_555 1_555
H11 C18 1_555 1_555
C19 C5 1_555 1_555
C20 C13 1_555 1_555
H12 C20 1_555 1_555
C21 C1 1_555 1_555
H13 C21 1_555 1_555
C22 C11 1_555 1_555
H14 C22 1_555 1_555
H15 C22 1_555 1_555
H16 C22 1_555 1_555
C23 C11 1_555 1_555
H17 C23 1_555 1_555
H18 C23 1_555 1_555
H19 C23 1_555 1_555
C24 C16 1_555 1_555
H20 C24 1_555 1_555
C25 C11 1_555 1_555
H21 C25 1_555 1_555
H22 C25 1_555 1_555
H23 C25 1_555 1_555
C4 C18 1_555 1_555
C7 C19 1_555 1_555
C9 C14 1_555 1_555
C12 C15 1_555 1_555
C17 C24 1_555 1_555
C20 C21 1_555 1_555

#END
