
#######################################################################
#
#                 Cambridge Crystallographic Data Centre
#                                CCDC 
#
#######################################################################
#
# If this CIF has been generated from an entry in the Cambridge 
# Structural Database, then it will include bibliographic, chemical, 
# crystal, experimental, refinement or atomic coordinate data resulting 
# from the CCDC's data processing and validation procedures.
#
#######################################################################

data_KEWSAI
_chemical_formula_moiety         'C26 H17 N1 O1'
_chemical_name_systematic        
2-Benzyl-1-phenylnaphtho[2,1-b]furan-7-carbonitrile
_symmetry_cell_setting           triclinic
_symmetry_space_group_name_H-M   'P -1'
_symmetry_Int_Tables_number      2
_space_group_name_Hall           '-P 1'
loop_
_symmetry_equiv_pos_site_id
_symmetry_equiv_pos_as_xyz
1 x,y,z
2 -x,-y,-z
_cell_length_a                   8.8676(8)
_cell_length_b                   8.9124(8)
_cell_length_c                   13.7443(13)
_cell_angle_alpha                91.673(2)
_cell_angle_beta                 106.297(2)
_cell_angle_gamma                114.934(2)
_cell_volume                     931.739
_cell_formula_units_Z            2
loop_
_atom_site_label
_atom_site_type_symbol
_atom_site_fract_x
_atom_site_fract_y
_atom_site_fract_z
C1 C 1.27872(19) 1.13753(19) 0.44568(11)
C2 C 1.15779(19) 1.19875(19) 0.39910(11)
H1 H 1.1967 1.3156 0.3988
C3 C 0.98429(19) 1.08894(18) 0.35442(11)
H2 H 0.9030 1.1306 0.3232
C4 C 0.92330(18) 0.91368(18) 0.35377(10)
C5 C 0.74304(18) 0.79318(18) 0.31138(10)
C6 C 0.69764(19) 0.62721(18) 0.32230(11)
C7 C 0.8160(2) 0.56430(19) 0.36711(12)
H3 H 0.7777 0.4484 0.3709
C8 C 0.9891(2) 0.67707(19) 0.40514(11)
H4 H 1.0739 0.6386 0.4348
C9 C 1.04595(19) 0.85244(19) 0.40131(11)
C10 C 1.22413(19) 0.96852(19) 0.44700(11)
H5 H 1.3075 0.9296 0.4791
C11 C 1.4623(2) 1.2544(2) 0.49284(12)
C12 C 0.57982(18) 0.79852(18) 0.25920(11)
C13 C 0.45114(19) 0.64013(18) 0.24504(11)
C14 C 0.25737(19) 0.5624(2) 0.19602(12)
H6 H 0.2213 0.6526 0.1813
H7 H 0.2013 0.5026 0.2455
C15 C 0.18920(19) 0.44011(19) 0.09710(11)
C16 C 0.0373(2) 0.2919(2) 0.07624(14)
H8 H -0.0212 0.2638 0.1261
C17 C -0.0310(3) 0.1838(3) -0.01568(16)
H9 H -0.1363 0.0827 -0.0288
C18 C 0.0523(3) 0.2217(3) -0.08838(14)
H10 H 0.0047 0.1476 -0.1520
C19 C 0.2047(3) 0.3671(3) -0.06845(14)
H11 H 0.2636 0.3935 -0.1182
C20 C 0.2730(2) 0.4758(2) 0.02370(13)
H12 H 0.3790 0.5761 0.0368
C21 C 0.55222(18) 0.94270(18) 0.22249(11)
C22 C 0.4503(2) 1.00044(19) 0.25758(12)
H13 H 0.3998 0.9491 0.3077
C23 C 0.4218(2) 1.1318(2) 0.22027(13)
H14 H 0.3517 1.1699 0.2447
C24 C 0.4948(2) 1.2079(2) 0.14773(13)
H15 H 0.4748 1.2981 0.1221
C25 C 0.5967(2) 1.1525(2) 0.11270(13)
H16 H 0.6476 1.2051 0.0631
C26 C 0.6251(2) 1.0206(2) 0.14947(12)
H17 H 0.6951 0.9829 0.1246
N1 N 1.60770(18) 1.34584(18) 0.53007(11)
O1 O 0.51909(13) 0.53162(12) 0.28252(8)
loop_
_geom_bond_atom_site_label_1
_geom_bond_atom_site_label_2
_geom_bond_site_symmetry_1
_geom_bond_site_symmetry_2
C1 C2 1_555 1_555
C2 H1 1_555 1_555
C3 C2 1_555 1_555
H2 C3 1_555 1_555
C4 C3 1_555 1_555
C5 C4 1_555 1_555
C6 C5 1_555 1_555
C7 C6 1_555 1_555
H3 C7 1_555 1_555
C8 C7 1_555 1_555
H4 C8 1_555 1_555
C9 C4 1_555 1_555
C10 C1 1_555 1_555
H5 C10 1_555 1_555
C11 C1 1_555 1_555
C12 C5 1_555 1_555
C13 C12 1_555 1_555
C14 C13 1_555 1_555
H6 C14 1_555 1_555
H7 C14 1_555 1_555
C15 C14 1_555 1_555
C16 C15 1_555 1_555
H8 C16 1_555 1_555
C17 C16 1_555 1_555
H9 C17 1_555 1_555
C18 C17 1_555 1_555
H10 C18 1_555 1_555
C19 C18 1_555 1_555
H11 C19 1_555 1_555
C20 C15 1_555 1_555
H12 C20 1_555 1_555
C21 C12 1_555 1_555
C22 C21 1_555 1_555
H13 C22 1_555 1_555
C23 C22 1_555 1_555
H14 C23 1_555 1_555
C24 C23 1_555 1_555
H15 C24 1_555 1_555
C25 C24 1_555 1_555
H16 C25 1_555 1_555
C26 C21 1_555 1_555
H17 C26 1_555 1_555
N1 C11 1_555 1_555
O1 C6 1_555 1_555
C8 C9 1_555 1_555
C9 C10 1_555 1_555
C13 O1 1_555 1_555
C19 C20 1_555 1_555
C25 C26 1_555 1_555

#END
