
#######################################################################
#
#                 Cambridge Crystallographic Data Centre
#                                CCDC 
#
#######################################################################
#
# If this CIF has been generated from an entry in the Cambridge 
# Structural Database, then it will include bibliographic, chemical, 
# crystal, experimental, refinement or atomic coordinate data resulting 
# from the CCDC's data processing and validation procedures.
#
#######################################################################

data_KEWSEM
_chemical_formula_moiety         'C25 H24 O1'
_chemical_name_systematic        2-Benzyl-5-t-butyl-3-phenyl-1-benzofuran
_symmetry_cell_setting           triclinic
_symmetry_space_group_name_H-M   'P -1'
_symmetry_Int_Tables_number      2
_space_group_name_Hall           '-P 1'
loop_
_symmetry_equiv_pos_site_id
_symmetry_equiv_pos_as_xyz
1 x,y,z
2 -x,-y,-z
_cell_length_a                   7.1249(16)
_cell_length_b                   12.125(3)
_cell_length_c                   12.646(3)
_cell_angle_alpha                110.436(4)
_cell_angle_beta                 91.626(4)
_cell_angle_gamma                100.590(4)
_cell_volume                     1001.19
_cell_formula_units_Z            2
loop_
_atom_site_label
_atom_site_type_symbol
_atom_site_fract_x
_atom_site_fract_y
_atom_site_fract_z
O1 O 0.2563(2) 0.42137(14) -0.01730(13)
C1 C 0.2682(3) 0.5004(2) 0.09257(19)
C2 C 0.1761(3) 0.5952(2) 0.1305(2)
H1 H 0.1023 0.6154 0.0809
C3 C 0.1989(4) 0.6586(2) 0.2453(2)
H2 H 0.1387 0.7234 0.2733
C4 C 0.3083(4) 0.6305(2) 0.3225(2)
C5 C 0.4048(3) 0.5365(2) 0.2803(2)
H3 H 0.4824 0.5179 0.3293
C6 C 0.3841(3) 0.4702(2) 0.16353(19)
C7 C 0.3118(5) 0.7003(3) 0.4498(2)
C8 C 0.0996(6) 0.6881(5) 0.4810(3)
H4 H 0.0477 0.6059 0.4714
H5 H 0.0240 0.7123 0.4323
H6 H 0.0971 0.7386 0.5585
C9 C 0.3831(7) 0.8338(3) 0.4790(3)
H7 H 0.3653 0.8760 0.5566
H8 H 0.3122 0.8607 0.4305
H9 H 0.5169 0.8494 0.4685
C10 C 0.4216(9) 0.6563(4) 0.5224(3)
H10 H 0.3691 0.5727 0.5065
H11 H 0.4133 0.7015 0.6008
H12 H 0.5536 0.6661 0.5071
C11 C 0.3669(3) 0.3392(2) -0.0146(2)
C12 C 0.4488(3) 0.3650(2) 0.09164(19)
C13 C 0.3671(3) 0.2424(2) -0.1256(2)
H13 H 0.4596 0.1955 -0.1178
H14 H 0.4093 0.2790 -0.1802
C14 C 0.1741(3) 0.1583(2) -0.17195(19)
C15 C 0.1354(4) 0.0909(2) -0.2867(2)
H15 H 0.2287 0.0976 -0.3354
C16 C -0.0400(5) 0.0137(3) -0.3301(2)
H16 H -0.0632 -0.0311 -0.4074
C17 C -0.1792(4) 0.0028(3) -0.2608(3)
H17 H -0.2973 -0.0489 -0.2904
C18 C -0.1438(4) 0.0686(3) -0.1469(3)
H18 H -0.2383 0.0615 -0.0991
C19 C 0.0316(4) 0.1454(2) -0.1027(2)
H19 H 0.0540 0.1891 -0.0252
C20 C 0.5838(3) 0.3021(2) 0.12618(19)
C21 C 0.5316(4) 0.1823(2) 0.1135(2)
H20 H 0.4074 0.1403 0.0841
C22 C 0.6603(5) 0.1243(3) 0.1436(3)
H21 H 0.6226 0.0435 0.1341
C23 C 0.8439(5) 0.1847(3) 0.1875(2)
H22 H 0.9313 0.1451 0.2073
C24 C 0.8979(4) 0.3045(3) 0.2022(2)
H23 H 1.0219 0.3463 0.2325
C25 C 0.7683(4) 0.3630(3) 0.1719(2)
H24 H 0.8057 0.4441 0.1823
loop_
_geom_bond_atom_site_label_1
_geom_bond_atom_site_label_2
_geom_bond_site_symmetry_1
_geom_bond_site_symmetry_2
O1 C1 1_555 1_555
C1 C2 1_555 1_555
C2 H1 1_555 1_555
C3 C2 1_555 1_555
H2 C3 1_555 1_555
C4 C3 1_555 1_555
C5 C4 1_555 1_555
H3 C5 1_555 1_555
C6 C1 1_555 1_555
C7 C4 1_555 1_555
C8 C7 1_555 1_555
H4 C8 1_555 1_555
H5 C8 1_555 1_555
H6 C8 1_555 1_555
C9 C7 1_555 1_555
H7 C9 1_555 1_555
H8 C9 1_555 1_555
H9 C9 1_555 1_555
C10 C7 1_555 1_555
H10 C10 1_555 1_555
H11 C10 1_555 1_555
H12 C10 1_555 1_555
C11 O1 1_555 1_555
C12 C6 1_555 1_555
C13 C11 1_555 1_555
H13 C13 1_555 1_555
H14 C13 1_555 1_555
C14 C13 1_555 1_555
C15 C14 1_555 1_555
H15 C15 1_555 1_555
C16 C15 1_555 1_555
H16 C16 1_555 1_555
C17 C16 1_555 1_555
H17 C17 1_555 1_555
C18 C17 1_555 1_555
H18 C18 1_555 1_555
C19 C14 1_555 1_555
H19 C19 1_555 1_555
C20 C12 1_555 1_555
C21 C20 1_555 1_555
H20 C21 1_555 1_555
C22 C21 1_555 1_555
H21 C22 1_555 1_555
C23 C22 1_555 1_555
H22 C23 1_555 1_555
C24 C23 1_555 1_555
H23 C24 1_555 1_555
C25 C20 1_555 1_555
H24 C25 1_555 1_555
C5 C6 1_555 1_555
C11 C12 1_555 1_555
C18 C19 1_555 1_555
C24 C25 1_555 1_555

#END
