
#######################################################################
#
#                 Cambridge Crystallographic Data Centre
#                                CCDC 
#
#######################################################################
#
# If this CIF has been generated from an entry in the Cambridge 
# Structural Database, then it will include bibliographic, chemical, 
# crystal, experimental, refinement or atomic coordinate data resulting 
# from the CCDC's data processing and validation procedures.
#
#######################################################################

data_KEWXUF
_chemical_formula_moiety         'C16 H15 N5 O3'
_chemical_name_systematic        
9-(2,4-O(R)-Benzylidene-\b-D-threo-oxetanosyl)adenine
_symmetry_cell_setting           orthorhombic
_symmetry_space_group_name_H-M   'P 21 21 21'
_symmetry_Int_Tables_number      19
_space_group_name_Hall           'P 2ac 2ab'
loop_
_symmetry_equiv_pos_site_id
_symmetry_equiv_pos_as_xyz
1 x,y,z
2 1/2+x,1/2-y,-z
3 -x,1/2+y,1/2-z
4 1/2-x,-y,1/2+z
_cell_length_a                   6.765(8)
_cell_length_b                   9.111(7)
_cell_length_c                   26.77(2)
_cell_angle_alpha                90
_cell_angle_beta                 90
_cell_angle_gamma                90
_cell_volume                     1649.99
_chemical_melting_point          '220-225 deg.C'
_cell_formula_units_Z            4
loop_
_atom_site_label
_atom_site_type_symbol
_atom_site_fract_x
_atom_site_fract_y
_atom_site_fract_z
N1 N 0.0368(5) 0.4327(5) -0.0448(2)
C1 C -0.1529(6) 0.3906(5) -0.0486(2)
N2 N -0.2939(5) 0.4851(4) -0.0332(2)
C2 C -0.4853(6) 0.4414(5) -0.0374(2)
N3 N -0.5568(5) 0.3182(4) -0.0549(2)
C3 C -0.4139(6) 0.2269(5) -0.0695(2)
C4 C -0.2109(6) 0.2546(5) -0.0677(2)
N4 N -0.1067(5) 0.1347(5) -0.0854(2)
C5 C -0.2432(6) 0.0385(5) -0.0962(2)
N5 N -0.4320(5) 0.0879(4) -0.0888(1)
C6 C -0.6147(6) 0.0093(5) -0.0950(2)
O1 O -0.5886(6) -0.1421(4) -0.0806(1)
C7 C -0.6806(8) -0.1936(6) -0.1255(2)
C8 C -0.6759(7) -0.0377(5) -0.1476(2)
O2 O -0.5242(5) -0.0106(3) -0.1837(1)
C9 C -0.4689(7) -0.1349(5) -0.2117(2)
O3 O -0.4010(7) -0.2460(4) -0.1795(2)
C10 C -0.563(1) -0.3107(6) -0.1521(2)
C11 C -0.3065(8) -0.0959(5) -0.2471(2)
C12 C -0.1638(9) 0.0093(8) -0.2349(2)
C13 C -0.007(1) 0.032(1) -0.2674(3)
C14 C 0.006(1) -0.0409(9) -0.3121(3)
C15 C -0.137(1) -0.1417(7) -0.3239(2)
C16 C -0.291(1) -0.1684(6) -0.2915(2)
H1 H 0.0810 0.5025 -0.0327
H2 H 0.1485 0.3682 -0.0492
H3 H -0.5864 0.5141 -0.0263
H4 H -0.2126 -0.0611 -0.1099
H5 H -0.7060 0.0768 -0.0772
H6 H -0.8074 -0.2476 -0.1216
H7 H -0.7831 0.0077 -0.1674
H8 H -0.5883 -0.1713 -0.2304
H9 H -0.6493 -0.3645 -0.1758
H10 H -0.5045 -0.3816 -0.1274
H11 H -0.1748 0.0651 -0.2031
H12 H 0.0961 0.1052 -0.2579
H13 H 0.1168 -0.0222 -0.3353
H14 H -0.1304 -0.1965 -0.3560
H15 H -0.3957 -0.2414 -0.2997
O4? O -0.6542(9) -0.7132(6) -0.5044(3)
loop_
_geom_bond_atom_site_label_1
_geom_bond_atom_site_label_2
_geom_bond_site_symmetry_1
_geom_bond_site_symmetry_2
N1 C1 1_555 1_555
C1 N2 1_555 1_555
N2 C2 1_555 1_555
C2 N3 1_555 1_555
N3 C3 1_555 1_555
C3 C4 1_555 1_555
C4 C1 1_555 1_555
N4 C4 1_555 1_555
C5 N4 1_555 1_555
N5 C3 1_555 1_555
C6 N5 1_555 1_555
O1 C6 1_555 1_555
C7 O1 1_555 1_555
C8 C6 1_555 1_555
O2 C8 1_555 1_555
C9 O2 1_555 1_555
O3 C9 1_555 1_555
C10 C7 1_555 1_555
C11 C9 1_555 1_555
C12 C11 1_555 1_555
C13 C12 1_555 1_555
C14 C13 1_555 1_555
C15 C14 1_555 1_555
C16 C11 1_555 1_555
H1 N1 1_555 1_555
H2 N1 1_555 1_555
H3 C2 1_555 1_555
H4 C5 1_555 1_555
H5 C6 1_555 1_555
H6 C7 1_555 1_555
H7 C8 1_555 1_555
H8 C9 1_555 1_555
H9 C10 1_555 1_555
H10 C10 1_555 1_555
H11 C12 1_555 1_555
H12 C13 1_555 1_555
H13 C14 1_555 1_555
H14 C15 1_555 1_555
H15 C16 1_555 1_555
C5 N5 1_555 1_555
C7 C8 1_555 1_555
O3 C10 1_555 1_555
C15 C16 1_555 1_555

#END
