
#######################################################################
#
#                 Cambridge Crystallographic Data Centre
#                                CCDC 
#
#######################################################################
#
# If this CIF has been generated from an entry in the Cambridge 
# Structural Database, then it will include bibliographic, chemical, 
# crystal, experimental, refinement or atomic coordinate data resulting 
# from the CCDC's data processing and validation procedures.
#
#######################################################################

data_KEWYOD
_chemical_formula_moiety         'C12 H13 N3 S2,0.25(C3 H6 O1)'
_chemical_name_systematic        
'2-[(1-benzothiophen-2-yl)methylidene]-N-ethylhydrazine-1-carbothioamide acetone solvate'
_symmetry_cell_setting           orthorhombic
_symmetry_space_group_name_H-M   'P b c n'
_symmetry_Int_Tables_number      60
_space_group_name_Hall           '-P 2n 2ab'
loop_
_symmetry_equiv_pos_site_id
_symmetry_equiv_pos_as_xyz
1 x,y,z
2 1/2-x,1/2-y,1/2+z
3 1/2+x,1/2-y,-z
4 -x,y,1/2-z
5 -x,-y,-z
6 1/2+x,1/2+y,1/2-z
7 1/2-x,1/2+y,z
8 x,-y,1/2+z
_cell_length_a                   26.715(10)
_cell_length_b                   8.239(3)
_cell_length_c                   25.480(10)
_cell_angle_alpha                90
_cell_angle_beta                 90
_cell_angle_gamma                90
_cell_volume                     5608.27
_exptl_crystal_colour            yellowish
_exptl_crystal_description       block
_cell_formula_units_Z            16
loop_
_atom_site_label
_atom_site_type_symbol
_atom_site_fract_x
_atom_site_fract_y
_atom_site_fract_z
S1 S 0.37188(4) 0.11750(12) 0.52007(3)
S2 S 0.43234(3) 0.45343(12) 0.75026(3)
N1 N 0.44205(13) 0.2416(5) 0.58262(13)
H1 H 0.4489(14) 0.287(5) 0.6094(14)
N2 N 0.36422(11) 0.2165(4) 0.61748(10)
H2 H 0.3274(16) 0.172(5) 0.6172(15)
N3 N 0.38366(10) 0.2820(3) 0.66273(10)
C1 C 0.52543(18) 0.1507(7) 0.56262(19)
H3 H 0.5383 0.2062 0.5929
H4 H 0.5505 0.1490 0.5356
H5 H 0.5168 0.0414 0.5720
C2 C 0.48113(18) 0.2346(9) 0.54350(19)
H6 H 0.4701(13) 0.185(4) 0.5136(15)
H7 H 0.496(2) 0.350(7) 0.535(2)
C3 C 0.39456(14) 0.1953(4) 0.57567(12)
C4 C 0.35512(14) 0.2881(4) 0.70286(13)
H8 H 0.3175(13) 0.245(4) 0.7046(12)
C5 C 0.37433(12) 0.3580(4) 0.75070(12)
C6 C 0.35259(13) 0.3611(4) 0.79841(13)
H9 H 0.3192(11) 0.313(4) 0.8043(11)
C7 C 0.38204(12) 0.4394(4) 0.83750(12)
C8 C 0.37165(16) 0.4683(5) 0.89055(14)
H10 H 0.3402(13) 0.430(4) 0.9019(13)
C9 C 0.40541(16) 0.5534(5) 0.92021(16)
H11 H 0.3985(11) 0.564(4) 0.9535(12)
C10 C 0.44966(17) 0.6096(5) 0.89907(15)
H12 H 0.4729(14) 0.672(5) 0.9221(15)
C11 C 0.46120(15) 0.5807(5) 0.84734(15)
H13 H 0.4914(12) 0.616(4) 0.8317(12)
C12 C 0.42731(12) 0.4975(4) 0.81636(12)
S3 S 0.24416(4) 0.07257(13) 0.62005(3)
S4 S 0.17016(3) 0.46425(12) 0.40076(3)
N4 N 0.17183(12) 0.2275(4) 0.56898(13)
H14 H 0.1659(11) 0.293(4) 0.5433(12)
N5 N 0.24518(13) 0.2017(4) 0.52600(11)
H15 H 0.2758(11) 0.176(4) 0.5275(11)
N6 N 0.22406(10) 0.2792(3) 0.48413(10)
C13 C 0.08549(19) 0.2038(8) 0.5938(2)
H16 H 0.0777 0.2915 0.5704
H17 H 0.0636 0.2080 0.6236
H18 H 0.0811 0.1023 0.5759
C14 C 0.13668(16) 0.2183(6) 0.61116(15)
H19 H 0.1399 0.3149 0.6327
H20 H 0.1449 0.1254 0.6329
C15 C 0.21814(14) 0.1725(4) 0.56985(13)
C16 C 0.25097(15) 0.3003(4) 0.44341(12)
H21 H 0.2862(13) 0.253(4) 0.4430(12)
C17 C 0.22980(12) 0.3796(4) 0.39817(12)
C18 C 0.25145(14) 0.3999(4) 0.35080(13)
H22 H 0.2809(10) 0.364(3) 0.3424(10)
C19 C 0.22131(12) 0.4867(4) 0.31426(12)
C20 C 0.23154(15) 0.5302(5) 0.26221(13)
H23 H 0.2621(12) 0.493(4) 0.2466(11)
C21 C 0.19693(16) 0.6184(5) 0.23494(16)
H24 H 0.2050(11) 0.656(4) 0.2002(12)
C22 C 0.15258(18) 0.6652(6) 0.25799(16)
H25 H 0.1274(13) 0.710(4) 0.2402(13)
C23 C 0.14093(15) 0.6212(5) 0.30826(16)
H26 H 0.1125(12) 0.642(4) 0.3228(12)
C24 C 0.17563(12) 0.5323(4) 0.33666(12)
O1 O 0.0000 0.6905(7) 0.2500
C25 C 0.0000 0.5485(9) 0.2500
C26 C -0.0041(3) 0.4572(7) 0.2987(2)
H27 H -0.0373 0.4137 0.3019
H28 H 0.0026 0.5278 0.3279
H29 H 0.0198 0.3700 0.2985
C26C C 0.0041(3) 0.4572(7) 0.2013(2)
H27C H 0.0373 0.4137 0.1981
H28C H -0.0026 0.5278 0.1721
H29C H -0.0198 0.3700 0.2015
loop_
_geom_bond_atom_site_label_1
_geom_bond_atom_site_label_2
_geom_bond_site_symmetry_1
_geom_bond_site_symmetry_2
S1 C3 1_555 1_555
S2 C5 1_555 1_555
N1 H1 1_555 1_555
N2 H2 1_555 1_555
N3 N2 1_555 1_555
C1 H3 1_555 1_555
H4 C1 1_555 1_555
H5 C1 1_555 1_555
C2 N1 1_555 1_555
H6 C2 1_555 1_555
H7 C2 1_555 1_555
C3 N1 1_555 1_555
C4 N3 1_555 1_555
H8 C4 1_555 1_555
C5 C4 1_555 1_555
C6 C5 1_555 1_555
H9 C6 1_555 1_555
C7 C6 1_555 1_555
C8 C7 1_555 1_555
H10 C8 1_555 1_555
C9 C8 1_555 1_555
H11 C9 1_555 1_555
C10 C9 1_555 1_555
H12 C10 1_555 1_555
C11 C10 1_555 1_555
H13 C11 1_555 1_555
C12 S2 1_555 1_555
S3 C15 1_555 1_555
S4 C17 1_555 1_555
N4 H14 1_555 1_555
N5 H15 1_555 1_555
N6 N5 1_555 1_555
C13 H16 1_555 1_555
H17 C13 1_555 1_555
H18 C13 1_555 1_555
C14 N4 1_555 1_555
H19 C14 1_555 1_555
H20 C14 1_555 1_555
C15 N4 1_555 1_555
C16 N6 1_555 1_555
H21 C16 1_555 1_555
C17 C16 1_555 1_555
C18 C17 1_555 1_555
H22 C18 1_555 1_555
C19 C18 1_555 1_555
C20 C19 1_555 1_555
H23 C20 1_555 1_555
C21 C20 1_555 1_555
H24 C21 1_555 1_555
C22 C21 1_555 1_555
H25 C22 1_555 1_555
C23 C22 1_555 1_555
H26 C23 1_555 1_555
C24 S4 1_555 1_555
O1 C25 1_555 1_555
C25 C26 1_555 1_555
C26 H27 1_555 1_555
H28 C26 1_555 1_555
H29 C26 1_555 1_555
C26C C25 1_555 1_555
H27C C26C 1_555 1_555
H28C C26C 1_555 1_555
H29C C26C 1_555 1_555
N2 C3 1_555 1_555
C1 C2 1_555 1_555
C7 C12 1_555 1_555
C11 C12 1_555 1_555
N5 C15 1_555 1_555
C13 C14 1_555 1_555
C19 C24 1_555 1_555
C23 C24 1_555 1_555

#END
