
#######################################################################
#
#                 Cambridge Crystallographic Data Centre
#                                CCDC 
#
#######################################################################
#
# If this CIF has been generated from an entry in the Cambridge 
# Structural Database, then it will include bibliographic, chemical, 
# crystal, experimental, refinement or atomic coordinate data resulting 
# from the CCDC's data processing and validation procedures.
#
#######################################################################

data_KEWYAP
_chemical_formula_moiety         'C24 H24 N2 O3'
_chemical_name_systematic        
4-(benzyloxy)-2-methyl-3-(4-methylphenyl)-6-phenyl-1,2,4-oxadiazinan-5-one
_symmetry_cell_setting           monoclinic
_symmetry_space_group_name_H-M   'P 21/c'
_symmetry_Int_Tables_number      14
_space_group_name_Hall           '-P 2ybc'
loop_
_symmetry_equiv_pos_site_id
_symmetry_equiv_pos_as_xyz
1 x,y,z
2 -x,1/2+y,1/2-z
3 -x,-y,-z
4 x,1/2-y,1/2+z
_cell_length_a                   10.1218(16)
_cell_length_b                   16.495(3)
_cell_length_c                   13.265(3)
_cell_angle_alpha                90
_cell_angle_beta                 108.227(2)
_cell_angle_gamma                90
_cell_volume                     2103.59
_exptl_crystal_colour            colorless
_exptl_crystal_description       block
_cell_formula_units_Z            4
loop_
_atom_site_label
_atom_site_type_symbol
_atom_site_fract_x
_atom_site_fract_y
_atom_site_fract_z
O1 O -0.11236(9) 0.12278(6) 0.38602(7)
O2 O 0.21786(10) 0.11318(6) 0.64082(7)
N1 N 0.18256(11) 0.19462(7) 0.59875(8)
N2 N 0.02590(10) 0.13091(6) 0.45155(8)
C1 C 0.03584(12) 0.19102(8) 0.53563(10)
H1 H -0.0206 0.1740 0.5799
C2 C 0.10453(12) 0.06242(8) 0.46410(10)
O3 O 0.07395(10) 0.00512(6) 0.40327(8)
C3 C 0.23776(12) 0.06524(8) 0.55684(10)
H2 H 0.2553 0.0097 0.5841
C4 C 0.36428(12) 0.09043(7) 0.52663(10)
C5 C -0.27192(14) 0.13112(9) 0.21340(10)
C6 C -0.01160(13) 0.27277(8) 0.48661(10)
C7 C 0.49450(14) 0.07909(9) 0.60108(12)
H3 H 0.5017 0.0580 0.6676
C8 C 0.35625(14) 0.12203(9) 0.42868(12)
H4 H 0.2698 0.1303 0.3783
C9 C 0.60486(15) 0.13038(9) 0.47900(15)
H5 H 0.6853 0.1438 0.4631
C10 C -0.12943(15) 0.30922(9) 0.49660(13)
H6 H -0.1797 0.2838 0.5354
C11 C 0.61348(14) 0.09926(10) 0.57625(14)
H7 H 0.7003 0.0915 0.6264
C12 C -0.12400(15) 0.14550(12) 0.27834(12)
H8 H -0.0620 0.1129 0.2521
H9 H -0.0998 0.2021 0.2752
C13 C 0.06284(16) 0.31300(9) 0.42959(13)
H10 H 0.1437 0.2899 0.4233
C14 C 0.01811(18) 0.38666(10) 0.38237(13)
H11 H 0.0687 0.4122 0.3438
C15 C -0.17341(18) 0.38322(10) 0.44942(15)
H12 H -0.2535 0.4066 0.4568
C16 C 0.20293(18) 0.24429(11) 0.69358(13)
H13 H 0.1398 0.2270 0.7303
H14 H 0.1855 0.3001 0.6734
H15 H 0.2969 0.2384 0.7394
C17 C 0.47661(17) 0.14171(10) 0.40466(14)
H16 H 0.4704 0.1626 0.3382
C18 C -0.32181(18) 0.05344(11) 0.18979(13)
H17 H -0.2637 0.0092 0.2144
C19 C -0.10113(17) 0.42355(9) 0.39120(12)
C20 C -0.36060(18) 0.19563(11) 0.17605(14)
H18 H -0.3284 0.2483 0.1931
C21 C -0.1478(2) 0.50468(11) 0.34052(16)
H19 H -0.2461 0.5106 0.3275
H20 H -0.1277 0.5081 0.2746
H21 H -0.0994 0.5470 0.3872
C22 C -0.4958(2) 0.18316(16) 0.11411(17)
H22 H -0.5540 0.2271 0.0880
C23 C -0.4597(2) 0.04160(15) 0.12882(15)
H23 H -0.4946 -0.0107 0.1137
C24 C -0.5437(2) 0.1068(2) 0.09126(16)
H24 H -0.6352 0.0985 0.0493
loop_
_geom_bond_atom_site_label_1
_geom_bond_atom_site_label_2
_geom_bond_site_symmetry_1
_geom_bond_site_symmetry_2
O1 N2 1_555 1_555
O2 N1 1_555 1_555
N1 C1 1_555 1_555
N2 C1 1_555 1_555
C1 H1 1_555 1_555
C2 N2 1_555 1_555
O3 C2 1_555 1_555
C3 O2 1_555 1_555
H2 C3 1_555 1_555
C4 C3 1_555 1_555
C5 C12 1_555 1_555
C6 C1 1_555 1_555
C7 C4 1_555 1_555
H3 C7 1_555 1_555
C8 C4 1_555 1_555
H4 C8 1_555 1_555
C9 H5 1_555 1_555
C10 C6 1_555 1_555
H6 C10 1_555 1_555
C11 C7 1_555 1_555
H7 C11 1_555 1_555
C12 O1 1_555 1_555
H8 C12 1_555 1_555
H9 C12 1_555 1_555
C13 C6 1_555 1_555
H10 C13 1_555 1_555
C14 C13 1_555 1_555
H11 C14 1_555 1_555
C15 C10 1_555 1_555
H12 C15 1_555 1_555
C16 N1 1_555 1_555
H13 C16 1_555 1_555
H14 C16 1_555 1_555
H15 C16 1_555 1_555
C17 C8 1_555 1_555
H16 C17 1_555 1_555
C18 C5 1_555 1_555
H17 C18 1_555 1_555
C19 C14 1_555 1_555
C20 C5 1_555 1_555
H18 C20 1_555 1_555
C21 C19 1_555 1_555
H19 C21 1_555 1_555
H20 C21 1_555 1_555
H21 C21 1_555 1_555
C22 C20 1_555 1_555
H22 C22 1_555 1_555
C23 C18 1_555 1_555
H23 C23 1_555 1_555
C24 C22 1_555 1_555
H24 C24 1_555 1_555
C2 C3 1_555 1_555
C9 C11 1_555 1_555
C9 C17 1_555 1_555
C15 C19 1_555 1_555
C23 C24 1_555 1_555

#END
