
#######################################################################
#
#                 Cambridge Crystallographic Data Centre
#                                CCDC 
#
#######################################################################
#
# If this CIF has been generated from an entry in the Cambridge 
# Structural Database, then it will include bibliographic, chemical, 
# crystal, experimental, refinement or atomic coordinate data resulting 
# from the CCDC's data processing and validation procedures.
#
#######################################################################

data_KEWZOE
_chemical_formula_moiety         'C13 H28 N2 2+,As4 S6 2-'
_chemical_name_systematic        
"4,4'-(propane-1,3-diyl)bis(piperidin-1-ium) 2H,6H-[1,3,2,4,5]dithiatriarsolo[4,5-d][1,3,2,4,5]dithiatriarsole-2,6-bis(thiolate)"
_symmetry_cell_setting           orthorhombic
_symmetry_space_group_name_H-M   'I m m 2'
_symmetry_Int_Tables_number      44
_space_group_name_Hall           'I 2 -2'
loop_
_symmetry_equiv_pos_site_id
_symmetry_equiv_pos_as_xyz
1 x,y,z
2 -x,-y,z
3 -x,y,z
4 x,-y,z
5 1/2+x,1/2+y,1/2+z
6 1/2-x,1/2-y,1/2+z
7 1/2-x,1/2+y,1/2+z
8 1/2+x,1/2-y,1/2+z
_cell_length_a                   10.2257(16)
_cell_length_b                   20.659(3)
_cell_length_c                   5.9082(9)
_cell_angle_alpha                90
_cell_angle_beta                 90
_cell_angle_gamma                90
_cell_volume                     1248.12
_exptl_crystal_colour            yellow
_exptl_crystal_description       sheet
_cell_formula_units_Z            2
loop_
_atom_site_label
_atom_site_type_symbol
_atom_site_fract_x
_atom_site_fract_y
_atom_site_fract_z
As1 As 0.12472(12) 0.000000 0.4807(2)
As2 As 0.000000 0.08486(6) 0.9629(2)
S1 S 0.1636(2) 0.08586(13) 0.6974(6)
S2 S 0.000000 0.18525(19) 1.0596(5)
As1A As -0.12472(12) 0.000000 0.4807(2)
As2A As 0.000000 -0.08486(6) 0.9629(2)
S1A S -0.1636(2) -0.08586(13) 0.6974(6)
S2A S 0.000000 -0.18525(19) 1.0596(5)
S1B S -0.1636(2) 0.08586(13) 0.6974(6)
S1C S 0.1636(2) -0.08586(13) 0.6974(6)
N1 N 0.500000 0.2592(5) 0.0579(15)
H1 H 0.499998 0.292106 -0.039351
H2 H 0.500000 0.275703 0.197009
C1 C 0.3791(9) 0.2213(5) 0.0257(19)
H3 H 0.372568 0.207170 -0.130378
H4 H 0.303527 0.247977 0.059868
C2 C 0.3821(9) 0.1626(5) 0.183(2)
H5 H 0.379581 0.177442 0.338748
H6 H 0.304624 0.136608 0.156668
C3 C 0.500000 0.1215(7) 0.150(2)
H7 H 0.500000 0.107151 -0.007744
C4 C 0.500000 0.0613(8) 0.297(3)
H8 H 0.576563 0.062225 0.394251
C5 C 0.500000 0.000000 0.169(4)
H9 H 0.423680 0.000000 0.071366
N1A N 0.500000 -0.2592(5) 0.0579(15)
H1A H 0.500002 -0.292106 -0.039351
H2A H 0.500000 -0.275703 0.197009
C1A C 0.6209(9) -0.2213(5) 0.0257(19)
H3A H 0.627432 -0.207170 -0.130378
H4A H 0.696473 -0.247977 0.059868
C2A C 0.6179(9) -0.1626(5) 0.183(2)
H5A H 0.620419 -0.177442 0.338748
H6A H 0.695376 -0.136608 0.156668
C3A C 0.500000 -0.1215(7) 0.150(2)
H7A H 0.500000 -0.107151 -0.007744
C4A C 0.500000 -0.0613(8) 0.297(3)
H8A H 0.423437 -0.062225 0.394251
H9A H 0.576320 0.000000 0.071366
C1B C 0.6209(9) 0.2213(5) 0.0257(19)
H3B H 0.627432 0.207170 -0.130378
H4B H 0.696473 0.247977 0.059868
C2B C 0.6179(9) 0.1626(5) 0.183(2)
H5B H 0.620419 0.177442 0.338748
H6B H 0.695376 0.136608 0.156668
H8B H 0.423437 0.062225 0.394251
C1C C 0.3791(9) -0.2213(5) 0.0257(19)
H3C H 0.372568 -0.207170 -0.130378
H4C H 0.303527 -0.247977 0.059868
C2C C 0.3821(9) -0.1626(5) 0.183(2)
H5C H 0.379581 -0.177442 0.338748
H6C H 0.304624 -0.136608 0.156668
H8C H 0.576563 -0.062225 0.394251
H10? H 0.423680 0.000000 0.071366
H11? H 0.576563 0.062225 0.394251
loop_
_geom_bond_atom_site_label_1
_geom_bond_atom_site_label_2
_geom_bond_site_symmetry_1
_geom_bond_site_symmetry_2
As1 S1 1_555 1_555
As2 S1 1_555 1_555
S2 As2 1_555 1_555
N1 H1 1_555 1_555
H2 N1 1_555 1_555
C1 N1 1_555 1_555
H3 C1 1_555 1_555
H4 C1 1_555 1_555
C2 C1 1_555 1_555
H5 C2 1_555 1_555
H6 C2 1_555 1_555
C3 C2 1_555 1_555
H7 C3 1_555 1_555
C4 C3 1_555 1_555
H8 C4 1_555 1_555
C5 C4 1_555 1_555
H9 C5 1_555 1_555
As1A As1 1_555 1_555
As2A S1A 1_555 1_555
S1A As1A 1_555 1_555
S2A As2A 1_555 1_555
S1B As2 1_555 1_555
S1C As1 1_555 1_555
N1A H1A 1_555 1_555
H2A N1A 1_555 1_555
C1A N1A 1_555 1_555
H3A C1A 1_555 1_555
H4A C1A 1_555 1_555
C2A C1A 1_555 1_555
H5A C2A 1_555 1_555
H6A C2A 1_555 1_555
C3A C2A 1_555 1_555
H7A C3A 1_555 1_555
C4A C5 1_555 1_555
H8A C4A 1_555 1_555
H9A C5 1_555 1_555
C1B N1 1_555 1_555
H3B C1B 1_555 1_555
H4B C1B 1_555 1_555
C2B C3 1_555 1_555
H5B C2B 1_555 1_555
H6B C2B 1_555 1_555
H8B C4 1_555 1_555
C1C N1A 1_555 1_555
H3C C1C 1_555 1_555
H4C C1C 1_555 1_555
C2C C3A 1_555 1_555
H5C C2C 1_555 1_555
H6C C2C 1_555 1_555
H8C C4A 1_555 1_555
As1A S1B 1_555 1_555
As2A S1C 1_555 1_555
C3A C4A 1_555 1_555
C1B C2B 1_555 1_555
C1C C2C 1_555 1_555

#END
