
#######################################################################
#
#                 Cambridge Crystallographic Data Centre
#                                CCDC 
#
#######################################################################
#
# If this CIF has been generated from an entry in the Cambridge 
# Structural Database, then it will include bibliographic, chemical, 
# crystal, experimental, refinement or atomic coordinate data resulting 
# from the CCDC's data processing and validation procedures.
#
#######################################################################

data_KEWZUJ
_chemical_formula_moiety         'C14 H19 N1 O4'
_chemical_name_systematic        2-(1-Nitro-2-phenylpentan-3-yl)-1,3-dioxolane
_symmetry_cell_setting           monoclinic
_symmetry_space_group_name_H-M   'P 21'
_symmetry_Int_Tables_number      4
_space_group_name_Hall           'P 2yb'
loop_
_symmetry_equiv_pos_site_id
_symmetry_equiv_pos_as_xyz
1 x,y,z
2 -x,1/2+y,-z
_cell_length_a                   5.56460(10)
_cell_length_b                   14.8330(3)
_cell_length_c                   8.7196(2)
_cell_angle_alpha                90
_cell_angle_beta                 102.056(2)
_cell_angle_gamma                90
_cell_volume                     703.839
_cell_formula_units_Z            2
loop_
_atom_site_label
_atom_site_type_symbol
_atom_site_fract_x
_atom_site_fract_y
_atom_site_fract_z
C1 C 0.5198(3) 0.70133(11) 0.80563(18)
H1 H 0.4119 0.6685 0.8522
C2 C 0.67885(19) 0.55380(8) 0.72364(13)
H2 H 0.5449 0.5322 0.7714
C3 C 0.8312(3) 0.70705(10) 0.65529(19)
H3 H 0.9363 0.6782 0.6010
N1 N 0.4102(2) 0.56137(8) 0.45638(12)
O1 O 0.22048(19) 0.56059(13) 0.50279(15)
C4 C 0.6782(2) 0.65614(9) 0.72820(14)
C5 C 0.9236(2) 0.51362(9) 0.81815(15)
H4 H 1.0520 0.5296 0.7614
O2 O 0.4266(2) 0.59367(10) 0.33222(14)
C6 C 0.9188(3) 0.41086(10) 0.82706(17)
H5 H 1.0509 0.3903 0.9126
O3 O 0.6909(3) 0.37826(7) 0.85189(16)
C7 C 0.6332(2) 0.51878(10) 0.55500(15)
H6 H 0.7750 0.5318 0.5103
H7 H 0.6117 0.4539 0.5551
C8 C 1.0002(3) 0.55402(10) 0.98329(16)
H8 H 1.1612 0.5306 1.0310
H9 H 1.0164 0.6187 0.9731
C9 C 0.8291(4) 0.80070(12) 0.6624(2)
H10 H 0.9316 0.8340 0.6123
C10 C 0.5202(4) 0.79461(13) 0.8145(2)
H11 H 0.4154 0.8239 0.8684
O4 O 0.9481(2) 0.37072(7) 0.68510(14)
C11 C 0.8286(3) 0.53631(14) 1.09411(18)
H12 H 0.6718 0.5635 1.0530
H13 H 0.8971 0.5618 1.1950
H14 H 0.8083 0.4725 1.1045
C12 C 0.6581(5) 0.29006(14) 0.7859(3)
H15 H 0.4923 0.2824 0.7252
H16 H 0.6892 0.2445 0.8676
C13 C 0.8412(5) 0.28343(13) 0.6832(3)
H17 H 0.9656 0.2388 0.7236
H18 H 0.7611 0.2667 0.5774
C14 C 0.6762(4) 0.84400(10) 0.74318(19)
H19 H 0.6778 0.9066 0.7499
loop_
_geom_bond_atom_site_label_1
_geom_bond_atom_site_label_2
_geom_bond_site_symmetry_1
_geom_bond_site_symmetry_2
C1 H1 1_555 1_555
C2 H2 1_555 1_555
C3 H3 1_555 1_555
N1 O1 1_555 1_555
C4 C1 1_555 1_555
C5 C2 1_555 1_555
H4 C5 1_555 1_555
O2 N1 1_555 1_555
C6 C5 1_555 1_555
H5 C6 1_555 1_555
O3 C6 1_555 1_555
C7 C2 1_555 1_555
H6 C7 1_555 1_555
H7 C7 1_555 1_555
C8 C5 1_555 1_555
H8 C8 1_555 1_555
H9 C8 1_555 1_555
C9 C3 1_555 1_555
H10 C9 1_555 1_555
C10 C1 1_555 1_555
H11 C10 1_555 1_555
O4 C6 1_555 1_555
C11 C8 1_555 1_555
H12 C11 1_555 1_555
H13 C11 1_555 1_555
H14 C11 1_555 1_555
C12 O3 1_555 1_555
H15 C12 1_555 1_555
H16 C12 1_555 1_555
C13 O4 1_555 1_555
H17 C13 1_555 1_555
H18 C13 1_555 1_555
C14 C9 1_555 1_555
H19 C14 1_555 1_555
C2 C4 1_555 1_555
C3 C4 1_555 1_555
N1 C7 1_555 1_555
C10 C14 1_555 1_555
C12 C13 1_555 1_555

#END
