
#######################################################################
#
#                 Cambridge Crystallographic Data Centre
#                                CCDC 
#
#######################################################################
#
# If this CIF has been generated from an entry in the Cambridge 
# Structural Database, then it will include bibliographic, chemical, 
# crystal, experimental, refinement or atomic coordinate data resulting 
# from the CCDC's data processing and validation procedures.
#
#######################################################################

data_KEXDUP
_chemical_formula_moiety         'C17 H15 F2 N1 O2'
_chemical_name_systematic        
(S)-N-(2,2-difluoro-3-oxo-1-phenylbutyl)benzamide
_symmetry_cell_setting           orthorhombic
_symmetry_space_group_name_H-M   'P 21 21 21'
_symmetry_Int_Tables_number      19
_space_group_name_Hall           'P 2ac 2ab'
loop_
_symmetry_equiv_pos_site_id
_symmetry_equiv_pos_as_xyz
1 x,y,z
2 1/2+x,1/2-y,-z
3 -x,1/2+y,1/2-z
4 1/2-x,-y,1/2+z
_cell_length_a                   5.4285(9)
_cell_length_b                   13.932(2)
_cell_length_c                   19.664(3)
_cell_angle_alpha                90
_cell_angle_beta                 90
_cell_angle_gamma                90
_cell_volume                     1487.19
_exptl_crystal_colour            colorless
_exptl_crystal_description       needle
_cell_formula_units_Z            4
loop_
_atom_site_label
_atom_site_type_symbol
_atom_site_fract_x
_atom_site_fract_y
_atom_site_fract_z
C1 C 0.2376(5) 0.8741(2) 0.31680(10)
C2 C 0.4449(5) 0.8172(2) 0.32653(12)
H1 H 0.5390 0.7981 0.2894
C3 C 0.5114(5) 0.7888(2) 0.39175(15)
H2 H 0.6501 0.7507 0.3983
C4 C 0.3707(6) 0.8173(2) 0.44724(11)
H3 H 0.4153 0.7983 0.4909
C5 C 0.1635(6) 0.8743(2) 0.43751(11)
H4 H 0.0693 0.8934 0.4746
C6 C 0.0969(5) 0.9027(2) 0.37229(13)
H5 H -0.0418 0.9408 0.3658
C7 C 0.1627(8) 0.9083(3) 0.24599(19)
H6 H -0.0156 0.9191 0.2468
C8 C 0.0272(8) 0.7904(3) 0.1615(2)
C9 C 0.1035(5) 0.71451(17) 0.11283(12)
C10 C -0.0497(5) 0.6966(2) 0.05764(13)
H7 H -0.1929 0.7323 0.0518
C11 C 0.0111(6) 0.6252(2) 0.01115(12)
H8 H -0.0914 0.6132 -0.0258
C12 C 0.2251(6) 0.57185(19) 0.01985(14)
H9 H 0.2658 0.5241 -0.0113
C13 C 0.3783(5) 0.5898(2) 0.07504(17)
H10 H 0.5215 0.5541 0.0809
C14 C 0.3175(5) 0.6611(2) 0.12153(13)
H11 H 0.4201 0.6731 0.1585
C15 C 0.2846(8) 1.0043(3) 0.2289(2)
C16 C 0.2226(11) 1.0441(3) 0.1583(3)
C17 C -0.0157(12) 1.0909(6) 0.1508(4)
H12 H -0.0332 1.1395 0.1851
H13 H -0.1445 1.0442 0.1559
H14 H -0.0265 1.1198 0.1066
F1 F 0.2200(6) 1.07087(18) 0.27591(13)
F2 F 0.5335(5) 0.9955(2) 0.23458(15)
N1 N 0.2125(7) 0.8399(2) 0.19230(16)
H15 H 0.3621 0.8303 0.1796
O1 O -0.1916(6) 0.8082(2) 0.17359(16)
O2 O 0.3731(9) 1.0372(3) 0.11379(19)
loop_
_geom_bond_atom_site_label_1
_geom_bond_atom_site_label_2
_geom_bond_site_symmetry_1
_geom_bond_site_symmetry_2
C1 C2 1_555 1_555
C2 H1 1_555 1_555
C3 C2 1_555 1_555
H2 C3 1_555 1_555
C4 C3 1_555 1_555
H3 C4 1_555 1_555
C5 C4 1_555 1_555
H4 C5 1_555 1_555
C6 C1 1_555 1_555
H5 C6 1_555 1_555
C7 C1 1_555 1_555
H6 C7 1_555 1_555
C8 C9 1_555 1_555
C9 C10 1_555 1_555
C10 H7 1_555 1_555
C11 C10 1_555 1_555
H8 C11 1_555 1_555
C12 C11 1_555 1_555
H9 C12 1_555 1_555
C13 C12 1_555 1_555
H10 C13 1_555 1_555
C14 C9 1_555 1_555
H11 C14 1_555 1_555
C15 C7 1_555 1_555
C16 C15 1_555 1_555
C17 C16 1_555 1_555
H12 C17 1_555 1_555
H13 C17 1_555 1_555
H14 C17 1_555 1_555
F1 C15 1_555 1_555
F2 C15 1_555 1_555
N1 C7 1_555 1_555
H15 N1 1_555 1_555
O1 C8 1_555 1_555
O2 C16 1_555 1_555
C5 C6 1_555 1_555
C8 N1 1_555 1_555
C13 C14 1_555 1_555

#END
