
#######################################################################
#
#                 Cambridge Crystallographic Data Centre
#                                CCDC 
#
#######################################################################
#
# If this CIF has been generated from an entry in the Cambridge 
# Structural Database, then it will include bibliographic, chemical, 
# crystal, experimental, refinement or atomic coordinate data resulting 
# from the CCDC's data processing and validation procedures.
#
#######################################################################

data_KEXFOL
_chemical_formula_moiety         'C36 H38 N6 O2'
_chemical_name_systematic        
2,2'-[3,8-bis(2-ethylhexyl)-2,7-dioxo-2,3,7,8-tetrahydroindolo[7,6-g]indole-1,6-diylidene]dipropanedinitrile
_symmetry_cell_setting           monoclinic
_symmetry_space_group_name_H-M   'P 21/c'
_symmetry_Int_Tables_number      14
_space_group_name_Hall           '-P 2ybc'
loop_
_symmetry_equiv_pos_site_id
_symmetry_equiv_pos_as_xyz
1 x,y,z
2 -x,1/2+y,1/2-z
3 -x,-y,-z
4 x,1/2-y,1/2+z
_cell_length_a                   6.6220(8)
_cell_length_b                   16.474(2)
_cell_length_c                   28.859(4)
_cell_angle_alpha                90
_cell_angle_beta                 92.587(8)
_cell_angle_gamma                90
_cell_volume                     3145.04
_exptl_crystal_colour            'dark red'
_exptl_crystal_description       Acicular
_cell_formula_units_Z            4
loop_
_atom_site_label
_atom_site_type_symbol
_atom_site_fract_x
_atom_site_fract_y
_atom_site_fract_z
C1 C 1.0800(11) 0.5536(6) 0.2568(3)
C2 C 0.9983(11) 0.5677(6) 0.2121(3)
H1 H 1.0683 0.6010 0.1913
C3 C 0.8181(11) 0.5336(6) 0.1984(3)
H2 H 0.7609 0.5441 0.1682
C4 C 0.7152(10) 0.4823(5) 0.2293(3)
C5 C 0.5252(10) 0.4443(5) 0.2165(3)
C6 C 0.2376(11) 0.4009(6) 0.1773(3)
C7 C 0.2440(10) 0.3675(5) 0.2247(3)
C8 C 0.4277(10) 0.3948(5) 0.2475(3)
C9 C 0.5074(10) 0.3825(5) 0.2925(3)
H3 H 0.4356 0.3503 0.3135
C10 C 0.6864(10) 0.4162(5) 0.3063(3)
H4 H 0.7421 0.4055 0.3366
C11 C 0.7935(10) 0.4680(5) 0.2757(3)
C12 C 0.9809(10) 0.5082(5) 0.2885(3)
C13 C 1.2662(11) 0.5499(6) 0.3285(3)
C14 C 1.2647(11) 0.5830(6) 0.2798(3)
C15 C 1.052(9) 0.465(2) 0.3746(18)
H5 H 1.1820 0.4588 0.3923
H6 H 0.9988 0.4102 0.3677
C16 C 0.821(5) 0.645(2) 0.4443(11)
H7 H 0.7075 0.6575 0.4225
H8 H 0.8832 0.6956 0.4556
H9 H 0.7720 0.6141 0.4705
C17 C 0.980(4) 0.5940(14) 0.4193(13)
H10 H 1.0170 0.6228 0.3908
H11 H 1.1032 0.5891 0.4398
C18 C 0.903(4) 0.5081(15) 0.4062(9)
H12 H 0.7697 0.5135 0.3887
C19 C 0.873(3) 0.4552(14) 0.4497(8)
H13 H 1.0086 0.4419 0.4635
H14 H 0.8038 0.4889 0.4725
C20 C 0.756(3) 0.3765(13) 0.4439(9)
H15 H 0.7815 0.3427 0.4719
H16 H 0.8074 0.3464 0.4171
C21 C 0.526(3) 0.3895(14) 0.4361(9)
H17 H 0.4730 0.4194 0.4627
H18 H 0.4986 0.4221 0.4077
C22 C 0.420(4) 0.3069(17) 0.4311(10)
H19 H 0.4958 0.2721 0.4104
H20 H 0.2826 0.3146 0.4181
H21 H 0.4157 0.2811 0.4616
C23 C 0.463(5) 0.4765(15) 0.1271(9)
H22 H 0.3360 0.4759 0.1076
H23 H 0.5057 0.5339 0.1302
C24 C 0.720(3) 0.2878(15) 0.0747(9)
H24 H 0.7735 0.3115 0.0466
H25 H 0.6635 0.2341 0.0675
H26 H 0.8299 0.2825 0.0985
C25 C 0.547(2) 0.3456(11) 0.0935(7)
H27 H 0.4302 0.3457 0.0709
H28 H 0.5004 0.3233 0.1231
C26 C 0.619(3) 0.4330(11) 0.1016(7)
H29 H 0.7486 0.4326 0.1206
C27 C 0.650(3) 0.4749(13) 0.0562(7)
H30 H 0.7366 0.4393 0.0378
H31 H 0.5174 0.4787 0.0393
C28 C 0.742(3) 0.5571(14) 0.0568(9)
H32 H 0.6724 0.5907 0.0797
H33 H 0.7158 0.5822 0.0259
C29 C 0.962(3) 0.5600(14) 0.0682(8)
H34 H 1.0276 0.5241 0.0459
H35 H 0.9844 0.5348 0.0992
C30 C 1.079(4) 0.6387(16) 0.0692(10)
H36 H 1.0681 0.6640 0.0385
H37 H 1.2212 0.6279 0.0777
H38 H 1.0227 0.6753 0.0921
C31 C 1.4167(11) 0.6306(6) 0.2651(4)
C32 C 1.4165(12) 0.6613(6) 0.2187(4)
C33 C 1.5945(11) 0.6520(5) 0.2940(3)
C34 C 0.0896(10) 0.3214(6) 0.2403(3)
C35 C -0.0861(11) 0.2983(6) 0.2117(3)
C36 C 0.0892(11) 0.2887(6) 0.2868(4)
N1 N 1.0918(9) 0.5038(4) 0.3312(2)
N2 N 1.4207(10) 0.6858(5) 0.1813(3)
N3 N 1.7419(10) 0.6723(4) 0.3125(3)
N4 N 0.4145(9) 0.4470(5) 0.1739(2)
N5 N -0.2351(9) 0.2818(5) 0.1928(3)
N6 N 0.0874(10) 0.2643(5) 0.3233(3)
O1 O 0.1087(8) 0.3920(4) 0.1468(2)
O2 O 1.3974(7) 0.5600(4) 0.3595(2)
C37? C 1.047(10) 0.467(3) 0.378(2)
H39? H 1.1706 0.4671 0.3981
H40? H 1.0012 0.4103 0.3733
C38? C 0.792(6) 0.662(2) 0.4283(13)
H41? H 0.6889 0.6706 0.4033
H42? H 0.8540 0.7146 0.4369
H43? H 0.7291 0.6390 0.4554
C39? C 0.957(5) 0.6037(17) 0.4116(16)
H44? H 1.0166 0.6274 0.3838
H45? H 1.0654 0.5995 0.4361
C40? C 0.880(5) 0.5178(17) 0.3995(10)
H46? H 0.7663 0.5235 0.3758
C41? C 0.800(3) 0.4681(14) 0.4406(8)
H47? H 0.9170 0.4487 0.4602
H48? H 0.7195 0.5045 0.4599
C42? C 0.670(4) 0.3949(15) 0.4259(7)
H49? H 0.7528 0.3556 0.4091
H50? H 0.5579 0.4131 0.4045
C43? C 0.581(4) 0.3526(16) 0.4681(8)
H51? H 0.6934 0.3334 0.4892
H52? H 0.5012 0.3923 0.4853
C44? C 0.447(5) 0.2808(19) 0.4539(11)
H53? H 0.3305 0.3001 0.4350
H54? H 0.4002 0.2539 0.4818
H55? H 0.5246 0.2421 0.4360
C45? C 0.446(7) 0.496(2) 0.1312(13)
H56? H 0.4939 0.5509 0.1399
H57? H 0.3164 0.5011 0.1129
C46? C 0.676(5) 0.319(2) 0.0609(14)
H58? H 0.7080 0.3413 0.0306
H59? H 0.6231 0.2641 0.0571
H60? H 0.7983 0.3185 0.0813
C47? C 0.508(4) 0.3759(17) 0.0836(12)
H61? H 0.4008 0.3889 0.0597
H62? H 0.4444 0.3453 0.1087
C48? C 0.596(5) 0.4546(16) 0.1034(10)
H63? H 0.7225 0.4435 0.1227
C49? C 0.642(4) 0.5099(18) 0.0629(10)
H64? H 0.6852 0.4771 0.0365
H65? H 0.5182 0.5402 0.0528
C50? C 0.806(5) 0.5683(19) 0.0779(9)
H66? H 0.9153 0.5379 0.0947
H67? H 0.7505 0.6079 0.0998
C51? C 0.893(4) 0.613(2) 0.0384(9)
H68? H 0.7817 0.6418 0.0211
H69? H 0.9506 0.5734 0.0171
C52? C 1.055(6) 0.675(3) 0.0514(14)
H70? H 1.0086 0.7098 0.0763
H71? H 1.0822 0.7083 0.0242
H72? H 1.1787 0.6467 0.0620
loop_
_geom_bond_atom_site_label_1
_geom_bond_atom_site_label_2
_geom_bond_site_symmetry_1
_geom_bond_site_symmetry_2
C1 C2 1_555 1_555
C2 H1 1_555 1_555
C3 C2 1_555 1_555
H2 C3 1_555 1_555
C4 C3 1_555 1_555
C5 C4 1_555 1_555
C6 C7 1_555 1_555
C7 C8 1_555 1_555
C8 C5 1_555 1_555
C9 C8 1_555 1_555
H3 C9 1_555 1_555
C10 C9 1_555 1_555
H4 C10 1_555 1_555
C11 C4 1_555 1_555
C12 C1 1_555 1_555
C13 C14 1_555 1_555
C14 C1 1_555 1_555
C15 H5 1_555 1_555
H6 C15 1_555 1_555
C16 H7 1_555 1_555
H8 C16 1_555 1_555
H9 C16 1_555 1_555
C17 C16 1_555 1_555
H10 C17 1_555 1_555
H11 C17 1_555 1_555
C18 C15 1_555 1_555
H12 C18 1_555 1_555
C19 C18 1_555 1_555
H13 C19 1_555 1_555
H14 C19 1_555 1_555
C20 C19 1_555 1_555
H15 C20 1_555 1_555
H16 C20 1_555 1_555
C21 C20 1_555 1_555
H17 C21 1_555 1_555
H18 C21 1_555 1_555
C22 C21 1_555 1_555
H19 C22 1_555 1_555
H20 C22 1_555 1_555
H21 C22 1_555 1_555
C23 H22 1_555 1_555
H23 C23 1_555 1_555
C24 H24 1_555 1_555
H25 C24 1_555 1_555
H26 C24 1_555 1_555
C25 C24 1_555 1_555
H27 C25 1_555 1_555
H28 C25 1_555 1_555
C26 C23 1_555 1_555
H29 C26 1_555 1_555
C27 C26 1_555 1_555
H30 C27 1_555 1_555
H31 C27 1_555 1_555
C28 C27 1_555 1_555
H32 C28 1_555 1_555
H33 C28 1_555 1_555
C29 C28 1_555 1_555
H34 C29 1_555 1_555
H35 C29 1_555 1_555
C30 C29 1_555 1_555
H36 C30 1_555 1_555
H37 C30 1_555 1_555
H38 C30 1_555 1_555
C31 C14 1_555 1_555
C32 C31 1_555 1_555
C33 C31 1_555 1_555
C34 C7 1_555 1_555
C35 C34 1_555 1_555
C36 C34 1_555 1_555
N1 C12 1_555 1_555
N2 C32 1_555 1_555
N3 C33 1_555 1_555
N4 C5 1_555 1_555
N5 C35 1_555 1_555
N6 C36 1_555 1_555
O1 C6 1_555 1_555
O2 C13 1_555 1_555
C6 N4 1_555 1_555
C10 C11 1_555 1_555
C11 C12 1_555 1_555
C13 N1 1_555 1_555
C15 N1 1_555 1_555
C17 C18 1_555 1_555
C23 N4 1_555 1_555
C25 C26 1_555 1_555

#END
