
#######################################################################
#
#                 Cambridge Crystallographic Data Centre
#                                CCDC 
#
#######################################################################
#
# If this CIF has been generated from an entry in the Cambridge 
# Structural Database, then it will include bibliographic, chemical, 
# crystal, experimental, refinement or atomic coordinate data resulting 
# from the CCDC's data processing and validation procedures.
#
#######################################################################

data_KEXPUA
_chemical_formula_moiety         'C15 H18 Cl1 F3 N2 O1'
_chemical_name_systematic        
"N,N'-Di-isopropyl-N-(4-(trifluoromethyl)benzoyl)carbamimidic chloride"
_symmetry_cell_setting           monoclinic
_symmetry_space_group_name_H-M   'C 2/c'
_symmetry_Int_Tables_number      15
_space_group_name_Hall           '-C 2yn'
loop_
_symmetry_equiv_pos_site_id
_symmetry_equiv_pos_as_xyz
1 x,y,z
2 -x,y,1/2-z
3 1/2+x,1/2+y,z
4 1/2-x,1/2+y,1/2-z
5 -x,-y,-z
6 x,-y,1/2+z
7 1/2-x,1/2-y,-z
8 1/2+x,1/2-y,1/2+z
_cell_length_a                   28.858(17)
_cell_length_b                   6.199(3)
_cell_length_c                   19.531(11)
_cell_angle_alpha                90
_cell_angle_beta                 108.966(9)
_cell_angle_gamma                90
_cell_volume                     3304.24
_exptl_crystal_colour            colorless
_exptl_crystal_description       rod
_cell_formula_units_Z            8
loop_
_atom_site_label
_atom_site_type_symbol
_atom_site_fract_x
_atom_site_fract_y
_atom_site_fract_z
Cl1 Cl 0.11980(3) 0.63010(17) 0.03910(5)
F1 F 0.0920(6) 1.1746(12) 0.3716(10)
F2 F 0.0808(5) 0.890(2) 0.4219(6)
F3 F 0.0336(2) 0.964(2) 0.3182(5)
O1 O 0.23908(9) 0.4051(4) 0.26860(13)
N1 N 0.18417(10) 0.4499(5) 0.15549(14)
N2 N 0.10243(11) 0.3679(5) 0.13791(16)
C1 C 0.02790(16) 0.1868(9) 0.0705(3)
H1 H 0.0427 0.1439 0.0340
H2 H -0.0076 0.2020 0.0478
H3 H 0.0347 0.0764 0.1084
C2 C 0.04939(14) 0.3997(7) 0.1036(2)
H4 H 0.0432 0.5124 0.0651
C3 C 0.02825(16) 0.4716(8) 0.1615(3)
H5 H -0.0072 0.4909 0.1399
H6 H 0.0433 0.6085 0.1824
H7 H 0.0350 0.3619 0.1996
C4 C 0.13372(13) 0.4609(6) 0.11723(18)
C5 C 0.21878(13) 0.3579(7) 0.12061(19)
H8 H 0.2462 0.2919 0.1604
C6 C 0.24159(16) 0.5322(8) 0.0873(3)
H9 H 0.2704 0.4737 0.0775
H10 H 0.2516 0.6537 0.1210
H11 H 0.2176 0.5817 0.0419
C7 C 0.19579(17) 0.1761(7) 0.0687(2)
H12 H 0.1828 0.0670 0.0939
H13 H 0.2206 0.1105 0.0510
H14 H 0.1691 0.2335 0.0277
C8 C 0.20002(13) 0.4743(6) 0.22988(18)
C9 C 0.16789(12) 0.6037(5) 0.26166(18)
C10 C 0.15866(13) 0.5261(6) 0.32206(18)
H15 H 0.1715 0.3901 0.3416
C11 C 0.13088(13) 0.6440(6) 0.35464(19)
H16 H 0.1240 0.5877 0.3955
C12 C 0.11313(13) 0.8461(6) 0.32693(19)
C13 C 0.12323(13) 0.9272(6) 0.26722(19)
H17 H 0.1113 1.0653 0.2486
C14 C 0.15062(12) 0.8074(6) 0.23466(18)
H18 H 0.1577 0.8636 0.1939
C15 C 0.08294(17) 0.9739(7) 0.3610(2)
F4? F 0.0526(7) 1.104(3) 0.3175(5)
F5? F 0.1160(5) 1.116(2) 0.4082(7)
F6? F 0.0653(7) 0.871(2) 0.4048(10)
loop_
_geom_bond_atom_site_label_1
_geom_bond_atom_site_label_2
_geom_bond_site_symmetry_1
_geom_bond_site_symmetry_2
Cl1 C4 1_555 1_555
F1 C15 1_555 1_555
F2 C15 1_555 1_555
F3 C15 1_555 1_555
O1 C8 1_555 1_555
N1 C4 1_555 1_555
N2 C2 1_555 1_555
C1 H1 1_555 1_555
H2 C1 1_555 1_555
H3 C1 1_555 1_555
C2 C1 1_555 1_555
H4 C2 1_555 1_555
C3 C2 1_555 1_555
H5 C3 1_555 1_555
H6 C3 1_555 1_555
H7 C3 1_555 1_555
C4 N2 1_555 1_555
C5 N1 1_555 1_555
H8 C5 1_555 1_555
C6 C5 1_555 1_555
H9 C6 1_555 1_555
H10 C6 1_555 1_555
H11 C6 1_555 1_555
C7 C5 1_555 1_555
H12 C7 1_555 1_555
H13 C7 1_555 1_555
H14 C7 1_555 1_555
C8 N1 1_555 1_555
C9 C8 1_555 1_555
C10 C9 1_555 1_555
H15 C10 1_555 1_555
C11 C10 1_555 1_555
H16 C11 1_555 1_555
C12 C11 1_555 1_555
C13 C12 1_555 1_555
H17 C13 1_555 1_555
C14 C9 1_555 1_555
H18 C14 1_555 1_555
C15 C12 1_555 1_555
C13 C14 1_555 1_555

#END
