
#######################################################################
#
#                 Cambridge Crystallographic Data Centre
#                                CCDC 
#
#######################################################################
#
# If this CIF has been generated from an entry in the Cambridge 
# Structural Database, then it will include bibliographic, chemical, 
# crystal, experimental, refinement or atomic coordinate data resulting 
# from the CCDC's data processing and validation procedures.
#
#######################################################################

data_KEXTUF
_chemical_name_common            
"(2R,3'S,3a'R,3a1'R,6a'R,7'S,11a'R)-7'-hydroxy-5',5',8',8'-tetramethyl-1',3',3a',7',7a',8',9',11b'- octahydro-2'H-spiro[aziridine-2,15'-[6a,11a](epoxymethano)[3,3a1]ethanophenanthro[1,10- de][1,3]dioxin]-14'-one"
_chemical_formula_moiety         'C23 H31 N1 O5'
_chemical_name_systematic        
14'-hydroxy-11',11',16',16'-tetramethylspiro[aziridine-2,6'-[10,12,21]trioxahexacyclo[11.6.2.0^1,15^.0^2,8^.0^5,9^.0^8,13^]henicos[18]en]-7'-one
_symmetry_cell_setting           orthorhombic
_symmetry_space_group_name_H-M   'P 21 21 21'
_symmetry_Int_Tables_number      19
_space_group_name_Hall           'P 2ac 2ab'
loop_
_symmetry_equiv_pos_site_id
_symmetry_equiv_pos_as_xyz
1 x,y,z
2 1/2+x,1/2-y,-z
3 -x,1/2+y,1/2-z
4 1/2-x,-y,1/2+z
_cell_length_a                   9.572(5)
_cell_length_b                   13.911(6)
_cell_length_c                   15.880(8)
_cell_angle_alpha                90
_cell_angle_beta                 90
_cell_angle_gamma                90
_cell_volume                     2114.52
_exptl_crystal_colour            colorless
_exptl_crystal_description       block
_chemical_melting_point          '509 K'
_cell_formula_units_Z            4
_exptl_crystal_recrystallization_method 
'Re-crystallisation from solvent: Ethyl acetate/Hexane'
loop_
_atom_site_label
_atom_site_type_symbol
_atom_site_fract_x
_atom_site_fract_y
_atom_site_fract_z
O1 O 0.16639(13) 0.34223(9) 0.34434(8)
C1 C 0.29386(19) 0.33096(13) 0.29724(12)
O2 O 0.37606(14) 0.41192(8) 0.31076(8)
C2 C 0.4441(2) 0.42586(13) 0.39138(12)
O3 O 0.50177(14) 0.33819(9) 0.42182(8)
C3 C 0.4082(2) 0.25865(12) 0.42343(11)
C4 C 0.3647(2) 0.24081(12) 0.33174(11)
C5 C 0.2652(2) 0.15221(13) 0.32223(12)
C6 C 0.2453(3) 0.10239(16) 0.40804(14)
C7 C 0.3847(3) 0.08525(15) 0.45415(15)
C8 C 0.4898(2) 0.16748(14) 0.44308(12)
C9 C 0.5797(2) 0.15797(14) 0.36489(13)
C10 C 0.5062(2) 0.21129(13) 0.29637(12)
O4 O 0.55384(16) 0.22480(12) 0.22643(10)
N1 N 0.73354(19) 0.16669(15) 0.36954(13)
C11 C 0.6710(3) 0.07579(16) 0.34341(16)
C12 C 0.1310(2) 0.18699(13) 0.27573(13)
C13 C 0.0672(2) 0.26665(14) 0.32874(14)
C14 C 0.1792(2) 0.22808(13) 0.18927(12)
C15 C 0.2536(2) 0.32526(13) 0.20412(13)
O5 O 0.36420(16) 0.34281(11) 0.14726(9)
C16 C 0.0690(3) 0.22729(16) 0.11850(14)
C17 C 0.1354(4) 0.2591(2) 0.03503(15)
C18 C -0.0578(3) 0.2916(2) 0.13553(19)
C19 C 0.0182(3) 0.12313(18) 0.10915(16)
C20 C -0.0196(3) 0.07713(17) 0.19062(17)
C21 C 0.0291(2) 0.10568(15) 0.26450(15)
C22 C 0.3433(3) 0.46933(15) 0.45475(15)
C23 C 0.5659(3) 0.49025(17) 0.37367(16)
H1 H 0.3292 0.2695 0.4628
H2 H 0.3136 0.1057 0.2853
H3 H 0.1835 0.1446 0.4424
H4 H 0.1973 0.0428 0.3940
H5 H 0.3654 0.0765 0.5159
H6 H 0.4268 0.0267 0.4292
H7 H 0.5512 0.1738 0.4918
H8 H 0.6721 0.0207 0.3879
H9 H 0.6713 0.0571 0.2825
H10 H 0.0346 0.2432 0.3846
H11 H -0.0142 0.2950 0.2980
H12 H 0.2513 0.1836 0.1689
H13 H 0.1819 0.3771 0.1973
H14 H 0.0643 0.2506 -0.0067
H15 H 0.1663 0.3278 0.0377
H16 H 0.2142 0.2157 0.0244
H17 H -0.1092 0.3000 0.0824
H18 H -0.0287 0.3562 0.1534
H19 H -0.1181 0.2629 0.1797
H20 H -0.0655 0.1225 0.0741
H21 H 0.0939 0.0826 0.0801
H22 H -0.0802 0.0221 0.1900
H23 H -0.0010 0.0754 0.3180
H24 H 0.3917 0.4843 0.5083
H25 H 0.3059 0.5281 0.4343
H26 H 0.2676 0.4276 0.4685
H27 H 0.6210 0.5039 0.4254
H28 H 0.5332 0.5485 0.3469
H29 H 0.6256 0.4565 0.3344
H30 H 0.4244 0.2986 0.1630
H31 H 0.7653 0.2064 0.3260
loop_
_geom_bond_atom_site_label_1
_geom_bond_atom_site_label_2
_geom_bond_site_symmetry_1
_geom_bond_site_symmetry_2
O1 C1 1_555 1_555
C1 O2 1_555 1_555
O2 C2 1_555 1_555
C2 O3 1_555 1_555
O3 C3 1_555 1_555
C3 C4 1_555 1_555
C4 C1 1_555 1_555
C5 C4 1_555 1_555
C6 C5 1_555 1_555
C7 C6 1_555 1_555
C8 C3 1_555 1_555
C9 C8 1_555 1_555
C10 C4 1_555 1_555
O4 C10 1_555 1_555
N1 C9 1_555 1_555
C11 C9 1_555 1_555
C12 C5 1_555 1_555
C13 O1 1_555 1_555
C14 C12 1_555 1_555
C15 C1 1_555 1_555
O5 C15 1_555 1_555
C16 C14 1_555 1_555
C17 C16 1_555 1_555
C18 C16 1_555 1_555
C19 C16 1_555 1_555
C20 C19 1_555 1_555
C21 C12 1_555 1_555
C22 C2 1_555 1_555
C23 C2 1_555 1_555
H1 C3 1_555 1_555
H2 C5 1_555 1_555
H3 C6 1_555 1_555
H4 C6 1_555 1_555
H5 C7 1_555 1_555
H6 C7 1_555 1_555
H7 C8 1_555 1_555
H8 C11 1_555 1_555
H9 C11 1_555 1_555
H10 C13 1_555 1_555
H11 C13 1_555 1_555
H12 C14 1_555 1_555
H13 C15 1_555 1_555
H14 C17 1_555 1_555
H15 C17 1_555 1_555
H16 C17 1_555 1_555
H17 C18 1_555 1_555
H18 C18 1_555 1_555
H19 C18 1_555 1_555
H20 C19 1_555 1_555
H21 C19 1_555 1_555
H22 C20 1_555 1_555
H23 C21 1_555 1_555
H24 C22 1_555 1_555
H25 C22 1_555 1_555
H26 C22 1_555 1_555
H27 C23 1_555 1_555
H28 C23 1_555 1_555
H29 C23 1_555 1_555
H30 O5 1_555 1_555
H31 N1 1_555 1_555
C7 C8 1_555 1_555
C9 C10 1_555 1_555
N1 C11 1_555 1_555
C12 C13 1_555 1_555
C14 C15 1_555 1_555
C20 C21 1_555 1_555

#END
