
#######################################################################
#
#                 Cambridge Crystallographic Data Centre
#                                CCDC 
#
#######################################################################
#
# If this CIF has been generated from an entry in the Cambridge 
# Structural Database, then it will include bibliographic, chemical, 
# crystal, experimental, refinement or atomic coordinate data resulting 
# from the CCDC's data processing and validation procedures.
#
#######################################################################

data_KEXTOZ
_chemical_formula_moiety         'C30 H26 N2 O1'
_chemical_name_systematic        
6,6,10-trimethyl-2,3-diphenyl-6,7-dihydroimidazo[1,2-f]phenanthridin-8(5H)-one
_symmetry_cell_setting           monoclinic
_symmetry_space_group_name_H-M   'P 21/c'
_symmetry_Int_Tables_number      14
_space_group_name_Hall           '-P 2ybc'
loop_
_symmetry_equiv_pos_site_id
_symmetry_equiv_pos_as_xyz
1 x,y,z
2 -x,1/2+y,1/2-z
3 -x,-y,-z
4 x,1/2-y,1/2+z
_cell_length_a                   10.918(5)
_cell_length_b                   9.589(5)
_cell_length_c                   22.586(11)
_cell_angle_alpha                90
_cell_angle_beta                 101.637(7)
_cell_angle_gamma                90
_cell_volume                     2315.99
_exptl_crystal_colour            yellow
_exptl_crystal_description       block
_cell_formula_units_Z            4
loop_
_atom_site_label
_atom_site_type_symbol
_atom_site_fract_x
_atom_site_fract_y
_atom_site_fract_z
O1 O 0.57016(15) -0.2804(2) 0.01924(9)
N1 N 0.18647(13) 0.13676(17) 0.10259(7)
N2 N 0.39059(12) 0.09631(15) 0.10710(6)
C1 C 0.26803(15) 0.0484(2) 0.08932(7)
C2 C 0.24406(16) -0.08392(19) 0.06042(7)
C3 C 0.12038(18) -0.1296(2) 0.04132(9)
H1 H 0.0545 -0.0743 0.0480
C4 C 0.0968(2) -0.2551(2) 0.01289(9)
H2 H 0.0145 -0.2837 -0.0008
C5 C 0.1944(2) -0.3409(2) 0.00404(9)
C6 C 0.31557(18) -0.2954(2) 0.02215(8)
H3 H 0.3805 -0.3529 0.0161
C7 C 0.34450(16) -0.16443(19) 0.04960(7)
C8 C 0.47096(16) -0.10716(19) 0.06743(7)
C9 C 0.58085(17) -0.1778(2) 0.05072(8)
C10 C 0.70747(17) -0.1153(2) 0.06975(8)
H4 H 0.7241 -0.0571 0.0371
H5 H 0.7687 -0.1899 0.0758
C11 C 0.72569(15) -0.02859(19) 0.12669(8)
C12 C 0.62030(16) 0.07816(19) 0.11844(8)
H6 H 0.6223 0.1247 0.1568
H7 H 0.6354 0.1481 0.0897
C13 C 0.49248(15) 0.01821(18) 0.09675(7)
C14 C 0.38101(16) 0.22764(18) 0.13365(7)
C15 C 0.25523(16) 0.2484(2) 0.12956(7)
C16 C 0.18856(17) 0.3665(2) 0.15045(8)
C17 C 0.07641(18) 0.3406(3) 0.16834(10)
H8 H 0.0460 0.2499 0.1673
C18 C 0.0095(2) 0.4470(3) 0.18755(12)
H9 H -0.0648 0.4275 0.2001
C19 C 0.0516(3) 0.5813(3) 0.18830(11)
H10 H 0.0055 0.6533 0.2006
C20 C 0.1619(3) 0.6093(3) 0.17085(11)
H11 H 0.1910 0.7005 0.1717
C21 C 0.2302(2) 0.5030(2) 0.15201(10)
H12 H 0.3051 0.5233 0.1402
C22 C 0.48523(15) 0.31926(19) 0.16323(8)
C23 C 0.54247(19) 0.4118(2) 0.13073(10)
H13 H 0.5183 0.4150 0.0888
C24 C 0.6352(2) 0.4996(2) 0.15982(12)
H14 H 0.6740 0.5607 0.1375
C25 C 0.6703(2) 0.4973(3) 0.22132(14)
H15 H 0.7325 0.5571 0.2409
C26 C 0.6135(2) 0.4063(3) 0.25406(10)
H16 H 0.6372 0.4046 0.2960
C27 C 0.52129(18) 0.3171(2) 0.22531(8)
H17 H 0.4834 0.2554 0.2479
C28 C 0.1688(3) -0.4831(3) -0.02403(13)
H18 H 0.2465 -0.5279 -0.0260
H19 H 0.1193 -0.4737 -0.0641
H20 H 0.1242 -0.5384 0.0001
C29 C 0.85017(18) 0.0489(2) 0.13672(10)
H21 H 0.9175 -0.0173 0.1419
H22 H 0.8586 0.1059 0.1723
H23 H 0.8528 0.1068 0.1023
C30 C 0.72216(18) -0.1213(2) 0.18087(8)
H24 H 0.6440 -0.1704 0.1745
H25 H 0.7306 -0.0649 0.2166
H26 H 0.7896 -0.1872 0.1857
loop_
_geom_bond_atom_site_label_1
_geom_bond_atom_site_label_2
_geom_bond_site_symmetry_1
_geom_bond_site_symmetry_2
O1 C9 1_555 1_555
N1 C1 1_555 1_555
N2 C1 1_555 1_555
C1 C2 1_555 1_555
C2 C3 1_555 1_555
C3 H1 1_555 1_555
C4 C3 1_555 1_555
H2 C4 1_555 1_555
C5 C4 1_555 1_555
C6 C5 1_555 1_555
H3 C6 1_555 1_555
C7 C2 1_555 1_555
C8 C7 1_555 1_555
C9 C8 1_555 1_555
C10 C9 1_555 1_555
H4 C10 1_555 1_555
H5 C10 1_555 1_555
C11 C10 1_555 1_555
C12 C11 1_555 1_555
H6 C12 1_555 1_555
H7 C12 1_555 1_555
C13 N2 1_555 1_555
C14 N2 1_555 1_555
C15 N1 1_555 1_555
C16 C15 1_555 1_555
C17 C16 1_555 1_555
H8 C17 1_555 1_555
C18 C17 1_555 1_555
H9 C18 1_555 1_555
C19 C18 1_555 1_555
H10 C19 1_555 1_555
C20 C19 1_555 1_555
H11 C20 1_555 1_555
C21 C16 1_555 1_555
H12 C21 1_555 1_555
C22 C14 1_555 1_555
C23 C22 1_555 1_555
H13 C23 1_555 1_555
C24 C23 1_555 1_555
H14 C24 1_555 1_555
C25 C24 1_555 1_555
H15 C25 1_555 1_555
C26 C25 1_555 1_555
H16 C26 1_555 1_555
C27 C22 1_555 1_555
H17 C27 1_555 1_555
C28 C5 1_555 1_555
H18 C28 1_555 1_555
H19 C28 1_555 1_555
H20 C28 1_555 1_555
C29 C11 1_555 1_555
H21 C29 1_555 1_555
H22 C29 1_555 1_555
H23 C29 1_555 1_555
C30 C11 1_555 1_555
H24 C30 1_555 1_555
H25 C30 1_555 1_555
H26 C30 1_555 1_555
C6 C7 1_555 1_555
C8 C13 1_555 1_555
C12 C13 1_555 1_555
C14 C15 1_555 1_555
C20 C21 1_555 1_555
C26 C27 1_555 1_555

#END
