
#######################################################################
#
#                 Cambridge Crystallographic Data Centre
#                                CCDC 
#
#######################################################################
#
# If this CIF has been generated from an entry in the Cambridge 
# Structural Database, then it will include bibliographic, chemical, 
# crystal, experimental, refinement or atomic coordinate data resulting 
# from the CCDC's data processing and validation procedures.
#
#######################################################################

data_KEXYOC
_chemical_formula_moiety         'C12 H9 Cl1 N4 O3'
_chemical_name_systematic        
1-(2-chloronicotinoyl)-2-(2-nitrophenyl)hydrazine
_symmetry_cell_setting           monoclinic
_symmetry_space_group_name_H-M   'C c'
_symmetry_Int_Tables_number      9
_space_group_name_Hall           'C -2yc'
loop_
_symmetry_equiv_pos_site_id
_symmetry_equiv_pos_as_xyz
1 x,y,z
2 x,-y,1/2+z
3 1/2+x,1/2+y,z
4 1/2+x,1/2-y,1/2+z
_cell_length_a                   4.8443(2)
_cell_length_b                   22.7344(16)
_cell_length_c                   11.4216(8)
_cell_angle_alpha                90
_cell_angle_beta                 97.636(4)
_cell_angle_gamma                90
_cell_volume                     1246.73
_exptl_crystal_colour            yellow
_exptl_crystal_description       lath
_cell_formula_units_Z            4
loop_
_atom_site_label
_atom_site_type_symbol
_atom_site_fract_x
_atom_site_fract_y
_atom_site_fract_z
N1 N 0.2784(4) 0.78250(8) 0.40257(16)
C1 C 0.3022(4) 0.73489(10) 0.33856(19)
Cl1 Cl 0.55410(9) 0.68490(2) 0.39825(5)
C2 C 0.1364(4) 0.72155(9) 0.23236(19)
C3 C -0.0720(4) 0.76181(9) 0.1932(2)
C4 C -0.1010(4) 0.81218(9) 0.2583(2)
C5 C 0.0790(5) 0.82094(10) 0.3617(2)
C6 C 0.1870(4) 0.66923(10) 0.1604(2)
O1 O 0.4118(3) 0.65931(7) 0.12634(16)
N2 N -0.0342(3) 0.63411(7) 0.13181(17)
N3 N -0.0142(3) 0.59205(8) 0.04340(16)
N4 N 0.2300(4) 0.49879(8) -0.08622(18)
C7 C -0.0538(4) 0.53349(9) 0.0680(2)
C8 C 0.0504(4) 0.48754(9) 0.00326(19)
O2 O 0.2895(3) 0.55016(7) -0.10875(16)
O3 O 0.3197(3) 0.45690(7) -0.13775(15)
C9 C -0.0102(4) 0.42893(10) 0.0239(2)
C10 C -0.1722(4) 0.41480(10) 0.1096(2)
C11 C -0.2766(4) 0.45942(10) 0.1751(2)
C12 C -0.2189(4) 0.51746(10) 0.1551(2)
H1 H -0.1934 0.7547 0.1222
H2 H -0.2416 0.8402 0.2327
H3 H 0.0601 0.8558 0.4056
H4 H -0.1987 0.6465 0.1355
H5 H 0.1095 0.5977 0.0010
H6 H 0.0605 0.3987 -0.0214
H7 H -0.2131 0.3748 0.1242
H8 H -0.3889 0.4496 0.2344
H9 H -0.2917 0.5472 0.2008
loop_
_geom_bond_atom_site_label_1
_geom_bond_atom_site_label_2
_geom_bond_site_symmetry_1
_geom_bond_site_symmetry_2
N1 C1 1_555 1_555
C1 Cl1 1_555 1_555
C2 C1 1_555 1_555
C3 C2 1_555 1_555
C4 C3 1_555 1_555
C5 N1 1_555 1_555
C6 C2 1_555 1_555
O1 C6 1_555 1_555
N2 C6 1_555 1_555
N3 N2 1_555 1_555
N4 C8 1_555 1_555
C7 N3 1_555 1_555
C8 C7 1_555 1_555
O2 N4 1_555 1_555
O3 N4 1_555 1_555
C9 C8 1_555 1_555
C10 C9 1_555 1_555
C11 C10 1_555 1_555
C12 C7 1_555 1_555
H1 C3 1_555 1_555
H2 C4 1_555 1_555
H3 C5 1_555 1_555
H4 N2 1_555 1_555
H5 N3 1_555 1_555
H6 C9 1_555 1_555
H7 C10 1_555 1_555
H8 C11 1_555 1_555
H9 C12 1_555 1_555
C4 C5 1_555 1_555
C11 C12 1_555 1_555

#END
