
#######################################################################
#
#                 Cambridge Crystallographic Data Centre
#                                CCDC 
#
#######################################################################
#
# If this CIF has been generated from an entry in the Cambridge 
# Structural Database, then it will include bibliographic, chemical, 
# crystal, experimental, refinement or atomic coordinate data resulting 
# from the CCDC's data processing and validation procedures.
#
#######################################################################

data_KEYGEB
_chemical_formula_moiety         'C5 H10 O4'
_chemical_name_systematic        2-Deoxy-DL-xylose
_symmetry_cell_setting           orthorhombic
_symmetry_space_group_name_H-M   'P 21 21 21'
_symmetry_Int_Tables_number      19
_space_group_name_Hall           'P 2ac 2ab'
loop_
_symmetry_equiv_pos_site_id
_symmetry_equiv_pos_as_xyz
1 x,y,z
2 1/2-x,-y,1/2+z
3 -x,1/2+y,1/2-z
4 1/2+x,1/2-y,-z
_cell_length_a                   6.1005(17)
_cell_length_b                   10.071(3)
_cell_length_c                   10.398(3)
_cell_angle_alpha                90
_cell_angle_beta                 90
_cell_angle_gamma                90
_cell_volume                     638.834
_exptl_crystal_colour            colorless
_exptl_crystal_description       block
_chemical_melting_point          77-78deg.C
_cell_formula_units_Z            4
_exptl_crystal_recrystallization_method 'acetone/ethyl acetate'
loop_
_atom_site_label
_atom_site_type_symbol
_atom_site_fract_x
_atom_site_fract_y
_atom_site_fract_z
O1 O 0.8178(2) 0.67773(11) 0.21386(11)
O2 O 1.1602(2) 0.61484(13) 0.15107(12)
H1 H 1.186(4) 0.691(2) 0.125(2)
O3 O 0.7696(3) 0.35630(12) 0.45646(14)
H2 H 0.735(4) 0.352(2) 0.530(3)
O4 O 0.4642(3) 0.58940(15) 0.48041(14)
H3 H 0.429(4) 0.525(2) 0.517(2)
C1 C 1.0226(3) 0.62405(17) 0.25758(16)
H4 H 1.0876 0.6823 0.3227
C2 C 0.9852(3) 0.48653(17) 0.31288(16)
H5 H 1.1225 0.4518 0.3457
H6 H 0.9344 0.4275 0.2454
C3 C 0.8173(3) 0.49055(15) 0.42044(16)
H7 H 0.8797 0.5375 0.4944
C4 C 0.6104(3) 0.56072(18) 0.37765(17)
H8 H 0.5346 0.5057 0.3139
C5 C 0.6655(3) 0.69442(17) 0.31780(17)
H9 H 0.5325 0.7358 0.2860
H10 H 0.7288 0.7522 0.3825
loop_
_geom_bond_atom_site_label_1
_geom_bond_atom_site_label_2
_geom_bond_site_symmetry_1
_geom_bond_site_symmetry_2
O1 C1 1_555 1_555
O2 H1 1_555 1_555
O3 H2 1_555 1_555
O4 H3 1_555 1_555
C1 O2 1_555 1_555
H4 C1 1_555 1_555
C2 C1 1_555 1_555
H5 C2 1_555 1_555
H6 C2 1_555 1_555
C3 O3 1_555 1_555
H7 C3 1_555 1_555
C4 O4 1_555 1_555
H8 C4 1_555 1_555
C5 O1 1_555 1_555
H9 C5 1_555 1_555
H10 C5 1_555 1_555
C2 C3 1_555 1_555
C3 C4 1_555 1_555
C4 C5 1_555 1_555

#END
