
#######################################################################
#
#                 Cambridge Crystallographic Data Centre
#                                CCDC 
#
#######################################################################
#
# If this CIF has been generated from an entry in the Cambridge 
# Structural Database, then it will include bibliographic, chemical, 
# crystal, experimental, refinement or atomic coordinate data resulting 
# from the CCDC's data processing and validation procedures.
#
#######################################################################

data_KEYMIN
_chemical_formula_moiety         'C20 H15 N3 O2'
_chemical_name_systematic        
5-(1,4-diphenylbut-1-en-3-yn-2-yl)-1-methyl-4-nitro-1H-pyrazole
_symmetry_cell_setting           triclinic
_symmetry_space_group_name_H-M   'P -1'
_symmetry_Int_Tables_number      2
_space_group_name_Hall           '-P 1'
loop_
_symmetry_equiv_pos_site_id
_symmetry_equiv_pos_as_xyz
1 x,y,z
2 -x,-y,-z
_cell_length_a                   7.84130(10)
_cell_length_b                   10.9214(2)
_cell_length_c                   11.40160(10)
_cell_angle_alpha                62.4846(5)
_cell_angle_beta                 73.8355(5)
_cell_angle_gamma                79.6629(5)
_cell_volume                     830.248
_exptl_crystal_colour            colorless
_exptl_crystal_description       Block
_cell_formula_units_Z            2
loop_
_atom_site_label
_atom_site_type_symbol
_atom_site_fract_x
_atom_site_fract_y
_atom_site_fract_z
O1 O -0.20537(14) 0.74778(12) 0.22719(10)
O2 O -0.29727(14) 0.73464(11) 0.42978(11)
N1 N 0.27043(14) 0.60587(11) 0.35336(10)
N2 N 0.21205(15) 0.61280(12) 0.47455(11)
N3 N -0.17885(14) 0.72453(10) 0.33685(11)
C1 C 0.14528(16) 0.64754(11) 0.28024(11)
C2 C -0.00417(16) 0.68372(11) 0.36036(12)
C3 C 0.04435(18) 0.65933(12) 0.47922(12)
H1 H -0.0328 0.6743 0.5527
C4 C 0.17636(16) 0.64210(12) 0.14858(12)
C5 C 0.22288(16) 0.50733(12) 0.15474(12)
C6 C 0.26241(17) 0.39082(13) 0.16865(12)
C7 C 0.30902(16) 0.25390(12) 0.17912(13)
C8 C 0.29065(19) 0.22233(14) 0.07778(15)
H2 H 0.2471 0.2916 0.0020
C9 C 0.3363(2) 0.08967(17) 0.08818(19)
H3 H 0.3238 0.0678 0.0196
C10 C 0.4001(2) -0.01103(16) 0.1986(2)
H4 H 0.4314 -0.1018 0.2053
C11 C 0.4185(2) 0.01951(15) 0.29846(18)
H5 H 0.4627 -0.0503 0.3736
C12 C 0.37306(19) 0.15143(15) 0.29037(15)
H6 H 0.3853 0.1720 0.3599
C13 C 0.15518(17) 0.75997(12) 0.03741(12)
H7 H 0.1302 0.8413 0.0514
C14 C 0.16452(16) 0.78245(12) -0.10043(12)
C15 C 0.19890(19) 0.67836(14) -0.14421(14)
H8 H 0.2237 0.5857 -0.0829
C16 C 0.1972(2) 0.70893(16) -0.27596(14)
H9 H 0.2208 0.6371 -0.3042
C17 C 0.1616(2) 0.84286(16) -0.36666(14)
H10 H 0.1604 0.8631 -0.4569
C18 C 0.1275(2) 0.94749(15) -0.32554(15)
H11 H 0.1028 1.0399 -0.3876
C19 C 0.1295(2) 0.91751(14) -0.19411(14)
H12 H 0.1065 0.9901 -0.1669
C20 C 0.45355(18) 0.55697(17) 0.31653(15)
H13 H 0.5138 0.5337 0.3895
H14 H 0.4547 0.4746 0.3028
H15 H 0.5154 0.6297 0.2325
loop_
_geom_bond_atom_site_label_1
_geom_bond_atom_site_label_2
_geom_bond_site_symmetry_1
_geom_bond_site_symmetry_2
O1 N3 1_555 1_555
O2 N3 1_555 1_555
N1 N2 1_555 1_555
N2 C3 1_555 1_555
N3 C2 1_555 1_555
C1 N1 1_555 1_555
C2 C1 1_555 1_555
C3 C2 1_555 1_555
H1 C3 1_555 1_555
C4 C1 1_555 1_555
C5 C4 1_555 1_555
C6 C5 1_555 1_555
C7 C6 1_555 1_555
C8 C7 1_555 1_555
H2 C8 1_555 1_555
C9 C8 1_555 1_555
H3 C9 1_555 1_555
C10 C9 1_555 1_555
H4 C10 1_555 1_555
C11 C10 1_555 1_555
H5 C11 1_555 1_555
C12 C7 1_555 1_555
H6 C12 1_555 1_555
C13 C4 1_555 1_555
H7 C13 1_555 1_555
C14 C13 1_555 1_555
C15 C14 1_555 1_555
H8 C15 1_555 1_555
C16 C15 1_555 1_555
H9 C16 1_555 1_555
C17 C16 1_555 1_555
H10 C17 1_555 1_555
C18 C17 1_555 1_555
H11 C18 1_555 1_555
C19 C14 1_555 1_555
H12 C19 1_555 1_555
C20 N1 1_555 1_555
H13 C20 1_555 1_555
H14 C20 1_555 1_555
H15 C20 1_555 1_555
C11 C12 1_555 1_555
C18 C19 1_555 1_555

#END
