
#######################################################################
#
#                 Cambridge Crystallographic Data Centre
#                                CCDC 
#
#######################################################################
#
# If this CIF has been generated from an entry in the Cambridge 
# Structural Database, then it will include bibliographic, chemical, 
# crystal, experimental, refinement or atomic coordinate data resulting 
# from the CCDC's data processing and validation procedures.
#
#######################################################################

data_KEYSOZ
_chemical_formula_moiety         'C20 H14 N2 O3 S1'
_chemical_name_systematic        
N-[2-(1,1-dioxo-1H-1\l^6^,2-benzothiazol-3-yl)phenyl]benzamide
_symmetry_cell_setting           monoclinic
_symmetry_space_group_name_H-M   'C c'
_symmetry_Int_Tables_number      9
_space_group_name_Hall           'C -2yc'
loop_
_symmetry_equiv_pos_site_id
_symmetry_equiv_pos_as_xyz
1 x,y,z
2 x,-y,1/2+z
3 1/2+x,1/2+y,z
4 1/2+x,1/2-y,1/2+z
_cell_length_a                   15.368(4)
_cell_length_b                   14.888(4)
_cell_length_c                   7.803(2)
_cell_angle_alpha                90
_cell_angle_beta                 102.365(3)
_cell_angle_gamma                90
_cell_volume                     1743.9
_exptl_crystal_colour            'yellowish yellow'
_exptl_crystal_description       block
_cell_formula_units_Z            4
_exptl_crystal_recrystallization_method 'Dichloromethane/Hexane Solvent Mixture'
loop_
_atom_site_label
_atom_site_type_symbol
_atom_site_fract_x
_atom_site_fract_y
_atom_site_fract_z
S1 S 0.44814(5) 0.83143(4) 0.53837(7)
N1 N 0.52174(14) 0.58964(14) 0.2964(3)
H1 H 0.4913 0.6386 0.2853
O1 O 0.46245(16) 0.91669(14) 0.4653(3)
O2 O 0.51488(14) 0.44156(13) 0.2298(3)
O3 O 0.35880(14) 0.80150(16) 0.5187(3)
N2 N 0.50672(15) 0.75478(14) 0.4552(3)
C1 C 0.47953(16) 0.51478(17) 0.2183(3)
C2 C 0.60947(15) 0.59468(15) 0.3925(3)
C3 C 0.57194(15) 0.75390(14) 0.7567(3)
C4 C 0.38695(17) 0.52793(18) 0.1146(3)
C5 C 0.63380(15) 0.65755(14) 0.5293(3)
C6 C 0.56934(15) 0.72142(14) 0.5761(3)
C7 C 0.76203(19) 0.5438(2) 0.4469(4)
H2 H 0.8046 0.5050 0.4204
C8 C 0.6078(2) 0.7658(2) 1.0671(4)
H3 H 0.6409 0.7476 1.1757
C9 C 0.62252(17) 0.72498(18) 0.9167(3)
H4 H 0.6648 0.6797 0.9223
C10 C 0.50787(17) 0.81942(16) 0.7553(4)
C11 C 0.78634(18) 0.6056(2) 0.5788(4)
H5 H 0.8452 0.6092 0.6400
C12 C 0.4935(2) 0.8615(2) 0.9027(4)
H6 H 0.4512 0.9067 0.8968
C13 C 0.67508(18) 0.53852(17) 0.3529(4)
H7 H 0.6602 0.4970 0.2623
C14 C 0.72245(17) 0.66254(17) 0.6201(3)
H8 H 0.7388 0.7046 0.7094
C15 C 0.5449(2) 0.8334(2) 1.0602(4)
H9 H 0.5374 0.8601 1.1638
C16 C 0.2504(3) 0.4579(3) -0.0335(6)
H10 H 0.2176 0.4062 -0.0692
C17 C 0.3363(2) 0.4514(2) 0.0630(5)
H11 H 0.3608 0.3951 0.0941
C18 C 0.3504(3) 0.6105(3) 0.0627(6)
H12 H 0.3843 0.6624 0.0899
C19 C 0.2136(3) 0.5395(4) -0.0764(6)
H13 H 0.1548 0.5439 -0.1373
C20 C 0.2632(4) 0.6162(3) -0.0301(7)
H14 H 0.2378 0.6721 -0.0615
loop_
_geom_bond_atom_site_label_1
_geom_bond_atom_site_label_2
_geom_bond_site_symmetry_1
_geom_bond_site_symmetry_2
S1 O1 1_555 1_555
N1 H1 1_555 1_555
O2 C1 1_555 1_555
O3 S1 1_555 1_555
N2 S1 1_555 1_555
C1 N1 1_555 1_555
C2 N1 1_555 1_555
C3 C6 1_555 1_555
C4 C1 1_555 1_555
C5 C2 1_555 1_555
C6 N2 1_555 1_555
C7 H2 1_555 1_555
C8 H3 1_555 1_555
C9 C3 1_555 1_555
H4 C9 1_555 1_555
C10 S1 1_555 1_555
C11 C7 1_555 1_555
H5 C11 1_555 1_555
C12 C10 1_555 1_555
H6 C12 1_555 1_555
C13 C2 1_555 1_555
H7 C13 1_555 1_555
C14 C5 1_555 1_555
H8 C14 1_555 1_555
C15 C8 1_555 1_555
H9 C15 1_555 1_555
C16 H10 1_555 1_555
C17 C4 1_555 1_555
H11 C17 1_555 1_555
C18 C4 1_555 1_555
H12 C18 1_555 1_555
C19 C16 1_555 1_555
H13 C19 1_555 1_555
C20 C18 1_555 1_555
H14 C20 1_555 1_555
C3 C10 1_555 1_555
C5 C6 1_555 1_555
C7 C13 1_555 1_555
C8 C9 1_555 1_555
C11 C14 1_555 1_555
C12 C15 1_555 1_555
C16 C17 1_555 1_555
C19 C20 1_555 1_555

#END
