
#######################################################################
#
#                 Cambridge Crystallographic Data Centre
#                                CCDC 
#
#######################################################################
#
# If this CIF has been generated from an entry in the Cambridge 
# Structural Database, then it will include bibliographic, chemical, 
# crystal, experimental, refinement or atomic coordinate data resulting 
# from the CCDC's data processing and validation procedures.
#
#######################################################################

data_KEYSAL
_chemical_formula_moiety         'C14 H10 N2 O3 S1'
_chemical_name_systematic        
5,12b-dihydro-8\l^6^-[1,2]benzothiazolo[2,3-c]quinazoline-6,8,8-trione
_symmetry_cell_setting           monoclinic
_symmetry_space_group_name_H-M   'P 21/c'
_symmetry_Int_Tables_number      14
_space_group_name_Hall           '-P 2ybc'
loop_
_symmetry_equiv_pos_site_id
_symmetry_equiv_pos_as_xyz
1 x,y,z
2 -x,1/2+y,1/2-z
3 -x,-y,-z
4 x,1/2-y,1/2+z
_cell_length_a                   12.5986(9)
_cell_length_b                   5.4124(3)
_cell_length_c                   18.4775(11)
_cell_angle_alpha                90
_cell_angle_beta                 103.601(4)
_cell_angle_gamma                90
_cell_volume                     1224.62
_exptl_crystal_colour            colorless
_exptl_crystal_description       BLOCK
_cell_formula_units_Z            4
_exptl_crystal_recrystallization_method 'Acetone-D6 Solvent'
_exptl_crystal_preparation       'Slow Evaporation'
loop_
_atom_site_label
_atom_site_type_symbol
_atom_site_fract_x
_atom_site_fract_y
_atom_site_fract_z
S1 S 0.27460(3) 0.52678(8) 0.49789(2)
O1 O 0.32676(11) 0.3003(3) 0.48937(8)
O2 O 0.23362(13) 0.6702(3) 0.43326(7)
O3 O 0.07946(10) 0.2124(2) 0.46111(6)
N1 N 0.17913(11) 0.4810(2) 0.54507(7)
N2 N 0.04991(10) 0.2356(2) 0.57743(7)
H1 H -0.0132 0.1665 0.5648
C1 C 0.29440(12) 0.7671(3) 0.62215(8)
C2 C 0.33874(14) 0.9411(3) 0.67607(9)
H2 H 0.3014 0.9886 0.7117
C3 C 0.43922(15) 1.0423(4) 0.67583(11)
H3 H 0.4696 1.1581 0.7120
C4 C 0.49567(15) 0.9762(4) 0.62343(12)
H4 H 0.5641 1.0439 0.6254
C5 C 0.45129(14) 0.8104(4) 0.56808(11)
H5 H 0.4879 0.7663 0.5318
C6 C 0.35027(13) 0.7122(3) 0.56856(9)
C7 C 0.10018(12) 0.3011(3) 0.52360(8)
C8 C 0.09668(12) 0.2757(3) 0.65367(9)
C9 C 0.07224(13) 0.1180(3) 0.70618(9)
H6 H 0.0223 -0.0095 0.6916
C10 C 0.12230(14) 0.1506(3) 0.78023(10)
H7 H 0.1062 0.0446 0.8158
C11 C 0.19615(14) 0.3396(4) 0.80180(9)
H8 H 0.2299 0.3609 0.8519
C12 C 0.22000(14) 0.4973(3) 0.74913(9)
H9 H 0.2698 0.6248 0.7640
C13 C 0.17063(12) 0.4682(3) 0.67431(8)
C14 C 0.18667(11) 0.6347(3) 0.61227(8)
H10 H 0.1278 0.7572 0.6020
loop_
_geom_bond_atom_site_label_1
_geom_bond_atom_site_label_2
_geom_bond_site_symmetry_1
_geom_bond_site_symmetry_2
S1 O1 1_555 1_555
O2 S1 1_555 1_555
O3 C7 1_555 1_555
N1 S1 1_555 1_555
N2 H1 1_555 1_555
C1 C2 1_555 1_555
C2 H2 1_555 1_555
C3 C2 1_555 1_555
H3 C3 1_555 1_555
C4 C3 1_555 1_555
H4 C4 1_555 1_555
C5 C4 1_555 1_555
H5 C5 1_555 1_555
C6 S1 1_555 1_555
C7 N1 1_555 1_555
C8 N2 1_555 1_555
C9 C8 1_555 1_555
H6 C9 1_555 1_555
C10 C9 1_555 1_555
H7 C10 1_555 1_555
C11 C10 1_555 1_555
H8 C11 1_555 1_555
C12 C11 1_555 1_555
H9 C12 1_555 1_555
C13 C8 1_555 1_555
C14 N1 1_555 1_555
H10 C14 1_555 1_555
N2 C7 1_555 1_555
C1 C6 1_555 1_555
C1 C14 1_555 1_555
C5 C6 1_555 1_555
C12 C13 1_555 1_555
C13 C14 1_555 1_555

#END
