
#######################################################################
#
#                 Cambridge Crystallographic Data Centre
#                                CCDC 
#
#######################################################################
#
# If this CIF has been generated from an entry in the Cambridge 
# Structural Database, then it will include bibliographic, chemical, 
# crystal, experimental, refinement or atomic coordinate data resulting 
# from the CCDC's data processing and validation procedures.
#
#######################################################################

data_KEYVER
_chemical_formula_moiety         'C29 H27 N3 O4'
_chemical_name_systematic        
2-(4-Methoxyphenyl)-6,6-dimethyl-3-((4-nitrophenyl)amino)-1-phenyl-1,5,6,7-tetrahydro-4H-indol-4-one
_symmetry_cell_setting           triclinic
_symmetry_space_group_name_H-M   'P -1'
_symmetry_Int_Tables_number      2
_space_group_name_Hall           '-P 1'
loop_
_symmetry_equiv_pos_site_id
_symmetry_equiv_pos_as_xyz
1 x,y,z
2 -x,-y,-z
_cell_length_a                   6.1780(5)
_cell_length_b                   12.9104(11)
_cell_length_c                   16.0678(13)
_cell_angle_alpha                100.437(2)
_cell_angle_beta                 100.398(2)
_cell_angle_gamma                91.4430(10)
_cell_volume                     1237.45
_cell_formula_units_Z            2
loop_
_atom_site_label
_atom_site_type_symbol
_atom_site_fract_x
_atom_site_fract_y
_atom_site_fract_z
N1 N 0.5587(4) 1.21548(16) 0.74474(14)
N2 N 0.3990(4) 1.46903(16) 0.84148(14)
H1 H 0.2863 1.4749 0.8662
N3 N 0.7899(7) 1.8322(3) 0.7752(2)
O1 O 0.7692(4) 1.44468(15) 1.00178(13)
O2 O -0.2618(17) 1.3630(10) 0.4767(7)
O3 O 0.7276(6) 1.9166(2) 0.8060(2)
O4 O 0.9397(6) 1.8246(3) 0.7344(3)
C1 C 0.4135(5) 1.2973(2) 0.74550(18)
C2 C 0.4852(5) 1.3681(2) 0.82084(18)
C3 C 0.6776(5) 1.33046(19) 0.86698(17)
C4 C 0.8166(5) 1.3703(2) 0.95034(18)
C5 C 1.0268(5) 1.3135(2) 0.9689(2)
H2 H 1.0803 1.3270 1.0307
H3 H 1.1377 1.3431 0.9427
C6 C 1.0022(5) 1.1930(2) 0.93601(18)
C7 C 0.9054(5) 1.1700(2) 0.83949(18)
H4 H 1.0192 1.1836 0.8077
H5 H 0.8560 1.0961 0.8218
C8 C 0.7176(5) 1.2359(2) 0.81808(18)
C9 C 0.5253(5) 1.1132(2) 0.68827(18)
C10 C 0.6828(5) 1.0790(2) 0.64078(18)
H6 H 0.8044 1.1233 0.6412
C11 C 0.6576(6) 0.9773(2) 0.5921(2)
H7 H 0.7630 0.9531 0.5598
C12 C 0.4782(7) 0.9127(3) 0.5917(2)
H8 H 0.4634 0.8444 0.5597
C13 C 0.3192(6) 0.9484(2) 0.6383(2)
H9 H 0.1955 0.9050 0.6367
C14 C 0.3442(6) 1.0489(2) 0.6875(2)
H10 H 0.2389 1.0729 0.7199
C15 C 0.2408(5) 1.3059(2) 0.67180(18)
C16 C 0.2702(6) 1.2774(2) 0.5870(2)
H11 H 0.3987 1.2462 0.5760
C17 C 0.1132(6) 1.2942(3) 0.5191(2)
H12 H 0.1367 1.2743 0.4630
C18 C -0.0795(6) 1.3407(3) 0.5337(2)
C19 C -0.1151(6) 1.3671(3) 0.6170(2)
H13 H -0.2457 1.3965 0.6275
C20 C 0.0423(5) 1.3500(2) 0.6845(2)
H14 H 0.0159 1.3682 0.7403
C21 C 0.4933(5) 1.5566(2) 0.82242(17)
C22 C 0.4050(5) 1.6551(2) 0.84309(19)
H15 H 0.2808 1.6597 0.8685
C23 C 0.4987(6) 1.7442(2) 0.8266(2)
H16 H 0.4405 1.8092 0.8414
C24 C 0.6818(6) 1.7368(2) 0.7874(2)
C25 C 0.7696(6) 1.6419(3) 0.7649(2)
H17 H 0.8921 1.6381 0.7386
C26 C 0.6751(5) 1.5521(2) 0.78172(19)
H18 H 0.7333 1.4873 0.7657
C27 C 0.8550(6) 1.1427(2) 0.9862(2)
H19 H 0.8376 1.0679 0.9651
H20 H 0.7132 1.1722 0.9789
H21 H 0.9214 1.1563 1.0463
C28 C 1.2293(5) 1.1472(3) 0.9485(2)
H22 H 1.2898 1.1565 1.0089
H23 H 1.3254 1.1831 0.9208
H24 H 1.2153 1.0734 0.9236
C29 C -0.2113(15) 1.3693(6) 0.3951(7)
H25 H -0.0858 1.4177 0.4025
H26 H -0.3354 1.3936 0.3602
H27 H -0.1785 1.3008 0.3673
O5? O -0.191(3) 1.3520(19) 0.4521(13)
C30? C -0.358(3) 1.4239(13) 0.4563(9)
H28? H -0.4567 1.4037 0.4913
H29? H -0.4392 1.4236 0.3992
H30? H -0.2935 1.4935 0.4811
loop_
_geom_bond_atom_site_label_1
_geom_bond_atom_site_label_2
_geom_bond_site_symmetry_1
_geom_bond_site_symmetry_2
N1 C1 1_555 1_555
N2 H1 1_555 1_555
N3 O3 1_555 1_555
O1 C4 1_555 1_555
O2 C18 1_555 1_555
O4 N3 1_555 1_555
C1 C2 1_555 1_555
C2 N2 1_555 1_555
C3 C2 1_555 1_555
C4 C3 1_555 1_555
C5 C4 1_555 1_555
H2 C5 1_555 1_555
H3 C5 1_555 1_555
C6 C5 1_555 1_555
C7 C6 1_555 1_555
H4 C7 1_555 1_555
H5 C7 1_555 1_555
C8 N1 1_555 1_555
C9 N1 1_555 1_555
C10 C9 1_555 1_555
H6 C10 1_555 1_555
C11 C10 1_555 1_555
H7 C11 1_555 1_555
C12 C11 1_555 1_555
H8 C12 1_555 1_555
C13 C12 1_555 1_555
H9 C13 1_555 1_555
C14 C9 1_555 1_555
H10 C14 1_555 1_555
C15 C1 1_555 1_555
C16 C15 1_555 1_555
H11 C16 1_555 1_555
C17 C16 1_555 1_555
H12 C17 1_555 1_555
C18 C17 1_555 1_555
C19 C18 1_555 1_555
H13 C19 1_555 1_555
C20 C15 1_555 1_555
H14 C20 1_555 1_555
C21 N2 1_555 1_555
C22 C21 1_555 1_555
H15 C22 1_555 1_555
C23 C22 1_555 1_555
H16 C23 1_555 1_555
C24 N3 1_555 1_555
C25 C24 1_555 1_555
H17 C25 1_555 1_555
C26 C21 1_555 1_555
H18 C26 1_555 1_555
C27 C6 1_555 1_555
H19 C27 1_555 1_555
H20 C27 1_555 1_555
H21 C27 1_555 1_555
C28 C6 1_555 1_555
H22 C28 1_555 1_555
H23 C28 1_555 1_555
H24 C28 1_555 1_555
C29 O2 1_555 1_555
H25 C29 1_555 1_555
H26 C29 1_555 1_555
H27 C29 1_555 1_555
C3 C8 1_555 1_555
C7 C8 1_555 1_555
C13 C14 1_555 1_555
C19 C20 1_555 1_555
C23 C24 1_555 1_555
C25 C26 1_555 1_555

#END
