
#######################################################################
#
#                 Cambridge Crystallographic Data Centre
#                                CCDC 
#
#######################################################################
#
# If this CIF has been generated from an entry in the Cambridge 
# Structural Database, then it will include bibliographic, chemical, 
# crystal, experimental, refinement or atomic coordinate data resulting 
# from the CCDC's data processing and validation procedures.
#
#######################################################################

data_KEYVOB
_chemical_formula_moiety         'C20 H18 O2'
_chemical_name_systematic        2,2',3,3'-Tetramethyl-5,5'-bi-1-benzofuran
_symmetry_cell_setting           monoclinic
_symmetry_space_group_name_H-M   'P 21/c'
_symmetry_Int_Tables_number      14
_space_group_name_Hall           '-P 2ybc'
loop_
_symmetry_equiv_pos_site_id
_symmetry_equiv_pos_as_xyz
1 x,y,z
2 -x,1/2+y,1/2-z
3 -x,-y,-z
4 x,1/2-y,1/2+z
_cell_length_a                   17.2542(17)
_cell_length_b                   6.7387(7)
_cell_length_c                   13.1842(12)
_cell_angle_alpha                90
_cell_angle_beta                 102.066(3)
_cell_angle_gamma                90
_cell_volume                     1499.07
_exptl_crystal_colour            colorless
_exptl_crystal_description       Tabular
_cell_formula_units_Z            4
loop_
_atom_site_label
_atom_site_type_symbol
_atom_site_fract_x
_atom_site_fract_y
_atom_site_fract_z
O1 O 0.11411(7) 0.34952(19) 0.63488(10)
O2 O 0.41359(7) -0.39356(18) 1.22132(9)
C1 C 0.04063(12) 0.6589(3) 0.62315(16)
H1 H -0.0105 0.6069 0.5859
H2 H 0.0717 0.7031 0.5731
H3 H 0.0317 0.7712 0.6665
C2 C 0.08439(11) 0.5010(3) 0.68950(15)
C3 C 0.10272(10) 0.4722(3) 0.79367(14)
C4 C 0.14874(9) 0.2900(3) 0.80903(13)
C5 C 0.18620(10) 0.1808(3) 0.89561(13)
H4 H 0.1828 0.2225 0.9634
C6 C 0.22891(10) 0.0093(3) 0.88169(13)
C7 C 0.27441(10) -0.1032(3) 0.97222(13)
C8 C 0.30414(10) -0.0089(3) 1.06671(13)
H5 H 0.2928 0.1272 1.0754
C9 C 0.35061(10) -0.1151(2) 1.14839(13)
C10 C 0.39073(10) -0.0682(3) 1.25344(13)
C11 C 0.42690(10) -0.2382(3) 1.29320(14)
C12 C 0.47516(11) -0.2933(3) 1.39599(14)
H6 H 0.4882 -0.1737 1.4384
H7 H 0.5242 -0.3578 1.3869
H8 H 0.4450 -0.3849 1.4307
C13 C 0.08032(11) 0.5985(3) 0.87606(15)
H9 H 0.1276 0.6656 0.9153
H10 H 0.0573 0.5151 0.9231
H11 H 0.0413 0.6978 0.8439
C14 C 0.15334(10) 0.2235(3) 0.71031(13)
C15 C 0.19328(10) 0.0525(3) 0.69299(14)
H12 H 0.1947 0.0089 0.6249
C16 C 0.23112(10) -0.0517(3) 0.78007(13)
H13 H 0.2596 -0.1687 0.7709
C17 C 0.36672(10) -0.3158(3) 1.13347(14)
C18 C 0.33750(10) -0.4161(3) 1.04192(14)
H14 H 0.3488 -0.5525 1.0340
C19 C 0.29085(10) -0.3081(3) 0.96209(14)
H15 H 0.2692 -0.3734 0.8986
C20 C 0.39102(11) 0.1297(3) 1.30548(14)
H16 H 0.4246 0.1230 1.3752
H17 H 0.3368 0.1647 1.3105
H18 H 0.4118 0.2306 1.2648
loop_
_geom_bond_atom_site_label_1
_geom_bond_atom_site_label_2
_geom_bond_site_symmetry_1
_geom_bond_site_symmetry_2
O1 C2 1_555 1_555
O2 C11 1_555 1_555
C1 H1 1_555 1_555
H2 C1 1_555 1_555
H3 C1 1_555 1_555
C2 C1 1_555 1_555
C3 C2 1_555 1_555
C4 C3 1_555 1_555
C5 C4 1_555 1_555
H4 C5 1_555 1_555
C6 C5 1_555 1_555
C7 C6 1_555 1_555
C8 C7 1_555 1_555
H5 C8 1_555 1_555
C9 C8 1_555 1_555
C10 C9 1_555 1_555
C11 C10 1_555 1_555
C12 C11 1_555 1_555
H6 C12 1_555 1_555
H7 C12 1_555 1_555
H8 C12 1_555 1_555
C13 C3 1_555 1_555
H9 C13 1_555 1_555
H10 C13 1_555 1_555
H11 C13 1_555 1_555
C14 O1 1_555 1_555
C15 C14 1_555 1_555
H12 C15 1_555 1_555
C16 C6 1_555 1_555
H13 C16 1_555 1_555
C17 O2 1_555 1_555
C18 C17 1_555 1_555
H14 C18 1_555 1_555
C19 C7 1_555 1_555
H15 C19 1_555 1_555
C20 C10 1_555 1_555
H16 C20 1_555 1_555
H17 C20 1_555 1_555
H18 C20 1_555 1_555
C4 C14 1_555 1_555
C9 C17 1_555 1_555
C15 C16 1_555 1_555
C18 C19 1_555 1_555

#END
