
#######################################################################
#
#                 Cambridge Crystallographic Data Centre
#                                CCDC 
#
#######################################################################
#
# If this CIF has been generated from an entry in the Cambridge 
# Structural Database, then it will include bibliographic, chemical, 
# crystal, experimental, refinement or atomic coordinate data resulting 
# from the CCDC's data processing and validation procedures.
#
#######################################################################

data_KEYXAN
_chemical_formula_moiety         'C18 H10 F21 N3'
_chemical_name_systematic        
2,3,4-tris(Fluorobis(trifluoromethyl)methyl)-8,9-dimethyl-1,5-diaza-6-azoniaspiro(5.4)dec-8-en-3-ide
_symmetry_cell_setting           monoclinic
_symmetry_space_group_name_H-M   'P 21/n'
_symmetry_Int_Tables_number      14
_space_group_name_Hall           '-P 2yn'
loop_
_symmetry_equiv_pos_site_id
_symmetry_equiv_pos_as_xyz
1 x,y,z
2 1/2-x,1/2+y,1/2-z
3 -x,-y,-z
4 1/2+x,1/2-y,1/2+z
_cell_length_a                   14.70(1)
_cell_length_b                   18.739(7)
_cell_length_c                   9.052(4)
_cell_angle_alpha                90
_cell_angle_beta                 91.12(5)
_cell_angle_gamma                90
_cell_volume                     2493.02
_exptl_crystal_colour            yellow
_chemical_melting_point          85-87deg.C
_cell_formula_units_Z            4
loop_
_atom_site_label
_atom_site_type_symbol
_atom_site_fract_x
_atom_site_fract_y
_atom_site_fract_z
N1 N 0.9009(2) 0.1896(1) 0.4305(2)
C1 C 0.8698(2) 0.1446(2) 0.2976(3)
C2 C 0.9420(2) 0.0891(2) 0.2876(4)
C3 C 0.9281(3) 0.0299(2) 0.1780(5)
C4 C 1.0119(2) 0.1023(2) 0.3778(4)
C5 C 1.0988(3) 0.0612(2) 0.4006(6)
C6 C 0.9993(2) 0.1693(2) 0.4619(4)
N2 N 0.8498(2) 0.1719(1) 0.5626(3)
C7 C 0.7668(2) 0.1974(2) 0.5517(3)
C8 C 0.7154(2) 0.1775(2) 0.6927(3)
F1 F 0.6274(1) 0.2012(1) 0.6808(2)
C9 C 0.7546(3) 0.2194(3) 0.8273(4)
F2 F 0.8368(2) 0.2009(2) 0.8662(2)
F3 F 0.7030(2) 0.2086(2) 0.9432(2)
F4 F 0.7533(2) 0.2876(2) 0.7999(3)
C10 C 0.7100(3) 0.0964(3) 0.7193(5)
F5 F 0.7005(2) 0.0609(1) 0.5948(4)
F6 F 0.6419(2) 0.0809(2) 0.8034(4)
F7 F 0.7846(2) 0.0715(1) 0.7851(3)
C11 C 0.7368(2) 0.2476(2) 0.4448(3)
C12 C 0.6416(2) 0.2586(2) 0.3800(3)
F8 F 0.6522(1) 0.2926(1) 0.2441(2)
C13 C 0.5744(2) 0.3075(2) 0.4683(4)
F9 F 0.6168(1) 0.3433(1) 0.5749(2)
F10 F 0.5080(1) 0.2703(1) 0.5299(2)
F11 F 0.5341(1) 0.3551(1) 0.3787(2)
C14 C 0.5938(2) 0.1894(2) 0.3287(4)
F12 F 0.5782(1) 0.1440(1) 0.4358(2)
F13 F 0.5157(1) 0.2041(1) 0.2605(2)
F14 F 0.6464(1) 0.1554(1) 0.2328(2)
C15 C 0.8135(2) 0.2885(2) 0.3956(3)
C16 C 0.8132(2) 0.3685(2) 0.3571(4)
F15 F 0.7277(1) 0.3964(1) 0.3649(2)
C17 C 0.8447(3) 0.3830(2) 0.1981(5)
F16 F 0.9335(2) 0.3767(2) 0.1871(3)
F17 F 0.8083(2) 0.3383(2) 0.1059(2)
F18 F 0.8244(2) 0.4479(1) 0.1566(3)
C18 C 0.8688(4) 0.4121(2) 0.4744(5)
F19 F 0.9569(2) 0.4006(1) 0.4741(3)
F20 F 0.8392(2) 0.3974(1) 0.6056(3)
F21 F 0.8564(2) 0.4811(1) 0.4487(3)
N3 N 0.8972(2) 0.2662(1) 0.4021(2)
H1 H 0.8666 0.1729 0.2093
H2 H 0.8115 0.1233 0.3144
H3 H 0.9759 -0.0038 0.1985
H4 H 0.9265 0.0408 0.0743
H5 H 0.8708 0.0098 0.2056
H6 H 1.1050 0.0441 0.5003
H7 H 1.1531 0.0860 0.3739
H8 H 1.0892 0.0215 0.3350
H9 H 1.0097 0.1615 0.5656
H10 H 1.0397 0.2058 0.4279
loop_
_geom_bond_atom_site_label_1
_geom_bond_atom_site_label_2
_geom_bond_site_symmetry_1
_geom_bond_site_symmetry_2
N1 C1 1_555 1_555
C1 C2 1_555 1_555
C2 C3 1_555 1_555
C3 H3 1_555 1_555
C4 C2 1_555 1_555
C5 C4 1_555 1_555
C6 N1 1_555 1_555
N2 N1 1_555 1_555
C7 N2 1_555 1_555
C8 C7 1_555 1_555
F1 C8 1_555 1_555
C9 C8 1_555 1_555
F2 C9 1_555 1_555
F3 C9 1_555 1_555
F4 C9 1_555 1_555
C10 C8 1_555 1_555
F5 C10 1_555 1_555
F6 C10 1_555 1_555
F7 C10 1_555 1_555
C11 C7 1_555 1_555
C12 C11 1_555 1_555
F8 C12 1_555 1_555
C13 C12 1_555 1_555
F9 C13 1_555 1_555
F10 C13 1_555 1_555
F11 C13 1_555 1_555
C14 C12 1_555 1_555
F12 C14 1_555 1_555
F13 C14 1_555 1_555
F14 C14 1_555 1_555
C15 C11 1_555 1_555
C16 C15 1_555 1_555
F15 C16 1_555 1_555
C17 C16 1_555 1_555
F16 C17 1_555 1_555
F17 C17 1_555 1_555
F18 C17 1_555 1_555
C18 C16 1_555 1_555
F19 C18 1_555 1_555
F20 C18 1_555 1_555
F21 C18 1_555 1_555
N3 N1 1_555 1_555
H1 C1 1_555 1_555
H2 C1 1_555 1_555
H4 C3 1_555 1_555
H5 C3 1_555 1_555
H6 C5 1_555 1_555
H7 C5 1_555 1_555
H8 C5 1_555 1_555
H9 C6 1_555 1_555
H10 C6 1_555 1_555
C4 C6 1_555 1_555
C15 N3 1_555 1_555

#END
