
#######################################################################
#
#                 Cambridge Crystallographic Data Centre
#                                CCDC 
#
#######################################################################
#
# If this CIF has been generated from an entry in the Cambridge 
# Structural Database, then it will include bibliographic, chemical, 
# crystal, experimental, refinement or atomic coordinate data resulting 
# from the CCDC's data processing and validation procedures.
#
#######################################################################

data_KEZFUT
_chemical_formula_moiety         'C14 H15 N3 O4'
_chemical_name_systematic        
2-(4-phenyl-1H-1,2,3-triazol-1-yl)-6,8-dioxabicyclo[3.2.1]octane-4,4-diol
_symmetry_cell_setting           monoclinic
_symmetry_space_group_name_H-M   'P 21'
_symmetry_Int_Tables_number      4
_space_group_name_Hall           'P 2yb'
loop_
_symmetry_equiv_pos_site_id
_symmetry_equiv_pos_as_xyz
1 x,y,z
2 -x,1/2+y,-z
_cell_length_a                   6.2149(17)
_cell_length_b                   5.5203(15)
_cell_length_c                   19.393(5)
_cell_angle_alpha                90
_cell_angle_beta                 93.525(4)
_cell_angle_gamma                90
_cell_volume                     664.078
_exptl_crystal_colour            colorless
_exptl_crystal_description       plate
_cell_formula_units_Z            2
loop_
_atom_site_label
_atom_site_type_symbol
_atom_site_fract_x
_atom_site_fract_y
_atom_site_fract_z
O1 O 0.0238(4) 0.4777(4) 0.64576(12)
O2 O 0.3001(4) 0.2805(4) 0.55556(13)
O3 O 0.2941(4) 0.6291(4) 0.48968(11)
O4 O 0.0033(4) 0.8263(4) 0.58564(11)
N1 N 0.5193(5) 0.7406(5) 0.73065(14)
N2 N 0.5250(6) 0.9849(6) 0.73072(17)
N3 N 0.6734(6) 1.0497(6) 0.77868(16)
C1 C 1.3058(8) 0.8573(12) 0.9512(2)
H1 H 1.4274 0.8571 0.9817
C2 C 1.2782(8) 1.0364(10) 0.9027(2)
H2 H 1.3813 1.1577 0.9002
C3 C 1.0973(8) 1.0372(8) 0.8575(2)
H3 H 1.0786 1.1603 0.8250
C4 C 0.9443(6) 0.8567(8) 0.86030(17)
C5 C 0.7604(6) 0.8474(8) 0.80886(16)
C6 C 0.6608(6) 0.6505(7) 0.77825(17)
H4 H 0.6865 0.4881 0.7885
C7 C 0.3801(6) 0.6062(6) 0.68044(15)
H5 H 0.4055 0.4333 0.6891
C8 C 0.1402(6) 0.6536(7) 0.68843(17)
H6 H 0.1046 0.6398 0.7368
C9 C 0.0439(6) 0.5741(6) 0.57914(18)
H7 H -0.0619 0.5002 0.5460
C10 C 0.2727(6) 0.5334(7) 0.55673(17)
C11 C 0.0583(6) 0.8897(7) 0.65706(17)
H8 H -0.0672 0.9470 0.6796
H9 H 0.1692 1.0136 0.6605
C12 C 1.1551(8) 0.6792(11) 0.9550(2)
H10 H 1.1733 0.5589 0.9884
C13 C 0.9763(7) 0.6766(10) 0.9096(2)
H11 H 0.8757 0.5527 0.9121
C14 C 0.4365(6) 0.6575(7) 0.60591(15)
H12 H 0.4349 0.8307 0.5975
H13 H 0.5799 0.5971 0.5986
H14 H 0.427(7) 0.249(8) 0.5452(17)
H15 H 0.195(6) 0.540(8) 0.4620(18)
loop_
_geom_bond_atom_site_label_1
_geom_bond_atom_site_label_2
_geom_bond_site_symmetry_1
_geom_bond_site_symmetry_2
O1 C8 1_555 1_555
O2 C10 1_555 1_555
O3 C10 1_555 1_555
O4 C9 1_555 1_555
N1 N2 1_555 1_555
N2 N3 1_555 1_555
N3 C5 1_555 1_555
C1 H1 1_555 1_555
C2 C1 1_555 1_555
H2 C2 1_555 1_555
C3 C2 1_555 1_555
H3 C3 1_555 1_555
C4 C3 1_555 1_555
C5 C4 1_555 1_555
C6 N1 1_555 1_555
H4 C6 1_555 1_555
C7 N1 1_555 1_555
H5 C7 1_555 1_555
C8 C7 1_555 1_555
H6 C8 1_555 1_555
C9 O1 1_555 1_555
H7 C9 1_555 1_555
C10 C9 1_555 1_555
C11 O4 1_555 1_555
H8 C11 1_555 1_555
H9 C11 1_555 1_555
C12 C1 1_555 1_555
H10 C12 1_555 1_555
C13 C4 1_555 1_555
H11 C13 1_555 1_555
C14 C7 1_555 1_555
H12 C14 1_555 1_555
H13 C14 1_555 1_555
H14 O2 1_555 1_555
H15 O3 1_555 1_555
C5 C6 1_555 1_555
C8 C11 1_555 1_555
C10 C14 1_555 1_555
C12 C13 1_555 1_555

#END
