
#######################################################################
#
#                 Cambridge Crystallographic Data Centre
#                                CCDC 
#
#######################################################################
#
# If this CIF has been generated from an entry in the Cambridge 
# Structural Database, then it will include bibliographic, chemical, 
# crystal, experimental, refinement or atomic coordinate data resulting 
# from the CCDC's data processing and validation procedures.
#
#######################################################################

data_KEZJOP
_chemical_formula_moiety         'C26 H28 N4 2+,2(Cl1 1-),4(H2 O1)'
_chemical_name_systematic        
"2,2'-(3,3'-Dimethylbiphenyl-4,4'-diylbis(iminomethylene))dipyridinium dichloride tetrahydrate"
_symmetry_cell_setting           monoclinic
_symmetry_space_group_name_H-M   'C 2/c'
_symmetry_Int_Tables_number      15
_space_group_name_Hall           '-C 2yn'
loop_
_symmetry_equiv_pos_site_id
_symmetry_equiv_pos_as_xyz
1 x,y,z
2 1/2+x,1/2+y,z
3 -x,y,1/2-z
4 1/2-x,1/2+y,1/2-z
5 -x,-y,-z
6 1/2-x,1/2-y,-z
7 x,-y,1/2+z
8 1/2+x,1/2-y,1/2+z
_cell_length_a                   16.9526(18)
_cell_length_b                   13.5920(14)
_cell_length_c                   12.3297(18)
_cell_angle_alpha                90
_cell_angle_beta                 99.087(8)
_cell_angle_gamma                90
_cell_volume                     2805.35
_exptl_crystal_colour            'light yellow'
_exptl_crystal_description       prism
_cell_formula_units_Z            4
_exptl_crystal_recrystallization_method ethanol/water
loop_
_atom_site_label
_atom_site_type_symbol
_atom_site_fract_x
_atom_site_fract_y
_atom_site_fract_z
Cl1 Cl 0.5000 0.50789(6) 0.2500
Cl2 Cl 0.0000 0.36762(5) 0.2500
N1 N 0.15605(10) 0.52981(12) 0.27565(12)
H1 H 0.1056 0.5190 0.2702
N2 N 0.30775(10) 0.54721(13) 0.51192(13)
H2 H 0.3414 0.5098 0.4865
C1 C 0.15665(10) 0.69236(12) 0.03840(13)
H7 H 0.1198 0.7177 -0.0187
C2 C 0.23665(9) 0.71838(11) 0.04299(12)
C3 C 0.28902(11) 0.68093(13) 0.13193(14)
H8 H 0.3429 0.6975 0.1398
C4 C 0.26312(11) 0.61987(14) 0.20868(14)
H9 H 0.2999 0.5967 0.2671
C5 C 0.18348(10) 0.59230(12) 0.20065(13)
C6 C 0.12875(10) 0.63131(12) 0.11333(13)
C7 C 0.04124(12) 0.6071(2) 0.10085(18)
H10 H 0.0345 0.5370 0.1029
H11 H 0.0145 0.6321 0.0319
H12 H 0.0188 0.6367 0.1598
C8 C 0.20971(13) 0.48277(14) 0.36212(15)
H13 H 0.2577 0.4630 0.3342
H14 H 0.1845 0.4239 0.3851
C9 C 0.23250(11) 0.54906(14) 0.46021(14)
C10 C 0.17997(13) 0.60997(18) 0.50172(17)
H15 H 0.1272 0.6139 0.4669
C11 C 0.20475(15) 0.66542(18) 0.59464(19)
H16 H 0.1686 0.7057 0.6229
C12 C 0.28234(15) 0.66113(18) 0.64502(19)
H17 H 0.2998 0.6985 0.7074
C13 C 0.33349(14) 0.60118(19) 0.60214(18)
H18 H 0.3866 0.5973 0.6353
N1E N 0.34395(10) 0.97019(12) -0.27565(12)
H1E H 0.3944 0.9810 -0.2702
N2E N 0.19225(10) 0.95279(13) -0.51192(13)
H2E H 0.1586 0.9902 -0.4865
C1E C 0.34335(10) 0.80764(12) -0.03840(13)
H7E H 0.3802 0.7823 0.0187
C2E C 0.26335(9) 0.78162(11) -0.04299(12)
C3E C 0.21098(11) 0.81907(13) -0.13193(14)
H8E H 0.1571 0.8025 -0.1398
C4E C 0.23688(11) 0.88013(14) -0.20868(14)
H9E H 0.2001 0.9033 -0.2671
C5E C 0.31652(10) 0.90770(12) -0.20065(13)
C6E C 0.37125(10) 0.86869(12) -0.11333(13)
C7E C 0.45876(12) 0.8929(2) -0.10085(18)
H10E H 0.4655 0.9630 -0.1029
H11E H 0.4855 0.8679 -0.0319
H12E H 0.4812 0.8633 -0.1598
C8E C 0.29029(13) 1.01723(14) -0.36212(15)
H13E H 0.2423 1.0370 -0.3342
H14E H 0.3155 1.0761 -0.3851
C9E C 0.26750(11) 0.95094(14) -0.46021(14)
C10E C 0.32003(13) 0.89003(18) -0.50172(17)
H15E H 0.3728 0.8861 -0.4669
C11E C 0.29525(15) 0.83458(18) -0.59464(19)
H16E H 0.3314 0.7943 -0.6229
C12E C 0.21766(15) 0.83887(18) -0.64502(19)
H17E H 0.2002 0.8015 -0.7074
C13E C 0.16651(14) 0.89882(19) -0.60214(18)
H18E H 0.1134 0.9027 -0.6353
O1 O 0.41379(9) 0.42469(12) 0.43758(13)
H3 H 0.4479 0.4486 0.3923
H4 H 0.4428 0.3853 0.4745
O2 O 0.52903(11) 0.31458(12) 0.59388(14)
H5 H 0.5266 0.3602 0.6460
H6 H 0.5132 0.2645 0.6280
loop_
_geom_bond_atom_site_label_1
_geom_bond_atom_site_label_2
_geom_bond_site_symmetry_1
_geom_bond_site_symmetry_2
N1 H1 1_555 1_555
N2 H2 1_555 1_555
O1 H3 1_555 1_555
H4 O1 1_555 1_555
O2 H5 1_555 1_555
H6 O2 1_555 1_555
C1 H7 1_555 1_555
C2 C1 1_555 1_555
C3 C2 1_555 1_555
H8 C3 1_555 1_555
C4 C3 1_555 1_555
H9 C4 1_555 1_555
C5 N1 1_555 1_555
C6 C1 1_555 1_555
C7 C6 1_555 1_555
H10 C7 1_555 1_555
H11 C7 1_555 1_555
H12 C7 1_555 1_555
C8 N1 1_555 1_555
H13 C8 1_555 1_555
H14 C8 1_555 1_555
C9 N2 1_555 1_555
C10 C9 1_555 1_555
H15 C10 1_555 1_555
C11 C10 1_555 1_555
H16 C11 1_555 1_555
C12 C11 1_555 1_555
H17 C12 1_555 1_555
C13 N2 1_555 1_555
H18 C13 1_555 1_555
N1E H1E 1_555 1_555
N2E H2E 1_555 1_555
C1E H7E 1_555 1_555
C2E C2 1_555 1_555
C3E C2E 1_555 1_555
H8E C3E 1_555 1_555
C4E C3E 1_555 1_555
H9E C4E 1_555 1_555
C5E N1E 1_555 1_555
C6E C1E 1_555 1_555
C7E C6E 1_555 1_555
H10E C7E 1_555 1_555
H11E C7E 1_555 1_555
H12E C7E 1_555 1_555
C8E N1E 1_555 1_555
H13E C8E 1_555 1_555
H14E C8E 1_555 1_555
C9E N2E 1_555 1_555
C10E C9E 1_555 1_555
H15E C10E 1_555 1_555
C11E C10E 1_555 1_555
H16E C11E 1_555 1_555
C12E C11E 1_555 1_555
H17E C12E 1_555 1_555
C13E N2E 1_555 1_555
H18E C13E 1_555 1_555
C4 C5 1_555 1_555
C5 C6 1_555 1_555
C8 C9 1_555 1_555
C12 C13 1_555 1_555
C1E C2E 1_555 1_555
C4E C5E 1_555 1_555
C5E C6E 1_555 1_555
C8E C9E 1_555 1_555
C12E C13E 1_555 1_555

#END
