
#######################################################################
#
#                 Cambridge Crystallographic Data Centre
#                                CCDC 
#
#######################################################################
#
# If this CIF has been generated from an entry in the Cambridge 
# Structural Database, then it will include bibliographic, chemical, 
# crystal, experimental, refinement or atomic coordinate data resulting 
# from the CCDC's data processing and validation procedures.
#
#######################################################################

data_KEZKUW
_chemical_formula_moiety         'C15 H14 F2 N2 O3'
_chemical_name_systematic        
4-(4-Difluoromethoxyphenyl)-1,2,3,4,5,6,7,8-octahydroquinazoline-2,5-dione
_symmetry_cell_setting           monoclinic
_symmetry_space_group_name_H-M   'C 2/c'
_symmetry_Int_Tables_number      15
_space_group_name_Hall           '-C 2yn'
loop_
_symmetry_equiv_pos_site_id
_symmetry_equiv_pos_as_xyz
1 x,y,z
2 1/2+x,1/2+y,z
3 -x,y,1/2-z
4 1/2-x,1/2+y,1/2-z
5 -x,-y,-z
6 1/2-x,1/2-y,-z
7 x,-y,1/2+z
8 1/2+x,1/2-y,1/2+z
_cell_length_a                   24.204(7)
_cell_length_b                   8.390(3)
_cell_length_c                   14.104(3)
_cell_angle_alpha                90
_cell_angle_beta                 103.33(2)
_cell_angle_gamma                90
_cell_volume                     2786.96
_exptl_crystal_colour            colorless
_exptl_crystal_description       prism
_chemical_melting_point          '539.5-539.8 K'
_cell_formula_units_Z            8
_exptl_crystal_recrystallization_method ethanol
loop_
_atom_site_label
_atom_site_type_symbol
_atom_site_fract_x
_atom_site_fract_y
_atom_site_fract_z
O1 O 0.03042(10) 0.1207(3) 0.60264(16)
O2 O 0.07043(12) 0.4896(3) 0.24595(17)
C1 C 0.2834(2) -0.0221(7) 0.2286(5)
H1 H 0.3117 -0.0998 0.2180
F1 F 0.30782(18) 0.1180(6) 0.2720(5)
F2 F 0.2620(3) 0.0567(9) 0.1535(5)
N1 N 0.06979(13) 0.3512(3) 0.56690(19)
H3 H 0.0709(13) 0.380(4) 0.6264(15)
C3 C 0.04671(13) 0.2033(4) 0.5418(2)
N2 N 0.04223(12) 0.1583(3) 0.44986(19)
H4 H 0.0226(11) 0.072(3) 0.435(2)
C4 C 0.06384(13) 0.2450(4) 0.3753(2)
H5 H 0.0338 0.2453 0.3153
C5 C 0.07547(13) 0.4146(4) 0.4061(2)
C6 C 0.07809(15) 0.5300(4) 0.3320(2)
C7 C 0.08953(19) 0.7000(4) 0.3623(3)
H6 H 0.0537 0.7562 0.3535
H7 H 0.1111 0.7497 0.3203
C8 C 0.12174(19) 0.7170(5) 0.4666(3)
H8 H 0.1239 0.8289 0.4844
H9 H 0.1602 0.6781 0.4731
C9 C 0.09374(17) 0.6257(4) 0.5351(3)
H10 H 0.1191 0.6221 0.5993
H11 H 0.0593 0.6803 0.5407
C10 C 0.07947(13) 0.4593(4) 0.4994(2)
C11 C 0.11539(13) 0.1627(4) 0.3526(2)
C12 C 0.16547(15) 0.1453(5) 0.4228(3)
H12 H 0.1676 0.1839 0.4854
C13 C 0.21194(16) 0.0725(5) 0.4020(3)
H13 H 0.2453 0.0620 0.4498
C14 C 0.20856(16) 0.0152(5) 0.3096(3)
C15 C 0.15984(17) 0.0288(5) 0.2393(3)
H14 H 0.1578 -0.0121 0.1773
C16 C 0.11319(15) 0.1041(4) 0.2607(2)
H15 H 0.0800 0.1151 0.2124
O3 O 0.25591(13) -0.0696(4) 0.2933(2)
C2? C 0.2834(2) -0.0221(7) 0.2286(5)
H2? H 0.3156 -0.0960 0.2378
F3? F 0.30782(18) 0.1180(6) 0.2720(5)
F4? F 0.2461(4) -0.079(2) 0.1439(7)
loop_
_geom_bond_atom_site_label_1
_geom_bond_atom_site_label_2
_geom_bond_site_symmetry_1
_geom_bond_site_symmetry_2
O1 C3 1_555 1_555
O2 C6 1_555 1_555
C1 H1 1_555 1_555
F1 C1 1_555 1_555
F2 C1 1_555 1_555
N1 H3 1_555 1_555
C3 N1 1_555 1_555
N2 C3 1_555 1_555
H4 N2 1_555 1_555
C4 N2 1_555 1_555
H5 C4 1_555 1_555
C5 C4 1_555 1_555
C6 C5 1_555 1_555
C7 C6 1_555 1_555
H6 C7 1_555 1_555
H7 C7 1_555 1_555
C8 C7 1_555 1_555
H8 C8 1_555 1_555
H9 C8 1_555 1_555
C9 C8 1_555 1_555
H10 C9 1_555 1_555
H11 C9 1_555 1_555
C10 N1 1_555 1_555
C11 C4 1_555 1_555
C12 C11 1_555 1_555
H12 C12 1_555 1_555
C13 C12 1_555 1_555
H13 C13 1_555 1_555
C14 C13 1_555 1_555
C15 C14 1_555 1_555
H14 C15 1_555 1_555
C16 C11 1_555 1_555
H15 C16 1_555 1_555
O3 C1 1_555 1_555
C5 C10 1_555 1_555
C9 C10 1_555 1_555
C14 O3 1_555 1_555
C15 C16 1_555 1_555

#END
