
#######################################################################
#
#                 Cambridge Crystallographic Data Centre
#                                CCDC 
#
#######################################################################
#
# If this CIF has been generated from an entry in the Cambridge 
# Structural Database, then it will include bibliographic, chemical, 
# crystal, experimental, refinement or atomic coordinate data resulting 
# from the CCDC's data processing and validation procedures.
#
#######################################################################

data_KEZLOT
_chemical_formula_moiety         'C25 H29 N1 O6'
_chemical_name_systematic        
4-benzyloxy-6-methoxy-1-((4-methoxyphenyl)methyl)hexahydro-3H,4H,9H-[1]benzofuro[3,3a-c][1,2]oxazol-9-one
_symmetry_cell_setting           orthorhombic
_symmetry_space_group_name_H-M   'P 21 21 21'
_symmetry_Int_Tables_number      19
_space_group_name_Hall           'P 2ac 2ab'
loop_
_symmetry_equiv_pos_site_id
_symmetry_equiv_pos_as_xyz
1 x,y,z
2 1/2-x,-y,1/2+z
3 1/2+x,1/2-y,-z
4 -x,1/2+y,1/2-z
_cell_length_a                   8.4244(5)
_cell_length_b                   9.7309(4)
_cell_length_c                   27.0602(12)
_cell_angle_alpha                90
_cell_angle_beta                 90
_cell_angle_gamma                90
_cell_volume                     2218.31
_cell_formula_units_Z            4
loop_
_atom_site_label
_atom_site_type_symbol
_atom_site_fract_x
_atom_site_fract_y
_atom_site_fract_z
C1 C -1.4445(4) -0.4006(4) -0.19529(13)
C2 C -1.3957(5) -0.3214(4) -0.15582(14)
H1 H -1.4422 -0.2360 -0.1504
C3 C -1.2785(4) -0.3677(4) -0.12438(12)
H2 H -1.2480 -0.3138 -0.0976
C4 C -1.2064(4) -0.4924(3) -0.13203(11)
C5 C -1.2559(4) -0.5699(4) -0.17133(11)
H3 H -1.2079 -0.6544 -0.1771
C6 C -1.3754(4) -0.5263(4) -0.20287(12)
H4 H -1.4084 -0.5819 -0.2289
C7 C -1.0784(4) -0.5496(3) -0.09876(11)
H5 H -1.1214 -0.6269 -0.0805
H6 H -0.9921 -0.5838 -0.1191
C8 C -0.7759(4) -0.3926(3) -0.10060(12)
H7 H -0.7032 -0.3169 -0.1061
H8 H -0.7757 -0.4513 -0.1296
C9 C -0.7284(4) -0.4740(3) -0.05463(11)
C10 C -0.8916(4) -0.5069(3) -0.03193(10)
H9 H -0.9054 -0.6059 -0.0268
C11 C -0.8987(5) -0.4291(3) 0.01623(12)
C12 C -0.6483(4) -0.3820(3) -0.01498(12)
H10 H -0.6125 -0.2970 -0.0308
C13 C -0.5099(4) -0.4451(4) 0.01200(13)
H11 H -0.4928 -0.3961 0.0428
H12 H -0.4148 -0.4356 -0.0079
C14 C -0.5385(4) -0.5974(3) 0.02306(11)
H13 H -0.4490 -0.6340 0.0421
C15 C -0.5556(4) -0.6771(3) -0.02460(11)
H14 H -0.6225 -0.7564 -0.0184
H15 H -0.4517 -0.7110 -0.0341
C16 C -0.6250(4) -0.5977(3) -0.06797(10)
H16 H -0.5365 -0.5644 -0.0882
C17 C -0.6332(4) -0.7873(3) -0.12424(12)
H17 H -0.5821 -0.8487 -0.1009
H18 H -0.5516 -0.7443 -0.1442
C18 C -0.7738(5) -1.0035(4) -0.14747(12)
H19 H -0.7236 -1.0470 -0.1212
C19 C -0.8760(5) -1.0768(4) -0.17682(13)
H20 H -0.8935 -1.1696 -0.1706
C20 C -0.9517(5) -1.0140(4) -0.21500(13)
H21 H -1.0220 -1.0636 -0.2346
C21 C -0.9248(5) -0.8776(4) -0.22470(13)
H22 H -0.9758 -0.8348 -0.2510
C22 C -0.8218(5) -0.8045(4) -0.19515(12)
H23 H -0.8045 -0.7118 -0.2015
C23 C -0.7443(4) -0.8662(3) -0.15643(10)
C24 C -0.6774(5) -0.5737(4) 0.09982(12)
H24 H -0.6735 -0.4751 0.1006
H25 H -0.5844 -0.6104 0.1155
H26 H -0.7703 -0.6049 0.1170
C25 C -1.6196(5) -0.4273(6) -0.26329(16)
H27 H -1.5336 -0.4492 -0.2852
H28 H -1.6997 -0.3775 -0.2811
H29 H -1.6643 -0.5106 -0.2503
N1 N -1.0158(3) -0.4504(2) -0.06412(9)
O1 O -1.5631(4) -0.3464(4) -0.22433(11)
O2 O -0.9336(3) -0.3424(2) -0.09052(8)
O3 O -0.7212(3) -0.6850(2) -0.09835(7)
O4 O -0.7712(3) -0.3479(2) 0.02095(8)
O5 O -0.6835(3) -0.6189(2) 0.05003(7)
O6 O -1.0031(3) -0.4298(3) 0.04625(8)
loop_
_geom_bond_atom_site_label_1
_geom_bond_atom_site_label_2
_geom_bond_site_symmetry_1
_geom_bond_site_symmetry_2
C1 C2 1_555 1_555
C2 H1 1_555 1_555
C3 C2 1_555 1_555
H2 C3 1_555 1_555
C4 C3 1_555 1_555
C5 C4 1_555 1_555
H3 C5 1_555 1_555
C6 C1 1_555 1_555
H4 C6 1_555 1_555
C7 C4 1_555 1_555
H5 C7 1_555 1_555
H6 C7 1_555 1_555
C8 H7 1_555 1_555
H8 C8 1_555 1_555
C9 C8 1_555 1_555
C10 C9 1_555 1_555
H9 C10 1_555 1_555
C11 C10 1_555 1_555
C12 C9 1_555 1_555
H10 C12 1_555 1_555
C13 C12 1_555 1_555
H11 C13 1_555 1_555
H12 C13 1_555 1_555
C14 C13 1_555 1_555
H13 C14 1_555 1_555
C15 C14 1_555 1_555
H14 C15 1_555 1_555
H15 C15 1_555 1_555
C16 C9 1_555 1_555
H16 C16 1_555 1_555
C17 H17 1_555 1_555
H18 C17 1_555 1_555
C18 H19 1_555 1_555
C19 C18 1_555 1_555
H20 C19 1_555 1_555
C20 C19 1_555 1_555
H21 C20 1_555 1_555
C21 C20 1_555 1_555
H22 C21 1_555 1_555
C22 C21 1_555 1_555
H23 C22 1_555 1_555
C23 C17 1_555 1_555
C24 H24 1_555 1_555
H25 C24 1_555 1_555
H26 C24 1_555 1_555
C25 H27 1_555 1_555
H28 C25 1_555 1_555
H29 C25 1_555 1_555
N1 C7 1_555 1_555
O1 C1 1_555 1_555
O2 C8 1_555 1_555
O3 C16 1_555 1_555
O4 C11 1_555 1_555
O5 C14 1_555 1_555
O6 C11 1_555 1_555
C5 C6 1_555 1_555
C10 N1 1_555 1_555
C12 O4 1_555 1_555
C15 C16 1_555 1_555
C17 O3 1_555 1_555
C18 C23 1_555 1_555
C22 C23 1_555 1_555
C24 O5 1_555 1_555
C25 O1 1_555 1_555
N1 O2 1_555 1_555

#END
