
#######################################################################
#
#                 Cambridge Crystallographic Data Centre
#                                CCDC 
#
#######################################################################
#
# If this CIF has been generated from an entry in the Cambridge 
# Structural Database, then it will include bibliographic, chemical, 
# crystal, experimental, refinement or atomic coordinate data resulting 
# from the CCDC's data processing and validation procedures.
#
#######################################################################

data_KEZMUY
_chemical_formula_moiety         'C11 H16 O3'
_chemical_name_systematic        
'(2S*,4aR*,8aS*)-6-Oxoperhydronaphthalene-2-carboxylic acid'
_symmetry_cell_setting           triclinic
_symmetry_space_group_name_H-M   'P -1'
_symmetry_Int_Tables_number      2
_space_group_name_Hall           '-P 1'
loop_
_symmetry_equiv_pos_site_id
_symmetry_equiv_pos_as_xyz
1 x,y,z
2 -x,-y,-z
_cell_length_a                   7.40890(10)
_cell_length_b                   11.3743(2)
_cell_length_c                   12.9478(2)
_cell_angle_alpha                112.6743(6)
_cell_angle_beta                 91.9072(6)
_cell_angle_gamma                90.6949(6)
_cell_volume                     1005.87
_exptl_crystal_colour            colorless
_exptl_crystal_description       parallelepiped
_chemical_melting_point          '393 K'
_cell_formula_units_Z            4
_exptl_crystal_recrystallization_method 'methyl t-butyl ether'
loop_
_atom_site_label
_atom_site_type_symbol
_atom_site_fract_x
_atom_site_fract_y
_atom_site_fract_z
C1 C 0.0155(2) 0.51481(15) 0.70850(14)
H1 H -0.0209 0.5964 0.7044
H2 H 0.1295 0.4897 0.6688
O1 O -0.63304(17) 0.33432(12) 0.49361(12)
C3 C 0.0485(2) 0.53432(15) 0.83160(14)
H5 H 0.0969 0.4530 0.8324
O3 O 0.17140(17) 0.71947(12) 0.98523(10)
C5 C -0.1272(2) 0.55815(16) 0.89392(14)
H7 H -0.1028 0.5602 0.9702
H8 H -0.1724 0.6425 0.9014
O5 O 0.33489(16) 0.63283(12) 0.83407(10)
H9 H 0.4069 0.6932 0.8710
C7 C -0.3057(2) 0.44284(15) 0.71365(14)
H13 H -0.3469 0.5269 0.7152
C8 C -0.2720(2) 0.45675(16) 0.83451(15)
H14 H -0.3857 0.4798 0.8749
H15 H -0.2340 0.3741 0.8357
C11 C -0.4562(2) 0.34366(17) 0.65430(16)
H19 H -0.4241 0.2609 0.6577
H20 H -0.5700 0.3708 0.6938
C13 C -0.4853(2) 0.32697(15) 0.53375(16)
C15 C -0.3169(2) 0.30065(18) 0.46723(16)
H23 H -0.3445 0.3045 0.3933
H24 H -0.2768 0.2136 0.4544
C17 C -0.1314(2) 0.41249(15) 0.64969(14)
H27 H -0.0877 0.3295 0.6494
C18 C -0.1638(2) 0.39761(16) 0.52846(15)
H28 H -0.0510 0.3700 0.4880
H29 H -0.1939 0.4815 0.5269
C21 C 0.1884(2) 0.63848(15) 0.89249(14)
C2 C 1.0437(2) 0.92719(14) 1.30068(13)
H3 H 1.1236 0.8634 1.2496
H4 H 1.0122 0.8984 1.3610
O2 O 0.58059(14) 0.82579(11) 0.93838(10)
C4 C 1.1449(2) 1.05722(15) 1.35218(14)
H6 H 1.0646 1.1197 1.4059
O4 O 1.45654(14) 1.01194(11) 1.37686(9)
C6 C 1.1915(2) 1.10597(15) 1.26143(14)
H10 H 1.2760 1.0475 1.2095
H11 H 1.2514 1.1912 1.2962
O6 O 1.27197(15) 1.04998(13) 1.51884(10)
H12 H 1.3624 1.0286 1.5477
C9 C 0.9145(2) 0.98678(14) 1.14553(13)
H16 H 0.9930 0.9243 1.0903
C10 C 1.0175(2) 1.11425(15) 1.19596(14)
H17 H 0.9386 1.1789 1.2470
H18 H 1.0493 1.1423 1.1352
C12 C 0.7397(2) 0.99760(15) 1.08311(14)
H21 H 0.6644 1.0642 1.1351
H22 H 0.7700 1.0239 1.0211
C14 C 0.6337(2) 0.87311(15) 1.03643(14)
C16 C 0.5996(2) 0.81041(16) 1.11719(14)
H25 H 0.5519 0.7224 1.0754
H26 H 0.5073 0.8580 1.1698
C19 C 0.8718(2) 0.93585(14) 1.23595(13)
H30 H 0.7899 0.9968 1.2898
C20 C 0.7740(2) 0.80643(15) 1.18395(14)
H31 H 0.7435 0.7770 1.2441
H32 H 0.8560 0.7440 1.1334
C22 C 1.3076(2) 1.03973(15) 1.41662(14)
loop_
_geom_bond_atom_site_label_1
_geom_bond_atom_site_label_2
_geom_bond_site_symmetry_1
_geom_bond_site_symmetry_2
C1 H1 1_555 1_555
H2 C1 1_555 1_555
O1 C13 1_555 1_555
C2 H3 1_555 1_555
H4 C2 1_555 1_555
O2 C14 1_555 1_555
C3 C1 1_555 1_555
H5 C3 1_555 1_555
O3 C21 1_555 1_555
C4 C2 1_555 1_555
H6 C4 1_555 1_555
O4 C22 1_555 1_555
C5 C3 1_555 1_555
H7 C5 1_555 1_555
H8 C5 1_555 1_555
O5 H9 1_555 1_555
C6 C4 1_555 1_555
H10 C6 1_555 1_555
H11 C6 1_555 1_555
O6 H12 1_555 1_555
C7 H13 1_555 1_555
C8 C5 1_555 1_555
H14 C8 1_555 1_555
H15 C8 1_555 1_555
C9 H16 1_555 1_555
C10 C6 1_555 1_555
H17 C10 1_555 1_555
H18 C10 1_555 1_555
C11 C7 1_555 1_555
H19 C11 1_555 1_555
H20 C11 1_555 1_555
C12 C9 1_555 1_555
H21 C12 1_555 1_555
H22 C12 1_555 1_555
C13 C11 1_555 1_555
C14 C12 1_555 1_555
C15 C13 1_555 1_555
H23 C15 1_555 1_555
H24 C15 1_555 1_555
C16 C14 1_555 1_555
H25 C16 1_555 1_555
H26 C16 1_555 1_555
C17 C1 1_555 1_555
H27 C17 1_555 1_555
C18 C15 1_555 1_555
H28 C18 1_555 1_555
H29 C18 1_555 1_555
C19 C2 1_555 1_555
H30 C19 1_555 1_555
C20 C16 1_555 1_555
H31 C20 1_555 1_555
H32 C20 1_555 1_555
C21 C3 1_555 1_555
C22 C4 1_555 1_555
O5 C21 1_555 1_555
O6 C22 1_555 1_555
C7 C8 1_555 1_555
C7 C17 1_555 1_555
C9 C10 1_555 1_555
C9 C19 1_555 1_555
C17 C18 1_555 1_555
C19 C20 1_555 1_555

#END
