
#######################################################################
#
#                 Cambridge Crystallographic Data Centre
#                                CCDC 
#
#######################################################################
#
# If this CIF has been generated from an entry in the Cambridge 
# Structural Database, then it will include bibliographic, chemical, 
# crystal, experimental, refinement or atomic coordinate data resulting 
# from the CCDC's data processing and validation procedures.
#
#######################################################################

data_KEZNAG
_chemical_formula_moiety         'C7 H9 I1 O2'
_chemical_name_systematic        5-Ethyl-4-iodo-3-methylfuran-2(5H)-one
_symmetry_cell_setting           orthorhombic
_symmetry_space_group_name_H-M   'P 21 21 21'
_symmetry_Int_Tables_number      19
_space_group_name_Hall           'P 2ac 2ab'
loop_
_symmetry_equiv_pos_site_id
_symmetry_equiv_pos_as_xyz
1 x,y,z
2 1/2-x,-y,1/2+z
3 -x,1/2+y,1/2-z
4 1/2+x,1/2-y,-z
_cell_length_a                   8.134(3)
_cell_length_b                   8.334(3)
_cell_length_c                   12.917(4)
_cell_angle_alpha                90
_cell_angle_beta                 90
_cell_angle_gamma                90
_cell_volume                     875.627
_exptl_crystal_colour            colorless
_exptl_crystal_description       prismatic
_cell_formula_units_Z            4
loop_
_atom_site_label
_atom_site_type_symbol
_atom_site_fract_x
_atom_site_fract_y
_atom_site_fract_z
I1 I 0.64552(3) 0.22682(3) 0.891354(18)
O1 O 0.5719(4) 0.8709(3) 0.8845(3)
O2 O 0.7995(3) 0.7200(3) 0.8752(2)
C1 C 0.6337(5) 0.7397(4) 0.8829(3)
C2 C 0.5545(4) 0.5811(4) 0.8888(3)
C3 C 0.6742(4) 0.4736(4) 0.8862(3)
C4 C 0.8395(5) 0.5508(4) 0.8767(3)
H1 H 0.9040 0.5271 0.9390
C5 C 0.9394(5) 0.5073(6) 0.7819(4)
H2 H 1.0385 0.5721 0.7812
H3 H 0.9727 0.3958 0.7874
C6 C 0.8513(6) 0.5301(6) 0.6812(4)
H4 H 0.7520 0.4678 0.6813
H5 H 0.9206 0.4956 0.6254
H6 H 0.8247 0.6415 0.6725
C7 C 0.3737(5) 0.5626(5) 0.8963(4)
H7 H 0.3371 0.4854 0.8462
H8 H 0.3218 0.6640 0.8831
H9 H 0.3452 0.5264 0.9645
loop_
_geom_bond_atom_site_label_1
_geom_bond_atom_site_label_2
_geom_bond_site_symmetry_1
_geom_bond_site_symmetry_2
I1 C3 1_555 1_555
O1 C1 1_555 1_555
O2 C1 1_555 1_555
C1 C2 1_555 1_555
C2 C3 1_555 1_555
C3 C4 1_555 1_555
C4 O2 1_555 1_555
H1 C4 1_555 1_555
C5 C4 1_555 1_555
H2 C5 1_555 1_555
H3 C5 1_555 1_555
C6 C5 1_555 1_555
H4 C6 1_555 1_555
H5 C6 1_555 1_555
H6 C6 1_555 1_555
C7 C2 1_555 1_555
H7 C7 1_555 1_555
H8 C7 1_555 1_555
H9 C7 1_555 1_555

#END
