
#######################################################################
#
#                 Cambridge Crystallographic Data Centre
#                                CCDC 
#
#######################################################################
#
# If this CIF has been generated from an entry in the Cambridge 
# Structural Database, then it will include bibliographic, chemical, 
# crystal, experimental, refinement or atomic coordinate data resulting 
# from the CCDC's data processing and validation procedures.
#
#######################################################################

data_KEZQUD
_chemical_formula_moiety         'C24 H20 O2'
_chemical_name_systematic        
(6-Methoxy-3-methyl-1-phenyl-1H-inden-2-yl)(phenyl)methanone
_symmetry_cell_setting           rhombohedral
_symmetry_space_group_name_H-M   'R -3'
_symmetry_Int_Tables_number      148
_space_group_name_Hall           '-R 3'
loop_
_symmetry_equiv_pos_site_id
_symmetry_equiv_pos_as_xyz
1 x,y,z
2 -y,x-y,z
3 -x+y,-x,z
4 2/3+x,1/3+y,1/3+z
5 2/3-y,1/3+x-y,1/3+z
6 2/3-x+y,1/3-x,1/3+z
7 1/3+x,2/3+y,2/3+z
8 1/3-y,2/3+x-y,2/3+z
9 1/3-x+y,2/3-x,2/3+z
10 -x,-y,-z
11 y,-x+y,-z
12 x-y,x,-z
13 1/3-x,2/3-y,2/3-z
14 1/3+y,2/3-x+y,2/3-z
15 1/3+x-y,2/3+x,2/3-z
16 2/3-x,1/3-y,1/3-z
17 2/3+y,1/3-x+y,1/3-z
18 2/3+x-y,1/3+x,1/3-z
_cell_length_a                   28.7569(13)
_cell_length_b                   28.7569(13)
_cell_length_c                   11.5446(10)
_cell_angle_alpha                90
_cell_angle_beta                 90
_cell_angle_gamma                120
_cell_volume                     8267.87
_exptl_crystal_colour            'light yellow'
_exptl_crystal_description       plate
_cell_formula_units_Z            18
loop_
_atom_site_label
_atom_site_type_symbol
_atom_site_fract_x
_atom_site_fract_y
_atom_site_fract_z
O1 O 0.37965(9) 0.41181(9) 1.24058(18)
O2 O 0.53990(9) 0.63719(9) 0.77796(18)
C1 C 0.42709(12) 0.48747(12) 1.1095(3)
H1 H 0.4384 0.5127 1.1689
C2 C 0.47727(12) 0.63221(12) 1.0742(3)
H2 H 0.5068 0.6342 1.1117
C3 C 0.42454(12) 0.46661(13) 0.9041(3)
C4 C 0.39570(13) 0.43270(13) 1.1322(3)
C5 C 0.37892(13) 0.39521(13) 1.0421(3)
H3 H 0.3579 0.3588 1.0587
C6 C 0.44090(12) 0.50300(12) 0.9954(3)
C7 C 0.50165(13) 0.59539(13) 0.7401(3)
C8 C 0.40950(12) 0.59399(13) 0.9282(3)
H4 H 0.3932 0.5701 0.8671
C9 C 0.38948(13) 0.62688(12) 0.9637(3)
H5 H 0.3600 0.6250 0.9262
C10 C 0.47234(12) 0.54886(13) 0.8170(2)
C11 C 0.52174(13) 0.62512(12) 0.5350(3)
H6 H 0.5578 0.6452 0.5549
C12 C 0.47414(12) 0.55945(12) 0.9470(3)
H7 H 0.5112 0.5746 0.9740
C13 C 0.41377(13) 0.56730(13) 0.4751(3)
H8 H 0.3776 0.5483 0.4555
C14 C 0.45341(12) 0.59665(12) 0.9832(3)
C15 C 0.41326(13) 0.66218(13) 1.0545(3)
H9 H 0.3996 0.6839 1.0783
C16 C 0.42972(13) 0.56512(13) 0.5879(3)
H10 H 0.4042 0.5444 0.6432
C17 C 0.43636(13) 0.46537(13) 0.6829(3)
H11 H 0.4434 0.4364 0.6947
H12 H 0.4605 0.4894 0.6252
H13 H 0.4000 0.4512 0.6572
C18 C 0.48386(13) 0.59383(13) 0.6183(3)
C19 C 0.39313(12) 0.41160(12) 0.9288(3)
H14 H 0.3820 0.3864 0.8694
C20 C 0.50553(13) 0.62632(13) 0.4215(3)
H15 H 0.5309 0.6464 0.3654
C21 C 0.45148(13) 0.59756(13) 0.3926(3)
H16 H 0.4407 0.5987 0.3173
C22 C 0.44456(12) 0.49522(13) 0.7944(3)
C23 C 0.45703(13) 0.66534(13) 1.1099(3)
H17 H 0.4732 0.6893 1.1708
C24 C 0.39872(14) 0.44784(13) 1.3368(3)
H18 H 0.3877 0.4741 1.3282
H19 H 0.4372 0.4655 1.3396
H20 H 0.3841 0.4281 1.4072
loop_
_geom_bond_atom_site_label_1
_geom_bond_atom_site_label_2
_geom_bond_site_symmetry_1
_geom_bond_site_symmetry_2
O1 C4 1_555 1_555
O2 C7 1_555 1_555
C1 H1 1_555 1_555
C2 H2 1_555 1_555
C3 C6 1_555 1_555
C4 C1 1_555 1_555
C5 C4 1_555 1_555
H3 C5 1_555 1_555
C6 C1 1_555 1_555
C7 C10 1_555 1_555
C8 H4 1_555 1_555
C9 C8 1_555 1_555
H5 C9 1_555 1_555
C10 C12 1_555 1_555
C11 H6 1_555 1_555
C12 C6 1_555 1_555
H7 C12 1_555 1_555
C13 H8 1_555 1_555
C14 C2 1_555 1_555
C15 C9 1_555 1_555
H9 C15 1_555 1_555
C16 C13 1_555 1_555
H10 C16 1_555 1_555
C17 H11 1_555 1_555
H12 C17 1_555 1_555
H13 C17 1_555 1_555
C18 C7 1_555 1_555
C19 C3 1_555 1_555
H14 C19 1_555 1_555
C20 C11 1_555 1_555
H15 C20 1_555 1_555
C21 C13 1_555 1_555
H16 C21 1_555 1_555
C22 C3 1_555 1_555
C23 C2 1_555 1_555
H17 C23 1_555 1_555
C24 O1 1_555 1_555
H18 C24 1_555 1_555
H19 C24 1_555 1_555
H20 C24 1_555 1_555
C5 C19 1_555 1_555
C8 C14 1_555 1_555
C10 C22 1_555 1_555
C11 C18 1_555 1_555
C12 C14 1_555 1_555
C15 C23 1_555 1_555
C16 C18 1_555 1_555
C17 C22 1_555 1_555
C20 C21 1_555 1_555

#END
