
#######################################################################
#
#                 Cambridge Crystallographic Data Centre
#                                CCDC 
#
#######################################################################
#
# If this CIF has been generated from an entry in the Cambridge 
# Structural Database, then it will include bibliographic, chemical, 
# crystal, experimental, refinement or atomic coordinate data resulting 
# from the CCDC's data processing and validation procedures.
#
#######################################################################

data_KEZTUH
_chemical_formula_moiety         'C34 H24 B2 F2 N2 O4'
_chemical_name_systematic        
1,1'-bis[2-(4-fluorophenyl)-2H-1,3,2-benzodioxaborol-2-yl]-4,4'-bi-1-pyridine
_symmetry_cell_setting           monoclinic
_symmetry_space_group_name_H-M   'P 21/c'
_symmetry_Int_Tables_number      14
_space_group_name_Hall           '-P 2ybc'
loop_
_symmetry_equiv_pos_site_id
_symmetry_equiv_pos_as_xyz
1 x,y,z
2 -x,1/2+y,1/2-z
3 -x,-y,-z
4 x,1/2-y,1/2+z
_cell_length_a                   8.282(2)
_cell_length_b                   14.290(4)
_cell_length_c                   12.317(3)
_cell_angle_alpha                90
_cell_angle_beta                 100.518(5)
_cell_angle_gamma                90
_cell_volume                     1433.22
_exptl_crystal_colour            orange
_exptl_crystal_description       'rectangular prism'
_cell_formula_units_Z            2
_exptl_crystal_recrystallization_method Benzene
loop_
_atom_site_label
_atom_site_type_symbol
_atom_site_fract_x
_atom_site_fract_y
_atom_site_fract_z
B1 B 0.4998(2) 0.22387(13) 0.17113(14)
F1 F 0.01452(17) 0.50624(10) 0.17574(13)
N1 N 0.50548(15) 0.15179(8) 0.27685(10)
O1 O 0.47489(13) 0.16363(7) 0.07345(8)
O2 O 0.66681(13) 0.26107(7) 0.18307(8)
C1 C 0.35969(19) 0.29895(11) 0.17492(13)
C2 C 0.3337(2) 0.34107(13) 0.27147(15)
H1 H 0.3956 0.3211 0.3381
C3 C 0.2203(2) 0.41139(14) 0.27312(18)
H2 H 0.2070 0.4396 0.3390
C4 C 0.1288(2) 0.43791(13) 0.17523(19)
C5 C 0.1451(2) 0.39854(13) 0.07822(17)
H3 H 0.0795 0.4177 0.0125
C6 C 0.2613(2) 0.32922(12) 0.07856(14)
H4 H 0.2737 0.3021 0.0119
C7 C 0.6290(2) 0.14811(10) 0.05203(13)
C8 C 0.7417(2) 0.20532(10) 0.11727(13)
C9 C 0.9042(2) 0.20435(12) 0.10932(16)
H5 H 0.9805 0.2420 0.1541
C10 C 0.9501(3) 0.14467(15) 0.0314(2)
H6 H 1.0595 0.1430 0.0230
C11 C 0.8385(3) 0.08830(14) -0.03333(18)
H7 H 0.8734 0.0491 -0.0848
C12 C 0.6744(2) 0.08848(12) -0.02361(15)
H8 H 0.5984 0.0496 -0.0668
C13 C 0.6147(2) 0.16048(10) 0.36923(12)
H9 H 0.6933 0.2075 0.3742
C14 C 0.6155(2) 0.10263(10) 0.45729(13)
H10 H 0.6933 0.1113 0.5212
C15 C 0.50199(17) 0.03135(9) 0.45273(11)
C16 C 0.3918(2) 0.02241(12) 0.35483(14)
H11 H 0.3143 -0.0254 0.3466
C17 C 0.3958(2) 0.08287(12) 0.27057(14)
H12 H 0.3190 0.0760 0.2058
B1B B 0.5002(2) -0.22387(13) 0.82887(14)
F1B F 0.98548(17) -0.50624(10) 0.82426(13)
N1B N 0.49452(15) -0.15179(8) 0.72315(10)
O1B O 0.52511(13) -0.16363(7) 0.92655(8)
O2B O 0.33319(13) -0.26107(7) 0.81693(8)
C1B C 0.64031(19) -0.29895(11) 0.82508(13)
C2B C 0.6663(2) -0.34107(13) 0.72853(15)
H1B H 0.6044 -0.3211 0.6619
C3B C 0.7797(2) -0.41139(14) 0.72688(18)
H2B H 0.7930 -0.4396 0.6610
C4B C 0.8712(2) -0.43791(13) 0.82477(19)
C5B C 0.8549(2) -0.39854(13) 0.92178(17)
H3B H 0.9205 -0.4177 0.9875
C6B C 0.7387(2) -0.32922(12) 0.92144(14)
H4B H 0.7263 -0.3021 0.9881
C7B C 0.3710(2) -0.14811(10) 0.94797(13)
C8B C 0.2583(2) -0.20532(10) 0.88273(13)
C9B C 0.0958(2) -0.20435(12) 0.89068(16)
H5B H 0.0195 -0.2420 0.8459
C10B C 0.0499(3) -0.14467(15) 0.9686(2)
H6B H -0.0595 -0.1430 0.9770
C11B C 0.1615(3) -0.08830(14) 1.03333(18)
H7B H 0.1266 -0.0491 1.0848
C12B C 0.3256(2) -0.08848(12) 1.02361(15)
H8B H 0.4016 -0.0496 1.0668
C13B C 0.3853(2) -0.16048(10) 0.63077(12)
H9B H 0.3067 -0.2075 0.6258
C14B C 0.3845(2) -0.10263(10) 0.54271(13)
H10B H 0.3067 -0.1113 0.4788
C15B C 0.49801(17) -0.03135(9) 0.54727(11)
C16B C 0.6082(2) -0.02241(12) 0.64517(14)
H11B H 0.6857 0.0254 0.6534
C17B C 0.6042(2) -0.08287(12) 0.72943(14)
H12B H 0.6810 -0.0760 0.7942
loop_
_geom_bond_atom_site_label_1
_geom_bond_atom_site_label_2
_geom_bond_site_symmetry_1
_geom_bond_site_symmetry_2
B1 N1 1_555 1_555
F1 C4 1_555 1_555
N1 C13 1_555 1_555
O1 B1 1_555 1_555
O2 B1 1_555 1_555
C1 B1 1_555 1_555
C2 C1 1_555 1_555
H1 C2 1_555 1_555
C3 C2 1_555 1_555
H2 C3 1_555 1_555
C4 C3 1_555 1_555
C5 C4 1_555 1_555
H3 C5 1_555 1_555
C6 C1 1_555 1_555
H4 C6 1_555 1_555
C7 O1 1_555 1_555
C8 O2 1_555 1_555
C9 C8 1_555 1_555
H5 C9 1_555 1_555
C10 C9 1_555 1_555
H6 C10 1_555 1_555
C11 C10 1_555 1_555
H7 C11 1_555 1_555
C12 C7 1_555 1_555
H8 C12 1_555 1_555
C13 H9 1_555 1_555
C14 C13 1_555 1_555
H10 C14 1_555 1_555
C15 C14 1_555 1_555
C16 C15 1_555 1_555
H11 C16 1_555 1_555
C17 N1 1_555 1_555
H12 C17 1_555 1_555
B1B N1B 1_555 1_555
F1B C4B 1_555 1_555
N1B C13B 1_555 1_555
O1B B1B 1_555 1_555
O2B B1B 1_555 1_555
C1B B1B 1_555 1_555
C2B C1B 1_555 1_555
H1B C2B 1_555 1_555
C3B C2B 1_555 1_555
H2B C3B 1_555 1_555
C4B C3B 1_555 1_555
C5B C4B 1_555 1_555
H3B C5B 1_555 1_555
C6B C1B 1_555 1_555
H4B C6B 1_555 1_555
C7B O1B 1_555 1_555
C8B O2B 1_555 1_555
C9B C8B 1_555 1_555
H5B C9B 1_555 1_555
C10B C9B 1_555 1_555
H6B C10B 1_555 1_555
C11B C10B 1_555 1_555
H7B C11B 1_555 1_555
C12B C7B 1_555 1_555
H8B C12B 1_555 1_555
C13B H9B 1_555 1_555
C14B C13B 1_555 1_555
H10B C14B 1_555 1_555
C15B C15 1_555 1_555
C16B C15B 1_555 1_555
H11B C16B 1_555 1_555
C17B N1B 1_555 1_555
H12B C17B 1_555 1_555
C5 C6 1_555 1_555
C7 C8 1_555 1_555
C11 C12 1_555 1_555
C16 C17 1_555 1_555
C5B C6B 1_555 1_555
C7B C8B 1_555 1_555
C11B C12B 1_555 1_555
C14B C15B 1_555 1_555
C16B C17B 1_555 1_555

#END
