
#######################################################################
#
#                 Cambridge Crystallographic Data Centre
#                                CCDC 
#
#######################################################################
#
# If this CIF has been generated from an entry in the Cambridge 
# Structural Database, then it will include bibliographic, chemical, 
# crystal, experimental, refinement or atomic coordinate data resulting 
# from the CCDC's data processing and validation procedures.
#
#######################################################################

data_KEZVES
_chemical_formula_moiety         'C31 H23 N1 O3'
_chemical_name_systematic        
2-(3-Nitrophenyl)-4,6,6-triphenyl-5,6-dihydro-4H-cyclopenta[b]furan
_symmetry_cell_setting           triclinic
_symmetry_space_group_name_H-M   'P -1'
_symmetry_Int_Tables_number      2
_space_group_name_Hall           '-P 1'
loop_
_symmetry_equiv_pos_site_id
_symmetry_equiv_pos_as_xyz
1 x,y,z
2 -x,-y,-z
_cell_length_a                   8.906(6)
_cell_length_b                   11.655(8)
_cell_length_c                   14.358(10)
_cell_angle_alpha                93.038(7)
_cell_angle_beta                 95.923(7)
_cell_angle_gamma                112.295(7)
_cell_volume                     1364.68
_exptl_crystal_colour            colorless
_exptl_crystal_description       block
_cell_formula_units_Z            2
loop_
_atom_site_label
_atom_site_type_symbol
_atom_site_fract_x
_atom_site_fract_y
_atom_site_fract_z
C1 C 0.2290(2) 0.53551(19) 0.08347(13)
C2 C 0.0896(3) 0.4751(2) 0.12046(15)
H1 H -0.0040 0.4102 0.0904
C3 C 0.1147(2) 0.5305(2) 0.21438(14)
C4 C 0.0311(2) 0.5267(2) 0.30097(15)
H2 H -0.0367 0.5759 0.2939
C5 C 0.1829(2) 0.59849(19) 0.37461(14)
H3 H 0.2255 0.5410 0.4022
H4 H 0.1532 0.6419 0.4245
C6 C 0.3160(2) 0.69474(18) 0.32254(13)
C7 C 0.2639(2) 0.61947(18) 0.22786(13)
C8 C 0.2882(2) 0.81693(18) 0.32147(14)
C9 C 0.2392(3) 0.8579(2) 0.23958(17)
H5 H 0.2234 0.8113 0.1822
C10 C 0.2135(3) 0.9688(3) 0.2427(2)
H6 H 0.1822 0.9964 0.1873
C11 C 0.2340(3) 1.0368(2) 0.3263(2)
H7 H 0.2152 1.1101 0.3279
C12 C 0.2820(3) 0.9980(2) 0.4079(2)
H8 H 0.2959 1.0446 0.4651
C13 C 0.3101(3) 0.8893(2) 0.40533(17)
H9 H 0.3444 0.8640 0.4612
C14 C 0.4940(2) 0.72137(18) 0.36210(14)
C15 C 0.6195(3) 0.8021(2) 0.31972(17)
H10 H 0.5941 0.8406 0.2688
C16 C 0.7823(3) 0.8273(2) 0.3511(2)
H11 H 0.8644 0.8808 0.3206
C17 C 0.8228(3) 0.7730(3) 0.4277(2)
H12 H 0.9319 0.7901 0.4494
C18 C 0.7013(3) 0.6943(3) 0.4706(2)
H13 H 0.7282 0.6569 0.5218
C19 C 0.5369(3) 0.6681(2) 0.43986(17)
H14 H 0.4559 0.6151 0.4713
C20 C -0.0737(3) 0.3975(2) 0.32310(14)
C21 C -0.0223(3) 0.3001(2) 0.31711(19)
H15 H 0.0828 0.3151 0.3031
C22 C -0.1225(4) 0.1813(3) 0.3314(2)
H16 H -0.0843 0.1174 0.3284
C23 C -0.2790(4) 0.1571(3) 0.35014(19)
H17 H -0.3484 0.0764 0.3582
C24 C -0.3321(3) 0.2524(3) 0.35683(18)
H18 H -0.4378 0.2365 0.3699
C25 C -0.2301(3) 0.3721(2) 0.34428(16)
H19 H -0.2672 0.4364 0.3502
C26 C 0.2801(3) 0.5147(2) -0.00668(14)
C27 C 0.1953(3) 0.4012(2) -0.06124(16)
H20 H 0.1065 0.3415 -0.0394
C28 C 0.2390(3) 0.3752(3) -0.14576(18)
H21 H 0.1811 0.2980 -0.1799
C29 C 0.3678(3) 0.4623(3) -0.18066(17)
H22 H 0.3970 0.4461 -0.2388
C30 C 0.4522(3) 0.5739(2) -0.12700(16)
C31 C 0.4121(3) 0.6028(2) -0.04053(15)
H23 H 0.4723 0.6793 -0.0060
N1 N 0.5933(3) 0.6663(3) -0.16212(19)
O1 O 0.6774(3) 0.7602(2) -0.11094(19)
O2 O 0.33923(16) 0.63008(12) 0.14848(9)
O3 O 0.6226(3) 0.6445(2) -0.24102(15)
loop_
_geom_bond_atom_site_label_1
_geom_bond_atom_site_label_2
_geom_bond_site_symmetry_1
_geom_bond_site_symmetry_2
C1 C2 1_555 1_555
C2 H1 1_555 1_555
C3 C2 1_555 1_555
C4 C3 1_555 1_555
H2 C4 1_555 1_555
C5 C4 1_555 1_555
H3 C5 1_555 1_555
H4 C5 1_555 1_555
C6 C5 1_555 1_555
C7 C3 1_555 1_555
C8 C6 1_555 1_555
C9 C8 1_555 1_555
H5 C9 1_555 1_555
C10 C9 1_555 1_555
H6 C10 1_555 1_555
C11 C10 1_555 1_555
H7 C11 1_555 1_555
C12 C11 1_555 1_555
H8 C12 1_555 1_555
C13 C8 1_555 1_555
H9 C13 1_555 1_555
C14 C6 1_555 1_555
C15 C14 1_555 1_555
H10 C15 1_555 1_555
C16 C15 1_555 1_555
H11 C16 1_555 1_555
C17 C16 1_555 1_555
H12 C17 1_555 1_555
C18 C17 1_555 1_555
H13 C18 1_555 1_555
C19 C14 1_555 1_555
H14 C19 1_555 1_555
C20 C4 1_555 1_555
C21 C20 1_555 1_555
H15 C21 1_555 1_555
C22 C21 1_555 1_555
H16 C22 1_555 1_555
C23 C22 1_555 1_555
H17 C23 1_555 1_555
C24 C23 1_555 1_555
H18 C24 1_555 1_555
C25 C20 1_555 1_555
H19 C25 1_555 1_555
C26 C1 1_555 1_555
C27 C26 1_555 1_555
H20 C27 1_555 1_555
C28 C27 1_555 1_555
H21 C28 1_555 1_555
C29 C28 1_555 1_555
H22 C29 1_555 1_555
C30 C29 1_555 1_555
C31 C26 1_555 1_555
H23 C31 1_555 1_555
N1 C30 1_555 1_555
O1 N1 1_555 1_555
O2 C1 1_555 1_555
O3 N1 1_555 1_555
C6 C7 1_555 1_555
C7 O2 1_555 1_555
C12 C13 1_555 1_555
C18 C19 1_555 1_555
C24 C25 1_555 1_555
C30 C31 1_555 1_555

#END
