
#######################################################################
#
#                 Cambridge Crystallographic Data Centre
#                                CCDC 
#
#######################################################################
#
# If this CIF has been generated from an entry in the Cambridge 
# Structural Database, then it will include bibliographic, chemical, 
# crystal, experimental, refinement or atomic coordinate data resulting 
# from the CCDC's data processing and validation procedures.
#
#######################################################################

data_KEZVET
_chemical_formula_moiety         'C34 H22 B2 F4 N2 O4'
_chemical_name_systematic        
1,1'-bis[2-(2,4-difluorophenyl)-2H-1,3,2-benzodioxaborol-2-yl]-4,4'-bi-1-pyridine
_symmetry_cell_setting           monoclinic
_symmetry_space_group_name_H-M   'P 21/c'
_symmetry_Int_Tables_number      14
_space_group_name_Hall           '-P 2ybc'
loop_
_symmetry_equiv_pos_site_id
_symmetry_equiv_pos_as_xyz
1 x,y,z
2 -x,1/2+y,1/2-z
3 -x,-y,-z
4 x,1/2-y,1/2+z
_cell_length_a                   13.3229(2)
_cell_length_b                   13.0653(2)
_cell_length_c                   18.2981(4)
_cell_angle_alpha                90
_cell_angle_beta                 110.575(2)
_cell_angle_gamma                90
_cell_volume                     2981.94
_exptl_crystal_colour            yellow
_exptl_crystal_description       irregular
_cell_formula_units_Z            4
_exptl_crystal_recrystallization_method Acetonitrile
loop_
_atom_site_label
_atom_site_type_symbol
_atom_site_fract_x
_atom_site_fract_y
_atom_site_fract_z
B1 B 1.08482(14) 0.20185(15) 0.26099(11)
B2 B 0.42285(15) -0.23079(15) 0.23962(12)
C1 C 1.04331(13) 0.27795(13) 0.18838(10)
C2 C 0.95835(14) 0.34520(13) 0.17668(10)
C3 C 0.91224(14) 0.40394(13) 0.11062(11)
H1 H 0.8551 0.4478 0.1053
C4 C 0.95572(15) 0.39376(15) 0.05319(11)
C5 C 1.04280(16) 0.33224(16) 0.06054(11)
H2 H 1.0722 0.3294 0.0214
C6 C 1.08529(14) 0.27462(14) 0.12826(11)
H3 H 1.1437 0.2323 0.1338
C7 C 1.22903(13) 0.10780(14) 0.32831(11)
C8 C 1.20966(13) 0.17622(15) 0.37925(11)
C9 C 1.26737(16) 0.17299(19) 0.45854(12)
H4 H 1.2555 0.2197 0.4930
C10 C 1.34507(16) 0.0951(2) 0.48439(13)
H5 H 1.3852 0.0900 0.5373
C11 C 1.36310(17) 0.0267(2) 0.43336(14)
H6 H 1.4146 -0.0240 0.4526
C12 C 1.30571(14) 0.03164(17) 0.35323(13)
H7 H 1.3184 -0.0139 0.3184
C13 C 0.46575(13) -0.29549(13) 0.31868(10)
C14 C 0.55128(14) -0.36317(14) 0.33609(11)
C15 C 0.59746(15) -0.41353(15) 0.40634(11)
H8 H 0.6545 -0.4586 0.4150
C16 C 0.55404(18) -0.39305(16) 0.46288(12)
C17 C 0.46785(19) -0.32938(17) 0.45055(13)
H9 H 0.4392 -0.3185 0.4895
C18 C 0.42415(16) -0.28137(14) 0.37838(12)
H10 H 0.3653 -0.2385 0.3695
C19 C 0.30617(14) -0.22532(15) 0.11695(12)
C20 C 0.27746(14) -0.15092(16) 0.15974(13)
C21 C 0.19651(16) -0.08128(18) 0.12484(15)
H11 H 0.1765 -0.0316 0.1534
C22 C 0.14627(17) -0.0903(2) 0.04324(16)
H12 H 0.0921 -0.0445 0.0171
C23 C 0.17498(19) -0.1648(2) 0.00115(15)
H13 H 0.1394 -0.1684 -0.0526
C24 C 0.25600(16) -0.23491(18) 0.03713(13)
H14 H 0.2754 -0.2856 0.0089
C25 C 0.94375(13) 0.05907(13) 0.20609(10)
H15 H 0.9803 0.0467 0.1720
C26 C 0.85451(13) 0.00103(13) 0.19951(10)
H16 H 0.8312 -0.0492 0.1612
C27 C 0.79940(12) 0.01825(12) 0.25083(9)
C28 C 0.83823(13) 0.09423(14) 0.30651(10)
H17 H 0.8041 0.1075 0.3420
C29 C 0.92738(14) 0.15019(14) 0.30947(10)
H18 H 0.9520 0.2015 0.3468
C30 C 0.55075(13) -0.07538(13) 0.28283(10)
H19 H 0.5075 -0.0563 0.3108
C31 C 0.63848(13) -0.01595(13) 0.28833(10)
H20 H 0.6539 0.0423 0.3196
C32 C 0.70417(12) -0.04393(12) 0.24648(9)
C33 C 0.67683(13) -0.13200(14) 0.20101(10)
H21 H 0.7188 -0.1531 0.1726
C34 C 0.58777(13) -0.18804(14) 0.19793(10)
H22 H 0.5704 -0.2466 0.1671
F1 F 0.91516(9) 0.35345(9) 0.23366(7)
F2 F 0.90809(10) 0.44599(10) -0.01431(7)
F3 F 0.59471(9) -0.38159(9) 0.28037(7)
F4 F 0.59953(13) -0.43877(11) 0.53320(7)
N1 N 0.97950(10) 0.13266(11) 0.26004(8)
N2 N 0.52562(10) -0.15987(11) 0.23843(8)
O1 O 1.16293(9) 0.12696(9) 0.25341(7)
O2 O 1.12971(9) 0.24488(10) 0.33997(7)
O3 O 0.38645(9) -0.28548(10) 0.16479(7)
O4 O 0.33843(9) -0.15766(10) 0.23765(8)
loop_
_geom_bond_atom_site_label_1
_geom_bond_atom_site_label_2
_geom_bond_site_symmetry_1
_geom_bond_site_symmetry_2
B1 C1 1_555 1_555
B2 C13 1_555 1_555
C1 C2 1_555 1_555
C2 C3 1_555 1_555
C3 H1 1_555 1_555
C4 C3 1_555 1_555
C5 C4 1_555 1_555
H2 C5 1_555 1_555
C6 C1 1_555 1_555
H3 C6 1_555 1_555
C7 C8 1_555 1_555
C8 C9 1_555 1_555
C9 H4 1_555 1_555
C10 C9 1_555 1_555
H5 C10 1_555 1_555
C11 C10 1_555 1_555
H6 C11 1_555 1_555
C12 C7 1_555 1_555
H7 C12 1_555 1_555
C13 C14 1_555 1_555
C14 C15 1_555 1_555
C15 H8 1_555 1_555
C16 C15 1_555 1_555
C17 C16 1_555 1_555
H9 C17 1_555 1_555
C18 C13 1_555 1_555
H10 C18 1_555 1_555
C19 C20 1_555 1_555
C20 C21 1_555 1_555
C21 H11 1_555 1_555
C22 C21 1_555 1_555
H12 C22 1_555 1_555
C23 C22 1_555 1_555
H13 C23 1_555 1_555
C24 C19 1_555 1_555
H14 C24 1_555 1_555
C25 H15 1_555 1_555
C26 C25 1_555 1_555
H16 C26 1_555 1_555
C27 C26 1_555 1_555
C28 C27 1_555 1_555
H17 C28 1_555 1_555
C29 C28 1_555 1_555
H18 C29 1_555 1_555
C30 H19 1_555 1_555
C31 C30 1_555 1_555
H20 C31 1_555 1_555
C32 C27 1_555 1_555
C33 C32 1_555 1_555
H21 C33 1_555 1_555
C34 C33 1_555 1_555
H22 C34 1_555 1_555
F1 C2 1_555 1_555
F2 C4 1_555 1_555
F3 C14 1_555 1_555
F4 C16 1_555 1_555
N1 B1 1_555 1_555
N2 B2 1_555 1_555
O1 B1 1_555 1_555
O2 B1 1_555 1_555
O3 B2 1_555 1_555
O4 B2 1_555 1_555
C5 C6 1_555 1_555
C7 O1 1_555 1_555
C8 O2 1_555 1_555
C11 C12 1_555 1_555
C17 C18 1_555 1_555
C19 O3 1_555 1_555
C20 O4 1_555 1_555
C23 C24 1_555 1_555
C25 N1 1_555 1_555
C29 N1 1_555 1_555
C30 N2 1_555 1_555
C31 C32 1_555 1_555
C34 N2 1_555 1_555

#END
