
#######################################################################
#
#                 Cambridge Crystallographic Data Centre
#                                CCDC 
#
#######################################################################
#
# If this CIF has been generated from an entry in the Cambridge 
# Structural Database, then it will include bibliographic, chemical, 
# crystal, experimental, refinement or atomic coordinate data resulting 
# from the CCDC's data processing and validation procedures.
#
#######################################################################

data_KEZVIX
_chemical_formula_moiety         'C34 H22 B2 F4 N2 O4,C7 H8'
_chemical_name_systematic        
"1,1'-bis[2-(2,4-difluorophenyl)-2H-1,3,2-benzodioxaborol-2-yl]-4,4'-bi-1-pyridine toluene"
_symmetry_cell_setting           monoclinic
_symmetry_space_group_name_H-M   'P 21/c'
_symmetry_Int_Tables_number      14
_space_group_name_Hall           '-P 2ybc'
loop_
_symmetry_equiv_pos_site_id
_symmetry_equiv_pos_as_xyz
1 x,y,z
2 -x,1/2+y,1/2-z
3 -x,-y,-z
4 x,1/2-y,1/2+z
_cell_length_a                   7.3534(6)
_cell_length_b                   15.1463(12)
_cell_length_c                   15.1443(19)
_cell_angle_alpha                90
_cell_angle_beta                 94.988(9)
_cell_angle_gamma                90
_cell_volume                     1680.34
_exptl_crystal_colour            orange
_exptl_crystal_description       prism
_cell_formula_units_Z            2
_exptl_crystal_recrystallization_method Toluene
loop_
_atom_site_label
_atom_site_type_symbol
_atom_site_fract_x
_atom_site_fract_y
_atom_site_fract_z
F1 F 0.4713(5) 0.7090(3) 0.2061(3)
F2 F 0.5756(3) 1.00619(17) 0.14667(19)
O1 O 0.1859(4) 0.68495(17) 0.33109(19)
O2 O -0.0811(3) 0.75683(17) 0.27233(19)
N1 N 0.0748(4) 0.65608(18) 0.1729(2)
C1 C 0.2265(5) 0.8091(2) 0.2188(3)
C2 C 0.1735(5) 0.8945(3) 0.2059(3)
H1 H 0.0533 0.9081 0.2150
C3 C 0.2805(6) 0.9623(3) 0.1806(3)
H2 H 0.2343 1.0189 0.1708
C4 C 0.4604(6) 0.9422(3) 0.1704(3)
C5 C 0.5299(5) 0.8576(3) 0.1833(3)
H3 H 0.6515 0.8442 0.1770
C6 C 0.4076(5) 0.7951(3) 0.2060(3)
C7 C 0.0459(6) 0.6687(2) 0.3814(3)
C8 C -0.1138(5) 0.7098(2) 0.3466(3)
C9 C -0.2735(6) 0.7036(3) 0.3867(3)
H4 H -0.3790 0.7322 0.3637
C10 C -0.2711(7) 0.6531(3) 0.4628(3)
H5 H -0.3776 0.6464 0.4910
C11 C -0.1111(8) 0.6120(3) 0.4978(3)
H6 H -0.1134 0.5790 0.5495
C12 C 0.0498(7) 0.6188(3) 0.4585(3)
H7 H 0.1561 0.5913 0.4822
C13 C 0.143(2) 0.5690(10) 0.1806(12)
H8 H 0.2127 0.5533 0.2325
C14 C 0.115(2) 0.5113(11) 0.1207(11)
H9 H 0.1596 0.4543 0.1307
C15 C -0.0635(16) 0.6207(6) 0.0332(6)
H10 H -0.1373 0.6378 -0.0168
C16 C -0.0316(15) 0.6798(7) 0.1030(7)
H11 H -0.0850 0.7355 0.1001
C17 C 0.0159(4) 0.5323(2) 0.0366(2)
B1 B 0.1078(6) 0.7317(3) 0.2524(3)
F1B F -0.4713(5) 0.2910(3) -0.2061(3)
F2B F -0.5756(3) -0.00619(17) -0.14667(19)
O1B O -0.1859(4) 0.31505(17) -0.33109(19)
O2B O 0.0811(3) 0.24317(17) -0.27233(19)
N1B N -0.0748(4) 0.34392(18) -0.1729(2)
C1B C -0.2265(5) 0.1909(2) -0.2188(3)
C2B C -0.1735(5) 0.1055(3) -0.2059(3)
H1B H -0.0533 0.0919 -0.2150
C3B C -0.2805(6) 0.0377(3) -0.1806(3)
H2B H -0.2343 -0.0189 -0.1708
C4B C -0.4604(6) 0.0578(3) -0.1704(3)
C5B C -0.5299(5) 0.1424(3) -0.1833(3)
H3B H -0.6515 0.1558 -0.1770
C6B C -0.4076(5) 0.2049(3) -0.2060(3)
C7B C -0.0459(6) 0.3313(2) -0.3814(3)
C8B C 0.1138(5) 0.2902(2) -0.3466(3)
C9B C 0.2735(6) 0.2964(3) -0.3867(3)
H4B H 0.3790 0.2678 -0.3637
C10B C 0.2711(7) 0.3469(3) -0.4628(3)
H5B H 0.3776 0.3536 -0.4910
C11B C 0.1111(8) 0.3880(3) -0.4978(3)
H6B H 0.1134 0.4210 -0.5495
C12B C -0.0498(7) 0.3812(3) -0.4585(3)
H7B H -0.1561 0.4087 -0.4822
C13B C -0.143(2) 0.4310(10) -0.1806(12)
H8B H -0.2127 0.4467 -0.2325
C14B C -0.115(2) 0.4887(11) -0.1207(11)
H9B H -0.1596 0.5457 -0.1307
C15B C 0.0635(16) 0.3793(6) -0.0332(6)
H10B H 0.1373 0.3622 0.0168
C16B C 0.0316(15) 0.3202(7) -0.1030(7)
H11B H 0.0850 0.2645 -0.1001
C17B C -0.0159(4) 0.4677(2) -0.0366(2)
B1B B -0.1078(6) 0.2683(3) -0.2524(3)
C18 C 0.4368(11) 0.6608(3) 0.0033(6)
H12 H 0.3382 0.6704 0.0398
H13 H 0.4073 0.6871 -0.0538
H14 H 0.5461 0.6873 0.0308
C19 C 0.4664(7) 0.5631(3) -0.0073(4)
C20 C 0.5356(9) 0.5112(4) 0.0645(4)
H15 H 0.5662 0.5377 0.1192
C21 C 0.5592(9) 0.4202(4) 0.0554(5)
H16 H 0.6051 0.3868 0.1038
C22 C 0.5141(10) 0.3795(3) -0.0263(6)
H17 H 0.5295 0.3189 -0.0325
C23 C 0.4456(10) 0.4303(4) -0.0986(5)
H18 H 0.4155 0.4037 -0.1532
C24 C 0.4223(8) 0.5212(4) -0.0890(4)
H19 H 0.3768 0.5545 -0.1375
C18B C 0.5632(11) 0.3392(3) -0.0033(6)
H12B H 0.6618 0.3296 -0.0398
H13B H 0.5927 0.3129 0.0538
H14B H 0.4539 0.3127 -0.0308
C19B C 0.5336(7) 0.4369(3) 0.0073(4)
C20B C 0.4644(9) 0.4888(4) -0.0645(4)
H15B H 0.4338 0.4623 -0.1192
C21B C 0.4408(9) 0.5798(4) -0.0554(5)
H16B H 0.3949 0.6132 -0.1038
C22B C 0.4859(10) 0.6205(3) 0.0263(6)
H17B H 0.4705 0.6811 0.0325
C23B C 0.5544(10) 0.5697(4) 0.0986(5)
H18B H 0.5845 0.5963 0.1532
C24B C 0.5777(8) 0.4788(4) 0.0890(4)
H19B H 0.6232 0.4455 0.1375
F3? F -0.0107(7) 0.9175(3) 0.2029(4)
H20? H 0.4509 0.7377 0.2135
C25? C 0.105(2) 0.5764(13) 0.1878(15)
H21? H 0.1470 0.5588 0.2448
C26? C 0.077(3) 0.5084(14) 0.1164(14)
H22? H 0.1026 0.4493 0.1289
C27? C -0.0033(17) 0.6201(8) 0.0179(9)
H23? H -0.0344 0.6390 -0.0399
C28? C 0.0232(18) 0.6784(9) 0.0836(9)
H24? H 0.0066 0.7379 0.0697
loop_
_geom_bond_atom_site_label_1
_geom_bond_atom_site_label_2
_geom_bond_site_symmetry_1
_geom_bond_site_symmetry_2
F1 C6 1_555 1_555
F2 C4 1_555 1_555
O1 C7 1_555 1_555
O2 C8 1_555 1_555
N1 C13 1_555 1_555
C1 C2 1_555 1_555
C2 H1 1_555 1_555
C3 C2 1_555 1_555
H2 C3 1_555 1_555
C4 C3 1_555 1_555
C5 C4 1_555 1_555
H3 C5 1_555 1_555
C6 C1 1_555 1_555
C7 C8 1_555 1_555
C8 C9 1_555 1_555
C9 H4 1_555 1_555
C10 C9 1_555 1_555
H5 C10 1_555 1_555
C11 C10 1_555 1_555
H6 C11 1_555 1_555
C12 C7 1_555 1_555
H7 C12 1_555 1_555
C13 H8 1_555 1_555
C14 C13 1_555 1_555
H9 C14 1_555 1_555
C15 H10 1_555 1_555
C16 N1 1_555 1_555
H11 C16 1_555 1_555
C17 C14 1_555 1_555
B1 O1 1_555 1_555
C18 H12 1_555 1_555
H13 C18 1_555 1_555
H14 C18 1_555 1_555
C19 C18 1_555 1_555
C20 C19 1_555 1_555
H15 C20 1_555 1_555
C21 C20 1_555 1_555
H16 C21 1_555 1_555
C22 C21 1_555 1_555
H17 C22 1_555 1_555
C23 C22 1_555 1_555
H18 C23 1_555 1_555
C24 C19 1_555 1_555
H19 C24 1_555 1_555
F1B C6B 1_555 1_555
F2B C4B 1_555 1_555
O1B C7B 1_555 1_555
O2B C8B 1_555 1_555
N1B C13B 1_555 1_555
C1B C2B 1_555 1_555
C2B H1B 1_555 1_555
C3B C2B 1_555 1_555
H2B C3B 1_555 1_555
C4B C3B 1_555 1_555
C5B C4B 1_555 1_555
H3B C5B 1_555 1_555
C6B C1B 1_555 1_555
C7B C8B 1_555 1_555
C8B C9B 1_555 1_555
C9B H4B 1_555 1_555
C10B C9B 1_555 1_555
H5B C10B 1_555 1_555
C11B C10B 1_555 1_555
H6B C11B 1_555 1_555
C12B C7B 1_555 1_555
H7B C12B 1_555 1_555
C13B H8B 1_555 1_555
C14B C13B 1_555 1_555
H9B C14B 1_555 1_555
C15B H10B 1_555 1_555
C16B N1B 1_555 1_555
H11B C16B 1_555 1_555
C17B C17 1_555 1_555
B1B O1B 1_555 1_555
C18B H12B 1_555 1_555
H13B C18B 1_555 1_555
H14B C18B 1_555 1_555
C19B C18B 1_555 1_555
C20B C19B 1_555 1_555
H15B C20B 1_555 1_555
C21B C20B 1_555 1_555
H16B C21B 1_555 1_555
C22B C21B 1_555 1_555
H17B C22B 1_555 1_555
C23B C22B 1_555 1_555
H18B C23B 1_555 1_555
C24B C19B 1_555 1_555
H19B C24B 1_555 1_555
O2 B1 1_555 1_555
N1 B1 1_555 1_555
C1 B1 1_555 1_555
C5 C6 1_555 1_555
C11 C12 1_555 1_555
C15 C16 1_555 1_555
C15 C17 1_555 1_555
C23 C24 1_555 1_555
O2B B1B 1_555 1_555
N1B B1B 1_555 1_555
C1B B1B 1_555 1_555
C5B C6B 1_555 1_555
C11B C12B 1_555 1_555
C14B C17B 1_555 1_555
C15B C16B 1_555 1_555
C15B C17B 1_555 1_555
C23B C24B 1_555 1_555

#END
