
#######################################################################
#
#                 Cambridge Crystallographic Data Centre
#                                CCDC 
#
#######################################################################
#
# If this CIF has been generated from an entry in the Cambridge 
# Structural Database, then it will include bibliographic, chemical, 
# crystal, experimental, refinement or atomic coordinate data resulting 
# from the CCDC's data processing and validation procedures.
#
#######################################################################

data_KEZWOE
_chemical_formula_moiety         'C34 H22 B2 F4 N2 O4,2(C10 H8 O1)'
_chemical_name_systematic        
"1,1'-bis[2-(2,4-difluorophenyl)-2H-1,3,2-benzodioxaborol-2-yl]-4,4'-bi-1-pyridine bis(naphthalen-1-ol)"
_symmetry_cell_setting           monoclinic
_symmetry_space_group_name_H-M   'P 21/n'
_symmetry_Int_Tables_number      14
_space_group_name_Hall           '-P 2yn'
loop_
_symmetry_equiv_pos_site_id
_symmetry_equiv_pos_as_xyz
1 x,y,z
2 1/2-x,1/2+y,1/2-z
3 -x,-y,-z
4 1/2+x,1/2-y,1/2+z
_cell_length_a                   14.58920(17)
_cell_length_b                   10.15164(12)
_cell_length_c                   14.91846(16)
_cell_angle_alpha                90
_cell_angle_beta                 99.8884(10)
_cell_angle_gamma                90
_cell_volume                     2176.66
_exptl_crystal_colour            orange
_exptl_crystal_description       plate
_cell_formula_units_Z            2
_exptl_crystal_recrystallization_method acetonitrile
loop_
_atom_site_label
_atom_site_type_symbol
_atom_site_fract_x
_atom_site_fract_y
_atom_site_fract_z
B1 B 0.13882(13) 0.08941(17) 0.18097(11)
C1 C 0.24098(11) 0.07347(16) 0.15596(10)
C2 C 0.31143(12) 0.16323(16) 0.18619(11)
C3 C 0.39996(12) 0.15987(18) 0.16380(11)
H1 H 0.4451 0.2222 0.1854
C4 C 0.41668(12) 0.05852(18) 0.10756(11)
C5 C 0.35190(13) -0.03634(18) 0.07616(12)
H2 H 0.3661 -0.1046 0.0393
C6 C 0.26472(12) -0.02743(17) 0.10095(11)
H3 H 0.2204 -0.0912 0.0800
C7 C 0.01978(11) -0.02820(15) 0.21594(10)
C8 C 0.05586(11) 0.04687(15) 0.29143(11)
C9 C 0.01488(11) 0.05146(17) 0.36804(11)
H4 H 0.0399 0.1018 0.4184
C10 C -0.06592(12) -0.02307(17) 0.36647(11)
H5 H -0.0955 -0.0228 0.4170
C11 C -0.10263(12) -0.09715(17) 0.29107(12)
H6 H -0.1566 -0.1456 0.2918
C12 C -0.06031(11) -0.10085(16) 0.21342(11)
H7 H -0.0853 -0.1502 0.1625
C13 C 0.05201(12) 0.20995(16) 0.03846(10)
H8 H 0.0503 0.1276 0.0110
C14 C 0.01519(12) 0.31612(16) -0.01224(10)
H9 H -0.0118 0.3046 -0.0729
C15 C 0.01811(10) 0.44115(15) 0.02684(10)
C16 C 0.05592(11) 0.45021(15) 0.11903(11)
H10 H 0.0574 0.5311 0.1485
C17 C 0.09113(11) 0.33976(15) 0.16685(10)
H11 H 0.1158 0.3476 0.2284
F1 F 0.29316(7) 0.26463(10) 0.24048(7)
F2 F 0.50214(7) 0.05502(13) 0.08310(8)
N1 N 0.09060(9) 0.22143(13) 0.12685(8)
O1 O 0.07432(8) -0.01836(11) 0.14984(7)
O2 O 0.13570(8) 0.11083(11) 0.27784(7)
B1B B -0.13882(13) 0.91059(17) -0.18097(11)
C1B C -0.24098(11) 0.92653(16) -0.15596(10)
C2B C -0.31143(12) 0.83677(16) -0.18619(11)
C3B C -0.39996(12) 0.84013(18) -0.16380(11)
H1B H -0.4451 0.7778 -0.1854
C4B C -0.41668(12) 0.94148(18) -0.10756(11)
C5B C -0.35190(13) 1.03634(18) -0.07616(12)
H2B H -0.3661 1.1046 -0.0393
C6B C -0.26472(12) 1.02743(17) -0.10095(11)
H3B H -0.2204 1.0912 -0.0800
C7B C -0.01978(11) 1.02820(15) -0.21594(10)
C8B C -0.05586(11) 0.95313(15) -0.29143(11)
C9B C -0.01488(11) 0.94854(17) -0.36804(11)
H4B H -0.0399 0.8982 -0.4184
C10B C 0.06592(12) 1.02307(17) -0.36647(11)
H5B H 0.0955 1.0228 -0.4170
C11B C 0.10263(12) 1.09715(17) -0.29107(12)
H6B H 0.1566 1.1456 -0.2918
C12B C 0.06031(11) 1.10085(16) -0.21342(11)
H7B H 0.0853 1.1502 -0.1625
C13B C -0.05201(12) 0.79005(16) -0.03846(10)
H8B H -0.0503 0.8724 -0.0110
C14B C -0.01519(12) 0.68388(16) 0.01224(10)
H9B H 0.0118 0.6954 0.0729
C15B C -0.01811(10) 0.55885(15) -0.02684(10)
C16B C -0.05592(11) 0.54979(15) -0.11903(11)
H10B H -0.0574 0.4689 -0.1485
C17B C -0.09113(11) 0.66024(15) -0.16685(10)
H11B H -0.1158 0.6524 -0.2284
F1B F -0.29316(7) 0.73537(10) -0.24048(7)
F2B F -0.50214(7) 0.94498(13) -0.08310(8)
N1B N -0.09060(9) 0.77857(13) -0.12685(8)
O1B O -0.07432(8) 1.01836(11) -0.14984(7)
O2B O -0.13570(8) 0.88917(11) -0.27784(7)
C18 C 0.26499(11) 0.05463(16) 0.49284(10)
C19 C 0.23486(11) -0.06956(16) 0.46572(11)
H12 H 0.2113 -0.0862 0.4048
C20 C 0.23969(11) -0.17150(16) 0.53020(12)
H13 H 0.2180 -0.2550 0.5116
C21 C 0.27598(11) -0.14971(16) 0.62029(11)
H14 H 0.2792 -0.2185 0.6619
C22 C 0.30841(11) -0.02280(16) 0.64989(11)
C23 C 0.30168(10) 0.08204(16) 0.58615(10)
C24 C 0.32932(11) 0.21048(17) 0.61674(11)
H15 H 0.3242 0.2798 0.5754
C25 C 0.36345(12) 0.23324(18) 0.70669(12)
H16 H 0.3806 0.3181 0.7262
C26 C 0.37277(12) 0.12879(19) 0.77000(11)
H17 H 0.3975 0.1447 0.8307
C27 C 0.34555(12) 0.00403(18) 0.74231(11)
H18 H 0.3515 -0.0640 0.7847
O3 O 0.26298(9) 0.15801(12) 0.43426(8)
H19 H 0.2318 0.1382 0.3850
loop_
_geom_bond_atom_site_label_1
_geom_bond_atom_site_label_2
_geom_bond_site_symmetry_1
_geom_bond_site_symmetry_2
B1 C1 1_555 1_555
C1 C2 1_555 1_555
C2 C3 1_555 1_555
C3 H1 1_555 1_555
C4 C3 1_555 1_555
C5 C4 1_555 1_555
H2 C5 1_555 1_555
C6 C1 1_555 1_555
H3 C6 1_555 1_555
C7 C8 1_555 1_555
C8 C9 1_555 1_555
C9 H4 1_555 1_555
C10 C9 1_555 1_555
H5 C10 1_555 1_555
C11 C10 1_555 1_555
H6 C11 1_555 1_555
C12 C7 1_555 1_555
H7 C12 1_555 1_555
C13 H8 1_555 1_555
C14 C13 1_555 1_555
H9 C14 1_555 1_555
C15 C14 1_555 1_555
C16 C15 1_555 1_555
H10 C16 1_555 1_555
C17 C16 1_555 1_555
H11 C17 1_555 1_555
F1 C2 1_555 1_555
F2 C4 1_555 1_555
N1 B1 1_555 1_555
O1 B1 1_555 1_555
O2 B1 1_555 1_555
C18 C19 1_555 1_555
C19 H12 1_555 1_555
C20 C19 1_555 1_555
H13 C20 1_555 1_555
C21 C20 1_555 1_555
H14 C21 1_555 1_555
C22 C21 1_555 1_555
C23 C18 1_555 1_555
C24 C23 1_555 1_555
H15 C24 1_555 1_555
C25 C24 1_555 1_555
H16 C25 1_555 1_555
C26 C25 1_555 1_555
H17 C26 1_555 1_555
C27 C22 1_555 1_555
H18 C27 1_555 1_555
O3 C18 1_555 1_555
H19 O3 1_555 1_555
B1B C1B 1_555 1_555
C1B C2B 1_555 1_555
C2B C3B 1_555 1_555
C3B H1B 1_555 1_555
C4B C3B 1_555 1_555
C5B C4B 1_555 1_555
H2B C5B 1_555 1_555
C6B C1B 1_555 1_555
H3B C6B 1_555 1_555
C7B C8B 1_555 1_555
C8B C9B 1_555 1_555
C9B H4B 1_555 1_555
C10B C9B 1_555 1_555
H5B C10B 1_555 1_555
C11B C10B 1_555 1_555
H6B C11B 1_555 1_555
C12B C7B 1_555 1_555
H7B C12B 1_555 1_555
C13B H8B 1_555 1_555
C14B C13B 1_555 1_555
H9B C14B 1_555 1_555
C15B C15 1_555 1_555
C16B C15B 1_555 1_555
H10B C16B 1_555 1_555
C17B C16B 1_555 1_555
H11B C17B 1_555 1_555
F1B C2B 1_555 1_555
F2B C4B 1_555 1_555
N1B B1B 1_555 1_555
O1B B1B 1_555 1_555
O2B B1B 1_555 1_555
C5 C6 1_555 1_555
C7 O1 1_555 1_555
C8 O2 1_555 1_555
C11 C12 1_555 1_555
C13 N1 1_555 1_555
C17 N1 1_555 1_555
C22 C23 1_555 1_555
C26 C27 1_555 1_555
C5B C6B 1_555 1_555
C7B O1B 1_555 1_555
C8B O2B 1_555 1_555
C11B C12B 1_555 1_555
C13B N1B 1_555 1_555
C14B C15B 1_555 1_555
C17B N1B 1_555 1_555

#END
