
#######################################################################
#
#                 Cambridge Crystallographic Data Centre
#                                CCDC 
#
#######################################################################
#
# If this CIF has been generated from an entry in the Cambridge 
# Structural Database, then it will include bibliographic, chemical, 
# crystal, experimental, refinement or atomic coordinate data resulting 
# from the CCDC's data processing and validation procedures.
#
#######################################################################

data_KEZWUK
_chemical_formula_moiety         'C34 H16 B2 F10 N2 O4'
_chemical_name_systematic        
1,1'-bis[2-(pentafluorophenyl)-2H-1,3,2-benzodioxaborol-2-yl]-4,4'-bi-1-pyridine
_symmetry_cell_setting           monoclinic
_symmetry_space_group_name_H-M   'P 21/n'
_symmetry_Int_Tables_number      14
_space_group_name_Hall           '-P 2yn'
loop_
_symmetry_equiv_pos_site_id
_symmetry_equiv_pos_as_xyz
1 x,y,z
2 1/2-x,1/2+y,1/2-z
3 -x,-y,-z
4 1/2+x,1/2-y,1/2+z
_cell_length_a                   9.128(4)
_cell_length_b                   13.476(6)
_cell_length_c                   12.331(5)
_cell_angle_alpha                90
_cell_angle_beta                 92.874(8)
_cell_angle_gamma                90
_cell_volume                     1514.92
_exptl_crystal_colour            yellow
_exptl_crystal_description       'rectangular prism'
_cell_formula_units_Z            2
_exptl_crystal_recrystallization_method benzene
loop_
_atom_site_label
_atom_site_type_symbol
_atom_site_fract_x
_atom_site_fract_y
_atom_site_fract_z
B1 B 0.2575(6) 0.3235(5) 0.6334(5)
N1 N 0.1822(4) 0.2189(3) 0.5877(3)
O1 O 0.2483(4) 0.3210(2) 0.7514(3)
O2 O 0.1613(3) 0.4025(2) 0.5928(3)
F1 F 0.5271(3) 0.2416(3) 0.7392(3)
F2 F 0.7943(4) 0.2536(3) 0.6645(3)
F3 F 0.8354(4) 0.3474(3) 0.4719(4)
F4 F 0.6047(4) 0.4248(3) 0.3578(3)
F5 F 0.3383(4) 0.4067(3) 0.4271(3)
C1 C 0.4207(6) 0.3279(4) 0.5886(5)
C2 C 0.5418(6) 0.2897(4) 0.6446(5)
C3 C 0.6817(6) 0.2965(5) 0.6080(6)
C4 C 0.7023(6) 0.3420(5) 0.5108(6)
C5 C 0.5851(7) 0.3793(5) 0.4526(5)
C6 C 0.4497(6) 0.3699(4) 0.4920(5)
C7 C 0.1251(5) 0.3756(4) 0.7709(4)
C8 C 0.0761(5) 0.4259(4) 0.6775(4)
C9 C -0.0419(6) 0.4875(4) 0.6775(5)
H1 H -0.0737 0.5217 0.6151
C10 C -0.1125(6) 0.4975(5) 0.7726(6)
H2 H -0.1947 0.5382 0.7742
C11 C -0.0642(7) 0.4488(5) 0.8657(6)
H3 H -0.1136 0.4575 0.9292
C12 C 0.0569(6) 0.3867(4) 0.8662(5)
H4 H 0.0905 0.3539 0.9290
C13 C 0.1990(6) 0.1352(4) 0.6433(4)
H5 H 0.2600 0.1349 0.7060
C14 C 0.1290(6) 0.0486(4) 0.6111(4)
H6 H 0.1420 -0.0085 0.6529
C15 C 0.0395(5) 0.0460(3) 0.5173(4)
C16 C 0.0289(6) 0.1324(4) 0.4599(4)
H7 H -0.0279 0.1345 0.3952
C17 C 0.1000(6) 0.2155(4) 0.4957(4)
H8 H 0.0909 0.2728 0.4538
B1B B -0.2575(6) -0.3235(5) 0.3666(5)
N1B N -0.1822(4) -0.2189(3) 0.4123(3)
O1B O -0.2483(4) -0.3210(2) 0.2486(3)
O2B O -0.1613(3) -0.4025(2) 0.4072(3)
F1B F -0.5271(3) -0.2416(3) 0.2608(3)
F2B F -0.7943(4) -0.2536(3) 0.3355(3)
F3B F -0.8354(4) -0.3474(3) 0.5281(4)
F4B F -0.6047(4) -0.4248(3) 0.6422(3)
F5B F -0.3383(4) -0.4067(3) 0.5729(3)
C1B C -0.4207(6) -0.3279(4) 0.4114(5)
C2B C -0.5418(6) -0.2897(4) 0.3554(5)
C3B C -0.6817(6) -0.2965(5) 0.3920(6)
C4B C -0.7023(6) -0.3420(5) 0.4892(6)
C5B C -0.5851(7) -0.3793(5) 0.5474(5)
C6B C -0.4497(6) -0.3699(4) 0.5080(5)
C7B C -0.1251(5) -0.3756(4) 0.2291(4)
C8B C -0.0761(5) -0.4259(4) 0.3225(4)
C9B C 0.0419(6) -0.4875(4) 0.3225(5)
H1B H 0.0737 -0.5217 0.3849
C10B C 0.1125(6) -0.4975(5) 0.2274(6)
H2B H 0.1947 -0.5382 0.2258
C11B C 0.0642(7) -0.4488(5) 0.1343(6)
H3B H 0.1136 -0.4575 0.0708
C12B C -0.0569(6) -0.3867(4) 0.1338(5)
H4B H -0.0905 -0.3539 0.0710
C13B C -0.1990(6) -0.1352(4) 0.3567(4)
H5B H -0.2600 -0.1349 0.2940
C14B C -0.1290(6) -0.0486(4) 0.3889(4)
H6B H -0.1420 0.0085 0.3471
C15B C -0.0395(5) -0.0460(3) 0.4827(4)
C16B C -0.0289(6) -0.1324(4) 0.5401(4)
H7B H 0.0279 -0.1345 0.6048
C17B C -0.1000(6) -0.2155(4) 0.5043(4)
H8B H -0.0909 -0.2728 0.5462
loop_
_geom_bond_atom_site_label_1
_geom_bond_atom_site_label_2
_geom_bond_site_symmetry_1
_geom_bond_site_symmetry_2
B1 N1 1_555 1_555
N1 C13 1_555 1_555
O1 B1 1_555 1_555
O2 B1 1_555 1_555
F1 C2 1_555 1_555
F2 C3 1_555 1_555
F3 C4 1_555 1_555
F4 C5 1_555 1_555
F5 C6 1_555 1_555
C1 B1 1_555 1_555
C2 C1 1_555 1_555
C3 C2 1_555 1_555
C4 C3 1_555 1_555
C5 C4 1_555 1_555
C6 C1 1_555 1_555
C7 O1 1_555 1_555
C8 O2 1_555 1_555
C9 C8 1_555 1_555
H1 C9 1_555 1_555
C10 C9 1_555 1_555
H2 C10 1_555 1_555
C11 C10 1_555 1_555
H3 C11 1_555 1_555
C12 C7 1_555 1_555
H4 C12 1_555 1_555
C13 H5 1_555 1_555
C14 C13 1_555 1_555
H6 C14 1_555 1_555
C15 C14 1_555 1_555
C16 C15 1_555 1_555
H7 C16 1_555 1_555
C17 N1 1_555 1_555
H8 C17 1_555 1_555
B1B N1B 1_555 1_555
N1B C13B 1_555 1_555
O1B B1B 1_555 1_555
O2B B1B 1_555 1_555
F1B C2B 1_555 1_555
F2B C3B 1_555 1_555
F3B C4B 1_555 1_555
F4B C5B 1_555 1_555
F5B C6B 1_555 1_555
C1B B1B 1_555 1_555
C2B C1B 1_555 1_555
C3B C2B 1_555 1_555
C4B C3B 1_555 1_555
C5B C4B 1_555 1_555
C6B C1B 1_555 1_555
C7B O1B 1_555 1_555
C8B O2B 1_555 1_555
C9B C8B 1_555 1_555
H1B C9B 1_555 1_555
C10B C9B 1_555 1_555
H2B C10B 1_555 1_555
C11B C10B 1_555 1_555
H3B C11B 1_555 1_555
C12B C7B 1_555 1_555
H4B C12B 1_555 1_555
C13B H5B 1_555 1_555
C14B C13B 1_555 1_555
H6B C14B 1_555 1_555
C15B C15 1_555 1_555
C16B C15B 1_555 1_555
H7B C16B 1_555 1_555
C17B N1B 1_555 1_555
H8B C17B 1_555 1_555
C5 C6 1_555 1_555
C7 C8 1_555 1_555
C11 C12 1_555 1_555
C16 C17 1_555 1_555
C5B C6B 1_555 1_555
C7B C8B 1_555 1_555
C11B C12B 1_555 1_555
C14B C15B 1_555 1_555
C16B C17B 1_555 1_555

#END
