
#######################################################################
#
#                 Cambridge Crystallographic Data Centre
#                                CCDC 
#
#######################################################################
#
# If this CIF has been generated from an entry in the Cambridge 
# Structural Database, then it will include bibliographic, chemical, 
# crystal, experimental, refinement or atomic coordinate data resulting 
# from the CCDC's data processing and validation procedures.
#
#######################################################################

data_KEZXEV
_chemical_formula_moiety         'C34 H20 B2 F6 N2 O4'
_chemical_name_systematic        
1,1'-bis[2-(2,4,6-trifluorophenyl)-2H-1,3,2-benzodioxaborol-2-yl]-4,4'-bi-1-pyridine
_symmetry_cell_setting           monoclinic
_symmetry_space_group_name_H-M   'P 21/c'
_symmetry_Int_Tables_number      14
_space_group_name_Hall           '-P 2ybc'
loop_
_symmetry_equiv_pos_site_id
_symmetry_equiv_pos_as_xyz
1 x,y,z
2 -x,1/2+y,1/2-z
3 -x,-y,-z
4 x,1/2-y,1/2+z
_cell_length_a                   13.16759(14)
_cell_length_b                   13.37769(12)
_cell_length_c                   18.0080(2)
_cell_angle_alpha                90
_cell_angle_beta                 109.9535(12)
_cell_angle_gamma                90
_cell_volume                     2981.72
_exptl_crystal_colour            yellow
_exptl_crystal_description       irregular
_cell_formula_units_Z            4
_exptl_crystal_recrystallization_method chloroform
loop_
_atom_site_label
_atom_site_type_symbol
_atom_site_fract_x
_atom_site_fract_y
_atom_site_fract_z
F1 F 0.41662(7) 0.87961(7) 0.22407(5)
F2 F 0.39090(9) 0.94720(7) -0.03602(5)
F3 F 0.64055(10) 0.71160(8) 0.10996(6)
F4 F 0.07589(7) 0.14915(7) 0.26513(5)
F5 F 0.09685(8) 0.05055(7) 0.51832(6)
F6 F -0.15909(9) 0.28835(8) 0.38366(6)
O1 O 0.66267(7) 0.65443(7) 0.25753(6)
O2 O 0.61208(7) 0.78154(7) 0.32838(5)
O3 O -0.12617(7) 0.25179(7) 0.16603(5)
O4 O -0.16487(7) 0.37365(7) 0.24707(5)
N1 N 0.47307(8) 0.65712(8) 0.25555(6)
N2 N 0.02227(8) 0.36547(8) 0.24480(6)
C1 C 0.53291(10) 0.79127(10) 0.17367(8)
C2 C 0.45197(11) 0.86203(10) 0.16263(8)
C3 C 0.40289(11) 0.91650(11) 0.09471(8)
H1 H 0.3492 0.9632 0.0912
C4 C 0.43820(13) 0.89749(11) 0.03266(9)
C5 C 0.51850(14) 0.83011(12) 0.03678(9)
H2 H 0.5418 0.8191 -0.0058
C6 C 0.56308(13) 0.77936(11) 0.10744(9)
C7 C 0.72189(10) 0.64804(11) 0.33624(8)
C8 C 0.69189(10) 0.72248(10) 0.37840(8)
C9 C 0.73995(12) 0.73268(12) 0.45896(9)
H3 H 0.7200 0.7832 0.4867
C10 C 0.82015(13) 0.66323(15) 0.49688(10)
H4 H 0.8541 0.6671 0.5513
C11 C 0.85011(13) 0.58892(14) 0.45512(11)
H5 H 0.9038 0.5439 0.4822
C12 C 0.80165(11) 0.57972(12) 0.37310(10)
H6 H 0.8222 0.5301 0.3449
C13 C -0.04400(10) 0.22542(9) 0.31891(8)
C14 C 0.03828(10) 0.15657(10) 0.32636(8)
C15 C 0.08661(11) 0.09606(10) 0.39076(9)
H7 H 0.1418 0.0518 0.3923
C16 C 0.04850(12) 0.10507(11) 0.45218(9)
C17 C -0.03522(13) 0.16755(12) 0.45038(9)
H8 H -0.0616 0.1704 0.4921
C18 C -0.07831(12) 0.22582(11) 0.38370(9)
C19 C -0.20498(10) 0.31657(11) 0.12182(8)
C20 C -0.22766(10) 0.38826(10) 0.16992(8)
C21 C -0.30323(11) 0.46260(12) 0.14011(10)
H9 H -0.3175 0.5105 0.1727
C22 C -0.35730(13) 0.46221(15) 0.05853(11)
H10 H -0.4084 0.5115 0.0360
C23 C -0.33666(14) 0.39067(16) 0.01088(10)
H11 H -0.3747 0.3923 -0.0431
C24 C -0.25937(13) 0.31472(14) 0.04152(9)
H12 H -0.2458 0.2660 0.0092
C25 C 0.45096(10) 0.57172(9) 0.21423(8)
H13 H 0.4959 0.5517 0.1868
C26 C 0.36399(10) 0.51260(10) 0.21100(8)
H14 H 0.3509 0.4536 0.1819
C27 C 0.29559(9) 0.54166(9) 0.25167(7)
C28 C 0.31982(10) 0.63072(10) 0.29433(8)
H15 H 0.2761 0.6527 0.3222
C29 C 0.40847(11) 0.68627(10) 0.29530(8)
H16 H 0.4239 0.7454 0.3242
C30 C 0.05458(10) 0.44179(10) 0.29576(7)
H17 H 0.0161 0.4561 0.3292
C31 C 0.14295(10) 0.49972(10) 0.30018(8)
H18 H 0.1636 0.5519 0.3364
C32 C 0.20121(9) 0.47973(9) 0.25018(7)
C33 C 0.16620(11) 0.40071(11) 0.19743(8)
H19 H 0.2028 0.3851 0.1630
C34 C 0.07716(11) 0.34542(11) 0.19624(8)
H20 H 0.0547 0.2927 0.1607
B1 B 0.57739(12) 0.72613(11) 0.25350(9)
B2 B -0.08550(11) 0.29909(11) 0.24428(9)
loop_
_geom_bond_atom_site_label_1
_geom_bond_atom_site_label_2
_geom_bond_site_symmetry_1
_geom_bond_site_symmetry_2
F1 C2 1_555 1_555
F2 C4 1_555 1_555
F3 C6 1_555 1_555
F4 C14 1_555 1_555
F5 C16 1_555 1_555
F6 C18 1_555 1_555
O1 C7 1_555 1_555
O2 C8 1_555 1_555
O3 C19 1_555 1_555
O4 C20 1_555 1_555
N1 C25 1_555 1_555
N2 C30 1_555 1_555
C1 C2 1_555 1_555
C2 C3 1_555 1_555
C3 H1 1_555 1_555
C4 C3 1_555 1_555
C5 C4 1_555 1_555
H2 C5 1_555 1_555
C6 C1 1_555 1_555
C7 C8 1_555 1_555
C8 C9 1_555 1_555
C9 H3 1_555 1_555
C10 C9 1_555 1_555
H4 C10 1_555 1_555
C11 C10 1_555 1_555
H5 C11 1_555 1_555
C12 C7 1_555 1_555
H6 C12 1_555 1_555
C13 C14 1_555 1_555
C14 C15 1_555 1_555
C15 H7 1_555 1_555
C16 C15 1_555 1_555
C17 C16 1_555 1_555
H8 C17 1_555 1_555
C18 C13 1_555 1_555
C19 C20 1_555 1_555
C20 C21 1_555 1_555
C21 H9 1_555 1_555
C22 C21 1_555 1_555
H10 C22 1_555 1_555
C23 C22 1_555 1_555
H11 C23 1_555 1_555
C24 C19 1_555 1_555
H12 C24 1_555 1_555
C25 H13 1_555 1_555
C26 C25 1_555 1_555
H14 C26 1_555 1_555
C27 C26 1_555 1_555
C28 C27 1_555 1_555
H15 C28 1_555 1_555
C29 N1 1_555 1_555
H16 C29 1_555 1_555
C30 H17 1_555 1_555
C31 C30 1_555 1_555
H18 C31 1_555 1_555
C32 C27 1_555 1_555
C33 C32 1_555 1_555
H19 C33 1_555 1_555
C34 N2 1_555 1_555
H20 C34 1_555 1_555
B1 O1 1_555 1_555
B2 O3 1_555 1_555
O2 B1 1_555 1_555
O4 B2 1_555 1_555
N1 B1 1_555 1_555
N2 B2 1_555 1_555
C1 B1 1_555 1_555
C5 C6 1_555 1_555
C11 C12 1_555 1_555
C13 B2 1_555 1_555
C17 C18 1_555 1_555
C23 C24 1_555 1_555
C28 C29 1_555 1_555
C31 C32 1_555 1_555
C33 C34 1_555 1_555

#END
