
#######################################################################
#
#                 Cambridge Crystallographic Data Centre
#                                CCDC 
#
#######################################################################
#
# If this CIF has been generated from an entry in the Cambridge 
# Structural Database, then it will include bibliographic, chemical, 
# crystal, experimental, refinement or atomic coordinate data resulting 
# from the CCDC's data processing and validation procedures.
#
#######################################################################

data_KEZXUJ
_chemical_formula_moiety         'C28 H19 F3 O6 S2'
_chemical_name_systematic        
(M)-(R~ax~)-2-(Trifluoromethanesulfonyloxy)-2'-(p-toluenesulfonyloxy)-1,1'-binaphthyl
_symmetry_cell_setting           monoclinic
_symmetry_space_group_name_H-M   'P 21'
_symmetry_Int_Tables_number      4
_space_group_name_Hall           'P 2yb'
loop_
_symmetry_equiv_pos_site_id
_symmetry_equiv_pos_as_xyz
1 x,y,z
2 -x,1/2+y,-z
_cell_length_a                   10.1291(11)
_cell_length_b                   9.3320(10)
_cell_length_c                   14.1204(14)
_cell_angle_alpha                90
_cell_angle_beta                 99.242(2)
_cell_angle_gamma                90
_cell_volume                     1317.4
_exptl_crystal_colour            colorless
_exptl_crystal_description       'trigonal tablet'
_cell_formula_units_Z            2
_exptl_crystal_recrystallization_method dichloromethane/hexane
loop_
_atom_site_label
_atom_site_type_symbol
_atom_site_fract_x
_atom_site_fract_y
_atom_site_fract_z
C1 C 0.58296(19) 0.4068(2) 0.21497(14)
C2 C 0.6019(2) 0.3062(2) 0.14925(15)
C3 C 0.5007(2) 0.2222(2) 0.09740(15)
H1 H 0.5206 0.1507 0.0539
C4 C 0.3724(2) 0.2467(2) 0.11155(16)
H2 H 0.3018 0.1912 0.0773
C5 C 0.2093(2) 0.3836(3) 0.18777(17)
H3 H 0.1381 0.3291 0.1534
C6 C 0.1815(2) 0.4890(3) 0.24685(18)
H4 H 0.0911 0.5099 0.2520
C7 C 0.2857(2) 0.5684(3) 0.30106(17)
H5 H 0.2654 0.6419 0.3430
C8 C 0.4163(2) 0.5395(3) 0.29329(16)
H6 H 0.4861 0.5919 0.3311
C9 C 0.4484(2) 0.4332(2) 0.22994(14)
C10 C 0.3429(2) 0.3525(2) 0.17599(15)
O1 O 0.73601(14) 0.28178(17) 0.13158(11)
S1 S 0.78653(5) 0.36866(6) 0.04953(4)
O2 O 0.67919(18) 0.4385(3) -0.00789(16)
O3 O 0.90435(18) 0.4412(2) 0.08639(16)
C11 C 0.8347(4) 0.2177(4) -0.0190(2)
F1 F 0.7290(3) 0.1368(3) -0.04802(17)
F2 F 0.9271(3) 0.1415(3) 0.0348(2)
F3 F 0.8830(3) 0.2668(3) -0.09334(16)
C12 C 0.6973(2) 0.4898(2) 0.26805(14)
C13 C 0.7902(2) 0.4257(2) 0.33602(15)
C14 C 0.8995(2) 0.5009(3) 0.38823(16)
H7 H 0.9615 0.4532 0.4354
C15 C 0.9143(2) 0.6423(3) 0.36991(17)
H8 H 0.9860 0.6941 0.4061
C16 C 0.8438(2) 0.8599(3) 0.27539(19)
H9 H 0.9161 0.9123 0.3102
C17 C 0.7588(3) 0.9254(3) 0.2043(2)
H10 H 0.7721 1.0233 0.1899
C18 C 0.6517(3) 0.8499(3) 0.1517(2)
H11 H 0.5940 0.8964 0.1014
C19 C 0.6299(2) 0.7101(3) 0.17256(16)
H12 H 0.5561 0.6607 0.1370
C20 C 0.7158(2) 0.6370(2) 0.24656(15)
C21 C 0.8254(2) 0.7137(3) 0.29817(15)
O4 O 0.78396(14) 0.27601(16) 0.34889(10)
S2 S 0.74649(5) 0.20910(6) 0.44578(4)
O5 O 0.81061(16) 0.07339(19) 0.45162(12)
O6 O 0.77924(16) 0.31057(18) 0.52150(11)
C22 C 0.5726(2) 0.1867(3) 0.42099(15)
C23 C 0.5197(2) 0.0802(3) 0.35786(18)
H13 H 0.5764 0.0207 0.3274
C24 C 0.3822(3) 0.0624(3) 0.3401(2)
H14 H 0.3446 -0.0102 0.2968
C25 C 0.2984(3) 0.1483(3) 0.3841(2)
C26 C 0.3541(3) 0.2534(3) 0.4468(2)
H15 H 0.2975 0.3125 0.4775
C27 C 0.4905(2) 0.2742(3) 0.46552(18)
H16 H 0.5278 0.3474 0.5084
C28 C 0.1482(3) 0.1261(4) 0.3633(3)
H17 H 0.1204 0.0667 0.4138
H18 H 0.1241 0.0782 0.3012
H19 H 0.1031 0.2192 0.3615
loop_
_geom_bond_atom_site_label_1
_geom_bond_atom_site_label_2
_geom_bond_site_symmetry_1
_geom_bond_site_symmetry_2
C1 C2 1_555 1_555
C2 C3 1_555 1_555
C3 H1 1_555 1_555
C4 C3 1_555 1_555
H2 C4 1_555 1_555
C5 H3 1_555 1_555
C6 C5 1_555 1_555
H4 C6 1_555 1_555
C7 C6 1_555 1_555
H5 C7 1_555 1_555
C8 C7 1_555 1_555
H6 C8 1_555 1_555
C9 C1 1_555 1_555
C10 C4 1_555 1_555
O1 C2 1_555 1_555
S1 O1 1_555 1_555
O2 S1 1_555 1_555
O3 S1 1_555 1_555
C11 S1 1_555 1_555
F1 C11 1_555 1_555
F2 C11 1_555 1_555
F3 C11 1_555 1_555
C12 C1 1_555 1_555
C13 C12 1_555 1_555
C14 C13 1_555 1_555
H7 C14 1_555 1_555
C15 C14 1_555 1_555
H8 C15 1_555 1_555
C16 H9 1_555 1_555
C17 C16 1_555 1_555
H10 C17 1_555 1_555
C18 C17 1_555 1_555
H11 C18 1_555 1_555
C19 C18 1_555 1_555
H12 C19 1_555 1_555
C20 C12 1_555 1_555
C21 C15 1_555 1_555
O4 C13 1_555 1_555
S2 O4 1_555 1_555
O5 S2 1_555 1_555
O6 S2 1_555 1_555
C22 S2 1_555 1_555
C23 C22 1_555 1_555
H13 C23 1_555 1_555
C24 C23 1_555 1_555
H14 C24 1_555 1_555
C25 C24 1_555 1_555
C26 C25 1_555 1_555
H15 C26 1_555 1_555
C27 C22 1_555 1_555
H16 C27 1_555 1_555
C28 C25 1_555 1_555
H17 C28 1_555 1_555
H18 C28 1_555 1_555
H19 C28 1_555 1_555
C5 C10 1_555 1_555
C8 C9 1_555 1_555
C9 C10 1_555 1_555
C16 C21 1_555 1_555
C19 C20 1_555 1_555
C20 C21 1_555 1_555
C26 C27 1_555 1_555

#END
