
#######################################################################
#
#                 Cambridge Crystallographic Data Centre
#                                CCDC 
#
#######################################################################
#
# If this CIF has been generated from an entry in the Cambridge 
# Structural Database, then it will include bibliographic, chemical, 
# crystal, experimental, refinement or atomic coordinate data resulting 
# from the CCDC's data processing and validation procedures.
#
#######################################################################

data_KEZXOD
_chemical_formula_moiety         'C27 H20 O4 S1,C7 H8'
_chemical_name_systematic        
"(P)-(S~ax~)-2-Hydroxy-2'-(p-toluenesulfonyloxy)-1,1'-binaphthyl toluene solvate"
_symmetry_cell_setting           orthorhombic
_symmetry_space_group_name_H-M   'P 21 21 21'
_symmetry_Int_Tables_number      19
_space_group_name_Hall           'P 2ac 2ab'
loop_
_symmetry_equiv_pos_site_id
_symmetry_equiv_pos_as_xyz
1 x,y,z
2 1/2-x,-y,1/2+z
3 1/2+x,1/2-y,-z
4 -x,1/2+y,1/2-z
_cell_length_a                   7.4803(6)
_cell_length_b                   17.8177(14)
_cell_length_c                   19.953(2)
_cell_angle_alpha                90
_cell_angle_beta                 90
_cell_angle_gamma                90
_cell_volume                     2659.37
_exptl_crystal_colour            colorless
_exptl_crystal_description       column
_cell_formula_units_Z            4
loop_
_atom_site_label
_atom_site_type_symbol
_atom_site_fract_x
_atom_site_fract_y
_atom_site_fract_z
S1 S 0.85842(7) 0.12758(3) 0.57755(2)
O1 O 0.70559(17) 0.15871(7) 0.52878(6)
O2 O 0.8320(2) 0.04969(7) 0.58887(7)
O3 O 1.02729(19) 0.15164(8) 0.55091(7)
C1 C 0.5584(3) 0.03615(10) 0.45859(9)
C2 C 0.3886(3) 0.05103(10) 0.48106(9)
O4 O 0.31875(19) 0.12030(7) 0.46787(7)
H1 H 0.2213 0.1252 0.4883
C3 C 0.2899(3) -0.00335(10) 0.51624(9)
H2 H 0.1716 0.0076 0.5305
C4 C 0.3628(3) -0.07155(10) 0.52996(9)
H3 H 0.2946 -0.1077 0.5538
C5 C 0.6200(3) -0.15910(10) 0.52522(10)
H4 H 0.5558 -0.1952 0.5507
C6 C 0.7881(3) -0.17513(11) 0.50461(10)
H5 H 0.8413 -0.2218 0.5162
C7 C 0.8842(3) -0.12279(11) 0.46607(10)
H6 H 1.0009 -0.1348 0.4507
C8 C 0.8107(3) -0.05480(10) 0.45065(10)
H7 H 0.8781 -0.0198 0.4251
C9 C 0.6370(3) -0.03556(9) 0.47187(9)
C10 C 0.5374(3) -0.08937(10) 0.50950(9)
C11 C 0.6629(2) 0.09614(9) 0.42369(9)
C12 C 0.7378(3) 0.15405(10) 0.45849(9)
C13 C 0.8356(3) 0.21221(9) 0.42907(10)
H8 H 0.8852 0.2511 0.4559
C14 C 0.8587(3) 0.21225(10) 0.36152(10)
H9 H 0.9278 0.2508 0.3412
C15 C 0.7938(3) 0.15745(11) 0.25023(9)
H10 H 0.8581 0.1969 0.2291
C16 C 0.7150(3) 0.10333(11) 0.21193(10)
H11 H 0.7246 0.1053 0.1645
C17 C 0.6196(3) 0.04466(11) 0.24253(10)
H12 H 0.5639 0.0074 0.2156
C18 C 0.6066(3) 0.04091(10) 0.31064(10)
H13 H 0.5446 0.0001 0.3307
C19 C 0.6840(3) 0.09682(9) 0.35200(9)
C20 C 0.7811(3) 0.15557(10) 0.32097(9)
C21 C 0.8083(3) 0.17872(10) 0.64961(9)
C22 C 0.8522(3) 0.25423(10) 0.65240(10)
H14 H 0.9004 0.2792 0.6144
C23 C 0.8244(3) 0.29229(11) 0.71165(10)
H15 H 0.8516 0.3443 0.7140
C24 C 0.7575(3) 0.25617(11) 0.76783(10)
C25 C 0.7102(3) 0.18163(11) 0.76353(10)
H16 H 0.6598 0.1571 0.8014
C26 C 0.7355(3) 0.14200(10) 0.70437(10)
H17 H 0.7033 0.0905 0.7015
C27 C 0.7369(3) 0.29867(13) 0.83323(10)
H18 H 0.8530 0.3192 0.8468
H19 H 0.6929 0.2645 0.8680
H20 H 0.6514 0.3398 0.8272
C28 C 0.7274(3) 0.38431(11) 0.19507(10)
C29 C 0.8141(3) 0.44915(12) 0.17552(11)
H21 H 0.8243 0.4604 0.1291
C30 C 0.8865(3) 0.49799(12) 0.22205(12)
H22 H 0.9460 0.5422 0.2076
C31 C 0.8717(3) 0.48209(12) 0.28988(12)
H23 H 0.9214 0.5152 0.3222
C32 C 0.7843(3) 0.41778(12) 0.30984(11)
H24 H 0.7732 0.4067 0.3562
C33 C 0.7130(3) 0.36959(12) 0.26338(10)
H25 H 0.6529 0.3256 0.2780
C34 C 0.6474(4) 0.33163(12) 0.14413(11)
H26 H 0.5243 0.3469 0.1344
H27 H 0.6476 0.2804 0.1620
H28 H 0.7182 0.3333 0.1028
loop_
_geom_bond_atom_site_label_1
_geom_bond_atom_site_label_2
_geom_bond_site_symmetry_1
_geom_bond_site_symmetry_2
S1 O1 1_555 1_555
O1 C12 1_555 1_555
O2 S1 1_555 1_555
O3 S1 1_555 1_555
C1 C2 1_555 1_555
C2 O4 1_555 1_555
O4 H1 1_555 1_555
C3 C2 1_555 1_555
H2 C3 1_555 1_555
C4 C3 1_555 1_555
H3 C4 1_555 1_555
C5 H4 1_555 1_555
C6 C5 1_555 1_555
H5 C6 1_555 1_555
C7 C6 1_555 1_555
H6 C7 1_555 1_555
C8 C7 1_555 1_555
H7 C8 1_555 1_555
C9 C1 1_555 1_555
C10 C4 1_555 1_555
C11 C1 1_555 1_555
C12 C11 1_555 1_555
C13 C12 1_555 1_555
H8 C13 1_555 1_555
C14 C13 1_555 1_555
H9 C14 1_555 1_555
C15 H10 1_555 1_555
C16 C15 1_555 1_555
H11 C16 1_555 1_555
C17 C16 1_555 1_555
H12 C17 1_555 1_555
C18 C17 1_555 1_555
H13 C18 1_555 1_555
C19 C11 1_555 1_555
C20 C14 1_555 1_555
C21 S1 1_555 1_555
C22 C21 1_555 1_555
H14 C22 1_555 1_555
C23 C22 1_555 1_555
H15 C23 1_555 1_555
C24 C23 1_555 1_555
C25 C24 1_555 1_555
H16 C25 1_555 1_555
C26 C21 1_555 1_555
H17 C26 1_555 1_555
C27 C24 1_555 1_555
H18 C27 1_555 1_555
H19 C27 1_555 1_555
H20 C27 1_555 1_555
C28 C29 1_555 1_555
C29 H21 1_555 1_555
C30 C29 1_555 1_555
H22 C30 1_555 1_555
C31 C30 1_555 1_555
H23 C31 1_555 1_555
C32 C31 1_555 1_555
H24 C32 1_555 1_555
C33 C28 1_555 1_555
H25 C33 1_555 1_555
C34 C28 1_555 1_555
H26 C34 1_555 1_555
H27 C34 1_555 1_555
H28 C34 1_555 1_555
C5 C10 1_555 1_555
C8 C9 1_555 1_555
C9 C10 1_555 1_555
C15 C20 1_555 1_555
C18 C19 1_555 1_555
C19 C20 1_555 1_555
C25 C26 1_555 1_555
C32 C33 1_555 1_555

#END
