
#######################################################################
#
#                 Cambridge Crystallographic Data Centre
#                                CCDC 
#
#######################################################################
#
# If this CIF has been generated from an entry in the Cambridge 
# Structural Database, then it will include bibliographic, chemical, 
# crystal, experimental, refinement or atomic coordinate data resulting 
# from the CCDC's data processing and validation procedures.
#
#######################################################################

data_KEZYAS
_chemical_formula_moiety         'C18 H16 Cl2 N2 O2'
_chemical_name_systematic        
(4aR,8aS)-6,7-dichloro-9-isopropyl-2-methyl-5,8-dioxo-1,4,5,8-tetrahydro-1,4-ethanonaphthalene-4a,8a-dicarbonitrile
_symmetry_cell_setting           triclinic
_symmetry_space_group_name_H-M   'P 1'
_symmetry_Int_Tables_number      1
_space_group_name_Hall           'P 1'
loop_
_symmetry_equiv_pos_site_id
_symmetry_equiv_pos_as_xyz
1 x,y,z
_cell_length_a                   8.9308(5)
_cell_length_b                   13.6829(11)
_cell_length_c                   15.5308(14)
_cell_angle_alpha                74.608(8)
_cell_angle_beta                 88.903(6)
_cell_angle_gamma                76.228(6)
_cell_volume                     1775.21
_exptl_crystal_colour            colorless
_exptl_crystal_description       block
_chemical_melting_point          '191-193 deg.C'
_cell_formula_units_Z            4
loop_
_atom_site_label
_atom_site_type_symbol
_atom_site_fract_x
_atom_site_fract_y
_atom_site_fract_z
Cl1 Cl 0.3010(4) -0.3828(4) -0.8244(4)
Cl2 Cl 0.1800(5) -0.1409(4) -0.8531(4)
O1 O 0.0544(12) -0.4846(9) -0.8195(8)
O2 O -0.1474(11) -0.0732(8) -0.8699(8)
N1 N -0.3248(15) -0.4585(10) -0.7690(9)
N2 N -0.4367(17) -0.1851(10) -0.7732(10)
C1 C 0.0103(18) -0.3899(14) -0.8400(10)
C2 C 0.1037(15) -0.3222(15) -0.8429(10)
C3 C 0.0611(16) -0.2174(13) -0.8561(10)
C4 C -0.1051(16) -0.1693(11) -0.8677(8)
C5 C -0.2274(13) -0.2249(9) -0.8816(8)
C6 C -0.1667(13) -0.3428(10) -0.8745(9)
C7 C -0.1807(14) -0.3617(9) -0.9680(9)
H1 H -0.1365 -0.4354 -0.9648
C8 C -0.3495(15) -0.3314(10) -0.9991(10)
H2 H -0.4057 -0.3740 -0.9573
H3 H -0.3589 -0.3439 -1.0571
C9 C -0.4185(13) -0.2162(9) -1.0055(9)
H4 H -0.4939 -0.2130 -0.9590
C10 C -0.2875(13) -0.1687(10) -0.9824(9)
H5 H -0.3251 -0.0932 -0.9912
C11 C -0.1544(16) -0.1915(12) -1.0393(9)
H6 H -0.1174 -0.1382 -1.0770
C12 C -0.0902(15) -0.2920(11) -1.0336(9)
C13 C 0.040(2) -0.3410(15) -1.0816(11)
H7 H 0.1239 -0.3805 -1.0397
H8 H 0.0725 -0.2875 -1.1258
H9 H 0.0058 -0.3866 -1.1104
C14 C -0.5029(19) -0.1564(11) -1.0941(11)
H10 H -0.4291 -0.1646 -1.1407
C15 C -0.634(2) -0.2072(18) -1.1097(15)
H11 H -0.5974 -0.2819 -1.0923
H12 H -0.6671 -0.1841 -1.1718
H13 H -0.7199 -0.1871 -1.0745
C16 C -0.559(2) -0.0437(12) -1.1042(12)
H14 H -0.6162 -0.0327 -1.0532
H15 H -0.6254 -0.0125 -1.1573
H16 H -0.4733 -0.0121 -1.1089
C17 C -0.2543(15) -0.4077(10) -0.8146(9)
C18 C -0.3471(16) -0.2037(9) -0.8199(10)
Cl3 Cl -0.7653(5) -0.2793(4) -0.5946(3)
Cl4 Cl -0.7961(5) -0.0465(4) -0.5896(4)
O3 O -0.4543(13) -0.3940(8) -0.5872(8)
O4 O -0.5025(14) -0.0017(9) -0.5759(10)
N3 N -0.0946(16) -0.3518(12) -0.6490(11)
N4 N -0.1515(18) -0.0792(14) -0.6698(11)
C19 C -0.4820(14) -0.0936(11) -0.5733(9)
C20 C -0.6258(16) -0.1356(12) -0.5779(9)
C21 C -0.6096(16) -0.2319(11) -0.5824(9)
C22 C -0.3103(16) -0.2831(9) -0.5477(8)
C23 C -0.4610(17) -0.3060(12) -0.5761(9)
C24 C -0.3255(17) -0.1644(10) -0.5523(10)
C25 C -0.2704(15) -0.1617(10) -0.4548(9)
H17 H -0.2786 -0.0897 -0.4527
C26 C -0.3812(19) -0.2089(13) -0.3944(11)
H18 H -0.4478 -0.1707 -0.3617
C27 C -0.381(2) -0.3052(14) -0.3889(10)
C28 C -0.2630(19) -0.3519(12) -0.4491(11)
H19 H -0.2616 -0.4252 -0.4431
C29 C -0.471(3) -0.3697(14) -0.3274(13)
H20 H -0.5472 -0.3851 -0.3614
H21 H -0.5221 -0.3321 -0.2867
H22 H -0.4032 -0.4338 -0.2943
C30 C -0.1114(16) -0.2246(13) -0.4321(9)
H23 H -0.0467 -0.2028 -0.4817
C31 C -0.110(2) -0.3407(14) -0.4204(11)
H24 H -0.0303 -0.3705 -0.4557
H25 H -0.0865 -0.3791 -0.3582
C32 C -0.038(2) -0.2167(15) -0.3433(14)
H26 H -0.0925 -0.2497 -0.2927
C33 C -0.056(3) -0.116(2) -0.3446(18)
H27 H 0.0341 -0.0935 -0.3677
H28 H -0.0696 -0.1091 -0.2850
H29 H -0.1449 -0.0747 -0.3821
C34 C 0.124(3) -0.270(2) -0.3304(17)
H30 H 0.1354 -0.3435 -0.3203
H31 H 0.1674 -0.2567 -0.2796
H32 H 0.1773 -0.2441 -0.3828
C35 C -0.2285(17) -0.1194(13) -0.6147(11)
C36 C -0.1895(17) -0.3228(11) -0.6033(11)
Cl5 Cl -0.8658(5) -0.9034(4) -0.3456(3)
Cl6 Cl -0.9859(4) -0.6697(4) -0.3435(4)
O5 O -0.5394(14) -0.9645(8) -0.3520(9)
O6 O -0.7398(11) -0.5673(9) -0.3473(8)
N5 N -0.2282(17) -0.9002(13) -0.2742(10)
N6 N -0.3496(14) -0.6367(11) -0.2768(11)
C37 C -0.6926(16) -0.6530(13) -0.3570(10)
C38 C -0.7996(15) -0.7228(13) -0.3564(10)
C39 C -0.7445(15) -0.8226(13) -0.3564(11)
C40 C -0.5852(15) -0.8690(11) -0.3621(9)
C41 C -0.4654(14) -0.8026(9) -0.3863(9)
C42 C -0.5244(13) -0.6851(10) -0.3851(9)
C43 C -0.5156(14) -0.6170(10) -0.4788(10)
H33 H -0.5579 -0.5431 -0.4820
C44 C -0.6072(16) -0.6522(12) -0.5438(10)
C45 C -0.5511(16) -0.7495(12) -0.5450(9)
H34 H -0.5938 -0.7810 -0.5814
C46 C -0.4144(15) -0.8052(10) -0.4838(8)
H35 H -0.3802 -0.8776 -0.4872
C47 C -0.2809(13) -0.7505(10) -0.5039(9)
H36 H -0.2027 -0.7807 -0.4545
C48 C -0.3496(15) -0.6354(10) -0.5081(9)
H37 H -0.2872 -0.6136 -0.4697
H38 H -0.3468 -0.5931 -0.5688
C49 C -0.203(2) -0.7599(14) -0.5933(11)
H39 H -0.2800 -0.7211 -0.6421
C50 C -0.0699(19) -0.7085(16) -0.6064(13)
H40 H -0.1050 -0.6376 -0.6033
H41 H -0.0288 -0.7093 -0.6639
H42 H 0.0090 -0.7458 -0.5604
C51 C -0.160(2) -0.8700(14) -0.5977(14)
H43 H -0.0727 -0.9078 -0.5571
H44 H -0.1328 -0.8721 -0.6574
H45 H -0.2450 -0.9013 -0.5813
C52 C -0.741(2) -0.5782(13) -0.5963(11)
H46 H -0.7254 -0.5712 -0.6588
H47 H -0.7532 -0.5115 -0.5844
H48 H -0.8319 -0.6034 -0.5802
C53 C -0.4248(15) -0.6589(12) -0.3208(11)
C54 C -0.3306(18) -0.8604(13) -0.3177(11)
Cl7 Cl 0.0718(5) -0.8676(4) -0.0959(4)
Cl8 Cl 0.0495(6) -0.6294(5) -0.1199(4)
O7 O -0.2169(11) -0.9169(8) -0.0690(6)
O8 O -0.2595(14) -0.5151(9) -0.1178(8)
N7 N -0.5853(16) -0.7813(10) -0.1604(11)
N8 N -0.6330(19) -0.5153(11) -0.1369(13)
C55 C -0.3872(13) -0.7630(9) -0.0482(9)
C56 C -0.2297(16) -0.8243(12) -0.0709(9)
C57 C -0.0960(17) -0.7834(12) -0.0873(10)
C58 C -0.1024(16) -0.6861(14) -0.0963(11)
C59 C -0.2500(18) -0.6106(12) -0.0924(9)
C60 C -0.3874(16) -0.6448(9) -0.0550(9)
C61 C -0.391(2) -0.6379(11) 0.0482(11)
H49 H -0.3815 -0.5686 0.0500
C62 C -0.257(2) -0.7190(13) 0.0987(10)
C63 C -0.2756(18) -0.8135(11) 0.1022(10)
H50 H -0.2081 -0.8737 0.1361
C64 C -0.4109(17) -0.8185(10) 0.0486(10)
H51 H -0.4103 -0.8916 0.0536
C65 C -0.5636(19) -0.7638(11) 0.0814(12)
H52 H -0.6480 -0.7545 0.0383
C66 C -0.546(2) -0.6556(10) 0.0862(11)
H53 H -0.6306 -0.6013 0.0520
H54 H -0.5499 -0.6521 0.1478
C67 C -0.603(2) -0.8276(16) 0.1785(15)
H55 H -0.5110 -0.8533 0.2193
C68 C -0.650(3) -0.920(2) 0.153(2)
H56 H -0.7412 -0.8930 0.1141
H57 H -0.6694 -0.9690 0.2060
H58 H -0.5673 -0.9540 0.1225
C69 C -0.737(4) -0.769(3) 0.220(2)
H59 H -0.7093 -0.7106 0.2334
H60 H -0.7619 -0.8142 0.2734
H61 H -0.8246 -0.7433 0.1781
C70 C -0.136(3) -0.6885(18) 0.1419(15)
H62 H -0.0818 -0.7473 0.1882
H63 H -0.1835 -0.6325 0.1675
H64 H -0.0657 -0.6657 0.0983
C71 C -0.533(2) -0.5717(14) -0.1040(12)
C72 C -0.4994(15) -0.7725(11) -0.1086(11)
loop_
_geom_bond_atom_site_label_1
_geom_bond_atom_site_label_2
_geom_bond_site_symmetry_1
_geom_bond_site_symmetry_2
Cl1 C2 1_555 1_555
Cl2 C3 1_555 1_555
O1 C1 1_555 1_555
O2 C4 1_555 1_555
N1 C17 1_555 1_555
N2 C18 1_555 1_555
C1 C2 1_555 1_555
C2 C3 1_555 1_555
C3 C4 1_555 1_555
C4 C5 1_555 1_555
C5 C6 1_555 1_555
C6 C1 1_555 1_555
C7 C6 1_555 1_555
H1 C7 1_555 1_555
C8 C7 1_555 1_555
H2 C8 1_555 1_555
H3 C8 1_555 1_555
C9 C8 1_555 1_555
H4 C9 1_555 1_555
C10 C5 1_555 1_555
H5 C10 1_555 1_555
C11 C10 1_555 1_555
H6 C11 1_555 1_555
C12 C7 1_555 1_555
C13 C12 1_555 1_555
H7 C13 1_555 1_555
H8 C13 1_555 1_555
H9 C13 1_555 1_555
C14 C9 1_555 1_555
H10 C14 1_555 1_555
C15 C14 1_555 1_555
H11 C15 1_555 1_555
H12 C15 1_555 1_555
H13 C15 1_555 1_555
C16 C14 1_555 1_555
H14 C16 1_555 1_555
H15 C16 1_555 1_555
H16 C16 1_555 1_555
C17 C6 1_555 1_555
C18 C5 1_555 1_555
Cl3 C21 1_555 1_555
Cl4 C20 1_555 1_555
O3 C23 1_555 1_555
O4 C19 1_555 1_555
N3 C36 1_555 1_555
N4 C35 1_555 1_555
C19 C20 1_555 1_555
C20 C21 1_555 1_555
C21 C23 1_555 1_555
C22 C23 1_555 1_555
C24 C19 1_555 1_555
C25 C24 1_555 1_555
H17 C25 1_555 1_555
C26 C25 1_555 1_555
H18 C26 1_555 1_555
C27 C26 1_555 1_555
C28 C22 1_555 1_555
H19 C28 1_555 1_555
C29 C27 1_555 1_555
H20 C29 1_555 1_555
H21 C29 1_555 1_555
H22 C29 1_555 1_555
C30 C25 1_555 1_555
H23 C30 1_555 1_555
C31 C28 1_555 1_555
H24 C31 1_555 1_555
H25 C31 1_555 1_555
C32 C30 1_555 1_555
H26 C32 1_555 1_555
C33 C32 1_555 1_555
H27 C33 1_555 1_555
H28 C33 1_555 1_555
H29 C33 1_555 1_555
C34 C32 1_555 1_555
H30 C34 1_555 1_555
H31 C34 1_555 1_555
H32 C34 1_555 1_555
C35 C24 1_555 1_555
C36 C22 1_555 1_555
Cl5 C39 1_555 1_555
Cl6 C38 1_555 1_555
O5 C40 1_555 1_555
O6 C37 1_555 1_555
N5 C54 1_555 1_555
N6 C53 1_555 1_555
C37 C38 1_555 1_555
C38 C39 1_555 1_555
C39 C40 1_555 1_555
C40 C41 1_555 1_555
C41 C42 1_555 1_555
C42 C37 1_555 1_555
C43 C42 1_555 1_555
H33 C43 1_555 1_555
C44 C43 1_555 1_555
C45 C44 1_555 1_555
H34 C45 1_555 1_555
C46 C41 1_555 1_555
H35 C46 1_555 1_555
C47 C46 1_555 1_555
H36 C47 1_555 1_555
C48 C43 1_555 1_555
H37 C48 1_555 1_555
H38 C48 1_555 1_555
C49 C47 1_555 1_555
H39 C49 1_555 1_555
C50 C49 1_555 1_555
H40 C50 1_555 1_555
H41 C50 1_555 1_555
H42 C50 1_555 1_555
C51 C49 1_555 1_555
H43 C51 1_555 1_555
H44 C51 1_555 1_555
H45 C51 1_555 1_555
C52 C44 1_555 1_555
H46 C52 1_555 1_555
H47 C52 1_555 1_555
H48 C52 1_555 1_555
C53 C42 1_555 1_555
C54 C41 1_555 1_555
Cl7 C57 1_555 1_555
Cl8 C58 1_555 1_555
O7 C56 1_555 1_555
O8 C59 1_555 1_555
N7 C72 1_555 1_555
N8 C71 1_555 1_555
C55 C56 1_555 1_555
C56 C57 1_555 1_555
C57 C58 1_555 1_555
C58 C59 1_555 1_555
C59 C60 1_555 1_555
C60 C55 1_555 1_555
C61 C60 1_555 1_555
H49 C61 1_555 1_555
C62 C61 1_555 1_555
C63 C62 1_555 1_555
H50 C63 1_555 1_555
C64 C55 1_555 1_555
H51 C64 1_555 1_555
C65 C64 1_555 1_555
H52 C65 1_555 1_555
C66 C61 1_555 1_555
H53 C66 1_555 1_555
H54 C66 1_555 1_555
C67 C65 1_555 1_555
H55 C67 1_555 1_555
C68 C67 1_555 1_555
H56 C68 1_555 1_555
H57 C68 1_555 1_555
H58 C68 1_555 1_555
C69 C67 1_555 1_555
H59 C69 1_555 1_555
H60 C69 1_555 1_555
H61 C69 1_555 1_555
C70 C62 1_555 1_555
H62 C70 1_555 1_555
H63 C70 1_555 1_555
H64 C70 1_555 1_555
C71 C60 1_555 1_555
C72 C55 1_555 1_555
C9 C10 1_555 1_555
C11 C12 1_555 1_555
C22 C24 1_555 1_555
C27 C28 1_555 1_555
C30 C31 1_555 1_555
C45 C46 1_555 1_555
C47 C48 1_555 1_555
C63 C64 1_555 1_555
C65 C66 1_555 1_555

#END
