
#######################################################################
#
#                 Cambridge Crystallographic Data Centre
#                                CCDC 
#
#######################################################################
#
# If this CIF has been generated from an entry in the Cambridge 
# Structural Database, then it will include bibliographic, chemical, 
# crystal, experimental, refinement or atomic coordinate data resulting 
# from the CCDC's data processing and validation procedures.
#
#######################################################################

data_KEZYEU
_chemical_formula_moiety         'C33 H24 O1 Si1'
_chemical_name_systematic        
(P)-(R~ax~)-4,5-Dihydro-4,4-diphenyl-3-oxa-4-silacyclohepta(2,1-a:3,4-a')dinaphthalene
_symmetry_cell_setting           monoclinic
_symmetry_space_group_name_H-M   'P 21'
_symmetry_Int_Tables_number      4
_space_group_name_Hall           'P 2yb'
loop_
_symmetry_equiv_pos_site_id
_symmetry_equiv_pos_as_xyz
1 x,y,z
2 -x,1/2+y,-z
_cell_length_a                   9.4434(13)
_cell_length_b                   11.0517(15)
_cell_length_c                   11.7216(16)
_cell_angle_alpha                90
_cell_angle_beta                 92.571(3)
_cell_angle_gamma                90
_cell_volume                     1222.1
_exptl_crystal_colour            colorless
_exptl_crystal_description       plate
_cell_formula_units_Z            2
_exptl_crystal_recrystallization_method dichloromethane/hexane
loop_
_atom_site_label
_atom_site_type_symbol
_atom_site_fract_x
_atom_site_fract_y
_atom_site_fract_z
Si1 Si 0.18692(7) 0.18970(7) 0.43046(5)
O1 O 0.20100(18) 0.09468(15) 0.32108(13)
C1 C 0.3368(2) 0.1957(2) 0.18019(17)
C2 C 0.2287(3) 0.2951(2) 0.16849(19)
C3 C 0.1929(3) 0.3606(2) 0.2645(2)
C4 C 0.0833(3) 0.4478(3) 0.2544(2)
H1 H 0.0582 0.4915 0.3203
C5 C 0.0134(3) 0.4704(3) 0.1535(2)
H2 H -0.0606 0.5287 0.1502
C6 C -0.0196(3) 0.4370(3) -0.0534(2)
H3 H -0.0900 0.4985 -0.0581
C7 C 0.0146(3) 0.3766(3) -0.1500(2)
H4 H -0.0309 0.3963 -0.2215
C8 C 0.1176(3) 0.2853(2) -0.1426(2)
H5 H 0.1410 0.2429 -0.2097
C9 C 0.1848(3) 0.2562(2) -0.0412(2)
H6 H 0.2529 0.1929 -0.0386
C10 C 0.1551(3) 0.3186(2) 0.0607(2)
C11 C 0.0483(3) 0.4095(2) 0.0538(2)
C12 C 0.3171(2) 0.0998(2) 0.25318(18)
C13 C 0.4122(3) 0.0016(2) 0.2613(2)
H7 H 0.3947 -0.0636 0.3115
C14 C 0.5285(3) 0.0001(2) 0.1977(2)
H8 H 0.5896 -0.0683 0.2009
C15 C 0.6860(3) 0.1015(3) 0.0668(2)
H9 H 0.7470 0.0331 0.0699
C16 C 0.7223(3) 0.1997(3) 0.0048(2)
H10 H 0.8084 0.2005 -0.0341
C17 C 0.6307(3) 0.3005(3) -0.0012(2)
H11 H 0.6564 0.3703 -0.0428
C18 C 0.5055(3) 0.2986(2) 0.0523(2)
H12 H 0.4440 0.3665 0.0454
C19 C 0.4649(2) 0.1980(2) 0.11808(17)
C20 C 0.5601(3) 0.0986(2) 0.12667(19)
C21 C 0.2610(3) 0.3353(2) 0.3788(2)
H13 H 0.2408 0.4015 0.4325
H14 H 0.3651 0.3286 0.3733
C22 C 0.2871(3) 0.1369(2) 0.56165(19)
C23 C 0.3726(3) 0.2153(2) 0.6265(2)
H15 H 0.3818 0.2968 0.6020
C24 C 0.4453(3) 0.1778(3) 0.7264(2)
H16 H 0.5039 0.2331 0.7689
C25 C 0.4319(3) 0.0617(3) 0.7626(2)
H17 H 0.4815 0.0355 0.8304
C26 C 0.3464(4) -0.0180(3) 0.7010(3)
H18 H 0.3367 -0.0990 0.7269
C27 C 0.2748(3) 0.0193(3) 0.6018(2)
H19 H 0.2161 -0.0366 0.5602
C28 C -0.0055(2) 0.1937(3) 0.45435(18)
C29 C -0.0549(3) 0.2202(3) 0.5608(2)
H20 H 0.0115 0.2401 0.6212
C30 C -0.1972(3) 0.2189(3) 0.5822(3)
H21 H -0.2280 0.2368 0.6563
C31 C -0.2932(3) 0.1916(4) 0.4959(3)
H22 H -0.3914 0.1881 0.5102
C32 C -0.2487(4) 0.1695(4) 0.3898(3)
H23 H -0.3164 0.1543 0.3291
C33 C -0.1068(3) 0.1689(4) 0.3687(2)
H24 H -0.0778 0.1511 0.2940
loop_
_geom_bond_atom_site_label_1
_geom_bond_atom_site_label_2
_geom_bond_site_symmetry_1
_geom_bond_site_symmetry_2
Si1 O1 1_555 1_555
O1 C12 1_555 1_555
C1 C2 1_555 1_555
C2 C3 1_555 1_555
C3 C4 1_555 1_555
C4 H1 1_555 1_555
C5 C4 1_555 1_555
H2 C5 1_555 1_555
C6 H3 1_555 1_555
C7 C6 1_555 1_555
H4 C7 1_555 1_555
C8 C7 1_555 1_555
H5 C8 1_555 1_555
C9 C8 1_555 1_555
H6 C9 1_555 1_555
C10 C2 1_555 1_555
C11 C5 1_555 1_555
C12 C1 1_555 1_555
C13 C12 1_555 1_555
H7 C13 1_555 1_555
C14 C13 1_555 1_555
H8 C14 1_555 1_555
C15 H9 1_555 1_555
C16 C15 1_555 1_555
H10 C16 1_555 1_555
C17 C16 1_555 1_555
H11 C17 1_555 1_555
C18 C17 1_555 1_555
H12 C18 1_555 1_555
C19 C1 1_555 1_555
C20 C14 1_555 1_555
C21 Si1 1_555 1_555
H13 C21 1_555 1_555
H14 C21 1_555 1_555
C22 Si1 1_555 1_555
C23 C22 1_555 1_555
H15 C23 1_555 1_555
C24 C23 1_555 1_555
H16 C24 1_555 1_555
C25 C24 1_555 1_555
H17 C25 1_555 1_555
C26 C25 1_555 1_555
H18 C26 1_555 1_555
C27 C22 1_555 1_555
H19 C27 1_555 1_555
C28 Si1 1_555 1_555
C29 C28 1_555 1_555
H20 C29 1_555 1_555
C30 C29 1_555 1_555
H21 C30 1_555 1_555
C31 C30 1_555 1_555
H22 C31 1_555 1_555
C32 C31 1_555 1_555
H23 C32 1_555 1_555
C33 C28 1_555 1_555
H24 C33 1_555 1_555
C3 C21 1_555 1_555
C6 C11 1_555 1_555
C9 C10 1_555 1_555
C10 C11 1_555 1_555
C15 C20 1_555 1_555
C18 C19 1_555 1_555
C19 C20 1_555 1_555
C26 C27 1_555 1_555
C32 C33 1_555 1_555

#END
