
#######################################################################
#
#                 Cambridge Crystallographic Data Centre
#                                CCDC 
#
#######################################################################
#
# If this CIF has been generated from an entry in the Cambridge 
# Structural Database, then it will include bibliographic, chemical, 
# crystal, experimental, refinement or atomic coordinate data resulting 
# from the CCDC's data processing and validation procedures.
#
#######################################################################

data_KEZYOE
_chemical_formula_moiety         'C27 H19 O2 P1'
_chemical_name_systematic        
"(P)-(S~ax~,R~P~)-4-Phenyl-5H-3-oxa-4-phosphacyclohepta(2,1-a:3,4-a')dinaphthalene 4-oxide"
_symmetry_cell_setting           orthorhombic
_symmetry_space_group_name_H-M   'P 21 21 21'
_symmetry_Int_Tables_number      19
_space_group_name_Hall           'P 2ac 2ab'
loop_
_symmetry_equiv_pos_site_id
_symmetry_equiv_pos_as_xyz
1 x,y,z
2 1/2-x,-y,1/2+z
3 -x,1/2+y,1/2-z
4 1/2+x,1/2-y,-z
_cell_length_a                   10.2706(11)
_cell_length_b                   10.7256(11)
_cell_length_c                   18.393(2)
_cell_angle_alpha                90
_cell_angle_beta                 90
_cell_angle_gamma                90
_cell_volume                     2026.14
_exptl_crystal_colour            colorless
_exptl_crystal_description       column
_cell_formula_units_Z            4
_exptl_crystal_recrystallization_method 'dichloromethane/diethyl ether'
loop_
_atom_site_label
_atom_site_type_symbol
_atom_site_fract_x
_atom_site_fract_y
_atom_site_fract_z
P1 P 0.73487(4) 0.86577(4) 0.78835(2)
O1 O 0.78144(13) 0.93652(11) 0.85189(7)
O2 O 0.80464(11) 0.89825(10) 0.71184(7)
C1 C 0.65711(15) 1.01718(14) 0.63724(9)
C2 C 0.77167(16) 1.00923(15) 0.67592(8)
C3 C 0.86388(16) 1.10617(16) 0.67943(9)
H1 H 0.9415 1.0960 0.7069
C4 C 0.84090(17) 1.21490(16) 0.64305(10)
H2 H 0.9056 1.2782 0.6423
C5 C 0.68977(18) 1.35064(16) 0.57312(9)
H3 H 0.7535 1.4148 0.5715
C6 C 0.56995(19) 1.37123(17) 0.54379(9)
H4 H 0.5498 1.4503 0.5234
C7 C 0.47584(18) 1.27592(17) 0.54351(9)
H5 H 0.3922 1.2912 0.5234
C8 C 0.50437(18) 1.16060(16) 0.57228(9)
H6 H 0.4407 1.0964 0.5706
C9 C 0.62719(15) 1.13610(15) 0.60442(8)
C10 C 0.72112(17) 1.23391(15) 0.60639(9)
C11 C 0.56851(15) 0.90723(15) 0.63133(9)
C12 C 0.52444(15) 0.84849(15) 0.69394(9)
C13 C 0.44195(16) 0.74325(16) 0.68905(10)
H7 H 0.4116 0.7049 0.7324
C14 C 0.40492(17) 0.69559(16) 0.62333(10)
H8 H 0.3487 0.6253 0.6214
C15 C 0.41503(19) 0.70073(18) 0.48948(10)
H9 H 0.3594 0.6301 0.4874
C16 C 0.45962(18) 0.75214(18) 0.42636(10)
H10 H 0.4350 0.7175 0.3808
C17 C 0.54265(17) 0.85727(18) 0.42906(9)
H11 H 0.5737 0.8931 0.3851
C18 C 0.57859(17) 0.90765(16) 0.49416(9)
H12 H 0.6352 0.9777 0.4948
C19 C 0.53306(14) 0.85762(15) 0.56130(9)
C20 C 0.45020(16) 0.75082(16) 0.55807(10)
C21 C 0.56447(16) 0.89359(15) 0.76833(9)
H13 H 0.5105 0.8510 0.8054
H14 H 0.5469 0.9841 0.7719
C22 C 0.76672(16) 0.70172(14) 0.79428(9)
C23 C 0.80240(16) 0.65332(17) 0.86148(9)
H15 H 0.8127 0.7072 0.9020
C24 C 0.82302(18) 0.52536(18) 0.86930(11)
H16 H 0.8470 0.4921 0.9153
C25 C 0.80862(18) 0.44752(17) 0.81054(11)
H17 H 0.8230 0.3605 0.8159
C26 C 0.7732(2) 0.49567(18) 0.74353(11)
H18 H 0.7633 0.4412 0.7032
C27 C 0.75195(19) 0.62233(17) 0.73472(10)
H19 H 0.7276 0.6548 0.6886
loop_
_geom_bond_atom_site_label_1
_geom_bond_atom_site_label_2
_geom_bond_site_symmetry_1
_geom_bond_site_symmetry_2
P1 O1 1_555 1_555
O2 P1 1_555 1_555
C1 C2 1_555 1_555
C2 O2 1_555 1_555
C3 C2 1_555 1_555
H1 C3 1_555 1_555
C4 C3 1_555 1_555
H2 C4 1_555 1_555
C5 H3 1_555 1_555
C6 C5 1_555 1_555
H4 C6 1_555 1_555
C7 C6 1_555 1_555
H5 C7 1_555 1_555
C8 C7 1_555 1_555
H6 C8 1_555 1_555
C9 C1 1_555 1_555
C10 C4 1_555 1_555
C11 C1 1_555 1_555
C12 C11 1_555 1_555
C13 C12 1_555 1_555
H7 C13 1_555 1_555
C14 C13 1_555 1_555
H8 C14 1_555 1_555
C15 H9 1_555 1_555
C16 C15 1_555 1_555
H10 C16 1_555 1_555
C17 C16 1_555 1_555
H11 C17 1_555 1_555
C18 C17 1_555 1_555
H12 C18 1_555 1_555
C19 C11 1_555 1_555
C20 C14 1_555 1_555
C21 P1 1_555 1_555
H13 C21 1_555 1_555
H14 C21 1_555 1_555
C22 P1 1_555 1_555
C23 C22 1_555 1_555
H15 C23 1_555 1_555
C24 C23 1_555 1_555
H16 C24 1_555 1_555
C25 C24 1_555 1_555
H17 C25 1_555 1_555
C26 C25 1_555 1_555
H18 C26 1_555 1_555
C27 C22 1_555 1_555
H19 C27 1_555 1_555
C5 C10 1_555 1_555
C8 C9 1_555 1_555
C9 C10 1_555 1_555
C12 C21 1_555 1_555
C15 C20 1_555 1_555
C18 C19 1_555 1_555
C19 C20 1_555 1_555
C26 C27 1_555 1_555

#END
