
#######################################################################
#
#                 Cambridge Crystallographic Data Centre
#                                CCDC 
#
#######################################################################
#
# If this CIF has been generated from an entry in the Cambridge 
# Structural Database, then it will include bibliographic, chemical, 
# crystal, experimental, refinement or atomic coordinate data resulting 
# from the CCDC's data processing and validation procedures.
#
#######################################################################

data_KEZYAQ
_chemical_formula_moiety         'C21 H16 O1'
_chemical_name_systematic        
(M)-(S~ax~)-2-Hydroxy-2'-methyl-1,1'-binaphthyl
_symmetry_cell_setting           tetragonal
_symmetry_space_group_name_H-M   'P 41'
_symmetry_Int_Tables_number      76
_space_group_name_Hall           'P 4w'
loop_
_symmetry_equiv_pos_site_id
_symmetry_equiv_pos_as_xyz
1 x,y,z
2 -x,-y,1/2+z
3 -y,x,1/4+z
4 y,-x,3/4+z
_cell_length_a                   8.9239(11)
_cell_length_b                   8.9239(11)
_cell_length_c                   37.956(9)
_cell_angle_alpha                90
_cell_angle_beta                 90
_cell_angle_gamma                90
_cell_volume                     3022.66
_exptl_crystal_colour            colorless
_exptl_crystal_description       tablet
_cell_formula_units_Z            8
_exptl_crystal_recrystallization_method dichloromethane/hexane
loop_
_atom_site_label
_atom_site_type_symbol
_atom_site_fract_x
_atom_site_fract_y
_atom_site_fract_z
C1 C 0.1828(2) 0.5714(3) 0.21025(6)
C2 C 0.1832(2) 0.5170(3) 0.17635(6)
C3 C 0.1061(3) 0.5996(3) 0.14984(6)
H1 H 0.1079 0.5640 0.1263
C4 C 0.0298(3) 0.7282(3) 0.15719(7)
H2 H -0.0227 0.7787 0.1389
C5 C 0.0284(3) 0.7872(3) 0.19181(6)
C6 C -0.0495(3) 0.9204(3) 0.20076(7)
H3 H -0.1036 0.9725 0.1830
C7 C -0.0483(3) 0.9749(3) 0.23401(8)
H4 H -0.0997 1.0652 0.2394
C8 C 0.0297(3) 0.8972(3) 0.26069(8)
H5 H 0.0300 0.9352 0.2841
C9 C 0.1044(3) 0.7683(3) 0.25321(7)
H6 H 0.1560 0.7172 0.2715
C10 C 0.1068(3) 0.7086(3) 0.21855(6)
C11 C 0.2587(3) 0.3715(3) 0.16716(7)
H7 H 0.3590 0.3691 0.1777
H8 H 0.2670 0.3627 0.1415
H9 H 0.1992 0.2878 0.1763
C12 C 0.2564(3) 0.4897(3) 0.23976(6)
C13 C 0.1781(3) 0.3824(2) 0.25840(6)
C14 C 0.2427(3) 0.3089(3) 0.28749(6)
H10 H 0.1883 0.2328 0.2994
C15 C 0.3832(3) 0.3466(3) 0.29857(6)
H11 H 0.4246 0.2977 0.3186
C16 C 0.4685(3) 0.4573(3) 0.28080(6)
C17 C 0.6132(3) 0.4989(3) 0.29159(7)
H12 H 0.6552 0.4539 0.3120
C18 C 0.6948(3) 0.6021(3) 0.27345(7)
H13 H 0.7926 0.6282 0.2812
C19 C 0.6336(3) 0.6698(3) 0.24323(7)
H14 H 0.6910 0.7408 0.2304
C20 C 0.4921(3) 0.6342(3) 0.23227(6)
H15 H 0.4518 0.6819 0.2120
C21 C 0.4046(2) 0.5273(3) 0.25059(6)
O1 O 0.03362(18) 0.3433(2) 0.25066(5)
H16 H 0.0045 0.3913 0.2329
C22 C 0.7885(2) 0.3641(2) 0.12114(6)
C23 C 0.7363(3) 0.5039(3) 0.11118(6)
C24 C 0.8047(3) 0.5776(3) 0.08204(6)
H17 H 0.7689 0.6734 0.0751
C25 C 0.9191(3) 0.5147(3) 0.06397(6)
H18 H 0.9615 0.5665 0.0445
C26 C 0.9765(3) 0.3733(3) 0.07359(6)
C27 C 1.0986(3) 0.3052(3) 0.05609(6)
H19 H 1.1427 0.3552 0.0366
C28 C 1.1549(3) 0.1703(3) 0.06631(7)
H20 H 1.2375 0.1274 0.0542
C29 C 1.0898(3) 0.0952(3) 0.09493(7)
H21 H 1.1287 0.0009 0.1022
C30 C 0.9707(3) 0.1565(3) 0.11259(6)
H22 H 0.9278 0.1038 0.1319
C31 C 0.9106(3) 0.2969(3) 0.10265(5)
C32 C 0.6099(3) 0.5815(3) 0.12969(7)
H23 H 0.5167 0.5261 0.1257
H24 H 0.5995 0.6836 0.1205
H25 H 0.6309 0.5857 0.1550
C33 C 0.7161(2) 0.2832(2) 0.15124(6)
C34 C 0.7433(2) 0.3276(3) 0.18526(6)
C35 C 0.6695(3) 0.2615(3) 0.21415(6)
H26 H 0.6899 0.2954 0.2374
C36 C 0.5692(3) 0.1494(3) 0.20879(6)
H27 H 0.5180 0.1073 0.2284
C37 C 0.5396(2) 0.0944(3) 0.17464(6)
C38 C 0.4369(3) -0.0229(3) 0.16817(8)
H28 H 0.3839 -0.0658 0.1874
C39 C 0.4120(3) -0.0756(3) 0.13515(8)
H29 H 0.3434 -0.1556 0.1315
C40 C 0.4878(3) -0.0118(3) 0.10645(7)
H30 H 0.4711 -0.0498 0.0834
C41 C 0.5851(3) 0.1039(3) 0.11121(6)
H31 H 0.6342 0.1465 0.0914
C42 C 0.6144(2) 0.1619(2) 0.14541(6)
O2 O 0.84337(18) 0.43883(18) 0.19361(4)
H32 H 0.8780 0.4763 0.1750
loop_
_geom_bond_atom_site_label_1
_geom_bond_atom_site_label_2
_geom_bond_site_symmetry_1
_geom_bond_site_symmetry_2
C1 C2 1_555 1_555
C2 C3 1_555 1_555
C3 H1 1_555 1_555
C4 C3 1_555 1_555
H2 C4 1_555 1_555
C5 C4 1_555 1_555
C6 C5 1_555 1_555
H3 C6 1_555 1_555
C7 C6 1_555 1_555
H4 C7 1_555 1_555
C8 C7 1_555 1_555
H5 C8 1_555 1_555
C9 C8 1_555 1_555
H6 C9 1_555 1_555
C10 C1 1_555 1_555
C11 C2 1_555 1_555
H7 C11 1_555 1_555
H8 C11 1_555 1_555
H9 C11 1_555 1_555
C12 C1 1_555 1_555
C13 C12 1_555 1_555
C14 C13 1_555 1_555
H10 C14 1_555 1_555
C15 C14 1_555 1_555
H11 C15 1_555 1_555
C16 C15 1_555 1_555
C17 C16 1_555 1_555
H12 C17 1_555 1_555
C18 C17 1_555 1_555
H13 C18 1_555 1_555
C19 C18 1_555 1_555
H14 C19 1_555 1_555
C20 C19 1_555 1_555
H15 C20 1_555 1_555
C21 C12 1_555 1_555
O1 C13 1_555 1_555
H16 O1 1_555 1_555
C22 C23 1_555 1_555
C23 C24 1_555 1_555
C24 H17 1_555 1_555
C25 C24 1_555 1_555
H18 C25 1_555 1_555
C26 C25 1_555 1_555
C27 C26 1_555 1_555
H19 C27 1_555 1_555
C28 C27 1_555 1_555
H20 C28 1_555 1_555
C29 C28 1_555 1_555
H21 C29 1_555 1_555
C30 C29 1_555 1_555
H22 C30 1_555 1_555
C31 C22 1_555 1_555
C32 C23 1_555 1_555
H23 C32 1_555 1_555
H24 C32 1_555 1_555
H25 C32 1_555 1_555
C33 C22 1_555 1_555
C34 C33 1_555 1_555
C35 C34 1_555 1_555
H26 C35 1_555 1_555
C36 C35 1_555 1_555
H27 C36 1_555 1_555
C37 C36 1_555 1_555
C38 C37 1_555 1_555
H28 C38 1_555 1_555
C39 C38 1_555 1_555
H29 C39 1_555 1_555
C40 C39 1_555 1_555
H30 C40 1_555 1_555
C41 C40 1_555 1_555
H31 C41 1_555 1_555
C42 C33 1_555 1_555
O2 C34 1_555 1_555
H32 O2 1_555 1_555
C5 C10 1_555 1_555
C9 C10 1_555 1_555
C16 C21 1_555 1_555
C20 C21 1_555 1_555
C26 C31 1_555 1_555
C30 C31 1_555 1_555
C37 C42 1_555 1_555
C41 C42 1_555 1_555

#END
