
#######################################################################
#
#                 Cambridge Crystallographic Data Centre
#                                CCDC 
#
#######################################################################
#
# If this CIF has been generated from an entry in the Cambridge 
# Structural Database, then it will include bibliographic, chemical, 
# crystal, experimental, refinement or atomic coordinate data resulting 
# from the CCDC's data processing and validation procedures.
#
#######################################################################

data_KEZZIB
_chemical_formula_moiety         'C17 H19 N3 O7'
_chemical_name_systematic        
't-butyl 3-ethenyl-3a,5-dinitro-2,3,3a,8a-tetrahydro-8H-furo[2,3-b]indole-8-carboxylate'
_symmetry_cell_setting           monoclinic
_symmetry_space_group_name_H-M   'P 21'
_symmetry_Int_Tables_number      4
_space_group_name_Hall           'P 2yb'
loop_
_symmetry_equiv_pos_site_id
_symmetry_equiv_pos_as_xyz
1 x,y,z
2 -x,1/2+y,-z
_cell_length_a                   11.0145(8)
_cell_length_b                   6.9118(5)
_cell_length_c                   11.9736(9)
_cell_angle_alpha                90
_cell_angle_beta                 103.433(2)
_cell_angle_gamma                90
_cell_volume                     886.612
_exptl_crystal_description       block
_cell_formula_units_Z            2
loop_
_atom_site_label
_atom_site_type_symbol
_atom_site_fract_x
_atom_site_fract_y
_atom_site_fract_z
O1 O 0.4405(4) 0.3160(8) 0.2355(5)
O2 O 0.3645(4) 0.8354(8) 0.3859(4)
O3 O 0.2839(3) 0.6776(8) 0.2190(4)
O4 O 0.6234(4) 0.5289(12) 0.0434(4)
O5 O 0.8051(4) 0.5348(9) 0.1580(4)
O6 O 1.0473(4) 0.5828(8) 0.5440(4)
O7 O 0.9877(4) 0.7542(7) 0.6725(4)
N1 N 0.4853(4) 0.6393(8) 0.3025(4)
N2 N 0.9668(4) 0.6696(8) 0.5796(4)
N3 N 0.6924(4) 0.5157(9) 0.1370(5)
C1 C 0.6004(5) 0.6700(10) 0.3789(5)
C2 C 0.6282(5) 0.7855(9) 0.4770(5)
H1 H 0.565991 0.863334 0.498015
C3 C 0.7508(5) 0.7829(11) 0.5433(5)
H2 H 0.772619 0.855877 0.612315
C4 C 0.8403(5) 0.6730(10) 0.5078(5)
C5 C 0.8151(5) 0.5653(9) 0.4087(5)
H3 H 0.878497 0.494158 0.384916
C6 C 0.6921(5) 0.5655(9) 0.3447(5)
C7 C 0.6380(5) 0.4516(10) 0.2378(5)
C8 C 0.4944(5) 0.4943(11) 0.2151(5)
H4 H 0.459692 0.542957 0.135428
C9 C 0.6503(6) 0.2314(11) 0.2538(5)
H5 H 0.728420 0.199038 0.312144
C10 C 0.5356(6) 0.1954(11) 0.3034(7)
H6 H 0.510664 0.057536 0.295861
H7 H 0.552783 0.232538 0.385398
C11 C 0.6433(6) 0.1161(10) 0.1457(5)
H8 H 0.568322 0.120524 0.087400
C12 C 0.7351(8) 0.0106(13) 0.1283(8)
H9 H 0.811101 0.003781 0.185262
H10 H 0.726171 -0.059537 0.058601
C13 C 0.3740(5) 0.7286(9) 0.3079(6)
C14 C 0.1608(5) 0.7807(10) 0.1931(6)
C15 C 0.0920(6) 0.6786(17) 0.0839(8)
H11 H 0.137338 0.697984 0.023455
H12 H 0.007631 0.732245 0.059014
H13 H 0.086637 0.539896 0.099095
C16 C 0.0957(5) 0.7429(11) 0.2915(6)
H14 H 0.077271 0.604602 0.294736
H15 H 0.017704 0.816829 0.278151
H16 H 0.150600 0.783296 0.364432
C17 C 0.1808(6) 0.9907(13) 0.1725(6)
H17 H 0.230963 1.049088 0.242830
H18 H 0.099888 1.056415 0.150852
H19 H 0.224639 1.004025 0.110501
loop_
_geom_bond_atom_site_label_1
_geom_bond_atom_site_label_2
_geom_bond_site_symmetry_1
_geom_bond_site_symmetry_2
O1 C8 1_555 1_555
O2 C13 1_555 1_555
O3 C13 1_555 1_555
O4 N3 1_555 1_555
O5 N3 1_555 1_555
O6 N2 1_555 1_555
O7 N2 1_555 1_555
N1 C1 1_555 1_555
N2 C4 1_555 1_555
N3 C7 1_555 1_555
C1 C2 1_555 1_555
C2 H1 1_555 1_555
C3 C2 1_555 1_555
H2 C3 1_555 1_555
C4 C3 1_555 1_555
C5 C4 1_555 1_555
H3 C5 1_555 1_555
C6 C1 1_555 1_555
C7 C6 1_555 1_555
C8 N1 1_555 1_555
H4 C8 1_555 1_555
C9 C7 1_555 1_555
H5 C9 1_555 1_555
C10 O1 1_555 1_555
H6 C10 1_555 1_555
H7 C10 1_555 1_555
C11 C9 1_555 1_555
H8 C11 1_555 1_555
C12 C11 1_555 1_555
H9 C12 1_555 1_555
H10 C12 1_555 1_555
C13 N1 1_555 1_555
C14 O3 1_555 1_555
C15 C14 1_555 1_555
H11 C15 1_555 1_555
H12 C15 1_555 1_555
H13 C15 1_555 1_555
C16 C14 1_555 1_555
H14 C16 1_555 1_555
H15 C16 1_555 1_555
H16 C16 1_555 1_555
C17 C14 1_555 1_555
H17 C17 1_555 1_555
H18 C17 1_555 1_555
H19 C17 1_555 1_555
C5 C6 1_555 1_555
C7 C8 1_555 1_555
C9 C10 1_555 1_555

#END
