
#######################################################################
#
#                 Cambridge Crystallographic Data Centre
#                                CCDC 
#
#######################################################################
#
# If this CIF has been generated from an entry in the Cambridge 
# Structural Database, then it will include bibliographic, chemical, 
# crystal, experimental, refinement or atomic coordinate data resulting 
# from the CCDC's data processing and validation procedures.
#
#######################################################################

data_KEZZEX
_chemical_formula_moiety         'C18 H21 Br1 N2 O5'
_chemical_name_systematic        
't-butyl 5-bromo-3-ethenyl-3-methyl-3a-nitro-2,3,3a,8a-tetrahydro-8H-furo[2,3-b]indole-8-carboxylate'
_symmetry_cell_setting           orthorhombic
_symmetry_space_group_name_H-M   'P 21 21 21'
_symmetry_Int_Tables_number      19
_space_group_name_Hall           'P 2ac 2ab'
loop_
_symmetry_equiv_pos_site_id
_symmetry_equiv_pos_as_xyz
1 x,y,z
2 1/2-x,-y,1/2+z
3 -x,1/2+y,1/2-z
4 1/2+x,1/2-y,-z
_cell_length_a                   6.911(5)
_cell_length_b                   14.009(9)
_cell_length_c                   19.385(13)
_cell_angle_alpha                90
_cell_angle_beta                 90
_cell_angle_gamma                90
_cell_volume                     1876.78
_exptl_crystal_colour            colorless
_exptl_crystal_description       prismatic
_cell_formula_units_Z            4
loop_
_atom_site_label
_atom_site_type_symbol
_atom_site_fract_x
_atom_site_fract_y
_atom_site_fract_z
Br1 Br 0.54777(7) 0.98057(4) 1.22415(2)
N1 N 0.6504(5) 0.8707(2) 0.92685(16)
N2 N 0.7174(6) 1.1102(3) 0.9519(2)
O1 O 0.9553(5) 0.9122(2) 0.87893(15)
O2 O 0.6354(6) 1.1278(3) 0.89906(19)
O3 O 0.7321(6) 1.1653(2) 0.99934(19)
O4 O 0.4593(5) 0.7421(2) 0.90926(14)
O5 O 0.6129(5) 0.8160(2) 0.82113(15)
C1 C 0.6173(6) 0.8835(3) 0.99770(19)
C2 C 0.5055(6) 0.8291(3) 1.0420(2)
H1 H 0.4415 0.7748 1.0265
C3 C 0.4922(6) 0.8579(3) 1.1096(2)
H2 H 0.4212 0.8213 1.1406
C4 C 0.5806(6) 0.9387(3) 1.1320(2)
C5 C 0.6919(6) 0.9938(3) 1.08799(19)
H3 H 0.7532 1.0487 1.1037
C6 C 0.7095(5) 0.9650(3) 1.02053(18)
C7 C 0.8104(5) 1.0133(3) 0.96171(19)
C8 C 0.7751(6) 0.9461(3) 0.8995(2)
H4 H 0.7110 0.9802 0.8617
C9 C 1.0889(7) 0.9281(3) 0.9334(2)
H5 H 1.2203 0.9296 0.9159
H6 H 1.0792 0.8779 0.9677
C10 C 1.0347(6) 1.0240(3) 0.96457(19)
C11 C 1.1172(6) 1.0308(4) 1.0363(2)
H7 H 1.0898 0.9804 1.0659
C12 C 1.2214(9) 1.0986(4) 1.0610(3)
H8 H 1.2531 1.1507 1.0335
H9 H 1.2651 1.0955 1.1063
C13 C 1.1038(8) 1.1038(3) 0.9163(3)
H10 H 1.0701 1.1647 0.9357
H11 H 1.0428 1.0968 0.8721
H12 H 1.2417 1.0999 0.9110
C14 C 0.5624(7) 0.8028(3) 0.8866(2)
C15 C 0.5133(7) 0.7629(3) 0.7648(2)
C16 C 0.6121(11) 0.8014(4) 0.7024(3)
H13 H 0.7475 0.7863 0.7044
H14 H 0.5959 0.8694 0.7007
H15 H 0.5565 0.7733 0.6618
C17 C 0.5431(9) 0.6574(3) 0.7722(3)
H16 H 0.4834 0.6250 0.7342
H17 H 0.4858 0.6361 0.8146
H18 H 0.6792 0.6437 0.7727
C18 C 0.3015(8) 0.7895(4) 0.7653(3)
H19 H 0.2890 0.8578 0.7650
H20 H 0.2416 0.7643 0.8061
H21 H 0.2394 0.7634 0.7253
loop_
_geom_bond_atom_site_label_1
_geom_bond_atom_site_label_2
_geom_bond_site_symmetry_1
_geom_bond_site_symmetry_2
Br1 C4 1_555 1_555
N1 C1 1_555 1_555
N2 O2 1_555 1_555
O1 C8 1_555 1_555
O3 N2 1_555 1_555
O4 C14 1_555 1_555
O5 C14 1_555 1_555
C1 C2 1_555 1_555
C2 H1 1_555 1_555
C3 C2 1_555 1_555
H2 C3 1_555 1_555
C4 C3 1_555 1_555
C5 C4 1_555 1_555
H3 C5 1_555 1_555
C6 C1 1_555 1_555
C7 N2 1_555 1_555
C8 N1 1_555 1_555
H4 C8 1_555 1_555
C9 O1 1_555 1_555
H5 C9 1_555 1_555
H6 C9 1_555 1_555
C10 C7 1_555 1_555
C11 C10 1_555 1_555
H7 C11 1_555 1_555
C12 C11 1_555 1_555
H8 C12 1_555 1_555
H9 C12 1_555 1_555
C13 C10 1_555 1_555
H10 C13 1_555 1_555
H11 C13 1_555 1_555
H12 C13 1_555 1_555
C14 N1 1_555 1_555
C15 O5 1_555 1_555
C16 C15 1_555 1_555
H13 C16 1_555 1_555
H14 C16 1_555 1_555
H15 C16 1_555 1_555
C17 C15 1_555 1_555
H16 C17 1_555 1_555
H17 C17 1_555 1_555
H18 C17 1_555 1_555
C18 C15 1_555 1_555
H19 C18 1_555 1_555
H20 C18 1_555 1_555
H21 C18 1_555 1_555
C5 C6 1_555 1_555
C6 C7 1_555 1_555
C7 C8 1_555 1_555
C9 C10 1_555 1_555

#END
