
#######################################################################
#
#                 Cambridge Crystallographic Data Centre
#                                CCDC 
#
#######################################################################
#
# If this CIF has been generated from an entry in the Cambridge 
# Structural Database, then it will include bibliographic, chemical, 
# crystal, experimental, refinement or atomic coordinate data resulting 
# from the CCDC's data processing and validation procedures.
#
#######################################################################

data_KHDBEZ01
_chemical_formula_moiety         'C14 H11 O4 1-,K1 1+'
_chemical_name_systematic        'Potassium hydrogen bis(benzoate)'
_symmetry_cell_setting           monoclinic
_symmetry_space_group_name_H-M   'C 2/c'
_symmetry_Int_Tables_number      15
_space_group_name_Hall           '-C 2yn'
loop_
_symmetry_equiv_pos_site_id
_symmetry_equiv_pos_as_xyz
1 x,y,z
2 -x,y,1/2-z
3 1/2+x,1/2+y,z
4 1/2-x,1/2+y,1/2-z
5 -x,-y,-z
6 x,-y,1/2+z
7 1/2-x,1/2-y,-z
8 1/2+x,1/2-y,1/2+z
_cell_length_a                   29.585(13)
_cell_length_b                   3.8211(18)
_cell_length_c                   11.156(5)
_cell_angle_alpha                90
_cell_angle_beta                 97.327(5)
_cell_angle_gamma                90
_cell_volume                     1250.86
_cell_formula_units_Z            4
loop_
_atom_site_label
_atom_site_type_symbol
_atom_site_fract_x
_atom_site_fract_y
_atom_site_fract_z
K1 K 0.5000 0.1764(2) 0.7500
O1 O 0.55466(6) -0.3000(5) 0.87335(17)
C1 C 0.56599(9) -0.3454(7) 0.9824(2)
C2 C 0.61404(9) -0.2884(7) 1.0383(2)
C3 C 0.67350(10) -0.3405(7) 1.2054(3)
C4 C 0.64510(10) -0.1393(7) 0.9695(3)
C5 C 0.70418(9) -0.1937(8) 1.1364(3)
C6 C 0.62847(9) -0.3878(7) 1.1571(3)
C7 C 0.69000(10) -0.0916(7) 1.0183(3)
O2 O 0.53793(6) -0.4510(6) 1.05474(17)
H1 H 0.7354(12) -0.168(8) 1.168(3)
H2 H 0.6076(10) -0.492(9) 1.201(3)
H3 H 0.7114(12) 0.005(10) 0.971(3)
H4 H 0.6824(11) -0.412(10) 1.290(3)
H5 H 0.6355(11) -0.075(9) 0.888(3)
H6 H 0.5000 -0.5000 1.0000
O1D O 0.44534(6) -0.7000(5) 1.12665(17)
C1D C 0.43401(9) -0.6546(7) 1.0176(2)
C2D C 0.38596(9) -0.7116(7) 0.9617(2)
C3D C 0.32650(10) -0.6595(7) 0.7946(3)
C4D C 0.35490(10) -0.8607(7) 1.0305(3)
C5D C 0.29582(9) -0.8063(8) 0.8636(3)
C6D C 0.37153(9) -0.6122(7) 0.8429(3)
C7D C 0.31000(10) -0.9084(7) 0.9817(3)
O2D O 0.46207(6) -0.5490(6) 0.94526(17)
H1D H 0.2646(12) -0.832(8) 0.832(3)
H2D H 0.3924(10) -0.508(9) 0.799(3)
H3D H 0.2886(12) -1.005(10) 1.029(3)
H4D H 0.3176(11) -0.588(10) 0.710(3)
H5D H 0.3645(11) -0.925(9) 1.112(3)
loop_
_geom_bond_atom_site_label_1
_geom_bond_atom_site_label_2
_geom_bond_site_symmetry_1
_geom_bond_site_symmetry_2
O1 C1 1_555 1_555
C1 C2 1_555 1_555
C2 C4 1_555 1_555
C3 C5 1_555 1_555
C4 C7 1_555 1_555
C5 C7 1_555 1_555
C6 C2 1_555 1_555
C7 H3 1_555 1_555
O2 C1 1_555 1_555
H1 C5 1_555 1_555
H2 C6 1_555 1_555
H4 C3 1_555 1_555
H5 C4 1_555 1_555
H6 O2 1_555 1_555
O1D C1D 1_555 1_555
C1D C2D 1_555 1_555
C2D C4D 1_555 1_555
C3D C5D 1_555 1_555
C4D C7D 1_555 1_555
C5D C7D 1_555 1_555
C6D C2D 1_555 1_555
C7D H3D 1_555 1_555
O2D H6 1_555 1_555
H1D C5D 1_555 1_555
H2D C6D 1_555 1_555
H4D C3D 1_555 1_555
H5D C4D 1_555 1_555
C3 C6 1_555 1_555
C1D O2D 1_555 1_555
C3D C6D 1_555 1_555

#END
