
#######################################################################
#
#                 Cambridge Crystallographic Data Centre
#                                CCDC 
#
#######################################################################
#
# If this CIF has been generated from an entry in the Cambridge 
# Structural Database, then it will include bibliographic, chemical, 
# crystal, experimental, refinement or atomic coordinate data resulting 
# from the CCDC's data processing and validation procedures.
#
#######################################################################

data_KIBCIJ
_chemical_formula_moiety         'C52 H38 N4 Na2 O8,2(H2 O1)'
_chemical_name_systematic        
'bis(\m~2~-aqua)-bis(2-benzoylbenzoato)-bis(1,10-phenanthroline)-di-sodium dihydrate'
_symmetry_cell_setting           triclinic
_symmetry_space_group_name_H-M   'P -1'
_symmetry_Int_Tables_number      2
_space_group_name_Hall           '-P 1'
loop_
_symmetry_equiv_pos_site_id
_symmetry_equiv_pos_as_xyz
1 x,y,z
2 -x,-y,-z
_cell_length_a                   10.8096(8)
_cell_length_b                   10.9619(8)
_cell_length_c                   10.9740(8)
_cell_angle_alpha                79.0600(10)
_cell_angle_beta                 71.0450(10)
_cell_angle_gamma                62.0540(10)
_cell_volume                     1085.33
_exptl_crystal_colour            colorless
_exptl_crystal_description       block
_cell_formula_units_Z            1
loop_
_atom_site_label
_atom_site_type_symbol
_atom_site_fract_x
_atom_site_fract_y
_atom_site_fract_z
Na1 Na 0.88341(7) 0.94640(7) 0.12011(6)
O1 O 1.23534(13) 0.60681(12) 0.01425(11)
O2 O 1.05220(13) 0.81577(12) 0.22622(11)
O3 O 1.04829(13) 0.84507(12) 0.42360(11)
O4 O 0.94837(14) 1.13654(12) 0.08623(11)
H1 H 0.8892 1.2157 0.0668
H2 H 0.9453 1.1370 0.1637
N1 N 0.69541(16) 0.89363(14) 0.28667(13)
N2 N 0.64693(16) 1.06804(14) 0.07553(13)
C1 C 0.55773(19) 0.95909(16) 0.27373(15)
C2 C 0.7173(2) 0.81064(18) 0.39008(17)
H3 H 0.8113 0.7648 0.3993
C3 C 0.6072(2) 0.78803(18) 0.48608(17)
H4 H 0.6281 0.7291 0.5572
C4 C 0.4682(2) 0.85366(18) 0.47416(16)
H5 H 0.3934 0.8404 0.5374
C5 C 0.43990(19) 0.94182(17) 0.36472(16)
C6 C 0.29763(19) 1.01375(18) 0.34509(17)
H6 H 0.2202 1.0019 0.4055
C7 C 0.2745(2) 1.09846(18) 0.24003(17)
H7 H 0.1813 1.1436 0.2287
C8 C 0.39041(19) 1.12014(17) 0.14582(16)
C9 C 0.3701(2) 1.20772(17) 0.03495(17)
H8 H 0.2783 1.2547 0.0208
C10 C 0.4858(2) 1.22322(18) -0.05162(17)
H9 H 0.4741 1.2806 -0.1253
C11 C 0.6228(2) 1.15103(17) -0.02735(16)
H10 H 0.7011 1.1622 -0.0869
C12 C 0.53222(18) 1.05181(16) 0.16154(15)
C13 C 1.25425(18) 0.66202(17) 0.30247(15)
C14 C 1.30419(18) 0.56778(16) 0.20751(15)
C15 C 1.44485(19) 0.46147(18) 0.18448(16)
H11 H 1.4777 0.3987 0.1218
C16 C 1.53634(19) 0.44908(19) 0.25531(16)
H12 H 1.6301 0.3776 0.2405
C17 C 1.48775(19) 0.54331(19) 0.34784(16)
H13 H 1.5496 0.5361 0.3940
C18 C 1.34718(19) 0.64826(18) 0.37173(15)
H14 H 1.3148 0.7103 0.4350
C19 C 1.10577(18) 0.78358(16) 0.31982(15)
C20 C 1.20777(18) 0.57787(16) 0.13012(15)
C21 C 1.08771(18) 0.53689(16) 0.19617(16)
C22 C 1.0856(2) 0.46282(17) 0.31435(17)
H15 H 1.1553 0.4448 0.3560
C23 C 0.9799(2) 0.41593(18) 0.36992(18)
H16 H 0.9796 0.3652 0.4482
C24 C 0.8752(2) 0.44441(18) 0.30921(18)
H17 H 0.8047 0.4124 0.3464
C25 C 0.8747(2) 0.52061(19) 0.19297(18)
H18 H 0.8027 0.5412 0.1532
C26 C 0.9811(2) 0.56602(18) 0.13620(17)
H19 H 0.9813 0.6162 0.0577
Na1A Na 1.11659(7) 1.05360(7) -0.12011(6)
O1A O 0.76466(13) 1.39319(12) -0.01425(11)
O2A O 0.94780(13) 1.18423(12) -0.22622(11)
O3A O 0.95171(13) 1.15493(12) -0.42360(11)
O4A O 1.05163(14) 0.86346(12) -0.08623(11)
H1A H 1.1108 0.7843 -0.0668
H2A H 1.0547 0.8630 -0.1637
N1A N 1.30459(16) 1.10637(14) -0.28667(13)
N2A N 1.35307(16) 0.93196(14) -0.07553(13)
C1A C 1.44227(19) 1.04091(16) -0.27373(15)
C2A C 1.2827(2) 1.18936(18) -0.39008(17)
H3A H 1.1887 1.2352 -0.3993
C3A C 1.3928(2) 1.21197(18) -0.48608(17)
H4A H 1.3719 1.2709 -0.5572
C4A C 1.5318(2) 1.14634(18) -0.47416(16)
H5A H 1.6066 1.1596 -0.5374
C5A C 1.56010(19) 1.05818(17) -0.36472(16)
C6A C 1.70237(19) 0.98625(18) -0.34509(17)
H6A H 1.7798 0.9981 -0.4055
C7A C 1.7255(2) 0.90154(18) -0.24003(17)
H7A H 1.8187 0.8564 -0.2287
C8A C 1.60959(19) 0.87986(17) -0.14582(16)
C9A C 1.6299(2) 0.79228(17) -0.03495(17)
H8A H 1.7217 0.7453 -0.0208
C10A C 1.5142(2) 0.77678(18) 0.05162(17)
H9A H 1.5259 0.7194 0.1253
C11A C 1.3772(2) 0.84897(17) 0.02735(16)
H10A H 1.2989 0.8378 0.0869
C12A C 1.46778(18) 0.94819(16) -0.16154(15)
C13A C 0.74575(18) 1.33798(17) -0.30247(15)
C14A C 0.69581(18) 1.43222(16) -0.20751(15)
C15A C 0.55515(19) 1.53853(18) -0.18448(16)
H11A H 0.5223 1.6013 -0.1218
C16A C 0.46366(19) 1.55092(19) -0.25531(16)
H12A H 0.3699 1.6224 -0.2405
C17A C 0.51225(19) 1.45669(19) -0.34784(16)
H13A H 0.4504 1.4639 -0.3940
C18A C 0.65282(19) 1.35174(18) -0.37173(15)
H14A H 0.6852 1.2897 -0.4350
C19A C 0.89423(18) 1.21642(16) -0.31982(15)
C20A C 0.79223(18) 1.42213(16) -0.13012(15)
C21A C 0.91229(18) 1.46311(16) -0.19617(16)
C22A C 0.9144(2) 1.53718(17) -0.31435(17)
H15A H 0.8447 1.5552 -0.3560
C23A C 1.0201(2) 1.58407(18) -0.36992(18)
H16A H 1.0204 1.6348 -0.4482
C24A C 1.1248(2) 1.55559(18) -0.30921(18)
H17A H 1.1953 1.5876 -0.3464
C25A C 1.1253(2) 1.47939(19) -0.19297(18)
H18A H 1.1973 1.4588 -0.1532
C26A C 1.0189(2) 1.43398(18) -0.13620(17)
H19A H 1.0187 1.3838 -0.0577
O5 O 0.09894(14) 0.88023(12) 0.64876(11)
H20 H 0.0633 0.9665 0.6363
H21 H 0.0842 0.8490 0.5933
loop_
_geom_bond_atom_site_label_1
_geom_bond_atom_site_label_2
_geom_bond_site_symmetry_1
_geom_bond_site_symmetry_2
Na1 O2 1_555 1_555
O1 C20 1_555 1_555
O2 C19 1_555 1_555
O3 C19 1_555 1_555
O4 Na1 1_555 1_555
H1 O4 1_555 1_555
H2 O4 1_555 1_555
N1 Na1 1_555 1_555
N2 Na1 1_555 1_555
C1 N1 1_555 1_555
C2 N1 1_555 1_555
H3 C2 1_555 1_555
C3 C2 1_555 1_555
H4 C3 1_555 1_555
C4 C3 1_555 1_555
H5 C4 1_555 1_555
C5 C1 1_555 1_555
C6 C5 1_555 1_555
H6 C6 1_555 1_555
C7 C6 1_555 1_555
H7 C7 1_555 1_555
C8 C7 1_555 1_555
C9 C8 1_555 1_555
H8 C9 1_555 1_555
C10 C9 1_555 1_555
H9 C10 1_555 1_555
C11 N2 1_555 1_555
H10 C11 1_555 1_555
C12 N2 1_555 1_555
C13 C14 1_555 1_555
C14 C15 1_555 1_555
C15 H11 1_555 1_555
C16 C15 1_555 1_555
H12 C16 1_555 1_555
C17 C16 1_555 1_555
H13 C17 1_555 1_555
C18 C13 1_555 1_555
H14 C18 1_555 1_555
C19 C13 1_555 1_555
C20 C14 1_555 1_555
C21 C20 1_555 1_555
C22 C21 1_555 1_555
H15 C22 1_555 1_555
C23 C22 1_555 1_555
H16 C23 1_555 1_555
C24 C23 1_555 1_555
H17 C24 1_555 1_555
C25 C24 1_555 1_555
H18 C25 1_555 1_555
C26 C21 1_555 1_555
H19 C26 1_555 1_555
O5 H20 1_555 1_555
H21 O5 1_555 1_555
Na1A O4 1_555 1_555
O1A C20A 1_555 1_555
O2A Na1A 1_555 1_555
O3A C19A 1_555 1_555
O4A Na1 1_555 1_555
H1A O4A 1_555 1_555
H2A O4A 1_555 1_555
N1A Na1A 1_555 1_555
N2A Na1A 1_555 1_555
C1A N1A 1_555 1_555
C2A N1A 1_555 1_555
H3A C2A 1_555 1_555
C3A C2A 1_555 1_555
H4A C3A 1_555 1_555
C4A C3A 1_555 1_555
H5A C4A 1_555 1_555
C5A C1A 1_555 1_555
C6A C5A 1_555 1_555
H6A C6A 1_555 1_555
C7A C6A 1_555 1_555
H7A C7A 1_555 1_555
C8A C7A 1_555 1_555
C9A C8A 1_555 1_555
H8A C9A 1_555 1_555
C10A C9A 1_555 1_555
H9A C10A 1_555 1_555
C11A N2A 1_555 1_555
H10A C11A 1_555 1_555
C12A N2A 1_555 1_555
C13A C14A 1_555 1_555
C14A C15A 1_555 1_555
C15A H11A 1_555 1_555
C16A C15A 1_555 1_555
H12A C16A 1_555 1_555
C17A C16A 1_555 1_555
H13A C17A 1_555 1_555
C18A C13A 1_555 1_555
H14A C18A 1_555 1_555
C19A O2A 1_555 1_555
C20A C14A 1_555 1_555
C21A C20A 1_555 1_555
C22A C21A 1_555 1_555
H15A C22A 1_555 1_555
C23A C22A 1_555 1_555
H16A C23A 1_555 1_555
C24A C23A 1_555 1_555
H17A C24A 1_555 1_555
C25A C24A 1_555 1_555
H18A C25A 1_555 1_555
C26A C21A 1_555 1_555
H19A C26A 1_555 1_555
C1 C12 1_555 1_555
C4 C5 1_555 1_555
C8 C12 1_555 1_555
C10 C11 1_555 1_555
C17 C18 1_555 1_555
C25 C26 1_555 1_555
Na1A O4A 1_555 1_555
C1A C12A 1_555 1_555
C4A C5A 1_555 1_555
C8A C12A 1_555 1_555
C10A C11A 1_555 1_555
C13A C19A 1_555 1_555
C17A C18A 1_555 1_555
C25A C26A 1_555 1_555

#END
