
#######################################################################
#
#                 Cambridge Crystallographic Data Centre
#                                CCDC 
#
#######################################################################
#
# If this CIF has been generated from an entry in the Cambridge 
# Structural Database, then it will include bibliographic, chemical, 
# crystal, experimental, refinement or atomic coordinate data resulting 
# from the CCDC's data processing and validation procedures.
#
#######################################################################

data_KIBFIM
_chemical_formula_moiety         'C14 H9 N1 O2 S1'
_chemical_name_systematic        
Phenyl(5-(3-thienyl)-1,2-oxazol-3-yl)methanone
_symmetry_cell_setting           monoclinic
_symmetry_space_group_name_H-M   'C 2/c'
_symmetry_Int_Tables_number      15
_space_group_name_Hall           '-C 2yn'
loop_
_symmetry_equiv_pos_site_id
_symmetry_equiv_pos_as_xyz
1 x,y,z
2 -x,y,1/2-z
3 1/2+x,1/2+y,z
4 1/2-x,1/2+y,1/2-z
5 -x,-y,-z
6 x,-y,1/2+z
7 1/2-x,1/2-y,-z
8 1/2+x,1/2-y,1/2+z
_cell_length_a                   21.913(13)
_cell_length_b                   6.406(4)
_cell_length_c                   17.049(10)
_cell_angle_alpha                90
_cell_angle_beta                 96.108(5)
_cell_angle_gamma                90
_cell_volume                     2379.66
_exptl_crystal_colour            colorless
_exptl_crystal_description       block
_cell_formula_units_Z            8
loop_
_atom_site_label
_atom_site_type_symbol
_atom_site_fract_x
_atom_site_fract_y
_atom_site_fract_z
C1 C 0.17445(14) -0.2471(5) 0.69800(17)
H1 H 0.2158 -0.2166 0.7109
C2 C 0.14897(16) -0.4175(5) 0.73155(18)
H2 H 0.1731 -0.5012 0.7670
C3 C 0.08783(16) -0.4642(5) 0.71269(19)
H3 H 0.0705 -0.5787 0.7355
C4 C 0.05265(15) -0.3405(5) 0.65995(19)
H4 H 0.0114 -0.3725 0.6468
C5 C 0.07778(13) -0.1689(4) 0.62617(17)
H5 H 0.0534 -0.0862 0.5907
C6 C 0.13877(12) -0.1198(4) 0.64480(15)
C7 C 0.16972(14) 0.0627(5) 0.61247(17)
C8 C 0.13782(12) 0.2199(4) 0.55801(15)
C9 C 0.16780(13) 0.3806(4) 0.52146(17)
H6 H 0.2099 0.4044 0.5244
C10 C 0.12320(13) 0.4929(4) 0.48141(16)
C11 C 0.12260(13) 0.6788(4) 0.43357(16)
C12 C 0.17697(15) 0.7788(5) 0.41390(18)
H7 H 0.2163 0.7301 0.4301
C13 C 0.16532(15) 0.9549(5) 0.36844(18)
H8 H 0.1953 1.0389 0.3500
C14 C 0.07135(14) 0.7840(4) 0.40252(18)
H9 H 0.0315 0.7431 0.4090
N1 N 0.07821(11) 0.2305(4) 0.54111(14)
O1 O 0.22460(10) 0.0937(4) 0.63002(16)
O2 O 0.06848(9) 0.4061(3) 0.49211(12)
S1 S 0.08890(5) 0.99748(14) 0.35083(5)
loop_
_geom_bond_atom_site_label_1
_geom_bond_atom_site_label_2
_geom_bond_site_symmetry_1
_geom_bond_site_symmetry_2
C1 H1 1_555 1_555
C2 C1 1_555 1_555
H2 C2 1_555 1_555
C3 C2 1_555 1_555
H3 C3 1_555 1_555
C4 C3 1_555 1_555
H4 C4 1_555 1_555
C5 C4 1_555 1_555
H5 C5 1_555 1_555
C6 C1 1_555 1_555
C7 C6 1_555 1_555
C8 C7 1_555 1_555
C9 C8 1_555 1_555
H6 C9 1_555 1_555
C10 C9 1_555 1_555
C11 C10 1_555 1_555
C12 C11 1_555 1_555
H7 C12 1_555 1_555
C13 C12 1_555 1_555
H8 C13 1_555 1_555
C14 C11 1_555 1_555
H9 C14 1_555 1_555
N1 C8 1_555 1_555
O1 C7 1_555 1_555
O2 C10 1_555 1_555
S1 C13 1_555 1_555
C5 C6 1_555 1_555
C14 S1 1_555 1_555
N1 O2 1_555 1_555

#END
