
#######################################################################
#
#                 Cambridge Crystallographic Data Centre
#                                CCDC 
#
#######################################################################
#
# If this CIF has been generated from an entry in the Cambridge 
# Structural Database, then it will include bibliographic, chemical, 
# crystal, experimental, refinement or atomic coordinate data resulting 
# from the CCDC's data processing and validation procedures.
#
#######################################################################

data_KIBJIP
_chemical_formula_moiety         'C15 H18 Cl2 O3'
_chemical_name_systematic        
(1S,4R,5S,1'R)-7-Oxo-8,8-dichloro-2',2'-dimethyl-1'-ethoxycarbonylbicyclo(3.3.0)oct-2-ene-4-spiro-3'-cyclopropane
_symmetry_cell_setting           orthorhombic
_symmetry_space_group_name_H-M   'P 21 21 21'
_symmetry_Int_Tables_number      19
_space_group_name_Hall           'P 2ac 2ab'
loop_
_symmetry_equiv_pos_site_id
_symmetry_equiv_pos_as_xyz
1 x,y,z
2 1/2+x,1/2-y,-z
3 -x,1/2+y,1/2-z
4 1/2-x,-y,1/2+z
_cell_length_a                   12.595(4)
_cell_length_b                   12.131(3)
_cell_length_c                   10.071(3)
_cell_angle_alpha                90
_cell_angle_beta                 90
_cell_angle_gamma                90
_cell_volume                     1538.75
_exptl_crystal_colour            colorless
_chemical_melting_point          98deg.C
_cell_formula_units_Z            4
loop_
_atom_site_label
_atom_site_type_symbol
_atom_site_fract_x
_atom_site_fract_y
_atom_site_fract_z
C1 C 0.4856(3) 0.3248(3) 0.0374(4)
C2 C 0.5163(1) 0.4413(1) 0.0731(1)
C3 C 0.5570(3) 0.4950(3) -0.0286(4)
C4 C 0.5626(3) 0.4233(3) -0.1490(4)
C5 C 0.5459(3) 0.3074(3) -0.0952(4)
C6 C 0.6522(3) 0.2505(3) -0.0562(4)
C7 C 0.6460(3) 0.2222(3) 0.0874(4)
C8 C 0.5289(3) 0.2373(3) 0.1302(4)
Cl1 Cl 0.4666(1) 0.1070(1) 0.0935(1)
Cl2 Cl 0.5154(1) 0.2634(1) 0.3018(1)
O3 O 0.7169(3) 0.1957(3) 0.1591(4)
C9 C 0.4363(3) 0.3922(4) -0.3550(4)
C10 C 0.2701(6) 0.3861(6) -0.4669(6)
C11 C 0.2422(7) 0.4330(6) -0.5880(9)
O1 O 0.3522(3) 0.4476(3) -0.3959(3)
O2 O 0.4505(3) 0.2962(3) -0.3782(4)
C12 C 0.6909(4) 0.5562(4) -0.2692(6)
C13 C 0.6802(4) 0.3611(4) -0.3498(6)
loop_
_geom_bond_atom_site_label_1
_geom_bond_atom_site_label_2
_geom_bond_site_symmetry_1
_geom_bond_site_symmetry_2
C1 C2 1_555 1_555
C2 C3 1_555 1_555
C3 C4 1_555 1_555
C4 C5 1_555 1_555
C5 C1 1_555 1_555
C6 C5 1_555 1_555
C7 C6 1_555 1_555
C8 C1 1_555 1_555
C9 O1 1_555 1_555
C10 C11 1_555 1_555
Cl1 C8 1_555 1_555
Cl2 C8 1_555 1_555
O1 C10 1_555 1_555
O2 C9 1_555 1_555
O3 C7 1_555 1_555
C7 C8 1_555 1_555

#END
