
#######################################################################
#
#                 Cambridge Crystallographic Data Centre
#                                CCDC 
#
#######################################################################
#
# If this CIF has been generated from an entry in the Cambridge 
# Structural Database, then it will include bibliographic, chemical, 
# crystal, experimental, refinement or atomic coordinate data resulting 
# from the CCDC's data processing and validation procedures.
#
#######################################################################

data_KIBLOZ
_chemical_formula_moiety         'C26 H19 N3 S6'
_chemical_name_systematic        
6,7-bis(2,5-dimethylthiophen-3-yl)-2-(2H,5H-[1,3]dithiolo[4,5-c]pyrrol-2-ylidene)-2H-[1,3]dithiolo[4,5-g]quinoxaline
_symmetry_cell_setting           monoclinic
_symmetry_space_group_name_H-M   'C 2/c'
_symmetry_Int_Tables_number      15
_space_group_name_Hall           '-C 2yn'
loop_
_symmetry_equiv_pos_site_id
_symmetry_equiv_pos_as_xyz
1 x,y,z
2 -x,y,1/2-z
3 1/2+x,1/2+y,z
4 1/2-x,1/2+y,1/2-z
5 -x,-y,-z
6 x,-y,1/2+z
7 1/2-x,1/2-y,-z
8 1/2+x,1/2-y,1/2+z
_cell_length_a                   29.9118(11)
_cell_length_b                   20.1932(11)
_cell_length_c                   9.8958(4)
_cell_angle_alpha                90
_cell_angle_beta                 102.473(4)
_cell_angle_gamma                90
_cell_volume                     5836.14
_exptl_crystal_colour            orange
_exptl_crystal_description       plate
_cell_formula_units_Z            8
loop_
_atom_site_label
_atom_site_type_symbol
_atom_site_fract_x
_atom_site_fract_y
_atom_site_fract_z
C1 C 0.20185(19) -0.2690(3) 0.8613(5)
H1 H 0.2145 -0.3121 0.8584
C2 C 0.20096(17) -0.2200(2) 0.7673(5)
C3 C 0.17831(17) -0.1644(2) 0.8103(5)
C4 C 0.16694(18) -0.1818(3) 0.9329(5)
H2 H 0.1519 -0.1546 0.9877
C5 C 0.21013(16) -0.1264(2) 0.6039(4)
C6 C 0.23007(17) -0.0854(2) 0.5283(4)
C7 C 0.26619(16) 0.0173(2) 0.4375(4)
C8 C 0.27997(15) 0.0814(2) 0.4150(5)
H3 H 0.2662 0.1183 0.4495
C9 C 0.31426(15) 0.0909(2) 0.3411(4)
C10 C 0.33256(16) 0.0370(2) 0.2831(4)
C11 C 0.32002(16) -0.0285(2) 0.3099(4)
H4 H 0.3335 -0.0654 0.2745
C12 C 0.28771(16) -0.0372(2) 0.3886(4)
C13 C 0.37442(16) 0.1078(2) 0.1759(4)
C14 C 0.39990(16) 0.1190(2) 0.0643(4)
C15 C 0.39635(17) 0.1787(3) -0.0160(5)
H5 H 0.3795 0.2164 0.0021
C16 C 0.41907(17) 0.1764(3) -0.1191(5)
C17 C 0.42624(16) 0.0719(2) 0.0199(5)
C18 C 0.4243(2) 0.2291(3) -0.2216(6)
H6 H 0.4068 0.2684 -0.2066
H7 H 0.4129 0.2124 -0.3158
H8 H 0.4568 0.2408 -0.2094
C19 C 0.4381(2) 0.0031(3) 0.0679(7)
H9 H 0.4487 0.0028 0.1688
H10 H 0.4624 -0.0138 0.0249
H11 H 0.4109 -0.0252 0.0418
C20 C 0.36184(16) 0.1616(2) 0.2569(4)
C21 C 0.38392(17) 0.2272(2) 0.2673(4)
C22 C 0.35863(18) 0.2881(2) 0.2358(5)
H12 H 0.3265 0.2896 0.2006
C23 C 0.3851(2) 0.3426(3) 0.2612(5)
C24 C 0.42955(18) 0.2376(3) 0.3201(5)
C25 C 0.3726(3) 0.4143(3) 0.2447(7)
H13 H 0.3877 0.4344 0.1761
H14 H 0.3826 0.4370 0.3337
H15 H 0.3393 0.4186 0.2135
C26 C 0.4658(2) 0.1866(4) 0.3784(7)
H16 H 0.4598 0.1686 0.4647
H17 H 0.4960 0.2076 0.3968
H18 H 0.4649 0.1507 0.3113
N1 N 0.18109(15) -0.2446(2) 0.9608(4)
H19 H 0.1774 -0.2670 1.0339
N2 N 0.36129(13) 0.04669(18) 0.1957(3)
N3 N 0.33061(13) 0.15330(19) 0.3308(4)
S1 S 0.21909(5) -0.21207(6) 0.61163(12)
S2 S 0.17081(5) -0.09560(7) 0.70011(12)
S3 S 0.22158(4) 0.00012(6) 0.52110(13)
S4 S 0.26730(5) -0.11532(6) 0.42529(13)
S5 S 0.44653(4) 0.10132(7) -0.11865(12)
S6 S 0.44186(5) 0.32036(8) 0.32798(17)
loop_
_geom_bond_atom_site_label_1
_geom_bond_atom_site_label_2
_geom_bond_site_symmetry_1
_geom_bond_site_symmetry_2
C1 H1 1_555 1_555
C2 C1 1_555 1_555
C3 C2 1_555 1_555
C4 C3 1_555 1_555
H2 C4 1_555 1_555
C5 C6 1_555 1_555
C6 S3 1_555 1_555
C7 C8 1_555 1_555
C8 H3 1_555 1_555
C9 C8 1_555 1_555
C10 C9 1_555 1_555
C11 C10 1_555 1_555
H4 C11 1_555 1_555
C12 C7 1_555 1_555
C13 C14 1_555 1_555
C14 C15 1_555 1_555
C15 H5 1_555 1_555
C16 C15 1_555 1_555
C17 C14 1_555 1_555
C18 C16 1_555 1_555
H6 C18 1_555 1_555
H7 C18 1_555 1_555
H8 C18 1_555 1_555
C19 C17 1_555 1_555
H9 C19 1_555 1_555
H10 C19 1_555 1_555
H11 C19 1_555 1_555
C20 C13 1_555 1_555
C21 C20 1_555 1_555
C22 C21 1_555 1_555
H12 C22 1_555 1_555
C23 C22 1_555 1_555
C24 C21 1_555 1_555
C25 C23 1_555 1_555
H13 C25 1_555 1_555
H14 C25 1_555 1_555
H15 C25 1_555 1_555
C26 C24 1_555 1_555
H16 C26 1_555 1_555
H17 C26 1_555 1_555
H18 C26 1_555 1_555
N1 C1 1_555 1_555
H19 N1 1_555 1_555
N2 C10 1_555 1_555
N3 C9 1_555 1_555
S1 C2 1_555 1_555
S2 C3 1_555 1_555
S3 C7 1_555 1_555
S4 C6 1_555 1_555
S5 C16 1_555 1_555
S6 C23 1_555 1_555
C4 N1 1_555 1_555
C5 S1 1_555 1_555
C5 S2 1_555 1_555
C11 C12 1_555 1_555
C12 S4 1_555 1_555
C13 N2 1_555 1_555
C17 S5 1_555 1_555
C20 N3 1_555 1_555
C24 S6 1_555 1_555

#END
