
#######################################################################
#
#                 Cambridge Crystallographic Data Centre
#                                CCDC 
#
#######################################################################
#
# If this CIF has been generated from an entry in the Cambridge 
# Structural Database, then it will include bibliographic, chemical, 
# crystal, experimental, refinement or atomic coordinate data resulting 
# from the CCDC's data processing and validation procedures.
#
#######################################################################

data_KIBRIZ
_chemical_formula_moiety         'C6 N8 O7'
_chemical_name_systematic        
4,4'-(1,2,4-oxadiazole-3,5-diyl)bis(3-nitro-1,2,5-oxadiazole)
_symmetry_cell_setting           orthorhombic
_symmetry_space_group_name_H-M   'P 21 21 21'
_symmetry_Int_Tables_number      19
_space_group_name_Hall           'P 2ac 2ab'
loop_
_symmetry_equiv_pos_site_id
_symmetry_equiv_pos_as_xyz
1 x,y,z
2 1/2+x,1/2-y,-z
3 -x,1/2+y,1/2-z
4 1/2-x,-y,1/2+z
_cell_length_a                   7.9005(16)
_cell_length_b                   8.6819(17)
_cell_length_c                   14.567(3)
_cell_angle_alpha                90
_cell_angle_beta                 90
_cell_angle_gamma                90
_cell_volume                     999.17
_exptl_crystal_colour            colorless
_exptl_crystal_description       irregular
_cell_formula_units_Z            4
loop_
_atom_site_label
_atom_site_type_symbol
_atom_site_fract_x
_atom_site_fract_y
_atom_site_fract_z
O1 O 0.87595(14) 0.54160(12) 0.91404(7)
N1 N 0.88165(17) 0.41563(14) 0.97398(9)
C1 C 1.01058(19) 0.44716(17) 1.02747(10)
N2 N 1.09085(16) 0.58262(15) 1.00982(9)
C2 C 1.00240(19) 0.63272(17) 0.94017(10)
C3 C 1.03755(19) 0.77514(17) 0.88938(10)
N3 N 1.16823(17) 0.85845(15) 0.91448(9)
O2 O 1.17162(14) 0.98257(12) 0.85573(7)
N4 N 1.04286(16) 0.97572(15) 0.79292(9)
C4 C 0.96260(19) 0.84973(17) 0.81250(10)
N5 N 0.81792(17) 0.80612(15) 0.75597(9)
O3 O 0.70882(14) 0.72770(13) 0.79167(8)
O4 O 0.81934(15) 0.85279(14) 0.67616(8)
C5 C 1.06234(19) 0.34673(18) 1.10402(11)
N6 N 1.14416(18) 0.40612(15) 1.17349(9)
O5 O 1.17601(16) 0.28492(13) 1.23245(8)
N7 N 1.11305(17) 0.14866(15) 1.19884(9)
C6 C 1.04440(19) 0.18594(18) 1.12154(10)
N8 N 0.97194(17) 0.06486(15) 1.06414(9)
O6 O 0.95417(15) -0.06192(13) 1.09774(8)
O7 O 0.93723(14) 0.10286(13) 0.98511(8)
loop_
_geom_bond_atom_site_label_1
_geom_bond_atom_site_label_2
_geom_bond_site_symmetry_1
_geom_bond_site_symmetry_2
O1 N1 1_555 1_555
N1 C1 1_555 1_555
C1 N2 1_555 1_555
N2 C2 1_555 1_555
C2 O1 1_555 1_555
C3 C2 1_555 1_555
N3 C3 1_555 1_555
O2 N3 1_555 1_555
N4 O2 1_555 1_555
C4 C3 1_555 1_555
N5 C4 1_555 1_555
O3 N5 1_555 1_555
O4 N5 1_555 1_555
C5 C1 1_555 1_555
N6 C5 1_555 1_555
O5 N6 1_555 1_555
N7 O5 1_555 1_555
C6 C5 1_555 1_555
N8 C6 1_555 1_555
O6 N8 1_555 1_555
O7 N8 1_555 1_555
N4 C4 1_555 1_555
N7 C6 1_555 1_555

#END
