
#######################################################################
#
#                 Cambridge Crystallographic Data Centre
#                                CCDC 
#
#######################################################################
#
# If this CIF has been generated from an entry in the Cambridge 
# Structural Database, then it will include bibliographic, chemical, 
# crystal, experimental, refinement or atomic coordinate data resulting 
# from the CCDC's data processing and validation procedures.
#
#######################################################################

data_KICFOU
_chemical_formula_moiety         'C21 H14 N2 O2'
_chemical_name_systematic        N-[2-(3-oxo-3H-indol-2-yl)phenyl]benzamide
_symmetry_cell_setting           monoclinic
_symmetry_space_group_name_H-M   'P 21'
_symmetry_Int_Tables_number      4
_space_group_name_Hall           'P 2yb'
loop_
_symmetry_equiv_pos_site_id
_symmetry_equiv_pos_as_xyz
1 x,y,z
2 -x,1/2+y,-z
_cell_length_a                   4.5911(2)
_cell_length_b                   14.4019(4)
_cell_length_c                   12.1555(4)
_cell_angle_alpha                90
_cell_angle_beta                 90.250(3)
_cell_angle_gamma                90
_cell_volume                     803.721
_exptl_crystal_colour            'light red'
_exptl_crystal_description       block
_cell_formula_units_Z            2
loop_
_atom_site_label
_atom_site_type_symbol
_atom_site_fract_x
_atom_site_fract_y
_atom_site_fract_z
O1 O -0.4547(11) 0.7829(3) 0.0170(3)
O2 O 0.3439(7) 0.5847(3) 0.4935(2)
N1 N -0.1367(6) 0.70003(19) 0.1212(2)
H1 H -0.0089 0.6565 0.1168
N2 N 0.2589(6) 0.58662(19) 0.2076(2)
C1 C -0.0144(12) 0.5870(4) -0.0662(3)
H2 H 0.0699 0.5704 0.0007
C2 C 0.0443(15) 0.5352(5) -0.1595(5)
H3 H 0.1662 0.4838 -0.1543
C3 C -0.0737(13) 0.5583(4) -0.2584(4)
H4 H -0.0320 0.5235 -0.3209
C4 C -0.2537(14) 0.6331(4) -0.2648(4)
H5 H -0.3371 0.6495 -0.3319
C5 C -0.3129(12) 0.6847(4) -0.1723(4)
H6 H -0.4355 0.7359 -0.1784
C6 C -0.1968(9) 0.6629(3) -0.0717(3)
C7 C -0.2748(9) 0.7219(2) 0.0250(3)
C8 C -0.1733(7) 0.7382(2) 0.2256(3)
C9 C -0.3656(9) 0.8119(3) 0.2451(3)
H7 H -0.4720 0.8375 0.1873
C10 C -0.3963(9) 0.8462(3) 0.3496(4)
H8 H -0.5211 0.8962 0.3611
C11 C -0.2491(9) 0.8094(3) 0.4378(4)
H9 H -0.2763 0.8336 0.5080
C12 C -0.0591(9) 0.7358(3) 0.4213(3)
H10 H 0.0411 0.7106 0.4809
C13 C -0.0162(7) 0.6987(2) 0.3155(3)
C14 C 0.1894(7) 0.6229(2) 0.3020(3)
C15 C 0.3594(8) 0.5733(3) 0.3956(3)
C16 C 0.5386(7) 0.5049(2) 0.3360(3)
C17 C 0.7357(9) 0.4380(3) 0.3708(3)
H11 H 0.7820 0.4310 0.4449
C18 C 0.8612(9) 0.3822(3) 0.2918(4)
H12 H 0.9952 0.3370 0.3128
C19 C 0.7902(9) 0.3925(3) 0.1819(4)
H13 H 0.8782 0.3541 0.1303
C20 C 0.5907(8) 0.4589(3) 0.1465(3)
H14 H 0.5421 0.4653 0.0725
C21 C 0.4683(7) 0.5148(2) 0.2260(3)
loop_
_geom_bond_atom_site_label_1
_geom_bond_atom_site_label_2
_geom_bond_site_symmetry_1
_geom_bond_site_symmetry_2
O1 C7 1_555 1_555
O2 C15 1_555 1_555
N1 H1 1_555 1_555
N2 C14 1_555 1_555
C1 H2 1_555 1_555
C2 C1 1_555 1_555
H3 C2 1_555 1_555
C3 C2 1_555 1_555
H4 C3 1_555 1_555
C4 C3 1_555 1_555
H5 C4 1_555 1_555
C5 C4 1_555 1_555
H6 C5 1_555 1_555
C6 C1 1_555 1_555
C7 N1 1_555 1_555
C8 N1 1_555 1_555
C9 C8 1_555 1_555
H7 C9 1_555 1_555
C10 C9 1_555 1_555
H8 C10 1_555 1_555
C11 C10 1_555 1_555
H9 C11 1_555 1_555
C12 C11 1_555 1_555
H10 C12 1_555 1_555
C13 C8 1_555 1_555
C14 C13 1_555 1_555
C15 C14 1_555 1_555
C16 C15 1_555 1_555
C17 C16 1_555 1_555
H11 C17 1_555 1_555
C18 C17 1_555 1_555
H12 C18 1_555 1_555
C19 C18 1_555 1_555
H13 C19 1_555 1_555
C20 C19 1_555 1_555
H14 C20 1_555 1_555
C21 N2 1_555 1_555
C5 C6 1_555 1_555
C6 C7 1_555 1_555
C12 C13 1_555 1_555
C16 C21 1_555 1_555
C20 C21 1_555 1_555

#END
