
#######################################################################
#
#                 Cambridge Crystallographic Data Centre
#                                CCDC 
#
#######################################################################
#
# If this CIF has been generated from an entry in the Cambridge 
# Structural Database, then it will include bibliographic, chemical, 
# crystal, experimental, refinement or atomic coordinate data resulting 
# from the CCDC's data processing and validation procedures.
#
#######################################################################

data_KICFIO
_chemical_formula_moiety         'C42 H42 O8'
_chemical_name_systematic        
1-{4-(benzyloxy)-2,6-dihydroxy-3-[3,4,5-tris(benzyloxy)-6-methyloxan-2-yl]phenyl}ethan-1-one
_symmetry_cell_setting           orthorhombic
_symmetry_space_group_name_H-M   'P 21 21 21'
_symmetry_Int_Tables_number      19
_space_group_name_Hall           'P 2ac 2ab'
loop_
_symmetry_equiv_pos_site_id
_symmetry_equiv_pos_as_xyz
1 x,y,z
2 1/2-x,-y,1/2+z
3 -x,1/2+y,1/2-z
4 1/2+x,1/2-y,-z
_cell_length_a                   22.5648(12)
_cell_length_b                   20.7782(14)
_cell_length_c                   7.6518(4)
_cell_angle_alpha                90
_cell_angle_beta                 90
_cell_angle_gamma                90
_cell_volume                     3587.59
_exptl_crystal_colour            colorless
_exptl_crystal_description       acicular
_cell_formula_units_Z            4
loop_
_atom_site_label
_atom_site_type_symbol
_atom_site_fract_x
_atom_site_fract_y
_atom_site_fract_z
O1 O 0.56716(8) 0.27844(9) 1.0421(2)
O2 O 0.51448(8) 0.18136(10) 0.8713(3)
H1 H 0.5434 0.2019 0.9048
O3 O 0.35557(10) 0.08294(12) 0.8681(3)
O4 O 0.30603(9) 0.18118(13) 0.9844(4)
H2 H 0.3089 0.1444 0.9463
O5 O 0.42059(8) 0.36960(11) 1.0681(3)
O6 O 0.50012(8) 0.36802(10) 0.6820(3)
O7 O 0.62102(8) 0.36648(9) 0.5811(2)
O8 O 0.65371(8) 0.25553(9) 0.7935(2)
C1 C 0.66201(14) 0.27154(16) 1.1696(4)
H3 H 0.6454 0.2717 1.2851
H4 H 0.7011 0.2898 1.1729
H5 H 0.6641 0.2281 1.1274
C2 C 0.62364(11) 0.31059(14) 1.0502(3)
H6 H 0.6179 0.3533 1.1018
C3 C 0.64726(12) 0.31858(13) 0.8653(3)
H7 H 0.6858 0.3402 0.8683
C4 C 0.60376(12) 0.35800(14) 0.7590(3)
H8 H 0.6002 0.4006 0.8131
C5 C 0.54288(11) 0.32648(14) 0.7591(3)
H9 H 0.5443 0.2856 0.6955
C6 C 0.52323(11) 0.31489(14) 0.9485(4)
H10 H 0.5180 0.3566 1.0064
C7 C 0.46614(11) 0.27751(14) 0.9617(3)
C8 C 0.46397(12) 0.21272(15) 0.9186(3)
C9 C 0.41069(12) 0.17668(15) 0.9214(4)
C10 C 0.40496(14) 0.10959(16) 0.8688(4)
C11 C 0.45626(16) 0.06982(17) 0.8114(6)
H11 H 0.4841 0.0660 0.9057
H12 H 0.4752 0.0900 0.7133
H13 H 0.4426 0.0278 0.7782
C12 C 0.35941(12) 0.21053(17) 0.9763(4)
C13 C 0.36111(12) 0.27426(17) 1.0266(4)
H14 H 0.3269 0.2948 1.0649
C14 C 0.41403(12) 0.30707(15) 1.0196(4)
C15 C 0.37035(13) 0.40418(17) 1.1315(5)
H15 H 0.3547 0.3836 1.2355
H16 H 0.3394 0.4051 1.0435
C16 C 0.39037(14) 0.47135(17) 1.1733(5)
C17 C 0.41330(17) 0.5103(2) 1.0439(6)
H17 H 0.4180 0.4945 0.9311
C18 C 0.42955(19) 0.5738(2) 1.0826(7)
H18 H 0.4439 0.6005 0.9949
C19 C 0.42415(18) 0.5962(2) 1.2501(8)
H19 H 0.4354 0.6382 1.2763
C20 C 0.40256(17) 0.5578(2) 1.3775(7)
H20 H 0.3993 0.5732 1.4912
C21 C 0.38535(16) 0.49547(19) 1.3389(6)
H21 H 0.3701 0.4695 1.4271
C22 C 0.70371(14) 0.24671(16) 0.6842(4)
H22 H 0.7388 0.2642 0.7398
H23 H 0.6978 0.2689 0.5740
C23 C 0.71137(13) 0.17570(15) 0.6529(4)
C24 C 0.72675(16) 0.15280(18) 0.4904(5)
H24 H 0.7316 0.1814 0.3980
C25 C 0.73513(19) 0.0874(2) 0.4629(6)
H25 H 0.7461 0.0724 0.3531
C26 C 0.72715(18) 0.0452(2) 0.5977(7)
H26 H 0.7325 0.0013 0.5792
C27 C 0.71145(18) 0.06690(19) 0.7585(6)
H27 H 0.7057 0.0380 0.8499
C28 C 0.70397(16) 0.13213(17) 0.7858(5)
H28 H 0.6937 0.1468 0.8965
C29 C 0.66707(13) 0.41252(16) 0.5564(4)
H29 H 0.7054 0.3921 0.5719
H30 H 0.6634 0.4467 0.6420
C30 C 0.66261(13) 0.44002(13) 0.3753(4)
C31 C 0.71114(14) 0.44076(15) 0.2651(4)
H31 H 0.7464 0.4220 0.3018
C32 C 0.70831(17) 0.46876(17) 0.1022(4)
H32 H 0.7414 0.4687 0.0296
C33 C 0.65683(18) 0.49647(16) 0.0478(5)
H33 H 0.6551 0.5160 -0.0615
C34 C 0.60702(17) 0.49586(16) 0.1538(5)
H34 H 0.5717 0.5142 0.1154
C35 C 0.61033(15) 0.46756(15) 0.3185(4)
H35 H 0.5772 0.4672 0.3907
C36 C 0.48552(15) 0.35238(18) 0.5047(4)
H36 H 0.5219 0.3456 0.4396
H37 H 0.4650 0.3886 0.4524
C37 C 0.44723(13) 0.29329(18) 0.4878(4)
C38 C 0.46760(17) 0.2384(2) 0.4046(5)
H38 H 0.5060 0.2377 0.3602
C39 C 0.4323(2) 0.1846(2) 0.3860(5)
H39 H 0.4468 0.1484 0.3287
C40 C 0.3765(2) 0.1846(2) 0.4515(5)
H40 H 0.3525 0.1485 0.4387
C41 C 0.35526(16) 0.2380(2) 0.5366(5)
H41 H 0.3171 0.2377 0.5827
C42 C 0.39058(15) 0.29250(19) 0.5544(5)
H42 H 0.3758 0.3286 0.6115
loop_
_geom_bond_atom_site_label_1
_geom_bond_atom_site_label_2
_geom_bond_site_symmetry_1
_geom_bond_site_symmetry_2
O1 C2 1_555 1_555
O2 H1 1_555 1_555
O3 C10 1_555 1_555
O4 H2 1_555 1_555
O5 C14 1_555 1_555
O6 C5 1_555 1_555
O7 C4 1_555 1_555
O8 C3 1_555 1_555
C1 H3 1_555 1_555
H4 C1 1_555 1_555
H5 C1 1_555 1_555
C2 C1 1_555 1_555
H6 C2 1_555 1_555
C3 C2 1_555 1_555
H7 C3 1_555 1_555
C4 C3 1_555 1_555
H8 C4 1_555 1_555
C5 C4 1_555 1_555
H9 C5 1_555 1_555
C6 O1 1_555 1_555
H10 C6 1_555 1_555
C7 C6 1_555 1_555
C8 O2 1_555 1_555
C9 C8 1_555 1_555
C10 C9 1_555 1_555
C11 C10 1_555 1_555
H11 C11 1_555 1_555
H12 C11 1_555 1_555
H13 C11 1_555 1_555
C12 O4 1_555 1_555
C13 C12 1_555 1_555
H14 C13 1_555 1_555
C14 C7 1_555 1_555
C15 O5 1_555 1_555
H15 C15 1_555 1_555
H16 C15 1_555 1_555
C16 C15 1_555 1_555
C17 C16 1_555 1_555
H17 C17 1_555 1_555
C18 C17 1_555 1_555
H18 C18 1_555 1_555
C19 C18 1_555 1_555
H19 C19 1_555 1_555
C20 C19 1_555 1_555
H20 C20 1_555 1_555
C21 C16 1_555 1_555
H21 C21 1_555 1_555
C22 O8 1_555 1_555
H22 C22 1_555 1_555
H23 C22 1_555 1_555
C23 C22 1_555 1_555
C24 C23 1_555 1_555
H24 C24 1_555 1_555
C25 C24 1_555 1_555
H25 C25 1_555 1_555
C26 C25 1_555 1_555
H26 C26 1_555 1_555
C27 C26 1_555 1_555
H27 C27 1_555 1_555
C28 C23 1_555 1_555
H28 C28 1_555 1_555
C29 O7 1_555 1_555
H29 C29 1_555 1_555
H30 C29 1_555 1_555
C30 C29 1_555 1_555
C31 C30 1_555 1_555
H31 C31 1_555 1_555
C32 C31 1_555 1_555
H32 C32 1_555 1_555
C33 C32 1_555 1_555
H33 C33 1_555 1_555
C34 C33 1_555 1_555
H34 C34 1_555 1_555
C35 C30 1_555 1_555
H35 C35 1_555 1_555
C36 O6 1_555 1_555
H36 C36 1_555 1_555
H37 C36 1_555 1_555
C37 C36 1_555 1_555
C38 C37 1_555 1_555
H38 C38 1_555 1_555
C39 C38 1_555 1_555
H39 C39 1_555 1_555
C40 C39 1_555 1_555
H40 C40 1_555 1_555
C41 C40 1_555 1_555
H41 C41 1_555 1_555
C42 C37 1_555 1_555
H42 C42 1_555 1_555
C5 C6 1_555 1_555
C7 C8 1_555 1_555
C9 C12 1_555 1_555
C13 C14 1_555 1_555
C20 C21 1_555 1_555
C27 C28 1_555 1_555
C34 C35 1_555 1_555
C41 C42 1_555 1_555

#END
