
#######################################################################
#
#                 Cambridge Crystallographic Data Centre
#                                CCDC 
#
#######################################################################
#
# If this CIF has been generated from an entry in the Cambridge 
# Structural Database, then it will include bibliographic, chemical, 
# crystal, experimental, refinement or atomic coordinate data resulting 
# from the CCDC's data processing and validation procedures.
#
#######################################################################

data_KICGUB
_chemical_formula_moiety         'C26 H21 N1 O2 S1'
_chemical_name_systematic        
2-[(4-methylphenyl)methylidene]-1-[(4-methylphenyl)sulfonyl]-1,2-dihydrobenzo[cd]indole
_symmetry_cell_setting           triclinic
_symmetry_space_group_name_H-M   'P -1'
_symmetry_Int_Tables_number      2
_space_group_name_Hall           '-P 1'
loop_
_symmetry_equiv_pos_site_id
_symmetry_equiv_pos_as_xyz
1 x,y,z
2 -x,-y,-z
_cell_length_a                   9.9548(5)
_cell_length_b                   11.4972(6)
_cell_length_c                   20.4597(9)
_cell_angle_alpha                82.019(4)
_cell_angle_beta                 77.797(4)
_cell_angle_gamma                70.070(5)
_cell_volume                     2145.98
_cell_formula_units_Z            4
loop_
_atom_site_label
_atom_site_type_symbol
_atom_site_fract_x
_atom_site_fract_y
_atom_site_fract_z
S1 S 0.85752(5) 0.45124(4) 0.14760(2)
O1 O 0.94907(17) 0.52029(13) 0.11177(7)
O2 O 0.75350(17) 0.49838(12) 0.20492(7)
N1 N 0.97258(16) 0.31245(13) 0.17254(7)
C1 C 0.90021(19) 0.22681(15) 0.21267(9)
C2 C 1.06667(19) 0.24673(16) 0.11600(9)
C3 C 1.03922(19) 0.13484(16) 0.11712(9)
C4 C 0.77040(19) 0.41440(16) 0.09066(9)
C5 C 0.9358(2) 0.12038(16) 0.17267(9)
C6 C 0.8135(2) 0.32660(17) 0.32489(9)
C7 C 0.8278(2) 0.41706(17) 0.02281(10)
H1 H 0.9099 0.4410 0.0071
C8 C 0.8294(2) 0.23905(17) 0.27626(9)
H2 H 0.7818 0.1811 0.2922
C9 C 0.9124(2) 0.38909(19) 0.32257(10)
H3 H 0.9897 0.3798 0.2869
C10 C 1.1654(2) 0.2781(2) 0.06576(10)
H4 H 1.1868 0.3510 0.0649
C11 C 1.1065(2) 0.05053(19) 0.06758(11)
C12 C 0.6407(2) 0.3470(2) 0.00159(12)
C13 C 0.7618(2) 0.38380(19) -0.02107(10)
H5 H 0.7994 0.3862 -0.0667
C14 C 0.8945(3) 0.01554(19) 0.17987(12)
H6 H 0.8270 0.0016 0.2165
C15 C 0.6998(2) 0.3415(2) 0.37969(10)
H7 H 0.6336 0.2992 0.3833
C16 C 0.6497(2) 0.3771(2) 0.11476(12)
H8 H 0.6120 0.3747 0.1604
C17 C 0.8976(3) 0.4644(2) 0.37230(11)
H9 H 0.9656 0.5045 0.3697
C18 C 1.2337(2) 0.1939(2) 0.01492(12)
H10 H 1.2996 0.2143 -0.0204
C19 C 1.2077(3) 0.0839(2) 0.01504(12)
H11 H 1.2564 0.0315 -0.0193
C20 C 0.9582(3) -0.0698(2) 0.12994(13)
H12 H 0.9292 -0.1396 0.1338
C21 C 1.0608(3) -0.0550(2) 0.07580(12)
H13 H 1.1002 -0.1145 0.0445
C22 C 0.7834(3) 0.4814(2) 0.42595(12)
C23 C 0.5864(3) 0.3437(3) 0.06982(14)
H14 H 0.5053 0.3184 0.0856
C24 C 0.6854(3) 0.4187(3) 0.42836(12)
H15 H 0.6076 0.4290 0.4639
C25 C 0.5700(3) 0.3091(3) -0.04700(17)
H16 H 0.6112 0.3296 -0.0921
H17 H 0.4675 0.3524 -0.0391
H18 H 0.5867 0.2213 -0.0405
C26 C 0.7675(5) 0.5636(3) 0.48073(17)
H19 H 0.8569 0.5801 0.4779
H20 H 0.7445 0.5224 0.5237
H21 H 0.6909 0.6403 0.4754
S2 S 0.63909(6) 0.81705(4) 0.60836(2)
O3 O 0.74220(18) 0.69781(14) 0.61733(8)
O4 O 0.5431(2) 0.84033(16) 0.56149(8)
N2 N 0.52761(17) 0.84858(14) 0.68322(8)
C27 C 0.6938(2) 0.58115(16) 0.75522(9)
C28 C 0.59490(19) 0.82048(16) 0.74318(9)
C29 C 0.6684(2) 0.70877(17) 0.76929(9)
H22 H 0.7128 0.7138 0.8040
C30 C 0.5494(2) 0.93667(16) 0.77615(10)
C31 C 0.4510(2) 1.02518(17) 0.74066(10)
C32 C 0.4328(2) 0.97616(18) 0.68538(10)
C33 C 0.7291(2) 0.92827(19) 0.59139(10)
C34 C 0.8049(2) 0.48776(18) 0.78115(11)
H23 H 0.8632 0.5088 0.8043
C35 C 0.5740(2) 0.9678(2) 0.83413(11)
H24 H 0.6380 0.9107 0.8594
C36 C 0.6061(3) 0.5454(2) 0.72296(12)
H25 H 0.5306 0.6056 0.7053
C37 C 0.7427(3) 0.32888(19) 0.74126(12)
C38 C 0.3748(2) 1.14647(19) 0.75912(13)
C39 C 0.8552(3) 0.9050(2) 0.61668(12)
H26 H 0.8909 0.8319 0.6426
C40 C 0.6298(3) 0.4214(2) 0.71687(13)
H27 H 0.5685 0.3996 0.6959
C41 C 0.8300(3) 0.3647(2) 0.77305(13)
H28 H 0.9074 0.3045 0.7894
C42 C 0.3358(3) 1.0479(2) 0.64617(12)
H29 H 0.3198 1.0173 0.6098
C43 C 0.4987(3) 1.0893(2) 0.85388(14)
H30 H 0.5145 1.1114 0.8930
C44 C 0.6759(3) 1.0367(2) 0.55283(12)
H31 H 0.5914 1.0522 0.5358
C45 C 0.9265(3) 0.9913(3) 0.60296(14)
H32 H 1.0113 0.9757 0.6198
C46 C 0.2767(3) 1.2205(2) 0.71719(16)
H33 H 0.2235 1.3023 0.7262
C47 C 0.4034(3) 1.1762(2) 0.81818(15)
H34 H 0.3573 1.2554 0.8330
C48 C 0.7498(3) 1.1210(3) 0.54006(14)
H35 H 0.7143 1.1940 0.5140
C49 C 0.8754(3) 1.1007(3) 0.56475(13)
C50 C 0.2603(3) 1.1719(2) 0.66376(16)
H36 H 0.1956 1.2229 0.6369
C51 C 0.7702(4) 0.1929(2) 0.73477(18)
H37 H 0.7502 0.1528 0.7784
H38 H 0.8697 0.1549 0.7150
H39 H 0.7080 0.1848 0.7068
C52 C 0.9545(4) 1.1952(3) 0.55155(19)
H40 H 0.9152 1.2534 0.5856
H41 H 0.9427 1.2384 0.5084
H42 H 1.0559 1.1538 0.5523
loop_
_geom_bond_atom_site_label_1
_geom_bond_atom_site_label_2
_geom_bond_site_symmetry_1
_geom_bond_site_symmetry_2
S1 O1 1_555 1_555
O2 S1 1_555 1_555
N1 S1 1_555 1_555
C1 N1 1_555 1_555
C2 N1 1_555 1_555
C3 C2 1_555 1_555
C4 S1 1_555 1_555
C5 C1 1_555 1_555
C6 C8 1_555 1_555
C7 C4 1_555 1_555
H1 C7 1_555 1_555
C8 C1 1_555 1_555
H2 C8 1_555 1_555
C9 C6 1_555 1_555
H3 C9 1_555 1_555
C10 C2 1_555 1_555
H4 C10 1_555 1_555
C11 C3 1_555 1_555
C12 C13 1_555 1_555
C13 C7 1_555 1_555
H5 C13 1_555 1_555
C14 C5 1_555 1_555
H6 C14 1_555 1_555
C15 C6 1_555 1_555
H7 C15 1_555 1_555
C16 C4 1_555 1_555
H8 C16 1_555 1_555
C17 C9 1_555 1_555
H9 C17 1_555 1_555
C18 C10 1_555 1_555
H10 C18 1_555 1_555
C19 C11 1_555 1_555
H11 C19 1_555 1_555
C20 C14 1_555 1_555
H12 C20 1_555 1_555
C21 C11 1_555 1_555
H13 C21 1_555 1_555
C22 C17 1_555 1_555
C23 C12 1_555 1_555
H14 C23 1_555 1_555
C24 C15 1_555 1_555
H15 C24 1_555 1_555
C25 C12 1_555 1_555
H16 C25 1_555 1_555
H17 C25 1_555 1_555
H18 C25 1_555 1_555
C26 C22 1_555 1_555
H19 C26 1_555 1_555
H20 C26 1_555 1_555
H21 C26 1_555 1_555
S2 O3 1_555 1_555
O4 S2 1_555 1_555
N2 S2 1_555 1_555
C27 C29 1_555 1_555
C28 N2 1_555 1_555
C29 C28 1_555 1_555
H22 C29 1_555 1_555
C30 C28 1_555 1_555
C31 C30 1_555 1_555
C32 N2 1_555 1_555
C33 S2 1_555 1_555
C34 C27 1_555 1_555
H23 C34 1_555 1_555
C35 C30 1_555 1_555
H24 C35 1_555 1_555
C36 C27 1_555 1_555
H25 C36 1_555 1_555
C37 C40 1_555 1_555
C38 C31 1_555 1_555
C39 C33 1_555 1_555
H26 C39 1_555 1_555
C40 C36 1_555 1_555
H27 C40 1_555 1_555
C41 C34 1_555 1_555
H28 C41 1_555 1_555
C42 C32 1_555 1_555
H29 C42 1_555 1_555
C43 C35 1_555 1_555
H30 C43 1_555 1_555
C44 C33 1_555 1_555
H31 C44 1_555 1_555
C45 C39 1_555 1_555
H32 C45 1_555 1_555
C46 C38 1_555 1_555
H33 C46 1_555 1_555
C47 C38 1_555 1_555
H34 C47 1_555 1_555
C48 C44 1_555 1_555
H35 C48 1_555 1_555
C49 C45 1_555 1_555
C50 C42 1_555 1_555
H36 C50 1_555 1_555
C51 C37 1_555 1_555
H37 C51 1_555 1_555
H38 C51 1_555 1_555
H39 C51 1_555 1_555
C52 C49 1_555 1_555
H40 C52 1_555 1_555
H41 C52 1_555 1_555
H42 C52 1_555 1_555
C3 C5 1_555 1_555
C16 C23 1_555 1_555
C18 C19 1_555 1_555
C20 C21 1_555 1_555
C22 C24 1_555 1_555
C31 C32 1_555 1_555
C37 C41 1_555 1_555
C43 C47 1_555 1_555
C46 C50 1_555 1_555
C48 C49 1_555 1_555

#END
