
#######################################################################
#
#                 Cambridge Crystallographic Data Centre
#                                CCDC 
#
#######################################################################
#
# If this CIF has been generated from an entry in the Cambridge 
# Structural Database, then it will include bibliographic, chemical, 
# crystal, experimental, refinement or atomic coordinate data resulting 
# from the CCDC's data processing and validation procedures.
#
#######################################################################

data_KICGIP
_chemical_formula_moiety         'C42 H42 O8'
_chemical_name_systematic        
1-{4-(benzyloxy)-2,6-dihydroxy-3-[3,4,5-tris(benzyloxy)-6-methyloxan-2-yl]phenyl}ethan-1-one
_symmetry_cell_setting           orthorhombic
_symmetry_space_group_name_H-M   'P 21 21 21'
_symmetry_Int_Tables_number      19
_space_group_name_Hall           'P 2ac 2ab'
loop_
_symmetry_equiv_pos_site_id
_symmetry_equiv_pos_as_xyz
1 x,y,z
2 1/2-x,-y,1/2+z
3 1/2+x,1/2-y,-z
4 -x,1/2+y,1/2-z
_cell_length_a                   7.6561(4)
_cell_length_b                   20.7843(10)
_cell_length_c                   22.6355(12)
_cell_angle_alpha                90
_cell_angle_beta                 90
_cell_angle_gamma                90
_cell_volume                     3601.91
_exptl_crystal_colour            colorless
_exptl_crystal_description       block
_cell_formula_units_Z            4
loop_
_atom_site_label
_atom_site_type_symbol
_atom_site_fract_x
_atom_site_fract_y
_atom_site_fract_z
O1 O 0.7922(3) 0.02851(9) 0.31711(8)
O2 O 0.3315(3) 0.11656(10) 0.37089(9)
O3 O 0.5432(3) 0.00553(9) 0.40366(9)
O4 O 0.6215(3) -0.06862(10) 0.26455(9)
H1 H 0.658565 -0.048962 0.293340
O5 O 0.4318(3) 0.11804(11) 0.25009(10)
O6 O 0.8182(4) 0.11977(11) 0.17085(10)
O7 O 0.6178(4) -0.16687(12) 0.10575(11)
O8 O 0.7340(4) -0.06880(14) 0.05608(10)
H2 H 0.699639 -0.106009 0.059327
C1 C 0.6685(4) -0.03721(14) 0.21433(13)
C2 C 0.1257(4) 0.19012(14) 0.41264(14)
C3 C 0.6154(4) 0.06843(13) 0.39713(13)
H3 H 0.618409 0.090082 0.435578
C4 C 0.8002(4) 0.06053(14) 0.37366(13)
H4 H 0.851394 0.103301 0.368042
C5 C 0.6986(4) 0.06481(14) 0.27327(12)
H5 H 0.756594 0.106460 0.268032
C6 C 0.7111(4) 0.02756(14) 0.21626(13)
C7 C 0.5095(4) 0.07663(14) 0.29300(12)
H6 H 0.445963 0.035729 0.294476
C8 C 0.5085(4) 0.10807(13) 0.35367(13)
H7 H 0.562600 0.150628 0.350196
C9 C 0.7697(4) 0.05725(15) 0.16410(14)
C10 C 0.6711(4) -0.07307(15) 0.16052(14)
C11 C 0.4348(5) -0.00341(16) 0.45377(15)
H8 H 0.324671 0.018840 0.448215
H9 H 0.491228 0.013931 0.488685
C12 C 0.3066(4) 0.16262(16) 0.41707(15)
H10 H 0.392272 0.196788 0.413530
H11 H 0.322049 0.142073 0.455195
C13 C 0.0684(5) 0.21747(16) 0.36029(17)
H12 H 0.139765 0.216802 0.327040
C14 C 0.0158(4) 0.19041(15) 0.46099(16)
H13 H 0.052195 0.171279 0.496036
C15 C 0.4034(5) -0.07431(15) 0.46133(15)
C16 C 0.6190(5) -0.14032(16) 0.15506(16)
C17 C 0.7771(5) 0.02423(17) 0.11113(14)
H14 H 0.816431 0.044634 0.077059
C18 C 0.7258(5) -0.03918(17) 0.10944(14)
C19 C 0.9196(5) 0.02172(17) 0.41186(15)
H15 H 0.928490 0.041500 0.450068
H16 H 0.873845 -0.021039 0.416048
H17 H 1.033216 0.019777 0.393997
C20 C 0.2376(5) 0.04320(19) 0.19739(15)
C21 C -0.1472(5) 0.21864(18) 0.45816(19)
H18 H -0.219818 0.218598 0.491103
C22 C 0.9236(6) 0.22121(18) 0.14040(16)
C23 C 0.3042(5) 0.0427(2) 0.14065(17)
H19 H 0.361125 0.078829 0.125976
C24 C -0.2013(5) 0.24658(17) 0.4068(2)
H20 H -0.310299 0.266239 0.405049
C25 C 0.2863(6) -0.0118(2) 0.10541(19)
H21 H 0.332246 -0.012041 0.067371
C26 C 0.2555(5) 0.1024(2) 0.23566(17)
H22 H 0.203233 0.138657 0.215269
H23 H 0.190727 0.095704 0.271968
C27 C 0.8816(6) 0.15419(18) 0.12056(15)
H24 H 0.793420 0.155130 0.089787
H25 H 0.985330 0.133485 0.104961
C28 C 0.5619(6) -0.17979(17) 0.20648(18)
H26 H 0.568202 -0.154371 0.241826
H27 H 0.443759 -0.193855 0.200468
H28 H 0.636837 -0.216579 0.210284
C29 C -0.0960(6) 0.24594(17) 0.3575(2)
H29 H -0.134488 0.264467 0.322432
C30 C 0.2402(6) -0.09733(19) 0.47665(19)
H30 H 0.147771 -0.068715 0.481259
C31 C 0.2011(6) -0.0653(2) 0.1266(2)
H31 H 0.188168 -0.101403 0.102725
C32 C 0.5365(6) -0.11771(18) 0.45382(19)
H32 H 0.647062 -0.103016 0.443404
C33 C 0.5090(7) -0.1832(2) 0.4615(2)
H33 H 0.600185 -0.212128 0.455801
C34 C 0.1542(5) -0.0117(2) 0.21772(19)
H34 H 0.109713 -0.012425 0.255945
C35 C 1.0881(7) 0.2457(2) 0.13574(18)
H35 H 1.176521 0.219706 0.120819
C36 C 0.3479(8) -0.2049(2) 0.4774(2)
H36 H 0.329513 -0.248676 0.483046
C37 C 0.1362(6) -0.0652(2) 0.1822(2)
H37 H 0.078988 -0.101461 0.196524
C38 C 0.7948(7) 0.2604(2) 0.1635(2)
H38 H 0.682213 0.244467 0.168316
C39 C 0.2127(7) -0.1624(2) 0.4852(2)
H39 H 0.102895 -0.177372 0.496187
C40 C 1.1279(8) 0.3080(2) 0.1525(2)
H40 H 1.241484 0.323308 0.148675
C41 C 1.0015(8) 0.3465(3) 0.1743(2)
H41 H 1.028257 0.388305 0.185680
C42 C 0.8327(9) 0.3241(2) 0.1798(2)
H42 H 0.744982 0.350814 0.194058
loop_
_geom_bond_atom_site_label_1
_geom_bond_atom_site_label_2
_geom_bond_site_symmetry_1
_geom_bond_site_symmetry_2
O1 C4 1_555 1_555
O2 C8 1_555 1_555
O3 C3 1_555 1_555
O4 H1 1_555 1_555
O5 C7 1_555 1_555
O6 C9 1_555 1_555
O7 C16 1_555 1_555
O8 H2 1_555 1_555
C1 O4 1_555 1_555
C2 C12 1_555 1_555
C3 H3 1_555 1_555
C4 C3 1_555 1_555
H4 C4 1_555 1_555
C5 O1 1_555 1_555
H5 C5 1_555 1_555
C6 C1 1_555 1_555
C7 C5 1_555 1_555
H6 C7 1_555 1_555
C8 C3 1_555 1_555
H7 C8 1_555 1_555
C9 C6 1_555 1_555
C10 C1 1_555 1_555
C11 O3 1_555 1_555
H8 C11 1_555 1_555
H9 C11 1_555 1_555
C12 O2 1_555 1_555
H10 C12 1_555 1_555
H11 C12 1_555 1_555
C13 C2 1_555 1_555
H12 C13 1_555 1_555
C14 C2 1_555 1_555
H13 C14 1_555 1_555
C15 C11 1_555 1_555
C16 C10 1_555 1_555
C17 C9 1_555 1_555
H14 C17 1_555 1_555
C18 O8 1_555 1_555
C19 C4 1_555 1_555
H15 C19 1_555 1_555
H16 C19 1_555 1_555
H17 C19 1_555 1_555
C20 C23 1_555 1_555
C21 C14 1_555 1_555
H18 C21 1_555 1_555
C22 C27 1_555 1_555
C23 H19 1_555 1_555
C24 C21 1_555 1_555
H20 C24 1_555 1_555
C25 C23 1_555 1_555
H21 C25 1_555 1_555
C26 O5 1_555 1_555
H22 C26 1_555 1_555
H23 C26 1_555 1_555
C27 O6 1_555 1_555
H24 C27 1_555 1_555
H25 C27 1_555 1_555
C28 C16 1_555 1_555
H26 C28 1_555 1_555
H27 C28 1_555 1_555
H28 C28 1_555 1_555
C29 C13 1_555 1_555
H29 C29 1_555 1_555
C30 C15 1_555 1_555
H30 C30 1_555 1_555
C31 C25 1_555 1_555
H31 C31 1_555 1_555
C32 C15 1_555 1_555
H32 C32 1_555 1_555
C33 C32 1_555 1_555
H33 C33 1_555 1_555
C34 C20 1_555 1_555
H34 C34 1_555 1_555
C35 C22 1_555 1_555
H35 C35 1_555 1_555
C36 C33 1_555 1_555
H36 C36 1_555 1_555
C37 C31 1_555 1_555
H37 C37 1_555 1_555
C38 C22 1_555 1_555
H38 C38 1_555 1_555
C39 C30 1_555 1_555
H39 C39 1_555 1_555
C40 C35 1_555 1_555
H40 C40 1_555 1_555
C41 C40 1_555 1_555
H41 C41 1_555 1_555
C42 C38 1_555 1_555
H42 C42 1_555 1_555
C5 C6 1_555 1_555
C7 C8 1_555 1_555
C10 C18 1_555 1_555
C17 C18 1_555 1_555
C20 C26 1_555 1_555
C24 C29 1_555 1_555
C34 C37 1_555 1_555
C36 C39 1_555 1_555
C41 C42 1_555 1_555

#END
