
#######################################################################
#
#                 Cambridge Crystallographic Data Centre
#                                CCDC 
#
#######################################################################
#
# If this CIF has been generated from an entry in the Cambridge 
# Structural Database, then it will include bibliographic, chemical, 
# crystal, experimental, refinement or atomic coordinate data resulting 
# from the CCDC's data processing and validation procedures.
#
#######################################################################

data_KICKOZ
_chemical_formula_moiety         'C24 H17 Cl1 O6'
_chemical_name_systematic        
7-(4-chlorobenzene-1-carbonyl)-8-(4-methoxyphenyl)-7,8-dihydro-2H,6H-[1,3]dioxolo[4,5-g][1]benzopyran-6-one
_symmetry_cell_setting           monoclinic
_symmetry_space_group_name_H-M   'P 21'
_symmetry_Int_Tables_number      4
_space_group_name_Hall           'P 2yb'
loop_
_symmetry_equiv_pos_site_id
_symmetry_equiv_pos_as_xyz
1 x,y,z
2 -x,1/2+y,-z
_cell_length_a                   12.183(2)
_cell_length_b                   5.5641(11)
_cell_length_c                   14.891(3)
_cell_angle_alpha                90
_cell_angle_beta                 104.08(3)
_cell_angle_gamma                90
_cell_volume                     979.097
_exptl_crystal_description       prism
_cell_formula_units_Z            2
loop_
_atom_site_label
_atom_site_type_symbol
_atom_site_fract_x
_atom_site_fract_y
_atom_site_fract_z
Cl1 Cl 0.57247(9) 0.2633(2) 1.20960(8)
O1 O 0.9608(3) 0.6403(7) 0.5721(2)
O2 O 1.1356(3) 0.6513(7) 0.6772(2)
O3 O 1.0395(2) 0.0245(6) 0.8661(2)
O4 O 0.9837(3) -0.1634(7) 0.9775(2)
O5 O 0.7327(3) -0.3366(6) 0.8731(2)
O6 O 0.3554(3) 0.0787(6) 0.5667(2)
C1 C 0.9643(4) 0.4717(9) 0.6410(3)
C2 C 0.8801(4) 0.3147(9) 0.6510(3)
H1 H 0.8090 0.3093 0.6072
C3 C 0.9041(3) 0.1648(9) 0.7282(3)
C4 C 1.0108(4) 0.1768(9) 0.7888(3)
C5 C 1.0957(4) 0.3326(10) 0.7785(3)
H2 H 1.1679 0.3368 0.8209
C6 C 1.0679(4) 0.4790(9) 0.7032(3)
C7 C 1.0661(4) 0.7694(11) 0.5981(3)
H3 H 1.1040 0.7696 0.5464
H4 H 1.0522 0.9381 0.6135
C8 C 0.9570(4) -0.0482(10) 0.9079(3)
C9 C 0.8373(3) 0.0194(9) 0.8603(3)
H5 H 0.8252 0.1920 0.8739
C10 C 0.8196(3) -0.0107(8) 0.7539(3)
H6 H 0.8426 -0.1777 0.7416
C11 C 0.6976(3) 0.0245(8) 0.7021(3)
C12 C 0.6346(4) 0.2220(9) 0.7183(3)
H7 H 0.6703 0.3423 0.7608
C13 C 0.5206(3) 0.2467(9) 0.6737(3)
H8 H 0.4794 0.3832 0.6856
C14 C 0.4677(4) 0.0734(9) 0.6126(3)
C15 C 0.5286(4) -0.1220(9) 0.5937(3)
H9 H 0.4929 -0.2399 0.5502
C16 C 0.6425(4) -0.1450(9) 0.6388(3)
H10 H 0.6835 -0.2805 0.6259
C17 C 0.2906(4) 0.2750(11) 0.5892(3)
H11 H 0.2880 0.2633 0.6543
H12 H 0.2135 0.2685 0.5497
H13 H 0.3261 0.4274 0.5789
C18 C 0.7580(4) -0.1360(8) 0.9023(3)
C19 C 0.7136(3) -0.0340(8) 0.9798(3)
C20 C 0.6328(3) -0.1641(9) 1.0117(3)
H14 H 0.6072 -0.3148 0.9845
C21 C 0.5896(4) -0.0742(9) 1.0830(3)
H15 H 0.5336 -0.1614 1.1040
C22 C 0.6286(4) 0.1426(9) 1.1232(3)
C23 C 0.7107(3) 0.2705(9) 1.0954(3)
H16 H 0.7387 0.4162 1.1257
C24 C 0.7525(3) 0.1848(9) 1.0225(3)
H17 H 0.8077 0.2749 1.0016
loop_
_geom_bond_atom_site_label_1
_geom_bond_atom_site_label_2
_geom_bond_site_symmetry_1
_geom_bond_site_symmetry_2
Cl1 C22 1_555 1_555
O1 C1 1_555 1_555
O2 C6 1_555 1_555
O3 C4 1_555 1_555
O4 C8 1_555 1_555
O5 C18 1_555 1_555
O6 C14 1_555 1_555
C1 C2 1_555 1_555
C2 H1 1_555 1_555
C3 C2 1_555 1_555
C4 C3 1_555 1_555
C5 C4 1_555 1_555
H2 C5 1_555 1_555
C6 C1 1_555 1_555
C7 O1 1_555 1_555
H3 C7 1_555 1_555
H4 C7 1_555 1_555
C8 O3 1_555 1_555
C9 C8 1_555 1_555
H5 C9 1_555 1_555
C10 C3 1_555 1_555
H6 C10 1_555 1_555
C11 C10 1_555 1_555
C12 C11 1_555 1_555
H7 C12 1_555 1_555
C13 C12 1_555 1_555
H8 C13 1_555 1_555
C14 C13 1_555 1_555
C15 C14 1_555 1_555
H9 C15 1_555 1_555
C16 C11 1_555 1_555
H10 C16 1_555 1_555
C17 O6 1_555 1_555
H11 C17 1_555 1_555
H12 C17 1_555 1_555
H13 C17 1_555 1_555
C18 C9 1_555 1_555
C19 C18 1_555 1_555
C20 C19 1_555 1_555
H14 C20 1_555 1_555
C21 C20 1_555 1_555
H15 C21 1_555 1_555
C22 C21 1_555 1_555
C23 C22 1_555 1_555
H16 C23 1_555 1_555
C24 C19 1_555 1_555
H17 C24 1_555 1_555
O2 C7 1_555 1_555
C5 C6 1_555 1_555
C9 C10 1_555 1_555
C15 C16 1_555 1_555
C23 C24 1_555 1_555

#END
