
#######################################################################
#
#                 Cambridge Crystallographic Data Centre
#                                CCDC 
#
#######################################################################
#
# If this CIF has been generated from an entry in the Cambridge 
# Structural Database, then it will include bibliographic, chemical, 
# crystal, experimental, refinement or atomic coordinate data resulting 
# from the CCDC's data processing and validation procedures.
#
#######################################################################

data_KICMAN
_chemical_compound_source        
'water extract of the leaves of Panax notoginseng'
_chemical_name_common            'notoginsenoside Fa methanol solvate'
_chemical_formula_moiety         'C59 H100 O27,3(C1 H4 O1)'
_chemical_name_systematic        
'2-[(3-{[3-({4,5-dihydroxy-6-(hydroxymethyl)-3-[(3,4,5-trihydroxyoxan-2-yl)oxy]oxan-2-yl}oxy)-4,5-dihydroxy-6-(hydroxymethyl)oxan-2-yl]oxy}-12-hydroxydammar-24-en-20-yl)oxy]-6-({[3,4,5-trihydroxy-6-(hydroxymethyl)oxan-2-yl]oxy}methyl)oxane-3,4,5-triol methanol solvate'
_symmetry_cell_setting           orthorhombic
_symmetry_space_group_name_H-M   'P 21 21 21'
_symmetry_Int_Tables_number      19
_space_group_name_Hall           'P 2ac 2ab'
loop_
_symmetry_equiv_pos_site_id
_symmetry_equiv_pos_as_xyz
1 x,y,z
2 1/2-x,-y,1/2+z
3 1/2+x,1/2-y,-z
4 -x,1/2+y,1/2-z
_cell_length_a                   10.2375(5)
_cell_length_b                   24.3646(5)
_cell_length_c                   26.8582(8)
_cell_angle_alpha                90
_cell_angle_beta                 90
_cell_angle_gamma                90
_cell_volume                     6699.31
_cell_formula_units_Z            4
loop_
_atom_site_label
_atom_site_type_symbol
_atom_site_fract_x
_atom_site_fract_y
_atom_site_fract_z
O1 O 0.31312(19) 0.38602(8) 0.11017(7)
O2 O -0.6255(2) 0.76735(8) 0.18777(8)
O3 O -0.6587(2) 1.01978(8) 0.19137(8)
O4 O 0.7370(2) 0.42064(9) -0.01192(8)
H1 H 0.7597 0.3885 -0.0146
O5 O -0.5374(2) 1.16176(8) 0.18831(8)
H2 H -0.5547 1.1758 0.2153
O6 O -0.7005(2) 0.84732(8) 0.22035(7)
O7 O 0.23136(19) 0.48346(8) 0.15439(7)
O8 O -0.4954(2) 1.01874(9) 0.31135(8)
H3 H -0.4190 1.0130 0.3188
O9 O 0.32715(19) 0.32899(8) 0.01815(8)
O10 O 0.5002(2) 0.37703(10) -0.05243(8)
H4 H 0.4415 0.3554 -0.0592
O11 O -0.6544(2) 0.95263(8) 0.25032(8)
O12 O 0.2216(2) 0.44142(8) 0.22988(7)
O13 O -0.1851(2) 0.31414(9) -0.03531(9)
H5 H -0.2098 0.2955 -0.0590
O14 O -0.3652(2) 1.10762(9) 0.25882(9)
H6 H -0.3112 1.0929 0.2406
O15 O -0.7505(2) 0.70989(9) 0.27041(9)
H7 H -0.6898 0.6888 0.2648
O16 O 0.7253(2) 0.48040(9) 0.13660(8)
H8 H 0.6561 0.4868 0.1508
O17 O -0.4174(2) 0.71534(8) 0.21794(8)
H9 H -0.4874 0.7310 0.2137
O18 O 0.1132(2) 0.32227(9) 0.03831(8)
O19 O 0.0151(2) 0.27531(9) -0.10564(8)
H10 H 0.0011 0.2939 -0.1305
O20 O 0.50574(19) 0.42961(8) 0.09253(7)
O21 O 0.2745(2) 0.31704(10) -0.08199(8)
H11 H 0.2745 0.2948 -0.1049
O22 O -0.8567(2) 0.88333(9) 0.33815(8)
H12 H -0.8271 0.9127 0.3480
O23 O 0.3932(2) 0.29943(8) 0.17931(8)
H13 H 0.3714 0.2812 0.1550
C1 C -0.0556(3) 0.29890(12) -0.02230(12)
H14 H -0.0532 0.2598 -0.0139
O24 O -0.7488(2) 0.77696(9) 0.35908(8)
H15 H -0.6694 0.7730 0.3612
C2 C -0.1544(3) 0.63869(12) 0.04145(11)
H16 H -0.1582 0.6604 0.0112
H17 H -0.2118 0.6074 0.0372
C3 C 0.6314(3) 0.42634(12) 0.06898(10)
H18 H 0.6782 0.3938 0.0809
C4 C -0.7211(3) 0.79040(11) 0.21871(11)
H19 H -0.8084 0.7824 0.2056
C5 C -0.6420(3) 1.00882(11) 0.24258(11)
H20 H -0.7083 1.0285 0.2619
C6 C 0.1216(3) 0.54828(11) 0.10017(11)
C7 C 0.5265(3) 0.37504(12) -0.00058(11)
H21 H 0.5724 0.3408 0.0071
C8 C -0.7445(3) 0.79686(11) 0.11335(11)
H22 H -0.7977 0.7645 0.1156
H23 H -0.7354 0.8074 0.0791
H24 H -0.7849 0.8261 0.1316
C9 C 0.2019(3) 0.33724(11) -0.00019(10)
H25 H 0.1898 0.3759 -0.0091
C10 C -0.5491(3) 0.73320(11) 0.11062(11)
H26 H -0.6040 0.7020 0.1202
O25 O 0.2376(3) 0.29984(9) 0.27020(9)
H27 H 0.2935 0.2758 0.2693
C11 C 0.6145(3) 0.42318(12) 0.01242(11)
H28 H 0.5705 0.4568 0.0015
C12 C -0.7846(3) 0.93474(12) 0.24006(13)
H29 H -0.8059 0.9414 0.2054
H30 H -0.8462 0.9548 0.2606
C13 C -0.5053(3) 1.02717(12) 0.25883(11)
H31 H -0.4383 1.0059 0.2413
C14 C -0.4064(3) 0.71811(11) 0.12514(11)
H32 H -0.3549 0.7520 0.1262
C15 C -0.4918(3) 1.08812(12) 0.24667(12)
H33 H -0.5526 1.1074 0.2688
C16 C -0.5460(3) 0.73435(12) 0.05224(11)
H34 H -0.6097 0.7089 0.0388
H35 H -0.5664 0.7709 0.0401
C17 C -0.2045(3) 0.67355(11) 0.08488(11)
C18 C -0.2361(3) 0.67330(12) 0.17871(11)
H36 H -0.1883 0.7074 0.1828
H37 H -0.2233 0.6516 0.2086
C19 C -0.0416(3) 0.58192(12) 0.18872(11)
H38 H -0.0542 0.6037 0.2186
H39 H -0.1157 0.5574 0.1855
C20 C -0.0375(3) 0.62050(11) 0.14303(11)
C21 C -0.7925(3) 0.87408(12) 0.25137(11)
H40 H -0.8800 0.8611 0.2424
C22 C -0.4319(3) 0.62780(12) 0.07712(11)
H41 H -0.4067 0.6045 0.1043
H42 H -0.4113 0.6101 0.0462
H43 H -0.5241 0.6347 0.0787
O26 O 0.0830(3) 0.45145(11) 0.31566(10)
H44 H 0.0273 0.4427 0.3361
C23 C 0.4013(3) 0.37736(11) 0.02950(10)
H45 H 0.3511 0.4098 0.0196
C24 C -0.5214(3) 0.83678(12) 0.13551(11)
H46 H -0.5665 0.8655 0.1537
H47 H -0.4421 0.8282 0.1537
C25 C 0.2149(3) 0.43316(11) 0.17789(10)
H48 H 0.1295 0.4177 0.1691
C26 C 0.1862(3) 0.39279(12) 0.25653(12)
H49 H 0.1001 0.3806 0.2450
C27 C 0.4320(3) 0.38086(11) 0.08530(10)
H50 H 0.4802 0.3485 0.0967
C28 C 0.2948(3) 0.33908(11) 0.18994(11)
H51 H 0.2109 0.3248 0.1781
C29 C 0.0832(3) 0.54778(12) 0.19443(11)
H52 H 0.1563 0.5721 0.2009
H53 H 0.0740 0.5234 0.2228
O27 O -0.8393(3) 1.07053(12) 0.12359(10)
H54 H -0.8711 1.0867 0.0997
C30 C -0.3571(3) 0.68273(11) 0.08055(10)
C31 C 0.3225(3) 0.39333(11) 0.16285(10)
H55 H 0.4086 0.4077 0.1721
C32 C -0.5322(3) 1.10276(12) 0.19373(12)
H56 H -0.4672 1.0880 0.1705
C33 C 0.1112(3) 0.51440(11) 0.14865(11)
H57 H 0.0397 0.4881 0.1445
C34 C 0.7038(3) 0.47769(12) 0.08451(11)
H58 H 0.7873 0.4788 0.0675
H59 H 0.6540 0.5096 0.0742
C35 C 0.1806(3) 0.30107(12) -0.04567(11)
H60 H 0.1929 0.2624 -0.0368
C36 C -0.3086(4) 0.93331(16) 0.07256(13)
C37 C 0.0409(3) 0.31048(12) -0.06443(11)
H61 H 0.0316 0.3488 -0.0750
C38 C -0.3822(3) 0.68650(11) 0.17338(11)
H62 H -0.4311 0.6520 0.1721
C39 C -0.4826(3) 0.85973(13) 0.08456(12)
H63 H -0.4190 0.8354 0.0693
H64 H -0.5589 0.8608 0.0632
C40 C -0.7656(3) 0.85802(12) 0.30576(11)
H65 H -0.6766 0.8686 0.3151
C41 C -0.0200(3) 0.33281(14) 0.02357(12)
H66 H -0.0306 0.3715 0.0162
H67 H -0.0784 0.3236 0.0507
C42 C -0.1326(3) 0.72986(12) 0.08286(11)
H68 H -0.0406 0.7238 0.0784
H69 H -0.1470 0.7494 0.1134
H70 H -0.1657 0.7511 0.0555
C43 C -0.4068(3) 0.71757(13) 0.03626(11)
H71 H -0.3520 0.7496 0.0312
H72 H -0.4085 0.6962 0.0058
C44 C 0.2505(3) 0.58059(13) 0.09919(12)
H73 H 0.2630 0.5986 0.1306
H74 H 0.2473 0.6075 0.0731
H75 H 0.3218 0.5558 0.0932
C45 C -0.1799(3) 0.64236(11) 0.13466(11)
H76 H -0.2336 0.6092 0.1321
C46 C 0.0623(3) 0.66690(12) 0.15373(13)
H77 H 0.0196 0.6963 0.1711
H78 H 0.0971 0.6804 0.1229
H79 H 0.1321 0.6528 0.1739
C47 C -0.7043(3) 0.76421(12) 0.27033(11)
H80 H -0.6115 0.7643 0.2793
C48 C -0.0144(3) 0.61798(13) 0.04870(11)
H81 H 0.0105 0.5953 0.0205
H82 H 0.0449 0.6490 0.0502
C49 C -0.2061(4) 0.89728(19) 0.04893(16)
H83 H -0.1356 0.8917 0.0720
H84 H -0.1734 0.9147 0.0194
H85 H -0.2440 0.8625 0.0404
C50 C -0.4255(4) 0.91637(14) 0.08836(12)
H86 H -0.4778 0.9428 0.1035
C51 C -0.7057(4) 1.08582(14) 0.12887(13)
H87 H -0.6944 1.1240 0.1196
H88 H -0.6518 1.0635 0.1071
C52 C -0.2679(5) 0.99244(18) 0.07859(16)
H89 H -0.1962 0.9946 0.1015
H90 H -0.3401 1.0134 0.0912
H91 H -0.2415 1.0069 0.0469
C53 C -0.6647(3) 1.07762(12) 0.18188(11)
H92 H -0.7306 1.0940 0.2038
C54 C 0.2851(3) 0.34763(12) 0.24597(11)
H93 H 0.3707 0.3578 0.2595
C55 C 0.1760(4) 0.40845(13) 0.31101(12)
H94 H 0.1487 0.3770 0.3305
H95 H 0.2604 0.4206 0.3232
C56 C 0.1224(3) 0.50742(14) 0.05653(12)
H96 H 0.1913 0.4812 0.0613
H97 H 0.1363 0.5269 0.0259
H98 H 0.0401 0.4886 0.0552
C57 C -0.0033(3) 0.58444(11) 0.09676(11)
H99 H -0.0752 0.5580 0.0947
C58 C -0.7817(3) 0.79581(12) 0.31014(11)
H100 H -0.8744 0.7876 0.3048
C59 C -0.6093(3) 0.78493(12) 0.13536(11)
O28 O 0.2114(2) 0.24906(10) 0.10863(9)
H101 H 0.1826 0.2717 0.0889
C60 C 0.1054(4) 0.22644(19) 0.13742(19)
H102 H 0.1227 0.2316 0.1722
H103 H 0.0974 0.1879 0.1305
H104 H 0.0255 0.2447 0.1287
O29 O 0.2160(3) 0.55369(11) 0.30731(10)
H105 H 0.1883 0.5221 0.3084
C61 C 0.1229(5) 0.58973(18) 0.32867(17)
H106 H 0.0387 0.5829 0.3143
H107 H 0.1480 0.6270 0.3222
H108 H 0.1190 0.5837 0.3640
O30 O -0.0909(4) 0.46385(16) 0.39141(13)
H109 H -0.1236 0.4915 0.3794
C62 C -0.1730(6) 0.44229(19) 0.4255(2)
H110 H -0.2505 0.4293 0.4091
H111 H -0.1962 0.4700 0.4493
H112 H -0.1309 0.4123 0.4422
loop_
_geom_bond_atom_site_label_1
_geom_bond_atom_site_label_2
_geom_bond_site_symmetry_1
_geom_bond_site_symmetry_2
O1 C27 1_555 1_555
O2 C4 1_555 1_555
O3 C5 1_555 1_555
O4 H1 1_555 1_555
O5 H2 1_555 1_555
O6 C4 1_555 1_555
O7 C25 1_555 1_555
O8 H3 1_555 1_555
O9 C9 1_555 1_555
O10 H4 1_555 1_555
O11 C5 1_555 1_555
O12 C25 1_555 1_555
O13 H5 1_555 1_555
O14 H6 1_555 1_555
O15 H7 1_555 1_555
O16 H8 1_555 1_555
O17 H9 1_555 1_555
O18 C9 1_555 1_555
O19 H10 1_555 1_555
O20 C3 1_555 1_555
O21 H11 1_555 1_555
O22 H12 1_555 1_555
O23 H13 1_555 1_555
C1 O13 1_555 1_555
H14 C1 1_555 1_555
O24 H15 1_555 1_555
C2 H16 1_555 1_555
H17 C2 1_555 1_555
C3 H18 1_555 1_555
C4 H19 1_555 1_555
C5 H20 1_555 1_555
C6 C33 1_555 1_555
C7 O10 1_555 1_555
H21 C7 1_555 1_555
C8 H22 1_555 1_555
H23 C8 1_555 1_555
H24 C8 1_555 1_555
C9 H25 1_555 1_555
C10 H26 1_555 1_555
O25 H27 1_555 1_555
C11 O4 1_555 1_555
H28 C11 1_555 1_555
C12 O11 1_555 1_555
H29 C12 1_555 1_555
H30 C12 1_555 1_555
C13 O8 1_555 1_555
H31 C13 1_555 1_555
C14 C10 1_555 1_555
H32 C14 1_555 1_555
C15 O14 1_555 1_555
H33 C15 1_555 1_555
C16 C10 1_555 1_555
H34 C16 1_555 1_555
H35 C16 1_555 1_555
C17 C2 1_555 1_555
C18 H36 1_555 1_555
H37 C18 1_555 1_555
C19 H38 1_555 1_555
H39 C19 1_555 1_555
C20 C19 1_555 1_555
C21 O6 1_555 1_555
H40 C21 1_555 1_555
C22 H41 1_555 1_555
H42 C22 1_555 1_555
H43 C22 1_555 1_555
O26 H44 1_555 1_555
C23 O9 1_555 1_555
H45 C23 1_555 1_555
C24 H46 1_555 1_555
H47 C24 1_555 1_555
C25 H48 1_555 1_555
C26 O12 1_555 1_555
H49 C26 1_555 1_555
C27 O20 1_555 1_555
H50 C27 1_555 1_555
C28 O23 1_555 1_555
H51 C28 1_555 1_555
C29 C19 1_555 1_555
H52 C29 1_555 1_555
H53 C29 1_555 1_555
O27 H54 1_555 1_555
C30 C14 1_555 1_555
C31 O1 1_555 1_555
H55 C31 1_555 1_555
C32 O5 1_555 1_555
H56 C32 1_555 1_555
C33 O7 1_555 1_555
H57 C33 1_555 1_555
C34 O16 1_555 1_555
H58 C34 1_555 1_555
H59 C34 1_555 1_555
C35 O21 1_555 1_555
H60 C35 1_555 1_555
C36 C49 1_555 1_555
C37 O19 1_555 1_555
H61 C37 1_555 1_555
C38 O17 1_555 1_555
H62 C38 1_555 1_555
C39 C24 1_555 1_555
H63 C39 1_555 1_555
H64 C39 1_555 1_555
C40 O22 1_555 1_555
H65 C40 1_555 1_555
C41 O18 1_555 1_555
H66 C41 1_555 1_555
H67 C41 1_555 1_555
C42 C17 1_555 1_555
H68 C42 1_555 1_555
H69 C42 1_555 1_555
H70 C42 1_555 1_555
C43 C16 1_555 1_555
H71 C43 1_555 1_555
H72 C43 1_555 1_555
C44 C6 1_555 1_555
H73 C44 1_555 1_555
H74 C44 1_555 1_555
H75 C44 1_555 1_555
C45 C17 1_555 1_555
H76 C45 1_555 1_555
C46 C20 1_555 1_555
H77 C46 1_555 1_555
H78 C46 1_555 1_555
H79 C46 1_555 1_555
C47 O15 1_555 1_555
H80 C47 1_555 1_555
C48 C2 1_555 1_555
H81 C48 1_555 1_555
H82 C48 1_555 1_555
C49 H83 1_555 1_555
H84 C49 1_555 1_555
H85 C49 1_555 1_555
C50 C36 1_555 1_555
H86 C50 1_555 1_555
C51 O27 1_555 1_555
H87 C51 1_555 1_555
H88 C51 1_555 1_555
C52 C36 1_555 1_555
H89 C52 1_555 1_555
H90 C52 1_555 1_555
H91 C52 1_555 1_555
C53 O3 1_555 1_555
H92 C53 1_555 1_555
C54 O25 1_555 1_555
H93 C54 1_555 1_555
C55 O26 1_555 1_555
H94 C55 1_555 1_555
H95 C55 1_555 1_555
C56 C6 1_555 1_555
H96 C56 1_555 1_555
H97 C56 1_555 1_555
H98 C56 1_555 1_555
C57 C6 1_555 1_555
H99 C57 1_555 1_555
C58 O24 1_555 1_555
H100 C58 1_555 1_555
C59 O2 1_555 1_555
O28 H101 1_555 1_555
C60 O28 1_555 1_555
H102 C60 1_555 1_555
H103 C60 1_555 1_555
H104 C60 1_555 1_555
O29 H105 1_555 1_555
C61 O29 1_555 1_555
H106 C61 1_555 1_555
H107 C61 1_555 1_555
H108 C61 1_555 1_555
O30 H109 1_555 1_555
C62 O30 1_555 1_555
H110 C62 1_555 1_555
H111 C62 1_555 1_555
H112 C62 1_555 1_555
C1 C37 1_555 1_555
C1 C41 1_555 1_555
C3 C11 1_555 1_555
C3 C34 1_555 1_555
C4 C47 1_555 1_555
C5 C13 1_555 1_555
C7 C11 1_555 1_555
C7 C23 1_555 1_555
C8 C59 1_555 1_555
C9 C35 1_555 1_555
C10 C59 1_555 1_555
C12 C21 1_555 1_555
C13 C15 1_555 1_555
C14 C38 1_555 1_555
C15 C32 1_555 1_555
C17 C30 1_555 1_555
C18 C38 1_555 1_555
C18 C45 1_555 1_555
C20 C45 1_555 1_555
C20 C57 1_555 1_555
C21 C40 1_555 1_555
C22 C30 1_555 1_555
C23 C27 1_555 1_555
C24 C59 1_555 1_555
C25 C31 1_555 1_555
C26 C54 1_555 1_555
C26 C55 1_555 1_555
C28 C31 1_555 1_555
C28 C54 1_555 1_555
C29 C33 1_555 1_555
C30 C43 1_555 1_555
C32 C53 1_555 1_555
C35 C37 1_555 1_555
C39 C50 1_555 1_555
C40 C58 1_555 1_555
C47 C58 1_555 1_555
C48 C57 1_555 1_555
C51 C53 1_555 1_555

#END
