
#######################################################################
#
#                 Cambridge Crystallographic Data Centre
#                                CCDC 
#
#######################################################################
#
# If this CIF has been generated from an entry in the Cambridge 
# Structural Database, then it will include bibliographic, chemical, 
# crystal, experimental, refinement or atomic coordinate data resulting 
# from the CCDC's data processing and validation procedures.
#
#######################################################################

data_KICNOB
_chemical_formula_moiety         'C57 H54 O6,0.5(C12 H12 N2),2(H2 O1)'
_chemical_name_systematic        
'1,3,5-tris(4-t-Butylphenyl)-2,4,6-tris(4-carboxyphenyl)benzene hemikis(1,2-bis(4-pyridyl)ethane) dihydrate'
_symmetry_cell_setting           monoclinic
_symmetry_space_group_name_H-M   'C 2/c'
_symmetry_Int_Tables_number      15
_space_group_name_Hall           '-C 2yn'
loop_
_symmetry_equiv_pos_site_id
_symmetry_equiv_pos_as_xyz
1 x,y,z
2 -x,y,1/2-z
3 1/2+x,1/2+y,z
4 1/2-x,1/2+y,1/2-z
5 -x,-y,-z
6 x,-y,1/2+z
7 1/2-x,1/2-y,-z
8 1/2+x,1/2-y,1/2+z
_cell_length_a                   30.315(10)
_cell_length_b                   18.540(5)
_cell_length_c                   25.319(8)
_cell_angle_alpha                90
_cell_angle_beta                 118.325(4)
_cell_angle_gamma                90
_cell_volume                     12526.5
_exptl_crystal_colour            colorless
_exptl_crystal_description       block
_cell_formula_units_Z            8
loop_
_atom_site_label
_atom_site_type_symbol
_atom_site_fract_x
_atom_site_fract_y
_atom_site_fract_z
O1 O 0.14864(15) 0.05481(17) 0.18016(16)
H1 H 0.1390 0.0118 0.1767
O2 O 0.12334(14) 0.04010(18) 0.08245(16)
O3 O 0.48449(13) 0.4282(2) 0.07025(16)
H2 H 0.5132 0.4242 0.0733
O4 O 0.52556(13) 0.4071(2) 0.16931(17)
O5 O 0.16383(15) 0.79820(19) 0.18511(18)
O6 O 0.11225(18) 0.7898(2) 0.0859(2)
H3 H 0.1052 0.8320 0.0913
C1 C 0.22738(17) 0.3550(2) 0.12498(18)
C2 C 0.27364(16) 0.3552(2) 0.12387(18)
C3 C 0.29562(17) 0.4213(2) 0.12120(19)
C4 C 0.27264(17) 0.4855(2) 0.12287(18)
C5 C 0.22626(16) 0.4861(2) 0.12490(18)
C6 C 0.20397(17) 0.4201(2) 0.1254(2)
C7 C 0.20375(16) 0.2841(2) 0.1260(2)
C8 C 0.20187(18) 0.2611(3) 0.1768(2)
H4 H 0.2141 0.2916 0.2110
C9 C 0.18212(18) 0.1933(2) 0.1785(2)
H5 H 0.1814 0.1777 0.2138
C10 C 0.16376(16) 0.1493(2) 0.12881(19)
C11 C 0.1646(2) 0.1731(3) 0.0777(2)
H6 H 0.1517 0.1434 0.0430
C12 C 0.1843(2) 0.2404(3) 0.0768(2)
H7 H 0.1842 0.2564 0.0411
C13 C 0.14392(19) 0.0769(3) 0.1304(2)
C14 C 0.29731(16) 0.2852(2) 0.1236(2)
C15 C 0.3002(2) 0.2605(3) 0.0740(2)
H8 H 0.2898 0.2911 0.0401
C16 C 0.3178(2) 0.1926(3) 0.0724(3)
H9 H 0.3193 0.1774 0.0374
C17 C 0.3333(3) 0.1464(3) 0.1202(3)
C18 C 0.3330(2) 0.1718(3) 0.1715(3)
H10 H 0.3456 0.1419 0.2060
C19 C 0.31485(18) 0.2403(3) 0.1737(2)
H11 H 0.3144 0.2561 0.2091
C20 C 0.3431(4) 0.0666(4) 0.1125(4)
C21 C 0.2969(7) 0.0237(12) 0.1141(11)
H12 H 0.3003 -0.0281 0.1094
H13 H 0.2651 0.0409 0.0813
H14 H 0.2975 0.0326 0.1526
C22 C 0.3400(5) 0.0430(5) 0.0581(4)
H15 H 0.3683 0.0623 0.0540
H16 H 0.3085 0.0600 0.0246
H17 H 0.3409 -0.0099 0.0576
C23 C 0.3884(5) 0.0419(9) 0.1697(6)
H18 H 0.4184 0.0672 0.1741
H19 H 0.3930 -0.0102 0.1678
H20 H 0.3832 0.0528 0.2042
C24 C 0.34430(16) 0.4215(2) 0.1208(2)
C25 C 0.34791(17) 0.4399(3) 0.0697(2)
H21 H 0.3186 0.4545 0.0346
C26 C 0.39260(18) 0.4376(3) 0.0690(2)
H22 H 0.3940 0.4487 0.0332
C27 C 0.43592(17) 0.4189(2) 0.1204(2)
C28 C 0.43323(17) 0.4014(3) 0.1725(2)
H23 H 0.4627 0.3882 0.2079
C29 C 0.38797(18) 0.4033(3) 0.1725(2)
H24 H 0.3865 0.3921 0.2082
C30 C 0.4870(2) 0.4169(3) 0.1230(2)
C31 C 0.29552(17) 0.5580(2) 0.1237(2)
C32 C 0.3306(2) 0.5877(3) 0.1768(2)
H25 H 0.3446 0.5586 0.2119
C33 C 0.3463(2) 0.6582(3) 0.1808(2)
H26 H 0.3693 0.6774 0.2188
C34 C 0.3293(2) 0.7009(2) 0.1310(3)
C35 C 0.2978(2) 0.6694(3) 0.0775(3)
H27 H 0.2874 0.6962 0.0415
C36 C 0.2805(2) 0.6000(3) 0.0740(3)
H28 H 0.2575 0.5809 0.0360
C37 C 0.3440(3) 0.7807(3) 0.1350(4)
C38 C 0.3970(4) 0.7946(4) 0.1862(4)
H29 H 0.4214 0.7687 0.1782
H30 H 0.3994 0.7776 0.2241
H31 H 0.4042 0.8464 0.1891
C39 C 0.3423(3) 0.8098(4) 0.0780(4)
H32 H 0.3079 0.8068 0.0450
H33 H 0.3645 0.7812 0.0681
H34 H 0.3533 0.8603 0.0841
C40 C 0.3029(4) 0.8226(5) 0.1434(5)
H35 H 0.2698 0.8114 0.1100
H36 H 0.3091 0.8746 0.1442
H37 H 0.3041 0.8080 0.1813
C41 C 0.20402(17) 0.5563(2) 0.12807(19)
C42 C 0.2207(2) 0.5921(2) 0.1812(2)
H38 H 0.2459 0.5711 0.2170
C43 C 0.20104(19) 0.6596(3) 0.1832(2)
H39 H 0.2134 0.6839 0.2206
C44 C 0.16470(18) 0.6911(2) 0.1331(2)
C45 C 0.1478(2) 0.6547(3) 0.0801(3)
H40 H 0.1226 0.6759 0.0443
C46 C 0.1667(2) 0.5882(3) 0.0774(2)
H41 H 0.1539 0.5638 0.0400
C47 C 0.1460(2) 0.7641(3) 0.1357(2)
C48 C 0.15399(16) 0.4199(2) 0.1244(2)
C49 C 0.14710(19) 0.4338(3) 0.1728(2)
H42 H 0.1757 0.4459 0.2096
C50 C 0.1010(2) 0.4316(3) 0.1716(3)
H43 H 0.0984 0.4438 0.2065
C51 C 0.0592(2) 0.4117(3) 0.1203(3)
C52 C 0.0650(2) 0.3977(4) 0.0696(3)
H44 H 0.0364 0.3857 0.0328
C53 C 0.1123(2) 0.4012(4) 0.0720(2)
H45 H 0.1155 0.3907 0.0372
C54 C 0.0066(2) 0.4020(5) 0.1152(4)
C55 C 0.0067(2) 0.4283(4) 0.1731(3)
H46 H -0.0245 0.4136 0.1726
H47 H 0.0095 0.4810 0.1754
H48 H 0.0353 0.4071 0.2080
C56 C -0.0327(3) 0.4416(5) 0.0615(3)
H49 H -0.0287 0.4306 0.0262
H50 H -0.0289 0.4937 0.0691
H51 H -0.0661 0.4265 0.0542
C57 C -0.0056(4) 0.3164(6) 0.1079(6)
H52 H -0.0023 0.2978 0.0736
H53 H -0.0398 0.3083 0.1010
H54 H 0.0181 0.2912 0.1445
O7 O 0.56984(11) 0.41886(15) 0.06552(13)
H55 H 0.5867 0.4567 0.0711
H56 H 0.5592 0.4099 0.0290
O8 O 0.62576(12) 0.42225(16) 0.20130(13)
H57 H 0.5952 0.4180 0.1914
H58 H 0.6378 0.3837 0.1962
N1 N 0.53631(19) 0.3912(3) 0.9496(2)
C58 C 0.4886(2) 0.3962(3) 0.9071(3)
H59 H 0.4631 0.3996 0.9186
C59 C 0.4755(3) 0.3965(5) 0.8475(3)
H60 H 0.4411 0.3992 0.8183
C60 C 0.5106(3) 0.3931(6) 0.8297(3)
C61 C 0.5589(3) 0.3867(4) 0.8721(3)
H61 H 0.5844 0.3820 0.8607
C62 C 0.5712(2) 0.3870(3) 0.9313(3)
H62 H 0.6055 0.3840 0.9606
C63 C 0.4928(6) 0.3590(8) 0.7671(4)
H63 H 0.4592 0.3407 0.7472
N1A N 0.46369(19) 0.3912(3) 0.5504(2)
C58A C 0.5114(2) 0.3962(3) 0.5929(3)
H59A H 0.5369 0.3996 0.5814
C59A C 0.5245(3) 0.3965(5) 0.6525(3)
H60A H 0.5589 0.3992 0.6817
C60A C 0.4894(3) 0.3931(6) 0.6703(3)
C61A C 0.4411(3) 0.3867(4) 0.6279(3)
H61A H 0.4156 0.3820 0.6393
C62A C 0.4288(2) 0.3870(3) 0.5687(3)
H62A H 0.3945 0.3840 0.5394
C63A C 0.5072(6) 0.3590(8) 0.7329(4)
H63A H 0.5408 0.3407 0.7528
C64? C 0.2912(9) 0.034(3) 0.0661(19)
H64? H 0.2687 0.0332 0.0838
H65? H 0.2960 -0.0150 0.0556
H66? H 0.2765 0.0641 0.0298
C65? C 0.3820(9) 0.0678(14) 0.0917(14)
H67? H 0.4134 0.0873 0.1236
H68? H 0.3703 0.0982 0.0559
H69? H 0.3876 0.0186 0.0820
C66? C 0.3664(9) 0.0291(12) 0.1714(7)
H70? H 0.3927 0.0597 0.2015
H71? H 0.3811 -0.0166 0.1679
H72? H 0.3408 0.0195 0.1837
C67? C 0.5000 0.4286(6) 0.7500
H73? H 0.5290 0.4397 0.7455
H74? H 0.4704 0.4559 0.7254
H75? H 0.5166 0.3248 0.7669
loop_
_geom_bond_atom_site_label_1
_geom_bond_atom_site_label_2
_geom_bond_site_symmetry_1
_geom_bond_site_symmetry_2
O1 H1 1_555 1_555
O2 C13 1_555 1_555
O3 H2 1_555 1_555
O4 C30 1_555 1_555
O5 C47 1_555 1_555
O6 H3 1_555 1_555
C1 C2 1_555 1_555
C2 C3 1_555 1_555
C3 C4 1_555 1_555
C4 C5 1_555 1_555
C5 C6 1_555 1_555
C6 C1 1_555 1_555
C7 C1 1_555 1_555
C8 C7 1_555 1_555
H4 C8 1_555 1_555
C9 C8 1_555 1_555
H5 C9 1_555 1_555
C10 C9 1_555 1_555
C11 C10 1_555 1_555
H6 C11 1_555 1_555
C12 C7 1_555 1_555
H7 C12 1_555 1_555
C13 O1 1_555 1_555
C14 C2 1_555 1_555
C15 C14 1_555 1_555
H8 C15 1_555 1_555
C16 C15 1_555 1_555
H9 C16 1_555 1_555
C17 C16 1_555 1_555
C18 C17 1_555 1_555
H10 C18 1_555 1_555
C19 C14 1_555 1_555
H11 C19 1_555 1_555
C20 C17 1_555 1_555
C21 C20 1_555 1_555
H12 C21 1_555 1_555
H13 C21 1_555 1_555
H14 C21 1_555 1_555
C22 C20 1_555 1_555
H15 C22 1_555 1_555
H16 C22 1_555 1_555
H17 C22 1_555 1_555
C23 C20 1_555 1_555
H18 C23 1_555 1_555
H19 C23 1_555 1_555
H20 C23 1_555 1_555
C24 C3 1_555 1_555
C25 C24 1_555 1_555
H21 C25 1_555 1_555
C26 C25 1_555 1_555
H22 C26 1_555 1_555
C27 C26 1_555 1_555
C28 C27 1_555 1_555
H23 C28 1_555 1_555
C29 C24 1_555 1_555
H24 C29 1_555 1_555
C30 O3 1_555 1_555
C31 C4 1_555 1_555
C32 C31 1_555 1_555
H25 C32 1_555 1_555
C33 C32 1_555 1_555
H26 C33 1_555 1_555
C34 C33 1_555 1_555
C35 C34 1_555 1_555
H27 C35 1_555 1_555
C36 C31 1_555 1_555
H28 C36 1_555 1_555
C37 C34 1_555 1_555
C38 C37 1_555 1_555
H29 C38 1_555 1_555
H30 C38 1_555 1_555
H31 C38 1_555 1_555
C39 C37 1_555 1_555
H32 C39 1_555 1_555
H33 C39 1_555 1_555
H34 C39 1_555 1_555
C40 C37 1_555 1_555
H35 C40 1_555 1_555
H36 C40 1_555 1_555
H37 C40 1_555 1_555
C41 C5 1_555 1_555
C42 C41 1_555 1_555
H38 C42 1_555 1_555
C43 C42 1_555 1_555
H39 C43 1_555 1_555
C44 C43 1_555 1_555
C45 C44 1_555 1_555
H40 C45 1_555 1_555
C46 C41 1_555 1_555
H41 C46 1_555 1_555
C47 O6 1_555 1_555
C48 C6 1_555 1_555
C49 C48 1_555 1_555
H42 C49 1_555 1_555
C50 C49 1_555 1_555
H43 C50 1_555 1_555
C51 C50 1_555 1_555
C52 C51 1_555 1_555
H44 C52 1_555 1_555
C53 C48 1_555 1_555
H45 C53 1_555 1_555
C54 C51 1_555 1_555
C55 C54 1_555 1_555
H46 C55 1_555 1_555
H47 C55 1_555 1_555
H48 C55 1_555 1_555
C56 C54 1_555 1_555
H49 C56 1_555 1_555
H50 C56 1_555 1_555
H51 C56 1_555 1_555
C57 C54 1_555 1_555
H52 C57 1_555 1_555
H53 C57 1_555 1_555
H54 C57 1_555 1_555
O7 H55 1_555 1_555
H56 O7 1_555 1_555
O8 H57 1_555 1_555
H58 O8 1_555 1_555
N1 C58 1_555 1_555
C58 H59 1_555 1_555
C59 C58 1_555 1_555
H60 C59 1_555 1_555
C60 C59 1_555 1_555
C61 C60 1_555 1_555
H61 C61 1_555 1_555
C62 N1 1_555 1_555
H62 C62 1_555 1_555
C63 C60 1_555 1_555
H63 C63 1_555 1_555
N1A C58A 1_555 1_555
C58A H59A 1_555 1_555
C59A C58A 1_555 1_555
H60A C59A 1_555 1_555
C60A C59A 1_555 1_555
C61A C60A 1_555 1_555
H61A C61A 1_555 1_555
C62A N1A 1_555 1_555
H62A C62A 1_555 1_555
C63A C63 1_555 1_555
H63A C63A 1_555 1_555
C10 C13 1_555 1_555
C11 C12 1_555 1_555
C18 C19 1_555 1_555
C27 C30 1_555 1_555
C28 C29 1_555 1_555
C35 C36 1_555 1_555
C44 C47 1_555 1_555
C45 C46 1_555 1_555
C52 C53 1_555 1_555
C61 C62 1_555 1_555
C60A C63A 1_555 1_555
C61A C62A 1_555 1_555

#END
