
#######################################################################
#
#                 Cambridge Crystallographic Data Centre
#                                CCDC 
#
#######################################################################
#
# If this CIF has been generated from an entry in the Cambridge 
# Structural Database, then it will include bibliographic, chemical, 
# crystal, experimental, refinement or atomic coordinate data resulting 
# from the CCDC's data processing and validation procedures.
#
#######################################################################

data_KICNER
_chemical_formula_moiety         'C22 H27 N1 O5'
_chemical_name_systematic        
'Methyl 2-(1-ethoxy-1-oxo-3-phenylpropan-2-yl)-3-methyl-1-oxo-2-azaspiro[4.4]non-3-ene-4-carboxylate'
_symmetry_cell_setting           orthorhombic
_symmetry_space_group_name_H-M   'P 21 21 21'
_symmetry_Int_Tables_number      19
_space_group_name_Hall           'P 2ac 2ab'
loop_
_symmetry_equiv_pos_site_id
_symmetry_equiv_pos_as_xyz
1 x,y,z
2 1/2+x,1/2-y,-z
3 -x,1/2+y,1/2-z
4 1/2-x,-y,1/2+z
_cell_length_a                   9.623(9)
_cell_length_b                   21.48(2)
_cell_length_c                   10.161(9)
_cell_angle_alpha                90
_cell_angle_beta                 90
_cell_angle_gamma                90
_cell_volume                     2100.3
_exptl_crystal_colour            colorless
_exptl_crystal_description       hexagonal
_cell_formula_units_Z            4
loop_
_atom_site_label
_atom_site_type_symbol
_atom_site_fract_x
_atom_site_fract_y
_atom_site_fract_z
C1 C 1.0153(2) 0.14295(11) 0.4231(2)
N1 N 0.88828(18) 0.16999(8) 0.39911(18)
O1 O 1.09934(18) 0.16450(10) 0.50063(19)
C2 C 1.0276(2) 0.08539(11) 0.3396(2)
O2 O 0.7287(3) 0.03563(13) 0.1266(3)
C3 C 1.0565(4) 0.02794(15) 0.4291(4)
H1 H 1.0194 0.0350 0.5166
H2 H 1.0129 -0.0089 0.3926
O3 O 0.9435(2) -0.00084(10) 0.1396(2)
C4 C 1.2067(5) 0.0198(3) 0.4350(7)
H3 H 1.267(6) 0.059(3) 0.508(6)
O4 O 0.8895(3) 0.26266(11) 0.68399(19)
C5 C 1.2554(7) 0.0408(6) 0.3094(7)
H4 H 1.327(6) 0.051(3) 0.301(6)
H5 H 1.264(8) 0.009(3) 0.246(7)
O5 O 0.8156(3) 0.16498(9) 0.65397(19)
C6 C 1.1593(3) 0.09004(14) 0.2513(3)
H6 H 1.1374 0.0809 0.1602
H7 H 1.2007 0.1311 0.2566
C7 C 0.8899(2) 0.08519(10) 0.2679(2)
H8 H 1.251(4) -0.0239(17) 0.482(4)
C8 C 0.8133(2) 0.13514(10) 0.3055(2)
C9 C 0.8423(3) 0.03947(12) 0.1723(3)
C10 C 0.9077(4) -0.04796(17) 0.0452(5)
H9 H 0.8130 -0.0606 0.0584
H10 H 0.9678 -0.0832 0.0562
H11 H 0.9182 -0.0316 -0.0421
C11 C 0.8446(2) 0.22728(10) 0.4636(2)
H12 H 0.7465 0.2339 0.4419
C12 C 0.8548(3) 0.22049(12) 0.6134(2)
C13 C 0.6750(2) 0.15637(14) 0.2617(3)
H13 H 0.6394 0.1281 0.1968
H14 H 0.6826 0.1973 0.2242
H15 H 0.6130 0.1576 0.3357
C14 C 0.9250(3) 0.28459(12) 0.4165(3)
H16 H 0.8906 0.3212 0.4621
H17 H 1.0224 0.2797 0.4386
C15 C 0.9111(3) 0.29430(11) 0.2706(2)
C16 C 1.0017(3) 0.26735(15) 0.1832(3)
H18 H 1.0747 0.2433 0.2151
C17 C 0.9870(4) 0.27508(17) 0.0489(3)
H19 H 1.0484 0.2557 -0.0087
C18 C 0.8818(4) 0.31142(16) 0.0011(3)
H20 H 0.8731 0.3176 -0.0891
C19 C 0.7900(4) 0.33843(17) 0.0849(3)
H21 H 0.7175 0.3624 0.0519
C20 C 0.8042(3) 0.33023(14) 0.2205(3)
H22 H 0.7414 0.3491 0.2775
C21 C 0.8266(6) 0.1512(2) 0.7944(3)
H23 H 0.8609 0.1876 0.8407
H24 H 0.7355 0.1411 0.8293
C22 C 0.9179(10) 0.1007(3) 0.8152(6)
H25 H 0.8854 0.0651 0.7671
H26 H 0.9211 0.0909 0.9074
H27 H 1.0093 0.1117 0.7853
loop_
_geom_bond_atom_site_label_1
_geom_bond_atom_site_label_2
_geom_bond_site_symmetry_1
_geom_bond_site_symmetry_2
C1 N1 1_555 1_555
N1 C8 1_555 1_555
O1 C1 1_555 1_555
C2 C1 1_555 1_555
O2 C9 1_555 1_555
C3 C2 1_555 1_555
H1 C3 1_555 1_555
H2 C3 1_555 1_555
O3 C9 1_555 1_555
C4 C3 1_555 1_555
H3 C4 1_555 1_555
O4 C12 1_555 1_555
C5 C4 1_555 1_555
H4 C5 1_555 1_555
H5 C5 1_555 1_555
O5 C12 1_555 1_555
C6 C2 1_555 1_555
H6 C6 1_555 1_555
H7 C6 1_555 1_555
C7 C2 1_555 1_555
H8 C4 1_555 1_555
C8 C7 1_555 1_555
C9 C7 1_555 1_555
C10 O3 1_555 1_555
H9 C10 1_555 1_555
H10 C10 1_555 1_555
H11 C10 1_555 1_555
C11 N1 1_555 1_555
H12 C11 1_555 1_555
C12 C11 1_555 1_555
C13 C8 1_555 1_555
H13 C13 1_555 1_555
H14 C13 1_555 1_555
H15 C13 1_555 1_555
C14 C11 1_555 1_555
H16 C14 1_555 1_555
H17 C14 1_555 1_555
C15 C14 1_555 1_555
C16 C15 1_555 1_555
H18 C16 1_555 1_555
C17 C16 1_555 1_555
H19 C17 1_555 1_555
C18 C17 1_555 1_555
H20 C18 1_555 1_555
C19 C18 1_555 1_555
H21 C19 1_555 1_555
C20 C15 1_555 1_555
H22 C20 1_555 1_555
C21 O5 1_555 1_555
H23 C21 1_555 1_555
H24 C21 1_555 1_555
C22 C21 1_555 1_555
H25 C22 1_555 1_555
H26 C22 1_555 1_555
H27 C22 1_555 1_555
C5 C6 1_555 1_555
C19 C20 1_555 1_555

#END
