
#######################################################################
#
#                 Cambridge Crystallographic Data Centre
#                                CCDC 
#
#######################################################################
#
# If this CIF has been generated from an entry in the Cambridge 
# Structural Database, then it will include bibliographic, chemical, 
# crystal, experimental, refinement or atomic coordinate data resulting 
# from the CCDC's data processing and validation procedures.
#
#######################################################################

data_KICNUH
_chemical_formula_moiety         'C57 H54 O6,0.5(C12 H10 N2),2(H2 O1)'
_chemical_name_systematic        
'1,3,5-tris(4-t-Butylphenyl)-2,4,6-tris(4-carboxyphenyl)benzene hemikis(1,2-bis(4-pyridyl)ethene) dihydrate'
_symmetry_cell_setting           monoclinic
_symmetry_space_group_name_H-M   'C 2/c'
_symmetry_Int_Tables_number      15
_space_group_name_Hall           '-C 2yn'
loop_
_symmetry_equiv_pos_site_id
_symmetry_equiv_pos_as_xyz
1 x,y,z
2 -x,y,1/2-z
3 1/2+x,1/2+y,z
4 1/2-x,1/2+y,1/2-z
5 -x,-y,-z
6 x,-y,1/2+z
7 1/2-x,1/2-y,-z
8 1/2+x,1/2-y,1/2+z
_cell_length_a                   31.214(9)
_cell_length_b                   18.145(4)
_cell_length_c                   26.186(7)
_cell_angle_alpha                90
_cell_angle_beta                 122.923(3)
_cell_angle_gamma                90
_cell_volume                     12449.3
_exptl_crystal_colour            colorless
_exptl_crystal_description       block
_cell_formula_units_Z            8
loop_
_atom_site_label
_atom_site_type_symbol
_atom_site_fract_x
_atom_site_fract_y
_atom_site_fract_z
O1 O 0.46889(8) 1.09697(13) 0.56585(10)
H1 H 0.4973 1.0984 0.5694
O2 O 0.51732(7) 1.07450(13) 0.66548(10)
O3 O 0.10185(10) 0.72044(12) 0.57883(12)
H2 H 0.0907 0.6810 0.5842
O4 O 0.14211(11) 0.72637(12) 0.68005(13)
O5 O 0.10579(9) 1.46665(12) 0.58566(11)
O6 O 0.15920(9) 1.46832(12) 0.68702(11)
H3 H 0.1420 1.5058 0.6835
C1 C 0.29158(9) 1.09102(13) 0.62304(11)
C2 C 0.27072(9) 1.15877(13) 0.62546(11)
C3 C 0.22621(9) 1.15942(13) 0.62606(12)
C4 C 0.20246(9) 1.09301(13) 0.62516(11)
C5 C 0.22428(9) 1.02536(13) 0.62437(11)
C6 C 0.26871(9) 1.02420(13) 0.62315(11)
C7 C 0.33905(9) 1.09022(13) 0.62172(12)
C8 C 0.38585(11) 1.0716(2) 0.67336(13)
H4 H 0.3878 1.0588 0.7097
C9 C 0.42992(11) 1.0717(2) 0.67221(14)
H5 H 0.4618 1.0603 0.7082
C10 C 0.42787(9) 1.08836(13) 0.61920(12)
C11 C 0.38166(11) 1.10573(19) 0.56806(14)
H6 H 0.3796 1.1168 0.5313
C12 C 0.33764(11) 1.1074(2) 0.56939(14)
H7 H 0.3060 1.1205 0.5336
C13 C 0.47602(10) 1.08600(14) 0.61977(13)
C14 C 0.29567(9) 1.22938(13) 0.62596(12)
C15 C 0.34243(12) 1.25055(18) 0.67513(14)
H8 H 0.3587 1.2213 0.7110
C16 C 0.36613(14) 1.31435(19) 0.67293(16)
H9 H 0.3983 1.3279 0.7076
C17 C 0.34419(12) 1.35868(16) 0.62161(16)
C18 C 0.29707(13) 1.33862(19) 0.57413(17)
H10 H 0.2803 1.3689 0.5389
C19 C 0.27266(11) 1.27534(16) 0.57560(14)
H11 H 0.2397 1.2634 0.5416
C20 C 0.37305(13) 1.42546(19) 0.6184(2)
C21 C 0.4179(2) 1.3957(3) 0.6154(4)
H12 H 0.4367 1.4371 0.6126
H13 H 0.4047 1.3642 0.5794
H14 H 0.4408 1.3670 0.6521
C22 C 0.3933(3) 1.4720(3) 0.6744(3)
H15 H 0.3663 1.4801 0.6822
H16 H 0.4048 1.5196 0.6682
H17 H 0.4222 1.4468 0.7093
C23 C 0.34040(18) 1.4742(2) 0.5650(2)
H18 H 0.3598 1.5182 0.5678
H19 H 0.3101 1.4889 0.5648
H20 H 0.3299 1.4475 0.5275
C24 C 0.20359(9) 1.23199(13) 0.62827(12)
C25 C 0.22716(10) 1.27285(14) 0.68166(12)
H21 H 0.2581 1.2557 0.7164
C26 C 0.20581(10) 1.33869(14) 0.68462(12)
H22 H 0.2214 1.3653 0.7218
C27 C 0.16172(10) 1.36553(14) 0.63326(13)
C28 C 0.13751(10) 1.32438(15) 0.57966(12)
H23 H 0.1068 1.3418 0.5447
C29 C 0.15855(10) 1.25783(14) 0.57767(12)
H24 H 0.1419 1.2296 0.5412
C30 C 0.14065(10) 1.43856(14) 0.63486(13)
C31 C 0.15383(9) 1.09514(13) 0.62356(12)
C32 C 0.15210(10) 1.12508(15) 0.67177(13)
H25 H 0.1825 1.1433 0.7067
C33 C 0.10676(11) 1.12829(16) 0.66901(14)
H26 H 0.1067 1.1484 0.7025
C34 C 0.06074(10) 1.10273(14) 0.61834(13)
C35 C 0.06313(10) 1.07145(16) 0.57145(14)
H27 H 0.0330 1.0516 0.5371
C36 C 0.10863(10) 1.06857(15) 0.57377(12)
H28 H 0.1088 1.0479 0.5405
C37 C 0.01096(11) 1.11108(17) 0.61604(16)
C38 C -0.00091(16) 1.1939(2) 0.6131(3)
H29 H -0.0063 1.2148 0.5755
H30 H 0.0278 1.2190 0.6482
H31 H -0.0318 1.2007 0.6138
C39 C 0.01694(15) 1.0787(2) 0.67346(19)
H32 H -0.0149 1.0853 0.6719
H33 H 0.0448 1.1039 0.7093
H34 H 0.0247 1.0260 0.6759
C40 C -0.03415(13) 1.0726(2) 0.56047(19)
H35 H -0.0404 1.0957 0.5232
H36 H -0.0647 1.0774 0.5620
H37 H -0.0262 1.0203 0.5608
C41 C 0.19950(9) 0.95428(13) 0.62527(12)
C42 C 0.19584(10) 0.93787(14) 0.67458(12)
H38 H 0.2083 0.9720 0.7072
C43 C 0.17419(10) 0.87219(14) 0.67673(13)
H39 H 0.1724 0.8609 0.7109
C44 C 0.15504(10) 0.82258(14) 0.62821(13)
C45 C 0.15753(11) 0.83916(14) 0.57840(13)
H40 H 0.1438 0.8059 0.5451
C46 C 0.18008(10) 0.90460(14) 0.57696(13)
H41 H 0.1823 0.9155 0.5430
C47 C 0.13210(11) 0.75210(15) 0.63085(14)
C48 C 0.29167(9) 0.95178(13) 0.62312(12)
C49 C 0.31233(10) 0.90485(14) 0.67317(13)
H42 H 0.3136 0.9202 0.7087
C50 C 0.33100(10) 0.83605(15) 0.67176(13)
H43 H 0.3448 0.8050 0.7064
C51 C 0.33012(10) 0.81123(14) 0.62075(12)
C52 C 0.31064(10) 0.85889(15) 0.57155(13)
H44 H 0.3099 0.8440 0.5363
C53 C 0.29216(10) 0.92797(15) 0.57291(13)
H45 H 0.2796 0.9597 0.5388
C54 C 0.34897(12) 0.73291(15) 0.62027(15)
C55 C 0.34748(14) 0.71729(19) 0.56180(17)
H46 H 0.3678 0.7544 0.5569
H47 H 0.3121 0.7192 0.5268
H48 H 0.3616 0.6682 0.5643
C56 C 0.40384(13) 0.72220(18) 0.67501(16)
H49 H 0.4048 0.7291 0.7128
H50 H 0.4263 0.7584 0.6731
H51 H 0.4154 0.6723 0.6741
C57 C 0.31330(16) 0.67794(17) 0.6247(2)
H52 H 0.2781 0.6856 0.5903
H53 H 0.3152 0.6859 0.6629
H54 H 0.3239 0.6274 0.6236
O7 O 0.11789(8) 0.41075(11) 0.19896(9)
H55 H 0.1277 0.3671 0.2009
H56 H 0.0883 0.4105 0.1921
O8 O 0.05201(7) 0.59368(10) 0.55990(8)
H57 H 0.0431 0.5961 0.5234
H58 H 0.0698 0.5553 0.5741
N1 N 0.02795(10) 0.60573(14) 0.44560(11)
C58 C -0.01989(13) 0.61313(19) 0.39881(15)
H59 H -0.0457 0.6188 0.4072
C59 C -0.03444(13) 0.61306(18) 0.33902(15)
H60 H -0.0695 0.6174 0.3076
C60 C 0.00168(13) 0.60667(16) 0.32450(13)
C61 C 0.05270(13) 0.60005(17) 0.37386(15)
H61 H 0.0794 0.5962 0.3668
C62 C 0.06363(13) 0.59918(18) 0.43252(14)
H62 H 0.0982 0.5937 0.4652
C63 C -0.01502(14) 0.60656(17) 0.26020(15)
H63 H -0.0507 0.6065 0.2309
N1A N -0.02795(10) 0.60573(14) 0.05440(11)
C58A C 0.01989(13) 0.61313(19) 0.10119(15)
H59A H 0.0457 0.6188 0.0928
C59A C 0.03444(13) 0.61306(18) 0.16098(15)
H60A H 0.0695 0.6174 0.1924
C60A C -0.00168(13) 0.60667(16) 0.17550(13)
C61A C -0.05270(13) 0.60005(17) 0.12614(15)
H61A H -0.0794 0.5962 0.1332
C62A C -0.06363(13) 0.59918(18) 0.06748(14)
H62A H -0.0982 0.5937 0.0348
C63A C 0.01502(14) 0.60656(17) 0.23980(15)
H63A H 0.0507 0.6065 0.2691
loop_
_geom_bond_atom_site_label_1
_geom_bond_atom_site_label_2
_geom_bond_site_symmetry_1
_geom_bond_site_symmetry_2
O1 H1 1_555 1_555
O2 C13 1_555 1_555
O3 H2 1_555 1_555
O4 C47 1_555 1_555
O5 C30 1_555 1_555
O6 H3 1_555 1_555
C1 C2 1_555 1_555
C2 C3 1_555 1_555
C3 C4 1_555 1_555
C4 C5 1_555 1_555
C5 C6 1_555 1_555
C6 C1 1_555 1_555
C7 C1 1_555 1_555
C8 C7 1_555 1_555
H4 C8 1_555 1_555
C9 C8 1_555 1_555
H5 C9 1_555 1_555
C10 C9 1_555 1_555
C11 C10 1_555 1_555
H6 C11 1_555 1_555
C12 C7 1_555 1_555
H7 C12 1_555 1_555
C13 O1 1_555 1_555
C14 C2 1_555 1_555
C15 C14 1_555 1_555
H8 C15 1_555 1_555
C16 C15 1_555 1_555
H9 C16 1_555 1_555
C17 C16 1_555 1_555
C18 C17 1_555 1_555
H10 C18 1_555 1_555
C19 C14 1_555 1_555
H11 C19 1_555 1_555
C20 C17 1_555 1_555
C21 C20 1_555 1_555
H12 C21 1_555 1_555
H13 C21 1_555 1_555
H14 C21 1_555 1_555
C22 C20 1_555 1_555
H15 C22 1_555 1_555
H16 C22 1_555 1_555
H17 C22 1_555 1_555
C23 C20 1_555 1_555
H18 C23 1_555 1_555
H19 C23 1_555 1_555
H20 C23 1_555 1_555
C24 C3 1_555 1_555
C25 C24 1_555 1_555
H21 C25 1_555 1_555
C26 C25 1_555 1_555
H22 C26 1_555 1_555
C27 C26 1_555 1_555
C28 C27 1_555 1_555
H23 C28 1_555 1_555
C29 C24 1_555 1_555
H24 C29 1_555 1_555
C30 O6 1_555 1_555
C31 C4 1_555 1_555
C32 C31 1_555 1_555
H25 C32 1_555 1_555
C33 C32 1_555 1_555
H26 C33 1_555 1_555
C34 C33 1_555 1_555
C35 C34 1_555 1_555
H27 C35 1_555 1_555
C36 C31 1_555 1_555
H28 C36 1_555 1_555
C37 C34 1_555 1_555
C38 C37 1_555 1_555
H29 C38 1_555 1_555
H30 C38 1_555 1_555
H31 C38 1_555 1_555
C39 C37 1_555 1_555
H32 C39 1_555 1_555
H33 C39 1_555 1_555
H34 C39 1_555 1_555
C40 C37 1_555 1_555
H35 C40 1_555 1_555
H36 C40 1_555 1_555
H37 C40 1_555 1_555
C41 C5 1_555 1_555
C42 C41 1_555 1_555
H38 C42 1_555 1_555
C43 C42 1_555 1_555
H39 C43 1_555 1_555
C44 C43 1_555 1_555
C45 C44 1_555 1_555
H40 C45 1_555 1_555
C46 C41 1_555 1_555
H41 C46 1_555 1_555
C47 O3 1_555 1_555
C48 C6 1_555 1_555
C49 C48 1_555 1_555
H42 C49 1_555 1_555
C50 C49 1_555 1_555
H43 C50 1_555 1_555
C51 C50 1_555 1_555
C52 C51 1_555 1_555
H44 C52 1_555 1_555
C53 C48 1_555 1_555
H45 C53 1_555 1_555
C54 C51 1_555 1_555
C55 C54 1_555 1_555
H46 C55 1_555 1_555
H47 C55 1_555 1_555
H48 C55 1_555 1_555
C56 C54 1_555 1_555
H49 C56 1_555 1_555
H50 C56 1_555 1_555
H51 C56 1_555 1_555
C57 C54 1_555 1_555
H52 C57 1_555 1_555
H53 C57 1_555 1_555
H54 C57 1_555 1_555
O7 H55 1_555 1_555
H56 O7 1_555 1_555
O8 H57 1_555 1_555
H58 O8 1_555 1_555
N1 C58 1_555 1_555
C58 H59 1_555 1_555
C59 C58 1_555 1_555
H60 C59 1_555 1_555
C60 C59 1_555 1_555
C61 C60 1_555 1_555
H61 C61 1_555 1_555
C62 N1 1_555 1_555
H62 C62 1_555 1_555
C63 C60 1_555 1_555
H63 C63 1_555 1_555
N1A C58A 1_555 1_555
C58A H59A 1_555 1_555
C59A C58A 1_555 1_555
H60A C59A 1_555 1_555
C60A C59A 1_555 1_555
C61A C60A 1_555 1_555
H61A C61A 1_555 1_555
C62A N1A 1_555 1_555
H62A C62A 1_555 1_555
C63A C63 1_555 1_555
H63A C63A 1_555 1_555
C10 C13 1_555 1_555
C11 C12 1_555 1_555
C18 C19 1_555 1_555
C27 C30 1_555 1_555
C28 C29 1_555 1_555
C35 C36 1_555 1_555
C44 C47 1_555 1_555
C45 C46 1_555 1_555
C52 C53 1_555 1_555
C61 C62 1_555 1_555
C60A C63A 1_555 1_555
C61A C62A 1_555 1_555

#END
