
#######################################################################
#
#                 Cambridge Crystallographic Data Centre
#                                CCDC 
#
#######################################################################
#
# If this CIF has been generated from an entry in the Cambridge 
# Structural Database, then it will include bibliographic, chemical, 
# crystal, experimental, refinement or atomic coordinate data resulting 
# from the CCDC's data processing and validation procedures.
#
#######################################################################

data_KICPIX
_chemical_formula_moiety         'C57 H54 O6,3(C3 H6 O1),2(H2 O1)'
_chemical_name_systematic        
'1,3,5-tris(4-t-Butylphenyl)-2,4,6-tris(4-carboxyphenyl)benzene acetone solvate dihydrate'
_symmetry_cell_setting           triclinic
_symmetry_space_group_name_H-M   'P -1'
_symmetry_Int_Tables_number      2
_space_group_name_Hall           '-P 1'
loop_
_symmetry_equiv_pos_site_id
_symmetry_equiv_pos_as_xyz
1 x,y,z
2 -x,-y,-z
_cell_length_a                   16.378(5)
_cell_length_b                   18.037(5)
_cell_length_c                   23.771(7)
_cell_angle_alpha                103.79
_cell_angle_beta                 102.499(4)
_cell_angle_gamma                111.865(4)
_cell_volume                     5955.31
_exptl_crystal_colour            colorless
_exptl_crystal_description       block
_cell_formula_units_Z            4
loop_
_atom_site_label
_atom_site_type_symbol
_atom_site_fract_x
_atom_site_fract_y
_atom_site_fract_z
O1 O 0.5032(2) 0.12395(19) 0.43361(16)
H1 H 0.4863 0.0712 0.4239
O2 O 0.5963(2) 0.1151(2) 0.37825(16)
O3 O 1.3317(2) 0.8876(3) 0.7465(2)
O4 O 1.2662(3) 0.8679(3) 0.81873(18)
H2 H 1.3226 0.8931 0.8414
O5 O 0.5948(3) 0.8592(2) 0.35801(16)
H3 H 0.5685 0.8885 0.3480
O6 O 0.5548(3) 0.8910(2) 0.44072(17)
C1 C 0.7629(3) 0.5274(2) 0.5068(2)
C2 C 0.8511(3) 0.5721(3) 0.55350(18)
C3 C 0.8960(3) 0.6617(3) 0.57508(18)
C4 C 0.8508(3) 0.7068(3) 0.55219(19)
C5 C 0.7627(3) 0.6622(2) 0.50592(18)
C6 C 0.7189(3) 0.5723(2) 0.48248(18)
C7 C 0.7138(3) 0.4310(3) 0.48329(19)
C8 C 0.6368(3) 0.3884(3) 0.4981(2)
H4 H 0.6147 0.4198 0.5236
C9 C 0.5916(3) 0.2999(3) 0.4762(2)
H5 H 0.5397 0.2715 0.4877
C10 C 0.6205(3) 0.2528(3) 0.4381(2)
C11 C 0.6974(3) 0.2949(3) 0.4227(2)
H6 H 0.7182 0.2628 0.3966
C12 C 0.7445(3) 0.3832(3) 0.4448(2)
H7 H 0.7973 0.4114 0.4340
C13 C 0.5720(3) 0.1578(3) 0.4138(2)
C14 C 0.8975(3) 0.5227(2) 0.57806(19)
C15 C 0.8586(3) 0.4696(3) 0.6087(2)
H8 H 0.8046 0.4681 0.6181
C16 C 0.8980(3) 0.4187(3) 0.6258(2)
H9 H 0.8703 0.3831 0.6469
C17 C 0.9768(3) 0.4182(3) 0.61300(19)
C18 C 1.0181(3) 0.4747(3) 0.5849(2)
H10 H 1.0738 0.4782 0.5773
C19 C 0.9789(3) 0.5262(3) 0.5678(2)
H11 H 1.0084 0.5642 0.5488
C20 C 1.0140(3) 0.3563(3) 0.6281(2)
C21 C 0.9370(4) 0.2648(3) 0.5929(3)
H12 H 0.9601 0.2245 0.6020
H13 H 0.9195 0.2542 0.5486
H14 H 0.8822 0.2572 0.6057
C22 C 1.0981(4) 0.3637(3) 0.6086(3)
H15 H 1.1490 0.4215 0.6305
H16 H 1.0810 0.3519 0.5641
H17 H 1.1187 0.3224 0.6185
C23 C 1.0399(4) 0.3717(3) 0.6961(2)
H18 H 1.0893 0.4300 0.7191
H19 H 1.0623 0.3310 0.7050
H20 H 0.9848 0.3642 0.7085
C24 C 0.9910(3) 0.7109(2) 0.62340(19)
C25 C 1.0685(3) 0.7559(3) 0.6088(2)
H21 H 1.0611 0.7538 0.5677
C26 C 1.1560(3) 0.8036(3) 0.6538(2)
H22 H 1.2085 0.8335 0.6433
C27 C 1.1668(3) 0.8077(3) 0.7143(2)
C28 C 1.0901(3) 0.7629(3) 0.7290(2)
H23 H 1.0973 0.7659 0.7704
C29 C 1.0035(3) 0.7139(3) 0.6838(2)
H24 H 0.9517 0.6819 0.6940
C30 C 1.2609(3) 0.8577(3) 0.7627(2)
C31 C 0.9008(3) 0.8027(2) 0.57630(18)
C32 C 0.9365(3) 0.8470(3) 0.5404(2)
H25 H 0.9244 0.8173 0.4984
C33 C 0.9902(3) 0.9352(3) 0.5656(2)
H26 H 1.0138 0.9646 0.5400
C34 C 1.0104(3) 0.9813(3) 0.6263(2)
C35 C 0.9704(3) 0.9363(3) 0.6606(2)
H27 H 0.9802 0.9664 0.7021
C36 C 0.9168(3) 0.8491(3) 0.6367(2)
H28 H 0.8903 0.8203 0.6617
C37 C 1.0779(3) 1.0775(3) 0.6563(2)
C38 C 1.1701(4) 1.0875(4) 0.6958(3)
H29 H 1.2140 1.1483 0.7154
H30 H 1.1959 1.0582 0.6700
H31 H 1.1599 1.0626 0.7276
C39 C 1.0367(5) 1.1231(3) 0.6951(3)
H32 H 0.9775 1.1165 0.6688
H33 H 1.0806 1.1839 0.7148
H34 H 1.0255 1.0984 0.7269
C40 C 1.0926(4) 1.1184(3) 0.6082(2)
H35 H 1.0325 1.1117 0.5831
H36 H 1.1190 1.0907 0.5817
H37 H 1.1358 1.1793 0.6286
C41 C 0.7162(3) 0.7108(2) 0.48116(19)
C42 C 0.6821(3) 0.7568(3) 0.5173(2)
H38 H 0.6869 0.7566 0.5578
C43 C 0.6412(3) 0.8029(3) 0.4937(2)
H39 H 0.6176 0.8336 0.5183
C44 C 0.6343(3) 0.8049(3) 0.4352(2)
C45 C 0.6671(3) 0.7588(3) 0.3999(2)
H40 H 0.6620 0.7591 0.3594
C46 C 0.7077(3) 0.7116(3) 0.4222(2)
H41 H 0.7296 0.6797 0.3968
C47 C 0.5912(3) 0.8550(3) 0.4108(2)
C48 C 0.6254(3) 0.5234(3) 0.43286(19)
C49 C 0.5462(3) 0.5249(3) 0.4435(2)
H42 H 0.5527 0.5636 0.4810
C50 C 0.4572(3) 0.4710(3) 0.4006(2)
H43 H 0.4043 0.4730 0.4098
C51 C 0.4444(3) 0.4148(3) 0.34495(19)
C52 C 0.5253(3) 0.4170(3) 0.3321(2)
H44 H 0.5190 0.3813 0.2933
C53 C 0.6143(3) 0.4703(3) 0.37534(19)
H45 H 0.6677 0.4707 0.3657
C54 C 0.3477(3) 0.3493(3) 0.2982(2)
C55 C 0.2682(3) 0.3544(3) 0.3213(2)
H46 H 0.2753 0.3444 0.3604
H47 H 0.2078 0.3109 0.2908
H48 H 0.2710 0.4110 0.3273
C56 C 0.3350(3) 0.3643(3) 0.2370(2)
H49 H 0.3849 0.3608 0.2217
H50 H 0.3378 0.4210 0.2430
H51 H 0.2742 0.3207 0.2070
C57 C 0.3389(4) 0.2596(3) 0.2888(3)
H52 H 0.3469 0.2504 0.3282
H53 H 0.3872 0.2533 0.2727
H54 H 0.2770 0.2175 0.2594
O7 O -0.4113(3) 0.1157(2) -0.14079(18)
H55 H -0.4363 0.0623 -0.1511
O8 O -0.4466(3) 0.1094(2) -0.0555(2)
O9 O 0.3307(2) 0.8313(3) 0.24806(17)
O10 O 0.2645(2) 0.8649(2) 0.31587(15)
H56 H 0.3200 0.8887 0.3401
O11 O -0.5046(3) 0.8298(3) -0.0803(2)
O12 O -0.4078(2) 0.8604(2) -0.13435(18)
H57 H -0.4404 0.8835 -0.1471
C58 C -0.2389(3) 0.5196(2) 0.00520(18)
C59 C -0.1509(3) 0.5639(2) 0.05162(18)
C60 C -0.1062(3) 0.6538(3) 0.07371(18)
C61 C -0.1508(3) 0.6990(3) 0.05059(19)
C62 C -0.2391(3) 0.6545(3) 0.00503(18)
C63 C -0.2841(3) 0.5641(3) -0.01883(18)
C64 C -0.2861(3) 0.4232(2) -0.01871(19)
C65 C -0.3011(3) 0.3778(3) -0.07930(19)
H58 H -0.2832 0.4078 -0.1059
C66 C -0.3416(3) 0.2901(3) -0.1010(2)
H59 H -0.3506 0.2599 -0.1422
C67 C -0.3693(3) 0.2454(3) -0.0629(2)
C68 C -0.3575(3) 0.2895(3) -0.0032(2)
H60 H -0.3786 0.2592 0.0226
C69 C -0.3146(3) 0.3784(3) 0.0189(2)
H61 H -0.3047 0.4086 0.0604
C70 C -0.4134(3) 0.1498(3) -0.0859(2)
C71 C -0.1012(3) 0.5176(3) 0.07641(18)
C72 C -0.0736(3) 0.4667(3) 0.0398(2)
H62 H -0.0934 0.4548 -0.0034
C73 C -0.0173(3) 0.4323(3) 0.06459(19)
H63 H 0.0021 0.3993 0.0380
C74 C 0.0107(3) 0.4449(3) 0.1258(2)
C75 C -0.0222(3) 0.4923(3) 0.1631(2)
H64 H -0.0072 0.4994 0.2056
C76 C -0.0756(3) 0.5284(3) 0.1391(2)
H65 H -0.0954 0.5612 0.1655
C77 C 0.0779(3) 0.4134(3) 0.1550(2)
C78 C 0.0985(4) 0.3564(4) 0.1068(3)
H66 H 0.0401 0.3063 0.0796
H67 H 0.1419 0.3380 0.1275
H68 H 0.1267 0.3886 0.0825
C79 C 0.0369(4) 0.3604(4) 0.1923(3)
H69 H -0.0219 0.3107 0.1651
H70 H 0.0250 0.3954 0.2249
H71 H 0.0812 0.3412 0.2107
C80 C 0.1701(4) 0.4904(4) 0.1972(3)
H72 H 0.1967 0.5242 0.1733
H73 H 0.2139 0.4707 0.2156
H74 H 0.1587 0.5257 0.2299
C81 C -0.0103(3) 0.7020(2) 0.12259(19)
C82 C 0.0017(3) 0.7431(3) 0.18231(19)
H75 H -0.0510 0.7437 0.1927
C83 C 0.0885(3) 0.7839(3) 0.2279(2)
H76 H 0.0947 0.8107 0.2692
C84 C 0.1663(3) 0.7855(3) 0.21328(19)
C85 C 0.1552(3) 0.7449(3) 0.1525(2)
H77 H 0.2080 0.7454 0.1418
C86 C 0.0677(3) 0.7039(3) 0.1075(2)
H78 H 0.0608 0.6768 0.0661
C87 C 0.2617(3) 0.8295(3) 0.2603(2)
C88 C -0.1055(3) 0.7948(3) 0.07430(18)
C89 C -0.1420(3) 0.8402(3) 0.1082(2)
H79 H -0.1943 0.8104 0.1189
C90 C -0.1030(3) 0.9284(3) 0.1265(2)
H80 H -0.1299 0.9578 0.1490
C91 C -0.0262(3) 0.9747(3) 0.11304(19)
C92 C 0.0124(3) 0.9301(3) 0.0812(2)
H81 H 0.0661 0.9607 0.0721
C93 C -0.0257(3) 0.8413(3) 0.0622(2)
H82 H 0.0028 0.8124 0.0410
C94 C 0.0107(3) 1.0722(3) 0.1309(2)
C95 C 0.0391(5) 1.1138(4) 0.2010(3)
H83 H 0.1010 1.1193 0.2211
H84 H -0.0067 1.0782 0.2158
H85 H 0.0409 1.1705 0.2108
C96 C 0.0995(5) 1.1124(4) 0.1132(4)
H86 H 0.0829 1.0906 0.0683
H87 H 0.1474 1.0971 0.1321
H88 H 0.1240 1.1746 0.1279
C97 C -0.0625(6) 1.0924(5) 0.0977(4)
H89 H -0.0863 1.0587 0.0537
H90 H -0.0351 1.1533 0.1036
H91 H -0.1141 1.0784 0.1142
C98 C -0.2897(3) 0.7012(2) -0.01914(18)
C99 C -0.2560(3) 0.7485(3) -0.0552(2)
H92 H -0.1999 0.7531 -0.0625
C100 C -0.3047(3) 0.7888(3) -0.0803(2)
H93 H -0.2825 0.8190 -0.1058
C101 C -0.3845(3) 0.7854(3) -0.0684(2)
C102 C -0.4167(3) 0.7400(3) -0.0319(2)
H94 H -0.4714 0.7372 -0.0231
C103 C -0.3692(3) 0.6987(3) -0.0084(2)
H95 H -0.3927 0.6673 0.0162
C104 C -0.4381(4) 0.8273(3) -0.0944(2)
C105 C -0.3782(3) 0.5186(2) -0.06665(18)
C106 C -0.3931(3) 0.5294(3) -0.12381(19)
H96 H -0.3410 0.5610 -0.1339
C107 C -0.4818(3) 0.4951(3) -0.16560(19)
H97 H -0.4898 0.5022 -0.2044
C108 C -0.5608(3) 0.4498(3) -0.15173(18)
C109 C -0.5449(3) 0.4355(3) -0.0974(2)
H98 H -0.5969 0.4019 -0.0881
C110 C -0.4558(3) 0.4681(3) -0.0553(2)
H99 H -0.4480 0.4557 -0.0184
C111 C -0.6591(3) 0.4207(3) -0.1962(2)
C112 C -0.6700(4) 0.4976(4) -0.2044(3)
H100 H -0.6621 0.5360 -0.1646
H101 H -0.7325 0.4788 -0.2334
H102 H -0.6226 0.5278 -0.2205
C113 C -0.6733(4) 0.3593(4) -0.2584(2)
H103 H -0.7361 0.3408 -0.2869
H104 H -0.6667 0.3095 -0.2528
H105 H -0.6264 0.3884 -0.2753
C114 C -0.7355(3) 0.3741(4) -0.1734(2)
H106 H -0.7292 0.4122 -0.1340
H107 H -0.7301 0.3238 -0.1680
H108 H -0.7967 0.3562 -0.2036
O13 O 0.5222(2) 0.94379(19) 0.30800(14)
H118 H 0.5449 0.9972 0.3233
H119 H 0.4645 0.9127 0.2903
O14 O 0.42527(19) 0.95131(18) 0.41180(13)
H120 H 0.4741 0.9447 0.4198
H121 H 0.3917 0.9346 0.4327
O15 O 0.5160(2) 0.94509(18) 0.80669(14)
H122 H 0.4576 0.9174 0.7900
H123 H 0.5382 0.9377 0.7783
O16 O 1.4227(2) 0.9431(2) 0.91514(15)
H124 H 1.4652 0.9284 0.9125
H125 H 1.4603 0.9948 0.9255
O17 O -0.3342(4) 0.7859(4) 0.1501(3)
C118 C -0.4246(6) 0.8086(8) 0.2052(4)
H126 H -0.4341 0.7521 0.2065
H127 H -0.4852 0.8068 0.1866
H128 H -0.3945 0.8506 0.2472
C119 C -0.3655(5) 0.8327(6) 0.1689(4)
C120 C -0.3452(11) 0.8958(11) 0.1334(10)
H129 H -0.2989 0.8914 0.1144
H130 H -0.3207 0.9543 0.1620
H131 H -0.4031 0.8817 0.1013
O18 O 0.3197(3) 0.9103(3) 0.4871(2)
C122 C 0.2165(5) 0.9666(4) 0.4522(3)
H135 H 0.2429 0.9663 0.4189
H136 H 0.2295 1.0251 0.4748
H137 H 0.1487 0.9306 0.4348
C123 C 0.2593(4) 0.9328(4) 0.4947(3)
C124 C 0.2270(5) 0.9264(5) 0.5474(3)
H138 H 0.2606 0.9033 0.5718
H139 H 0.1598 0.8884 0.5322
H140 H 0.2391 0.9832 0.5731
O19 O 0.3437(4) 0.5760(4) 0.3411(3)
C125 C 0.3374(5) 0.7026(5) 0.3487(5)
H141 H 0.3116 0.6907 0.3809
H142 H 0.2896 0.7016 0.3152
H143 H 0.3915 0.7590 0.3660
C126 C 0.3660(5) 0.6387(5) 0.3252(4)
C127 C 0.4098(6) 0.6467(6) 0.2782(4)
H144 H 0.4259 0.5994 0.2666
H145 H 0.4667 0.7010 0.2946
H146 H 0.3662 0.6452 0.2420
O20 O 0.7718(4) 0.4161(4) 0.3006(3)
C128 C 0.6386(6) 0.2949(5) 0.2456(5)
H147 H 0.6262 0.3097 0.2843
H148 H 0.6355 0.2378 0.2354
H149 H 0.5916 0.2957 0.2126
C129 C 0.7306(5) 0.3564(4) 0.2525(4)
C130 C 0.7649(8) 0.3458(6) 0.2001(5)
H150 H 0.8288 0.3907 0.2121
H151 H 0.7241 0.3499 0.1653
H152 H 0.7646 0.2898 0.1879
O21 O 0.6078(3) 0.9392(3) 0.72224(18)
C131 C 0.7496(4) 1.0039(5) 0.8042(3)
H153 H 0.7097 1.0081 0.8290
H154 H 0.7973 1.0611 0.8117
H155 H 0.7801 0.9695 0.8157
C132 C 0.6916(5) 0.9628(4) 0.7380(3)
C133 C 0.7382(5) 0.9499(4) 0.6920(3)
H156 H 0.6917 0.9227 0.6505
H157 H 0.7678 0.9132 0.6994
H158 H 0.7859 1.0052 0.6958
O22 O 1.1599(5) 0.8371(5) 1.0214(3)
C134 C 1.2747(5) 0.9555(5) 1.0122(4)
H159 H 1.2662 0.9889 1.0476
H160 H 1.2591 0.9735 0.9772
H161 H 1.3399 0.9650 1.0229
C135 C 1.2121(5) 0.8630(6) 0.9954(3)
C136 C 1.2183(4) 0.8043(4) 0.9424(3)
H162 H 1.1748 0.7453 0.9349
H163 H 1.2822 0.8103 0.9519
H164 H 1.2019 0.8186 0.9057
C115? C 0.1038(12) 1.1189(13) 0.1819(10)
H109? H 0.1503 1.1059 0.1673
H110? H 0.0984 1.1006 0.2171
H111? H 0.1235 1.1804 0.1943
C116? C 0.0005(15) 1.0932(13) 0.0723(7)
H112? H 0.0245 1.0630 0.0456
H113? H 0.0360 1.1549 0.0828
H114? H -0.0657 1.0754 0.0509
C117? C -0.0528(14) 1.1021(13) 0.1631(10)
H115? H -0.1189 1.0645 0.1388
H116? H -0.0387 1.1608 0.1658
H117? H -0.0401 1.0993 0.2046
C121? C -0.3463(15) 0.9252(10) 0.1907(12)
H132? H -0.3054 0.9562 0.1710
H133? H -0.3156 0.9504 0.2355
H134? H -0.4054 0.9291 0.1797
loop_
_geom_bond_atom_site_label_1
_geom_bond_atom_site_label_2
_geom_bond_site_symmetry_1
_geom_bond_site_symmetry_2
O1 H1 1_555 1_555
O2 C13 1_555 1_555
O3 C30 1_555 1_555
O4 H2 1_555 1_555
O5 H3 1_555 1_555
O6 C47 1_555 1_555
C1 C2 1_555 1_555
C2 C3 1_555 1_555
C3 C4 1_555 1_555
C4 C5 1_555 1_555
C5 C6 1_555 1_555
C6 C1 1_555 1_555
C7 C1 1_555 1_555
C8 C7 1_555 1_555
H4 C8 1_555 1_555
C9 C8 1_555 1_555
H5 C9 1_555 1_555
C10 C9 1_555 1_555
C11 C10 1_555 1_555
H6 C11 1_555 1_555
C12 C7 1_555 1_555
H7 C12 1_555 1_555
C13 O1 1_555 1_555
C14 C2 1_555 1_555
C15 C14 1_555 1_555
H8 C15 1_555 1_555
C16 C15 1_555 1_555
H9 C16 1_555 1_555
C17 C16 1_555 1_555
C18 C17 1_555 1_555
H10 C18 1_555 1_555
C19 C14 1_555 1_555
H11 C19 1_555 1_555
C20 C17 1_555 1_555
C21 C20 1_555 1_555
H12 C21 1_555 1_555
H13 C21 1_555 1_555
H14 C21 1_555 1_555
C22 C20 1_555 1_555
H15 C22 1_555 1_555
H16 C22 1_555 1_555
H17 C22 1_555 1_555
C23 C20 1_555 1_555
H18 C23 1_555 1_555
H19 C23 1_555 1_555
H20 C23 1_555 1_555
C24 C3 1_555 1_555
C25 C24 1_555 1_555
H21 C25 1_555 1_555
C26 C25 1_555 1_555
H22 C26 1_555 1_555
C27 C26 1_555 1_555
C28 C27 1_555 1_555
H23 C28 1_555 1_555
C29 C24 1_555 1_555
H24 C29 1_555 1_555
C30 O4 1_555 1_555
C31 C4 1_555 1_555
C32 C31 1_555 1_555
H25 C32 1_555 1_555
C33 C32 1_555 1_555
H26 C33 1_555 1_555
C34 C33 1_555 1_555
C35 C34 1_555 1_555
H27 C35 1_555 1_555
C36 C31 1_555 1_555
H28 C36 1_555 1_555
C37 C34 1_555 1_555
C38 C37 1_555 1_555
H29 C38 1_555 1_555
H30 C38 1_555 1_555
H31 C38 1_555 1_555
C39 C37 1_555 1_555
H32 C39 1_555 1_555
H33 C39 1_555 1_555
H34 C39 1_555 1_555
C40 C37 1_555 1_555
H35 C40 1_555 1_555
H36 C40 1_555 1_555
H37 C40 1_555 1_555
C41 C5 1_555 1_555
C42 C41 1_555 1_555
H38 C42 1_555 1_555
C43 C42 1_555 1_555
H39 C43 1_555 1_555
C44 C43 1_555 1_555
C45 C44 1_555 1_555
H40 C45 1_555 1_555
C46 C41 1_555 1_555
H41 C46 1_555 1_555
C47 O5 1_555 1_555
C48 C6 1_555 1_555
C49 C48 1_555 1_555
H42 C49 1_555 1_555
C50 C49 1_555 1_555
H43 C50 1_555 1_555
C51 C50 1_555 1_555
C52 C51 1_555 1_555
H44 C52 1_555 1_555
C53 C48 1_555 1_555
H45 C53 1_555 1_555
C54 C51 1_555 1_555
C55 C54 1_555 1_555
H46 C55 1_555 1_555
H47 C55 1_555 1_555
H48 C55 1_555 1_555
C56 C54 1_555 1_555
H49 C56 1_555 1_555
H50 C56 1_555 1_555
H51 C56 1_555 1_555
C57 C54 1_555 1_555
H52 C57 1_555 1_555
H53 C57 1_555 1_555
H54 C57 1_555 1_555
O7 H55 1_555 1_555
O8 C70 1_555 1_555
O9 C87 1_555 1_555
O10 H56 1_555 1_555
O11 C104 1_555 1_555
O12 H57 1_555 1_555
C58 C59 1_555 1_555
C59 C60 1_555 1_555
C60 C61 1_555 1_555
C61 C62 1_555 1_555
C62 C63 1_555 1_555
C63 C58 1_555 1_555
C64 C58 1_555 1_555
C65 C64 1_555 1_555
H58 C65 1_555 1_555
C66 C65 1_555 1_555
H59 C66 1_555 1_555
C67 C66 1_555 1_555
C68 C67 1_555 1_555
H60 C68 1_555 1_555
C69 C64 1_555 1_555
H61 C69 1_555 1_555
C70 O7 1_555 1_555
C71 C59 1_555 1_555
C72 C71 1_555 1_555
H62 C72 1_555 1_555
C73 C72 1_555 1_555
H63 C73 1_555 1_555
C74 C73 1_555 1_555
C75 C74 1_555 1_555
H64 C75 1_555 1_555
C76 C71 1_555 1_555
H65 C76 1_555 1_555
C77 C74 1_555 1_555
C78 C77 1_555 1_555
H66 C78 1_555 1_555
H67 C78 1_555 1_555
H68 C78 1_555 1_555
C79 C77 1_555 1_555
H69 C79 1_555 1_555
H70 C79 1_555 1_555
H71 C79 1_555 1_555
C80 C77 1_555 1_555
H72 C80 1_555 1_555
H73 C80 1_555 1_555
H74 C80 1_555 1_555
C81 C60 1_555 1_555
C82 C81 1_555 1_555
H75 C82 1_555 1_555
C83 C82 1_555 1_555
H76 C83 1_555 1_555
C84 C83 1_555 1_555
C85 C84 1_555 1_555
H77 C85 1_555 1_555
C86 C81 1_555 1_555
H78 C86 1_555 1_555
C87 O10 1_555 1_555
C88 C61 1_555 1_555
C89 C88 1_555 1_555
H79 C89 1_555 1_555
C90 C89 1_555 1_555
H80 C90 1_555 1_555
C91 C90 1_555 1_555
C92 C91 1_555 1_555
H81 C92 1_555 1_555
C93 C88 1_555 1_555
H82 C93 1_555 1_555
C94 C91 1_555 1_555
C95 C94 1_555 1_555
H83 C95 1_555 1_555
H84 C95 1_555 1_555
H85 C95 1_555 1_555
C96 C94 1_555 1_555
H86 C96 1_555 1_555
H87 C96 1_555 1_555
H88 C96 1_555 1_555
C97 C94 1_555 1_555
H89 C97 1_555 1_555
H90 C97 1_555 1_555
H91 C97 1_555 1_555
C98 C62 1_555 1_555
C99 C98 1_555 1_555
H92 C99 1_555 1_555
C100 C99 1_555 1_555
H93 C100 1_555 1_555
C101 C100 1_555 1_555
C102 C101 1_555 1_555
H94 C102 1_555 1_555
C103 C98 1_555 1_555
H95 C103 1_555 1_555
C104 O12 1_555 1_555
C105 C63 1_555 1_555
C106 C105 1_555 1_555
H96 C106 1_555 1_555
C107 C106 1_555 1_555
H97 C107 1_555 1_555
C108 C107 1_555 1_555
C109 C108 1_555 1_555
H98 C109 1_555 1_555
C110 C105 1_555 1_555
H99 C110 1_555 1_555
C111 C108 1_555 1_555
C112 C111 1_555 1_555
H100 C112 1_555 1_555
H101 C112 1_555 1_555
H102 C112 1_555 1_555
C113 C111 1_555 1_555
H103 C113 1_555 1_555
H104 C113 1_555 1_555
H105 C113 1_555 1_555
C114 C111 1_555 1_555
H106 C114 1_555 1_555
H107 C114 1_555 1_555
H108 C114 1_555 1_555
O13 H118 1_555 1_555
H119 O13 1_555 1_555
O14 H120 1_555 1_555
H121 O14 1_555 1_555
O15 H122 1_555 1_555
H123 O15 1_555 1_555
O16 H124 1_555 1_555
H125 O16 1_555 1_555
O17 C119 1_555 1_555
C118 H126 1_555 1_555
H127 C118 1_555 1_555
H128 C118 1_555 1_555
C119 C118 1_555 1_555
C120 C119 1_555 1_555
H129 C120 1_555 1_555
H130 C120 1_555 1_555
H131 C120 1_555 1_555
O18 C123 1_555 1_555
C122 H135 1_555 1_555
H136 C122 1_555 1_555
H137 C122 1_555 1_555
C123 C122 1_555 1_555
C124 C123 1_555 1_555
H138 C124 1_555 1_555
H139 C124 1_555 1_555
H140 C124 1_555 1_555
O19 C126 1_555 1_555
C125 H141 1_555 1_555
H142 C125 1_555 1_555
H143 C125 1_555 1_555
C126 C125 1_555 1_555
C127 C126 1_555 1_555
H144 C127 1_555 1_555
H145 C127 1_555 1_555
H146 C127 1_555 1_555
O20 C129 1_555 1_555
C128 H147 1_555 1_555
H148 C128 1_555 1_555
H149 C128 1_555 1_555
C129 C128 1_555 1_555
C130 C129 1_555 1_555
H150 C130 1_555 1_555
H151 C130 1_555 1_555
H152 C130 1_555 1_555
O21 C132 1_555 1_555
C131 H153 1_555 1_555
H154 C131 1_555 1_555
H155 C131 1_555 1_555
C132 C131 1_555 1_555
C133 C132 1_555 1_555
H156 C133 1_555 1_555
H157 C133 1_555 1_555
H158 C133 1_555 1_555
O22 C135 1_555 1_555
C134 H159 1_555 1_555
H160 C134 1_555 1_555
H161 C134 1_555 1_555
C135 C134 1_555 1_555
C136 C135 1_555 1_555
H162 C136 1_555 1_555
H163 C136 1_555 1_555
H164 C136 1_555 1_555
C10 C13 1_555 1_555
C11 C12 1_555 1_555
C18 C19 1_555 1_555
C27 C30 1_555 1_555
C28 C29 1_555 1_555
C35 C36 1_555 1_555
C44 C47 1_555 1_555
C45 C46 1_555 1_555
C52 C53 1_555 1_555
C67 C70 1_555 1_555
C68 C69 1_555 1_555
C75 C76 1_555 1_555
C84 C87 1_555 1_555
C85 C86 1_555 1_555
C92 C93 1_555 1_555
C101 C104 1_555 1_555
C102 C103 1_555 1_555
C109 C110 1_555 1_555

#END
