
#######################################################################
#
#                 Cambridge Crystallographic Data Centre
#                                CCDC 
#
#######################################################################
#
# If this CIF has been generated from an entry in the Cambridge 
# Structural Database, then it will include bibliographic, chemical, 
# crystal, experimental, refinement or atomic coordinate data resulting 
# from the CCDC's data processing and validation procedures.
#
#######################################################################

data_KICSUN
_chemical_formula_moiety         'C20 H26 N2 O2 S2'
_chemical_name_systematic        
'5-methyl-2-isopropylcyclohexyl 5-(benzylsulfanyl)-1,2,3-thiadiazole-4-carboxylate'
_symmetry_cell_setting           monoclinic
_symmetry_space_group_name_H-M   'P 21'
_symmetry_Int_Tables_number      4
_space_group_name_Hall           'P 2yb'
loop_
_symmetry_equiv_pos_site_id
_symmetry_equiv_pos_as_xyz
1 x,y,z
2 -x,1/2+y,-z
_cell_length_a                   12.6402(6)
_cell_length_b                   5.7117(3)
_cell_length_c                   14.0248(7)
_cell_angle_alpha                90
_cell_angle_beta                 94.438(5)
_cell_angle_gamma                90
_cell_volume                     1009.51
_exptl_crystal_description       block
_cell_formula_units_Z            2
loop_
_atom_site_label
_atom_site_type_symbol
_atom_site_fract_x
_atom_site_fract_y
_atom_site_fract_z
C1 C 0.15421(19) 0.7834(5) 0.46519(18)
C2 C 0.19992(19) 0.7482(5) 0.55797(17)
C3 C 0.26794(18) 0.5446(6) 0.58458(17)
C4 C 0.3627(2) 0.3383(5) 0.71456(18)
H1 H 0.3636 0.2196 0.6642
C5 C 0.3056(2) 0.2412(5) 0.79775(19)
H2 H 0.2338 0.1977 0.7754
H3 H 0.3016 0.3614 0.8462
C6 C 0.3637(2) 0.0265(6) 0.84189(18)
H4 H 0.3649 -0.0939 0.7922
C7 C 0.4785(2) 0.0920(6) 0.87282(19)
H5 H 0.5165 -0.0467 0.8962
H6 H 0.4794 0.2041 0.9248
C8 C 0.5352(2) 0.1976(6) 0.7903(2)
H7 H 0.5411 0.0793 0.7413
H8 H 0.6065 0.2432 0.8136
C9 C 0.4768(2) 0.4125(6) 0.74550(18)
H9 H 0.4727 0.5286 0.7965
C10 C 0.5365(2) 0.5297(6) 0.66540(19)
H10 H 0.4940 0.6640 0.6417
C11 C 0.6452(2) 0.6245(7) 0.7053(2)
H11 H 0.6928 0.4961 0.7194
H12 H 0.6367 0.7118 0.7627
H13 H 0.6737 0.7248 0.6587
C12 C 0.5518(2) 0.3698(6) 0.5794(2)
H14 H 0.5930 0.4502 0.5349
H15 H 0.4838 0.3297 0.5485
H16 H 0.5881 0.2297 0.6010
C13 C 0.3067(2) -0.0763(7) 0.9253(2)
H17 H 0.3089 0.0345 0.9769
H18 H 0.3414 -0.2184 0.9469
H19 H 0.2341 -0.1093 0.9042
C14 C 0.0815(2) 0.7499(5) 0.27389(17)
H20 H 0.0112 0.7775 0.2947
H21 H 0.1119 0.8980 0.2561
C15 C 0.07766(19) 0.5784(5) 0.19168(17)
C16 C 0.1519(2) 0.5913(6) 0.12252(18)
H22 H 0.1996 0.7155 0.1233
C17 C 0.1544(2) 0.4185(6) 0.05282(19)
H23 H 0.2041 0.4272 0.0074
C18 C 0.0830(2) 0.2326(6) 0.05058(19)
H24 H 0.0852 0.1172 0.0040
C19 C 0.0087(2) 0.2204(6) 0.1182(2)
H25 H -0.0395 0.0971 0.1164
C20 C 0.0058(2) 0.3919(6) 0.18895(18)
H26 H -0.0440 0.3821 0.2343
N1 N 0.11089(17) 1.0768(5) 0.58697(15)
N2 N 0.17274(17) 0.9132(5) 0.62237(15)
O1 O 0.30156(13) 0.5425(4) 0.67808(12)
O2 O 0.28909(15) 0.3995(4) 0.52560(12)
S1 S 0.08059(5) 1.03346(13) 0.46703(4)
S2 S 0.16664(5) 0.60416(12) 0.36764(4)
loop_
_geom_bond_atom_site_label_1
_geom_bond_atom_site_label_2
_geom_bond_site_symmetry_1
_geom_bond_site_symmetry_2
C1 C2 1_555 1_555
C2 C3 1_555 1_555
C3 O1 1_555 1_555
C4 H1 1_555 1_555
C5 C4 1_555 1_555
H2 C5 1_555 1_555
H3 C5 1_555 1_555
C6 C5 1_555 1_555
H4 C6 1_555 1_555
C7 C6 1_555 1_555
H5 C7 1_555 1_555
H6 C7 1_555 1_555
C8 C7 1_555 1_555
H7 C8 1_555 1_555
H8 C8 1_555 1_555
C9 C4 1_555 1_555
H9 C9 1_555 1_555
C10 C9 1_555 1_555
H10 C10 1_555 1_555
C11 C10 1_555 1_555
H11 C11 1_555 1_555
H12 C11 1_555 1_555
H13 C11 1_555 1_555
C12 C10 1_555 1_555
H14 C12 1_555 1_555
H15 C12 1_555 1_555
H16 C12 1_555 1_555
C13 C6 1_555 1_555
H17 C13 1_555 1_555
H18 C13 1_555 1_555
H19 C13 1_555 1_555
C14 H20 1_555 1_555
H21 C14 1_555 1_555
C15 C14 1_555 1_555
C16 C15 1_555 1_555
H22 C16 1_555 1_555
C17 C16 1_555 1_555
H23 C17 1_555 1_555
C18 C17 1_555 1_555
H24 C18 1_555 1_555
C19 C18 1_555 1_555
H25 C19 1_555 1_555
C20 C15 1_555 1_555
H26 C20 1_555 1_555
N1 N2 1_555 1_555
N2 C2 1_555 1_555
O1 C4 1_555 1_555
O2 C3 1_555 1_555
S1 C1 1_555 1_555
S2 C1 1_555 1_555
C8 C9 1_555 1_555
C14 S2 1_555 1_555
C19 C20 1_555 1_555
N1 S1 1_555 1_555

#END
