
#######################################################################
#
#                 Cambridge Crystallographic Data Centre
#                                CCDC 
#
#######################################################################
#
# If this CIF has been generated from an entry in the Cambridge 
# Structural Database, then it will include bibliographic, chemical, 
# crystal, experimental, refinement or atomic coordinate data resulting 
# from the CCDC's data processing and validation procedures.
#
#######################################################################

data_KICWOL
_chemical_compound_source        
'deep-sea derived fungus Phomopsis lithocarpus FS508'
_chemical_name_common            'lithocarpin A chloroform solvate'
_chemical_formula_moiety         'C37 H42 O11,C1 H1 Cl3'
_chemical_name_systematic        
'(1aS,4R,6R,7aR,8R,13S,13aS,13bS)-9-hydroxy-13-((3S)-3-(2-hydroxypropan-2-yl)-7-methyl-2,3-dihydro-1,4-benzodioxin-5-yl)-4-methyl-12-(3-methylbut-2-en-1-yl)-2,7-dioxo-1a,4,5,6,7,7a,8,13,13a,13b-decahydro-2H-8,13-epoxynaphtho[2,3-e]oxireno[c]oxecin-6-yl acetate chloroform solvate'
_chemical_properties_biological  'cytotoxic activity'
_symmetry_cell_setting           monoclinic
_symmetry_space_group_name_H-M   'P 21'
_symmetry_Int_Tables_number      4
_space_group_name_Hall           'P 2yb'
loop_
_symmetry_equiv_pos_site_id
_symmetry_equiv_pos_as_xyz
1 x,y,z
2 -x,1/2+y,-z
_cell_length_a                   12.0999(3)
_cell_length_b                   8.9388(2)
_cell_length_c                   17.0397(4)
_cell_angle_alpha                90
_cell_angle_beta                 90.378(2)
_cell_angle_gamma                90
_cell_volume                     1842.95
_exptl_crystal_colour            white
_exptl_crystal_description       monoclinic
_cell_formula_units_Z            2
_exptl_crystal_recrystallization_method methanol
loop_
_atom_site_label
_atom_site_type_symbol
_atom_site_fract_x
_atom_site_fract_y
_atom_site_fract_z
Cl1 Cl 0.2117(3) 0.0886(4) 0.85650(19)
Cl2 Cl 0.0289(3) 0.2815(5) 0.8894(3)
Cl3 Cl 0.0541(3) -0.0011(7) 0.9749(3)
C1 C 0.1206(12) 0.151(2) 0.9286(11)
H1 H 0.164797 0.202944 0.968696
O1 O 0.4565(3) 0.4972(5) 0.6743(2)
O2 O 0.3296(4) 0.5700(5) 0.5385(2)
O3 O 0.5210(4) 0.2848(5) 0.8104(3)
O4 O 0.5835(4) 0.9375(6) 0.7248(3)
H2 H 0.590562 1.026279 0.713865
O5 O 0.4302(4) 0.5096(6) 0.9679(3)
O6 O 0.2874(4) 0.6854(5) 0.8888(3)
O7 O 0.7026(4) 0.2925(6) 0.8919(2)
O8 O 0.4065(4) 0.7124(6) 0.3496(3)
H3 H 0.461492 0.759960 0.336789
O9 O 0.1722(4) 0.4193(6) 0.4429(3)
O10 O 0.7724(4) 0.3217(7) 0.7711(3)
O11 O 0.2995(5) 0.3458(6) 1.0047(3)
C2 C 0.3392(5) 0.6991(7) 0.6921(3)
C3 C 0.4494(5) 0.7458(7) 0.7088(3)
C4 C 0.2550(5) 0.8026(8) 0.6779(3)
C5 C 0.2622(5) 0.4433(7) 0.6505(3)
C6 C 0.4772(5) 0.8941(7) 0.7104(3)
C7 C 0.1060(5) 0.2707(8) 0.6372(4)
C8 C 0.5438(5) 0.4095(7) 0.8323(3)
C9 C 0.3284(6) 0.4574(8) 0.9697(4)
C10 C 0.1855(5) 0.3441(7) 0.6835(4)
H4 H 0.187481 0.326578 0.737259
C11 C 0.2578(5) 0.4678(7) 0.5694(4)
C12 C 0.6474(5) 0.4328(8) 0.8839(4)
H5 H 0.696709 0.504419 0.858269
C13 C 0.1782(5) 0.3940(8) 0.5227(4)
C14 C 0.3535(5) 0.4945(7) 0.7887(3)
H6 H 0.348763 0.385827 0.795279
C15 C 0.7589(5) 0.2445(9) 0.8273(4)
C16 C 0.5122(5) 0.6024(7) 0.7246(3)
H7 H 0.592381 0.608839 0.717441
C17 C 0.3433(4) 0.5302(7) 0.6987(3)
C18 C 0.3340(5) 0.5760(8) 0.4539(3)
H8 H 0.379203 0.492622 0.435030
C19 C 0.3925(5) 0.9994(7) 0.6974(4)
H9 H 0.408521 1.100967 0.700298
C20 C 0.4746(5) 0.5431(7) 0.8071(3)
H10 H 0.476900 0.622692 0.846689
C21 C 0.2620(5) 0.5654(8) 0.8363(4)
H11 H 0.191990 0.577369 0.807667
C22 C 0.3918(5) 0.7230(8) 0.4341(3)
C23 C 0.2497(5) 0.5492(8) 0.9222(4)
H12 H 0.173472 0.550646 0.941274
C24 C 0.2852(6) 0.9534(8) 0.6803(4)
H13 H 0.231691 1.025555 0.670036
C25 C 0.5198(6) 0.4243(8) 1.0062(4)
H14 H 0.512242 0.317515 0.994174
C26 C 0.1358(5) 0.7653(9) 0.6593(4)
H15 H 0.107663 0.837686 0.621723
H16 H 0.132816 0.667563 0.634652
C27 C 0.1041(5) 0.2956(8) 0.5573(4)
H17 H 0.052541 0.245797 0.526146
C28 C 0.6228(6) 0.4869(9) 0.9678(4)
H18 H 0.685866 0.462336 1.000775
H19 H 0.616554 0.595075 0.966698
C29 C 0.2189(6) 0.5608(9) 0.4206(4)
H20 H 0.172819 0.641328 0.440050
H21 H 0.221222 0.567997 0.363863
C30 C 0.0219(5) 0.1709(8) 0.6749(4)
H22 H 0.052214 0.129545 0.722371
H23 H 0.002843 0.091274 0.639483
H24 H -0.043006 0.227924 0.686867
C31 C 0.0618(6) 0.7647(9) 0.7299(5)
H25 H 0.085905 0.817104 0.773946
C32 C 0.5046(6) 0.7290(9) 0.4743(4)
H26 H 0.545993 0.641016 0.461163
H27 H 0.494987 0.733621 0.530152
H28 H 0.543799 0.816189 0.456987
C33 C 0.7949(6) 0.0864(9) 0.8368(4)
H29 H 0.832257 0.074996 0.886377
H30 H 0.844334 0.060371 0.795154
H31 H 0.731547 0.021918 0.835162
C34 C -0.0367(6) 0.6943(9) 0.7346(6)
C35 C 0.3255(8) 0.8593(10) 0.4523(4)
H32 H 0.369736 0.946886 0.443985
H33 H 0.302282 0.855907 0.506056
H34 H 0.261636 0.862659 0.418581
C36 C 0.5161(8) 0.4489(10) 1.0941(4)
H35 H 0.521039 0.553985 1.105095
H36 H 0.577125 0.397901 1.118544
H37 H 0.447987 0.410290 1.114298
C37 C -0.0864(7) 0.6070(11) 0.6695(7)
H38 H -0.147626 0.661330 0.647529
H39 H -0.111719 0.512369 0.689022
H40 H -0.031954 0.590582 0.629623
C38 C -0.0981(8) 0.6988(13) 0.8126(8)
H41 H -0.053417 0.748864 0.851262
H42 H -0.113005 0.598486 0.829748
H43 H -0.166560 0.751731 0.805930
loop_
_geom_bond_atom_site_label_1
_geom_bond_atom_site_label_2
_geom_bond_site_symmetry_1
_geom_bond_site_symmetry_2
Cl1 C1 1_555 1_555
Cl2 C1 1_555 1_555
Cl3 C1 1_555 1_555
C1 H1 1_555 1_555
O1 C16 1_555 1_555
O2 C11 1_555 1_555
O3 C8 1_555 1_555
O4 H2 1_555 1_555
O5 C9 1_555 1_555
O6 C21 1_555 1_555
O7 C12 1_555 1_555
O8 H3 1_555 1_555
O9 C13 1_555 1_555
O10 C15 1_555 1_555
O11 C9 1_555 1_555
C2 C3 1_555 1_555
C3 C6 1_555 1_555
C4 C2 1_555 1_555
C5 C10 1_555 1_555
C6 O4 1_555 1_555
C7 C10 1_555 1_555
C8 C12 1_555 1_555
C9 C23 1_555 1_555
C10 H4 1_555 1_555
C11 C5 1_555 1_555
C12 H5 1_555 1_555
C13 C11 1_555 1_555
C14 H6 1_555 1_555
C15 O7 1_555 1_555
C16 C3 1_555 1_555
H7 C16 1_555 1_555
C17 O1 1_555 1_555
C18 O2 1_555 1_555
H8 C18 1_555 1_555
C19 C6 1_555 1_555
H9 C19 1_555 1_555
C20 C8 1_555 1_555
H10 C20 1_555 1_555
C21 C14 1_555 1_555
H11 C21 1_555 1_555
C22 O8 1_555 1_555
C23 O6 1_555 1_555
H12 C23 1_555 1_555
C24 C4 1_555 1_555
H13 C24 1_555 1_555
C25 O5 1_555 1_555
H14 C25 1_555 1_555
C26 C4 1_555 1_555
H15 C26 1_555 1_555
H16 C26 1_555 1_555
C27 C7 1_555 1_555
H17 C27 1_555 1_555
C28 C12 1_555 1_555
H18 C28 1_555 1_555
H19 C28 1_555 1_555
C29 O9 1_555 1_555
H20 C29 1_555 1_555
H21 C29 1_555 1_555
C30 C7 1_555 1_555
H22 C30 1_555 1_555
H23 C30 1_555 1_555
H24 C30 1_555 1_555
C31 C26 1_555 1_555
H25 C31 1_555 1_555
C32 C22 1_555 1_555
H26 C32 1_555 1_555
H27 C32 1_555 1_555
H28 C32 1_555 1_555
C33 C15 1_555 1_555
H29 C33 1_555 1_555
H30 C33 1_555 1_555
H31 C33 1_555 1_555
C34 C31 1_555 1_555
C35 C22 1_555 1_555
H32 C35 1_555 1_555
H33 C35 1_555 1_555
H34 C35 1_555 1_555
C36 C25 1_555 1_555
H35 C36 1_555 1_555
H36 C36 1_555 1_555
H37 C36 1_555 1_555
C37 C34 1_555 1_555
H38 C37 1_555 1_555
H39 C37 1_555 1_555
H40 C37 1_555 1_555
C38 C34 1_555 1_555
H41 C38 1_555 1_555
H42 C38 1_555 1_555
H43 C38 1_555 1_555
C2 C17 1_555 1_555
C5 C17 1_555 1_555
C13 C27 1_555 1_555
C14 C17 1_555 1_555
C14 C20 1_555 1_555
C16 C20 1_555 1_555
C18 C22 1_555 1_555
C18 C29 1_555 1_555
C19 C24 1_555 1_555
C21 C23 1_555 1_555
C25 C28 1_555 1_555

#END
