
#######################################################################
#
#                 Cambridge Crystallographic Data Centre
#                                CCDC 
#
#######################################################################
#
# If this CIF has been generated from an entry in the Cambridge 
# Structural Database, then it will include bibliographic, chemical, 
# crystal, experimental, refinement or atomic coordinate data resulting 
# from the CCDC's data processing and validation procedures.
#
#######################################################################

data_KIDHIR
_chemical_name_common            
'tetrakis(methanol)-lithium 5,11,17,23-tetra-t-butyl-26,27,28-trihydroxypentacyclo[19.3.1.1$3,7!.1$9,13!.1$15,19!]octacosa-1(25),3(28),4,6,9(27),10,12,15(26),16,18,21,23-dodecaen-25-olate methanol solvate'
_chemical_formula_moiety         'C44 H55 O4 1-,C4 H16 Li1 O4 1+,C1 H4 O1'
_chemical_name_systematic        
'tetrakis(methanol)-lithium 5,11,17,23-tetra-t-butyl-25,26,27-trihydroxy-28-oxidocalix[4]arene methanol solvate'
_symmetry_cell_setting           monoclinic
_symmetry_space_group_name_H-M   'P 21/n'
_symmetry_Int_Tables_number      14
_space_group_name_Hall           '-P 2yn'
loop_
_symmetry_equiv_pos_site_id
_symmetry_equiv_pos_as_xyz
1 x,y,z
2 1/2-x,1/2+y,1/2-z
3 -x,-y,-z
4 1/2+x,1/2-y,1/2+z
_cell_length_a                   12.8434(4)
_cell_length_b                   20.0919(6)
_cell_length_c                   19.3168(6)
_cell_angle_alpha                90
_cell_angle_beta                 92.561(2)
_cell_angle_gamma                90
_cell_volume                     4979.69
_exptl_crystal_colour            colorless
_exptl_crystal_description       Plane
_cell_formula_units_Z            4
loop_
_atom_site_label
_atom_site_type_symbol
_atom_site_fract_x
_atom_site_fract_y
_atom_site_fract_z
C1 C 0.76784(19) 0.08132(12) 0.95506(12)
C2 C 0.66560(18) 0.09379(12) 0.93080(12)
H1 H 0.621091 0.118191 0.959486
C3 C 0.62623(17) 0.07212(11) 0.86666(11)
C4 C 0.69117(17) 0.03573(11) 0.82392(11)
C5 C 0.79496(17) 0.02383(11) 0.84604(12)
C6 C 0.83058(18) 0.04662(12) 0.91089(12)
H2 H 0.900898 0.038046 0.925538
C7 C 0.45550(17) 0.26708(12) 0.78857(12)
C8 C 0.46863(17) 0.26210(13) 0.71766(12)
H3 H 0.457513 0.300562 0.689690
C9 C 0.49727(16) 0.20330(12) 0.68618(12)
C10 C 0.51265(16) 0.14659(12) 0.72660(12)
C11 C 0.50132(16) 0.14914(12) 0.79826(11)
C12 C 0.47390(17) 0.20927(12) 0.82756(12)
H4 H 0.467306 0.211298 0.876300
C13 C 0.78349(19) 0.26506(12) 0.57083(12)
C14 C 0.83391(19) 0.20539(12) 0.55992(12)
H5 H 0.905410 0.206537 0.549319
C15 C 0.78502(18) 0.14371(12) 0.56372(11)
C16 C 0.67899(18) 0.14313(12) 0.57703(11)
C17 C 0.62574(18) 0.20153(12) 0.59032(11)
C18 C 0.67867(19) 0.26118(13) 0.58751(12)
H6 H 0.642613 0.301143 0.597261
C19 C 1.05823(18) 0.09337(12) 0.70485(13)
C20 C 1.01017(17) 0.05755(12) 0.75598(13)
H7 H 1.043514 0.054747 0.800787
C21 C 0.91492(17) 0.02561(11) 0.74393(12)
C22 C 0.86546(17) 0.03069(11) 0.67883(12)
C23 C 0.90887(17) 0.06798(12) 0.62654(12)
C24 C 1.00575(18) 0.09739(12) 0.64050(13)
H8 H 1.037292 0.121225 0.604494
C25 C 0.51496(17) 0.08751(12) 0.84342(12)
H9 H 0.473547 0.093272 0.885011
H10 H 0.486068 0.048761 0.817385
C26 C 0.51156(18) 0.20106(13) 0.60839(12)
H11 H 0.477998 0.160327 0.589089
H12 H 0.476077 0.239910 0.586407
C27 C 0.84858(18) 0.08067(12) 0.55860(12)
H13 H 0.897651 0.085075 0.520772
H14 H 0.801769 0.042596 0.547653
C28 C 0.86781(18) -0.01488(12) 0.80093(12)
H15 H 0.925062 -0.033610 0.830930
H16 H 0.828803 -0.052668 0.779515
C29 C 0.8047(2) 0.10237(14) 1.02850(13)
C30 C 0.7435(4) 0.0613(2) 1.08047(17)
H17 H 0.668580 0.067370 1.070758
H18 H 0.761205 0.014078 1.075957
H19 H 0.761885 0.076280 1.127723
C31 C 0.7776(3) 0.17521(19) 1.0412(2)
H20 H 0.702438 0.181772 1.033078
H21 H 0.797621 0.187096 1.089159
H22 H 0.815358 0.203520 1.009480
C32 C 0.9206(3) 0.0945(2) 1.04151(19)
H23 H 0.940253 0.048049 1.033720
H24 H 0.957366 0.123369 1.009797
H25 H 0.939630 0.106944 1.089476
C33 C 0.4217(2) 0.33149(13) 0.82393(14)
C34 C 0.3259(3) 0.31832(16) 0.86617(17)
H26 H 0.268945 0.301671 0.835477
H27 H 0.343143 0.285070 0.901997
H28 H 0.304356 0.359772 0.888088
C35 C 0.3903(3) 0.38581(16) 0.77120(18)
H29 H 0.333490 0.369450 0.740210
H30 H 0.367093 0.425437 0.795745
H31 H 0.450375 0.397248 0.743962
C36 C 0.5101(3) 0.3574(2) 0.8719(2)
H32 H 0.571635 0.365840 0.844952
H33 H 0.488380 0.398774 0.893783
H34 H 0.527167 0.324072 0.907692
C37 C 0.8372(2) 0.33242(13) 0.56622(14)
C38 C 0.7819(4) 0.3747(2) 0.5104(3)
H35 H 0.816671 0.417941 0.507589
H36 H 0.784179 0.351932 0.465588
H37 H 0.709105 0.381352 0.522014
C39 C 0.9517(3) 0.32673(16) 0.54956(18)
H38 H 0.982298 0.371323 0.547234
H39 H 0.988990 0.300901 0.585886
H40 H 0.957595 0.304301 0.504852
C40 C 0.8356(3) 0.36674(17) 0.6372(2)
H41 H 0.869993 0.410165 0.634851
H42 H 0.763233 0.372949 0.650028
H43 H 0.872446 0.339017 0.672132
C41 C 1.1651(2) 0.12642(17) 0.71726(16)
C42 C 1.2390(3) 0.0983(4) 0.6681(3)
H44 H 1.245849 0.050269 0.675822
H45 H 1.212602 0.106484 0.620456
H46 H 1.307207 0.119585 0.675508
C43 C 1.2088(3) 0.1184(3) 0.7914(2)
H47 H 1.159602 0.137049 0.823511
H48 H 1.219424 0.070991 0.801543
H49 H 1.275553 0.141857 0.796839
C44 C 1.1537(4) 0.2011(2) 0.7058(3)
H50 H 1.104797 0.219191 0.738495
H51 H 1.221716 0.222572 0.713330
H52 H 1.127111 0.209471 0.658278
O1 O 0.65262(12) 0.01180(8) 0.76275(8)
O2 O 0.53575(13) 0.08851(9) 0.69430(8)
H53 H 0.572(3) 0.0638(16) 0.7202(17)
O3 O 0.77306(13) -0.00130(9) 0.66416(9)
H54 H 0.736(3) 0.0003(15) 0.7021(17)
O4 O 0.62688(13) 0.08283(9) 0.57403(9)
H55 H 0.589(3) 0.0795(16) 0.6120(18)
C45 C 1.0638(3) 0.4028(2) 0.7522(2)
H56 H 1.055124 0.421695 0.705518
H57 H 1.121242 0.425519 0.777618
H58 H 1.079539 0.355241 0.748939
C46 C 1.1121(3) 0.48291(18) 0.92075(18)
H59 H 1.158468 0.496325 0.959936
H60 H 1.153669 0.471653 0.881086
H61 H 1.064767 0.519665 0.908156
C47 C 0.7645(3) 0.3692(2) 0.9612(2)
H62 H 0.693686 0.387179 0.962822
H63 H 0.761040 0.320979 0.953826
H64 H 0.802949 0.378616 1.005018
C48 C 1.0529(3) 0.2521(2) 0.9146(2)
H65 H 1.036956 0.204507 0.910682
H66 H 1.114548 0.262203 0.888369
H67 H 1.066664 0.263650 0.963430
Li1 Li 0.9522(4) 0.3821(3) 0.8811(3)
O5 O 0.97040(17) 0.41161(11) 0.78777(11)
H68 H 0.933(3) 0.440(2) 0.762(2)
O6 O 1.05402(19) 0.42743(12) 0.93941(12)
H69 H 1.069(3) 0.420(2) 0.987(3)
O7 O 0.8138(2) 0.39801(16) 0.90840(17)
H70 H 0.783(5) 0.430(3) 0.894(3)
O8 O 0.9716(3) 0.28755(14) 0.8890(2)
H71 H 0.937(6) 0.269(4) 0.870(4)
C49 C 0.7898(4) 0.2062(3) 0.7671(2)
H72 H 0.742500 0.244404 0.763110
H73 H 0.751149 0.165274 0.755859
H74 H 0.846004 0.211673 0.734910
O9 O 0.8315(5) 0.2023(2) 0.8336(3)
H75 H 0.804567 0.170190 0.854065
loop_
_geom_bond_atom_site_label_1
_geom_bond_atom_site_label_2
_geom_bond_site_symmetry_1
_geom_bond_site_symmetry_2
C1 C2 1_555 1_555
C2 H1 1_555 1_555
C3 C2 1_555 1_555
C4 C3 1_555 1_555
C5 C4 1_555 1_555
C6 C1 1_555 1_555
H2 C6 1_555 1_555
C7 C8 1_555 1_555
C8 H3 1_555 1_555
C9 C8 1_555 1_555
C10 C9 1_555 1_555
C11 C10 1_555 1_555
C12 C7 1_555 1_555
H4 C12 1_555 1_555
C13 C14 1_555 1_555
C14 H5 1_555 1_555
C15 C14 1_555 1_555
C16 C15 1_555 1_555
C17 C16 1_555 1_555
C18 C13 1_555 1_555
H6 C18 1_555 1_555
C19 C20 1_555 1_555
C20 H7 1_555 1_555
C21 C20 1_555 1_555
C22 C21 1_555 1_555
C23 C22 1_555 1_555
C24 C19 1_555 1_555
H8 C24 1_555 1_555
C25 C3 1_555 1_555
H9 C25 1_555 1_555
H10 C25 1_555 1_555
C26 C9 1_555 1_555
H11 C26 1_555 1_555
H12 C26 1_555 1_555
C27 C15 1_555 1_555
H13 C27 1_555 1_555
H14 C27 1_555 1_555
C28 C5 1_555 1_555
H15 C28 1_555 1_555
H16 C28 1_555 1_555
C29 C1 1_555 1_555
C30 C29 1_555 1_555
H17 C30 1_555 1_555
H18 C30 1_555 1_555
H19 C30 1_555 1_555
C31 C29 1_555 1_555
H20 C31 1_555 1_555
H21 C31 1_555 1_555
H22 C31 1_555 1_555
C32 C29 1_555 1_555
H23 C32 1_555 1_555
H24 C32 1_555 1_555
H25 C32 1_555 1_555
C33 C7 1_555 1_555
C34 C33 1_555 1_555
H26 C34 1_555 1_555
H27 C34 1_555 1_555
H28 C34 1_555 1_555
C35 C33 1_555 1_555
H29 C35 1_555 1_555
H30 C35 1_555 1_555
H31 C35 1_555 1_555
C36 C33 1_555 1_555
H32 C36 1_555 1_555
H33 C36 1_555 1_555
H34 C36 1_555 1_555
C37 C13 1_555 1_555
C38 C37 1_555 1_555
H35 C38 1_555 1_555
H36 C38 1_555 1_555
H37 C38 1_555 1_555
C39 C37 1_555 1_555
H38 C39 1_555 1_555
H39 C39 1_555 1_555
H40 C39 1_555 1_555
C40 C37 1_555 1_555
H41 C40 1_555 1_555
H42 C40 1_555 1_555
H43 C40 1_555 1_555
C41 C19 1_555 1_555
C42 C41 1_555 1_555
H44 C42 1_555 1_555
H45 C42 1_555 1_555
H46 C42 1_555 1_555
C43 C41 1_555 1_555
H47 C43 1_555 1_555
H48 C43 1_555 1_555
H49 C43 1_555 1_555
C44 C41 1_555 1_555
H50 C44 1_555 1_555
H51 C44 1_555 1_555
H52 C44 1_555 1_555
O1 C4 1_555 1_555
O2 C10 1_555 1_555
H53 O2 1_555 1_555
O3 C22 1_555 1_555
H54 O3 1_555 1_555
O4 C16 1_555 1_555
H55 O4 1_555 1_555
C45 H56 1_555 1_555
H57 C45 1_555 1_555
H58 C45 1_555 1_555
C46 H59 1_555 1_555
H60 C46 1_555 1_555
H61 C46 1_555 1_555
C47 H62 1_555 1_555
H63 C47 1_555 1_555
H64 C47 1_555 1_555
C48 H65 1_555 1_555
H66 C48 1_555 1_555
H67 C48 1_555 1_555
Li1 O5 1_555 1_555
O5 C45 1_555 1_555
H68 O5 1_555 1_555
O6 C46 1_555 1_555
H69 O6 1_555 1_555
O7 C47 1_555 1_555
H70 O7 1_555 1_555
O8 C48 1_555 1_555
H71 O8 1_555 1_555
C49 H72 1_555 1_555
H73 C49 1_555 1_555
H74 C49 1_555 1_555
O9 C49 1_555 1_555
H75 O9 1_555 1_555
C5 C6 1_555 1_555
C11 C12 1_555 1_555
C11 C25 1_555 1_555
C17 C18 1_555 1_555
C17 C26 1_555 1_555
C21 C28 1_555 1_555
C23 C24 1_555 1_555
C23 C27 1_555 1_555
Li1 O6 1_555 1_555
Li1 O7 1_555 1_555
Li1 O8 1_555 1_555

#END
