
#######################################################################
#
#                 Cambridge Crystallographic Data Centre
#                                CCDC 
#
#######################################################################
#
# If this CIF has been generated from an entry in the Cambridge 
# Structural Database, then it will include bibliographic, chemical, 
# crystal, experimental, refinement or atomic coordinate data resulting 
# from the CCDC's data processing and validation procedures.
#
#######################################################################

data_KIDNER
_chemical_formula_moiety         'C15 H18 N4 O1 2+,C2 O4 2-'
_chemical_name_systematic        
'2,6-bis((Imidazol-3-ium-1-yl)methyl)-4-methylphenol oxalate'
_symmetry_cell_setting           monoclinic
_symmetry_space_group_name_H-M   'P 21/c'
_symmetry_Int_Tables_number      14
_space_group_name_Hall           '-P 2ybc'
loop_
_symmetry_equiv_pos_site_id
_symmetry_equiv_pos_as_xyz
1 x,y,z
2 -x,1/2+y,1/2-z
3 -x,-y,-z
4 x,1/2-y,1/2+z
_cell_length_a                   7.317(3)
_cell_length_b                   19.835(9)
_cell_length_c                   11.930(3)
_cell_angle_alpha                90
_cell_angle_beta                 94.86(3)
_cell_angle_gamma                90
_cell_volume                     1725.21
_exptl_crystal_colour            colorless
_exptl_crystal_description       block
_chemical_melting_point          189-190deg.C
_cell_formula_units_Z            4
_exptl_crystal_recrystallization_method water
loop_
_atom_site_label
_atom_site_type_symbol
_atom_site_fract_x
_atom_site_fract_y
_atom_site_fract_z
O1 O 0.2801(3) 0.32641(10) 0.77674(16)
N1 N 0.4617(3) 0.28046(10) 1.04939(17)
N2 N 0.7225(3) 0.27440(12) 1.1443(2)
N3 N 0.4370(3) 0.46247(10) 0.65024(16)
N4 N 0.6899(3) 0.50864(12) 0.61239(18)
C1 C 0.2564(3) 0.37835(12) 0.8495(2)
C2 C 0.2554(3) 0.36838(13) 0.9657(2)
C3 C 0.2485(3) 0.42466(14) 1.0351(2)
C4 C 0.2429(3) 0.48998(13) 0.9945(2)
C5 C 0.2408(3) 0.49813(14) 0.8784(2)
C6 C 0.2463(3) 0.44341(12) 0.8065(2)
C7 C 0.2428(6) 0.55011(18) 1.0724(3)
C8 C 0.2693(4) 0.29924(15) 1.0173(3)
C9 C 0.5529(4) 0.29495(14) 1.1473(2)
C10 C 0.7410(5) 0.24525(16) 1.0423(3)
C11 C 0.5800(4) 0.24936(15) 0.9827(3)
C12 C 0.2486(4) 0.45494(15) 0.6819(2)
C13 C 0.5226(4) 0.52087(14) 0.6393(2)
C14 C 0.7138(4) 0.44070(15) 0.6059(2)
C15 C 0.5567(4) 0.41176(15) 0.6299(2)
H1 H 0.819(4) 0.4209(13) 0.583(2)
H2 H 0.187(3) 0.4946(13) 0.6586(19)
H3 H 0.509(5) 0.3652(16) 0.636(3)
H4 H 0.502(3) 0.3169(13) 1.211(2)
H5 H 0.199(4) 0.2968(14) 1.085(3)
H6 H 0.238(3) 0.5439(12) 0.8466(19)
H7 H 0.539(4) 0.2335(14) 0.915(3)
H8 H 0.200(4) 0.4137(15) 0.638(2)
H9 H 0.246(3) 0.4153(13) 1.116(2)
H10 H 0.470(4) 0.5631(13) 0.652(2)
H11 H 0.217(4) 0.2630(14) 0.971(2)
H12 H 0.203(5) 0.2953(18) 0.781(3)
H13 H 0.856(5) 0.2274(16) 1.033(3)
H14 H 0.783(4) 0.5418(16) 0.601(3)
H15 H 0.825(5) 0.2759(19) 1.204(3)
H16 H 0.355(7) 0.568(2) 1.083(4)
H17 H 0.173(6) 0.589(2) 1.036(4)
H18 H 0.180(8) 0.538(3) 1.138(5)
O2 O 0.7951(3) 0.36148(9) 1.33253(16)
O3 O 1.0161(2) 0.42089(9) 1.42557(16)
O4 O 1.0476(2) 0.27278(9) 1.27108(17)
O5 O 1.2676(3) 0.34567(9) 1.32583(18)
C16 C 1.1063(4) 0.32776(13) 1.3158(2)
C17 C 0.9575(4) 0.37395(12) 1.3609(2)
loop_
_geom_bond_atom_site_label_1
_geom_bond_atom_site_label_2
_geom_bond_site_symmetry_1
_geom_bond_site_symmetry_2
O1 C1 1_555 1_555
O2 C17 1_555 1_555
O3 C17 1_555 1_555
O4 C16 1_555 1_555
O5 C16 1_555 1_555
N1 C8 1_555 1_555
N2 C9 1_555 1_555
N3 C12 1_555 1_555
N4 C13 1_555 1_555
C1 C2 1_555 1_555
C2 C3 1_555 1_555
C3 C4 1_555 1_555
C4 C5 1_555 1_555
C5 C6 1_555 1_555
C6 C1 1_555 1_555
C7 C4 1_555 1_555
C8 C2 1_555 1_555
C9 N1 1_555 1_555
C10 N2 1_555 1_555
C11 N1 1_555 1_555
C12 C6 1_555 1_555
C13 N3 1_555 1_555
C14 N4 1_555 1_555
C15 N3 1_555 1_555
C16 C17 1_555 1_555
H1 C14 1_555 1_555
H2 C12 1_555 1_555
H3 C15 1_555 1_555
H4 C9 1_555 1_555
H5 C8 1_555 1_555
H6 C5 1_555 1_555
H7 C11 1_555 1_555
H8 C12 1_555 1_555
H9 C3 1_555 1_555
H10 C13 1_555 1_555
H11 C8 1_555 1_555
H12 O1 1_555 1_555
H13 C10 1_555 1_555
H14 N4 1_555 1_555
H15 N2 1_555 1_555
H16 C7 1_555 1_555
H17 C7 1_555 1_555
H18 C7 1_555 1_555
C10 C11 1_555 1_555
C14 C15 1_555 1_555

#END
