
#######################################################################
#
#                 Cambridge Crystallographic Data Centre
#                                CCDC 
#
#######################################################################
#
# If this CIF has been generated from an entry in the Cambridge 
# Structural Database, then it will include bibliographic, chemical, 
# crystal, experimental, refinement or atomic coordinate data resulting 
# from the CCDC's data processing and validation procedures.
#
#######################################################################

data_KIDNAP
_chemical_formula_moiety         'C40 H36 N4'
_chemical_name_systematic        
(1,3)Benzeno(2)(6,6')-2,2'-bipyridino(2)(1,3)benzeno(2)(6,6')-2,2'-bipyridinophane
_symmetry_cell_setting           monoclinic
_symmetry_space_group_name_H-M   'P 21/c'
_symmetry_Int_Tables_number      14
_space_group_name_Hall           '-P 2ybc'
loop_
_symmetry_equiv_pos_site_id
_symmetry_equiv_pos_as_xyz
1 x,y,z
2 -x,1/2+y,1/2-z
3 -x,-y,-z
4 x,1/2-y,1/2+z
_cell_length_a                   13.382(2)
_cell_length_b                   8.465(1)
_cell_length_c                   14.176(1)
_cell_angle_alpha                90
_cell_angle_beta                 106.30(1)
_cell_angle_gamma                90
_cell_volume                     1541.29
_chemical_melting_point          220deg.C
_cell_formula_units_Z            2
loop_
_atom_site_label
_atom_site_type_symbol
_atom_site_fract_x
_atom_site_fract_y
_atom_site_fract_z
N1 N 0.6601(1) 0.1052(2) 0.9365(2)
N2 N 0.4145(1) 0.2580(2) 0.8625(2)
C1 C 0.1605(2) 0.5665(3) 0.9632(2)
C2 C 0.5751(1) 0.1584(2) 0.9501(2)
C3 C 0.7381(2) 0.0953(3) 1.0205(2)
C4 C 0.4897(1) 0.1663(2) 0.8554(2)
C5 C 0.0931(2) 0.6791(3) 0.9757(2)
C6 C 0.3352(2) 0.2662(3) 0.7798(2)
C7 C 0.1346(2) 0.4450(3) 0.8912(2)
C8 C 0.2110(2) 0.3289(2) 0.8774(2)
C9 C 0.4888(2) 0.0820(3) 0.7665(2)
C10 C 0.5659(2) 0.2012(3) 1.0470(2)
C11 C 0.2544(2) 0.3756(3) 0.7911(2)
C12 C 0.1241(2) 0.8149(3) 1.0500(2)
C13 C 0.6459(2) 0.1886(3) 1.1327(2)
C14 C 0.4063(2) 0.0902(3) 0.6822(2)
C15 C 0.7336(2) 0.1344(3) 1.1197(2)
C16 C 0.3283(2) 0.1831(3) 0.6892(2)
C17 C 0.0374(2) 0.4355(3) 0.8302(2)
C18 C 0.0033(2) 0.6667(3) 0.9137(2)
C19 C 0.8335(2) 0.0485(3) 0.9994(2)
C20 C -0.0304(2) 0.5459(3) 0.8424(2)
C19B C 0.1665(2) 0.9515(3) 1.0006(2)
C12B C 0.8759(2) 0.1851(3) 0.9500(2)
C3B C 0.2619(2) 0.9047(3) 0.9795(2)
C5B C 0.9069(2) 0.3209(3) 1.0243(2)
N1B N 0.3399(1) 0.8948(2) 1.0635(2)
C15B C 0.2664(2) 0.8656(3) 0.8803(2)
C1B C 0.8395(2) 0.4335(3) 1.0368(2)
C18B C 0.9967(2) 0.3333(3) 1.0863(2)
C2B C 0.4249(1) 0.8416(2) 1.0499(2)
C13B C 0.3541(2) 0.8114(3) 0.8673(2)
C7B C 0.8654(2) 0.5550(3) 1.1088(2)
C20B C 1.0304(2) 0.4541(3) 1.1576(2)
C4B C 0.5103(1) 0.8337(2) 1.1446(2)
C10B C 0.4341(2) 0.7988(3) 0.9530(2)
C8B C 0.7890(2) 0.6711(2) 1.1226(2)
C17B C 0.9626(2) 0.5645(3) 1.1698(2)
N2B N 0.5855(1) 0.7420(2) 1.1375(2)
C9B C 0.5112(2) 0.9180(3) 1.2335(2)
C11B C 0.7456(2) 0.6244(3) 1.2089(2)
C6B C 0.6648(2) 0.7338(3) 1.2202(2)
C14B C 0.5937(2) 0.9098(3) 1.3178(2)
C16B C 0.6717(2) 0.8169(3) 1.3108(2)
loop_
_geom_bond_atom_site_label_1
_geom_bond_atom_site_label_2
_geom_bond_site_symmetry_1
_geom_bond_site_symmetry_2
N1 C2 1_555 1_555
N2 C4 1_555 1_555
C1 C5 1_555 1_555
C2 C4 1_555 1_555
C3 N1 1_555 1_555
C4 C9 1_555 1_555
C5 C12 1_555 1_555
C6 N2 1_555 1_555
C7 C1 1_555 1_555
C8 C7 1_555 1_555
C9 C14 1_555 1_555
C10 C2 1_555 1_555
C11 C6 1_555 1_555
C12 C19B 1_555 1_555
C13 C10 1_555 1_555
C14 C16 1_555 1_555
C15 C3 1_555 1_555
C16 C6 1_555 1_555
C17 C7 1_555 1_555
C18 C5 1_555 1_555
C19 C3 1_555 1_555
C20 C17 1_555 1_555
C19B C3B 1_555 1_555
C12B C19 1_555 1_555
C3B N1B 1_555 1_555
C5B C12B 1_555 1_555
N1B C2B 1_555 1_555
C15B C3B 1_555 1_555
C1B C5B 1_555 1_555
C18B C5B 1_555 1_555
C2B C4B 1_555 1_555
C13B C15B 1_555 1_555
C7B C1B 1_555 1_555
C20B C18B 1_555 1_555
C4B N2B 1_555 1_555
C10B C2B 1_555 1_555
C8B C7B 1_555 1_555
C17B C7B 1_555 1_555
N2B C6B 1_555 1_555
C9B C4B 1_555 1_555
C11B C8B 1_555 1_555
C6B C11B 1_555 1_555
C14B C9B 1_555 1_555
C16B C6B 1_555 1_555
C8 C11 1_555 1_555
C13 C15 1_555 1_555
C18 C20 1_555 1_555
C13B C10B 1_555 1_555
C20B C17B 1_555 1_555
C14B C16B 1_555 1_555

#END
