
#######################################################################
#
#                 Cambridge Crystallographic Data Centre
#                                CCDC 
#
#######################################################################
#
# If this CIF has been generated from an entry in the Cambridge 
# Structural Database, then it will include bibliographic, chemical, 
# crystal, experimental, refinement or atomic coordinate data resulting 
# from the CCDC's data processing and validation procedures.
#
#######################################################################

data_KIDNUI
_chemical_formula_moiety         'C10 H8 N2 O1 S1'
_chemical_name_systematic        4,4'-Sulfinyldipyridine
_symmetry_cell_setting           orthorhombic
_symmetry_space_group_name_H-M   'P n a 21'
_symmetry_Int_Tables_number      33
_space_group_name_Hall           'P 2c -2n'
loop_
_symmetry_equiv_pos_site_id
_symmetry_equiv_pos_as_xyz
1 x,y,z
2 -x,-y,1/2+z
3 1/2+x,1/2-y,z
4 1/2-x,1/2+y,1/2+z
_cell_length_a                   7.6699(2)
_cell_length_b                   19.9706(5)
_cell_length_c                   6.1357(2)
_cell_angle_alpha                90
_cell_angle_beta                 90
_cell_angle_gamma                90
_cell_volume                     939.821
_cell_formula_units_Z            4
loop_
_atom_site_label
_atom_site_type_symbol
_atom_site_fract_x
_atom_site_fract_y
_atom_site_fract_z
S1 S 0.52899(6) 0.42445(2) 0.30716(12)
N1 N 0.6212(3) 0.25093(10) 0.7835(4)
N2 N -0.0650(2) 0.40977(9) 0.2638(4)
C1 C 0.6465(3) 0.31486(12) 0.8390(5)
H1 H 0.6875 0.3237 0.9787
C2 C 0.6162(3) 0.36857(11) 0.7030(4)
H2 H 0.6346 0.4123 0.7501
C3 C 0.5575(3) 0.35543(10) 0.4950(4)
C4 C 0.5312(3) 0.28998(11) 0.4319(4)
H3 H 0.4920 0.2796 0.2925
C5 C 0.5650(4) 0.24030(13) 0.5827(5)
H4 H 0.5469 0.1962 0.5400
C6 C 0.2941(2) 0.41825(8) 0.2971(5)
C7 C 0.2191(3) 0.38373(11) 0.1278(4)
H5 H 0.2870 0.3633 0.0214
C8 C 0.0396(3) 0.38033(13) 0.1209(5)
H6 H -0.0114 0.3558 0.0089
C9 C 0.0117(3) 0.44417(12) 0.4244(5)
H7 H -0.0594 0.4655 0.5257
C10 C 0.1902(3) 0.44985(10) 0.4489(4)
H8 H 0.2384 0.4741 0.5635
O1 O 0.57356(18) 0.48609(7) 0.4308(3)
loop_
_geom_bond_atom_site_label_1
_geom_bond_atom_site_label_2
_geom_bond_site_symmetry_1
_geom_bond_site_symmetry_2
S1 C3 1_555 1_555
N1 C1 1_555 1_555
N2 C8 1_555 1_555
C1 H1 1_555 1_555
C2 C1 1_555 1_555
H2 C2 1_555 1_555
C3 C2 1_555 1_555
C4 C3 1_555 1_555
H3 C4 1_555 1_555
C5 N1 1_555 1_555
H4 C5 1_555 1_555
C6 S1 1_555 1_555
C7 C6 1_555 1_555
H5 C7 1_555 1_555
C8 C7 1_555 1_555
H6 C8 1_555 1_555
C9 N2 1_555 1_555
H7 C9 1_555 1_555
C10 C6 1_555 1_555
H8 C10 1_555 1_555
O1 S1 1_555 1_555
C4 C5 1_555 1_555
C9 C10 1_555 1_555

#END
