
#######################################################################
#
#                 Cambridge Crystallographic Data Centre
#                                CCDC 
#
#######################################################################
#
# If this CIF has been generated from an entry in the Cambridge 
# Structural Database, then it will include bibliographic, chemical, 
# crystal, experimental, refinement or atomic coordinate data resulting 
# from the CCDC's data processing and validation procedures.
#
#######################################################################

data_KIDNUH
_chemical_formula_moiety         'C15 H16 N4 O1,C8 H6 O4'
_chemical_name_systematic        
'2,6-bis((Imidazol-1-yl)methyl)-4-methylphenol terephthalic acid'
_symmetry_cell_setting           triclinic
_symmetry_space_group_name_H-M   'P -1'
_symmetry_Int_Tables_number      2
_space_group_name_Hall           '-P 1'
loop_
_symmetry_equiv_pos_site_id
_symmetry_equiv_pos_as_xyz
1 x,y,z
2 -x,-y,-z
_cell_length_a                   7.319(3)
_cell_length_b                   12.089(4)
_cell_length_c                   12.159(3)
_cell_angle_alpha                77.06(3)
_cell_angle_beta                 89.94(3)
_cell_angle_gamma                77.35(3)
_cell_volume                     1021.75
_exptl_crystal_colour            colorless
_exptl_crystal_description       Block
_chemical_melting_point          208-209deg.C
_cell_formula_units_Z            2
loop_
_atom_site_label
_atom_site_type_symbol
_atom_site_fract_x
_atom_site_fract_y
_atom_site_fract_z
O1 O 0.2807(3) 0.28647(18) 0.72832(17)
H1 H 0.2433 0.2322 0.7131
N1 N 0.4294(3) 0.18037(19) 0.48068(19)
N2 N 0.6894(4) 0.1205(2) 0.4031(2)
N3 N 0.1107(3) 0.5346(2) 0.8154(2)
N4 N -0.1484(4) 0.6473(2) 0.8538(2)
C1 C 0.2661(4) 0.3735(2) 0.6338(2)
C2 C 0.2455(4) 0.3613(2) 0.5234(2)
C3 C 0.2320(4) 0.4570(3) 0.4344(2)
H2 H 0.2152 0.4480 0.3614
C4 C 0.2423(4) 0.5666(3) 0.4495(3)
C5 C 0.2664(4) 0.5756(3) 0.5598(3)
H3 H 0.2756 0.6472 0.5728
C6 C 0.2773(4) 0.4830(2) 0.6514(2)
C7 C 0.2397(4) 0.2459(2) 0.4966(2)
H4 H 0.1841 0.2000 0.5579
H5 H 0.1616 0.2595 0.4284
C8 C 0.5167(5) 0.1843(3) 0.3846(3)
H6 H 0.4634 0.2263 0.3140
C9 C 0.7114(5) 0.0724(3) 0.5165(3)
H7 H 0.8198 0.0228 0.5536
C10 C 0.5521(5) 0.1081(3) 0.5658(3)
H8 H 0.5291 0.0880 0.6421
C11 C 0.2954(4) 0.4992(3) 0.7710(3)
H9 H 0.3634 0.4268 0.8196
H10 H 0.3665 0.5581 0.7714
C12 C 0.0186(4) 0.6453(3) 0.8145(3)
H11 H 0.0676 0.7108 0.7894
C13 C -0.1640(5) 0.5339(3) 0.8806(3)
H12 H -0.2685 0.5086 0.9108
C14 C -0.0067(5) 0.4646(3) 0.8570(3)
H13 H 0.0173 0.3841 0.8671
C15 C 0.2274(5) 0.6690(3) 0.3504(3)
H14 H 0.1002 0.7134 0.3393
H15 H 0.2643 0.6415 0.2837
H16 H 0.3082 0.7174 0.3650
O2 O 0.2255(4) 1.0691(2) 0.7430(2)
O3 O 0.0602(3) 0.9381(2) 0.7328(2)
H17 H 0.1365 0.9234 0.6857
O4 O -0.4088(4) 1.2895(3) 1.1125(3)
O5 O -0.6190(3) 1.2097(2) 1.0489(2)
H18 H -0.6864 1.2444 1.0901
C16 C -0.0507(4) 1.0723(2) 0.8451(2)
C17 C -0.0045(4) 1.1435(2) 0.9106(2)
H19 H 0.1149 1.1585 0.9090
C18 C -0.1353(4) 1.1921(3) 0.9782(2)
H20 H -0.1027 1.2389 1.0226
C19 C -0.3143(4) 1.1719(2) 0.9807(2)
C20 C -0.3616(4) 1.1003(3) 0.9164(3)
H21 H -0.4817 1.0864 0.9172
C21 C -0.2283(4) 1.0495(3) 0.8507(2)
H22 H -0.2588 0.9991 0.8097
C22 C 0.0903(4) 1.0249(2) 0.7698(2)
C23 C -0.4518(4) 1.2299(3) 1.0531(3)
loop_
_geom_bond_atom_site_label_1
_geom_bond_atom_site_label_2
_geom_bond_site_symmetry_1
_geom_bond_site_symmetry_2
O1 H1 1_555 1_555
N1 C7 1_555 1_555
N2 C8 1_555 1_555
N3 C11 1_555 1_555
N4 C12 1_555 1_555
C1 O1 1_555 1_555
C2 C1 1_555 1_555
C3 C2 1_555 1_555
H2 C3 1_555 1_555
C4 C3 1_555 1_555
C5 C4 1_555 1_555
H3 C5 1_555 1_555
C6 C1 1_555 1_555
C7 C2 1_555 1_555
H4 C7 1_555 1_555
H5 C7 1_555 1_555
C8 N1 1_555 1_555
H6 C8 1_555 1_555
C9 N2 1_555 1_555
H7 C9 1_555 1_555
C10 N1 1_555 1_555
H8 C10 1_555 1_555
C11 C6 1_555 1_555
H9 C11 1_555 1_555
H10 C11 1_555 1_555
C12 N3 1_555 1_555
H11 C12 1_555 1_555
C13 N4 1_555 1_555
H12 C13 1_555 1_555
C14 N3 1_555 1_555
H13 C14 1_555 1_555
C15 C4 1_555 1_555
H14 C15 1_555 1_555
H15 C15 1_555 1_555
H16 C15 1_555 1_555
O2 C22 1_555 1_555
O3 H17 1_555 1_555
O4 C23 1_555 1_555
O5 H18 1_555 1_555
C16 C17 1_555 1_555
C17 H19 1_555 1_555
C18 C17 1_555 1_555
H20 C18 1_555 1_555
C19 C18 1_555 1_555
C20 C19 1_555 1_555
H21 C20 1_555 1_555
C21 C16 1_555 1_555
H22 C21 1_555 1_555
C22 O3 1_555 1_555
C23 O5 1_555 1_555
C5 C6 1_555 1_555
C9 C10 1_555 1_555
C13 C14 1_555 1_555
C16 C22 1_555 1_555
C19 C23 1_555 1_555
C20 C21 1_555 1_555

#END
