
#######################################################################
#
#                 Cambridge Crystallographic Data Centre
#                                CCDC 
#
#######################################################################
#
# If this CIF has been generated from an entry in the Cambridge 
# Structural Database, then it will include bibliographic, chemical, 
# crystal, experimental, refinement or atomic coordinate data resulting 
# from the CCDC's data processing and validation procedures.
#
#######################################################################

data_KIDQUL
_chemical_formula_moiety         'C13 H9 F2 N1'
_chemical_name_systematic        3-Fluoro-N-(2-fluorobenzylidene)aniline
_symmetry_cell_setting           monoclinic
_symmetry_space_group_name_H-M   'P 21/c'
_symmetry_Int_Tables_number      14
_space_group_name_Hall           '-P 2ybc'
loop_
_symmetry_equiv_pos_site_id
_symmetry_equiv_pos_as_xyz
1 x,y,z
2 -x,1/2+y,1/2-z
3 -x,-y,-z
4 x,1/2-y,1/2+z
_cell_length_a                   15.393(9)
_cell_length_b                   3.851(2)
_cell_length_c                   22.616(14)
_cell_angle_alpha                90
_cell_angle_beta                 132.377(7)
_cell_angle_gamma                90
_cell_volume                     990.367
_cell_formula_units_Z            4
loop_
_atom_site_label
_atom_site_type_symbol
_atom_site_fract_x
_atom_site_fract_y
_atom_site_fract_z
F1 F 0.4824(2) 0.2119(10) 0.30053(14)
F2 F 0.7359(2) 0.3247(10) 0.15084(14)
N1 N 0.8200(3) 0.2818(14) 0.3971(2)
C1 C 0.6776(4) 0.3942(17) 0.4077(2)
C2 C 0.5626(4) 0.3677(17) 0.3743(2)
C3 C 0.5240(4) 0.4768(17) 0.4107(3)
H1 H 0.4444 0.4470 0.3858
C4 C 0.6053(4) 0.6330(18) 0.4854(3)
H2 H 0.5809 0.7151 0.5119
C5 C 0.7219(4) 0.6698(17) 0.5217(3)
H3 H 0.7772 0.7742 0.5730
C6 C 0.7571(4) 0.5543(17) 0.4829(2)
H4 H 0.8366 0.5839 0.5075
C7 C 0.8458(4) 0.1921(16) 0.3499(2)
C8 C 0.7722(4) 0.2980(17) 0.2694(2)
H5 H 0.7017 0.4233 0.2443
C9 C 0.8065(4) 0.2128(18) 0.2287(2)
C10 C 0.9067(4) 0.0358(17) 0.2609(3)
H6 H 0.9266 -0.0170 0.2302
C11 C 0.9788(4) -0.0644(17) 0.3409(3)
H7 H 1.0491 -0.1894 0.3654
C12 C 0.9491(4) 0.0160(17) 0.3853(3)
H8 H 0.9999 -0.0500 0.4400
C13 C 0.7134(4) 0.2731(16) 0.3651(2)
H9 H 0.6552 0.1857 0.3122
loop_
_geom_bond_atom_site_label_1
_geom_bond_atom_site_label_2
_geom_bond_site_symmetry_1
_geom_bond_site_symmetry_2
F1 C2 1_555 1_555
F2 C9 1_555 1_555
N1 C7 1_555 1_555
C1 C2 1_555 1_555
C2 C3 1_555 1_555
C3 H1 1_555 1_555
C4 C3 1_555 1_555
H2 C4 1_555 1_555
C5 C4 1_555 1_555
H3 C5 1_555 1_555
C6 C1 1_555 1_555
H4 C6 1_555 1_555
C7 C8 1_555 1_555
C8 H5 1_555 1_555
C9 C8 1_555 1_555
C10 C9 1_555 1_555
H6 C10 1_555 1_555
C11 C10 1_555 1_555
H7 C11 1_555 1_555
C12 C7 1_555 1_555
H8 C12 1_555 1_555
C13 N1 1_555 1_555
H9 C13 1_555 1_555
C1 C13 1_555 1_555
C5 C6 1_555 1_555
C11 C12 1_555 1_555

#END
