
#######################################################################
#
#                 Cambridge Crystallographic Data Centre
#                                CCDC 
#
#######################################################################
#
# If this CIF has been generated from an entry in the Cambridge 
# Structural Database, then it will include bibliographic, chemical, 
# crystal, experimental, refinement or atomic coordinate data resulting 
# from the CCDC's data processing and validation procedures.
#
#######################################################################

data_KIDQIZ
_chemical_formula_moiety         'C13 H9 F2 N1'
_chemical_name_systematic        2-Fluoro-N-(2-fluorobenzylidene)aniline
_symmetry_cell_setting           orthorhombic
_symmetry_space_group_name_H-M   'P 21 21 21'
_symmetry_Int_Tables_number      19
_space_group_name_Hall           'P 2ac 2ab'
loop_
_symmetry_equiv_pos_site_id
_symmetry_equiv_pos_as_xyz
1 x,y,z
2 1/2+x,1/2-y,-z
3 -x,1/2+y,1/2-z
4 1/2-x,-y,1/2+z
_cell_length_a                   3.8396(6)
_cell_length_b                   11.8714(18)
_cell_length_c                   22.205(4)
_cell_angle_alpha                90
_cell_angle_beta                 90
_cell_angle_gamma                90
_cell_volume                     1012.14
_exptl_crystal_description       plate
_cell_formula_units_Z            4
_exptl_crystal_recrystallization_method methanol
loop_
_atom_site_label
_atom_site_type_symbol
_atom_site_fract_x
_atom_site_fract_y
_atom_site_fract_z
C1 C 0.6396(5) 0.64250(14) 0.19259(7)
C2 C 0.6191(5) 0.74584(14) 0.22208(7)
C3 C 0.7327(5) 0.76214(15) 0.28021(8)
H1 H 0.7111 0.8337 0.2990
C4 C 0.8790(5) 0.67207(15) 0.31081(7)
H2 H 0.9602 0.6818 0.3509
C5 C 0.9072(5) 0.56792(15) 0.28312(7)
H3 H 1.0083 0.5064 0.3042
C6 C 0.7881(4) 0.55341(14) 0.22465(7)
H4 H 0.8078 0.4816 0.2061
C7 C 0.3458(4) 0.52539(13) 0.04759(7)
C8 C 0.4031(5) 0.60800(14) 0.00360(7)
H5 H 0.5138 0.6767 0.0144
C9 C 0.2996(5) 0.59056(15) -0.05571(7)
H6 H 0.3409 0.6470 -0.0852
C10 C 0.1363(5) 0.49091(15) -0.07172(7)
H7 H 0.0633 0.4797 -0.1122
C11 C 0.0786(5) 0.40750(15) -0.02932(8)
H8 H -0.0314 0.3388 -0.0402
C12 C 0.1848(5) 0.42657(14) 0.02912(7)
C13 C 0.468(2) 0.6264(6) 0.1342(3)
H9 H 0.3811 0.6920 0.1148
N1 N 0.430(2) 0.5426(5) 0.1096(3)
F1 F 0.1252(3) 0.34512(9) 0.07087(5)
F2 F 0.4751(3) 0.83398(9) 0.19214(5)
C14? C 0.496(3) 0.5296(6) 0.1080(4)
H10? H 0.5472 0.4638 0.1307
N2? N 0.5554(16) 0.6354(5) 0.1290(2)
loop_
_geom_bond_atom_site_label_1
_geom_bond_atom_site_label_2
_geom_bond_site_symmetry_1
_geom_bond_site_symmetry_2
C1 C2 1_555 1_555
C2 C3 1_555 1_555
C3 H1 1_555 1_555
C4 C3 1_555 1_555
H2 C4 1_555 1_555
C5 C4 1_555 1_555
H3 C5 1_555 1_555
C6 C1 1_555 1_555
H4 C6 1_555 1_555
C7 C8 1_555 1_555
C8 H5 1_555 1_555
C9 C8 1_555 1_555
H6 C9 1_555 1_555
C10 C9 1_555 1_555
H7 C10 1_555 1_555
C11 C10 1_555 1_555
H8 C11 1_555 1_555
C12 C7 1_555 1_555
C13 C1 1_555 1_555
H9 C13 1_555 1_555
N1 C7 1_555 1_555
F1 C12 1_555 1_555
F2 C2 1_555 1_555
C5 C6 1_555 1_555
C11 C12 1_555 1_555
C13 N1 1_555 1_555

#END
