
#######################################################################
#
#                 Cambridge Crystallographic Data Centre
#                                CCDC 
#
#######################################################################
#
# If this CIF has been generated from an entry in the Cambridge 
# Structural Database, then it will include bibliographic, chemical, 
# crystal, experimental, refinement or atomic coordinate data resulting 
# from the CCDC's data processing and validation procedures.
#
#######################################################################

data_KIDROG
_chemical_formula_moiety         'C13 H9 F2 N1'
_chemical_name_systematic        4-Fluoro-N-(3-fluorobenzylidene)aniline
_symmetry_cell_setting           triclinic
_symmetry_space_group_name_H-M   'P -1'
_symmetry_Int_Tables_number      2
_space_group_name_Hall           '-P 1'
loop_
_symmetry_equiv_pos_site_id
_symmetry_equiv_pos_as_xyz
1 x,y,z
2 -x,-y,-z
_cell_length_a                   7.252(5)
_cell_length_b                   11.594(5)
_cell_length_c                   13.535(5)
_cell_angle_alpha                64.666(5)
_cell_angle_beta                 75.500(5)
_cell_angle_gamma                89.803(5)
_cell_volume                     988.794
_exptl_crystal_colour            colorless
_exptl_crystal_description       plate
_cell_formula_units_Z            4
loop_
_atom_site_label
_atom_site_type_symbol
_atom_site_fract_x
_atom_site_fract_y
_atom_site_fract_z
F1 F 0.5088(2) 0.32403(16) 0.03808(13)
F2 F 0.3511(2) -0.01494(16) 0.91310(13)
C1 C 0.5127(3) 0.2558(2) 0.6352(2)
C2 C 0.5821(3) 0.3447(2) 0.6656(2)
H1 H 0.6365 0.4283 0.6084
C3 C 0.5729(4) 0.3125(3) 0.7782(2)
H2 H 0.6203 0.3741 0.7976
C4 C 0.4946(4) 0.1904(3) 0.8626(2)
H3 H 0.4875 0.1668 0.9400
C5 C 0.4273(3) 0.1043(2) 0.8304(2)
C6 C 0.4318(3) 0.1324(2) 0.7206(2)
H4 H 0.3818 0.0703 0.7027
C7 C 0.4923(3) 0.2485(2) 0.3665(2)
C8 C 0.5721(3) 0.3687(2) 0.2765(2)
H5 H 0.6225 0.4332 0.2915
C9 C 0.5784(4) 0.3943(2) 0.1661(2)
H6 H 0.6323 0.4760 0.1051
C10 C 0.5049(4) 0.2994(3) 0.1458(2)
C11 C 0.4267(3) 0.1793(2) 0.2318(2)
H7 H 0.3774 0.1154 0.2158
C12 C 0.4219(3) 0.1543(2) 0.3423(2)
H8 H 0.3699 0.0717 0.4025
C13 C 0.5257(3) 0.2915(2) 0.5156(2)
H9 H 0.5724 0.3774 0.4607
N1 N 0.4771(3) 0.2119(2) 0.48317(18)
F5 F -0.0139(2) 0.62853(16) -0.45865(13)
F6 F -0.1411(2) 0.10411(16) 0.41432(13)
C27 C 0.0152(3) 0.1120(2) 0.1361(2)
C28 C 0.0803(3) -0.0091(2) 0.1651(2)
H19 H 0.1324 -0.0354 0.1074
C29 C 0.0691(3) -0.0909(2) 0.2778(2)
H20 H 0.1142 -0.1726 0.2966
C30 C -0.0079(4) -0.0535(2) 0.3628(2)
H21 H -0.0174 -0.1090 0.4402
C31 C -0.0701(4) 0.0663(3) 0.3319(2)
C32 C -0.0623(3) 0.1499(2) 0.2219(2)
H22 H -0.1082 0.2312 0.2043
C33 C 0.0019(3) 0.3891(2) -0.1327(2)
C34 C 0.0763(3) 0.3561(2) -0.2218(2)
H23 H 0.1307 0.2777 -0.2068
C35 C 0.0716(4) 0.4362(2) -0.3313(2)
H24 H 0.1217 0.4135 -0.3916
C36 C -0.0072(4) 0.5500(2) -0.3514(2)
C37 C -0.0793(3) 0.5874(2) -0.2669(2)
H25 H -0.1322 0.6665 -0.2831
C38 C -0.0727(3) 0.5065(2) -0.1573(2)
H26 H -0.1196 0.5314 -0.0980
C39 C 0.0249(3) 0.1953(2) 0.0172(2)
H27 H 0.0532 0.1606 -0.0363
N3 N -0.0033(3) 0.3128(2) -0.01692(18)
F3? F 0.507(4) 0.158(3) 0.963(2)
F4? F 0.640(4) 0.520(2) 0.082(2)
C14? C 0.5127(3) 0.2558(2) 0.6352(2)
C15? C 0.5821(3) 0.3447(2) 0.6656(2)
H10? H 0.6365 0.4283 0.6084
C16? C 0.5729(4) 0.3125(3) 0.7782(2)
H11? H 0.6203 0.3741 0.7976
C17? C 0.4946(4) 0.1904(3) 0.8626(2)
C18? C 0.4273(3) 0.1043(2) 0.8304(2)
H12? H 0.3746 0.0205 0.8879
C19? C 0.4318(3) 0.1324(2) 0.7206(2)
H13? H 0.3818 0.0703 0.7027
C20? C 0.4923(3) 0.2485(2) 0.3665(2)
C21? C 0.5721(3) 0.3687(2) 0.2765(2)
H14? H 0.6225 0.4332 0.2915
C22? C 0.5784(4) 0.3943(2) 0.1661(2)
C23? C 0.5049(4) 0.2994(3) 0.1458(2)
H15? H 0.5084 0.3174 0.0700
C24? C 0.4267(3) 0.1793(2) 0.2318(2)
H16? H 0.3774 0.1154 0.2158
C25? C 0.4219(3) 0.1543(2) 0.3423(2)
H17? H 0.3699 0.0717 0.4025
C26? C 0.4771(3) 0.2119(2) 0.48317(18)
H18? H 0.4294 0.1260 0.5377
N2? N 0.5257(3) 0.2915(2) 0.5156(2)
F7? F -0.013(4) -0.129(2) 0.4637(19)
F8? F 0.144(4) 0.403(2) -0.4121(19)
C40? C 0.0152(3) 0.1120(2) 0.1361(2)
C41? C 0.0803(3) -0.0091(2) 0.1651(2)
H28? H 0.1324 -0.0354 0.1074
C42? C 0.0691(3) -0.0909(2) 0.2778(2)
H29? H 0.1142 -0.1726 0.2966
C43? C -0.0079(4) -0.0535(2) 0.3628(2)
C44? C -0.0701(4) 0.0663(3) 0.3319(2)
H30? H -0.1211 0.0924 0.3899
C45? C -0.0623(3) 0.1499(2) 0.2219(2)
H31? H -0.1082 0.2312 0.2043
C46? C 0.0019(3) 0.3891(2) -0.1327(2)
C47? C 0.0763(3) 0.3561(2) -0.2218(2)
H32? H 0.1307 0.2777 -0.2068
C48? C 0.0716(4) 0.4362(2) -0.3313(2)
C49? C -0.0072(4) 0.5500(2) -0.3514(2)
H33? H -0.0119 0.6046 -0.4265
C50? C -0.0793(3) 0.5874(2) -0.2669(2)
H34? H -0.1322 0.6665 -0.2831
C51? C -0.0727(3) 0.5065(2) -0.1573(2)
H35? H -0.1196 0.5314 -0.0980
C52? C -0.0033(3) 0.3128(2) -0.01692(18)
H36? H -0.0280 0.3497 0.0350
N4? N 0.0249(3) 0.1953(2) 0.0172(2)
loop_
_geom_bond_atom_site_label_1
_geom_bond_atom_site_label_2
_geom_bond_site_symmetry_1
_geom_bond_site_symmetry_2
F1 C10 1_555 1_555
F2 C5 1_555 1_555
C1 C2 1_555 1_555
C2 H1 1_555 1_555
C3 C2 1_555 1_555
H2 C3 1_555 1_555
C4 C3 1_555 1_555
H3 C4 1_555 1_555
C5 C4 1_555 1_555
C6 C1 1_555 1_555
H4 C6 1_555 1_555
C7 C8 1_555 1_555
C8 H5 1_555 1_555
C9 C8 1_555 1_555
H6 C9 1_555 1_555
C10 C9 1_555 1_555
C11 C10 1_555 1_555
H7 C11 1_555 1_555
C12 C7 1_555 1_555
H8 C12 1_555 1_555
C13 C1 1_555 1_555
H9 C13 1_555 1_555
N1 C7 1_555 1_555
F5 C36 1_555 1_555
F6 C31 1_555 1_555
C27 C28 1_555 1_555
C28 H19 1_555 1_555
C29 C28 1_555 1_555
H20 C29 1_555 1_555
C30 C29 1_555 1_555
H21 C30 1_555 1_555
C31 C30 1_555 1_555
C32 C27 1_555 1_555
H22 C32 1_555 1_555
C33 C34 1_555 1_555
C34 H23 1_555 1_555
C35 C34 1_555 1_555
H24 C35 1_555 1_555
C36 C35 1_555 1_555
C37 C36 1_555 1_555
H25 C37 1_555 1_555
C38 C33 1_555 1_555
H26 C38 1_555 1_555
C39 C27 1_555 1_555
H27 C39 1_555 1_555
N3 C33 1_555 1_555
C5 C6 1_555 1_555
C11 C12 1_555 1_555
C13 N1 1_555 1_555
C31 C32 1_555 1_555
C37 C38 1_555 1_555
C39 N3 1_555 1_555

#END
