
#######################################################################
#
#                 Cambridge Crystallographic Data Centre
#                                CCDC 
#
#######################################################################
#
# If this CIF has been generated from an entry in the Cambridge 
# Structural Database, then it will include bibliographic, chemical, 
# crystal, experimental, refinement or atomic coordinate data resulting 
# from the CCDC's data processing and validation procedures.
#
#######################################################################

data_KIDSIB
_chemical_formula_moiety         'C13 H10 F1 N1'
_chemical_name_systematic        N-Benzylidene-2-fluoroaniline
_symmetry_cell_setting           orthorhombic
_symmetry_space_group_name_H-M   'P 21 21 21'
_symmetry_Int_Tables_number      19
_space_group_name_Hall           'P 2ac 2ab'
loop_
_symmetry_equiv_pos_site_id
_symmetry_equiv_pos_as_xyz
1 x,y,z
2 1/2-x,-y,1/2+z
3 1/2+x,1/2-y,-z
4 -x,1/2+y,1/2-z
_cell_length_a                   6.3184(3)
_cell_length_b                   12.0035(6)
_cell_length_c                   13.3787(7)
_cell_angle_alpha                90
_cell_angle_beta                 90
_cell_angle_gamma                90
_cell_volume                     1014.68
_exptl_crystal_colour            'light colorless'
_exptl_crystal_description       block
_cell_formula_units_Z            4
loop_
_atom_site_label
_atom_site_type_symbol
_atom_site_fract_x
_atom_site_fract_y
_atom_site_fract_z
N1 N 0.6506(3) 0.66957(13) 0.91016(12)
F1 F 1.01312(18) 0.55978(12) 0.95109(9)
C1 C 0.4386(3) 0.72981(14) 0.77137(15)
C2 C 0.2395(3) 0.72221(17) 0.72674(15)
H1 H 0.1272 0.6846 0.7597
C3 C 0.2070(3) 0.77075(19) 0.63265(18)
H2 H 0.0724 0.7658 0.6014
C4 C 0.3725(4) 0.82615(18) 0.58516(16)
H3 H 0.3510 0.8589 0.5213
C5 C 0.5672(4) 0.83345(18) 0.63078(17)
H4 H 0.6793 0.8720 0.5985
C6 C 0.6005(3) 0.78558(15) 0.72241(16)
H5 H 0.7361 0.7907 0.7528
C7 C 0.6668(3) 0.61171(14) 1.00162(14)
C8 C 0.5115(3) 0.60419(15) 1.07504(14)
H6 H 0.3797 0.6406 1.0653
C9 C 0.5461(4) 0.54450(16) 1.16189(14)
H7 H 0.4374 0.5401 1.2108
C10 C 0.7351(4) 0.49155(17) 1.17830(14)
H8 H 0.7566 0.4504 1.2381
C11 C 0.8935(3) 0.49808(17) 1.10809(15)
H9 H 1.0253 0.4620 1.1191
C12 C 0.8586(3) 0.55761(17) 1.02154(15)
C13 C 0.4709(3) 0.67365(16) 0.86791(15)
H10 H 0.3534 0.6393 0.8997
loop_
_geom_bond_atom_site_label_1
_geom_bond_atom_site_label_2
_geom_bond_site_symmetry_1
_geom_bond_site_symmetry_2
N1 C7 1_555 1_555
F1 C12 1_555 1_555
C1 C2 1_555 1_555
C2 H1 1_555 1_555
C3 C2 1_555 1_555
H2 C3 1_555 1_555
C4 C3 1_555 1_555
H3 C4 1_555 1_555
C5 C4 1_555 1_555
H4 C5 1_555 1_555
C6 C1 1_555 1_555
H5 C6 1_555 1_555
C7 C8 1_555 1_555
C8 H6 1_555 1_555
C9 C8 1_555 1_555
H7 C9 1_555 1_555
C10 C9 1_555 1_555
H8 C10 1_555 1_555
C11 C10 1_555 1_555
H9 C11 1_555 1_555
C12 C7 1_555 1_555
C13 N1 1_555 1_555
H10 C13 1_555 1_555
C1 C13 1_555 1_555
C5 C6 1_555 1_555
C11 C12 1_555 1_555

#END
