
#######################################################################
#
#                 Cambridge Crystallographic Data Centre
#                                CCDC 
#
#######################################################################
#
# If this CIF has been generated from an entry in the Cambridge 
# Structural Database, then it will include bibliographic, chemical, 
# crystal, experimental, refinement or atomic coordinate data resulting 
# from the CCDC's data processing and validation procedures.
#
#######################################################################

data_KIDSOH
_chemical_formula_moiety         'C13 H10 F1 N1'
_chemical_name_systematic        N-Benzylidene-3-fluoroaniline
_symmetry_cell_setting           monoclinic
_symmetry_space_group_name_H-M   'P 21/c'
_symmetry_Int_Tables_number      14
_space_group_name_Hall           '-P 2ybc'
loop_
_symmetry_equiv_pos_site_id
_symmetry_equiv_pos_as_xyz
1 x,y,z
2 -x,1/2+y,1/2-z
3 -x,-y,-z
4 x,1/2-y,1/2+z
_cell_length_a                   12.022(2)
_cell_length_b                   7.9133(16)
_cell_length_c                   12.242(4)
_cell_angle_alpha                90
_cell_angle_beta                 119.589(2)
_cell_angle_gamma                90
_cell_volume                     1012.75
_cell_formula_units_Z            4
loop_
_atom_site_label
_atom_site_type_symbol
_atom_site_fract_x
_atom_site_fract_y
_atom_site_fract_z
F1 F 0.8504(4) -0.0161(7) 0.4744(4)
C1 C 0.4247(6) 0.3009(10) 0.6636(6)
C2 C 0.3902(7) 0.2595(11) 0.7541(6)
H1 H 0.4483 0.1980 0.8267
C3 C 0.2729(8) 0.3068(12) 0.7395(7)
H2 H 0.2504 0.2773 0.8013
C4 C 0.1895(6) 0.3963(10) 0.6353(8)
H3 H 0.1084 0.4272 0.6248
C5 C 0.2210(6) 0.4433(10) 0.5442(7)
H4 H 0.1633 0.5088 0.4737
C6 C 0.3379(6) 0.3934(12) 0.5574(7)
H5 H 0.3591 0.4219 0.4946
C7 C 0.7022(7) 0.2211(13) 0.6183(7)
C8 C 0.8094(7) 0.2816(13) 0.7232(7)
H6 H 0.8006 0.3518 0.7814
C9 C 0.9310(7) 0.2394(12) 0.7434(8)
H7 H 1.0047 0.2802 0.8161
C10 C 0.9450(6) 0.1396(11) 0.6594(9)
H8 H 1.0276 0.1120 0.6726
C11 C 0.8366(8) 0.0801(12) 0.5554(8)
C12 C 0.7138(7) 0.1185(14) 0.5313(8)
H9 H 0.6405 0.0770 0.4585
C13 C 0.5487(5) 0.2477(9) 0.6785(5)
H10 H 0.6103 0.1984 0.7557
N1 N 0.5758(5) 0.2653(8) 0.5921(5)
F2? F 0.113(2) 0.518(4) 0.493(2)
C14? C 0.403(4) 0.301(7) 0.625(4)
C15? C 0.420(4) 0.237(5) 0.737(3)
H11? H 0.4912 0.1694 0.7909
C16? C 0.325(4) 0.279(5) 0.764(3)
H12? H 0.3343 0.2376 0.8412
C17? C 0.218(4) 0.376(6) 0.690(4)
H13? H 0.1551 0.4027 0.7120
C18? C 0.212(4) 0.432(6) 0.580(4)
C19? C 0.301(4) 0.400(7) 0.542(4)
H14? H 0.2933 0.4430 0.4663
C20? C 0.721(4) 0.200(8) 0.644(4)
C21? C 0.842(4) 0.252(7) 0.735(4)
H15? H 0.8578 0.3122 0.8088
C22? C 0.938(4) 0.207(7) 0.709(3)
H16? H 1.0222 0.2395 0.7689
C23? C 0.923(4) 0.120(6) 0.604(3)
H17? H 0.9919 0.0934 0.5902
C24? C 0.797(4) 0.076(7) 0.522(4)
H18? H 0.7810 0.0157 0.4483
C25? C 0.691(4) 0.110(9) 0.536(5)
H19? H 0.6070 0.0758 0.4767
C26? C 0.622(4) 0.261(5) 0.675(4)
H20? H 0.6455 0.3064 0.7548
N2? N 0.502(3) 0.249(4) 0.588(3)
loop_
_geom_bond_atom_site_label_1
_geom_bond_atom_site_label_2
_geom_bond_site_symmetry_1
_geom_bond_site_symmetry_2
F1 C11 1_555 1_555
C1 C2 1_555 1_555
C2 H1 1_555 1_555
C3 C2 1_555 1_555
H2 C3 1_555 1_555
C4 C3 1_555 1_555
H3 C4 1_555 1_555
C5 C4 1_555 1_555
H4 C5 1_555 1_555
C6 C1 1_555 1_555
H5 C6 1_555 1_555
C7 C8 1_555 1_555
C8 H6 1_555 1_555
C9 C8 1_555 1_555
H7 C9 1_555 1_555
C10 C9 1_555 1_555
H8 C10 1_555 1_555
C11 C10 1_555 1_555
C12 C7 1_555 1_555
H9 C12 1_555 1_555
C13 C1 1_555 1_555
H10 C13 1_555 1_555
N1 C7 1_555 1_555
C5 C6 1_555 1_555
C11 C12 1_555 1_555
C13 N1 1_555 1_555

#END
