
#######################################################################
#
#                 Cambridge Crystallographic Data Centre
#                                CCDC 
#
#######################################################################
#
# If this CIF has been generated from an entry in the Cambridge 
# Structural Database, then it will include bibliographic, chemical, 
# crystal, experimental, refinement or atomic coordinate data resulting 
# from the CCDC's data processing and validation procedures.
#
#######################################################################

data_KIDSOI
_chemical_formula_moiety         'C10 H15 Mg1 N3 O9,H2 O1'
_chemical_name_systematic        
'pentaaqua-[5-(4H-1,2,4-triazol-4-yl)benzene-1,3-dicarboxylato]-magnesium monohydrate'
_symmetry_cell_setting           monoclinic
_symmetry_space_group_name_H-M   'P 21/c'
_symmetry_Int_Tables_number      14
_space_group_name_Hall           '-P 2ybc'
loop_
_symmetry_equiv_pos_site_id
_symmetry_equiv_pos_as_xyz
1 x,y,z
2 -x,1/2+y,1/2-z
3 -x,-y,-z
4 x,1/2-y,1/2+z
_cell_length_a                   10.684(2)
_cell_length_b                   19.272(4)
_cell_length_c                   7.6591(15)
_cell_angle_alpha                90
_cell_angle_beta                 110.54(3)
_cell_angle_gamma                90
_cell_volume                     1476.77
_exptl_crystal_colour            colorless
_exptl_crystal_description       Prism
_cell_formula_units_Z            4
loop_
_atom_site_label
_atom_site_type_symbol
_atom_site_fract_x
_atom_site_fract_y
_atom_site_fract_z
Mg1 Mg 0.66765(13) 0.09785(7) -0.10687(18)
O1 O 0.7437(3) 0.30600(14) -0.0649(4)
O2 O 0.7485(3) 0.19203(14) -0.0856(4)
O3 O 1.1017(3) 0.42397(14) 0.4268(4)
O4 O 1.3021(3) 0.37683(14) 0.5330(4)
O5 O 0.6264(3) 0.10051(14) -0.3924(4)
H1 H 0.6456 0.0609 -0.4320
H2 H 0.6737 0.1326 -0.4201
O6 O 0.4876(3) 0.14450(15) -0.1406(4)
H3 H 0.4944 0.1890 -0.1463
H4 H 0.4633 0.1346 -0.0472
O7 O 0.5774(4) 0.00234(18) -0.1475(6)
O8 O 0.8440(3) 0.04752(14) -0.0751(4)
H5 H 0.8582 0.0164 0.0086
H6 H 0.9078 0.0769 -0.0419
O9 O 0.7080(4) 0.09054(16) 0.1791(4)
H7 H 0.7216 0.1311 0.2282
N1 N 1.3103(4) 0.03240(18) 0.5358(5)
N2 N 1.1872(4) 0.01307(18) 0.5390(5)
N3 N 1.1715(3) 0.11756(16) 0.4241(4)
C1 C 1.1136(4) 0.18321(19) 0.3488(6)
C2 C 0.9918(4) 0.1840(2) 0.2091(5)
H8 H 0.9500 0.1426 0.1587
C3 C 1.2978(4) 0.0948(2) 0.4680(6)
H9 H 1.3668 0.1203 0.4519
C4 C 1.1794(4) 0.2439(2) 0.4228(5)
H10 H 1.2643 0.2425 0.5138
C5 C 1.1080(5) 0.0642(2) 0.4726(6)
H11 H 1.0181 0.0646 0.4594
C6 C 1.1180(4) 0.30693(19) 0.3604(5)
C7 C 0.9933(4) 0.30728(19) 0.2210(5)
H12 H 0.9506 0.3493 0.1791
C8 C 1.1788(4) 0.3743(2) 0.4467(6)
C9 C 0.9315(4) 0.2462(2) 0.1435(5)
C10 C 0.7979(4) 0.2482(2) -0.0141(5)
H13 H 0.745(5) 0.061(3) 0.262(7)
H14 H 0.505(6) 0.001(3) -0.226(9)
H15 H 0.615(7) -0.029(4) -0.115(10)
O10 O 0.4680(3) 0.28210(18) 0.7932(5)
H16 H 0.4240 0.3088 0.7045
H17 H 0.5509 0.2911 0.8249
loop_
_geom_bond_atom_site_label_1
_geom_bond_atom_site_label_2
_geom_bond_site_symmetry_1
_geom_bond_site_symmetry_2
Mg1 O2 1_555 1_555
O1 C10 1_555 1_555
O2 C10 1_555 1_555
O3 C8 1_555 1_555
O4 C8 1_555 1_555
O5 Mg1 1_555 1_555
H1 O5 1_555 1_555
H2 O5 1_555 1_555
O6 Mg1 1_555 1_555
H3 O6 1_555 1_555
H4 O6 1_555 1_555
O7 Mg1 1_555 1_555
O8 Mg1 1_555 1_555
H5 O8 1_555 1_555
H6 O8 1_555 1_555
O9 Mg1 1_555 1_555
H7 O9 1_555 1_555
N1 N2 1_555 1_555
N2 C5 1_555 1_555
N3 C1 1_555 1_555
C1 C2 1_555 1_555
C2 H8 1_555 1_555
C3 N1 1_555 1_555
H9 C3 1_555 1_555
C4 C1 1_555 1_555
H10 C4 1_555 1_555
C5 N3 1_555 1_555
H11 C5 1_555 1_555
C6 C4 1_555 1_555
C7 C6 1_555 1_555
H12 C7 1_555 1_555
C8 C6 1_555 1_555
C9 C2 1_555 1_555
C10 C9 1_555 1_555
H13 O9 1_555 1_555
H14 O7 1_555 1_555
H15 O7 1_555 1_555
O10 H16 1_555 1_555
H17 O10 1_555 1_555
N3 C3 1_555 1_555
C7 C9 1_555 1_555

#END
