
#######################################################################
#
#                 Cambridge Crystallographic Data Centre
#                                CCDC 
#
#######################################################################
#
# If this CIF has been generated from an entry in the Cambridge 
# Structural Database, then it will include bibliographic, chemical, 
# crystal, experimental, refinement or atomic coordinate data resulting 
# from the CCDC's data processing and validation procedures.
#
#######################################################################

data_KIDSAT
_chemical_formula_moiety         'C13 H10 F1 N1'
_chemical_name_systematic        N-(4-Fluorobenzylidene)aniline
_symmetry_cell_setting           triclinic
_symmetry_space_group_name_H-M   'P -1'
_symmetry_Int_Tables_number      2
_space_group_name_Hall           '-P 1'
loop_
_symmetry_equiv_pos_site_id
_symmetry_equiv_pos_as_xyz
1 x,y,z
2 -x,-y,-z
_cell_length_a                   5.5942(10)
_cell_length_b                   7.2247(14)
_cell_length_c                   12.569(2)
_cell_angle_alpha                91.985(10)
_cell_angle_beta                 97.697(10)
_cell_angle_gamma                90.286(10)
_cell_volume                     503.091
_cell_formula_units_Z            2
loop_
_atom_site_label
_atom_site_type_symbol
_atom_site_fract_x
_atom_site_fract_y
_atom_site_fract_z
C1 C 0.6216(3) 0.25117(19) -0.09500(11)
C2 C 0.4099(3) 0.1741(2) -0.15157(12)
H1 H 0.2888 0.1270 -0.1133
C3 C 0.3750(3) 0.1656(2) -0.26320(12)
H2 H 0.2340 0.1098 -0.3020
C4 C 0.5511(3) 0.2407(2) -0.31599(11)
C5 C 0.7594(3) 0.3236(2) -0.26338(11)
H3 H 0.8749 0.3767 -0.3025
C6 C 0.7952(3) 0.3272(2) -0.15217(12)
H4 H 0.9382 0.3815 -0.1143
C7 C 0.8960(3) 0.26181(19) 0.18992(11)
C8 C 0.7297(3) 0.3426(2) 0.25039(12)
H5 H 0.5898 0.4000 0.2153
C9 C 0.7682(3) 0.3393(2) 0.36205(12)
H6 H 0.6544 0.3944 0.4028
C10 C 0.9727(3) 0.2557(2) 0.41417(12)
H7 H 0.9981 0.2528 0.4904
C11 C 1.1398(3) 0.1764(2) 0.35398(12)
H8 H 1.2798 0.1193 0.3892
C12 C 1.1025(3) 0.1804(2) 0.24285(12)
H9 H 1.2183 0.1275 0.2024
C13 C 0.6611(3) 0.2460(2) 0.02250(11)
H10 H 0.5267 0.2272 0.0599
N1 N 0.8709(2) 0.26597(17) 0.07601(10)
F1 F 0.51806(16) 0.23523(13) -0.42508(7)
loop_
_geom_bond_atom_site_label_1
_geom_bond_atom_site_label_2
_geom_bond_site_symmetry_1
_geom_bond_site_symmetry_2
C1 C2 1_555 1_555
C2 H1 1_555 1_555
C3 C2 1_555 1_555
H2 C3 1_555 1_555
C4 C3 1_555 1_555
C5 C4 1_555 1_555
H3 C5 1_555 1_555
C6 C1 1_555 1_555
H4 C6 1_555 1_555
C7 C8 1_555 1_555
C8 H5 1_555 1_555
C9 C8 1_555 1_555
H6 C9 1_555 1_555
C10 C9 1_555 1_555
H7 C10 1_555 1_555
C11 C10 1_555 1_555
H8 C11 1_555 1_555
C12 C7 1_555 1_555
H9 C12 1_555 1_555
C13 C1 1_555 1_555
H10 C13 1_555 1_555
N1 C7 1_555 1_555
F1 C4 1_555 1_555
C5 C6 1_555 1_555
C11 C12 1_555 1_555
C13 N1 1_555 1_555

#END
