
#######################################################################
#
#                 Cambridge Crystallographic Data Centre
#                                CCDC 
#
#######################################################################
#
# If this CIF has been generated from an entry in the Cambridge 
# Structural Database, then it will include bibliographic, chemical, 
# crystal, experimental, refinement or atomic coordinate data resulting 
# from the CCDC's data processing and validation procedures.
#
#######################################################################

data_KIDTOI
_chemical_formula_moiety         'C10 H6 F6 O2'
_chemical_name_systematic        2-Acetyl-3,5-bis(trifluoromethyl)phenol
_symmetry_cell_setting           monoclinic
_symmetry_space_group_name_H-M   'P 21/c'
_symmetry_Int_Tables_number      14
_space_group_name_Hall           '-P 2ybc'
loop_
_symmetry_equiv_pos_site_id
_symmetry_equiv_pos_as_xyz
1 x,y,z
2 -x,1/2+y,1/2-z
3 -x,-y,-z
4 x,1/2-y,1/2+z
_cell_length_a                   9.6425(4)
_cell_length_b                   25.0368(12)
_cell_length_c                   9.8395(5)
_cell_angle_alpha                90
_cell_angle_beta                 115.615(2)
_cell_angle_gamma                90
_cell_volume                     2141.97
_exptl_crystal_colour            colorless
_exptl_crystal_description       prism
_cell_formula_units_Z            8
loop_
_atom_site_label
_atom_site_type_symbol
_atom_site_fract_x
_atom_site_fract_y
_atom_site_fract_z
F1 F 1.20871(12) 0.01598(5) 0.86940(15)
F2 F 1.10835(13) -0.02031(5) 0.65277(13)
F3 F 1.13950(13) -0.06567(5) 0.84645(15)
F4 F 0.6626(2) -0.10093(7) 0.8660(3)
F5 F 0.49549(16) -0.04138(5) 0.82801(18)
F6 F 0.4976(2) -0.08196(7) 0.64050(17)
O1 O 0.70479(13) 0.12026(4) 0.68564(14)
O2 O 0.38743(12) 0.04950(4) 0.59405(12)
C1 C 0.65366(16) 0.03248(5) 0.73056(15)
C2 C 0.75674(17) 0.06924(6) 0.71675(16)
C3 C 0.90069(17) 0.05274(6) 0.73332(17)
H1 H 0.9699 0.0776 0.7230
C4 C 0.94247(17) -0.00064(6) 0.76519(16)
C5 C 0.84238(17) -0.03765(6) 0.77870(16)
H2 H 0.8718 -0.0740 0.7996
C6 C 0.69812(16) -0.02080(6) 0.76122(15)
C7 C 0.50078(17) 0.05485(6) 0.71242(16)
C8 C 0.5018(2) 0.08554(8) 0.84352(19)
H3 H 0.3977 0.0984 0.8192
H4 H 0.5718 0.1161 0.8650
H5 H 0.5365 0.0622 0.9321
C9 C 1.09836(18) -0.01768(7) 0.78274(18)
C10 C 0.58951(19) -0.06158(6) 0.77256(19)
H6 H 0.773(3) 0.1427(9) 0.681(2)
F13 F 0.4987(10) 0.2797(6) -0.1157(12)
F14 F 0.6061(13) 0.2587(7) 0.1135(11)
F15 F 0.481(2) 0.2006(5) -0.050(4)
F16 F 0.01502(12) 0.15217(4) -0.01829(11)
F17 F -0.15400(11) 0.21316(4) -0.05462(13)
F18 F 0.00980(15) 0.19365(5) 0.16997(12)
O3 O 0.14243(14) 0.38581(4) 0.03787(14)
O4 O -0.07737(13) 0.31717(4) 0.15765(13)
C11 C 0.07275(16) 0.29584(6) 0.02862(15)
C12 C 0.17888(17) 0.33397(6) 0.02794(17)
C13 C 0.31257(18) 0.31800(6) 0.01829(17)
H7 H 0.3852 0.3437 0.0188
C14 C 0.33829(18) 0.26382(6) 0.00791(17)
C15 C 0.23482(17) 0.22551(6) 0.00889(17)
H8 H 0.2543 0.1886 0.0022
C16 C 0.10221(17) 0.24182(6) 0.01981(15)
C17 C -0.06971(17) 0.31716(6) 0.03732(17)
C18 C -0.19284(19) 0.33931(8) -0.1046(2)
H9 H -0.2791 0.3517 -0.0853
H10 H -0.2286 0.3114 -0.1822
H11 H -0.1515 0.3694 -0.1395
C19 C 0.4817(2) 0.24694(8) -0.0042(2)
C20 C -0.00642(19) 0.20037(6) 0.02881(17)
H12 H 0.222(3) 0.4079(9) 0.055(2)
F7? F 0.634(3) -0.0875(10) 0.891(2)
F8? F 0.456(2) -0.0503(7) 0.735(3)
F9? F 0.6092(18) -0.1099(5) 0.7125(18)
F10? F 0.4788(17) 0.2494(12) -0.1306(10)
F11? F 0.6084(12) 0.2695(5) 0.0997(16)
F12? F 0.5165(7) 0.1920(2) 0.0404(16)
F19? F 0.561(4) 0.216(3) 0.094(4)
F20? F 0.559(4) 0.2853(9) -0.029(7)
F21? F 0.424(5) 0.218(2) -0.138(5)
loop_
_geom_bond_atom_site_label_1
_geom_bond_atom_site_label_2
_geom_bond_site_symmetry_1
_geom_bond_site_symmetry_2
F1 C9 1_555 1_555
F2 C9 1_555 1_555
F3 C9 1_555 1_555
F4 C10 1_555 1_555
F5 C10 1_555 1_555
F6 C10 1_555 1_555
O1 C2 1_555 1_555
O2 C7 1_555 1_555
C1 C2 1_555 1_555
C2 C3 1_555 1_555
C3 H1 1_555 1_555
C4 C3 1_555 1_555
C5 C4 1_555 1_555
H2 C5 1_555 1_555
C6 C1 1_555 1_555
C7 C1 1_555 1_555
C8 C7 1_555 1_555
H3 C8 1_555 1_555
H4 C8 1_555 1_555
H5 C8 1_555 1_555
C9 C4 1_555 1_555
C10 C6 1_555 1_555
H6 O1 1_555 1_555
F13 C19 1_555 1_555
F14 C19 1_555 1_555
F15 C19 1_555 1_555
F16 C20 1_555 1_555
F17 C20 1_555 1_555
F18 C20 1_555 1_555
O3 C12 1_555 1_555
O4 C17 1_555 1_555
C11 C12 1_555 1_555
C12 C13 1_555 1_555
C13 H7 1_555 1_555
C14 C13 1_555 1_555
C15 C14 1_555 1_555
H8 C15 1_555 1_555
C16 C11 1_555 1_555
C17 C11 1_555 1_555
C18 C17 1_555 1_555
H9 C18 1_555 1_555
H10 C18 1_555 1_555
H11 C18 1_555 1_555
C19 C14 1_555 1_555
C20 C16 1_555 1_555
H12 O3 1_555 1_555
C5 C6 1_555 1_555
C15 C16 1_555 1_555

#END
