
#######################################################################
#
#                 Cambridge Crystallographic Data Centre
#                                CCDC 
#
#######################################################################
#
# If this CIF has been generated from an entry in the Cambridge 
# Structural Database, then it will include bibliographic, chemical, 
# crystal, experimental, refinement or atomic coordinate data resulting 
# from the CCDC's data processing and validation procedures.
#
#######################################################################

data_KIDTUO
_chemical_formula_moiety         'C17 H22 Cl1 F3 O3'
_chemical_name_systematic        
'Ethyl 4-(7-chloroheptyl)-2-hydroxy-6-(trifluoromethyl)benzoate'
_symmetry_cell_setting           triclinic
_symmetry_space_group_name_H-M   'P -1'
_symmetry_Int_Tables_number      2
_space_group_name_Hall           '-P 1'
loop_
_symmetry_equiv_pos_site_id
_symmetry_equiv_pos_as_xyz
1 x,y,z
2 -x,-y,-z
_cell_length_a                   4.7359(5)
_cell_length_b                   10.1246(10)
_cell_length_c                   18.6901(18)
_cell_angle_alpha                91.860(6)
_cell_angle_beta                 91.841(6)
_cell_angle_gamma                93.681(6)
_cell_volume                     893.327
_exptl_crystal_colour            colorless
_exptl_crystal_description       prism
_cell_formula_units_Z            2
loop_
_atom_site_label
_atom_site_type_symbol
_atom_site_fract_x
_atom_site_fract_y
_atom_site_fract_z
Cl1 Cl 0.29482(15) 0.91203(6) 1.08858(3)
F1 F 0.7367(2) -0.20096(11) 0.75023(6)
F2 F 0.3183(2) -0.27928(9) 0.71736(6)
F3 F 0.3817(3) -0.15616(11) 0.81220(5)
O1 O 0.6562(3) 0.14417(12) 0.54841(6)
O2 O 0.9188(3) -0.07605(12) 0.55804(7)
O3 O 0.6681(3) -0.23987(11) 0.60774(6)
C1 C 0.5268(3) 0.10285(14) 0.60793(7)
C2 C 0.5626(3) -0.02073(13) 0.63826(7)
C3 C 0.4254(3) -0.04783(14) 0.70295(7)
C4 C 0.2533(3) 0.04289(15) 0.73312(8)
H1 H 0.1661 0.0239 0.7758
C5 C 0.2080(3) 0.16284(14) 0.70042(8)
C6 C 0.3457(3) 0.19054(14) 0.63866(8)
H2 H 0.3176 0.2699 0.6166
C7 C 0.7370(3) -0.11305(14) 0.59811(7)
C8 C 0.8335(5) -0.33398(19) 0.56991(11)
H3 H 1.0340 -0.3137 0.5800
H4 H 0.7974 -0.3306 0.5186
C9 C 0.7460(9) -0.4664(2) 0.59541(18)
H5 H 0.7820 -0.4683 0.6462
H6 H 0.8516 -0.5318 0.5717
H7 H 0.5475 -0.4853 0.5849
C10 C 0.4671(4) -0.17070(16) 0.74451(8)
C11 C 0.0292(3) 0.26249(16) 0.73609(9)
H8 H -0.1230 0.2162 0.7606
H9 H -0.0548 0.3158 0.6999
C12 C 0.2063(3) 0.35276(16) 0.78993(9)
H10 H 0.2942 0.2984 0.8250
H11 H 0.3564 0.3994 0.7649
C13 C 0.0370(3) 0.45403(16) 0.82916(9)
H12 H -0.0423 0.5120 0.7946
H13 H -0.1190 0.4081 0.8524
C14 C 0.2165(3) 0.53730(15) 0.88508(9)
H14 H 0.3724 0.5827 0.8615
H15 H 0.2965 0.4787 0.9193
C15 C 0.0549(3) 0.63954(15) 0.92564(8)
H16 H -0.1018 0.5947 0.9492
H17 H -0.0233 0.6992 0.8918
C16 C 0.2413(4) 0.72017(17) 0.98164(9)
H18 H 0.3202 0.6606 1.0154
H19 H 0.3972 0.7656 0.9581
C17 C 0.0800(5) 0.8196(2) 1.02136(11)
H20 H -0.0787 0.7743 1.0438
H21 H 0.0048 0.8804 0.9876
H22 H 0.773(6) 0.080(3) 0.5366(15)
loop_
_geom_bond_atom_site_label_1
_geom_bond_atom_site_label_2
_geom_bond_site_symmetry_1
_geom_bond_site_symmetry_2
Cl1 C17 1_555 1_555
F1 C10 1_555 1_555
F2 C10 1_555 1_555
F3 C10 1_555 1_555
O1 C1 1_555 1_555
O2 C7 1_555 1_555
O3 C7 1_555 1_555
C1 C2 1_555 1_555
C2 C3 1_555 1_555
C3 C4 1_555 1_555
C4 H1 1_555 1_555
C5 C4 1_555 1_555
C6 C1 1_555 1_555
H2 C6 1_555 1_555
C7 C2 1_555 1_555
C8 O3 1_555 1_555
H3 C8 1_555 1_555
H4 C8 1_555 1_555
C9 C8 1_555 1_555
H5 C9 1_555 1_555
H6 C9 1_555 1_555
H7 C9 1_555 1_555
C10 C3 1_555 1_555
C11 C5 1_555 1_555
H8 C11 1_555 1_555
H9 C11 1_555 1_555
C12 C11 1_555 1_555
H10 C12 1_555 1_555
H11 C12 1_555 1_555
C13 C12 1_555 1_555
H12 C13 1_555 1_555
H13 C13 1_555 1_555
C14 C13 1_555 1_555
H14 C14 1_555 1_555
H15 C14 1_555 1_555
C15 C14 1_555 1_555
H16 C15 1_555 1_555
H17 C15 1_555 1_555
C16 C15 1_555 1_555
H18 C16 1_555 1_555
H19 C16 1_555 1_555
C17 C16 1_555 1_555
H20 C17 1_555 1_555
H21 C17 1_555 1_555
H22 O1 1_555 1_555
C5 C6 1_555 1_555

#END
