
#######################################################################
#
#                 Cambridge Crystallographic Data Centre
#                                CCDC 
#
#######################################################################
#
# If this CIF has been generated from an entry in the Cambridge 
# Structural Database, then it will include bibliographic, chemical, 
# crystal, experimental, refinement or atomic coordinate data resulting 
# from the CCDC's data processing and validation procedures.
#
#######################################################################

data_KIDTAU
_chemical_formula_moiety         'C13 H9 F2 N1'
_chemical_name_systematic        4-Fluoro-N-(4-fluorobenzylidene)aniline
_symmetry_cell_setting           triclinic
_symmetry_space_group_name_H-M   'P -1'
_symmetry_Int_Tables_number      2
_space_group_name_Hall           '-P 1'
loop_
_symmetry_equiv_pos_site_id
_symmetry_equiv_pos_as_xyz
1 x,y,z
2 -x,-y,-z
_cell_length_a                   5.728(5)
_cell_length_b                   7.416(5)
_cell_length_c                   12.487(5)
_cell_angle_alpha                105.745(5)
_cell_angle_beta                 98.559(5)
_cell_angle_gamma                90.003(5)
_cell_volume                     504.389
_exptl_crystal_colour            colorless
_exptl_crystal_description       plate
_cell_formula_units_Z            2
loop_
_atom_site_label
_atom_site_type_symbol
_atom_site_fract_x
_atom_site_fract_y
_atom_site_fract_z
F1 F 0.50203(17) -0.20586(15) 0.02482(8)
F2 F 0.98410(17) 0.69539(14) 0.97069(8)
N1 N 0.658(3) 0.235(3) 0.4668(10)
C1 C 0.8936(3) 0.3860(2) 0.63964(14)
C2 C 1.1026(3) 0.3788(2) 0.71157(14)
C3 C 1.1340(3) 0.4811(2) 0.82368(14)
C4 C 0.9541(3) 0.5930(2) 0.86148(14)
C5 C 0.7464(3) 0.6071(2) 0.79294(14)
C6 C 0.7166(3) 0.5029(2) 0.68165(14)
C7 C 0.6284(3) 0.1143(2) 0.35350(14)
C8 C 0.7896(3) 0.1199(2) 0.28048(14)
C9 C 0.7473(3) 0.0134(2) 0.16957(14)
C10 C 0.5432(3) -0.0998(2) 0.13320(14)
C11 C 0.3793(3) -0.1093(2) 0.20240(14)
C12 C 0.4222(3) 0.0006(2) 0.31250(14)
C13 C 0.8506(15) 0.256(2) 0.5238(8)
H1 H 1.22510 0.30263 0.68317
H2 H 1.27497 0.47456 0.87305
H3 H 0.62686 0.68653 0.82165
H4 H 0.57493 0.51052 0.63302
H5 H 0.92951 0.19771 0.30744
H6 H 0.85557 0.01771 0.11954
H7 H 0.24122 -0.18912 0.17505
H8 H 0.30986 -0.00103 0.36109
H9 H 0.97783 0.18830 0.49408
N2? N 0.8741(12) 0.2860(17) 0.5245(6)
C14? C 0.664(3) 0.216(3) 0.4687(12)
H10? H 0.53149 0.23389 0.50775
loop_
_geom_bond_atom_site_label_1
_geom_bond_atom_site_label_2
_geom_bond_site_symmetry_1
_geom_bond_site_symmetry_2
F1 C10 1_555 1_555
F2 C4 1_555 1_555
N1 C7 1_555 1_555
C1 C2 1_555 1_555
C2 C3 1_555 1_555
C3 C4 1_555 1_555
C4 C5 1_555 1_555
C5 C6 1_555 1_555
C6 C1 1_555 1_555
C7 C8 1_555 1_555
C8 C9 1_555 1_555
C9 C10 1_555 1_555
C10 C11 1_555 1_555
C11 C12 1_555 1_555
C12 C7 1_555 1_555
C13 N1 1_555 1_555
H1 C2 1_555 1_555
H2 C3 1_555 1_555
H3 C5 1_555 1_555
H4 C6 1_555 1_555
H5 C8 1_555 1_555
H6 C9 1_555 1_555
H7 C11 1_555 1_555
H8 C12 1_555 1_555
H9 C13 1_555 1_555
C1 C13 1_555 1_555

#END
