
#######################################################################
#
#                 Cambridge Crystallographic Data Centre
#                                CCDC 
#
#######################################################################
#
# If this CIF has been generated from an entry in the Cambridge 
# Structural Database, then it will include bibliographic, chemical, 
# crystal, experimental, refinement or atomic coordinate data resulting 
# from the CCDC's data processing and validation procedures.
#
#######################################################################

data_KIDWUS
_chemical_formula_moiety         'C41 H37 P1'
_chemical_name_systematic        
(diphenylmethyl)(methyl)[2-methyl-6-(2,2,2-triphenylethyl)phenyl]phosphane
_symmetry_cell_setting           monoclinic
_symmetry_space_group_name_H-M   'P 21/n'
_symmetry_Int_Tables_number      14
_space_group_name_Hall           '-P 2yn'
loop_
_symmetry_equiv_pos_site_id
_symmetry_equiv_pos_as_xyz
1 x,y,z
2 1/2-x,1/2+y,1/2-z
3 -x,-y,-z
4 1/2+x,1/2-y,1/2+z
_cell_length_a                   12.623(7)
_cell_length_b                   15.369(10)
_cell_length_c                   16.556(10)
_cell_angle_alpha                90
_cell_angle_beta                 102.684(14)
_cell_angle_gamma                90
_cell_volume                     3133.53
_exptl_crystal_colour            colorless
_exptl_crystal_description       irregular
_cell_formula_units_Z            4
loop_
_atom_site_label
_atom_site_type_symbol
_atom_site_fract_x
_atom_site_fract_y
_atom_site_fract_z
P1 P 0.89401(2) 0.30664(2) 0.59598(2)
C1 C 0.93195(12) 0.17008(10) 0.76052(8)
H1 H 0.9889 0.1871 0.8082
H2 H 0.8943 0.1184 0.7746
H3 H 0.8799 0.2179 0.7458
C2 C 0.98305(11) 0.14959(9) 0.68699(8)
C3 C 1.04387(12) 0.07173(10) 0.69328(9)
H4 H 1.0539 0.0384 0.7427
C4 C 1.08958(12) 0.04253(9) 0.62869(10)
H5 H 1.1305 -0.0099 0.6343
C5 C 1.07455(11) 0.09109(9) 0.55586(9)
H6 H 1.1037 0.0704 0.5112
C6 C 1.01669(10) 0.17049(8) 0.54741(8)
C7 C 0.97050(10) 0.20130(8) 0.61377(8)
C8 C 1.00024(10) 0.21806(8) 0.46448(8)
H7 H 0.9383 0.2584 0.4608
H8 H 0.9786 0.1744 0.4200
C9 C 1.09898(10) 0.27202(8) 0.44519(7)
C10 C 1.19287(10) 0.21005(8) 0.43273(8)
C11 C 1.16680(12) 0.14298(9) 0.37326(8)
H9 H 1.0931 0.1338 0.3462
C12 C 1.24773(13) 0.08971(10) 0.35345(9)
H10 H 1.2286 0.0452 0.3131
C13 C 1.35743(13) 0.10219(10) 0.39338(10)
H11 H 1.4121 0.0654 0.3809
C14 C 1.38518(12) 0.16884(10) 0.45132(10)
H12 H 1.4591 0.1779 0.4779
C15 C 1.30357(11) 0.22310(9) 0.47066(9)
H13 H 1.3234 0.2689 0.5096
C16 C 1.05978(11) 0.31847(8) 0.35971(8)
C17 C 1.13834(11) 0.36065(8) 0.32432(8)
H14 H 1.2121 0.3612 0.3535
C18 C 1.10933(13) 0.40161(9) 0.24690(9)
H15 H 1.1633 0.4301 0.2246
C19 C 1.00039(13) 0.40088(9) 0.20169(9)
H16 H 0.9811 0.4279 0.1489
C20 C 0.92173(13) 0.35998(10) 0.23555(9)
H17 H 0.8482 0.3595 0.2059
C21 C 0.95093(11) 0.31910(9) 0.31405(8)
H18 H 0.8964 0.2916 0.3364
C22 C 1.13740(10) 0.33898(8) 0.51581(7)
C23 C 1.11709(10) 0.42883(8) 0.50473(8)
H19 H 1.0810 0.4498 0.4519
C24 C 1.14932(11) 0.48825(9) 0.57057(8)
H20 H 1.1344 0.5485 0.5617
C25 C 1.20319(11) 0.45887(10) 0.64905(8)
H21 H 1.2256 0.4989 0.6932
C26 C 1.22357(11) 0.36954(10) 0.66140(8)
H22 H 1.2598 0.3490 0.7144
C27 C 1.19088(10) 0.31026(9) 0.59615(8)
H23 H 1.2047 0.2500 0.6058
C28 C 0.93616(11) 0.36942(9) 0.69348(9)
H24 H 0.9017 0.3446 0.7359
H25 H 0.9137 0.4302 0.6836
H26 H 1.0153 0.3665 0.7125
C29 C 0.75222(10) 0.26605(8) 0.59700(8)
H27 H 0.7573 0.2271 0.6461
C30 C 0.71692(10) 0.21062(8) 0.51855(8)
C31 C 0.71419(11) 0.11919(9) 0.52453(8)
H28 H 0.7301 0.0925 0.5776
C32 C 0.68834(11) 0.06706(9) 0.45335(9)
H29 H 0.6860 0.0055 0.4584
C33 C 0.66586(12) 0.10592(10) 0.37457(9)
H30 H 0.6490 0.0709 0.3262
C34 C 0.66849(11) 0.19683(10) 0.36788(9)
H31 H 0.6533 0.2233 0.3147
C35 C 0.69336(10) 0.24909(9) 0.43919(8)
H32 H 0.6943 0.3106 0.4340
C36 C 0.67267(10) 0.33970(9) 0.60347(8)
C37 C 0.58293(11) 0.32060(10) 0.63835(9)
H33 H 0.5751 0.2639 0.6591
C38 C 0.50495(12) 0.38467(12) 0.64266(10)
H34 H 0.4442 0.3706 0.6653
C39 C 0.51610(12) 0.46834(11) 0.61404(10)
H35 H 0.4626 0.5112 0.6163
C40 C 0.60654(12) 0.48935(10) 0.58182(9)
H36 H 0.6158 0.5470 0.5639
C41 C 0.68376(11) 0.42488(9) 0.57600(9)
H37 H 0.7443 0.4393 0.5531
loop_
_geom_bond_atom_site_label_1
_geom_bond_atom_site_label_2
_geom_bond_site_symmetry_1
_geom_bond_site_symmetry_2
P1 C7 1_555 1_555
C1 H1 1_555 1_555
H2 C1 1_555 1_555
H3 C1 1_555 1_555
C2 C1 1_555 1_555
C3 C2 1_555 1_555
H4 C3 1_555 1_555
C4 C3 1_555 1_555
H5 C4 1_555 1_555
C5 C4 1_555 1_555
H6 C5 1_555 1_555
C6 C5 1_555 1_555
C7 C2 1_555 1_555
C8 C6 1_555 1_555
H7 C8 1_555 1_555
H8 C8 1_555 1_555
C9 C8 1_555 1_555
C10 C9 1_555 1_555
C11 C10 1_555 1_555
H9 C11 1_555 1_555
C12 C11 1_555 1_555
H10 C12 1_555 1_555
C13 C12 1_555 1_555
H11 C13 1_555 1_555
C14 C13 1_555 1_555
H12 C14 1_555 1_555
C15 C10 1_555 1_555
H13 C15 1_555 1_555
C16 C9 1_555 1_555
C17 C16 1_555 1_555
H14 C17 1_555 1_555
C18 C17 1_555 1_555
H15 C18 1_555 1_555
C19 C18 1_555 1_555
H16 C19 1_555 1_555
C20 C19 1_555 1_555
H17 C20 1_555 1_555
C21 C16 1_555 1_555
H18 C21 1_555 1_555
C22 C9 1_555 1_555
C23 C22 1_555 1_555
H19 C23 1_555 1_555
C24 C23 1_555 1_555
H20 C24 1_555 1_555
C25 C24 1_555 1_555
H21 C25 1_555 1_555
C26 C25 1_555 1_555
H22 C26 1_555 1_555
C27 C22 1_555 1_555
H23 C27 1_555 1_555
C28 P1 1_555 1_555
H24 C28 1_555 1_555
H25 C28 1_555 1_555
H26 C28 1_555 1_555
C29 P1 1_555 1_555
H27 C29 1_555 1_555
C30 C29 1_555 1_555
C31 C30 1_555 1_555
H28 C31 1_555 1_555
C32 C31 1_555 1_555
H29 C32 1_555 1_555
C33 C32 1_555 1_555
H30 C33 1_555 1_555
C34 C33 1_555 1_555
H31 C34 1_555 1_555
C35 C30 1_555 1_555
H32 C35 1_555 1_555
C36 C29 1_555 1_555
C37 C36 1_555 1_555
H33 C37 1_555 1_555
C38 C37 1_555 1_555
H34 C38 1_555 1_555
C39 C38 1_555 1_555
H35 C39 1_555 1_555
C40 C39 1_555 1_555
H36 C40 1_555 1_555
C41 C36 1_555 1_555
H37 C41 1_555 1_555
C6 C7 1_555 1_555
C14 C15 1_555 1_555
C20 C21 1_555 1_555
C26 C27 1_555 1_555
C34 C35 1_555 1_555
C40 C41 1_555 1_555

#END
