
#######################################################################
#
#                 Cambridge Crystallographic Data Centre
#                                CCDC 
#
#######################################################################
#
# If this CIF has been generated from an entry in the Cambridge 
# Structural Database, then it will include bibliographic, chemical, 
# crystal, experimental, refinement or atomic coordinate data resulting 
# from the CCDC's data processing and validation procedures.
#
#######################################################################

data_KIDXEC07
_chemical_formula_moiety         '2(C3 H8 N2 O1),C2 H2 O4'
_chemical_name_systematic        "bis(N,N'-dimethylurea) oxalic acid"
_symmetry_cell_setting           monoclinic
_symmetry_space_group_name_H-M   'P 21/n'
_symmetry_Int_Tables_number      14
_space_group_name_Hall           '-P 2yn'
loop_
_symmetry_equiv_pos_site_id
_symmetry_equiv_pos_as_xyz
1 x,y,z
2 1/2-x,1/2+y,1/2-z
3 -x,-y,-z
4 1/2+x,1/2-y,1/2+z
_cell_length_a                   3.810(5)
_cell_length_b                   13.040(5)
_cell_length_c                   12.300(5)
_cell_angle_alpha                90
_cell_angle_beta                 94.480(10)
_cell_angle_gamma                90
_cell_volume                     609.226
_exptl_crystal_colour            colorless
_exptl_crystal_description       block
_cell_formula_units_Z            2
loop_
_atom_site_label
_atom_site_type_symbol
_atom_site_fract_x
_atom_site_fract_y
_atom_site_fract_z
C1 C 0.9050(5) 0.03810(14) 0.96070(17)
H1 H 0.6098(11) 0.1707(3) 0.9521(4)
O1 O 0.7357(6) 0.10721(17) 1.00768(18)
O2 O 0.9276(7) 0.02955(18) 0.8636(2)
C1B C 1.0950(5) -0.03810(14) 1.03930(17)
H1B H 1.3902(11) -0.1707(3) 1.0479(4)
O1B O 1.2643(6) -0.10721(17) 0.99232(18)
O2B O 1.0724(7) -0.02955(18) 1.1364(2)
C2 C 0.4765(5) 0.26385(13) 0.80617(18)
C3 C 0.2148(6) 0.42890(16) 0.8309(2)
C4 C 0.6656(6) 0.20734(17) 0.63025(19)
H2 H 0.079(2) 0.4826(5) 0.7808(6)
H3 H 0.4199(18) 0.4643(5) 0.8818(6)
H4 H 0.0380(16) 0.3975(4) 0.8839(5)
H5 H 0.8222(16) 0.1467(4) 0.6045(5)
H6 H 0.7926(16) 0.2790(4) 0.6154(4)
H7 H 0.4232(13) 0.2078(5) 0.5809(4)
H8 H 0.7242(12) 0.1331(3) 0.7824(4)
H9 H 0.3794(12) 0.3693(3) 0.6870(5)
O3 O 0.4628(7) 0.24872(15) 0.9066(2)
N1 N 0.3496(4) 0.35083(11) 0.76363(16)
N2 N 0.6151(4) 0.19443(11) 0.74373(13)
loop_
_geom_bond_atom_site_label_1
_geom_bond_atom_site_label_2
_geom_bond_site_symmetry_1
_geom_bond_site_symmetry_2
C1 O1 1_555 1_555
H1 O1 1_555 1_555
O2 C1 1_555 1_555
C2 O3 1_555 1_555
C3 H2 1_555 1_555
C4 H5 1_555 1_555
H3 C3 1_555 1_555
H4 C3 1_555 1_555
H6 C4 1_555 1_555
H7 C4 1_555 1_555
H8 N2 1_555 1_555
H9 N1 1_555 1_555
N1 C2 1_555 1_555
N2 C2 1_555 1_555
C1B C1 1_555 1_555
H1B O1B 1_555 1_555
O1B C1B 1_555 1_555
O2B C1B 1_555 1_555
C3 N1 1_555 1_555
C4 N2 1_555 1_555

#END
