
#######################################################################
#
#                 Cambridge Crystallographic Data Centre
#                                CCDC 
#
#######################################################################
#
# If this CIF has been generated from an entry in the Cambridge 
# Structural Database, then it will include bibliographic, chemical, 
# crystal, experimental, refinement or atomic coordinate data resulting 
# from the CCDC's data processing and validation procedures.
#
#######################################################################

data_KIDXEC05
_chemical_formula_moiety         '2(C3 H8 N2 O1),C2 H2 O4'
_chemical_name_systematic        "bis(N,N'-dimethylurea) oxalic acid"
_symmetry_cell_setting           monoclinic
_symmetry_space_group_name_H-M   'P 21/n'
_symmetry_Int_Tables_number      14
_space_group_name_Hall           '-P 2yn'
loop_
_symmetry_equiv_pos_site_id
_symmetry_equiv_pos_as_xyz
1 x,y,z
2 1/2-x,1/2+y,1/2-z
3 -x,-y,-z
4 1/2+x,1/2-y,1/2+z
_cell_length_a                   3.930(5)
_cell_length_b                   13.170(5)
_cell_length_c                   12.490(5)
_cell_angle_alpha                90
_cell_angle_beta                 94.450(10)
_cell_angle_gamma                90
_cell_volume                     644.51
_exptl_crystal_colour            colorless
_exptl_crystal_description       block
_cell_formula_units_Z            2
loop_
_atom_site_label
_atom_site_type_symbol
_atom_site_fract_x
_atom_site_fract_y
_atom_site_fract_z
C1 C 0.9049(4) 0.03781(10) 0.96100(10)
H1 H 0.6130(9) 0.1695(3) 0.9527(2)
O1 O 0.7400(5) 0.10706(13) 1.00831(11)
O2 O 0.9204(6) 0.02794(14) 0.86440(12)
C1B C 1.0951(4) -0.03781(10) 1.03900(10)
H1B H 1.3870(9) -0.1695(3) 1.0473(2)
O1B O 1.2600(5) -0.10706(13) 0.99169(11)
O2B O 1.0796(6) -0.02794(14) 1.13560(12)
C2 C 0.4806(4) 0.26388(10) 0.80728(12)
C3 C 0.2219(6) 0.42834(13) 0.83226(16)
C4 C 0.6671(6) 0.20806(14) 0.63209(14)
H2 H 0.101(2) 0.4834(4) 0.7842(5)
H3 H 0.4085(17) 0.4615(5) 0.8839(7)
H4 H 0.0482(16) 0.3979(4) 0.8840(5)
H5 H 0.8217(16) 0.1484(4) 0.6059(4)
H6 H 0.7960(16) 0.2780(4) 0.6170(4)
H7 H 0.4338(17) 0.2091(5) 0.5831(4)
H8 H 0.7209(10) 0.1325(2) 0.7832(3)
H9 H 0.3856(12) 0.3694(2) 0.6878(3)
O3 O 0.4643(6) 0.24770(12) 0.90701(13)
N1 N 0.3559(3) 0.35061(8) 0.76520(9)
N2 N 0.6173(4) 0.19462(8) 0.74459(8)
loop_
_geom_bond_atom_site_label_1
_geom_bond_atom_site_label_2
_geom_bond_site_symmetry_1
_geom_bond_site_symmetry_2
C1 O1 1_555 1_555
H1 O1 1_555 1_555
O2 C1 1_555 1_555
C2 O3 1_555 1_555
C3 H2 1_555 1_555
C4 H5 1_555 1_555
H3 C3 1_555 1_555
H4 C3 1_555 1_555
H6 C4 1_555 1_555
H7 C4 1_555 1_555
H8 N2 1_555 1_555
H9 N1 1_555 1_555
N1 C2 1_555 1_555
N2 C2 1_555 1_555
C1B C1 1_555 1_555
H1B O1B 1_555 1_555
O1B C1B 1_555 1_555
O2B C1B 1_555 1_555
C3 N1 1_555 1_555
C4 N2 1_555 1_555

#END
