
#######################################################################
#
#                 Cambridge Crystallographic Data Centre
#                                CCDC 
#
#######################################################################
#
# If this CIF has been generated from an entry in the Cambridge 
# Structural Database, then it will include bibliographic, chemical, 
# crystal, experimental, refinement or atomic coordinate data resulting 
# from the CCDC's data processing and validation procedures.
#
#######################################################################

data_KIDXEC01
_chemical_formula_moiety         '2(C3 H8 N2 O1),C2 H2 O4'
_chemical_name_systematic        "bis(N,N'-dimethylurea) oxalic acid"
_symmetry_cell_setting           monoclinic
_symmetry_space_group_name_H-M   'P 21/n'
_symmetry_Int_Tables_number      14
_space_group_name_Hall           '-P 2yn'
loop_
_symmetry_equiv_pos_site_id
_symmetry_equiv_pos_as_xyz
1 x,y,z
2 1/2-x,1/2+y,1/2-z
3 -x,-y,-z
4 1/2+x,1/2-y,1/2+z
_cell_length_a                   3.8973(3)
_cell_length_b                   13.1875(12)
_cell_length_c                   12.4699(7)
_cell_angle_alpha                90
_cell_angle_beta                 94.635(3)
_cell_angle_gamma                90
_cell_volume                     638.803
_exptl_crystal_colour            colorless
_exptl_crystal_description       block
_cell_formula_units_Z            2
loop_
_atom_site_label
_atom_site_type_symbol
_atom_site_fract_x
_atom_site_fract_y
_atom_site_fract_z
C1 C 0.9049(3) 0.03805(7) 0.96067(7)
O1 O 0.7384(2) 0.10712(5) 1.00863(5)
O2 O 0.9232(2) 0.02867(6) 0.86410(5)
H1 H 0.624(6) 0.1651(18) 0.9503(16)
C1B C 1.0951(3) -0.03805(7) 1.03933(7)
O1B O 1.2616(2) -0.10712(5) 0.99137(5)
O2B O 1.0768(2) -0.02867(6) 1.13590(5)
H1B H 1.376(6) -0.1651(18) 1.0497(16)
C2 C 0.4793(3) 0.26390(7) 0.80669(8)
C3 C 0.2183(3) 0.42878(9) 0.83182(10)
C4 C 0.6666(3) 0.20804(10) 0.63124(9)
O3 O 0.4628(2) 0.24829(6) 0.90699(6)
N1 N 0.3532(2) 0.35074(7) 0.76474(7)
N2 N 0.6161(3) 0.19480(7) 0.74434(7)
H2 H 0.813(4) 0.1531(13) 0.6088(12)
H3 H 0.111(5) 0.4785(14) 0.7872(14)
H4 H 0.697(4) 0.1413(12) 0.7772(11)
H5 H 0.451(4) 0.2055(13) 0.5899(13)
H6 H 0.387(4) 0.3640(11) 0.7002(12)
H7 H 0.792(4) 0.2738(14) 0.6204(13)
H8 H 0.060(4) 0.4016(13) 0.8820(13)
H9 H 0.398(5) 0.4614(15) 0.8813(15)
loop_
_geom_bond_atom_site_label_1
_geom_bond_atom_site_label_2
_geom_bond_site_symmetry_1
_geom_bond_site_symmetry_2
C1 O1 1_555 1_555
O1 H1 1_555 1_555
O2 C1 1_555 1_555
C2 O3 1_555 1_555
C3 N1 1_555 1_555
C4 N2 1_555 1_555
N1 C2 1_555 1_555
N2 C2 1_555 1_555
H2 C4 1_555 1_555
H3 C3 1_555 1_555
H4 N2 1_555 1_555
H5 C4 1_555 1_555
H6 N1 1_555 1_555
H7 C4 1_555 1_555
H8 C3 1_555 1_555
H9 C3 1_555 1_555
C1B C1 1_555 1_555
O1B C1B 1_555 1_555
O2B C1B 1_555 1_555
H1B O1B 1_555 1_555

#END
