
#######################################################################
#
#                 Cambridge Crystallographic Data Centre
#                                CCDC 
#
#######################################################################
#
# If this CIF has been generated from an entry in the Cambridge 
# Structural Database, then it will include bibliographic, chemical, 
# crystal, experimental, refinement or atomic coordinate data resulting 
# from the CCDC's data processing and validation procedures.
#
#######################################################################

data_KIDXEC02
_chemical_formula_moiety         '2(C3 H8 N2 O1),C2 H2 O4'
_chemical_name_systematic        "bis(N,N'-dimethylurea) oxalic acid"
_symmetry_cell_setting           monoclinic
_symmetry_space_group_name_H-M   'P 21/n'
_symmetry_Int_Tables_number      14
_space_group_name_Hall           '-P 2yn'
loop_
_symmetry_equiv_pos_site_id
_symmetry_equiv_pos_as_xyz
1 x,y,z
2 1/2-x,1/2+y,1/2-z
3 -x,-y,-z
4 1/2+x,1/2-y,1/2+z
_cell_length_a                   3.8247(3)
_cell_length_b                   13.2281(11)
_cell_length_c                   12.4122(7)
_cell_angle_alpha                90
_cell_angle_beta                 94.883(2)
_cell_angle_gamma                90
_cell_volume                     625.698
_exptl_crystal_colour            colorless
_exptl_crystal_description       block
_cell_formula_units_Z            2
loop_
_atom_site_label
_atom_site_type_symbol
_atom_site_fract_x
_atom_site_fract_y
_atom_site_fract_z
C1 C 0.9059(2) 0.03858(7) 0.96044(7)
O1 O 0.73427(18) 0.10722(5) 1.00835(5)
O2 O 0.93020(19) 0.03017(5) 0.86317(5)
H1 H 0.611(6) 0.1681(16) 0.9539(17)
C1B C 1.0941(2) -0.03858(7) 1.03956(7)
O1B O 1.26573(18) -0.10722(5) 0.99165(5)
O2B O 1.06980(19) -0.03017(5) 1.13683(5)
H1B H 1.389(6) -0.1681(16) 1.0461(17)
C2 C 0.4764(2) 0.26398(7) 0.80553(7)
C3 C 0.2126(3) 0.42874(8) 0.83051(9)
C4 C 0.6634(3) 0.20758(8) 0.62917(8)
O3 O 0.46112(18) 0.24920(5) 0.90667(5)
N1 N 0.3472(2) 0.35051(6) 0.76275(7)
N2 N 0.6146(2) 0.19457(6) 0.74313(6)
H2 H 0.807(4) 0.1515(11) 0.6074(11)
H3 H 0.092(4) 0.4790(11) 0.7850(12)
H4 H 0.705(4) 0.1430(11) 0.7763(11)
H5 H 0.437(4) 0.2056(11) 0.5856(11)
H6 H 0.381(3) 0.3644(10) 0.6972(12)
H7 H 0.786(4) 0.2708(11) 0.6178(11)
H8 H 0.053(4) 0.4009(11) 0.8794(12)
H9 H 0.401(4) 0.4628(12) 0.8778(12)
loop_
_geom_bond_atom_site_label_1
_geom_bond_atom_site_label_2
_geom_bond_site_symmetry_1
_geom_bond_site_symmetry_2
C1 O1 1_555 1_555
O1 H1 1_555 1_555
O2 C1 1_555 1_555
C2 O3 1_555 1_555
C3 N1 1_555 1_555
C4 N2 1_555 1_555
N1 C2 1_555 1_555
N2 C2 1_555 1_555
H2 C4 1_555 1_555
H3 C3 1_555 1_555
H4 N2 1_555 1_555
H5 C4 1_555 1_555
H6 N1 1_555 1_555
H7 C4 1_555 1_555
H8 C3 1_555 1_555
H9 C3 1_555 1_555
C1B C1 1_555 1_555
O1B C1B 1_555 1_555
O2B C1B 1_555 1_555
H1B O1B 1_555 1_555

#END
