
#######################################################################
#
#                 Cambridge Crystallographic Data Centre
#                                CCDC 
#
#######################################################################
#
# If this CIF has been generated from an entry in the Cambridge 
# Structural Database, then it will include bibliographic, chemical, 
# crystal, experimental, refinement or atomic coordinate data resulting 
# from the CCDC's data processing and validation procedures.
#
#######################################################################

data_KIDXEC06
_chemical_formula_moiety         '2(C3 H8 N2 O1),C2 H2 O4'
_chemical_name_systematic        "bis(N,N'-dimethylurea) oxalic acid"
_symmetry_cell_setting           monoclinic
_symmetry_space_group_name_H-M   'P 21/n'
_symmetry_Int_Tables_number      14
_space_group_name_Hall           '-P 2yn'
loop_
_symmetry_equiv_pos_site_id
_symmetry_equiv_pos_as_xyz
1 x,y,z
2 1/2-x,1/2+y,1/2-z
3 -x,-y,-z
4 1/2+x,1/2-y,1/2+z
_cell_length_a                   3.900(5)
_cell_length_b                   13.190(5)
_cell_length_c                   12.470(5)
_cell_angle_alpha                90
_cell_angle_beta                 94.640(10)
_cell_angle_gamma                90
_cell_volume                     639.367
_exptl_crystal_colour            colorless
_exptl_crystal_description       block
_cell_formula_units_Z            2
loop_
_atom_site_label
_atom_site_type_symbol
_atom_site_fract_x
_atom_site_fract_y
_atom_site_fract_z
C1 C 0.9055(3) 0.03809(7) 0.96094(7)
H1 H 0.6118(8) 0.1699(2) 0.95233(19)
O1 O 0.7379(4) 0.10705(10) 1.00821(9)
O2 O 0.9232(4) 0.02877(10) 0.86429(10)
C1B C 1.0945(3) -0.03809(7) 1.03906(7)
H1B H 1.3882(8) -0.1699(2) 1.04767(19)
O1B O 1.2621(4) -0.10705(10) 0.99179(9)
O2B O 1.0768(4) -0.02877(10) 1.13571(10)
C2 C 0.4788(3) 0.26376(8) 0.80665(9)
C3 C 0.2183(4) 0.42868(9) 0.83191(11)
C4 C 0.6649(5) 0.20792(10) 0.63104(11)
H2 H 0.0922(17) 0.4839(3) 0.7824(4)
H3 H 0.4124(13) 0.4635(4) 0.8819(5)
H4 H 0.0428(12) 0.3976(3) 0.8842(3)
H5 H 0.8204(12) 0.1466(3) 0.6058(3)
H6 H 0.7984(12) 0.2780(3) 0.6166(3)
H7 H 0.4301(13) 0.2090(4) 0.5817(3)
H8 H 0.7212(8) 0.13223(18) 0.7833(2)
H9 H 0.3827(8) 0.3695(2) 0.6872(2)
O3 O 0.4628(5) 0.24820(9) 0.90689(10)
N1 N 0.3527(3) 0.35076(6) 0.76453(7)
N2 N 0.6165(3) 0.19456(6) 0.74426(6)
loop_
_geom_bond_atom_site_label_1
_geom_bond_atom_site_label_2
_geom_bond_site_symmetry_1
_geom_bond_site_symmetry_2
C1 O1 1_555 1_555
H1 O1 1_555 1_555
O2 C1 1_555 1_555
C2 O3 1_555 1_555
C3 H2 1_555 1_555
C4 H5 1_555 1_555
H3 C3 1_555 1_555
H4 C3 1_555 1_555
H6 C4 1_555 1_555
H7 C4 1_555 1_555
H8 N2 1_555 1_555
H9 N1 1_555 1_555
N1 C2 1_555 1_555
N2 C2 1_555 1_555
C1B C1 1_555 1_555
H1B O1B 1_555 1_555
O1B C1B 1_555 1_555
O2B C1B 1_555 1_555
C3 N1 1_555 1_555
C4 N2 1_555 1_555

#END
