
#######################################################################
#
#                 Cambridge Crystallographic Data Centre
#                                CCDC 
#
#######################################################################
#
# If this CIF has been generated from an entry in the Cambridge 
# Structural Database, then it will include bibliographic, chemical, 
# crystal, experimental, refinement or atomic coordinate data resulting 
# from the CCDC's data processing and validation procedures.
#
#######################################################################

data_KIDYEC
_chemical_formula_moiety         'C16 H18 N4 O2,2(H2 O1)'
_chemical_name_systematic        "N,N'-bis(2-Pyridyl)adipoamide dihydrate"
_symmetry_cell_setting           monoclinic
_symmetry_space_group_name_H-M   'P 21/c'
_symmetry_Int_Tables_number      14
_space_group_name_Hall           '-P 2ybc'
loop_
_symmetry_equiv_pos_site_id
_symmetry_equiv_pos_as_xyz
1 x,y,z
2 -x,1/2+y,1/2-z
3 -x,-y,-z
4 x,1/2-y,1/2+z
_cell_length_a                   10.909(2)
_cell_length_b                   5.2417(12)
_cell_length_c                   14.816(3)
_cell_angle_alpha                90
_cell_angle_beta                 99.742(17)
_cell_angle_gamma                90
_cell_volume                     834.987
_exptl_crystal_colour            colorless
_exptl_crystal_description       plate
_cell_formula_units_Z            2
loop_
_atom_site_label
_atom_site_type_symbol
_atom_site_fract_x
_atom_site_fract_y
_atom_site_fract_z
O1 O 0.77109(13) 0.0529(3) 0.89144(10)
N1 N 0.40936(14) 0.2770(3) 0.90886(11)
N2 N 0.62059(14) 0.2601(3) 0.95202(11)
C1 C 0.3038(2) 0.1871(5) 0.86012(16)
C2 C 0.2956(2) -0.0290(5) 0.80811(15)
C3 C 0.4022(2) -0.1682(4) 0.80818(13)
C4 C 0.51301(19) -0.0812(4) 0.85645(13)
C5 C 0.51278(17) 0.1457(4) 0.90439(12)
C6 C 0.74080(17) 0.2173(4) 0.94226(13)
C7 C 0.8319(2) 0.3928(6) 0.99918(18)
C8 C 0.95700(19) 0.4093(5) 0.97044(16)
H3 H 0.6108(19) 0.390(4) 0.9860(15)
H4 H 0.233(3) 0.288(6) 0.8618(18)
H5 H 0.222(2) -0.076(5) 0.7764(16)
H6 H 0.400(2) -0.325(5) 0.7753(15)
H7 H 0.589(2) -0.177(4) 0.8593(14)
H8 H 0.796(3) 0.574(7) 0.994(2)
H9 H 0.839(3) 0.338(5) 1.0625(19)
H10 H 0.992(3) 0.249(6) 0.9727(17)
H11 H 0.940(3) 0.460(5) 0.9062(19)
O1B O 1.22891(13) 0.9471(3) 1.10856(10)
N1B N 1.59064(14) 0.7230(3) 1.09114(11)
N2B N 1.37941(14) 0.7399(3) 1.04798(11)
C1B C 1.6962(2) 0.8129(5) 1.13988(16)
C2B C 1.7044(2) 1.0290(5) 1.19189(15)
C3B C 1.5978(2) 1.1682(4) 1.19182(13)
C4B C 1.48699(19) 1.0812(4) 1.14355(13)
C5B C 1.48722(17) 0.8543(4) 1.09561(12)
C6B C 1.25920(17) 0.7827(4) 1.05774(13)
C7B C 1.1681(2) 0.6072(6) 1.00082(18)
C8B C 1.04300(19) 0.5907(5) 1.02956(16)
H3B H 1.3892(19) 0.610(4) 1.0140(15)
H4B H 1.767(3) 0.712(6) 1.1382(18)
H5B H 1.778(2) 1.076(5) 1.2236(16)
H6B H 1.600(2) 1.325(5) 1.2247(15)
H7B H 1.411(2) 1.177(4) 1.1407(14)
H8B H 1.204(3) 0.426(7) 1.006(2)
H9B H 1.161(3) 0.662(5) 0.9375(19)
H10B H 1.008(3) 0.751(6) 1.0273(17)
H11B H 1.060(3) 0.540(5) 1.0938(19)
O2 O 0.96130(18) -0.0437(4) 0.77696(15)
H1 H 0.988(4) 0.110(8) 0.760(2)
H2 H 0.913(3) -0.027(6) 0.812(2)
loop_
_geom_bond_atom_site_label_1
_geom_bond_atom_site_label_2
_geom_bond_site_symmetry_1
_geom_bond_site_symmetry_2
O1 C6 1_555 1_555
O2 H1 1_555 1_555
N1 C1 1_555 1_555
N2 C5 1_555 1_555
C1 C2 1_555 1_555
C2 C3 1_555 1_555
C3 C4 1_555 1_555
C4 C5 1_555 1_555
C5 N1 1_555 1_555
C6 N2 1_555 1_555
C7 C6 1_555 1_555
C8 C7 1_555 1_555
H2 O2 1_555 1_555
H3 N2 1_555 1_555
H4 C1 1_555 1_555
H5 C2 1_555 1_555
H6 C3 1_555 1_555
H7 C4 1_555 1_555
H8 C7 1_555 1_555
H9 C7 1_555 1_555
H10 C8 1_555 1_555
H11 C8 1_555 1_555
O1B C6B 1_555 1_555
N1B C1B 1_555 1_555
N2B C5B 1_555 1_555
C1B C2B 1_555 1_555
C2B C3B 1_555 1_555
C3B C4B 1_555 1_555
C4B C5B 1_555 1_555
C5B N1B 1_555 1_555
C6B N2B 1_555 1_555
C7B C6B 1_555 1_555
C8B C8 1_555 1_555
H3B N2B 1_555 1_555
H4B C1B 1_555 1_555
H5B C2B 1_555 1_555
H6B C3B 1_555 1_555
H7B C4B 1_555 1_555
H8B C7B 1_555 1_555
H9B C7B 1_555 1_555
H10B C8B 1_555 1_555
H11B C8B 1_555 1_555
C7B C8B 1_555 1_555

#END
