
#######################################################################
#
#                 Cambridge Crystallographic Data Centre
#                                CCDC 
#
#######################################################################
#
# If this CIF has been generated from an entry in the Cambridge 
# Structural Database, then it will include bibliographic, chemical, 
# crystal, experimental, refinement or atomic coordinate data resulting 
# from the CCDC's data processing and validation procedures.
#
#######################################################################

data_KIDYUT
_chemical_formula_moiety         'C14 H9 I2 N1'
_chemical_name_systematic        
3'-Iodo-5'-(iodomethyl)biphenyl-4-carbonitrile
_symmetry_cell_setting           triclinic
_symmetry_space_group_name_H-M   'P -1'
_symmetry_Int_Tables_number      2
_space_group_name_Hall           '-P 1'
loop_
_symmetry_equiv_pos_site_id
_symmetry_equiv_pos_as_xyz
1 x,y,z
2 -x,-y,-z
_cell_length_a                   4.4223(10)
_cell_length_b                   8.4692(18)
_cell_length_c                   18.666(4)
_cell_angle_alpha                93.844(2)
_cell_angle_beta                 93.254(2)
_cell_angle_gamma                91.112(2)
_cell_volume                     696.218
_exptl_crystal_colour            yellow
_exptl_crystal_description       block
_cell_formula_units_Z            2
loop_
_atom_site_label
_atom_site_type_symbol
_atom_site_fract_x
_atom_site_fract_y
_atom_site_fract_z
C1 C 0.630(2) 0.9062(11) 0.2505(5)
C2 C 0.561(2) 0.8212(11) 0.1849(5)
H1 H 0.4365 0.7309 0.1829
C3 C 0.675(2) 0.8709(10) 0.1232(5)
C4 C 0.872(2) 1.0015(11) 0.1241(5)
H2 H 0.9550 1.0307 0.0822
C5 C 0.939(2) 1.0863(11) 0.1888(5)
C6 C 0.819(2) 1.0419(12) 0.2513(5)
H3 H 0.8640 1.1021 0.2942
C7 C 1.152(2) 1.2295(14) 0.1906(7)
H4 H 1.3150 1.2058 0.1592
H5 H 1.2412 1.2503 0.2391
C8 C 0.507(2) 0.8534(12) 0.3171(5)
C9 C 0.410(2) 0.9663(12) 0.3694(5)
H6 H 0.4283 1.0738 0.3626
C10 C 0.290(3) 0.9171(14) 0.4302(6)
H7 H 0.2225 0.9923 0.4638
C11 C 0.268(3) 0.7649(14) 0.4426(6)
C12 C 0.360(3) 0.6488(15) 0.3923(7)
H8 H 0.3414 0.5420 0.4004
C13 C 0.480(3) 0.6957(11) 0.3307(6)
H9 H 0.5454 0.6192 0.2973
C14 C 0.148(4) 0.7151(16) 0.5084(7)
I1 I 0.5406(2) 0.74680(9) 0.02432(4)
I2 I 0.93347(17) 1.43505(8) 0.15815(5)
N1 N 0.047(4) 0.6903(16) 0.5622(7)
loop_
_geom_bond_atom_site_label_1
_geom_bond_atom_site_label_2
_geom_bond_site_symmetry_1
_geom_bond_site_symmetry_2
C1 C2 1_555 1_555
C2 H1 1_555 1_555
C3 C2 1_555 1_555
C4 C3 1_555 1_555
H2 C4 1_555 1_555
C5 C4 1_555 1_555
C6 C1 1_555 1_555
H3 C6 1_555 1_555
C7 C5 1_555 1_555
H4 C7 1_555 1_555
H5 C7 1_555 1_555
C8 C1 1_555 1_555
C9 C8 1_555 1_555
H6 C9 1_555 1_555
C10 C9 1_555 1_555
H7 C10 1_555 1_555
C11 C10 1_555 1_555
C12 C11 1_555 1_555
H8 C12 1_555 1_555
C13 C8 1_555 1_555
H9 C13 1_555 1_555
C14 C11 1_555 1_555
I1 C3 1_555 1_555
I2 C7 1_555 1_555
N1 C14 1_555 1_555
C5 C6 1_555 1_555
C12 C13 1_555 1_555

#END
