
#######################################################################
#
#                 Cambridge Crystallographic Data Centre
#                                CCDC 
#
#######################################################################
#
# If this CIF has been generated from an entry in the Cambridge 
# Structural Database, then it will include bibliographic, chemical, 
# crystal, experimental, refinement or atomic coordinate data resulting 
# from the CCDC's data processing and validation procedures.
#
#######################################################################

data_KIFBIN
_chemical_formula_moiety         'C27 H22 B1 Br2 N1'
_chemical_name_systematic        
3,8-dibromo-6-phenyl-5-(2,4,6-trimethylphenyl)-5,6-dihydrodibenzo[c,e][1,2]azaborinine
_symmetry_cell_setting           monoclinic
_symmetry_space_group_name_H-M   'P 21'
_symmetry_Int_Tables_number      4
_space_group_name_Hall           'P 2yb'
loop_
_symmetry_equiv_pos_site_id
_symmetry_equiv_pos_as_xyz
1 x,y,z
2 -x,1/2+y,-z
_cell_length_a                   11.2690(4)
_cell_length_b                   7.3358(3)
_cell_length_c                   14.2605(5)
_cell_angle_alpha                90
_cell_angle_beta                 101.4180(10)
_cell_angle_gamma                90
_cell_volume                     1155.54
_exptl_crystal_colour            colorless
_exptl_crystal_description       block
_cell_formula_units_Z            2
loop_
_atom_site_label
_atom_site_type_symbol
_atom_site_fract_x
_atom_site_fract_y
_atom_site_fract_z
N1 N 0.7105(3) 0.6376(4) 0.7167(2)
B1 B 0.6023(4) 0.6673(6) 0.7506(3)
Br1 Br 0.96526(4) 0.43484(6) 0.46153(3)
Br2 Br 0.14321(3) 0.44919(8) 0.74676(3)
C1 C 0.4926(3) 0.5477(5) 0.7049(3)
C2 C 0.3845(3) 0.5498(5) 0.7402(3)
H1 H 0.3767 0.6297 0.7911
C3 C 0.2897(3) 0.4366(8) 0.7014(2)
C4 C 0.2993(4) 0.3155(6) 0.6283(3)
H2 H 0.2337 0.2373 0.6025
C5 C 0.4049(4) 0.3101(6) 0.5937(3)
H3 H 0.4121 0.2260 0.5445
C6 C 0.5024(3) 0.4268(7) 0.6297(2)
C7 C 0.6135(3) 0.4274(7) 0.5909(2)
C8 C 0.6222(4) 0.3314(6) 0.5074(3)
H4 H 0.5539 0.2637 0.4759
C9 C 0.8223(4) 0.5262(5) 0.5982(3)
H5 H 0.8921 0.5909 0.6292
C10 C 0.7250(4) 0.3308(6) 0.4690(3)
H6 H 0.7278 0.2649 0.4121
C11 C 0.8246(3) 0.4293(7) 0.5158(2)
C12 C 0.7164(3) 0.5289(5) 0.6361(2)
C13 C 0.5065(3) 0.9559(7) 0.8046(3)
H7 H 0.4542 0.9544 0.7435
C14 C 0.5931(3) 0.8175(5) 0.8279(3)
C15 C 0.6666(4) 0.8245(6) 0.9191(3)
H8 H 0.7265 0.7333 0.9377
C16 C 0.8523(3) 0.8971(5) 0.7363(3)
C17 C 0.7686(4) 1.0000(6) 0.6599(3)
H9 H 0.8089 1.1110 0.6440
H10 H 0.6951 1.0330 0.6830
H11 H 0.7470 0.9235 0.6027
C18 C 0.8993(4) 0.6250(6) 0.8350(3)
C19 C 0.8231(3) 0.7225(5) 0.7636(3)
C20 C 0.8692(4) 0.4333(8) 0.8610(3)
H12 H 0.7901 0.4325 0.8798
H13 H 0.9313 0.3898 0.9144
H14 H 0.8667 0.3531 0.8057
C21 C 0.9628(3) 0.9704(6) 0.7803(3)
H15 H 0.9851 1.0874 0.7611
C22 C 1.0421(4) 0.8775(6) 0.8517(3)
C23 C 1.0074(4) 0.7084(6) 0.8796(3)
H16 H 1.0587 0.6468 0.9307
C24 C 0.6535(3) 0.9624(8) 0.9831(3)
H17 H 0.7040 0.9635 1.0449
C25 C 0.5681(4) 1.0975(6) 0.9580(3)
H18 H 0.5597 1.1916 1.0020
C26 C 0.4948(4) 1.0943(6) 0.8678(3)
H19 H 0.4363 1.1875 0.8494
C27 C 1.1650(4) 0.9548(12) 0.8924(3)
H20 H 1.2033 0.8827 0.9480
H21 H 1.1566 1.0815 0.9119
H22 H 1.2154 0.9506 0.8437
loop_
_geom_bond_atom_site_label_1
_geom_bond_atom_site_label_2
_geom_bond_site_symmetry_1
_geom_bond_site_symmetry_2
N1 B1 1_555 1_555
B1 C1 1_555 1_555
Br1 C11 1_555 1_555
Br2 C3 1_555 1_555
C1 C2 1_555 1_555
C2 H1 1_555 1_555
C3 C2 1_555 1_555
C4 C3 1_555 1_555
H2 C4 1_555 1_555
C5 C4 1_555 1_555
H3 C5 1_555 1_555
C6 C1 1_555 1_555
C7 C6 1_555 1_555
C8 C7 1_555 1_555
H4 C8 1_555 1_555
C9 H5 1_555 1_555
C10 C8 1_555 1_555
H6 C10 1_555 1_555
C11 C9 1_555 1_555
C12 N1 1_555 1_555
C13 H7 1_555 1_555
C14 B1 1_555 1_555
C15 C14 1_555 1_555
H8 C15 1_555 1_555
C16 C17 1_555 1_555
C17 H9 1_555 1_555
H10 C17 1_555 1_555
H11 C17 1_555 1_555
C18 C19 1_555 1_555
C19 N1 1_555 1_555
C20 C18 1_555 1_555
H12 C20 1_555 1_555
H13 C20 1_555 1_555
H14 C20 1_555 1_555
C21 C16 1_555 1_555
H15 C21 1_555 1_555
C22 C21 1_555 1_555
C23 C18 1_555 1_555
H16 C23 1_555 1_555
C24 C15 1_555 1_555
H17 C24 1_555 1_555
C25 C24 1_555 1_555
H18 C25 1_555 1_555
C26 C13 1_555 1_555
H19 C26 1_555 1_555
C27 C22 1_555 1_555
H20 C27 1_555 1_555
H21 C27 1_555 1_555
H22 C27 1_555 1_555
C5 C6 1_555 1_555
C7 C12 1_555 1_555
C9 C12 1_555 1_555
C10 C11 1_555 1_555
C13 C14 1_555 1_555
C16 C19 1_555 1_555
C22 C23 1_555 1_555
C25 C26 1_555 1_555

#END
