
#######################################################################
#
#                 Cambridge Crystallographic Data Centre
#                                CCDC 
#
#######################################################################
#
# If this CIF has been generated from an entry in the Cambridge 
# Structural Database, then it will include bibliographic, chemical, 
# crystal, experimental, refinement or atomic coordinate data resulting 
# from the CCDC's data processing and validation procedures.
#
#######################################################################

data_KIFFIQ
_chemical_formula_moiety         'C17 H18 F3 N1 O2 S1'
_chemical_name_systematic        
4-Methoxy-N-(2,2,2-trifluoro-1-((4-methoxybenzyl)sulfanyl)ethyl)aniline
_symmetry_cell_setting           monoclinic
_symmetry_space_group_name_H-M   'P 21'
_symmetry_Int_Tables_number      4
_space_group_name_Hall           'P 2yb'
loop_
_symmetry_equiv_pos_site_id
_symmetry_equiv_pos_as_xyz
1 x,y,z
2 -x,1/2+y,-z
_cell_length_a                   7.9306(14)
_cell_length_b                   5.5541(10)
_cell_length_c                   19.245(3)
_cell_angle_alpha                90
_cell_angle_beta                 91.883(2)
_cell_angle_gamma                90
_cell_volume                     847.233
_exptl_crystal_description       block
_cell_formula_units_Z            2
loop_
_atom_site_label
_atom_site_type_symbol
_atom_site_fract_x
_atom_site_fract_y
_atom_site_fract_z
C1 C 0.6743(2) -0.0727(4) 0.63222(9)
C2 C 0.5827(2) -0.2078(4) 0.67736(10)
H1 H 0.5242 -0.3432 0.6615
C3 C 0.5779(2) -0.1412(4) 0.74658(10)
H2 H 0.5150 -0.2328 0.7768
C4 C 0.6641(2) 0.0575(3) 0.77183(9)
C5 C 0.7595(2) 0.1882(4) 0.72571(9)
H3 H 0.8214 0.3206 0.7416
C6 C 0.7634(2) 0.1239(3) 0.65664(9)
H4 H 0.8268 0.2141 0.6263
C7 C 0.6059(3) -0.3258(6) 0.53476(12)
H5 H 0.6497 -0.4673 0.5577
H6 H 0.6246 -0.3368 0.4858
H7 H 0.4871 -0.3134 0.5421
C8 C 0.7540(2) 0.3040(4) 0.87432(9)
H8 H 0.7849 0.4208 0.8388
C9 C 0.6546(2) 0.4350(4) 0.92799(10)
C10 C 1.1013(2) 0.4185(5) 0.89674(10)
H9 H 1.0608 0.5681 0.9162
H10 H 1.2076 0.3792 0.9204
C11 C 1.1308(2) 0.4545(4) 0.82072(10)
C12 C 1.2203(2) 0.2853(4) 0.78368(11)
H11 H 1.2672 0.1531 0.8068
C13 C 1.2407(2) 0.3099(4) 0.71349(11)
H12 H 1.3023 0.1961 0.6896
C14 C 1.1700(2) 0.5031(4) 0.67846(10)
C15 C 1.0835(2) 0.6753(4) 0.71402(10)
H13 H 1.0371 0.8076 0.6908
C16 C 1.0662(2) 0.6487(4) 0.78531(10)
H14 H 1.0090 0.7664 0.8096
C17 C 1.1149(3) 0.6936(7) 0.56934(12)
H15 H 0.9949 0.6830 0.5735
H16 H 1.1425 0.6789 0.5213
H17 H 1.1539 0.8463 0.5869
F1 F 0.52127(15) 0.5495(3) 0.89951(7)
F2 F 0.59632(18) 0.2909(3) 0.97627(6)
F3 F 0.74502(16) 0.6046(3) 0.96036(7)
N1 N 0.64805(19) 0.1275(3) 0.84187(8)
H18 H 0.5712 0.0609 0.8658
O1 O 0.68857(19) -0.1204(3) 0.56220(7)
O2 O 1.1938(2) 0.5064(3) 0.60799(8)
S1 S 0.94885(6) 0.17973(11) 0.91308(2)
loop_
_geom_bond_atom_site_label_1
_geom_bond_atom_site_label_2
_geom_bond_site_symmetry_1
_geom_bond_site_symmetry_2
C1 C2 1_555 1_555
C2 H1 1_555 1_555
C3 C2 1_555 1_555
H2 C3 1_555 1_555
C4 C3 1_555 1_555
C5 C4 1_555 1_555
H3 C5 1_555 1_555
C6 C1 1_555 1_555
H4 C6 1_555 1_555
C7 H5 1_555 1_555
H6 C7 1_555 1_555
H7 C7 1_555 1_555
C8 H8 1_555 1_555
C9 C8 1_555 1_555
C10 H9 1_555 1_555
H10 C10 1_555 1_555
C11 C10 1_555 1_555
C12 C11 1_555 1_555
H11 C12 1_555 1_555
C13 C12 1_555 1_555
H12 C13 1_555 1_555
C14 C13 1_555 1_555
C15 C14 1_555 1_555
H13 C15 1_555 1_555
C16 C11 1_555 1_555
H14 C16 1_555 1_555
C17 H15 1_555 1_555
H16 C17 1_555 1_555
H17 C17 1_555 1_555
F1 C9 1_555 1_555
F2 C9 1_555 1_555
F3 C9 1_555 1_555
N1 C4 1_555 1_555
H18 N1 1_555 1_555
O1 C1 1_555 1_555
O2 C14 1_555 1_555
S1 C8 1_555 1_555
C5 C6 1_555 1_555
C7 O1 1_555 1_555
C8 N1 1_555 1_555
C10 S1 1_555 1_555
C15 C16 1_555 1_555
C17 O2 1_555 1_555

#END
