
#######################################################################
#
#                 Cambridge Crystallographic Data Centre
#                                CCDC 
#
#######################################################################
#
# If this CIF has been generated from an entry in the Cambridge 
# Structural Database, then it will include bibliographic, chemical, 
# crystal, experimental, refinement or atomic coordinate data resulting 
# from the CCDC's data processing and validation procedures.
#
#######################################################################

data_KIFFIR
_chemical_formula_moiety         'C17 H16 Br1 N1 O2'
_chemical_name_systematic        
3-benzyl-2-(2-bromoethyl)-3-hydroxyisoindolin-1-one
_symmetry_cell_setting           monoclinic
_symmetry_space_group_name_H-M   'C 2/c'
_symmetry_Int_Tables_number      15
_space_group_name_Hall           '-C 2yn'
loop_
_symmetry_equiv_pos_site_id
_symmetry_equiv_pos_as_xyz
1 x,y,z
2 -x,y,1/2-z
3 1/2+x,1/2+y,z
4 1/2-x,1/2+y,1/2-z
5 -x,-y,-z
6 x,-y,1/2+z
7 1/2-x,1/2-y,-z
8 1/2+x,1/2-y,1/2+z
_cell_length_a                   22.295(5)
_cell_length_b                   9.132(2)
_cell_length_c                   16.300(4)
_cell_angle_alpha                90
_cell_angle_beta                 104.525(4)
_cell_angle_gamma                90
_cell_volume                     3212.58
_exptl_crystal_colour            colorless
_exptl_crystal_description       block
_cell_formula_units_Z            8
loop_
_atom_site_label
_atom_site_type_symbol
_atom_site_fract_x
_atom_site_fract_y
_atom_site_fract_z
Br1 Br 0.06953(3) 0.62293(9) 0.04010(5)
O1 O 0.28585(18) 0.8194(3) 0.10430(19)
H1 H 0.2685 0.8632 0.1358
O2 O 0.2356(2) 0.4771(5) 0.2717(3)
N1 N 0.2572(2) 0.5970(4) 0.1612(2)
C1 C 0.2708(3) 0.5540(6) 0.2414(3)
C2 C 0.3069(2) 0.6836(5) 0.1400(3)
C3 C 0.3520(2) 0.6939(5) 0.2246(3)
C4 C 0.3313(3) 0.6150(5) 0.2848(3)
C5 C 0.4077(3) 0.7690(7) 0.2497(4)
H2 H 0.4233 0.8203 0.2103
C6 C 0.4393(3) 0.7665(8) 0.3332(4)
H3 H 0.4763 0.8181 0.3504
C7 C 0.4174(4) 0.6882(8) 0.3933(4)
H4 H 0.4391 0.6892 0.4500
C8 C 0.3642(4) 0.6109(7) 0.3681(4)
H5 H 0.3500 0.5551 0.4071
C9 C 0.1980(3) 0.5682(6) 0.1015(3)
H6 H 0.1869 0.4662 0.1054
H7 H 0.2016 0.5863 0.0442
C10 C 0.1478(3) 0.6651(8) 0.1198(4)
H8 H 0.1585 0.7672 0.1151
H9 H 0.1442 0.6478 0.1771
C11 C 0.3331(3) 0.6046(5) 0.0723(3)
H10 H 0.2998 0.5926 0.0215
H11 H 0.3641 0.6673 0.0579
C12 C 0.3619(3) 0.4569(6) 0.0977(3)
C13 C 0.4255(4) 0.4421(9) 0.1248(4)
H12 H 0.4504 0.5247 0.1287
C14 C 0.4525(6) 0.3071(16) 0.1462(6)
H13 H 0.4954 0.2990 0.1642
C15 C 0.4174(9) 0.1890(14) 0.1409(8)
H14 H 0.4360 0.0985 0.1561
C16 C 0.3534(8) 0.1973(9) 0.1131(7)
H15 H 0.3292 0.1134 0.1092
C17 C 0.3258(5) 0.3352(7) 0.0910(5)
H16 H 0.2830 0.3430 0.0719
loop_
_geom_bond_atom_site_label_1
_geom_bond_atom_site_label_2
_geom_bond_site_symmetry_1
_geom_bond_site_symmetry_2
Br1 C10 1_555 1_555
O1 H1 1_555 1_555
O2 C1 1_555 1_555
N1 C1 1_555 1_555
C1 C4 1_555 1_555
C2 O1 1_555 1_555
C3 C2 1_555 1_555
C4 C3 1_555 1_555
C5 C3 1_555 1_555
H2 C5 1_555 1_555
C6 C5 1_555 1_555
H3 C6 1_555 1_555
C7 C6 1_555 1_555
H4 C7 1_555 1_555
C8 C4 1_555 1_555
H5 C8 1_555 1_555
C9 N1 1_555 1_555
H6 C9 1_555 1_555
H7 C9 1_555 1_555
C10 C9 1_555 1_555
H8 C10 1_555 1_555
H9 C10 1_555 1_555
C11 C2 1_555 1_555
H10 C11 1_555 1_555
H11 C11 1_555 1_555
C12 C11 1_555 1_555
C13 C12 1_555 1_555
H12 C13 1_555 1_555
C14 C13 1_555 1_555
H13 C14 1_555 1_555
C15 C14 1_555 1_555
H14 C15 1_555 1_555
C16 C15 1_555 1_555
H15 C16 1_555 1_555
C17 C12 1_555 1_555
H16 C17 1_555 1_555
N1 C2 1_555 1_555
C7 C8 1_555 1_555
C16 C17 1_555 1_555

#END
