
#######################################################################
#
#                 Cambridge Crystallographic Data Centre
#                                CCDC 
#
#######################################################################
#
# If this CIF has been generated from an entry in the Cambridge 
# Structural Database, then it will include bibliographic, chemical, 
# crystal, experimental, refinement or atomic coordinate data resulting 
# from the CCDC's data processing and validation procedures.
#
#######################################################################

data_KIFQAU
_chemical_formula_moiety         'C72 H76 N2 O4 S2'
_chemical_name_systematic        
"N,N'-[(4,4,9,9-tetrabutyl-4,9-dihydro-s-indaceno[1,2-b:5,6-b']bisthiophene 2,7-diyl)bis(4,1-phenylene)]bis[4-methoxy-N-(4-methoxyphenyl)aniline]"
_symmetry_cell_setting           triclinic
_symmetry_space_group_name_H-M   'P -1'
_symmetry_Int_Tables_number      2
_space_group_name_Hall           '-P 1'
loop_
_symmetry_equiv_pos_site_id
_symmetry_equiv_pos_as_xyz
1 x,y,z
2 -x,-y,-z
_cell_length_a                   9.3698(7)
_cell_length_b                   10.9783(8)
_cell_length_c                   15.2591(10)
_cell_angle_alpha                87.380(3)
_cell_angle_beta                 76.302(3)
_cell_angle_gamma                82.659(4)
_cell_volume                     1512.28
_exptl_crystal_colour            yellow
_exptl_crystal_description       block
_cell_formula_units_Z            1
loop_
_atom_site_label
_atom_site_type_symbol
_atom_site_fract_x
_atom_site_fract_y
_atom_site_fract_z
S1 S 0.34348(11) 0.28365(8) 0.19819(6)
O1 O 0.1648(4) 0.3975(3) 0.9433(2)
O2 O 0.1882(5) 1.0844(4) 0.5143(3)
N1 N 0.1957(4) 0.5810(3) 0.5934(2)
C1 C 0.2098(7) 0.4631(5) 1.0070(3)
H1 H 0.3173 0.4637 0.9895
H2 H 0.1826 0.4236 1.0666
H3 H 0.1608 0.5477 1.0095
C2 C 0.1794(5) 0.4482(4) 0.8578(3)
C3 C 0.2583(5) 0.5457(4) 0.8261(3)
H4 H 0.3066 0.5830 0.8641
C4 C 0.2664(5) 0.5891(4) 0.7374(3)
H5 H 0.3227 0.6546 0.7147
C5 C 0.1925(5) 0.5368(3) 0.6830(3)
C6 C 0.1137(5) 0.4393(3) 0.7164(3)
H6 H 0.0631 0.4027 0.6793
C7 C 0.1080(5) 0.3948(4) 0.8032(3)
H7 H 0.0548 0.3273 0.8252
C8 C 0.189(2) 0.7115(9) 0.5698(13)
C9 C 0.0825(8) 0.7931(6) 0.6254(4)
H8 H 0.0132 0.7621 0.6746
C10 C 0.0769(10) 0.9181(7) 0.6097(5)
H9 H 0.0046 0.9729 0.6478
C11 C 0.1796(7) 0.9638(7) 0.5365(4)
C12 C 0.2786(7) 0.8814(5) 0.4793(4)
H10 H 0.3447 0.9112 0.4280
C13 C 0.2826(9) 0.7568(7) 0.4957(5)
H11 H 0.3509 0.7016 0.4554
C14 C 0.2412(4) 0.4981(3) 0.5214(2)
C15 C 0.1789(4) 0.5129(3) 0.4470(2)
H12 H 0.1052 0.5800 0.4443
C16 C 0.2234(4) 0.4307(3) 0.3764(2)
H13 H 0.1793 0.4425 0.3262
C17 C 0.3311(4) 0.3313(3) 0.3778(2)
C18 C 0.3927(5) 0.3180(3) 0.4524(3)
H14 H 0.4676 0.2517 0.4547
C19 C 0.3486(5) 0.3984(4) 0.5234(3)
H15 H 0.3917 0.3857 0.5740
C20 C 0.3787(4) 0.2437(3) 0.3040(2)
C21 C 0.4526(4) 0.1279(3) 0.3038(2)
H16 H 0.4822 0.0897 0.3548
C22 C 0.4803(4) 0.0710(3) 0.2184(2)
C23 C 0.4262(4) 0.1436(3) 0.1557(2)
C24 C 0.4576(4) 0.0825(3) 0.0693(2)
C25 C 0.4230(4) 0.1171(3) -0.0128(2)
H17 H 0.3714 0.1955 -0.0209
C26 C 0.4662(4) 0.0338(3) -0.0822(2)
C27 C 0.4430(4) 0.0506(3) -0.1780(2)
C28 C 0.2771(4) 0.0657(4) -0.1773(3)
H18 H 0.2281 0.1389 -0.1417
H19 H 0.2660 0.0811 -0.2399
C29 C 0.1977(5) -0.0437(4) -0.1387(3)
H20 H 0.2147 -0.0632 -0.0777
H21 H 0.2411 -0.1156 -0.1771
C30 C 0.0320(5) -0.0231(5) -0.1321(3)
H22 H -0.0138 0.0423 -0.0881
H23 H 0.0141 0.0053 -0.1916
C31 C -0.0403(6) -0.1390(6) -0.1032(4)
H24 H 0.0086 -0.2052 -0.1448
H25 H -0.1453 -0.1237 -0.1043
H26 H -0.0311 -0.1628 -0.0420
C32 C 0.5165(5) 0.1620(3) -0.2246(3)
H27 H 0.4986 0.1721 -0.2861
H28 H 0.4685 0.2368 -0.1906
C33 C 0.6825(5) 0.1517(4) -0.2318(3)
H29 H 0.7036 0.1131 -0.1755
H30 H 0.7338 0.0965 -0.2821
C34 C 0.7459(6) 0.2732(4) -0.2472(3)
H31 H 0.8553 0.2573 -0.2628
H32 H 0.7147 0.3168 -0.2991
C35 C 0.6972(6) 0.3543(4) -0.1662(4)
H33 H 0.7486 0.4278 -0.1775
H34 H 0.7210 0.3094 -0.1135
H35 H 0.5901 0.3786 -0.1547
C36 C 0.0862(17) 1.1720(10) 0.5702(10)
H36 H 0.1043 1.2550 0.5479
H37 H 0.0989 1.1621 0.6322
H38 H -0.0150 1.1591 0.5692
S1A S 0.65652(11) -0.28365(8) -0.19819(6)
O1A O 0.8352(4) -0.3975(3) -0.9433(2)
O2A O 0.8118(5) -1.0844(4) -0.5143(3)
N1A N 0.8043(4) -0.5810(3) -0.5934(2)
C1A C 0.7902(7) -0.4631(5) -1.0070(3)
H1A H 0.6827 -0.4637 -0.9895
H2A H 0.8174 -0.4236 -1.0666
H3A H 0.8392 -0.5477 -1.0095
C2A C 0.8206(5) -0.4482(4) -0.8578(3)
C3A C 0.7417(5) -0.5457(4) -0.8261(3)
H4A H 0.6934 -0.5830 -0.8641
C4A C 0.7336(5) -0.5891(4) -0.7374(3)
H5A H 0.6773 -0.6546 -0.7147
C5A C 0.8075(5) -0.5368(3) -0.6830(3)
C6A C 0.8863(5) -0.4393(3) -0.7164(3)
H6A H 0.9369 -0.4027 -0.6793
C7A C 0.8920(5) -0.3948(4) -0.8032(3)
H7A H 0.9452 -0.3273 -0.8252
C8A C 0.811(2) -0.7115(9) -0.5698(13)
C9A C 0.9175(8) -0.7931(6) -0.6254(4)
H8A H 0.9868 -0.7621 -0.6746
C10A C 0.9231(10) -0.9181(7) -0.6097(5)
H9A H 0.9954 -0.9729 -0.6478
C11A C 0.8204(7) -0.9638(7) -0.5365(4)
C12A C 0.7214(7) -0.8814(5) -0.4793(4)
H10A H 0.6553 -0.9112 -0.4280
C13A C 0.7174(9) -0.7568(7) -0.4957(5)
H11A H 0.6491 -0.7016 -0.4554
C14A C 0.7588(4) -0.4981(3) -0.5214(2)
C15A C 0.8211(4) -0.5129(3) -0.4470(2)
H12A H 0.8948 -0.5800 -0.4443
C16A C 0.7766(4) -0.4307(3) -0.3764(2)
H13A H 0.8207 -0.4425 -0.3262
C17A C 0.6689(4) -0.3313(3) -0.3778(2)
C18A C 0.6073(5) -0.3180(3) -0.4524(3)
H14A H 0.5324 -0.2517 -0.4547
C19A C 0.6514(5) -0.3984(4) -0.5234(3)
H15A H 0.6083 -0.3857 -0.5740
C20A C 0.6213(4) -0.2437(3) -0.3040(2)
C21A C 0.5474(4) -0.1279(3) -0.3038(2)
H16A H 0.5178 -0.0897 -0.3548
C22A C 0.5197(4) -0.0710(3) -0.2184(2)
C23A C 0.5738(4) -0.1436(3) -0.1557(2)
C24A C 0.5424(4) -0.0825(3) -0.0693(2)
C25A C 0.5770(4) -0.1171(3) 0.0128(2)
H17A H 0.6286 -0.1955 0.0209
C26A C 0.5338(4) -0.0338(3) 0.0822(2)
C27A C 0.5570(4) -0.0506(3) 0.1780(2)
C28A C 0.7229(4) -0.0657(4) 0.1773(3)
H18A H 0.7719 -0.1389 0.1417
H19A H 0.7340 -0.0811 0.2399
C29A C 0.8023(5) 0.0437(4) 0.1387(3)
H20A H 0.7853 0.0632 0.0777
H21A H 0.7589 0.1156 0.1771
C30A C 0.9680(5) 0.0231(5) 0.1321(3)
H22A H 1.0138 -0.0423 0.0881
H23A H 0.9859 -0.0053 0.1916
C31A C 1.0403(6) 0.1390(6) 0.1032(4)
H24A H 0.9914 0.2052 0.1448
H25A H 1.1453 0.1237 0.1043
H26A H 1.0311 0.1628 0.0420
C32A C 0.4835(5) -0.1620(3) 0.2246(3)
H27A H 0.5014 -0.1721 0.2861
H28A H 0.5315 -0.2368 0.1906
C33A C 0.3175(5) -0.1517(4) 0.2318(3)
H29A H 0.2964 -0.1131 0.1755
H30A H 0.2662 -0.0965 0.2821
C34A C 0.2541(6) -0.2732(4) 0.2472(3)
H31A H 0.1447 -0.2573 0.2628
H32A H 0.2853 -0.3168 0.2991
C35A C 0.3028(6) -0.3543(4) 0.1662(4)
H33A H 0.2514 -0.4278 0.1775
H34A H 0.2790 -0.3094 0.1135
H35A H 0.4099 -0.3786 0.1547
C36A C 0.9138(17) -1.1720(10) -0.5702(10)
H36A H 0.8957 -1.2550 -0.5479
H37A H 0.9011 -1.1621 -0.6322
H38A H 1.0150 -1.1591 -0.5692
C37? C 0.0380(19) 0.7603(15) 0.6614(11)
H39? H -0.0105 0.7104 0.7089
C38? C 0.0001(16) 0.8835(11) 0.6608(9)
H40? H -0.0815 0.9205 0.7048
C39? C 0.084(3) 0.9569(17) 0.5935(15)
C40? C 0.1882(19) 0.9043(16) 0.5251(11)
H41? H 0.2358 0.9541 0.4773
C41? C 0.228(2) 0.7755(19) 0.5236(13)
H42? H 0.3061 0.7393 0.4771
O3? O 0.0415(11) 1.0803(8) 0.6041(7)
C42? C 0.154(4) 0.7057(14) 0.588(2)
C43? C 0.131(5) 1.156(4) 0.545(3)
H43? H 0.1234 1.1432 0.4830
H44? H 0.2339 1.1351 0.5491
H45? H 0.0979 1.2419 0.5608
loop_
_geom_bond_atom_site_label_1
_geom_bond_atom_site_label_2
_geom_bond_site_symmetry_1
_geom_bond_site_symmetry_2
S1 C20 1_555 1_555
O1 C1 1_555 1_555
O2 C11 1_555 1_555
N1 C5 1_555 1_555
C1 H1 1_555 1_555
H2 C1 1_555 1_555
H3 C1 1_555 1_555
C2 O1 1_555 1_555
C3 C2 1_555 1_555
H4 C3 1_555 1_555
C4 C3 1_555 1_555
H5 C4 1_555 1_555
C5 C4 1_555 1_555
C6 C5 1_555 1_555
H6 C6 1_555 1_555
C7 C2 1_555 1_555
H7 C7 1_555 1_555
C8 N1 1_555 1_555
C9 C8 1_555 1_555
H8 C9 1_555 1_555
C10 C9 1_555 1_555
H9 C10 1_555 1_555
C11 C10 1_555 1_555
C12 C11 1_555 1_555
H10 C12 1_555 1_555
C13 C8 1_555 1_555
H11 C13 1_555 1_555
C14 N1 1_555 1_555
C15 C14 1_555 1_555
H12 C15 1_555 1_555
C16 C15 1_555 1_555
H13 C16 1_555 1_555
C17 C16 1_555 1_555
C18 C17 1_555 1_555
H14 C18 1_555 1_555
C19 C14 1_555 1_555
H15 C19 1_555 1_555
C20 C17 1_555 1_555
C21 C20 1_555 1_555
H16 C21 1_555 1_555
C22 C21 1_555 1_555
C23 S1 1_555 1_555
C24 C23 1_555 1_555
C25 C24 1_555 1_555
H17 C25 1_555 1_555
C26 C25 1_555 1_555
C27 C26 1_555 1_555
C28 C27 1_555 1_555
H18 C28 1_555 1_555
H19 C28 1_555 1_555
C29 C28 1_555 1_555
H20 C29 1_555 1_555
H21 C29 1_555 1_555
C30 C29 1_555 1_555
H22 C30 1_555 1_555
H23 C30 1_555 1_555
C31 C30 1_555 1_555
H24 C31 1_555 1_555
H25 C31 1_555 1_555
H26 C31 1_555 1_555
C32 C27 1_555 1_555
H27 C32 1_555 1_555
H28 C32 1_555 1_555
C33 C32 1_555 1_555
H29 C33 1_555 1_555
H30 C33 1_555 1_555
C34 C33 1_555 1_555
H31 C34 1_555 1_555
H32 C34 1_555 1_555
C35 C34 1_555 1_555
H33 C35 1_555 1_555
H34 C35 1_555 1_555
H35 C35 1_555 1_555
C36 O2 1_555 1_555
H36 C36 1_555 1_555
H37 C36 1_555 1_555
H38 C36 1_555 1_555
S1A C20A 1_555 1_555
O1A C1A 1_555 1_555
O2A C11A 1_555 1_555
N1A C5A 1_555 1_555
C1A H1A 1_555 1_555
H2A C1A 1_555 1_555
H3A C1A 1_555 1_555
C2A O1A 1_555 1_555
C3A C2A 1_555 1_555
H4A C3A 1_555 1_555
C4A C3A 1_555 1_555
H5A C4A 1_555 1_555
C5A C4A 1_555 1_555
C6A C5A 1_555 1_555
H6A C6A 1_555 1_555
C7A C2A 1_555 1_555
H7A C7A 1_555 1_555
C8A N1A 1_555 1_555
C9A C8A 1_555 1_555
H8A C9A 1_555 1_555
C10A C9A 1_555 1_555
H9A C10A 1_555 1_555
C11A C10A 1_555 1_555
C12A C11A 1_555 1_555
H10A C12A 1_555 1_555
C13A C8A 1_555 1_555
H11A C13A 1_555 1_555
C14A N1A 1_555 1_555
C15A C14A 1_555 1_555
H12A C15A 1_555 1_555
C16A C15A 1_555 1_555
H13A C16A 1_555 1_555
C17A C16A 1_555 1_555
C18A C17A 1_555 1_555
H14A C18A 1_555 1_555
C19A C14A 1_555 1_555
H15A C19A 1_555 1_555
C20A C17A 1_555 1_555
C21A C20A 1_555 1_555
H16A C21A 1_555 1_555
C22A C27 1_555 1_555
C23A S1A 1_555 1_555
C24A C26 1_555 1_555
C25A C24A 1_555 1_555
H17A C25A 1_555 1_555
C26A C24 1_555 1_555
C27A C22 1_555 1_555
C28A C27A 1_555 1_555
H18A C28A 1_555 1_555
H19A C28A 1_555 1_555
C29A C28A 1_555 1_555
H20A C29A 1_555 1_555
H21A C29A 1_555 1_555
C30A C29A 1_555 1_555
H22A C30A 1_555 1_555
H23A C30A 1_555 1_555
C31A C30A 1_555 1_555
H24A C31A 1_555 1_555
H25A C31A 1_555 1_555
H26A C31A 1_555 1_555
C32A C27A 1_555 1_555
H27A C32A 1_555 1_555
H28A C32A 1_555 1_555
C33A C32A 1_555 1_555
H29A C33A 1_555 1_555
H30A C33A 1_555 1_555
C34A C33A 1_555 1_555
H31A C34A 1_555 1_555
H32A C34A 1_555 1_555
C35A C34A 1_555 1_555
H33A C35A 1_555 1_555
H34A C35A 1_555 1_555
H35A C35A 1_555 1_555
C36A O2A 1_555 1_555
H36A C36A 1_555 1_555
H37A C36A 1_555 1_555
H38A C36A 1_555 1_555
C6 C7 1_555 1_555
C12 C13 1_555 1_555
C18 C19 1_555 1_555
C22 C23 1_555 1_555
C6A C7A 1_555 1_555
C12A C13A 1_555 1_555
C18A C19A 1_555 1_555
C21A C22A 1_555 1_555
C22A C23A 1_555 1_555
C23A C24A 1_555 1_555
C25A C26A 1_555 1_555
C26A C27A 1_555 1_555

#END
