
#######################################################################
#
#                 Cambridge Crystallographic Data Centre
#                                CCDC 
#
#######################################################################
#
# If this CIF has been generated from an entry in the Cambridge 
# Structural Database, then it will include bibliographic, chemical, 
# crystal, experimental, refinement or atomic coordinate data resulting 
# from the CCDC's data processing and validation procedures.
#
#######################################################################

data_KIFTOL
_chemical_compound_source        
'branches of Polyalthia rumphii (Blume ex Hensch.) Merr., Annonaceae'
_chemical_name_common            Isoursuline
_chemical_formula_moiety         'C14 H11 N1 O3'
_chemical_name_systematic        
9-hydroxy-8-methoxy-4-methyl-5H-indeno[1,2-b]pyridin-5-one
_chemical_properties_biological  'cytotoxic activity'
_symmetry_cell_setting           monoclinic
_symmetry_space_group_name_H-M   'P 21/c'
_symmetry_Int_Tables_number      14
_space_group_name_Hall           '-P 2ybc'
loop_
_symmetry_equiv_pos_site_id
_symmetry_equiv_pos_as_xyz
1 x,y,z
2 -x,1/2+y,1/2-z
3 -x,-y,-z
4 x,1/2-y,1/2+z
_cell_length_a                   7.3999(4)
_cell_length_b                   14.0753(8)
_cell_length_c                   11.0310(7)
_cell_angle_alpha                90
_cell_angle_beta                 91.389(6)
_cell_angle_gamma                90
_cell_volume                     1148.61
_exptl_crystal_colour            orange
_exptl_crystal_description       block
_cell_formula_units_Z            4
loop_
_atom_site_label
_atom_site_type_symbol
_atom_site_fract_x
_atom_site_fract_y
_atom_site_fract_z
O1 O 0.0779(3) 0.44968(13) 0.6375(2)
O2 O 0.3911(3) 0.36223(14) 1.1865(2)
O3 O 0.0932(2) 0.59778(11) 0.78571(14)
H1 H 0.1083 0.6385 0.8381
N1 N 0.2100(2) 0.66411(13) 1.02713(17)
C1 C 0.2181(3) 0.50116(14) 0.9456(2)
C2 C 0.3451(3) 0.5822(2) 1.2491(2)
C3 C 0.3108(3) 0.52768(19) 1.1470(3)
C4 C 0.2745(3) 0.41214(17) 0.9891(3)
C5 C 0.1511(3) 0.51256(15) 0.8290(2)
C6 C 0.2434(3) 0.57198(16) 1.0404(2)
C7 C 0.1438(3) 0.43243(18) 0.7512(3)
C8 C 0.3346(3) 0.4239(2) 1.1181(3)
C9 C 0.2485(3) 0.71670(19) 1.1274(2)
H2 H 0.2297 0.7820 1.1230
C10 C 0.2043(4) 0.3457(2) 0.7946(3)
H3 H 0.2009 0.2932 0.7433
C11 C 0.2696(4) 0.33491(19) 0.9122(4)
H4 H 0.3100 0.2759 0.9393
C12 C 0.3139(3) 0.6795(2) 1.2356(2)
H5 H 0.3377 0.7199 1.3007
C13 C 0.0725(5) 0.3724(2) 0.5532(3)
H6 H 0.0187 0.3933 0.4778
H7 H 0.0021 0.3214 0.5856
H8 H 0.1933 0.3504 0.5398
C14 C 0.4112(4) 0.5409(3) 1.3674(3)
H9 H 0.3104 0.5166 1.4111
H10 H 0.4708 0.5894 1.4147
H11 H 0.4946 0.4903 1.3523
loop_
_geom_bond_atom_site_label_1
_geom_bond_atom_site_label_2
_geom_bond_site_symmetry_1
_geom_bond_site_symmetry_2
O1 C7 1_555 1_555
O2 C8 1_555 1_555
O3 H1 1_555 1_555
N1 C6 1_555 1_555
C1 C4 1_555 1_555
C2 C3 1_555 1_555
C3 C6 1_555 1_555
C4 C8 1_555 1_555
C5 O3 1_555 1_555
C6 C1 1_555 1_555
C7 C5 1_555 1_555
C8 C3 1_555 1_555
C9 N1 1_555 1_555
H2 C9 1_555 1_555
C10 C7 1_555 1_555
H3 C10 1_555 1_555
C11 C4 1_555 1_555
H4 C11 1_555 1_555
C12 C2 1_555 1_555
H5 C12 1_555 1_555
C13 O1 1_555 1_555
H6 C13 1_555 1_555
H7 C13 1_555 1_555
H8 C13 1_555 1_555
C14 C2 1_555 1_555
H9 C14 1_555 1_555
H10 C14 1_555 1_555
H11 C14 1_555 1_555
C1 C5 1_555 1_555
C9 C12 1_555 1_555
C10 C11 1_555 1_555

#END
