
#######################################################################
#
#                 Cambridge Crystallographic Data Centre
#                                CCDC 
#
#######################################################################
#
# If this CIF has been generated from an entry in the Cambridge 
# Structural Database, then it will include bibliographic, chemical, 
# crystal, experimental, refinement or atomic coordinate data resulting 
# from the CCDC's data processing and validation procedures.
#
#######################################################################

data_KIFXIH
_chemical_formula_moiety         'C12 H7 Br1 Cl2 N2 O1'
_chemical_name_systematic        
2-Amino-3-bromo-5-chloro-4-((4-chlorophenyl)imino)cyclohexa-2,5-dien-1-one
_symmetry_cell_setting           monoclinic
_symmetry_space_group_name_H-M   'C 2/c'
_symmetry_Int_Tables_number      15
_space_group_name_Hall           '-C 2yn'
loop_
_symmetry_equiv_pos_site_id
_symmetry_equiv_pos_as_xyz
1 x,y,z
2 1/2+x,1/2+y,z
3 -x,y,1/2-z
4 1/2-x,1/2+y,1/2-z
5 -x,-y,-z
6 1/2-x,1/2-y,-z
7 x,-y,1/2+z
8 1/2+x,1/2-y,1/2+z
_cell_length_a                   18.973(5)
_cell_length_b                   5.6656(14)
_cell_length_c                   24.227(6)
_cell_angle_alpha                90
_cell_angle_beta                 101.814(3)
_cell_angle_gamma                90
_cell_volume                     2549.08
_cell_formula_units_Z            8
loop_
_atom_site_label
_atom_site_type_symbol
_atom_site_fract_x
_atom_site_fract_y
_atom_site_fract_z
Br1 Br 0.008805(18) 0.58780(7) 0.175024(14)
Cl1 Cl 0.16487(5) 0.9205(2) 0.39820(4)
Cl2 Cl 0.20966(5) 0.92484(17) 0.05398(4)
C1 C 0.16039(17) 0.8991(6) 0.32556(13)
C2 C 0.18795(17) 0.7023(6) 0.30403(13)
H1 H 0.2095 0.5826 0.3279
C3 C 0.18312(16) 0.6854(6) 0.24672(13)
H2 H 0.2011 0.5525 0.2318
C4 C 0.15188(16) 0.8631(5) 0.21117(12)
C5 C 0.12667(19) 1.0614(6) 0.23392(15)
H3 H 0.1076 1.1856 0.2104
C6 C 0.1295(2) 1.0774(6) 0.29101(15)
H4 H 0.1106 1.2085 0.3059
C7 C 0.12295(15) 0.7128(6) 0.11685(12)
C8 C 0.14901(16) 0.7082(6) 0.06270(13)
C9 C 0.12987(18) 0.5426(7) 0.02372(14)
H5 H 0.1499 0.5425 -0.0083
C10 C 0.07828(18) 0.3624(7) 0.03038(14)
C11 C 0.04560(17) 0.3725(6) 0.08155(13)
C12 C 0.06566(16) 0.5465(6) 0.12026(12)
N1 N 0.15534(13) 0.8591(5) 0.15372(11)
N2 N -0.00628(15) 0.2099(5) 0.08201(12)
H6 H -0.0301 0.2104 0.1086
H7 H -0.0155 0.1057 0.0557
O1 O 0.05842(14) 0.2109(5) -0.00536(10)
loop_
_geom_bond_atom_site_label_1
_geom_bond_atom_site_label_2
_geom_bond_site_symmetry_1
_geom_bond_site_symmetry_2
Br1 C12 1_555 1_555
Cl1 C1 1_555 1_555
Cl2 C8 1_555 1_555
C1 C2 1_555 1_555
C2 H1 1_555 1_555
C3 C2 1_555 1_555
H2 C3 1_555 1_555
C4 C3 1_555 1_555
C5 C4 1_555 1_555
H3 C5 1_555 1_555
C6 C1 1_555 1_555
H4 C6 1_555 1_555
C7 C8 1_555 1_555
C8 C9 1_555 1_555
C9 H5 1_555 1_555
C10 C9 1_555 1_555
C11 C10 1_555 1_555
C12 C7 1_555 1_555
N1 C4 1_555 1_555
N2 C11 1_555 1_555
H6 N2 1_555 1_555
H7 N2 1_555 1_555
O1 C10 1_555 1_555
C5 C6 1_555 1_555
C7 N1 1_555 1_555
C11 C12 1_555 1_555

#END
