
#######################################################################
#
#                 Cambridge Crystallographic Data Centre
#                                CCDC 
#
#######################################################################
#
# If this CIF has been generated from an entry in the Cambridge 
# Structural Database, then it will include bibliographic, chemical, 
# crystal, experimental, refinement or atomic coordinate data resulting 
# from the CCDC's data processing and validation procedures.
#
#######################################################################

data_KIFYIK
_chemical_formula_moiety         'C64 H62 B1 F2 N3 O12'
_chemical_name_systematic        
9,17-di-t-butyl-13,13-difluoro-2,3,4,5,6,7,19,20,21,22,23,24-dodecamethoxy-13H-dibenzo[g,g']diphenanthro[9,10,1-cde:9,10,1-c'd'e'][1,3,5,2]triazaborinino[1,6-a:3,4-a']diindol-12-ium-13-ide
_symmetry_cell_setting           triclinic
_symmetry_space_group_name_H-M   'P -1'
_symmetry_Int_Tables_number      2
_space_group_name_Hall           '-P 1'
loop_
_symmetry_equiv_pos_site_id
_symmetry_equiv_pos_as_xyz
1 x,y,z
2 -x,-y,-z
_cell_length_a                   12.4763(9)
_cell_length_b                   14.8071(10)
_cell_length_c                   15.8834(11)
_cell_angle_alpha                99.3600(10)
_cell_angle_beta                 105.1410(10)
_cell_angle_gamma                92.5170(10)
_cell_volume                     2783.17
_exptl_crystal_colour            colorless
_exptl_crystal_description       block
_cell_formula_units_Z            2
_exptl_crystal_recrystallization_method dichloromethane/methanol
loop_
_atom_site_label
_atom_site_type_symbol
_atom_site_fract_x
_atom_site_fract_y
_atom_site_fract_z
B1 B 1.0160(2) 0.25419(16) 0.52219(16)
C1 C 0.91085(18) 0.40472(14) 0.51901(14)
C2 C 0.82142(18) 0.43408(14) 0.45847(14)
C3 C 0.79096(18) 0.37106(15) 0.37991(14)
C4 C 0.86363(18) 0.29944(15) 0.39393(14)
C5 C 0.93159(19) 0.15940(15) 0.36401(14)
C6 C 0.94975(19) 0.07655(15) 0.31079(14)
C7 C 1.03308(18) 0.03864(14) 0.36671(14)
C8 C 1.06316(18) 0.09245(14) 0.45208(14)
C9 C 0.95292(19) 0.45838(14) 0.60637(14)
C10 C 1.0458(2) 0.43838(15) 0.67050(15)
H1 H 1.0868 0.3905 0.6550
C11 C 1.0775(2) 0.48762(16) 0.75518(16)
H2 H 1.1403 0.4734 0.7956
C12 C 1.0177(2) 0.55838(16) 0.78178(16)
C13 C 0.9290(2) 0.58100(16) 0.71817(16)
H3 H 0.8898 0.6295 0.7352
C14 C 0.89468(19) 0.53557(15) 0.63002(15)
C15 C 0.80040(19) 0.56465(15) 0.56535(15)
C16 C 0.7398(2) 0.64031(16) 0.58100(17)
C17 C 0.6455(2) 0.65502(17) 0.51780(18)
C18 C 0.6073(2) 0.59572(17) 0.43607(18)
C19 C 0.67421(19) 0.52912(15) 0.40969(16)
C20 C 0.76628(19) 0.51220(15) 0.47801(15)
C21 C 0.6548(2) 0.47417(16) 0.32050(16)
C22 C 0.5928(2) 0.50304(18) 0.24326(18)
C23 C 0.5635(3) 0.4456(2) 0.16195(18)
C24 C 0.6031(3) 0.3586(2) 0.15179(18)
C25 C 0.6761(2) 0.33343(18) 0.22311(17)
H4 H 0.7072 0.2777 0.2158
C26 C 0.7048(2) 0.38987(16) 0.30657(15)
C27 C 1.0437(3) 0.6110(2) 0.87733(18)
C28 C 0.9425(3) 0.5952(3) 0.9120(2)
H5 H 0.8784 0.6163 0.8747
H6 H 0.9566 0.6286 0.9715
H7 H 0.9287 0.5308 0.9116
C29 C 1.0650(4) 0.7133(2) 0.8789(3)
H8 H 1.1272 0.7237 0.8556
H9 H 1.0812 0.7460 0.9388
H10 H 0.9999 0.7349 0.8433
C30 C 1.1457(3) 0.5785(3) 0.9373(2)
H11 H 1.1303 0.5153 0.9409
H12 H 1.1627 0.6154 0.9955
H13 H 1.2082 0.5842 0.9132
C31 C 0.7898(4) 0.7894(2) 0.6696(3)
H14 H 0.7954 0.8017 0.6134
H15 H 0.8594 0.8089 0.7136
H16 H 0.7318 0.8224 0.6865
C32 C 0.5803(3) 0.7951(2) 0.4848(3)
H17 H 0.6541 0.8110 0.4811
H18 H 0.5517 0.8486 0.5110
H19 H 0.5326 0.7721 0.4264
C33 C 0.4232(3) 0.5284(3) 0.3698(3)
H20 H 0.4129 0.4975 0.3098
H21 H 0.3534 0.5480 0.3772
H22 H 0.4502 0.4872 0.4097
C34 C 0.6390(4) 0.6602(2) 0.2535(3)
H23 H 0.6967 0.6609 0.3072
H24 H 0.6063 0.7177 0.2564
H25 H 0.6702 0.6510 0.2039
C35 C 0.3909(4) 0.4901(5) 0.0839(3)
H26 H 0.3588 0.4409 0.1046
H27 H 0.3504 0.4909 0.0237
H28 H 0.3871 0.5476 0.1205
C36 C 0.5005(6) 0.2989(3) 0.0034(4)
H29 H 0.4352 0.3184 0.0198
H30 H 0.4845 0.2377 -0.0305
H31 H 0.5221 0.3398 -0.0316
C37 C 1.15041(18) 0.06626(14) 0.51990(14)
C38 C 1.1811(2) 0.11011(15) 0.60924(15)
H32 H 1.1388 0.1555 0.6278
C39 C 1.2719(2) 0.08790(16) 0.66991(16)
H33 H 1.2885 0.1170 0.7288
C40 C 1.33960(19) 0.02215(15) 0.64436(15)
C41 C 1.3061(2) -0.02478(16) 0.55743(16)
H34 H 1.3493 -0.0702 0.5404
C42 C 1.21165(19) -0.00821(14) 0.49388(14)
C43 C 1.17961(18) -0.06247(14) 0.40322(15)
C44 C 1.2312(2) -0.13778(16) 0.37165(17)
C45 C 1.2039(2) -0.17455(17) 0.28129(18)
C46 C 1.1199(2) -0.14267(17) 0.22004(17)
C47 C 1.0492(2) -0.08144(15) 0.25039(15)
C48 C 1.08700(19) -0.03823(14) 0.34041(15)
C49 C 0.9449(2) -0.05582(16) 0.19574(15)
C50 C 0.8785(2) -0.11548(17) 0.11971(16)
C51 C 0.7846(2) -0.08843(18) 0.06571(17)
C52 C 0.7507(2) -0.00027(19) 0.08663(17)
C53 C 0.8062(2) 0.05621(17) 0.16501(15)
H35 H 0.7812 0.1132 0.1806
C54 C 0.9006(2) 0.02832(16) 0.22176(15)
C55 C 1.4472(2) -0.00019(18) 0.70616(17)
C56 C 1.5449(2) 0.0218(2) 0.6692(2)
H36 H 1.5327 -0.0137 0.6108
H37 H 1.6127 0.0069 0.7072
H38 H 1.5507 0.0861 0.6665
C57 C 1.4387(3) -0.1033(2) 0.7110(2)
H39 H 1.3731 -0.1186 0.7284
H40 H 1.5034 -0.1166 0.7536
H41 H 1.4343 -0.1389 0.6538
C58 C 1.4704(3) 0.0552(2) 0.79993(19)
H42 H 1.4821 0.1193 0.7985
H43 H 1.5359 0.0360 0.8373
H44 H 1.4079 0.0449 0.8230
C59 C 1.2931(3) -0.2588(2) 0.4464(3)
H45 H 1.2543 -0.2512 0.4915
H46 H 1.3612 -0.2860 0.4673
H47 H 1.2471 -0.2981 0.3941
C60 C 1.2146(4) -0.3242(3) 0.2067(3)
H48 H 1.1638 -0.3449 0.2372
H49 H 1.2682 -0.3681 0.2031
H50 H 1.1738 -0.3179 0.1480
C61 C 0.8619(4) -0.2655(2) 0.1443(3)
H51 H 0.8913 -0.2440 0.2069
H52 H 0.8851 -0.3255 0.1287
H53 H 0.7819 -0.2687 0.1288
C62 C 0.7501(5) -0.1620(3) -0.0831(2)
H54 H 0.7527 -0.1044 -0.1033
H55 H 0.6975 -0.2058 -0.1276
H56 H 0.8226 -0.1843 -0.0724
C63 C 0.6171(3) 0.1052(2) 0.04586(19)
H57 H 0.6016 0.1119 0.1025
H58 H 0.5499 0.1092 0.0009
H59 H 0.6721 0.1531 0.0470
F1 F 1.12619(10) 0.29049(8) 0.54669(8)
F2 F 0.98629(11) 0.23424(8) 0.59573(8)
N1 N 0.93655(15) 0.32211(12) 0.47953(11)
N2 N 0.86337(15) 0.22210(12) 0.33816(11)
N3 N 1.00147(15) 0.16686(11) 0.44984(11)
O1 O 0.76474(18) 0.69604(13) 0.66311(13)
O2 O 0.58377(16) 0.72539(13) 0.53870(13)
O3 O 0.50184(15) 0.60616(14) 0.38836(14)
O4 O 0.55774(18) 0.58936(14) 0.24327(14)
O5 O 0.5042(2) 0.47669(17) 0.08800(14)
O6 O 0.5797(3) 0.3001(2) 0.07316(15)
O7 O 0.65794(17) 0.01860(14) 0.02690(12)
O8 O 0.7173(2) -0.14949(15) -0.00476(15)
O9 O 0.90168(17) -0.20502(12) 0.09837(12)
O10 O 1.11422(18) -0.16777(14) 0.13164(12)
O11 O 1.27043(18) -0.23789(15) 0.25365(14)
O12 O 1.31741(15) -0.17296(12) 0.42608(12)
C64 C 1.133(2) -0.0944(6) 0.0872(7)
H60 H 1.0635 -0.0805 0.0512
H61 H 1.1813 -0.1126 0.0502
H62 H 1.1679 -0.0409 0.1303
C65? C 1.2002(19) -0.127(2) 0.1065(10)
H63? H 1.2232 -0.0670 0.1421
H64? H 1.1750 -0.1218 0.0451
H65? H 1.2621 -0.1641 0.1149
loop_
_geom_bond_atom_site_label_1
_geom_bond_atom_site_label_2
_geom_bond_site_symmetry_1
_geom_bond_site_symmetry_2
B1 F1 1_555 1_555
C1 C2 1_555 1_555
C2 C3 1_555 1_555
C3 C4 1_555 1_555
C4 N1 1_555 1_555
C5 C6 1_555 1_555
C6 C7 1_555 1_555
C7 C8 1_555 1_555
C8 C37 1_555 1_555
C9 C1 1_555 1_555
C10 C9 1_555 1_555
H1 C10 1_555 1_555
C11 C10 1_555 1_555
H2 C11 1_555 1_555
C12 C11 1_555 1_555
C13 C12 1_555 1_555
H3 C13 1_555 1_555
C14 C9 1_555 1_555
C15 C14 1_555 1_555
C16 C15 1_555 1_555
C17 C16 1_555 1_555
C18 C17 1_555 1_555
C19 C18 1_555 1_555
C20 C2 1_555 1_555
C21 C19 1_555 1_555
C22 C21 1_555 1_555
C23 C22 1_555 1_555
C24 C23 1_555 1_555
C25 C24 1_555 1_555
H4 C25 1_555 1_555
C26 C3 1_555 1_555
C27 C12 1_555 1_555
C28 C27 1_555 1_555
H5 C28 1_555 1_555
H6 C28 1_555 1_555
H7 C28 1_555 1_555
C29 C27 1_555 1_555
H8 C29 1_555 1_555
H9 C29 1_555 1_555
H10 C29 1_555 1_555
C30 C27 1_555 1_555
H11 C30 1_555 1_555
H12 C30 1_555 1_555
H13 C30 1_555 1_555
C31 H14 1_555 1_555
H15 C31 1_555 1_555
H16 C31 1_555 1_555
C32 H17 1_555 1_555
H18 C32 1_555 1_555
H19 C32 1_555 1_555
C33 H20 1_555 1_555
H21 C33 1_555 1_555
H22 C33 1_555 1_555
C34 H23 1_555 1_555
H24 C34 1_555 1_555
H25 C34 1_555 1_555
C35 H26 1_555 1_555
H27 C35 1_555 1_555
H28 C35 1_555 1_555
C36 H29 1_555 1_555
H30 C36 1_555 1_555
H31 C36 1_555 1_555
C37 C38 1_555 1_555
C38 H32 1_555 1_555
C39 C38 1_555 1_555
H33 C39 1_555 1_555
C40 C39 1_555 1_555
C41 C40 1_555 1_555
H34 C41 1_555 1_555
C42 C37 1_555 1_555
C43 C42 1_555 1_555
C44 C43 1_555 1_555
C45 C44 1_555 1_555
C46 C45 1_555 1_555
C47 C46 1_555 1_555
C48 C7 1_555 1_555
C49 C47 1_555 1_555
C50 C49 1_555 1_555
C51 C50 1_555 1_555
C52 C51 1_555 1_555
C53 C52 1_555 1_555
H35 C53 1_555 1_555
C54 C6 1_555 1_555
C55 C40 1_555 1_555
C56 C55 1_555 1_555
H36 C56 1_555 1_555
H37 C56 1_555 1_555
H38 C56 1_555 1_555
C57 C55 1_555 1_555
H39 C57 1_555 1_555
H40 C57 1_555 1_555
H41 C57 1_555 1_555
C58 C55 1_555 1_555
H42 C58 1_555 1_555
H43 C58 1_555 1_555
H44 C58 1_555 1_555
C59 H45 1_555 1_555
H46 C59 1_555 1_555
H47 C59 1_555 1_555
C60 H48 1_555 1_555
H49 C60 1_555 1_555
H50 C60 1_555 1_555
C61 H51 1_555 1_555
H52 C61 1_555 1_555
H53 C61 1_555 1_555
C62 H54 1_555 1_555
H55 C62 1_555 1_555
H56 C62 1_555 1_555
C63 H57 1_555 1_555
H58 C63 1_555 1_555
H59 C63 1_555 1_555
F2 B1 1_555 1_555
N1 B1 1_555 1_555
N2 C4 1_555 1_555
N3 B1 1_555 1_555
O1 C16 1_555 1_555
O2 C17 1_555 1_555
O3 C18 1_555 1_555
O4 C22 1_555 1_555
O5 C23 1_555 1_555
O6 C24 1_555 1_555
O7 C52 1_555 1_555
O8 C51 1_555 1_555
O9 C50 1_555 1_555
O10 C46 1_555 1_555
O11 C45 1_555 1_555
O12 C44 1_555 1_555
C64 O10 1_555 1_555
H60 C64 1_555 1_555
H61 C64 1_555 1_555
H62 C64 1_555 1_555
C1 N1 1_555 1_555
C5 N2 1_555 1_555
C5 N3 1_555 1_555
C8 N3 1_555 1_555
C13 C14 1_555 1_555
C15 C20 1_555 1_555
C19 C20 1_555 1_555
C21 C26 1_555 1_555
C25 C26 1_555 1_555
C31 O1 1_555 1_555
C32 O2 1_555 1_555
C33 O3 1_555 1_555
C34 O4 1_555 1_555
C35 O5 1_555 1_555
C36 O6 1_555 1_555
C41 C42 1_555 1_555
C43 C48 1_555 1_555
C47 C48 1_555 1_555
C49 C54 1_555 1_555
C53 C54 1_555 1_555
C59 O12 1_555 1_555
C60 O11 1_555 1_555
C61 O9 1_555 1_555
C62 O8 1_555 1_555
C63 O7 1_555 1_555

#END
