
#######################################################################
#
#                 Cambridge Crystallographic Data Centre
#                                CCDC 
#
#######################################################################
#
# If this CIF has been generated from an entry in the Cambridge 
# Structural Database, then it will include bibliographic, chemical, 
# crystal, experimental, refinement or atomic coordinate data resulting 
# from the CCDC's data processing and validation procedures.
#
#######################################################################

data_KIGBIM
_chemical_formula_moiety         'C23 H32 O4'
_chemical_name_systematic        
'(1R)-1-t-Butyl-1-ethynyl-4,4-dimethylpent-2-yn-1-yl (1S,4R)-4,7,7-trimethyl-3-oxo-2-oxabicyclo(2.2.1)heptane-1-carboxylate'
_symmetry_cell_setting           orthorhombic
_symmetry_space_group_name_H-M   'P 21 21 21'
_symmetry_Int_Tables_number      19
_space_group_name_Hall           'P 2ac 2ab'
loop_
_symmetry_equiv_pos_site_id
_symmetry_equiv_pos_as_xyz
1 x,y,z
2 1/2-x,-y,1/2+z
3 -x,1/2+y,1/2-z
4 1/2+x,1/2-y,-z
_cell_length_a                   9.8869(13)
_cell_length_b                   12.6288(15)
_cell_length_c                   18.2670(15)
_cell_angle_alpha                90
_cell_angle_beta                 90
_cell_angle_gamma                90
_cell_volume                     2280.81
_exptl_crystal_colour            colorless
_chemical_melting_point          154-157deg.C
_cell_formula_units_Z            4
loop_
_atom_site_label
_atom_site_type_symbol
_atom_site_fract_x
_atom_site_fract_y
_atom_site_fract_z
C1 C 1.04987(19) 0.83574(13) 0.31645(10)
O1 O 1.13595(14) 0.91120(10) 0.35584(7)
C2 C 1.1421(2) 0.87564(14) 0.42613(10)
C3 C 1.0572(2) 0.77643(14) 0.43097(10)
C4 C 0.9439(2) 0.80514(14) 0.37544(9)
C5 C 1.1432(2) 0.69411(15) 0.38746(10)
H1 H 1.2377 0.6924 0.4054
H2 H 1.1039 0.6222 0.3914
C6 C 1.1364(2) 0.73550(14) 0.30743(10)
H3 H 1.2275 0.7525 0.2883
H4 H 1.0923 0.6835 0.2746
O2 O 1.20953(15) 0.91950(12) 0.47192(8)
C7 C 1.0177(2) 0.74525(17) 0.50823(11)
H5 H 0.9640 0.8021 0.5304
H6 H 1.0995 0.7335 0.5374
H7 H 0.9641 0.6800 0.5068
C8 C 0.8514(2) 0.71269(15) 0.35423(11)
H8 H 0.7879 0.6985 0.3942
H9 H 0.9064 0.6495 0.3451
H10 H 0.8009 0.7310 0.3098
C9 C 0.8570(2) 0.89964(15) 0.39984(11)
H11 H 0.7920 0.8762 0.4370
H12 H 0.8082 0.9283 0.3576
H13 H 0.9155 0.9547 0.4206
C10 C 0.9960(2) 0.88983(14) 0.24889(10)
O3 O 0.94724(13) 0.81464(9) 0.20348(7)
O4 O 0.99294(16) 0.98324(10) 0.23862(7)
C11 C 0.87858(19) 0.84849(14) 0.13613(10)
C12 C 0.9744(2) 0.91074(14) 0.09131(10)
C13 C 1.0555(2) 0.95445(15) 0.05361(12)
H14 H 1.116 0.992 0.0233
C14 C 0.8420(2) 0.74183(14) 0.09595(10)
C15 C 0.9684(2) 0.67593(16) 0.08535(13)
H15 H 0.9450 0.6098 0.0603
H16 H 1.0083 0.6598 0.1332
H17 H 1.0337 0.7156 0.0557
C16 C 0.7396(2) 0.67860(16) 0.14105(13)
H18 H 0.7176 0.6127 0.1154
H19 H 0.6572 0.7206 0.1476
H20 H 0.7785 0.6620 0.1890
C17 C 0.7803(3) 0.77082(19) 0.02168(13)
H21 H 0.7562 0.7060 -0.0047
H22 H 0.8463 0.8112 -0.0070
H23 H 0.6990 0.8138 0.0293
C18 C 0.7559(2) 0.90757(15) 0.15622(10)
C19 C 0.6494(2) 0.94232(15) 0.17612(11)
C20 C 0.5161(2) 0.98085(16) 0.20141(12)
C21 C 0.5198(3) 1.10108(18) 0.21188(16)
H24 H 0.5398 1.1353 0.1650
H25 H 0.5902 1.1193 0.2475
H26 H 0.4318 1.1255 0.2299
C22 C 0.4076(3) 0.9539(3) 0.1447(2)
H27 H 0.4297 0.9882 0.0981
H28 H 0.3194 0.9792 0.1619
H29 H 0.4041 0.8770 0.1377
C23 C 0.4843(3) 0.9282(2) 0.27492(16)
H30 H 0.4827 0.8511 0.2687
H31 H 0.3959 0.9524 0.2924
H32 H 0.5541 0.9473 0.3107
loop_
_geom_bond_atom_site_label_1
_geom_bond_atom_site_label_2
_geom_bond_site_symmetry_1
_geom_bond_site_symmetry_2
C1 O1 1_555 1_555
O1 C2 1_555 1_555
C2 C3 1_555 1_555
C3 C4 1_555 1_555
C4 C1 1_555 1_555
C5 C3 1_555 1_555
H1 C5 1_555 1_555
H2 C5 1_555 1_555
C6 C1 1_555 1_555
H3 C6 1_555 1_555
H4 C6 1_555 1_555
O2 C2 1_555 1_555
C7 C3 1_555 1_555
H5 C7 1_555 1_555
H6 C7 1_555 1_555
H7 C7 1_555 1_555
C8 C4 1_555 1_555
H8 C8 1_555 1_555
H9 C8 1_555 1_555
H10 C8 1_555 1_555
C9 C4 1_555 1_555
H11 C9 1_555 1_555
H12 C9 1_555 1_555
H13 C9 1_555 1_555
C10 C1 1_555 1_555
O3 C10 1_555 1_555
O4 C10 1_555 1_555
C11 O3 1_555 1_555
C12 C11 1_555 1_555
C13 C12 1_555 1_555
H14 C13 1_555 1_555
C14 C11 1_555 1_555
C15 C14 1_555 1_555
H15 C15 1_555 1_555
H16 C15 1_555 1_555
H17 C15 1_555 1_555
C16 C14 1_555 1_555
H18 C16 1_555 1_555
H19 C16 1_555 1_555
H20 C16 1_555 1_555
C17 C14 1_555 1_555
H21 C17 1_555 1_555
H22 C17 1_555 1_555
H23 C17 1_555 1_555
C18 C11 1_555 1_555
C19 C18 1_555 1_555
C20 C19 1_555 1_555
C21 C20 1_555 1_555
H24 C21 1_555 1_555
H25 C21 1_555 1_555
H26 C21 1_555 1_555
C22 C20 1_555 1_555
H27 C22 1_555 1_555
H28 C22 1_555 1_555
H29 C22 1_555 1_555
C23 C20 1_555 1_555
H30 C23 1_555 1_555
H31 C23 1_555 1_555
H32 C23 1_555 1_555
C5 C6 1_555 1_555

#END
