
#######################################################################
#
#                 Cambridge Crystallographic Data Centre
#                                CCDC 
#
#######################################################################
#
# If this CIF has been generated from an entry in the Cambridge 
# Structural Database, then it will include bibliographic, chemical, 
# crystal, experimental, refinement or atomic coordinate data resulting 
# from the CCDC's data processing and validation procedures.
#
#######################################################################

data_KIGJUF
_chemical_formula_moiety         'C20 H44 Li2 O8 S6'
_chemical_name_systematic        
(\m~2~-(Ethane-1,2-diyl)-bis(trithiocarbonate))-tetrakis(1,2-dimethoxyethane)-di-lithium
_symmetry_cell_setting           monoclinic
_symmetry_space_group_name_H-M   'P 21/n'
_symmetry_Int_Tables_number      14
_space_group_name_Hall           '-P 2yn'
loop_
_symmetry_equiv_pos_site_id
_symmetry_equiv_pos_as_xyz
1 x,y,z
2 1/2-x,1/2+y,1/2-z
3 -x,-y,-z
4 1/2+x,1/2-y,1/2+z
_cell_length_a                   8.827(3)
_cell_length_b                   15.191(8)
_cell_length_c                   13.304(8)
_cell_angle_alpha                90
_cell_angle_beta                 107.13(4)
_cell_angle_gamma                90
_cell_volume                     1704.81
_cell_formula_units_Z            2
loop_
_atom_site_label
_atom_site_type_symbol
_atom_site_fract_x
_atom_site_fract_y
_atom_site_fract_z
Li1 Li 0.1679(7) 0.2831(4) 0.2014(4)
S1 S 0.1793(1) 0.4162(1) 0.3378(1)
S2 S -0.1131(1) 0.3796(1) 0.1612(1)
S3 S -0.1448(6) 0.478(1) 0.3353(5)
O1 O 0.2837(3) 0.3580(2) 0.1047(2)
O2 O 0.4081(3) 0.2398(2) 0.2566(2)
O3 O 0.0851(4) 0.1852(2) 0.2989(3)
O4 O 0.0710(4) 0.1830(2) 0.0976(2)
C1 C -0.0165(5) 0.4180(2) 0.2807(3)
C2 C 0.4465(6) 0.3639(3) 0.1622(4)
C3 C 0.5039(6) 0.2753(3) 0.1969(4)
C4 C 0.2231(7) 0.4405(3) 0.0605(4)
C5 C 0.4559(7) 0.1555(3) 0.2983(5)
C6 C -0.0017(7) 0.1157(4) 0.1355(5)
C7 C -0.0356(8) 0.1369(4) 0.2313(5)
C8 C 0.0928(7) 0.1678(4) 0.0009(4)
C9 C 0.064(1) 0.1980(4) 0.3995(4)
C10 C -0.019(3) 0.459(1) 0.508(2)
H1 H 0.5053 0.3876 0.1181
H2 H 0.4592 0.4014 0.2222
H3 H 0.6123 0.2782 0.2398
H4 H 0.4964 0.2387 0.1368
H5 H 0.1129 0.4347 0.0221
H6 H 0.2810 0.4597 0.0136
H7 H 0.2348 0.4831 0.1156
H8 H 0.3870 0.1352 0.3373
H9 H 0.5626 0.1588 0.3440
H10 H 0.4517 0.1153 0.2419
H11 H -0.0995 0.1017 0.0832
H12 H 0.0669 0.0653 0.1477
H13 H -0.0495 0.0832 0.2656
H14 H -0.1317 0.1707 0.2151
H15 H 0.1433 0.2179 -0.0194
H16 H -0.0084 0.1583 -0.0500
H17 H 0.1581 0.1167 0.0045
H18 H 0.1504 0.2315 0.4432
H19 H 0.0590 0.1418 0.4315
H20 H -0.0339 0.2292 0.3919
H21 H 0.0641(54) 0.4108(29) 0.5105(32)
H22 H -0.0920(54) 0.4493(25) 0.5577(34)
C10B C 0.019(3) 0.541(1) 0.492(2)
S3B S 0.1448(6) 0.522(1) 0.6647(5)
H21B H -0.0641(54) 0.5892(29) 0.4895(32)
H22B H 0.0920(54) 0.5507(25) 0.4423(34)
C1B C 0.0165(5) 0.5820(2) 0.7193(3)
S1B S -0.1793(1) 0.5838(1) 0.6622(1)
S2B S 0.1131(1) 0.6204(1) 0.8388(1)
Li1B Li -0.1679(7) 0.7169(4) 0.7986(4)
O1B O -0.2837(3) 0.6420(2) 0.8953(2)
O2B O -0.4081(3) 0.7602(2) 0.7434(2)
O3B O -0.0851(4) 0.8148(2) 0.7011(3)
O4B O -0.0710(4) 0.8170(2) 0.9024(2)
C2B C -0.4465(6) 0.6361(3) 0.8378(4)
C4B C -0.2231(7) 0.5595(3) 0.9395(4)
C3B C -0.5039(6) 0.7247(3) 0.8031(4)
C5B C -0.4559(7) 0.8445(3) 0.7017(5)
C7B C 0.0356(8) 0.8631(4) 0.7687(5)
C9B C -0.064(1) 0.8020(4) 0.6005(4)
C6B C 0.0017(7) 0.8843(4) 0.8645(5)
C8B C -0.0928(7) 0.8322(4) 0.9991(4)
H1B H -0.5053 0.6124 0.8819
H2B H -0.4592 0.5986 0.7778
H5B H -0.1129 0.5653 0.9779
H6B H -0.2810 0.5403 0.9864
H7B H -0.2348 0.5169 0.8844
H3B H -0.6123 0.7218 0.7602
H4B H -0.4964 0.7613 0.8632
H8B H -0.3870 0.8648 0.6627
H9B H -0.5626 0.8412 0.6560
H10B H -0.4517 0.8847 0.7581
H13B H 0.0495 0.9168 0.7344
H14B H 0.1317 0.8293 0.7849
H18B H -0.1504 0.7685 0.5568
H19B H -0.0590 0.8582 0.5685
H20B H 0.0339 0.7708 0.6081
H11B H 0.0995 0.8983 0.9168
H12B H -0.0669 0.9347 0.8523
H15B H -0.1433 0.7821 1.0194
H16B H 0.0084 0.8417 1.0500
H17B H -0.1581 0.8833 0.9955
S4? S -0.1544(7) 0.434(2) 0.357(1)
C11? C -0.035(3) 0.528(2) 0.442(2)
loop_
_geom_bond_atom_site_label_1
_geom_bond_atom_site_label_2
_geom_bond_site_symmetry_1
_geom_bond_site_symmetry_2
Li1 S1 1_555 1_555
S1 C1 1_555 1_555
S2 Li1 1_555 1_555
S3 C1 1_555 1_555
O1 Li1 1_555 1_555
O2 Li1 1_555 1_555
O3 Li1 1_555 1_555
O4 Li1 1_555 1_555
C1 S2 1_555 1_555
C2 O1 1_555 1_555
C3 O2 1_555 1_555
C4 O1 1_555 1_555
C5 O2 1_555 1_555
C6 O4 1_555 1_555
C7 O3 1_555 1_555
C8 O4 1_555 1_555
C9 O3 1_555 1_555
C10 S3 1_555 1_555
H1 C2 1_555 1_555
H2 C2 1_555 1_555
H3 C3 1_555 1_555
H4 C3 1_555 1_555
H5 C4 1_555 1_555
H6 C4 1_555 1_555
H7 C4 1_555 1_555
H8 C5 1_555 1_555
H9 C5 1_555 1_555
H10 C5 1_555 1_555
H11 C6 1_555 1_555
H12 C6 1_555 1_555
H13 C7 1_555 1_555
H14 C7 1_555 1_555
H15 C8 1_555 1_555
H16 C8 1_555 1_555
H17 C8 1_555 1_555
H18 C9 1_555 1_555
H19 C9 1_555 1_555
H20 C9 1_555 1_555
H21 C10 1_555 1_555
H22 C10 1_555 1_555
C10B C10 1_555 1_555
S3B C10B 1_555 1_555
H21B C10B 1_555 1_555
H22B C10B 1_555 1_555
C1B S3B 1_555 1_555
S1B C1B 1_555 1_555
S2B C1B 1_555 1_555
Li1B S1B 1_555 1_555
O1B Li1B 1_555 1_555
O2B Li1B 1_555 1_555
O3B Li1B 1_555 1_555
O4B Li1B 1_555 1_555
C2B O1B 1_555 1_555
C4B O1B 1_555 1_555
C3B O2B 1_555 1_555
C5B O2B 1_555 1_555
C7B O3B 1_555 1_555
C9B O3B 1_555 1_555
C6B O4B 1_555 1_555
C8B O4B 1_555 1_555
H1B C2B 1_555 1_555
H2B C2B 1_555 1_555
H5B C4B 1_555 1_555
H6B C4B 1_555 1_555
H7B C4B 1_555 1_555
H3B C3B 1_555 1_555
H4B C3B 1_555 1_555
H8B C5B 1_555 1_555
H9B C5B 1_555 1_555
H10B C5B 1_555 1_555
H13B C7B 1_555 1_555
H14B C7B 1_555 1_555
H18B C9B 1_555 1_555
H19B C9B 1_555 1_555
H20B C9B 1_555 1_555
H11B C6B 1_555 1_555
H12B C6B 1_555 1_555
H15B C8B 1_555 1_555
H16B C8B 1_555 1_555
H17B C8B 1_555 1_555
C2 C3 1_555 1_555
C6 C7 1_555 1_555
S2B Li1B 1_555 1_555
C2B C3B 1_555 1_555
C7B C6B 1_555 1_555

#END
