
#######################################################################
#
#                 Cambridge Crystallographic Data Centre
#                                CCDC 
#
#######################################################################
#
# If this CIF has been generated from an entry in the Cambridge 
# Structural Database, then it will include bibliographic, chemical, 
# crystal, experimental, refinement or atomic coordinate data resulting 
# from the CCDC's data processing and validation procedures.
#
#######################################################################

data_KIGKAP
_chemical_formula_moiety         'C33 H39 Cl1 N2 O2 S1'
_chemical_name_systematic        
4-t-butyl-N'-[2-butyl-3-(4-t-butylphenyl)-6-chloro-1H-inden-1-ylidene]benzene-1-sulfonohydrazide
_symmetry_cell_setting           monoclinic
_symmetry_space_group_name_H-M   'P 21/n'
_symmetry_Int_Tables_number      14
_space_group_name_Hall           '-P 2yn'
loop_
_symmetry_equiv_pos_site_id
_symmetry_equiv_pos_as_xyz
1 x,y,z
2 1/2-x,1/2+y,1/2-z
3 -x,-y,-z
4 1/2+x,1/2-y,1/2+z
_cell_length_a                   10.6463(8)
_cell_length_b                   20.6161(17)
_cell_length_c                   14.6073(12)
_cell_angle_alpha                90
_cell_angle_beta                 103.522(3)
_cell_angle_gamma                90
_cell_volume                     3117.21
_exptl_crystal_colour            yellow
_exptl_crystal_description       block
_cell_formula_units_Z            4
loop_
_atom_site_label
_atom_site_type_symbol
_atom_site_fract_x
_atom_site_fract_y
_atom_site_fract_z
Cl1 Cl 0.26208(16) 0.78125(7) 0.50769(8)
N1 N 0.0997(3) 0.99850(13) 0.65217(19)
H1 H 0.0468 0.9687 0.6183
N2 N 0.1129(3) 0.98524(14) 0.7468(2)
O1 O 0.0285(2) 1.07404(11) 0.52333(16)
O2 O 0.1174(2) 1.11651(11) 0.68365(18)
S1 S 0.03878(8) 1.07144(4) 0.62265(6)
C1 C 0.1554(3) 0.92893(18) 0.7770(2)
C2 C 0.1662(4) 0.91204(19) 0.8769(3)
C3 C 0.2054(4) 0.84986(18) 0.8908(3)
C4 C 0.2259(3) 0.82342(18) 0.8012(2)
C5 C 0.1955(3) 0.87126(17) 0.7305(2)
C6 C 0.2068(4) 0.85899(18) 0.6409(3)
H2 H 0.1876 0.8907 0.5945
C7 C 0.2479(4) 0.7976(2) 0.6213(3)
C8 C 0.2768(4) 0.7505(2) 0.6888(3)
H3 H 0.3042 0.7099 0.6737
C9 C 0.2654(4) 0.76311(19) 0.7798(3)
H4 H 0.2842 0.7310 0.8257
C10 C 0.1403(6) 0.9599(2) 0.9460(3)
H5 H 0.1337 0.9387 1.0040
H6 H 0.0610 0.9835 0.9206
C11 C 0.2620(16) 1.0068(7) 0.9631(12)
H7 H 0.3347 0.9821 0.9988
H8 H 0.2794 1.0149 0.9019
C12 C 0.2659(16) 1.0692(7) 1.0091(10)
H9 H 0.2562 1.0623 1.0728
H10 H 0.1926 1.0946 0.9761
C13 C 0.388(3) 1.1079(12) 1.014(2)
H11 H 0.4505 1.0811 0.9944
H12 H 0.4213 1.1226 1.0770
H13 H 0.3681 1.1446 0.9724
C14 C 0.2190(4) 0.80946(18) 0.9754(3)
C15 C 0.1183(4) 0.80177(19) 1.0190(3)
H14 H 0.0423 0.8250 0.9970
C16 C 0.1275(4) 0.76049(19) 1.0941(3)
H15 H 0.0573 0.7565 1.1215
C17 C 0.2378(4) 0.72475(18) 1.1302(3)
C18 C 0.3399(4) 0.7340(2) 1.0878(3)
H16 H 0.4168 0.7119 1.1116
C19 C 0.3319(4) 0.7745(2) 1.0121(3)
H17 H 0.4023 0.7787 0.9850
C20 C 0.2474(4) 0.6773(2) 1.2117(3)
C21 C 0.1228(10) 0.6722(9) 1.2447(12)
H18 H 0.1258 0.6344 1.2835
H19 H 0.0511 0.6688 1.1911
H20 H 0.1127 0.7101 1.2804
C22 C 0.3519(15) 0.7012(6) 1.2969(6)
H21 H 0.3310 0.7443 1.3136
H22 H 0.4343 0.7017 1.2807
H23 H 0.3556 0.6727 1.3493
C23 C 0.2864(19) 0.6111(5) 1.1818(9)
H24 H 0.3629 0.6154 1.1582
H25 H 0.2176 0.5938 1.1334
H26 H 0.3033 0.5824 1.2350
C24 C -0.1166(3) 1.07338(15) 0.6438(2)
C25 C -0.1382(4) 1.10491(19) 0.7206(3)
H27 H -0.0700 1.1245 0.7630
C26 C -0.2617(4) 1.1077(2) 0.7354(3)
H28 H -0.2754 1.1294 0.7881
C27 C -0.3647(3) 1.07915(17) 0.6739(2)
C28 C -0.3379(4) 1.04696(19) 0.5980(3)
H29 H -0.4055 1.0267 0.5558
C29 C -0.2166(3) 1.04353(17) 0.5819(2)
H30 H -0.2022 1.0214 0.5299
C30 C -0.5031(4) 1.0826(2) 0.6861(3)
C31 C -0.5149(5) 1.1206(3) 0.7721(4)
H31 H -0.4652 1.0998 0.8276
H32 H -0.6040 1.1224 0.7751
H33 H -0.4831 1.1639 0.7682
C32 C -0.5883(4) 1.1150(3) 0.5994(4)
H34 H -0.5609 1.1590 0.5953
H35 H -0.6766 1.1144 0.6044
H36 H -0.5810 1.0918 0.5439
C33 C -0.5527(5) 1.0143(3) 0.6940(4)
H37 H -0.5484 0.9900 0.6387
H38 H -0.6407 1.0161 0.6998
H39 H -0.5004 0.9935 0.7486
H40? H 0.0761 0.9403 0.9747
H41? H 0.0974 0.9961 0.9090
C34? C 0.2385(18) 0.9897(9) 1.0247(14)
H42? H 0.1967 1.0175 1.0622
H43? H 0.2859 0.9562 1.0652
C35? C 0.3271(19) 1.0281(10) 0.9810(15)
H44? H 0.2762 1.0498 0.9258
H45? H 0.3852 0.9984 0.9599
C36? C 0.407(5) 1.0785(19) 1.045(3)
H46? H 0.3515 1.1115 1.0593
H47? H 0.4678 1.0976 1.0133
H48? H 0.4533 1.0581 1.1019
C37? C 0.361(3) 0.6270(17) 1.217(3)
H49? H 0.4418 0.6477 1.2435
H50? H 0.3601 0.6117 1.1549
H51? H 0.3490 0.5911 1.2560
C38? C 0.127(3) 0.6342(14) 1.191(2)
H52? H 0.1399 0.5981 1.2335
H53? H 0.1118 0.6185 1.1272
H54? H 0.0537 0.6589 1.1984
C39? C 0.265(5) 0.7143(13) 1.2964(16)
H55? H 0.3284 0.7473 1.2969
H56? H 0.2933 0.6862 1.3497
H57? H 0.1844 0.7341 1.2997
loop_
_geom_bond_atom_site_label_1
_geom_bond_atom_site_label_2
_geom_bond_site_symmetry_1
_geom_bond_site_symmetry_2
Cl1 C7 1_555 1_555
N1 H1 1_555 1_555
N2 N1 1_555 1_555
O1 S1 1_555 1_555
O2 S1 1_555 1_555
S1 N1 1_555 1_555
C1 N2 1_555 1_555
C2 C1 1_555 1_555
C3 C2 1_555 1_555
C4 C3 1_555 1_555
C5 C1 1_555 1_555
C6 C5 1_555 1_555
H2 C6 1_555 1_555
C7 C6 1_555 1_555
C8 C7 1_555 1_555
H3 C8 1_555 1_555
C9 C4 1_555 1_555
H4 C9 1_555 1_555
C10 C2 1_555 1_555
H5 C10 1_555 1_555
H6 C10 1_555 1_555
C11 C10 1_555 1_555
H7 C11 1_555 1_555
H8 C11 1_555 1_555
C12 C11 1_555 1_555
H9 C12 1_555 1_555
H10 C12 1_555 1_555
C13 C12 1_555 1_555
H11 C13 1_555 1_555
H12 C13 1_555 1_555
H13 C13 1_555 1_555
C14 C3 1_555 1_555
C15 C14 1_555 1_555
H14 C15 1_555 1_555
C16 C15 1_555 1_555
H15 C16 1_555 1_555
C17 C16 1_555 1_555
C18 C17 1_555 1_555
H16 C18 1_555 1_555
C19 C14 1_555 1_555
H17 C19 1_555 1_555
C20 C17 1_555 1_555
C21 C20 1_555 1_555
H18 C21 1_555 1_555
H19 C21 1_555 1_555
H20 C21 1_555 1_555
C22 C20 1_555 1_555
H21 C22 1_555 1_555
H22 C22 1_555 1_555
H23 C22 1_555 1_555
C23 C20 1_555 1_555
H24 C23 1_555 1_555
H25 C23 1_555 1_555
H26 C23 1_555 1_555
C24 S1 1_555 1_555
C25 C24 1_555 1_555
H27 C25 1_555 1_555
C26 C25 1_555 1_555
H28 C26 1_555 1_555
C27 C26 1_555 1_555
C28 C27 1_555 1_555
H29 C28 1_555 1_555
C29 C24 1_555 1_555
H30 C29 1_555 1_555
C30 C27 1_555 1_555
C31 C30 1_555 1_555
H31 C31 1_555 1_555
H32 C31 1_555 1_555
H33 C31 1_555 1_555
C32 C30 1_555 1_555
H34 C32 1_555 1_555
H35 C32 1_555 1_555
H36 C32 1_555 1_555
C33 C30 1_555 1_555
H37 C33 1_555 1_555
H38 C33 1_555 1_555
H39 C33 1_555 1_555
C4 C5 1_555 1_555
C8 C9 1_555 1_555
C18 C19 1_555 1_555
C28 C29 1_555 1_555

#END
