
#######################################################################
#
#                 Cambridge Crystallographic Data Centre
#                                CCDC 
#
#######################################################################
#
# If this CIF has been generated from an entry in the Cambridge 
# Structural Database, then it will include bibliographic, chemical, 
# crystal, experimental, refinement or atomic coordinate data resulting 
# from the CCDC's data processing and validation procedures.
#
#######################################################################

data_KIGKIV
_chemical_formula_moiety         'C8 H10 N4 O2,C11 H8 O3'
_chemical_name_systematic        'Caffeine 1-hydroxy-2-naphthoic acid'
_symmetry_cell_setting           monoclinic
_symmetry_space_group_name_H-M   'P 21/n'
_symmetry_Int_Tables_number      14
_space_group_name_Hall           '-P 2yn'
loop_
_symmetry_equiv_pos_site_id
_symmetry_equiv_pos_as_xyz
1 x,y,z
2 1/2-x,1/2+y,1/2-z
3 -x,-y,-z
4 1/2+x,1/2-y,1/2+z
_cell_length_a                   7.6063(17)
_cell_length_b                   14.042(3)
_cell_length_c                   16.327(4)
_cell_angle_alpha                90
_cell_angle_beta                 94.030(4)
_cell_angle_gamma                90
_cell_volume                     1739.54
_exptl_crystal_colour            colorless
_exptl_crystal_description       rod
_cell_formula_units_Z            4
_exptl_crystal_recrystallization_method acetonitrile
loop_
_atom_site_label
_atom_site_type_symbol
_atom_site_fract_x
_atom_site_fract_y
_atom_site_fract_z
O1 O 0.6592(3) 0.06840(15) 0.05858(14)
O2 O 0.6296(4) 0.25305(19) 0.28765(14)
N1 N 0.6472(3) 0.16341(18) 0.17226(15)
N2 N 0.5195(3) 0.31750(18) 0.16727(15)
N3 N 0.3897(3) 0.36279(17) 0.03184(16)
N4 N 0.4598(3) 0.23115(17) -0.03405(15)
C1 C 0.7286(5) 0.0868(3) 0.2231(2)
H1 H 0.8536 0.0968 0.2300
H2 H 0.7052 0.0266 0.1966
H3 H 0.6801 0.0868 0.2758
C2 C 0.6001(4) 0.2453(2) 0.21446(19)
C3 C 0.4608(5) 0.4044(2) 0.2066(2)
H4 H 0.4992 0.4589 0.1773
H5 H 0.5102 0.4067 0.2623
H6 H 0.3345 0.4045 0.2061
C4 C 0.4779(4) 0.3021(2) 0.08518(18)
C5 C 0.3802(4) 0.3159(2) -0.03907(19)
H7 H 0.3239 0.3396 -0.0872
C6 C 0.4736(5) 0.1606(2) -0.0997(2)
H8 H 0.4014 0.1801 -0.1473
H9 H 0.4343 0.0998 -0.0813
H10 H 0.5940 0.1559 -0.1132
C7 C 0.5246(4) 0.2206(2) 0.04666(18)
C8 C 0.6139(4) 0.1432(2) 0.08796(18)
O3 O 0.2364(3) 0.53313(17) 0.04053(14)
H11 H 0.296(5) 0.479(3) 0.038(3)
O4 O 0.1955(3) 0.50545(16) -0.09393(14)
O5 O 0.0220(3) 0.62302(17) -0.18666(14)
H12 H 0.083(5) 0.573(3) -0.167(2)
C9 C 0.1761(4) 0.5575(2) -0.0342(2)
C10 C 0.0888(4) 0.6502(2) -0.04255(19)
C11 C 0.0167(4) 0.6780(2) -0.1189(2)
C12 C -0.0694(4) 0.7685(2) -0.1303(2)
C13 C -0.1457(4) 0.7980(2) -0.2073(2)
H13 H -0.1410 0.7578 -0.2524
C14 C -0.2260(5) 0.8843(3) -0.2170(2)
H14 H -0.2758 0.9027 -0.2682
C15 C -0.2334(5) 0.9454(2) -0.1493(3)
H15 H -0.2881 1.0044 -0.1561
C16 C -0.1616(5) 0.9194(2) -0.0736(2)
H16 H -0.1678 0.9611 -0.0296
C17 C -0.0770(4) 0.8290(2) -0.0610(2)
C18 C -0.0044(4) 0.7986(2) 0.0170(2)
H17 H -0.0107 0.8383 0.0623
C19 C 0.0741(4) 0.7122(2) 0.0261(2)
H18 H 0.1190 0.6929 0.0779
loop_
_geom_bond_atom_site_label_1
_geom_bond_atom_site_label_2
_geom_bond_site_symmetry_1
_geom_bond_site_symmetry_2
O1 C8 1_555 1_555
O2 C2 1_555 1_555
N1 C1 1_555 1_555
N2 C2 1_555 1_555
N3 C4 1_555 1_555
N4 C5 1_555 1_555
C1 H1 1_555 1_555
H2 C1 1_555 1_555
H3 C1 1_555 1_555
C2 N1 1_555 1_555
C3 N2 1_555 1_555
H4 C3 1_555 1_555
H5 C3 1_555 1_555
H6 C3 1_555 1_555
C4 N2 1_555 1_555
C5 N3 1_555 1_555
H7 C5 1_555 1_555
C6 N4 1_555 1_555
H8 C6 1_555 1_555
H9 C6 1_555 1_555
H10 C6 1_555 1_555
C7 N4 1_555 1_555
C8 N1 1_555 1_555
O3 H11 1_555 1_555
O4 C9 1_555 1_555
O5 H12 1_555 1_555
C9 O3 1_555 1_555
C10 C9 1_555 1_555
C11 O5 1_555 1_555
C12 C11 1_555 1_555
C13 C12 1_555 1_555
H13 C13 1_555 1_555
C14 C13 1_555 1_555
H14 C14 1_555 1_555
C15 C14 1_555 1_555
H15 C15 1_555 1_555
C16 C15 1_555 1_555
H16 C16 1_555 1_555
C17 C12 1_555 1_555
C18 C17 1_555 1_555
H17 C18 1_555 1_555
C19 C10 1_555 1_555
H18 C19 1_555 1_555
C4 C7 1_555 1_555
C7 C8 1_555 1_555
C10 C11 1_555 1_555
C16 C17 1_555 1_555
C18 C19 1_555 1_555

#END
