
#######################################################################
#
#                 Cambridge Crystallographic Data Centre
#                                CCDC 
#
#######################################################################
#
# If this CIF has been generated from an entry in the Cambridge 
# Structural Database, then it will include bibliographic, chemical, 
# crystal, experimental, refinement or atomic coordinate data resulting 
# from the CCDC's data processing and validation procedures.
#
#######################################################################

data_KIGMUK
_chemical_formula_moiety         'C48 H60 B6 O24 P6'
_chemical_name_systematic        
'hexakis(\m~3~-Ethyl phosphato)-hexaphenyl-hexa-boron'
_symmetry_cell_setting           monoclinic
_symmetry_space_group_name_H-M   'C 2/c'
_symmetry_Int_Tables_number      15
_space_group_name_Hall           '-C 2yn'
loop_
_symmetry_equiv_pos_site_id
_symmetry_equiv_pos_as_xyz
1 x,y,z
2 -x,y,1/2-z
3 1/2+x,1/2+y,z
4 1/2-x,1/2+y,1/2-z
5 -x,-y,-z
6 x,-y,1/2+z
7 1/2-x,1/2-y,-z
8 1/2+x,1/2-y,1/2+z
_cell_length_a                   22.263(4)
_cell_length_b                   12.1682(10)
_cell_length_c                   21.746(4)
_cell_angle_alpha                90
_cell_angle_beta                 92.356(15)
_cell_angle_gamma                90
_cell_volume                     5886.03
_exptl_crystal_colour            colorless
_exptl_crystal_description       prismatic
_cell_formula_units_Z            4
loop_
_atom_site_label
_atom_site_type_symbol
_atom_site_fract_x
_atom_site_fract_y
_atom_site_fract_z
P1 P 0.13372(3) 0.72980(5) 0.07284(3)
P2 P 0.16906(3) 0.60957(6) -0.08770(3)
P3 P 0.30591(3) 0.52147(5) 0.01608(3)
O1 O 0.09740(8) 0.76972(15) 0.01578(8)
O2 O 0.12753(8) 0.70803(15) -0.08476(8)
O3 O 0.16444(8) 0.53146(15) -0.03357(8)
O4 O 0.18199(7) 0.64631(14) 0.05740(8)
O5 O 0.08666(8) 0.67650(16) 0.11431(8)
O6 O 0.16201(8) 0.82447(14) 0.10947(8)
O7 O 0.14580(8) 0.53711(15) -0.14265(8)
O8 O 0.23338(8) 0.65078(14) -0.09555(8)
O9 O 0.24515(8) 0.49212(14) 0.04199(8)
O10 O 0.32564(7) 0.63391(14) 0.03971(8)
O11 O 0.30395(8) 0.51369(15) -0.05429(8)
O12 O 0.35215(8) 0.43565(14) 0.04122(8)
B1 B 0.11483(13) 0.8067(2) -0.04630(13)
B2 B 0.18172(13) 0.5292(2) 0.03375(14)
B3 B 0.20928(13) 0.9106(2) 0.10727(14)
C1 C 0.0969(3) 0.6370(5) 0.1727(2)
H1 H 0.1404 0.6422 0.1836
H2 H 0.0856 0.5583 0.1735
C2 C 0.0629(3) 0.6967(6) 0.2203(3)
H3 H 0.0757 0.7737 0.2219
H4 H 0.0708 0.6623 0.2606
H5 H 0.0197 0.6931 0.2096
C3 C 0.21211(11) 0.9782(2) 0.17058(11)
C4 C 0.19669(12) 0.9302(2) 0.22621(12)
H6 H 0.1814 0.8573 0.2258
C5 C 0.20297(14) 0.9854(3) 0.28221(13)
H7 H 0.1920 0.9503 0.3191
C6 C 0.22524(13) 1.0916(3) 0.28385(13)
H8 H 0.2303 1.1295 0.3219
C7 C 0.24007(14) 1.1418(2) 0.22972(14)
H9 H 0.2549 1.2150 0.2305
C8 C 0.23340(13) 1.0860(2) 0.17357(13)
H10 H 0.2436 1.1223 0.1367
C9 C 0.0619(4) 0.8684(6) -0.0831(3)
C10 C 0.0090(4) 0.9013(8) -0.0568(2)
H11 H 0.0032 0.8876 -0.0145
C11 C -0.0355(3) 0.9542(7) -0.0925(3)
H12 H -0.0717 0.9767 -0.0745
C12 C -0.0270(2) 0.9742(4) -0.1545(2)
H13 H -0.0574 1.0104 -0.1788
C13 C 0.0259(2) 0.9413(4) -0.1808(2)
H14 H 0.0317 0.9550 -0.2231
C14 C 0.0704(2) 0.8884(4) -0.1451(3)
H15 H 0.1065 0.8659 -0.1631
C15 C 0.13258(13) 0.5821(3) -0.20426(12)
H16 H 0.1700 0.6000 -0.2251
H17 H 0.1075 0.6492 -0.2022
C16 C 0.0968(3) 0.4850(5) -0.2389(3)
H18 H 0.1218 0.4187 -0.2386
H19 H 0.0870 0.5068 -0.2816
H20 H 0.0596 0.4699 -0.2179
C17 C 0.35048(15) 0.3195(2) 0.02355(16)
H21 H 0.3327 0.3133 -0.0188
H22 H 0.3922 0.2914 0.0230
C18 C 0.3189(3) 0.2556(4) 0.0611(3)
H23 H 0.3333 0.2672 0.1038
H24 H 0.3243 0.1783 0.0500
H25 H 0.2762 0.2748 0.0568
C19 C 0.13831(12) 0.4474(2) 0.06775(12)
C20 C 0.15899(13) 0.3778(2) 0.11508(13)
H26 H 0.2003 0.3791 0.1277
C21 C 0.12011(15) 0.3061(2) 0.14433(14)
H27 H 0.1353 0.2588 0.1761
C22 C 0.05986(16) 0.3041(3) 0.12706(14)
H28 H 0.0333 0.2559 0.1471
C23 C 0.03814(15) 0.3725(3) 0.08049(15)
H29 H -0.0034 0.3716 0.0687
C24 C 0.07683(14) 0.4428(3) 0.05076(14)
H30 H 0.0614 0.4884 0.0184
P1F P 0.36628(3) 0.77020(5) -0.07284(3)
P2F P 0.33094(3) 0.89043(6) 0.08770(3)
P3F P 0.19409(3) 0.97853(5) -0.01608(3)
O1F O 0.40260(8) 0.73028(15) -0.01578(8)
O2F O 0.37247(8) 0.79197(15) 0.08476(8)
O3F O 0.33556(8) 0.96854(15) 0.03357(8)
O4F O 0.31801(7) 0.85369(14) -0.05740(8)
O5F O 0.41334(8) 0.82350(16) -0.11431(8)
O6F O 0.33799(8) 0.67553(14) -0.10947(8)
O7F O 0.35420(8) 0.96289(15) 0.14265(8)
O8F O 0.26662(8) 0.84922(14) 0.09555(8)
O9F O 0.25485(8) 1.00788(14) -0.04199(8)
O10F O 0.17436(7) 0.86609(14) -0.03971(8)
O11F O 0.19605(8) 0.98631(15) 0.05429(8)
O12F O 0.14785(8) 1.06435(14) -0.04122(8)
B1F B 0.38517(13) 0.6933(2) 0.04630(13)
B2F B 0.31828(13) 0.9708(2) -0.03375(14)
B3F B 0.29072(13) 0.5894(2) -0.10727(14)
C1F C 0.4031(3) 0.8630(5) -0.1727(2)
H1F H 0.3596 0.8578 -0.1836
H2F H 0.4144 0.9417 -0.1735
C2F C 0.4371(3) 0.8033(6) -0.2203(3)
H3F H 0.4243 0.7263 -0.2219
H4F H 0.4292 0.8377 -0.2606
H5F H 0.4803 0.8069 -0.2096
C3F C 0.28789(11) 0.5218(2) -0.17058(11)
C4F C 0.30331(12) 0.5698(2) -0.22621(12)
H6F H 0.3186 0.6427 -0.2258
C5F C 0.29703(14) 0.5146(3) -0.28221(13)
H7F H 0.3080 0.5497 -0.3191
C6F C 0.27476(13) 0.4084(3) -0.28385(13)
H8F H 0.2697 0.3705 -0.3219
C7F C 0.25993(14) 0.3582(2) -0.22972(14)
H9F H 0.2451 0.2850 -0.2305
C8F C 0.26660(13) 0.4140(2) -0.17357(13)
H10F H 0.2564 0.3777 -0.1367
C9F C 0.4381(4) 0.6316(6) 0.0831(3)
C10F C 0.4910(4) 0.5987(8) 0.0568(2)
H11F H 0.4968 0.6124 0.0145
C11F C 0.5355(3) 0.5458(7) 0.0925(3)
H12F H 0.5717 0.5233 0.0745
C12F C 0.5270(2) 0.5258(4) 0.1545(2)
H13F H 0.5574 0.4896 0.1788
C13F C 0.4741(2) 0.5587(4) 0.1808(2)
H14F H 0.4683 0.5450 0.2231
C14F C 0.4296(2) 0.6116(4) 0.1451(3)
H15F H 0.3935 0.6341 0.1631
C15F C 0.36742(13) 0.9179(3) 0.20426(12)
H16F H 0.3300 0.9000 0.2251
H17F H 0.3925 0.8508 0.2022
C16F C 0.4032(3) 1.0150(5) 0.2389(3)
H18F H 0.3782 1.0813 0.2386
H19F H 0.4130 0.9932 0.2816
H20F H 0.4404 1.0301 0.2179
C17F C 0.14952(15) 1.1805(2) -0.02355(16)
H21F H 0.1673 1.1867 0.0188
H22F H 0.1078 1.2086 -0.0230
C18F C 0.1811(3) 1.2444(4) -0.0611(3)
H23F H 0.1667 1.2328 -0.1038
H24F H 0.1757 1.3217 -0.0500
H25F H 0.2238 1.2252 -0.0568
C19F C 0.36169(12) 1.0526(2) -0.06775(12)
C20F C 0.34101(13) 1.1222(2) -0.11508(13)
H26F H 0.2997 1.1209 -0.1277
C21F C 0.37989(15) 1.1939(2) -0.14433(14)
H27F H 0.3647 1.2412 -0.1761
C22F C 0.44014(16) 1.1959(3) -0.12706(14)
H28F H 0.4667 1.2441 -0.1471
C23F C 0.46186(15) 1.1275(3) -0.08049(15)
H29F H 0.5034 1.1284 -0.0687
C24F C 0.42317(14) 1.0572(3) -0.05076(14)
H30F H 0.4386 1.0116 -0.0184
C25? C 0.0357(2) 0.7221(5) 0.1361(3)
H31? H 0.0345 0.8016 0.1264
H32? H 0.0355 0.7135 0.1813
C26? C -0.0177(3) 0.6664(6) 0.1069(3)
H33? H -0.0167 0.6734 0.0620
H34? H -0.0544 0.7006 0.1212
H35? H -0.0171 0.5884 0.1182
C27? C 0.0625(4) 0.8868(6) -0.0795(3)
C28? C 0.0087(4) 0.9058(8) -0.0511(3)
H36? H 0.0022 0.8750 -0.0118
C29? C -0.0357(3) 0.9698(7) -0.0803(3)
H37? H -0.0725 0.9828 -0.0608
C30? C -0.0262(2) 1.0149(4) -0.1378(2)
H38? H -0.0565 1.0586 -0.1577
C31? C 0.0276(2) 0.9959(4) -0.1662(2)
H39? H 0.0341 1.0267 -0.2055
C32? C 0.0720(2) 0.9319(4) -0.1371(3)
H40? H 0.1088 0.9189 -0.1565
H41? H 0.1437 0.5279 -0.2358
H42? H 0.1566 0.6496 -0.2101
C33? C 0.0656(3) 0.6090(7) -0.2118(3)
H43? H 0.0420 0.5429 -0.2040
H44? H 0.0565 0.6349 -0.2538
H45? H 0.0554 0.6665 -0.1825
H46? H 0.3698 0.3087 -0.0162
H47? H 0.3084 0.2932 0.0193
C34? C 0.3865(3) 0.2538(5) 0.0774(3)
H48? H 0.3686 0.2695 0.1168
H49? H 0.4287 0.2771 0.0791
H50? H 0.3842 0.1748 0.0690
loop_
_geom_bond_atom_site_label_1
_geom_bond_atom_site_label_2
_geom_bond_site_symmetry_1
_geom_bond_site_symmetry_2
P1 O1 1_555 1_555
P2 O2 1_555 1_555
P3 O9 1_555 1_555
O1 B1 1_555 1_555
O2 B1 1_555 1_555
O3 P2 1_555 1_555
O4 P1 1_555 1_555
O5 P1 1_555 1_555
O6 P1 1_555 1_555
O7 P2 1_555 1_555
O8 P2 1_555 1_555
O9 B2 1_555 1_555
O10 P3 1_555 1_555
O11 P3 1_555 1_555
O12 P3 1_555 1_555
B1 C9 1_555 1_555
B2 O3 1_555 1_555
B3 O6 1_555 1_555
C1 O5 1_555 1_555
H1 C1 1_555 1_555
H2 C1 1_555 1_555
C2 C1 1_555 1_555
H3 C2 1_555 1_555
H4 C2 1_555 1_555
H5 C2 1_555 1_555
C3 B3 1_555 1_555
C4 C3 1_555 1_555
H6 C4 1_555 1_555
C5 C4 1_555 1_555
H7 C5 1_555 1_555
C6 C5 1_555 1_555
H8 C6 1_555 1_555
C7 C6 1_555 1_555
H9 C7 1_555 1_555
C8 C3 1_555 1_555
H10 C8 1_555 1_555
C9 C10 1_555 1_555
C10 H11 1_555 1_555
C11 C10 1_555 1_555
H12 C11 1_555 1_555
C12 C11 1_555 1_555
H13 C12 1_555 1_555
C13 C12 1_555 1_555
H14 C13 1_555 1_555
C14 C9 1_555 1_555
H15 C14 1_555 1_555
C15 O7 1_555 1_555
H16 C15 1_555 1_555
H17 C15 1_555 1_555
C16 C15 1_555 1_555
H18 C16 1_555 1_555
H19 C16 1_555 1_555
H20 C16 1_555 1_555
C17 O12 1_555 1_555
H21 C17 1_555 1_555
H22 C17 1_555 1_555
C18 C17 1_555 1_555
H23 C18 1_555 1_555
H24 C18 1_555 1_555
H25 C18 1_555 1_555
C19 B2 1_555 1_555
C20 C19 1_555 1_555
H26 C20 1_555 1_555
C21 C20 1_555 1_555
H27 C21 1_555 1_555
C22 C21 1_555 1_555
H28 C22 1_555 1_555
C23 C22 1_555 1_555
H29 C23 1_555 1_555
C24 C19 1_555 1_555
H30 C24 1_555 1_555
P1F O1F 1_555 1_555
P2F O2F 1_555 1_555
P3F O9F 1_555 1_555
O1F B1F 1_555 1_555
O2F B1F 1_555 1_555
O3F P2F 1_555 1_555
O4F P1F 1_555 1_555
O5F P1F 1_555 1_555
O6F P1F 1_555 1_555
O7F P2F 1_555 1_555
O8F B3 1_555 1_555
O9F B2F 1_555 1_555
O10F B1 1_555 1_555
O11F B3 1_555 1_555
O12F P3F 1_555 1_555
B1F O10 1_555 1_555
B2F O3F 1_555 1_555
B3F O8 1_555 1_555
C1F O5F 1_555 1_555
H1F C1F 1_555 1_555
H2F C1F 1_555 1_555
C2F C1F 1_555 1_555
H3F C2F 1_555 1_555
H4F C2F 1_555 1_555
H5F C2F 1_555 1_555
C3F B3F 1_555 1_555
C4F C3F 1_555 1_555
H6F C4F 1_555 1_555
C5F C4F 1_555 1_555
H7F C5F 1_555 1_555
C6F C5F 1_555 1_555
H8F C6F 1_555 1_555
C7F C6F 1_555 1_555
H9F C7F 1_555 1_555
C8F C3F 1_555 1_555
H10F C8F 1_555 1_555
C9F B1F 1_555 1_555
C10F C9F 1_555 1_555
H11F C10F 1_555 1_555
C11F C10F 1_555 1_555
H12F C11F 1_555 1_555
C12F C11F 1_555 1_555
H13F C12F 1_555 1_555
C13F C12F 1_555 1_555
H14F C13F 1_555 1_555
C14F C9F 1_555 1_555
H15F C14F 1_555 1_555
C15F O7F 1_555 1_555
H16F C15F 1_555 1_555
H17F C15F 1_555 1_555
C16F C15F 1_555 1_555
H18F C16F 1_555 1_555
H19F C16F 1_555 1_555
H20F C16F 1_555 1_555
C17F O12F 1_555 1_555
H21F C17F 1_555 1_555
H22F C17F 1_555 1_555
C18F C17F 1_555 1_555
H23F C18F 1_555 1_555
H24F C18F 1_555 1_555
H25F C18F 1_555 1_555
C19F B2F 1_555 1_555
C20F C19F 1_555 1_555
H26F C20F 1_555 1_555
C21F C20F 1_555 1_555
H27F C21F 1_555 1_555
C22F C21F 1_555 1_555
H28F C22F 1_555 1_555
C23F C22F 1_555 1_555
H29F C23F 1_555 1_555
C24F C19F 1_555 1_555
H30F C24F 1_555 1_555
O4 B2 1_555 1_555
O11 B3F 1_555 1_555
C7 C8 1_555 1_555
C13 C14 1_555 1_555
C23 C24 1_555 1_555
P2F O8F 1_555 1_555
P3F O10F 1_555 1_555
P3F O11F 1_555 1_555
O4F B2F 1_555 1_555
O6F B3F 1_555 1_555
C7F C8F 1_555 1_555
C13F C14F 1_555 1_555
C23F C24F 1_555 1_555

#END
