
#######################################################################
#
#                 Cambridge Crystallographic Data Centre
#                                CCDC 
#
#######################################################################
#
# If this CIF has been generated from an entry in the Cambridge 
# Structural Database, then it will include bibliographic, chemical, 
# crystal, experimental, refinement or atomic coordinate data resulting 
# from the CCDC's data processing and validation procedures.
#
#######################################################################

data_KIGNAR
_chemical_formula_moiety         'C54 H60 B6 O30 P6,3(C7 H8)'
_chemical_name_systematic        
'hexakis(\m~3~-Ethyl phosphato)-hexakis(4-formylphenyl)-hexa-boron toluene solvate'
_symmetry_cell_setting           triclinic
_symmetry_space_group_name_H-M   'P -1'
_symmetry_Int_Tables_number      2
_space_group_name_Hall           '-P 1'
loop_
_symmetry_equiv_pos_site_id
_symmetry_equiv_pos_as_xyz
1 x,y,z
2 -x,-y,-z
_cell_length_a                   12.7459(15)
_cell_length_b                   13.7577(14)
_cell_length_c                   14.0034(18)
_cell_angle_alpha                66.546(9)
_cell_angle_beta                 65.920(10)
_cell_angle_gamma                77.399(10)
_cell_volume                     2052.08
_exptl_crystal_colour            colorless
_exptl_crystal_description       prismatic
_cell_formula_units_Z            1
loop_
_atom_site_label
_atom_site_type_symbol
_atom_site_fract_x
_atom_site_fract_y
_atom_site_fract_z
P1 P 0.49154(4) 0.18710(4) 0.28392(4)
P2 P 0.58782(4) 0.18181(4) 0.51736(4)
P3 P 0.70855(4) -0.05930(4) 0.31577(4)
O1 O 0.47787(13) 0.09733(11) 0.25256(12)
O2 O 0.42061(12) 0.16515(11) 0.40843(12)
O3 O 0.47975(12) 0.25027(11) 0.50107(12)
O4 O 0.68042(12) 0.18077(11) 0.40652(12)
O5 O 0.68518(12) 0.02967(11) 0.36273(12)
O6 O 0.62893(12) -0.04698(11) 0.25389(12)
O7 O 0.61707(12) 0.20234(12) 0.25621(12)
O8 O 0.45210(12) 0.29347(11) 0.20820(12)
O9 O 0.56025(12) 0.06877(11) 0.59803(11)
O10 O 0.63807(13) 0.23384(11) 0.56808(12)
O11 O 0.70273(12) -0.16668(11) 0.40955(12)
O12 O 0.36656(15) -0.25376(14) 0.01014(15)
O13 O 0.05182(15) 0.66038(14) 0.29806(17)
O14 O 1.25680(13) 0.24235(14) 0.02889(14)
B1 B 0.5028(2) -0.01949(18) 0.2779(2)
B2 B 0.3795(2) 0.23138(18) 0.48239(19)
B3 B 0.7028(2) 0.14755(18) 0.31051(19)
C1 C 0.46308(18) -0.05667(16) 0.20361(17)
C2 C 0.51086(18) -0.15224(16) 0.18207(17)
H1 H 0.5697 -0.1927 0.2095
C3 C 0.47432(18) -0.18871(17) 0.12204(18)
H2 H 0.5063 -0.2541 0.1106
C4 C 0.38980(19) -0.12809(17) 0.07845(17)
C5 C 0.34455(19) -0.03120(18) 0.09469(18)
H3 H 0.2896 0.0115 0.0628
C6 C 0.38016(18) 0.00284(17) 0.15770(18)
H4 H 0.3473 0.0679 0.1697
C7 C 0.3487(2) -0.1641(2) 0.01388(18)
H5 H 0.3053 -0.1137 -0.0278
C8 C 0.3526(2) 0.30930(19) 0.1755(2)
H6 H 0.2804 0.3105 0.2393
H7 H 0.3521 0.2505 0.1519
C9 C 0.3609(2) 0.41332(19) 0.0806(2)
H8 H 0.3599 0.4711 0.1051
H9 H 0.2954 0.4250 0.0567
H10 H 0.4329 0.4116 0.0181
C10 C 0.31586(17) 0.34365(16) 0.43252(17)
C11 C 0.19669(18) 0.35586(16) 0.45760(18)
H11 H 0.1514 0.2974 0.5095
C12 C 0.14265(19) 0.45095(17) 0.40881(19)
H12 H 0.0615 0.4572 0.4276
C13 C 0.20876(19) 0.53756(17) 0.33166(18)
C14 C 0.32739(19) 0.52780(17) 0.30592(19)
H13 H 0.3724 0.5864 0.2540
C15 C 0.38017(18) 0.43200(16) 0.35640(18)
H14 H 0.4610 0.4264 0.3390
C16 C 0.1542(2) 0.64093(18) 0.2793(2)
H15 H 0.2034 0.6964 0.2268
C17 C 0.6917(2) 0.33638(17) 0.50443(19)
H16 H 0.6502 0.3883 0.5423
H17 H 0.6884 0.3650 0.4286
C18 C 0.8146(2) 0.3176(2) 0.4976(2)
H18 H 0.8176 0.2771 0.5721
H19 H 0.8480 0.3859 0.4686
H20 H 0.8585 0.2775 0.4476
C19 C 0.82995(17) 0.17732(15) 0.22317(17)
C20 C 0.91994(18) 0.15911(17) 0.26338(17)
H21 H 0.9036 0.1295 0.3415
C21 C 1.03204(18) 0.18333(17) 0.19167(18)
H22 H 1.0913 0.1703 0.2207
C22 C 1.05712(18) 0.22705(16) 0.07643(18)
C23 C 0.96916(18) 0.24659(17) 0.03435(18)
H23 H 0.9857 0.2770 -0.0438
C24 C 0.85654(18) 0.22132(16) 0.10759(17)
H24 H 0.7974 0.2342 0.0784
C25 C 1.17669(18) 0.25302(17) -0.00068(19)
H25 H 1.1914 0.2798 -0.0785
O15 O 0.8272(8) -0.0620(7) 0.2196(7)
C26 C 0.9313(3) -0.0971(3) 0.2497(3)
H26 H 0.9338 -0.1748 0.2897
H27 H 0.9305 -0.0614 0.2989
C27 C 1.0356(9) -0.0683(7) 0.1423(9)
H28 H 1.0331 -0.1008 0.0924
H29 H 1.1061 -0.0945 0.1594
H30 H 1.0347 0.0091 0.1058
P1A P 0.50846(4) -0.18710(4) 0.71608(4)
P2A P 0.41218(4) -0.18181(4) 0.48264(4)
P3A P 0.29145(4) 0.05930(4) 0.68423(4)
O1A O 0.52213(13) -0.09733(11) 0.74744(12)
O2A O 0.57939(12) -0.16515(11) 0.59157(12)
O3A O 0.52025(12) -0.25027(11) 0.49893(12)
O4A O 0.31958(12) -0.18077(11) 0.59348(12)
O5A O 0.31482(12) -0.02967(11) 0.63727(12)
O6A O 0.37107(12) 0.04698(11) 0.74611(12)
O7A O 0.38293(12) -0.20234(12) 0.74379(12)
O8A O 0.54790(12) -0.29347(11) 0.79180(12)
O9A O 0.43975(12) -0.06877(11) 0.40197(11)
O10A O 0.36193(13) -0.23384(11) 0.43192(12)
O11A O 0.29727(12) 0.16668(11) 0.59045(12)
O12A O 0.63344(15) 0.25376(14) 0.98986(15)
O13A O 0.94818(15) -0.66038(14) 0.70194(17)
O14A O -0.25680(13) -0.24235(14) 0.97111(14)
B1A B 0.4972(2) 0.01949(18) 0.7221(2)
B2A B 0.6205(2) -0.23138(18) 0.51761(19)
B3A B 0.2972(2) -0.14755(18) 0.68949(19)
C1A C 0.53692(18) 0.05667(16) 0.79639(17)
C2A C 0.48914(18) 0.15224(16) 0.81793(17)
H1A H 0.4303 0.1927 0.7905
C3A C 0.52568(18) 0.18871(17) 0.87796(18)
H2A H 0.4937 0.2541 0.8894
C4A C 0.61020(19) 0.12809(17) 0.92155(17)
C5A C 0.65545(19) 0.03120(18) 0.90531(18)
H3A H 0.7104 -0.0115 0.9372
C6A C 0.61984(18) -0.00284(17) 0.84230(18)
H4A H 0.6527 -0.0679 0.8303
C7A C 0.6513(2) 0.1641(2) 0.98612(18)
H5A H 0.6947 0.1137 1.0278
C8A C 0.6474(2) -0.30930(19) 0.8245(2)
H6A H 0.7196 -0.3105 0.7607
H7A H 0.6479 -0.2505 0.8481
C9A C 0.6391(2) -0.41332(19) 0.9194(2)
H8A H 0.6401 -0.4711 0.8949
H9A H 0.7046 -0.4250 0.9433
H10A H 0.5671 -0.4116 0.9819
C10A C 0.68414(17) -0.34365(16) 0.56748(17)
C11A C 0.80331(18) -0.35586(16) 0.54240(18)
H11A H 0.8486 -0.2974 0.4905
C12A C 0.85735(19) -0.45095(17) 0.59119(19)
H12A H 0.9385 -0.4572 0.5724
C13A C 0.79124(19) -0.53756(17) 0.66834(18)
C14A C 0.67261(19) -0.52780(17) 0.69408(19)
H13A H 0.6276 -0.5864 0.7460
C15A C 0.61983(18) -0.43200(16) 0.64360(18)
H14A H 0.5390 -0.4264 0.6610
C16A C 0.8458(2) -0.64093(18) 0.7207(2)
H15A H 0.7966 -0.6964 0.7732
C17A C 0.3083(2) -0.33638(17) 0.49557(19)
H16A H 0.3498 -0.3883 0.4577
H17A H 0.3116 -0.3650 0.5714
C18A C 0.1854(2) -0.3176(2) 0.5024(2)
H18A H 0.1824 -0.2771 0.4279
H19A H 0.1520 -0.3859 0.5314
H20A H 0.1415 -0.2775 0.5524
C19A C 0.17005(17) -0.17732(15) 0.77683(17)
C20A C 0.08006(18) -0.15911(17) 0.73662(17)
H21A H 0.0964 -0.1295 0.6585
C21A C -0.03204(18) -0.18333(17) 0.80833(18)
H22A H -0.0913 -0.1703 0.7793
C22A C -0.05712(18) -0.22705(16) 0.92357(18)
C23A C 0.03084(18) -0.24659(17) 0.96565(18)
H23A H 0.0143 -0.2770 1.0438
C24A C 0.14346(18) -0.22132(16) 0.89241(17)
H24A H 0.2026 -0.2342 0.9216
C25A C -0.17669(18) -0.25302(17) 1.00068(19)
H25A H -0.1914 -0.2798 1.0785
O15A O 0.1728(8) 0.0620(7) 0.7804(7)
C26A C 0.0687(3) 0.0971(3) 0.7503(3)
H26A H 0.0662 0.1748 0.7103
H27A H 0.0695 0.0614 0.7011
C27A C -0.0356(9) 0.0683(7) 0.8577(9)
H28A H -0.0331 0.1008 0.9076
H29A H -0.1061 0.0945 0.8406
H30A H -0.0347 -0.0091 0.8942
C28 C 0.8861(2) 0.50404(18) 0.2152(2)
C29 C 0.8185(2) 0.47180(19) 0.1771(2)
H31 H 0.8526 0.4274 0.1333
C30 C 0.7022(2) 0.50375(19) 0.2024(2)
H32 H 0.6575 0.4814 0.1757
C31 C 0.6504(2) 0.56875(18) 0.26723(19)
H33 H 0.5710 0.5910 0.2840
C32 C 0.7163(2) 0.60043(18) 0.30683(19)
H34 H 0.6818 0.6441 0.3514
C33 C 0.8332(2) 0.56807(18) 0.2810(2)
H35 H 0.8775 0.5899 0.3086
C34 C 1.0131(2) 0.4682(2) 0.1878(3)
H36 H 1.0218 0.3973 0.2410
H37 H 1.0532 0.5183 0.1926
H38 H 1.0461 0.4658 0.1121
O16? O 0.8372(10) -0.0458(9) 0.2366(9)
C35? C 0.9043(5) -0.1196(4) 0.1798(5)
H39? H 0.8774 -0.1130 0.1202
H40? H 0.8964 -0.1935 0.2331
C36? C 1.0276(12) -0.0921(10) 0.1307(13)
H41? H 1.0337 -0.0179 0.0804
H42? H 1.0755 -0.1385 0.0889
H43? H 1.0540 -0.1017 0.1907
H44? H -0.0255 -0.1533 0.4294
H45? H 0.2111 0.0488 0.4825
H46? H 0.2203 0.0876 0.3555
C37? C -0.1392(3) 0.0012(4) 0.5779(3)
H47? H 0.1380 -0.0642 0.3732
H48? H -0.0462 0.1070 0.5738
C38? C 0.0674(3) -0.0476(3) 0.4253(3)
C39? C 0.0297(4) 0.1005(3) 0.5413(4)
C40? C 0.0613(3) 0.0298(3) 0.4682(3)
C41? C -0.0420(3) 0.0542(3) 0.5445(3)
H49? H -0.2098 0.0179 0.6300
H50? H 0.1482 0.1596 0.4301
C42? C 0.1701(6) 0.0866(6) 0.4307(6)
H51? H 0.1994 0.1123 0.4422
C43? C 0.1330(3) 0.0761(4) 0.4650(4)
loop_
_geom_bond_atom_site_label_1
_geom_bond_atom_site_label_2
_geom_bond_site_symmetry_1
_geom_bond_site_symmetry_2
P1 O1 1_555 1_555
P2 O3 1_555 1_555
P3 O5 1_555 1_555
O1 B1 1_555 1_555
O2 P1 1_555 1_555
O3 B2 1_555 1_555
O4 P2 1_555 1_555
O5 B3 1_555 1_555
O6 P3 1_555 1_555
O7 P1 1_555 1_555
O8 P1 1_555 1_555
O9 P2 1_555 1_555
O10 P2 1_555 1_555
O11 P3 1_555 1_555
O12 C7 1_555 1_555
O13 C16 1_555 1_555
O14 C25 1_555 1_555
B1 O6 1_555 1_555
B2 O2 1_555 1_555
B3 O4 1_555 1_555
C1 B1 1_555 1_555
C2 C1 1_555 1_555
H1 C2 1_555 1_555
C3 C2 1_555 1_555
H2 C3 1_555 1_555
C4 C3 1_555 1_555
C5 C4 1_555 1_555
H3 C5 1_555 1_555
C6 C1 1_555 1_555
H4 C6 1_555 1_555
C7 C4 1_555 1_555
H5 C7 1_555 1_555
C8 O8 1_555 1_555
H6 C8 1_555 1_555
H7 C8 1_555 1_555
C9 C8 1_555 1_555
H8 C9 1_555 1_555
H9 C9 1_555 1_555
H10 C9 1_555 1_555
C10 B2 1_555 1_555
C11 C10 1_555 1_555
H11 C11 1_555 1_555
C12 C11 1_555 1_555
H12 C12 1_555 1_555
C13 C12 1_555 1_555
C14 C13 1_555 1_555
H13 C14 1_555 1_555
C15 C10 1_555 1_555
H14 C15 1_555 1_555
C16 C13 1_555 1_555
H15 C16 1_555 1_555
C17 O10 1_555 1_555
H16 C17 1_555 1_555
H17 C17 1_555 1_555
C18 C17 1_555 1_555
H18 C18 1_555 1_555
H19 C18 1_555 1_555
H20 C18 1_555 1_555
C19 B3 1_555 1_555
C20 C19 1_555 1_555
H21 C20 1_555 1_555
C21 C20 1_555 1_555
H22 C21 1_555 1_555
C22 C21 1_555 1_555
C23 C22 1_555 1_555
H23 C23 1_555 1_555
C24 C19 1_555 1_555
H24 C24 1_555 1_555
C25 C22 1_555 1_555
H25 C25 1_555 1_555
O15 P3 1_555 1_555
C26 O15 1_555 1_555
H26 C26 1_555 1_555
H27 C26 1_555 1_555
C27 C26 1_555 1_555
H28 C27 1_555 1_555
H29 C27 1_555 1_555
H30 C27 1_555 1_555
C28 C29 1_555 1_555
C29 H31 1_555 1_555
C30 C29 1_555 1_555
H32 C30 1_555 1_555
C31 C30 1_555 1_555
H33 C31 1_555 1_555
C32 C31 1_555 1_555
H34 C32 1_555 1_555
C33 C28 1_555 1_555
H35 C33 1_555 1_555
C34 C28 1_555 1_555
H36 C34 1_555 1_555
H37 C34 1_555 1_555
H38 C34 1_555 1_555
P1A O1A 1_555 1_555
P2A O3A 1_555 1_555
P3A O5A 1_555 1_555
O1A B1A 1_555 1_555
O2A P1A 1_555 1_555
O3A B2A 1_555 1_555
O4A P2A 1_555 1_555
O5A B3A 1_555 1_555
O6A P3A 1_555 1_555
O7A P1A 1_555 1_555
O8A P1A 1_555 1_555
O9A B1 1_555 1_555
O10A P2A 1_555 1_555
O11A B2 1_555 1_555
O12A C7A 1_555 1_555
O13A C16A 1_555 1_555
O14A C25A 1_555 1_555
B1A O9 1_555 1_555
B2A O11 1_555 1_555
B3A O4A 1_555 1_555
C1A B1A 1_555 1_555
C2A C1A 1_555 1_555
H1A C2A 1_555 1_555
C3A C2A 1_555 1_555
H2A C3A 1_555 1_555
C4A C3A 1_555 1_555
C5A C4A 1_555 1_555
H3A C5A 1_555 1_555
C6A C1A 1_555 1_555
H4A C6A 1_555 1_555
C7A C4A 1_555 1_555
H5A C7A 1_555 1_555
C8A O8A 1_555 1_555
H6A C8A 1_555 1_555
H7A C8A 1_555 1_555
C9A C8A 1_555 1_555
H8A C9A 1_555 1_555
H9A C9A 1_555 1_555
H10A C9A 1_555 1_555
C10A B2A 1_555 1_555
C11A C10A 1_555 1_555
H11A C11A 1_555 1_555
C12A C11A 1_555 1_555
H12A C12A 1_555 1_555
C13A C12A 1_555 1_555
C14A C13A 1_555 1_555
H13A C14A 1_555 1_555
C15A C10A 1_555 1_555
H14A C15A 1_555 1_555
C16A C13A 1_555 1_555
H15A C16A 1_555 1_555
C17A O10A 1_555 1_555
H16A C17A 1_555 1_555
H17A C17A 1_555 1_555
C18A C17A 1_555 1_555
H18A C18A 1_555 1_555
H19A C18A 1_555 1_555
H20A C18A 1_555 1_555
C19A B3A 1_555 1_555
C20A C19A 1_555 1_555
H21A C20A 1_555 1_555
C21A C20A 1_555 1_555
H22A C21A 1_555 1_555
C22A C21A 1_555 1_555
C23A C22A 1_555 1_555
H23A C23A 1_555 1_555
C24A C19A 1_555 1_555
H24A C24A 1_555 1_555
C25A C22A 1_555 1_555
H25A C25A 1_555 1_555
O15A P3A 1_555 1_555
C26A O15A 1_555 1_555
H26A C26A 1_555 1_555
H27A C26A 1_555 1_555
C27A C26A 1_555 1_555
H28A C27A 1_555 1_555
H29A C27A 1_555 1_555
H30A C27A 1_555 1_555
O7 B3 1_555 1_555
C5 C6 1_555 1_555
C14 C15 1_555 1_555
C23 C24 1_555 1_555
C32 C33 1_555 1_555
P2A O9A 1_555 1_555
P3A O11A 1_555 1_555
O2A B2A 1_555 1_555
O6A B1A 1_555 1_555
O7A B3A 1_555 1_555
C5A C6A 1_555 1_555
C14A C15A 1_555 1_555
C23A C24A 1_555 1_555

#END
