
#######################################################################
#
#                 Cambridge Crystallographic Data Centre
#                                CCDC 
#
#######################################################################
#
# If this CIF has been generated from an entry in the Cambridge 
# Structural Database, then it will include bibliographic, chemical, 
# crystal, experimental, refinement or atomic coordinate data resulting 
# from the CCDC's data processing and validation procedures.
#
#######################################################################

data_KIGNUM
_chemical_formula_moiety         'C44 H46 N10'
_chemical_name_systematic        
cis-5,5,10,15,15,20-hexamethyl-10,20-bis[(4-phenyl-1H-1,2,3-triazol-1-yl)methyl]-5,10,15,20,22,24-hexahydroporphyrin
_symmetry_cell_setting           monoclinic
_symmetry_space_group_name_H-M   'P 21/n'
_symmetry_Int_Tables_number      14
_space_group_name_Hall           '-P 2yn'
loop_
_symmetry_equiv_pos_site_id
_symmetry_equiv_pos_as_xyz
1 x,y,z
2 1/2-x,1/2+y,1/2-z
3 -x,-y,-z
4 1/2+x,1/2-y,1/2+z
_cell_length_a                   12.5203(6)
_cell_length_b                   19.8938(10)
_cell_length_c                   16.9880(9)
_cell_angle_alpha                90
_cell_angle_beta                 102.163(2)
_cell_angle_gamma                90
_cell_volume                     4136.33
_exptl_crystal_colour            'whiteish white'
_exptl_crystal_description       block
_cell_formula_units_Z            4
loop_
_atom_site_label
_atom_site_type_symbol
_atom_site_fract_x
_atom_site_fract_y
_atom_site_fract_z
N1 N 0.16740(16) 0.56521(10) 0.29708(12)
H1 H 0.1821 0.6027 0.2765
N2 N 0.43352(17) 0.53654(11) 0.29869(14)
H2 H 0.4233 0.5134 0.3392
N3 N 0.49323(17) 0.64920(10) 0.44868(13)
H3 H 0.4646 0.6737 0.4080
N4 N 0.23174(17) 0.65911(11) 0.46795(14)
H4 H 0.2489 0.6201 0.4887
N5 N 0.08412(19) 0.48365(11) 0.10901(13)
N6 N 0.0710(2) 0.43153(13) 0.05716(15)
N7 N -0.0280(2) 0.40807(13) 0.05256(15)
N8 N 0.57117(19) 0.78137(11) 0.59004(15)
N9 N 0.5869(2) 0.81577(13) 0.65921(17)
N10 N 0.6889(2) 0.80616(13) 0.69676(16)
C1 C 0.2013(2) 0.50314(12) 0.27641(15)
C2 C 0.1620(2) 0.45687(14) 0.32182(18)
H5 H 0.1719 0.4106 0.3204
C3 C 0.1034(2) 0.49176(15) 0.37151(18)
H6 H 0.0685 0.4723 0.4090
C4 C 0.1068(2) 0.55888(14) 0.35521(16)
C5 C 0.2612(2) 0.49495(12) 0.20907(16)
C6 C 0.3641(2) 0.53727(13) 0.22472(16)
C7 C 0.5222(2) 0.57810(13) 0.29936(18)
C8 C 0.5074(2) 0.60481(16) 0.2245(2)
H7 H 0.5541 0.6350 0.2070
C9 C 0.4093(2) 0.57927(15) 0.17761(18)
H8 H 0.3805 0.5894 0.1239
C10 C 0.6124(2) 0.58532(14) 0.37293(19)
C11 C 0.5673(2) 0.59854(13) 0.44707(18)
C12 C 0.4712(2) 0.65531(13) 0.52443(16)
C13 C 0.5319(3) 0.60780(14) 0.57072(19)
H9 H 0.5335 0.5999 0.6249
C14 C 0.5921(2) 0.57249(15) 0.5227(2)
H10 H 0.6404 0.5374 0.5398
C15 C 0.4027(2) 0.71226(13) 0.54514(16)
C16 C 0.2955(2) 0.71558(13) 0.48531(16)
C17 C 0.1372(2) 0.67303(14) 0.41329(16)
C18 C 0.1418(3) 0.73956(16) 0.3963(2)
H11 H 0.0886 0.7637 0.3611
C19 C 0.2405(3) 0.76586(15) 0.4410(2)
H12 H 0.2638 0.8102 0.4401
C20 C 0.0541(2) 0.61875(15) 0.38572(17)
C21 C 0.1876(2) 0.51882(14) 0.12845(16)
H13 H 0.1739 0.5666 0.1319
H14 H 0.2263 0.5120 0.0853
C22 C -0.0783(2) 0.44439(15) 0.10143(17)
C23 C -0.0068(2) 0.49265(15) 0.13727(18)
H15 H -0.0189 0.5251 0.1738
C24 C -0.1893(3) 0.42634(17) 0.1110(2)
C25 C -0.2471(3) 0.3756(2) 0.0684(3)
H16 H -0.2165 0.3525 0.0310
C26 C -0.3490(4) 0.3572(3) 0.0786(3)
H17 H -0.3865 0.3227 0.0475
C27 C -0.3943(4) 0.3883(3) 0.1324(4)
H18 H -0.4634 0.3756 0.1387
C28 C -0.3402(4) 0.4382(3) 0.1780(4)
H19 H -0.3719 0.4601 0.2157
C29 C -0.2368(4) 0.4566(3) 0.1679(3)
H20 H -0.1988 0.4902 0.2003
C30 C 0.2905(2) 0.42036(14) 0.20043(19)
H21 H 0.3354 0.4048 0.2500
H22 H 0.3295 0.4157 0.1578
H23 H 0.2247 0.3941 0.1881
C31 C 0.6827(3) 0.52062(18) 0.3863(2)
H24 H 0.7395 0.5257 0.4336
H25 H 0.7147 0.5131 0.3405
H26 H 0.6374 0.4830 0.3930
C32 C 0.6865(2) 0.64504(17) 0.3608(2)
H27 H 0.6445 0.6858 0.3547
H28 H 0.7153 0.6375 0.3135
H29 H 0.7456 0.6488 0.4069
C33 C 0.4633(2) 0.77969(13) 0.53842(18)
H30 H 0.4698 0.7862 0.4830
H31 H 0.4203 0.8165 0.5527
C34 C 0.7392(3) 0.76557(14) 0.65085(18)
C35 C 0.6634(2) 0.75001(14) 0.58271(18)
H32 H 0.6737 0.7232 0.5401
C36 C 0.8522(3) 0.74325(14) 0.67677(19)
C37 C 0.9171(3) 0.73151(18) 0.6219(2)
H33 H 0.8892 0.7388 0.5674
C38 C 1.0240(3) 0.7090(2) 0.6474(3)
H34 H 1.0675 0.7018 0.6101
C39 C 1.0650(4) 0.6972(2) 0.7278(3)
H35 H 1.1362 0.6818 0.7449
C40 C 1.0009(4) 0.70831(19) 0.7824(3)
H36 H 1.0288 0.7003 0.8368
C41 C 0.8958(3) 0.73115(16) 0.7578(2)
H37 H 0.8532 0.7386 0.7956
C42 C 0.3841(3) 0.70370(16) 0.63062(18)
H38 H 0.3389 0.7396 0.6426
H39 H 0.4531 0.7046 0.6682
H40 H 0.3486 0.6615 0.6348
C43 C 0.0029(3) 0.59648(19) 0.45675(19)
H41 H -0.0502 0.5619 0.4390
H42 H -0.0321 0.6343 0.4759
H43 H 0.0590 0.5795 0.4995
C44 C -0.0374(2) 0.64548(19) 0.3178(2)
H44 H -0.0067 0.6592 0.2731
H45 H -0.0720 0.6833 0.3371
H46 H -0.0903 0.6107 0.3009
loop_
_geom_bond_atom_site_label_1
_geom_bond_atom_site_label_2
_geom_bond_site_symmetry_1
_geom_bond_site_symmetry_2
N1 H1 1_555 1_555
N2 H2 1_555 1_555
N3 H3 1_555 1_555
N4 H4 1_555 1_555
N5 N6 1_555 1_555
N6 N7 1_555 1_555
N7 C22 1_555 1_555
N8 N9 1_555 1_555
N9 N10 1_555 1_555
N10 C34 1_555 1_555
C1 N1 1_555 1_555
C2 C1 1_555 1_555
H5 C2 1_555 1_555
C3 C2 1_555 1_555
H6 C3 1_555 1_555
C4 N1 1_555 1_555
C5 C1 1_555 1_555
C6 N2 1_555 1_555
C7 N2 1_555 1_555
C8 C7 1_555 1_555
H7 C8 1_555 1_555
C9 C6 1_555 1_555
H8 C9 1_555 1_555
C10 C7 1_555 1_555
C11 N3 1_555 1_555
C12 N3 1_555 1_555
C13 C12 1_555 1_555
H9 C13 1_555 1_555
C14 C11 1_555 1_555
H10 C14 1_555 1_555
C15 C12 1_555 1_555
C16 N4 1_555 1_555
C17 N4 1_555 1_555
C18 C17 1_555 1_555
H11 C18 1_555 1_555
C19 C16 1_555 1_555
H12 C19 1_555 1_555
C20 C4 1_555 1_555
C21 N5 1_555 1_555
H13 C21 1_555 1_555
H14 C21 1_555 1_555
C22 C23 1_555 1_555
C23 N5 1_555 1_555
H15 C23 1_555 1_555
C24 C22 1_555 1_555
C25 C24 1_555 1_555
H16 C25 1_555 1_555
C26 C25 1_555 1_555
H17 C26 1_555 1_555
C27 C26 1_555 1_555
H18 C27 1_555 1_555
C28 C27 1_555 1_555
H19 C28 1_555 1_555
C29 C24 1_555 1_555
H20 C29 1_555 1_555
C30 C5 1_555 1_555
H21 C30 1_555 1_555
H22 C30 1_555 1_555
H23 C30 1_555 1_555
C31 C10 1_555 1_555
H24 C31 1_555 1_555
H25 C31 1_555 1_555
H26 C31 1_555 1_555
C32 C10 1_555 1_555
H27 C32 1_555 1_555
H28 C32 1_555 1_555
H29 C32 1_555 1_555
C33 N8 1_555 1_555
H30 C33 1_555 1_555
H31 C33 1_555 1_555
C34 C35 1_555 1_555
C35 N8 1_555 1_555
H32 C35 1_555 1_555
C36 C34 1_555 1_555
C37 C36 1_555 1_555
H33 C37 1_555 1_555
C38 C37 1_555 1_555
H34 C38 1_555 1_555
C39 C38 1_555 1_555
H35 C39 1_555 1_555
C40 C39 1_555 1_555
H36 C40 1_555 1_555
C41 C36 1_555 1_555
H37 C41 1_555 1_555
C42 C15 1_555 1_555
H38 C42 1_555 1_555
H39 C42 1_555 1_555
H40 C42 1_555 1_555
C43 C20 1_555 1_555
H41 C43 1_555 1_555
H42 C43 1_555 1_555
H43 C43 1_555 1_555
C44 C20 1_555 1_555
H44 C44 1_555 1_555
H45 C44 1_555 1_555
H46 C44 1_555 1_555
C3 C4 1_555 1_555
C5 C6 1_555 1_555
C5 C21 1_555 1_555
C8 C9 1_555 1_555
C10 C11 1_555 1_555
C13 C14 1_555 1_555
C15 C16 1_555 1_555
C15 C33 1_555 1_555
C17 C20 1_555 1_555
C18 C19 1_555 1_555
C28 C29 1_555 1_555
C40 C41 1_555 1_555

#END
