
#######################################################################
#
#                 Cambridge Crystallographic Data Centre
#                                CCDC 
#
#######################################################################
#
# If this CIF has been generated from an entry in the Cambridge 
# Structural Database, then it will include bibliographic, chemical, 
# crystal, experimental, refinement or atomic coordinate data resulting 
# from the CCDC's data processing and validation procedures.
#
#######################################################################

data_KIGQID
_chemical_formula_moiety         'C44 H60 N2 O2'
_chemical_name_systematic        
2,2'-{ethane-1,2-diylbis[(phenylazanediyl)methylene]}bis(4,6-di-t-butylphenol)
_symmetry_cell_setting           monoclinic
_symmetry_space_group_name_H-M   'I 2/c'
_symmetry_Int_Tables_number      15
_space_group_name_Hall           '-I 2yc'
loop_
_symmetry_equiv_pos_site_id
_symmetry_equiv_pos_as_xyz
1 x,y,z
2 -x,y,1/2-z
3 1/2+x,1/2+y,1/2+z
4 1/2-x,1/2+y,-z
5 -x,-y,-z
6 x,-y,1/2+z
7 1/2-x,1/2-y,1/2-z
8 1/2+x,1/2-y,z
_cell_length_a                   13.5259(12)
_cell_length_b                   9.7850(9)
_cell_length_c                   29.268(3)
_cell_angle_alpha                90
_cell_angle_beta                 95.506(5)
_cell_angle_gamma                90
_cell_volume                     3855.77
_exptl_crystal_colour            colorless
_exptl_crystal_description       block
_cell_formula_units_Z            4
loop_
_atom_site_label
_atom_site_type_symbol
_atom_site_fract_x
_atom_site_fract_y
_atom_site_fract_z
O1 O 0.12566(8) -0.06029(12) 0.22579(3)
H1 H 0.1638 -0.0283 0.2465
N1 N 0.29817(9) 0.07134(12) 0.26137(4)
C1 C 0.32590(12) -0.08635(16) 0.32610(6)
H2 H 0.3104 -0.1590 0.3062
C2 C 0.34723(13) -0.11158(18) 0.37227(6)
H3 H 0.3453 -0.2008 0.3831
C3 C 0.37138(13) -0.00637(19) 0.40259(6)
H4 H 0.3872 -0.0239 0.4337
C4 C 0.37162(13) 0.12485(19) 0.38600(6)
H5 H 0.3869 0.1969 0.4062
C5 C 0.34950(12) 0.15127(16) 0.33987(5)
H6 H 0.3496 0.2411 0.3295
C6 C 0.32706(10) 0.04592(15) 0.30861(5)
C7 C 0.29774(11) 0.21347(15) 0.24553(5)
H7 H 0.3539 0.2614 0.2612
H8 H 0.3050 0.2152 0.2129
C8 C 0.33343(12) -0.02495(16) 0.22733(5)
H9 H 0.3352 -0.1169 0.2398
H10 H 0.4003 -0.0004 0.2211
C9 C 0.26553(11) -0.02135(15) 0.18310(5)
C10 C 0.16289(11) -0.03772(15) 0.18441(5)
C11 C 0.09771(11) -0.03090(15) 0.14435(5)
C12 C -0.01574(11) -0.04097(17) 0.14543(5)
C13 C -0.04491(12) -0.17477(18) 0.16781(6)
H11 H -0.0172 -0.1767 0.1993
H12 H -0.0199 -0.2507 0.1517
H13 H -0.1160 -0.1807 0.1666
C14 C -0.05216(12) 0.08063(19) 0.17245(6)
H14 H -0.0338 0.1644 0.1585
H15 H -0.0224 0.0770 0.2035
H16 H -0.1231 0.0764 0.1722
C15 C -0.06982(12) -0.0352(2) 0.09713(6)
H17 H -0.0480 -0.1095 0.0792
H18 H -0.0553 0.0499 0.0829
H19 H -0.1401 -0.0425 0.0990
C16 C 0.14054(11) -0.01153(15) 0.10348(5)
H20 H 0.0986 -0.0086 0.0764
C17 C 0.24186(11) 0.00373(15) 0.10043(5)
C18 C 0.28596(12) 0.02333(17) 0.05458(5)
C19 C 0.20646(15) 0.0316(3) 0.01407(6)
H21 H 0.1700 -0.0526 0.0115
H22 H 0.2374 0.0471 -0.0136
H23 H 0.1619 0.1055 0.0188
C20 C 0.35470(16) -0.0972(2) 0.04706(7)
H24 H 0.3847 -0.0842 0.0189
H25 H 0.3169 -0.1804 0.0453
H26 H 0.4056 -0.1026 0.0722
C21 C 0.34621(16) 0.1559(2) 0.05588(7)
H27 H 0.3033 0.2320 0.0602
H28 H 0.3753 0.1667 0.0274
H29 H 0.3978 0.1523 0.0808
C22 C 0.30318(11) -0.00060(16) 0.14138(5)
H30 H 0.3713 0.0108 0.1407
O1F O 0.37434(8) 0.56029(12) 0.27421(3)
H1F H 0.3362 0.5283 0.2535
N1F N 0.20183(9) 0.42866(12) 0.23863(4)
C1F C 0.17410(12) 0.58635(16) 0.17390(6)
H2F H 0.1896 0.6590 0.1938
C2F C 0.15277(13) 0.61158(18) 0.12773(6)
H3F H 0.1547 0.7008 0.1169
C3F C 0.12862(13) 0.50637(19) 0.09741(6)
H4F H 0.1128 0.5239 0.0663
C4F C 0.12838(13) 0.37515(19) 0.11400(6)
H5F H 0.1131 0.3031 0.0938
C5F C 0.15050(12) 0.34873(16) 0.16013(5)
H6F H 0.1504 0.2589 0.1705
C6F C 0.17294(10) 0.45408(15) 0.19139(5)
C7F C 0.20226(11) 0.28653(15) 0.25447(5)
H7F H 0.1461 0.2386 0.2388
H8F H 0.1950 0.2848 0.2871
C8F C 0.16657(12) 0.52495(16) 0.27267(5)
H9F H 0.1648 0.6169 0.2602
H10F H 0.0997 0.5004 0.2789
C9F C 0.23447(11) 0.52135(15) 0.31690(5)
C10F C 0.33711(11) 0.53772(15) 0.31559(5)
C11F C 0.40229(11) 0.53090(15) 0.35565(5)
C12F C 0.51574(11) 0.54097(17) 0.35457(5)
C13F C 0.54491(12) 0.67477(18) 0.33219(6)
H11F H 0.5172 0.6767 0.3007
H12F H 0.5199 0.7507 0.3483
H13F H 0.6160 0.6807 0.3334
C14F C 0.55216(12) 0.41937(19) 0.32755(6)
H14F H 0.5338 0.3356 0.3415
H15F H 0.5224 0.4230 0.2965
H16F H 0.6231 0.4236 0.3278
C15F C 0.56982(12) 0.5352(2) 0.40287(6)
H17F H 0.5480 0.6095 0.4208
H18F H 0.5553 0.4501 0.4171
H19F H 0.6401 0.5425 0.4010
C16F C 0.35946(11) 0.51153(15) 0.39652(5)
H20F H 0.4014 0.5086 0.4236
C17F C 0.25814(11) 0.49627(15) 0.39957(5)
C18F C 0.21404(12) 0.47667(17) 0.44542(5)
C19F C 0.29354(15) 0.4684(3) 0.48593(6)
H21F H 0.3300 0.5526 0.4885
H22F H 0.2626 0.4529 0.5136
H23F H 0.3381 0.3945 0.4812
C20F C 0.14530(16) 0.5972(2) 0.45294(7)
H24F H 0.1153 0.5842 0.4811
H25F H 0.1831 0.6804 0.4547
H26F H 0.0944 0.6026 0.4278
C21F C 0.15379(16) 0.3441(2) 0.44412(7)
H27F H 0.1967 0.2680 0.4398
H28F H 0.1247 0.3333 0.4726
H29F H 0.1022 0.3477 0.4192
C22F C 0.19682(11) 0.50060(16) 0.35862(5)
H30F H 0.1287 0.4892 0.3593
loop_
_geom_bond_atom_site_label_1
_geom_bond_atom_site_label_2
_geom_bond_site_symmetry_1
_geom_bond_site_symmetry_2
O1 H1 1_555 1_555
N1 C6 1_555 1_555
C1 H2 1_555 1_555
C2 C1 1_555 1_555
H3 C2 1_555 1_555
C3 C2 1_555 1_555
H4 C3 1_555 1_555
C4 C3 1_555 1_555
H5 C4 1_555 1_555
C5 C4 1_555 1_555
H6 C5 1_555 1_555
C6 C1 1_555 1_555
C7 N1 1_555 1_555
H7 C7 1_555 1_555
H8 C7 1_555 1_555
C8 N1 1_555 1_555
H9 C8 1_555 1_555
H10 C8 1_555 1_555
C9 C8 1_555 1_555
C10 O1 1_555 1_555
C11 C10 1_555 1_555
C12 C11 1_555 1_555
C13 C12 1_555 1_555
H11 C13 1_555 1_555
H12 C13 1_555 1_555
H13 C13 1_555 1_555
C14 C12 1_555 1_555
H14 C14 1_555 1_555
H15 C14 1_555 1_555
H16 C14 1_555 1_555
C15 C12 1_555 1_555
H17 C15 1_555 1_555
H18 C15 1_555 1_555
H19 C15 1_555 1_555
C16 C11 1_555 1_555
H20 C16 1_555 1_555
C17 C16 1_555 1_555
C18 C17 1_555 1_555
C19 C18 1_555 1_555
H21 C19 1_555 1_555
H22 C19 1_555 1_555
H23 C19 1_555 1_555
C20 C18 1_555 1_555
H24 C20 1_555 1_555
H25 C20 1_555 1_555
H26 C20 1_555 1_555
C21 C18 1_555 1_555
H27 C21 1_555 1_555
H28 C21 1_555 1_555
H29 C21 1_555 1_555
C22 C9 1_555 1_555
H30 C22 1_555 1_555
O1F H1F 1_555 1_555
N1F C6F 1_555 1_555
C1F H2F 1_555 1_555
C2F C1F 1_555 1_555
H3F C2F 1_555 1_555
C3F C2F 1_555 1_555
H4F C3F 1_555 1_555
C4F C3F 1_555 1_555
H5F C4F 1_555 1_555
C5F C4F 1_555 1_555
H6F C5F 1_555 1_555
C6F C1F 1_555 1_555
C7F C7 1_555 1_555
H7F C7F 1_555 1_555
H8F C7F 1_555 1_555
C8F N1F 1_555 1_555
H9F C8F 1_555 1_555
H10F C8F 1_555 1_555
C9F C8F 1_555 1_555
C10F O1F 1_555 1_555
C11F C10F 1_555 1_555
C12F C11F 1_555 1_555
C13F C12F 1_555 1_555
H11F C13F 1_555 1_555
H12F C13F 1_555 1_555
H13F C13F 1_555 1_555
C14F C12F 1_555 1_555
H14F C14F 1_555 1_555
H15F C14F 1_555 1_555
H16F C14F 1_555 1_555
C15F C12F 1_555 1_555
H17F C15F 1_555 1_555
H18F C15F 1_555 1_555
H19F C15F 1_555 1_555
C16F C11F 1_555 1_555
H20F C16F 1_555 1_555
C17F C16F 1_555 1_555
C18F C17F 1_555 1_555
C19F C18F 1_555 1_555
H21F C19F 1_555 1_555
H22F C19F 1_555 1_555
H23F C19F 1_555 1_555
C20F C18F 1_555 1_555
H24F C20F 1_555 1_555
H25F C20F 1_555 1_555
H26F C20F 1_555 1_555
C21F C18F 1_555 1_555
H27F C21F 1_555 1_555
H28F C21F 1_555 1_555
H29F C21F 1_555 1_555
C22F C9F 1_555 1_555
H30F C22F 1_555 1_555
C5 C6 1_555 1_555
C9 C10 1_555 1_555
C17 C22 1_555 1_555
N1F C7F 1_555 1_555
C5F C6F 1_555 1_555
C9F C10F 1_555 1_555
C17F C22F 1_555 1_555

#END
