
#######################################################################
#
#                 Cambridge Crystallographic Data Centre
#                                CCDC 
#
#######################################################################
#
# If this CIF has been generated from an entry in the Cambridge 
# Structural Database, then it will include bibliographic, chemical, 
# crystal, experimental, refinement or atomic coordinate data resulting 
# from the CCDC's data processing and validation procedures.
#
#######################################################################

data_KIGTEB
_chemical_name_common            TTF-33
_chemical_formula_moiety         'C34 H40 O4 S8'
_chemical_name_systematic        
6,7-Dibutoxy-2-(6,7-dibutoxy[1,3]dithiolo[4,5-b][1,4]benzodithiin-2-ylidene)[1,3]dithiolo[4,5-b][1,4]benzodithiine
_symmetry_cell_setting           monoclinic
_symmetry_space_group_name_H-M   'P 21/a'
_symmetry_Int_Tables_number      14
_space_group_name_Hall           '-P 2yab'
loop_
_symmetry_equiv_pos_site_id
_symmetry_equiv_pos_as_xyz
1 x,y,z
2 1/2-x,1/2+y,-z
3 -x,-y,-z
4 1/2+x,1/2-y,z
_cell_length_a                   19.23(3)
_cell_length_b                   4.412(8)
_cell_length_c                   22.39(4)
_cell_angle_alpha                90
_cell_angle_beta                 90.55(2)
_cell_angle_gamma                90
_cell_volume                     1899.54
_exptl_crystal_colour            pink
_exptl_crystal_description       needle
_chemical_melting_point          '485 K'
_cell_formula_units_Z            2
loop_
_atom_site_label
_atom_site_type_symbol
_atom_site_fract_x
_atom_site_fract_y
_atom_site_fract_z
C1 C 0.47401(14) 0.0549(8) 0.51683(13)
C2 C 0.40063(16) 0.3456(8) 0.59464(14)
C3 C 0.35450(16) 0.2285(8) 0.55534(14)
C4 C 0.30405(16) 0.3567(7) 0.68227(15)
C5 C 0.25701(16) 0.2202(8) 0.64212(14)
C6 C 0.20106(16) 0.0519(8) 0.66452(15)
H1 H 0.1707 -0.0446 0.6382
C7 C 0.19068(16) 0.0281(8) 0.72556(16)
C8 C 0.23675(18) 0.1725(7) 0.76571(15)
C9 C 0.29400(17) 0.3291(8) 0.74343(15)
H2 H 0.3258 0.4161 0.7699
C10 C 0.2520(2) 0.3507(10) 0.86650(17)
H3 H 0.2467 0.5559 0.8515
H4 H 0.3012 0.3093 0.8719
C11 C 0.2143(2) 0.3159(11) 0.92543(18)
H5 H 0.2199 0.1087 0.9391
H6 H 0.2364 0.4470 0.9548
C12 C 0.1391(3) 0.3879(15) 0.9231(2)
H7 H 0.1163 0.2514 0.8952
H8 H 0.1331 0.5928 0.9082
C13 C 0.1042(4) 0.361(2) 0.9836(3)
H9 H 0.0559 0.4117 0.9795
H10 H 0.1261 0.4982 1.0113
H11 H 0.1088 0.1574 0.9980
C14 C 0.08524(18) -0.2621(8) 0.71448(16)
H12 H 0.1061 -0.4043 0.6869
H13 H 0.0615 -0.1059 0.6916
C15 C 0.03454(19) -0.4238(8) 0.75465(17)
H14 H 0.0595 -0.5805 0.7764
H15 H -0.0002 -0.5232 0.7298
C16 C -0.00269(19) -0.2229(8) 0.79957(17)
H16 H 0.0317 -0.1320 0.8260
H17 H -0.0259 -0.0601 0.7782
C17 C -0.0559(2) -0.3897(11) 0.8370(2)
H18 H -0.0773 -0.2502 0.8641
H19 H -0.0332 -0.5480 0.8592
H20 H -0.0908 -0.4765 0.8113
O1 O 0.22219(13) 0.1408(6) 0.82547(10)
O2 O 0.13777(12) -0.1294(6) 0.75249(10)
S1 S 0.48851(4) 0.2483(2) 0.58515(4)
S2 S 0.38594(4) 0.0032(2) 0.49694(4)
S3 S 0.37634(5) 0.5688(2) 0.65605(4)
S4 S 0.26417(4) 0.2747(3) 0.56373(4)
C1B C 0.52599(14) -0.0549(8) 0.48317(13)
C2B C 0.59937(16) -0.3456(8) 0.40536(14)
C3B C 0.64550(16) -0.2285(8) 0.44466(14)
C4B C 0.69595(16) -0.3567(7) 0.31773(15)
C5B C 0.74299(16) -0.2202(8) 0.35788(14)
C6B C 0.79894(16) -0.0519(8) 0.33548(15)
H1B H 0.8293 0.0446 0.3618
C7B C 0.80932(16) -0.0281(8) 0.27444(16)
C8B C 0.76325(18) -0.1725(7) 0.23429(15)
C9B C 0.70600(17) -0.3291(8) 0.25657(15)
H2B H 0.6742 -0.4161 0.2301
C10B C 0.7480(2) -0.3507(10) 0.13350(17)
H3B H 0.7533 -0.5559 0.1485
H4B H 0.6988 -0.3093 0.1281
C11B C 0.7857(2) -0.3159(11) 0.07457(18)
H5B H 0.7801 -0.1087 0.0609
H6B H 0.7636 -0.4470 0.0452
C12B C 0.8609(3) -0.3879(15) 0.0769(2)
H7B H 0.8837 -0.2514 0.1048
H8B H 0.8669 -0.5928 0.0918
C13B C 0.8958(4) -0.361(2) 0.0164(3)
H9B H 0.9441 -0.4117 0.0205
H10B H 0.8739 -0.4982 -0.0113
H11B H 0.8912 -0.1574 0.0020
C14B C 0.91476(18) 0.2621(8) 0.28552(16)
H12B H 0.8939 0.4043 0.3131
H13B H 0.9385 0.1059 0.3084
C15B C 0.96546(19) 0.4238(8) 0.24535(17)
H14B H 0.9405 0.5805 0.2236
H15B H 1.0002 0.5232 0.2702
C16B C 1.00269(19) 0.2229(8) 0.20043(17)
H16B H 0.9683 0.1320 0.1740
H17B H 1.0259 0.0601 0.2218
C17B C 1.0559(2) 0.3897(11) 0.1630(2)
H18B H 1.0773 0.2502 0.1359
H19B H 1.0332 0.5480 0.1408
H20B H 1.0908 0.4765 0.1887
O1B O 0.77781(13) -0.1408(6) 0.17453(10)
O2B O 0.86223(12) 0.1294(6) 0.24751(10)
S1B S 0.51149(4) -0.2483(2) 0.41485(4)
S2B S 0.61406(4) -0.0032(2) 0.50306(4)
S3B S 0.62366(5) -0.5688(2) 0.34395(4)
S4B S 0.73583(4) -0.2747(3) 0.43627(4)
loop_
_geom_bond_atom_site_label_1
_geom_bond_atom_site_label_2
_geom_bond_site_symmetry_1
_geom_bond_site_symmetry_2
C1 S1 1_555 1_555
C2 C3 1_555 1_555
C3 S2 1_555 1_555
C4 C5 1_555 1_555
C5 C6 1_555 1_555
C6 H1 1_555 1_555
C7 C6 1_555 1_555
C8 C7 1_555 1_555
C9 C4 1_555 1_555
H2 C9 1_555 1_555
C10 H3 1_555 1_555
H4 C10 1_555 1_555
C11 C10 1_555 1_555
H5 C11 1_555 1_555
H6 C11 1_555 1_555
C12 C11 1_555 1_555
H7 C12 1_555 1_555
H8 C12 1_555 1_555
C13 C12 1_555 1_555
H9 C13 1_555 1_555
H10 C13 1_555 1_555
H11 C13 1_555 1_555
C14 H12 1_555 1_555
H13 C14 1_555 1_555
C15 C14 1_555 1_555
H14 C15 1_555 1_555
H15 C15 1_555 1_555
C16 C15 1_555 1_555
H16 C16 1_555 1_555
H17 C16 1_555 1_555
C17 C16 1_555 1_555
H18 C17 1_555 1_555
H19 C17 1_555 1_555
H20 C17 1_555 1_555
O1 C8 1_555 1_555
O2 C7 1_555 1_555
S1 C2 1_555 1_555
S2 C1 1_555 1_555
S3 C2 1_555 1_555
S4 C3 1_555 1_555
C1B C1 1_555 1_555
C2B C3B 1_555 1_555
C3B S2B 1_555 1_555
C4B C5B 1_555 1_555
C5B C6B 1_555 1_555
C6B H1B 1_555 1_555
C7B C6B 1_555 1_555
C8B C7B 1_555 1_555
C9B C4B 1_555 1_555
H2B C9B 1_555 1_555
C10B H3B 1_555 1_555
H4B C10B 1_555 1_555
C11B C10B 1_555 1_555
H5B C11B 1_555 1_555
H6B C11B 1_555 1_555
C12B C11B 1_555 1_555
H7B C12B 1_555 1_555
H8B C12B 1_555 1_555
C13B C12B 1_555 1_555
H9B C13B 1_555 1_555
H10B C13B 1_555 1_555
H11B C13B 1_555 1_555
C14B H12B 1_555 1_555
H13B C14B 1_555 1_555
C15B C14B 1_555 1_555
H14B C15B 1_555 1_555
H15B C15B 1_555 1_555
C16B C15B 1_555 1_555
H16B C16B 1_555 1_555
H17B C16B 1_555 1_555
C17B C16B 1_555 1_555
H18B C17B 1_555 1_555
H19B C17B 1_555 1_555
H20B C17B 1_555 1_555
O1B C8B 1_555 1_555
O2B C7B 1_555 1_555
S1B C1B 1_555 1_555
S2B C1B 1_555 1_555
S3B C2B 1_555 1_555
S4B C3B 1_555 1_555
C4 S3 1_555 1_555
C5 S4 1_555 1_555
C8 C9 1_555 1_555
C10 O1 1_555 1_555
C14 O2 1_555 1_555
C2B S1B 1_555 1_555
C4B S3B 1_555 1_555
C5B S4B 1_555 1_555
C8B C9B 1_555 1_555
C10B O1B 1_555 1_555
C14B O2B 1_555 1_555

#END
