
#######################################################################
#
#                 Cambridge Crystallographic Data Centre
#                                CCDC 
#
#######################################################################
#
# If this CIF has been generated from an entry in the Cambridge 
# Structural Database, then it will include bibliographic, chemical, 
# crystal, experimental, refinement or atomic coordinate data resulting 
# from the CCDC's data processing and validation procedures.
#
#######################################################################

data_KIGTAX
_chemical_name_common            TTF-34
_chemical_formula_moiety         'C22 H12 O4 S8,C1 S2'
_chemical_name_systematic        
'2-(7,8-dihydro[1,3]dithiolo[5,6][1,4]dithiino[2,3-g][1,4]benzodioxin-2-ylidene)-7,8-dihydro[1,3]dithiolo[5,6][1,4]dithiino[2,3-g][1,4]benzodioxine carbon disulfide solvate'
_symmetry_cell_setting           monoclinic
_symmetry_space_group_name_H-M   'P 21/m'
_symmetry_Int_Tables_number      11
_space_group_name_Hall           '-P 2yb'
loop_
_symmetry_equiv_pos_site_id
_symmetry_equiv_pos_as_xyz
1 x,y,z
2 -x,1/2+y,-z
3 -x,-y,-z
4 x,1/2-y,z
_cell_length_a                   11.7977(5)
_cell_length_b                   30.6728(10)
_cell_length_c                   23.9377(15)
_cell_angle_alpha                90
_cell_angle_beta                 100.433(5)
_cell_angle_gamma                90
_cell_volume                     8519.09
_exptl_crystal_colour            orange
_exptl_crystal_description       block
_chemical_melting_point          '563 K'
_cell_formula_units_Z            12
loop_
_atom_site_label
_atom_site_type_symbol
_atom_site_fract_x
_atom_site_fract_y
_atom_site_fract_z
C1 C 1.2622(9) 0.7286(3) 1.0080(4)
C2 C 1.1780(9) 0.6523(3) 0.9858(4)
C3 C 1.2780(10) 0.6525(3) 0.9685(5)
C4 C 1.1722(9) 0.5649(3) 0.9840(5)
C5 C 1.2758(10) 0.5638(3) 0.9644(4)
C6 C 1.3455(11) 0.5271(3) 0.9708(5)
H1 H 1.4166 0.5273 0.9592
C7 C 1.3061(10) 0.4895(3) 0.9954(5)
C8 C 1.2002(10) 0.4899(3) 1.0124(5)
C9 C 1.1354(10) 0.5283(3) 1.0105(5)
H2 H 1.0693 0.5294 1.0265
C10 C 1.2323(13) 0.4173(4) 1.0424(9)
H3 H 1.2475 0.4088 1.0821
H4 H 1.1875 0.3940 1.0218
C11 C 1.3367(13) 0.4181(4) 1.0246(8)
H5 H 1.3951 0.4124 1.0578
H6 H 1.3371 0.3934 0.9994
O1 O 1.1604(7) 0.4543(2) 1.0381(4)
O2 O 1.3745(7) 0.4531(2) 0.9977(4)
S1 S 1.1484(3) 0.69715(8) 1.02695(14)
S2 S 1.3705(3) 0.69662(8) 0.98649(14)
S3 S 1.0769(3) 0.60980(8) 0.97386(15)
S4 S 1.3229(3) 0.60927(8) 0.92838(14)
C1C C 1.2622(9) 0.7714(3) 1.0080(4)
C2C C 1.1780(9) 0.8477(3) 0.9858(4)
C3C C 1.2780(10) 0.8475(3) 0.9685(5)
C4C C 1.1722(9) 0.9351(3) 0.9840(5)
C5C C 1.2758(10) 0.9362(3) 0.9644(4)
C6C C 1.3455(11) 0.9729(3) 0.9708(5)
H1C H 1.4166 0.9727 0.9592
C7C C 1.3061(10) 1.0105(3) 0.9954(5)
C8C C 1.2002(10) 1.0101(3) 1.0124(5)
C9C C 1.1354(10) 0.9717(3) 1.0105(5)
H2C H 1.0693 0.9706 1.0265
C10C C 1.2323(13) 1.0827(4) 1.0424(9)
H3C H 1.2475 1.0912 1.0821
H4C H 1.1875 1.1060 1.0218
C11C C 1.3367(13) 1.0819(4) 1.0246(8)
H5C H 1.3951 1.0876 1.0578
H6C H 1.3371 1.1066 0.9994
O1C O 1.1604(7) 1.0457(2) 1.0381(4)
O2C O 1.3745(7) 1.0469(2) 0.9977(4)
S1C S 1.1484(3) 0.80285(8) 1.02695(14)
S2C S 1.3705(3) 0.80338(8) 0.98649(14)
S3C S 1.0769(3) 0.89020(8) 0.97386(15)
S4C S 1.3229(3) 0.89073(8) 0.92838(14)
C12 C 1.0705(11) 0.7276(3) 0.8566(5)
C13 C 0.9895(9) 0.6538(3) 0.8301(5)
C14 C 1.0890(10) 0.6538(3) 0.8132(5)
C15 C 0.9854(9) 0.5655(3) 0.8248(4)
C16 C 1.0894(10) 0.5658(3) 0.8060(5)
C17 C 1.1579(11) 0.5293(4) 0.8098(6)
H7 H 1.2293 0.5305 0.7986
C18 C 1.1199(11) 0.4900(3) 0.8305(6)
C19 C 1.0137(10) 0.4898(3) 0.8503(5)
C20 C 0.9490(10) 0.5278(3) 0.8491(5)
H8 H 0.8821 0.5281 0.8645
C21 C 1.0365(15) 0.4149(5) 0.8628(12)
H9 H 1.0312 0.3947 0.8935
H10 H 0.9965 0.4016 0.8281
C22 C 1.1485(15) 0.4181(4) 0.8588(8)
H11 H 1.1679 0.3925 0.8387
H12 H 1.1931 0.4166 0.8970
O3 O 0.9738(7) 0.4534(2) 0.8724(4)
O4 O 1.1867(7) 0.4545(2) 0.8325(5)
S5 S 0.9583(3) 0.69644(8) 0.87356(15)
S6 S 1.1827(3) 0.69781(8) 0.83632(14)
S7 S 0.8900(3) 0.61063(8) 0.81632(15)
S8 S 1.1404(3) 0.61253(9) 0.77440(14)
C12C C 1.0705(11) 0.7724(3) 0.8566(5)
C13C C 0.9895(9) 0.8462(3) 0.8301(5)
C14C C 1.0890(10) 0.8462(3) 0.8132(5)
C15C C 0.9854(9) 0.9345(3) 0.8248(4)
C16C C 1.0894(10) 0.9342(3) 0.8060(5)
C17C C 1.1579(11) 0.9707(4) 0.8098(6)
H7C H 1.2293 0.9695 0.7986
C18C C 1.1199(11) 1.0100(3) 0.8305(6)
C19C C 1.0137(10) 1.0102(3) 0.8503(5)
C20C C 0.9490(10) 0.9722(3) 0.8491(5)
H8C H 0.8821 0.9719 0.8645
C21C C 1.0365(15) 1.0851(5) 0.8628(12)
H9C H 1.0312 1.1053 0.8935
H10C H 0.9965 1.0984 0.8281
C22C C 1.1485(15) 1.0819(4) 0.8588(8)
H11C H 1.1679 1.1075 0.8387
H12C H 1.1931 1.0834 0.8970
O3C O 0.9738(7) 1.0466(2) 0.8724(4)
O4C O 1.1867(7) 1.0455(2) 0.8325(5)
S5C S 0.9583(3) 0.80356(8) 0.87356(15)
S6C S 1.1827(3) 0.80219(8) 0.83632(14)
S7C S 0.8900(3) 0.88937(8) 0.81632(15)
S8C S 1.1404(3) 0.88747(9) 0.77440(14)
C23 C 1.2263(13) 0.2718(3) 0.6624(5)
C24 C 1.1506(11) 0.3475(4) 0.6779(5)
C25 C 1.2617(11) 0.3482(4) 0.7031(5)
C26 C 1.1440(10) 0.4355(4) 0.6781(5)
C27 C 1.2609(11) 0.4364(4) 0.7048(5)
C28 C 1.3239(11) 0.4740(4) 0.7026(5)
H13 H 1.4007 0.4749 0.7204
C29 C 1.2745(11) 0.5105(4) 0.6741(5)
C30 C 1.1574(11) 0.5099(4) 0.6463(6)
C31 C 1.0965(11) 0.4722(4) 0.6475(6)
H14 H 1.0212 0.4707 0.6275
C32 C 1.1686(12) 0.5835(4) 0.6266(6)
H15 H 1.1465 0.5970 0.6597
H16 H 1.1445 0.6030 0.5948
C33 C 1.2937(14) 0.5806(4) 0.6365(7)
H17 H 1.3181 0.5765 0.6002
H18 H 1.3255 0.6081 0.6522
O5 O 1.1064(8) 0.5446(3) 0.6156(4)
O6 O 1.3404(8) 0.5467(3) 0.6734(4)
S9 S 1.1053(3) 0.30255(10) 0.63480(15)
S10 S 1.3485(3) 0.30389(9) 0.69175(15)
S11 S 1.0552(3) 0.38983(10) 0.68318(17)
S12 S 1.3253(3) 0.39164(9) 0.74577(14)
C23C C 1.2263(13) 0.2282(3) 0.6624(5)
C24C C 1.1506(11) 0.1525(4) 0.6779(5)
C25C C 1.2617(11) 0.1518(4) 0.7031(5)
C26C C 1.1440(10) 0.0645(4) 0.6781(5)
C27C C 1.2609(11) 0.0636(4) 0.7048(5)
C28C C 1.3239(11) 0.0260(4) 0.7026(5)
H13C H 1.4007 0.0251 0.7204
C29C C 1.2745(11) -0.0105(4) 0.6741(5)
C30C C 1.1574(11) -0.0099(4) 0.6463(6)
C31C C 1.0965(11) 0.0278(4) 0.6475(6)
H14C H 1.0212 0.0293 0.6275
C32C C 1.1686(12) -0.0835(4) 0.6266(6)
H15C H 1.1465 -0.0970 0.6597
H16C H 1.1445 -0.1030 0.5948
C33C C 1.2937(14) -0.0806(4) 0.6365(7)
H17C H 1.3181 -0.0765 0.6002
H18C H 1.3255 -0.1081 0.6522
O5C O 1.1064(8) -0.0446(3) 0.6156(4)
O6C O 1.3404(8) -0.0467(3) 0.6734(4)
S9C S 1.1053(3) 0.19745(10) 0.63480(15)
S10C S 1.3485(3) 0.19611(9) 0.69175(15)
S11C S 1.0552(3) 0.11017(10) 0.68318(17)
S12C S 1.3253(3) 0.10836(9) 0.74577(14)
C34 C 0.7144(11) 0.7283(3) 0.6713(5)
C35 C 0.6714(10) 0.6516(3) 0.6316(5)
C36 C 0.7854(10) 0.6508(3) 0.6555(5)
C37 C 0.6695(9) 0.5635(3) 0.6311(4)
C38 C 0.7853(10) 0.5636(4) 0.6560(5)
C39 C 0.8329(10) 0.5267(4) 0.6862(5)
H19 H 0.9089 0.5271 0.7053
C40 C 0.7666(11) 0.4901(4) 0.6875(5)
C41 C 0.6504(12) 0.4903(4) 0.6606(5)
C42 C 0.6032(10) 0.5269(3) 0.6346(5)
H20 H 0.5251 0.5274 0.6189
C43 C 0.6258(13) 0.4206(4) 0.7018(6)
H21 H 0.5863 0.3933 0.6912
H22 H 0.6096 0.4292 0.7385
C44 C 0.7556(13) 0.4137(4) 0.7066(7)
H23 H 0.7826 0.3937 0.7376
H24 H 0.7709 0.4006 0.6719
O7 O 0.5812(8) 0.4537(2) 0.6601(4)
O8 O 0.8178(8) 0.4545(3) 0.7167(4)
S13 S 0.5919(3) 0.69691(9) 0.64420(14)
S14 S 0.8352(3) 0.69624(9) 0.69931(14)
S15 S 0.6058(3) 0.60850(9) 0.59002(14)
S16 S 0.8773(3) 0.60813(9) 0.64907(17)
C34C C 0.7144(11) 0.7717(3) 0.6713(5)
C35C C 0.6714(10) 0.8484(3) 0.6316(5)
C36C C 0.7854(10) 0.8492(3) 0.6555(5)
C37C C 0.6695(9) 0.9365(3) 0.6311(4)
C38C C 0.7853(10) 0.9364(4) 0.6560(5)
C39C C 0.8329(10) 0.9733(4) 0.6862(5)
H19C H 0.9089 0.9729 0.7053
C40C C 0.7666(11) 1.0099(4) 0.6875(5)
C41C C 0.6504(12) 1.0097(4) 0.6606(5)
C42C C 0.6032(10) 0.9731(3) 0.6346(5)
H20C H 0.5251 0.9726 0.6189
C43C C 0.6258(13) 1.0794(4) 0.7018(6)
H21C H 0.5863 1.1067 0.6912
H22C H 0.6096 1.0708 0.7385
C44C C 0.7556(13) 1.0863(4) 0.7066(7)
H23C H 0.7826 1.1063 0.7376
H24C H 0.7709 1.0994 0.6719
O7C O 0.5812(8) 1.0463(2) 0.6601(4)
O8C O 0.8178(8) 1.0455(3) 0.7167(4)
S13C S 0.5919(3) 0.80309(9) 0.64420(14)
S14C S 0.8352(3) 0.80376(9) 0.69931(14)
S15C S 0.6058(3) 0.89150(9) 0.59002(14)
S16C S 0.8773(3) 0.89187(9) 0.64907(17)
C45 C 0.7408(10) 0.7280(3) 0.5054(4)
C46 C 0.7070(10) 0.6517(3) 0.4634(5)
C47 C 0.8178(10) 0.6527(3) 0.4876(5)
C48 C 0.7058(10) 0.5655(3) 0.4621(5)
C49 C 0.8215(10) 0.5650(3) 0.4874(5)
C50 C 0.8714(11) 0.5289(4) 0.5168(6)
H25 H 0.9479 0.5296 0.5351
C51 C 0.8055(12) 0.4914(4) 0.5185(6)
C52 C 0.6858(11) 0.4911(4) 0.4946(5)
C53 C 0.6355(11) 0.5278(3) 0.4667(5)
H26 H 0.5573 0.5280 0.4511
C54 C 0.6669(14) 0.4211(4) 0.5331(6)
H27 H 0.6317 0.3936 0.5197
H28 H 0.6480 0.4269 0.5702
C55 C 0.7921(13) 0.4174(5) 0.5387(8)
H29 H 0.8193 0.3975 0.5697
H30 H 0.8084 0.4041 0.5043
O9 O 0.6197(7) 0.4550(2) 0.4949(4)
O10 O 0.8575(8) 0.4562(2) 0.5484(4)
S17 S 0.6203(3) 0.69642(9) 0.47879(15)
S18 S 0.8660(3) 0.69698(9) 0.53188(15)
S19 S 0.6394(3) 0.60980(9) 0.42176(14)
S20 S 0.9114(3) 0.61034(9) 0.48079(16)
C45C C 0.7408(10) 0.7720(3) 0.5054(4)
C46C C 0.7070(10) 0.8483(3) 0.4634(5)
C47C C 0.8178(10) 0.8473(3) 0.4876(5)
C48C C 0.7058(10) 0.9345(3) 0.4621(5)
C49C C 0.8215(10) 0.9350(3) 0.4874(5)
C50C C 0.8714(11) 0.9711(4) 0.5168(6)
H25C H 0.9479 0.9704 0.5351
C51C C 0.8055(12) 1.0086(4) 0.5185(6)
C52C C 0.6858(11) 1.0089(4) 0.4946(5)
C53C C 0.6355(11) 0.9722(3) 0.4667(5)
H26C H 0.5573 0.9720 0.4511
C54C C 0.6669(14) 1.0789(4) 0.5331(6)
H27C H 0.6317 1.1064 0.5197
H28C H 0.6480 1.0731 0.5702
C55C C 0.7921(13) 1.0826(5) 0.5387(8)
H29C H 0.8193 1.1025 0.5697
H30C H 0.8084 1.0959 0.5043
O9C O 0.6197(7) 1.0450(2) 0.4949(4)
O10C O 0.8575(8) 1.0438(2) 0.5484(4)
S17C S 0.6203(3) 0.80358(9) 0.47879(15)
S18C S 0.8660(3) 0.80302(9) 0.53188(15)
S19C S 0.6394(3) 0.89020(9) 0.42176(14)
S20C S 0.9114(3) 0.88966(9) 0.48079(16)
C56 C 0.5525(9) 0.2722(3) 0.8365(5)
C57 C 0.5340(9) 0.3480(3) 0.8747(4)
C58 C 0.6382(9) 0.3478(3) 0.8604(5)
C59 C 0.5364(10) 0.4356(3) 0.8753(5)
C60 C 0.6450(10) 0.4353(3) 0.8591(5)
C61 C 0.6850(10) 0.4713(3) 0.8340(5)
H31 H 0.7572 0.4705 0.8235
C62 C 0.6175(11) 0.5090(3) 0.8241(5)
C63 C 0.5079(10) 0.5097(3) 0.8398(5)
C64 C 0.4648(10) 0.4731(3) 0.8621(5)
H32 H 0.3894 0.4728 0.8686
C65 C 0.4928(12) 0.5839(4) 0.8111(7)
H33 H 0.5342 0.5987 0.8444
H34 H 0.4342 0.6036 0.7917
C66 C 0.5738(11) 0.5726(4) 0.7727(6)
H35 H 0.5315 0.5592 0.7385
H36 H 0.6097 0.5989 0.7619
O11 O 0.4377(7) 0.5445(2) 0.8285(4)
O12 O 0.6618(7) 0.5429(2) 0.8000(4)
S21 S 0.4411(3) 0.30396(8) 0.85454(15)
S22 S 0.6672(3) 0.30282(8) 0.81986(15)
S23 S 0.4849(3) 0.39176(8) 0.91111(14)
S24 S 0.7379(3) 0.38968(8) 0.87409(16)
C56C C 0.5525(9) 0.2278(3) 0.8365(5)
C57C C 0.5340(9) 0.1520(3) 0.8747(4)
C58C C 0.6382(9) 0.1522(3) 0.8604(5)
C59C C 0.5364(10) 0.0644(3) 0.8753(5)
C60C C 0.6450(10) 0.0647(3) 0.8591(5)
C61C C 0.6850(10) 0.0287(3) 0.8340(5)
H31C H 0.7572 0.0295 0.8235
C62C C 0.6175(11) -0.0090(3) 0.8241(5)
C63C C 0.5079(10) -0.0097(3) 0.8398(5)
C64C C 0.4648(10) 0.0269(3) 0.8621(5)
H32C H 0.3894 0.0272 0.8686
C65C C 0.4928(12) -0.0839(4) 0.8111(7)
H33C H 0.5342 -0.0987 0.8444
H34C H 0.4342 -0.1036 0.7917
C66C C 0.5738(11) -0.0726(4) 0.7727(6)
H35C H 0.5315 -0.0592 0.7385
H36C H 0.6097 -0.0989 0.7619
O11C O 0.4377(7) -0.0445(2) 0.8285(4)
O12C O 0.6618(7) -0.0429(2) 0.8000(4)
S21C S 0.4411(3) 0.19604(8) 0.85454(15)
S22C S 0.6672(3) 0.19718(8) 0.81986(15)
S23C S 0.4849(3) 0.10824(8) 0.91111(14)
S24C S 0.7379(3) 0.11032(8) 0.87409(16)
C67 C 1.2808(18) 0.2500 1.0265(8)
C68 C 1.2160(18) 0.2500 0.9736(9)
C69 C 1.3518(10) 0.2720(3) 1.1302(5)
C70 C 1.1476(11) 0.2715(3) 0.8705(5)
C71 C 1.5060(11) 0.2734(4) 1.2277(5)
C72 C 1.5986(13) 0.2959(5) 1.2571(6)
H37 H 1.5983 0.3262 1.2574
C73 C 1.6900(14) 0.2737(5) 1.2855(6)
C74 C 0.9977(11) 0.2727(4) 0.7709(5)
C75 C 0.9072(13) 0.2954(5) 0.7399(6)
H38 H 0.9073 0.3258 0.7399
C76 C 0.8183(13) 0.2732(6) 0.7094(6)
C77 C 1.8755(17) 0.2740(8) 1.3379(13)
H39 H 1.8987 0.2833 1.3771
H40 H 1.9359 0.2833 1.3179
C78 C 0.6381(17) 0.2740(11) 0.6478(12)
H41 H 0.6309 0.2834 0.6086
H42 H 0.5688 0.2834 0.6608
O13 O 1.7806(12) 0.2968(5) 1.3162(5)
O14 O 0.7303(13) 0.2968(6) 0.6793(6)
S25 S 1.3238(4) 0.29819(9) 1.06492(15)
S26 S 1.1766(4) 0.29825(10) 0.93608(16)
S27 S 1.3841(4) 0.30244(10) 1.19321(15)
S28 S 1.1177(4) 0.30243(10) 0.80758(16)
C69C C 1.3518(10) 0.2280(3) 1.1302(5)
C70C C 1.1476(11) 0.2285(3) 0.8705(5)
C71C C 1.5060(11) 0.2266(4) 1.2277(5)
C72C C 1.5986(13) 0.2041(5) 1.2571(6)
H37C H 1.5983 0.1738 1.2574
C73C C 1.6900(14) 0.2263(5) 1.2855(6)
C74C C 0.9977(11) 0.2273(4) 0.7709(5)
C75C C 0.9072(13) 0.2046(5) 0.7399(6)
H38C H 0.9073 0.1742 0.7399
C76C C 0.8183(13) 0.2268(6) 0.7094(6)
C77C C 1.8755(17) 0.2260(8) 1.3379(13)
H39C H 1.8987 0.2167 1.3771
H40C H 1.9359 0.2167 1.3179
C78C C 0.6381(17) 0.2260(11) 0.6478(12)
H41C H 0.6309 0.2166 0.6086
H42C H 0.5688 0.2166 0.6608
O13C O 1.7806(12) 0.2032(5) 1.3162(5)
O14C O 0.7303(13) 0.2032(6) 0.6793(6)
S25C S 1.3238(4) 0.20181(9) 1.06492(15)
S26C S 1.1766(4) 0.20175(10) 0.93608(16)
S27C S 1.3841(4) 0.19756(10) 1.19321(15)
S28C S 1.1177(4) 0.19757(10) 0.80758(16)
C79 C 0.2397(13) 0.6930(10) 0.5056(6)
S29 S 0.290(3) 0.6820(9) 0.5683(9)
S30 S 0.231(3) 0.6901(10) 0.4388(10)
S31? S 0.332(7) 0.704(3) 0.468(4)
S32? S 0.3555(14) 0.6909(5) 0.5469(7)
S33? S 0.1233(15) 0.6987(5) 0.4652(8)
S34? S 0.151(7) 0.702(3) 0.545(4)
loop_
_geom_bond_atom_site_label_1
_geom_bond_atom_site_label_2
_geom_bond_site_symmetry_1
_geom_bond_site_symmetry_2
C1 S1 1_555 1_555
C2 C3 1_555 1_555
C3 S2 1_555 1_555
C4 C5 1_555 1_555
C5 C6 1_555 1_555
C6 H1 1_555 1_555
C7 C6 1_555 1_555
C8 C7 1_555 1_555
C9 C4 1_555 1_555
H2 C9 1_555 1_555
C10 H3 1_555 1_555
H4 C10 1_555 1_555
C11 C10 1_555 1_555
H5 C11 1_555 1_555
H6 C11 1_555 1_555
O1 C8 1_555 1_555
O2 C7 1_555 1_555
S1 C2 1_555 1_555
S2 C1 1_555 1_555
S3 C2 1_555 1_555
S4 C3 1_555 1_555
C12 S5 1_555 1_555
C13 C14 1_555 1_555
C14 S6 1_555 1_555
C15 C16 1_555 1_555
C16 C17 1_555 1_555
C17 H7 1_555 1_555
C18 C17 1_555 1_555
C19 C18 1_555 1_555
C20 C15 1_555 1_555
H8 C20 1_555 1_555
C21 H9 1_555 1_555
H10 C21 1_555 1_555
C22 C21 1_555 1_555
H11 C22 1_555 1_555
H12 C22 1_555 1_555
O3 C19 1_555 1_555
O4 C18 1_555 1_555
S5 C13 1_555 1_555
S6 C12 1_555 1_555
S7 C13 1_555 1_555
S8 C14 1_555 1_555
C23 S9 1_555 1_555
C24 C25 1_555 1_555
C25 S10 1_555 1_555
C26 C27 1_555 1_555
C27 C28 1_555 1_555
C28 H13 1_555 1_555
C29 C28 1_555 1_555
C30 C29 1_555 1_555
C31 C26 1_555 1_555
H14 C31 1_555 1_555
C32 H15 1_555 1_555
H16 C32 1_555 1_555
C33 C32 1_555 1_555
H17 C33 1_555 1_555
H18 C33 1_555 1_555
O5 C30 1_555 1_555
O6 C29 1_555 1_555
S9 C24 1_555 1_555
S10 C23 1_555 1_555
S11 C24 1_555 1_555
S12 C25 1_555 1_555
C34 S13 1_555 1_555
C35 C36 1_555 1_555
C36 S14 1_555 1_555
C37 C38 1_555 1_555
C38 C39 1_555 1_555
C39 H19 1_555 1_555
C40 C39 1_555 1_555
C41 C40 1_555 1_555
C42 C37 1_555 1_555
H20 C42 1_555 1_555
C43 H21 1_555 1_555
H22 C43 1_555 1_555
C44 C43 1_555 1_555
H23 C44 1_555 1_555
H24 C44 1_555 1_555
O7 C41 1_555 1_555
O8 C40 1_555 1_555
S13 C35 1_555 1_555
S14 C34 1_555 1_555
S15 C35 1_555 1_555
S16 C36 1_555 1_555
C45 S17 1_555 1_555
C46 C47 1_555 1_555
C47 S18 1_555 1_555
C48 C49 1_555 1_555
C49 C50 1_555 1_555
C50 H25 1_555 1_555
C51 C50 1_555 1_555
C52 C51 1_555 1_555
C53 C48 1_555 1_555
H26 C53 1_555 1_555
C54 H27 1_555 1_555
H28 C54 1_555 1_555
C55 C54 1_555 1_555
H29 C55 1_555 1_555
H30 C55 1_555 1_555
O9 C52 1_555 1_555
O10 C51 1_555 1_555
S17 C46 1_555 1_555
S18 C45 1_555 1_555
S19 C46 1_555 1_555
S20 C47 1_555 1_555
C56 S21 1_555 1_555
C57 C58 1_555 1_555
C58 S22 1_555 1_555
C59 C60 1_555 1_555
C60 C61 1_555 1_555
C61 H31 1_555 1_555
C62 C61 1_555 1_555
C63 C62 1_555 1_555
C64 C59 1_555 1_555
H32 C64 1_555 1_555
C65 H33 1_555 1_555
H34 C65 1_555 1_555
C66 C65 1_555 1_555
H35 C66 1_555 1_555
H36 C66 1_555 1_555
O11 C63 1_555 1_555
O12 C62 1_555 1_555
S21 C57 1_555 1_555
S22 C56 1_555 1_555
S23 C57 1_555 1_555
S24 C58 1_555 1_555
C67 C68 1_555 1_555
C68 S26 1_555 1_555
C69 S25 1_555 1_555
C70 S26 1_555 1_555
C71 C72 1_555 1_555
C72 H37 1_555 1_555
C73 C72 1_555 1_555
C74 C75 1_555 1_555
C75 H38 1_555 1_555
C76 C75 1_555 1_555
C77 H39 1_555 1_555
H40 C77 1_555 1_555
C78 H41 1_555 1_555
H42 C78 1_555 1_555
O13 C73 1_555 1_555
O14 C76 1_555 1_555
S25 C67 1_555 1_555
S27 C69 1_555 1_555
S28 C70 1_555 1_555
C79 S29 1_555 1_555
S30 C79 1_555 1_555
C1C C1 1_555 1_555
C2C C3C 1_555 1_555
C3C S2C 1_555 1_555
C4C C5C 1_555 1_555
C5C C6C 1_555 1_555
C6C H1C 1_555 1_555
C7C C6C 1_555 1_555
C8C C7C 1_555 1_555
C9C C4C 1_555 1_555
H2C C9C 1_555 1_555
C10C H3C 1_555 1_555
H4C C10C 1_555 1_555
C11C C10C 1_555 1_555
H5C C11C 1_555 1_555
H6C C11C 1_555 1_555
O1C C8C 1_555 1_555
O2C C7C 1_555 1_555
S1C C1C 1_555 1_555
S2C C1C 1_555 1_555
S3C C2C 1_555 1_555
S4C C3C 1_555 1_555
C12C C12 1_555 1_555
C13C C14C 1_555 1_555
C14C S6C 1_555 1_555
C15C C16C 1_555 1_555
C16C C17C 1_555 1_555
C17C H7C 1_555 1_555
C18C C17C 1_555 1_555
C19C C18C 1_555 1_555
C20C C15C 1_555 1_555
H8C C20C 1_555 1_555
C21C H9C 1_555 1_555
H10C C21C 1_555 1_555
C22C C21C 1_555 1_555
H11C C22C 1_555 1_555
H12C C22C 1_555 1_555
O3C C19C 1_555 1_555
O4C C18C 1_555 1_555
S5C C12C 1_555 1_555
S6C C12C 1_555 1_555
S7C C13C 1_555 1_555
S8C C14C 1_555 1_555
C23C C23 1_555 1_555
C24C C25C 1_555 1_555
C25C S10C 1_555 1_555
C26C C27C 1_555 1_555
C27C C28C 1_555 1_555
C28C H13C 1_555 1_555
C29C C28C 1_555 1_555
C30C C29C 1_555 1_555
C31C C26C 1_555 1_555
H14C C31C 1_555 1_555
C32C H15C 1_555 1_555
H16C C32C 1_555 1_555
C33C C32C 1_555 1_555
H17C C33C 1_555 1_555
H18C C33C 1_555 1_555
O5C C30C 1_555 1_555
O6C C29C 1_555 1_555
S9C C23C 1_555 1_555
S10C C23C 1_555 1_555
S11C C24C 1_555 1_555
S12C C25C 1_555 1_555
C34C C34 1_555 1_555
C35C C36C 1_555 1_555
C36C S14C 1_555 1_555
C37C C38C 1_555 1_555
C38C C39C 1_555 1_555
C39C H19C 1_555 1_555
C40C C39C 1_555 1_555
C41C C40C 1_555 1_555
C42C C37C 1_555 1_555
H20C C42C 1_555 1_555
C43C H21C 1_555 1_555
H22C C43C 1_555 1_555
C44C C43C 1_555 1_555
H23C C44C 1_555 1_555
H24C C44C 1_555 1_555
O7C C41C 1_555 1_555
O8C C40C 1_555 1_555
S13C C34C 1_555 1_555
S14C C34C 1_555 1_555
S15C C35C 1_555 1_555
S16C C36C 1_555 1_555
C45C C45 1_555 1_555
C46C C47C 1_555 1_555
C47C S18C 1_555 1_555
C48C C49C 1_555 1_555
C49C C50C 1_555 1_555
C50C H25C 1_555 1_555
C51C C50C 1_555 1_555
C52C C51C 1_555 1_555
C53C C48C 1_555 1_555
H26C C53C 1_555 1_555
C54C H27C 1_555 1_555
H28C C54C 1_555 1_555
C55C C54C 1_555 1_555
H29C C55C 1_555 1_555
H30C C55C 1_555 1_555
O9C C52C 1_555 1_555
O10C C51C 1_555 1_555
S17C C45C 1_555 1_555
S18C C45C 1_555 1_555
S19C C46C 1_555 1_555
S20C C47C 1_555 1_555
C56C C56 1_555 1_555
C57C C58C 1_555 1_555
C58C S22C 1_555 1_555
C59C C60C 1_555 1_555
C60C C61C 1_555 1_555
C61C H31C 1_555 1_555
C62C C61C 1_555 1_555
C63C C62C 1_555 1_555
C64C C59C 1_555 1_555
H32C C64C 1_555 1_555
C65C H33C 1_555 1_555
H34C C65C 1_555 1_555
C66C C65C 1_555 1_555
H35C C66C 1_555 1_555
H36C C66C 1_555 1_555
O11C C63C 1_555 1_555
O12C C62C 1_555 1_555
S21C C56C 1_555 1_555
S22C C56C 1_555 1_555
S23C C57C 1_555 1_555
S24C C58C 1_555 1_555
C69C C69 1_555 1_555
C70C C70 1_555 1_555
C71C C71 1_555 1_555
C72C C71C 1_555 1_555
H37C C72C 1_555 1_555
C73C C73 1_555 1_555
C74C C74 1_555 1_555
C75C C74C 1_555 1_555
H38C C75C 1_555 1_555
C76C C76 1_555 1_555
C77C C77 1_555 1_555
H39C C77C 1_555 1_555
H40C C77C 1_555 1_555
C78C C78 1_555 1_555
H41C C78C 1_555 1_555
H42C C78C 1_555 1_555
O13C C73C 1_555 1_555
O14C C76C 1_555 1_555
S25C C67 1_555 1_555
S26C C68 1_555 1_555
S27C C69C 1_555 1_555
S28C C70C 1_555 1_555
C4 S3 1_555 1_555
C5 S4 1_555 1_555
C8 C9 1_555 1_555
C10 O1 1_555 1_555
C11 O2 1_555 1_555
C15 S7 1_555 1_555
C16 S8 1_555 1_555
C19 C20 1_555 1_555
C21 O3 1_555 1_555
C22 O4 1_555 1_555
C26 S11 1_555 1_555
C27 S12 1_555 1_555
C30 C31 1_555 1_555
C32 O5 1_555 1_555
C33 O6 1_555 1_555
C37 S15 1_555 1_555
C38 S16 1_555 1_555
C41 C42 1_555 1_555
C43 O7 1_555 1_555
C44 O8 1_555 1_555
C48 S19 1_555 1_555
C49 S20 1_555 1_555
C52 C53 1_555 1_555
C54 O9 1_555 1_555
C55 O10 1_555 1_555
C59 S23 1_555 1_555
C60 S24 1_555 1_555
C63 C64 1_555 1_555
C65 O11 1_555 1_555
C66 O12 1_555 1_555
C71 S27 1_555 1_555
C74 S28 1_555 1_555
C77 O13 1_555 1_555
C78 O14 1_555 1_555
C2C S1C 1_555 1_555
C4C S3C 1_555 1_555
C5C S4C 1_555 1_555
C8C C9C 1_555 1_555
C10C O1C 1_555 1_555
C11C O2C 1_555 1_555
C13C S5C 1_555 1_555
C15C S7C 1_555 1_555
C16C S8C 1_555 1_555
C19C C20C 1_555 1_555
C21C O3C 1_555 1_555
C22C O4C 1_555 1_555
C24C S9C 1_555 1_555
C26C S11C 1_555 1_555
C27C S12C 1_555 1_555
C30C C31C 1_555 1_555
C32C O5C 1_555 1_555
C33C O6C 1_555 1_555
C35C S13C 1_555 1_555
C37C S15C 1_555 1_555
C38C S16C 1_555 1_555
C41C C42C 1_555 1_555
C43C O7C 1_555 1_555
C44C O8C 1_555 1_555
C46C S17C 1_555 1_555
C48C S19C 1_555 1_555
C49C S20C 1_555 1_555
C52C C53C 1_555 1_555
C54C O9C 1_555 1_555
C55C O10C 1_555 1_555
C57C S21C 1_555 1_555
C59C S23C 1_555 1_555
C60C S24C 1_555 1_555
C63C C64C 1_555 1_555
C65C O11C 1_555 1_555
C66C O12C 1_555 1_555
C69C S25C 1_555 1_555
C70C S26C 1_555 1_555
C71C S27C 1_555 1_555
C72C C73C 1_555 1_555
C74C S28C 1_555 1_555
C75C C76C 1_555 1_555
C77C O13C 1_555 1_555
C78C O14C 1_555 1_555

#END
