
#######################################################################
#
#                 Cambridge Crystallographic Data Centre
#                                CCDC 
#
#######################################################################
#
# If this CIF has been generated from an entry in the Cambridge 
# Structural Database, then it will include bibliographic, chemical, 
# crystal, experimental, refinement or atomic coordinate data resulting 
# from the CCDC's data processing and validation procedures.
#
#######################################################################

data_KIGTIF
_chemical_name_common            TTF-32
_chemical_formula_moiety         'C26 H24 O4 S8'
_chemical_name_systematic        
2-(6,7-Diethoxy[1,3]dithiolo[4,5-b][1,4]benzodithiin-2-ylidene)-6,7-diethoxy[1,3]dithiolo[4,5-b][1,4]benzodithiine
_symmetry_cell_setting           monoclinic
_symmetry_space_group_name_H-M   'P 21/c'
_symmetry_Int_Tables_number      14
_space_group_name_Hall           '-P 2ybc'
loop_
_symmetry_equiv_pos_site_id
_symmetry_equiv_pos_as_xyz
1 x,y,z
2 -x,1/2+y,1/2-z
3 -x,-y,-z
4 x,1/2-y,1/2+z
_cell_length_a                   14.738(9)
_cell_length_b                   4.377(3)
_cell_length_c                   23.788(15)
_cell_angle_alpha                90
_cell_angle_beta                 104.709(6)
_cell_angle_gamma                90
_cell_volume                     1484.23
_exptl_crystal_colour            pink
_exptl_crystal_description       needle
_chemical_melting_point          '568 K'
_cell_formula_units_Z            2
loop_
_atom_site_label
_atom_site_type_symbol
_atom_site_fract_x
_atom_site_fract_y
_atom_site_fract_z
C1 C 0.5210(3) 0.0642(10) 0.52581(16)
C2 C 0.5567(3) 0.2885(9) 0.62915(17)
C3 C 0.6259(3) 0.3930(9) 0.60706(16)
C4 C 0.6689(3) 0.3500(10) 0.73789(17)
C5 C 0.7387(3) 0.4696(9) 0.71523(18)
C6 C 0.6918(3) 0.2141(10) 0.79268(16)
H1 H 0.6450 0.1248 0.8071
C7 C 0.8325(3) 0.4645(9) 0.74811(19)
H2 H 0.8797 0.5410 0.7325
C8 C 0.7837(3) 0.2114(10) 0.82574(18)
C9 C 0.8542(3) 0.3449(10) 0.80383(19)
C10 C 0.7483(3) -0.0659(12) 0.90497(18)
H3 H 0.7184 -0.2298 0.8795
H4 H 0.7002 0.0748 0.9102
C11 C 0.8013(4) -0.1923(12) 0.9625(2)
H5 H 0.7587 -0.2984 0.9802
H6 H 0.8305 -0.0281 0.9873
H7 H 0.8485 -0.3314 0.9568
C12 C 1.0048(4) 0.5659(14) 0.8379(3)
H8 H 0.9712 0.7584 0.8311
H9 H 1.0315 0.5299 0.8052
C13 C 1.0808(4) 0.5941(14) 0.8901(3)
H10 H 1.1212 0.7594 0.8856
H11 H 1.1161 0.4074 0.8965
H12 H 1.0554 0.6341 0.9228
O1 O 0.8143(2) 0.0886(7) 0.88062(12)
O2 O 0.9433(2) 0.3418(8) 0.83955(16)
S1 S 0.47456(7) 0.0374(3) 0.58702(4)
S2 S 0.62906(8) 0.2597(3) 0.53794(4)
S3 S 0.54835(7) 0.3770(3) 0.69946(4)
S4 S 0.71346(8) 0.6411(3) 0.64499(5)
C1B C 0.4790(3) -0.0642(10) 0.47419(16)
C2B C 0.4433(3) -0.2885(9) 0.37085(17)
C3B C 0.3741(3) -0.3930(9) 0.39294(16)
C4B C 0.3311(3) -0.3500(10) 0.26211(17)
C5B C 0.2613(3) -0.4696(9) 0.28477(18)
C6B C 0.3082(3) -0.2141(10) 0.20732(16)
H1B H 0.3550 -0.1248 0.1929
C7B C 0.1675(3) -0.4645(9) 0.25189(19)
H2B H 0.1203 -0.5410 0.2675
C8B C 0.2163(3) -0.2114(10) 0.17426(18)
C9B C 0.1458(3) -0.3449(10) 0.19617(19)
C10B C 0.2517(3) 0.0659(12) 0.09503(18)
H3B H 0.2816 0.2298 0.1205
H4B H 0.2998 -0.0748 0.0898
C11B C 0.1987(4) 0.1923(12) 0.0375(2)
H5B H 0.2413 0.2984 0.0198
H6B H 0.1695 0.0281 0.0127
H7B H 0.1515 0.3314 0.0432
C12B C -0.0048(4) -0.5659(14) 0.1621(3)
H8B H 0.0288 -0.7584 0.1689
H9B H -0.0315 -0.5299 0.1948
C13B C -0.0808(4) -0.5941(14) 0.1099(3)
H10B H -0.1212 -0.7594 0.1144
H11B H -0.1161 -0.4074 0.1035
H12B H -0.0554 -0.6341 0.0772
O1B O 0.1857(2) -0.0886(7) 0.11938(12)
O2B O 0.0567(2) -0.3418(8) 0.16045(16)
S1B S 0.52544(7) -0.0374(3) 0.41298(4)
S2B S 0.37094(8) -0.2597(3) 0.46206(4)
S3B S 0.45165(7) -0.3770(3) 0.30054(4)
S4B S 0.28654(8) -0.6411(3) 0.35501(5)
loop_
_geom_bond_atom_site_label_1
_geom_bond_atom_site_label_2
_geom_bond_site_symmetry_1
_geom_bond_site_symmetry_2
C1 S1 1_555 1_555
C2 C3 1_555 1_555
C3 S2 1_555 1_555
C4 C5 1_555 1_555
C5 C7 1_555 1_555
C6 C4 1_555 1_555
H1 C6 1_555 1_555
C7 H2 1_555 1_555
C8 C6 1_555 1_555
C9 C7 1_555 1_555
C10 H3 1_555 1_555
H4 C10 1_555 1_555
C11 C10 1_555 1_555
H5 C11 1_555 1_555
H6 C11 1_555 1_555
H7 C11 1_555 1_555
C12 H8 1_555 1_555
H9 C12 1_555 1_555
C13 C12 1_555 1_555
H10 C13 1_555 1_555
H11 C13 1_555 1_555
H12 C13 1_555 1_555
O1 C8 1_555 1_555
O2 C9 1_555 1_555
S1 C2 1_555 1_555
S2 C1 1_555 1_555
S3 C2 1_555 1_555
S4 C3 1_555 1_555
C1B C1 1_555 1_555
C2B C3B 1_555 1_555
C3B S2B 1_555 1_555
C4B C5B 1_555 1_555
C5B C7B 1_555 1_555
C6B C4B 1_555 1_555
H1B C6B 1_555 1_555
C7B H2B 1_555 1_555
C8B C6B 1_555 1_555
C9B C7B 1_555 1_555
C10B H3B 1_555 1_555
H4B C10B 1_555 1_555
C11B C10B 1_555 1_555
H5B C11B 1_555 1_555
H6B C11B 1_555 1_555
H7B C11B 1_555 1_555
C12B H8B 1_555 1_555
H9B C12B 1_555 1_555
C13B C12B 1_555 1_555
H10B C13B 1_555 1_555
H11B C13B 1_555 1_555
H12B C13B 1_555 1_555
O1B C8B 1_555 1_555
O2B C9B 1_555 1_555
S1B C1B 1_555 1_555
S2B C1B 1_555 1_555
S3B C2B 1_555 1_555
S4B C3B 1_555 1_555
C4 S3 1_555 1_555
C5 S4 1_555 1_555
C8 C9 1_555 1_555
C10 O1 1_555 1_555
C12 O2 1_555 1_555
C2B S1B 1_555 1_555
C4B S3B 1_555 1_555
C5B S4B 1_555 1_555
C8B C9B 1_555 1_555
C10B O1B 1_555 1_555
C12B O2B 1_555 1_555

#END
