
#######################################################################
#
#                 Cambridge Crystallographic Data Centre
#                                CCDC 
#
#######################################################################
#
# If this CIF has been generated from an entry in the Cambridge 
# Structural Database, then it will include bibliographic, chemical, 
# crystal, experimental, refinement or atomic coordinate data resulting 
# from the CCDC's data processing and validation procedures.
#
#######################################################################

data_KIGTOL01
_chemical_name_common            TTF-28-II
_chemical_formula_moiety         'C26 H16 N4 S8'
_chemical_name_systematic        
2-((2-(4,5-bis(pyridin-2-ylsulfanyl)-1,3-dithiol-2-ylidene)-5-(pyridin-2-ylsulfanyl)-1,3-dithiol-4-yl)sulfanyl)pyridine
_symmetry_cell_setting           monoclinic
_symmetry_space_group_name_H-M   'P 21/n'
_symmetry_Int_Tables_number      14
_space_group_name_Hall           '-P 2yn'
loop_
_symmetry_equiv_pos_site_id
_symmetry_equiv_pos_as_xyz
1 x,y,z
2 1/2-x,1/2+y,1/2-z
3 -x,-y,-z
4 1/2+x,1/2-y,1/2+z
_cell_length_a                   15.8220(7)
_cell_length_b                   8.9970(3)
_cell_length_c                   21.0120(8)
_cell_angle_alpha                90
_cell_angle_beta                 109.935(5)
_cell_angle_gamma                90
_cell_volume                     2811.84
_exptl_crystal_colour            red
_exptl_crystal_description       platelet
_chemical_melting_point          '478 K'
_cell_formula_units_Z            4
loop_
_atom_site_label
_atom_site_type_symbol
_atom_site_fract_x
_atom_site_fract_y
_atom_site_fract_z
S1 S 0.46459(5) 0.18166(9) 0.34265(3)
S2 S 0.51926(5) 0.10781(9) 0.22403(3)
S3 S 0.52898(5) 0.34705(9) 0.67895(3)
S4 S 0.36730(5) 0.10296(10) 0.59978(4)
S5 S 0.68337(6) 0.36121(10) 0.28709(4)
N1 N 0.63741(15) 0.2549(3) 0.79361(10)
N2 N 0.40742(18) 0.1366(3) 0.10354(11)
C1 C 0.53879(17) 0.2108(3) 0.29867(12)
C2 C 0.61822(16) 0.2301(3) 0.72744(11)
N3 N 0.22665(16) 0.2391(3) 0.51034(12)
C3 C 0.60998(17) 0.2993(3) 0.32758(12)
C4 C 0.43527(17) 0.2104(3) 0.16158(12)
C5 C 0.78477(19) 0.2625(3) 0.32833(14)
C6 C 0.50558(17) 0.2844(3) 0.59582(12)
C7 C 0.26833(17) 0.2140(3) 0.57531(12)
C8 C 0.51058(16) 0.2648(3) 0.47367(12)
C9 C 0.3073(2) 0.3383(4) 0.05634(15)
H1 H 0.2621 0.3787 0.0195
C10 C 0.43538(17) 0.1972(3) 0.56229(12)
C11 C 0.53055(16) 0.2731(3) 0.41663(11)
C12 C 0.7037(2) 0.1748(4) 0.83571(14)
H2 H 0.7189 0.1908 0.8820
C13 C 0.40399(19) 0.3481(3) 0.17039(13)
H3 H 0.4264 0.3970 0.2118
C14 C 0.9420(3) 0.1205(6) 0.3812(3)
H4 H 0.9971 0.0723 0.3991
C15 C 0.66250(18) 0.1287(3) 0.70157(13)
H5 H 0.6471 0.1153 0.6551
N4 N 0.79078(19) 0.1576(3) 0.37660(15)
C16 C 0.8512(2) 0.2990(4) 0.30624(17)
H6 H 0.8438 0.3726 0.2737
C17 C 0.7298(2) 0.0479(4) 0.74616(16)
H7 H 0.7614 -0.0217 0.7305
C18 C 0.3442(3) 0.2029(5) 0.05193(16)
H8 H 0.3242 0.1539 0.0105
C19 C 0.1495(3) 0.3145(5) 0.4948(2)
H9 H 0.1192 0.3372 0.4496
C20 C 0.2373(3) 0.2611(5) 0.62502(18)
H10 H 0.2701 0.2436 0.6704
C21 C 0.3387(2) 0.4119(4) 0.11642(15)
H11 H 0.3161 0.5051 0.1209
C22 C 0.9286(3) 0.2266(6) 0.3322(2)
H12 H 0.9754 0.2490 0.3164
C23 C 0.8723(2) 0.0870(4) 0.4033(2)
H13 H 0.8802 0.0155 0.4368
C24 C 0.1571(4) 0.3345(5) 0.6068(3)
H14 H 0.1337 0.3663 0.6395
C25 C 0.1128(3) 0.3599(5) 0.5413(3)
H15 H 0.0575 0.4080 0.5276
S6 S 0.41569(5) 0.16585(10) 0.47617(3)
S7 S 0.62137(5) 0.37382(8) 0.40772(3)
S8 S 0.57092(5) 0.35441(9) 0.54985(3)
C26 C 0.7504(2) 0.0701(4) 0.81434(16)
H16 H 0.7954 0.0149 0.8455
loop_
_geom_bond_atom_site_label_1
_geom_bond_atom_site_label_2
_geom_bond_site_symmetry_1
_geom_bond_site_symmetry_2
S1 C1 1_555 1_555
S2 C1 1_555 1_555
S3 C2 1_555 1_555
S4 C7 1_555 1_555
S5 C3 1_555 1_555
N1 C2 1_555 1_555
N2 C4 1_555 1_555
C1 C3 1_555 1_555
C2 C15 1_555 1_555
N3 C7 1_555 1_555
C3 S7 1_555 1_555
C4 S2 1_555 1_555
C5 S5 1_555 1_555
C6 S3 1_555 1_555
C7 C20 1_555 1_555
C8 C11 1_555 1_555
C9 H1 1_555 1_555
C10 S4 1_555 1_555
C11 S1 1_555 1_555
C12 N1 1_555 1_555
H2 C12 1_555 1_555
C13 C4 1_555 1_555
H3 C13 1_555 1_555
C14 H4 1_555 1_555
C15 H5 1_555 1_555
N4 C5 1_555 1_555
C16 C5 1_555 1_555
H6 C16 1_555 1_555
C17 C15 1_555 1_555
H7 C17 1_555 1_555
C18 N2 1_555 1_555
H8 C18 1_555 1_555
C19 N3 1_555 1_555
H9 C19 1_555 1_555
C20 H10 1_555 1_555
C21 C9 1_555 1_555
H11 C21 1_555 1_555
C22 C14 1_555 1_555
H12 C22 1_555 1_555
C23 C14 1_555 1_555
H13 C23 1_555 1_555
C24 C20 1_555 1_555
H14 C24 1_555 1_555
C25 C19 1_555 1_555
H15 C25 1_555 1_555
S6 C8 1_555 1_555
S7 C11 1_555 1_555
S8 C6 1_555 1_555
C26 C12 1_555 1_555
H16 C26 1_555 1_555
C6 C10 1_555 1_555
C8 S8 1_555 1_555
C9 C18 1_555 1_555
C10 S6 1_555 1_555
C13 C21 1_555 1_555
N4 C23 1_555 1_555
C16 C22 1_555 1_555
C17 C26 1_555 1_555
C24 C25 1_555 1_555

#END
