
#######################################################################
#
#                 Cambridge Crystallographic Data Centre
#                                CCDC 
#
#######################################################################
#
# If this CIF has been generated from an entry in the Cambridge 
# Structural Database, then it will include bibliographic, chemical, 
# crystal, experimental, refinement or atomic coordinate data resulting 
# from the CCDC's data processing and validation procedures.
#
#######################################################################

data_KIGTUQ
_chemical_formula_moiety         'C21 H19 F1 O2'
_chemical_name_systematic        
5-Fluoro-3'-hydroxy-2,3',6'-trimethyl-3',4'-dihydro-1'H-spiro(indene-1,2'-naphthalen)-1'-one
_symmetry_cell_setting           monoclinic
_symmetry_space_group_name_H-M   'P 21/c'
_symmetry_Int_Tables_number      14
_space_group_name_Hall           '-P 2ybc'
loop_
_symmetry_equiv_pos_site_id
_symmetry_equiv_pos_as_xyz
1 x,y,z
2 -x,1/2+y,1/2-z
3 -x,-y,-z
4 x,1/2-y,1/2+z
_cell_length_a                   16.230(3)
_cell_length_b                   6.6993(14)
_cell_length_c                   15.029(3)
_cell_angle_alpha                90
_cell_angle_beta                 90.469(4)
_cell_angle_gamma                90
_cell_volume                     1634.04
_exptl_crystal_colour            colorless
_exptl_crystal_description       columnar
_chemical_melting_point          '181.3-182.1 deg.C'
_cell_formula_units_Z            4
loop_
_atom_site_label
_atom_site_type_symbol
_atom_site_fract_x
_atom_site_fract_y
_atom_site_fract_z
F1 F 0.48875(8) -0.27998(19) 0.53349(8)
O1 O 0.20495(8) -0.1918(2) 0.22967(9)
O2 O 0.21992(8) 0.3745(2) 0.21700(8)
C1 C 0.20263(12) -0.0367(3) 0.27259(12)
C2 C 0.12683(12) 0.0278(3) 0.31769(12)
C3 C 0.05644(13) -0.0918(3) 0.31167(13)
C4 C -0.01525(13) -0.0352(4) 0.35332(15)
C5 C -0.01902(14) 0.1405(4) 0.40120(14)
C6 C 0.05048(14) 0.2587(4) 0.40655(14)
C7 C 0.12394(12) 0.2063(3) 0.36545(13)
C8 C 0.19846(13) 0.3379(3) 0.37369(14)
C9 C 0.25952(12) 0.3125(3) 0.29855(12)
C10 C 0.28041(11) 0.0882(3) 0.28392(11)
C11 C 0.32829(11) -0.0024(3) 0.36266(12)
C12 C 0.30538(12) -0.0356(3) 0.44990(13)
C13 C 0.36049(14) -0.1287(3) 0.50820(13)
C14 C 0.43566(14) -0.1879(3) 0.47637(14)
C15 C 0.46005(12) -0.1612(3) 0.38962(14)
C16 C 0.40489(12) -0.0690(3) 0.33282(12)
C17 C 0.40939(12) -0.0310(3) 0.23720(13)
C18 C 0.34017(12) 0.0535(3) 0.20735(12)
C19 C 0.32181(14) 0.1019(3) 0.11257(13)
C20 C 0.33644(13) 0.4364(3) 0.31487(15)
C21 C -0.09751(14) 0.1982(5) 0.44658(15)
H1 H 0.1837 0.4796 0.3767
H2 H 0.2504 0.0054 0.4745
H3 H 0.2271 0.3231 0.4355
H4 H 0.0497 0.3950 0.4431
H5 H 0.3480 -0.1525 0.5738
H6 H 0.0590 -0.2286 0.2793
H7 H 0.2715 0.0612 0.0964
H8 H 0.3149 0.2364 0.1039
H9 H -0.0695 -0.1206 0.3458
H10 H 0.3680 0.0541 0.0668
H11 H 0.5195 -0.2072 0.3708
H12 H 0.2056 0.5240 0.2179
H13 H 0.3674 0.3901 0.3680
H14 H 0.4570 -0.0859 0.2004
H15 H 0.3771 0.4375 0.2687
H16 H 0.3207 0.5692 0.3257
H17 H -0.0953 0.2160 0.5054
H18 H -0.1092 0.3218 0.4291
H19 H -0.1454 0.1534 0.4052
loop_
_geom_bond_atom_site_label_1
_geom_bond_atom_site_label_2
_geom_bond_site_symmetry_1
_geom_bond_site_symmetry_2
F1 C14 1_555 1_555
O1 C1 1_555 1_555
O2 C9 1_555 1_555
C1 C2 1_555 1_555
C2 C3 1_555 1_555
C3 C4 1_555 1_555
C4 C5 1_555 1_555
C5 C6 1_555 1_555
C6 C7 1_555 1_555
C7 C2 1_555 1_555
C8 C7 1_555 1_555
C9 C8 1_555 1_555
C10 C1 1_555 1_555
C11 C10 1_555 1_555
C12 C11 1_555 1_555
C13 C12 1_555 1_555
C14 C13 1_555 1_555
C15 C14 1_555 1_555
C16 C11 1_555 1_555
C17 C16 1_555 1_555
C18 C10 1_555 1_555
C19 C18 1_555 1_555
C20 C9 1_555 1_555
C21 C5 1_555 1_555
H1 C8 1_555 1_555
H2 C12 1_555 1_555
H3 C8 1_555 1_555
H4 C6 1_555 1_555
H5 C13 1_555 1_555
H6 C3 1_555 1_555
H7 C19 1_555 1_555
H8 C19 1_555 1_555
H9 C4 1_555 1_555
H10 C19 1_555 1_555
H11 C15 1_555 1_555
H12 O2 1_555 1_555
H13 C20 1_555 1_555
H14 C17 1_555 1_555
H15 C20 1_555 1_555
H16 C20 1_555 1_555
H17 C21 1_555 1_555
H18 C21 1_555 1_555
H19 C21 1_555 1_555
C9 C10 1_555 1_555
C15 C16 1_555 1_555
C17 C18 1_555 1_555

#END
