
#######################################################################
#
#                 Cambridge Crystallographic Data Centre
#                                CCDC 
#
#######################################################################
#
# If this CIF has been generated from an entry in the Cambridge 
# Structural Database, then it will include bibliographic, chemical, 
# crystal, experimental, refinement or atomic coordinate data resulting 
# from the CCDC's data processing and validation procedures.
#
#######################################################################

data_KIGVEC
_chemical_formula_moiety         'C26 H20 O2'
_chemical_name_systematic        
7-(4-Methoxyphenyl)-6-methyldibenzo(a,e)azulen-5(12H)-one
_symmetry_cell_setting           triclinic
_symmetry_space_group_name_H-M   'P -1'
_symmetry_Int_Tables_number      2
_space_group_name_Hall           '-P 1'
loop_
_symmetry_equiv_pos_site_id
_symmetry_equiv_pos_as_xyz
1 x,y,z
2 -x,-y,-z
_cell_length_a                   9.4914(4)
_cell_length_b                   10.2968(8)
_cell_length_c                   10.8371(7)
_cell_angle_alpha                91.9320(10)
_cell_angle_beta                 110.340(2)
_cell_angle_gamma                104.2740(10)
_cell_volume                     954.076
_exptl_crystal_colour            yellow
_chemical_melting_point          '172.8-173.4 deg.C'
_cell_formula_units_Z            2
loop_
_atom_site_label
_atom_site_type_symbol
_atom_site_fract_x
_atom_site_fract_y
_atom_site_fract_z
C1 C 0.3334(3) 0.0775(2) 0.7017(3)
C2 C 0.4209(3) 0.0963(3) 0.6213(3)
C3 C 0.3737(3) 0.1544(3) 0.5068(3)
C4 C 0.2367(3) 0.1962(2) 0.4688(2)
C5 C 0.1512(3) 0.1762(3) 0.5506(3)
C6 C 0.1973(3) 0.1182(3) 0.6663(3)
C7 C 0.1838(3) 0.2639(2) 0.3479(2)
C8 C 0.1495(3) 0.1988(3) 0.2263(3)
C9 C 0.0974(3) 0.2570(3) 0.1010(3)
C10 C -0.0336(3) 0.3206(3) 0.0695(3)
C11 C -0.1428(4) 0.2864(3) -0.0609(3)
C12 C -0.2729(4) 0.3330(4) -0.1003(4)
H1 H -0.3457 0.3077 -0.1866
C13 C -0.2960(4) 0.4176(4) -0.0118(4)
C14 C -0.1870(4) 0.4559(3) 0.1160(3)
C15 C -0.0540(3) 0.4074(3) 0.1609(3)
C16 C 0.0595(3) 0.4571(3) 0.2938(3)
C17 C 0.0685(4) 0.5892(3) 0.3652(3)
C18 C 0.2043(3) 0.6066(3) 0.4922(3)
C19 C 0.2710(4) 0.7125(3) 0.5960(3)
C20 C 0.3989(4) 0.7067(3) 0.7044(3)
C21 C 0.4603(4) 0.5970(3) 0.7092(3)
C22 C 0.3933(3) 0.4898(3) 0.6070(3)
C23 C 0.2631(3) 0.4938(2) 0.4977(2)
C24 C 0.1680(3) 0.3998(2) 0.3725(2)
C25 C 0.1677(4) 0.0591(3) 0.2042(3)
H2 H 0.2650 0.0665 0.1927
H3 H 0.0829 0.0089 0.1262
H4 H 0.1665 0.0133 0.2797
C26 C 0.3012(5) -0.0074(4) 0.8953(4)
H5 H 0.2907 0.0758 0.9288
H6 H 0.3526 -0.0505 0.9682
H7 H 0.1995 -0.0661 0.8441
H8 H 0.518(3) 0.067(3) 0.648(3)
H9 H 0.436(3) 0.170(3) 0.449(3)
H10 H 0.054(4) 0.202(3) 0.527(3)
H11 H 0.137(4) 0.107(3) 0.723(3)
H12 H -0.116(4) 0.233(3) -0.122(3)
H13 H -0.394(5) 0.450(4) -0.040(4)
H14 H -0.207(4) 0.515(3) 0.183(3)
H15 H 0.081(3) 0.664(3) 0.311(3)
H16 H 0.223(3) 0.791(3) 0.586(3)
H17 H 0.446(4) 0.784(3) 0.777(3)
H18 H 0.551(4) 0.593(3) 0.792(3)
H19 H 0.443(3) 0.414(3) 0.608(3)
H20 H -0.032(4) 0.580(3) 0.385(3)
O1 O 0.3914(2) 0.0200(2) 0.81343(19)
O2 O 0.1466(3) 0.2346(2) 0.0136(2)
loop_
_geom_bond_atom_site_label_1
_geom_bond_atom_site_label_2
_geom_bond_site_symmetry_1
_geom_bond_site_symmetry_2
C1 C2 1_555 1_555
C2 C3 1_555 1_555
C3 C4 1_555 1_555
C4 C5 1_555 1_555
C5 C6 1_555 1_555
C6 C1 1_555 1_555
C7 C4 1_555 1_555
C8 C7 1_555 1_555
C9 C8 1_555 1_555
C10 C9 1_555 1_555
C11 C10 1_555 1_555
C12 C11 1_555 1_555
H1 C12 1_555 1_555
C13 C12 1_555 1_555
C14 C13 1_555 1_555
C15 C10 1_555 1_555
C16 C15 1_555 1_555
C17 C16 1_555 1_555
C18 C17 1_555 1_555
C19 C18 1_555 1_555
C20 C19 1_555 1_555
C21 C20 1_555 1_555
C22 C21 1_555 1_555
C23 C18 1_555 1_555
C24 C7 1_555 1_555
C25 C8 1_555 1_555
H2 C25 1_555 1_555
H3 C25 1_555 1_555
H4 C25 1_555 1_555
C26 H5 1_555 1_555
H6 C26 1_555 1_555
H7 C26 1_555 1_555
H8 C2 1_555 1_555
H9 C3 1_555 1_555
H10 C5 1_555 1_555
H11 C6 1_555 1_555
H12 C11 1_555 1_555
H13 C13 1_555 1_555
H14 C14 1_555 1_555
H15 C17 1_555 1_555
H16 C19 1_555 1_555
H17 C20 1_555 1_555
H18 C21 1_555 1_555
H19 C22 1_555 1_555
H20 C17 1_555 1_555
O1 C1 1_555 1_555
O2 C9 1_555 1_555
C14 C15 1_555 1_555
C16 C24 1_555 1_555
C22 C23 1_555 1_555
C23 C24 1_555 1_555
C26 O1 1_555 1_555

#END
