
#######################################################################
#
#                 Cambridge Crystallographic Data Centre
#                                CCDC 
#
#######################################################################
#
# If this CIF has been generated from an entry in the Cambridge 
# Structural Database, then it will include bibliographic, chemical, 
# crystal, experimental, refinement or atomic coordinate data resulting 
# from the CCDC's data processing and validation procedures.
#
#######################################################################

data_KIGVED
_chemical_name_common            TTF-19
_chemical_formula_moiety         'C38 H28 O8 S8'
_chemical_name_systematic        
'Methyl 3-((2-(4,5-bis((3-(methoxycarbonyl)phenyl)sulfanyl)-1,3-dithiol-2-ylidene)-5-((3-(methoxycarbonyl)phenyl)sulfanyl)-1,3-dithiol-4-yl)sulfanyl)benzoate'
_symmetry_cell_setting           monoclinic
_symmetry_space_group_name_H-M   'P 2/c'
_symmetry_Int_Tables_number      13
_space_group_name_Hall           '-P 2yc'
loop_
_symmetry_equiv_pos_site_id
_symmetry_equiv_pos_as_xyz
1 x,y,z
2 -x,y,1/2-z
3 -x,-y,-z
4 x,-y,1/2+z
_cell_length_a                   17.7445(6)
_cell_length_b                   4.9639(1)
_cell_length_c                   22.7049(7)
_cell_angle_alpha                90
_cell_angle_beta                 105.924(3)
_cell_angle_gamma                90
_cell_volume                     1923.15
_exptl_crystal_colour            orange
_exptl_crystal_description       needle
_chemical_melting_point          '435 K'
_cell_formula_units_Z            2
loop_
_atom_site_label
_atom_site_type_symbol
_atom_site_fract_x
_atom_site_fract_y
_atom_site_fract_z
S1 S 0.40815(4) 0.29992(14) 0.46476(3)
S2 S 0.48452(4) 0.10206(14) 0.58981(3)
S3 S 0.39805(5) 0.49463(14) 0.64847(3)
S4 S 0.30597(5) 0.69245(14) 0.50883(3)
C1 C 0.37585(15) 0.4338(5) 0.52513(12)
O1 O 0.15803(13) -0.1969(5) 0.58696(10)
O2 O 0.15443(15) -0.4237(5) 0.67079(11)
O3 O 0.02975(13) 0.0556(4) 0.32416(9)
O4 O 0.07654(14) -0.0260(5) 0.42378(10)
C2 C 0.47753(14) 0.0818(5) 0.51151(11)
C3 C 0.41110(15) 0.3476(5) 0.58174(11)
C4 C 0.35537(16) 0.2290(5) 0.68154(12)
C5 C 0.13917(16) 0.3057(5) 0.37851(12)
C6 C 0.24493(16) 0.5827(5) 0.43653(12)
C7 C 0.38837(19) 0.1703(7) 0.74315(13)
H1 H 0.4330 0.2612 0.7653
C8 C 0.07982(18) 0.0945(6) 0.37889(14)
C9 C 0.18995(16) 0.3809(5) 0.43407(12)
H2 H 0.1872 0.2958 0.4699
C10 C 0.24880(17) 0.7091(6) 0.38329(13)
H3 H 0.2853 0.8452 0.3848
C11 C 0.18433(19) -0.2578(6) 0.64628(14)
C12 C 0.28865(16) 0.0951(5) 0.64923(12)
H4 H 0.2661 0.1353 0.6082
C13 C 0.25513(17) -0.1000(6) 0.67806(13)
C14 C 0.3544(2) -0.0239(8) 0.77117(14)
H5 H 0.3766 -0.0644 0.8123
C15 C 0.28885(19) -0.1568(7) 0.73918(14)
H6 H 0.2666 -0.2869 0.7586
C16 C 0.14377(17) 0.4324(6) 0.32500(13)
H7 H 0.1102 0.3820 0.2875
C17 C 0.19847(19) 0.6333(6) 0.32776(14)
H8 H 0.2015 0.7184 0.2920
C18 C -0.03035(19) -0.1440(6) 0.32105(16)
H9 H -0.0631 -0.1563 0.2798
H10 H -0.0615 -0.0928 0.3477
H11 H -0.0064 -0.3157 0.3336
C19 C 0.0916(2) -0.3514(8) 0.55224(16)
H12 H 0.0772 -0.2923 0.5104
H13 H 0.0482 -0.3255 0.5693
H14 H 0.1052 -0.5390 0.5540
S1B S 0.59185(4) -0.29992(14) 0.53524(3)
S2B S 0.51548(4) -0.10206(14) 0.41019(3)
S3B S 0.60195(5) -0.49463(14) 0.35153(3)
S4B S 0.69403(5) -0.69245(14) 0.49117(3)
C1B C 0.62415(15) -0.4338(5) 0.47487(12)
O1B O 0.84197(13) 0.1969(5) 0.41304(10)
O2B O 0.84557(15) 0.4237(5) 0.32921(11)
O3B O 0.97025(13) -0.0556(4) 0.67584(9)
O4B O 0.92346(14) 0.0260(5) 0.57622(10)
C2B C 0.52247(14) -0.0818(5) 0.48849(11)
C3B C 0.58890(15) -0.3476(5) 0.41826(11)
C4B C 0.64463(16) -0.2290(5) 0.31846(12)
C5B C 0.86083(16) -0.3057(5) 0.62149(12)
C6B C 0.75507(16) -0.5827(5) 0.56347(12)
C7B C 0.61163(19) -0.1703(7) 0.25685(13)
H1B H 0.5670 -0.2612 0.2347
C8B C 0.92018(18) -0.0945(6) 0.62111(14)
C9B C 0.81005(16) -0.3809(5) 0.56593(12)
H2B H 0.8128 -0.2958 0.5301
C10B C 0.75120(17) -0.7091(6) 0.61671(13)
H3B H 0.7147 -0.8452 0.6152
C11B C 0.81567(19) 0.2578(6) 0.35372(14)
C12B C 0.71135(16) -0.0951(5) 0.35077(12)
H4B H 0.7339 -0.1353 0.3918
C13B C 0.74487(17) 0.1000(6) 0.32194(13)
C14B C 0.6456(2) 0.0239(8) 0.22883(14)
H5B H 0.6234 0.0644 0.1877
C15B C 0.71115(19) 0.1568(7) 0.26082(14)
H6B H 0.7334 0.2869 0.2414
C16B C 0.85623(17) -0.4324(6) 0.67500(13)
H7B H 0.8898 -0.3820 0.7125
C17B C 0.80153(19) -0.6333(6) 0.67224(14)
H8B H 0.7985 -0.7184 0.7080
C18B C 1.03035(19) 0.1440(6) 0.67895(16)
H9B H 1.0631 0.1563 0.7202
H10B H 1.0615 0.0928 0.6523
H11B H 1.0064 0.3157 0.6664
C19B C 0.9084(2) 0.3514(8) 0.44776(16)
H12B H 0.9228 0.2923 0.4896
H13B H 0.9518 0.3255 0.4307
H14B H 0.8948 0.5390 0.4460
loop_
_geom_bond_atom_site_label_1
_geom_bond_atom_site_label_2
_geom_bond_site_symmetry_1
_geom_bond_site_symmetry_2
S1 C1 1_555 1_555
S2 C2 1_555 1_555
S3 C3 1_555 1_555
S4 C1 1_555 1_555
C1 C3 1_555 1_555
O1 C11 1_555 1_555
O2 C11 1_555 1_555
O3 C8 1_555 1_555
O4 C8 1_555 1_555
C2 S1 1_555 1_555
C3 S2 1_555 1_555
C4 S3 1_555 1_555
C5 C8 1_555 1_555
C6 S4 1_555 1_555
C7 C4 1_555 1_555
H1 C7 1_555 1_555
C9 C5 1_555 1_555
H2 C9 1_555 1_555
C10 C6 1_555 1_555
H3 C10 1_555 1_555
C11 C13 1_555 1_555
C12 C4 1_555 1_555
H4 C12 1_555 1_555
C13 C12 1_555 1_555
C14 C7 1_555 1_555
H5 C14 1_555 1_555
C15 C13 1_555 1_555
H6 C15 1_555 1_555
C16 C5 1_555 1_555
H7 C16 1_555 1_555
C17 C10 1_555 1_555
H8 C17 1_555 1_555
C18 O3 1_555 1_555
H9 C18 1_555 1_555
H10 C18 1_555 1_555
H11 C18 1_555 1_555
C19 O1 1_555 1_555
H12 C19 1_555 1_555
H13 C19 1_555 1_555
H14 C19 1_555 1_555
S1B C1B 1_555 1_555
S2B C2B 1_555 1_555
S3B C3B 1_555 1_555
S4B C1B 1_555 1_555
C1B C3B 1_555 1_555
O1B C11B 1_555 1_555
O2B C11B 1_555 1_555
O3B C8B 1_555 1_555
O4B C8B 1_555 1_555
C2B C2 1_555 1_555
C3B S2B 1_555 1_555
C4B S3B 1_555 1_555
C5B C8B 1_555 1_555
C6B S4B 1_555 1_555
C7B C4B 1_555 1_555
H1B C7B 1_555 1_555
C9B C5B 1_555 1_555
H2B C9B 1_555 1_555
C10B C6B 1_555 1_555
H3B C10B 1_555 1_555
C11B C13B 1_555 1_555
C12B C4B 1_555 1_555
H4B C12B 1_555 1_555
C13B C12B 1_555 1_555
C14B C7B 1_555 1_555
H5B C14B 1_555 1_555
C15B C13B 1_555 1_555
H6B C15B 1_555 1_555
C16B C5B 1_555 1_555
H7B C16B 1_555 1_555
C17B C10B 1_555 1_555
H8B C17B 1_555 1_555
C18B O3B 1_555 1_555
H9B C18B 1_555 1_555
H10B C18B 1_555 1_555
H11B C18B 1_555 1_555
C19B O1B 1_555 1_555
H12B C19B 1_555 1_555
H13B C19B 1_555 1_555
H14B C19B 1_555 1_555
C6 C9 1_555 1_555
C14 C15 1_555 1_555
C16 C17 1_555 1_555
S1B C2B 1_555 1_555
C6B C9B 1_555 1_555
C14B C15B 1_555 1_555
C16B C17B 1_555 1_555

#END
