
#######################################################################
#
#                 Cambridge Crystallographic Data Centre
#                                CCDC 
#
#######################################################################
#
# If this CIF has been generated from an entry in the Cambridge 
# Structural Database, then it will include bibliographic, chemical, 
# crystal, experimental, refinement or atomic coordinate data resulting 
# from the CCDC's data processing and validation procedures.
#
#######################################################################

data_KIGVAZ
_chemical_name_common            TTF-20
_chemical_formula_moiety         'C42 H36 O8 S8'
_chemical_name_systematic        
'Ethyl 4-((2-(4,5-bis((4-(ethoxycarbonyl)phenyl)sulfanyl)-1,3-dithiol-2-ylidene)-5-((4-(ethoxycarbonyl)phenyl)sulfanyl)-1,3-dithiol-4-yl)sulfanyl)benzoate'
_symmetry_cell_setting           triclinic
_symmetry_space_group_name_H-M   'P -1'
_symmetry_Int_Tables_number      2
_space_group_name_Hall           '-P 1'
loop_
_symmetry_equiv_pos_site_id
_symmetry_equiv_pos_as_xyz
1 x,y,z
2 -x,-y,-z
_cell_length_a                   10.6797(3)
_cell_length_b                   14.3420(6)
_cell_length_c                   15.3425(6)
_cell_angle_alpha                81.349(3)
_cell_angle_beta                 73.425(3)
_cell_angle_gamma                75.401(3)
_cell_volume                     2171.79
_exptl_crystal_colour            orange
_exptl_crystal_description       prism
_chemical_melting_point          '529 K'
_cell_formula_units_Z            2
loop_
_atom_site_label
_atom_site_type_symbol
_atom_site_fract_x
_atom_site_fract_y
_atom_site_fract_z
C1 C -0.4408(2) -0.03006(16) 0.48492(15)
C2 C -0.2390(2) -0.17751(17) 0.45376(16)
C3 C -0.2026(2) -0.10660(16) 0.39089(15)
C4 C -0.1625(2) -0.36837(17) 0.40697(16)
C5 C -0.2713(3) -0.35145(18) 0.37078(19)
H1 H -0.3327 -0.2924 0.3764
C6 C -0.2893(3) -0.4221(2) 0.3261(2)
H2 H -0.3636 -0.4106 0.3027
C7 C -0.1972(3) -0.5101(2) 0.3160(2)
C8 C -0.0875(3) -0.52611(19) 0.3519(2)
H3 H -0.0254 -0.5848 0.3457
C9 C -0.0694(3) -0.4563(2) 0.39658(19)
H4 H 0.0051 -0.4677 0.4199
C10 C -0.0741(2) -0.02984(19) 0.22478(16)
C11 C -0.1362(3) -0.0446(2) 0.16216(19)
H5 H -0.1667 -0.1010 0.1678
C12 C -0.1530(3) 0.0246(3) 0.0913(2)
H6 H -0.1970 0.0155 0.0501
C13 C -0.1045(3) 0.1079(2) 0.08108(18)
C14 C -0.0419(3) 0.1227(2) 0.1438(2)
H7 H -0.0099 0.1786 0.1375
C15 C -0.0275(3) 0.0537(2) 0.21590(19)
H8 H 0.0137 0.0636 0.2585
C16 C -0.2088(3) -0.5884(2) 0.2670(3)
C17 C -0.3436(5) -0.6448(3) 0.1955(3)
H9 H -0.4142 -0.6158 0.1653
H10 H -0.2614 -0.6654 0.1491
C18 C -0.3782(6) -0.7287(4) 0.2568(4)
H11 H -0.3896 -0.7750 0.2223
H12 H -0.4600 -0.7082 0.3023
H13 H -0.3076 -0.7578 0.2860
C19 C -0.1227(3) 0.1792(3) 0.0013(2)
C20 C -0.0696(7) 0.3242(5) -0.0793(4)
H14 H -0.0478 0.2950 -0.1364
H15 H -0.1606 0.3625 -0.0685
C21 C 0.0161(9) 0.3814(7) -0.0844(7)
H16 H 0.0090 0.4314 -0.1330
H17 H 0.1061 0.3433 -0.0960
H18 H -0.0060 0.4101 -0.0277
O1 O -0.1213(3) -0.6584(2) 0.2468(3)
O2 O -0.1846(3) 0.1741(3) -0.0503(2)
O3 O -0.3261(2) -0.57289(17) 0.24749(19)
O4 O -0.0590(3) 0.2489(2) -0.0048(2)
S1 S -0.39783(6) -0.14969(4) 0.53189(4)
S2 S -0.31492(5) 0.00585(4) 0.39268(4)
S3 S -0.12891(7) -0.28786(5) 0.46974(5)
S4 S -0.04368(6) -0.12070(5) 0.31402(5)
C1A C -0.5592(2) 0.03006(16) 0.51508(15)
C2A C -0.7610(2) 0.17751(17) 0.54624(16)
C3A C -0.7974(2) 0.10660(16) 0.60911(15)
C4A C -0.8375(2) 0.36837(17) 0.59303(16)
C5A C -0.7287(3) 0.35145(18) 0.62922(19)
H1A H -0.6673 0.2924 0.6236
C6A C -0.7107(3) 0.4221(2) 0.6739(2)
H2A H -0.6364 0.4106 0.6973
C7A C -0.8028(3) 0.5101(2) 0.6840(2)
C8A C -0.9125(3) 0.52611(19) 0.6481(2)
H3A H -0.9746 0.5848 0.6543
C9A C -0.9306(3) 0.4563(2) 0.60342(19)
H4A H -1.0051 0.4677 0.5801
C10A C -0.9259(2) 0.02984(19) 0.77522(16)
C11A C -0.8638(3) 0.0446(2) 0.83784(19)
H5A H -0.8333 0.1010 0.8322
C12A C -0.8470(3) -0.0246(3) 0.9087(2)
H6A H -0.8030 -0.0155 0.9499
C13A C -0.8955(3) -0.1079(2) 0.91892(18)
C14A C -0.9581(3) -0.1227(2) 0.8562(2)
H7A H -0.9901 -0.1786 0.8625
C15A C -0.9725(3) -0.0537(2) 0.78410(19)
H8A H -1.0137 -0.0636 0.7415
C16A C -0.7912(3) 0.5884(2) 0.7330(3)
C17A C -0.6564(5) 0.6448(3) 0.8045(3)
H9A H -0.5858 0.6158 0.8347
H10A H -0.7386 0.6654 0.8509
C18A C -0.6218(6) 0.7287(4) 0.7432(4)
H11A H -0.6104 0.7750 0.7777
H12A H -0.5400 0.7082 0.6977
H13A H -0.6924 0.7578 0.7140
C19A C -0.8773(3) -0.1792(3) 0.9987(2)
C20A C -0.9304(7) -0.3242(5) 1.0793(4)
H14A H -0.9522 -0.2950 1.1364
H15A H -0.8394 -0.3625 1.0685
C21A C -1.0161(9) -0.3814(7) 1.0844(7)
H16A H -1.0090 -0.4314 1.1330
H17A H -1.1061 -0.3433 1.0960
H18A H -0.9940 -0.4101 1.0277
O1A O -0.8787(3) 0.6584(2) 0.7532(3)
O2A O -0.8154(3) -0.1741(3) 1.0503(2)
O3A O -0.6739(2) 0.57289(17) 0.75251(19)
O4A O -0.9410(3) -0.2489(2) 1.0048(2)
S1A S -0.60217(6) 0.14969(4) 0.46811(4)
S2A S -0.68508(5) -0.00585(4) 0.60732(4)
S3A S -0.87109(7) 0.28786(5) 0.53026(5)
S4A S -0.95632(6) 0.12070(5) 0.68598(5)
C22 C -0.9404(2) -0.03063(15) 0.48772(14)
C23 C -0.7420(2) -0.18012(16) 0.46544(15)
C24 C -0.7002(2) -0.11161(15) 0.40151(15)
C25 C -0.6838(2) -0.36412(16) 0.41191(17)
C26 C -0.7322(3) -0.32312(19) 0.3375(2)
H19 H -0.7547 -0.2562 0.3267
C27 C -0.7472(4) -0.3816(2) 0.2788(2)
H20 H -0.7771 -0.3537 0.2276
C28 C -0.7181(3) -0.48146(19) 0.29575(19)
C29 C -0.6731(3) -0.52116(18) 0.37154(19)
H21 H -0.6540 -0.5880 0.3839
C30 C -0.6557(3) -0.46358(18) 0.42946(18)
H22 H -0.6250 -0.4916 0.4804
C31 C -0.5703(2) -0.04775(17) 0.22989(15)
C32 C -0.6607(3) -0.0555(2) 0.18342(17)
H23 H -0.7096 -0.1035 0.2027
C33 C -0.6780(3) 0.0079(2) 0.10866(17)
H24 H -0.7399 0.0036 0.0783
C34 C -0.6034(3) 0.07810(18) 0.07869(16)
C35 C -0.5106(3) 0.0845(2) 0.12360(18)
H25 H -0.4591 0.1307 0.1027
C36 C -0.4946(3) 0.02215(19) 0.19943(18)
H26 H -0.4332 0.0270 0.2301
C37 C -0.7362(3) -0.5399(2) 0.2291(2)
C38 C -0.7673(4) -0.6906(2) 0.2069(2)
H27 H -0.6879 -0.7098 0.1579
H28 H -0.8400 -0.6563 0.1803
C39 C -0.8026(3) -0.7758(2) 0.2647(2)
H29 H -0.8197 -0.8181 0.2286
H30 H -0.8815 -0.7561 0.3128
H31 H -0.7299 -0.8093 0.2906
C40 C -0.6284(3) 0.1474(2) -0.00173(19)
C41 C -0.5759(6) 0.2897(3) -0.0915(3)
H32 H -0.5135 0.2662 -0.1474
H33 H -0.6660 0.3018 -0.0988
C42 C -0.5504(9) 0.3746(4) -0.0748(4)
H34 H -0.5605 0.4225 -0.1247
H35 H -0.4607 0.3625 -0.0686
H36 H -0.6126 0.3976 -0.0195
O5 O -0.7439(4) -0.51076(19) 0.1534(2)
O6 O -0.6993(3) 0.1409(2) -0.04666(17)
O7 O -0.7422(2) -0.62890(14) 0.26426(14)
O8 O -0.5615(3) 0.21697(18) -0.01523(16)
S5 S -0.90282(6) -0.14857(4) 0.53958(4)
S6 S -0.80859(5) 0.00222(4) 0.39940(4)
S7 S -0.64642(7) -0.29584(4) 0.48482(5)
S8 S -0.54055(6) -0.12904(5) 0.32555(4)
C22A C -1.0596(2) 0.03063(15) 0.51228(14)
C23A C -1.2580(2) 0.18012(16) 0.53456(15)
C24A C -1.2998(2) 0.11161(15) 0.59849(15)
C25A C -1.3162(2) 0.36412(16) 0.58809(17)
C26A C -1.2678(3) 0.32312(19) 0.6625(2)
H19A H -1.2453 0.2562 0.6733
C27A C -1.2528(4) 0.3816(2) 0.7212(2)
H20A H -1.2229 0.3537 0.7724
C28A C -1.2819(3) 0.48146(19) 0.70425(19)
C29A C -1.3269(3) 0.52116(18) 0.62846(19)
H21A H -1.3460 0.5880 0.6161
C30A C -1.3443(3) 0.46358(18) 0.57054(18)
H22A H -1.3750 0.4916 0.5196
C31A C -1.4297(2) 0.04775(17) 0.77011(15)
C32A C -1.3393(3) 0.0555(2) 0.81658(17)
H23A H -1.2904 0.1035 0.7973
C33A C -1.3220(3) -0.0079(2) 0.89134(17)
H24A H -1.2601 -0.0036 0.9217
C34A C -1.3966(3) -0.07810(18) 0.92131(16)
C35A C -1.4894(3) -0.0845(2) 0.87640(18)
H25A H -1.5409 -0.1307 0.8973
C36A C -1.5054(3) -0.02215(19) 0.80057(18)
H26A H -1.5668 -0.0270 0.7699
C37A C -1.2638(3) 0.5399(2) 0.7709(2)
C38A C -1.2327(4) 0.6906(2) 0.7931(2)
H27A H -1.3121 0.7098 0.8421
H28A H -1.1600 0.6563 0.8197
C39A C -1.1974(3) 0.7758(2) 0.7353(2)
H29A H -1.1803 0.8181 0.7714
H30A H -1.1185 0.7561 0.6872
H31A H -1.2701 0.8093 0.7094
C40A C -1.3716(3) -0.1474(2) 1.00173(19)
C41A C -1.4241(6) -0.2897(3) 1.0915(3)
H32A H -1.4865 -0.2662 1.1474
H33A H -1.3340 -0.3018 1.0988
C42A C -1.4496(9) -0.3746(4) 1.0748(4)
H34A H -1.4395 -0.4225 1.1247
H35A H -1.5393 -0.3625 1.0686
H36A H -1.3874 -0.3976 1.0195
O5A O -1.2561(4) 0.51076(19) 0.8466(2)
O6A O -1.3007(3) -0.1409(2) 1.04666(17)
O7A O -1.2578(2) 0.62890(14) 0.73574(14)
O8A O -1.4385(3) -0.21697(18) 1.01523(16)
S5A S -1.09718(6) 0.14857(4) 0.46042(4)
S6A S -1.19141(5) -0.00222(4) 0.60060(4)
S7A S -1.35358(7) 0.29584(4) 0.51518(5)
S8A S -1.45945(6) 0.12904(5) 0.67445(4)
loop_
_geom_bond_atom_site_label_1
_geom_bond_atom_site_label_2
_geom_bond_site_symmetry_1
_geom_bond_site_symmetry_2
C1 S1 1_555 1_555
C2 C3 1_555 1_555
C3 S2 1_555 1_555
C4 C5 1_555 1_555
C5 H1 1_555 1_555
C6 C5 1_555 1_555
H2 C6 1_555 1_555
C7 C6 1_555 1_555
C8 C7 1_555 1_555
H3 C8 1_555 1_555
C9 C4 1_555 1_555
H4 C9 1_555 1_555
C10 C11 1_555 1_555
C11 H5 1_555 1_555
C12 C11 1_555 1_555
H6 C12 1_555 1_555
C13 C12 1_555 1_555
C14 C13 1_555 1_555
H7 C14 1_555 1_555
C15 C10 1_555 1_555
H8 C15 1_555 1_555
C16 C7 1_555 1_555
C17 H9 1_555 1_555
H10 C17 1_555 1_555
C18 C17 1_555 1_555
H11 C18 1_555 1_555
H12 C18 1_555 1_555
H13 C18 1_555 1_555
C19 C13 1_555 1_555
C20 H14 1_555 1_555
H15 C20 1_555 1_555
C21 C20 1_555 1_555
H16 C21 1_555 1_555
H17 C21 1_555 1_555
H18 C21 1_555 1_555
O1 C16 1_555 1_555
O2 C19 1_555 1_555
O3 C16 1_555 1_555
O4 C19 1_555 1_555
S1 C2 1_555 1_555
S2 C1 1_555 1_555
S3 C2 1_555 1_555
S4 C3 1_555 1_555
C22 S5 1_555 1_555
C23 C24 1_555 1_555
C24 S6 1_555 1_555
C25 C26 1_555 1_555
C26 H19 1_555 1_555
C27 C26 1_555 1_555
H20 C27 1_555 1_555
C28 C27 1_555 1_555
C29 C28 1_555 1_555
H21 C29 1_555 1_555
C30 C25 1_555 1_555
H22 C30 1_555 1_555
C31 C32 1_555 1_555
C32 H23 1_555 1_555
C33 C32 1_555 1_555
H24 C33 1_555 1_555
C34 C33 1_555 1_555
C35 C34 1_555 1_555
H25 C35 1_555 1_555
C36 C31 1_555 1_555
H26 C36 1_555 1_555
C37 C28 1_555 1_555
C38 H27 1_555 1_555
H28 C38 1_555 1_555
C39 C38 1_555 1_555
H29 C39 1_555 1_555
H30 C39 1_555 1_555
H31 C39 1_555 1_555
C40 C34 1_555 1_555
C41 H32 1_555 1_555
H33 C41 1_555 1_555
C42 C41 1_555 1_555
H34 C42 1_555 1_555
H35 C42 1_555 1_555
H36 C42 1_555 1_555
O5 C37 1_555 1_555
O6 C40 1_555 1_555
O7 C37 1_555 1_555
O8 C40 1_555 1_555
S5 C23 1_555 1_555
S6 C22 1_555 1_555
S7 C23 1_555 1_555
S8 C24 1_555 1_555
C1A C1 1_555 1_555
C2A C3A 1_555 1_555
C3A S2A 1_555 1_555
C4A C5A 1_555 1_555
C5A H1A 1_555 1_555
C6A C5A 1_555 1_555
H2A C6A 1_555 1_555
C7A C6A 1_555 1_555
C8A C7A 1_555 1_555
H3A C8A 1_555 1_555
C9A C4A 1_555 1_555
H4A C9A 1_555 1_555
C10A C11A 1_555 1_555
C11A H5A 1_555 1_555
C12A C11A 1_555 1_555
H6A C12A 1_555 1_555
C13A C12A 1_555 1_555
C14A C13A 1_555 1_555
H7A C14A 1_555 1_555
C15A C10A 1_555 1_555
H8A C15A 1_555 1_555
C16A C7A 1_555 1_555
C17A H9A 1_555 1_555
H10A C17A 1_555 1_555
C18A C17A 1_555 1_555
H11A C18A 1_555 1_555
H12A C18A 1_555 1_555
H13A C18A 1_555 1_555
C19A C13A 1_555 1_555
C20A H14A 1_555 1_555
H15A C20A 1_555 1_555
C21A C20A 1_555 1_555
H16A C21A 1_555 1_555
H17A C21A 1_555 1_555
H18A C21A 1_555 1_555
O1A C16A 1_555 1_555
O2A C19A 1_555 1_555
O3A C16A 1_555 1_555
O4A C19A 1_555 1_555
S1A C1A 1_555 1_555
S2A C1A 1_555 1_555
S3A C2A 1_555 1_555
S4A C3A 1_555 1_555
C22A C22 1_555 1_555
C23A C24A 1_555 1_555
C24A S6A 1_555 1_555
C25A C26A 1_555 1_555
C26A H19A 1_555 1_555
C27A C26A 1_555 1_555
H20A C27A 1_555 1_555
C28A C27A 1_555 1_555
C29A C28A 1_555 1_555
H21A C29A 1_555 1_555
C30A C25A 1_555 1_555
H22A C30A 1_555 1_555
C31A C32A 1_555 1_555
C32A H23A 1_555 1_555
C33A C32A 1_555 1_555
H24A C33A 1_555 1_555
C34A C33A 1_555 1_555
C35A C34A 1_555 1_555
H25A C35A 1_555 1_555
C36A C31A 1_555 1_555
H26A C36A 1_555 1_555
C37A C28A 1_555 1_555
C38A H27A 1_555 1_555
H28A C38A 1_555 1_555
C39A C38A 1_555 1_555
H29A C39A 1_555 1_555
H30A C39A 1_555 1_555
H31A C39A 1_555 1_555
C40A C34A 1_555 1_555
C41A H32A 1_555 1_555
H33A C41A 1_555 1_555
C42A C41A 1_555 1_555
H34A C42A 1_555 1_555
H35A C42A 1_555 1_555
H36A C42A 1_555 1_555
O5A C37A 1_555 1_555
O6A C40A 1_555 1_555
O7A C37A 1_555 1_555
O8A C40A 1_555 1_555
S5A C22A 1_555 1_555
S6A C22A 1_555 1_555
S7A C23A 1_555 1_555
S8A C24A 1_555 1_555
C4 S3 1_555 1_555
C8 C9 1_555 1_555
C10 S4 1_555 1_555
C14 C15 1_555 1_555
C17 O3 1_555 1_555
C20 O4 1_555 1_555
C25 S7 1_555 1_555
C29 C30 1_555 1_555
C31 S8 1_555 1_555
C35 C36 1_555 1_555
C38 O7 1_555 1_555
C41 O8 1_555 1_555
C2A S1A 1_555 1_555
C4A S3A 1_555 1_555
C8A C9A 1_555 1_555
C10A S4A 1_555 1_555
C14A C15A 1_555 1_555
C17A O3A 1_555 1_555
C20A O4A 1_555 1_555
C23A S5A 1_555 1_555
C25A S7A 1_555 1_555
C29A C30A 1_555 1_555
C31A S8A 1_555 1_555
C35A C36A 1_555 1_555
C38A O7A 1_555 1_555
C41A O8A 1_555 1_555

#END
