
#######################################################################
#
#                 Cambridge Crystallographic Data Centre
#                                CCDC 
#
#######################################################################
#
# If this CIF has been generated from an entry in the Cambridge 
# Structural Database, then it will include bibliographic, chemical, 
# crystal, experimental, refinement or atomic coordinate data resulting 
# from the CCDC's data processing and validation procedures.
#
#######################################################################

data_KIGVIH
_chemical_name_common            TTF-17
_chemical_formula_moiety         'C38 H28 O8 S8'
_chemical_name_systematic        
'Methyl 2-((2-(4,5-bis((2-(methoxycarbonyl)phenyl)sulfanyl)-1,3-dithiol-2-ylidene)-5-((2-(methoxycarbonyl)phenyl)sulfanyl)-1,3-dithiol-4-yl)sulfanyl)benzoate'
_symmetry_cell_setting           monoclinic
_symmetry_space_group_name_H-M   'P 21/n'
_symmetry_Int_Tables_number      14
_space_group_name_Hall           '-P 2yn'
loop_
_symmetry_equiv_pos_site_id
_symmetry_equiv_pos_as_xyz
1 x,y,z
2 1/2-x,1/2+y,1/2-z
3 -x,-y,-z
4 1/2+x,1/2-y,1/2+z
_cell_length_a                   13.97(3)
_cell_length_b                   7.333(13)
_cell_length_c                   20.19(4)
_cell_angle_alpha                90
_cell_angle_beta                 106.431(15)
_cell_angle_gamma                90
_cell_volume                     1983.84
_exptl_crystal_colour            red
_exptl_crystal_description       block
_chemical_melting_point          '455 K'
_cell_formula_units_Z            2
loop_
_atom_site_label
_atom_site_type_symbol
_atom_site_fract_x
_atom_site_fract_y
_atom_site_fract_z
C1 C 0.5079(2) 0.9286(4) 0.02142(17)
C2 C 0.5609(2) 0.6148(4) 0.07986(16)
C3 C 0.4889(2) 0.6746(4) 0.10677(17)
C4 C 0.7404(2) 0.4747(5) 0.14944(17)
C5 C 0.7536(3) 0.6372(5) 0.18581(18)
H1 H 0.6989 0.7125 0.1827
C6 C 0.8463(3) 0.6891(6) 0.2264(2)
H2 H 0.8537 0.7990 0.2504
C7 C 0.9280(3) 0.5797(7) 0.2319(2)
H3 H 0.9904 0.6154 0.2595
C8 C 0.9173(3) 0.4174(6) 0.1965(2)
H4 H 0.9729 0.3441 0.2003
C9 C 0.8246(2) 0.3615(5) 0.15516(17)
C10 C 0.8134(3) 0.1851(5) 0.1191(2)
C11 C 0.8943(4) -0.0508(7) 0.0753(3)
H5 H 0.9587 -0.0775 0.0695
H6 H 0.8453 -0.0504 0.0310
H7 H 0.8772 -0.1420 0.1041
C12 C 0.3225(2) 0.5515(4) 0.13993(18)
C13 C 0.2767(3) 0.5538(5) 0.06912(19)
H8 H 0.3157 0.5605 0.0387
C14 C 0.1742(3) 0.5461(6) 0.0434(2)
H9 H 0.1444 0.5489 -0.0040
C15 C 0.1160(3) 0.5344(6) 0.0880(3)
H10 H 0.0469 0.5286 0.0707
C16 C 0.1597(3) 0.5312(6) 0.1580(2)
H11 H 0.1197 0.5252 0.1877
C17 C 0.2623(3) 0.5368(5) 0.18505(19)
C18 C 0.3087(3) 0.5232(5) 0.2607(2)
C19 C 0.2830(4) 0.5507(7) 0.3712(2)
H12 H 0.2308 0.5798 0.3918
H13 H 0.3368 0.6361 0.3868
H14 H 0.3070 0.4296 0.3844
O1 O 0.7379(2) 0.0997(4) 0.1024(2)
O2 O 0.8967(2) 0.1279(4) 0.10754(16)
O3 O 0.3939(2) 0.4818(5) 0.28762(15)
O4 O 0.2444(2) 0.5607(4) 0.29668(14)
S1 S 0.59580(6) 0.75732(11) 0.02118(5)
S2 S 0.44071(7) 0.89418(13) 0.08185(5)
S3 S 0.62072(6) 0.40241(12) 0.09631(5)
S4 S 0.45465(6) 0.56683(14) 0.17431(5)
C1B C 0.4921(2) 1.0714(4) -0.02142(17)
C2B C 0.4391(2) 1.3852(4) -0.07986(16)
C3B C 0.5111(2) 1.3254(4) -0.10677(17)
C4B C 0.2596(2) 1.5253(5) -0.14944(17)
C5B C 0.2464(3) 1.3628(5) -0.18581(18)
H1B H 0.3011 1.2875 -0.1827
C6B C 0.1537(3) 1.3109(6) -0.2264(2)
H2B H 0.1463 1.2010 -0.2504
C7B C 0.0720(3) 1.4203(7) -0.2319(2)
H3B H 0.0096 1.3846 -0.2595
C8B C 0.0827(3) 1.5826(6) -0.1965(2)
H4B H 0.0271 1.6559 -0.2003
C9B C 0.1754(2) 1.6385(5) -0.15516(17)
C10B C 0.1866(3) 1.8149(5) -0.1191(2)
C11B C 0.1057(4) 2.0508(7) -0.0753(3)
H5B H 0.0413 2.0775 -0.0695
H6B H 0.1547 2.0504 -0.0310
H7B H 0.1228 2.1420 -0.1041
C12B C 0.6775(2) 1.4485(4) -0.13993(18)
C13B C 0.7233(3) 1.4462(5) -0.06912(19)
H8B H 0.6843 1.4395 -0.0387
C14B C 0.8258(3) 1.4539(6) -0.0434(2)
H9B H 0.8556 1.4511 0.0040
C15B C 0.8840(3) 1.4656(6) -0.0880(3)
H10B H 0.9531 1.4714 -0.0707
C16B C 0.8403(3) 1.4688(6) -0.1580(2)
H11B H 0.8803 1.4748 -0.1877
C17B C 0.7377(3) 1.4632(5) -0.18505(19)
C18B C 0.6913(3) 1.4768(5) -0.2607(2)
C19B C 0.7170(4) 1.4493(7) -0.3712(2)
H12B H 0.7692 1.4202 -0.3918
H13B H 0.6632 1.3639 -0.3868
H14B H 0.6930 1.5704 -0.3844
O1B O 0.2621(2) 1.9003(4) -0.1024(2)
O2B O 0.1033(2) 1.8721(4) -0.10754(16)
O3B O 0.6061(2) 1.5182(5) -0.28762(15)
O4B O 0.7556(2) 1.4393(4) -0.29668(14)
S1B S 0.40420(6) 1.24268(11) -0.02118(5)
S2B S 0.55929(7) 1.10582(13) -0.08185(5)
S3B S 0.37928(6) 1.59759(12) -0.09631(5)
S4B S 0.54535(6) 1.43317(14) -0.17431(5)
loop_
_geom_bond_atom_site_label_1
_geom_bond_atom_site_label_2
_geom_bond_site_symmetry_1
_geom_bond_site_symmetry_2
C1 S1 1_555 1_555
C2 C3 1_555 1_555
C3 S2 1_555 1_555
C4 C5 1_555 1_555
C5 H1 1_555 1_555
C6 C5 1_555 1_555
H2 C6 1_555 1_555
C7 C6 1_555 1_555
H3 C7 1_555 1_555
C8 C7 1_555 1_555
H4 C8 1_555 1_555
C9 C4 1_555 1_555
C10 C9 1_555 1_555
C11 H5 1_555 1_555
H6 C11 1_555 1_555
H7 C11 1_555 1_555
C12 C13 1_555 1_555
C13 H8 1_555 1_555
C14 C13 1_555 1_555
H9 C14 1_555 1_555
C15 C14 1_555 1_555
H10 C15 1_555 1_555
C16 C15 1_555 1_555
H11 C16 1_555 1_555
C17 C12 1_555 1_555
C18 C17 1_555 1_555
C19 H12 1_555 1_555
H13 C19 1_555 1_555
H14 C19 1_555 1_555
O1 C10 1_555 1_555
O2 C10 1_555 1_555
O3 C18 1_555 1_555
O4 C18 1_555 1_555
S1 C2 1_555 1_555
S2 C1 1_555 1_555
S3 C2 1_555 1_555
S4 C3 1_555 1_555
C1B C1 1_555 1_555
C2B C3B 1_555 1_555
C3B S2B 1_555 1_555
C4B C5B 1_555 1_555
C5B H1B 1_555 1_555
C6B C5B 1_555 1_555
H2B C6B 1_555 1_555
C7B C6B 1_555 1_555
H3B C7B 1_555 1_555
C8B C7B 1_555 1_555
H4B C8B 1_555 1_555
C9B C4B 1_555 1_555
C10B C9B 1_555 1_555
C11B H5B 1_555 1_555
H6B C11B 1_555 1_555
H7B C11B 1_555 1_555
C12B C13B 1_555 1_555
C13B H8B 1_555 1_555
C14B C13B 1_555 1_555
H9B C14B 1_555 1_555
C15B C14B 1_555 1_555
H10B C15B 1_555 1_555
C16B C15B 1_555 1_555
H11B C16B 1_555 1_555
C17B C12B 1_555 1_555
C18B C17B 1_555 1_555
C19B H12B 1_555 1_555
H13B C19B 1_555 1_555
H14B C19B 1_555 1_555
O1B C10B 1_555 1_555
O2B C10B 1_555 1_555
O3B C18B 1_555 1_555
O4B C18B 1_555 1_555
S1B C1B 1_555 1_555
S2B C1B 1_555 1_555
S3B C2B 1_555 1_555
S4B C3B 1_555 1_555
C4 S3 1_555 1_555
C8 C9 1_555 1_555
C11 O2 1_555 1_555
C12 S4 1_555 1_555
C16 C17 1_555 1_555
C19 O4 1_555 1_555
C2B S1B 1_555 1_555
C4B S3B 1_555 1_555
C8B C9B 1_555 1_555
C11B O2B 1_555 1_555
C12B S4B 1_555 1_555
C16B C17B 1_555 1_555
C19B O4B 1_555 1_555

#END
