
#######################################################################
#
#                 Cambridge Crystallographic Data Centre
#                                CCDC 
#
#######################################################################
#
# If this CIF has been generated from an entry in the Cambridge 
# Structural Database, then it will include bibliographic, chemical, 
# crystal, experimental, refinement or atomic coordinate data resulting 
# from the CCDC's data processing and validation procedures.
#
#######################################################################

data_KIGVAA
_chemical_formula_moiety         'C55 H40 N8,2.21(C1 H4 O1),0.79(C1 H2 Cl2)'
_chemical_name_systematic        
'2,7,12,17-tetraphenyl-N,N-bis[(pyridin-2-yl)methyl]-4,21,22,23,24-penta-azapentacyclo[16.2.1.1^3,6^.1^8,11^.1^13,16^]tetracosa-1,3(24),4,6,8,10,12,14,16(22),17,19-undecaen-5-amine dichloromethane methanol solvate'
_symmetry_cell_setting           triclinic
_symmetry_space_group_name_H-M   'P -1'
_symmetry_Int_Tables_number      2
_space_group_name_Hall           '-P 1'
loop_
_symmetry_equiv_pos_site_id
_symmetry_equiv_pos_as_xyz
1 x,y,z
2 -x,-y,-z
_cell_length_a                   9.5189(7)
_cell_length_b                   13.8293(9)
_cell_length_c                   20.6264(14)
_cell_angle_alpha                97.419(3)
_cell_angle_beta                 102.316(3)
_cell_angle_gamma                109.689(3)
_cell_volume                     2437.32
_exptl_crystal_colour            black
_exptl_crystal_description       plate
_cell_formula_units_Z            2
loop_
_atom_site_label
_atom_site_type_symbol
_atom_site_fract_x
_atom_site_fract_y
_atom_site_fract_z
C1 C 0.9118(3) 0.64218(17) 0.29944(11)
C2 C 0.7792(3) 0.58928(19) 0.23791(11)
C3 C 0.8701(3) 0.47734(17) 0.27309(11)
C4 C 0.8883(3) 0.37957(18) 0.27031(12)
C5 C 0.9827(3) 0.35668(18) 0.32295(12)
C6 C 1.0238(4) 0.26593(19) 0.31906(13)
H1 H 0.992782 0.211437 0.279758
C7 C 1.1136(3) 0.27070(19) 0.38038(13)
H2 H 1.156272 0.220079 0.391631
C8 C 1.1338(3) 0.36493(18) 0.42572(12)
C9 C 1.2164(3) 0.40043(18) 0.49399(12)
C10 C 1.2469(3) 0.50105(18) 0.53300(12)
C11 C 1.3224(3) 0.53492(19) 0.60512(12)
H3 H 1.350669 0.493086 0.634585
C12 C 1.3448(3) 0.63721(19) 0.62242(12)
H4 H 1.391064 0.681603 0.666566
C13 C 1.2844(3) 0.66650(18) 0.56050(11)
C14 C 1.3036(3) 0.76997(18) 0.55534(11)
C15 C 1.2435(3) 0.79993(17) 0.49636(11)
C16 C 1.2846(3) 0.90354(17) 0.48390(12)
H5 H 1.357032 0.966016 0.515139
C17 C 1.2033(3) 0.89819(18) 0.42021(12)
H6 H 1.210777 0.955995 0.398927
C18 C 1.1042(3) 0.79077(17) 0.39037(11)
C19 C 0.9929(3) 0.75084(18) 0.32696(12)
C20 C 0.8071(3) 0.29523(19) 0.20750(13)
C21 C 0.8301(4) 0.3107(2) 0.14520(14)
H7 H 0.893147 0.378378 0.141348
C22 C 0.7627(5) 0.2291(3) 0.08831(16)
H8 H 0.781483 0.240597 0.045992
C23 C 0.6678(5) 0.1305(2) 0.09275(16)
H9 H 0.621023 0.074625 0.053549
C24 C 0.6418(4) 0.1141(2) 0.15405(16)
H10 H 0.576595 0.046645 0.157295
C25 C 0.7103(4) 0.1956(2) 0.21131(15)
H11 H 0.691397 0.183658 0.253539
C26 C 1.2886(3) 0.33154(19) 0.52578(12)
C27 C 1.1984(4) 0.2282(2) 0.52689(14)
H12 H 1.088728 0.202297 0.509436
C28 C 1.2694(4) 0.1638(2) 0.55347(16)
H13 H 1.207909 0.093570 0.553333
C29 C 1.4288(4) 0.2007(3) 0.58019(16)
H14 H 1.476331 0.156360 0.598935
C30 C 1.5186(4) 0.3027(3) 0.57940(16)
H15 H 1.628203 0.328622 0.597411
C31 C 1.4478(3) 0.3669(2) 0.55215(14)
H16 H 1.510141 0.436675 0.551628
C32 C 1.4038(3) 0.85729(18) 0.61535(11)
C33 C 1.5544(3) 0.8670(2) 0.64615(13)
H17 H 1.594361 0.818107 0.628565
C34 C 1.6472(3) 0.9478(2) 0.70248(14)
H18 H 1.749472 0.953074 0.723307
C35 C 1.5912(3) 1.0203(2) 0.72830(13)
H19 H 1.654429 1.075041 0.766943
C36 C 1.4430(3) 1.0127(2) 0.69751(13)
H20 H 1.404749 1.062989 0.714589
C37 C 1.3495(3) 0.93183(19) 0.64169(12)
H21 H 1.247349 0.927042 0.621129
C38 C 0.9724(3) 0.82991(17) 0.28686(11)
C39 C 0.9387(3) 0.91498(19) 0.31407(13)
H22 H 0.928786 0.923305 0.359108
C40 C 0.9198(3) 0.98704(19) 0.27555(14)
H23 H 0.898899 1.045238 0.294717
C41 C 0.9310(3) 0.9749(2) 0.20934(14)
H24 H 0.915425 1.023605 0.182803
C42 C 0.9651(3) 0.8914(2) 0.18212(13)
H25 H 0.974898 0.883411 0.137052
C43 C 0.9849(3) 0.81961(18) 0.22061(12)
H26 H 1.007517 0.762256 0.201384
C44 C 0.6338(3) 0.70756(19) 0.22974(13)
H27 H 0.665775 0.769190 0.208876
H28 H 0.685789 0.730972 0.279142
C45 C 0.4614(3) 0.6673(2) 0.21868(13)
C46 C 0.3849(4) 0.5843(3) 0.24484(16)
H29 H 0.441662 0.551959 0.271881
C47 C 0.2258(4) 0.5486(3) 0.23158(18)
H30 H 0.171538 0.492458 0.249957
C48 C 0.1457(3) 0.5969(2) 0.19038(15)
H31 H 0.035729 0.573054 0.179008
C49 C 0.2294(3) 0.6785(2) 0.16724(15)
H32 H 0.175254 0.712567 0.140492
C50 C 0.5897(3) 0.5631(2) 0.13219(13)
H33 H 0.516500 0.595285 0.112816
H34 H 0.527582 0.491849 0.136509
C51 C 0.6851(3) 0.5528(2) 0.08341(13)
C52 C 0.6659(4) 0.4564(2) 0.04619(15)
H35 H 0.596791 0.393066 0.053042
C53 C 0.7476(4) 0.4533(3) -0.00050(15)
H36 H 0.735602 0.387663 -0.026511
C54 C 0.8476(4) 0.5461(3) -0.00969(15)
H37 H 0.904673 0.545870 -0.042269
C55 C 0.8624(4) 0.6401(3) 0.03022(15)
H38 H 0.932383 0.704404 0.024919
N1 N 0.9579(2) 0.56599(14) 0.32181(9)
N2 N 1.0543(3) 0.41461(15) 0.38790(10)
H39 H 1.050095 0.475602 0.403453
N3 N 1.2183(2) 0.58075(15) 0.50700(10)
N4 N 1.1357(2) 0.73422(15) 0.43805(9)
H40 H 1.092558 0.665383 0.431979
N5 N 0.7606(2) 0.48918(15) 0.22195(10)
N6 N 0.6836(3) 0.62665(17) 0.20017(11)
N7 N 0.3842(3) 0.71403(17) 0.17979(11)
N8 N 0.7818(3) 0.6435(2) 0.07584(12)
C56 C 0.5774(4) 0.8322(3) 0.06104(16)
H41 H 0.532716 0.816443 0.011673
H42 H 0.601850 0.772869 0.074115
H43 H 0.672427 0.895642 0.074410
O1 O 0.4689(3) 0.8492(2) 0.09420(15)
H44 H 0.471914 0.822281 0.128460
C57 C 0.1895(8) 0.9671(5) 0.0570(4)
H45 H 0.277844 0.999330 0.039245
H46 H 0.198911 1.013629 0.099107
H47 H 0.092789 0.956186 0.023300
O2 O 0.1883(4) 0.8727(2) 0.07000(16)
H48 H 0.279612 0.874754 0.080699
C58 C 0.3992(6) 0.2706(4) 0.1792(3)
H49 H 0.415680 0.204318 0.183012
H50 H 0.502316 0.328659 0.192580
Cl1 Cl 0.29277(17) 0.29284(10) 0.23479(8)
Cl2 Cl 0.30402(18) 0.26198(11) 0.09397(6)
O3? O 0.244(2) 0.2865(16) 0.1913(13)
H51? H 0.163650 0.285542 0.164348
C59? C 0.359(3) 0.293(2) 0.1568(14)
H52? H 0.335242 0.320864 0.116078
H53? H 0.360875 0.223271 0.143496
H54? H 0.460531 0.340690 0.186830
loop_
_geom_bond_atom_site_label_1
_geom_bond_atom_site_label_2
_geom_bond_site_symmetry_1
_geom_bond_site_symmetry_2
C1 C2 1_555 1_555
C2 N5 1_555 1_555
C3 C4 1_555 1_555
C4 C5 1_555 1_555
C5 C6 1_555 1_555
C6 H1 1_555 1_555
C7 C6 1_555 1_555
H2 C7 1_555 1_555
C8 C7 1_555 1_555
C9 C8 1_555 1_555
C10 C9 1_555 1_555
C11 C10 1_555 1_555
H3 C11 1_555 1_555
C12 C11 1_555 1_555
H4 C12 1_555 1_555
C13 C12 1_555 1_555
C14 C13 1_555 1_555
C15 C14 1_555 1_555
C16 C15 1_555 1_555
H5 C16 1_555 1_555
C17 C16 1_555 1_555
H6 C17 1_555 1_555
C18 C17 1_555 1_555
C19 C1 1_555 1_555
C20 C4 1_555 1_555
C21 C20 1_555 1_555
H7 C21 1_555 1_555
C22 C21 1_555 1_555
H8 C22 1_555 1_555
C23 C22 1_555 1_555
H9 C23 1_555 1_555
C24 C23 1_555 1_555
H10 C24 1_555 1_555
C25 C20 1_555 1_555
H11 C25 1_555 1_555
C26 C9 1_555 1_555
C27 C26 1_555 1_555
H12 C27 1_555 1_555
C28 C27 1_555 1_555
H13 C28 1_555 1_555
C29 C28 1_555 1_555
H14 C29 1_555 1_555
C30 C29 1_555 1_555
H15 C30 1_555 1_555
C31 C26 1_555 1_555
H16 C31 1_555 1_555
C32 C14 1_555 1_555
C33 C32 1_555 1_555
H17 C33 1_555 1_555
C34 C33 1_555 1_555
H18 C34 1_555 1_555
C35 C34 1_555 1_555
H19 C35 1_555 1_555
C36 C35 1_555 1_555
H20 C36 1_555 1_555
C37 C32 1_555 1_555
H21 C37 1_555 1_555
C38 C19 1_555 1_555
C39 C38 1_555 1_555
H22 C39 1_555 1_555
C40 C39 1_555 1_555
H23 C40 1_555 1_555
C41 C40 1_555 1_555
H24 C41 1_555 1_555
C42 C41 1_555 1_555
H25 C42 1_555 1_555
C43 C38 1_555 1_555
H26 C43 1_555 1_555
C44 H27 1_555 1_555
H28 C44 1_555 1_555
C45 C44 1_555 1_555
C46 C45 1_555 1_555
H29 C46 1_555 1_555
C47 C46 1_555 1_555
H30 C47 1_555 1_555
C48 C47 1_555 1_555
H31 C48 1_555 1_555
C49 C48 1_555 1_555
H32 C49 1_555 1_555
C50 H33 1_555 1_555
H34 C50 1_555 1_555
C51 C50 1_555 1_555
C52 C51 1_555 1_555
H35 C52 1_555 1_555
C53 C52 1_555 1_555
H36 C53 1_555 1_555
C54 C53 1_555 1_555
H37 C54 1_555 1_555
C55 C54 1_555 1_555
H38 C55 1_555 1_555
N1 C1 1_555 1_555
N2 C5 1_555 1_555
H39 N2 1_555 1_555
N3 C10 1_555 1_555
N4 C15 1_555 1_555
H40 N4 1_555 1_555
N5 C3 1_555 1_555
N6 C2 1_555 1_555
N7 C45 1_555 1_555
N8 C51 1_555 1_555
C56 H41 1_555 1_555
H42 C56 1_555 1_555
H43 C56 1_555 1_555
O1 C56 1_555 1_555
H44 O1 1_555 1_555
C57 H45 1_555 1_555
H46 C57 1_555 1_555
H47 C57 1_555 1_555
O2 C57 1_555 1_555
H48 O2 1_555 1_555
C58 H49 1_555 1_555
H50 C58 1_555 1_555
Cl1 C58 1_555 1_555
Cl2 C58 1_555 1_555
C3 N1 1_555 1_555
C8 N2 1_555 1_555
C13 N3 1_555 1_555
C18 C19 1_555 1_555
C18 N4 1_555 1_555
C24 C25 1_555 1_555
C30 C31 1_555 1_555
C36 C37 1_555 1_555
C42 C43 1_555 1_555
C44 N6 1_555 1_555
C49 N7 1_555 1_555
C50 N6 1_555 1_555
C55 N8 1_555 1_555

#END
