
#######################################################################
#
#                 Cambridge Crystallographic Data Centre
#                                CCDC 
#
#######################################################################
#
# If this CIF has been generated from an entry in the Cambridge 
# Structural Database, then it will include bibliographic, chemical, 
# crystal, experimental, refinement or atomic coordinate data resulting 
# from the CCDC's data processing and validation procedures.
#
#######################################################################

data_KIGXOP
_chemical_name_common            TTF-15
_chemical_formula_moiety         'C30 H16 Br4 S8'
_chemical_name_systematic        
2-(4,5-bis((3-bromophenyl)sulfanyl)-1,3-dithiol-2-ylidene)-4,5-bis((3-bromophenyl)sulfanyl)-1,3-dithiole
_symmetry_cell_setting           triclinic
_symmetry_space_group_name_H-M   'P -1'
_symmetry_Int_Tables_number      2
_space_group_name_Hall           '-P 1'
loop_
_symmetry_equiv_pos_site_id
_symmetry_equiv_pos_as_xyz
1 x,y,z
2 -x,-y,-z
_cell_length_a                   8.5200(13)
_cell_length_b                   9.1740(14)
_cell_length_c                   10.983(2)
_cell_angle_alpha                106.187(15)
_cell_angle_beta                 99.699(15)
_cell_angle_gamma                93.188(12)
_cell_volume                     807.857
_exptl_crystal_colour            'light brown'
_exptl_crystal_description       block
_chemical_melting_point          '442 K'
_cell_formula_units_Z            1
loop_
_atom_site_label
_atom_site_type_symbol
_atom_site_fract_x
_atom_site_fract_y
_atom_site_fract_z
C1 C 0.4298(6) 0.0313(7) 0.5021(6)
C2 C 0.1446(7) 0.1097(7) 0.4412(6)
C3 C 0.2067(7) 0.2058(6) 0.5569(6)
C4 C -0.0133(7) 0.1754(7) 0.2285(6)
C5 C 0.0977(7) 0.3012(8) 0.2538(7)
H1 H 0.1619 0.3423 0.3352
C6 C 0.1107(8) 0.3652(8) 0.1534(8)
C7 C 0.0225(9) 0.3023(9) 0.0324(7)
H2 H 0.0379 0.3423 -0.0343
C8 C -0.0888(9) 0.1801(9) 0.0097(7)
H3 H -0.1525 0.1400 -0.0720
C9 C -0.1082(8) 0.1145(8) 0.1075(7)
H4 H -0.1840 0.0311 0.0913
C10 C 0.2586(7) 0.5068(7) 0.6975(6)
C11 C 0.3251(8) 0.5673(8) 0.8244(7)
H5 H 0.2978 0.5228 0.8854
C12 C 0.4341(8) 0.6966(8) 0.8615(7)
C13 C 0.4789(9) 0.7645(8) 0.7740(7)
H6 H 0.5528 0.8511 0.8006
C14 C 0.4114(10) 0.7009(9) 0.6471(8)
H7 H 0.4407 0.7435 0.5856
C15 C 0.3007(10) 0.5747(8) 0.6088(8)
H8 H 0.2536 0.5345 0.5220
S1 S 0.2600(2) -0.0365(2) 0.37651(16)
S2 S 0.39934(19) 0.1802(2) 0.63063(16)
S3 S -0.0502(2) 0.0987(2) 0.35455(19)
S4 S 0.1077(2) 0.3465(2) 0.6470(2)
Br1 Br 0.26037(9) 0.53880(9) 0.19113(9)
Br2 Br 0.52763(10) 0.77898(10) 1.04026(8)
C1A C 0.5702(6) -0.0313(7) 0.4979(6)
C2A C 0.8554(7) -0.1097(7) 0.5588(6)
C3A C 0.7933(7) -0.2058(6) 0.4431(6)
C4A C 1.0133(7) -0.1754(7) 0.7715(6)
C5A C 0.9023(7) -0.3012(8) 0.7462(7)
H1A H 0.8381 -0.3423 0.6648
C6A C 0.8893(8) -0.3652(8) 0.8466(8)
C7A C 0.9775(9) -0.3023(9) 0.9676(7)
H2A H 0.9621 -0.3423 1.0343
C8A C 1.0888(9) -0.1801(9) 0.9903(7)
H3A H 1.1525 -0.1400 1.0720
C9A C 1.1082(8) -0.1145(8) 0.8925(7)
H4A H 1.1840 -0.0311 0.9087
C10A C 0.7414(7) -0.5068(7) 0.3025(6)
C11A C 0.6749(8) -0.5673(8) 0.1756(7)
H5A H 0.7022 -0.5228 0.1146
C12A C 0.5659(8) -0.6966(8) 0.1385(7)
C13A C 0.5211(9) -0.7645(8) 0.2260(7)
H6A H 0.4472 -0.8511 0.1994
C14A C 0.5886(10) -0.7009(9) 0.3529(8)
H7A H 0.5593 -0.7435 0.4144
C15A C 0.6993(10) -0.5747(8) 0.3912(8)
H8A H 0.7464 -0.5345 0.4780
S1A S 0.7400(2) 0.0365(2) 0.62349(16)
S2A S 0.60066(19) -0.1802(2) 0.36937(16)
S3A S 1.0502(2) -0.0987(2) 0.64545(19)
S4A S 0.8923(2) -0.3465(2) 0.3530(2)
Br1A Br 0.73963(9) -0.53880(9) 0.80887(9)
Br2A Br 0.47237(10) -0.77898(10) -0.04026(8)
loop_
_geom_bond_atom_site_label_1
_geom_bond_atom_site_label_2
_geom_bond_site_symmetry_1
_geom_bond_site_symmetry_2
C1 S1 1_555 1_555
C2 C3 1_555 1_555
C3 S2 1_555 1_555
C4 C5 1_555 1_555
C5 H1 1_555 1_555
C6 C5 1_555 1_555
C7 C6 1_555 1_555
H2 C7 1_555 1_555
C8 C7 1_555 1_555
H3 C8 1_555 1_555
C9 C4 1_555 1_555
H4 C9 1_555 1_555
C10 C11 1_555 1_555
C11 H5 1_555 1_555
C12 C11 1_555 1_555
C13 C12 1_555 1_555
H6 C13 1_555 1_555
C14 C13 1_555 1_555
H7 C14 1_555 1_555
C15 C10 1_555 1_555
H8 C15 1_555 1_555
S1 C2 1_555 1_555
S2 C1 1_555 1_555
S3 C2 1_555 1_555
S4 C3 1_555 1_555
Br1 C6 1_555 1_555
Br2 C12 1_555 1_555
C1A C1 1_555 1_555
C2A C3A 1_555 1_555
C3A S2A 1_555 1_555
C4A C5A 1_555 1_555
C5A H1A 1_555 1_555
C6A C5A 1_555 1_555
C7A C6A 1_555 1_555
H2A C7A 1_555 1_555
C8A C7A 1_555 1_555
H3A C8A 1_555 1_555
C9A C4A 1_555 1_555
H4A C9A 1_555 1_555
C10A C11A 1_555 1_555
C11A H5A 1_555 1_555
C12A C11A 1_555 1_555
C13A C12A 1_555 1_555
H6A C13A 1_555 1_555
C14A C13A 1_555 1_555
H7A C14A 1_555 1_555
C15A C10A 1_555 1_555
H8A C15A 1_555 1_555
S1A C1A 1_555 1_555
S2A C1A 1_555 1_555
S3A C2A 1_555 1_555
S4A C3A 1_555 1_555
Br1A C6A 1_555 1_555
Br2A C12A 1_555 1_555
C4 S3 1_555 1_555
C8 C9 1_555 1_555
C10 S4 1_555 1_555
C14 C15 1_555 1_555
C2A S1A 1_555 1_555
C4A S3A 1_555 1_555
C8A C9A 1_555 1_555
C10A S4A 1_555 1_555
C14A C15A 1_555 1_555

#END
