
#######################################################################
#
#                 Cambridge Crystallographic Data Centre
#                                CCDC 
#
#######################################################################
#
# If this CIF has been generated from an entry in the Cambridge 
# Structural Database, then it will include bibliographic, chemical, 
# crystal, experimental, refinement or atomic coordinate data resulting 
# from the CCDC's data processing and validation procedures.
#
#######################################################################

data_KIGYOQ
_chemical_name_common            TTF-5
_chemical_formula_moiety         'C34 H28 O4 S8'
_chemical_name_systematic        
2-(4,5-bis((2-methoxyphenyl)sulfanyl)-1,3-dithiol-2-ylidene)-4,5-bis((2-methoxyphenyl)sulfanyl)-1,3-dithiole
_symmetry_cell_setting           monoclinic
_symmetry_space_group_name_H-M   'C 2/c'
_symmetry_Int_Tables_number      15
_space_group_name_Hall           '-C 2yn'
loop_
_symmetry_equiv_pos_site_id
_symmetry_equiv_pos_as_xyz
1 x,y,z
2 -x,y,1/2-z
3 1/2+x,1/2+y,z
4 1/2-x,1/2+y,1/2-z
5 -x,-y,-z
6 x,-y,1/2+z
7 1/2-x,1/2-y,-z
8 1/2+x,1/2-y,1/2+z
_cell_length_a                   22.4518(8)
_cell_length_b                   8.6105(3)
_cell_length_c                   35.6677(11)
_cell_angle_alpha                90
_cell_angle_beta                 95.947(3)
_cell_angle_gamma                90
_cell_volume                     6858.21
_exptl_crystal_colour            red
_exptl_crystal_description       block
_chemical_melting_point          '457 K'
_cell_formula_units_Z            8
loop_
_atom_site_label
_atom_site_type_symbol
_atom_site_fract_x
_atom_site_fract_y
_atom_site_fract_z
C1 C 0.20932(13) 0.2391(3) 0.10509(8)
C2 C 0.19589(13) 0.1723(3) 0.13726(8)
C3 C 0.20211(14) 0.3807(3) 0.04066(8)
C4 C 0.26048(14) 0.3729(3) 0.05141(8)
C5 C 0.13856(13) 0.0291(3) 0.18644(8)
C6 C 0.19625(13) 0.0160(3) 0.19945(8)
C7 C 0.13853(15) 0.6356(4) 0.01681(9)
C8 C 0.08291(16) 0.6869(4) 0.00090(10)
C9 C 0.05843(18) 0.8200(5) 0.01474(13)
H1 H 0.0214 0.8557 0.0041
C10 C 0.0887(2) 0.8986(5) 0.04390(14)
H2 H 0.0713 0.9866 0.0533
C11 C 0.1442(2) 0.8514(5) 0.05991(12)
H3 H 0.1644 0.9071 0.0796
C12 C 0.16889(17) 0.7197(4) 0.04603(10)
H4 H 0.2065 0.6866 0.0564
C13 C 0.37338(14) 0.4852(4) 0.06110(9)
C14 C 0.37246(16) 0.6226(4) 0.08186(10)
C15 C 0.41812(18) 0.6512(5) 0.11047(11)
H5 H 0.4182 0.7421 0.1246
C16 C 0.46324(19) 0.5435(7) 0.11768(13)
H6 H 0.4932 0.5618 0.1372
C17 C 0.46529(19) 0.4098(7) 0.09682(14)
H7 H 0.4966 0.3398 0.1018
C18 C 0.42039(17) 0.3812(5) 0.06851(11)
H8 H 0.4215 0.2913 0.0542
C19 C 0.06028(13) -0.2152(4) 0.18208(8)
C20 C 0.00260(15) -0.2774(4) 0.18309(9)
C21 C -0.01210(16) -0.4144(4) 0.16453(11)
H9 H -0.0498 -0.4579 0.1657
C22 C 0.02868(18) -0.4874(4) 0.14425(12)
H10 H 0.0183 -0.5798 0.1317
C23 C 0.08447(18) -0.4249(4) 0.14236(12)
H11 H 0.1115 -0.4737 0.1282
C24 C 0.10049(15) -0.2896(4) 0.16151(10)
H12 H 0.1386 -0.2483 0.1605
C25 C 0.29499(14) -0.1372(4) 0.23328(8)
C26 C 0.30538(14) -0.2471(4) 0.20580(9)
C27 C 0.36343(16) -0.2964(4) 0.20296(10)
H13 H 0.3709 -0.3689 0.1847
C28 C 0.41011(17) -0.2393(5) 0.22687(12)
H14 H 0.4489 -0.2734 0.2246
C29 C 0.40044(18) -0.1327(5) 0.25407(12)
H15 H 0.4324 -0.0952 0.2702
C30 C 0.34308(16) -0.0811(4) 0.25744(10)
H16 H 0.3364 -0.0087 0.2759
C31 C -0.00390(16) 0.6340(5) -0.04198(12)
H17 H -0.0170 0.5639 -0.0621
H18 H -0.0061 0.7388 -0.0512
H19 H -0.0292 0.6232 -0.0220
C32 C 0.3252(2) 0.8668(4) 0.09111(11)
H20 H 0.2890 0.9213 0.0825
H21 H 0.3591 0.9253 0.0848
H22 H 0.3275 0.8538 0.1180
C33 C -0.09611(15) -0.2386(5) 0.19958(11)
H23 H -0.1178 -0.1718 0.2149
H24 H -0.0994 -0.3441 0.2078
H25 H -0.1125 -0.2299 0.1737
C34 C 0.26264(18) -0.4223(4) 0.15858(10)
H26 H 0.2247 -0.4451 0.1447
H27 H 0.2767 -0.5121 0.1728
H28 H 0.2910 -0.3948 0.1413
O1 O 0.05679(11) 0.5984(3) -0.02795(7)
O2 O 0.32498(12) 0.7179(3) 0.07341(7)
O3 O -0.03478(10) -0.1940(3) 0.20306(7)
O4 O 0.25595(10) -0.2958(3) 0.18369(6)
S1 S 0.15312(4) 0.29501(11) 0.06980(2)
S2 S 0.28281(4) 0.27737(10) 0.09440(2)
S3 S 0.12115(4) 0.14155(11) 0.14576(3)
S4 S 0.24882(3) 0.11295(10) 0.17430(2)
S5 S 0.16959(4) 0.46465(11) -0.00131(2)
S6 S 0.31579(4) 0.44459(11) 0.02462(2)
S7 S 0.07788(4) -0.04303(10) 0.20843(2)
S8 S 0.22181(4) -0.08009(10) 0.24129(2)
loop_
_geom_bond_atom_site_label_1
_geom_bond_atom_site_label_2
_geom_bond_site_symmetry_1
_geom_bond_site_symmetry_2
C1 C2 1_555 1_555
C2 S3 1_555 1_555
C3 C4 1_555 1_555
C4 S2 1_555 1_555
C5 C6 1_555 1_555
C6 S4 1_555 1_555
C7 C8 1_555 1_555
C8 C9 1_555 1_555
C9 H1 1_555 1_555
C10 C9 1_555 1_555
H2 C10 1_555 1_555
C11 C10 1_555 1_555
H3 C11 1_555 1_555
C12 C7 1_555 1_555
H4 C12 1_555 1_555
C13 C14 1_555 1_555
C14 C15 1_555 1_555
C15 H5 1_555 1_555
C16 C15 1_555 1_555
H6 C16 1_555 1_555
C17 C16 1_555 1_555
H7 C17 1_555 1_555
C18 C13 1_555 1_555
H8 C18 1_555 1_555
C19 C20 1_555 1_555
C20 C21 1_555 1_555
C21 H9 1_555 1_555
C22 C21 1_555 1_555
H10 C22 1_555 1_555
C23 C22 1_555 1_555
H11 C23 1_555 1_555
C24 C19 1_555 1_555
H12 C24 1_555 1_555
C25 C26 1_555 1_555
C26 C27 1_555 1_555
C27 H13 1_555 1_555
C28 C27 1_555 1_555
H14 C28 1_555 1_555
C29 C28 1_555 1_555
H15 C29 1_555 1_555
C30 C25 1_555 1_555
H16 C30 1_555 1_555
C31 H17 1_555 1_555
H18 C31 1_555 1_555
H19 C31 1_555 1_555
C32 H20 1_555 1_555
H21 C32 1_555 1_555
H22 C32 1_555 1_555
C33 H23 1_555 1_555
H24 C33 1_555 1_555
H25 C33 1_555 1_555
C34 H26 1_555 1_555
H27 C34 1_555 1_555
H28 C34 1_555 1_555
O1 C8 1_555 1_555
O2 C14 1_555 1_555
O3 C20 1_555 1_555
O4 C26 1_555 1_555
S1 C1 1_555 1_555
S2 C1 1_555 1_555
S3 C5 1_555 1_555
S4 C2 1_555 1_555
S5 C3 1_555 1_555
S6 C4 1_555 1_555
S7 C5 1_555 1_555
S8 C6 1_555 1_555
C3 S1 1_555 1_555
C7 S5 1_555 1_555
C11 C12 1_555 1_555
C13 S6 1_555 1_555
C17 C18 1_555 1_555
C19 S7 1_555 1_555
C23 C24 1_555 1_555
C25 S8 1_555 1_555
C29 C30 1_555 1_555
C31 O1 1_555 1_555
C32 O2 1_555 1_555
C33 O3 1_555 1_555
C34 O4 1_555 1_555

#END
