
#######################################################################
#
#                 Cambridge Crystallographic Data Centre
#                                CCDC 
#
#######################################################################
#
# If this CIF has been generated from an entry in the Cambridge 
# Structural Database, then it will include bibliographic, chemical, 
# crystal, experimental, refinement or atomic coordinate data resulting 
# from the CCDC's data processing and validation procedures.
#
#######################################################################

data_KIGYAC
_chemical_name_common            TTF-12
_chemical_formula_moiety         'C30 H16 Cl4 S8'
_chemical_name_systematic        
2-(4,5-bis((3-chlorophenyl)sulfanyl)-1,3-dithiol-2-ylidene)-4,5-bis((3-chlorophenyl)sulfanyl)-1,3-dithiole
_symmetry_cell_setting           triclinic
_symmetry_space_group_name_H-M   'P -1'
_symmetry_Int_Tables_number      2
_space_group_name_Hall           '-P 1'
loop_
_symmetry_equiv_pos_site_id
_symmetry_equiv_pos_as_xyz
1 x,y,z
2 -x,-y,-z
_cell_length_a                   8.4443(4)
_cell_length_b                   9.0923(7)
_cell_length_c                   10.9901(7)
_cell_angle_alpha                106.017(6)
_cell_angle_beta                 100.396(5)
_cell_angle_gamma                93.928(5)
_cell_volume                     791.459
_exptl_crystal_colour            red
_exptl_crystal_description       needle
_chemical_melting_point          '437 K'
_cell_formula_units_Z            1
loop_
_atom_site_label
_atom_site_type_symbol
_atom_site_fract_x
_atom_site_fract_y
_atom_site_fract_z
C1 C 0.4299(2) 0.0298(2) 0.50130(19)
C2 C 0.1425(2) 0.1094(2) 0.4412(2)
C3 C 0.2090(2) 0.2080(2) 0.5579(2)
C4 C -0.0177(2) 0.1788(3) 0.2283(2)
C5 C 0.0962(3) 0.3066(3) 0.2519(2)
H1 H 0.1600 0.3512 0.3342
C6 C 0.1134(3) 0.3663(3) 0.1522(2)
C7 C 0.0203(3) 0.3020(3) 0.0297(2)
H2 H 0.0342 0.3421 -0.0374
C8 C -0.0932(3) 0.1780(3) 0.0086(2)
H3 H -0.1584 0.1356 -0.0735
C9 C -0.1135(3) 0.1141(3) 0.1060(2)
H4 H -0.1904 0.0290 0.0896
C10 C 0.2659(3) 0.5107(3) 0.7027(2)
C11 C 0.3322(3) 0.5681(3) 0.8330(2)
H5 H 0.3015 0.5204 0.8913
C12 C 0.4456(3) 0.6985(3) 0.8754(2)
C13 C 0.4936(3) 0.7703(3) 0.7914(3)
H6 H 0.5699 0.8579 0.8216
C14 C 0.4273(4) 0.7108(3) 0.6622(3)
H7 H 0.4600 0.7575 0.6040
C15 C 0.3119(4) 0.5817(3) 0.6170(3)
H8 H 0.2658 0.5434 0.5292
S1 S 0.25623(7) -0.03650(6) 0.37647(5)
S2 S 0.40324(7) 0.18235(7) 0.63139(5)
S3 S -0.05456(7) 0.10312(8) 0.35486(6)
S4 S 0.11010(7) 0.34936(7) 0.64814(7)
Cl1 Cl 0.25246(9) 0.52936(9) 0.18414(9)
Cl2 Cl 0.52814(11) 0.77209(11) 1.03987(8)
C1A C 0.5701(2) -0.0298(2) 0.49870(19)
C2A C 0.8575(2) -0.1094(2) 0.5588(2)
C3A C 0.7910(2) -0.2080(2) 0.4421(2)
C4A C 1.0177(2) -0.1788(3) 0.7717(2)
C5A C 0.9038(3) -0.3066(3) 0.7481(2)
H1A H 0.8400 -0.3512 0.6658
C6A C 0.8866(3) -0.3663(3) 0.8478(2)
C7A C 0.9797(3) -0.3020(3) 0.9703(2)
H2A H 0.9658 -0.3421 1.0374
C8A C 1.0932(3) -0.1780(3) 0.9914(2)
H3A H 1.1584 -0.1356 1.0735
C9A C 1.1135(3) -0.1141(3) 0.8940(2)
H4A H 1.1904 -0.0290 0.9104
C10A C 0.7341(3) -0.5107(3) 0.2973(2)
C11A C 0.6678(3) -0.5681(3) 0.1670(2)
H5A H 0.6985 -0.5204 0.1087
C12A C 0.5544(3) -0.6985(3) 0.1246(2)
C13A C 0.5064(3) -0.7703(3) 0.2086(3)
H6A H 0.4301 -0.8579 0.1784
C14A C 0.5727(4) -0.7108(3) 0.3378(3)
H7A H 0.5400 -0.7575 0.3960
C15A C 0.6881(4) -0.5817(3) 0.3830(3)
H8A H 0.7342 -0.5434 0.4708
S1A S 0.74377(7) 0.03650(6) 0.62353(5)
S2A S 0.59676(7) -0.18235(7) 0.36861(5)
S3A S 1.05456(7) -0.10312(8) 0.64514(6)
S4A S 0.88990(7) -0.34936(7) 0.35186(7)
Cl1A Cl 0.74754(9) -0.52936(9) 0.81586(9)
Cl2A Cl 0.47186(11) -0.77209(11) -0.03987(8)
loop_
_geom_bond_atom_site_label_1
_geom_bond_atom_site_label_2
_geom_bond_site_symmetry_1
_geom_bond_site_symmetry_2
C1 S1 1_555 1_555
C2 C3 1_555 1_555
C3 S2 1_555 1_555
C4 C5 1_555 1_555
C5 H1 1_555 1_555
C6 C5 1_555 1_555
C7 C6 1_555 1_555
H2 C7 1_555 1_555
C8 C7 1_555 1_555
H3 C8 1_555 1_555
C9 C4 1_555 1_555
H4 C9 1_555 1_555
C10 C11 1_555 1_555
C11 H5 1_555 1_555
C12 C11 1_555 1_555
C13 C12 1_555 1_555
H6 C13 1_555 1_555
C14 C13 1_555 1_555
H7 C14 1_555 1_555
C15 C10 1_555 1_555
H8 C15 1_555 1_555
S1 C2 1_555 1_555
S2 C1 1_555 1_555
S3 C2 1_555 1_555
S4 C3 1_555 1_555
Cl1 C6 1_555 1_555
Cl2 C12 1_555 1_555
C1A C1 1_555 1_555
C2A C3A 1_555 1_555
C3A S2A 1_555 1_555
C4A C5A 1_555 1_555
C5A H1A 1_555 1_555
C6A C5A 1_555 1_555
C7A C6A 1_555 1_555
H2A C7A 1_555 1_555
C8A C7A 1_555 1_555
H3A C8A 1_555 1_555
C9A C4A 1_555 1_555
H4A C9A 1_555 1_555
C10A C11A 1_555 1_555
C11A H5A 1_555 1_555
C12A C11A 1_555 1_555
C13A C12A 1_555 1_555
H6A C13A 1_555 1_555
C14A C13A 1_555 1_555
H7A C14A 1_555 1_555
C15A C10A 1_555 1_555
H8A C15A 1_555 1_555
S1A C1A 1_555 1_555
S2A C1A 1_555 1_555
S3A C2A 1_555 1_555
S4A C3A 1_555 1_555
Cl1A C6A 1_555 1_555
Cl2A C12A 1_555 1_555
C4 S3 1_555 1_555
C8 C9 1_555 1_555
C10 S4 1_555 1_555
C14 C15 1_555 1_555
C2A S1A 1_555 1_555
C4A S3A 1_555 1_555
C8A C9A 1_555 1_555
C10A S4A 1_555 1_555
C14A C15A 1_555 1_555

#END
