
#######################################################################
#
#                 Cambridge Crystallographic Data Centre
#                                CCDC 
#
#######################################################################
#
# If this CIF has been generated from an entry in the Cambridge 
# Structural Database, then it will include bibliographic, chemical, 
# crystal, experimental, refinement or atomic coordinate data resulting 
# from the CCDC's data processing and validation procedures.
#
#######################################################################

data_KIGYIK
_chemical_name_common            TTF-6
_chemical_formula_moiety         'C34 H28 O4 S8'
_chemical_name_systematic        
2-(4,5-bis((4-methoxyphenyl)sulfanyl)-1,3-dithiol-2-ylidene)-4,5-bis((4-methoxyphenyl)sulfanyl)-1,3-dithiole
_symmetry_cell_setting           triclinic
_symmetry_space_group_name_H-M   'P -1'
_symmetry_Int_Tables_number      2
_space_group_name_Hall           '-P 1'
loop_
_symmetry_equiv_pos_site_id
_symmetry_equiv_pos_as_xyz
1 x,y,z
2 -x,-y,-z
_cell_length_a                   7.2270(4)
_cell_length_b                   10.0931(5)
_cell_length_c                   12.8114(7)
_cell_angle_alpha                93.856(4)
_cell_angle_beta                 97.923(4)
_cell_angle_gamma                110.344(5)
_cell_volume                     861.144
_exptl_crystal_colour            red
_exptl_crystal_description       block
_chemical_melting_point          '432 K'
_cell_formula_units_Z            1
loop_
_atom_site_label
_atom_site_type_symbol
_atom_site_fract_x
_atom_site_fract_y
_atom_site_fract_z
C1 C 0.9750(3) 0.54350(19) 0.53250(15)
C2 C 0.8108(3) 0.7115(2) 0.60768(15)
C3 C 0.8893(3) 0.6668(2) 0.69293(15)
C4 C 0.6154(3) 0.8559(2) 0.48456(17)
C5 C 0.7282(3) 0.9798(2) 0.4490(2)
H1 H 0.8448 1.0415 0.4922
C6 C 0.6697(3) 1.0128(2) 0.3500(2)
H2 H 0.7476 1.0961 0.3266
C7 C 0.4957(3) 0.9226(2) 0.28582(17)
C8 C 0.3832(4) 0.7974(2) 0.3213(2)
H3 H 0.2671 0.7351 0.2780
C9 C 0.4420(3) 0.7649(2) 0.4195(2)
H4 H 0.3649 0.6812 0.4426
C10 C 0.6841(3) 0.5529(2) 0.84865(15)
C11 C 0.7291(3) 0.4816(3) 0.93166(18)
H5 H 0.8570 0.5161 0.9722
C12 C 0.5882(4) 0.3613(3) 0.95465(19)
H6 H 0.6208 0.3151 1.0108
C13 C 0.3972(3) 0.3078(2) 0.89488(18)
C14 C 0.3504(4) 0.3779(3) 0.81136(18)
H7 H 0.2230 0.3425 0.7703
C15 C 0.4932(3) 0.5003(2) 0.78934(17)
H8 H 0.4604 0.5477 0.7340
C16 C 0.5274(5) 1.0736(3) 0.1484(2)
H9 H 0.4574 1.0762 0.0797
H10 H 0.6592 1.0755 0.1423
H11 H 0.5377 1.1547 0.1957
C17 C 0.0641(5) 0.1367(3) 0.8707(3)
H12 H -0.0110 0.0526 0.8990
H13 H 0.0601 0.1140 0.7962
H14 H 0.0068 0.2083 0.8807
O1 O 0.4205(3) 0.94638(18) 0.18915(13)
O2 O 0.2668(3) 0.1887(2) 0.92422(16)
S1 S 0.84777(8) 0.65337(5) 0.48309(4)
S2 S 1.02794(7) 0.55777(5) 0.67152(4)
S3 S 0.67874(11) 0.82702(7) 0.61799(5)
S4 S 0.86757(8) 0.71342(5) 0.82380(4)
C1A C 1.0250(3) 0.45650(19) 0.46750(15)
C2A C 1.1892(3) 0.2885(2) 0.39232(15)
C3A C 1.1107(3) 0.3332(2) 0.30707(15)
C4A C 1.3846(3) 0.1441(2) 0.51544(17)
C5A C 1.2718(3) 0.0202(2) 0.5510(2)
H1A H 1.1552 -0.0415 0.5078
C6A C 1.3303(3) -0.0128(2) 0.6500(2)
H2A H 1.2524 -0.0961 0.6734
C7A C 1.5043(3) 0.0774(2) 0.71418(17)
C8A C 1.6168(4) 0.2026(2) 0.6787(2)
H3A H 1.7329 0.2649 0.7220
C9A C 1.5580(3) 0.2351(2) 0.5805(2)
H4A H 1.6351 0.3188 0.5574
C10A C 1.3159(3) 0.4471(2) 0.15135(15)
C11A C 1.2709(3) 0.5184(3) 0.06834(18)
H5A H 1.1430 0.4839 0.0278
C12A C 1.4118(4) 0.6387(3) 0.04535(19)
H6A H 1.3792 0.6849 -0.0108
C13A C 1.6028(3) 0.6922(2) 0.10512(18)
C14A C 1.6496(4) 0.6221(3) 0.18864(18)
H7A H 1.7770 0.6575 0.2297
C15A C 1.5068(3) 0.4997(2) 0.21066(17)
H8A H 1.5396 0.4523 0.2660
C16A C 1.4726(5) -0.0736(3) 0.8516(2)
H9A H 1.5426 -0.0762 0.9203
H10A H 1.3408 -0.0755 0.8577
H11A H 1.4623 -0.1547 0.8043
C17A C 1.9359(5) 0.8633(3) 0.1293(3)
H12A H 2.0110 0.9474 0.1010
H13A H 1.9399 0.8860 0.2038
H14A H 1.9932 0.7917 0.1193
O1A O 1.5795(3) 0.05362(18) 0.81085(13)
O2A O 1.7332(3) 0.8113(2) 0.07578(16)
S1A S 1.15223(8) 0.34663(5) 0.51691(4)
S2A S 0.97206(7) 0.44223(5) 0.32848(4)
S3A S 1.32126(11) 0.17298(7) 0.38201(5)
S4A S 1.13243(8) 0.28658(5) 0.17620(4)
loop_
_geom_bond_atom_site_label_1
_geom_bond_atom_site_label_2
_geom_bond_site_symmetry_1
_geom_bond_site_symmetry_2
C1 S1 1_555 1_555
C2 C3 1_555 1_555
C3 S2 1_555 1_555
C4 C5 1_555 1_555
C5 H1 1_555 1_555
C6 C5 1_555 1_555
H2 C6 1_555 1_555
C7 C6 1_555 1_555
C8 C7 1_555 1_555
H3 C8 1_555 1_555
C9 C4 1_555 1_555
H4 C9 1_555 1_555
C10 C11 1_555 1_555
C11 H5 1_555 1_555
C12 C11 1_555 1_555
H6 C12 1_555 1_555
C13 C12 1_555 1_555
C14 C13 1_555 1_555
H7 C14 1_555 1_555
C15 C10 1_555 1_555
H8 C15 1_555 1_555
C16 H9 1_555 1_555
H10 C16 1_555 1_555
H11 C16 1_555 1_555
C17 H12 1_555 1_555
H13 C17 1_555 1_555
H14 C17 1_555 1_555
O1 C7 1_555 1_555
O2 C13 1_555 1_555
S1 C2 1_555 1_555
S2 C1 1_555 1_555
S3 C2 1_555 1_555
S4 C3 1_555 1_555
C1A C1 1_555 1_555
C2A C3A 1_555 1_555
C3A S2A 1_555 1_555
C4A C5A 1_555 1_555
C5A H1A 1_555 1_555
C6A C5A 1_555 1_555
H2A C6A 1_555 1_555
C7A C6A 1_555 1_555
C8A C7A 1_555 1_555
H3A C8A 1_555 1_555
C9A C4A 1_555 1_555
H4A C9A 1_555 1_555
C10A C11A 1_555 1_555
C11A H5A 1_555 1_555
C12A C11A 1_555 1_555
H6A C12A 1_555 1_555
C13A C12A 1_555 1_555
C14A C13A 1_555 1_555
H7A C14A 1_555 1_555
C15A C10A 1_555 1_555
H8A C15A 1_555 1_555
C16A H9A 1_555 1_555
H10A C16A 1_555 1_555
H11A C16A 1_555 1_555
C17A H12A 1_555 1_555
H13A C17A 1_555 1_555
H14A C17A 1_555 1_555
O1A C7A 1_555 1_555
O2A C13A 1_555 1_555
S1A C1A 1_555 1_555
S2A C1A 1_555 1_555
S3A C2A 1_555 1_555
S4A C3A 1_555 1_555
C4 S3 1_555 1_555
C8 C9 1_555 1_555
C10 S4 1_555 1_555
C14 C15 1_555 1_555
C16 O1 1_555 1_555
C17 O2 1_555 1_555
C2A S1A 1_555 1_555
C4A S3A 1_555 1_555
C8A C9A 1_555 1_555
C10A S4A 1_555 1_555
C14A C15A 1_555 1_555
C16A O1A 1_555 1_555
C17A O2A 1_555 1_555

#END
