
#######################################################################
#
#                 Cambridge Crystallographic Data Centre
#                                CCDC 
#
#######################################################################
#
# If this CIF has been generated from an entry in the Cambridge 
# Structural Database, then it will include bibliographic, chemical, 
# crystal, experimental, refinement or atomic coordinate data resulting 
# from the CCDC's data processing and validation procedures.
#
#######################################################################

data_KIHCEK
_chemical_formula_moiety         'C31 H34 N2'
_chemical_name_systematic        
bis(4-(4-Azatricyclo(5.2.1.0^2,6^)dec-8-en-4-yl)phenyl)methane
_symmetry_cell_setting           monoclinic
_symmetry_space_group_name_H-M   'P 21/n'
_symmetry_Int_Tables_number      14
_space_group_name_Hall           '-P 2yn'
loop_
_symmetry_equiv_pos_site_id
_symmetry_equiv_pos_as_xyz
1 x,y,z
2 1/2-x,1/2+y,1/2-z
3 -x,-y,-z
4 1/2+x,1/2-y,1/2+z
_cell_length_a                   19.0940(5)
_cell_length_b                   6.19200(10)
_cell_length_c                   19.9310(3)
_cell_angle_alpha                90
_cell_angle_beta                 94.9880(10)
_cell_angle_gamma                90
_cell_volume                     2347.52
_chemical_melting_point          '188-189 deg.C(dec.)'
_cell_formula_units_Z            4
_exptl_crystal_recrystallization_method dichloromethane/hexane
loop_
_atom_site_label
_atom_site_type_symbol
_atom_site_fract_x
_atom_site_fract_y
_atom_site_fract_z
N1 N 0.1382(1) -0.1602(3) 0.0960(1)
N2 N 0.1028(1) 0.3576(2) 0.5535(1)
C1 C 0.1109(1) 0.5573(3) 0.2728(1)
C2 C 0.1168(1) 0.3702(3) 0.2258(1)
C3 C 0.0586(1) 0.2649(4) 0.1946(1)
C4 C 0.0645(1) 0.0896(4) 0.1526(1)
C5 C 0.1305(1) 0.0096(3) 0.1393(1)
C6 C 0.1893(1) 0.1139(3) 0.1712(1)
C7 C 0.1821(1) 0.2870(3) 0.2130(1)
C8 C 0.0794(1) -0.2826(4) 0.0660(1)
C9 C 0.1103(1) -0.4553(4) 0.0235(1)
C10 C 0.1036(1) -0.4205(4) -0.0541(1)
C11 C 0.1293(1) -0.1975(4) -0.0673(1)
C12 C 0.1978(1) -0.1943(4) -0.0520(1)
C13 C 0.2200(1) -0.4152(4) -0.0288(1)
C14 C 0.1914(1) -0.4488(3) 0.0409(1)
C15 C 0.2051(1) -0.2677(4) 0.0918(1)
C16 C 0.1671(2) -0.5525(5) -0.0727(1)
C17 C 0.1127(1) 0.4984(3) 0.3470(1)
C18 C 0.1314(1) 0.6500(3) 0.3967(1)
C19 C 0.1289(1) 0.6062(3) 0.4645(1)
C20 C 0.1071(1) 0.4033(3) 0.4862(1)
C21 C 0.0909(1) 0.2474(3) 0.4363(1)
C22 C 0.0936(1) 0.2951(3) 0.3687(1)
C23 C 0.1043(1) 0.5288(3) 0.6034(1)
C24 C 0.0815(1) 0.4276(3) 0.6675(1)
C25 C 0.1394(1) 0.3853(3) 0.7259(1)
C26 C 0.1984(1) 0.2658(4) 0.6970(1)
C27 C 0.1760(1) 0.0693(4) 0.6813(1)
C28 C 0.1016(1) 0.0521(3) 0.6992(1)
C29 C 0.0555(1) 0.1962(3) 0.6485(1)
C30 C 0.0646(1) 0.1695(3) 0.5736(1)
C31 C 0.1051(1) 0.1968(3) 0.7615(1)
loop_
_geom_bond_atom_site_label_1
_geom_bond_atom_site_label_2
_geom_bond_site_symmetry_1
_geom_bond_site_symmetry_2
N1 C5 1_555 1_555
N2 C20 1_555 1_555
C1 C2 1_555 1_555
C2 C3 1_555 1_555
C3 C4 1_555 1_555
C4 C5 1_555 1_555
C5 C6 1_555 1_555
C6 C7 1_555 1_555
C7 C2 1_555 1_555
C8 N1 1_555 1_555
C9 C8 1_555 1_555
C10 C9 1_555 1_555
C11 C10 1_555 1_555
C12 C11 1_555 1_555
C13 C12 1_555 1_555
C14 C9 1_555 1_555
C15 N1 1_555 1_555
C16 C10 1_555 1_555
C17 C1 1_555 1_555
C18 C17 1_555 1_555
C19 C18 1_555 1_555
C20 C19 1_555 1_555
C21 C20 1_555 1_555
C22 C17 1_555 1_555
C23 N2 1_555 1_555
C24 C23 1_555 1_555
C25 C24 1_555 1_555
C26 C25 1_555 1_555
C27 C26 1_555 1_555
C28 C27 1_555 1_555
C29 C24 1_555 1_555
C30 N2 1_555 1_555
C31 C25 1_555 1_555
C13 C14 1_555 1_555
C13 C16 1_555 1_555
C14 C15 1_555 1_555
C21 C22 1_555 1_555
C28 C29 1_555 1_555
C28 C31 1_555 1_555
C29 C30 1_555 1_555

#END
