
#######################################################################
#
#                 Cambridge Crystallographic Data Centre
#                                CCDC 
#
#######################################################################
#
# If this CIF has been generated from an entry in the Cambridge 
# Structural Database, then it will include bibliographic, chemical, 
# crystal, experimental, refinement or atomic coordinate data resulting 
# from the CCDC's data processing and validation procedures.
#
#######################################################################

data_KIHJIV
_chemical_formula_moiety         'C25 H26 F1 N1 O3'
_chemical_name_systematic        
syn,anti,syn-(4R)-Benzyl-3-(((1S,2R,3R,6R)-3-fluoro-6-methyl-4-methylene-2-phenylcyclohexyl)carbonyl)-1,3-oxazolidin-2-one
_symmetry_cell_setting           orthorhombic
_symmetry_space_group_name_H-M   'P 21 21 21'
_symmetry_Int_Tables_number      19
_space_group_name_Hall           'P 2ac 2ab'
loop_
_symmetry_equiv_pos_site_id
_symmetry_equiv_pos_as_xyz
1 x,y,z
2 1/2+x,1/2-y,-z
3 -x,1/2+y,1/2-z
4 1/2-x,-y,1/2+z
_cell_length_a                   6.4075(2)
_cell_length_b                   17.2578(3)
_cell_length_c                   19.0770(4)
_cell_angle_alpha                90
_cell_angle_beta                 90
_cell_angle_gamma                90
_cell_volume                     2109.52
_exptl_crystal_colour            colorless
_chemical_melting_point          '151-153 deg.C'
_cell_formula_units_Z            4
_exptl_crystal_recrystallization_method 'ethyl acetate'
loop_
_atom_site_label
_atom_site_type_symbol
_atom_site_fract_x
_atom_site_fract_y
_atom_site_fract_z
N1 N 0.4574(3) 0.26151(10) 0.31924(10)
C1 C 0.6123(4) 0.23065(14) 0.36139(13)
O1 O 0.7909(3) 0.21630(11) 0.34692(9)
O2 O 0.5333(3) 0.21660(11) 0.42543(8)
C2 C 0.3095(5) 0.22970(16) 0.42594(14)
C3 C 0.2628(4) 0.27598(15) 0.35938(13)
C4 C 0.4630(3) 0.27854(12) 0.24736(12)
O3 O 0.3041(3) 0.30249(11) 0.22063(9)
C5 C 0.6633(3) 0.26364(12) 0.20716(11)
C6 C 0.6705(4) 0.17685(12) 0.18532(12)
C7 C 0.5084(4) 0.16102(13) 0.12821(13)
C8 C 0.5391(4) 0.21348(13) 0.06647(12)
C9 C 0.5303(4) 0.29821(13) 0.08508(11)
C10 C 0.6856(4) 0.31732(12) 0.14261(11)
C11 C 0.2214(4) 0.36257(16) 0.37155(13)
C12 C 0.3933(4) 0.40565(14) 0.40798(13)
C13 C 0.3891(6) 0.41905(16) 0.48012(14)
C14 C 0.5547(8) 0.45822(17) 0.51286(15)
C15 C 0.7228(7) 0.48297(17) 0.4745(2)
C16 C 0.7299(5) 0.47066(15) 0.40329(17)
C17 C 0.5664(5) 0.43249(13) 0.37051(13)
C18 C 0.8895(4) 0.15360(14) 0.16222(14)
C19 C 0.5729(4) 0.18918(15) 0.00172(14)
F1 F 0.5771(3) 0.34395(8) 0.02644(7)
C20 C 0.6937(4) 0.40263(12) 0.16316(11)
C21 C 0.5257(4) 0.45303(13) 0.15440(12)
C22 C 0.5432(5) 0.53064(13) 0.17434(13)
C23 C 0.7260(5) 0.55801(14) 0.20279(13)
C24 C 0.8946(4) 0.50875(14) 0.21200(12)
C25 C 0.8781(4) 0.43116(13) 0.19179(12)
H1 H 0.2681 0.2599 0.4684
H2 H 0.2329 0.1792 0.4253
H3 H 0.1309 0.2599 0.3355
H4 H 0.7841 0.2757 0.2385
H5 H 0.6348 0.1442 0.2269
H6 H 0.3657 0.1697 0.1480
H7 H 0.5217 0.1060 0.1124
H8 H 0.3855 0.3095 0.1018
H9 H 0.8247 0.3065 0.1210
H10 H 0.0922 0.3675 0.4006
H11 H 0.1981 0.3875 0.3249
H12 H 0.2678 0.4007 0.5086
H13 H 0.5498 0.4681 0.5645
H14 H 0.8409 0.5101 0.4984
H15 H 0.8522 0.4891 0.3753
H16 H 0.5724 0.4239 0.3187
H17 H 0.8901 0.0977 0.1485
H18 H 0.9894 0.1619 0.2018
H19 H 0.9326 0.1860 0.1212
H20 H 0.5921 0.2276 -0.0370
H21 H 0.5793 0.1324 -0.0085
H22 H 0.3922 0.4336 0.1338
H23 H 0.4221 0.5665 0.1679
H24 H 0.7374 0.6137 0.2169
H25 H 1.0273 0.5286 0.2330
H26 H 1.0003 0.3957 0.1980
loop_
_geom_bond_atom_site_label_1
_geom_bond_atom_site_label_2
_geom_bond_site_symmetry_1
_geom_bond_site_symmetry_2
N1 C1 1_555 1_555
C1 O1 1_555 1_555
O2 C1 1_555 1_555
C2 O2 1_555 1_555
C3 N1 1_555 1_555
C4 N1 1_555 1_555
O3 C4 1_555 1_555
C5 C4 1_555 1_555
C6 C5 1_555 1_555
C7 C6 1_555 1_555
C8 C7 1_555 1_555
C9 C8 1_555 1_555
C10 C5 1_555 1_555
C11 C3 1_555 1_555
C12 C11 1_555 1_555
C13 C12 1_555 1_555
C14 C13 1_555 1_555
C15 C14 1_555 1_555
C16 C15 1_555 1_555
C17 C12 1_555 1_555
C18 C6 1_555 1_555
C19 C8 1_555 1_555
F1 C9 1_555 1_555
C20 C10 1_555 1_555
C21 C20 1_555 1_555
C22 C21 1_555 1_555
C23 C22 1_555 1_555
C24 C23 1_555 1_555
C25 C20 1_555 1_555
H1 C2 1_555 1_555
H2 C2 1_555 1_555
H3 C3 1_555 1_555
H4 C5 1_555 1_555
H5 C6 1_555 1_555
H6 C7 1_555 1_555
H7 C7 1_555 1_555
H8 C9 1_555 1_555
H9 C10 1_555 1_555
H10 C11 1_555 1_555
H11 C11 1_555 1_555
H12 C13 1_555 1_555
H13 C14 1_555 1_555
H14 C15 1_555 1_555
H15 C16 1_555 1_555
H16 C17 1_555 1_555
H17 C18 1_555 1_555
H18 C18 1_555 1_555
H19 C18 1_555 1_555
H20 C19 1_555 1_555
H21 C19 1_555 1_555
H22 C21 1_555 1_555
H23 C22 1_555 1_555
H24 C23 1_555 1_555
H25 C24 1_555 1_555
H26 C25 1_555 1_555
C2 C3 1_555 1_555
C9 C10 1_555 1_555
C16 C17 1_555 1_555
C24 C25 1_555 1_555

#END
