
#######################################################################
#
#                 Cambridge Crystallographic Data Centre
#                                CCDC 
#
#######################################################################
#
# If this CIF has been generated from an entry in the Cambridge 
# Structural Database, then it will include bibliographic, chemical, 
# crystal, experimental, refinement or atomic coordinate data resulting 
# from the CCDC's data processing and validation procedures.
#
#######################################################################

data_KIHMIA
_chemical_formula_moiety         'C24 H25 N3 O3,H2 O1'
_chemical_name_systematic        
'13-hydroxy-15-(1H-indole-3-carbonyl)-3,4,5,6-tetradehydrospartein-2-one monohydrate'
_symmetry_cell_setting           orthorhombic
_symmetry_space_group_name_H-M   'P 21 21 21'
_symmetry_Int_Tables_number      19
_space_group_name_Hall           'P 2ac 2ab'
loop_
_symmetry_equiv_pos_site_id
_symmetry_equiv_pos_as_xyz
1 x,y,z
2 1/2-x,-y,1/2+z
3 -x,1/2+y,1/2-z
4 1/2+x,1/2-y,-z
_cell_length_a                   9.68940(10)
_cell_length_b                   12.88380(10)
_cell_length_c                   16.7991(2)
_cell_angle_alpha                90
_cell_angle_beta                 90
_cell_angle_gamma                90
_cell_volume                     2097.14
_exptl_crystal_colour            colorless
_exptl_crystal_description       block
_cell_formula_units_Z            4
loop_
_atom_site_label
_atom_site_type_symbol
_atom_site_fract_x
_atom_site_fract_y
_atom_site_fract_z
O1 O 0.71167(16) 0.62820(13) 0.67984(10)
H1 H 0.7488 0.5828 0.7065
O2 O 0.64596(16) 0.50957(14) 0.27106(10)
O3 O 0.4719(2) 0.29716(13) 0.67042(9)
N1 N 0.48727(16) 0.50522(13) 0.53901(10)
N2 N 0.5800(2) 0.22419(15) 0.41304(11)
H2 H 0.6115 0.2254 0.3652
N3 N 0.46544(18) 0.52457(14) 0.35745(10)
C1 C 0.5276(2) 0.27444(16) 0.53707(12)
C2 C 0.5868(2) 0.30335(17) 0.46505(13)
H3 H 0.6255 0.3679 0.4544
C3 C 0.2818(2) 0.54449(18) 0.45896(13)
H4 H 0.1812 0.5369 0.4577
C4 C 0.5140(2) 0.33654(16) 0.60786(12)
C5 C 0.5146(2) 0.14047(16) 0.44832(13)
C6 C 0.3421(2) 0.49009(19) 0.38757(13)
C7 C 0.5518(2) 0.45152(16) 0.60681(12)
H5 H 0.6518 0.4553 0.5986
C8 C 0.5332(2) 0.61435(15) 0.53637(12)
H6 H 0.6338 0.6133 0.5304
C9 C 0.5325(2) 0.47465(18) 0.29461(12)
C10 C 0.4814(2) 0.16849(16) 0.52704(11)
C11 C 0.33686(19) 0.49433(17) 0.53579(12)
H7 H 0.2956 0.5278 0.5817
H8 H 0.3121 0.4214 0.5369
C12 C 0.4179(2) 0.09502(17) 0.57586(14)
H9 H 0.3949 0.1112 0.6282
C13 C 0.5334(2) 0.62046(17) 0.38513(13)
H10 H 0.5265 0.6722 0.3434
H11 H 0.6306 0.6060 0.3933
C14 C 0.2796(2) 0.4051(2) 0.35500(14)
H12 H 0.1960 0.3816 0.3753
C15 C 0.4748(2) 0.66656(16) 0.46171(13)
H13 H 0.5003 0.7402 0.4634
C16 C 0.5221(2) 0.50345(18) 0.68691(12)
H14 H 0.4244 0.4981 0.6988
H15 H 0.5726 0.4679 0.7286
C17 C 0.5642(2) 0.61747(18) 0.68518(13)
H16 H 0.5320 0.6512 0.7341
C18 C 0.3897(2) -0.00196(18) 0.54528(17)
H17 H 0.3493 -0.0518 0.5779
C19 C 0.4837(2) 0.04373(18) 0.41671(14)
H18 H 0.5048 0.0273 0.3642
C20 C 0.5021(2) 0.67292(17) 0.61392(13)
H19 H 0.5396 0.7426 0.6106
H20 H 0.4030 0.6785 0.6209
C21 C 0.3419(3) 0.3533(2) 0.29086(14)
H21 H 0.2992 0.2956 0.2685
C22 C 0.3173(2) 0.65965(18) 0.45884(14)
H22 H 0.2771 0.6938 0.5048
H23 H 0.2823 0.6927 0.4110
C23 C 0.4640(3) 0.38713(19) 0.26156(13)
H24 H 0.5040 0.3524 0.2189
C24 C 0.4205(2) -0.02699(18) 0.46618(17)
H25 H 0.3980 -0.0924 0.4467
O4 O 0.79247(19) 0.80629(14) 0.76084(10)
H26 H 0.7138 0.8251 0.7780
H27 H 0.7843 0.7501 0.7347
loop_
_geom_bond_atom_site_label_1
_geom_bond_atom_site_label_2
_geom_bond_site_symmetry_1
_geom_bond_site_symmetry_2
O1 H1 1_555 1_555
O2 C9 1_555 1_555
O3 C4 1_555 1_555
N1 C7 1_555 1_555
N2 H2 1_555 1_555
N3 C6 1_555 1_555
C1 C2 1_555 1_555
C2 N2 1_555 1_555
H3 C2 1_555 1_555
C3 H4 1_555 1_555
C4 C1 1_555 1_555
C5 N2 1_555 1_555
C6 C3 1_555 1_555
C7 C4 1_555 1_555
H5 C7 1_555 1_555
C8 N1 1_555 1_555
H6 C8 1_555 1_555
C9 N3 1_555 1_555
C10 C1 1_555 1_555
C11 N1 1_555 1_555
H7 C11 1_555 1_555
H8 C11 1_555 1_555
C12 C10 1_555 1_555
H9 C12 1_555 1_555
C13 N3 1_555 1_555
H10 C13 1_555 1_555
H11 C13 1_555 1_555
C14 C6 1_555 1_555
H12 C14 1_555 1_555
C15 C8 1_555 1_555
H13 C15 1_555 1_555
C16 C7 1_555 1_555
H14 C16 1_555 1_555
H15 C16 1_555 1_555
C17 O1 1_555 1_555
H16 C17 1_555 1_555
C18 C12 1_555 1_555
H17 C18 1_555 1_555
C19 C5 1_555 1_555
H18 C19 1_555 1_555
C20 C8 1_555 1_555
H19 C20 1_555 1_555
H20 C20 1_555 1_555
C21 C14 1_555 1_555
H21 C21 1_555 1_555
C22 C3 1_555 1_555
H22 C22 1_555 1_555
H23 C22 1_555 1_555
C23 C9 1_555 1_555
H24 C23 1_555 1_555
C24 C18 1_555 1_555
H25 C24 1_555 1_555
O4 H26 1_555 1_555
H27 O4 1_555 1_555
C3 C11 1_555 1_555
C5 C10 1_555 1_555
C13 C15 1_555 1_555
C15 C22 1_555 1_555
C16 C17 1_555 1_555
C17 C20 1_555 1_555
C19 C24 1_555 1_555
C21 C23 1_555 1_555

#END
