
#######################################################################
#
#                 Cambridge Crystallographic Data Centre
#                                CCDC 
#
#######################################################################
#
# If this CIF has been generated from an entry in the Cambridge 
# Structural Database, then it will include bibliographic, chemical, 
# crystal, experimental, refinement or atomic coordinate data resulting 
# from the CCDC's data processing and validation procedures.
#
#######################################################################

data_KIHMOG
_chemical_formula_moiety         'C30 H44 N4 O2,5(H2 O1)'
_chemical_name_systematic        
'14-(15-oxomatridin-10-yl)-13,14-didehydromatridin-15-one pentahydrate'
_symmetry_cell_setting           monoclinic
_symmetry_space_group_name_H-M   'P 21'
_symmetry_Int_Tables_number      4
_space_group_name_Hall           'P 2yb'
loop_
_symmetry_equiv_pos_site_id
_symmetry_equiv_pos_as_xyz
1 x,y,z
2 -x,1/2+y,-z
_cell_length_a                   11.62198(16)
_cell_length_b                   7.08780(13)
_cell_length_c                   19.4487(3)
_cell_angle_alpha                90
_cell_angle_beta                 106.2877(15)
_cell_angle_gamma                90
_cell_volume                     1537.77
_exptl_crystal_colour            colorless
_exptl_crystal_description       block
_cell_formula_units_Z            2
loop_
_atom_site_label
_atom_site_type_symbol
_atom_site_fract_x
_atom_site_fract_y
_atom_site_fract_z
O1 O 0.90289(15) 0.6263(3) 0.23198(9)
N1 N 1.55015(18) 0.8581(3) 0.75368(10)
N2 N 1.62279(18) 1.2811(3) 0.86643(10)
N3 N 1.27806(17) 0.6290(3) 0.53387(10)
O2 O 1.62018(16) 0.7438(4) 0.66387(10)
N4 N 1.04010(17) 0.7367(3) 0.32908(10)
C1 C 1.6058(2) 1.2492(4) 0.78871(12)
H1 H 1.6185 1.3723 0.7669
C2 C 1.5363(2) 1.4211(4) 0.87802(13)
H2 H 1.5486 1.5424 0.8558
H3 H 1.5511 1.4427 0.9301
C3 C 1.2319(2) 0.6137(4) 0.45540(12)
H4 H 1.2783 0.5142 0.4383
C4 C 1.4767(2) 1.1821(4) 0.75104(12)
H5 H 1.4669 1.1840 0.6983
C5 C 1.4099(2) 0.7857(4) 0.63764(12)
C6 C 1.6721(2) 0.9077(4) 0.79505(13)
H6 H 1.7301 0.8192 0.7837
H7 H 1.6797 0.8985 0.8469
C7 C 1.3984(2) 0.7113(4) 0.56262(12)
H8 H 1.4581 0.6072 0.5670
C8 C 1.5352(2) 0.7960(4) 0.68531(13)
C9 C 1.2775(2) 0.4428(4) 0.56617(13)
H9 H 1.3163 0.4513 0.6184
H10 H 1.3249 0.3542 0.5457
C10 C 1.4082(2) 1.3566(4) 0.84641(13)
H11 H 1.3522 1.4540 0.8544
H12 H 1.3940 1.2386 0.8700
C11 C 1.1175(2) 0.8840(4) 0.37314(12)
H13 H 1.0767 0.9316 0.4087
C12 C 1.1293(2) 1.0480(4) 0.32526(12)
H14 H 1.1770 1.0082 0.2929
H15 H 1.1719 1.1535 0.3551
C13 C 1.3179(2) 0.8322(4) 0.66256(12)
H16 H 1.2390 0.8267 0.6311
C14 C 1.0453(2) 0.5464(4) 0.35882(13)
H17 H 1.0935 0.4641 0.3364
H18 H 0.9634 0.4934 0.3479
C15 C 1.3860(2) 1.3230(4) 0.76596(13)
H19 H 1.3923 1.4444 0.7421
H20 H 1.3038 1.2737 0.7456
C16 C 0.96111(19) 0.7628(4) 0.26410(12)
C17 C 1.7454(2) 1.3534(5) 0.90039(14)
H21 H 1.7545 1.3798 0.9516
H22 H 1.7572 1.4732 0.8771
C18 C 1.4585(2) 0.9769(4) 0.77193(12)
H23 H 1.4738 0.9729 0.8251
C19 C 1.0056(2) 1.1143(4) 0.28096(13)
H24 H 1.0139 1.2266 0.2525
H25 H 0.9566 1.1497 0.3132
C20 C 0.9439(2) 0.9555(4) 0.23096(13)
H26 H 0.8569 0.9826 0.2142
H27 H 0.9748 0.9549 0.1884
C21 C 1.3347(2) 0.8930(4) 0.73860(13)
H28 H 1.3233 0.7828 0.7673
H29 H 1.2730 0.9879 0.7401
C22 C 1.2399(2) 0.8023(4) 0.41508(12)
H30 H 1.2857 0.7751 0.3797
C23 C 1.8398(2) 1.2120(5) 0.89397(15)
H31 H 1.8309 1.0942 0.9193
H32 H 1.9207 1.2640 0.9166
C24 C 1.3118(2) 0.9518(4) 0.46823(14)
H33 H 1.3314 1.0605 0.4416
H34 H 1.2636 0.9981 0.4994
C25 C 1.1010(2) 0.5504(4) 0.43912(12)
H35 H 1.0571 0.6468 0.4596
C26 C 1.6990(2) 1.1079(5) 0.77637(13)
H36 H 1.6921 1.1096 0.7240
C27 C 1.1515(2) 0.3663(4) 0.55350(12)
H37 H 1.1060 0.4475 0.5780
H38 H 1.1548 0.2375 0.5737
C28 C 1.0883(2) 0.3612(4) 0.47319(13)
H39 H 1.1237 0.2605 0.4503
H40 H 1.0023 0.3319 0.4655
C29 C 1.8265(2) 1.1692(5) 0.81539(14)
H41 H 1.8831 1.0676 0.8119
H42 H 1.8473 1.2830 0.7919
C30 C 1.4261(2) 0.8604(4) 0.51328(13)
H43 H 1.4790 0.9580 0.5423
H44 H 1.4691 0.8013 0.4815
O3 O 1.61410(19) 1.0139(3) 0.97247(10)
H45 H 1.612(3) 1.084(6) 0.936(2)
H46 H 1.560(6) 0.966(11) 0.969(4)
O4 O 1.39350(19) 0.8137(4) 0.93019(11)
H47 H 1.395(4) 0.719(8) 0.953(2)
H48 H 1.325(5) 0.873(8) 0.922(3)
O5 O 1.8478(2) 0.8365(4) 1.01571(12)
H49 H 1.7818 0.8920 1.0129
H50 H 1.8525 0.7366 1.0405
O6 O 1.1655(2) 0.9989(4) 0.90685(11)
H51 H 1.153(4) 1.031(7) 0.866(3)
H52 H 1.129(8) 0.923(13) 0.916(5)
O7 O 1.0062(2) 0.6993(4) 0.92413(12)
H53 H 0.961(4) 0.748(8) 0.945(2)
H54 H 1.084(4) 0.671(6) 0.922(2)
loop_
_geom_bond_atom_site_label_1
_geom_bond_atom_site_label_2
_geom_bond_site_symmetry_1
_geom_bond_site_symmetry_2
O1 C16 1_555 1_555
N1 C6 1_555 1_555
N2 C1 1_555 1_555
N3 C3 1_555 1_555
O2 C8 1_555 1_555
N4 C11 1_555 1_555
C1 H1 1_555 1_555
C2 N2 1_555 1_555
H2 C2 1_555 1_555
H3 C2 1_555 1_555
C3 H4 1_555 1_555
C4 C1 1_555 1_555
H5 C4 1_555 1_555
C5 C7 1_555 1_555
C6 H6 1_555 1_555
H7 C6 1_555 1_555
C7 N3 1_555 1_555
H8 C7 1_555 1_555
C8 N1 1_555 1_555
C9 N3 1_555 1_555
H9 C9 1_555 1_555
H10 C9 1_555 1_555
C10 C2 1_555 1_555
H11 C10 1_555 1_555
H12 C10 1_555 1_555
C11 H13 1_555 1_555
C12 C11 1_555 1_555
H14 C12 1_555 1_555
H15 C12 1_555 1_555
C13 C5 1_555 1_555
H16 C13 1_555 1_555
C14 N4 1_555 1_555
H17 C14 1_555 1_555
H18 C14 1_555 1_555
C15 C4 1_555 1_555
H19 C15 1_555 1_555
H20 C15 1_555 1_555
C16 N4 1_555 1_555
C17 N2 1_555 1_555
H21 C17 1_555 1_555
H22 C17 1_555 1_555
C18 N1 1_555 1_555
H23 C18 1_555 1_555
C19 C12 1_555 1_555
H24 C19 1_555 1_555
H25 C19 1_555 1_555
C20 C16 1_555 1_555
H26 C20 1_555 1_555
H27 C20 1_555 1_555
C21 C13 1_555 1_555
H28 C21 1_555 1_555
H29 C21 1_555 1_555
C22 C3 1_555 1_555
H30 C22 1_555 1_555
C23 C17 1_555 1_555
H31 C23 1_555 1_555
H32 C23 1_555 1_555
C24 C22 1_555 1_555
H33 C24 1_555 1_555
H34 C24 1_555 1_555
C25 C3 1_555 1_555
H35 C25 1_555 1_555
C26 C1 1_555 1_555
H36 C26 1_555 1_555
C27 C9 1_555 1_555
H37 C27 1_555 1_555
H38 C27 1_555 1_555
C28 C25 1_555 1_555
H39 C28 1_555 1_555
H40 C28 1_555 1_555
C29 C23 1_555 1_555
H41 C29 1_555 1_555
H42 C29 1_555 1_555
C30 C7 1_555 1_555
H43 C30 1_555 1_555
H44 C30 1_555 1_555
O3 H45 1_555 1_555
H46 O3 1_555 1_555
O4 H47 1_555 1_555
H48 O4 1_555 1_555
O5 H49 1_555 1_555
H50 O5 1_555 1_555
O6 H51 1_555 1_555
H52 O6 1_555 1_555
O7 H53 1_555 1_555
H54 O7 1_555 1_555
C4 C18 1_555 1_555
C5 C8 1_555 1_555
C6 C26 1_555 1_555
C10 C15 1_555 1_555
C11 C22 1_555 1_555
C14 C25 1_555 1_555
C18 C21 1_555 1_555
C19 C20 1_555 1_555
C24 C30 1_555 1_555
C26 C29 1_555 1_555
C27 C28 1_555 1_555

#END
