
#######################################################################
#
#                 Cambridge Crystallographic Data Centre
#                                CCDC 
#
#######################################################################
#
# If this CIF has been generated from an entry in the Cambridge 
# Structural Database, then it will include bibliographic, chemical, 
# crystal, experimental, refinement or atomic coordinate data resulting 
# from the CCDC's data processing and validation procedures.
#
#######################################################################

data_KIHNOF
_chemical_formula_moiety         'C16 H32 O3 Si2'
_chemical_name_systematic        
(4R*,5R*,1'S*,1''R*)-rac-2,5-bis(Trimethylsilyl)-3-(1'-hydroxyethyl)-4-(1''-hydroxyethyl)-4-methylcyclopent-2-en-1-one
_symmetry_cell_setting           orthorhombic
_symmetry_space_group_name_H-M   'P b c n'
_symmetry_Int_Tables_number      60
_space_group_name_Hall           '-P 2n 2ab'
loop_
_symmetry_equiv_pos_site_id
_symmetry_equiv_pos_as_xyz
1 x,y,z
2 1/2-x,1/2-y,1/2+z
3 -x,y,1/2-z
4 1/2+x,1/2-y,-z
5 -x,-y,-z
6 1/2+x,1/2+y,1/2-z
7 x,-y,1/2+z
8 1/2-x,1/2+y,z
_cell_length_a                   24.9731(8)
_cell_length_b                   12.8833(4)
_cell_length_c                   26.9488(9)
_cell_angle_alpha                90
_cell_angle_beta                 90
_cell_angle_gamma                90
_cell_volume                     8670.4
_exptl_crystal_colour            colorless
_exptl_crystal_description       'thin plate'
_chemical_melting_point          '105 deg.C'
_cell_formula_units_Z            16
loop_
_atom_site_label
_atom_site_type_symbol
_atom_site_fract_x
_atom_site_fract_y
_atom_site_fract_z
Si1 Si 0.11454(3) -0.14497(6) 0.43389(3)
Si2 Si 0.10643(3) 0.25252(6) 0.44597(3)
C1 C 0.07301(11) 0.0429(2) 0.46743(9)
C2 C 0.14512(10) 0.0841(2) 0.51454(9)
C3 C 0.11340(10) 0.1229(2) 0.47826(9)
C5 C 0.13118(10) -0.0272(2) 0.52939(10)
C6 C 0.09084(10) -0.0593(2) 0.48820(10)
H1 H 0.0594 -0.0937 0.5043
O1 O 0.03047(7) 0.05896(13) 0.44551(6)
C11 C 0.18795(10) 0.1434(2) 0.54210(10)
H3 H 0.1927 0.1112 0.5756
C12 C 0.24168(11) 0.1408(3) 0.51494(12)
H4 H 0.2379 0.1746 0.4825
H5 H 0.2529 0.0686 0.5103
H6 H 0.2686 0.1777 0.5346
O3 O 0.17322(8) 0.24879(14) 0.54851(7)
H7 H 0.1479 0.2527 0.5689
C13 C 0.08730(14) 0.2244(3) 0.38013(11)
H8 H 0.0522 0.1904 0.3794
H9 H 0.1141 0.1785 0.3651
H10 H 0.0856 0.2895 0.3614
C14 C 0.05130(14) 0.3239(3) 0.47720(13)
H11 H 0.0606 0.3351 0.5121
H12 H 0.0182 0.2831 0.4751
H13 H 0.0460 0.3910 0.4608
C15 C 0.16812(14) 0.3338(3) 0.44187(12)
H14 H 0.1600 0.3982 0.4240
H15 H 0.1960 0.2954 0.4241
H16 H 0.1807 0.3505 0.4754
C27 C 0.06069(12) -0.1461(2) 0.38624(11)
H48 H 0.0711 -0.1919 0.3588
H49 H 0.0552 -0.0756 0.3736
H50 H 0.0274 -0.1715 0.4012
C28 C 0.17595(12) -0.0921(3) 0.40330(13)
H51 H 0.1804 -0.1245 0.3707
H52 H 0.2073 -0.1072 0.4239
H53 H 0.1723 -0.0168 0.3993
C29 C 0.12259(14) -0.2818(3) 0.45599(13)
H54 H 0.0916 -0.3012 0.4763
H55 H 0.1553 -0.2875 0.4759
H56 H 0.1250 -0.3284 0.4273
C30 C 0.18135(11) -0.0954(2) 0.53416(11)
H57 H 0.2028 -0.0897 0.5038
H58 H 0.1706 -0.1679 0.5391
H59 H 0.2026 -0.0722 0.5626
C31 C 0.10335(10) -0.0248(2) 0.58107(10)
H60 H 0.1302 0.0032 0.6052
O6 O 0.05927(7) 0.04568(13) 0.58086(7)
H61 H 0.0315 0.0145 0.5715
C32 C 0.08619(12) -0.1304(2) 0.60048(11)
H62 H 0.0660 -0.1216 0.6314
H63 H 0.1180 -0.1730 0.6069
H64 H 0.0636 -0.1648 0.5757
Si3 Si 0.92008(3) 0.51053(6) 0.37343(3)
Si4 Si 0.82593(4) 0.52851(7) 0.20280(3)
C4 C 0.87423(10) 0.5846(2) 0.33032(10)
C7 C 0.82084(10) 0.6997(2) 0.27935(10)
C8 C 0.86732(10) 0.68435(19) 0.31564(9)
C9 C 0.83031(11) 0.5246(2) 0.30673(10)
C10 C 0.80580(11) 0.5862(2) 0.26587(10)
H2 H 0.7660 0.5796 0.2690
O2 O 0.81638(8) 0.43723(14) 0.32020(7)
C16 C 0.98389(11) 0.5761(2) 0.39085(12)
H17 H 0.9759 0.6421 0.4073
H18 H 1.0051 0.5892 0.3609
H19 H 1.0042 0.5314 0.4135
C17 C 0.94001(14) 0.3902(2) 0.33957(16)
H20 H 0.9621 0.3467 0.3613
H21 H 0.9606 0.4090 0.3099
H22 H 0.9079 0.3518 0.3297
C18 C 0.88057(14) 0.4782(3) 0.42998(13)
H23 H 0.9033 0.4404 0.4535
H24 H 0.8499 0.4348 0.4207
H25 H 0.8677 0.5423 0.4455
C19 C 0.90015(10) 0.7767(2) 0.33160(10)
H26 H 0.8789 0.8413 0.3257
O4 O 0.91044(7) 0.76700(14) 0.38394(7)
H27 H 0.9243 0.8221 0.3945
C20 C 0.95209(11) 0.7834(2) 0.30230(11)
H28 H 0.9736 0.8414 0.3148
H29 H 0.9439 0.7948 0.2671
H30 H 0.9722 0.7185 0.3061
C21 C 0.77153(11) 0.7508(2) 0.30489(10)
H31 H 0.7421 0.7538 0.2797
C22 C 0.74966(11) 0.6953(2) 0.35000(10)
H32 H 0.7770 0.6940 0.3761
H33 H 0.7400 0.6240 0.3410
H34 H 0.7178 0.7319 0.3621
C23 C 0.83671(12) 0.7679(2) 0.23533(10)
H35 H 0.8466 0.8372 0.2473
H36 H 0.8064 0.7737 0.2124
H37 H 0.8673 0.7367 0.2181
O5 O 0.78497(7) 0.85514(14) 0.31740(8)
H38 H 0.7570 0.8912 0.3184
C24 C 0.89985(16) 0.5299(3) 0.19446(17)
H39 H 0.9168 0.4914 0.2216
H40 H 0.9127 0.6018 0.1946
H41 H 0.9090 0.4973 0.1627
C25 C 0.80352(16) 0.3913(3) 0.20376(12)
H42 H 0.8090 0.3604 0.1709
H43 H 0.7654 0.3884 0.2123
H44 H 0.8243 0.3528 0.2285
C26 C 0.78884(18) 0.5959(3) 0.15146(12)
H45 H 0.8066 0.6618 0.1438
H46 H 0.7519 0.6093 0.1620
H47 H 0.7887 0.5517 0.1219
loop_
_geom_bond_atom_site_label_1
_geom_bond_atom_site_label_2
_geom_bond_site_symmetry_1
_geom_bond_site_symmetry_2
Si1 C6 1_555 1_555
Si2 C3 1_555 1_555
Si3 C4 1_555 1_555
Si4 C10 1_555 1_555
C1 C3 1_555 1_555
C2 C3 1_555 1_555
C4 C8 1_555 1_555
C5 C2 1_555 1_555
C6 C1 1_555 1_555
H1 C6 1_555 1_555
C7 C8 1_555 1_555
C8 C19 1_555 1_555
C9 C4 1_555 1_555
C10 C7 1_555 1_555
H2 C10 1_555 1_555
O1 C1 1_555 1_555
O2 C9 1_555 1_555
C11 C2 1_555 1_555
H3 C11 1_555 1_555
C12 C11 1_555 1_555
H4 C12 1_555 1_555
H5 C12 1_555 1_555
H6 C12 1_555 1_555
O3 C11 1_555 1_555
H7 O3 1_555 1_555
C13 Si2 1_555 1_555
H8 C13 1_555 1_555
H9 C13 1_555 1_555
H10 C13 1_555 1_555
C14 Si2 1_555 1_555
H11 C14 1_555 1_555
H12 C14 1_555 1_555
H13 C14 1_555 1_555
C15 Si2 1_555 1_555
H14 C15 1_555 1_555
H15 C15 1_555 1_555
H16 C15 1_555 1_555
C16 Si3 1_555 1_555
H17 C16 1_555 1_555
H18 C16 1_555 1_555
H19 C16 1_555 1_555
C17 Si3 1_555 1_555
H20 C17 1_555 1_555
H21 C17 1_555 1_555
H22 C17 1_555 1_555
C18 Si3 1_555 1_555
H23 C18 1_555 1_555
H24 C18 1_555 1_555
H25 C18 1_555 1_555
C19 H26 1_555 1_555
O4 C19 1_555 1_555
H27 O4 1_555 1_555
C20 C19 1_555 1_555
H28 C20 1_555 1_555
H29 C20 1_555 1_555
H30 C20 1_555 1_555
C21 C7 1_555 1_555
H31 C21 1_555 1_555
C22 C21 1_555 1_555
H32 C22 1_555 1_555
H33 C22 1_555 1_555
H34 C22 1_555 1_555
C23 C7 1_555 1_555
H35 C23 1_555 1_555
H36 C23 1_555 1_555
H37 C23 1_555 1_555
O5 C21 1_555 1_555
H38 O5 1_555 1_555
C24 Si4 1_555 1_555
H39 C24 1_555 1_555
H40 C24 1_555 1_555
H41 C24 1_555 1_555
C25 Si4 1_555 1_555
H42 C25 1_555 1_555
H43 C25 1_555 1_555
H44 C25 1_555 1_555
C26 Si4 1_555 1_555
H45 C26 1_555 1_555
H46 C26 1_555 1_555
H47 C26 1_555 1_555
C27 Si1 1_555 1_555
H48 C27 1_555 1_555
H49 C27 1_555 1_555
H50 C27 1_555 1_555
C28 Si1 1_555 1_555
H51 C28 1_555 1_555
H52 C28 1_555 1_555
H53 C28 1_555 1_555
C29 Si1 1_555 1_555
H54 C29 1_555 1_555
H55 C29 1_555 1_555
H56 C29 1_555 1_555
C30 C5 1_555 1_555
H57 C30 1_555 1_555
H58 C30 1_555 1_555
H59 C30 1_555 1_555
C31 C5 1_555 1_555
H60 C31 1_555 1_555
O6 C31 1_555 1_555
H61 O6 1_555 1_555
C32 C31 1_555 1_555
H62 C32 1_555 1_555
H63 C32 1_555 1_555
H64 C32 1_555 1_555
C5 C6 1_555 1_555
C9 C10 1_555 1_555

#END
