
#######################################################################
#
#                 Cambridge Crystallographic Data Centre
#                                CCDC 
#
#######################################################################
#
# If this CIF has been generated from an entry in the Cambridge 
# Structural Database, then it will include bibliographic, chemical, 
# crystal, experimental, refinement or atomic coordinate data resulting 
# from the CCDC's data processing and validation procedures.
#
#######################################################################

data_KIJBUD
_chemical_formula_moiety         'C46 H30 F6 N4'
_chemical_name_systematic        
4,4'-[1,2-bis(4-methylphenyl)ethene-1,2-diyl]bis{2-[4-(trifluoromethyl)phenyl]quinazoline}
_symmetry_cell_setting           monoclinic
_symmetry_space_group_name_H-M   'P 21/n'
_symmetry_Int_Tables_number      14
_space_group_name_Hall           '-P 2yn'
loop_
_symmetry_equiv_pos_site_id
_symmetry_equiv_pos_as_xyz
1 x,y,z
2 1/2-x,1/2+y,1/2-z
3 -x,-y,-z
4 1/2+x,1/2-y,1/2+z
_cell_length_a                   13.8214(2)
_cell_length_b                   16.8165(2)
_cell_length_c                   16.3527(3)
_cell_angle_alpha                90
_cell_angle_beta                 109.358(2)
_cell_angle_gamma                90
_cell_volume                     3585.94
_exptl_crystal_colour            colorless
_exptl_crystal_description       block
_cell_formula_units_Z            4
loop_
_atom_site_label
_atom_site_type_symbol
_atom_site_fract_x
_atom_site_fract_y
_atom_site_fract_z
F1 F 0.78134(7) 0.38388(5) 1.13627(5)
F2 F 0.81324(7) 0.32506(6) 1.03120(6)
F3 F 0.84550(7) 0.44996(6) 1.05362(7)
F4 F -0.31339(7) 0.87213(7) 0.68681(7)
F5 F -0.34481(7) 0.75442(7) 0.63342(7)
F6 F -0.30928(8) 0.77326(8) 0.77051(7)
N1 N 0.37700(9) 0.51937(7) 0.75104(8)
N2 N 0.21160(9) 0.79539(7) 0.82260(8)
N3 N 0.17134(9) 0.72114(7) 0.69005(7)
N4 N 0.29300(9) 0.43900(7) 0.82856(8)
C1 C 0.26931(10) 0.71016(8) 0.70217(9)
C2 C 0.14685(10) 0.76243(8) 0.75298(9)
C3 C 0.03552(10) 0.76959(8) 0.73965(9)
C4 C 0.32063(10) 0.72878(8) 0.57023(9)
C5 C 0.37504(11) 0.46908(8) 0.81628(9)
C6 C 0.31348(11) 0.78314(8) 0.83641(9)
C7 C 0.29512(10) 0.67123(8) 0.62950(9)
C8 C 0.47778(11) 0.44801(8) 0.87861(9)
C9 C 0.19379(11) 0.51054(8) 0.69834(9)
C10 C 0.28832(11) 0.53916(8) 0.69342(9)
C11 C 0.34762(10) 0.73861(8) 0.77766(9)
C12 C 0.58525(11) 0.39325(8) 1.01497(9)
H1 H 0.592062 0.368770 1.067583
C13 C 0.00275(11) 0.80353(9) 0.80390(9)
H2 H 0.050854 0.821222 0.855213
C14 C 0.20042(11) 0.46004(8) 0.76928(9)
C15 C 0.41028(11) 0.72126(9) 0.54931(9)
H3 H 0.454618 0.679088 0.571894
C16 C 0.67180(11) 0.41264(8) 0.99392(9)
C17 C -0.17257(11) 0.78394(9) 0.71509(10)
C18 C 0.29537(10) 0.59167(9) 0.62140(9)
C19 C 0.56537(11) 0.46730(9) 0.85840(10)
H4 H 0.558884 0.492446 0.806200
C20 C 0.25715(11) 0.79376(8) 0.53718(9)
H5 H 0.198495 0.801246 0.552172
C21 C 0.45361(11) 0.72511(9) 0.79571(9)
H6 H 0.476255 0.695939 0.757233
C22 C 0.30722(12) 0.54946(9) 0.54526(10)
C23 C 0.66173(11) 0.44934(9) 0.91536(10)
H7 H 0.719762 0.461795 0.901134
C24 C 0.38670(11) 0.81412(9) 0.91253(9)
H8 H 0.365434 0.844046 0.951288
C25 C -0.03719(11) 0.74194(9) 0.66377(10)
H9 H -0.015887 0.718470 0.621123
C26 C 0.52305(11) 0.75516(9) 0.87019(10)
H10 H 0.592782 0.746140 0.882198
C27 C 0.48861(11) 0.41052(8) 0.95721(9)
H11 H 0.430626 0.397010 0.971019
C28 C 0.36917(11) 0.83947(9) 0.45996(9)
C29 C 0.10919(11) 0.43126(9) 0.78027(10)
H12 H 0.112443 0.398225 0.826718
C30 C 0.25558(11) 0.57504(9) 0.46117(9)
H13 H 0.210950 0.618042 0.452216
C31 C -0.14116(11) 0.74909(10) 0.65124(10)
H14 H -0.189406 0.730656 0.600376
C32 C 0.28072(12) 0.84740(9) 0.48210(10)
H15 H 0.236423 0.889593 0.459473
C33 C -0.10086(11) 0.81104(9) 0.79174(10)
H16 H -0.122386 0.834038 0.834501
C34 C 0.09652(12) 0.53114(9) 0.63873(10)
H17 H 0.091833 0.563909 0.591760
C35 C 0.48896(11) 0.79978(9) 0.92873(10)
H18 H 0.536729 0.819712 0.979036
C36 C 0.26960(12) 0.53745(9) 0.39055(10)
H19 H 0.234227 0.555855 0.335028
C37 C 0.43403(11) 0.77568(9) 0.49546(10)
H20 H 0.494355 0.769639 0.482675
C38 C 0.77716(12) 0.39314(9) 1.05360(10)
C39 C 0.00951(12) 0.50248(10) 0.65076(11)
H21 H -0.054440 0.515987 0.611844
C40 C -0.28411(12) 0.79526(11) 0.70149(11)
C41 C 0.01620(12) 0.45243(10) 0.72201(11)
H22 H -0.043627 0.433581 0.729381
C42 C 0.39531(14) 0.89801(11) 0.40070(12)
H23 H 0.333544 0.922243 0.363416
H24 H 0.429144 0.870760 0.366204
H25 H 0.439912 0.938316 0.434721
C43 C 0.33452(19) 0.47365(11) 0.40064(12)
C44 C 0.3692(2) 0.48332(14) 0.55527(13)
H26 H 0.401598 0.462934 0.610460
C45 C 0.3838(3) 0.44681(16) 0.48418(15)
H27 H 0.427596 0.403326 0.492840
C46 C 0.3516(3) 0.43607(15) 0.32239(14)
H28 H 0.313512 0.387336 0.308244
H29 H 0.423289 0.425166 0.335250
H30 H 0.328813 0.471896 0.274063
loop_
_geom_bond_atom_site_label_1
_geom_bond_atom_site_label_2
_geom_bond_site_symmetry_1
_geom_bond_site_symmetry_2
F1 C38 1_555 1_555
F2 C38 1_555 1_555
F3 C38 1_555 1_555
F4 C40 1_555 1_555
F5 C40 1_555 1_555
F6 C40 1_555 1_555
N1 C5 1_555 1_555
N2 C2 1_555 1_555
N3 C1 1_555 1_555
N4 C5 1_555 1_555
C1 C7 1_555 1_555
C2 N3 1_555 1_555
C3 C2 1_555 1_555
C4 C7 1_555 1_555
C5 C8 1_555 1_555
C6 N2 1_555 1_555
C7 C18 1_555 1_555
C8 C19 1_555 1_555
C9 C10 1_555 1_555
C10 N1 1_555 1_555
C11 C1 1_555 1_555
C12 H1 1_555 1_555
C13 C3 1_555 1_555
H2 C13 1_555 1_555
C14 N4 1_555 1_555
C15 C4 1_555 1_555
H3 C15 1_555 1_555
C16 C12 1_555 1_555
C17 C31 1_555 1_555
C18 C10 1_555 1_555
C19 H4 1_555 1_555
C20 C4 1_555 1_555
H5 C20 1_555 1_555
C21 C11 1_555 1_555
H6 C21 1_555 1_555
C22 C18 1_555 1_555
C23 C16 1_555 1_555
H7 C23 1_555 1_555
C24 C6 1_555 1_555
H8 C24 1_555 1_555
C25 C3 1_555 1_555
H9 C25 1_555 1_555
C26 C21 1_555 1_555
H10 C26 1_555 1_555
C27 C8 1_555 1_555
H11 C27 1_555 1_555
C28 C32 1_555 1_555
C29 C14 1_555 1_555
H12 C29 1_555 1_555
C30 C22 1_555 1_555
H13 C30 1_555 1_555
C31 C25 1_555 1_555
H14 C31 1_555 1_555
C32 C20 1_555 1_555
H15 C32 1_555 1_555
C33 C13 1_555 1_555
H16 C33 1_555 1_555
C34 C9 1_555 1_555
H17 C34 1_555 1_555
C35 C24 1_555 1_555
H18 C35 1_555 1_555
C36 C30 1_555 1_555
H19 C36 1_555 1_555
C37 C15 1_555 1_555
H20 C37 1_555 1_555
C38 C16 1_555 1_555
C39 C34 1_555 1_555
H21 C39 1_555 1_555
C40 C17 1_555 1_555
C41 C29 1_555 1_555
H22 C41 1_555 1_555
C42 C28 1_555 1_555
H23 C42 1_555 1_555
H24 C42 1_555 1_555
H25 C42 1_555 1_555
C43 C36 1_555 1_555
C44 C22 1_555 1_555
H26 C44 1_555 1_555
C45 C43 1_555 1_555
H27 C45 1_555 1_555
C46 C43 1_555 1_555
H28 C46 1_555 1_555
H29 C46 1_555 1_555
H30 C46 1_555 1_555
C6 C11 1_555 1_555
C9 C14 1_555 1_555
C12 C27 1_555 1_555
C17 C33 1_555 1_555
C19 C23 1_555 1_555
C26 C35 1_555 1_555
C28 C37 1_555 1_555
C39 C41 1_555 1_555
C44 C45 1_555 1_555

#END
