
#######################################################################
#
#                 Cambridge Crystallographic Data Centre
#                                CCDC 
#
#######################################################################
#
# If this CIF has been generated from an entry in the Cambridge 
# Structural Database, then it will include bibliographic, chemical, 
# crystal, experimental, refinement or atomic coordinate data resulting 
# from the CCDC's data processing and validation procedures.
#
#######################################################################

data_KIJBIP
_chemical_compound_source        'Spiraea japonica var. acuta Yu'
_chemical_name_common            
7beta,19-dihydroxy-ent-atis-16-en-6alpha,20-olide
_chemical_formula_moiety         'C20 H28 O4'
_chemical_name_systematic        'Spiramilactone E'
_symmetry_cell_setting           orthorhombic
_symmetry_space_group_name_H-M   'P 21 21 21'
_symmetry_Int_Tables_number      19
_space_group_name_Hall           'P 2ac 2ab'
loop_
_symmetry_equiv_pos_site_id
_symmetry_equiv_pos_as_xyz
1 x,y,z
2 1/2-x,-y,1/2+z
3 -x,1/2+y,1/2-z
4 1/2+x,1/2-y,-z
_cell_length_a                   10.834(2)
_cell_length_b                   11.184(2)
_cell_length_c                   14.532(3)
_cell_angle_alpha                90
_cell_angle_beta                 90
_cell_angle_gamma                90
_cell_volume                     1760.81
_exptl_crystal_colour            colorless
_exptl_crystal_description       block
_chemical_melting_point          '194-195 deg.C'
_cell_formula_units_Z            4
loop_
_atom_site_label
_atom_site_type_symbol
_atom_site_fract_x
_atom_site_fract_y
_atom_site_fract_z
O1 O -0.0869(2) -0.55658(19) -0.78497(13)
H1 H -0.0797 -0.5508 -0.8410
O2 O -0.09869(18) -0.32276(14) -0.61269(12)
O3 O 0.00905(19) -0.28731(16) -0.48478(14)
O4 O -0.42970(18) -0.44771(18) -0.47110(13)
H2 H -0.4718 -0.3869 -0.4738
C1 C 0.0050(3) -0.5490(3) -0.44803(17)
H3 H 0.0368 -0.6295 -0.4552
H4 H 0.0658 -0.5029 -0.4142
C2 C -0.1141(3) -0.5535(3) -0.39295(19)
H5 H -0.1391 -0.4729 -0.3769
H6 H -0.1004 -0.5975 -0.3363
C3 C -0.2170(3) -0.6139(3) -0.4483(2)
H7 H -0.2902 -0.6197 -0.4102
H8 H -0.1913 -0.6946 -0.4639
C4 C -0.2500(3) -0.5468(2) -0.53754(18)
C5 C -0.1308(2) -0.5297(2) -0.59489(16)
H9 H -0.1140 -0.6047 -0.6275
C6 C -0.1338(3) -0.4287(2) -0.66578(17)
H10 H -0.2170 -0.4194 -0.6911
C7 C -0.0412(3) -0.4504(2) -0.74221(17)
H11 H -0.0449 -0.3842 -0.7862
C8 C 0.0925(3) -0.4631(2) -0.70568(16)
C9 C 0.0979(2) -0.5221(2) -0.60858(16)
H12 H 0.0935 -0.6084 -0.6196
C10 C -0.0132(2) -0.4929(2) -0.54354(16)
C11 C 0.2276(3) -0.4997(3) -0.5678(2)
H13 H 0.2258 -0.4300 -0.5281
H14 H 0.2530 -0.5680 -0.5313
C12 C 0.3202(3) -0.4795(3) -0.6470(2)
H15 H 0.4053 -0.4877 -0.6249
C13 C 0.2983(3) -0.3546(3) -0.6854(3)
H16 H 0.3449 -0.3439 -0.7418
H17 H 0.3253 -0.2949 -0.6414
C14 C 0.1580(3) -0.3398(3) -0.7049(2)
H18 H 0.1214 -0.2895 -0.6579
H19 H 0.1466 -0.3010 -0.7640
C15 C 0.1709(3) -0.5444(3) -0.76883(19)
H20 H 0.1284 -0.6195 -0.7791
H21 H 0.1832 -0.5059 -0.8279
C16 C 0.2946(3) -0.5674(3) -0.7232(2)
C17 C 0.3704(4) -0.6534(3) -0.7499(3)
H22 H 0.448(4) -0.663(4) -0.717(3)
H23 H 0.346(4) -0.702(4) -0.802(3)
C18 C -0.3387(3) -0.6223(3) -0.5953(2)
H24 H -0.4138 -0.6349 -0.5616
H25 H -0.3012 -0.6982 -0.6087
H26 H -0.3567 -0.5814 -0.6518
C19 C -0.3127(3) -0.4267(2) -0.51492(19)
H27 H -0.2600 -0.3803 -0.4744
H28 H -0.3250 -0.3814 -0.5711
C20 C -0.0301(2) -0.3585(2) -0.53996(18)
loop_
_geom_bond_atom_site_label_1
_geom_bond_atom_site_label_2
_geom_bond_site_symmetry_1
_geom_bond_site_symmetry_2
O1 H1 1_555 1_555
O2 C6 1_555 1_555
O3 C20 1_555 1_555
O4 H2 1_555 1_555
C1 H3 1_555 1_555
H4 C1 1_555 1_555
C2 C1 1_555 1_555
H5 C2 1_555 1_555
H6 C2 1_555 1_555
C3 C2 1_555 1_555
H7 C3 1_555 1_555
H8 C3 1_555 1_555
C4 C3 1_555 1_555
C5 C4 1_555 1_555
H9 C5 1_555 1_555
C6 C5 1_555 1_555
H10 C6 1_555 1_555
C7 O1 1_555 1_555
H11 C7 1_555 1_555
C8 C7 1_555 1_555
C9 C8 1_555 1_555
H12 C9 1_555 1_555
C10 C1 1_555 1_555
C11 C9 1_555 1_555
H13 C11 1_555 1_555
H14 C11 1_555 1_555
C12 C11 1_555 1_555
H15 C12 1_555 1_555
C13 C12 1_555 1_555
H16 C13 1_555 1_555
H17 C13 1_555 1_555
C14 C8 1_555 1_555
H18 C14 1_555 1_555
H19 C14 1_555 1_555
C15 C8 1_555 1_555
H20 C15 1_555 1_555
H21 C15 1_555 1_555
C16 C12 1_555 1_555
C17 C16 1_555 1_555
H22 C17 1_555 1_555
H23 C17 1_555 1_555
C18 C4 1_555 1_555
H24 C18 1_555 1_555
H25 C18 1_555 1_555
H26 C18 1_555 1_555
C19 O4 1_555 1_555
H27 C19 1_555 1_555
H28 C19 1_555 1_555
C20 O2 1_555 1_555
C4 C19 1_555 1_555
C5 C10 1_555 1_555
C6 C7 1_555 1_555
C9 C10 1_555 1_555
C10 C20 1_555 1_555
C13 C14 1_555 1_555
C15 C16 1_555 1_555

#END
