
#######################################################################
#
#                 Cambridge Crystallographic Data Centre
#                                CCDC 
#
#######################################################################
#
# If this CIF has been generated from an entry in the Cambridge 
# Structural Database, then it will include bibliographic, chemical, 
# crystal, experimental, refinement or atomic coordinate data resulting 
# from the CCDC's data processing and validation procedures.
#
#######################################################################

data_KIJBIR
_chemical_formula_moiety         'C34 H32 O6'
_chemical_name_systematic        
(4-t-butylphenyl)[6-(2-hydroxyphenyl)-8-(4-methoxyphenyl)-7,8-dihydro-2H,6H-[1,3]dioxolo[4,5-g][1]benzopyran-7-yl]methanone
_symmetry_cell_setting           monoclinic
_symmetry_space_group_name_H-M   'P 21'
_symmetry_Int_Tables_number      4
_space_group_name_Hall           'P 2yb'
loop_
_symmetry_equiv_pos_site_id
_symmetry_equiv_pos_as_xyz
1 x,y,z
2 -x,1/2+y,-z
_cell_length_a                   10.7835(3)
_cell_length_b                   24.3459(5)
_cell_length_c                   11.8380(3)
_cell_angle_alpha                90
_cell_angle_beta                 115.986(4)
_cell_angle_gamma                90
_cell_volume                     2793.67
_exptl_crystal_colour            colorless
_exptl_crystal_description       block
_cell_formula_units_Z            4
loop_
_atom_site_label
_atom_site_type_symbol
_atom_site_fract_x
_atom_site_fract_y
_atom_site_fract_z
O1 O 0.5832(3) 0.40351(11) 0.5070(2)
O2 O 0.4523(3) 0.30980(13) 0.1690(2)
O3 O 0.9414(4) 0.38875(18) 0.9264(3)
O4 O 1.0077(4) 0.30208(18) 0.8948(3)
O5 O 0.5744(6) 0.06426(15) 0.4327(4)
C1 C 0.5217(4) 0.38268(14) 0.3801(3)
H1 H 0.5835 0.3905 0.3413
C2 C 0.3206(3) 0.25187(15) 0.2353(3)
C3 C 0.3882(4) 0.41328(14) 0.3094(3)
C4 C 0.4243(3) 0.29625(14) 0.2537(3)
C5 C 0.6914(3) 0.37421(15) 0.5951(3)
O6 O 0.4917(4) 0.46724(19) 0.2069(4)
H2 H 0.4783 0.4964 0.1689
C6 C 0.8616(4) 0.37234(19) 0.8049(4)
C7 C 0.7280(4) 0.32234(15) 0.5743(3)
C8 C 0.5865(4) 0.20785(16) 0.5282(3)
H3 H 0.5658 0.2295 0.5824
C9 C 0.1478(4) 0.16020(18) 0.2062(3)
C10 C 0.5040(3) 0.32040(14) 0.3838(3)
H4 H 0.4546 0.3123 0.4344
C11 C 0.6756(5) 0.19871(18) 0.3775(4)
H5 H 0.7159 0.2140 0.3296
C12 C 0.1718(5) 0.1992(2) 0.2983(4)
H6 H 0.1292 0.1954 0.3512
C13 C 0.6396(4) 0.23256(15) 0.4537(3)
C14 C 0.2579(5) 0.24387(18) 0.3140(4)
H7 H 0.2736 0.2688 0.3784
C15 C 0.2772(5) 0.40417(19) 0.3347(4)
H8 H 0.2854 0.3798 0.3981
C16 C 0.8368(4) 0.29513(18) 0.6718(4)
H9 H 0.8651 0.2605 0.6592
C17 C 0.5630(5) 0.15199(18) 0.5248(4)
H10 H 0.5266 0.1363 0.5754
C18 C 0.3750(4) 0.45280(19) 0.2201(4)
C19 C 0.7584(4) 0.40053(16) 0.7129(4)
H11 H 0.7329 0.4355 0.7266
C20 C 0.6494(3) 0.29416(15) 0.4474(3)
H12 H 0.6970 0.3026 0.3955
C21 C 0.9007(4) 0.32071(19) 0.7864(4)
C22 C 0.1394(5) 0.46664(19) 0.1721(4)
H13 H 0.0544 0.4828 0.1231
C23 C 0.5948(5) 0.11950(16) 0.4443(4)
C24 C 0.2886(5) 0.2154(2) 0.1368(4)
H14 H 0.3230 0.2213 0.0783
C25 C 0.2503(5) 0.4785(2) 0.1499(4)
H15 H 0.2421 0.5037 0.0879
C26 C 0.6520(6) 0.1434(2) 0.3726(4)
H16 H 0.6749 0.1215 0.3200
C27 C 1.0303(5) 0.3434(2) 0.9868(4)
H17 H 1.1259 0.3552 1.0233
H18 H 1.0102 0.3291 1.0534
C28 C 0.2061(6) 0.1703(2) 0.1246(4)
H19 H 0.1889 0.1458 0.0592
C29 C 0.0658(5) 0.1080(2) 0.2011(4)
C30 C 0.1526(5) 0.4310(2) 0.2663(5)
H20 H 0.0782 0.4247 0.2845
C31 C 0.5403(8) 0.0375(2) 0.5173(7)
H21 H 0.4514 0.0498 0.5071
H22 H 0.6081 0.0455 0.6011
H23 H 0.5376 -0.0013 0.5027
C32 C -0.0594(6) 0.1207(3) 0.2258(7)
H24 H -0.0289 0.1372 0.3073
H25 H -0.1080 0.0873 0.2228
H26 H -0.1197 0.1456 0.1628
C33 C 0.1614(7) 0.0707(3) 0.3094(7)
H27 H 0.2413 0.0613 0.2973
H28 H 0.1129 0.0378 0.3105
H29 H 0.1897 0.0897 0.3878
C34 C 0.0137(11) 0.0792(4) 0.0781(7)
H30 H -0.0460 0.1034 0.0128
H31 H -0.0367 0.0471 0.0803
H32 H 0.0901 0.0687 0.0618
O8 O 0.4178(3) 0.89549(11) -0.0017(2)
O9 O 0.5500(3) 0.80228(13) 0.3377(2)
O10 O 0.0583(4) 0.88091(16) -0.4204(3)
O11 O 0.4538(5) 0.55648(13) 0.0420(4)
O12 O -0.0094(4) 0.79498(17) -0.3880(3)
C35 C 0.6834(3) 0.74602(15) 0.2709(3)
C36 C 0.5783(3) 0.78903(15) 0.2525(3)
O13 O 0.6965(4) 0.88617(19) 0.0418(3)
H35 H 0.6140 0.8830 -0.0050
C37 C 0.4797(4) 0.87501(14) 0.1256(3)
H36 H 0.4179 0.8826 0.1645
C38 C 0.3090(3) 0.86598(15) -0.0899(3)
C39 C 0.1373(4) 0.86396(18) -0.2989(3)
C40 C 0.6121(4) 0.90588(15) 0.1953(3)
C41 C 0.2732(3) 0.81391(15) -0.0680(3)
C42 C 0.7130(4) 0.90829(18) 0.1521(4)
C43 C 0.8593(4) 0.65678(18) 0.2958(3)
C44 C 0.4984(3) 0.81266(14) 0.1218(3)
H37 H 0.5488 0.8049 0.0720
C45 C 0.8479(5) 0.7005(2) 0.2167(4)
H38 H 0.9006 0.7006 0.1721
C46 C 0.7597(4) 0.74391(18) 0.2028(4)
H39 H 0.7517 0.7721 0.1469
C47 C 0.4526(5) 0.64857(16) -0.0361(4)
H40 H 0.4892 0.6363 -0.0896
C48 C 0.4234(4) 0.70387(15) -0.0323(3)
H41 H 0.4400 0.7282 -0.0847
C49 C 0.3707(4) 0.72405(15) 0.0464(3)
C50 C 0.1621(4) 0.78711(17) -0.1659(4)
H42 H 0.1329 0.7527 -0.1534
C51 C 0.2418(4) 0.89249(17) -0.2067(3)
H43 H 0.2670 0.9275 -0.2204
C52 C 0.3543(4) 0.78552(15) 0.0575(3)
H44 H 0.3065 0.7916 0.1103
C53 C 0.3438(5) 0.68628(19) 0.1209(4)
H45 H 0.3057 0.6983 0.1734
C54 C 0.4268(5) 0.61190(16) 0.0401(4)
C55 C 0.0984(4) 0.81297(19) -0.2796(4)
C56 C 0.7018(5) 0.7043(2) 0.3564(4)
H46 H 0.6568 0.7061 0.4077
C57 C 0.7862(6) 0.6602(2) 0.3660(4)
H47 H 0.7939 0.6319 0.4216
C58 C 0.3730(6) 0.63092(19) 0.1184(4)
H48 H 0.3558 0.6065 0.1702
C59 C 0.8589(5) 0.9608(2) 0.3332(5)
H49 H 0.9416 0.9790 0.3794
C60 C 0.6374(5) 0.9320(2) 0.3078(4)
H50 H 0.5711 0.9309 0.3380
C61 C 0.9422(5) 0.6055(2) 0.2981(4)
C62 C 0.8372(5) 0.9353(2) 0.2231(5)
H51 H 0.9057 0.9359 0.1954
C63 C -0.0297(5) 0.8361(2) -0.4803(4)
H52 H -0.0082 0.8214 -0.5459
H53 H -0.1251 0.8481 -0.5184
C64 C 1.0654(6) 0.6190(3) 0.2710(6)
H54 H 1.0326 0.6335 0.1875
H55 H 1.1177 0.5862 0.2781
H56 H 1.1229 0.6458 0.3305
C65 C 0.7602(6) 0.9597(3) 0.3754(5)
H57 H 0.7752 0.9775 0.4498
C66 C 0.4877(8) 0.5346(2) -0.0515(6)
H58 H 0.4123 0.5404 -0.1328
H59 H 0.5052 0.4959 -0.0375
H60 H 0.5687 0.5525 -0.0478
C67 C 0.8448(7) 0.5673(3) 0.1925(7)
H61 H 0.7674 0.5575 0.2081
H62 H 0.8936 0.5346 0.1904
H63 H 0.8127 0.5859 0.1132
C68 C 0.9988(10) 0.5767(4) 0.4247(7)
H64 H 1.0591 0.6011 0.4888
H65 H 1.0491 0.5445 0.4222
H66 H 0.9238 0.5661 0.4431
H33? H 0.4516 0.4621 0.2074
O7? O 0.3009(16) 0.3848(9) 0.4574(16)
H34? H 0.3841 0.3823 0.5019
loop_
_geom_bond_atom_site_label_1
_geom_bond_atom_site_label_2
_geom_bond_site_symmetry_1
_geom_bond_site_symmetry_2
O1 C1 1_555 1_555
O2 C4 1_555 1_555
O3 C6 1_555 1_555
O4 C21 1_555 1_555
O5 C23 1_555 1_555
C1 H1 1_555 1_555
C2 C4 1_555 1_555
C3 C1 1_555 1_555
C4 C10 1_555 1_555
C5 O1 1_555 1_555
O6 H2 1_555 1_555
C6 C19 1_555 1_555
C7 C5 1_555 1_555
C8 H3 1_555 1_555
C9 C12 1_555 1_555
C10 C1 1_555 1_555
H4 C10 1_555 1_555
C11 H5 1_555 1_555
C12 H6 1_555 1_555
C13 C8 1_555 1_555
C14 C2 1_555 1_555
H7 C14 1_555 1_555
C15 C3 1_555 1_555
H8 C15 1_555 1_555
C16 C7 1_555 1_555
H9 C16 1_555 1_555
C17 C8 1_555 1_555
H10 C17 1_555 1_555
C18 C3 1_555 1_555
C19 C5 1_555 1_555
H11 C19 1_555 1_555
C20 C7 1_555 1_555
H12 C20 1_555 1_555
C21 C6 1_555 1_555
C22 H13 1_555 1_555
C23 C17 1_555 1_555
C24 C2 1_555 1_555
H14 C24 1_555 1_555
C25 C18 1_555 1_555
H15 C25 1_555 1_555
C26 C11 1_555 1_555
H16 C26 1_555 1_555
C27 O3 1_555 1_555
H17 C27 1_555 1_555
H18 C27 1_555 1_555
C28 C9 1_555 1_555
H19 C28 1_555 1_555
C29 C9 1_555 1_555
C30 C15 1_555 1_555
H20 C30 1_555 1_555
C31 O5 1_555 1_555
H21 C31 1_555 1_555
H22 C31 1_555 1_555
H23 C31 1_555 1_555
C32 C29 1_555 1_555
H24 C32 1_555 1_555
H25 C32 1_555 1_555
H26 C32 1_555 1_555
C33 C29 1_555 1_555
H27 C33 1_555 1_555
H28 C33 1_555 1_555
H29 C33 1_555 1_555
C34 C29 1_555 1_555
H30 C34 1_555 1_555
H31 C34 1_555 1_555
H32 C34 1_555 1_555
O8 C37 1_555 1_555
O9 C36 1_555 1_555
O10 C39 1_555 1_555
O11 C54 1_555 1_555
O12 C55 1_555 1_555
C35 C36 1_555 1_555
C36 C44 1_555 1_555
O13 H35 1_555 1_555
C37 H36 1_555 1_555
C38 O8 1_555 1_555
C39 C51 1_555 1_555
C40 C37 1_555 1_555
C41 C38 1_555 1_555
C42 O13 1_555 1_555
C43 C45 1_555 1_555
C44 C37 1_555 1_555
H37 C44 1_555 1_555
C45 H38 1_555 1_555
C46 C35 1_555 1_555
H39 C46 1_555 1_555
C47 H40 1_555 1_555
C48 C47 1_555 1_555
H41 C48 1_555 1_555
C49 C48 1_555 1_555
C50 C41 1_555 1_555
H42 C50 1_555 1_555
C51 C38 1_555 1_555
H43 C51 1_555 1_555
C52 C41 1_555 1_555
H44 C52 1_555 1_555
C53 C49 1_555 1_555
H45 C53 1_555 1_555
C54 C47 1_555 1_555
C55 C39 1_555 1_555
C56 C35 1_555 1_555
H46 C56 1_555 1_555
C57 C43 1_555 1_555
H47 C57 1_555 1_555
C58 C53 1_555 1_555
H48 C58 1_555 1_555
C59 H49 1_555 1_555
C60 C40 1_555 1_555
H50 C60 1_555 1_555
C61 C43 1_555 1_555
C62 C42 1_555 1_555
H51 C62 1_555 1_555
C63 O10 1_555 1_555
H52 C63 1_555 1_555
H53 C63 1_555 1_555
C64 C61 1_555 1_555
H54 C64 1_555 1_555
H55 C64 1_555 1_555
H56 C64 1_555 1_555
C65 C59 1_555 1_555
H57 C65 1_555 1_555
C66 O11 1_555 1_555
H58 C66 1_555 1_555
H59 C66 1_555 1_555
H60 C66 1_555 1_555
C67 C61 1_555 1_555
H61 C67 1_555 1_555
H62 C67 1_555 1_555
H63 C67 1_555 1_555
C68 C61 1_555 1_555
H64 C68 1_555 1_555
H65 C68 1_555 1_555
H66 C68 1_555 1_555
O4 C27 1_555 1_555
O6 C18 1_555 1_555
C10 C20 1_555 1_555
C11 C13 1_555 1_555
C12 C14 1_555 1_555
C13 C20 1_555 1_555
C16 C21 1_555 1_555
C22 C25 1_555 1_555
C22 C30 1_555 1_555
C23 C26 1_555 1_555
C24 C28 1_555 1_555
O12 C63 1_555 1_555
C40 C42 1_555 1_555
C44 C52 1_555 1_555
C45 C46 1_555 1_555
C49 C52 1_555 1_555
C50 C55 1_555 1_555
C54 C58 1_555 1_555
C56 C57 1_555 1_555
C59 C62 1_555 1_555
C60 C65 1_555 1_555

#END
