
#######################################################################
#
#                 Cambridge Crystallographic Data Centre
#                                CCDC 
#
#######################################################################
#
# If this CIF has been generated from an entry in the Cambridge 
# Structural Database, then it will include bibliographic, chemical, 
# crystal, experimental, refinement or atomic coordinate data resulting 
# from the CCDC's data processing and validation procedures.
#
#######################################################################

data_KIJCIS
_chemical_formula_moiety         'C44 H24 F8 N4'
_chemical_name_systematic        
4,4'-[1,2-bis(4-fluorophenyl)ethene-1,2-diyl]bis{2-[4-(trifluoromethyl)phenyl]quinazoline}
_symmetry_cell_setting           monoclinic
_symmetry_space_group_name_H-M   'P 21/n'
_symmetry_Int_Tables_number      14
_space_group_name_Hall           '-P 2yn'
loop_
_symmetry_equiv_pos_site_id
_symmetry_equiv_pos_as_xyz
1 x,y,z
2 1/2-x,1/2+y,1/2-z
3 -x,-y,-z
4 1/2+x,1/2-y,1/2+z
_cell_length_a                   13.808(3)
_cell_length_b                   16.820(3)
_cell_length_c                   16.316(3)
_cell_angle_alpha                90
_cell_angle_beta                 108.35(3)
_cell_angle_gamma                90
_cell_volume                     3596.71
_exptl_crystal_colour            colorless
_exptl_crystal_description       block
_cell_formula_units_Z            4
loop_
_atom_site_label
_atom_site_type_symbol
_atom_site_fract_x
_atom_site_fract_y
_atom_site_fract_z
N1 N 0.83290(14) 0.21968(10) 0.81110(11)
N2 N 0.79641(16) 0.29365(11) 0.67963(12)
C1 C 0.73502(16) 0.20987(12) 0.79925(13)
C2 C 0.85955(18) 0.25954(13) 0.74849(13)
C3 C 0.70723(16) 0.17221(12) 0.87247(13)
C4 C 0.65841(17) 0.23844(13) 0.72411(13)
C5 C 0.61590(19) -0.02855(13) 0.68498(14)
C6 C 0.68516(16) 0.23181(12) 0.93208(13)
C7 C 0.96999(18) 0.26398(13) 0.75970(14)
C8 C 0.79916(19) 0.01204(13) 0.79768(15)
N3 N 0.61669(16) 0.02149(11) 0.75165(12)
C9 C 0.69477(19) 0.28272(13) 0.66600(14)
F1 F 0.20766(16) -0.11465(11) 0.37633(11)
C10 C 0.70241(18) 0.09353(13) 0.88008(14)
N4 N 0.69614(17) -0.05839(12) 0.66984(13)
C11 C 0.70658(19) 0.04038(12) 0.80660(14)
C12 C 0.5125(2) -0.04920(13) 0.62648(14)
C13 C 1.0416(2) 0.23404(18) 0.83335(17)
H1 H 1.0202 0.2120 0.8770
C14 C 0.7896(2) -0.03822(14) 0.72599(16)
C15 C 1.1776(2) 0.26871(18) 0.77908(18)
C16 C 0.55286(18) 0.22613(15) 0.70613(15)
H2 H 0.5287 0.1968 0.7439
C17 C 0.3183(2) -0.08745(15) 0.51694(16)
C18 C 0.5000(2) -0.08732(15) 0.54788(16)
H3 H 0.5571 -0.1005 0.5320
C19 C 0.4035(2) -0.10580(14) 0.49321(16)
H4 H 0.3959 -0.1305 0.4406
C20 C 1.0044(2) 0.29718(17) 0.69638(17)
H5 H 0.9576 0.3183 0.6470
C21 C 0.7546(2) 0.29132(14) 0.96793(15)
H6 H 0.8157 0.2935 0.9554
C22 C 1.1445(2) 0.2366(2) 0.8424(2)
H7 H 1.1916 0.2163 0.8921
C23 C 0.4263(2) -0.03081(15) 0.64907(16)
H8 H 0.4334 -0.0054 0.7012
C24 C 0.7346(3) 0.34759(17) 1.02213(18)
H9 H 0.7822 0.3869 1.0470
C25 C 0.3299(2) -0.04979(16) 0.59508(17)
H10 H 0.2728 -0.0373 0.6112
C26 C 0.6879(2) 0.05070(14) 0.95522(16)
F2 F 0.18531(17) -0.18101(14) 0.47925(13)
C27 C 0.6439(3) 0.34417(17) 1.03824(18)
C28 C 0.2147(3) -0.10902(18) 0.4598(2)
F3 F 1.34789(17) 0.23973(18) 0.85941(19)
F4 F 0.6237(2) 0.39951(13) 1.09107(16)
C29 C 0.5219(2) 0.30222(19) 0.57593(18)
H11 H 0.4753 0.3234 0.5265
C30 C 0.4862(2) 0.25764(19) 0.63268(17)
H12 H 0.4165 0.2493 0.6204
F5 F 0.14374(18) -0.05767(17) 0.46353(17)
C31 C 0.6232(2) 0.31532(16) 0.59128(16)
H13 H 0.6454 0.3455 0.5529
C32 C 0.8967(2) 0.03097(16) 0.85403(19)
H14 H 0.9033 0.0632 0.9018
C33 C 0.7386(2) 0.07334(16) 1.03961(16)
H15 H 0.7827 0.1166 1.0494
C34 C 0.5928(2) 0.23082(16) 0.94878(16)
H16 H 0.5450 0.1916 0.9244
C35 C 0.8793(2) -0.06690(17) 0.71153(19)
H17 H 0.8746 -0.0996 0.6644
C36 C 0.5713(2) 0.28826(18) 1.00182(19)
H18 H 0.5089 0.2886 1.0123
C37 C 0.9816(3) 0.0020(2) 0.8385(2)
H19 H 1.0460 0.0145 0.8758
C38 C 1.2878(3) 0.2728(3) 0.7877(2)
C39 C 1.1064(2) 0.2993(2) 0.70543(19)
H20 H 1.1282 0.3214 0.6620
C40 C 0.9717(3) -0.04670(19) 0.7663(2)
H21 H 1.0302 -0.0654 0.7560
C41 C 0.7257(3) 0.03360(19) 1.10932(19)
H22 H 0.7607 0.0495 1.1655
C42 C 0.6614(4) -0.0286(2) 1.0943(3)
F6 F 0.6447(4) -0.06556(18) 1.16236(17)
C43 C 0.6265(5) -0.0156(2) 0.9437(2)
H23 H 0.5948 -0.0344 0.8881
F7 F 1.3112(2) 0.2410(4) 0.7274(2)
C44 C 0.6110(6) -0.0547(3) 1.0129(3)
H24 H 0.5669 -0.0979 1.0041
F8 F 1.3235(2) 0.3450(2) 0.7975(3)
loop_
_geom_bond_atom_site_label_1
_geom_bond_atom_site_label_2
_geom_bond_site_symmetry_1
_geom_bond_site_symmetry_2
N1 C1 1_555 1_555
N2 C2 1_555 1_555
C1 C3 1_555 1_555
C2 N1 1_555 1_555
C3 C6 1_555 1_555
C4 C1 1_555 1_555
C5 N3 1_555 1_555
C6 C21 1_555 1_555
C7 C2 1_555 1_555
C8 C11 1_555 1_555
N3 C11 1_555 1_555
C9 N2 1_555 1_555
F1 C28 1_555 1_555
C10 C3 1_555 1_555
N4 C5 1_555 1_555
C11 C10 1_555 1_555
C12 C5 1_555 1_555
C13 C7 1_555 1_555
H1 C13 1_555 1_555
C14 C8 1_555 1_555
C15 C22 1_555 1_555
C16 C4 1_555 1_555
H2 C16 1_555 1_555
C17 C19 1_555 1_555
C18 C12 1_555 1_555
H3 C18 1_555 1_555
C19 C18 1_555 1_555
H4 C19 1_555 1_555
C20 C7 1_555 1_555
H5 C20 1_555 1_555
C21 H6 1_555 1_555
C22 C13 1_555 1_555
H7 C22 1_555 1_555
C23 C12 1_555 1_555
H8 C23 1_555 1_555
C24 C21 1_555 1_555
H9 C24 1_555 1_555
C25 C17 1_555 1_555
H10 C25 1_555 1_555
C26 C10 1_555 1_555
F2 C28 1_555 1_555
C27 C24 1_555 1_555
C28 C17 1_555 1_555
F3 C38 1_555 1_555
F4 C27 1_555 1_555
C29 H11 1_555 1_555
C30 C16 1_555 1_555
H12 C30 1_555 1_555
F5 C28 1_555 1_555
C31 C9 1_555 1_555
H13 C31 1_555 1_555
C32 C8 1_555 1_555
H14 C32 1_555 1_555
C33 C26 1_555 1_555
H15 C33 1_555 1_555
C34 C6 1_555 1_555
H16 C34 1_555 1_555
C35 C14 1_555 1_555
H17 C35 1_555 1_555
C36 C27 1_555 1_555
H18 C36 1_555 1_555
C37 C32 1_555 1_555
H19 C37 1_555 1_555
C38 C15 1_555 1_555
C39 C15 1_555 1_555
H20 C39 1_555 1_555
C40 C35 1_555 1_555
H21 C40 1_555 1_555
C41 C33 1_555 1_555
H22 C41 1_555 1_555
C42 C41 1_555 1_555
F6 C42 1_555 1_555
C43 C26 1_555 1_555
H23 C43 1_555 1_555
F7 C38 1_555 1_555
C44 C42 1_555 1_555
H24 C44 1_555 1_555
F8 C38 1_555 1_555
C4 C9 1_555 1_555
N4 C14 1_555 1_555
C20 C39 1_555 1_555
C23 C25 1_555 1_555
C29 C30 1_555 1_555
C29 C31 1_555 1_555
C34 C36 1_555 1_555
C37 C40 1_555 1_555
C43 C44 1_555 1_555

#END
