
#######################################################################
#
#                 Cambridge Crystallographic Data Centre
#                                CCDC 
#
#######################################################################
#
# If this CIF has been generated from an entry in the Cambridge 
# Structural Database, then it will include bibliographic, chemical, 
# crystal, experimental, refinement or atomic coordinate data resulting 
# from the CCDC's data processing and validation procedures.
#
#######################################################################

data_KIJCAK
_chemical_formula_moiety         'C46 H30 F6 N4 O2'
_chemical_name_systematic        
4,4'-[1,2-bis(4-methoxyphenyl)ethene-1,2-diyl]bis{2-[4-(trifluoromethyl)phenyl]quinazoline}
_symmetry_cell_setting           monoclinic
_symmetry_space_group_name_H-M   'P 21/n'
_symmetry_Int_Tables_number      14
_space_group_name_Hall           '-P 2yn'
loop_
_symmetry_equiv_pos_site_id
_symmetry_equiv_pos_as_xyz
1 x,y,z
2 1/2-x,1/2+y,1/2-z
3 -x,-y,-z
4 1/2+x,1/2-y,1/2+z
_cell_length_a                   13.9060(2)
_cell_length_b                   16.6094(2)
_cell_length_c                   16.5593(2)
_cell_angle_alpha                90
_cell_angle_beta                 108.176(2)
_cell_angle_gamma                90
_cell_volume                     3633.86
_exptl_crystal_colour            yellow
_exptl_crystal_description       block
_cell_formula_units_Z            4
loop_
_atom_site_label
_atom_site_type_symbol
_atom_site_fract_x
_atom_site_fract_y
_atom_site_fract_z
F1 F -0.27130(8) 0.61329(6) -0.13160(6)
F2 F -0.33294(8) 0.53761(7) -0.05473(7)
F3 F -0.31306(8) 0.66465(7) -0.02815(7)
F4 F 0.81112(9) 0.11615(7) 0.30789(9)
F5 F 0.85055(9) 0.23328(9) 0.36065(10)
O1 O 0.15085(10) 0.09616(8) 0.59539(9)
F6 F 0.81540(10) 0.21428(10) 0.22672(10)
N1 N 0.12329(10) 0.48336(8) 0.24794(8)
N2 N 0.33836(10) 0.28185(8) 0.31098(8)
N3 N 0.20625(10) 0.56492(8) 0.17005(8)
N4 N 0.30056(11) 0.20746(8) 0.18048(9)
O2 O 0.12803(15) 0.58599(10) 0.64294(9)
C1 C 0.12538(12) 0.53375(9) 0.18297(10)
C2 C 0.21285(11) 0.33191(9) 0.37091(9)
C3 C 0.19390(11) 0.27274(9) 0.43200(9)
C4 C 0.21067(12) 0.46423(9) 0.30356(10)
C5 C 0.20416(12) 0.41181(10) 0.37569(10)
C6 C 0.36382(12) 0.24066(9) 0.24888(10)
C7 C 0.16511(12) 0.26370(9) 0.22618(10)
C8 C 0.02405(12) 0.55293(9) 0.12219(10)
C9 C 0.24125(12) 0.29260(9) 0.29979(10)
C10 C 0.20006(13) 0.21883(9) 0.16814(10)
C11 C 0.10199(12) 0.26967(10) 0.44910(10)
H1 H 0.051912 0.307207 0.424141
C12 C 0.47375(12) 0.23204(9) 0.26075(10)
C13 C 0.30427(12) 0.49289(10) 0.29708(10)
C14 C 0.29740(12) 0.54433(9) 0.22705(10)
C15 C 0.26729(12) 0.21580(10) 0.46992(10)
H2 H 0.328405 0.216195 0.458061
C16 C -0.16646(13) 0.58340(10) 0.00778(10)
C17 C 0.18590(13) 0.45629(10) 0.44777(10)
C18 C -0.06324(13) 0.53070(10) 0.14156(10)
H3 H -0.057527 0.505463 0.192983
C19 C -0.08053(13) 0.60595(10) -0.01222(10)
H4 H -0.086568 0.631128 -0.063729
C20 C 0.22582(13) 0.48216(11) 0.59876(11)
H5 H 0.264614 0.470774 0.654370
C21 C 0.06007(13) 0.27569(10) 0.20980(10)
H6 H 0.036723 0.305450 0.247468
C22 C 0.08399(13) 0.21136(11) 0.50289(11)
H7 H 0.021912 0.209409 0.513029
C23 C 0.24095(12) 0.43959(10) 0.53134(10)
H8 H 0.289267 0.398887 0.542717
C24 C -0.15752(13) 0.54593(10) 0.08507(11)
H9 H -0.215274 0.531213 0.098457
C25 C -0.27004(14) 0.59968(10) -0.05170(11)
C26 C 0.01431(13) 0.59078(9) 0.04489(10)
H10 H 0.071939 0.605962 0.031566
C27 C 0.25125(13) 0.15881(11) 0.52473(11)
H11 H 0.302013 0.122119 0.550634
C28 C 0.12880(14) 0.18590(11) 0.09468(11)
H12 H 0.150752 0.156054 0.056260
C29 C 0.38748(13) 0.57424(10) 0.21516(11)
H13 H 0.384271 0.608055 0.169633
C30 C 0.50547(14) 0.19699(11) 0.19651(11)
H14 H 0.457684 0.180770 0.146098
C31 C 0.15929(13) 0.15598(10) 0.54144(10)
C32 C 0.39997(13) 0.47225(10) 0.35391(11)
H15 H 0.404625 0.438882 0.400079
C33 C 0.47910(14) 0.55306(11) 0.27107(12)
H16 H 0.538022 0.572896 0.263086
C34 C 0.67883(14) 0.21100(10) 0.28240(12)
C35 C -0.00729(13) 0.24325(11) 0.13810(11)
H17 H -0.076396 0.250986 0.127362
C36 C 0.54621(13) 0.25814(10) 0.33493(11)
H18 H 0.525853 0.282926 0.377268
C37 C 0.02767(14) 0.19817(11) 0.08053(11)
H19 H -0.018847 0.176499 0.032226
C38 C 0.64873(13) 0.24744(11) 0.34620(12)
H20 H 0.696831 0.264536 0.396043
C39 C 0.60739(14) 0.18630(11) 0.20744(12)
H21 H 0.627999 0.162613 0.164684
C40 C 0.48627(13) 0.50170(11) 0.34070(12)
H22 H 0.549458 0.487774 0.377675
C41 C 0.15225(18) 0.54179(12) 0.58218(12)
C42 C 0.78824(15) 0.19454(12) 0.29465(13)
C43 C 0.11297(19) 0.51686(13) 0.43240(12)
H23 H 0.075710 0.529334 0.376660
C44 C 0.1944(2) 0.57967(13) 0.72734(12)
H24 H 0.261972 0.592867 0.728402
H25 H 0.192947 0.525598 0.747428
H26 H 0.173127 0.616249 0.763330
C45 C 0.05351(18) 0.08388(15) 0.60461(18)
H27 H 0.004458 0.076904 0.549564
H28 H 0.035590 0.129785 0.632098
H29 H 0.054845 0.036659 0.638373
C46 C 0.0950(2) 0.55869(15) 0.49833(14)
H30 H 0.044899 0.597992 0.486924
loop_
_geom_bond_atom_site_label_1
_geom_bond_atom_site_label_2
_geom_bond_site_symmetry_1
_geom_bond_site_symmetry_2
F1 C25 1_555 1_555
F2 C25 1_555 1_555
F3 C25 1_555 1_555
F4 C42 1_555 1_555
F5 C42 1_555 1_555
O1 C31 1_555 1_555
F6 C42 1_555 1_555
N1 C1 1_555 1_555
N2 C6 1_555 1_555
N3 C1 1_555 1_555
N4 C6 1_555 1_555
O2 C41 1_555 1_555
C1 C8 1_555 1_555
C2 C3 1_555 1_555
C3 C11 1_555 1_555
C4 N1 1_555 1_555
C5 C2 1_555 1_555
C6 C12 1_555 1_555
C7 C9 1_555 1_555
C8 C18 1_555 1_555
C9 N2 1_555 1_555
C10 N4 1_555 1_555
C11 H1 1_555 1_555
C12 C30 1_555 1_555
C13 C4 1_555 1_555
C14 N3 1_555 1_555
C15 C3 1_555 1_555
H2 C15 1_555 1_555
C16 C19 1_555 1_555
C17 C5 1_555 1_555
C18 H3 1_555 1_555
C19 H4 1_555 1_555
C20 H5 1_555 1_555
C21 C7 1_555 1_555
H6 C21 1_555 1_555
C22 C11 1_555 1_555
H7 C22 1_555 1_555
C23 C17 1_555 1_555
H8 C23 1_555 1_555
C24 C16 1_555 1_555
H9 C24 1_555 1_555
C25 C16 1_555 1_555
C26 C8 1_555 1_555
H10 C26 1_555 1_555
C27 C15 1_555 1_555
H11 C27 1_555 1_555
C28 C10 1_555 1_555
H12 C28 1_555 1_555
C29 C14 1_555 1_555
H13 C29 1_555 1_555
C30 H14 1_555 1_555
C31 C22 1_555 1_555
C32 C13 1_555 1_555
H15 C32 1_555 1_555
C33 C29 1_555 1_555
H16 C33 1_555 1_555
C34 C38 1_555 1_555
C35 C21 1_555 1_555
H17 C35 1_555 1_555
C36 C12 1_555 1_555
H18 C36 1_555 1_555
C37 C28 1_555 1_555
H19 C37 1_555 1_555
C38 C36 1_555 1_555
H20 C38 1_555 1_555
C39 C30 1_555 1_555
H21 C39 1_555 1_555
C40 C32 1_555 1_555
H22 C40 1_555 1_555
C41 C20 1_555 1_555
C42 C34 1_555 1_555
C43 C17 1_555 1_555
H23 C43 1_555 1_555
C44 O2 1_555 1_555
H24 C44 1_555 1_555
H25 C44 1_555 1_555
H26 C44 1_555 1_555
C45 O1 1_555 1_555
H27 C45 1_555 1_555
H28 C45 1_555 1_555
H29 C45 1_555 1_555
C46 C41 1_555 1_555
H30 C46 1_555 1_555
C2 C9 1_555 1_555
C4 C5 1_555 1_555
C7 C10 1_555 1_555
C13 C14 1_555 1_555
C18 C24 1_555 1_555
C19 C26 1_555 1_555
C20 C23 1_555 1_555
C27 C31 1_555 1_555
C33 C40 1_555 1_555
C34 C39 1_555 1_555
C35 C37 1_555 1_555
C43 C46 1_555 1_555

#END
