
#######################################################################
#
#                 Cambridge Crystallographic Data Centre
#                                CCDC 
#
#######################################################################
#
# If this CIF has been generated from an entry in the Cambridge 
# Structural Database, then it will include bibliographic, chemical, 
# crystal, experimental, refinement or atomic coordinate data resulting 
# from the CCDC's data processing and validation procedures.
#
#######################################################################

data_KIJDUF
_chemical_compound_source        'Ervatamia divaricata'
_chemical_name_common            'ervadivamine A chloroform solvate monohydrate'
_chemical_formula_moiety         'C61 H76 N6 O4,C1 H1 Cl3,H2 O1'
_chemical_name_systematic        
"dimethyl 3,3'-(ibogamine-13,16-diyl)bis(19,20-dihydrovobasan-17-oate) chloroform solvate monohydrate"
_chemical_properties_biological  
'significant cytotoxicity against human lung cancer cell line A549, human colon cell line HT-29, human breast adenocarcinoma cell line MCF-7 and human hepatocellular carcinoma cell line HepG2'
_symmetry_cell_setting           orthorhombic
_symmetry_space_group_name_H-M   'P 21 21 21'
_symmetry_Int_Tables_number      19
_space_group_name_Hall           'P 2ac 2ab'
loop_
_symmetry_equiv_pos_site_id
_symmetry_equiv_pos_as_xyz
1 x,y,z
2 1/2-x,-y,1/2+z
3 -x,1/2+y,1/2-z
4 1/2+x,1/2-y,-z
_cell_length_a                   11.96003(19)
_cell_length_b                   17.9032(2)
_cell_length_c                   28.5501(4)
_cell_angle_alpha                90
_cell_angle_beta                 90
_cell_angle_gamma                90
_cell_volume                     6113.23
_exptl_crystal_colour            colorless
_exptl_crystal_description       block
_cell_formula_units_Z            4
loop_
_atom_site_label
_atom_site_type_symbol
_atom_site_fract_x
_atom_site_fract_y
_atom_site_fract_z
N1 N 0.6687(3) 0.50885(19) 0.42332(12)
N2 N 0.8324(3) 0.2819(2) 0.42906(16)
C1 C 0.7350(4) 0.4460(2) 0.43126(14)
C2 C 0.8783(5) 0.2673(3) 0.4750(2)
H1 H 0.9456 0.2966 0.4797
H2 H 0.8974 0.2148 0.4779
C3 C 0.9050(4) 0.3224(3) 0.39694(18)
H3 H 0.8696 0.3224 0.3664
H4 H 0.9742 0.2945 0.3940
C4 C 0.9348(4) 0.4035(3) 0.40932(18)
H5 H 0.9703 0.4040 0.4398
H6 H 0.9889 0.4216 0.3867
C5 C 0.8382(4) 0.4563(2) 0.41025(16)
C6 C 0.8357(4) 0.5287(2) 0.38845(16)
C7 C 0.9134(4) 0.5701(3) 0.36241(16)
H7 H 0.9850 0.5516 0.3572
C8 C 0.8822(4) 0.6392(3) 0.34444(16)
H8 H 0.9336 0.6666 0.3271
C9 C 0.7745(3) 0.6687(2) 0.35192(14)
C10 C 0.6979(3) 0.6288(2) 0.37860(14)
H9 H 0.6267 0.6478 0.3841
C11 C 0.7295(4) 0.5599(2) 0.39697(14)
C12 C 0.7885(5) 0.2888(3) 0.51216(17)
H10 H 0.8196 0.2818 0.5436
C13 C 0.6871(4) 0.2371(3) 0.50583(16)
H11 H 0.6274 0.2521 0.5268
H12 H 0.7078 0.1860 0.5131
C14 C 0.6946(4) 0.3786(2) 0.45647(16)
H13 H 0.6141 0.3838 0.4621
C15 C 0.7561(5) 0.3697(3) 0.50568(17)
H14 H 0.8224 0.4010 0.5065
H15 H 0.7067 0.3853 0.5308
C16 C 0.5692(5) 0.1118(3) 0.44227(19)
H16 H 0.5824 0.0652 0.4266
H17 H 0.4967 0.1304 0.4338
H18 H 0.5724 0.1043 0.4755
C17 C 0.6586(4) 0.1683(2) 0.42772(16)
H19 H 0.6533 0.1769 0.3943
H20 H 0.7319 0.1475 0.4341
C18 C 0.6467(4) 0.2428(2) 0.45343(15)
H21 H 0.5678 0.2574 0.4532
C19 C 0.7152(3) 0.3046(2) 0.42983(15)
H22 H 0.6892 0.3104 0.3975
O1 O 0.7384(3) 0.9114(2) 0.29511(13)
O2 O 0.5569(3) 0.94418(18) 0.29737(12)
N3 N 0.6714(3) 0.81520(19) 0.39474(12)
H23 H 0.7354 0.8155 0.4085
N4 N 0.4532(4) 0.7737(2) 0.21215(13)
C20 C 0.6476(4) 0.7793(2) 0.35263(14)
C21 C 0.7403(4) 0.7400(2) 0.32730(14)
H24 H 0.8052 0.7734 0.3271
C22 C 0.4848(4) 0.8115(3) 0.25679(14)
H25 H 0.4352 0.8547 0.2605
C23 C 0.4704(4) 0.7619(3) 0.30083(15)
H26 H 0.3917 0.7599 0.3090
H27 H 0.4943 0.7115 0.2934
C24 C 0.5347(4) 0.7889(2) 0.34226(14)
C25 C 0.4887(4) 0.8353(2) 0.37869(14)
C26 C 0.3839(4) 0.8697(3) 0.38470(16)
H28 H 0.3263 0.8612 0.3635
C27 C 0.3683(4) 0.9160(3) 0.42235(16)
H29 H 0.2994 0.9392 0.4264
C28 C 0.4541(4) 0.9293(3) 0.45497(16)
H30 H 0.4405 0.9605 0.4804
C29 C 0.5592(4) 0.8967(2) 0.44990(15)
H31 H 0.6160 0.9053 0.4715
C30 C 0.5757(4) 0.8504(2) 0.41095(14)
C31 C 0.7131(4) 0.7201(3) 0.27616(15)
H32 H 0.6477 0.6881 0.2767
H33 H 0.7746 0.6899 0.2646
C32 C 0.6909(4) 0.7814(3) 0.23898(15)
H34 H 0.7620 0.8066 0.2327
C33 C 0.6037(4) 0.8417(2) 0.24974(15)
H35 H 0.5983 0.8696 0.2203
C34 C 0.7872(6) 0.8119(5) 0.1388(2)
H36 H 0.7944 0.8277 0.1068
H37 H 0.8351 0.7698 0.1443
H38 H 0.8082 0.8522 0.1592
C35 C 0.6675(5) 0.7901(3) 0.14835(17)
H39 H 0.6391 0.7624 0.1217
H40 H 0.6229 0.8351 0.1515
C36 C 0.6530(5) 0.7424(3) 0.19284(16)
H41 H 0.6997 0.6978 0.1890
C37 C 0.5318(5) 0.7155(3) 0.19809(15)
H42 H 0.5074 0.6947 0.1685
H43 H 0.5298 0.6758 0.2212
C38 C 0.6428(4) 0.9000(3) 0.28454(15)
C39 C 0.5828(6) 1.0040(3) 0.3297(2)
H44 H 0.6247 1.0420 0.3137
H45 H 0.6264 0.9847 0.3552
H46 H 0.5147 1.0250 0.3416
C40 C 0.3379(5) 0.7440(3) 0.21494(17)
H47 H 0.3383 0.6976 0.2317
H48 H 0.3095 0.7360 0.1839
H49 H 0.2911 0.7792 0.2310
O3 O 0.3607(3) 0.45336(18) 0.49199(13)
O4 O 0.2354(3) 0.54067(18) 0.46952(11)
N5 N 0.4554(3) 0.5208(2) 0.37525(13)
H50 H 0.4873 0.4802 0.3662
N6 N 0.3789(3) 0.7099(2) 0.54220(12)
C41 C 0.4794(3) 0.5592(2) 0.41577(14)
C42 C 0.5647(3) 0.5259(2) 0.44838(14)
H51 H 0.5341 0.4782 0.4592
C43 C 0.3519(3) 0.6593(2) 0.50306(14)
H52 H 0.2708 0.6618 0.4984
C44 C 0.4074(4) 0.6813(2) 0.45570(14)
H53 H 0.3667 0.7234 0.4428
H54 H 0.4830 0.6980 0.4621
C45 C 0.4125(3) 0.6214(2) 0.41918(15)
C46 C 0.3409(3) 0.6202(3) 0.37845(14)
C47 C 0.2535(4) 0.6661(3) 0.36237(15)
H55 H 0.2317 0.7079 0.3794
C48 C 0.2007(4) 0.6481(3) 0.32082(17)
H56 H 0.1411 0.6772 0.3105
C49 C 0.2351(5) 0.5870(3) 0.29396(17)
H57 H 0.2007 0.5778 0.2653
C50 C 0.3187(5) 0.5401(3) 0.30896(18)
H58 H 0.3395 0.4983 0.2917
C51 C 0.3716(4) 0.5579(2) 0.35148(15)
C52 C 0.5891(4) 0.5724(2) 0.49238(14)
H59 H 0.5962 0.6243 0.4830
H60 H 0.6611 0.5569 0.5047
C53 C 0.5030(4) 0.5683(2) 0.53265(15)
H61 H 0.5100 0.5188 0.5470
C54 C 0.3788(4) 0.5799(2) 0.52056(14)
H62 H 0.3406 0.5766 0.5508
C55 C 0.5391(5) 0.6517(4) 0.65914(18)
H63 H 0.5275 0.7040 0.6534
H64 H 0.6178 0.6415 0.6606
H65 H 0.5048 0.6381 0.6883
C56 C 0.4868(4) 0.6065(3) 0.61958(16)
H66 H 0.4066 0.6145 0.6197
H67 H 0.5001 0.5538 0.6253
C57 C 0.5337(4) 0.6273(3) 0.57089(14)
H68 H 0.6154 0.6275 0.5736
C58 C 0.4986(4) 0.7061(3) 0.55594(15)
H69 H 0.5118 0.7404 0.5816
H70 H 0.5444 0.7219 0.5297
C59 C 0.3275(4) 0.5174(2) 0.49179(16)
C60 C 0.1830(5) 0.4863(3) 0.43893(19)
H71 H 0.2308 0.4768 0.4126
H72 H 0.1126 0.5054 0.4281
H73 H 0.1710 0.4406 0.4558
C61 C 0.3494(4) 0.7871(3) 0.53042(17)
H74 H 0.3929 0.8033 0.5041
H75 H 0.3646 0.8189 0.5568
H76 H 0.2714 0.7898 0.5227
Cl1 Cl 0.8486(2) 0.06739(13) 0.34217(9)
Cl2 Cl 0.9594(2) 0.19487(14) 0.30093(8)
Cl3 Cl 1.0460(2) 0.12744(15) 0.38645(10)
C62 C 0.9249(7) 0.1454(5) 0.3541(3)
H77 H 0.8777 0.1785 0.3730
O5 O 0.5853(4) 0.4018(3) 0.33938(16)
H78 H 0.6143 0.4297 0.3185
H79 H 0.5651 0.3608 0.3271
loop_
_geom_bond_atom_site_label_1
_geom_bond_atom_site_label_2
_geom_bond_site_symmetry_1
_geom_bond_site_symmetry_2
N1 C1 1_555 1_555
N2 C2 1_555 1_555
C1 C5 1_555 1_555
C2 H1 1_555 1_555
H2 C2 1_555 1_555
C3 N2 1_555 1_555
H3 C3 1_555 1_555
H4 C3 1_555 1_555
C4 C3 1_555 1_555
H5 C4 1_555 1_555
H6 C4 1_555 1_555
C5 C4 1_555 1_555
C6 C5 1_555 1_555
C7 C6 1_555 1_555
H7 C7 1_555 1_555
C8 C7 1_555 1_555
H8 C8 1_555 1_555
C9 C8 1_555 1_555
C10 C9 1_555 1_555
H9 C10 1_555 1_555
C11 N1 1_555 1_555
C12 C2 1_555 1_555
H10 C12 1_555 1_555
C13 C12 1_555 1_555
H11 C13 1_555 1_555
H12 C13 1_555 1_555
C14 C1 1_555 1_555
H13 C14 1_555 1_555
C15 C12 1_555 1_555
H14 C15 1_555 1_555
H15 C15 1_555 1_555
C16 H16 1_555 1_555
H17 C16 1_555 1_555
H18 C16 1_555 1_555
C17 C16 1_555 1_555
H19 C17 1_555 1_555
H20 C17 1_555 1_555
C18 C13 1_555 1_555
H21 C18 1_555 1_555
C19 N2 1_555 1_555
H22 C19 1_555 1_555
O1 C38 1_555 1_555
O2 C38 1_555 1_555
N3 H23 1_555 1_555
N4 C22 1_555 1_555
C20 N3 1_555 1_555
C21 C9 1_555 1_555
H24 C21 1_555 1_555
C22 H25 1_555 1_555
C23 C22 1_555 1_555
H26 C23 1_555 1_555
H27 C23 1_555 1_555
C24 C20 1_555 1_555
C25 C24 1_555 1_555
C26 C25 1_555 1_555
H28 C26 1_555 1_555
C27 C26 1_555 1_555
H29 C27 1_555 1_555
C28 C27 1_555 1_555
H30 C28 1_555 1_555
C29 C28 1_555 1_555
H31 C29 1_555 1_555
C30 N3 1_555 1_555
C31 C21 1_555 1_555
H32 C31 1_555 1_555
H33 C31 1_555 1_555
C32 C31 1_555 1_555
H34 C32 1_555 1_555
C33 C22 1_555 1_555
H35 C33 1_555 1_555
C34 H36 1_555 1_555
H37 C34 1_555 1_555
H38 C34 1_555 1_555
C35 C34 1_555 1_555
H39 C35 1_555 1_555
H40 C35 1_555 1_555
C36 C32 1_555 1_555
H41 C36 1_555 1_555
C37 N4 1_555 1_555
H42 C37 1_555 1_555
H43 C37 1_555 1_555
C38 C33 1_555 1_555
C39 O2 1_555 1_555
H44 C39 1_555 1_555
H45 C39 1_555 1_555
H46 C39 1_555 1_555
C40 N4 1_555 1_555
H47 C40 1_555 1_555
H48 C40 1_555 1_555
H49 C40 1_555 1_555
O3 C59 1_555 1_555
O4 C59 1_555 1_555
N5 H50 1_555 1_555
N6 C43 1_555 1_555
C41 N5 1_555 1_555
C42 N1 1_555 1_555
H51 C42 1_555 1_555
C43 H52 1_555 1_555
C44 C43 1_555 1_555
H53 C44 1_555 1_555
H54 C44 1_555 1_555
C45 C41 1_555 1_555
C46 C45 1_555 1_555
C47 C46 1_555 1_555
H55 C47 1_555 1_555
C48 C47 1_555 1_555
H56 C48 1_555 1_555
C49 C48 1_555 1_555
H57 C49 1_555 1_555
C50 C49 1_555 1_555
H58 C50 1_555 1_555
C51 N5 1_555 1_555
C52 C42 1_555 1_555
H59 C52 1_555 1_555
H60 C52 1_555 1_555
C53 C52 1_555 1_555
H61 C53 1_555 1_555
C54 C43 1_555 1_555
H62 C54 1_555 1_555
C55 H63 1_555 1_555
H64 C55 1_555 1_555
H65 C55 1_555 1_555
C56 C55 1_555 1_555
H66 C56 1_555 1_555
H67 C56 1_555 1_555
C57 C53 1_555 1_555
H68 C57 1_555 1_555
C58 N6 1_555 1_555
H69 C58 1_555 1_555
H70 C58 1_555 1_555
C59 C54 1_555 1_555
C60 O4 1_555 1_555
H71 C60 1_555 1_555
H72 C60 1_555 1_555
H73 C60 1_555 1_555
C61 N6 1_555 1_555
H74 C61 1_555 1_555
H75 C61 1_555 1_555
H76 C61 1_555 1_555
Cl1 C62 1_555 1_555
Cl2 C62 1_555 1_555
Cl3 C62 1_555 1_555
C62 H77 1_555 1_555
O5 H78 1_555 1_555
H79 O5 1_555 1_555
C6 C11 1_555 1_555
C10 C11 1_555 1_555
C14 C15 1_555 1_555
C14 C19 1_555 1_555
C17 C18 1_555 1_555
C18 C19 1_555 1_555
C20 C21 1_555 1_555
C23 C24 1_555 1_555
C25 C30 1_555 1_555
C29 C30 1_555 1_555
C32 C33 1_555 1_555
C35 C36 1_555 1_555
C36 C37 1_555 1_555
C41 C42 1_555 1_555
C44 C45 1_555 1_555
C46 C51 1_555 1_555
C50 C51 1_555 1_555
C53 C54 1_555 1_555
C56 C57 1_555 1_555
C57 C58 1_555 1_555

#END
