
#######################################################################
#
#                 Cambridge Crystallographic Data Centre
#                                CCDC 
#
#######################################################################
#
# If this CIF has been generated from an entry in the Cambridge 
# Structural Database, then it will include bibliographic, chemical, 
# crystal, experimental, refinement or atomic coordinate data resulting 
# from the CCDC's data processing and validation procedures.
#
#######################################################################

data_KIJFOA
_chemical_formula_moiety         'C31 H33 N2 O4'
_chemical_name_systematic        
"(S)-2-(2,2'-Diethoxy-1,1'-binaphthalen-6-yl)-4,4,5,5-tetramethyl-2-imidazoline-3-oxide-1-oxyl radical"
_symmetry_cell_setting           orthorhombic
_symmetry_space_group_name_H-M   'P 21 21 21'
_symmetry_Int_Tables_number      19
_space_group_name_Hall           'P 2ac 2ab'
loop_
_symmetry_equiv_pos_site_id
_symmetry_equiv_pos_as_xyz
1 x,y,z
2 1/2-x,-y,1/2+z
3 -x,1/2+y,1/2-z
4 1/2+x,1/2-y,-z
_cell_length_a                   9.2224(8)
_cell_length_b                   12.1074(9)
_cell_length_c                   23.9261(19)
_cell_angle_alpha                90
_cell_angle_beta                 90
_cell_angle_gamma                90
_cell_volume                     2671.57
_exptl_crystal_colour            colorless
_exptl_crystal_description       block
_cell_formula_units_Z            4
loop_
_atom_site_label
_atom_site_type_symbol
_atom_site_fract_x
_atom_site_fract_y
_atom_site_fract_z
C1 C 1.0053(5) 0.1330(4) -0.03335(17)
H1 H 0.9327 0.0822 -0.0204
H2 H 1.0407 0.1094 -0.0691
H3 H 0.9637 0.2054 -0.0367
C2 C 1.1283(4) 0.1363(3) 0.00763(13)
H4 H 1.1834 0.0683 0.0048
H5 H 1.1925 0.1970 -0.0019
C3 C 1.3530(5) 0.2254(4) 0.18280(19)
H6 H 1.3158 0.2785 0.1567
H7 H 1.4447 0.1981 0.1697
H8 H 1.3656 0.2597 0.2186
C4 C 1.2520(4) 0.1347(3) 0.18782(18)
H9 H 1.2463 0.0957 0.1525
H10 H 1.2866 0.0833 0.2159
C5 C 1.0060(3) 0.2434(2) 0.07850(11)
C6 C 1.0290(4) 0.3449(3) 0.05022(13)
H11 H 1.0951 0.3491 0.0210
C7 C 0.9540(3) 0.4355(2) 0.06617(13)
H12 H 0.9692 0.5015 0.0471
C8 C 0.8540(3) 0.4337(2) 0.11035(12)
C9 C 0.7721(4) 0.5268(2) 0.12605(16)
H13 H 0.7846 0.5928 0.1068
C10 C 0.6762(4) 0.5223(3) 0.16829(17)
H14 H 0.6230 0.5848 0.1778
C11 C 0.6559(4) 0.4231(3) 0.19824(14)
H15 H 0.5895 0.4203 0.2275
C12 C 0.7339(3) 0.3313(2) 0.18433(12)
H16 H 0.7205 0.2664 0.2044
C13 C 0.8341(3) 0.3333(2) 0.14010(11)
C14 C 0.9129(3) 0.2374(2) 0.12320(10)
C15 C 0.8970(3) 0.1309(2) 0.15403(10)
C16 C 0.9995(3) 0.1011(2) 0.19267(11)
C17 C 0.9883(3) 0.0019(2) 0.22268(12)
H17 H 1.0584 -0.0162 0.2491
C18 C 0.8761(3) -0.0674(2) 0.21345(12)
H18 H 0.8700 -0.1329 0.2336
C19 C 0.7675(3) -0.0421(2) 0.17364(11)
C20 C 0.7791(3) 0.0592(2) 0.14383(11)
C21 C 0.6689(3) 0.0825(2) 0.10445(11)
H19 H 0.6739 0.1483 0.0844
C22 C 0.5565(3) 0.0132(2) 0.09461(13)
H20 H 0.4863 0.0320 0.0683
C23 C 0.5454(3) -0.0886(2) 0.12451(11)
C24 C 0.6494(3) -0.1137(2) 0.16289(11)
H21 H 0.6426 -0.1798 0.1826
C25 C 0.4230(3) -0.1621(2) 0.11444(11)
C26 C 0.2478(3) -0.3033(2) 0.12693(14)
C27 C 0.2143(4) -0.2406(3) 0.07253(13)
C28 C 0.2068(9) -0.3047(6) 0.01991(19)
H22 H 0.2068 -0.2550 -0.0113
H23 H 0.1194 -0.3479 0.0195
H24 H 0.2892 -0.3529 0.0175
C29 C 0.0808(5) -0.1680(6) 0.0773(3)
H25 H 0.0831 -0.1288 0.1121
H26 H -0.0046 -0.2132 0.0757
H27 H 0.0794 -0.1161 0.0469
C30 C 0.1288(5) -0.3073(5) 0.1687(2)
H28 H 0.0457 -0.3428 0.1526
H29 H 0.1035 -0.2334 0.1797
H30 H 0.1603 -0.3480 0.2009
C31 C 0.3081(7) -0.4186(3) 0.1173(3)
H31 H 0.3561 -0.4437 0.1506
H32 H 0.3761 -0.4169 0.0869
H33 H 0.2302 -0.4681 0.1083
N1 N 0.3393(3) -0.1637(2) 0.06838(10)
N2 N 0.3721(3) -0.23895(19) 0.14989(9)
O1 O 0.4247(3) -0.26235(18) 0.19784(9)
O2 O 0.3555(3) -0.1055(2) 0.02433(9)
O3 O 1.0786(3) 0.14983(18) 0.06416(8)
O4 O 1.1121(2) 0.17289(16) 0.20293(9)
loop_
_geom_bond_atom_site_label_1
_geom_bond_atom_site_label_2
_geom_bond_site_symmetry_1
_geom_bond_site_symmetry_2
C1 H1 1_555 1_555
H2 C1 1_555 1_555
H3 C1 1_555 1_555
C2 C1 1_555 1_555
H4 C2 1_555 1_555
H5 C2 1_555 1_555
C3 H6 1_555 1_555
H7 C3 1_555 1_555
H8 C3 1_555 1_555
C4 C3 1_555 1_555
H9 C4 1_555 1_555
H10 C4 1_555 1_555
C5 C6 1_555 1_555
C6 H11 1_555 1_555
C7 C6 1_555 1_555
H12 C7 1_555 1_555
C8 C7 1_555 1_555
C9 C8 1_555 1_555
H13 C9 1_555 1_555
C10 C9 1_555 1_555
H14 C10 1_555 1_555
C11 C10 1_555 1_555
H15 C11 1_555 1_555
C12 C11 1_555 1_555
H16 C12 1_555 1_555
C13 C8 1_555 1_555
C14 C5 1_555 1_555
C15 C14 1_555 1_555
C16 C15 1_555 1_555
C17 C16 1_555 1_555
H17 C17 1_555 1_555
C18 C17 1_555 1_555
H18 C18 1_555 1_555
C19 C18 1_555 1_555
C20 C15 1_555 1_555
C21 C20 1_555 1_555
H19 C21 1_555 1_555
C22 C21 1_555 1_555
H20 C22 1_555 1_555
C23 C22 1_555 1_555
C24 C19 1_555 1_555
H21 C24 1_555 1_555
C25 C23 1_555 1_555
C26 C27 1_555 1_555
C27 C28 1_555 1_555
C28 H22 1_555 1_555
H23 C28 1_555 1_555
H24 C28 1_555 1_555
C29 C27 1_555 1_555
H25 C29 1_555 1_555
H26 C29 1_555 1_555
H27 C29 1_555 1_555
C30 C26 1_555 1_555
H28 C30 1_555 1_555
H29 C30 1_555 1_555
H30 C30 1_555 1_555
C31 C26 1_555 1_555
H31 C31 1_555 1_555
H32 C31 1_555 1_555
H33 C31 1_555 1_555
N1 C25 1_555 1_555
N2 C25 1_555 1_555
O1 N2 1_555 1_555
O2 N1 1_555 1_555
O3 C2 1_555 1_555
O4 C4 1_555 1_555
C5 O3 1_555 1_555
C12 C13 1_555 1_555
C13 C14 1_555 1_555
C16 O4 1_555 1_555
C19 C20 1_555 1_555
C23 C24 1_555 1_555
C26 N2 1_555 1_555
C27 N1 1_555 1_555

#END
