
#######################################################################
#
#                 Cambridge Crystallographic Data Centre
#                                CCDC 
#
#######################################################################
#
# If this CIF has been generated from an entry in the Cambridge 
# Structural Database, then it will include bibliographic, chemical, 
# crystal, experimental, refinement or atomic coordinate data resulting 
# from the CCDC's data processing and validation procedures.
#
#######################################################################

data_KIJFUG
_chemical_formula_moiety         'C38 H44 N4 O6'
_chemical_name_systematic        
"(S)-2,2'-(2,2'-Diethoxy-1,1'-binaphthalene-6,6'-diyl)bis(4,4,5,5-tetramethyl-2-imidazoline-3-oxide-1-oxyl) diradical"
_symmetry_cell_setting           tetragonal
_symmetry_space_group_name_H-M   'P 41 21 2'
_symmetry_Int_Tables_number      92
_space_group_name_Hall           'P 4abw 2nw'
loop_
_symmetry_equiv_pos_site_id
_symmetry_equiv_pos_as_xyz
1 x,y,z
2 -x,-y,1/2+z
3 1/2-y,1/2+x,1/4+z
4 1/2+y,1/2-x,3/4+z
5 1/2-x,1/2+y,1/4-z
6 1/2+x,1/2-y,3/4-z
7 y,x,-z
8 -y,-x,1/2-z
_cell_length_a                   14.070(5)
_cell_length_b                   14.070(5)
_cell_length_c                   17.934(10)
_cell_angle_alpha                90
_cell_angle_beta                 90
_cell_angle_gamma                90
_cell_volume                     3550.3
_cell_formula_units_Z            4
loop_
_atom_site_label
_atom_site_type_symbol
_atom_site_fract_x
_atom_site_fract_y
_atom_site_fract_z
N1 N 0.35573(11) 0.98083(12) 1.03501(9)
N2 N 0.35614(12) 0.83362(13) 1.07376(9)
O1 O 0.38365(11) 1.05985(11) 1.00658(9)
O2 O 0.38238(13) 0.74818(11) 1.08741(10)
O3 O 0.93277(11) 0.89550(14) 0.90013(9)
C1 C 0.26287(16) 0.97179(18) 1.07414(12)
C2 C 0.25431(14) 0.86267(17) 1.08246(11)
C3 C 0.40931(14) 0.90289(14) 1.04302(10)
C4 C 0.50930(13) 0.89401(14) 1.02438(10)
C5 C 0.54758(14) 0.93620(14) 0.96195(11)
H1 H 0.5085 0.9715 0.9306
C6 C 0.64411(13) 0.92690(13) 0.94478(10)
C7 C 0.68417(16) 0.96582(15) 0.87845(11)
H2 H 0.6455 0.9989 0.8454
C8 C 0.77759(17) 0.95533(16) 0.86289(11)
H3 H 0.8026 0.9814 0.8195
C9 C 0.83709(15) 0.90522(15) 0.91203(11)
C10 C 0.80244(13) 0.86364(13) 0.97587(10)
C11 C 0.70450(13) 0.87441(13) 0.99353(9)
C12 C 0.66312(14) 0.83320(14) 1.05778(10)
H4 H 0.7015 0.7993 1.0905
C13 C 0.56959(14) 0.84171(15) 1.07287(10)
H5 H 0.5444 0.8132 1.1153
C14 C 0.9676(2) 0.8789(3) 0.82880(15)
H6 H 0.9699 0.9380 0.8010
H7 H 0.9262 0.8351 0.8026
C15 C 1.0622(3) 0.8389(4) 0.8349(2)
H8 H 1.1042 0.8850 0.8567
H9 H 1.0849 0.8218 0.7863
H10 H 1.0602 0.7833 0.8660
C16 C 0.2004(2) 0.8131(2) 1.01981(14)
H11 H 0.2208 0.8381 0.9726
H12 H 0.1334 0.8240 1.0258
H13 H 0.2129 0.7461 1.0216
C17 C 0.21916(18) 0.8284(2) 1.15848(12)
H14 H 0.2144 0.7603 1.1583
H15 H 0.1578 0.8554 1.1685
H16 H 0.2631 0.8479 1.1964
C18 C 0.18632(19) 1.0203(3) 1.02866(18)
H17 H 0.1988 1.0873 1.0266
H18 H 0.1255 1.0095 1.0515
H19 H 0.1861 0.9947 0.9790
C19 C 0.2762(2) 1.0229(2) 1.14909(15)
H20 H 0.3225 0.9896 1.1784
H21 H 0.2168 1.0244 1.1754
H22 H 0.2976 1.0868 1.1403
N1F N 0.98083(12) 0.35573(11) 0.96499(9)
N2F N 0.83362(13) 0.35614(12) 0.92624(9)
O1F O 1.05985(11) 0.38365(11) 0.99342(9)
O2F O 0.74818(11) 0.38238(13) 0.91259(10)
O3F O 0.89550(14) 0.93277(11) 1.09987(9)
C1F C 0.97179(18) 0.26287(16) 0.92586(12)
C2F C 0.86267(17) 0.25431(14) 0.91754(11)
C3F C 0.90289(14) 0.40931(14) 0.95698(10)
C4F C 0.89401(14) 0.50930(13) 0.97562(10)
C5F C 0.93620(14) 0.54758(14) 1.03805(11)
H1F H 0.9715 0.5085 1.0694
C6F C 0.92690(13) 0.64411(13) 1.05522(10)
C7F C 0.96582(15) 0.68417(16) 1.12155(11)
H2F H 0.9989 0.6455 1.1546
C8F C 0.95533(16) 0.77759(17) 1.13711(11)
H3F H 0.9814 0.8026 1.1805
C9F C 0.90522(15) 0.83709(15) 1.08797(11)
C10F C 0.86364(13) 0.80244(13) 1.02413(10)
C11F C 0.87441(13) 0.70450(13) 1.00647(9)
C12F C 0.83320(14) 0.66312(14) 0.94222(10)
H4F H 0.7993 0.7015 0.9095
C13F C 0.84171(15) 0.56959(14) 0.92713(10)
H5F H 0.8132 0.5444 0.8847
C14F C 0.8789(3) 0.9676(2) 1.17120(15)
H6F H 0.9380 0.9699 1.1990
H7F H 0.8351 0.9262 1.1974
C15F C 0.8389(4) 1.0622(3) 1.1651(2)
H8F H 0.8850 1.1042 1.1433
H9F H 0.8218 1.0849 1.2137
H10F H 0.7833 1.0602 1.1340
C16F C 0.8131(2) 0.2004(2) 0.98019(14)
H11F H 0.8381 0.2208 1.0274
H12F H 0.8240 0.1334 0.9742
H13F H 0.7461 0.2129 0.9784
C17F C 0.8284(2) 0.21916(18) 0.84152(12)
H14F H 0.7603 0.2144 0.8417
H15F H 0.8554 0.1578 0.8315
H16F H 0.8479 0.2631 0.8036
C18F C 1.0203(3) 0.18632(19) 0.97134(18)
H17F H 1.0873 0.1988 0.9734
H18F H 1.0095 0.1255 0.9485
H19F H 0.9947 0.1861 1.0210
C19F C 1.0229(2) 0.2762(2) 0.85091(15)
H20F H 0.9896 0.3225 0.8216
H21F H 1.0244 0.2168 0.8246
H22F H 1.0868 0.2976 0.8597
loop_
_geom_bond_atom_site_label_1
_geom_bond_atom_site_label_2
_geom_bond_site_symmetry_1
_geom_bond_site_symmetry_2
N1 O1 1_555 1_555
N2 O2 1_555 1_555
O3 C9 1_555 1_555
C1 N1 1_555 1_555
C2 N2 1_555 1_555
C3 N1 1_555 1_555
C4 C3 1_555 1_555
C5 C4 1_555 1_555
H1 C5 1_555 1_555
C6 C5 1_555 1_555
C7 C6 1_555 1_555
H2 C7 1_555 1_555
C8 C7 1_555 1_555
H3 C8 1_555 1_555
C9 C8 1_555 1_555
C10 C9 1_555 1_555
C11 C6 1_555 1_555
C12 C11 1_555 1_555
H4 C12 1_555 1_555
C13 C4 1_555 1_555
H5 C13 1_555 1_555
C14 O3 1_555 1_555
H6 C14 1_555 1_555
H7 C14 1_555 1_555
C15 C14 1_555 1_555
H8 C15 1_555 1_555
H9 C15 1_555 1_555
H10 C15 1_555 1_555
C16 C2 1_555 1_555
H11 C16 1_555 1_555
H12 C16 1_555 1_555
H13 C16 1_555 1_555
C17 C2 1_555 1_555
H14 C17 1_555 1_555
H15 C17 1_555 1_555
H16 C17 1_555 1_555
C18 C1 1_555 1_555
H17 C18 1_555 1_555
H18 C18 1_555 1_555
H19 C18 1_555 1_555
C19 C1 1_555 1_555
H20 C19 1_555 1_555
H21 C19 1_555 1_555
H22 C19 1_555 1_555
N1F O1F 1_555 1_555
N2F O2F 1_555 1_555
O3F C9F 1_555 1_555
C1F N1F 1_555 1_555
C2F N2F 1_555 1_555
C3F N1F 1_555 1_555
C4F C3F 1_555 1_555
C5F C4F 1_555 1_555
H1F C5F 1_555 1_555
C6F C5F 1_555 1_555
C7F C6F 1_555 1_555
H2F C7F 1_555 1_555
C8F C7F 1_555 1_555
H3F C8F 1_555 1_555
C9F C8F 1_555 1_555
C10F C10 1_555 1_555
C11F C6F 1_555 1_555
C12F C11F 1_555 1_555
H4F C12F 1_555 1_555
C13F C4F 1_555 1_555
H5F C13F 1_555 1_555
C14F O3F 1_555 1_555
H6F C14F 1_555 1_555
H7F C14F 1_555 1_555
C15F C14F 1_555 1_555
H8F C15F 1_555 1_555
H9F C15F 1_555 1_555
H10F C15F 1_555 1_555
C16F C2F 1_555 1_555
H11F C16F 1_555 1_555
H12F C16F 1_555 1_555
H13F C16F 1_555 1_555
C17F C2F 1_555 1_555
H14F C17F 1_555 1_555
H15F C17F 1_555 1_555
H16F C17F 1_555 1_555
C18F C1F 1_555 1_555
H17F C18F 1_555 1_555
H18F C18F 1_555 1_555
H19F C18F 1_555 1_555
C19F C1F 1_555 1_555
H20F C19F 1_555 1_555
H21F C19F 1_555 1_555
H22F C19F 1_555 1_555
N2 C3 1_555 1_555
C1 C2 1_555 1_555
C10 C11 1_555 1_555
C12 C13 1_555 1_555
N2F C3F 1_555 1_555
C1F C2F 1_555 1_555
C9F C10F 1_555 1_555
C10F C11F 1_555 1_555
C12F C13F 1_555 1_555

#END
