
#######################################################################
#
#                 Cambridge Crystallographic Data Centre
#                                CCDC 
#
#######################################################################
#
# If this CIF has been generated from an entry in the Cambridge 
# Structural Database, then it will include bibliographic, chemical, 
# crystal, experimental, refinement or atomic coordinate data resulting 
# from the CCDC's data processing and validation procedures.
#
#######################################################################

data_KIJFAN
_chemical_compound_source        'Ervatamia divaricata'
_chemical_name_common            'ervadivamine B hydrate'
_chemical_formula_moiety         'C62 H78 N6 O5'
_chemical_name_systematic        
"dimethyl 3,3'-(12-methoxyibogamine-13,16-diyl)bis(19,20-dihydrovobasan-17-oate) hydrate"
_chemical_properties_biological  
'tested for cytotoxic activity against human lung cancer cell line A549, human colon cell line HT-29, human breast adenocarcinoma cell line MCF-7 and human hepatocellular carcinoma cell line HepG2'
_symmetry_cell_setting           orthorhombic
_symmetry_space_group_name_H-M   'P 21 21 21'
_symmetry_Int_Tables_number      19
_space_group_name_Hall           'P 2ac 2ab'
loop_
_symmetry_equiv_pos_site_id
_symmetry_equiv_pos_as_xyz
1 x,y,z
2 1/2-x,-y,1/2+z
3 -x,1/2+y,1/2-z
4 1/2+x,1/2-y,-z
_cell_length_a                   12.6557(2)
_cell_length_b                   17.4453(3)
_cell_length_c                   29.2029(5)
_cell_angle_alpha                90
_cell_angle_beta                 90
_cell_angle_gamma                90
_cell_volume                     6447.49
_exptl_crystal_colour            colorless
_exptl_crystal_description       block
_cell_formula_units_Z            4
loop_
_atom_site_label
_atom_site_type_symbol
_atom_site_fract_x
_atom_site_fract_y
_atom_site_fract_z
O1 O 0.72786(16) 0.42108(9) 0.54010(7)
O2 O 0.37564(16) 0.93607(10) 0.68462(6)
O3 O 0.54780(17) 0.96510(10) 0.69260(7)
O4 O 0.85675(15) 0.49545(10) 0.56827(7)
O5 O 0.16617(15) 0.72886(11) 0.65138(7)
N1 N 0.59633(16) 0.51439(11) 0.63781(7)
H1 H 0.5523 0.4785 0.6445
N2 N 0.42694(16) 0.51663(10) 0.57097(7)
N3 N 0.47224(18) 0.82888(11) 0.59377(7)
H2 H 0.4168 0.8315 0.5768
N4 N 0.60672(19) 0.79679(12) 0.78580(7)
N5 N 0.7955(2) 0.67438(12) 0.48038(7)
C1 C 0.37220(19) 0.57617(13) 0.59146(7)
C2 C 0.33770(19) 0.69310(13) 0.63104(8)
C3 C 0.4760(2) 0.79563(12) 0.63702(8)
C4 C 0.4092(2) 0.64421(12) 0.61092(7)
H3 H 0.4808 0.6562 0.6103
C5 C 0.53851(19) 0.51980(12) 0.55707(8)
H4 H 0.5607 0.4668 0.5513
C6 C 0.60603(19) 0.54921(12) 0.59551(8)
C7 C 0.2649(2) 0.55593(13) 0.59201(8)
C8 C 0.6383(2) 0.84166(13) 0.61898(8)
C9 C 0.5694(2) 0.85675(13) 0.58226(8)
C10 C 0.2554(2) 0.48232(14) 0.57126(9)
C11 C 0.5778(2) 0.80194(13) 0.65351(8)
C12 C 0.4597(2) 0.92273(13) 0.70131(8)
C13 C 0.68490(19) 0.60369(13) 0.59711(8)
C14 C 0.8085(2) 0.64022(15) 0.66474(9)
H5 H 0.8478 0.6768 0.6491
C15 C 0.3555(2) 0.45951(13) 0.55856(8)
C16 C 0.3410(2) 0.31451(14) 0.55735(9)
H6 H 0.3503 0.3163 0.5907
C17 C 0.72638(19) 0.60152(13) 0.64281(8)
C18 C 0.6678(2) 0.54609(13) 0.66740(8)
C19 C 0.2287(2) 0.67450(14) 0.63077(8)
C20 C 0.3759(2) 0.76425(13) 0.65680(8)
H7 H 0.3213 0.8038 0.6541
N6 N 0.2290(2) 0.30648(15) 0.54703(11)
C21 C 0.5941(2) 0.83188(14) 0.73944(8)
H8 H 0.6427 0.8755 0.7378
C22 C 0.6217(2) 0.77762(14) 0.69887(8)
H9 H 0.6980 0.7743 0.6963
H10 H 0.5955 0.7267 0.7059
C23 C 0.7915(2) 0.62530(13) 0.52174(9)
H11 H 0.8638 0.6209 0.5335
C24 C 0.4814(2) 0.86450(14) 0.73842(8)
H12 H 0.4771 0.8946 0.7667
C25 C 0.7752(2) 0.48133(14) 0.54007(9)
C26 C 0.7572(2) 0.54525(13) 0.50584(9)
H13 H 0.8062 0.5333 0.4809
C27 C 0.6892(2) 0.53006(15) 0.71366(9)
H14 H 0.6496 0.4943 0.7299
C28 C 0.1918(2) 0.60724(15) 0.61196(9)
H15 H 0.1200 0.5958 0.6124
C29 C 0.6484(2) 0.54348(14) 0.48291(8)
H16 H 0.6382 0.4916 0.4708
C30 C 0.6936(2) 0.67776(15) 0.45649(9)
H17 H 0.7008 0.7102 0.4297
H18 H 0.6418 0.7012 0.4766
C31 C 0.8307(2) 0.62357(16) 0.71001(9)
H19 H 0.8860 0.6488 0.7246
C32 C 0.7223(2) 0.65877(13) 0.56088(8)
H20 H 0.7622 0.6991 0.5758
H21 H 0.6606 0.6825 0.5471
C33 C 0.5505(2) 0.56291(14) 0.51178(8)
H22 H 0.5518 0.6174 0.5184
H23 H 0.4882 0.5530 0.4934
C34 C 0.3833(2) 0.74047(13) 0.70765(8)
H24 H 0.4430 0.7060 0.7107
H25 H 0.3203 0.7112 0.7150
C35 C 0.3953(2) 0.80372(14) 0.74441(8)
H26 H 0.3275 0.8308 0.7462
C36 C 0.3902(2) 0.38688(13) 0.53618(9)
H27 H 0.4670 0.3831 0.5399
C37 C 0.6524(3) 0.59875(15) 0.44135(9)
H28 H 0.5795 0.6060 0.4309
C38 C 0.6031(3) 0.89563(15) 0.54286(9)
H29 H 0.5572 0.9045 0.5186
C39 C 0.5277(2) 0.73634(14) 0.79532(9)
H30 H 0.5390 0.7169 0.8261
H31 H 0.5386 0.6942 0.7742
C40 C 0.3999(2) 0.24444(14) 0.53835(10)
H32 H 0.4756 0.2520 0.5438
C41 C 0.7156(3) 0.56691(18) 0.40046(9)
H33 H 0.7153 0.6049 0.3762
H34 H 0.7883 0.5596 0.4099
C42 C 0.4130(2) 0.76392(15) 0.79118(8)
H35 H 0.3684 0.7180 0.7914
C43 C 0.7430(2) 0.86695(16) 0.61652(10)
H36 H 0.7893 0.8577 0.6406
C44 C 0.7713(2) 0.56940(17) 0.73417(9)
H37 H 0.7874 0.5597 0.7647
C45 C 0.3775(3) 0.81374(17) 0.83181(9)
H38 H 0.4306 0.8527 0.8373
H39 H 0.3124 0.8397 0.8236
C46 C 0.8719(2) 0.44016(17) 0.60440(10)
H40 H 0.8945 0.3923 0.5915
H41 H 0.8065 0.4328 0.6205
H42 H 0.9247 0.4586 0.6253
C47 C 0.3673(3) 0.16963(15) 0.56141(10)
H43 H 0.3669 0.1770 0.5943
H44 H 0.2959 0.1567 0.5520
C48 C 0.8317(3) 0.75180(16) 0.49206(10)
H45 H 0.7804 0.7762 0.5114
H46 H 0.8404 0.7812 0.4645
H47 H 0.8980 0.7487 0.5079
C49 C 0.1540(2) 0.43972(17) 0.56369(11)
H48 H 0.1323 0.4477 0.5322
H49 H 0.1003 0.4624 0.5831
C50 C 0.7063(3) 0.92019(16) 0.54132(10)
H50 H 0.7299 0.9468 0.5157
C51 C 0.7132(3) 0.76913(18) 0.79362(10)
H51 H 0.7265 0.7256 0.7743
H52 H 0.7208 0.7544 0.8251
H53 H 0.7629 0.8090 0.7866
C52 C 0.4402(3) 0.10330(15) 0.54977(12)
H54 H 0.4446 0.0978 0.5171
H55 H 0.4127 0.0569 0.5629
H56 H 0.5093 0.1132 0.5620
C53 C 0.1563(3) 0.35392(18) 0.57279(13)
H57 H 0.1716 0.3467 0.6050
H58 H 0.0856 0.3343 0.5675
C54 C 0.3817(3) 0.24277(15) 0.48553(10)
H59 H 0.4490 0.2450 0.4698
H60 H 0.3466 0.1954 0.4770
C55 C 0.7774(3) 0.90608(17) 0.57772(11)
H61 H 0.8470 0.9229 0.5757
C56 C 0.5360(3) 1.02386(17) 0.65807(11)
H62 H 0.5326 1.0004 0.6284
H63 H 0.5954 1.0580 0.6593
H64 H 0.4722 1.0522 0.6636
C57 C 0.6743(3) 0.4917(2) 0.38125(11)
H65 H 0.7095 0.4805 0.3529
H66 H 0.5997 0.4958 0.3760
H67 H 0.6877 0.4512 0.4027
C58 C 0.3146(4) 0.3101(2) 0.47174(12)
H68 H 0.3015 0.3085 0.4387
C59 C 0.0552(2) 0.7164(2) 0.64983(13)
H69 H 0.0329 0.7119 0.6185
H70 H 0.0195 0.7587 0.6640
H71 H 0.0383 0.6700 0.6659
C60 C 0.3598(4) 0.7701(2) 0.87517(11)
H72 H 0.3040 0.7336 0.8707
H73 H 0.3406 0.8050 0.8992
H74 H 0.4235 0.7437 0.8835
C61 C 0.3663(5) 0.38489(19) 0.48419(11)
H75 H 0.3200 0.4271 0.4762
H76 H 0.4316 0.3907 0.4671
C62 C 0.2108(4) 0.3062(4) 0.49724(18)
H77 H 0.1673 0.3498 0.4889
H78 H 0.1733 0.2599 0.4886
loop_
_geom_bond_atom_site_label_1
_geom_bond_atom_site_label_2
_geom_bond_site_symmetry_1
_geom_bond_site_symmetry_2
O1 C25 1_555 1_555
O2 C12 1_555 1_555
O3 C12 1_555 1_555
O4 C25 1_555 1_555
O5 C19 1_555 1_555
N1 H1 1_555 1_555
N2 C1 1_555 1_555
N3 H2 1_555 1_555
N4 C21 1_555 1_555
N5 C23 1_555 1_555
C1 C4 1_555 1_555
C2 C4 1_555 1_555
C3 N3 1_555 1_555
C4 H3 1_555 1_555
C5 N2 1_555 1_555
H4 C5 1_555 1_555
C6 N1 1_555 1_555
C7 C1 1_555 1_555
C8 C9 1_555 1_555
C9 N3 1_555 1_555
C10 C7 1_555 1_555
C11 C3 1_555 1_555
C12 C24 1_555 1_555
C13 C6 1_555 1_555
C14 H5 1_555 1_555
C15 N2 1_555 1_555
C16 H6 1_555 1_555
C17 C13 1_555 1_555
C18 N1 1_555 1_555
C19 C2 1_555 1_555
C20 C2 1_555 1_555
H7 C20 1_555 1_555
N6 C16 1_555 1_555
C21 H8 1_555 1_555
C22 C11 1_555 1_555
H9 C22 1_555 1_555
H10 C22 1_555 1_555
C23 H11 1_555 1_555
C24 C21 1_555 1_555
H12 C24 1_555 1_555
C25 C26 1_555 1_555
C26 C23 1_555 1_555
H13 C26 1_555 1_555
C27 C18 1_555 1_555
H14 C27 1_555 1_555
C28 C7 1_555 1_555
H15 C28 1_555 1_555
C29 C26 1_555 1_555
H16 C29 1_555 1_555
C30 N5 1_555 1_555
H17 C30 1_555 1_555
H18 C30 1_555 1_555
C31 C14 1_555 1_555
H19 C31 1_555 1_555
C32 C13 1_555 1_555
H20 C32 1_555 1_555
H21 C32 1_555 1_555
C33 C5 1_555 1_555
H22 C33 1_555 1_555
H23 C33 1_555 1_555
C34 C20 1_555 1_555
H24 C34 1_555 1_555
H25 C34 1_555 1_555
C35 C24 1_555 1_555
H26 C35 1_555 1_555
C36 C15 1_555 1_555
H27 C36 1_555 1_555
C37 C29 1_555 1_555
H28 C37 1_555 1_555
C38 C9 1_555 1_555
H29 C38 1_555 1_555
C39 N4 1_555 1_555
H30 C39 1_555 1_555
H31 C39 1_555 1_555
C40 C16 1_555 1_555
H32 C40 1_555 1_555
C41 C37 1_555 1_555
H33 C41 1_555 1_555
H34 C41 1_555 1_555
C42 C35 1_555 1_555
H35 C42 1_555 1_555
C43 C8 1_555 1_555
H36 C43 1_555 1_555
C44 C27 1_555 1_555
H37 C44 1_555 1_555
C45 C42 1_555 1_555
H38 C45 1_555 1_555
H39 C45 1_555 1_555
C46 O4 1_555 1_555
H40 C46 1_555 1_555
H41 C46 1_555 1_555
H42 C46 1_555 1_555
C47 C40 1_555 1_555
H43 C47 1_555 1_555
H44 C47 1_555 1_555
C48 N5 1_555 1_555
H45 C48 1_555 1_555
H46 C48 1_555 1_555
H47 C48 1_555 1_555
C49 C10 1_555 1_555
H48 C49 1_555 1_555
H49 C49 1_555 1_555
C50 C38 1_555 1_555
H50 C50 1_555 1_555
C51 N4 1_555 1_555
H51 C51 1_555 1_555
H52 C51 1_555 1_555
H53 C51 1_555 1_555
C52 C47 1_555 1_555
H54 C52 1_555 1_555
H55 C52 1_555 1_555
H56 C52 1_555 1_555
C53 N6 1_555 1_555
H57 C53 1_555 1_555
H58 C53 1_555 1_555
C54 C40 1_555 1_555
H59 C54 1_555 1_555
H60 C54 1_555 1_555
C55 C43 1_555 1_555
H61 C55 1_555 1_555
C56 O3 1_555 1_555
H62 C56 1_555 1_555
H63 C56 1_555 1_555
H64 C56 1_555 1_555
C57 C41 1_555 1_555
H65 C57 1_555 1_555
H66 C57 1_555 1_555
H67 C57 1_555 1_555
C58 C54 1_555 1_555
H68 C58 1_555 1_555
C59 O5 1_555 1_555
H69 C59 1_555 1_555
H70 C59 1_555 1_555
H71 C59 1_555 1_555
C60 C45 1_555 1_555
H72 C60 1_555 1_555
H73 C60 1_555 1_555
H74 C60 1_555 1_555
C61 C36 1_555 1_555
H75 C61 1_555 1_555
H76 C61 1_555 1_555
C62 N6 1_555 1_555
H77 C62 1_555 1_555
H78 C62 1_555 1_555
C3 C20 1_555 1_555
C5 C6 1_555 1_555
C8 C11 1_555 1_555
C10 C15 1_555 1_555
C14 C17 1_555 1_555
C16 C36 1_555 1_555
C17 C18 1_555 1_555
C19 C28 1_555 1_555
C21 C22 1_555 1_555
C23 C32 1_555 1_555
C29 C33 1_555 1_555
C30 C37 1_555 1_555
C31 C44 1_555 1_555
C34 C35 1_555 1_555
C39 C42 1_555 1_555
C49 C53 1_555 1_555
C50 C55 1_555 1_555
C58 C61 1_555 1_555
C58 C62 1_555 1_555

#END
