
#######################################################################
#
#                 Cambridge Crystallographic Data Centre
#                                CCDC 
#
#######################################################################
#
# If this CIF has been generated from an entry in the Cambridge 
# Structural Database, then it will include bibliographic, chemical, 
# crystal, experimental, refinement or atomic coordinate data resulting 
# from the CCDC's data processing and validation procedures.
#
#######################################################################

data_KIJGES
_chemical_formula_moiety         'C24 H20 O6'
_chemical_name_systematic        
7-(4-methoxyphenyl)-6a,13a-dihydro-6H,7H,10H-[1,3]dioxolo[6,7][1]benzopyrano[3,2-c][1]benzopyran-6-ol
_symmetry_cell_setting           monoclinic
_symmetry_space_group_name_H-M   'P 21'
_symmetry_Int_Tables_number      4
_space_group_name_Hall           'P 2yb'
loop_
_symmetry_equiv_pos_site_id
_symmetry_equiv_pos_as_xyz
1 x,y,z
2 -x,1/2+y,-z
_cell_length_a                   10.8962(4)
_cell_length_b                   16.0389(4)
_cell_length_c                   11.6123(3)
_cell_angle_alpha                90
_cell_angle_beta                 104.434(3)
_cell_angle_gamma                90
_cell_volume                     1965.34
_exptl_crystal_colour            colorless
_exptl_crystal_description       irregular
_cell_formula_units_Z            4
loop_
_atom_site_label
_atom_site_type_symbol
_atom_site_fract_x
_atom_site_fract_y
_atom_site_fract_z
O1 O 0.4221(2) 0.51504(16) 0.2408(2)
H1 H 0.4673 0.5531 0.2744
O2 O 0.1249(3) 0.33584(16) 0.17638(19)
O3 O 0.2612(2) 0.55991(14) 0.32318(19)
O4 O 0.2075(3) 0.69181(17) -0.3222(3)
O5 O -0.0451(3) 0.16521(18) -0.1649(2)
O6 O 0.0510(3) 0.24114(19) -0.2874(2)
C1 C 0.1707(3) 0.36651(19) -0.0139(3)
C2 C 0.3387(3) 0.5398(2) -0.0954(3)
H2 H 0.4180 0.5170 -0.0615
C3 C 0.2138(3) 0.47018(18) 0.1496(3)
H3 H 0.1255 0.4890 0.1298
C4 C 0.2343(3) 0.51261(18) -0.0575(2)
C5 C 0.2245(3) 0.39317(18) 0.2272(3)
H4 H 0.3060 0.3662 0.2305
C6 C 0.2183(3) 0.4138(2) 0.3516(3)
C7 C 0.2963(3) 0.53975(19) 0.2153(3)
H5 H 0.2853 0.5893 0.1643
C8 C 0.2403(3) 0.49535(19) 0.3928(3)
C9 C 0.1142(3) 0.3186(2) 0.0581(3)
C10 C 0.2480(3) 0.44388(18) 0.0338(3)
H6 H 0.3374 0.4273 0.0552
C11 C 0.2095(3) 0.63465(19) -0.2349(3)
C12 C 0.1178(3) 0.5486(2) -0.1095(3)
H7 H 0.0469 0.5319 -0.0845
C13 C 0.3273(4) 0.6004(2) -0.1828(3)
H8 H 0.3986 0.6181 -0.2064
C14 C 0.0811(4) 0.2751(2) -0.1745(3)
C15 C 0.2381(3) 0.5152(2) 0.5091(3)
H9 H 0.2536 0.5695 0.5370
C16 C 0.1539(3) 0.3425(2) -0.1339(3)
H10 H 0.1922 0.3724 -0.1841
C17 C 0.1042(3) 0.6087(2) -0.1976(3)
H11 H 0.0250 0.6315 -0.2314
C18 C 0.1954(4) 0.3528(2) 0.4278(3)
H12 H 0.1828 0.2980 0.4013
C19 C 0.0234(4) 0.2289(2) -0.1025(3)
C20 C 0.0392(4) 0.2484(2) 0.0151(3)
H13 H 0.0019 0.2168 0.0643
C21 C 0.2126(4) 0.4533(3) 0.5825(3)
H14 H 0.2099 0.4666 0.6597
C22 C -0.0378(4) 0.1763(3) -0.2848(3)
H15 H -0.1205 0.1911 -0.3345
H16 H -0.0107 0.1249 -0.3149
C23 C 0.1911(4) 0.3721(3) 0.5433(3)
H17 H 0.1740 0.3310 0.5935
C24 C 0.0914(5) 0.7330(3) -0.3736(4)
H18 H 0.1026 0.7695 -0.4357
H19 H 0.0657 0.7649 -0.3137
H20 H 0.0275 0.6923 -0.4062
O7 O 0.5816(2) 0.64932(15) 0.37401(19)
O8 O 0.5094(3) 0.77534(17) 0.7890(2)
O9 O 0.9388(3) 0.5388(2) 0.4851(3)
H21 H 1.0023 0.5098 0.5074
O10 O 0.3893(3) 0.82899(18) 0.6112(3)
O11 O 0.8175(3) 0.45988(19) 0.3303(3)
C25 C 0.6368(3) 0.63868(19) 0.5893(3)
C26 C 0.7039(3) 0.6120(2) 0.3819(3)
H22 H 0.7703 0.6525 0.4160
C27 C 0.4666(4) 0.7666(2) 0.5891(3)
C28 C 0.5385(3) 0.73413(19) 0.6949(3)
C29 C 0.7185(3) 0.53654(19) 0.4623(3)
H23 H 0.6432 0.5014 0.4354
C30 C 0.7256(3) 0.5650(2) 0.5911(3)
H24 H 0.8123 0.5840 0.6264
O12 O 0.5964(5) 0.3043(3) 0.8732(4)
C31 C 0.6967(3) 0.4937(2) 0.6671(3)
C32 C 0.6228(3) 0.6716(2) 0.6982(3)
H25 H 0.6703 0.6509 0.7703
C33 C 0.5671(3) 0.6742(2) 0.4844(3)
C34 C 0.5732(4) 0.4710(2) 0.6623(4)
H26 H 0.5076 0.4991 0.6102
C35 C 0.7120(3) 0.5901(2) 0.2585(3)
C36 C 0.4790(4) 0.7383(2) 0.4822(3)
H27 H 0.4313 0.7604 0.4110
C37 C 0.7706(4) 0.5158(3) 0.2407(4)
C38 C 0.6381(5) 0.3646(3) 0.8076(4)
C39 C 0.8322(4) 0.4876(3) 0.4499(4)
H28 H 0.8426 0.4390 0.5025
C40 C 0.7905(4) 0.4486(3) 0.7420(3)
H29 H 0.8748 0.4610 0.7459
C41 C 0.7620(5) 0.3839(3) 0.8130(4)
H30 H 0.8271 0.3543 0.8636
C42 C 0.5440(5) 0.4084(3) 0.7313(4)
H31 H 0.4596 0.3957 0.7264
C43 C 0.4134(4) 0.8343(2) 0.7386(4)
H32 H 0.4412 0.8901 0.7651
H33 H 0.3367 0.8221 0.7634
C44 C 0.6733(6) 0.6206(4) 0.0489(4)
H34 H 0.6404 0.6558 -0.0151
C45 C 0.6640(4) 0.6418(3) 0.1622(3)
H35 H 0.6248 0.6915 0.1738
C46 C 0.7314(7) 0.5474(4) 0.0322(4)
H36 H 0.7368 0.5327 -0.0439
C47 C 0.7829(6) 0.4945(3) 0.1280(5)
H37 H 0.8246 0.4458 0.1164
C48 C 0.6851(9) 0.2607(4) 0.9576(6)
H38 H 0.7328 0.2249 0.9186
H39 H 0.6427 0.2277 1.0048
H40 H 0.7414 0.2993 1.0079
loop_
_geom_bond_atom_site_label_1
_geom_bond_atom_site_label_2
_geom_bond_site_symmetry_1
_geom_bond_site_symmetry_2
O1 H1 1_555 1_555
O2 C5 1_555 1_555
O3 C7 1_555 1_555
O4 C11 1_555 1_555
O5 C19 1_555 1_555
O6 C14 1_555 1_555
C1 C9 1_555 1_555
C2 H2 1_555 1_555
C3 H3 1_555 1_555
C4 C2 1_555 1_555
C5 C3 1_555 1_555
H4 C5 1_555 1_555
C6 C5 1_555 1_555
C7 O1 1_555 1_555
H5 C7 1_555 1_555
C8 O3 1_555 1_555
C9 O2 1_555 1_555
C10 C1 1_555 1_555
H6 C10 1_555 1_555
C11 C13 1_555 1_555
C12 C4 1_555 1_555
H7 C12 1_555 1_555
C13 C2 1_555 1_555
H8 C13 1_555 1_555
C14 C16 1_555 1_555
C15 C8 1_555 1_555
H9 C15 1_555 1_555
C16 C1 1_555 1_555
H10 C16 1_555 1_555
C17 C11 1_555 1_555
H11 C17 1_555 1_555
C18 C6 1_555 1_555
H12 C18 1_555 1_555
C19 C14 1_555 1_555
C20 C9 1_555 1_555
H13 C20 1_555 1_555
C21 C15 1_555 1_555
H14 C21 1_555 1_555
C22 O5 1_555 1_555
H15 C22 1_555 1_555
H16 C22 1_555 1_555
C23 C18 1_555 1_555
H17 C23 1_555 1_555
C24 O4 1_555 1_555
H18 C24 1_555 1_555
H19 C24 1_555 1_555
H20 C24 1_555 1_555
O7 C26 1_555 1_555
O8 C28 1_555 1_555
O9 H21 1_555 1_555
O10 C27 1_555 1_555
O11 C37 1_555 1_555
C25 C30 1_555 1_555
C26 H22 1_555 1_555
C27 C28 1_555 1_555
C28 C32 1_555 1_555
C29 C26 1_555 1_555
H23 C29 1_555 1_555
C30 C29 1_555 1_555
H24 C30 1_555 1_555
O12 C38 1_555 1_555
C31 C30 1_555 1_555
C32 C25 1_555 1_555
H25 C32 1_555 1_555
C33 O7 1_555 1_555
C34 C31 1_555 1_555
H26 C34 1_555 1_555
C35 C26 1_555 1_555
C36 C27 1_555 1_555
H27 C36 1_555 1_555
C37 C35 1_555 1_555
C38 C41 1_555 1_555
C39 O9 1_555 1_555
H28 C39 1_555 1_555
C40 C31 1_555 1_555
H29 C40 1_555 1_555
C41 C40 1_555 1_555
H30 C41 1_555 1_555
C42 C34 1_555 1_555
H31 C42 1_555 1_555
C43 O8 1_555 1_555
H32 C43 1_555 1_555
H33 C43 1_555 1_555
C44 H34 1_555 1_555
C45 C35 1_555 1_555
H35 C45 1_555 1_555
C46 C44 1_555 1_555
H36 C46 1_555 1_555
C47 C37 1_555 1_555
H37 C47 1_555 1_555
C48 O12 1_555 1_555
H38 C48 1_555 1_555
H39 C48 1_555 1_555
H40 C48 1_555 1_555
O6 C22 1_555 1_555
C3 C7 1_555 1_555
C3 C10 1_555 1_555
C4 C10 1_555 1_555
C6 C8 1_555 1_555
C12 C17 1_555 1_555
C19 C20 1_555 1_555
C21 C23 1_555 1_555
O10 C43 1_555 1_555
O11 C39 1_555 1_555
C25 C33 1_555 1_555
C29 C39 1_555 1_555
C33 C36 1_555 1_555
C38 C42 1_555 1_555
C44 C45 1_555 1_555
C46 C47 1_555 1_555

#END
