
#######################################################################
#
#                 Cambridge Crystallographic Data Centre
#                                CCDC 
#
#######################################################################
#
# If this CIF has been generated from an entry in the Cambridge 
# Structural Database, then it will include bibliographic, chemical, 
# crystal, experimental, refinement or atomic coordinate data resulting 
# from the CCDC's data processing and validation procedures.
#
#######################################################################

data_KIJGAN
_chemical_formula_moiety         'C31 H33 N2 O4'
_chemical_name_systematic        
"(R)-2-(2,2'-Diethoxy-1,1'-binaphthalen-6-yl)-4,4,5,5-tetramethyl-2-imidazoline-3-oxide-1-oxyl radical"
_symmetry_cell_setting           orthorhombic
_symmetry_space_group_name_H-M   'P 21 21 21'
_symmetry_Int_Tables_number      19
_space_group_name_Hall           'P 2ac 2ab'
loop_
_symmetry_equiv_pos_site_id
_symmetry_equiv_pos_as_xyz
1 x,y,z
2 1/2-x,-y,1/2+z
3 -x,1/2+y,1/2-z
4 1/2+x,1/2-y,-z
_cell_length_a                   9.2308(7)
_cell_length_b                   12.1004(10)
_cell_length_c                   24.048(2)
_cell_angle_alpha                90
_cell_angle_beta                 90
_cell_angle_gamma                90
_cell_volume                     2686.07
_exptl_crystal_colour            colorless
_exptl_crystal_description       block
_cell_formula_units_Z            4
loop_
_atom_site_label
_atom_site_type_symbol
_atom_site_fract_x
_atom_site_fract_y
_atom_site_fract_z
C1 C 1.297(4) -0.303(3) 0.0209(11)
H1 H 1.2165 -0.3535 0.0175
H2 H 1.3856 -0.3443 0.0211
H3 H 1.2963 -0.2531 -0.0101
C2 C 1.417(3) -0.169(3) 0.0759(13)
H4 H 1.4148 -0.1158 0.0462
H5 H 1.5018 -0.2140 0.0724
H6 H 1.4191 -0.1307 0.1109
C3 C 1.2832(19) -0.2407(15) 0.0730(7)
C4 C 1.2506(17) -0.3036(13) 0.1277(7)
C5 C 1.371(2) -0.307(2) 0.1690(11)
H7 H 1.3404 -0.3485 0.2011
H8 H 1.3960 -0.2335 0.1799
H9 H 1.4537 -0.3426 0.1526
C6 C 1.192(3) -0.419(2) 0.1184(16)
H10 H 1.2701 -0.4683 0.1099
H11 H 1.1246 -0.4179 0.0879
H12 H 1.1430 -0.4438 0.1514
C7 C 1.0766(15) -0.1622(11) 0.1147(6)
C8 C 0.9551(14) -0.0878(11) 0.1246(6)
C9 C 0.8499(15) -0.1126(11) 0.1629(6)
H13 H 0.8565 -0.1787 0.1825
C10 C 0.9438(16) 0.0119(12) 0.0950(7)
H14 H 1.0128 0.0294 0.0682
C11 C 0.8324(16) 0.0834(13) 0.1051(6)
H15 H 0.8297 0.1504 0.0862
C12 C 0.7213(15) 0.0584(11) 0.1434(6)
C13 C 0.7317(15) -0.0415(11) 0.1737(6)
C14 C 0.6244(16) -0.0667(13) 0.2131(6)
H16 H 0.6304 -0.1322 0.2333
C15 C 0.5130(17) 0.0028(12) 0.2221(6)
H17 H 0.4438 -0.0149 0.2487
C16 C 0.4995(15) 0.1008(12) 0.1921(6)
C17 C 0.6018(14) 0.1326(11) 0.1539(5)
C18 C 0.5870(14) 0.2380(11) 0.1234(6)
C19 C 0.6673(15) 0.3341(11) 0.1394(6)
C20 C 0.7665(15) 0.3319(12) 0.1845(6)
H18 H 0.7785 0.2674 0.2049
C21 C 0.843(2) 0.4226(15) 0.1978(8)
H19 H 0.9105 0.4196 0.2266
C22 C 0.823(2) 0.5231(16) 0.1681(8)
H20 H 0.8749 0.5859 0.1779
C23 C 0.7277(19) 0.5269(15) 0.1259(8)
H21 H 0.7153 0.5931 0.1068
C24 C 0.6463(16) 0.4344(12) 0.1095(6)
C25 C 0.5474(16) 0.4339(13) 0.0662(7)
H22 H 0.5319 0.4999 0.0474
C26 C 0.4722(17) 0.3446(13) 0.0496(7)
H23 H 0.4069 0.3490 0.0202
C27 C 0.4955(16) 0.2434(12) 0.0783(6)
C28 C 0.371(2) 0.1354(16) 0.0082(8)
H24 H 0.3053 0.1951 -0.0008
H25 H 0.3181 0.0665 0.0054
C29 C 0.495(2) 0.134(2) -0.0338(10)
H26 H 0.5417 0.2052 -0.0339
H27 H 0.4566 0.1193 -0.0702
H28 H 0.5632 0.0782 -0.0239
C30 C 0.248(2) 0.1364(17) 0.1877(9)
H29 H 0.2135 0.0854 0.2159
H30 H 0.2529 0.0970 0.1527
C31 C 0.148(3) 0.227(2) 0.1828(11)
H31 H 0.1665 0.2800 0.2118
H32 H 0.0506 0.2002 0.1861
H33 H 0.1603 0.2621 0.1472
N1 N 1.1285(14) -0.2387(10) 0.1502(5)
N2 N 1.1600(14) -0.1648(10) 0.0691(5)
O1 O 0.3880(11) 0.1741(8) 0.2023(5)
O2 O 0.4219(14) 0.1490(10) 0.0641(4)
O3 O 1.0754(14) -0.2612(10) 0.1981(5)
O4 O 1.1433(13) -0.1066(11) 0.0247(5)
loop_
_geom_bond_atom_site_label_1
_geom_bond_atom_site_label_2
_geom_bond_site_symmetry_1
_geom_bond_site_symmetry_2
C1 H1 1_555 1_555
H2 C1 1_555 1_555
H3 C1 1_555 1_555
C2 H4 1_555 1_555
H5 C2 1_555 1_555
H6 C2 1_555 1_555
C3 C1 1_555 1_555
C4 C3 1_555 1_555
C5 C4 1_555 1_555
H7 C5 1_555 1_555
H8 C5 1_555 1_555
H9 C5 1_555 1_555
C6 C4 1_555 1_555
H10 C6 1_555 1_555
H11 C6 1_555 1_555
H12 C6 1_555 1_555
C7 C8 1_555 1_555
C8 C9 1_555 1_555
C9 H13 1_555 1_555
C10 C8 1_555 1_555
H14 C10 1_555 1_555
C11 C10 1_555 1_555
H15 C11 1_555 1_555
C12 C11 1_555 1_555
C13 C9 1_555 1_555
C14 C13 1_555 1_555
H16 C14 1_555 1_555
C15 C14 1_555 1_555
H17 C15 1_555 1_555
C16 C15 1_555 1_555
C17 C12 1_555 1_555
C18 C17 1_555 1_555
C19 C18 1_555 1_555
C20 C19 1_555 1_555
H18 C20 1_555 1_555
C21 C20 1_555 1_555
H19 C21 1_555 1_555
C22 C21 1_555 1_555
H20 C22 1_555 1_555
C23 C22 1_555 1_555
H21 C23 1_555 1_555
C24 C19 1_555 1_555
C25 C24 1_555 1_555
H22 C25 1_555 1_555
C26 C25 1_555 1_555
H23 C26 1_555 1_555
C27 C18 1_555 1_555
C28 H24 1_555 1_555
H25 C28 1_555 1_555
C29 C28 1_555 1_555
H26 C29 1_555 1_555
H27 C29 1_555 1_555
H28 C29 1_555 1_555
C30 H29 1_555 1_555
H30 C30 1_555 1_555
C31 C30 1_555 1_555
H31 C31 1_555 1_555
H32 C31 1_555 1_555
H33 C31 1_555 1_555
N1 C4 1_555 1_555
N2 C3 1_555 1_555
O1 C16 1_555 1_555
O2 C27 1_555 1_555
O3 N1 1_555 1_555
O4 N2 1_555 1_555
C2 C3 1_555 1_555
C7 N1 1_555 1_555
C7 N2 1_555 1_555
C12 C13 1_555 1_555
C16 C17 1_555 1_555
C23 C24 1_555 1_555
C26 C27 1_555 1_555
C28 O2 1_555 1_555
C30 O1 1_555 1_555

#END
