
#######################################################################
#
#                 Cambridge Crystallographic Data Centre
#                                CCDC 
#
#######################################################################
#
# If this CIF has been generated from an entry in the Cambridge 
# Structural Database, then it will include bibliographic, chemical, 
# crystal, experimental, refinement or atomic coordinate data resulting 
# from the CCDC's data processing and validation procedures.
#
#######################################################################

data_KIJGER
_chemical_formula_moiety         'C38 H44 N4 O6'
_chemical_name_systematic        
"(R)-2,2'-(2,2'-Diethoxy-1,1'-binaphthalene-6,6'-diyl)bis(4,4,5,5-tetramethyl-2-imidazoline-3-oxide-1-oxyl) diradical"
_symmetry_cell_setting           tetragonal
_symmetry_space_group_name_H-M   'P 43 21 2'
_symmetry_Int_Tables_number      96
_space_group_name_Hall           'P 4nw 2abw'
loop_
_symmetry_equiv_pos_site_id
_symmetry_equiv_pos_as_xyz
1 x,y,z
2 -x,-y,1/2+z
3 1/2-y,1/2+x,3/4+z
4 1/2+y,1/2-x,1/4+z
5 1/2-x,1/2+y,3/4-z
6 1/2+x,1/2-y,1/4-z
7 y,x,-z
8 -y,-x,1/2-z
_cell_length_a                   14.0950(14)
_cell_length_b                   14.0950(14)
_cell_length_c                   17.883(3)
_cell_angle_alpha                90
_cell_angle_beta                 90
_cell_angle_gamma                90
_cell_volume                     3552.8
_cell_formula_units_Z            4
loop_
_atom_site_label
_atom_site_type_symbol
_atom_site_fract_x
_atom_site_fract_y
_atom_site_fract_z
N1 N 0.01902(12) 0.64414(11) 1.03505(8)
N2 N 0.16627(12) 0.64359(12) 1.07395(9)
O1 O -0.05996(11) 0.61630(11) 1.00664(9)
O2 O 0.25177(11) 0.61741(12) 1.08726(10)
O3 O 0.10425(14) 0.06708(11) 0.89998(9)
C1 C 0.1615(4) -0.0624(3) 0.8346(2)
H1 H 0.2173 -0.0602 0.8653
H2 H 0.1780 -0.0851 0.7857
H3 H 0.1158 -0.1044 0.8567
C2 C 0.1210(3) 0.0324(2) 0.82854(15)
H4 H 0.1646 0.0740 0.8023
H5 H 0.0621 0.0300 0.8006
C3 C 0.09467(15) 0.16247(14) 0.91200(11)
C4 C 0.13618(12) 0.19740(13) 0.97597(9)
C5 C 0.12538(12) 0.29545(12) 0.99354(9)
C6 C 0.16687(14) 0.33671(14) 1.05786(10)
H6 H 0.2010 0.2984 1.0906
C7 C 0.15815(14) 0.43046(14) 1.07303(10)
H7 H 0.1866 0.4557 1.1155
C8 C 0.10575(13) 0.49059(13) 1.02435(10)
C9 C 0.06379(13) 0.45231(14) 0.96206(10)
H8 H 0.0285 0.4913 0.9307
C10 C 0.07293(12) 0.35564(13) 0.94462(10)
C11 C 0.03400(14) 0.31572(16) 0.87856(11)
H9 H 0.0008 0.3544 0.8455
C12 C 0.04441(15) 0.22207(16) 0.86269(11)
H10 H 0.0183 0.1972 0.8191
C13 C 0.09704(13) 0.59074(13) 1.04310(10)
C14 C 0.02791(17) 0.73695(15) 1.07420(12)
C15 C 0.13730(17) 0.74562(13) 1.08239(11)
C16 C 0.1714(2) 0.78076(18) 1.15847(12)
H11 H 0.1523 0.7366 1.1965
H12 H 0.1440 0.8418 1.1687
H13 H 0.2393 0.7860 1.1581
C17 C 0.1871(2) 0.79943(19) 1.01986(14)
H14 H 0.2541 0.7877 1.0223
H15 H 0.1754 0.8662 1.0254
H16 H 0.1631 0.7784 0.9724
C18 C -0.0231(2) 0.7237(2) 1.14902(15)
H17 H -0.0867 0.7020 1.1402
H18 H -0.0248 0.7830 1.1753
H19 H 0.0103 0.6776 1.1785
C19 C -0.0205(3) 0.81375(18) 1.02894(18)
H20 H 0.0059 0.8151 0.9794
H21 H -0.0107 0.8741 1.0526
H22 H -0.0872 0.8007 1.0261
N1F N 0.64414(11) 0.01902(12) 0.96495(8)
N2F N 0.64359(12) 0.16627(12) 0.92605(9)
O1F O 0.61630(11) -0.05996(11) 0.99336(9)
O2F O 0.61741(12) 0.25177(11) 0.91274(10)
O3F O 0.06708(11) 0.10425(14) 1.10002(9)
C1F C -0.0624(3) 0.1615(4) 1.1654(2)
H1F H -0.0602 0.2173 1.1347
H2F H -0.0851 0.1780 1.2143
H3F H -0.1044 0.1158 1.1433
C2F C 0.0324(2) 0.1210(3) 1.17146(15)
H4F H 0.0740 0.1646 1.1977
H5F H 0.0300 0.0621 1.1994
C3F C 0.16247(14) 0.09467(15) 1.08800(11)
C4F C 0.19740(13) 0.13618(12) 1.02403(9)
C5F C 0.29545(12) 0.12538(12) 1.00646(9)
C6F C 0.33671(14) 0.16687(14) 0.94214(10)
H6F H 0.2984 0.2010 0.9094
C7F C 0.43046(14) 0.15815(14) 0.92697(10)
H7F H 0.4557 0.1866 0.8845
C8F C 0.49059(13) 0.10575(13) 0.97565(10)
C9F C 0.45231(14) 0.06379(13) 1.03794(10)
H8F H 0.4913 0.0285 1.0693
C10F C 0.35564(13) 0.07293(12) 1.05538(10)
C11F C 0.31572(16) 0.03400(14) 1.12144(11)
H9F H 0.3544 0.0008 1.1545
C12F C 0.22207(16) 0.04441(15) 1.13731(11)
H10F H 0.1972 0.0183 1.1809
C13F C 0.59074(13) 0.09704(13) 0.95690(10)
C14F C 0.73695(15) 0.02791(17) 0.92580(12)
C15F C 0.74562(13) 0.13730(17) 0.91761(11)
C16F C 0.78076(18) 0.1714(2) 0.84153(12)
H11F H 0.7366 0.1523 0.8035
H12F H 0.8418 0.1440 0.8313
H13F H 0.7860 0.2393 0.8419
C17F C 0.79943(19) 0.1871(2) 0.98014(14)
H14F H 0.7877 0.2541 0.9777
H15F H 0.8662 0.1754 0.9746
H16F H 0.7784 0.1631 1.0276
C18F C 0.7237(2) -0.0231(2) 0.85098(15)
H17F H 0.7020 -0.0867 0.8598
H18F H 0.7830 -0.0248 0.8247
H19F H 0.6776 0.0103 0.8215
C19F C 0.81375(18) -0.0205(3) 0.97106(18)
H20F H 0.8151 0.0059 1.0206
H21F H 0.8741 -0.0107 0.9474
H22F H 0.8007 -0.0872 0.9739
loop_
_geom_bond_atom_site_label_1
_geom_bond_atom_site_label_2
_geom_bond_site_symmetry_1
_geom_bond_site_symmetry_2
N1 O1 1_555 1_555
N2 O2 1_555 1_555
O3 C2 1_555 1_555
C1 H1 1_555 1_555
H2 C1 1_555 1_555
H3 C1 1_555 1_555
C2 C1 1_555 1_555
H4 C2 1_555 1_555
H5 C2 1_555 1_555
C3 O3 1_555 1_555
C4 C3 1_555 1_555
C5 C4 1_555 1_555
C6 C5 1_555 1_555
H6 C6 1_555 1_555
C7 C6 1_555 1_555
H7 C7 1_555 1_555
C8 C7 1_555 1_555
C9 C8 1_555 1_555
H8 C9 1_555 1_555
C10 C5 1_555 1_555
C11 C10 1_555 1_555
H9 C11 1_555 1_555
C12 C3 1_555 1_555
H10 C12 1_555 1_555
C13 N1 1_555 1_555
C14 N1 1_555 1_555
C15 N2 1_555 1_555
C16 C15 1_555 1_555
H11 C16 1_555 1_555
H12 C16 1_555 1_555
H13 C16 1_555 1_555
C17 C15 1_555 1_555
H14 C17 1_555 1_555
H15 C17 1_555 1_555
H16 C17 1_555 1_555
C18 C14 1_555 1_555
H17 C18 1_555 1_555
H18 C18 1_555 1_555
H19 C18 1_555 1_555
C19 C14 1_555 1_555
H20 C19 1_555 1_555
H21 C19 1_555 1_555
H22 C19 1_555 1_555
N1F O1F 1_555 1_555
N2F O2F 1_555 1_555
O3F C2F 1_555 1_555
C1F H1F 1_555 1_555
H2F C1F 1_555 1_555
H3F C1F 1_555 1_555
C2F C1F 1_555 1_555
H4F C2F 1_555 1_555
H5F C2F 1_555 1_555
C3F O3F 1_555 1_555
C4F C4 1_555 1_555
C5F C4F 1_555 1_555
C6F C5F 1_555 1_555
H6F C6F 1_555 1_555
C7F C6F 1_555 1_555
H7F C7F 1_555 1_555
C8F C7F 1_555 1_555
C9F C8F 1_555 1_555
H8F C9F 1_555 1_555
C10F C5F 1_555 1_555
C11F C10F 1_555 1_555
H9F C11F 1_555 1_555
C12F C3F 1_555 1_555
H10F C12F 1_555 1_555
C13F N1F 1_555 1_555
C14F N1F 1_555 1_555
C15F N2F 1_555 1_555
C16F C15F 1_555 1_555
H11F C16F 1_555 1_555
H12F C16F 1_555 1_555
H13F C16F 1_555 1_555
C17F C15F 1_555 1_555
H14F C17F 1_555 1_555
H15F C17F 1_555 1_555
H16F C17F 1_555 1_555
C18F C14F 1_555 1_555
H17F C18F 1_555 1_555
H18F C18F 1_555 1_555
H19F C18F 1_555 1_555
C19F C14F 1_555 1_555
H20F C19F 1_555 1_555
H21F C19F 1_555 1_555
H22F C19F 1_555 1_555
N2 C13 1_555 1_555
C8 C13 1_555 1_555
C9 C10 1_555 1_555
C11 C12 1_555 1_555
C14 C15 1_555 1_555
N2F C13F 1_555 1_555
C3F C4F 1_555 1_555
C8F C13F 1_555 1_555
C9F C10F 1_555 1_555
C11F C12F 1_555 1_555
C14F C15F 1_555 1_555

#END
