
#######################################################################
#
#                 Cambridge Crystallographic Data Centre
#                                CCDC 
#
#######################################################################
#
# If this CIF has been generated from an entry in the Cambridge 
# Structural Database, then it will include bibliographic, chemical, 
# crystal, experimental, refinement or atomic coordinate data resulting 
# from the CCDC's data processing and validation procedures.
#
#######################################################################

data_KIJQEA02
_chemical_formula_moiety         'C41 H30 N4'
_chemical_name_systematic        
4'-(4-(2-(4-(N,N-Diphenylamino)phenyl)ethenyl)phenyl)-2,2':6',2''-terpyridine
_symmetry_cell_setting           monoclinic
_symmetry_space_group_name_H-M   'P 21/c'
_symmetry_Int_Tables_number      14
_space_group_name_Hall           '-P 2ybc'
loop_
_symmetry_equiv_pos_site_id
_symmetry_equiv_pos_as_xyz
1 x,y,z
2 -x,1/2+y,1/2-z
3 -x,-y,-z
4 x,1/2-y,1/2+z
_cell_length_a                   17.181(5)
_cell_length_b                   10.101(5)
_cell_length_c                   18.512(5)
_cell_angle_alpha                90
_cell_angle_beta                 103.659(5)
_cell_angle_gamma                90
_cell_volume                     3121.81
_exptl_crystal_colour            'dark red'
_exptl_crystal_description       plate
_cell_formula_units_Z            4
_exptl_crystal_preparation       photoluminescent
loop_
_atom_site_label
_atom_site_type_symbol
_atom_site_fract_x
_atom_site_fract_y
_atom_site_fract_z
N1 N 0.40687(9) 0.24408(15) 0.57952(9)
C1 C 0.46611(12) 0.15679(19) 0.60441(11)
N2 N 0.34818(11) 0.49059(19) 0.43756(10)
C2 C 0.40907(12) 0.31515(19) 0.51877(11)
C3 C 0.59499(13) 0.1924(2) 0.46447(12)
N3 N 0.52503(11) 0.01068(18) 0.70581(10)
C4 C 0.46204(13) 0.08652(19) 0.67393(11)
C5 C 0.53051(12) 0.2085(2) 0.50517(11)
N4 N 1.06133(11) 0.2155(2) 0.16028(10)
C6 C 0.71797(14) 0.1720(2) 0.38705(13)
C7 C 0.34240(12) 0.4096(2) 0.49345(11)
C8 C 0.85779(13) 0.2168(2) 0.25233(12)
C9 C 0.46950(12) 0.3003(2) 0.48145(11)
H1 H 0.4693 0.3524 0.4400
C10 C 0.52771(12) 0.1362(2) 0.56860(11)
H2 H 0.5672 0.0738 0.5871
C11 C 1.05571(15) 0.2368(2) 0.08388(13)
C12 C 0.78396(15) 0.1621(2) 0.34921(14)
H3 H 0.8258 0.1058 0.3707
C13 C 0.79055(14) 0.2243(2) 0.28799(13)
H4 H 0.7479 0.2783 0.2653
C14 C 0.39541(14) 0.0383(2) 0.76994(13)
H5 H 0.3521 0.0483 0.7915
C15 C 0.39665(13) 0.1015(2) 0.70476(12)
H6 H 0.3537 0.1543 0.6814
C16 C 0.86915(13) 0.3140(2) 0.20271(13)
H7 H 0.8315 0.3814 0.1902
C17 C 0.93448(13) 0.3138(2) 0.17140(12)
H8 H 0.9404 0.3808 0.1387
C18 C 0.99115(13) 0.2144(2) 0.18842(12)
C19 C 0.91365(14) 0.1146(2) 0.26593(12)
H9 H 0.9067 0.0449 0.2966
C20 C 0.64893(14) 0.2406(2) 0.35797(14)
H10 H 0.6423 0.2814 0.3119
C21 C 0.52164(15) -0.0506(2) 0.76927(13)
H11 H 0.5646 -0.1038 0.7920
C22 C 0.58916(14) 0.2501(2) 0.39591(13)
H12 H 0.5430 0.2973 0.3744
C23 C 0.45864(15) -0.0395(2) 0.80266(13)
H13 H 0.4591 -0.0842 0.8467
C24 C 0.97925(14) 0.1143(2) 0.23485(13)
H14 H 1.0160 0.0452 0.2455
C25 C 1.13660(13) 0.1901(2) 0.20996(13)
C26 C 0.27811(15) 0.4127(3) 0.52456(14)
H15 H 0.2764 0.3577 0.5645
C27 C 0.66306(16) 0.1205(3) 0.49205(14)
H16 H 0.6690 0.0773 0.5374
C28 C 1.19196(15) 0.1075(2) 0.19083(15)
H17 H 1.1800 0.0653 0.1449
C29 C 0.28761(16) 0.5731(3) 0.41258(14)
H18 H 0.2912 0.6302 0.3741
C30 C 0.72302(16) 0.1105(3) 0.45418(15)
H19 H 0.7683 0.0605 0.4747
C31 C 0.22042(16) 0.5795(3) 0.43974(15)
H20 H 0.1792 0.6382 0.4199
C32 C 1.15574(16) 0.2490(2) 0.27923(15)
H21 H 1.1194 0.3055 0.2936
C33 C 0.21566(17) 0.4977(3) 0.49650(17)
H22 H 0.1707 0.4990 0.5163
C34 C 1.11282(18) 0.3111(3) 0.06085(16)
H23 H 1.1550 0.3489 0.0956
C35 C 0.99325(17) 0.1842(3) 0.03151(15)
H24 H 0.9547 0.1336 0.0465
C36 C 1.26530(17) 0.0865(3) 0.2394(2)
H25 H 1.3024 0.0314 0.2252
C37 C 1.22895(19) 0.2238(3) 0.32711(16)
H26 H 1.2408 0.2621 0.3741
C38 C 1.28435(18) 0.1440(3) 0.3070(2)
H27 H 1.3341 0.1297 0.3392
C39 C 0.9873(2) 0.2059(4) -0.04281(18)
H28 H 0.9440 0.1716 -0.0779
C40 C 1.1068(3) 0.3290(4) -0.0146(2)
H29 H 1.1458 0.3768 -0.0306
C41 C 1.0438(3) 0.2764(5) -0.0650(2)
H30 H 1.0398 0.2895 -0.1155
loop_
_geom_bond_atom_site_label_1
_geom_bond_atom_site_label_2
_geom_bond_site_symmetry_1
_geom_bond_site_symmetry_2
N1 C1 1_555 1_555
C1 C4 1_555 1_555
N2 C7 1_555 1_555
C2 N1 1_555 1_555
C3 C5 1_555 1_555
N3 C4 1_555 1_555
C4 C15 1_555 1_555
C5 C9 1_555 1_555
N4 C11 1_555 1_555
C6 C12 1_555 1_555
C7 C2 1_555 1_555
C8 C13 1_555 1_555
C9 C2 1_555 1_555
H1 C9 1_555 1_555
C10 C1 1_555 1_555
H2 C10 1_555 1_555
C11 C34 1_555 1_555
C12 H3 1_555 1_555
C13 C12 1_555 1_555
H4 C13 1_555 1_555
C14 H5 1_555 1_555
C15 C14 1_555 1_555
H6 C15 1_555 1_555
C16 C8 1_555 1_555
H7 C16 1_555 1_555
C17 C16 1_555 1_555
H8 C17 1_555 1_555
C18 N4 1_555 1_555
C19 C8 1_555 1_555
H9 C19 1_555 1_555
C20 C6 1_555 1_555
H10 C20 1_555 1_555
C21 N3 1_555 1_555
H11 C21 1_555 1_555
C22 C3 1_555 1_555
H12 C22 1_555 1_555
C23 C14 1_555 1_555
H13 C23 1_555 1_555
C24 C18 1_555 1_555
H14 C24 1_555 1_555
C25 N4 1_555 1_555
C26 C7 1_555 1_555
H15 C26 1_555 1_555
C27 C3 1_555 1_555
H16 C27 1_555 1_555
C28 C25 1_555 1_555
H17 C28 1_555 1_555
C29 N2 1_555 1_555
H18 C29 1_555 1_555
C30 C6 1_555 1_555
H19 C30 1_555 1_555
C31 C29 1_555 1_555
H20 C31 1_555 1_555
C32 C25 1_555 1_555
H21 C32 1_555 1_555
C33 C26 1_555 1_555
H22 C33 1_555 1_555
C34 H23 1_555 1_555
C35 C11 1_555 1_555
H24 C35 1_555 1_555
C36 C28 1_555 1_555
H25 C36 1_555 1_555
C37 C32 1_555 1_555
H26 C37 1_555 1_555
C38 C36 1_555 1_555
H27 C38 1_555 1_555
C39 C35 1_555 1_555
H28 C39 1_555 1_555
C40 C34 1_555 1_555
H29 C40 1_555 1_555
C41 C39 1_555 1_555
H30 C41 1_555 1_555
C5 C10 1_555 1_555
C17 C18 1_555 1_555
C19 C24 1_555 1_555
C20 C22 1_555 1_555
C21 C23 1_555 1_555
C27 C30 1_555 1_555
C31 C33 1_555 1_555
C37 C38 1_555 1_555
C40 C41 1_555 1_555

#END
