
#######################################################################
#
#                 Cambridge Crystallographic Data Centre
#                                CCDC 
#
#######################################################################
#
# If this CIF has been generated from an entry in the Cambridge 
# Structural Database, then it will include bibliographic, chemical, 
# crystal, experimental, refinement or atomic coordinate data resulting 
# from the CCDC's data processing and validation procedures.
#
#######################################################################

data_KIJWAD
_chemical_formula_moiety         'C6 H13 N2 1+,C2 Cl1 F2 O2 1-'
_chemical_name_systematic        
'4-Aza-1-azoniabicyclo[2.2.2]octane chloro(difluoro)acetate'
_symmetry_cell_setting           orthorhombic
_symmetry_space_group_name_H-M   'P n m a'
_symmetry_Int_Tables_number      62
_space_group_name_Hall           '-P 2ac 2n'
loop_
_symmetry_equiv_pos_site_id
_symmetry_equiv_pos_as_xyz
1 x,y,z
2 1/2-x,-y,1/2+z
3 1/2+x,1/2-y,1/2-z
4 -x,1/2+y,-z
5 -x,-y,-z
6 1/2+x,y,1/2-z
7 1/2-x,1/2+y,1/2+z
8 x,1/2-y,z
_cell_length_a                   6.123(5)
_cell_length_b                   9.135(7)
_cell_length_c                   19.405(16)
_cell_angle_alpha                90
_cell_angle_beta                 90
_cell_angle_gamma                90
_cell_volume                     1085.39
_exptl_crystal_colour            colorless
_exptl_crystal_description       Prism
_cell_formula_units_Z            4
loop_
_atom_site_label
_atom_site_type_symbol
_atom_site_fract_x
_atom_site_fract_y
_atom_site_fract_z
N1 N 0.4518(7) 0.2500 0.5623(2)
N2 N 0.5498(8) 0.2500 0.6888(2)
C1 C 0.7492(9) 0.2500 0.6460(3)
H1 H 0.8377 0.1623 0.6570
C2 C 0.4212(8) 0.1195(5) 0.6718(2)
H2 H 0.2866 0.1185 0.7001
H3 H 0.5067 0.0308 0.6834
C3 C 0.6942(10) 0.2500 0.5692(3)
H4 H 0.7565 0.3379 0.5468
C4 C 0.3596(8) 0.1154(5) 0.5959(2)
H5 H 0.4202 0.0264 0.5739
H6 H 0.1987 0.1136 0.5908
H7 H 0.4257 0.2500 0.5168
H1G H 0.8377 0.3377 0.6570
C2G C 0.4212(8) 0.3805(5) 0.6718(2)
H2G H 0.2866 0.3815 0.7001
H3G H 0.5067 0.4692 0.6834
H4G H 0.7565 0.1621 0.5468
C4G C 0.3596(8) 0.3846(5) 0.5959(2)
H5G H 0.4202 0.4736 0.5739
H6G H 0.1987 0.3864 0.5908
H8? H 0.8377 0.1623 0.6570
H9? H 0.7565 0.3379 0.5468
Cl1? Cl 0.7756(4) 0.2500 0.37149(13)
C5? C 1.0456(12) 0.2500 0.3496(4)
F1? F 1.121(7) 0.181(6) 0.2975(17)
C6? C 1.1915(14) 0.2500 0.4139(4)
F2? F 1.069(3) 0.1250(17) 0.3086(8)
O1? O 1.2946(19) 0.170(2) 0.4367(5)
O2? O 1.189(4) 0.1025(14) 0.4349(6)
F3? F 1.011(8) 0.091(5) 0.353(4)
loop_
_geom_bond_atom_site_label_1
_geom_bond_atom_site_label_2
_geom_bond_site_symmetry_1
_geom_bond_site_symmetry_2
N1 C3 1_555 1_555
N2 C1 1_555 1_555
C1 H1 1_555 1_555
C2 N2 1_555 1_555
H2 C2 1_555 1_555
H3 C2 1_555 1_555
C3 C1 1_555 1_555
H4 C3 1_555 1_555
C4 N1 1_555 1_555
H5 C4 1_555 1_555
H6 C4 1_555 1_555
H7 N1 1_555 1_555
H1G C1 1_555 1_555
C2G N2 1_555 1_555
H2G C2G 1_555 1_555
H3G C2G 1_555 1_555
H4G C3 1_555 1_555
C4G N1 1_555 1_555
H5G C4G 1_555 1_555
H6G C4G 1_555 1_555
C2 C4 1_555 1_555
C2G C4G 1_555 1_555

#END
