
#######################################################################
#
#                 Cambridge Crystallographic Data Centre
#                                CCDC 
#
#######################################################################
#
# If this CIF has been generated from an entry in the Cambridge 
# Structural Database, then it will include bibliographic, chemical, 
# crystal, experimental, refinement or atomic coordinate data resulting 
# from the CCDC's data processing and validation procedures.
#
#######################################################################

data_KIKCUF
_chemical_formula_moiety         'C28 H24 O5'
_chemical_name_systematic        
4'-hydroxy-4,4''-dimethoxy-5'-(4-methoxyphenyl)-[1,1':2',1''-terphenyl]-3'-carbaldehyde
_symmetry_cell_setting           monoclinic
_symmetry_space_group_name_H-M   'P 21/n'
_symmetry_Int_Tables_number      14
_space_group_name_Hall           '-P 2yn'
loop_
_symmetry_equiv_pos_site_id
_symmetry_equiv_pos_as_xyz
1 x,y,z
2 1/2-x,1/2+y,1/2-z
3 -x,-y,-z
4 1/2+x,1/2-y,1/2+z
_cell_length_a                   9.5523(4)
_cell_length_b                   9.8572(3)
_cell_length_c                   23.9209(9)
_cell_angle_alpha                90
_cell_angle_beta                 99.141(4)
_cell_angle_gamma                90
_cell_volume                     2223.76
_exptl_crystal_colour            'light yellow'
_exptl_crystal_description       block
_cell_formula_units_Z            4
loop_
_atom_site_label
_atom_site_type_symbol
_atom_site_fract_x
_atom_site_fract_y
_atom_site_fract_z
O1 O 0.80595(19) 0.30551(16) 0.37974(6)
H1 H 0.8440 0.2424 0.3987
O2 O 0.5282(2) 1.05313(16) 0.60967(8)
O3 O 0.5755(2) 0.5520(2) 0.15073(7)
O4 O 0.9172(2) 0.17838(19) 0.47195(8)
O5 O 0.8312(3) 0.3979(3) 0.74397(7)
C1 C 0.6572(2) 0.7294(2) 0.51768(8)
C2 C 0.7100(2) 0.5217(2) 0.38922(8)
C3 C 0.7051(3) 0.8617(2) 0.51221(10)
H2 H 0.7688 0.8793 0.4875
C4 C 0.7746(2) 0.4047(2) 0.41428(8)
C5 C 0.5602(3) 0.7083(2) 0.55420(9)
H3 H 0.5256 0.6212 0.5581
C6 C 0.5650(2) 0.9432(2) 0.57997(9)
C7 C 0.7827(2) 0.4725(2) 0.57098(8)
C8 C 0.7051(2) 0.6163(2) 0.48399(8)
C9 C 0.7663(2) 0.4975(2) 0.50881(8)
C10 C 0.6597(3) 0.9670(2) 0.54286(10)
H4 H 0.6928 1.0545 0.5386
C11 C 0.8066(2) 0.3937(2) 0.47357(8)
C12 C 0.6710(2) 0.5304(2) 0.32650(8)
C13 C 0.5133(3) 0.8131(2) 0.58506(9)
H5 H 0.4476 0.7963 0.6090
C14 C 0.6800(3) 0.6254(2) 0.42463(9)
H6 H 0.6412 0.7052 0.4082
C15 C 0.7084(3) 0.3668(2) 0.59109(9)
H7 H 0.6489 0.3134 0.5655
C16 C 0.8877(3) 0.2777(2) 0.49807(10)
H8 H 0.9197 0.2794 0.5369
C17 C 0.7208(3) 0.3390(3) 0.64853(10)
H9 H 0.6692 0.2687 0.6613
C18 C 0.7216(3) 0.6327(3) 0.29562(9)
H10 H 0.7805 0.6989 0.3145
C19 C 0.6021(3) 0.5397(2) 0.20831(9)
C20 C 0.5492(3) 0.4380(2) 0.23814(10)
H11 H 0.4906 0.3718 0.2192
C21 C 0.5835(3) 0.4343(3) 0.29649(10)
H12 H 0.5466 0.3651 0.3162
C22 C 0.8108(3) 0.4171(3) 0.68656(9)
C23 C 0.8712(3) 0.5505(3) 0.60992(10)
H13 H 0.9206 0.6228 0.5974
C24 C 0.6868(3) 0.6390(3) 0.23727(10)
H14 H 0.7205 0.7100 0.2175
C25 C 0.8866(3) 0.5218(3) 0.66702(10)
H15 H 0.9484 0.5733 0.6926
C26 C 0.4329(4) 1.0311(3) 0.64826(13)
H16 H 0.3430 1.0021 0.6280
H17 H 0.4208 1.1139 0.6681
H18 H 0.4703 0.9623 0.6749
C27 C 0.7442(4) 0.3022(4) 0.76628(12)
H19 H 0.6463 0.3250 0.7542
H20 H 0.7647 0.3037 0.8069
H21 H 0.7625 0.2132 0.7529
C28 C 0.4963(4) 0.4496(3) 0.11907(11)
H22 H 0.4988 0.4633 0.0795
H23 H 0.3998 0.4531 0.1257
H24 H 0.5361 0.3625 0.1304
loop_
_geom_bond_atom_site_label_1
_geom_bond_atom_site_label_2
_geom_bond_site_symmetry_1
_geom_bond_site_symmetry_2
O1 H1 1_555 1_555
O2 C6 1_555 1_555
O3 C19 1_555 1_555
O4 C16 1_555 1_555
O5 C22 1_555 1_555
C1 C3 1_555 1_555
C2 C4 1_555 1_555
C3 H2 1_555 1_555
C4 O1 1_555 1_555
C5 C1 1_555 1_555
H3 C5 1_555 1_555
C6 C10 1_555 1_555
C7 C9 1_555 1_555
C8 C1 1_555 1_555
C9 C8 1_555 1_555
C10 C3 1_555 1_555
H4 C10 1_555 1_555
C11 C4 1_555 1_555
C12 C2 1_555 1_555
C13 C5 1_555 1_555
H5 C13 1_555 1_555
C14 C2 1_555 1_555
H6 C14 1_555 1_555
C15 C7 1_555 1_555
H7 C15 1_555 1_555
C16 C11 1_555 1_555
H8 C16 1_555 1_555
C17 C15 1_555 1_555
H9 C17 1_555 1_555
C18 C12 1_555 1_555
H10 C18 1_555 1_555
C19 C20 1_555 1_555
C20 H11 1_555 1_555
C21 C12 1_555 1_555
H12 C21 1_555 1_555
C22 C17 1_555 1_555
C23 C7 1_555 1_555
H13 C23 1_555 1_555
C24 C18 1_555 1_555
H14 C24 1_555 1_555
C25 C22 1_555 1_555
H15 C25 1_555 1_555
C26 O2 1_555 1_555
H16 C26 1_555 1_555
H17 C26 1_555 1_555
H18 C26 1_555 1_555
C27 O5 1_555 1_555
H19 C27 1_555 1_555
H20 C27 1_555 1_555
H21 C27 1_555 1_555
C28 O3 1_555 1_555
H22 C28 1_555 1_555
H23 C28 1_555 1_555
H24 C28 1_555 1_555
C6 C13 1_555 1_555
C8 C14 1_555 1_555
C9 C11 1_555 1_555
C19 C24 1_555 1_555
C20 C21 1_555 1_555
C23 C25 1_555 1_555

#END
