
#######################################################################
#
#                 Cambridge Crystallographic Data Centre
#                                CCDC 
#
#######################################################################
#
# If this CIF has been generated from an entry in the Cambridge 
# Structural Database, then it will include bibliographic, chemical, 
# crystal, experimental, refinement or atomic coordinate data resulting 
# from the CCDC's data processing and validation procedures.
#
#######################################################################

data_KIKFOA
_chemical_formula_moiety         'C18 H21 N3 O2'
_chemical_name_systematic        
N-(2-(4-Hydroxybenzylideneamino)ethyl)-N-(2-(4-oxidobenzylideneamino)ethyl)ammonium
_symmetry_cell_setting           orthorhombic
_symmetry_space_group_name_H-M   'P b c a'
_symmetry_Int_Tables_number      61
_space_group_name_Hall           '-P 2ac 2ab'
loop_
_symmetry_equiv_pos_site_id
_symmetry_equiv_pos_as_xyz
1 x,y,z
2 1/2-x,-y,1/2+z
3 -x,1/2+y,1/2-z
4 1/2+x,1/2-y,-z
5 -x,-y,-z
6 1/2+x,y,1/2-z
7 x,1/2-y,1/2+z
8 1/2-x,1/2+y,z
_cell_length_a                   11.638(2)
_cell_length_b                   15.667(3)
_cell_length_c                   17.016(3)
_cell_angle_alpha                90
_cell_angle_beta                 90
_cell_angle_gamma                90
_cell_volume                     3102.57
_exptl_crystal_colour            yellow
_exptl_crystal_description       block
_chemical_melting_point          '453 K'
_cell_formula_units_Z            8
_exptl_crystal_recrystallization_method methanol
loop_
_atom_site_label
_atom_site_type_symbol
_atom_site_fract_x
_atom_site_fract_y
_atom_site_fract_z
O1 O 0.31037(6) 0.14542(5) 0.55715(4)
H1 H 0.3662 0.1396 0.5148
O2 O 0.94930(6) 0.35847(5) 0.55366(4)
N1 N 0.47454(7) 0.12911(5) 0.91717(5)
N2 N 0.62800(6) 0.25607(5) 0.98495(5)
H2 H 0.6778 0.2263 0.9534
H3 H 0.5780 0.2862 0.9560
N3 N 0.79044(7) 0.37646(5) 0.91501(5)
C1 C 0.35115(9) 0.14906(6) 0.76874(6)
H4 H 0.3124 0.1697 0.8140
C2 C 0.30268(9) 0.16082(6) 0.69552(6)
H5 H 0.2309 0.1893 0.6910
C3 C 0.35837(8) 0.13108(6) 0.62770(5)
C4 C 0.46222(8) 0.08697(6) 0.63589(5)
H6 H 0.4998 0.0646 0.5908
C5 C 0.51049(9) 0.07584(6) 0.70980(6)
H7 H 0.5815 0.0464 0.7146
C6 C 0.45656(8) 0.10712(6) 0.77718(5)
C7 C 0.51216(8) 0.09588(6) 0.85382(6)
H8 H 0.5798 0.0620 0.8564
C8 C 0.53900(9) 0.11116(6) 0.98880(5)
H9 H 0.6124 0.0829 0.9751
H10 H 0.4943 0.0717 1.0224
C9 C 0.56376(8) 0.19273(6) 1.03400(5)
H11 H 0.4903 0.2184 1.0515
H12 H 0.6095 0.1789 1.0814
C10 C 0.69938(8) 0.31620(6) 1.03268(5)
H13 H 0.7717 0.2876 1.0482
H14 H 0.6573 0.3316 1.0812
C11 C 0.72732(9) 0.39669(6) 0.98682(5)
H15 H 0.6551 0.4267 0.9731
H16 H 0.7740 0.4353 1.0199
C12 C 0.75025(8) 0.40705(6) 0.85139(6)
H17 H 0.6815 0.4396 0.8539
C13 C 0.80451(8) 0.39474(6) 0.77449(5)
C14 C 0.74795(8) 0.42303(6) 0.70696(5)
H18 H 0.6753 0.4503 0.7117
C15 C 0.79631(9) 0.41193(6) 0.63302(5)
H19 H 0.7567 0.4322 0.5879
C16 C 0.90284(9) 0.37112(6) 0.62407(5)
C17 C 0.96003(8) 0.34366(6) 0.69268(6)
H20 H 1.0329 0.3167 0.6884
C18 C 0.91180(9) 0.35543(6) 0.76583(6)
H21 H 0.9521 0.3365 0.8112
loop_
_geom_bond_atom_site_label_1
_geom_bond_atom_site_label_2
_geom_bond_site_symmetry_1
_geom_bond_site_symmetry_2
O1 H1 1_555 1_555
O2 C16 1_555 1_555
N1 C7 1_555 1_555
N2 H2 1_555 1_555
H3 N2 1_555 1_555
N3 C11 1_555 1_555
C1 H4 1_555 1_555
C2 C1 1_555 1_555
H5 C2 1_555 1_555
C3 O1 1_555 1_555
C4 C3 1_555 1_555
H6 C4 1_555 1_555
C5 C4 1_555 1_555
H7 C5 1_555 1_555
C6 C1 1_555 1_555
C7 C6 1_555 1_555
H8 C7 1_555 1_555
C8 N1 1_555 1_555
H9 C8 1_555 1_555
H10 C8 1_555 1_555
C9 N2 1_555 1_555
H11 C9 1_555 1_555
H12 C9 1_555 1_555
C10 N2 1_555 1_555
H13 C10 1_555 1_555
H14 C10 1_555 1_555
C11 C10 1_555 1_555
H15 C11 1_555 1_555
H16 C11 1_555 1_555
C12 N3 1_555 1_555
H17 C12 1_555 1_555
C13 C12 1_555 1_555
C14 C13 1_555 1_555
H18 C14 1_555 1_555
C15 C14 1_555 1_555
H19 C15 1_555 1_555
C16 C15 1_555 1_555
C17 C16 1_555 1_555
H20 C17 1_555 1_555
C18 C13 1_555 1_555
H21 C18 1_555 1_555
C2 C3 1_555 1_555
C5 C6 1_555 1_555
C8 C9 1_555 1_555
C17 C18 1_555 1_555

#END
