
#######################################################################
#
#                 Cambridge Crystallographic Data Centre
#                                CCDC 
#
#######################################################################
#
# If this CIF has been generated from an entry in the Cambridge 
# Structural Database, then it will include bibliographic, chemical, 
# crystal, experimental, refinement or atomic coordinate data resulting 
# from the CCDC's data processing and validation procedures.
#
#######################################################################

data_KIKJIY
_chemical_formula_moiety         'C13 H9 Cl1 N4 O1 S1'
_chemical_name_systematic        
2-Chloro-5-((5-(4-pyridyl)-1,3,4-oxadiazol-2-yl)sulfanylmethyl)pyridine
_symmetry_cell_setting           triclinic
_symmetry_space_group_name_H-M   'P -1'
_symmetry_Int_Tables_number      2
_space_group_name_Hall           '-P 1'
loop_
_symmetry_equiv_pos_site_id
_symmetry_equiv_pos_as_xyz
1 x,y,z
2 -x,-y,-z
_cell_length_a                   6.2729(5)
_cell_length_b                   8.1448(6)
_cell_length_c                   14.0994(11)
_cell_angle_alpha                85.5200(10)
_cell_angle_beta                 77.7930(10)
_cell_angle_gamma                68.6370(10)
_cell_volume                     655.696
_exptl_crystal_colour            colorless
_exptl_crystal_description       block
_cell_formula_units_Z            2
_exptl_crystal_recrystallization_method dichloromethane/n-hexane
loop_
_atom_site_label
_atom_site_type_symbol
_atom_site_fract_x
_atom_site_fract_y
_atom_site_fract_z
C1 C 0.6614(4) 0.2322(3) 0.49086(15)
C2 C 0.8922(4) 0.2144(3) 0.47658(17)
H1 H 1.0002 0.1538 0.4234
C3 C 0.9574(4) 0.2900(3) 0.54425(17)
H2 H 1.1120 0.2809 0.5376
C4 C 0.7901(4) 0.3801(3) 0.62265(15)
C5 C 0.5648(4) 0.3872(3) 0.62834(15)
H3 H 0.4522 0.4472 0.6806
C6 C 0.8574(4) 0.4667(3) 0.69576(17)
H4 H 0.7238 0.5685 0.7225
H5 H 0.9804 0.5086 0.6630
C7 C 0.6924(4) 0.3411(3) 0.86759(16)
C8 C 0.4622(4) 0.2839(3) 0.98761(15)
C9 C 0.3821(4) 0.1990(3) 1.07587(15)
C10 C 0.5377(4) 0.0739(3) 1.12639(17)
H6 H 0.6981 0.0388 1.1039
C11 C 0.4464(4) 0.0041(3) 1.21055(17)
H7 H 0.5506 -0.0794 1.2438
C12 C 0.0730(5) 0.1666(4) 1.19713(19)
H8 H -0.0866 0.1978 1.2208
C13 C 0.1458(4) 0.2445(3) 1.11242(18)
H9 H 0.0374 0.3265 1.0803
Cl1 Cl 0.57259(11) 0.14110(9) 0.40489(4)
N1 N 0.4965(3) 0.3144(3) 0.56436(13)
N2 N 0.4872(3) 0.4496(3) 0.86157(13)
N3 N 0.3340(3) 0.4109(3) 0.94122(14)
N4 N 0.2198(4) 0.0483(3) 1.24723(15)
O1 O 0.6933(3) 0.23080(19) 0.94565(10)
S1 S 0.95815(10) 0.32163(9) 0.79527(4)
loop_
_geom_bond_atom_site_label_1
_geom_bond_atom_site_label_2
_geom_bond_site_symmetry_1
_geom_bond_site_symmetry_2
C1 C2 1_555 1_555
C2 H1 1_555 1_555
C3 C2 1_555 1_555
H2 C3 1_555 1_555
C4 C3 1_555 1_555
C5 C4 1_555 1_555
H3 C5 1_555 1_555
C6 C4 1_555 1_555
H4 C6 1_555 1_555
H5 C6 1_555 1_555
C7 N2 1_555 1_555
C8 C9 1_555 1_555
C9 C10 1_555 1_555
C10 H6 1_555 1_555
C11 C10 1_555 1_555
H7 C11 1_555 1_555
C12 H8 1_555 1_555
C13 C9 1_555 1_555
H9 C13 1_555 1_555
Cl1 C1 1_555 1_555
N1 C1 1_555 1_555
N2 N3 1_555 1_555
N3 C8 1_555 1_555
N4 C11 1_555 1_555
O1 C7 1_555 1_555
S1 C6 1_555 1_555
C5 N1 1_555 1_555
C7 S1 1_555 1_555
C8 O1 1_555 1_555
C12 C13 1_555 1_555
C12 N4 1_555 1_555

#END
