
#######################################################################
#
#                 Cambridge Crystallographic Data Centre
#                                CCDC 
#
#######################################################################
#
# If this CIF has been generated from an entry in the Cambridge 
# Structural Database, then it will include bibliographic, chemical, 
# crystal, experimental, refinement or atomic coordinate data resulting 
# from the CCDC's data processing and validation procedures.
#
#######################################################################

data_KIKLEW
_chemical_formula_moiety         'C5 H6 N1 O1 1+,C6 H2 N3 O7 1-'
_chemical_name_systematic        '2-Hydroxypyridinium 2,4,6-trinitrophenolate'
_symmetry_cell_setting           monoclinic
_symmetry_space_group_name_H-M   'P 21/c'
_symmetry_Int_Tables_number      14
_space_group_name_Hall           '-P 2ybc'
loop_
_symmetry_equiv_pos_site_id
_symmetry_equiv_pos_as_xyz
1 x,y,z
2 -x,1/2+y,1/2-z
3 -x,-y,-z
4 x,1/2-y,1/2+z
_cell_length_a                   12.360(3)
_cell_length_b                   3.7323(10)
_cell_length_c                   27.575(7)
_cell_angle_alpha                90
_cell_angle_beta                 93.128(4)
_cell_angle_gamma                90
_cell_volume                     1270.17
_exptl_crystal_colour            yellow
_exptl_crystal_description       needle
_cell_formula_units_Z            4
_exptl_crystal_recrystallization_method methanol/water
loop_
_atom_site_label
_atom_site_type_symbol
_atom_site_fract_x
_atom_site_fract_y
_atom_site_fract_z
O1 O 0.08847(19) 0.7094(8) 0.47182(8)
N1 N 0.2547(2) 0.5368(8) 0.50557(9)
C1 C 0.1554(3) 0.6779(9) 0.51021(11)
C2 C 0.1262(3) 0.7854(9) 0.55578(11)
H1 H 0.0580 0.8824 0.5599
C3 C 0.1985(3) 0.7474(9) 0.59448(12)
H2 H 0.1792 0.8195 0.6251
C4 C 0.3011(3) 0.6021(10) 0.58887(12)
H3 H 0.3503 0.5773 0.6154
C5 C 0.3270(3) 0.4985(9) 0.54424(12)
H4 H 0.3948 0.3999 0.5398
H7 H 0.271(3) 0.451(11) 0.4762(7)
H8 H 0.123(3) 0.645(12) 0.4472(9)
O2 O 0.19824(18) 0.3631(7) 0.41230(8)
O3 O 0.02968(19) 0.7159(7) 0.36716(9)
O4 O -0.01971(19) 0.4424(8) 0.30070(9)
O5 O 0.2730(2) 0.3254(9) 0.19155(9)
O6 O 0.4134(2) 0.0296(8) 0.21813(9)
O7 O 0.4813(2) -0.1360(8) 0.38769(9)
O8 O 0.3973(2) 0.1652(9) 0.43928(9)
N2 N 0.0490(2) 0.5260(8) 0.33235(10)
N3 N 0.3295(2) 0.1891(9) 0.22435(10)
N4 N 0.4074(2) 0.0611(8) 0.39779(10)
C6 C 0.2276(2) 0.3217(9) 0.36964(11)
C7 C 0.1595(2) 0.3997(9) 0.32664(11)
C8 C 0.1906(2) 0.3560(9) 0.28060(11)
H5 H 0.1437 0.4126 0.2542
C9 C 0.2940(3) 0.2251(9) 0.27358(11)
C10 C 0.3629(3) 0.1285(9) 0.31213(11)
H6 H 0.4308 0.0340 0.3068
C11 C 0.3303(2) 0.1730(9) 0.35853(11)
loop_
_geom_bond_atom_site_label_1
_geom_bond_atom_site_label_2
_geom_bond_site_symmetry_1
_geom_bond_site_symmetry_2
O1 C1 1_555 1_555
O2 C6 1_555 1_555
O3 N2 1_555 1_555
O4 N2 1_555 1_555
O5 N3 1_555 1_555
O6 N3 1_555 1_555
O7 N4 1_555 1_555
O8 N4 1_555 1_555
N1 C1 1_555 1_555
N2 C7 1_555 1_555
N3 C9 1_555 1_555
N4 C11 1_555 1_555
C1 C2 1_555 1_555
C2 H1 1_555 1_555
C3 C2 1_555 1_555
H2 C3 1_555 1_555
C4 C3 1_555 1_555
H3 C4 1_555 1_555
C5 N1 1_555 1_555
H4 C5 1_555 1_555
C6 C7 1_555 1_555
C7 C8 1_555 1_555
C8 H5 1_555 1_555
C9 C8 1_555 1_555
C10 C9 1_555 1_555
H6 C10 1_555 1_555
C11 C6 1_555 1_555
H7 N1 1_555 1_555
H8 O1 1_555 1_555
C4 C5 1_555 1_555
C10 C11 1_555 1_555

#END
