
#######################################################################
#
#                 Cambridge Crystallographic Data Centre
#                                CCDC 
#
#######################################################################
#
# If this CIF has been generated from an entry in the Cambridge 
# Structural Database, then it will include bibliographic, chemical, 
# crystal, experimental, refinement or atomic coordinate data resulting 
# from the CCDC's data processing and validation procedures.
#
#######################################################################

data_KIKNAU
_chemical_formula_moiety         'C21 H26 N2 O3'
_chemical_name_systematic        
2,4-Di-t-butyl-6-(4-nitrophenyliminomethyl)phenol
_symmetry_cell_setting           monoclinic
_symmetry_space_group_name_H-M   'P 21/c'
_symmetry_Int_Tables_number      14
_space_group_name_Hall           '-P 2ybc'
loop_
_symmetry_equiv_pos_site_id
_symmetry_equiv_pos_as_xyz
1 x,y,z
2 -x,1/2+y,1/2-z
3 -x,-y,-z
4 x,1/2-y,1/2+z
_cell_length_a                   17.937(4)
_cell_length_b                   6.4674(13)
_cell_length_c                   19.047(4)
_cell_angle_alpha                90
_cell_angle_beta                 113.31(3)
_cell_angle_gamma                90
_cell_volume                     2029.21
_exptl_crystal_colour            red
_exptl_crystal_description       prismatic
_cell_formula_units_Z            4
_exptl_crystal_recrystallization_method ethanol
loop_
_atom_site_label
_atom_site_type_symbol
_atom_site_fract_x
_atom_site_fract_y
_atom_site_fract_z
N1 N 0.1937(2) 0.6463(6) 0.0192(2)
N2 N -0.0060(3) 1.3225(9) -0.1296(4)
O1 O 0.3061(2) 0.3763(5) 0.03105(19)
O2 O -0.0154(3) 1.4634(7) -0.0908(3)
O3 O -0.0361(4) 1.3241(9) -0.1982(3)
C1 C 0.3001(3) 0.3053(7) 0.0964(3)
C2 C 0.3475(3) 0.1359(7) 0.1350(3)
C3 C 0.3358(3) 0.0701(7) 0.1993(2)
H1 H 0.3667 -0.0413 0.2262
C4 C 0.2812(3) 0.1577(8) 0.2269(2)
C5 C 0.2370(3) 0.3253(7) 0.1876(3)
H2 H 0.2010 0.3896 0.2048
C6 C 0.2454(3) 0.4011(7) 0.1219(3)
C7 C 0.1950(3) 0.5732(8) 0.0823(3)
H3 H 0.1619 0.6341 0.1036
C8 C 0.1424(3) 0.8192(8) -0.0155(3)
C9 C 0.1280(3) 0.9791(8) 0.0259(3)
H4 H 0.1512 0.9751 0.0791
C10 C 0.0792(3) 1.1455(8) -0.0111(4)
H5 H 0.0691 1.2521 0.0167
C11 C 0.0464(3) 1.1489(10) -0.0892(4)
C12 C 0.0606(3) 0.9961(11) -0.1317(3)
H6 H 0.0376 1.0026 -0.1848
C13 C 0.1093(3) 0.8326(9) -0.0950(3)
H7 H 0.1203 0.7295 -0.1236
C14 C 0.2742(3) 0.0730(8) 0.2992(3)
C15 C 0.2590(4) -0.1590(8) 0.2925(3)
H8 H 0.3016 -0.2263 0.2827
H9 H 0.2078 -0.1865 0.2512
H10 H 0.2579 -0.2105 0.3394
C16 C 0.3554(4) 0.1089(9) 0.3677(3)
H11 H 0.3982 0.0398 0.3587
H12 H 0.3520 0.0548 0.4133
H13 H 0.3667 0.2544 0.3738
C17 C 0.2078(3) 0.1812(9) 0.3168(3)
H14 H 0.2182 0.3272 0.3217
H15 H 0.2073 0.1281 0.3637
H16 H 0.1560 0.1563 0.2759
C18 C 0.4088(3) 0.0318(8) 0.1086(3)
C19 C 0.3662(3) -0.0516(7) 0.0269(3)
H17 H 0.3270 -0.1540 0.0257
H18 H 0.4057 -0.1128 0.0109
H19 H 0.3394 0.0598 -0.0069
C20 C 0.4737(3) 0.1925(8) 0.1101(3)
H20 H 0.4476 0.3068 0.0775
H21 H 0.5114 0.1288 0.0924
H22 H 0.5023 0.2413 0.1614
C21 C 0.4521(4) -0.1499(9) 0.1605(3)
H23 H 0.4128 -0.2518 0.1596
H24 H 0.4804 -0.1010 0.2118
H25 H 0.4901 -0.2105 0.1425
H26 H 0.264(4) 0.487(11) 0.015(4)
loop_
_geom_bond_atom_site_label_1
_geom_bond_atom_site_label_2
_geom_bond_site_symmetry_1
_geom_bond_site_symmetry_2
N1 C7 1_555 1_555
N2 O2 1_555 1_555
O1 C1 1_555 1_555
O3 N2 1_555 1_555
C1 C2 1_555 1_555
C2 C3 1_555 1_555
C3 H1 1_555 1_555
C4 C3 1_555 1_555
C5 C4 1_555 1_555
H2 C5 1_555 1_555
C6 C1 1_555 1_555
C7 C6 1_555 1_555
H3 C7 1_555 1_555
C8 N1 1_555 1_555
C9 C8 1_555 1_555
H4 C9 1_555 1_555
C10 C9 1_555 1_555
H5 C10 1_555 1_555
C11 N2 1_555 1_555
C12 C11 1_555 1_555
H6 C12 1_555 1_555
C13 C8 1_555 1_555
H7 C13 1_555 1_555
C14 C4 1_555 1_555
C15 C14 1_555 1_555
H8 C15 1_555 1_555
H9 C15 1_555 1_555
H10 C15 1_555 1_555
C16 C14 1_555 1_555
H11 C16 1_555 1_555
H12 C16 1_555 1_555
H13 C16 1_555 1_555
C17 C14 1_555 1_555
H14 C17 1_555 1_555
H15 C17 1_555 1_555
H16 C17 1_555 1_555
C18 C2 1_555 1_555
C19 C18 1_555 1_555
H17 C19 1_555 1_555
H18 C19 1_555 1_555
H19 C19 1_555 1_555
C20 C18 1_555 1_555
H20 C20 1_555 1_555
H21 C20 1_555 1_555
H22 C20 1_555 1_555
C21 C18 1_555 1_555
H23 C21 1_555 1_555
H24 C21 1_555 1_555
H25 C21 1_555 1_555
H26 O1 1_555 1_555
C5 C6 1_555 1_555
C10 C11 1_555 1_555
C12 C13 1_555 1_555

#END
