
#######################################################################
#
#                 Cambridge Crystallographic Data Centre
#                                CCDC 
#
#######################################################################
#
# If this CIF has been generated from an entry in the Cambridge 
# Structural Database, then it will include bibliographic, chemical, 
# crystal, experimental, refinement or atomic coordinate data resulting 
# from the CCDC's data processing and validation procedures.
#
#######################################################################

data_KIKTUT04
_chemical_formula_moiety         'C29 H20 O1'
_chemical_name_systematic        2,3,4,5-tetraphenylcyclopenta-2,4-dien-1-one
_symmetry_cell_setting           monoclinic
_symmetry_space_group_name_H-M   'C 2/c'
_symmetry_Int_Tables_number      15
_space_group_name_Hall           '-C 2yn'
loop_
_symmetry_equiv_pos_site_id
_symmetry_equiv_pos_as_xyz
1 x,y,z
2 -x,y,1/2-z
3 1/2+x,1/2+y,z
4 1/2-x,1/2+y,1/2-z
5 -x,-y,-z
6 x,-y,1/2+z
7 1/2-x,1/2-y,-z
8 1/2+x,1/2-y,1/2+z
_cell_length_a                   26.128(2)
_cell_length_b                   8.1552(8)
_cell_length_c                   21.487(2)
_cell_angle_alpha                90
_cell_angle_beta                 119.724(2)
_cell_angle_gamma                90
_cell_volume                     3976.02
_exptl_crystal_colour            red
_exptl_crystal_description       Block
_cell_formula_units_Z            8
loop_
_atom_site_label
_atom_site_type_symbol
_atom_site_fract_x
_atom_site_fract_y
_atom_site_fract_z
O1 O 0.19939(5) 0.51859(15) 0.39020(6)
C1 C 0.21898(6) 0.50387(18) 0.45436(8)
C2 C 0.18380(7) 0.50548(18) 0.49233(8)
C3 C 0.22315(6) 0.50504(17) 0.56320(8)
C4 C 0.28518(6) 0.49123(17) 0.57469(8)
C5 C 0.28305(6) 0.48906(17) 0.51051(8)
C6 C 0.11900(6) 0.50028(18) 0.45329(8)
C7 C 0.08612(7) 0.5780(2) 0.38690(8)
H1 H 0.1059 0.6336 0.3660
C8 C 0.02517(7) 0.5748(2) 0.35140(9)
H2 H 0.0035 0.6303 0.3069
C9 C -0.00453(7) 0.4921(2) 0.37977(9)
H3 H -0.0464 0.4911 0.3553
C10 C 0.02744(7) 0.4102(2) 0.44458(9)
H4 H 0.0073 0.3511 0.4641
C11 C 0.08819(7) 0.41406(18) 0.48073(8)
H5 H 0.1095 0.3573 0.5250
C12 C 0.21015(6) 0.52048(17) 0.62234(8)
C13 C 0.16946(6) 0.63714(18) 0.61735(8)
H6 H 0.1517 0.7079 0.5769
C14 C 0.15458(7) 0.65123(19) 0.67082(8)
H7 H 0.1270 0.7320 0.6671
C15 C 0.18003(7) 0.54734(19) 0.72977(8)
H8 H 0.1690 0.5548 0.7657
C16 C 0.22141(7) 0.43297(19) 0.73604(8)
H9 H 0.2392 0.3629 0.7767
C17 C 0.23699(6) 0.42029(18) 0.68315(8)
H10 H 0.2661 0.3431 0.6883
C18 C 0.33814(6) 0.48197(18) 0.64627(8)
C19 C 0.35226(7) 0.60783(19) 0.69623(8)
H11 H 0.3270 0.7001 0.6847
C20 C 0.40309(7) 0.5985(2) 0.76257(9)
H12 H 0.4129 0.6857 0.7959
C21 C 0.43967(7) 0.4625(2) 0.78051(9)
H13 H 0.4744 0.4562 0.8260
C22 C 0.42518(7) 0.3361(2) 0.73162(9)
H14 H 0.4497 0.2418 0.7440
C23 C 0.37523(7) 0.34611(19) 0.66480(8)
H15 H 0.3661 0.2597 0.6313
C24 C 0.33008(7) 0.48950(18) 0.49165(8)
C25 C 0.38596(7) 0.55380(19) 0.53798(8)
H16 H 0.3949 0.5914 0.5842
C26 C 0.42836(7) 0.5633(2) 0.51734(9)
H17 H 0.4659 0.6093 0.5490
C27 C 0.41633(7) 0.5061(2) 0.45056(9)
H18 H 0.4455 0.5124 0.4365
C28 C 0.36161(7) 0.43985(19) 0.40463(9)
H19 H 0.3533 0.3996 0.3591
C29 C 0.31867(7) 0.43181(18) 0.42472(8)
H20 H 0.2811 0.3866 0.3926
loop_
_geom_bond_atom_site_label_1
_geom_bond_atom_site_label_2
_geom_bond_site_symmetry_1
_geom_bond_site_symmetry_2
O1 C1 1_555 1_555
C1 C2 1_555 1_555
C2 C3 1_555 1_555
C3 C4 1_555 1_555
C4 C5 1_555 1_555
C5 C1 1_555 1_555
C6 C2 1_555 1_555
C7 C6 1_555 1_555
H1 C7 1_555 1_555
C8 C7 1_555 1_555
H2 C8 1_555 1_555
C9 C8 1_555 1_555
H3 C9 1_555 1_555
C10 C9 1_555 1_555
H4 C10 1_555 1_555
C11 C6 1_555 1_555
H5 C11 1_555 1_555
C12 C3 1_555 1_555
C13 C12 1_555 1_555
H6 C13 1_555 1_555
C14 C13 1_555 1_555
H7 C14 1_555 1_555
C15 C14 1_555 1_555
H8 C15 1_555 1_555
C16 C15 1_555 1_555
H9 C16 1_555 1_555
C17 C12 1_555 1_555
H10 C17 1_555 1_555
C18 C4 1_555 1_555
C19 C18 1_555 1_555
H11 C19 1_555 1_555
C20 C19 1_555 1_555
H12 C20 1_555 1_555
C21 C20 1_555 1_555
H13 C21 1_555 1_555
C22 C21 1_555 1_555
H14 C22 1_555 1_555
C23 C18 1_555 1_555
H15 C23 1_555 1_555
C24 C5 1_555 1_555
C25 C24 1_555 1_555
H16 C25 1_555 1_555
C26 C25 1_555 1_555
H17 C26 1_555 1_555
C27 C26 1_555 1_555
H18 C27 1_555 1_555
C28 C27 1_555 1_555
H19 C28 1_555 1_555
C29 C24 1_555 1_555
H20 C29 1_555 1_555
C10 C11 1_555 1_555
C16 C17 1_555 1_555
C22 C23 1_555 1_555
C28 C29 1_555 1_555

#END
