
#######################################################################
#
#                 Cambridge Crystallographic Data Centre
#                                CCDC 
#
#######################################################################
#
# If this CIF has been generated from an entry in the Cambridge 
# Structural Database, then it will include bibliographic, chemical, 
# crystal, experimental, refinement or atomic coordinate data resulting 
# from the CCDC's data processing and validation procedures.
#
#######################################################################

data_KIKTUT06
_chemical_formula_moiety         'C29 H20 O1'
_chemical_name_systematic        2,3,4,5-tetraphenylcyclopenta-2,4-dien-1-one
_symmetry_cell_setting           monoclinic
_symmetry_space_group_name_H-M   'C 2/c'
_symmetry_Int_Tables_number      15
_space_group_name_Hall           '-C 2yn'
loop_
_symmetry_equiv_pos_site_id
_symmetry_equiv_pos_as_xyz
1 x,y,z
2 -x,y,1/2-z
3 1/2+x,1/2+y,z
4 1/2-x,1/2+y,1/2-z
5 -x,-y,-z
6 x,-y,1/2+z
7 1/2-x,1/2-y,-z
8 1/2+x,1/2-y,1/2+z
_cell_length_a                   26.167(5)
_cell_length_b                   8.1980(16)
_cell_length_c                   21.500(4)
_cell_angle_alpha                90
_cell_angle_beta                 119.84(3)
_cell_angle_gamma                90
_cell_volume                     4000.63
_exptl_crystal_colour            brown
_exptl_crystal_description       Block
_cell_formula_units_Z            8
loop_
_atom_site_label
_atom_site_type_symbol
_atom_site_fract_x
_atom_site_fract_y
_atom_site_fract_z
O1 O 0.69914(3) 0.48009(10) 0.38978(4)
C1 C 0.58835(4) 0.58559(12) 0.48093(5)
H1 H 0.6099 0.6418 0.5252
C2 C 0.52716(4) 0.59002(13) 0.44462(6)
H2 H 0.5072 0.6492 0.4642
C3 C 0.49493(4) 0.50813(15) 0.37971(6)
H3 H 0.4531 0.5091 0.3554
C4 C 0.52443(4) 0.42534(15) 0.35091(5)
H4 H 0.5026 0.3703 0.3064
C5 C 0.58583(4) 0.42189(12) 0.38658(5)
H5 H 0.6055 0.3666 0.3657
C6 C 0.61875(4) 0.49947(11) 0.45314(5)
C7 C 0.73701(4) 0.57932(11) 0.68316(4)
H6 H 0.7659 0.6566 0.6882
C8 C 0.72143(4) 0.56625(12) 0.73616(5)
H7 H 0.7392 0.6361 0.7768
C9 C 0.68007(4) 0.45151(12) 0.72993(5)
H8 H 0.6691 0.4438 0.7659
C10 C 0.65469(4) 0.34772(12) 0.67082(5)
H9 H 0.6272 0.2672 0.6671
C11 C 0.66948(4) 0.36162(11) 0.61727(5)
H10 H 0.6518 0.2910 0.5769
C12 C 0.71029(4) 0.47891(11) 0.62234(4)
C13 C 0.87519(4) 0.65421(12) 0.66477(5)
H11 H 0.8659 0.7400 0.6311
C14 C 0.92539(4) 0.66452(15) 0.73186(6)
H12 H 0.9498 0.7584 0.7443
C15 C 0.93999(5) 0.53836(17) 0.78082(5)
H13 H 0.9748 0.5446 0.8263
C16 C 0.90347(5) 0.40263(15) 0.76297(5)
H14 H 0.9135 0.3161 0.7964
C17 C 0.85225(4) 0.39263(12) 0.69625(5)
H15 H 0.8270 0.3006 0.6848
C18 C 0.83813(4) 0.51815(11) 0.64637(4)
C19 C 0.81871(4) 0.56848(11) 0.42462(5)
H16 H 0.7812 0.6136 0.3924
C20 C 0.86181(4) 0.56057(12) 0.40468(5)
H17 H 0.8537 0.6012 0.3593
C21 C 0.91657(4) 0.49357(12) 0.45084(6)
H18 H 0.9457 0.4871 0.4369
C22 C 0.92856(4) 0.43594(13) 0.51765(5)
H19 H 0.9660 0.3899 0.5494
C23 C 0.88598(4) 0.44549(12) 0.53820(5)
H20 H 0.8948 0.4076 0.5843
C24 C 0.83011(4) 0.51040(11) 0.49173(5)
C25 C 0.78308(4) 0.51082(11) 0.51025(5)
C26 C 0.78514(4) 0.50879(11) 0.57466(5)
C27 C 0.72319(4) 0.49457(10) 0.56327(4)
C28 C 0.68353(4) 0.49376(11) 0.49177(4)
C29 C 0.71875(4) 0.49512(11) 0.45403(5)
loop_
_geom_bond_atom_site_label_1
_geom_bond_atom_site_label_2
_geom_bond_site_symmetry_1
_geom_bond_site_symmetry_2
O1 C29 1_555 1_555
C1 H1 1_555 1_555
C2 C1 1_555 1_555
H2 C2 1_555 1_555
C3 C2 1_555 1_555
H3 C3 1_555 1_555
C4 C3 1_555 1_555
H4 C4 1_555 1_555
C5 C4 1_555 1_555
H5 C5 1_555 1_555
C6 C1 1_555 1_555
C7 H6 1_555 1_555
C8 C7 1_555 1_555
H7 C8 1_555 1_555
C9 C8 1_555 1_555
H8 C9 1_555 1_555
C10 C9 1_555 1_555
H9 C10 1_555 1_555
C11 C10 1_555 1_555
H10 C11 1_555 1_555
C12 C7 1_555 1_555
C13 H11 1_555 1_555
C14 C13 1_555 1_555
H12 C14 1_555 1_555
C15 C14 1_555 1_555
H13 C15 1_555 1_555
C16 C15 1_555 1_555
H14 C16 1_555 1_555
C17 C16 1_555 1_555
H15 C17 1_555 1_555
C18 C13 1_555 1_555
C19 H16 1_555 1_555
C20 C19 1_555 1_555
H17 C20 1_555 1_555
C21 C20 1_555 1_555
H18 C21 1_555 1_555
C22 C21 1_555 1_555
H19 C22 1_555 1_555
C23 C22 1_555 1_555
H20 C23 1_555 1_555
C24 C19 1_555 1_555
C25 C24 1_555 1_555
C26 C18 1_555 1_555
C27 C12 1_555 1_555
C28 C6 1_555 1_555
C29 C25 1_555 1_555
C5 C6 1_555 1_555
C11 C12 1_555 1_555
C17 C18 1_555 1_555
C23 C24 1_555 1_555
C25 C26 1_555 1_555
C26 C27 1_555 1_555
C27 C28 1_555 1_555
C28 C29 1_555 1_555

#END
