
#######################################################################
#
#                 Cambridge Crystallographic Data Centre
#                                CCDC 
#
#######################################################################
#
# If this CIF has been generated from an entry in the Cambridge 
# Structural Database, then it will include bibliographic, chemical, 
# crystal, experimental, refinement or atomic coordinate data resulting 
# from the CCDC's data processing and validation procedures.
#
#######################################################################

data_KIKTUW
_chemical_formula_moiety         'C24 H19 Cl1 N2 O1'
_chemical_name_systematic        
2-[2-(4-chlorophenyl)-3-phenyl-1,2-oxazolidin-5-yl]quinoline
_symmetry_cell_setting           triclinic
_symmetry_space_group_name_H-M   'P -1'
_symmetry_Int_Tables_number      2
_space_group_name_Hall           '-P 1'
loop_
_symmetry_equiv_pos_site_id
_symmetry_equiv_pos_as_xyz
1 x,y,z
2 -x,-y,-z
_cell_length_a                   5.7976(9)
_cell_length_b                   9.4263(14)
_cell_length_c                   17.097(3)
_cell_angle_alpha                87.715(3)
_cell_angle_beta                 87.737(3)
_cell_angle_gamma                86.465(3)
_cell_volume                     931.188
_exptl_crystal_colour            colorless
_exptl_crystal_description       block
_cell_formula_units_Z            2
loop_
_atom_site_label
_atom_site_type_symbol
_atom_site_fract_x
_atom_site_fract_y
_atom_site_fract_z
Cl1 Cl 0.35786(10) 0.71009(6) 0.00023(3)
O1 O 0.6850(2) 1.03792(15) -0.33076(7)
N1 N 1.2276(3) 0.90422(16) -0.42114(8)
N2 N 0.7222(3) 1.08856(17) -0.25281(8)
C1 C 1.3717(3) 0.7841(2) -0.42284(10)
C2 C 1.5689(3) 0.7836(2) -0.47437(11)
H1 H 1.5976 0.8650 -0.5070
C3 C 1.7175(4) 0.6657(2) -0.47693(12)
H2 H 1.8511 0.6663 -0.5109
C4 C 1.6761(4) 0.5434(2) -0.43011(12)
H3 H 1.7804 0.4619 -0.4334
C5 C 1.4876(4) 0.5408(2) -0.38010(11)
H4 H 1.4609 0.4577 -0.3486
C6 C 1.3313(3) 0.6619(2) -0.37497(10)
C7 C 1.1333(3) 0.6668(2) -0.32413(11)
H5 H 1.0996 0.5866 -0.2911
C8 C 0.9906(3) 0.7874(2) -0.32275(10)
H6 H 0.8567 0.7923 -0.2889
C9 C 1.0447(3) 0.9048(2) -0.37235(10)
C10 C 0.9001(3) 1.0438(2) -0.37472(10)
H7 H 0.8677 1.0714 -0.4305
C11 C 1.0179(3) 1.1637(2) -0.33845(11)
H8 H 0.9563 1.2579 -0.3585
H9 H 1.1874 1.1552 -0.3487
C12 C 0.9560(3) 1.14082(19) -0.25144(10)
H10 H 1.0642 1.0655 -0.2280
C13 C 0.9546(3) 1.27408(19) -0.20508(10)
C14 C 1.1423(3) 1.2995(2) -0.16046(12)
H11 H 1.2715 1.2326 -0.1586
C15 C 1.1403(4) 1.4229(2) -0.11863(12)
H12 H 1.2691 1.4404 -0.0885
C16 C 0.9531(4) 1.5203(2) -0.12039(12)
H13 H 0.9522 1.6040 -0.0912
C17 C 0.7674(4) 1.4957(2) -0.16467(12)
H14 H 0.6385 1.5629 -0.1664
C18 C 0.7685(3) 1.3728(2) -0.20673(11)
H15 H 0.6396 1.3563 -0.2370
C19 C 0.6505(3) 0.99019(19) -0.19433(10)
C20 C 0.4683(3) 0.90506(19) -0.20762(11)
H16 H 0.4047 0.9064 -0.2580
C21 C 0.3803(3) 0.8192(2) -0.14802(11)
H17 H 0.2554 0.7620 -0.1572
C22 C 0.4736(3) 0.8162(2) -0.07492(11)
C23 C 0.6574(3) 0.8974(2) -0.06091(11)
H18 H 0.7230 0.8934 -0.0108
C24 C 0.7447(3) 0.9844(2) -0.12040(10)
H19 H 0.8702 1.0408 -0.1109
loop_
_geom_bond_atom_site_label_1
_geom_bond_atom_site_label_2
_geom_bond_site_symmetry_1
_geom_bond_site_symmetry_2
Cl1 C22 1_555 1_555
O1 N2 1_555 1_555
N1 C1 1_555 1_555
N2 C12 1_555 1_555
C1 C2 1_555 1_555
C2 H1 1_555 1_555
C3 C2 1_555 1_555
H2 C3 1_555 1_555
C4 C3 1_555 1_555
H3 C4 1_555 1_555
C5 C4 1_555 1_555
H4 C5 1_555 1_555
C6 C1 1_555 1_555
C7 C6 1_555 1_555
H5 C7 1_555 1_555
C8 C7 1_555 1_555
H6 C8 1_555 1_555
C9 N1 1_555 1_555
C10 O1 1_555 1_555
H7 C10 1_555 1_555
C11 C10 1_555 1_555
H8 C11 1_555 1_555
H9 C11 1_555 1_555
C12 C11 1_555 1_555
H10 C12 1_555 1_555
C13 C12 1_555 1_555
C14 C13 1_555 1_555
H11 C14 1_555 1_555
C15 C14 1_555 1_555
H12 C15 1_555 1_555
C16 C15 1_555 1_555
H13 C16 1_555 1_555
C17 C16 1_555 1_555
H14 C17 1_555 1_555
C18 C13 1_555 1_555
H15 C18 1_555 1_555
C19 N2 1_555 1_555
C20 C19 1_555 1_555
H16 C20 1_555 1_555
C21 C20 1_555 1_555
H17 C21 1_555 1_555
C22 C21 1_555 1_555
C23 C22 1_555 1_555
H18 C23 1_555 1_555
C24 C19 1_555 1_555
H19 C24 1_555 1_555
C5 C6 1_555 1_555
C8 C9 1_555 1_555
C9 C10 1_555 1_555
C17 C18 1_555 1_555
C23 C24 1_555 1_555

#END
