
#######################################################################
#
#                 Cambridge Crystallographic Data Centre
#                                CCDC 
#
#######################################################################
#
# If this CIF has been generated from an entry in the Cambridge 
# Structural Database, then it will include bibliographic, chemical, 
# crystal, experimental, refinement or atomic coordinate data resulting 
# from the CCDC's data processing and validation procedures.
#
#######################################################################

data_KIKTII
_chemical_formula_moiety         'C16 H20 Cl2 N2 2+,2(N1 O3 1-)'
_chemical_name_systematic        
"N,N'-bis(4-Chlorobenzyl)ethane-1,2-diammonium dinitrate"
_symmetry_cell_setting           monoclinic
_symmetry_space_group_name_H-M   'P 21/n'
_symmetry_Int_Tables_number      14
_space_group_name_Hall           '-P 2yn'
loop_
_symmetry_equiv_pos_site_id
_symmetry_equiv_pos_as_xyz
1 x,y,z
2 1/2-x,1/2+y,1/2-z
3 -x,-y,-z
4 1/2+x,1/2-y,1/2+z
_cell_length_a                   5.6168(7)
_cell_length_b                   31.132(3)
_cell_length_c                   5.7361(8)
_cell_angle_alpha                90
_cell_angle_beta                 91.533(2)
_cell_angle_gamma                90
_cell_volume                     1002.67
_exptl_crystal_colour            colorless
_exptl_crystal_description       block
_chemical_melting_point          '523-525 K'
_cell_formula_units_Z            2
_exptl_crystal_recrystallization_method DMF
loop_
_atom_site_label
_atom_site_type_symbol
_atom_site_fract_x
_atom_site_fract_y
_atom_site_fract_z
Cl1 Cl 0.0520(2) 0.73850(3) 1.0413(2)
N1 N 0.4390(4) 0.55809(7) 0.5597(4)
H1 H 0.3978 0.5555 0.7096
H2 H 0.3039 0.5588 0.4718
C1 C 0.5788(5) 0.51959(9) 0.4944(5)
H3 H 0.7148 0.5163 0.6006
H4 H 0.6371 0.5230 0.3378
C2 C 0.5679(5) 0.59956(10) 0.5305(5)
H5 H 0.5778 0.6062 0.3659
H6 H 0.7288 0.5969 0.5947
C3 C 0.4409(5) 0.63547(9) 0.6525(5)
C4 C 0.2310(6) 0.65296(10) 0.5608(6)
H7 H 0.1703 0.6433 0.4178
C5 C 0.1111(6) 0.68469(10) 0.6801(6)
H8 H -0.0299 0.6962 0.6189
C6 C 0.2042(6) 0.69886(10) 0.8906(6)
C7 C 0.4130(6) 0.68286(11) 0.9844(6)
H9 H 0.4747 0.6934 1.1253
C8 C 0.5312(6) 0.65058(10) 0.8650(6)
H10 H 0.6715 0.6391 0.9280
Cl1B Cl 0.9480(2) 0.26150(3) -0.0413(2)
N1B N 0.5610(4) 0.44191(7) 0.4403(4)
H1B H 0.6022 0.4445 0.2904
H2B H 0.6961 0.4412 0.5282
C1B C 0.4212(5) 0.48041(9) 0.5056(5)
H3B H 0.2852 0.4837 0.3994
H4B H 0.3629 0.4770 0.6622
C2B C 0.4321(5) 0.40044(10) 0.4695(5)
H5B H 0.4222 0.3938 0.6341
H6B H 0.2712 0.4031 0.4053
C3B C 0.5591(5) 0.36453(9) 0.3475(5)
C4B C 0.7690(6) 0.34704(10) 0.4392(6)
H7B H 0.8297 0.3567 0.5822
C5B C 0.8889(6) 0.31531(10) 0.3199(6)
H8B H 1.0299 0.3038 0.3811
C6B C 0.7958(6) 0.30114(10) 0.1094(6)
C7B C 0.5870(6) 0.31714(11) 0.0156(6)
H9B H 0.5253 0.3066 -0.1253
C8B C 0.4688(6) 0.34942(10) 0.1350(6)
H10B H 0.3285 0.3609 0.0720
N2 N 0.1099(5) 0.55806(9) 1.0499(4)
O1 O 0.3261(4) 0.55003(9) 1.0333(4)
O2 O 0.0322(4) 0.56523(10) 1.2485(4)
O3 O -0.0175(5) 0.55903(12) 0.8745(5)
loop_
_geom_bond_atom_site_label_1
_geom_bond_atom_site_label_2
_geom_bond_site_symmetry_1
_geom_bond_site_symmetry_2
Cl1 C6 1_555 1_555
N1 H1 1_555 1_555
H2 N1 1_555 1_555
N2 O1 1_555 1_555
O2 N2 1_555 1_555
O3 N2 1_555 1_555
C1 N1 1_555 1_555
H3 C1 1_555 1_555
H4 C1 1_555 1_555
C2 N1 1_555 1_555
H5 C2 1_555 1_555
H6 C2 1_555 1_555
C3 C2 1_555 1_555
C4 C3 1_555 1_555
H7 C4 1_555 1_555
C5 C4 1_555 1_555
H8 C5 1_555 1_555
C6 C5 1_555 1_555
C7 C6 1_555 1_555
H9 C7 1_555 1_555
C8 C3 1_555 1_555
H10 C8 1_555 1_555
Cl1B C6B 1_555 1_555
N1B H1B 1_555 1_555
H2B N1B 1_555 1_555
C1B C1 1_555 1_555
H3B C1B 1_555 1_555
H4B C1B 1_555 1_555
C2B N1B 1_555 1_555
H5B C2B 1_555 1_555
H6B C2B 1_555 1_555
C3B C2B 1_555 1_555
C4B C3B 1_555 1_555
H7B C4B 1_555 1_555
C5B C4B 1_555 1_555
H8B C5B 1_555 1_555
C6B C5B 1_555 1_555
C7B C6B 1_555 1_555
H9B C7B 1_555 1_555
C8B C3B 1_555 1_555
H10B C8B 1_555 1_555
C7 C8 1_555 1_555
N1B C1B 1_555 1_555
C7B C8B 1_555 1_555

#END
