
#######################################################################
#
#                 Cambridge Crystallographic Data Centre
#                                CCDC 
#
#######################################################################
#
# If this CIF has been generated from an entry in the Cambridge 
# Structural Database, then it will include bibliographic, chemical, 
# crystal, experimental, refinement or atomic coordinate data resulting 
# from the CCDC's data processing and validation procedures.
#
#######################################################################

data_KIKVEG
_chemical_formula_moiety         'C30 H30 Cl1 N1 O4'
_chemical_name_systematic        
9-(1,2-(Methylenedioxy)benzene-5-yl)-10-(4-chlorophenyl)-3,3,6,6-tetramethyl-3,4,6,7-tetrahydroacridine-1,8(2H,5H,9H,10H)-dione
_symmetry_cell_setting           monoclinic
_symmetry_space_group_name_H-M   'P 21/c'
_symmetry_Int_Tables_number      14
_space_group_name_Hall           '-P 2ybc'
loop_
_symmetry_equiv_pos_site_id
_symmetry_equiv_pos_as_xyz
1 x,y,z
2 -x,1/2+y,1/2-z
3 -x,-y,-z
4 x,1/2-y,1/2+z
_cell_length_a                   12.339(2)
_cell_length_b                   10.991(2)
_cell_length_c                   19.753(3)
_cell_angle_alpha                90
_cell_angle_beta                 102.054(2)
_cell_angle_gamma                90
_cell_volume                     2619.8
_exptl_crystal_colour            'pale yellow'
_exptl_crystal_description       block
_chemical_melting_point          '560-561 K'
_cell_formula_units_Z            4
_exptl_crystal_recrystallization_method ethanol
loop_
_atom_site_label
_atom_site_type_symbol
_atom_site_fract_x
_atom_site_fract_y
_atom_site_fract_z
Cl1 Cl 0.63239(16) 1.52738(15) 0.23984(8)
N1 N 0.7985(3) 1.0541(3) 0.36537(18)
O1 O 0.9268(3) 0.8116(3) 0.56215(17)
O2 O 0.9340(3) 0.6660(3) 0.32234(18)
O3 O 0.6752(3) 0.4195(3) 0.4549(2)
O4 O 0.4981(3) 0.4951(3) 0.41699(19)
C1 C 0.8183(4) 1.0340(4) 0.4368(2)
C2 C 0.8007(4) 1.1398(4) 0.4815(2)
H1 H 0.7405 1.1896 0.4566
H2 H 0.8671 1.1895 0.4909
C3 C 0.7732(4) 1.0995(4) 0.5509(2)
C4 C 0.8625(4) 1.0098(4) 0.5835(2)
H3 H 0.9313 1.0541 0.5985
H4 H 0.8423 0.9756 0.6244
C5 C 0.8830(4) 0.9069(4) 0.5377(2)
C6 C 0.8509(4) 0.9237(4) 0.4620(2)
C7 C 0.8551(4) 0.8137(4) 0.4177(2)
H5 H 0.9226 0.7681 0.4372
C8 C 0.8617(4) 0.8552(4) 0.3454(2)
C9 C 0.9045(4) 0.7688(4) 0.3016(2)
C10 C 0.9162(4) 0.8107(4) 0.2313(2)
H6 H 0.9143 0.7404 0.2014
H7 H 0.9878 0.8496 0.2352
C11 C 0.8254(4) 0.8998(4) 0.1980(2)
C12 C 0.8287(4) 1.0068(4) 0.2482(2)
H8 H 0.8943 1.0552 0.2478
H9 H 0.7645 1.0580 0.2323
C13 C 0.8302(4) 0.9670(4) 0.3218(2)
C14 C 0.7585(4) 1.1721(4) 0.3375(2)
C15 C 0.6474(4) 1.1843(5) 0.3061(3)
H10 H 0.5985 1.1196 0.3053
C16 C 0.6102(5) 1.2960(6) 0.2757(3)
H11 H 0.5364 1.3049 0.2535
C17 C 0.6813(5) 1.3918(5) 0.2784(2)
C18 C 0.7907(5) 1.3809(4) 0.3102(3)
H12 H 0.8386 1.4467 0.3120
C19 C 0.8288(4) 1.2708(4) 0.3395(2)
H13 H 0.9031 1.2628 0.3609
C20 C 0.7766(4) 1.2110(5) 0.5983(2)
H14 H 0.7244 1.2707 0.5759
H15 H 0.8498 1.2452 0.6076
H16 H 0.7577 1.1866 0.6411
C21 C 0.6601(4) 1.0405(5) 0.5397(3)
H17 H 0.6584 0.9707 0.5103
H18 H 0.6047 1.0977 0.5182
H19 H 0.6453 1.0156 0.5835
C22 C 0.7141(5) 0.8362(5) 0.1861(3)
H20 H 0.6560 0.8949 0.1725
H21 H 0.7055 0.7970 0.2281
H22 H 0.7102 0.7765 0.1502
C23 C 0.8478(5) 0.9489(5) 0.1293(3)
H23 H 0.9185 0.9890 0.1376
H24 H 0.7908 1.0058 0.1097
H25 H 0.8481 0.8826 0.0977
C24 C 0.7569(4) 0.7316(4) 0.4168(2)
C25 C 0.7729(4) 0.6100(4) 0.4390(2)
H26 H 0.8435 0.5783 0.4548
C26 C 0.6803(5) 0.5407(4) 0.4362(2)
C27 C 0.5756(4) 0.5854(5) 0.4145(2)
C28 C 0.5562(4) 0.7023(5) 0.3925(2)
H27 H 0.4849 0.7325 0.3772
C29 C 0.6500(4) 0.7736(4) 0.3946(2)
H28 H 0.6401 0.8541 0.3802
C30 C 0.5615(5) 0.3901(5) 0.4419(3)
H29 H 0.5416 0.3617 0.4842
H30 H 0.5459 0.3254 0.4079
loop_
_geom_bond_atom_site_label_1
_geom_bond_atom_site_label_2
_geom_bond_site_symmetry_1
_geom_bond_site_symmetry_2
Cl1 C17 1_555 1_555
N1 C1 1_555 1_555
O1 C5 1_555 1_555
O2 C9 1_555 1_555
O3 C26 1_555 1_555
O4 C27 1_555 1_555
C1 C2 1_555 1_555
C2 H1 1_555 1_555
H2 C2 1_555 1_555
C3 C2 1_555 1_555
C4 C3 1_555 1_555
H3 C4 1_555 1_555
H4 C4 1_555 1_555
C5 C4 1_555 1_555
C6 C1 1_555 1_555
C7 C6 1_555 1_555
H5 C7 1_555 1_555
C8 C7 1_555 1_555
C9 C8 1_555 1_555
C10 C9 1_555 1_555
H6 C10 1_555 1_555
H7 C10 1_555 1_555
C11 C10 1_555 1_555
C12 C11 1_555 1_555
H8 C12 1_555 1_555
H9 C12 1_555 1_555
C13 N1 1_555 1_555
C14 N1 1_555 1_555
C15 C14 1_555 1_555
H10 C15 1_555 1_555
C16 C15 1_555 1_555
H11 C16 1_555 1_555
C17 C16 1_555 1_555
C18 C17 1_555 1_555
H12 C18 1_555 1_555
C19 C14 1_555 1_555
H13 C19 1_555 1_555
C20 C3 1_555 1_555
H14 C20 1_555 1_555
H15 C20 1_555 1_555
H16 C20 1_555 1_555
C21 C3 1_555 1_555
H17 C21 1_555 1_555
H18 C21 1_555 1_555
H19 C21 1_555 1_555
C22 C11 1_555 1_555
H20 C22 1_555 1_555
H21 C22 1_555 1_555
H22 C22 1_555 1_555
C23 C11 1_555 1_555
H23 C23 1_555 1_555
H24 C23 1_555 1_555
H25 C23 1_555 1_555
C24 C7 1_555 1_555
C25 C24 1_555 1_555
H26 C25 1_555 1_555
C26 C25 1_555 1_555
C27 C26 1_555 1_555
C28 C27 1_555 1_555
H27 C28 1_555 1_555
C29 C24 1_555 1_555
H28 C29 1_555 1_555
C30 O3 1_555 1_555
H29 C30 1_555 1_555
H30 C30 1_555 1_555
O4 C30 1_555 1_555
C5 C6 1_555 1_555
C8 C13 1_555 1_555
C12 C13 1_555 1_555
C18 C19 1_555 1_555
C28 C29 1_555 1_555

#END
