
#######################################################################
#
#                 Cambridge Crystallographic Data Centre
#                                CCDC 
#
#######################################################################
#
# If this CIF has been generated from an entry in the Cambridge 
# Structural Database, then it will include bibliographic, chemical, 
# crystal, experimental, refinement or atomic coordinate data resulting 
# from the CCDC's data processing and validation procedures.
#
#######################################################################

data_KIKVAC
_chemical_formula_moiety         'C4 H8 N4 O2'
_chemical_name_systematic        
4-Amino-3,5-bis(1-hydroxyethyl)-4H-1,2,4-triazole
_symmetry_cell_setting           orthorhombic
_symmetry_space_group_name_H-M   'P b c a'
_symmetry_Int_Tables_number      61
_space_group_name_Hall           '-P 2ac 2ab'
loop_
_symmetry_equiv_pos_site_id
_symmetry_equiv_pos_as_xyz
1 x,y,z
2 1/2-x,-y,1/2+z
3 -x,1/2+y,1/2-z
4 1/2+x,1/2-y,-z
5 -x,-y,-z
6 1/2+x,y,1/2-z
7 x,1/2-y,1/2+z
8 1/2-x,1/2+y,z
_cell_length_a                   8.7936(17)
_cell_length_b                   8.8609(18)
_cell_length_c                   16.058(2)
_cell_angle_alpha                90
_cell_angle_beta                 90
_cell_angle_gamma                90
_cell_volume                     1251.23
_exptl_crystal_colour            colorless
_exptl_crystal_description       block
_cell_formula_units_Z            8
loop_
_atom_site_label
_atom_site_type_symbol
_atom_site_fract_x
_atom_site_fract_y
_atom_site_fract_z
N1 N -0.06178(18) 0.76742(18) 0.23561(10)
N2 N 0.05790(18) 0.66499(18) 0.23983(10)
N3 N 0.01255(17) 0.71644(17) 0.10961(9)
N4 N 0.0336(2) 0.7147(2) 0.02318(10)
H1 H 0.0599 0.8063 0.0037
H2 H -0.0503 0.6824 -0.0034
O1 O 0.16445(16) 0.38730(15) 0.11444(8)
H3 H 0.1196 0.3501 0.1542
O2 O -0.13453(18) 1.04642(15) 0.10268(8)
H4 H -0.0956 1.0836 0.1443
C1 C 0.1008(2) 0.6365(2) 0.16332(11)
C2 C -0.0871(2) 0.7968(2) 0.15687(11)
C3 C 0.2228(2) 0.5305(2) 0.13717(13)
H5 H 0.2771 0.5733 0.0902
H6 H 0.2945 0.5182 0.1825
C4 C -0.2009(2) 0.9057(2) 0.12349(12)
H7 H -0.2482 0.8629 0.0743
H8 H -0.2798 0.9215 0.1648
loop_
_geom_bond_atom_site_label_1
_geom_bond_atom_site_label_2
_geom_bond_site_symmetry_1
_geom_bond_site_symmetry_2
N1 N2 1_555 1_555
N2 C1 1_555 1_555
N3 N4 1_555 1_555
N4 H1 1_555 1_555
H2 N4 1_555 1_555
O1 H3 1_555 1_555
O2 H4 1_555 1_555
C1 N3 1_555 1_555
C2 N1 1_555 1_555
C3 O1 1_555 1_555
H5 C3 1_555 1_555
H6 C3 1_555 1_555
C4 O2 1_555 1_555
H7 C4 1_555 1_555
H8 C4 1_555 1_555
N3 C2 1_555 1_555
C1 C3 1_555 1_555
C2 C4 1_555 1_555

#END
