
#######################################################################
#
#                 Cambridge Crystallographic Data Centre
#                                CCDC 
#
#######################################################################
#
# If this CIF has been generated from an entry in the Cambridge 
# Structural Database, then it will include bibliographic, chemical, 
# crystal, experimental, refinement or atomic coordinate data resulting 
# from the CCDC's data processing and validation procedures.
#
#######################################################################

data_KIKXIL
_chemical_name_common            
"(+-)-Methyl (1'S*,3S*,4a'S*,5a'S*,10a'R*)-3',4a',5a',6',7',8',10',10a'-octahydro-2-oxo-1'-methyl-10'-oxospiro(3H)-indole-3,6'-(1'H)pyrano(3,4-f)indolizine-4'-carboxylate"
_chemical_formula_moiety         'C21 H22 N2 O5'
_chemical_name_systematic        (+-)-21-Oxoisopteropodine
_symmetry_cell_setting           monoclinic
_symmetry_space_group_name_H-M   'P 21/c'
_symmetry_Int_Tables_number      14
_space_group_name_Hall           '-P 2ybc'
loop_
_symmetry_equiv_pos_site_id
_symmetry_equiv_pos_as_xyz
1 x,y,z
2 -x,1/2+y,1/2-z
3 -x,-y,-z
4 x,1/2-y,1/2+z
_cell_length_a                   12.920(4)
_cell_length_b                   10.342(4)
_cell_length_c                   15.192(8)
_cell_angle_alpha                90
_cell_angle_beta                 105.68(3)
_cell_angle_gamma                90
_cell_volume                     1954.39
_exptl_crystal_colour            colorless
_cell_formula_units_Z            4
loop_
_atom_site_label
_atom_site_type_symbol
_atom_site_fract_x
_atom_site_fract_y
_atom_site_fract_z
N1 N 0.0946(10) 0.1202(11) 0.4727(9)
C1 C 0.0426(11) 0.2337(13) 0.4772(9)
C2 C 0.0644(9) 0.2681(11) 0.5792(7)
C3 C 0.1343(9) 0.1593(11) 0.6239(9)
C4 C 0.1813(10) 0.1331(13) 0.7162(10)
C5 C 0.2434(11) 0.024(2) 0.7396(11)
C6 C 0.2602(12) -0.057(2) 0.6760(14)
C7 C 0.2096(12) -0.0343(15) 0.5823(12)
C8 C 0.1502(10) 0.0755(13) 0.5588(10)
O1 O -0.0087(7) 0.2966(8) 0.4133(5)
C9 C 0.3638(14) 0.4868(15) 0.8006(9)
O2 O 0.4579(7) 0.5610(10) 0.7938(8)
C10 C 0.458(2) 0.597(2) 0.7087(13)
C11 C 0.3763(12) 0.5945(12) 0.6354(11)
C12 C 0.2642(9) 0.5554(12) 0.6426(8)
C13 C 0.2291(10) 0.4241(13) 0.5981(9)
C14 C -0.0386(11) 0.2857(14) 0.6102(11)
C15 C 0.1136(9) 0.4039(12) 0.5996(8)
C16 C -0.0044(12) 0.3710(15) 0.6934(11)
N2 N 0.0969(8) 0.4313(9) 0.6888(7)
C17 C 0.1584(11) 0.5001(11) 0.7565(9)
C18 C 0.2622(11) 0.5543(12) 0.7418(9)
C19 C 0.3877(12) 0.6335(14) 0.5465(11)
O3 O 0.3163(8) 0.6452(11) 0.4795(7)
O4 O 0.4913(8) 0.6574(8) 0.5490(6)
C20 C 0.5083(13) 0.685(2) 0.4589(10)
O5 O 0.1343(6) 0.5191(7) 0.8280(5)
C21 C 0.3679(15) 0.470(2) 0.8996(9)
H1 H 0.077(9) 0.082(10) 0.419(7)
H2 H 0.163(5) 0.193(6) 0.765(4)
H3 H 0.282(7) 0.015(9) 0.810(6)
H4 H 0.294(8) -0.119(10) 0.686(7)
H5 H 0.220(8) -0.087(10) 0.539(6)
H6 H 0.370(6) 0.404(8) 0.768(5)
H7 H 0.521(12) 0.640(14) 0.683(11)
H8 H 0.218(7) 0.631(8) 0.604(5)
H9 H 0.275(7) 0.353(8) 0.630(5)
H10 H 0.237(7) 0.410(9) 0.535(6)
H11 H 0.065(5) 0.460(6) 0.552(4)
H12 H -0.079(6) 0.205(8) 0.618(5)
H13 H -0.093(7) 0.327(9) 0.562(6)
H14 H 0.018(8) 0.327(9) 0.755(7)
H15 H -0.051(6) 0.437(7) 0.699(5)
H16 H 0.266(6) 0.642(7) 0.756(4)
H17 H 0.5835(13) 0.701(2) 0.4670(10)
H18 H 0.4857(13) 0.614(2) 0.4178(10)
H19 H 0.4680(13) 0.761(2) 0.4340(10)
H20 H 0.3035(15) 0.431(2) 0.9074(9)
H21 H 0.3743(15) 0.557(2) 0.9234(9)
H22 H 0.4290(15) 0.420(2) 0.9318(9)
loop_
_geom_bond_atom_site_label_1
_geom_bond_atom_site_label_2
_geom_bond_site_symmetry_1
_geom_bond_site_symmetry_2
N1 C1 1_555 1_555
C1 C2 1_555 1_555
C2 C3 1_555 1_555
C3 C4 1_555 1_555
C4 C5 1_555 1_555
C5 C6 1_555 1_555
C6 C7 1_555 1_555
C7 C8 1_555 1_555
C8 N1 1_555 1_555
O1 C1 1_555 1_555
C9 O2 1_555 1_555
O2 C10 1_555 1_555
C10 C11 1_555 1_555
C11 C12 1_555 1_555
C12 C13 1_555 1_555
C13 C15 1_555 1_555
C14 C2 1_555 1_555
C15 C2 1_555 1_555
C16 C14 1_555 1_555
N2 C15 1_555 1_555
C17 N2 1_555 1_555
C18 C9 1_555 1_555
C19 C11 1_555 1_555
O3 C19 1_555 1_555
O4 C19 1_555 1_555
C20 O4 1_555 1_555
O5 C17 1_555 1_555
C21 C9 1_555 1_555
H1 N1 1_555 1_555
H2 C4 1_555 1_555
H3 C5 1_555 1_555
H4 C6 1_555 1_555
H5 C7 1_555 1_555
H6 C9 1_555 1_555
H7 C10 1_555 1_555
H8 C12 1_555 1_555
H9 C13 1_555 1_555
H10 C13 1_555 1_555
H11 C15 1_555 1_555
H12 C14 1_555 1_555
H13 C14 1_555 1_555
H14 C16 1_555 1_555
H15 C16 1_555 1_555
H16 C18 1_555 1_555
H17 C20 1_555 1_555
H18 C20 1_555 1_555
H19 C20 1_555 1_555
H20 C21 1_555 1_555
H21 C21 1_555 1_555
H22 C21 1_555 1_555
C3 C8 1_555 1_555
C12 C18 1_555 1_555
C16 N2 1_555 1_555
C17 C18 1_555 1_555

#END
