
#######################################################################
#
#                 Cambridge Crystallographic Data Centre
#                                CCDC 
#
#######################################################################
#
# If this CIF has been generated from an entry in the Cambridge 
# Structural Database, then it will include bibliographic, chemical, 
# crystal, experimental, refinement or atomic coordinate data resulting 
# from the CCDC's data processing and validation procedures.
#
#######################################################################

data_KIKXOR
_chemical_formula_moiety         'C31 H30 F3 N3 O6'
_chemical_name_systematic        
(3(2S),4S)-3-(3-(4-(2-(N-(2-Benzoxazolyl)-N-methylamino)ethoxy)phenyl)-2-(2,2,2-trifluoroethoxy)propanoyl)-4-benzyloxazolidin-2-one
_symmetry_cell_setting           monoclinic
_symmetry_space_group_name_H-M   'P 21'
_symmetry_Int_Tables_number      4
_space_group_name_Hall           'P 2yb'
loop_
_symmetry_equiv_pos_site_id
_symmetry_equiv_pos_as_xyz
1 x,y,z
2 -x,1/2+y,-z
_cell_length_a                   4.6300(10)
_cell_length_b                   11.852(2)
_cell_length_c                   26.535(5)
_cell_angle_alpha                90
_cell_angle_beta                 90.27(2)
_cell_angle_gamma                90
_cell_volume                     1456.09
_exptl_crystal_colour            colorless
_exptl_crystal_description       needles
_chemical_melting_point          '107-109 deg.C'
_cell_formula_units_Z            2
_exptl_crystal_recrystallization_method 'hexane/ethyl acetate'
loop_
_atom_site_label
_atom_site_type_symbol
_atom_site_fract_x
_atom_site_fract_y
_atom_site_fract_z
O1 O 0.8374(4) -0.4670(1) 0.8004(1)
O2 O 0.6204(4) -0.3118(2) 0.7711(1)
O3 O 1.2374(4) -0.1587(2) 0.8654(1)
O4 O 0.9671(4) 0.0059(1) 0.8129(1)
O5 O 0.3486(4) 0.0869(1) 0.5946(1)
O6 O 0.5018(4) 0.1637(2) 0.4242(1)
N1 N 0.1923(5) 0.1550(2) 0.4920(1)
N2 N 0.3556(4) -0.0085(2) 0.4505(1)
N3 N 1.0000(4) -0.3030(2) 0.8292(1)
C1 C 0.1586(8) 0.2755(2) 0.4900(1)
C2 C 0.8011(5) -0.3543(2) 0.7970(1)
C3 C 0.9844(5) -0.3944(2) 0.9123(1)
C4 C 1.1402(5) -0.3880(2) 0.8615(1)
C5 C 1.1005(5) -0.4908(2) 0.8281(1)
C6 C 1.0647(5) -0.1885(2) 0.8336(1)
C7 C 0.9205(5) -0.1071(2) 0.7967(1)
C8 C 1.0555(5) -0.1168(2) 0.7442(1)
C9 C 0.8695(5) -0.0640(2) 0.7041(1)
C10 C 0.6956(5) -0.1303(2) 0.6734(1)
C11 C 0.5182(5) -0.0835(2) 0.6365(1)
C12 C 0.5118(5) 0.0322(2) 0.6302(1)
C13 C 0.6818(6) 0.0995(2) 0.6610(1)
C14 C 0.8595(6) 0.0526(2) 0.6971(1)
C15 C 0.1784(5) 0.0164(2) 0.5626(1)
C16 C 0.0108(5) 0.0884(2) 0.5257(1)
C17 C 0.3434(5) 0.1015(2) 0.4564(1)
C18 C 0.5448(5) -0.0227(2) 0.4098(1)
C19 C 0.6416(7) -0.1187(3) 0.3864(1)
C20 C 0.8333(8) -0.1036(4) 0.3465(1)
C21 C 0.9180(8) 0.0011(4) 0.3315(1)
C22 C 0.8223(7) 0.0989(3) 0.3549(1)
C23 C 0.6362(6) 0.0824(2) 0.3939(1)
C24 C 1.1343(5) -0.4698(2) 0.9504(1)
C25 C 1.3325(6) -0.4261(2) 0.9842(1)
C26 C 1.4678(6) -0.4941(3) 1.0197(1)
C27 C 1.4045(7) -0.6078(3) 1.0214(1)
C28 C 1.2092(7) -0.6525(2) 0.9882(1)
C29 C 1.0728(6) -0.5845(2) 0.9531(1)
C30 C 0.7727(7) 0.0436(3) 0.8495(1)
C31 C 0.7940(11) 0.1697(4) 0.8526(2)
F1 F 0.6625(14) 0.2053(4) 0.8936(2)
F2 F 0.6698(15) 0.2150(4) 0.8125(2)
F3 F 1.0684(11) 0.1997(4) 0.8543(3)
H1 H 0.0282(34) 0.2996(3) 0.5164(5)
H2 H 0.0798(40) 0.2969(3) 0.4574(3)
H3 H 0.3452(11) 0.3113(2) 0.4948(7)
H4 H 0.9693(5) -0.3182(2) 0.9264(1)
H5 H 0.7878(5) -0.4226(2) 0.9067(1)
H6 H 1.3477(5) -0.3707(2) 0.8663(1)
H7 H 1.2644(5) -0.4998(2) 0.8052(1)
H8 H 1.0803(5) -0.5595(2) 0.8484(1)
H9 H 0.7108(5) -0.1228(2) 0.7948(1)
H10 H 1.2448(5) -0.0798(2) 0.7444(1)
H11 H 1.0852(5) -0.1966(2) 0.7361(1)
H12 H 0.6980(5) -0.2091(2) 0.6776(1)
H13 H 0.4033(5) -0.1302(2) 0.6160(1)
H14 H 0.6761(6) 0.1783(2) 0.6571(1)
H15 H 0.9752(6) 0.0997(2) 0.7174(1)
H16 H 0.0444(5) -0.0282(2) 0.5830(1)
H17 H 0.3041(5) -0.0357(2) 0.5442(1)
H18 H -0.1137(5) 0.0393(2) 0.5053(1)
H19 H -0.1145(5) 0.1397(2) 0.5446(1)
H20 H 0.5821(7) -0.1909(3) 0.3968(1)
H21 H 0.9054(8) -0.1672(4) 0.3295(1)
H22 H 1.0461(8) 0.0074(4) 0.3043(1)
H23 H 0.8816(7) 0.1711(3) 0.3447(1)
H24 H 1.3767(6) -0.3487(2) 0.9831(1)
H25 H 1.6019(6) -0.4629(3) 1.0424(1)
H26 H 1.4956(7) -0.6544(3) 1.0453(1)
H27 H 1.1673(7) -0.7300(2) 0.9893(1)
H28 H 0.9369(6) -0.6161(2) 0.9308(1)
H29 H 0.8203(7) 0.0100(3) 0.8822(1)
H30 H 0.5754(7) 0.0213(3) 0.8404(1)
C32? C 0.8261(13) 0.1638(4) 0.8605(2)
F4? F 0.6118(14) 0.2043(5) 0.8877(4)
F5? F 0.8434(20) 0.2205(4) 0.8178(2)
F6? F 1.0708(14) 0.1742(4) 0.8858(2)
loop_
_geom_bond_atom_site_label_1
_geom_bond_atom_site_label_2
_geom_bond_site_symmetry_1
_geom_bond_site_symmetry_2
O1 C2 1_555 1_555
O2 C2 1_555 1_555
O3 C6 1_555 1_555
O4 C7 1_555 1_555
O5 C12 1_555 1_555
O6 C17 1_555 1_555
N1 C1 1_555 1_555
N2 C17 1_555 1_555
N3 C2 1_555 1_555
C1 H1 1_555 1_555
C3 C4 1_555 1_555
C4 N3 1_555 1_555
C5 O1 1_555 1_555
C6 N3 1_555 1_555
C7 C6 1_555 1_555
C8 C7 1_555 1_555
C9 C8 1_555 1_555
C10 C9 1_555 1_555
C11 C10 1_555 1_555
C12 C11 1_555 1_555
C13 C12 1_555 1_555
C14 C9 1_555 1_555
C15 O5 1_555 1_555
C16 N1 1_555 1_555
C17 N1 1_555 1_555
C18 N2 1_555 1_555
C19 C18 1_555 1_555
C20 C19 1_555 1_555
C21 C20 1_555 1_555
C22 C21 1_555 1_555
C23 O6 1_555 1_555
C24 C3 1_555 1_555
C25 C24 1_555 1_555
C26 C25 1_555 1_555
C27 C26 1_555 1_555
C28 C27 1_555 1_555
C29 C24 1_555 1_555
C30 O4 1_555 1_555
C31 C30 1_555 1_555
F1 C31 1_555 1_555
F2 C31 1_555 1_555
F3 C31 1_555 1_555
H2 C1 1_555 1_555
H3 C1 1_555 1_555
H4 C3 1_555 1_555
H5 C3 1_555 1_555
H6 C4 1_555 1_555
H7 C5 1_555 1_555
H8 C5 1_555 1_555
H9 C7 1_555 1_555
H10 C8 1_555 1_555
H11 C8 1_555 1_555
H12 C10 1_555 1_555
H13 C11 1_555 1_555
H14 C13 1_555 1_555
H15 C14 1_555 1_555
H16 C15 1_555 1_555
H17 C15 1_555 1_555
H18 C16 1_555 1_555
H19 C16 1_555 1_555
H20 C19 1_555 1_555
H21 C20 1_555 1_555
H22 C21 1_555 1_555
H23 C22 1_555 1_555
H24 C25 1_555 1_555
H25 C26 1_555 1_555
H26 C27 1_555 1_555
H27 C28 1_555 1_555
H28 C29 1_555 1_555
H29 C30 1_555 1_555
H30 C30 1_555 1_555
C4 C5 1_555 1_555
C13 C14 1_555 1_555
C15 C16 1_555 1_555
C18 C23 1_555 1_555
C22 C23 1_555 1_555
C28 C29 1_555 1_555

#END
