
#######################################################################
#
#                 Cambridge Crystallographic Data Centre
#                                CCDC 
#
#######################################################################
#
# If this CIF has been generated from an entry in the Cambridge 
# Structural Database, then it will include bibliographic, chemical, 
# crystal, experimental, refinement or atomic coordinate data resulting 
# from the CCDC's data processing and validation procedures.
#
#######################################################################

data_KIKYEK
_chemical_formula_moiety         'C4 H6 Cl2 O2'
_chemical_name_systematic        2,3-Dichlorobut-2-ene-1,4-diol
_symmetry_cell_setting           trigonal
_symmetry_space_group_name_H-M   'P 31'
_symmetry_Int_Tables_number      144
_space_group_name_Hall           'P 31'
loop_
_symmetry_equiv_pos_site_id
_symmetry_equiv_pos_as_xyz
1 x,y,z
2 -y,x-y,1/3+z
3 -x+y,-x,2/3+z
_cell_length_a                   15.746(9)
_cell_length_b                   15.746(9)
_cell_length_c                   6.848(4)
_cell_angle_alpha                90
_cell_angle_beta                 90
_cell_angle_gamma                120
_cell_volume                     1470.4
_exptl_crystal_colour            colorless
_exptl_crystal_description       prismatic
_chemical_melting_point          '362 K'
_cell_formula_units_Z            9
loop_
_atom_site_label
_atom_site_type_symbol
_atom_site_fract_x
_atom_site_fract_y
_atom_site_fract_z
Cl1 Cl 0.13031(19) 0.0899(2) 0.9066(6)
O1 O 0.3534(5) 0.0545(4) 1.3410(8)
H1 H 0.3555 0.0252 1.2436
C1 C 0.2554(5) 0.1142(5) 1.1891(12)
C2 C 0.2438(6) 0.1268(6) 1.0002(12)
C3 C 0.3505(6) 0.1396(6) 1.2833(12)
H2 H 0.4036 0.1772 1.1925
H3 H 0.3602 0.1802 1.3970
Cl2 Cl 0.15793(18) 0.05775(19) 1.3442(5)
O2 O 0.3339(5) 0.2695(4) 0.7947(8)
H4 H 0.3265 0.2968 0.8897
C4 C 0.3242(7) 0.1783(6) 0.8532(12)
H5 H 0.3857 0.1898 0.9090
H6 H 0.3104 0.1367 0.7395
Cl3 Cl 0.6172(3) 0.1871(4) 0.4871(14)
O3 O 0.3910(5) -0.0121(6) 1.0014(9)
H7 H 0.3516 -0.0286 0.9111
O4 O 0.6158(4) -0.0083(6) 0.4490(8)
H8 H 0.6467 -0.0076 0.5459
C5 C 0.5320(6) -0.0045(8) 0.5070(13)
H9 H 0.4897 -0.0627 0.5826
H10 H 0.4961 -0.0048 0.3917
C6 C 0.5558(6) 0.0819(6) 0.6231(16)
C7 C 0.5349(7) 0.0827(6) 0.8087(19)
C8 C 0.4783(8) -0.0039(8) 0.9338(12)
H11 H 0.4634 -0.0625 0.8604
H12 H 0.5183 -0.0001 1.0449
Cl4 Cl 0.5735(2) 0.1902(4) 0.9321(16)
Cl5 Cl 0.2936(2) -0.2423(2) 0.5580(6)
O5 O 0.2768(5) -0.0603(5) 0.6684(8)
H13 H 0.2996 -0.0223 0.5759
C9 C 0.1955(5) -0.2139(5) 0.2796(12)
C10 C 0.2211(6) -0.2001(6) 0.4650(13)
C11 C 0.1279(7) -0.1879(7) 0.1769(12)
H14 H 0.1139 -0.1472 0.2621
H15 H 0.1603 -0.1499 0.0613
C12 C 0.1955(6) -0.1476(6) 0.6061(11)
H16 H 0.1482 -0.1330 0.5479
H17 H 0.1648 -0.1895 0.7184
O6 O 0.0394(5) -0.2704(5) 0.1219(8)
H18 H 0.0069 -0.2971 0.2197
Cl6 Cl 0.23374(19) -0.27444(19) 0.1192(5)
loop_
_geom_bond_atom_site_label_1
_geom_bond_atom_site_label_2
_geom_bond_site_symmetry_1
_geom_bond_site_symmetry_2
Cl1 C2 1_555 1_555
O1 H1 1_555 1_555
C1 C2 1_555 1_555
C2 C4 1_555 1_555
C3 O1 1_555 1_555
H2 C3 1_555 1_555
H3 C3 1_555 1_555
Cl2 C1 1_555 1_555
O2 H4 1_555 1_555
C4 O2 1_555 1_555
H5 C4 1_555 1_555
H6 C4 1_555 1_555
Cl3 C6 1_555 1_555
O3 H7 1_555 1_555
O4 H8 1_555 1_555
C5 O4 1_555 1_555
H9 C5 1_555 1_555
H10 C5 1_555 1_555
C6 C5 1_555 1_555
C7 C6 1_555 1_555
C8 O3 1_555 1_555
H11 C8 1_555 1_555
H12 C8 1_555 1_555
Cl4 C7 1_555 1_555
Cl5 C10 1_555 1_555
O5 H13 1_555 1_555
C9 C10 1_555 1_555
C10 C12 1_555 1_555
C11 C9 1_555 1_555
H14 C11 1_555 1_555
H15 C11 1_555 1_555
C12 O5 1_555 1_555
H16 C12 1_555 1_555
H17 C12 1_555 1_555
O6 C11 1_555 1_555
H18 O6 1_555 1_555
Cl6 C9 1_555 1_555
C1 C3 1_555 1_555
C7 C8 1_555 1_555

#END
