
#######################################################################
#
#                 Cambridge Crystallographic Data Centre
#                                CCDC 
#
#######################################################################
#
# If this CIF has been generated from an entry in the Cambridge 
# Structural Database, then it will include bibliographic, chemical, 
# crystal, experimental, refinement or atomic coordinate data resulting 
# from the CCDC's data processing and validation procedures.
#
#######################################################################

data_KILHOD
_chemical_formula_moiety         'C21 H34 O3 Si2'
_chemical_name_systematic        
(4S*,1'S*,1''S*)-rac-2,5-bis(Trimethylsilyl)-3-(1'-hydroxyethyl)-4-(1''-hydroxyethyl)4-phenylcyclopent-2-en-1-one
_symmetry_cell_setting           monoclinic
_symmetry_space_group_name_H-M   'P 21/n'
_symmetry_Int_Tables_number      14
_space_group_name_Hall           '-P 2yn'
loop_
_symmetry_equiv_pos_site_id
_symmetry_equiv_pos_as_xyz
1 x,y,z
2 1/2-x,1/2+y,1/2-z
3 -x,-y,-z
4 1/2+x,1/2-y,1/2+z
_cell_length_a                   11.2485(6)
_cell_length_b                   9.6920(4)
_cell_length_c                   21.3184(9)
_cell_angle_alpha                90
_cell_angle_beta                 102.192(4)
_cell_angle_gamma                90
_cell_volume                     2271.72
_exptl_crystal_colour            colorless
_exptl_crystal_description       needle
_chemical_melting_point          '138 deg.C'
_cell_formula_units_Z            4
loop_
_atom_site_label
_atom_site_type_symbol
_atom_site_fract_x
_atom_site_fract_y
_atom_site_fract_z
Si1 Si 1.01192(10) -0.00216(12) 0.16727(5)
Si2 Si 0.54718(10) 0.24150(12) 0.08225(5)
C1 C 0.8942(3) 0.1245(4) 0.18879(18)
H1 H 0.8859 0.0932 0.2324
C2 C 0.7678(4) 0.1047(4) 0.14822(18)
O1 O 0.7215(2) -0.0079(3) 0.12923(12)
C3 C 0.7042(3) 0.2390(4) 0.13447(17)
C4 C 0.7816(4) 0.3380(4) 0.16389(18)
C5 C 0.9083(3) 0.2837(4) 0.19637(18)
C6 C 1.1684(4) 0.0687(4) 0.1785(2)
H2 H 1.1918 0.1101 0.2213
H3 H 1.1708 0.1392 0.1459
H4 H 1.2251 -0.0058 0.1744
C7 C 0.9670(4) -0.0688(4) 0.0840(2)
H5 H 1.0283 -0.1346 0.0760
H6 H 0.9609 0.0081 0.0536
H7 H 0.8880 -0.1153 0.0784
C8 C 1.0177(4) -0.1491(4) 0.22422(19)
H8 H 1.0698 -0.2221 0.2130
H9 H 0.9355 -0.1853 0.2216
H10 H 1.0509 -0.1171 0.2680
C9 C 0.5666(4) 0.1901(4) 0.00097(19)
H11 H 0.6092 0.1014 0.0036
H12 H 0.6143 0.2605 -0.0157
H13 H 0.4866 0.1814 -0.0278
C10 C 0.4496(4) 0.1172(4) 0.11445(19)
H14 H 0.3687 0.1146 0.0862
H15 H 0.4423 0.1462 0.1575
H16 H 0.4862 0.0251 0.1167
C11 C 0.4684(4) 0.4130(4) 0.07648(19)
H17 H 0.3902 0.4067 0.0458
H18 H 0.5193 0.4829 0.0618
H19 H 0.4544 0.4391 0.1187
C12 C 0.7490(3) 0.4901(4) 0.16066(17)
H20 H 0.6603 0.4982 0.1605
C13 C 0.7715(4) 0.5581(4) 0.09955(19)
H21 H 0.7373 0.6515 0.0959
H22 H 0.7325 0.5035 0.0622
H23 H 0.8592 0.5630 0.1014
O2 O 0.8143(2) 0.5606(3) 0.21562(12)
H24 H 0.7764 0.6324 0.2216
C14 C 0.9444(3) 0.3221(4) 0.26839(19)
H25 H 0.9554 0.4243 0.2724
C15 C 1.0581(4) 0.2518(4) 0.30527(17)
H26 H 1.0746 0.2827 0.3500
H27 H 1.1272 0.2756 0.2860
H28 H 1.0462 0.1516 0.3037
O3 O 0.8439(2) 0.2817(3) 0.29681(12)
H29 H 0.8336 0.3414 0.3237
C16 C 0.9949(4) 0.3465(4) 0.15662(19)
C17 C 1.0813(4) 0.4470(4) 0.17967(19)
H30 H 1.0914 0.4771 0.2229
C18 C 1.1527(4) 0.5039(4) 0.1411(2)
H31 H 1.2117 0.5717 0.1580
C19 C 1.1387(4) 0.4626(4) 0.0783(2)
H32 H 1.1877 0.5023 0.0517
C20 C 1.0534(4) 0.3635(4) 0.0538(2)
H33 H 1.0437 0.3341 0.0105
C21 C 0.9826(4) 0.3079(4) 0.0926(2)
H34 H 0.9232 0.2408 0.0752
loop_
_geom_bond_atom_site_label_1
_geom_bond_atom_site_label_2
_geom_bond_site_symmetry_1
_geom_bond_site_symmetry_2
Si1 C1 1_555 1_555
Si2 C3 1_555 1_555
C1 H1 1_555 1_555
C2 C1 1_555 1_555
O1 C2 1_555 1_555
C3 C2 1_555 1_555
C4 C3 1_555 1_555
C5 C1 1_555 1_555
C6 Si1 1_555 1_555
H2 C6 1_555 1_555
H3 C6 1_555 1_555
H4 C6 1_555 1_555
C7 Si1 1_555 1_555
H5 C7 1_555 1_555
H6 C7 1_555 1_555
H7 C7 1_555 1_555
C8 Si1 1_555 1_555
H8 C8 1_555 1_555
H9 C8 1_555 1_555
H10 C8 1_555 1_555
C9 Si2 1_555 1_555
H11 C9 1_555 1_555
H12 C9 1_555 1_555
H13 C9 1_555 1_555
C10 Si2 1_555 1_555
H14 C10 1_555 1_555
H15 C10 1_555 1_555
H16 C10 1_555 1_555
C11 Si2 1_555 1_555
H17 C11 1_555 1_555
H18 C11 1_555 1_555
H19 C11 1_555 1_555
C12 C4 1_555 1_555
H20 C12 1_555 1_555
C13 C12 1_555 1_555
H21 C13 1_555 1_555
H22 C13 1_555 1_555
H23 C13 1_555 1_555
O2 C12 1_555 1_555
H24 O2 1_555 1_555
C14 C5 1_555 1_555
H25 C14 1_555 1_555
C15 C14 1_555 1_555
H26 C15 1_555 1_555
H27 C15 1_555 1_555
H28 C15 1_555 1_555
O3 C14 1_555 1_555
H29 O3 1_555 1_555
C16 C5 1_555 1_555
C17 C16 1_555 1_555
H30 C17 1_555 1_555
C18 C17 1_555 1_555
H31 C18 1_555 1_555
C19 C18 1_555 1_555
H32 C19 1_555 1_555
C20 C19 1_555 1_555
H33 C20 1_555 1_555
C21 C16 1_555 1_555
H34 C21 1_555 1_555
C4 C5 1_555 1_555
C20 C21 1_555 1_555

#END
