
#######################################################################
#
#                 Cambridge Crystallographic Data Centre
#                                CCDC 
#
#######################################################################
#
# If this CIF has been generated from an entry in the Cambridge 
# Structural Database, then it will include bibliographic, chemical, 
# crystal, experimental, refinement or atomic coordinate data resulting 
# from the CCDC's data processing and validation procedures.
#
#######################################################################

data_KILJOG01
_chemical_formula_moiety         'C17 H27 O3 P1'
_chemical_name_systematic        
'2-isopropyl-5-methylcyclohexyl (hydroxymethyl)phenylphosphinate'
_symmetry_cell_setting           orthorhombic
_symmetry_space_group_name_H-M   'P 21 21 21'
_symmetry_Int_Tables_number      19
_space_group_name_Hall           'P 2ac 2ab'
loop_
_symmetry_equiv_pos_site_id
_symmetry_equiv_pos_as_xyz
1 x,y,z
2 1/2-x,-y,1/2+z
3 1/2+x,1/2-y,-z
4 -x,1/2+y,1/2-z
_cell_length_a                   5.7760(5)
_cell_length_b                   9.8461(8)
_cell_length_c                   31.690(3)
_cell_angle_alpha                90
_cell_angle_beta                 90
_cell_angle_gamma                90
_cell_volume                     1802.24
_exptl_crystal_colour            colorless
_exptl_crystal_description       block
_cell_formula_units_Z            4
loop_
_atom_site_label
_atom_site_type_symbol
_atom_site_fract_x
_atom_site_fract_y
_atom_site_fract_z
P1 P 0.5811(5) 0.0660(2) 0.94173(9)
O1 O 0.3494(10) 0.0815(8) 0.9602(2)
O2 O 0.5978(12) 0.1156(6) 0.8953(2)
O3 O 0.7510(19) 0.3005(8) 0.9650(3)
H1 H 0.7553 0.3348 0.9886
C1 C 0.6661(12) -0.1076(5) 0.9411(2)
C2 C 0.8728(12) -0.1431(7) 0.9215(3)
H2 H 0.9673 -0.0762 0.9100
C3 C 0.9383(13) -0.2788(8) 0.9191(3)
H3 H 1.0766 -0.3026 0.9060
C4 C 0.7970(17) -0.3788(5) 0.9363(3)
H4 H 0.8408 -0.4696 0.9347
C5 C 0.5904(16) -0.3432(6) 0.9559(3)
H5 H 0.4959 -0.4102 0.9673
C6 C 0.5249(12) -0.2076(7) 0.9582(2)
H6 H 0.3866 -0.1838 0.9713
C7 C 0.795(2) 0.1588(11) 0.9682(4)
H7 H 0.7984 0.1324 0.9977
H8 H 0.9455 0.1386 0.9561
C8 C 0.402(2) 0.1108(9) 0.8671(3)
H9 H 0.2587 0.1233 0.8831
C9 C 0.393(3) -0.0188(11) 0.8441(4)
H10 H 0.3767 -0.0930 0.8640
H11 H 0.5370 -0.0320 0.8288
C10 C 0.189(4) -0.0200(18) 0.8130(6)
H12 H 0.0434 -0.0109 0.8286
C11 C 0.210(4) 0.0905(18) 0.7831(5)
H13 H 0.0791 0.0889 0.7640
H14 H 0.3496 0.0778 0.7665
C12 C 0.221(4) 0.2353(17) 0.8062(5)
H15 H 0.2380 0.3074 0.7855
H16 H 0.0806 0.2511 0.8221
C13 C 0.438(3) 0.2325(10) 0.8366(3)
H17 H 0.5784 0.2179 0.8200
C14 C 0.455(3) 0.3682(13) 0.8595(5)
H18 H 0.5811 0.3566 0.8798
C15 C 0.542(5) 0.4783(15) 0.8280(6)
H19 H 0.4186 0.5407 0.8220
H20 H 0.5915 0.4355 0.8024
H21 H 0.6694 0.5266 0.8404
C16 C 0.238(4) 0.3954(19) 0.8866(8)
H22 H 0.2521 0.3482 0.9130
H23 H 0.1030 0.3637 0.8719
H24 H 0.2243 0.4911 0.8918
C17 C 0.196(6) -0.162(3) 0.7904(7)
H25 H 0.0565 -0.1754 0.7746
H26 H 0.2104 -0.2329 0.8112
H27 H 0.3270 -0.1658 0.7717
loop_
_geom_bond_atom_site_label_1
_geom_bond_atom_site_label_2
_geom_bond_site_symmetry_1
_geom_bond_site_symmetry_2
P1 O1 1_555 1_555
O2 P1 1_555 1_555
O3 H1 1_555 1_555
C1 P1 1_555 1_555
C2 C1 1_555 1_555
H2 C2 1_555 1_555
C3 C2 1_555 1_555
H3 C3 1_555 1_555
C4 C3 1_555 1_555
H4 C4 1_555 1_555
C5 C4 1_555 1_555
H5 C5 1_555 1_555
C6 C1 1_555 1_555
H6 C6 1_555 1_555
C7 P1 1_555 1_555
H7 C7 1_555 1_555
H8 C7 1_555 1_555
C8 O2 1_555 1_555
H9 C8 1_555 1_555
C9 C8 1_555 1_555
H10 C9 1_555 1_555
H11 C9 1_555 1_555
C10 C9 1_555 1_555
H12 C10 1_555 1_555
C11 C10 1_555 1_555
H13 C11 1_555 1_555
H14 C11 1_555 1_555
C12 C11 1_555 1_555
H15 C12 1_555 1_555
H16 C12 1_555 1_555
C13 C8 1_555 1_555
H17 C13 1_555 1_555
C14 C13 1_555 1_555
H18 C14 1_555 1_555
C15 C14 1_555 1_555
H19 C15 1_555 1_555
H20 C15 1_555 1_555
H21 C15 1_555 1_555
C16 C14 1_555 1_555
H22 C16 1_555 1_555
H23 C16 1_555 1_555
H24 C16 1_555 1_555
C17 C10 1_555 1_555
H25 C17 1_555 1_555
H26 C17 1_555 1_555
H27 C17 1_555 1_555
O3 C7 1_555 1_555
C5 C6 1_555 1_555
C12 C13 1_555 1_555

#END
