
#######################################################################
#
#                 Cambridge Crystallographic Data Centre
#                                CCDC 
#
#######################################################################
#
# If this CIF has been generated from an entry in the Cambridge 
# Structural Database, then it will include bibliographic, chemical, 
# crystal, experimental, refinement or atomic coordinate data resulting 
# from the CCDC's data processing and validation procedures.
#
#######################################################################

data_KILJEX
_chemical_formula_moiety         'C18 H17 N1 O3'
_chemical_name_systematic        
1',2',3',3a'-tetrahydro-2H,5'H,6H-spiro[1,3-benzodioxole-5,4'-pyrrolo[1,2-a]quinolin]-6-one
_symmetry_cell_setting           triclinic
_symmetry_space_group_name_H-M   'P -1'
_symmetry_Int_Tables_number      2
_space_group_name_Hall           '-P 1'
loop_
_symmetry_equiv_pos_site_id
_symmetry_equiv_pos_as_xyz
1 x,y,z
2 -x,-y,-z
_cell_length_a                   8.5960(6)
_cell_length_b                   9.3242(8)
_cell_length_c                   9.5215(7)
_cell_angle_alpha                101.132(7)
_cell_angle_beta                 103.244(6)
_cell_angle_gamma                96.071(6)
_cell_volume                     719.837
_exptl_crystal_colour            white
_exptl_crystal_description       BLOCK
_cell_formula_units_Z            2
_exptl_crystal_recrystallization_method 'Re-crystallisation from solvent'
loop_
_atom_site_label
_atom_site_type_symbol
_atom_site_fract_x
_atom_site_fract_y
_atom_site_fract_z
N1 N 0.76196(17) 0.49870(15) 0.90140(15)
O1 O 0.95989(14) 0.84511(14) 0.73268(13)
O2 O 0.44368(16) 0.99205(17) 0.66114(17)
O3 O 0.37633(15) 0.88373(15) 0.84083(15)
C1 C 0.7839(2) 0.4591(2) 1.1487(2)
H1 H 0.7329 0.3617 1.1100
C2 C 0.8317(2) 0.5129(2) 1.3000(2)
H2 H 0.8131 0.4510 1.3622
C3 C 0.9072(2) 0.6577(3) 1.3607(2)
H3 H 0.9393 0.6934 1.4628
C4 C 0.9337(2) 0.7480(2) 1.26620(19)
H4 H 0.9827 0.8457 1.3065
C5 C 0.88952(18) 0.69760(18) 1.11331(17)
C6 C 0.91617(18) 0.79839(18) 1.01194(17)
H5 H 1.0202 0.7909 0.9900
H6 H 0.9178 0.9000 1.0612
C7 C 0.78083(17) 0.75672(16) 0.86593(15)
C8 C 0.78547(17) 0.59116(17) 0.79886(16)
H7 H 0.8914 0.5832 0.7787
C9 C 0.6544(2) 0.51849(19) 0.65856(18)
H8 H 0.5545 0.5581 0.6587
H9 H 0.6882 0.5326 0.5711
C10 C 0.6338(3) 0.3561(2) 0.6644(2)
H10 H 0.7149 0.3071 0.6269
H11 H 0.5271 0.3053 0.6072
C11 C 0.6556(3) 0.3598(2) 0.8281(2)
H12 H 0.5528 0.3581 0.8540
H13 H 0.7048 0.2766 0.8546
C12 C 0.81155(18) 0.55024(18) 1.05251(17)
C13 C 0.62014(18) 0.77395(17) 0.89798(17)
H14 H 0.5874 0.7287 0.9676
C14 C 0.52551(18) 0.85355(17) 0.82715(18)
C15 C 0.3182(2) 0.9619(2) 0.7329(3)
H15 H 0.2889 1.0539 0.7787
H16 H 0.2229 0.9035 0.6610
C16 C 0.5678(2) 0.92535(18) 0.71699(19)
C17 C 0.7087(2) 0.9229(2) 0.68023(19)
H17 H 0.7307 0.9700 0.6077
C18 C 0.82548(18) 0.84535(17) 0.75590(16)
loop_
_geom_bond_atom_site_label_1
_geom_bond_atom_site_label_2
_geom_bond_site_symmetry_1
_geom_bond_site_symmetry_2
N1 C8 1_555 1_555
O1 C18 1_555 1_555
O2 C15 1_555 1_555
O3 C14 1_555 1_555
C1 H1 1_555 1_555
C2 C1 1_555 1_555
H2 C2 1_555 1_555
C3 C2 1_555 1_555
H3 C3 1_555 1_555
C4 C3 1_555 1_555
H4 C4 1_555 1_555
C5 C4 1_555 1_555
C6 C5 1_555 1_555
H5 C6 1_555 1_555
H6 C6 1_555 1_555
C7 C6 1_555 1_555
C8 C7 1_555 1_555
H7 C8 1_555 1_555
C9 C8 1_555 1_555
H8 C9 1_555 1_555
H9 C9 1_555 1_555
C10 C9 1_555 1_555
H10 C10 1_555 1_555
H11 C10 1_555 1_555
C11 N1 1_555 1_555
H12 C11 1_555 1_555
H13 C11 1_555 1_555
C12 N1 1_555 1_555
C13 C7 1_555 1_555
H14 C13 1_555 1_555
C14 C13 1_555 1_555
C15 O3 1_555 1_555
H15 C15 1_555 1_555
H16 C15 1_555 1_555
C16 O2 1_555 1_555
C17 C16 1_555 1_555
H17 C17 1_555 1_555
C18 C7 1_555 1_555
C1 C12 1_555 1_555
C5 C12 1_555 1_555
C10 C11 1_555 1_555
C14 C16 1_555 1_555
C17 C18 1_555 1_555

#END
