
#######################################################################
#
#                 Cambridge Crystallographic Data Centre
#                                CCDC 
#
#######################################################################
#
# If this CIF has been generated from an entry in the Cambridge 
# Structural Database, then it will include bibliographic, chemical, 
# crystal, experimental, refinement or atomic coordinate data resulting 
# from the CCDC's data processing and validation procedures.
#
#######################################################################

data_KILNUR
_chemical_formula_moiety         'C36 H30'
_chemical_name_systematic        
1,1',1'',1'''-[(2,5-dimethyl-1,4-phenylene)bis(ethene-2,1,1-triyl)]tetrabenzene
_symmetry_cell_setting           monoclinic
_symmetry_space_group_name_H-M   'P 21/n'
_symmetry_Int_Tables_number      14
_space_group_name_Hall           '-P 2yn'
loop_
_symmetry_equiv_pos_site_id
_symmetry_equiv_pos_as_xyz
1 x,y,z
2 1/2-x,1/2+y,1/2-z
3 -x,-y,-z
4 1/2+x,1/2-y,1/2+z
_cell_length_a                   9.0240(7)
_cell_length_b                   8.3079(6)
_cell_length_c                   17.6624(13)
_cell_angle_alpha                90
_cell_angle_beta                 90.015(2)
_cell_angle_gamma                90
_cell_volume                     1324.16
_exptl_crystal_colour            colorless
_exptl_crystal_description       Block
_cell_formula_units_Z            2
loop_
_atom_site_label
_atom_site_type_symbol
_atom_site_fract_x
_atom_site_fract_y
_atom_site_fract_z
C1 C 0.7998(2) 0.1301(3) 0.20164(11)
H1 H 0.7625 0.0502 0.2332
C2 C 0.7361(3) 0.1548(4) 0.13150(14)
H2 H 0.6556 0.0925 0.1166
C3 C 0.7904(3) 0.2703(4) 0.08382(14)
H3 H 0.7479 0.2859 0.0364
C4 C 0.9078(3) 0.3624(3) 0.10649(12)
H4 H 0.9446 0.4414 0.0743
C5 C 0.9728(2) 0.3399(2) 0.17670(10)
H5 H 1.0529 0.4034 0.1910
C6 C 0.91919(19) 0.2232(2) 0.22588(9)
C7 C 0.98775(18) 0.19614(19) 0.30150(9)
C8 C 1.14793(18) 0.2345(2) 0.31055(9)
C9 C 1.2511(2) 0.1882(2) 0.25631(12)
H6 H 1.2200 0.1316 0.2137
C10 C 1.3991(2) 0.2252(3) 0.26506(16)
H7 H 1.4668 0.1941 0.2282
C11 C 1.4472(3) 0.3072(3) 0.32747(19)
H8 H 1.5473 0.3306 0.3332
C12 C 1.3477(3) 0.3548(3) 0.38150(15)
H9 H 1.3803 0.4105 0.4240
C13 C 1.1989(2) 0.3201(2) 0.37289(11)
H10 H 1.1318 0.3546 0.4094
C14 C 0.90646(19) 0.1399(2) 0.35887(9)
H11 H 0.8044 0.1414 0.3516
C15 C 0.95757(18) 0.0756(2) 0.43241(9)
C16 C 0.88734(18) 0.1175(2) 0.50038(9)
C17 C 0.7699(2) 0.2453(3) 0.50256(12)
H12 H 0.7410 0.2643 0.5541
H13 H 0.6854 0.2104 0.4739
H14 H 0.8083 0.3429 0.4811
C18 C 0.93219(19) 0.0417(2) 0.56593(9)
H15 H 0.8866 0.0702 0.6112
C1B C 1.2002(2) -0.1301(3) 0.79836(11)
H1B H 1.2375 -0.0502 0.7668
C2B C 1.2639(3) -0.1548(4) 0.86850(14)
H2B H 1.3444 -0.0925 0.8834
C3B C 1.2096(3) -0.2703(4) 0.91618(14)
H3B H 1.2521 -0.2859 0.9636
C4B C 1.0922(3) -0.3624(3) 0.89351(12)
H4B H 1.0554 -0.4414 0.9257
C5B C 1.0272(2) -0.3399(2) 0.82330(10)
H5B H 0.9471 -0.4034 0.8090
C6B C 1.08081(19) -0.2232(2) 0.77412(9)
C7B C 1.01225(18) -0.19614(19) 0.69850(9)
C8B C 0.85207(18) -0.2345(2) 0.68945(9)
C9B C 0.7489(2) -0.1882(2) 0.74369(12)
H6B H 0.7800 -0.1316 0.7863
C10B C 0.6009(2) -0.2252(3) 0.73494(16)
H7B H 0.5332 -0.1941 0.7718
C11B C 0.5528(3) -0.3072(3) 0.67253(19)
H8B H 0.4527 -0.3306 0.6668
C12B C 0.6523(3) -0.3548(3) 0.61850(15)
H9B H 0.6197 -0.4105 0.5760
C13B C 0.8011(2) -0.3201(2) 0.62711(11)
H10B H 0.8682 -0.3546 0.5906
C14B C 1.09354(19) -0.1399(2) 0.64113(9)
H11B H 1.1956 -0.1414 0.6484
C15B C 1.04243(18) -0.0756(2) 0.56759(9)
C16B C 1.11266(18) -0.1175(2) 0.49962(9)
C17B C 1.2301(2) -0.2453(3) 0.49744(12)
H12B H 1.2590 -0.2643 0.4459
H13B H 1.3146 -0.2104 0.5261
H14B H 1.1917 -0.3429 0.5189
C18B C 1.06781(19) -0.0417(2) 0.43407(9)
H15B H 1.1134 -0.0702 0.3888
loop_
_geom_bond_atom_site_label_1
_geom_bond_atom_site_label_2
_geom_bond_site_symmetry_1
_geom_bond_site_symmetry_2
C1 H1 1_555 1_555
C2 C1 1_555 1_555
H2 C2 1_555 1_555
C3 C2 1_555 1_555
H3 C3 1_555 1_555
C4 C3 1_555 1_555
H4 C4 1_555 1_555
C5 C4 1_555 1_555
H5 C5 1_555 1_555
C6 C1 1_555 1_555
C7 C6 1_555 1_555
C8 C7 1_555 1_555
C9 C8 1_555 1_555
H6 C9 1_555 1_555
C10 C9 1_555 1_555
H7 C10 1_555 1_555
C11 C10 1_555 1_555
H8 C11 1_555 1_555
C12 C11 1_555 1_555
H9 C12 1_555 1_555
C13 C8 1_555 1_555
H10 C13 1_555 1_555
C14 C7 1_555 1_555
H11 C14 1_555 1_555
C15 C14 1_555 1_555
C16 C15 1_555 1_555
C17 C16 1_555 1_555
H12 C17 1_555 1_555
H13 C17 1_555 1_555
H14 C17 1_555 1_555
C18 C16 1_555 1_555
H15 C18 1_555 1_555
C1B H1B 1_555 1_555
C2B C1B 1_555 1_555
H2B C2B 1_555 1_555
C3B C2B 1_555 1_555
H3B C3B 1_555 1_555
C4B C3B 1_555 1_555
H4B C4B 1_555 1_555
C5B C4B 1_555 1_555
H5B C5B 1_555 1_555
C6B C1B 1_555 1_555
C7B C6B 1_555 1_555
C8B C7B 1_555 1_555
C9B C8B 1_555 1_555
H6B C9B 1_555 1_555
C10B C9B 1_555 1_555
H7B C10B 1_555 1_555
C11B C10B 1_555 1_555
H8B C11B 1_555 1_555
C12B C11B 1_555 1_555
H9B C12B 1_555 1_555
C13B C8B 1_555 1_555
H10B C13B 1_555 1_555
C14B C7B 1_555 1_555
H11B C14B 1_555 1_555
C15B C18 1_555 1_555
C16B C15B 1_555 1_555
C17B C16B 1_555 1_555
H12B C17B 1_555 1_555
H13B C17B 1_555 1_555
H14B C17B 1_555 1_555
C18B C15 1_555 1_555
H15B C18B 1_555 1_555
C5 C6 1_555 1_555
C12 C13 1_555 1_555
C5B C6B 1_555 1_555
C12B C13B 1_555 1_555
C14B C15B 1_555 1_555
C16B C18B 1_555 1_555

#END
