
#######################################################################
#
#                 Cambridge Crystallographic Data Centre
#                                CCDC 
#
#######################################################################
#
# If this CIF has been generated from an entry in the Cambridge 
# Structural Database, then it will include bibliographic, chemical, 
# crystal, experimental, refinement or atomic coordinate data resulting 
# from the CCDC's data processing and validation procedures.
#
#######################################################################

data_KILWEK
_chemical_formula_moiety         'C25 H35 N1 O3'
_chemical_name_systematic        
5-(dodecyloxy)-2-{[(3-hydroxyphenyl)iminio]methyl}phenolate
_symmetry_cell_setting           triclinic
_symmetry_space_group_name_H-M   'P -1'
_symmetry_Int_Tables_number      2
_space_group_name_Hall           '-P 1'
loop_
_symmetry_equiv_pos_site_id
_symmetry_equiv_pos_as_xyz
1 x,y,z
2 -x,-y,-z
_cell_length_a                   6.740(2)
_cell_length_b                   11.686(4)
_cell_length_c                   15.408(5)
_cell_angle_alpha                80.71(2)
_cell_angle_beta                 80.08(2)
_cell_angle_gamma                74.51(2)
_cell_volume                     1143.48
_exptl_crystal_colour            yellow
_exptl_crystal_description       needle
_cell_formula_units_Z            2
loop_
_atom_site_label
_atom_site_type_symbol
_atom_site_fract_x
_atom_site_fract_y
_atom_site_fract_z
O1 O 0.3660(7) -0.1149(3) 0.5837(3)
O2 O 0.9704(7) -0.3363(3) 0.6961(3)
C1 C 0.4028(11) 0.0985(5) 0.6311(4)
H1 H 0.4229 0.1660 0.6495
C2 C 0.5544(11) -0.0114(6) 0.6450(4)
C3 C 0.5265(11) -0.1190(6) 0.6217(4)
C4 C 0.6759(10) -0.2261(5) 0.6406(4)
H2 H 0.6612 -0.2971 0.6257
C5 C 0.8418(10) -0.2272(6) 0.6804(4)
C6 C 0.8739(10) -0.1235(6) 0.7034(4)
H3 H 0.9893 -0.1260 0.7297
C7 C 0.7322(11) -0.0193(6) 0.6861(4)
H4 H 0.7515 0.0502 0.7018
C8 C 1.1496(10) -0.3470(5) 0.7388(4)
H5 H 1.1080 -0.3213 0.7974
H6 H 1.2393 -0.2990 0.7039
C9 C 1.2588(10) -0.4779(5) 0.7448(5)
H7 H 1.2981 -0.5011 0.6854
H8 H 1.1629 -0.5239 0.7769
C10 C 1.4525(10) -0.5089(5) 0.7911(4)
H9 H 1.5501 -0.4642 0.7587
H10 H 1.4143 -0.4856 0.8505
C11 C 1.5568(10) -0.6425(5) 0.7967(4)
H11 H 1.5869 -0.6655 0.7372
H12 H 1.4591 -0.6859 0.8308
C12 C 1.7572(10) -0.6813(6) 0.8385(4)
H13 H 1.8537 -0.6351 0.8073
H14 H 1.7273 -0.6654 0.8999
C13 C 1.8561(9) -0.8135(5) 0.8346(4)
H15 H 1.7582 -0.8587 0.8657
H16 H 1.8830 -0.8287 0.7730
C14 C 2.0563(9) -0.8582(5) 0.8743(4)
H17 H 2.0309 -0.8438 0.9360
H18 H 2.1561 -0.8143 0.8430
C15 C 2.1458(9) -0.9905(5) 0.8686(4)
H19 H 2.1704 -1.0040 0.8067
H20 H 2.0439 -1.0334 0.8991
C16 C 2.3474(10) -1.0420(5) 0.9081(4)
H21 H 2.4489 -0.9987 0.8777
H22 H 2.3225 -1.0285 0.9700
C17 C 2.4387(10) -1.1737(5) 0.9027(4)
H23 H 2.4669 -1.1870 0.8408
H24 H 2.3362 -1.2169 0.9319
C18 C 2.6398(11) -1.2256(6) 0.9448(4)
H25 H 2.7426 -1.1833 0.9143
H26 H 2.6118 -1.2095 1.0061
C19 C 2.7325(11) -1.3573(5) 0.9430(5)
H27 H 2.8568 -1.3807 0.9707
H28 H 2.6344 -1.4008 0.9746
H29 H 2.7656 -1.3745 0.8826
O3 O -0.3989(7) 0.3103(4) 0.4868(3)
H30 H -0.368(7) 0.242(4) 0.460(3)
N1 N 0.2382(9) 0.1101(5) 0.5944(3)
C20 C 0.0841(11) 0.2181(6) 0.5822(4)
C21 C -0.0758(11) 0.2102(5) 0.5410(4)
H31 H -0.0773 0.1383 0.5229
C22 C -0.2332(11) 0.3103(6) 0.5269(4)
C23 C -0.2352(10) 0.4176(5) 0.5540(4)
H32 H -0.3412 0.4856 0.5433
C24 C -0.0767(11) 0.4204(6) 0.5969(4)
H33 H -0.0793 0.4912 0.6178
C25 C 0.0869(9) 0.3234(5) 0.6108(4)
H34 H 0.1958 0.3285 0.6384
H35 H 0.183(13) 0.010(8) 0.587(6)
loop_
_geom_bond_atom_site_label_1
_geom_bond_atom_site_label_2
_geom_bond_site_symmetry_1
_geom_bond_site_symmetry_2
O1 C3 1_555 1_555
O2 C5 1_555 1_555
C1 H1 1_555 1_555
C2 C1 1_555 1_555
C3 C2 1_555 1_555
C4 C3 1_555 1_555
H2 C4 1_555 1_555
C5 C4 1_555 1_555
C6 C5 1_555 1_555
H3 C6 1_555 1_555
C7 C2 1_555 1_555
H4 C7 1_555 1_555
C8 O2 1_555 1_555
H5 C8 1_555 1_555
H6 C8 1_555 1_555
C9 C8 1_555 1_555
H7 C9 1_555 1_555
H8 C9 1_555 1_555
C10 C9 1_555 1_555
H9 C10 1_555 1_555
H10 C10 1_555 1_555
C11 C10 1_555 1_555
H11 C11 1_555 1_555
H12 C11 1_555 1_555
C12 C11 1_555 1_555
H13 C12 1_555 1_555
H14 C12 1_555 1_555
C13 C12 1_555 1_555
H15 C13 1_555 1_555
H16 C13 1_555 1_555
C14 C13 1_555 1_555
H17 C14 1_555 1_555
H18 C14 1_555 1_555
C15 C14 1_555 1_555
H19 C15 1_555 1_555
H20 C15 1_555 1_555
C16 C15 1_555 1_555
H21 C16 1_555 1_555
H22 C16 1_555 1_555
C17 C16 1_555 1_555
H23 C17 1_555 1_555
H24 C17 1_555 1_555
C18 C17 1_555 1_555
H25 C18 1_555 1_555
H26 C18 1_555 1_555
C19 C18 1_555 1_555
H27 C19 1_555 1_555
H28 C19 1_555 1_555
H29 C19 1_555 1_555
O3 H30 1_555 1_555
N1 C1 1_555 1_555
C20 N1 1_555 1_555
C21 C20 1_555 1_555
H31 C21 1_555 1_555
C22 O3 1_555 1_555
C23 C22 1_555 1_555
H32 C23 1_555 1_555
C24 C23 1_555 1_555
H33 C24 1_555 1_555
C25 C20 1_555 1_555
H34 C25 1_555 1_555
H35 N1 1_555 1_555
C6 C7 1_555 1_555
C21 C22 1_555 1_555
C24 C25 1_555 1_555

#END
