
#######################################################################
#
#                 Cambridge Crystallographic Data Centre
#                                CCDC 
#
#######################################################################
#
# If this CIF has been generated from an entry in the Cambridge 
# Structural Database, then it will include bibliographic, chemical, 
# crystal, experimental, refinement or atomic coordinate data resulting 
# from the CCDC's data processing and validation procedures.
#
#######################################################################

data_KILYIQ
_chemical_formula_moiety         'C19 H19 Cl1 O3'
_chemical_name_systematic        
'ethyl 2-[(2-chlorophenyl)(hydroxy)methyl]-4-phenylbut-3-enoate'
_symmetry_cell_setting           monoclinic
_symmetry_space_group_name_H-M   'P 21/n'
_symmetry_Int_Tables_number      14
_space_group_name_Hall           '-P 2yn'
loop_
_symmetry_equiv_pos_site_id
_symmetry_equiv_pos_as_xyz
1 x,y,z
2 1/2-x,1/2+y,1/2-z
3 -x,-y,-z
4 1/2+x,1/2-y,1/2+z
_cell_length_a                   14.5703(4)
_cell_length_b                   8.1574(3)
_cell_length_c                   14.7938(5)
_cell_angle_alpha                90
_cell_angle_beta                 104.598(3)
_cell_angle_gamma                90
_cell_volume                     1701.57
_cell_formula_units_Z            4
loop_
_atom_site_label
_atom_site_type_symbol
_atom_site_fract_x
_atom_site_fract_y
_atom_site_fract_z
Cl1 Cl 0.10779(5) 0.39583(12) 0.48660(7)
O1 O 0.40097(10) 0.54955(19) 0.58369(10)
H1 H 0.4207 0.5956 0.5430
O2 O 0.42005(10) 0.09787(18) 0.58934(10)
O3 O 0.51751(9) 0.2665(2) 0.53993(10)
C1 C 0.34850(12) 0.3061(2) 0.48477(13)
H2 H 0.2970 0.2255 0.4736
C2 C 0.36178(13) 0.3616(2) 0.39191(13)
H3 H 0.4078 0.4406 0.3918
C3 C 0.31258(13) 0.3057(3) 0.31115(13)
H4 H 0.2661 0.2281 0.3123
C4 C 0.32404(13) 0.3542(2) 0.21886(13)
C5 C 0.40398(16) 0.4353(3) 0.20770(15)
H5 H 0.4530 0.4586 0.2600
C6 C 0.41233(19) 0.4824(4) 0.12057(17)
H6 H 0.4667 0.5365 0.1146
C7 C 0.3404(2) 0.4494(3) 0.04249(17)
H7 H 0.3455 0.4827 -0.0162
C8 C 0.2616(2) 0.3673(3) 0.05176(16)
H8 H 0.2133 0.3435 -0.0010
C9 C 0.25300(16) 0.3193(3) 0.13899(14)
H9 H 0.1991 0.2631 0.1442
C10 C 0.32163(13) 0.4517(2) 0.54154(13)
H10 H 0.2755 0.5209 0.4985
C11 C 0.27679(15) 0.3920(3) 0.61702(15)
C12 C 0.17987(18) 0.3624(3) 0.5981(2)
C13 C 0.1384(3) 0.3060(4) 0.6664(4)
H11 H 0.0734 0.2873 0.6524
C14 C 0.1925(4) 0.2780(4) 0.7538(4)
H12 H 0.1645 0.2406 0.7999
C15 C 0.2890(3) 0.3047(4) 0.7750(2)
H13 H 0.3261 0.2837 0.8349
C16 C 0.3308(2) 0.3630(3) 0.70649(17)
H14 H 0.3957 0.3826 0.7212
C17 C 0.43823(13) 0.2245(2) 0.54052(13)
C18 C 0.50091(17) 0.0047(3) 0.64402(16)
H15 H 0.5523 0.0088 0.6133
H16 H 0.4827 -0.1091 0.6472
C19 C 0.5342(2) 0.0716(4) 0.74013(18)
H17 H 0.5559 0.1821 0.7372
H18 H 0.5853 0.0054 0.7753
H19 H 0.4828 0.0706 0.7700
loop_
_geom_bond_atom_site_label_1
_geom_bond_atom_site_label_2
_geom_bond_site_symmetry_1
_geom_bond_site_symmetry_2
Cl1 C12 1_555 1_555
O1 H1 1_555 1_555
O2 C17 1_555 1_555
O3 C17 1_555 1_555
C1 H2 1_555 1_555
C2 C1 1_555 1_555
H3 C2 1_555 1_555
C3 C2 1_555 1_555
H4 C3 1_555 1_555
C4 C3 1_555 1_555
C5 C4 1_555 1_555
H5 C5 1_555 1_555
C6 C5 1_555 1_555
H6 C6 1_555 1_555
C7 C6 1_555 1_555
H7 C7 1_555 1_555
C8 C7 1_555 1_555
H8 C8 1_555 1_555
C9 C4 1_555 1_555
H9 C9 1_555 1_555
C10 O1 1_555 1_555
H10 C10 1_555 1_555
C11 C10 1_555 1_555
C12 C11 1_555 1_555
C13 C12 1_555 1_555
H11 C13 1_555 1_555
C14 C13 1_555 1_555
H12 C14 1_555 1_555
C15 C14 1_555 1_555
H13 C15 1_555 1_555
C16 C11 1_555 1_555
H14 C16 1_555 1_555
C17 C1 1_555 1_555
C18 O2 1_555 1_555
H15 C18 1_555 1_555
H16 C18 1_555 1_555
C19 C18 1_555 1_555
H17 C19 1_555 1_555
H18 C19 1_555 1_555
H19 C19 1_555 1_555
C1 C10 1_555 1_555
C8 C9 1_555 1_555
C15 C16 1_555 1_555

#END
