
#######################################################################
#
#                 Cambridge Crystallographic Data Centre
#                                CCDC 
#
#######################################################################
#
# If this CIF has been generated from an entry in the Cambridge 
# Structural Database, then it will include bibliographic, chemical, 
# crystal, experimental, refinement or atomic coordinate data resulting 
# from the CCDC's data processing and validation procedures.
#
#######################################################################

data_KILYOW
_chemical_formula_moiety         'C19 H19 Br1 O3'
_chemical_name_systematic        
'ethyl 2-[(4-bromophenyl)(hydroxy)methyl]-4-phenylbut-3-enoate'
_symmetry_cell_setting           monoclinic
_symmetry_space_group_name_H-M   'P 21/c'
_symmetry_Int_Tables_number      14
_space_group_name_Hall           '-P 2ybc'
loop_
_symmetry_equiv_pos_site_id
_symmetry_equiv_pos_as_xyz
1 x,y,z
2 -x,1/2+y,1/2-z
3 -x,-y,-z
4 x,1/2-y,1/2+z
_cell_length_a                   17.1424(4)
_cell_length_b                   5.80416(17)
_cell_length_c                   17.8991(4)
_cell_angle_alpha                90
_cell_angle_beta                 104.562(2)
_cell_angle_gamma                90
_cell_volume                     1723.7
_cell_formula_units_Z            4
loop_
_atom_site_label
_atom_site_type_symbol
_atom_site_fract_x
_atom_site_fract_y
_atom_site_fract_z
Br1 Br 0.05752(2) 0.08191(7) 0.43497(2)
C1 C 0.29569(11) 0.1206(3) 0.18211(11)
H1 H 0.3244 -0.0166 0.1926
O1 O 0.27244(9) 0.2785(3) 0.02123(8)
C2 C 0.3393(2) 0.4818(5) -0.05982(17)
H2 H 0.3490 0.4883 -0.1103
H3 H 0.3898 0.4811 -0.0215
H4 H 0.3084 0.6139 -0.0523
O2 O 0.22354(13) -0.0765(3) 0.00161(10)
O3 O 0.18948(10) -0.2892(3) 0.12655(9)
H5 H 0.2024 -0.3442 0.1701
C3 C 0.32443(12) 0.3045(4) 0.22280(11)
H6 H 0.2938 0.4381 0.2115
C4 C 0.45956(12) 0.1564(4) 0.29699(12)
H7 H 0.4530 0.0261 0.2658
C5 C 0.41215(14) 0.5202(4) 0.33079(13)
H8 H 0.3734 0.6358 0.3222
C6 C 0.09372(13) 0.1668(4) 0.21673(14)
H9 H 0.0814 0.2779 0.1781
C7 C 0.48142(17) 0.5446(4) 0.38929(14)
H10 H 0.4886 0.6750 0.4205
C8 C 0.52921(13) 0.1824(5) 0.35586(13)
H11 H 0.5687 0.0686 0.3644
C9 C 0.39964(12) 0.3228(4) 0.28418(11)
C10 C 0.23714(12) 0.0939(4) 0.04093(12)
C11 C 0.13428(11) -0.0317(4) 0.20473(12)
C12 C 0.21818(11) 0.1222(3) 0.11909(11)
H12 H 0.1927 0.2731 0.1198
C13 C 0.15199(13) -0.1948(4) 0.26352(13)
H13 H 0.1793 -0.3285 0.2567
C14 C 0.15732(12) -0.0642(3) 0.12971(12)
H14 H 0.1086 -0.0492 0.0874
C15 C 0.07128(13) 0.2028(5) 0.28489(14)
H15 H 0.0443 0.3366 0.2923
C16 C 0.54006(15) 0.3766(5) 0.40173(14)
H16 H 0.5869 0.3941 0.4410
C17 C 0.08962(13) 0.0366(5) 0.34158(13)
C18 C 0.29351(15) 0.2672(4) -0.05260(13)
H17 H 0.2452 0.2575 -0.0946
H18 H 0.3264 0.1325 -0.0544
C19 C 0.12977(14) -0.1621(5) 0.33177(14)
H19 H 0.1418 -0.2727 0.3706
loop_
_geom_bond_atom_site_label_1
_geom_bond_atom_site_label_2
_geom_bond_site_symmetry_1
_geom_bond_site_symmetry_2
Br1 C17 1_555 1_555
C1 H1 1_555 1_555
O1 C10 1_555 1_555
C2 H2 1_555 1_555
H3 C2 1_555 1_555
H4 C2 1_555 1_555
O2 C10 1_555 1_555
O3 H5 1_555 1_555
C3 C1 1_555 1_555
H6 C3 1_555 1_555
C4 H7 1_555 1_555
C5 H8 1_555 1_555
C6 H9 1_555 1_555
C7 C5 1_555 1_555
H10 C7 1_555 1_555
C8 C4 1_555 1_555
H11 C8 1_555 1_555
C9 C3 1_555 1_555
C10 C12 1_555 1_555
C11 C6 1_555 1_555
C12 C1 1_555 1_555
H12 C12 1_555 1_555
C13 C11 1_555 1_555
H13 C13 1_555 1_555
C14 O3 1_555 1_555
H14 C14 1_555 1_555
C15 C6 1_555 1_555
H15 C15 1_555 1_555
C16 C7 1_555 1_555
H16 C16 1_555 1_555
C17 C15 1_555 1_555
C18 O1 1_555 1_555
H17 C18 1_555 1_555
H18 C18 1_555 1_555
C19 C13 1_555 1_555
H19 C19 1_555 1_555
C2 C18 1_555 1_555
C4 C9 1_555 1_555
C5 C9 1_555 1_555
C8 C16 1_555 1_555
C11 C14 1_555 1_555
C12 C14 1_555 1_555
C17 C19 1_555 1_555

#END
