
#######################################################################
#
#                 Cambridge Crystallographic Data Centre
#                                CCDC 
#
#######################################################################
#
# If this CIF has been generated from an entry in the Cambridge 
# Structural Database, then it will include bibliographic, chemical, 
# crystal, experimental, refinement or atomic coordinate data resulting 
# from the CCDC's data processing and validation procedures.
#
#######################################################################

data_KIMHUM
_chemical_formula_moiety         'C18 H19 Br1 N2 O2'
_chemical_name_systematic        
N-(4-bromophenyl)-N'-[4-(3-methylphenyl)-4-oxobutyl]urea
_symmetry_cell_setting           triclinic
_symmetry_space_group_name_H-M   'P -1'
_symmetry_Int_Tables_number      2
_space_group_name_Hall           '-P 1'
loop_
_symmetry_equiv_pos_site_id
_symmetry_equiv_pos_as_xyz
1 x,y,z
2 -x,-y,-z
_cell_length_a                   9.5585(4)
_cell_length_b                   11.0081(5)
_cell_length_c                   16.9501(8)
_cell_angle_alpha                84.171(4)
_cell_angle_beta                 85.069(4)
_cell_angle_gamma                70.438(4)
_cell_volume                     1669.3
_exptl_crystal_description       block
_cell_formula_units_Z            4
loop_
_atom_site_label
_atom_site_type_symbol
_atom_site_fract_x
_atom_site_fract_y
_atom_site_fract_z
Br1 Br 0.56251(4) 0.73306(3) 0.30999(2)
C1 C 0.6866(2) 0.1366(2) -0.06702(14)
H1 H 0.7903 0.0928 -0.0518
H2 H 0.6863 0.2094 -0.1065
O1 O 0.75358(15) 0.29050(16) 0.02877(10)
N1 N 0.5946(2) 0.18780(18) 0.00307(11)
C2 C 0.6989(2) -0.0931(2) -0.22487(13)
N2 N 0.5358(2) 0.32221(19) 0.10407(12)
H3 H 0.4589 0.2952 0.1145
C3 C 0.5545(3) 0.6039(2) 0.24491(14)
O2 O 0.6231(2) -0.15662(18) -0.19488(11)
C4 C 0.6345(2) 0.0423(2) -0.10503(13)
H4 H 0.5292 0.0832 -0.1182
H5 H 0.6424 -0.0349 -0.0679
C5 C 0.6027(3) 0.6099(2) 0.16586(14)
H6 H 0.6385 0.6777 0.1442
C6 C 0.6355(2) 0.26901(19) 0.04354(12)
C7 C 0.5476(2) 0.4163(2) 0.15042(13)
C8 C 0.8025(3) -0.0158(2) -0.35519(15)
H7 H 0.7971 0.0619 -0.3333
C9 C 0.7756(3) -0.2259(2) -0.34101(15)
H8 H 0.7503 -0.2921 -0.3088
C10 C 0.7627(2) -0.1113(2) -0.30837(13)
C11 C 0.7311(3) 0.0031(3) -0.17982(14)
H9 H 0.7212 0.0820 -0.2157
H10 H 0.8361 -0.0328 -0.1653
C12 C 0.5983(2) 0.5166(2) 0.11882(13)
H11 H 0.6301 0.5207 0.0643
C13 C 0.4998(3) 0.4125(2) 0.23049(14)
H12 H 0.4652 0.3443 0.2528
C14 C 0.5022(3) 0.5071(2) 0.27757(14)
H13 H 0.4681 0.5051 0.3319
C15 C 0.8610(3) -0.1478(3) -0.46569(16)
H14 H 0.8937 -0.1592 -0.5198
C16 C 0.8247(3) -0.2454(3) -0.41956(16)
C17 C 0.8501(3) -0.0343(3) -0.43403(16)
H15 H 0.8755 0.0317 -0.4664
C18 C 0.8332(4) -0.3695(4) -0.4541(2)
H16 H 0.9360 -0.4285 -0.4545
H17 H 0.8003 -0.3499 -0.5085
H18 H 0.7687 -0.4102 -0.4216
H19 H 0.505(3) 0.197(2) 0.0043(14)
Br2 Br 0.92354(4) 0.29276(3) -0.31258(2)
O3 O 0.74603(15) 0.71181(16) -0.01163(9)
N3 N 0.9729(2) 0.65951(19) -0.07983(12)
N4 N 0.9183(2) 0.79638(18) 0.01964(11)
C19 C 0.8710(2) 0.72089(19) -0.02293(12)
C20 C 1.0342(3) 0.4772(3) -0.25643(14)
H20 H 1.0952 0.4666 -0.3042
C21 C 0.8225(2) 1.0894(2) 0.24044(13)
C22 C 0.8841(2) 0.9426(2) 0.12642(13)
H21 H 0.8814 1.0164 0.0873
H22 H 0.9881 0.8998 0.1415
C23 C 0.8493(3) 0.4226(2) -0.17021(15)
H23 H 0.7820 0.3752 -0.1594
C24 C 0.7798(3) 1.2197(2) 0.35739(14)
H24 H 0.8578 1.2501 0.3353
O4 O 0.9117(2) 1.13921(19) 0.21019(11)
C25 C 0.9548(2) 0.5766(2) -0.13255(12)
C26 C 0.7442(2) 1.1286(2) 0.31874(13)
C27 C 0.8591(2) 0.5048(2) -0.11656(14)
H25 H 0.7999 0.5126 -0.0681
C28 C 0.8295(2) 0.8480(2) 0.09033(13)
H26 H 0.8313 0.7755 0.1304
H27 H 0.7250 0.8917 0.0763
C29 C 0.7844(2) 0.9907(2) 0.19961(14)
H28 H 0.6804 1.0286 0.1837
H29 H 0.7897 0.9156 0.2381
C30 C 1.0425(3) 0.5613(2) -0.20323(14)
H30 H 1.1088 0.6094 -0.2150
C31 C 0.6330(3) 1.0812(3) 0.35261(15)
H31 H 0.6083 1.0182 0.3276
C32 C 0.7039(3) 1.2669(3) 0.42737(15)
C33 C 0.9373(3) 0.4093(2) -0.23960(14)
C34 C 0.5584(3) 1.1266(3) 0.42317(16)
H32 H 0.4829 1.0939 0.4466
C35 C 0.5930(3) 1.2185(4) 0.45946(16)
H33 H 0.5398 1.2494 0.5074
C36 C 0.7398(4) 1.3695(4) 0.4667(2)
H34 H 0.8054 1.4043 0.4305
H35 H 0.7898 1.3313 0.5158
H36 H 0.6476 1.4394 0.4791
H37 H 1.009(3) 0.785(2) 0.0167(14)
H38 H 1.051(3) 0.677(3) -0.0857(15)
loop_
_geom_bond_atom_site_label_1
_geom_bond_atom_site_label_2
_geom_bond_site_symmetry_1
_geom_bond_site_symmetry_2
Br1 C3 1_555 1_555
C1 H1 1_555 1_555
H2 C1 1_555 1_555
O1 C6 1_555 1_555
N1 C1 1_555 1_555
C2 O2 1_555 1_555
N2 H3 1_555 1_555
C3 C5 1_555 1_555
C4 C1 1_555 1_555
H4 C4 1_555 1_555
H5 C4 1_555 1_555
C5 H6 1_555 1_555
C6 N1 1_555 1_555
C7 N2 1_555 1_555
C8 H7 1_555 1_555
C9 H8 1_555 1_555
C10 C2 1_555 1_555
C11 C2 1_555 1_555
H9 C11 1_555 1_555
H10 C11 1_555 1_555
C12 C5 1_555 1_555
H11 C12 1_555 1_555
C13 C7 1_555 1_555
H12 C13 1_555 1_555
C14 C3 1_555 1_555
H13 C14 1_555 1_555
C15 H14 1_555 1_555
C16 C9 1_555 1_555
C17 C8 1_555 1_555
H15 C17 1_555 1_555
C18 C16 1_555 1_555
H16 C18 1_555 1_555
H17 C18 1_555 1_555
H18 C18 1_555 1_555
H19 N1 1_555 1_555
Br2 C33 1_555 1_555
O3 C19 1_555 1_555
N3 C19 1_555 1_555
N4 C19 1_555 1_555
C20 H20 1_555 1_555
C21 O4 1_555 1_555
C22 H21 1_555 1_555
H22 C22 1_555 1_555
C23 H23 1_555 1_555
C24 H24 1_555 1_555
C25 N3 1_555 1_555
C26 C21 1_555 1_555
C27 C23 1_555 1_555
H25 C27 1_555 1_555
C28 N4 1_555 1_555
H26 C28 1_555 1_555
H27 C28 1_555 1_555
C29 C21 1_555 1_555
H28 C29 1_555 1_555
H29 C29 1_555 1_555
C30 C20 1_555 1_555
H30 C30 1_555 1_555
C31 C26 1_555 1_555
H31 C31 1_555 1_555
C32 C24 1_555 1_555
C33 C20 1_555 1_555
C34 C31 1_555 1_555
H32 C34 1_555 1_555
C35 C32 1_555 1_555
H33 C35 1_555 1_555
C36 C32 1_555 1_555
H34 C36 1_555 1_555
H35 C36 1_555 1_555
H36 C36 1_555 1_555
H37 N4 1_555 1_555
H38 N3 1_555 1_555
N2 C6 1_555 1_555
C4 C11 1_555 1_555
C7 C12 1_555 1_555
C8 C10 1_555 1_555
C9 C10 1_555 1_555
C13 C14 1_555 1_555
C15 C16 1_555 1_555
C15 C17 1_555 1_555
C22 C28 1_555 1_555
C22 C29 1_555 1_555
C23 C33 1_555 1_555
C24 C26 1_555 1_555
C25 C27 1_555 1_555
C25 C30 1_555 1_555
C34 C35 1_555 1_555

#END
