
#######################################################################
#
#                 Cambridge Crystallographic Data Centre
#                                CCDC 
#
#######################################################################
#
# If this CIF has been generated from an entry in the Cambridge 
# Structural Database, then it will include bibliographic, chemical, 
# crystal, experimental, refinement or atomic coordinate data resulting 
# from the CCDC's data processing and validation procedures.
#
#######################################################################

data_KIMLEZ
_chemical_formula_moiety         'C60 H50'
_chemical_name_systematic        
1,3,6,8-tetrakis((4-propylphenyl)ethynyl)pyrene
_symmetry_cell_setting           monoclinic
_symmetry_space_group_name_H-M   'P 21/c'
_symmetry_Int_Tables_number      14
_space_group_name_Hall           '-P 2ybc'
loop_
_symmetry_equiv_pos_site_id
_symmetry_equiv_pos_as_xyz
1 x,y,z
2 -x,1/2+y,1/2-z
3 -x,-y,-z
4 x,1/2-y,1/2+z
_cell_length_a                   14.743(3)
_cell_length_b                   15.881(3)
_cell_length_c                   9.4082(18)
_cell_angle_alpha                90
_cell_angle_beta                 102.849(4)
_cell_angle_gamma                90
_cell_volume                     2147.62
_exptl_crystal_colour            orange
_exptl_crystal_description       plate
_cell_formula_units_Z            2
loop_
_atom_site_label
_atom_site_type_symbol
_atom_site_fract_x
_atom_site_fract_y
_atom_site_fract_z
C1 C 0.09943(19) 0.15861(17) 0.9197(3)
C2 C 0.05856(19) 0.15555(17) 0.7721(3)
H1 H 0.0749 0.1975 0.7102
C3 C -0.00542(19) 0.09380(17) 0.7102(3)
C4 C -0.02795(19) 0.02992(17) 0.8033(3)
C5 C 0.0114(2) 0.03177(15) 0.9519(3)
C6 C 0.07570(19) 0.09657(17) 1.0140(3)
C7 C 0.11275(19) 0.09637(17) 1.1654(3)
H2 H 0.1546 0.1400 1.2064
C8 C -0.09127(18) -0.03661(17) 0.7450(3)
H3 H -0.1181 -0.0387 0.6435
C9 C 0.16488(19) 0.22513(17) 0.9781(3)
C10 C 0.2156(2) 0.27537(18) 1.0274(3)
C11 C 0.2855(2) 0.34003(18) 1.0916(4)
C12 C 0.3142(2) 0.40013(19) 1.0029(4)
H4 H 0.2877 0.4015 0.9012
C13 C 0.3820(2) 0.4578(2) 1.0652(4)
H5 H 0.4007 0.4990 1.0044
C14 C 0.4227(2) 0.4577(2) 1.2095(4)
C15 C 0.3926(2) 0.3995(2) 1.2973(4)
H6 H 0.4191 0.3992 1.3991
C16 C 0.3246(2) 0.34163(18) 1.2396(4)
H7 H 0.3044 0.3024 1.3022
C17 C 0.5018(3) 0.5199(2) 1.2726(4)
H8 H 0.5352 0.5001 1.3700
H9 H 0.5467 0.5212 1.2085
C18 C 0.4664(3) 0.6050(2) 1.2854(4)
H10 H 0.4361 0.6076 1.3692
H11 H 0.4193 0.6192 1.1960
C19 C 0.5481(3) 0.6700(2) 1.3075(4)
H12 H 0.6010 0.6486 1.3807
H13 H 0.5274 0.7237 1.3407
H14 H 0.5669 0.6784 1.2150
C20 C -0.0489(2) 0.09687(17) 0.5584(4)
C21 C -0.0880(2) 0.10107(17) 0.4342(4)
C22 C -0.1330(2) 0.10698(18) 0.2835(4)
C23 C -0.1119(2) 0.17163(18) 0.1968(4)
H15 H -0.0684 0.2137 0.2393
C24 C -0.1527(2) 0.17594(19) 0.0504(4)
H16 H -0.1369 0.2212 -0.0056
C25 C -0.2164(2) 0.1159(2) -0.0175(4)
C26 C -0.2382(2) 0.0520(2) 0.0695(4)
H17 H -0.2825 0.0106 0.0269
C27 C -0.1979(2) 0.04693(18) 0.2148(3)
H18 H -0.2141 0.0017 0.2705
C28 C -0.2570(2) 0.1184(2) -0.1849(4)
H19 H -0.2056 0.1249 -0.2363
H20 H -0.2891 0.0646 -0.2166
C29 C -0.3217(3) 0.1873(2) -0.2236(4)
H21 H -0.2900 0.2415 -0.1937
H22 H -0.3737 0.1812 -0.1735
C30 C -0.3598(3) 0.1855(2) -0.3941(4)
H23 H -0.3089 0.1720 -0.4418
H24 H -0.3856 0.2408 -0.4273
H25 H -0.4086 0.1427 -0.4191
C1B C -0.09943(19) -0.15861(17) 1.0803(3)
C2B C -0.05856(19) -0.15555(17) 1.2279(3)
H1B H -0.0749 -0.1975 1.2898
C3B C 0.00542(19) -0.09380(17) 1.2898(3)
C4B C 0.02795(19) -0.02992(17) 1.1967(3)
C5B C -0.0114(2) -0.03177(15) 1.0481(3)
C6B C -0.07570(19) -0.09657(17) 0.9860(3)
C7B C -0.11275(19) -0.09637(17) 0.8346(3)
H2B H -0.1546 -0.1400 0.7936
C8B C 0.09127(18) 0.03661(17) 1.2550(3)
H3B H 0.1181 0.0387 1.3565
C9B C -0.16488(19) -0.22513(17) 1.0219(3)
C10B C -0.2156(2) -0.27537(18) 0.9726(3)
C11B C -0.2855(2) -0.34003(18) 0.9084(4)
C12B C -0.3142(2) -0.40013(19) 0.9971(4)
H4B H -0.2877 -0.4015 1.0988
C13B C -0.3820(2) -0.4578(2) 0.9348(4)
H5B H -0.4007 -0.4990 0.9956
C14B C -0.4227(2) -0.4577(2) 0.7905(4)
C15B C -0.3926(2) -0.3995(2) 0.7027(4)
H6B H -0.4191 -0.3992 0.6009
C16B C -0.3246(2) -0.34163(18) 0.7604(4)
H7B H -0.3044 -0.3024 0.6978
C17B C -0.5018(3) -0.5199(2) 0.7274(4)
H8B H -0.5352 -0.5001 0.6300
H9B H -0.5467 -0.5212 0.7915
C18B C -0.4664(3) -0.6050(2) 0.7146(4)
H10B H -0.4361 -0.6076 0.6308
H11B H -0.4193 -0.6192 0.8040
C19B C -0.5481(3) -0.6700(2) 0.6925(4)
H12B H -0.6010 -0.6486 0.6193
H13B H -0.5274 -0.7237 0.6593
H14B H -0.5669 -0.6784 0.7850
C20B C 0.0489(2) -0.09687(17) 1.4416(4)
C21B C 0.0880(2) -0.10107(17) 1.5658(4)
C22B C 0.1330(2) -0.10698(18) 1.7165(4)
C23B C 0.1119(2) -0.17163(18) 1.8032(4)
H15B H 0.0684 -0.2137 1.7607
C24B C 0.1527(2) -0.17594(19) 1.9496(4)
H16B H 0.1369 -0.2212 2.0056
C25B C 0.2164(2) -0.1159(2) 2.0175(4)
C26B C 0.2382(2) -0.0520(2) 1.9305(4)
H17B H 0.2825 -0.0106 1.9731
C27B C 0.1979(2) -0.04693(18) 1.7852(3)
H18B H 0.2141 -0.0017 1.7295
C28B C 0.2570(2) -0.1184(2) 2.1849(4)
H19B H 0.2056 -0.1249 2.2363
H20B H 0.2891 -0.0646 2.2166
C29B C 0.3217(3) -0.1873(2) 2.2236(4)
H21B H 0.2900 -0.2415 2.1937
H22B H 0.3737 -0.1812 2.1735
C30B C 0.3598(3) -0.1855(2) 2.3941(4)
H23B H 0.3089 -0.1720 2.4418
H24B H 0.3856 -0.2408 2.4273
H25B H 0.4086 -0.1427 2.4191
loop_
_geom_bond_atom_site_label_1
_geom_bond_atom_site_label_2
_geom_bond_site_symmetry_1
_geom_bond_site_symmetry_2
C1 C2 1_555 1_555
C2 H1 1_555 1_555
C3 C2 1_555 1_555
C4 C3 1_555 1_555
C5 C4 1_555 1_555
C6 C1 1_555 1_555
C7 C6 1_555 1_555
H2 C7 1_555 1_555
C8 C4 1_555 1_555
H3 C8 1_555 1_555
C9 C1 1_555 1_555
C10 C9 1_555 1_555
C11 C10 1_555 1_555
C12 C11 1_555 1_555
H4 C12 1_555 1_555
C13 C12 1_555 1_555
H5 C13 1_555 1_555
C14 C13 1_555 1_555
C15 C14 1_555 1_555
H6 C15 1_555 1_555
C16 C11 1_555 1_555
H7 C16 1_555 1_555
C17 C14 1_555 1_555
H8 C17 1_555 1_555
H9 C17 1_555 1_555
C18 C17 1_555 1_555
H10 C18 1_555 1_555
H11 C18 1_555 1_555
C19 C18 1_555 1_555
H12 C19 1_555 1_555
H13 C19 1_555 1_555
H14 C19 1_555 1_555
C20 C3 1_555 1_555
C21 C20 1_555 1_555
C22 C21 1_555 1_555
C23 C22 1_555 1_555
H15 C23 1_555 1_555
C24 C23 1_555 1_555
H16 C24 1_555 1_555
C25 C24 1_555 1_555
C26 C25 1_555 1_555
H17 C26 1_555 1_555
C27 C22 1_555 1_555
H18 C27 1_555 1_555
C28 C25 1_555 1_555
H19 C28 1_555 1_555
H20 C28 1_555 1_555
C29 C28 1_555 1_555
H21 C29 1_555 1_555
H22 C29 1_555 1_555
C30 C29 1_555 1_555
H23 C30 1_555 1_555
H24 C30 1_555 1_555
H25 C30 1_555 1_555
C1B C2B 1_555 1_555
C2B H1B 1_555 1_555
C3B C2B 1_555 1_555
C4B C3B 1_555 1_555
C5B C5 1_555 1_555
C6B C1B 1_555 1_555
C7B C8 1_555 1_555
H2B C7B 1_555 1_555
C8B C7 1_555 1_555
H3B C8B 1_555 1_555
C9B C1B 1_555 1_555
C10B C9B 1_555 1_555
C11B C10B 1_555 1_555
C12B C11B 1_555 1_555
H4B C12B 1_555 1_555
C13B C12B 1_555 1_555
H5B C13B 1_555 1_555
C14B C13B 1_555 1_555
C15B C14B 1_555 1_555
H6B C15B 1_555 1_555
C16B C11B 1_555 1_555
H7B C16B 1_555 1_555
C17B C14B 1_555 1_555
H8B C17B 1_555 1_555
H9B C17B 1_555 1_555
C18B C17B 1_555 1_555
H10B C18B 1_555 1_555
H11B C18B 1_555 1_555
C19B C18B 1_555 1_555
H12B C19B 1_555 1_555
H13B C19B 1_555 1_555
H14B C19B 1_555 1_555
C20B C3B 1_555 1_555
C21B C20B 1_555 1_555
C22B C21B 1_555 1_555
C23B C22B 1_555 1_555
H15B C23B 1_555 1_555
C24B C23B 1_555 1_555
H16B C24B 1_555 1_555
C25B C24B 1_555 1_555
C26B C25B 1_555 1_555
H17B C26B 1_555 1_555
C27B C22B 1_555 1_555
H18B C27B 1_555 1_555
C28B C25B 1_555 1_555
H19B C28B 1_555 1_555
H20B C28B 1_555 1_555
C29B C28B 1_555 1_555
H21B C29B 1_555 1_555
H22B C29B 1_555 1_555
C30B C29B 1_555 1_555
H23B C30B 1_555 1_555
H24B C30B 1_555 1_555
H25B C30B 1_555 1_555
C5 C6 1_555 1_555
C15 C16 1_555 1_555
C26 C27 1_555 1_555
C4B C5B 1_555 1_555
C4B C8B 1_555 1_555
C5B C6B 1_555 1_555
C6B C7B 1_555 1_555
C15B C16B 1_555 1_555
C26B C27B 1_555 1_555

#END
