
#######################################################################
#
#                 Cambridge Crystallographic Data Centre
#                                CCDC 
#
#######################################################################
#
# If this CIF has been generated from an entry in the Cambridge 
# Structural Database, then it will include bibliographic, chemical, 
# crystal, experimental, refinement or atomic coordinate data resulting 
# from the CCDC's data processing and validation procedures.
#
#######################################################################

data_KIMLEA
_chemical_formula_moiety         'C55 H34 N6,0.5(C1 H2 Cl2)'
_chemical_name_systematic        
"2^4^,3^4^-(9,9'-spirobi[fluorene]-2,2'-diyl)bis(1^2^,2^2^:2^6^,3^2^-terpyridine) dichloromethane unknown solvate"
_symmetry_cell_setting           monoclinic
_symmetry_space_group_name_H-M   'P 21/n'
_symmetry_Int_Tables_number      14
_space_group_name_Hall           '-P 2yn'
loop_
_symmetry_equiv_pos_site_id
_symmetry_equiv_pos_as_xyz
1 x,y,z
2 1/2-x,1/2+y,1/2-z
3 -x,-y,-z
4 1/2+x,1/2-y,1/2+z
_cell_length_a                   16.5689(5)
_cell_length_b                   35.4714(9)
_cell_length_c                   16.5839(5)
_cell_angle_alpha                90
_cell_angle_beta                 107.626(3)
_cell_angle_gamma                90
_cell_volume                     9289.15
_exptl_crystal_colour            colorless
_exptl_crystal_description       block
_cell_formula_units_Z            8
loop_
_atom_site_label
_atom_site_type_symbol
_atom_site_fract_x
_atom_site_fract_y
_atom_site_fract_z
Cl1 Cl 0.3303(2) 0.79302(7) 1.11780(16)
Cl2 Cl 0.18130(16) 0.78731(7) 0.9691(2)
C1 C 0.2663(5) 0.8147(2) 1.0254(5)
H1 H 0.2450 0.8383 1.0406
H2 H 0.3008 0.8207 0.9891
N1 N 0.4549(2) 0.92110(10) 0.8423(2)
N2 N 0.3774(3) 0.89157(12) 1.0126(2)
N3 N 0.4741(2) 0.93566(10) 0.6356(2)
N4 N 0.0262(2) 0.90220(10) 0.1920(2)
N5 N 0.1464(3) 0.88952(13) 0.0458(3)
N6 N -0.0344(3) 0.89760(12) 0.3820(2)
C2 C 0.2570(2) 0.75828(11) 0.5334(2)
C3 C 0.2533(2) 0.78273(10) 0.6075(2)
C4 C 0.1857(2) 0.77182(11) 0.6369(3)
C5 C 0.1388(2) 0.74138(11) 0.5818(3)
C6 C 0.1793(3) 0.73313(11) 0.5218(3)
C7 C 0.1480(3) 0.70537(12) 0.4615(3)
H3 H 0.1756 0.6994 0.4220
C8 C 0.0747(3) 0.68670(13) 0.4615(3)
H4 H 0.0526 0.6681 0.4213
C9 C 0.0341(3) 0.69516(14) 0.5200(3)
H5 H -0.0154 0.6824 0.5184
C10 C 0.0654(3) 0.72241(12) 0.5815(3)
H6 H 0.0380 0.7278 0.6215
C11 C 0.1741(3) 0.78946(11) 0.7069(3)
H7 H 0.1300 0.7822 0.7275
C12 C 0.2289(2) 0.81798(11) 0.7459(2)
H8 H 0.2207 0.8300 0.7926
C13 C 0.2961(2) 0.82934(10) 0.7173(2)
C14 C 0.3082(2) 0.81137(10) 0.6470(2)
H9 H 0.3526 0.8185 0.6269
C15 C 0.3540(2) 0.86042(10) 0.7617(2)
C16 C 0.3984(2) 0.88253(11) 0.7196(2)
H10 H 0.3951 0.8773 0.6638
C17 C 0.4475(2) 0.91237(11) 0.7619(2)
C18 C 0.4130(2) 0.89970(11) 0.8829(2)
C19 C 0.3635(2) 0.86942(11) 0.8451(2)
H11 H 0.3364 0.8550 0.8760
C20 C 0.4206(3) 0.91156(12) 0.9711(2)
C21 C 0.4697(3) 0.94255(14) 1.0079(3)
H12 H 0.5006 0.9557 0.9787
C22 C 0.4717(4) 0.95333(15) 1.0876(3)
H13 H 0.5036 0.9742 1.1126
C23 C 0.4274(4) 0.93372(14) 1.1301(3)
H14 H 0.4275 0.9408 1.1841
C24 C 0.3826(4) 0.90314(17) 1.0907(3)
H15 H 0.3533 0.8893 1.1204
C25 C 0.4940(2) 0.93809(11) 0.7202(2)
C26 C 0.5527(3) 0.96368(13) 0.7664(3)
H16 H 0.5661 0.9644 0.8250
C27 C 0.5915(3) 0.98816(13) 0.7253(3)
H17 H 0.6315 1.0054 0.7556
C28 C 0.5696(3) 0.98654(13) 0.6378(3)
H18 H 0.5934 1.0030 0.6078
C29 C 0.5117(3) 0.95991(13) 0.5969(3)
H19 H 0.4977 0.9586 0.5382
C30 C 0.3407(2) 0.73677(11) 0.5532(2)
C31 C 0.3860(3) 0.74745(11) 0.4979(3)
C32 C 0.4655(3) 0.73253(13) 0.5068(3)
H20 H 0.4963 0.7400 0.4710
C33 C 0.4983(3) 0.70623(13) 0.5701(3)
H21 H 0.5515 0.6958 0.5770
C34 C 0.4521(3) 0.69537(13) 0.6233(3)
H22 H 0.4745 0.6774 0.6649
C35 C 0.3738(3) 0.71064(12) 0.6159(3)
H23 H 0.3438 0.7034 0.6525
C36 C 0.2577(2) 0.78012(10) 0.4544(2)
C37 C 0.3335(2) 0.77414(11) 0.4354(2)
C38 C 0.3468(3) 0.79130(11) 0.3659(3)
H24 H 0.3965 0.7870 0.3523
C39 C 0.2844(3) 0.81516(11) 0.3163(2)
H25 H 0.2930 0.8269 0.2695
C40 C 0.2088(2) 0.82178(10) 0.3359(2)
C41 C 0.1960(2) 0.80361(10) 0.4055(2)
H26 H 0.1461 0.8074 0.4190
C42 C 0.1449(2) 0.84900(10) 0.2842(2)
C43 C 0.1446(3) 0.86105(11) 0.2042(3)
H27 H 0.1837 0.8513 0.1797
C44 C 0.0859(3) 0.88766(12) 0.1611(3)
C45 C 0.0258(3) 0.89002(11) 0.2687(2)
C46 C 0.0836(3) 0.86442(11) 0.3154(2)
H28 H 0.0815 0.8574 0.3687
C47 C 0.0877(3) 0.90331(14) 0.0784(3)
C48 C 0.0306(4) 0.93146(18) 0.0377(4)
H29 H -0.0100 0.9405 0.0613
C49 C 0.0357(5) 0.9456(2) -0.0382(4)
H30 H 0.0000 0.9649 -0.0654
C50 C 0.0945(5) 0.9307(2) -0.0733(4)
H31 H 0.0979 0.9391 -0.1253
C51 C 0.1482(5) 0.9028(2) -0.0283(4)
H32 H 0.1880 0.8928 -0.0516
C52 C -0.0425(3) 0.90527(12) 0.3015(3)
C53 C -0.1097(4) 0.92549(18) 0.2517(3)
H33 H -0.1127 0.9314 0.1962
C54 C -0.1724(4) 0.93699(19) 0.2845(4)
H34 H -0.2191 0.9502 0.2510
C55 C -0.1653(3) 0.92881(16) 0.3669(3)
H35 H -0.2064 0.9364 0.3912
C56 C -0.0962(4) 0.90924(17) 0.4121(3)
H36 H -0.0915 0.9035 0.4680
N7 N 0.4464(3) 0.68373(11) 0.1175(2)
N8 N 0.4932(2) 0.70324(10) -0.0763(2)
N9 N 0.4672(3) 0.64373(15) 0.3228(3)
N10 N 1.0748(2) 0.66519(9) -0.0539(2)
N11 N 1.0140(2) 0.68005(11) 0.1342(2)
N12 N 1.0703(2) 0.63310(11) -0.2615(2)
C57 C 0.7206(2) 0.53139(10) -0.0092(2)
C58 C 0.7825(3) 0.50195(10) 0.0408(3)
C59 C 0.8189(3) 0.47245(12) 0.0110(3)
H37 H 0.8070 0.4686 -0.0469
C60 C 0.8741(3) 0.44819(12) 0.0684(3)
H38 H 0.8989 0.4280 0.0490
C61 C 0.8917(3) 0.45445(12) 0.1544(3)
H39 H 0.9286 0.4383 0.1924
C62 C 0.8557(3) 0.48404(12) 0.1850(3)
H40 H 0.8684 0.4880 0.2430
C63 C 0.8002(2) 0.50796(10) 0.1282(2)
C64 C 0.7497(2) 0.53955(10) 0.1410(2)
C65 C 0.7025(2) 0.55421(10) 0.0622(2)
C66 C 0.6459(2) 0.58279(10) 0.0553(2)
H41 H 0.6158 0.5922 0.0024
C67 C 0.6334(2) 0.59791(10) 0.1290(2)
C68 C 0.6814(2) 0.58341(10) 0.2077(2)
H42 H 0.6738 0.5935 0.2566
C69 C 0.7391(2) 0.55486(10) 0.2151(2)
H43 H 0.7704 0.5459 0.2680
C70 C 0.5688(3) 0.62706(11) 0.1244(3)
C71 C 0.5429(2) 0.65207(10) 0.0568(2)
H44 H 0.5679 0.6512 0.0136
C72 C 0.4802(3) 0.67811(12) 0.0536(3)
C73 C 0.4741(3) 0.66042(13) 0.1853(3)
C74 C 0.5331(3) 0.63212(13) 0.1899(3)
H45 H 0.5489 0.6164 0.2369
C75 C 0.4477(3) 0.70273(11) -0.0218(3)
C76 C 0.3737(3) 0.72351(12) -0.0354(3)
H46 H 0.3432 0.7227 0.0033
C77 C 0.3464(3) 0.74534(14) -0.1070(3)
H47 H 0.2972 0.7596 -0.1172
C78 C 0.3925(3) 0.74591(13) -0.1632(3)
H48 H 0.3748 0.7603 -0.2123
C79 C 0.4648(3) 0.72497(12) -0.1455(3)
H49 H 0.4961 0.7258 -0.1835
C80 C 0.4353(3) 0.66535(14) 0.2552(3)
C81 C 0.3699(4) 0.69048(16) 0.2489(3)
H50 H 0.3509 0.7062 0.2021
C82 C 0.3332(4) 0.69179(18) 0.3134(4)
H51 H 0.2880 0.7080 0.3099
C83 C 0.3642(4) 0.66886(18) 0.3829(4)
H52 H 0.3406 0.6689 0.4271
C84 C 0.4314(5) 0.64603(19) 0.3845(4)
H53 H 0.4535 0.6310 0.4321
C85 C 0.6428(3) 0.51388(11) -0.0716(3)
C86 C 0.5786(3) 0.49324(13) -0.0554(3)
H54 H 0.5790 0.4886 -0.0001
C87 C 0.5138(4) 0.47972(16) -0.1229(3)
H55 H 0.4706 0.4655 -0.1128
C88 C 0.5122(4) 0.48709(16) -0.2058(3)
H56 H 0.4677 0.4781 -0.2505
C89 C 0.5761(3) 0.50759(14) -0.2220(3)
H57 H 0.5752 0.5122 -0.2775
C90 C 0.6415(3) 0.52124(11) -0.1553(2)
C91 C 0.7143(2) 0.54523(10) -0.1526(2)
C92 C 0.7589(2) 0.55383(10) -0.0686(2)
C93 C 0.8279(2) 0.57693(10) -0.0479(2)
H58 H 0.8563 0.5821 0.0085
C94 C 0.8559(2) 0.59296(10) -0.1124(2)
C95 C 0.8116(2) 0.58388(10) -0.1969(2)
H59 H 0.8295 0.5941 -0.2402
C96 C 0.7423(2) 0.56029(10) -0.2171(2)
H60 H 0.7145 0.5544 -0.2734
C97 C 0.9304(2) 0.61808(10) -0.0927(2)
C98 C 0.9594(2) 0.63759(11) -0.0156(2)
H61 H 0.9313 0.6350 0.0248
C99 C 1.0297(3) 0.66057(11) 0.0001(3)
C100 C 1.0478(3) 0.64603(11) -0.1282(3)
C101 C 0.9764(2) 0.62344(10) -0.1489(2)
H62 H 0.9590 0.6117 -0.2015
C102 C 1.0596(3) 0.68313(12) 0.0806(3)
C103 C 1.1304(3) 0.70607(13) 0.0966(3)
H63 H 1.1620 0.7069 0.0589
C104 C 1.1534(3) 0.72765(14) 0.1693(3)
H64 H 1.1994 0.7440 0.1804
C105 C 1.1069(3) 0.72446(15) 0.2249(3)
H65 H 1.1217 0.7382 0.2750
C106 C 1.0386(3) 0.70079(15) 0.2053(3)
H66 H 1.0075 0.6989 0.2433
C107 C 1.1010(3) 0.64916(11) -0.1857(3)
C108 C 1.1800(4) 0.66576(18) -0.1609(4)
H67 H 1.2010 0.6766 -0.1076
C109 C 1.2272(4) 0.6661(2) -0.2164(4)
H68 H 1.2800 0.6777 -0.2014
C110 C 1.1959(4) 0.64911(16) -0.2938(4)
H69 H 1.2273 0.6481 -0.3317
C111 C 1.1175(3) 0.63381(14) -0.3131(3)
H70 H 1.0952 0.6231 -0.3663
loop_
_geom_bond_atom_site_label_1
_geom_bond_atom_site_label_2
_geom_bond_site_symmetry_1
_geom_bond_site_symmetry_2
Cl1 C1 1_555 1_555
Cl2 C1 1_555 1_555
C1 H1 1_555 1_555
H2 C1 1_555 1_555
N1 C17 1_555 1_555
N2 C20 1_555 1_555
N3 C25 1_555 1_555
N4 C44 1_555 1_555
N5 C47 1_555 1_555
N6 C52 1_555 1_555
C2 C3 1_555 1_555
C3 C4 1_555 1_555
C4 C5 1_555 1_555
C5 C6 1_555 1_555
C6 C2 1_555 1_555
C7 C6 1_555 1_555
H3 C7 1_555 1_555
C8 C7 1_555 1_555
H4 C8 1_555 1_555
C9 C8 1_555 1_555
H5 C9 1_555 1_555
C10 C5 1_555 1_555
H6 C10 1_555 1_555
C11 C4 1_555 1_555
H7 C11 1_555 1_555
C12 C11 1_555 1_555
H8 C12 1_555 1_555
C13 C12 1_555 1_555
C14 C3 1_555 1_555
H9 C14 1_555 1_555
C15 C13 1_555 1_555
C16 C15 1_555 1_555
H10 C16 1_555 1_555
C17 C16 1_555 1_555
C18 N1 1_555 1_555
C19 C15 1_555 1_555
H11 C19 1_555 1_555
C20 C18 1_555 1_555
C21 C20 1_555 1_555
H12 C21 1_555 1_555
C22 C21 1_555 1_555
H13 C22 1_555 1_555
C23 C22 1_555 1_555
H14 C23 1_555 1_555
C24 N2 1_555 1_555
H15 C24 1_555 1_555
C25 C17 1_555 1_555
C26 C25 1_555 1_555
H16 C26 1_555 1_555
C27 C26 1_555 1_555
H17 C27 1_555 1_555
C28 C27 1_555 1_555
H18 C28 1_555 1_555
C29 N3 1_555 1_555
H19 C29 1_555 1_555
C30 C2 1_555 1_555
C31 C30 1_555 1_555
C32 C31 1_555 1_555
H20 C32 1_555 1_555
C33 C32 1_555 1_555
H21 C33 1_555 1_555
C34 C33 1_555 1_555
H22 C34 1_555 1_555
C35 C30 1_555 1_555
H23 C35 1_555 1_555
C36 C2 1_555 1_555
C37 C31 1_555 1_555
C38 C37 1_555 1_555
H24 C38 1_555 1_555
C39 C38 1_555 1_555
H25 C39 1_555 1_555
C40 C39 1_555 1_555
C41 C36 1_555 1_555
H26 C41 1_555 1_555
C42 C40 1_555 1_555
C43 C42 1_555 1_555
H27 C43 1_555 1_555
C44 C43 1_555 1_555
C45 N4 1_555 1_555
C46 C42 1_555 1_555
H28 C46 1_555 1_555
C47 C44 1_555 1_555
C48 C47 1_555 1_555
H29 C48 1_555 1_555
C49 C48 1_555 1_555
H30 C49 1_555 1_555
C50 C49 1_555 1_555
H31 C50 1_555 1_555
C51 N5 1_555 1_555
H32 C51 1_555 1_555
C52 C45 1_555 1_555
C53 C52 1_555 1_555
H33 C53 1_555 1_555
C54 C53 1_555 1_555
H34 C54 1_555 1_555
C55 C54 1_555 1_555
H35 C55 1_555 1_555
C56 N6 1_555 1_555
H36 C56 1_555 1_555
N7 C72 1_555 1_555
N8 C75 1_555 1_555
N9 C80 1_555 1_555
N10 C99 1_555 1_555
N11 C102 1_555 1_555
N12 C107 1_555 1_555
C57 C58 1_555 1_555
C58 C59 1_555 1_555
C59 H37 1_555 1_555
C60 C59 1_555 1_555
H38 C60 1_555 1_555
C61 C60 1_555 1_555
H39 C61 1_555 1_555
C62 C61 1_555 1_555
H40 C62 1_555 1_555
C63 C58 1_555 1_555
C64 C63 1_555 1_555
C65 C57 1_555 1_555
C66 C65 1_555 1_555
H41 C66 1_555 1_555
C67 C66 1_555 1_555
C68 C67 1_555 1_555
H42 C68 1_555 1_555
C69 C64 1_555 1_555
H43 C69 1_555 1_555
C70 C67 1_555 1_555
C71 C70 1_555 1_555
H44 C71 1_555 1_555
C72 C71 1_555 1_555
C73 N7 1_555 1_555
C74 C70 1_555 1_555
H45 C74 1_555 1_555
C75 C72 1_555 1_555
C76 C75 1_555 1_555
H46 C76 1_555 1_555
C77 C76 1_555 1_555
H47 C77 1_555 1_555
C78 C77 1_555 1_555
H48 C78 1_555 1_555
C79 N8 1_555 1_555
H49 C79 1_555 1_555
C80 C73 1_555 1_555
C81 C80 1_555 1_555
H50 C81 1_555 1_555
C82 C81 1_555 1_555
H51 C82 1_555 1_555
C83 C82 1_555 1_555
H52 C83 1_555 1_555
C84 N9 1_555 1_555
H53 C84 1_555 1_555
C85 C57 1_555 1_555
C86 C85 1_555 1_555
H54 C86 1_555 1_555
C87 C86 1_555 1_555
H55 C87 1_555 1_555
C88 C87 1_555 1_555
H56 C88 1_555 1_555
C89 C88 1_555 1_555
H57 C89 1_555 1_555
C90 C85 1_555 1_555
C91 C90 1_555 1_555
C92 C57 1_555 1_555
C93 C92 1_555 1_555
H58 C93 1_555 1_555
C94 C93 1_555 1_555
C95 C94 1_555 1_555
H59 C95 1_555 1_555
C96 C91 1_555 1_555
H60 C96 1_555 1_555
C97 C94 1_555 1_555
C98 C97 1_555 1_555
H61 C98 1_555 1_555
C99 C98 1_555 1_555
C100 N10 1_555 1_555
C101 C97 1_555 1_555
H62 C101 1_555 1_555
C102 C99 1_555 1_555
C103 C102 1_555 1_555
H63 C103 1_555 1_555
C104 C103 1_555 1_555
H64 C104 1_555 1_555
C105 C104 1_555 1_555
H65 C105 1_555 1_555
C106 N11 1_555 1_555
H66 C106 1_555 1_555
C107 C100 1_555 1_555
C108 C107 1_555 1_555
H67 C108 1_555 1_555
C109 C108 1_555 1_555
H68 C109 1_555 1_555
C110 C109 1_555 1_555
H69 C110 1_555 1_555
C111 N12 1_555 1_555
H70 C111 1_555 1_555
C9 C10 1_555 1_555
C13 C14 1_555 1_555
C18 C19 1_555 1_555
C23 C24 1_555 1_555
C28 C29 1_555 1_555
C34 C35 1_555 1_555
C36 C37 1_555 1_555
C40 C41 1_555 1_555
C45 C46 1_555 1_555
C50 C51 1_555 1_555
C55 C56 1_555 1_555
C62 C63 1_555 1_555
C64 C65 1_555 1_555
C68 C69 1_555 1_555
C73 C74 1_555 1_555
C78 C79 1_555 1_555
C83 C84 1_555 1_555
C89 C90 1_555 1_555
C91 C92 1_555 1_555
C95 C96 1_555 1_555
C100 C101 1_555 1_555
C105 C106 1_555 1_555
C110 C111 1_555 1_555

#END
