
#######################################################################
#
#                 Cambridge Crystallographic Data Centre
#                                CCDC 
#
#######################################################################
#
# If this CIF has been generated from an entry in the Cambridge 
# Structural Database, then it will include bibliographic, chemical, 
# crystal, experimental, refinement or atomic coordinate data resulting 
# from the CCDC's data processing and validation procedures.
#
#######################################################################

data_KIMLAW
_chemical_formula_moiety         'C21 H24 N1 O6 P1 S1'
_chemical_name_systematic        
'diethyl (5,5,7-trioxo-9-phenyl-7,8,9,10-tetrahydro-5\l^6^-pyrido[1,2-b][1,2]benzothiazol-10a(5H)-yl)phosphonate'
_symmetry_cell_setting           orthorhombic
_symmetry_space_group_name_H-M   'P 21 21 21'
_symmetry_Int_Tables_number      19
_space_group_name_Hall           'P 2ac 2ab'
loop_
_symmetry_equiv_pos_site_id
_symmetry_equiv_pos_as_xyz
1 x,y,z
2 1/2-x,-y,1/2+z
3 -x,1/2+y,1/2-z
4 1/2+x,1/2-y,-z
_cell_length_a                   7.8111(7)
_cell_length_b                   12.3751(13)
_cell_length_c                   22.138(3)
_cell_angle_alpha                90
_cell_angle_beta                 90
_cell_angle_gamma                90
_cell_volume                     2139.93
_cell_formula_units_Z            4
loop_
_atom_site_label
_atom_site_type_symbol
_atom_site_fract_x
_atom_site_fract_y
_atom_site_fract_z
N1 N 0.3626(6) 0.4441(4) 0.20405(19)
O1 O 0.1104(5) 0.4715(4) 0.2521(2)
O2 O 0.1893(5) 0.2750(3) 0.17936(19)
O3 O 0.1826(5) 0.4232(4) 0.10712(19)
O4 O 0.5064(6) 0.6850(3) 0.20470(18)
O5 O 0.4904(6) 0.5899(3) 0.10271(17)
O6 O 0.7720(6) 0.6078(3) 0.1522(2)
P1 P 0.5755(2) 0.60028(11) 0.16643(7)
S1 S 0.27519(17) 0.36241(12) 0.15100(6)
C1 C 0.2644(9) 0.4801(5) 0.2523(3)
C2 C 0.3695(7) 0.5225(4) 0.3043(2)
H1 H 0.3008 0.5228 0.3408
H2 H 0.4046 0.5961 0.2959
C3 C 0.5285(7) 0.4514(4) 0.3138(2)
H3 H 0.4885 0.3765 0.3165
C4 C 0.6433(7) 0.4584(5) 0.2589(2)
H4 H 0.7187 0.3961 0.2587
H5 H 0.7143 0.5223 0.2626
C5 C 0.5487(7) 0.4630(4) 0.1975(2)
C6 C 0.6085(6) 0.3796(4) 0.1530(2)
C7 C 0.4782(7) 0.3249(4) 0.1238(2)
C8 C 0.5046(8) 0.2471(5) 0.0802(3)
H6 H 0.4135 0.2110 0.0621
C9 C 0.6720(8) 0.2250(5) 0.0647(3)
H7 H 0.6952 0.1742 0.0348
C10 C 0.8057(9) 0.2780(5) 0.0932(3)
H8 H 0.9180 0.2613 0.0827
C11 C 0.7747(7) 0.3553(4) 0.1370(2)
H9 H 0.8656 0.3907 0.1556
C12 C 0.6219(8) 0.4763(4) 0.3725(2)
C13 C 0.5318(10) 0.4621(5) 0.4266(3)
H10 H 0.4183 0.4395 0.4257
C14 C 0.6110(12) 0.4818(5) 0.4816(3)
H11 H 0.5510 0.4708 0.5174
C15 C 0.7791(11) 0.5178(5) 0.4837(3)
H12 H 0.8315 0.5321 0.5206
C16 C 0.8675(10) 0.5319(6) 0.4305(3)
H13 H 0.9807 0.5549 0.4315
C17 C 0.7886(9) 0.5120(5) 0.3754(3)
H14 H 0.8495 0.5230 0.3398
C18 C 0.445(5) 0.6839(16) 0.0689(10)
H15 H 0.5440 0.7126 0.0479
H16 H 0.3995 0.7394 0.0954
C19 C 0.309(5) 0.646(4) 0.024(2)
H17 H 0.3628 0.6088 -0.0089
H18 H 0.2483 0.7082 0.0084
H19 H 0.2295 0.5990 0.0437
C20 C 0.897(2) 0.6729(13) 0.1832(9)
H20 H 0.9970 0.6301 0.1933
H21 H 0.8491 0.7023 0.2201
C21 C 0.944(2) 0.7624(13) 0.1402(8)
H22 H 0.9963 0.7322 0.1048
H23 H 1.0228 0.8107 0.1596
H24 H 0.8426 0.8013 0.1289
C22? C 0.353(6) 0.660(3) 0.0855(15)
H25? H 0.3650 0.7302 0.1049
H26? H 0.2434 0.6296 0.0973
C23? C 0.362(7) 0.673(5) 0.017(3)
H27? H 0.4773 0.6595 0.0036
H28? H 0.3287 0.7445 0.0058
H29? H 0.2865 0.6214 -0.0018
C24? C 0.848(5) 0.711(3) 0.1633(19)
H30? H 0.8015 0.7409 0.2003
H31? H 0.8207 0.7595 0.1304
C25? C 1.039(4) 0.701(2) 0.1690(14)
H32? H 1.0675 0.6723 0.2081
H33? H 1.0909 0.7707 0.1643
H34? H 1.0817 0.6529 0.1384
loop_
_geom_bond_atom_site_label_1
_geom_bond_atom_site_label_2
_geom_bond_site_symmetry_1
_geom_bond_site_symmetry_2
N1 S1 1_555 1_555
O1 C1 1_555 1_555
O2 S1 1_555 1_555
O3 S1 1_555 1_555
O4 P1 1_555 1_555
O5 P1 1_555 1_555
O6 P1 1_555 1_555
P1 C5 1_555 1_555
S1 C7 1_555 1_555
C1 N1 1_555 1_555
C2 C1 1_555 1_555
H1 C2 1_555 1_555
H2 C2 1_555 1_555
C3 C2 1_555 1_555
H3 C3 1_555 1_555
C4 C3 1_555 1_555
H4 C4 1_555 1_555
H5 C4 1_555 1_555
C5 N1 1_555 1_555
C6 C5 1_555 1_555
C7 C6 1_555 1_555
C8 C7 1_555 1_555
H6 C8 1_555 1_555
C9 C8 1_555 1_555
H7 C9 1_555 1_555
C10 C9 1_555 1_555
H8 C10 1_555 1_555
C11 C6 1_555 1_555
H9 C11 1_555 1_555
C12 C3 1_555 1_555
C13 C12 1_555 1_555
H10 C13 1_555 1_555
C14 C13 1_555 1_555
H11 C14 1_555 1_555
C15 C14 1_555 1_555
H12 C15 1_555 1_555
C16 C15 1_555 1_555
H13 C16 1_555 1_555
C17 C12 1_555 1_555
H14 C17 1_555 1_555
C18 O5 1_555 1_555
H15 C18 1_555 1_555
H16 C18 1_555 1_555
C19 C18 1_555 1_555
H17 C19 1_555 1_555
H18 C19 1_555 1_555
H19 C19 1_555 1_555
C20 O6 1_555 1_555
H20 C20 1_555 1_555
H21 C20 1_555 1_555
C21 C20 1_555 1_555
H22 C21 1_555 1_555
H23 C21 1_555 1_555
H24 C21 1_555 1_555
C4 C5 1_555 1_555
C10 C11 1_555 1_555
C16 C17 1_555 1_555

#END
