
#######################################################################
#
#                 Cambridge Crystallographic Data Centre
#                                CCDC 
#
#######################################################################
#
# If this CIF has been generated from an entry in the Cambridge 
# Structural Database, then it will include bibliographic, chemical, 
# crystal, experimental, refinement or atomic coordinate data resulting 
# from the CCDC's data processing and validation procedures.
#
#######################################################################

data_KIMQEC
_chemical_formula_moiety         'C38 H32 Br2 O6'
_chemical_name_systematic        
(+)-(S)-7,7'-bis(Benzyloxy)-2,2'-bis(methoxymethoxy)-3,3'-di-bromo-1,1'-binaphthalene
_symmetry_cell_setting           monoclinic
_symmetry_space_group_name_H-M   'P 21'
_symmetry_Int_Tables_number      4
_space_group_name_Hall           'P 2yb'
loop_
_symmetry_equiv_pos_site_id
_symmetry_equiv_pos_as_xyz
1 x,y,z
2 -x,1/2+y,-z
_cell_length_a                   15.175(5)
_cell_length_b                   10.348(5)
_cell_length_c                   21.456(5)
_cell_angle_alpha                90
_cell_angle_beta                 99.41(2)
_cell_angle_gamma                90
_cell_volume                     3323.92
_exptl_crystal_colour            yellow
_chemical_melting_point          '112 deg.C'
_cell_formula_units_Z            4
_exptl_crystal_recrystallization_method hexane
loop_
_atom_site_label
_atom_site_type_symbol
_atom_site_fract_x
_atom_site_fract_y
_atom_site_fract_z
Br1 Br 0.8069(1) 0.7722(2) 0.8241(1)
Br2 Br 0.5718(1) 1.4452(2) 0.9505(1)
C1 C 0.7016(9) 1.1394(20) 0.7865(7)
C2 C 0.7566(9) 1.1901(22) 0.7437(7)
C3 C 0.8305(10) 1.1174(21) 0.7299(8)
C4 C 0.8479(10) 0.9944(20) 0.7570(8)
C5 C 0.7899(9) 0.9454(21) 0.7951(7)
C6 C 0.7188(10) 1.0197(23) 0.8101(8)
C7 C 0.7396(10) 1.3169(22) 0.7154(7)
C8 C 0.7938(11) 1.3607(21) 0.6749(8)
C9 C 0.8683(10) 1.2850(26) 0.6615(8)
C10 C 0.8861(9) 1.1717(28) 0.6890(7)
O1 O 0.7850(7) 1.4790(14) 0.6429(6)
C11 C 0.7076(12) 1.5539(21) 0.6491(8)
C12 C 0.7142(10) 1.6712(17) 0.6092(6)
C13 C 0.7261(11) 1.7945(19) 0.6348(8)
C14 C 0.7320(11) 1.9008(17) 0.5978(8)
C15 C 0.7324(17) 1.8842(20) 0.5340(10)
C16 C 0.7243(19) 1.7609(19) 0.5083(8)
C17 C 0.7126(20) 1.6546(20) 0.5444(8)
O2 O 0.6615(6) 0.9660(13) 0.8478(5)
C18 C 0.6906(10) 0.9808(22) 0.9151(7)
O3 O 0.6249(8) 0.9227(14) 0.9434(6)
C19 C 0.6206(13) 0.7787(20) 0.9407(9)
C20 C 0.6241(9) 1.2153(21) 0.8019(8)
C21 C 0.6340(9) 1.2888(24) 0.8549(7)
C22 C 0.5598(10) 1.3557(17) 0.8707(7)
C23 C 0.4787(10) 1.3476(14) 0.8355(7)
C24 C 0.4653(8) 1.2715(15) 0.7811(6)
C25 C 0.5372(8) 1.2004(13) 0.7636(6)
C26 C 0.5220(9) 1.1159(15) 0.7104(6)
C27 C 0.4391(9) 1.1047(17) 0.6769(7)
C28 C 0.3666(9) 1.1776(16) 0.6916(8)
C29 C 0.3801(10) 1.2588(16) 0.7442(8)
O4 O 0.4138(7) 1.0268(12) 0.6249(5)
C30 C 0.4788(11) 0.9333(20) 0.6114(7)
C31 C 0.4343(10) 0.8577(22) 0.5537(8)
C32 C 0.4902(16) 0.8130(38) 0.5153(12)
C33 C 0.4524(21) 0.7496(58) 0.4558(14)
C34 C 0.3668(20) 0.7243(27) 0.4443(11)
C35 C 0.3110(15) 0.7640(21) 0.4858(10)
C36 C 0.3463(14) 0.8322(19) 0.5402(10)
O5 O 0.7214(13) 1.3317(22) 0.8847(9)
C37 C 0.7531(18) 1.4633(32) 0.8903(13)
O6 O 0.8081(12) 1.4911(20) 0.8407(9)
C38 C 0.8919(19) 1.4274(31) 0.8518(13)
Br3 Br 0.5497(1) 0.6762(2) 0.7490(1)
Br4 Br 0.1233(2) 0.2760(3) 0.8081(1)
C39 C 0.2928(9) 0.7235(13) 0.7886(7)
C40 C 0.3005(8) 0.8397(14) 0.8253(6)
C41 C 0.3822(10) 0.9085(14) 0.8343(8)
C42 C 0.4564(9) 0.8593(1) 0.8113(7)
C43 C 0.4473(8) 0.7486(15) 0.7776(6)
C44 C 0.3666(9) 0.6783(15) 0.7650(7)
C45 C 0.2277(10) 0.8857(14) 0.8532(8)
C46 C 0.2401(10) 0.9977(15) 0.8909(8)
C47 C 0.3214(10) 1.0693(15) 0.8988(7)
C48 C 0.3900(11) 1.0239(13) 0.8725(7)
O7 O 0.1744(9) 1.0466(13) 0.9201(6)
C49 C 0.0977(19) 0.9833(30) 0.9179(13)
C50 C 0.0431(13) 1.0577(24) 0.9613(9)
C51 C 0.0769(29) 1.1601(56) 1.0020(30)
C52 C 0.0188(23) 1.2091(38) 1.0410(20)
C53 C -0.0685(21) 1.1601(32) 1.0419(17)
C54 C -0.0936(21) 1.0517(42) 1.0046(22)
C55 C -0.0378(20) 0.9993(35) 0.9661(18)
O8 O 0.3599(6) 0.5665(10) 0.7294(6)
C56 C 0.3258(19) 0.5917(30) 0.6685(14)
O9 O 0.3351(16) 0.5016(27) 0.6260(11)
C57 C 0.4279(16) 0.4808(25) 0.6169(11)
C58 C 0.2060(9) 0.6483(16) 0.7761(8)
C59 C 0.2046(10) 0.5277(14) 0.8017(10)
C60 C 0.1240(11) 0.4553(16) 0.7877(11)
C61 C 0.0496(10) 0.4979(15) 0.7497(12)
C62 C 0.0489(10) 0.6234(16) 0.7220(11)
C63 C 0.1293(10) 0.6985(14) 0.7334(8)
C64 C 0.1310(10) 0.8211(14) 0.7058(8)
C65 C 0.0561(9) 0.8615(17) 0.6689(8)
C66 C -0.0250(10) 0.7902(20) 0.6608(9)
C67 C -0.0267(9) 0.6727(17) 0.6880(10)
O10 O 0.0493(6) 0.9782(11) 0.6374(5)
C68 C 0.1291(10) 1.0589(16) 0.6461(8)
C69 C 0.1028(11) 1.1868(16) 0.6061(7)
C70 C 0.1301(18) 1.3060(21) 0.6348(11)
C71 C 0.1071(25) 1.4194(20) 0.5980(13)
C72 C 0.0578(25) 1.4194(29) 0.5367(15)
C73 C 0.0324(18) 1.2988(25) 0.5111(10)
C74 C 0.0434(15) 1.1876(24) 0.5481(9)
O11 O 0.2771(6) 0.4794(9) 0.8399(6)
C75 C 0.2732(11) 0.4786(17) 0.9052(10)
O12 O 0.2794(8) 0.6027(13) 0.9325(6)
C76 C 0.3695(13) 0.6485(19) 0.9447(10)
O13? O 0.7099(11) 1.2650(21) 0.9011(9)
C77? C 0.7624(20) 1.3779(34) 0.9043(14)
O14? O 0.8136(15) 1.3932(24) 0.8580(11)
C78? C 0.8921(20) 1.3051(32) 0.8659(14)
Br5? Br 0.1354(3) 0.2905(5) 0.8470(4)
C79? C -0.0250(30) 1.1277(70) 0.9251(21)
C80? C -0.0999(21) 1.1614(52) 0.9501(13)
C81? C -0.0993(17) 1.1399(34) 1.0130(13)
C82? C -0.0214(16) 1.1105(31) 1.0543(9)
C83? C 0.0513(22) 1.0688(49) 1.0275(13)
loop_
_geom_bond_atom_site_label_1
_geom_bond_atom_site_label_2
_geom_bond_site_symmetry_1
_geom_bond_site_symmetry_2
Br1 C5 1_555 1_555
Br2 C22 1_555 1_555
C1 C2 1_555 1_555
C2 C3 1_555 1_555
C3 C4 1_555 1_555
C4 C5 1_555 1_555
C5 C6 1_555 1_555
C6 C1 1_555 1_555
C7 C2 1_555 1_555
C8 C7 1_555 1_555
C9 C8 1_555 1_555
C10 C3 1_555 1_555
O1 C8 1_555 1_555
C11 O1 1_555 1_555
C12 C11 1_555 1_555
C13 C12 1_555 1_555
C14 C13 1_555 1_555
C15 C14 1_555 1_555
C16 C15 1_555 1_555
C17 C12 1_555 1_555
O2 C6 1_555 1_555
C18 O2 1_555 1_555
O3 C18 1_555 1_555
C19 O3 1_555 1_555
C20 C1 1_555 1_555
C21 C20 1_555 1_555
C22 C21 1_555 1_555
C23 C22 1_555 1_555
C24 C23 1_555 1_555
C25 C20 1_555 1_555
C26 C25 1_555 1_555
C27 C26 1_555 1_555
C28 C27 1_555 1_555
C29 C24 1_555 1_555
O4 C27 1_555 1_555
C30 O4 1_555 1_555
C31 C30 1_555 1_555
C32 C31 1_555 1_555
C33 C32 1_555 1_555
C34 C33 1_555 1_555
C35 C34 1_555 1_555
C36 C31 1_555 1_555
O5 C21 1_555 1_555
C37 O5 1_555 1_555
O6 C37 1_555 1_555
C38 O6 1_555 1_555
Br3 C43 1_555 1_555
Br4 C60 1_555 1_555
C39 C40 1_555 1_555
C40 C41 1_555 1_555
C41 C42 1_555 1_555
C42 C43 1_555 1_555
C43 C44 1_555 1_555
C44 C39 1_555 1_555
C45 C40 1_555 1_555
C46 C45 1_555 1_555
C47 C46 1_555 1_555
C48 C41 1_555 1_555
O7 C46 1_555 1_555
C49 O7 1_555 1_555
C50 C49 1_555 1_555
C51 C50 1_555 1_555
C52 C51 1_555 1_555
C53 C52 1_555 1_555
C54 C53 1_555 1_555
C55 C50 1_555 1_555
O8 C44 1_555 1_555
C56 O8 1_555 1_555
O9 C56 1_555 1_555
C57 O9 1_555 1_555
C58 C39 1_555 1_555
C59 C58 1_555 1_555
C60 C59 1_555 1_555
C61 C60 1_555 1_555
C62 C61 1_555 1_555
C63 C58 1_555 1_555
C64 C63 1_555 1_555
C65 C64 1_555 1_555
C66 C65 1_555 1_555
C67 C62 1_555 1_555
O10 C65 1_555 1_555
C68 O10 1_555 1_555
C69 C68 1_555 1_555
C70 C69 1_555 1_555
C71 C70 1_555 1_555
C72 C71 1_555 1_555
C73 C72 1_555 1_555
C74 C69 1_555 1_555
O11 C59 1_555 1_555
C75 O11 1_555 1_555
O12 C75 1_555 1_555
C76 O12 1_555 1_555
C9 C10 1_555 1_555
C16 C17 1_555 1_555
C24 C25 1_555 1_555
C28 C29 1_555 1_555
C35 C36 1_555 1_555
C47 C48 1_555 1_555
C54 C55 1_555 1_555
C62 C63 1_555 1_555
C66 C67 1_555 1_555
C73 C74 1_555 1_555

#END
