
#######################################################################
#
#                 Cambridge Crystallographic Data Centre
#                                CCDC 
#
#######################################################################
#
# If this CIF has been generated from an entry in the Cambridge 
# Structural Database, then it will include bibliographic, chemical, 
# crystal, experimental, refinement or atomic coordinate data resulting 
# from the CCDC's data processing and validation procedures.
#
#######################################################################

data_KIMSUU02
_chemical_formula_moiety         'C15 H14 N2'
_chemical_name_systematic        4(4-dimethylaminophenyl)benzonitrile
_symmetry_cell_setting           orthorhombic
_symmetry_space_group_name_H-M   'F d d 2'
_symmetry_Int_Tables_number      43
_space_group_name_Hall           'F 2 -2d'
loop_
_symmetry_equiv_pos_site_id
_symmetry_equiv_pos_as_xyz
1 x,y,z
2 -x,-y,z
3 1/4-x,1/4+y,1/4+z
4 1/4+x,1/4-y,1/4+z
5 x,1/2+y,1/2+z
6 -x,1/2-y,1/2+z
7 1/4-x,3/4+y,3/4+z
8 1/4+x,3/4-y,3/4+z
9 1/2+x,y,1/2+z
10 1/2-x,-y,1/2+z
11 3/4-x,1/4+y,3/4+z
12 3/4+x,1/4-y,3/4+z
13 1/2+x,1/2+y,z
14 1/2-x,1/2-y,z
15 3/4-x,3/4+y,1/4+z
16 3/4+x,3/4-y,1/4+z
_cell_length_a                   9.5153(4)
_cell_length_b                   16.4452(7)
_cell_length_c                   15.1983(4)
_cell_angle_alpha                90
_cell_angle_beta                 90
_cell_angle_gamma                90
_cell_volume                     2378.25
_exptl_crystal_colour            yellow
_exptl_crystal_description       needle
_cell_formula_units_Z            8
loop_
_atom_site_label
_atom_site_type_symbol
_atom_site_fract_x
_atom_site_fract_y
_atom_site_fract_z
N1 N 0.0000 0.0000 -0.09793(19)
C1 C 0.0000 0.0000 -0.0230(2)
C2 C 0.0000 0.0000 0.07125(18)
C3 C 0.02100(17) -0.07241(10) 0.11767(12)
H1 H 0.0342 -0.1209 0.0874
C4 C 0.02217(17) -0.07178(9) 0.20809(13)
H2 H 0.0381 -0.1201 0.2383
C5 C 0.0000 0.0000 0.25602(15)
C6 C 0.0000 0.0000 0.35276(16)
C7 C -0.09843(15) 0.04426(9) 0.40109(12)
H3 H -0.1649 0.0751 0.3711
C8 C -0.10054(17) 0.04387(9) 0.49168(13)
H4 H -0.1697 0.0731 0.5212
C9 C 0.0000 0.0000 0.54064(16)
N2 N 0.0000 0.0000 0.63053(15)
C10 C 0.11609(19) -0.03343(12) 0.67954(15)
H5 H 0.1217 -0.0909 0.6691
H6 H 0.1020 -0.0237 0.7412
H7 H 0.2019 -0.0080 0.6609
C3A C -0.02100(17) 0.07241(10) 0.11767(12)
H1A H -0.0342 0.1209 0.0874
C4A C -0.02217(17) 0.07178(9) 0.20809(13)
H2A H -0.0381 0.1201 0.2383
C7A C 0.09843(15) -0.04426(9) 0.40109(12)
H3A H 0.1649 -0.0751 0.3711
C8A C 0.10054(17) -0.04387(9) 0.49168(13)
H4A H 0.1697 -0.0731 0.5212
C10A C -0.11609(19) 0.03343(12) 0.67954(15)
H5A H -0.1217 0.0909 0.6691
H6A H -0.1020 0.0237 0.7412
H7A H -0.2019 0.0080 0.6609
loop_
_geom_bond_atom_site_label_1
_geom_bond_atom_site_label_2
_geom_bond_site_symmetry_1
_geom_bond_site_symmetry_2
N1 C1 1_555 1_555
C1 C2 1_555 1_555
C2 C3 1_555 1_555
C3 H1 1_555 1_555
C4 C3 1_555 1_555
H2 C4 1_555 1_555
C5 C4 1_555 1_555
C6 C5 1_555 1_555
C7 C6 1_555 1_555
H3 C7 1_555 1_555
C8 C7 1_555 1_555
H4 C8 1_555 1_555
C9 C8 1_555 1_555
N2 C9 1_555 1_555
C10 N2 1_555 1_555
H5 C10 1_555 1_555
H6 C10 1_555 1_555
H7 C10 1_555 1_555
C3A C2 1_555 1_555
H1A C3A 1_555 1_555
C4A C5 1_555 1_555
H2A C4A 1_555 1_555
C7A C6 1_555 1_555
H3A C7A 1_555 1_555
C8A C9 1_555 1_555
H4A C8A 1_555 1_555
C10A N2 1_555 1_555
H5A C10A 1_555 1_555
H6A C10A 1_555 1_555
H7A C10A 1_555 1_555
C3A C4A 1_555 1_555
C7A C8A 1_555 1_555

#END
