
#######################################################################
#
#                 Cambridge Crystallographic Data Centre
#                                CCDC 
#
#######################################################################
#
# If this CIF has been generated from an entry in the Cambridge 
# Structural Database, then it will include bibliographic, chemical, 
# crystal, experimental, refinement or atomic coordinate data resulting 
# from the CCDC's data processing and validation procedures.
#
#######################################################################

data_KIMXOW
_chemical_formula_moiety         'C19 H20 O3'
_chemical_name_systematic        
1-(3-hydroxy-3-methyl-4-phenyl-3,4-dihydro-2H-1-benzopyran-2-yl)propan-2-one
_symmetry_cell_setting           orthorhombic
_symmetry_space_group_name_H-M   'P n a 21'
_symmetry_Int_Tables_number      33
_space_group_name_Hall           'P 2c -2n'
loop_
_symmetry_equiv_pos_site_id
_symmetry_equiv_pos_as_xyz
1 x,y,z
2 -x,-y,1/2+z
3 1/2-x,1/2+y,1/2+z
4 1/2+x,1/2-y,z
_cell_length_a                   17.578(2)
_cell_length_b                   7.1167(9)
_cell_length_c                   26.191(3)
_cell_angle_alpha                90
_cell_angle_beta                 90
_cell_angle_gamma                90
_cell_volume                     3276.42
_exptl_crystal_colour            colorless
_exptl_crystal_description       block
_cell_formula_units_Z            8
loop_
_atom_site_label
_atom_site_type_symbol
_atom_site_fract_x
_atom_site_fract_y
_atom_site_fract_z
O1 O 0.9384(5) 0.2267(12) 0.8222(4)
H1 H 0.9251 0.1318 0.8069
O2 O 0.8185(5) 0.5953(14) 0.8674(4)
O3 O 0.9322(7) 0.8325(16) 0.8016(5)
C1 C 1.0027(6) 0.4716(16) 0.9450(5)
H2 H 0.9660 0.5633 0.9508
C2 C 1.0781(7) 0.5042(15) 0.9579(4)
H3 H 1.0926 0.6186 0.9720
C3 C 1.1310(5) 0.3665(18) 0.9495(5)
H4 H 1.1818 0.3894 0.9571
C4 C 1.1104(6) 0.1970(17) 0.9302(6)
H5 H 1.1460 0.1011 0.9274
C5 C 1.0355(6) 0.1675(15) 0.9147(5)
H6 H 1.0219 0.0563 0.8985
C6 C 0.9827(5) 0.3032(17) 0.9236(5)
C7 C 0.8982(9) 0.2604(19) 0.9107(6)
H7 H 0.8880 0.1292 0.9197
C8 C 0.8423(7) 0.3842(19) 0.9406(5)
C9 C 0.8274(7) 0.345(2) 0.9897(6)
H8 H 0.8481 0.2376 1.0045
C10 C 0.7803(7) 0.465(2) 1.0190(5)
H9 H 0.7709 0.4371 1.0531
C11 C 0.7489(8) 0.621(2) 0.9979(6)
H10 H 0.7182 0.6991 1.0174
C12 C 0.7629(8) 0.662(2) 0.9470(6)
H11 H 0.7405 0.7663 0.9317
C13 C 0.8108(7) 0.545(2) 0.9196(6)
C14 C 0.8791(8) 0.501(2) 0.8400(5)
H12 H 0.9275 0.5563 0.8508
C15 C 0.8819(8) 0.285(2) 0.8521(6)
C16 C 0.8045(8) 0.204(2) 0.8372(7)
H13 H 0.7968 0.2200 0.8011
H14 H 0.7651 0.2690 0.8555
H15 H 0.8030 0.0730 0.8455
C17 C 0.8666(8) 0.551(2) 0.7848(5)
H16 H 0.8924 0.4581 0.7640
H17 H 0.8126 0.5409 0.7776
C18 C 0.8926(9) 0.741(2) 0.7686(7)
C19 C 0.8772(10) 0.800(3) 0.7183(8)
H18 H 0.8547 0.9228 0.7190
H19 H 0.8427 0.7133 0.7024
H20 H 0.9238 0.8042 0.6992
O4 O 0.5751(5) 0.6104(13) 0.6828(3)
O5 O 0.6842(6) 0.8593(13) 0.7513(5)
C20 C 0.7536(5) 0.4907(14) 0.6076(5)
H21 H 0.7163 0.5808 0.6016
C21 C 0.8282(6) 0.5268(15) 0.5942(5)
H22 H 0.8416 0.6418 0.5799
C22 C 0.8824(5) 0.3907(17) 0.6022(5)
H23 H 0.9328 0.4141 0.5936
C23 C 0.8626(5) 0.2223(16) 0.6225(5)
H24 H 0.8994 0.1298 0.6268
C24 C 0.7881(6) 0.1867(14) 0.6369(5)
H25 H 0.7749 0.0717 0.6512
C25 C 0.7344(5) 0.3224(15) 0.6296(5)
C26 C 0.6498(8) 0.2742(17) 0.6451(5)
H26 H 0.6402 0.1418 0.6371
C27 C 0.5960(7) 0.3942(18) 0.6132(5)
C28 C 0.5755(8) 0.345(2) 0.5622(5)
H27 H 0.5947 0.2351 0.5478
C29 C 0.5290(8) 0.455(2) 0.5349(6)
H28 H 0.5179 0.4215 0.5013
C30 C 0.4972(9) 0.615(2) 0.5547(6)
H29 H 0.4629 0.6834 0.5353
C31 C 0.5157(8) 0.676(2) 0.6043(6)
H30 H 0.4978 0.7884 0.6176
C32 C 0.5636(7) 0.5539(19) 0.6325(5)
C33 C 0.6348(8) 0.5138(18) 0.7102(5)
H31 H 0.6839 0.5624 0.6983
O6 O 0.6980(5) 0.2443(9) 0.7334(4)
H32 H 0.6991 0.1292 0.7346
C34 C 0.6243(8) 0.5728(18) 0.7658(5)
H33 H 0.5709 0.5613 0.7746
H34 H 0.6526 0.4868 0.7874
C35 C 0.6487(8) 0.7612(18) 0.7766(5)
C36 C 0.6207(10) 0.854(2) 0.8298(7)
H35 H 0.6476 0.9697 0.8355
H36 H 0.6307 0.7690 0.8574
H37 H 0.5671 0.8793 0.8280
C37 C 0.5611(8) 0.218(2) 0.7153(6)
H38 H 0.5625 0.0870 0.7069
H39 H 0.5207 0.2780 0.6967
H40 H 0.5525 0.2330 0.7512
C38 C 0.6336(8) 0.3051(18) 0.7015(5)
loop_
_geom_bond_atom_site_label_1
_geom_bond_atom_site_label_2
_geom_bond_site_symmetry_1
_geom_bond_site_symmetry_2
O1 H1 1_555 1_555
O2 C13 1_555 1_555
O3 C18 1_555 1_555
C1 H2 1_555 1_555
C2 C1 1_555 1_555
H3 C2 1_555 1_555
C3 C2 1_555 1_555
H4 C3 1_555 1_555
C4 C3 1_555 1_555
H5 C4 1_555 1_555
C5 C4 1_555 1_555
H6 C5 1_555 1_555
C6 C1 1_555 1_555
C7 C6 1_555 1_555
H7 C7 1_555 1_555
C8 C7 1_555 1_555
C9 C8 1_555 1_555
H8 C9 1_555 1_555
C10 C9 1_555 1_555
H9 C10 1_555 1_555
C11 C10 1_555 1_555
H10 C11 1_555 1_555
C12 C11 1_555 1_555
H11 C12 1_555 1_555
C13 C8 1_555 1_555
C14 O2 1_555 1_555
H12 C14 1_555 1_555
C15 O1 1_555 1_555
C16 C15 1_555 1_555
H13 C16 1_555 1_555
H14 C16 1_555 1_555
H15 C16 1_555 1_555
C17 C14 1_555 1_555
H16 C17 1_555 1_555
H17 C17 1_555 1_555
C18 C17 1_555 1_555
C19 C18 1_555 1_555
H18 C19 1_555 1_555
H19 C19 1_555 1_555
H20 C19 1_555 1_555
O4 C32 1_555 1_555
O5 C35 1_555 1_555
C20 H21 1_555 1_555
C21 C20 1_555 1_555
H22 C21 1_555 1_555
C22 C21 1_555 1_555
H23 C22 1_555 1_555
C23 C22 1_555 1_555
H24 C23 1_555 1_555
C24 C23 1_555 1_555
H25 C24 1_555 1_555
C25 C20 1_555 1_555
C26 C25 1_555 1_555
H26 C26 1_555 1_555
C27 C26 1_555 1_555
C28 C27 1_555 1_555
H27 C28 1_555 1_555
C29 C28 1_555 1_555
H28 C29 1_555 1_555
C30 C29 1_555 1_555
H29 C30 1_555 1_555
C31 C30 1_555 1_555
H30 C31 1_555 1_555
C32 C27 1_555 1_555
C33 O4 1_555 1_555
H31 C33 1_555 1_555
O6 H32 1_555 1_555
C34 C33 1_555 1_555
H33 C34 1_555 1_555
H34 C34 1_555 1_555
C35 C34 1_555 1_555
C36 C35 1_555 1_555
H35 C36 1_555 1_555
H36 C36 1_555 1_555
H37 C36 1_555 1_555
C37 H38 1_555 1_555
H39 C37 1_555 1_555
H40 C37 1_555 1_555
C38 C26 1_555 1_555
C5 C6 1_555 1_555
C7 C15 1_555 1_555
C12 C13 1_555 1_555
C14 C15 1_555 1_555
C24 C25 1_555 1_555
C31 C32 1_555 1_555
C33 C38 1_555 1_555
O6 C38 1_555 1_555
C37 C38 1_555 1_555

#END
