
#######################################################################
#
#                 Cambridge Crystallographic Data Centre
#                                CCDC 
#
#######################################################################
#
# If this CIF has been generated from an entry in the Cambridge 
# Structural Database, then it will include bibliographic, chemical, 
# crystal, experimental, refinement or atomic coordinate data resulting 
# from the CCDC's data processing and validation procedures.
#
#######################################################################

data_KINMOJ
_chemical_formula_moiety         'C14 H6 F6'
_chemical_name_systematic        
1,1,3-Trifluoro-2-(trifluoromethyl)-1H-cyclopenta[a]naphthalene
_symmetry_cell_setting           monoclinic
_symmetry_space_group_name_H-M   'P 21'
_symmetry_Int_Tables_number      4
_space_group_name_Hall           'P 2yb'
loop_
_symmetry_equiv_pos_site_id
_symmetry_equiv_pos_as_xyz
1 x,y,z
2 -x,1/2+y,-z
_cell_length_a                   7.913(4)
_cell_length_b                   7.048(4)
_cell_length_c                   10.739(5)
_cell_angle_alpha                90
_cell_angle_beta                 103.34(4)
_cell_angle_gamma                90
_cell_volume                     582.763
_exptl_crystal_colour            colorless
_cell_formula_units_Z            2
loop_
_atom_site_label
_atom_site_type_symbol
_atom_site_fract_x
_atom_site_fract_y
_atom_site_fract_z
F1 F 0.8451(4) 0.2513(12) 0.0954(2)
F2 F 0.5278(4) 0.1064(6) 0.3767(3)
F3 F 0.5326(4) 0.4130(5) 0.3776(3)
F4 F 0.4916(5) 0.2518(16) -0.0109(3)
F5 F 0.3664(7) 0.4166(8) 0.1059(4)
F6 F 0.3551(5) 0.1208(7) 0.1122(3)
C1 C 0.9043(5) 0.262 0.3258(3)
C2 C 0.8060(5) 0.256(2) 0.4143(3)
C3 C 0.8790(5) 0.255(2) 0.5466(3)
C4 C 0.7822(6) 0.256(2) 0.6421(4)
C5 C 0.8670(7) 0.256(2) 0.7668(4)
C6 C 1.0481(7) 0.263(2) 0.8044(4)
C7 C 1.1450(6) 0.252(2) 0.7153(4)
C8 C 1.0647(5) 0.261(2) 0.5837(4)
C9 C 1.1614(5) 0.258(2) 0.4888(4)
C10 C 1.0857(5) 0.260(2) 0.3625(4)
C11 C 0.7844(6) 0.258(2) 0.1999(3)
C12 C 0.6206(6) 0.256(2) 0.2061(4)
C13 C 0.6187(5) 0.257(2) 0.3456(4)
C14 C 0.4597(7) 0.257(2) 0.1030(4)
H1 H 0.660(6) 0.295(10) 0.614(3)
H2 H 0.808(5) 0.240(18) 0.829(3)
H3 H 1.103(6) 0.282(9) 0.893(3)
H4 H 1.275(5) 0.294(16) 0.742(3)
H5 H 1.280(5) 0.255(18) 0.517(4)
H6 H 1.155(5) 0.236(15) 0.308(3)
loop_
_geom_bond_atom_site_label_1
_geom_bond_atom_site_label_2
_geom_bond_site_symmetry_1
_geom_bond_site_symmetry_2
F1 C11 1_555 1_555
F2 C13 1_555 1_555
F3 C13 1_555 1_555
F4 C14 1_555 1_555
F5 C14 1_555 1_555
F6 C14 1_555 1_555
C1 C2 1_555 1_555
C2 C3 1_555 1_555
C3 C4 1_555 1_555
C4 C5 1_555 1_555
C5 C6 1_555 1_555
C6 C7 1_555 1_555
C7 C8 1_555 1_555
C8 C3 1_555 1_555
C9 C8 1_555 1_555
C10 C1 1_555 1_555
C11 C1 1_555 1_555
C12 C11 1_555 1_555
C13 C2 1_555 1_555
C14 C12 1_555 1_555
H1 C4 1_555 1_555
H2 C5 1_555 1_555
H3 C6 1_555 1_555
H4 C7 1_555 1_555
H5 C9 1_555 1_555
H6 C10 1_555 1_555
C9 C10 1_555 1_555
C12 C13 1_555 1_555

#END
