
#######################################################################
#
#                 Cambridge Crystallographic Data Centre
#                                CCDC 
#
#######################################################################
#
# If this CIF has been generated from an entry in the Cambridge 
# Structural Database, then it will include bibliographic, chemical, 
# crystal, experimental, refinement or atomic coordinate data resulting 
# from the CCDC's data processing and validation procedures.
#
#######################################################################

data_KINSIL02
_chemical_formula_moiety         'C11 H14 N2 O2'
_chemical_name_systematic        N\a-Acetyl-L-phenylalaninamide
_symmetry_cell_setting           monoclinic
_symmetry_space_group_name_H-M   'P 21'
_symmetry_Int_Tables_number      4
_space_group_name_Hall           'P 2yb'
loop_
_symmetry_equiv_pos_site_id
_symmetry_equiv_pos_as_xyz
1 x,y,z
2 -x,1/2+y,-z
_cell_length_a                   18.024(6)
_cell_length_b                   4.9974(17)
_cell_length_c                   19.569(7)
_cell_angle_alpha                90
_cell_angle_beta                 104.622(5)
_cell_angle_gamma                90
_cell_volume                     1705.55
_exptl_crystal_colour            colorless
_exptl_crystal_description       needle
_cell_formula_units_Z            6
loop_
_atom_site_label
_atom_site_type_symbol
_atom_site_fract_x
_atom_site_fract_y
_atom_site_fract_z
N1 N 0.93418(8) 0.5389(3) 0.78511(8)
H1 H 0.9487 0.7033 0.7901
O1 O 0.80463(8) 0.7596(3) 0.66869(7)
N2 N 0.81156(10) 0.3215(3) 0.65007(8)
H2 H 0.7948 0.3410 0.6051
H3 H 0.8228 0.1646 0.6677
C1 C 0.81996(9) 0.5304(4) 0.69154(10)
C2 C 0.85261(9) 0.4813(4) 0.76990(9)
H4 H 0.8460 0.2917 0.7797
C3 C 0.81240(10) 0.6488(5) 0.81494(10)
H5 H 0.8210 0.8369 0.8075
H6 H 0.7576 0.6163 0.7998
C4 C 0.84032(11) 0.5862(5) 0.89254(10)
C5 C 0.80747(14) 0.3812(6) 0.92254(12)
H7 H 0.7672 0.2829 0.8947
C6 C 0.83406(16) 0.3215(7) 0.99364(14)
H8 H 0.8117 0.1835 1.0134
C7 C 0.89344(16) 0.4661(6) 1.03502(13)
H9 H 0.9113 0.4263 1.0828
C8 C 0.92593(14) 0.6662(6) 1.00625(12)
H10 H 0.9662 0.7639 1.0343
C9 C 0.89976(12) 0.7261(6) 0.93561(11)
H11 H 0.9228 0.8642 0.9166
C10 C 0.98786(10) 0.3489(4) 0.79176(10)
C11 C 1.06853(11) 0.4484(5) 0.80185(13)
H12 H 1.0959 0.4283 0.8505
H13 H 1.0676 0.6338 0.7889
H14 H 1.0937 0.3466 0.7727
O2 O 0.97228(9) 0.1108(3) 0.79023(10)
C12 C 0.20517(10) 0.1344(4) 0.52301(10)
C13 C 0.20072(10) 0.1809(4) 0.59860(9)
H15 H 0.2114 0.3701 0.6103
C14 C 0.26061(11) 0.0116(5) 0.64920(10)
H16 H 0.2481 -0.1759 0.6400
H17 H 0.3102 0.0433 0.6399
C15 C 0.26633(10) 0.0685(5) 0.72574(11)
C16 C 0.22749(14) -0.0825(7) 0.76388(13)
H18 H 0.1960 -0.2206 0.7415
C17 C 0.23390(18) -0.0354(9) 0.83361(15)
H19 H 0.2071 -0.1432 0.8579
C18 C 0.2771(2) 0.1587(10) 0.86743(16)
H20 H 0.2816 0.1849 0.9154
C19 C 0.3156(2) 0.3230(9) 0.83165(18)
H21 H 0.3452 0.4640 0.8548
C20 C 0.30975(15) 0.2754(7) 0.75916(14)
H22 H 0.3355 0.3852 0.7344
C21 C 0.07065(11) 0.3102(5) 0.60193(11)
C22 C -0.00884(12) 0.2120(7) 0.60043(15)
H23 H -0.0285 0.3103 0.6342
H24 H -0.0068 0.0250 0.6121
H25 H -0.0418 0.2380 0.5541
N3 N 0.20688(14) 0.3448(4) 0.48445(10)
H26 H 0.2087 0.3269 0.4412
H27 H 0.2062 0.5019 0.5022
N4 N 0.12325(8) 0.1211(4) 0.60300(8)
H28 H 0.1107 -0.0434 0.6065
O3 O 0.20609(10) -0.0941(3) 0.49994(8)
O4 O 0.08582(10) 0.5476(4) 0.60208(12)
N5 N 0.47191(9) 0.7738(4) 0.61848(10)
H29 H 0.4639 0.6073 0.6081
O5 O 0.62263(9) 0.5347(3) 0.69179(10)
N6 N 0.64804(10) 0.9681(4) 0.68303(11)
H30 H 0.6945 0.9357 0.6818
H31 H 0.6317 1.1303 0.6808
C23 C 0.60195(11) 0.7696(4) 0.68840(11)
C24 C 0.51959(11) 0.8433(5) 0.68784(11)
H32 H 0.5167 1.0370 0.6945
C25 C 0.49308(13) 0.7015(6) 0.74626(14)
H33 H 0.4384 0.7308 0.7389
H34 H 0.5010 0.5107 0.7424
C26 C 0.5331(4) 0.7900(17) 0.8203(3)
C27 C 0.6100(4) 0.7463(18) 0.8531(4)
H35 H 0.6402 0.6456 0.8305
C28 C 0.6418(4) 0.853(2) 0.9196(4)
H36 H 0.6933 0.8237 0.9416
C29 C 0.5967(7) 1.0033(17) 0.9534(3)
H37 H 0.6180 1.0747 0.9979
C30 C 0.5198(7) 1.047(3) 0.9205(4)
H38 H 0.4897 1.1477 0.9431
C31 C 0.4880(5) 0.940(3) 0.8540(4)
H39 H 0.4366 0.9697 0.8320
C32 C 0.43974(11) 0.9568(5) 0.56988(13)
C33 C 0.39868(13) 0.8485(6) 0.49914(13)
H40 H 0.3645 0.9823 0.4735
H41 H 0.3698 0.6929 0.5053
H42 H 0.4354 0.8009 0.4732
O6 O 0.44327(11) 1.1954(4) 0.58319(10)
C34? C 0.5313(6) 0.811(2) 0.8198(5)
C35? C 0.5921(10) 0.659(4) 0.8584(7)
H43? H 0.6060 0.5023 0.8393
C36? C 0.6320(10) 0.742(5) 0.9254(7)
H44? H 0.6727 0.6400 0.9512
C37? C 0.6112(9) 0.977(4) 0.9538(5)
H45? H 0.6379 1.0317 0.9987
C38? C 0.5504(12) 1.129(2) 0.9152(7)
H46? H 0.5364 1.2857 0.9342
C39? C 0.5104(9) 1.046(2) 0.8482(7)
H47? H 0.4697 1.1480 0.8224
loop_
_geom_bond_atom_site_label_1
_geom_bond_atom_site_label_2
_geom_bond_site_symmetry_1
_geom_bond_site_symmetry_2
N1 H1 1_555 1_555
O1 C1 1_555 1_555
N2 H2 1_555 1_555
H3 N2 1_555 1_555
C1 N2 1_555 1_555
C2 N1 1_555 1_555
H4 C2 1_555 1_555
C3 C2 1_555 1_555
H5 C3 1_555 1_555
H6 C3 1_555 1_555
C4 C3 1_555 1_555
C5 C4 1_555 1_555
H7 C5 1_555 1_555
C6 C5 1_555 1_555
H8 C6 1_555 1_555
C7 C6 1_555 1_555
H9 C7 1_555 1_555
C8 C7 1_555 1_555
H10 C8 1_555 1_555
C9 C4 1_555 1_555
H11 C9 1_555 1_555
C10 N1 1_555 1_555
C11 C10 1_555 1_555
H12 C11 1_555 1_555
H13 C11 1_555 1_555
H14 C11 1_555 1_555
O2 C10 1_555 1_555
C12 C13 1_555 1_555
C13 H15 1_555 1_555
C14 C13 1_555 1_555
H16 C14 1_555 1_555
H17 C14 1_555 1_555
C15 C14 1_555 1_555
C16 C15 1_555 1_555
H18 C16 1_555 1_555
C17 C16 1_555 1_555
H19 C17 1_555 1_555
C18 C17 1_555 1_555
H20 C18 1_555 1_555
C19 C18 1_555 1_555
H21 C19 1_555 1_555
C20 C15 1_555 1_555
H22 C20 1_555 1_555
C21 C22 1_555 1_555
C22 H23 1_555 1_555
H24 C22 1_555 1_555
H25 C22 1_555 1_555
N3 C12 1_555 1_555
H26 N3 1_555 1_555
H27 N3 1_555 1_555
N4 C13 1_555 1_555
H28 N4 1_555 1_555
O3 C12 1_555 1_555
O4 C21 1_555 1_555
N5 H29 1_555 1_555
O5 C23 1_555 1_555
N6 H30 1_555 1_555
H31 N6 1_555 1_555
C23 N6 1_555 1_555
C24 N5 1_555 1_555
H32 C24 1_555 1_555
C25 C24 1_555 1_555
H33 C25 1_555 1_555
H34 C25 1_555 1_555
C26 C25 1_555 1_555
C27 C26 1_555 1_555
H35 C27 1_555 1_555
C28 C27 1_555 1_555
H36 C28 1_555 1_555
C29 C28 1_555 1_555
H37 C29 1_555 1_555
C30 C29 1_555 1_555
H38 C30 1_555 1_555
C31 C26 1_555 1_555
H39 C31 1_555 1_555
C32 N5 1_555 1_555
C33 C32 1_555 1_555
H40 C33 1_555 1_555
H41 C33 1_555 1_555
H42 C33 1_555 1_555
O6 C32 1_555 1_555
C1 C2 1_555 1_555
C8 C9 1_555 1_555
C19 C20 1_555 1_555
C21 N4 1_555 1_555
C23 C24 1_555 1_555
C30 C31 1_555 1_555

#END
