
#######################################################################
#
#                 Cambridge Crystallographic Data Centre
#                                CCDC 
#
#######################################################################
#
# If this CIF has been generated from an entry in the Cambridge 
# Structural Database, then it will include bibliographic, chemical, 
# crystal, experimental, refinement or atomic coordinate data resulting 
# from the CCDC's data processing and validation procedures.
#
#######################################################################

data_KINSOS
_chemical_name_common            'methyl 5-(5-bromo-2-hydroxybenzoyl)nicotinate'
_chemical_formula_moiety         'C14 H10 Br1 N1 O4'
_chemical_name_systematic        
'methyl 5-(5-bromo-2-hydroxybenzene-1-carbonyl)pyridine-3-carboxylate'
_symmetry_cell_setting           orthorhombic
_symmetry_space_group_name_H-M   'P b c a'
_symmetry_Int_Tables_number      61
_space_group_name_Hall           '-P 2ac 2ab'
loop_
_symmetry_equiv_pos_site_id
_symmetry_equiv_pos_as_xyz
1 x,y,z
2 1/2-x,-y,1/2+z
3 -x,1/2+y,1/2-z
4 1/2+x,1/2-y,-z
5 -x,-y,-z
6 1/2+x,y,1/2-z
7 x,1/2-y,1/2+z
8 1/2-x,1/2+y,z
_cell_length_a                   7.5983(3)
_cell_length_b                   16.4240(7)
_cell_length_c                   20.8458(8)
_cell_angle_alpha                90
_cell_angle_beta                 90
_cell_angle_gamma                90
_cell_volume                     2601.44
_exptl_crystal_colour            yellow
_exptl_crystal_description       Block
_chemical_melting_point          '450 K'
_cell_formula_units_Z            8
_exptl_crystal_recrystallization_method 
'Re-crystallisation from solvent: hexane/ethyl acetate'
loop_
_atom_site_label
_atom_site_type_symbol
_atom_site_fract_x
_atom_site_fract_y
_atom_site_fract_z
C1 C 0.2742(2) -0.00924(9) 0.41592(7)
O1 O 0.33492(17) -0.07795(7) 0.42208(6)
C2 C 0.2118(2) 0.03765(9) 0.47153(7)
C3 C 0.2588(2) 0.01262(9) 0.53378(8)
C4 C 0.2093(2) 0.05940(10) 0.58651(7)
H1 H 0.2471 0.0445 0.6278
C5 C 0.1052(2) 0.12733(10) 0.57854(8)
H2 H 0.0718 0.1586 0.6143
C6 C 0.0498(2) 0.14942(9) 0.51738(8)
C7 C 0.1036(2) 0.10626(9) 0.46429(7)
H3 H 0.0677 0.1228 0.4231
O2 O 0.35386(17) -0.05533(7) 0.54534(6)
H4 H 0.3672 -0.0810 0.5114
Br1 Br -0.09973(3) 0.24048(2) 0.50772(2)
C8 C 0.2683(2) 0.02678(10) 0.34998(7)
C9 C 0.2113(2) -0.02223(10) 0.29955(8)
H5 H 0.1701 -0.0748 0.3093
N1 N 0.2119(2) 0.00116(9) 0.23818(7)
C10 C 0.2754(2) 0.07526(11) 0.22543(8)
H6 H 0.2781 0.0925 0.1824
C11 C 0.3376(2) 0.12837(10) 0.27218(8)
C12 C 0.3315(2) 0.10386(10) 0.33590(7)
H7 H 0.3696 0.1388 0.3688
C13 C 0.4123(3) 0.20968(11) 0.25577(8)
O3 O 0.4564(3) 0.25903(9) 0.29474(7)
O4 O 0.4265(2) 0.22033(8) 0.19295(6)
C14 C 0.4982(3) 0.29779(13) 0.17233(11)
H8 H 0.4308 0.3417 0.1914
H9 H 0.4918 0.3016 0.1260
H10 H 0.6200 0.3019 0.1858
loop_
_geom_bond_atom_site_label_1
_geom_bond_atom_site_label_2
_geom_bond_site_symmetry_1
_geom_bond_site_symmetry_2
C1 O1 1_555 1_555
C2 C1 1_555 1_555
C3 C2 1_555 1_555
C4 C3 1_555 1_555
H1 C4 1_555 1_555
C5 C4 1_555 1_555
H2 C5 1_555 1_555
C6 C5 1_555 1_555
C7 C2 1_555 1_555
H3 C7 1_555 1_555
O2 C3 1_555 1_555
H4 O2 1_555 1_555
Br1 C6 1_555 1_555
C8 C1 1_555 1_555
C9 C8 1_555 1_555
H5 C9 1_555 1_555
N1 C9 1_555 1_555
C10 N1 1_555 1_555
H6 C10 1_555 1_555
C11 C10 1_555 1_555
C12 C8 1_555 1_555
H7 C12 1_555 1_555
C13 C11 1_555 1_555
O3 C13 1_555 1_555
O4 C13 1_555 1_555
C14 O4 1_555 1_555
H8 C14 1_555 1_555
H9 C14 1_555 1_555
H10 C14 1_555 1_555
C6 C7 1_555 1_555
C11 C12 1_555 1_555

#END
