
#######################################################################
#
#                 Cambridge Crystallographic Data Centre
#                                CCDC 
#
#######################################################################
#
# If this CIF has been generated from an entry in the Cambridge 
# Structural Database, then it will include bibliographic, chemical, 
# crystal, experimental, refinement or atomic coordinate data resulting 
# from the CCDC's data processing and validation procedures.
#
#######################################################################

data_KINSIL03
_chemical_formula_moiety         'C11 H14 N2 O2'
_chemical_name_systematic        N\a-Acetyl-L-phenylalaninamide
_symmetry_cell_setting           monoclinic
_symmetry_space_group_name_H-M   'P 21'
_symmetry_Int_Tables_number      4
_space_group_name_Hall           'P 2yb'
loop_
_symmetry_equiv_pos_site_id
_symmetry_equiv_pos_as_xyz
1 x,y,z
2 -x,1/2+y,-z
_cell_length_a                   17.440(5)
_cell_length_b                   5.0094(13)
_cell_length_c                   19.515(5)
_cell_angle_alpha                90
_cell_angle_beta                 105.986(5)
_cell_angle_gamma                90
_cell_volume                     1638.98
_exptl_crystal_colour            colorless
_exptl_crystal_description       needle
_cell_formula_units_Z            6
loop_
_atom_site_label
_atom_site_type_symbol
_atom_site_fract_x
_atom_site_fract_y
_atom_site_fract_z
N1 N 0.93619(13) 0.5471(5) 0.78670(11)
H1 H 0.9521 0.7141 0.7931
O1 O 0.80246(12) 0.7657(4) 0.66532(9)
N2 N 0.81104(15) 0.3235(5) 0.64833(11)
H2 H 0.7946 0.3399 0.6017
H3 H 0.8228 0.1648 0.6677
C1 C 0.81804(16) 0.5371(5) 0.68928(13)
C2 C 0.85161(15) 0.4904(5) 0.76977(12)
H4 H 0.8442 0.2983 0.7803
C3 C 0.80932(16) 0.6629(6) 0.81251(13)
H5 H 0.8195 0.8536 0.8049
H6 H 0.7511 0.6324 0.7952
C4 C 0.83753(17) 0.6003(6) 0.89148(13)
C5 C 0.8033(2) 0.3952(7) 0.92040(15)
H7 H 0.7607 0.2953 0.8905
C6 C 0.8301(2) 0.3333(7) 0.99226(16)
H8 H 0.8057 0.1927 1.0113
C7 C 0.89232(19) 0.4760(7) 1.03629(15)
H9 H 0.9110 0.4329 1.0855
C8 C 0.92689(19) 0.6801(7) 1.00849(15)
H10 H 0.9696 0.7786 1.0385
C9 C 0.89932(17) 0.7436(6) 0.93601(13)
H11 H 0.9232 0.8862 0.9172
C10 C 0.99129(18) 0.3537(6) 0.79306(13)
C11 C 1.07544(17) 0.4490(7) 0.80507(16)
H12 H 1.1054 0.4160 0.8547
H13 H 1.0754 0.6407 0.7951
H14 H 1.1006 0.3526 0.7733
O2 O 0.97420(13) 0.1148(4) 0.79025(11)
C18 C 0.20947(17) 0.1320(6) 0.52617(14)
C19 C 0.20651(17) 0.1744(6) 0.60309(13)
H20 H 0.2196 0.3648 0.6167
C20 C 0.26730(18) -0.0064(6) 0.65346(14)
H21 H 0.2514 -0.1936 0.6407
H22 H 0.3194 0.0215 0.6436
C21 C 0.07199(19) 0.3138(6) 0.60310(15)
C22 C -0.01079(19) 0.2251(8) 0.59981(18)
H23 H -0.0320 0.3357 0.6318
H24 H -0.0098 0.0378 0.6145
H25 H -0.0449 0.2436 0.5509
N3 N 0.21018(17) 0.3471(5) 0.48759(12)
H26 H 0.2112 0.3315 0.4429
H27 H 0.2096 0.5064 0.5064
N4 N 0.12556(14) 0.1189(5) 0.60564(12)
H28 H 0.1112 -0.0479 0.6090
C23 C 0.2711(6) 0.078(2) 0.7297(4)
C24 C 0.2309(7) -0.078(3) 0.7675(5)
H29 H 0.1993 -0.2245 0.7449
C25 C 0.2370(6) -0.020(3) 0.8385(5)
H30 H 0.2095 -0.1266 0.8644
C26 C 0.2832(5) 0.194(2) 0.8716(3)
H31 H 0.2874 0.2339 0.9201
C27 C 0.3234(6) 0.3502(15) 0.8338(4)
H32 H 0.3550 0.4966 0.8564
C28 C 0.3173(6) 0.2921(18) 0.7628(4)
H33 H 0.3448 0.3987 0.7370
O3 O 0.21018(14) -0.0971(4) 0.50246(10)
O4 O 0.08957(15) 0.5521(5) 0.60239(14)
C53 C 0.43460(18) -0.0431(6) 0.56374(15)
C54 C 0.39630(18) -0.1460(7) 0.48970(14)
H61 H 0.3508 -0.0323 0.4665
H62 H 0.3778 -0.3294 0.4925
H63 H 0.4353 -0.1433 0.4619
O7 O 0.43979(14) 0.1962(4) 0.57751(11)
N9 N 0.4562(11) -0.231(3) 0.6165(7)
H64 H 0.4400 -0.3963 0.6061
O8 O 0.6112(15) -0.482(5) 0.690(3)
N10 N 0.6391(16) -0.044(6) 0.6867(17)
H65 H 0.6882 -0.0768 0.6853
H66 H 0.6223 0.1221 0.6863
C55 C 0.5900(11) -0.245(5) 0.6894(18)
C56 C 0.5047(8) -0.175(3) 0.6895(7)
H67 H 0.5015 0.0196 0.6999
C57 C 0.4773(8) -0.339(3) 0.7443(5)
H68 H 0.4904 -0.5284 0.7388
H69 H 0.4185 -0.3251 0.7331
C58 C 0.5131(4) -0.2589(15) 0.8227(2)
C59 C 0.4614(3) -0.1698(14) 0.8608(3)
H70 H 0.4056 -0.1675 0.8390
C60 C 0.4916(4) -0.0842(13) 0.9308(3)
H71 H 0.4563 -0.0233 0.9569
C61 C 0.5733(4) -0.0877(15) 0.9627(2)
H72 H 0.5939 -0.0292 1.0106
C62 C 0.6249(3) -0.1768(19) 0.9246(3)
H73 H 0.6808 -0.1792 0.9464
C63 C 0.5948(4) -0.2624(18) 0.8546(3)
H74 H 0.6301 -0.3233 0.8285
C12? C 0.2686(5) 0.0218(17) 0.7349(3)
C13? C 0.2533(5) -0.1998(15) 0.7719(3)
H15? H 0.2401 -0.3659 0.7481
C14? C 0.2572(5) -0.1784(15) 0.8438(3)
H16? H 0.2467 -0.3298 0.8691
C15? C 0.2765(4) 0.0646(16) 0.8787(2)
H17? H 0.2791 0.0793 0.9279
C16? C 0.2918(5) 0.2862(13) 0.8417(4)
H18? H 0.3050 0.4523 0.8655
C17? C 0.2879(5) 0.2648(14) 0.7698(4)
H19? H 0.2983 0.4163 0.7445
C29? C 0.2796(6) 0.022(2) 0.7300(3)
C30? C 0.2227(6) -0.061(3) 0.7633(5)
H34? H 0.1743 -0.1395 0.7360
C31? C 0.2366(5) -0.029(2) 0.8364(5)
H35? H 0.1977 -0.0856 0.8591
C32? C 0.3074(4) 0.0859(17) 0.8764(3)
H36? H 0.3168 0.1078 0.9264
C33? C 0.3643(4) 0.1688(16) 0.8431(3)
H37? H 0.4126 0.2473 0.8704
C34? C 0.3504(5) 0.1368(16) 0.7700(3)
H38? H 0.3893 0.1934 0.7473
N5? N 0.4646(16) -0.229(4) 0.6147(9)
H39? H 0.4536 -0.3996 0.6061
O5? O 0.6217(12) -0.456(5) 0.694(2)
N6? N 0.6464(17) -0.027(7) 0.6714(17)
H40? H 0.6930 -0.0676 0.6648
H41? H 0.6297 0.1392 0.6671
C35? C 0.6010(13) -0.219(5) 0.6877(18)
C36? C 0.5152(11) -0.144(3) 0.6842(8)
H42? H 0.5115 0.0545 0.6878
C37? C 0.4897(8) -0.272(2) 0.7455(5)
H43? H 0.4316 -0.2444 0.7369
H44? H 0.4990 -0.4665 0.7445
C38? C 0.5314(4) -0.1695(15) 0.8197(3)
C39? C 0.4922(3) 0.0123(14) 0.8521(3)
H45? H 0.4386 0.0612 0.8293
C40? C 0.5315(4) 0.1225(13) 0.9177(3)
H46? H 0.5048 0.2468 0.9398
C41? C 0.6099(4) 0.0510(14) 0.9510(3)
H47? H 0.6368 0.1263 0.9959
C42? C 0.6491(3) -0.1308(18) 0.9187(4)
H48? H 0.7027 -0.1798 0.9414
C43? C 0.6098(4) -0.2411(17) 0.8530(4)
H49? H 0.6366 -0.3653 0.8309
N7? N 0.4707(13) -0.232(4) 0.6105(7)
H50? H 0.4641 -0.4004 0.5975
O6? O 0.6315(18) -0.463(6) 0.689(2)
N8? N 0.6508(18) -0.017(6) 0.6816(14)
H51? H 0.7021 -0.0353 0.6855
H52? H 0.6292 0.1427 0.6771
C44? C 0.6060(12) -0.233(5) 0.683(2)
C45? C 0.5202(10) -0.169(4) 0.6817(7)
H53? H 0.5155 0.0256 0.6913
C46? C 0.4940(8) -0.331(3) 0.7369(5)
H54? H 0.5041 -0.5226 0.7309
H55? H 0.4359 -0.3071 0.7299
C47? C 0.5389(5) -0.2427(12) 0.8118(2)
C48? C 0.5426(5) -0.4356(10) 0.8638(3)
H56? H 0.5224 -0.6098 0.8505
C49? C 0.5759(5) -0.3737(11) 0.9353(3)
H57? H 0.5785 -0.5055 0.9708
C50? C 0.6055(5) -0.1189(13) 0.9547(2)
H58? H 0.6283 -0.0765 1.0035
C51? C 0.6018(4) 0.0740(10) 0.9027(3)
H59? H 0.6221 0.2482 0.9160
C52? C 0.5685(4) 0.0121(11) 0.8312(3)
H60? H 0.5660 0.1439 0.7957
loop_
_geom_bond_atom_site_label_1
_geom_bond_atom_site_label_2
_geom_bond_site_symmetry_1
_geom_bond_site_symmetry_2
N1 H1 1_555 1_555
O1 C1 1_555 1_555
N2 H2 1_555 1_555
H3 N2 1_555 1_555
C1 N2 1_555 1_555
C2 N1 1_555 1_555
H4 C2 1_555 1_555
C3 C2 1_555 1_555
H5 C3 1_555 1_555
H6 C3 1_555 1_555
C4 C3 1_555 1_555
C5 C4 1_555 1_555
H7 C5 1_555 1_555
C6 C5 1_555 1_555
H8 C6 1_555 1_555
C7 C6 1_555 1_555
H9 C7 1_555 1_555
C8 C7 1_555 1_555
H10 C8 1_555 1_555
C9 C4 1_555 1_555
H11 C9 1_555 1_555
C10 N1 1_555 1_555
C11 C10 1_555 1_555
H12 C11 1_555 1_555
H13 C11 1_555 1_555
H14 C11 1_555 1_555
O2 C10 1_555 1_555
C18 C19 1_555 1_555
C19 H20 1_555 1_555
C20 C19 1_555 1_555
H21 C20 1_555 1_555
H22 C20 1_555 1_555
C21 C22 1_555 1_555
C22 H23 1_555 1_555
H24 C22 1_555 1_555
H25 C22 1_555 1_555
N3 C18 1_555 1_555
H26 N3 1_555 1_555
H27 N3 1_555 1_555
N4 C19 1_555 1_555
H28 N4 1_555 1_555
C23 C20 1_555 1_555
C24 C23 1_555 1_555
H29 C24 1_555 1_555
C25 C24 1_555 1_555
H30 C25 1_555 1_555
C26 C25 1_555 1_555
H31 C26 1_555 1_555
C27 C26 1_555 1_555
H32 C27 1_555 1_555
C28 C23 1_555 1_555
H33 C28 1_555 1_555
O3 C18 1_555 1_555
O4 C21 1_555 1_555
C53 C54 1_555 1_555
C54 H61 1_555 1_555
H62 C54 1_555 1_555
H63 C54 1_555 1_555
O7 C53 1_555 1_555
N9 C53 1_555 1_555
H64 N9 1_555 1_555
O8 C55 1_555 1_555
N10 H65 1_555 1_555
H66 N10 1_555 1_555
C55 N10 1_555 1_555
C56 N9 1_555 1_555
H67 C56 1_555 1_555
C57 C56 1_555 1_555
H68 C57 1_555 1_555
H69 C57 1_555 1_555
C58 C57 1_555 1_555
C59 C58 1_555 1_555
H70 C59 1_555 1_555
C60 C59 1_555 1_555
H71 C60 1_555 1_555
C61 C60 1_555 1_555
H72 C61 1_555 1_555
C62 C61 1_555 1_555
H73 C62 1_555 1_555
C63 C58 1_555 1_555
H74 C63 1_555 1_555
C1 C2 1_555 1_555
C8 C9 1_555 1_555
C21 N4 1_555 1_555
C27 C28 1_555 1_555
C55 C56 1_555 1_555
C62 C63 1_555 1_555

#END
