
#######################################################################
#
#                 Cambridge Crystallographic Data Centre
#                                CCDC 
#
#######################################################################
#
# If this CIF has been generated from an entry in the Cambridge 
# Structural Database, then it will include bibliographic, chemical, 
# crystal, experimental, refinement or atomic coordinate data resulting 
# from the CCDC's data processing and validation procedures.
#
#######################################################################

data_KIPCUK
_chemical_formula_moiety         'C45 H40 N4 O4 S2'
_chemical_name_systematic        
1-[(4-methylphenyl)sulfonyl]-2-({1-[(4-methylphenyl)sulfonyl]-4,5-diphenylimidazolidin-2-ylidene}methyl)-4,5-diphenyl-4,5-dihydro-1H-imidazole
_symmetry_cell_setting           monoclinic
_symmetry_space_group_name_H-M   'P 21'
_symmetry_Int_Tables_number      4
_space_group_name_Hall           'P 2yb'
loop_
_symmetry_equiv_pos_site_id
_symmetry_equiv_pos_as_xyz
1 x,y,z
2 -x,1/2+y,-z
_cell_length_a                   14.5381(5)
_cell_length_b                   13.3366(3)
_cell_length_c                   20.6022(5)
_cell_angle_alpha                90
_cell_angle_beta                 97.423(3)
_cell_angle_gamma                90
_cell_volume                     3961.06
_exptl_crystal_colour            white
_exptl_crystal_description       block
_cell_formula_units_Z            4
loop_
_atom_site_label
_atom_site_type_symbol
_atom_site_fract_x
_atom_site_fract_y
_atom_site_fract_z
N1 N 0.5259(2) 0.4386(3) 0.59173(16)
N2 N 0.5661(2) 0.5922(2) 0.62666(16)
H1 H 0.6026 0.6374 0.6454
N3 N 0.6158(2) 0.4919(3) 0.82682(17)
N4 N 0.6234(2) 0.6223(3) 0.75638(17)
O1 O 0.4494(2) 0.3005(2) 0.52937(14)
O2 O 0.5319(2) 0.2683(2) 0.64059(15)
O3 O 0.6390(2) 0.3812(3) 0.92297(14)
O4 O 0.6433(2) 0.3093(2) 0.81237(16)
S1 S 0.47322(7) 0.32917(8) 0.59597(5)
S2 S 0.66569(9) 0.38762(9) 0.85843(5)
C1 C 0.5927(3) 0.4593(3) 0.70720(19)
H2 H 0.5983 0.3906 0.7141
C2 C 0.5648(3) 0.4947(3) 0.6464(2)
C3 C 0.4979(3) 0.6096(3) 0.5699(2)
H3 H 0.5201 0.6613 0.5419
C4 C 0.4959(3) 0.5066(3) 0.5357(2)
H4 H 0.4319 0.4905 0.5176
C5 C 0.4032(3) 0.6383(3) 0.5880(2)
C6 C 0.3847(4) 0.6418(4) 0.6526(3)
H5 H 0.4320 0.6278 0.6863
C7 C 0.2978(4) 0.6656(5) 0.6677(4)
H6 H 0.2869 0.6683 0.7112
C8 C 0.2267(5) 0.6856(5) 0.6181(5)
H7 H 0.1677 0.7006 0.6281
C9 C 0.2432(4) 0.6832(5) 0.5536(5)
H8 H 0.1957 0.6974 0.5201
C10 C 0.3310(4) 0.6594(4) 0.5392(3)
H9 H 0.3418 0.6576 0.4957
C11 C 0.5580(3) 0.4996(3) 0.4814(2)
C12 C 0.5339(4) 0.5560(4) 0.4257(2)
H10 H 0.4808 0.5957 0.4220
C13 C 0.5885(4) 0.5539(4) 0.3752(2)
H11 H 0.5717 0.5920 0.3377
C14 C 0.6661(5) 0.4967(5) 0.3801(3)
H12 H 0.7035 0.4977 0.3468
C15 C 0.6895(4) 0.4376(5) 0.4340(3)
H13 H 0.7419 0.3970 0.4369
C16 C 0.6340(4) 0.4387(4) 0.4847(3)
H14 H 0.6490 0.3977 0.5210
C17 C 0.6137(3) 0.5268(3) 0.7609(2)
C18 C 0.6388(3) 0.6656(3) 0.8226(2)
H15 H 0.5966 0.7224 0.8247
C19 C 0.6115(3) 0.5810(3) 0.8688(2)
H16 H 0.6573 0.5760 0.9080
C20 C 0.7380(4) 0.7022(4) 0.8399(2)
C21 C 0.8101(4) 0.6678(5) 0.8088(3)
H17 H 0.7987 0.6210 0.7752
C22 C 0.8994(4) 0.7024(6) 0.8271(4)
H18 H 0.9477 0.6780 0.8061
C23 C 0.9177(6) 0.7724(7) 0.8760(4)
H19 H 0.9779 0.7953 0.8880
C24 C 0.8479(7) 0.8073(7) 0.9063(4)
H20 H 0.8599 0.8551 0.9392
C25 C 0.7573(5) 0.7726(5) 0.8890(3)
H21 H 0.7097 0.7970 0.9107
C26 C 0.5156(3) 0.5977(4) 0.8872(2)
C27 C 0.4371(4) 0.5638(5) 0.8495(3)
H22 H 0.4425 0.5244 0.8130
C28 C 0.3498(4) 0.5877(6) 0.8654(4)
H23 H 0.2972 0.5643 0.8393
C29 C 0.3408(5) 0.6444(5) 0.9181(4)
H24 H 0.2820 0.6598 0.9285
C30 C 0.4174(5) 0.6793(5) 0.9564(3)
H25 H 0.4113 0.7195 0.9925
C31 C 0.5047(4) 0.6541(5) 0.9410(3)
H26 H 0.5571 0.6763 0.9679
C32 C 0.3708(3) 0.3555(3) 0.6291(2)
C33 C 0.3705(3) 0.3544(3) 0.6967(2)
H27 H 0.4235 0.3373 0.7247
C34 C 0.2893(3) 0.3792(4) 0.7208(2)
H28 H 0.2880 0.3783 0.7658
C35 C 0.2104(3) 0.4053(4) 0.6803(2)
C36 C 0.2125(3) 0.4064(4) 0.6132(2)
H29 H 0.1598 0.4251 0.5853
C37 C 0.2925(3) 0.3798(4) 0.5875(2)
H30 H 0.2932 0.3784 0.5424
C38 C 0.1222(4) 0.4359(6) 0.7079(3)
H31 H 0.1141 0.3940 0.7447
H32 H 0.0699 0.4283 0.6748
H33 H 0.1271 0.5046 0.7218
C39 C 0.7858(3) 0.4103(4) 0.8667(2)
C40 C 0.8333(4) 0.4025(5) 0.8136(2)
H34 H 0.8024 0.3828 0.7733
C41 C 0.9258(4) 0.4237(6) 0.8200(3)
H35 H 0.9577 0.4174 0.7839
C42 C 0.9731(4) 0.4543(5) 0.8792(3)
C43 C 0.9245(4) 0.4587(5) 0.9317(3)
H36 H 0.9556 0.4766 0.9723
C44 C 0.8316(4) 0.4378(4) 0.9265(2)
H37 H 0.8000 0.4422 0.9629
C45 C 1.0741(4) 0.4866(7) 0.8861(4)
H38 H 1.1079 0.4429 0.8606
H39 H 1.1002 0.4831 0.9313
H40 H 1.0780 0.5542 0.8707
N5 N 0.0507(2) 0.0283(3) 0.59196(17)
N6 N 0.0939(2) 0.1646(3) 0.64950(17)
H41 H 0.1314 0.2011 0.6753
N7 N 0.1260(2) 0.0066(3) 0.83148(17)
N8 N 0.1404(3) 0.1553(3) 0.77808(17)
O5 O -0.0255(2) -0.0856(3) 0.50956(15)
O6 O 0.0620(2) -0.1542(2) 0.61096(18)
O7 O 0.1493(3) -0.1695(3) 0.79687(17)
O8 O 0.1505(2) -0.1254(3) 0.91441(16)
S3 S 0.00053(8) -0.08220(9) 0.57903(6)
S4 S 0.17505(9) -0.10285(10) 0.85072(6)
C46 C 0.1125(3) 0.0098(4) 0.7092(2)
H42 H 0.1170 -0.0597 0.7070
C47 C 0.0891(3) 0.0649(3) 0.6537(2)
C48 C 0.0285(3) 0.2047(3) 0.5963(2)
H43 H 0.0560 0.2626 0.5768
C49 C 0.0220(3) 0.1150(3) 0.5477(2)
H44 H -0.0428 0.1061 0.5284
C50 C -0.0621(3) 0.2344(4) 0.6182(2)
C51 C -0.1052(4) 0.3218(5) 0.5959(2)
H45 H -0.0772 0.3634 0.5680
C52 C -0.1892(4) 0.3484(6) 0.6145(3)
H46 H -0.2168 0.4087 0.6002
C53 C -0.2325(4) 0.2869(7) 0.6539(3)
H47 H -0.2910 0.3036 0.6643
C54 C -0.1907(5) 0.2019(6) 0.6779(4)
H48 H -0.2192 0.1611 0.7061
C55 C -0.1048(4) 0.1760(4) 0.6602(3)
H49 H -0.0757 0.1179 0.6772
C56 C 0.0824(3) 0.1257(4) 0.4933(2)
C57 C 0.0452(3) 0.1127(4) 0.4293(2)
H50 H -0.0172 0.0962 0.4193
C58 C 0.0993(4) 0.1239(5) 0.3794(3)
H51 H 0.0731 0.1145 0.3362
C59 C 0.1912(4) 0.1486(5) 0.3931(3)
H52 H 0.2276 0.1560 0.3594
C60 C 0.2281(4) 0.1620(5) 0.4558(3)
H53 H 0.2904 0.1787 0.4656
C61 C 0.1745(3) 0.1512(4) 0.5057(2)
H54 H 0.2012 0.1615 0.5487
C62 C 0.1299(3) 0.0600(4) 0.7706(2)
C63 C 0.1488(3) 0.1806(4) 0.8477(2)
H55 H 0.1033 0.2332 0.8531
C64 C 0.1185(3) 0.0837(4) 0.8819(2)
H56 H 0.1615 0.0693 0.9215
C65 C 0.2443(4) 0.2216(4) 0.8722(2)
C66 C 0.2547(5) 0.2897(5) 0.9237(3)
H57 H 0.2035 0.3069 0.9441
C67 C 0.3394(6) 0.3318(7) 0.9450(4)
H58 H 0.3449 0.3767 0.9798
C68 C 0.4139(6) 0.3091(8) 0.9164(4)
H59 H 0.4702 0.3405 0.9301
C69 C 0.4079(4) 0.2396(6) 0.8669(4)
H60 H 0.4607 0.2219 0.8484
C70 C 0.3231(4) 0.1956(5) 0.8441(3)
H61 H 0.3190 0.1489 0.8103
C71 C 0.0201(3) 0.0955(4) 0.8984(2)
C72 C 0.0053(4) 0.1534(5) 0.9512(3)
H62 H 0.0559 0.1793 0.9783
C73 C -0.0840(5) 0.1742(5) 0.9648(3)
H63 H -0.0930 0.2126 1.0012
C74 C -0.1585(5) 0.1378(6) 0.9244(4)
H64 H -0.2186 0.1519 0.9326
C75 C -0.1441(4) 0.0810(7) 0.8724(4)
H65 H -0.1948 0.0564 0.8450
C76 C -0.0554(4) 0.0587(5) 0.8590(3)
H66 H -0.0471 0.0187 0.8233
C77 C -0.1014(3) -0.0817(3) 0.6159(2)
C78 C -0.1015(3) -0.1123(4) 0.6796(2)
H67 H -0.0466 -0.1321 0.7045
C79 C -0.1838(4) -0.1136(4) 0.7061(2)
H68 H -0.1838 -0.1350 0.7490
C80 C -0.2655(4) -0.0841(5) 0.6709(3)
C81 C -0.2634(4) -0.0512(5) 0.6071(3)
H69 H -0.3180 -0.0300 0.5824
C82 C -0.1817(3) -0.0495(4) 0.5799(2)
H70 H -0.1812 -0.0265 0.5374
C83 C -0.3551(4) -0.0906(7) 0.7001(3)
H71 H -0.3454 -0.1282 0.7401
H72 H -0.4012 -0.1235 0.6698
H73 H -0.3760 -0.0243 0.7089
C84 C 0.2953(3) -0.0806(4) 0.8578(2)
C85 C 0.3405(4) -0.0840(5) 0.8030(2)
H74 H 0.3095 -0.1039 0.7628
C86 C 0.4334(4) -0.0568(6) 0.8095(3)
H75 H 0.4642 -0.0563 0.7726
C87 C 0.4813(4) -0.0304(6) 0.8693(3)
C88 C 0.4352(4) -0.0318(5) 0.9228(3)
H76 H 0.4671 -0.0151 0.9634
C89 C 0.3426(4) -0.0571(4) 0.9185(2)
H77 H 0.3126 -0.0584 0.9557
C90 C 0.5818(4) 0.0046(7) 0.8743(4)
H78 H 0.6006 0.0316 0.9171
H79 H 0.5872 0.0554 0.8420
H80 H 0.6209 -0.0512 0.8669
loop_
_geom_bond_atom_site_label_1
_geom_bond_atom_site_label_2
_geom_bond_site_symmetry_1
_geom_bond_site_symmetry_2
N1 S1 1_555 1_555
N2 H1 1_555 1_555
N3 S2 1_555 1_555
N4 C17 1_555 1_555
O1 S1 1_555 1_555
O2 S1 1_555 1_555
O3 S2 1_555 1_555
O4 S2 1_555 1_555
S1 C32 1_555 1_555
S2 C39 1_555 1_555
C1 H2 1_555 1_555
C2 N1 1_555 1_555
C3 N2 1_555 1_555
H3 C3 1_555 1_555
C4 N1 1_555 1_555
H4 C4 1_555 1_555
C5 C3 1_555 1_555
C6 C5 1_555 1_555
H5 C6 1_555 1_555
C7 C6 1_555 1_555
H6 C7 1_555 1_555
C8 C7 1_555 1_555
H7 C8 1_555 1_555
C9 C8 1_555 1_555
H8 C9 1_555 1_555
C10 C5 1_555 1_555
H9 C10 1_555 1_555
C11 C4 1_555 1_555
C12 C11 1_555 1_555
H10 C12 1_555 1_555
C13 C12 1_555 1_555
H11 C13 1_555 1_555
C14 C13 1_555 1_555
H12 C14 1_555 1_555
C15 C14 1_555 1_555
H13 C15 1_555 1_555
C16 C11 1_555 1_555
H14 C16 1_555 1_555
C17 N3 1_555 1_555
C18 N4 1_555 1_555
H15 C18 1_555 1_555
C19 N3 1_555 1_555
H16 C19 1_555 1_555
C20 C18 1_555 1_555
C21 C20 1_555 1_555
H17 C21 1_555 1_555
C22 C21 1_555 1_555
H18 C22 1_555 1_555
C23 C22 1_555 1_555
H19 C23 1_555 1_555
C24 C23 1_555 1_555
H20 C24 1_555 1_555
C25 C20 1_555 1_555
H21 C25 1_555 1_555
C26 C19 1_555 1_555
C27 C26 1_555 1_555
H22 C27 1_555 1_555
C28 C27 1_555 1_555
H23 C28 1_555 1_555
C29 C28 1_555 1_555
H24 C29 1_555 1_555
C30 C29 1_555 1_555
H25 C30 1_555 1_555
C31 C26 1_555 1_555
H26 C31 1_555 1_555
C32 C33 1_555 1_555
C33 H27 1_555 1_555
C34 C33 1_555 1_555
H28 C34 1_555 1_555
C35 C34 1_555 1_555
C36 C35 1_555 1_555
H29 C36 1_555 1_555
C37 C32 1_555 1_555
H30 C37 1_555 1_555
C38 C35 1_555 1_555
H31 C38 1_555 1_555
H32 C38 1_555 1_555
H33 C38 1_555 1_555
C39 C40 1_555 1_555
C40 H34 1_555 1_555
C41 C40 1_555 1_555
H35 C41 1_555 1_555
C42 C41 1_555 1_555
C43 C42 1_555 1_555
H36 C43 1_555 1_555
C44 C39 1_555 1_555
H37 C44 1_555 1_555
C45 C42 1_555 1_555
H38 C45 1_555 1_555
H39 C45 1_555 1_555
H40 C45 1_555 1_555
N5 S3 1_555 1_555
N6 H41 1_555 1_555
N7 S4 1_555 1_555
N8 C62 1_555 1_555
O5 S3 1_555 1_555
O6 S3 1_555 1_555
O7 S4 1_555 1_555
O8 S4 1_555 1_555
S3 C77 1_555 1_555
S4 C84 1_555 1_555
C46 H42 1_555 1_555
C47 N5 1_555 1_555
C48 N6 1_555 1_555
H43 C48 1_555 1_555
C49 N5 1_555 1_555
H44 C49 1_555 1_555
C50 C48 1_555 1_555
C51 C50 1_555 1_555
H45 C51 1_555 1_555
C52 C51 1_555 1_555
H46 C52 1_555 1_555
C53 C52 1_555 1_555
H47 C53 1_555 1_555
C54 C53 1_555 1_555
H48 C54 1_555 1_555
C55 C50 1_555 1_555
H49 C55 1_555 1_555
C56 C49 1_555 1_555
C57 C56 1_555 1_555
H50 C57 1_555 1_555
C58 C57 1_555 1_555
H51 C58 1_555 1_555
C59 C58 1_555 1_555
H52 C59 1_555 1_555
C60 C59 1_555 1_555
H53 C60 1_555 1_555
C61 C56 1_555 1_555
H54 C61 1_555 1_555
C62 N7 1_555 1_555
C63 N8 1_555 1_555
H55 C63 1_555 1_555
C64 N7 1_555 1_555
H56 C64 1_555 1_555
C65 C63 1_555 1_555
C66 C65 1_555 1_555
H57 C66 1_555 1_555
C67 C66 1_555 1_555
H58 C67 1_555 1_555
C68 C67 1_555 1_555
H59 C68 1_555 1_555
C69 C68 1_555 1_555
H60 C69 1_555 1_555
C70 C65 1_555 1_555
H61 C70 1_555 1_555
C71 C64 1_555 1_555
C72 C71 1_555 1_555
H62 C72 1_555 1_555
C73 C72 1_555 1_555
H63 C73 1_555 1_555
C74 C73 1_555 1_555
H64 C74 1_555 1_555
C75 C74 1_555 1_555
H65 C75 1_555 1_555
C76 C71 1_555 1_555
H66 C76 1_555 1_555
C77 C78 1_555 1_555
C78 H67 1_555 1_555
C79 C78 1_555 1_555
H68 C79 1_555 1_555
C80 C79 1_555 1_555
C81 C80 1_555 1_555
H69 C81 1_555 1_555
C82 C77 1_555 1_555
H70 C82 1_555 1_555
C83 C80 1_555 1_555
H71 C83 1_555 1_555
H72 C83 1_555 1_555
H73 C83 1_555 1_555
C84 C85 1_555 1_555
C85 H74 1_555 1_555
C86 C85 1_555 1_555
H75 C86 1_555 1_555
C87 C86 1_555 1_555
C88 C87 1_555 1_555
H76 C88 1_555 1_555
C89 C84 1_555 1_555
H77 C89 1_555 1_555
C90 C87 1_555 1_555
H78 C90 1_555 1_555
H79 C90 1_555 1_555
H80 C90 1_555 1_555
N2 C2 1_555 1_555
C1 C2 1_555 1_555
C1 C17 1_555 1_555
C3 C4 1_555 1_555
C9 C10 1_555 1_555
C15 C16 1_555 1_555
C18 C19 1_555 1_555
C24 C25 1_555 1_555
C30 C31 1_555 1_555
C36 C37 1_555 1_555
C43 C44 1_555 1_555
N6 C47 1_555 1_555
C46 C47 1_555 1_555
C46 C62 1_555 1_555
C48 C49 1_555 1_555
C54 C55 1_555 1_555
C60 C61 1_555 1_555
C63 C64 1_555 1_555
C69 C70 1_555 1_555
C75 C76 1_555 1_555
C81 C82 1_555 1_555
C88 C89 1_555 1_555

#END
