
#######################################################################
#
#                 Cambridge Crystallographic Data Centre
#                                CCDC 
#
#######################################################################
#
# If this CIF has been generated from an entry in the Cambridge 
# Structural Database, then it will include bibliographic, chemical, 
# crystal, experimental, refinement or atomic coordinate data resulting 
# from the CCDC's data processing and validation procedures.
#
#######################################################################

data_KIPDAR
_chemical_formula_moiety         'C26 H26 N2 O3'
_chemical_name_systematic        
't-butyl (1-benzyl-2-oxo-3-phenyl-2,3-dihydro-1H-indol-3-yl)carbamate'
_symmetry_cell_setting           triclinic
_symmetry_space_group_name_H-M   'P -1'
_symmetry_Int_Tables_number      2
_space_group_name_Hall           '-P 1'
loop_
_symmetry_equiv_pos_site_id
_symmetry_equiv_pos_as_xyz
1 x,y,z
2 -x,-y,-z
_cell_length_a                   9.1698(8)
_cell_length_b                   11.5077(11)
_cell_length_c                   11.9549(12)
_cell_angle_alpha                65.1210(10)
_cell_angle_beta                 81.309(2)
_cell_angle_gamma                85.729(2)
_cell_volume                     1131.22
_exptl_crystal_colour            white
_exptl_crystal_description       block
_cell_formula_units_Z            2
loop_
_atom_site_label
_atom_site_type_symbol
_atom_site_fract_x
_atom_site_fract_y
_atom_site_fract_z
N1 N 0.23476(18) 0.46704(15) 0.35422(15)
N2 N 0.11352(19) 0.16145(16) 0.42313(16)
H1 H 0.0680 0.1184 0.3955
O1 O -0.00995(16) 0.42543(15) 0.36838(14)
O2 O 0.16633(16) 0.20003(12) 0.57969(13)
O3 O 0.06973(19) 0.00844(14) 0.61998(15)
C1 C 0.1195(2) 0.39745(19) 0.35581(18)
C2 C 0.1845(2) 0.27909(19) 0.33269(18)
C3 C 0.3459(2) 0.28645(19) 0.3426(2)
C4 C 0.3695(2) 0.40021(19) 0.35054(19)
C5 C 0.5077(2) 0.4353(2) 0.3557(2)
H2 H 0.5226 0.5131 0.3583
C6 C 0.6240(3) 0.3506(3) 0.3568(2)
H3 H 0.7186 0.3717 0.3605
C7 C 0.6013(3) 0.2357(3) 0.3524(3)
H4 H 0.6802 0.1794 0.3548
C8 C 0.4608(3) 0.2029(2) 0.3443(2)
H5 H 0.4456 0.1259 0.3402
C9 C 0.2161(3) 0.57549(19) 0.3872(2)
H6 H 0.2737 0.5594 0.4541
H7 H 0.1132 0.5811 0.4189
C10 C 0.2605(2) 0.7028(2) 0.2828(2)
C11 C 0.3037(3) 0.7188(3) 0.1625(3)
H8 H 0.3104 0.6484 0.1429
C12 C 0.3377(4) 0.8404(3) 0.0694(3)
H9 H 0.3683 0.8506 -0.0119
C13 C 0.3261(4) 0.9444(3) 0.0973(4)
H10 H 0.3464 1.0256 0.0345
C14 C 0.2846(3) 0.9298(3) 0.2171(4)
H11 H 0.2778 1.0007 0.2361
C15 C 0.2528(3) 0.8091(2) 0.3101(3)
H12 H 0.2260 0.7990 0.3918
C16 C 0.1561(2) 0.30295(19) 0.20154(19)
C17 C 0.2637(3) 0.3496(3) 0.1012(2)
H13 H 0.3582 0.3622 0.1130
C18 C 0.2327(4) 0.3783(4) -0.0178(3)
H14 H 0.3062 0.4110 -0.0853
C19 C 0.0957(5) 0.3590(3) -0.0364(3)
H15 H 0.0754 0.3781 -0.1162
C20 C -0.0119(4) 0.3115(3) 0.0625(3)
H16 H -0.1055 0.2973 0.0502
C21 C 0.0174(3) 0.2843(2) 0.1812(2)
H17 H -0.0572 0.2530 0.2480
C22 C 0.1137(2) 0.1146(2) 0.5479(2)
C23 C 0.2196(2) 0.1594(2) 0.70203(19)
C24 C 0.0941(3) 0.1149(3) 0.8073(2)
H18 H 0.0172 0.1790 0.7908
H19 H 0.1291 0.1013 0.8837
H20 H 0.0561 0.0363 0.8144
C25 C 0.3379(3) 0.0575(3) 0.7150(3)
H21 H 0.2936 -0.0207 0.7274
H22 H 0.3872 0.0433 0.7851
H23 H 0.4080 0.0852 0.6408
C26 C 0.2854(3) 0.2818(2) 0.6888(2)
H24 H 0.3642 0.3079 0.6209
H25 H 0.3230 0.2676 0.7643
H26 H 0.2106 0.3477 0.6729
loop_
_geom_bond_atom_site_label_1
_geom_bond_atom_site_label_2
_geom_bond_site_symmetry_1
_geom_bond_site_symmetry_2
N1 C1 1_555 1_555
N2 H1 1_555 1_555
O1 C1 1_555 1_555
O2 C22 1_555 1_555
O3 C22 1_555 1_555
C1 C2 1_555 1_555
C2 N2 1_555 1_555
C3 C2 1_555 1_555
C4 N1 1_555 1_555
C5 C4 1_555 1_555
H2 C5 1_555 1_555
C6 C5 1_555 1_555
H3 C6 1_555 1_555
C7 C6 1_555 1_555
H4 C7 1_555 1_555
C8 C3 1_555 1_555
H5 C8 1_555 1_555
C9 N1 1_555 1_555
H6 C9 1_555 1_555
H7 C9 1_555 1_555
C10 C9 1_555 1_555
C11 C10 1_555 1_555
H8 C11 1_555 1_555
C12 C11 1_555 1_555
H9 C12 1_555 1_555
C13 C12 1_555 1_555
H10 C13 1_555 1_555
C14 C13 1_555 1_555
H11 C14 1_555 1_555
C15 C10 1_555 1_555
H12 C15 1_555 1_555
C16 C2 1_555 1_555
C17 C16 1_555 1_555
H13 C17 1_555 1_555
C18 C17 1_555 1_555
H14 C18 1_555 1_555
C19 C18 1_555 1_555
H15 C19 1_555 1_555
C20 C19 1_555 1_555
H16 C20 1_555 1_555
C21 C16 1_555 1_555
H17 C21 1_555 1_555
C22 N2 1_555 1_555
C23 O2 1_555 1_555
C24 C23 1_555 1_555
H18 C24 1_555 1_555
H19 C24 1_555 1_555
H20 C24 1_555 1_555
C25 C23 1_555 1_555
H21 C25 1_555 1_555
H22 C25 1_555 1_555
H23 C25 1_555 1_555
C26 C23 1_555 1_555
H24 C26 1_555 1_555
H25 C26 1_555 1_555
H26 C26 1_555 1_555
C3 C4 1_555 1_555
C7 C8 1_555 1_555
C14 C15 1_555 1_555
C20 C21 1_555 1_555

#END
