
#######################################################################
#
#                 Cambridge Crystallographic Data Centre
#                                CCDC 
#
#######################################################################
#
# If this CIF has been generated from an entry in the Cambridge 
# Structural Database, then it will include bibliographic, chemical, 
# crystal, experimental, refinement or atomic coordinate data resulting 
# from the CCDC's data processing and validation procedures.
#
#######################################################################

data_KIPGAU
_chemical_formula_moiety         'C27 H25 N1 O4'
_chemical_name_systematic        
'ethyl 5-methyl-13-oxo-12-phenyl-5,7,8,9,10,13-hexahydrocycloocta[5,6]pyrano[2,3-b]indole-11-carboxylate'
_symmetry_cell_setting           monoclinic
_symmetry_space_group_name_H-M   'C 2/c'
_symmetry_Int_Tables_number      15
_space_group_name_Hall           '-C 2yn'
loop_
_symmetry_equiv_pos_site_id
_symmetry_equiv_pos_as_xyz
1 x,y,z
2 -x,y,1/2-z
3 1/2+x,1/2+y,z
4 1/2-x,1/2+y,1/2-z
5 -x,-y,-z
6 x,-y,1/2+z
7 1/2-x,1/2-y,-z
8 1/2+x,1/2-y,1/2+z
_cell_length_a                   27.640(4)
_cell_length_b                   10.7244(17)
_cell_length_c                   14.592(2)
_cell_angle_alpha                90
_cell_angle_beta                 96.749(3)
_cell_angle_gamma                90
_cell_volume                     4295.42
_exptl_crystal_colour            yellow
_exptl_crystal_description       prismatic
_cell_formula_units_Z            8
loop_
_atom_site_label
_atom_site_type_symbol
_atom_site_fract_x
_atom_site_fract_y
_atom_site_fract_z
N1 N 0.02980(6) 0.60628(14) 0.11227(11)
O1 O 0.03495(5) 0.17577(13) 0.11719(11)
O2 O 0.10272(5) 0.51071(11) 0.08481(9)
O3 O 0.24018(6) 0.01524(19) 0.09741(17)
O4 O 0.16847(6) -0.07989(15) 0.09132(11)
C1 C -0.01607(7) 0.56665(18) 0.13106(12)
C2 C -0.05597(8) 0.6374(2) 0.14875(13)
H1 H -0.0548 0.7240 0.1488
C3 C -0.09719(8) 0.5744(2) 0.16615(14)
H2 H -0.1245 0.6195 0.1781
C4 C -0.09903(8) 0.4455(2) 0.16633(14)
H3 H -0.1276 0.4057 0.1781
C5 C -0.05917(7) 0.3747(2) 0.14927(13)
H4 H -0.0606 0.2881 0.1502
C6 C -0.01713(7) 0.43561(17) 0.13085(11)
C7 C 0.03047(7) 0.39537(17) 0.11112(12)
C8 C 0.05605(7) 0.50251(17) 0.10152(12)
C9 C 0.12626(7) 0.39834(17) 0.07392(12)
C10 C 0.10412(6) 0.28793(17) 0.08134(11)
C11 C 0.05357(7) 0.27777(17) 0.10422(12)
C12 C 0.17746(7) 0.4225(2) 0.05662(14)
H5 H 0.1789 0.5015 0.0248
H6 H 0.1876 0.3578 0.0165
C13 C 0.21323(8) 0.4260(2) 0.14551(17)
H7 H 0.2413 0.4752 0.1338
H8 H 0.1976 0.4688 0.1926
C14 C 0.23111(9) 0.3006(3) 0.18355(18)
H9 H 0.2526 0.3150 0.2400
H10 H 0.2504 0.2626 0.1396
C15 C 0.19204(8) 0.2071(2) 0.20446(14)
H11 H 0.2063 0.1485 0.2506
H12 H 0.1663 0.2515 0.2304
C16 C 0.17016(7) 0.13533(19) 0.12084(12)
C17 C 0.13103(6) 0.17075(17) 0.06448(12)
C18 C 0.11597(6) 0.10808(16) -0.02588(12)
C19 C 0.14627(7) 0.12181(18) -0.09501(13)
H13 H 0.1755 0.1647 -0.0824
C20 C 0.13357(8) 0.0729(2) -0.18163(15)
H14 H 0.1542 0.0835 -0.2270
C21 C 0.09072(9) 0.0085(2) -0.20160(16)
H15 H 0.0821 -0.0243 -0.2602
C22 C 0.06069(8) -0.00674(19) -0.13365(17)
H16 H 0.0318 -0.0510 -0.1465
C23 C 0.07286(7) 0.04258(19) -0.04669(15)
H17 H 0.0520 0.0318 -0.0017
C24 C 0.04569(9) 0.7343(2) 0.10402(17)
H18 H 0.0403 0.7797 0.1586
H19 H 0.0275 0.7723 0.0512
H20 H 0.0798 0.7356 0.0967
C25 C 0.19727(8) 0.0192(2) 0.10059(14)
C26 C 0.18843(11) -0.1971(2) 0.0636(2)
H21 H 0.2232 -0.1995 0.0835
H22 H 0.1733 -0.2656 0.0931
C27 C 0.18009(12) -0.2119(3) -0.0351(2)
H23 H 0.1458 -0.2072 -0.0550
H24 H 0.1923 -0.2914 -0.0520
H25 H 0.1966 -0.1468 -0.0642
loop_
_geom_bond_atom_site_label_1
_geom_bond_atom_site_label_2
_geom_bond_site_symmetry_1
_geom_bond_site_symmetry_2
N1 C1 1_555 1_555
O1 C11 1_555 1_555
O2 C8 1_555 1_555
O3 C25 1_555 1_555
O4 C25 1_555 1_555
C1 C2 1_555 1_555
C2 H1 1_555 1_555
C3 C2 1_555 1_555
H2 C3 1_555 1_555
C4 C3 1_555 1_555
H3 C4 1_555 1_555
C5 C4 1_555 1_555
H4 C5 1_555 1_555
C6 C1 1_555 1_555
C7 C6 1_555 1_555
C8 N1 1_555 1_555
C9 O2 1_555 1_555
C10 C9 1_555 1_555
C11 C7 1_555 1_555
C12 C9 1_555 1_555
H5 C12 1_555 1_555
H6 C12 1_555 1_555
C13 C12 1_555 1_555
H7 C13 1_555 1_555
H8 C13 1_555 1_555
C14 C13 1_555 1_555
H9 C14 1_555 1_555
H10 C14 1_555 1_555
C15 C14 1_555 1_555
H11 C15 1_555 1_555
H12 C15 1_555 1_555
C16 C15 1_555 1_555
C17 C10 1_555 1_555
C18 C17 1_555 1_555
C19 C18 1_555 1_555
H13 C19 1_555 1_555
C20 C19 1_555 1_555
H14 C20 1_555 1_555
C21 C20 1_555 1_555
H15 C21 1_555 1_555
C22 C21 1_555 1_555
H16 C22 1_555 1_555
C23 C18 1_555 1_555
H17 C23 1_555 1_555
C24 N1 1_555 1_555
H18 C24 1_555 1_555
H19 C24 1_555 1_555
H20 C24 1_555 1_555
C25 C16 1_555 1_555
C26 O4 1_555 1_555
H21 C26 1_555 1_555
H22 C26 1_555 1_555
C27 C26 1_555 1_555
H23 C27 1_555 1_555
H24 C27 1_555 1_555
H25 C27 1_555 1_555
C5 C6 1_555 1_555
C7 C8 1_555 1_555
C10 C11 1_555 1_555
C16 C17 1_555 1_555
C22 C23 1_555 1_555

#END
