
#######################################################################
#
#                 Cambridge Crystallographic Data Centre
#                                CCDC 
#
#######################################################################
#
# If this CIF has been generated from an entry in the Cambridge 
# Structural Database, then it will include bibliographic, chemical, 
# crystal, experimental, refinement or atomic coordinate data resulting 
# from the CCDC's data processing and validation procedures.
#
#######################################################################

data_KIPHEZ01
_chemical_formula_moiety         'C12 H13 Cl1 N4,C15 H10 O5'
_chemical_name_systematic        
'1,3,8-trihydroxy-6-methylanthracene-9,10-dione 5-(4-chlorophenyl)-6-ethylpyrimidine-2,4-diamine'
_symmetry_cell_setting           triclinic
_symmetry_space_group_name_H-M   'P -1'
_symmetry_Int_Tables_number      2
_space_group_name_Hall           '-P 1'
loop_
_symmetry_equiv_pos_site_id
_symmetry_equiv_pos_as_xyz
1 x,y,z
2 -x,-y,-z
_cell_length_a                   7.3189(10)
_cell_length_b                   12.8079(18)
_cell_length_c                   14.7328(19)
_cell_angle_alpha                110.648(8)
_cell_angle_beta                 104.138(9)
_cell_angle_gamma                93.725(9)
_cell_volume                     1235.7
_exptl_crystal_colour            red
_exptl_crystal_description       block
_cell_formula_units_Z            2
loop_
_atom_site_label
_atom_site_type_symbol
_atom_site_fract_x
_atom_site_fract_y
_atom_site_fract_z
Cl1 Cl -0.3822(3) 1.01944(16) 0.92350(15)
N1 N 0.2984(7) 0.9729(4) 0.5520(3)
N2 N 0.3976(7) 0.8413(4) 0.4307(3)
H1 H 0.3969 0.7710 0.3915
H2 H 0.4681 0.8974 0.4273
N3 N 0.1857(7) 0.7746(4) 0.4982(3)
C1 C -0.2450(9) 0.9883(5) 0.8387(5)
C2 C -0.2939(10) 1.0121(6) 0.7557(6)
H3 H -0.4016 1.0481 0.7433
C3 C -0.1868(9) 0.9843(6) 0.6882(5)
H4 H -0.2253 0.9997 0.6285
C4 C -0.0286(9) 0.9357(5) 0.7034(4)
C5 C 0.0834(8) 0.9067(5) 0.6303(4)
C6 C 0.1961(8) 0.9931(5) 0.6176(4)
C7 C 0.2912(8) 0.8629(5) 0.4956(4)
C8 C 0.0203(10) 0.9128(6) 0.7910(5)
H5 H 0.1305 0.8793 0.8049
C9 C -0.0889(11) 0.9379(6) 0.8587(5)
H6 H -0.0558 0.9204 0.9176
C10 C 0.0857(8) 0.7980(5) 0.5662(4)
C11 C -0.0309(10) 0.6966(6) 0.5671(5)
H7 H 0.0414 0.6327 0.5568
H8 H -0.0574 0.7156 0.6334
N4 N 0.2040(8) 1.1032(4) 0.6738(4)
H9 H 0.2738 1.1559 0.6655
H10 H 0.1394 1.1223 0.7187
C12 C -0.216(3) 0.663(4) 0.484(2)
H11 H -0.3018 0.7173 0.5033
H12 H -0.2768 0.5872 0.4721
H13 H -0.1907 0.6630 0.4214
O1 O 0.8374(7) 0.7475(3) 0.1333(3)
O2 O 0.7070(6) 0.3009(3) -0.0863(3)
O3 O 0.5186(6) 0.3296(3) -0.2425(3)
H19 H 0.5673 0.2934 -0.2076
O4 O 1.1768(7) 0.5677(4) 0.3714(3)
H20 H 1.1887 0.6382 0.4000
O5 O 0.9024(7) 0.2631(3) 0.0678(3)
H21 H 0.8344 0.2462 0.0081
C14 C 1.0390(8) 0.4190(5) 0.2176(4)
H22 H 1.0941 0.3694 0.2475
C15 C 0.9297(9) 0.3768(5) 0.1186(5)
C16 C 0.8505(8) 0.4481(5) 0.0703(4)
C17 C 0.7353(8) 0.4050(5) -0.0348(4)
C18 C 0.6598(8) 0.4823(5) -0.0802(4)
C19 C 0.5538(8) 0.4418(5) -0.1836(4)
C20 C 0.4852(9) 0.5165(6) -0.2273(5)
H23 H 0.4128 0.4880 -0.2966
C21 C 0.5200(8) 0.6303(5) -0.1725(5)
C22 C 0.4436(11) 0.7106(6) -0.2216(6)
H24 H 0.3343 0.6696 -0.2809
H25 H 0.5441 0.7420 -0.2427
H26 H 0.4031 0.7723 -0.1729
C23 C 0.6943(8) 0.6005(5) -0.0234(4)
C24 C 0.8081(8) 0.6466(5) 0.0843(4)
C25 C 0.8848(8) 0.5657(5) 0.1306(4)
C26 C 0.9915(8) 0.6062(5) 0.2306(4)
H27 H 1.0118 0.6849 0.2700
C27 C 1.0690(9) 0.5343(5) 0.2743(4)
C28 C 0.6230(9) 0.6712(5) -0.0696(5)
H28 H 0.6438 0.7502 -0.0308
H14? H 0.0174 0.6277 0.5317
H15? H -0.0092 0.7039 0.6383
C13? C -0.242(3) 0.680(3) 0.519(2)
H16? H -0.2964 0.7400 0.5614
H17? H -0.3018 0.6062 0.5134
H18? H -0.2654 0.6826 0.4518
loop_
_geom_bond_atom_site_label_1
_geom_bond_atom_site_label_2
_geom_bond_site_symmetry_1
_geom_bond_site_symmetry_2
Cl1 C1 1_555 1_555
N1 C6 1_555 1_555
N2 H1 1_555 1_555
H2 N2 1_555 1_555
N3 C7 1_555 1_555
C1 C2 1_555 1_555
C2 H3 1_555 1_555
C3 C2 1_555 1_555
H4 C3 1_555 1_555
C4 C3 1_555 1_555
C5 C4 1_555 1_555
C6 C5 1_555 1_555
C7 N1 1_555 1_555
C8 C4 1_555 1_555
H5 C8 1_555 1_555
C9 C1 1_555 1_555
H6 C9 1_555 1_555
C10 N3 1_555 1_555
C11 C10 1_555 1_555
H7 C11 1_555 1_555
H8 C11 1_555 1_555
N4 C6 1_555 1_555
H9 N4 1_555 1_555
H10 N4 1_555 1_555
C12 C11 1_555 1_555
H11 C12 1_555 1_555
H12 C12 1_555 1_555
H13 C12 1_555 1_555
O1 C24 1_555 1_555
O2 C17 1_555 1_555
O3 H19 1_555 1_555
O4 H20 1_555 1_555
O5 H21 1_555 1_555
C14 H22 1_555 1_555
C15 O5 1_555 1_555
C16 C15 1_555 1_555
C17 C16 1_555 1_555
C18 C17 1_555 1_555
C19 O3 1_555 1_555
C20 C19 1_555 1_555
H23 C20 1_555 1_555
C21 C20 1_555 1_555
C22 C21 1_555 1_555
H24 C22 1_555 1_555
H25 C22 1_555 1_555
H26 C22 1_555 1_555
C23 C18 1_555 1_555
C24 C23 1_555 1_555
C25 C16 1_555 1_555
C26 C25 1_555 1_555
H27 C26 1_555 1_555
C27 O4 1_555 1_555
C28 C21 1_555 1_555
H28 C28 1_555 1_555
N2 C7 1_555 1_555
C5 C10 1_555 1_555
C8 C9 1_555 1_555
C14 C15 1_555 1_555
C14 C27 1_555 1_555
C18 C19 1_555 1_555
C23 C28 1_555 1_555
C24 C25 1_555 1_555
C26 C27 1_555 1_555

#END
