
#######################################################################
#
#                 Cambridge Crystallographic Data Centre
#                                CCDC 
#
#######################################################################
#
# If this CIF has been generated from an entry in the Cambridge 
# Structural Database, then it will include bibliographic, chemical, 
# crystal, experimental, refinement or atomic coordinate data resulting 
# from the CCDC's data processing and validation procedures.
#
#######################################################################

data_KIPNUV
_chemical_formula_moiety         'C31 H29 Br1 N6 O2'
_chemical_name_systematic        
N,N'-{[(3-bromophenyl)methylene]bis[(3-methyl-1-phenyl-1H-pyrazole-4,5-diyl)]}diacetamide
_symmetry_cell_setting           monoclinic
_symmetry_space_group_name_H-M   'P 21/c'
_symmetry_Int_Tables_number      14
_space_group_name_Hall           '-P 2ybc'
loop_
_symmetry_equiv_pos_site_id
_symmetry_equiv_pos_as_xyz
1 x,y,z
2 -x,1/2+y,1/2-z
3 -x,-y,-z
4 x,1/2-y,1/2+z
_cell_length_a                   11.0727(13)
_cell_length_b                   16.0234(18)
_cell_length_c                   16.4478(16)
_cell_angle_alpha                90
_cell_angle_beta                 93.444(12)
_cell_angle_gamma                90
_cell_volume                     2912.94
_exptl_crystal_colour            colorless
_exptl_crystal_description       block
_cell_formula_units_Z            4
loop_
_atom_site_label
_atom_site_type_symbol
_atom_site_fract_x
_atom_site_fract_y
_atom_site_fract_z
Br1 Br 0.88595(4) 1.07004(3) 0.15681(3)
C1 C 0.9000(3) 0.7829(2) 0.1512(2)
H1 H 0.9013 0.7249 0.1490
N1 N 0.5677(3) 0.63627(17) 0.30684(17)
N2 N 0.8366(3) 0.89061(16) 0.48645(17)
N3 N 0.5313(2) 0.69382(17) 0.24936(17)
N4 N 0.6038(2) 0.80972(16) 0.17510(16)
H2 H 0.6104 0.7965 0.1249
N5 N 0.9579(2) 0.88245(17) 0.48092(17)
C2 C 0.7193(3) 0.72716(19) 0.28468(19)
C3 C 0.8588(3) 0.81657(19) 0.37508(19)
N6 N 0.6491(2) 0.84351(16) 0.41725(15)
H3 H 0.6081 0.8725 0.3813
C4 C 0.8715(3) 0.8219(2) 0.2225(2)
C5 C 0.6810(3) 0.6572(2) 0.3284(2)
C6 C 0.7951(3) 0.9343(2) 0.5540(2)
C7 C 0.6211(3) 0.74823(19) 0.2347(2)
C8 C 0.7752(3) 0.8502(2) 0.4236(2)
C9 C 0.9709(3) 0.8382(2) 0.4139(2)
C10 C 0.8408(3) 0.76935(19) 0.29574(19)
H4 H 0.9005 0.7242 0.2990
C11 C 0.8688(3) 0.9079(2) 0.2239(2)
H5 H 0.8497 0.9359 0.2709
C12 C 0.9236(3) 0.9127(3) 0.0848(2)
H6 H 0.9410 0.9433 0.0389
C13 C 1.0941(3) 0.8158(2) 0.3888(2)
H7 H 1.1537 0.8468 0.4211
H8 H 1.1002 0.8291 0.3323
H9 H 1.1075 0.7571 0.3970
C14 C 0.6801(3) 0.9675(2) 0.5538(2)
H10 H 0.6287 0.9643 0.5071
C15 C 0.4144(3) 0.6876(2) 0.2084(2)
C16 C 0.8709(3) 0.9441(2) 0.6228(2)
H11 H 0.9499 0.9242 0.6234
C17 C 0.7512(3) 0.6086(2) 0.3925(2)
H12 H 0.7645 0.6424 0.4404
H13 H 0.8277 0.5926 0.3727
H14 H 0.7066 0.5595 0.4056
C18 C 0.3750(3) 0.6121(2) 0.1783(2)
H15 H 0.4223 0.5645 0.1864
C19 C 0.8302(4) 0.9834(2) 0.6911(2)
H16 H 0.8821 0.9896 0.7373
C20 C 0.8945(3) 0.9523(2) 0.1552(3)
C21 C 0.9263(3) 0.8278(3) 0.0838(2)
H17 H 0.9462 0.8000 0.0369
C22 C 0.6411(4) 1.0055(2) 0.6230(3)
H18 H 0.5627 1.0264 0.6228
C23 C 0.7158(4) 1.0129(2) 0.6913(3)
H19 H 0.6885 1.0380 0.7377
C24 C 0.2637(4) 0.6077(3) 0.1355(2)
H20 H 0.2359 0.5571 0.1140
C25 C 0.3431(3) 0.7568(2) 0.1996(2)
H21 H 0.3692 0.8074 0.2222
C26 C 0.1947(4) 0.6780(3) 0.1250(3)
H22 H 0.1207 0.6752 0.0953
C27 C 0.2331(4) 0.7516(3) 0.1574(3)
H23 H 0.1845 0.7988 0.1510
O1 O 0.5638(2) 0.91061(13) 0.26399(15)
O2 O 0.6443(2) 0.75677(17) 0.52368(15)
C28 C 0.5902(3) 0.7914(2) 0.4674(2)
C29 C 0.4577(3) 0.7819(2) 0.4478(2)
H24 H 0.4394 0.7243 0.4369
H25 H 0.4343 0.8148 0.4007
H26 H 0.4142 0.8005 0.4932
C30 C 0.5619(3) 0.9472(2) 0.1232(2)
H27 H 0.4787 0.9477 0.1032
H28 H 0.6116 0.9292 0.0807
H29 H 0.5856 1.0024 0.1404
C31 C 0.5772(3) 0.8888(2) 0.1937(2)
loop_
_geom_bond_atom_site_label_1
_geom_bond_atom_site_label_2
_geom_bond_site_symmetry_1
_geom_bond_site_symmetry_2
Br1 C20 1_555 1_555
C1 H1 1_555 1_555
N1 N3 1_555 1_555
N2 N5 1_555 1_555
N3 C7 1_555 1_555
N4 H2 1_555 1_555
N5 C9 1_555 1_555
C2 C5 1_555 1_555
C3 C8 1_555 1_555
N6 H3 1_555 1_555
C4 C1 1_555 1_555
C5 N1 1_555 1_555
C6 N2 1_555 1_555
C7 N4 1_555 1_555
C8 N2 1_555 1_555
C9 C3 1_555 1_555
C10 C2 1_555 1_555
H4 C10 1_555 1_555
C11 C4 1_555 1_555
H5 C11 1_555 1_555
C12 H6 1_555 1_555
C13 C9 1_555 1_555
H7 C13 1_555 1_555
H8 C13 1_555 1_555
H9 C13 1_555 1_555
C14 C6 1_555 1_555
H10 C14 1_555 1_555
C15 N3 1_555 1_555
C16 C6 1_555 1_555
H11 C16 1_555 1_555
C17 C5 1_555 1_555
H12 C17 1_555 1_555
H13 C17 1_555 1_555
H14 C17 1_555 1_555
C18 C15 1_555 1_555
H15 C18 1_555 1_555
C19 C16 1_555 1_555
H16 C19 1_555 1_555
C20 C11 1_555 1_555
C21 C1 1_555 1_555
H17 C21 1_555 1_555
C22 C14 1_555 1_555
H18 C22 1_555 1_555
C23 C19 1_555 1_555
H19 C23 1_555 1_555
C24 C18 1_555 1_555
H20 C24 1_555 1_555
C25 C15 1_555 1_555
H21 C25 1_555 1_555
C26 C24 1_555 1_555
H22 C26 1_555 1_555
C27 C25 1_555 1_555
H23 C27 1_555 1_555
O1 C31 1_555 1_555
O2 C28 1_555 1_555
C28 N6 1_555 1_555
C29 C28 1_555 1_555
H24 C29 1_555 1_555
H25 C29 1_555 1_555
H26 C29 1_555 1_555
C30 H27 1_555 1_555
H28 C30 1_555 1_555
H29 C30 1_555 1_555
C31 N4 1_555 1_555
C2 C7 1_555 1_555
C3 C10 1_555 1_555
N6 C8 1_555 1_555
C4 C10 1_555 1_555
C12 C20 1_555 1_555
C12 C21 1_555 1_555
C22 C23 1_555 1_555
C26 C27 1_555 1_555
C30 C31 1_555 1_555

#END
