
#######################################################################
#
#                 Cambridge Crystallographic Data Centre
#                                CCDC 
#
#######################################################################
#
# If this CIF has been generated from an entry in the Cambridge 
# Structural Database, then it will include bibliographic, chemical, 
# crystal, experimental, refinement or atomic coordinate data resulting 
# from the CCDC's data processing and validation procedures.
#
#######################################################################

data_KIPSIL
_chemical_formula_moiety         'C34 H42 O6 S1 Si1'
_chemical_name_systematic        
(1S,2R(R),3S,5S,6S)-3-((t-Butyldiphenylsiloxy)methyl)-5-methyl-2-(2-(2-(phenylsulfonyl)ethyl)-oxiran-2-yl)-7-oxabicyclo(4.1.0)heptan-2-ol
_symmetry_cell_setting           triclinic
_symmetry_space_group_name_H-M   'P -1'
_symmetry_Int_Tables_number      2
_space_group_name_Hall           '-P 1'
loop_
_symmetry_equiv_pos_site_id
_symmetry_equiv_pos_as_xyz
1 x,y,z
2 -x,-y,-z
_cell_length_a                   8.377(2)
_cell_length_b                   14.143(3)
_cell_length_c                   14.373(3)
_cell_angle_alpha                97.37(2)
_cell_angle_beta                 102.89(2)
_cell_angle_gamma                100.17(2)
_cell_volume                     1608.72
_chemical_melting_point          150-151deg.C
_cell_formula_units_Z            2
loop_
_atom_site_label
_atom_site_type_symbol
_atom_site_fract_x
_atom_site_fract_y
_atom_site_fract_z
Si1 Si 0.3903(1) 0.6245(1) 0.2521(1)
O1 O 0.2918(3) 0.7084(1) 0.2843(1)
C1 C 0.1550(4) 0.7367(2) 0.2231(2)
C2 C 0.2036(3) 0.8453(2) 0.2200(2)
C3 C 0.2360(4) 0.9055(2) 0.3202(2)
C4 C 0.3207(4) 1.0104(2) 0.3242(2)
C5 C 0.2332(4) 1.0517(2) 0.2428(2)
O2 O 0.0575(3) 1.0437(1) 0.2335(2)
C6 C 0.1131(4) 0.9904(2) 0.1587(2)
C7 C 0.0723(3) 0.8795(2) 0.1469(2)
O3 O -0.0861(2) 0.8465(1) 0.1654(1)
C8 C 0.0680(3) 0.8377(2) 0.0409(2)
O4 O -0.0895(2) 0.8377(2) -0.0253(1)
C9 C -0.0481(4) 0.7467(2) -0.0057(2)
C10 C 0.2233(3) 0.8745(2) 0.0070(2)
C11 C 0.1944(3) 0.8432(2) -0.1020(2)
S1 S 0.3509(1) 0.9120(1) -0.1472(1)
O5 O 0.3345(3) 1.0121(1) -0.1400(2)
O6 O 0.5094(3) 0.8927(2) -0.1049(2)
C12 C 0.2937(4) 0.8569(2) -0.2718(2)
C13 C 0.2052(4) 0.9010(3) -0.3392(2)
C14 C 0.1622(4) 0.8571(3) -0.4367(2)
C15 C 0.2091(5) 0.7717(3) -0.4646(3)
C16 C 0.2979(6) 0.7273(3) -0.3969(3)
C17 C 0.3411(4) 0.7707(3) -0.2990(3)
C18 C 0.6065(4) 0.6611(2) 0.3382(2)
C19 C 0.6854(6) 0.7693(3) 0.3394(3)
C20 C 0.5849(5) 0.6527(3) 0.4399(2)
C21 C 0.7209(5) 0.5962(4) 0.3107(4)
C22 C 0.3831(4) 0.6143(2) 0.1200(2)
C23 C 0.4893(4) 0.6805(3) 0.0841(2)
C24 C 0.4723(5) 0.6753(3) -0.0167(3)
C25 C 0.3500(6) 0.6048(3) -0.0796(3)
C26 C 0.2407(6) 0.5402(3) -0.0471(3)
C27 C 0.2586(5) 0.5453(3) 0.0522(2)
C28 C 0.2778(3) 0.5060(2) 0.2728(2)
C29 C 0.3106(4) 0.4164(2) 0.2387(3)
C30 C 0.2302(5) 0.3302(2) 0.2607(3)
C31 C 0.1146(5) 0.3306(3) 0.3117(3)
C32 C 0.0766(6) 0.4181(3) 0.3451(3)
C33 C 0.1585(4) 0.5046(2) 0.3250(3)
C34 C 0.3317(6) 1.0745(3) 0.4205(3)
H1 H 0.1303 0.6997 0.1589
H2 H 0.0581 0.7246 0.2486
H3 H 0.3048 0.8550 0.1983
H4 H 0.3069 0.8774 0.3660
H5 H 0.1311 0.9045 0.3369
H6 H 0.4327 1.0098 0.3186
H7 H 0.2994(33) 1.1140(11) 0.2414(23)
H8 H 0.0749(35) 1.0196(19) 0.1032(13)
H9 H -0.1523(41) 0.8948(21) 0.1476(29)
H10 H -0.1162(34) 0.7216(22) 0.0348(20)
H11 H -0.0098(34) 0.7156(18) -0.0575(14)
H12 H 0.2517 0.9444 0.0224
H13 H 0.3142 0.8485 0.0399
H14 H 0.1972 0.7753 -0.1154
H15 H 0.0865 0.8529 -0.1340
H16 H 0.1732 0.9610 -0.3198
H17 H 0.0993 0.8869 -0.4847
H18 H 0.1797 0.7427 -0.5319
H19 H 0.3297 0.6673 -0.4166
H20 H 0.4035 0.7408 -0.2509
H21 H 0.7256 0.7848 0.2844
H22 H 0.7789 0.7766 0.3943
H23 H 0.6146 0.8126 0.3539
H24 H 0.5463 0.5841 0.4374
H25 H 0.5062 0.6876 0.4597
H26 H 0.6922 0.6747 0.4855
H27 H 0.7337 0.5924 0.2457
H28 H 0.6631 0.5339 0.3186
H29 H 0.8294 0.6137 0.3556
H30 H 0.5750 0.7302 0.1287
H31 H 0.5460 0.7208 -0.0405
H32 H 0.3397 0.6001 -0.1480
H33 H 0.1532 0.4921 -0.0924
H34 H 0.1826 0.4998 0.0745
H35 H 0.3894 0.4140 0.1996
H36 H 0.2581 0.2696 0.2390
H37 H 0.0584 0.2705 0.3251
H38 H -0.0058 0.4190 0.3820
H39 H 0.1311 0.5650 0.3481
H40 H 0.3979 1.0529 0.4739
H41 H 0.2220 1.0746 0.4302
H42 H 0.3845 1.1393 0.4164
loop_
_geom_bond_atom_site_label_1
_geom_bond_atom_site_label_2
_geom_bond_site_symmetry_1
_geom_bond_site_symmetry_2
Si1 O1 1_555 1_555
O1 C1 1_555 1_555
C1 C2 1_555 1_555
C2 C3 1_555 1_555
C3 C4 1_555 1_555
C4 C5 1_555 1_555
C5 O2 1_555 1_555
O2 C6 1_555 1_555
C6 C5 1_555 1_555
C7 C2 1_555 1_555
O3 C7 1_555 1_555
C8 C7 1_555 1_555
O4 C8 1_555 1_555
C9 C8 1_555 1_555
C10 C8 1_555 1_555
C11 C10 1_555 1_555
S1 C11 1_555 1_555
O5 S1 1_555 1_555
O6 S1 1_555 1_555
C12 S1 1_555 1_555
C13 C12 1_555 1_555
C14 C13 1_555 1_555
C15 C14 1_555 1_555
C16 C15 1_555 1_555
C17 C12 1_555 1_555
C18 Si1 1_555 1_555
C19 C18 1_555 1_555
C20 C18 1_555 1_555
C21 C18 1_555 1_555
C22 Si1 1_555 1_555
C23 C22 1_555 1_555
C24 C23 1_555 1_555
C25 C24 1_555 1_555
C26 C25 1_555 1_555
C27 C22 1_555 1_555
C28 Si1 1_555 1_555
C29 C28 1_555 1_555
C30 C29 1_555 1_555
C31 C30 1_555 1_555
C32 C31 1_555 1_555
C33 C28 1_555 1_555
C34 C4 1_555 1_555
H1 C1 1_555 1_555
H2 C1 1_555 1_555
H3 C2 1_555 1_555
H4 C3 1_555 1_555
H5 C3 1_555 1_555
H6 C4 1_555 1_555
H7 C5 1_555 1_555
H8 C6 1_555 1_555
H9 O3 1_555 1_555
H10 C9 1_555 1_555
H11 C9 1_555 1_555
H12 C10 1_555 1_555
H13 C10 1_555 1_555
H14 C11 1_555 1_555
H15 C11 1_555 1_555
H16 C13 1_555 1_555
H17 C14 1_555 1_555
H18 C15 1_555 1_555
H19 C16 1_555 1_555
H20 C17 1_555 1_555
H21 C19 1_555 1_555
H22 C19 1_555 1_555
H23 C19 1_555 1_555
H24 C20 1_555 1_555
H25 C20 1_555 1_555
H26 C20 1_555 1_555
H27 C21 1_555 1_555
H28 C21 1_555 1_555
H29 C21 1_555 1_555
H30 C23 1_555 1_555
H31 C24 1_555 1_555
H32 C25 1_555 1_555
H33 C26 1_555 1_555
H34 C27 1_555 1_555
H35 C29 1_555 1_555
H36 C30 1_555 1_555
H37 C31 1_555 1_555
H38 C32 1_555 1_555
H39 C33 1_555 1_555
H40 C34 1_555 1_555
H41 C34 1_555 1_555
H42 C34 1_555 1_555
C6 C7 1_555 1_555
O4 C9 1_555 1_555
C16 C17 1_555 1_555
C26 C27 1_555 1_555
C32 C33 1_555 1_555

#END
