
#######################################################################
#
#                 Cambridge Crystallographic Data Centre
#                                CCDC 
#
#######################################################################
#
# If this CIF has been generated from an entry in the Cambridge 
# Structural Database, then it will include bibliographic, chemical, 
# crystal, experimental, refinement or atomic coordinate data resulting 
# from the CCDC's data processing and validation procedures.
#
#######################################################################

data_KIPZUE
_chemical_formula_moiety         'C54 H75 Li1 N1 O6 P1,2(C4 H8 O1)'
_chemical_name_systematic        
"((5,11,17,23-Tetra-t-butyl-25,26,27,28-tetraoxycalix(4)arene)-dimethylaminophosphine-N,O,O')-bis(tetrahydrofuran)-lithium tetrahydrofuran solvate"
_symmetry_cell_setting           monoclinic
_symmetry_space_group_name_H-M   'P 21/n'
_symmetry_Int_Tables_number      14
_space_group_name_Hall           '-P 2yn'
loop_
_symmetry_equiv_pos_site_id
_symmetry_equiv_pos_as_xyz
1 x,y,z
2 1/2-x,1/2+y,1/2-z
3 -x,-y,-z
4 1/2+x,1/2-y,1/2+z
_cell_length_a                   18.805(7)
_cell_length_b                   13.465(5)
_cell_length_c                   25.197(10)
_cell_angle_alpha                90
_cell_angle_beta                 111.13(3)
_cell_angle_gamma                90
_cell_volume                     5951.15
_cell_formula_units_Z            4
loop_
_atom_site_label
_atom_site_type_symbol
_atom_site_fract_x
_atom_site_fract_y
_atom_site_fract_z
P1 P 0.0655(1) -0.0104(2) 0.1784(1)
O1 O 0.1470(2) -0.0744(3) 0.2260(2)
O2 O 0.0487(3) -0.1198(3) 0.1342(2)
O3 O -0.0103(3) 0.0486(3) 0.1284(2)
O4 O 0.0883(3) 0.0938(3) 0.2203(2)
C1 C 0.1136(4) -0.2838(5) 0.2107(3)
C2 C -0.1094(4) -0.1037(5) 0.0656(3)
C3 C -0.0515(4) 0.2018(6) 0.1895(3)
C4 C 0.1742(4) 0.0274(6) 0.3309(3)
C5 C 0.1421(4) -0.1276(6) 0.2706(3)
C6 C 0.1570(4) -0.0817(6) 0.3229(3)
C7 C 0.1522(4) -0.1370(7) 0.3682(3)
C8 C 0.1336(4) -0.2360(7) 0.3637(3)
C9 C 0.1227(4) -0.2835(6) 0.3119(3)
C10 C 0.1271(4) -0.2301(6) 0.2660(3)
C11 C 0.1278(5) -0.2960(7) 0.4138(3)
C12 C 0.1882(6) -0.3755(9) 0.4302(4)
C13 C 0.1379(10) -0.2401(9) 0.4639(4)
C14 C 0.0560(6) -0.3547(9) 0.3963(4)
C15 C 0.0017(4) -0.1948(6) 0.1378(3)
C16 C 0.0303(4) -0.2792(6) 0.1710(3)
C17 C -0.0174(4) -0.3554(6) 0.1709(3)
C18 C -0.0961(5) -0.3550(6) 0.1381(3)
C19 C -0.1226(4) -0.2707(6) 0.1054(3)
C20 C -0.0766(4) -0.1901(6) 0.1035(3)
C21 C -0.1470(5) -0.4431(6) 0.1390(3)
C22 C -0.1399(6) -0.4658(8) 0.1981(4)
C23 C -0.1208(6) -0.5340(7) 0.1163(4)
C24 C -0.2279(5) -0.4289(8) 0.1026(5)
C25 C -0.0844(4) 0.0492(6) 0.1279(3)
C26 C -0.1357(5) -0.0204(6) 0.0955(3)
C27 C -0.2126(4) -0.0122(6) 0.0896(3)
C28 C -0.2376(5) 0.0629(7) 0.1158(3)
C29 C -0.1835(5) 0.1311(6) 0.1489(3)
C30 C -0.1069(5) 0.1259(6) 0.1554(3)
C31 C -0.3230(5) 0.0762(7) 0.1069(3)
C32 C -0.3334(5) 0.0598(9) 0.1627(4)
C33 C -0.3469(5) 0.1819(8) 0.0877(4)
C34 C -0.3748(5) 0.0094(8) 0.0627(4)
C35 C 0.0599(5) 0.1148(6) 0.2627(3)
C36 C -0.0070(5) 0.1693(6) 0.2498(3)
C37 C -0.0314(4) 0.1939(6) 0.2941(3)
C38 C 0.0092(5) 0.1664(7) 0.3503(3)
C39 C 0.0762(5) 0.1156(6) 0.3609(3)
C40 C 0.1022(4) 0.0874(6) 0.3183(3)
C41 C -0.0165(6) 0.1981(9) 0.3988(4)
C42 C 0.0008(9) 0.1260(10) 0.4437(5)
C43 C 0.0219(6) 0.2953(10) 0.4236(4)
C44 C -0.1015(6) 0.2181(10) 0.3781(4)
Li1 Li 0.1633(7) -0.1194(10) 0.1452(5)
N1 N 0.1271(3) 0.0249(4) 0.1430(2)
C45 C 0.1917(4) 0.0923(6) 0.1732(3)
C46 C 0.0930(4) 0.0556(6) 0.0831(3)
O5 O 0.2738(3) -0.1451(4) 0.1852(2)
C47 C 0.3148(6) -0.1577(9) 0.2443(4)
C48 C 0.3864(5) -0.1113(8) 0.2594(4)
C49 C 0.3990(5) -0.0957(8) 0.2041(4)
C50 C 0.3309(5) -0.1385(7) 0.1605(4)
O6 O 0.1595(3) -0.1839(5) 0.0740(2)
C51 C 0.1419(8) -0.1531(9) 0.0187(4)
C52 C 0.1631(8) -0.2319(9) -0.0125(4)
C53 C 0.1982(7) -0.3060(9) 0.0262(4)
C54 C 0.1722(7) -0.2864(8) 0.0747(4)
H1 H 0.0206 -0.0551 0.2024
H2 H 0.1286 -0.3520 0.2185
H3 H 0.1447 -0.2540 0.1921
H4 H -0.1516 -0.1259 0.0330
H5 H -0.0713 -0.0775 0.0525
H6 H -0.0784 0.2619 0.1907
H7 H -0.0164 0.2159 0.1707
H8 H 0.1992 0.0473 0.3055
H9 H 0.2079 0.0403 0.3692
H10 H 0.1623 -0.1046 0.4041
H11 H 0.1122 -0.3534 0.3083
H12 H 0.1850 -0.4145 0.4611
H13 H 0.1791 -0.4173 0.3975
H14 H 0.2380 -0.3467 0.4409
H15 H 0.0998 -0.1888 0.4541
H16 H 0.1328 -0.2804 0.4937
H17 H 0.1876 -0.2106 0.4766
H18 H 0.0152 -0.3073 0.3865
H19 H 0.0501 -0.3964 0.3640
H20 H 0.0550 -0.3948 0.4275
H21 H 0.0032 -0.4121 0.1945
H22 H -0.1758 -0.2676 0.0821
H23 H -0.1568 -0.4092 0.2136
H24 H -0.1705 -0.5224 0.1988
H25 H -0.0875 -0.4794 0.2204
H26 H -0.0683 -0.5470 0.1386
H27 H -0.1511 -0.5907 0.1177
H28 H -0.1259 -0.5214 0.0776
H29 H -0.2482 -0.3726 0.1157
H30 H -0.2314 -0.4179 0.0641
H31 H -0.2565 -0.4872 0.1041
H32 H -0.2484 -0.0608 0.0675
H33 H -0.2006 0.1823 0.1680
H34 H -0.3856 0.0692 0.1590
H35 H -0.3179 -0.0068 0.1751
H36 H -0.3017 0.1060 0.1900
H37 H -0.3421 0.1935 0.0515
H38 H -0.3988 0.1928 0.0844
H39 H -0.3141 0.2266 0.1154
H40 H -0.3697 0.0208 0.0267
H41 H -0.3608 -0.0579 0.0745
H42 H -0.4268 0.0207 0.0592
H43 H -0.0778 0.2312 0.2858
H44 H 0.1070 0.1002 0.3996
H45 H -0.0169 0.1471 0.4732
H46 H -0.0223 0.0635 0.4286
H47 H 0.0552 0.1187 0.4591
H48 H 0.0062 0.3172 0.4539
H49 H 0.0762 0.2857 0.4378
H50 H 0.0083 0.3445 0.3940
H51 H -0.1160 0.2372 0.4095
H52 H -0.1137 0.2708 0.3506
H53 H -0.1287 0.1592 0.3607
H54 H 0.1730 0.1590 0.1715
H55 H 0.2151 0.0722 0.2122
H56 H 0.2286 0.0893 0.1550
H57 H 0.0761 0.1232 0.0815
H58 H 0.1293 0.0501 0.0645
H59 H 0.0501 0.0134 0.0643
H60 H 0.3215 -0.2272 0.2533
H61 H 0.2856 -0.1290 0.2648
H62 H 0.4261 -0.1519 0.2848
H63 H 0.3860 -0.0484 0.2773
H64 H 0.4447 -0.1284 0.2049
H65 H 0.4028 -0.0264 0.1967
H66 H 0.3134 -0.0973 0.1272
H67 H 0.3423 -0.2035 0.1501
H68 H 0.1730 -0.0960 0.0200
H69 H 0.0892 -0.1345 0.0010
H70 H 0.1965 -0.2089 -0.0310
H71 H 0.1177 -0.2579 -0.0407
H72 H 0.2527 -0.2990 0.0393
H73 H 0.1846 -0.3713 0.0105
H74 H 0.1256 -0.3218 0.0684
H75 H 0.2091 -0.3059 0.1107
O7 O -0.2054(7) -0.1293(11) 0.2746(6)
C55 C -0.1828(10) -0.1778(11) 0.2365(6)
C56 C -0.1028(10) -0.1684(12) 0.2540(7)
C57 C -0.0799(8) -0.0969(12) 0.2944(8)
C58 C -0.1434(12) -0.0698(12) 0.3052(8)
H76 H -0.2046 -0.1497 0.1991
H77 H -0.1985 -0.2458 0.2354
H78 H -0.0847 -0.1621 0.2231
H79 H -0.0806 -0.2270 0.2751
H80 H -0.0673 -0.0431 0.2744
H81 H -0.0359 -0.1121 0.3274
H82 H -0.1314 -0.0814 0.3451
H83 H -0.1564 -0.0011 0.2971
O8? O 0.1141(22) -0.5189(12) 0.0499(11)
O9? O 0.0111(10) -0.6269(24) 0.0258(9)
C59? C 0.1175(11) -0.5720(18) 0.0957(6)
C60? C 0.0589(11) -0.6177(18) 0.0799(7)
C61? C 0.0765(13) -0.6532(16) 0.0199(8)
C62? C 0.1350(9) -0.6071(18) 0.0356(8)
H84? H 0.1400 -0.5395 0.1318
H85? H 0.1477 -0.6289 0.0945
H86? H 0.0604 -0.6745 0.1033
H87? H 0.0369 -0.5645 0.0942
H88? H 0.0596 -0.6307 -0.0188
H89? H 0.0768 -0.7245 0.0187
H90? H 0.1620 -0.6456 0.0689
H91? H 0.1619 -0.6088 0.0097
loop_
_geom_bond_atom_site_label_1
_geom_bond_atom_site_label_2
_geom_bond_site_symmetry_1
_geom_bond_site_symmetry_2
P1 O1 1_555 1_555
O1 C5 1_555 1_555
O2 P1 1_555 1_555
O3 P1 1_555 1_555
O4 P1 1_555 1_555
C1 C10 1_555 1_555
C2 C20 1_555 1_555
C3 C30 1_555 1_555
C4 C6 1_555 1_555
C5 C6 1_555 1_555
C6 C7 1_555 1_555
C7 C8 1_555 1_555
C8 C9 1_555 1_555
C9 C10 1_555 1_555
C10 C5 1_555 1_555
C11 C8 1_555 1_555
C12 C11 1_555 1_555
C13 C11 1_555 1_555
C14 C11 1_555 1_555
C15 O2 1_555 1_555
C16 C1 1_555 1_555
C17 C16 1_555 1_555
C18 C17 1_555 1_555
C19 C18 1_555 1_555
C20 C15 1_555 1_555
C21 C18 1_555 1_555
C22 C21 1_555 1_555
C23 C21 1_555 1_555
C24 C21 1_555 1_555
C25 O3 1_555 1_555
C26 C2 1_555 1_555
C27 C26 1_555 1_555
C28 C27 1_555 1_555
C29 C28 1_555 1_555
C30 C25 1_555 1_555
C31 C28 1_555 1_555
C32 C31 1_555 1_555
C33 C31 1_555 1_555
C34 C31 1_555 1_555
C35 O4 1_555 1_555
C36 C3 1_555 1_555
C37 C36 1_555 1_555
C38 C37 1_555 1_555
C39 C38 1_555 1_555
C40 C4 1_555 1_555
C41 C38 1_555 1_555
C42 C41 1_555 1_555
C43 C41 1_555 1_555
C44 C41 1_555 1_555
Li1 O1 1_555 1_555
N1 P1 1_555 1_555
C45 N1 1_555 1_555
C46 N1 1_555 1_555
O5 Li1 1_555 1_555
C47 O5 1_555 1_555
C48 C47 1_555 1_555
C49 C48 1_555 1_555
C50 O5 1_555 1_555
O6 Li1 1_555 1_555
C51 O6 1_555 1_555
C52 C51 1_555 1_555
C53 C52 1_555 1_555
C54 O6 1_555 1_555
H1 P1 1_555 1_555
H2 C1 1_555 1_555
H3 C1 1_555 1_555
H4 C2 1_555 1_555
H5 C2 1_555 1_555
H6 C3 1_555 1_555
H7 C3 1_555 1_555
H8 C4 1_555 1_555
H9 C4 1_555 1_555
H10 C7 1_555 1_555
H11 C9 1_555 1_555
H12 C12 1_555 1_555
H13 C12 1_555 1_555
H14 C12 1_555 1_555
H15 C13 1_555 1_555
H16 C13 1_555 1_555
H17 C13 1_555 1_555
H18 C14 1_555 1_555
H19 C14 1_555 1_555
H20 C14 1_555 1_555
H21 C17 1_555 1_555
H22 C19 1_555 1_555
H23 C22 1_555 1_555
H24 C22 1_555 1_555
H25 C22 1_555 1_555
H26 C23 1_555 1_555
H27 C23 1_555 1_555
H28 C23 1_555 1_555
H29 C24 1_555 1_555
H30 C24 1_555 1_555
H31 C24 1_555 1_555
H32 C27 1_555 1_555
H33 C29 1_555 1_555
H34 C32 1_555 1_555
H35 C32 1_555 1_555
H36 C32 1_555 1_555
H37 C33 1_555 1_555
H38 C33 1_555 1_555
H39 C33 1_555 1_555
H40 C34 1_555 1_555
H41 C34 1_555 1_555
H42 C34 1_555 1_555
H43 C37 1_555 1_555
H44 C39 1_555 1_555
H45 C42 1_555 1_555
H46 C42 1_555 1_555
H47 C42 1_555 1_555
H48 C43 1_555 1_555
H49 C43 1_555 1_555
H50 C43 1_555 1_555
H51 C44 1_555 1_555
H52 C44 1_555 1_555
H53 C44 1_555 1_555
H54 C45 1_555 1_555
H55 C45 1_555 1_555
H56 C45 1_555 1_555
H57 C46 1_555 1_555
H58 C46 1_555 1_555
H59 C46 1_555 1_555
H60 C47 1_555 1_555
H61 C47 1_555 1_555
H62 C48 1_555 1_555
H63 C48 1_555 1_555
H64 C49 1_555 1_555
H65 C49 1_555 1_555
H66 C50 1_555 1_555
H67 C50 1_555 1_555
H68 C51 1_555 1_555
H69 C51 1_555 1_555
H70 C52 1_555 1_555
H71 C52 1_555 1_555
H72 C53 1_555 1_555
H73 C53 1_555 1_555
H74 C54 1_555 1_555
H75 C54 1_555 1_555
O7 C55 1_555 1_555
C55 C56 1_555 1_555
C56 C57 1_555 1_555
C57 C58 1_555 1_555
C58 O7 1_555 1_555
H76 C55 1_555 1_555
H77 C55 1_555 1_555
H78 C56 1_555 1_555
H79 C56 1_555 1_555
H80 C57 1_555 1_555
H81 C57 1_555 1_555
H82 C58 1_555 1_555
H83 C58 1_555 1_555
O2 Li1 1_555 1_555
C15 C16 1_555 1_555
C19 C20 1_555 1_555
C25 C26 1_555 1_555
C29 C30 1_555 1_555
C35 C36 1_555 1_555
C35 C40 1_555 1_555
C39 C40 1_555 1_555
Li1 N1 1_555 1_555
C49 C50 1_555 1_555
C53 C54 1_555 1_555

#END
