
#######################################################################
#
#                 Cambridge Crystallographic Data Centre
#                                CCDC 
#
#######################################################################
#
# If this CIF has been generated from an entry in the Cambridge 
# Structural Database, then it will include bibliographic, chemical, 
# crystal, experimental, refinement or atomic coordinate data resulting 
# from the CCDC's data processing and validation procedures.
#
#######################################################################

data_KIPZAN
_chemical_name_common            
'hexakis(mu-C-(3-hydroxypropyl)pyrogallol[4]arene)-tetrakis(N,N-dimethylformamide)-tetratetracosaaqua-tetracosa-magnesium unknown solvate'
_chemical_formula_moiety         'C252 H356 Mg24 N4 O144'
_chemical_name_systematic        
'hexakis(\m-2,8,14,20-tetrakis(3-hydroxypropyl)-6,12,18,24-tetrahydroxy-4,5,10,11,16,17,22,23-octadecaoxycalix[4]arene)-tetrakis(N,N-dimethylformamide)-tetratetracosaaqua-tetracosa-magnesium unknown solvate'
_symmetry_cell_setting           monoclinic
_symmetry_space_group_name_H-M   'C 2/m'
_symmetry_Int_Tables_number      12
_space_group_name_Hall           '-C 2y'
loop_
_symmetry_equiv_pos_site_id
_symmetry_equiv_pos_as_xyz
1 x,y,z
2 -x,y,-z
3 1/2+x,1/2+y,z
4 1/2-x,1/2+y,-z
5 -x,-y,-z
6 x,-y,z
7 1/2-x,1/2-y,-z
8 1/2+x,1/2-y,z
_cell_length_a                   28.7851(13)
_cell_length_b                   35.4156(15)
_cell_length_c                   22.4065(11)
_cell_angle_alpha                90
_cell_angle_beta                 119.743(3)
_cell_angle_gamma                90
_cell_volume                     19832.9
_exptl_crystal_colour            green
_exptl_crystal_description       block
_cell_formula_units_Z            2
_chemical_properties_physical    Moisture-sensitive
loop_
_atom_site_label
_atom_site_type_symbol
_atom_site_fract_x
_atom_site_fract_y
_atom_site_fract_z
Mg1 Mg 0.41413(8) 0.70266(6) 0.49814(12)
Mg2 Mg 0.27258(15) 0.5000 0.12908(18)
Mg3 Mg 0.42818(10) 0.55256(7) 0.76334(15)
Mg4 Mg 0.21955(12) 0.44656(7) 0.22648(16)
Mg5 Mg 0.28723(14) 0.64711(12) 0.39959(15)
Mg6 Mg 0.63774(13) 0.64606(13) 0.40639(15)
Mg7 Mg 0.44157(17) 0.5000 0.1476(3)
O1 O 0.22086(16) 0.61647(12) 0.3756(2)
O2 O 0.26434(16) 0.65795(13) 0.3001(2)
O3 O 0.58565(17) 0.65709(13) 0.3062(2)
O4 O 0.31331(17) 0.61657(13) 0.6178(2)
O5 O 0.51361(16) 0.72218(13) 0.4242(2)
O6 O 0.18871(18) 0.56655(12) 0.2883(3)
O7 O 0.59078(16) 0.68077(14) 0.4225(2)
O8 O 0.42699(16) 0.72350(13) 0.4225(2)
O9 O 0.34707(16) 0.68185(13) 0.4176(3)
O10 O 0.3999(2) 0.5000 0.7443(3)
O11 O 0.34850(17) 0.56658(12) 0.7058(2)
O12 O 0.2986(2) 0.54210(13) 0.0901(2)
O13 O 0.2111(3) 0.5000 0.2508(4)
O14 O 0.38685(19) 0.54099(14) 0.0963(3)
O15 O 0.30307(18) 0.63871(13) 0.4966(2)
O16 O 0.22956(18) 0.60900(12) 0.2093(2)
O17 O 0.2506(2) 0.54394(13) 0.1660(3)
O18 O 0.54947(19) 0.60755(13) 0.2195(3)
O19 O 0.3776(2) 0.75415(16) 0.5003(3)
O20 O 0.4934(2) 0.54313(14) 0.1790(3)
C1 C 0.3002(2) 0.68217(17) 0.2960(4)
C2 C 0.1328(3) 0.5000 0.3608(5)
H1 H 0.1137 0.5000 0.3852
C3 C 0.2629(3) 0.57719(17) 0.1458(3)
C4 C 0.2638(2) 0.61727(16) 0.4963(3)
C5 C 0.2205(2) 0.60620(16) 0.4335(3)
C6 C 0.3435(2) 0.69288(17) 0.3577(3)
C7 C 0.1861(3) 0.5000 0.2870(5)
C8 C 0.3183(3) 0.53414(17) 0.6863(3)
C9 C 0.5497(2) 0.69180(18) 0.3636(4)
C10 C 0.2356(4) 0.5000 0.6303(5)
H2 H 0.1977 0.5000 0.6038
C11 C 0.2673(2) 0.60596(18) 0.5581(3)
C12 C 0.1833(2) 0.57485(17) 0.4954(3)
H3 H 0.1553 0.5605 0.4951
C13 C 0.5083(2) 0.71500(17) 0.3615(4)
C14 C 0.5459(2) 0.68110(17) 0.3004(3)
C15 C 0.1729(2) 0.53437(16) 0.3074(3)
C16 C 0.3453(3) 0.5000 0.7069(5)
C17 C 0.1787(2) 0.58468(17) 0.4330(3)
C18 C 0.2622(2) 0.53466(18) 0.6489(3)
C19 C 0.2860(3) 0.57653(19) 0.1048(3)
C20 C 0.1458(2) 0.53456(17) 0.3441(3)
C21 C 0.1326(2) 0.57220(17) 0.3652(3)
H4 H 0.1287 0.5912 0.3301
C22 C 0.4660(3) 0.71738(17) 0.2389(4)
H5 H 0.4377 0.7265 0.1965
C23 C 0.4672(2) 0.72805(17) 0.2991(4)
O21 O 0.1975(3) 0.5000 0.0317(5)
C24 C 0.3838(2) 0.71591(18) 0.3587(3)
C25 C 0.4670(3) 0.57600(19) 0.1551(3)
C26 C 0.4952(3) 0.6100(2) 0.1743(4)
C27 C 0.4119(3) 0.5764(2) 0.1103(4)
C28 C 0.2947(2) 0.69534(17) 0.2342(3)
C29 C 0.3346(2) 0.71836(17) 0.2359(3)
H6 H 0.3313 0.7271 0.1939
C30 C 0.3797(2) 0.72909(16) 0.2985(4)
C31 C 0.2601(2) 0.64564(18) 0.1421(3)
C32 C 0.2269(2) 0.58488(17) 0.5592(3)
C33 C 0.2503(3) 0.61134(18) 0.1661(3)
C34 C 0.2971(3) 0.61026(19) 0.0804(3)
C35 C 0.5040(2) 0.69410(17) 0.2376(3)
C36 C 0.2326(3) 0.57181(19) 0.6268(4)
H7 H 0.2562 0.5908 0.6619
C37 C 0.3844(3) 0.6101(2) 0.0837(3)
C38 C 0.4137(3) 0.6431(2) 0.1039(3)
H8 H 0.3952 0.6662 0.0863
C39 C 0.2828(2) 0.64434(19) 0.1009(3)
H9 H 0.2895 0.6675 0.0852
C40 C 0.2464(2) 0.68252(17) 0.1648(3)
H10 H 0.2164 0.6770 0.1738
C41 C 0.4235(2) 0.75328(17) 0.2999(3)
H11 H 0.4410 0.7666 0.3452
C42 C 0.3240(3) 0.6096(2) 0.0388(3)
H12 H 0.3149 0.5846 0.0147
C43 C 0.4683(3) 0.64448(19) 0.1480(3)
C44 C 0.0788(3) 0.5712(2) 0.3649(4)
H13 H 0.0808 0.5515 0.3976
H14 H 0.0733 0.5958 0.3815
C45 C 0.4999(3) 0.6816(2) 0.1714(4)
H15 H 0.5372 0.6751 0.1828
O22 O 0.1371(3) 0.4457(2) 0.1377(4)
C46 C 0.4027(3) 0.78434(19) 0.2442(4)
H16 H 0.3863 0.7722 0.1985
H17 H 0.3744 0.7988 0.2469
C47 C 0.1797(3) 0.5714(2) 0.6290(5)
H18 H 0.1620 0.5962 0.6133
H19 H 0.1557 0.5521 0.5963
C48 C 0.2271(3) 0.7141(2) 0.1108(4)
H20 H 0.2221 0.7375 0.1311
H21 H 0.2550 0.7190 0.0982
O23 O 0.4506(4) 0.6474(2) 0.4951(6)
C49 C 0.4805(4) 0.7118(2) 0.1142(4)
H22 H 0.4802 0.7007 0.0734
H23 H 0.4433 0.7189 0.1006
C50 C 0.3036(3) 0.6404(2) -0.0191(4)
H24 H 0.3103 0.6657 0.0025
H25 H 0.3245 0.6385 -0.0431
O24 O 0.3030(4) 0.4490(3) 0.3112(5)
O25 O 0.4211(4) 0.5556(3) 0.8577(5)
O26 O 0.3469(4) 0.5000 0.2277(7)
O27 O 0.3361(3) 0.5988(3) 0.4057(5)
O28 O 0.5937(5) 0.5957(3) 0.4105(5)
C51 C 0.0312(3) 0.5632(4) 0.2955(5)
H26 H 0.0377 0.5394 0.2776
H27 H 0.0278 0.5837 0.2636
O29 O 0.4371(4) 0.5468(3) 0.6715(5)
O30 O 0.4357(8) 0.5000 0.2363(7)
C52 C 0.4448(5) 0.8111(3) 0.2502(6)
H28 H 0.4717 0.7973 0.2433
H29 H 0.4633 0.8222 0.2970
C53 C 0.5149(5) 0.7471(4) 0.1354(7)
H30 H 0.4992 0.7666 0.0991
H31 H 0.5188 0.7576 0.1787
C54 C 0.1755(4) 0.7047(3) 0.0469(5)
H32 H 0.1477 0.6979 0.0587
H33 H 0.1808 0.6829 0.0231
C55 C 0.2452(4) 0.6372(3) -0.0711(5)
H34 H 0.2237 0.6373 -0.0477
H35 H 0.2383 0.6131 -0.0967
C56 C 0.1865(5) 0.5636(5) 0.6955(7)
H36 H 0.2114 0.5824 0.7285
H37 H 0.2032 0.5384 0.7106
N1 N 0.3750(6) 0.8050(3) 0.5630(7)
C57 C -0.0221(10) 0.5597(9) 0.2960(13)
H38 H -0.0259 0.5344 0.3120
H39 H -0.0249 0.5792 0.3257
C58 C 0.3449(8) 0.8278(4) 0.5031(7)
H40 H 0.3393 0.8529 0.5169
H41 H 0.3645 0.8302 0.4780
H42 H 0.3101 0.8159 0.4734
C59 C 0.3870(5) 0.7693(3) 0.5550(7)
O31 O 0.1826(8) 0.7456(6) -0.0388(9)
C60 C 0.3916(10) 0.8164(7) 0.6359(10)
H43 H 0.3813 0.8427 0.6365
H44 H 0.3738 0.8001 0.6538
H45 H 0.4305 0.8139 0.6648
C61 C 0.4192(7) 0.8443(5) 0.1944(13)
H46 H 0.3961 0.8328 0.1488
H47 H 0.3960 0.8599 0.2057
C62 C 0.1345(10) 0.5644(9) 0.6977(13)
H48 H 0.1076 0.5475 0.6621
H49 H 0.1197 0.5903 0.6898
C63 C 0.2286(12) 0.6725(7) -0.1235(13)
H50 H 0.1940 0.6678 -0.1658
H51 H 0.2563 0.6776 -0.1362
O32 O -0.0623(7) 0.5656(5) 0.2234(10)
O33 O 0.2238(7) 0.7073(5) -0.0795(9)
O34 O 0.5651(7) 0.7256(5) 0.0747(10)
O35 O 0.1493(7) 0.5505(5) 0.7703(10)
C64 C 0.5667(10) 0.7341(8) 0.1452(13)
H52 H 0.5776 0.7109 0.1736
H53 H 0.5941 0.7537 0.1705
O36 O 0.4522(8) 0.8654(5) 0.1904(9)
C65 C 0.1582(12) 0.7396(8) 0.0001(14)
H54 H 0.1191 0.7378 -0.0316
H55 H 0.1645 0.7621 0.0293
O37 O 0.2324(4) 0.7019(3) 0.3880(6)
O38 O 0.6846(5) 0.7005(3) 0.3941(7)
O39 O 0.4531(7) 0.5000 0.0421(10)
O1E O 0.22086(16) 0.38353(12) 0.3756(2)
O4E O 0.31331(17) 0.38343(13) 0.6178(2)
O6E O 0.18871(18) 0.43345(12) 0.2883(3)
O11E O 0.34850(17) 0.43342(12) 0.7058(2)
O15E O 0.30307(18) 0.36129(13) 0.4966(2)
C4E C 0.2638(2) 0.38273(16) 0.4963(3)
C5E C 0.2205(2) 0.39380(16) 0.4335(3)
C8E C 0.3183(3) 0.46586(17) 0.6863(3)
C11E C 0.2673(2) 0.39404(18) 0.5581(3)
C12E C 0.1833(2) 0.42515(17) 0.4954(3)
H3E H 0.1553 0.4395 0.4951
C15E C 0.1729(2) 0.46563(16) 0.3074(3)
C17E C 0.1787(2) 0.41532(17) 0.4330(3)
C18E C 0.2622(2) 0.46534(18) 0.6489(3)
C20E C 0.1458(2) 0.46544(17) 0.3441(3)
C21E C 0.1326(2) 0.42780(17) 0.3652(3)
H4E H 0.1287 0.4088 0.3301
C32E C 0.2269(2) 0.41512(17) 0.5592(3)
C36E C 0.2326(3) 0.42819(19) 0.6268(4)
H7E H 0.2562 0.4092 0.6619
C44E C 0.0788(3) 0.4288(2) 0.3649(4)
H13E H 0.0808 0.4485 0.3976
H14E H 0.0733 0.4042 0.3815
C47E C 0.1797(3) 0.4286(2) 0.6290(5)
H18E H 0.1620 0.4038 0.6133
H19E H 0.1557 0.4479 0.5963
C51E C 0.0312(3) 0.4368(4) 0.2955(5)
H26E H 0.0377 0.4606 0.2776
H27E H 0.0278 0.4163 0.2636
C56E C 0.1865(5) 0.4364(5) 0.6955(7)
H36E H 0.2114 0.4176 0.7285
H37E H 0.2032 0.4616 0.7106
C57E C -0.0221(10) 0.4403(9) 0.2960(13)
H38E H -0.0259 0.4656 0.3120
H39E H -0.0249 0.4208 0.3257
C62E C 0.1345(10) 0.4356(9) 0.6977(13)
H48E H 0.1076 0.4525 0.6621
H49E H 0.1197 0.4097 0.6898
O32E O -0.0623(7) 0.4344(5) 0.2234(10)
O35E O 0.1493(7) 0.4495(5) 0.7703(10)
Mg1A Mg 0.58587(8) 0.70266(6) 0.50186(12)
Mg2A Mg 0.72742(15) 0.5000 0.87092(18)
Mg3A Mg 0.57182(10) 0.55256(7) 0.23666(15)
Mg4A Mg 0.78045(12) 0.44656(7) 0.77352(16)
Mg5A Mg 0.71277(14) 0.64711(12) 0.60041(15)
Mg6A Mg 0.36226(13) 0.64606(13) 0.59361(15)
Mg7A Mg 0.55843(17) 0.5000 0.8524(3)
O1A O 0.77914(16) 0.61647(12) 0.6244(2)
O2A O 0.73566(16) 0.65795(13) 0.6999(2)
O3A O 0.41435(17) 0.65709(13) 0.6938(2)
O4A O 0.68669(17) 0.61657(13) 0.3822(2)
O5A O 0.48639(16) 0.72218(13) 0.5758(2)
O6A O 0.81129(18) 0.56655(12) 0.7117(3)
O7A O 0.40922(16) 0.68077(14) 0.5775(2)
O8A O 0.57301(16) 0.72350(13) 0.5775(2)
O9A O 0.65293(16) 0.68185(13) 0.5824(3)
O10A O 0.6001(2) 0.5000 0.2557(3)
O11A O 0.65150(17) 0.56658(12) 0.2942(2)
O12A O 0.7014(2) 0.54210(13) 0.9099(2)
O13A O 0.7889(3) 0.5000 0.7492(4)
O14A O 0.61315(19) 0.54099(14) 0.9037(3)
O15A O 0.69693(18) 0.63871(13) 0.5034(2)
O16A O 0.77044(18) 0.60900(12) 0.7907(2)
O17A O 0.7494(2) 0.54394(13) 0.8340(3)
O18A O 0.45053(19) 0.60755(13) 0.7805(3)
O19A O 0.6224(2) 0.75415(16) 0.4997(3)
O20A O 0.5066(2) 0.54313(14) 0.8210(3)
C1A C 0.6998(2) 0.68217(17) 0.7040(4)
C2A C 0.8672(3) 0.5000 0.6392(5)
H1A H 0.8863 0.5000 0.6148
C3A C 0.7371(3) 0.57719(17) 0.8542(3)
C4A C 0.7362(2) 0.61727(16) 0.5037(3)
C5A C 0.7795(2) 0.60620(16) 0.5665(3)
C6A C 0.6565(2) 0.69288(17) 0.6423(3)
C7A C 0.8139(3) 0.5000 0.7130(5)
C8A C 0.6817(3) 0.53414(17) 0.3137(3)
C9A C 0.4503(2) 0.69180(18) 0.6364(4)
C10A C 0.7644(4) 0.5000 0.3697(5)
H2A H 0.8023 0.5000 0.3962
C11A C 0.7327(2) 0.60596(18) 0.4419(3)
C12A C 0.8167(2) 0.57485(17) 0.5046(3)
H3A H 0.8447 0.5605 0.5049
C13A C 0.4917(2) 0.71500(17) 0.6385(4)
C14A C 0.4541(2) 0.68110(17) 0.6996(3)
C15A C 0.8271(2) 0.53437(16) 0.6926(3)
C16A C 0.6547(3) 0.5000 0.2931(5)
C17A C 0.8213(2) 0.58468(17) 0.5670(3)
C18A C 0.7378(2) 0.53466(18) 0.3511(3)
C19A C 0.7140(3) 0.57653(19) 0.8952(3)
C20A C 0.8542(2) 0.53456(17) 0.6559(3)
C21A C 0.8674(2) 0.57220(17) 0.6348(3)
H4A H 0.8713 0.5912 0.6699
C22A C 0.5340(3) 0.71738(17) 0.7611(4)
H5A H 0.5623 0.7265 0.8035
C23A C 0.5328(2) 0.72805(17) 0.7009(4)
O21A O 0.8025(3) 0.5000 0.9683(5)
C24A C 0.6162(2) 0.71591(18) 0.6413(3)
C25A C 0.5330(3) 0.57600(19) 0.8449(3)
C26A C 0.5048(3) 0.6100(2) 0.8257(4)
C27A C 0.5881(3) 0.5764(2) 0.8897(4)
C28A C 0.7053(2) 0.69534(17) 0.7658(3)
C29A C 0.6654(2) 0.71836(17) 0.7641(3)
H6A H 0.6687 0.7271 0.8061
C30A C 0.6203(2) 0.72909(16) 0.7015(4)
C31A C 0.7399(2) 0.64564(18) 0.8579(3)
C32A C 0.7731(2) 0.58488(17) 0.4408(3)
C33A C 0.7497(3) 0.61134(18) 0.8339(3)
C34A C 0.7029(3) 0.61026(19) 0.9196(3)
C35A C 0.4960(2) 0.69410(17) 0.7624(3)
C36A C 0.7674(3) 0.57181(19) 0.3732(4)
H7A H 0.7438 0.5908 0.3381
C37A C 0.6156(3) 0.6101(2) 0.9163(3)
C38A C 0.5863(3) 0.6431(2) 0.8961(3)
H8A H 0.6048 0.6662 0.9137
C39A C 0.7172(2) 0.64434(19) 0.8991(3)
H9A H 0.7105 0.6675 0.9148
C40A C 0.7536(2) 0.68252(17) 0.8352(3)
H10A H 0.7836 0.6770 0.8262
C41A C 0.5765(2) 0.75328(17) 0.7001(3)
H11A H 0.5590 0.7666 0.6548
C42A C 0.6760(3) 0.6096(2) 0.9612(3)
H12A H 0.6851 0.5846 0.9853
C43A C 0.5317(3) 0.64448(19) 0.8520(3)
C44A C 0.9212(3) 0.5712(2) 0.6351(4)
H13A H 0.9192 0.5515 0.6024
H14A H 0.9267 0.5958 0.6185
C45A C 0.5001(3) 0.6816(2) 0.8286(4)
H15A H 0.4628 0.6751 0.8172
O22A O 0.8629(3) 0.4457(2) 0.8623(4)
C46A C 0.5973(3) 0.78434(19) 0.7558(4)
H16A H 0.6137 0.7722 0.8015
H17A H 0.6256 0.7988 0.7531
C47A C 0.8203(3) 0.5714(2) 0.3710(5)
H18A H 0.8380 0.5962 0.3867
H19A H 0.8443 0.5521 0.4037
C48A C 0.7729(3) 0.7141(2) 0.8892(4)
H20A H 0.7779 0.7375 0.8689
H21A H 0.7450 0.7190 0.9018
O23A O 0.5494(4) 0.6474(2) 0.5049(6)
C49A C 0.5195(4) 0.7118(2) 0.8858(4)
H22A H 0.5198 0.7007 0.9266
H23A H 0.5567 0.7189 0.8994
C50A C 0.6964(3) 0.6404(2) 1.0191(4)
H24A H 0.6897 0.6657 0.9975
H25A H 0.6755 0.6385 1.0431
O24A O 0.6970(4) 0.4490(3) 0.6888(5)
O25A O 0.5789(4) 0.5556(3) 0.1423(5)
O26A O 0.6531(4) 0.5000 0.7723(7)
O27A O 0.6639(3) 0.5988(3) 0.5943(5)
O28A O 0.4063(5) 0.5957(3) 0.5895(5)
C51A C 0.9688(3) 0.5632(4) 0.7045(5)
H26A H 0.9623 0.5394 0.7224
H27A H 0.9722 0.5837 0.7364
O29A O 0.5629(4) 0.5468(3) 0.3285(5)
O30A O 0.5643(8) 0.5000 0.7637(7)
C52A C 0.5552(5) 0.8111(3) 0.7498(6)
H28A H 0.5283 0.7973 0.7567
H29A H 0.5367 0.8222 0.7030
C53A C 0.4851(5) 0.7471(4) 0.8646(7)
H30A H 0.5008 0.7666 0.9009
H31A H 0.4812 0.7576 0.8213
C54A C 0.8245(4) 0.7047(3) 0.9531(5)
H32A H 0.8523 0.6979 0.9413
H33A H 0.8192 0.6829 0.9769
C55A C 0.7548(4) 0.6372(3) 1.0711(5)
H34A H 0.7763 0.6373 1.0477
H35A H 0.7617 0.6131 1.0967
C56A C 0.8135(5) 0.5636(5) 0.3045(7)
H36A H 0.7886 0.5824 0.2715
H37A H 0.7968 0.5384 0.2894
N1A N 0.6250(6) 0.8050(3) 0.4370(7)
C57A C 1.0221(10) 0.5597(9) 0.7040(13)
H38A H 1.0259 0.5344 0.6880
H39A H 1.0249 0.5792 0.6743
C58A C 0.6551(8) 0.8278(4) 0.4969(7)
H40A H 0.6607 0.8529 0.4831
H41A H 0.6355 0.8302 0.5220
H42A H 0.6899 0.8159 0.5266
C59A C 0.6130(5) 0.7693(3) 0.4450(7)
O31A O 0.8174(8) 0.7456(6) 1.0388(9)
C60A C 0.6084(10) 0.8164(7) 0.3641(10)
H43A H 0.6187 0.8427 0.3635
H44A H 0.6262 0.8001 0.3462
H45A H 0.5695 0.8139 0.3352
C61A C 0.5808(7) 0.8443(5) 0.8056(13)
H46A H 0.6039 0.8328 0.8512
H47A H 0.6040 0.8599 0.7943
C62A C 0.8655(10) 0.5644(9) 0.3023(13)
H48A H 0.8924 0.5475 0.3379
H49A H 0.8803 0.5903 0.3102
C63A C 0.7714(12) 0.6725(7) 1.1235(13)
H50A H 0.8060 0.6678 1.1658
H51A H 0.7437 0.6776 1.1362
O32A O 1.0623(7) 0.5656(5) 0.7766(10)
O33A O 0.7762(7) 0.7073(5) 1.0795(9)
O34A O 0.4349(7) 0.7256(5) 0.9253(10)
O35A O 0.8507(7) 0.5505(5) 0.2297(10)
C64A C 0.4333(10) 0.7341(8) 0.8548(13)
H52A H 0.4224 0.7109 0.8264
H53A H 0.4059 0.7537 0.8295
O36A O 0.5478(8) 0.8654(5) 0.8096(9)
C65A C 0.8418(12) 0.7396(8) 0.9999(14)
H54A H 0.8809 0.7378 1.0316
H55A H 0.8355 0.7621 0.9707
O37A O 0.7676(4) 0.7019(3) 0.6120(6)
O38A O 0.3154(5) 0.7005(3) 0.6059(7)
O39A O 0.5469(7) 0.5000 0.9579(10)
O1D O 0.77914(16) 0.38353(12) 0.6244(2)
O4D O 0.68669(17) 0.38343(13) 0.3822(2)
O6D O 0.81129(18) 0.43345(12) 0.7117(3)
O11D O 0.65150(17) 0.43342(12) 0.2942(2)
O15D O 0.69693(18) 0.36129(13) 0.5034(2)
C4D C 0.7362(2) 0.38273(16) 0.5037(3)
C5D C 0.7795(2) 0.39380(16) 0.5665(3)
C8D C 0.6817(3) 0.46586(17) 0.3137(3)
C11D C 0.7327(2) 0.39404(18) 0.4419(3)
C12D C 0.8167(2) 0.42515(17) 0.5046(3)
H3D H 0.8447 0.4395 0.5049
C15D C 0.8271(2) 0.46563(16) 0.6926(3)
C17D C 0.8213(2) 0.41532(17) 0.5670(3)
C18D C 0.7378(2) 0.46534(18) 0.3511(3)
C20D C 0.8542(2) 0.46544(17) 0.6559(3)
C21D C 0.8674(2) 0.42780(17) 0.6348(3)
H4D H 0.8713 0.4088 0.6699
C32D C 0.7731(2) 0.41512(17) 0.4408(3)
C36D C 0.7674(3) 0.42819(19) 0.3732(4)
H7D H 0.7438 0.4092 0.3381
C44D C 0.9212(3) 0.4288(2) 0.6351(4)
H13D H 0.9192 0.4485 0.6024
H14D H 0.9267 0.4042 0.6185
C47D C 0.8203(3) 0.4286(2) 0.3710(5)
H18D H 0.8380 0.4038 0.3867
H19D H 0.8443 0.4479 0.4037
C51D C 0.9688(3) 0.4368(4) 0.7045(5)
H26D H 0.9623 0.4606 0.7224
H27D H 0.9722 0.4163 0.7364
C56D C 0.8135(5) 0.4364(5) 0.3045(7)
H36D H 0.7886 0.4176 0.2715
H37D H 0.7968 0.4616 0.2894
C57D C 1.0221(10) 0.4403(9) 0.7040(13)
H38D H 1.0259 0.4656 0.6880
H39D H 1.0249 0.4208 0.6743
C62D C 0.8655(10) 0.4356(9) 0.3023(13)
H48D H 0.8924 0.4525 0.3379
H49D H 0.8803 0.4097 0.3102
O32D O 1.0623(7) 0.4344(5) 0.7766(10)
O35D O 0.8507(7) 0.4495(5) 0.2297(10)
Mg1D Mg 0.58587(8) 0.29734(6) 0.50186(12)
Mg3D Mg 0.57182(10) 0.44744(7) 0.23666(15)
Mg4D Mg 0.78045(12) 0.55344(7) 0.77352(16)
Mg5D Mg 0.71277(14) 0.35289(12) 0.60041(15)
Mg6D Mg 0.36226(13) 0.35394(13) 0.59361(15)
O2D O 0.73566(16) 0.34205(13) 0.6999(2)
O3D O 0.41435(17) 0.34291(13) 0.6938(2)
O5D O 0.48639(16) 0.27782(13) 0.5758(2)
O7D O 0.40922(16) 0.31923(14) 0.5775(2)
O8D O 0.57301(16) 0.27650(13) 0.5775(2)
O9D O 0.65293(16) 0.31815(13) 0.5824(3)
O12D O 0.7014(2) 0.45790(13) 0.9099(2)
O14D O 0.61315(19) 0.45901(14) 0.9037(3)
O16D O 0.77044(18) 0.39100(12) 0.7907(2)
O17D O 0.7494(2) 0.45606(13) 0.8340(3)
O18D O 0.45053(19) 0.39245(13) 0.7805(3)
O19D O 0.6224(2) 0.24585(16) 0.4997(3)
O20D O 0.5066(2) 0.45687(14) 0.8210(3)
C1D C 0.6998(2) 0.31783(17) 0.7040(4)
C3D C 0.7371(3) 0.42281(17) 0.8542(3)
C6D C 0.6565(2) 0.30712(17) 0.6423(3)
C9D C 0.4503(2) 0.30820(18) 0.6364(4)
C13D C 0.4917(2) 0.28500(17) 0.6385(4)
C14D C 0.4541(2) 0.31890(17) 0.6996(3)
C19D C 0.7140(3) 0.42347(19) 0.8952(3)
C22D C 0.5340(3) 0.28262(17) 0.7611(4)
H5D H 0.5623 0.2735 0.8035
C23D C 0.5328(2) 0.27195(17) 0.7009(4)
C24D C 0.6162(2) 0.28409(18) 0.6413(3)
C25D C 0.5330(3) 0.42400(19) 0.8449(3)
C26D C 0.5048(3) 0.3900(2) 0.8257(4)
C27D C 0.5881(3) 0.4236(2) 0.8897(4)
C28D C 0.7053(2) 0.30466(17) 0.7658(3)
C29D C 0.6654(2) 0.28164(17) 0.7641(3)
H6D H 0.6687 0.2729 0.8061
C30D C 0.6203(2) 0.27091(16) 0.7015(4)
C31D C 0.7399(2) 0.35436(18) 0.8579(3)
C33D C 0.7497(3) 0.38866(18) 0.8339(3)
C34D C 0.7029(3) 0.38974(19) 0.9196(3)
C35D C 0.4960(2) 0.30590(17) 0.7624(3)
C37D C 0.6156(3) 0.3899(2) 0.9163(3)
C38D C 0.5863(3) 0.3569(2) 0.8961(3)
H8D H 0.6048 0.3338 0.9137
C39D C 0.7172(2) 0.35566(19) 0.8991(3)
H9D H 0.7105 0.3325 0.9148
C40D C 0.7536(2) 0.31748(17) 0.8352(3)
H10D H 0.7836 0.3230 0.8262
C41D C 0.5765(2) 0.24672(17) 0.7001(3)
H11D H 0.5590 0.2334 0.6548
C42D C 0.6760(3) 0.3904(2) 0.9612(3)
H12D H 0.6851 0.4154 0.9853
C43D C 0.5317(3) 0.35552(19) 0.8520(3)
C45D C 0.5001(3) 0.3184(2) 0.8286(4)
H15D H 0.4628 0.3249 0.8172
O22D O 0.8629(3) 0.5543(2) 0.8623(4)
C46D C 0.5973(3) 0.21566(19) 0.7558(4)
H16D H 0.6137 0.2278 0.8015
H17D H 0.6256 0.2012 0.7531
C48D C 0.7729(3) 0.2859(2) 0.8892(4)
H20D H 0.7779 0.2625 0.8689
H21D H 0.7450 0.2810 0.9018
O23D O 0.5494(4) 0.3526(2) 0.5049(6)
C49D C 0.5195(4) 0.2882(2) 0.8858(4)
H22D H 0.5198 0.2993 0.9266
H23D H 0.5567 0.2811 0.8994
C50D C 0.6964(3) 0.3596(2) 1.0191(4)
H24D H 0.6897 0.3343 0.9975
H25D H 0.6755 0.3615 1.0431
O24D O 0.6970(4) 0.5510(3) 0.6888(5)
O25D O 0.5789(4) 0.4444(3) 0.1423(5)
O27D O 0.6639(3) 0.4012(3) 0.5943(5)
O28D O 0.4063(5) 0.4043(3) 0.5895(5)
O29D O 0.5629(4) 0.4532(3) 0.3285(5)
C52D C 0.5552(5) 0.1889(3) 0.7498(6)
H28D H 0.5283 0.2027 0.7567
H29D H 0.5367 0.1778 0.7030
C53D C 0.4851(5) 0.2529(4) 0.8646(7)
H30D H 0.5008 0.2334 0.9009
H31D H 0.4812 0.2424 0.8213
C54D C 0.8245(4) 0.2953(3) 0.9531(5)
H32D H 0.8523 0.3021 0.9413
H33D H 0.8192 0.3171 0.9769
C55D C 0.7548(4) 0.3628(3) 1.0711(5)
H34D H 0.7763 0.3627 1.0477
H35D H 0.7617 0.3869 1.0967
N1D N 0.6250(6) 0.1950(3) 0.4370(7)
C58D C 0.6551(8) 0.1722(4) 0.4969(7)
H40D H 0.6607 0.1471 0.4831
H41D H 0.6355 0.1698 0.5220
H42D H 0.6899 0.1841 0.5266
C59D C 0.6130(5) 0.2307(3) 0.4450(7)
O31D O 0.8174(8) 0.2544(6) 1.0388(9)
C60D C 0.6084(10) 0.1836(7) 0.3641(10)
H43D H 0.6187 0.1573 0.3635
H44D H 0.6262 0.1999 0.3462
H45D H 0.5695 0.1861 0.3352
C61D C 0.5808(7) 0.1557(5) 0.8056(13)
H46D H 0.6039 0.1672 0.8512
H47D H 0.6040 0.1401 0.7943
C63D C 0.7714(12) 0.3275(7) 1.1235(13)
H50D H 0.8060 0.3322 1.1658
H51D H 0.7437 0.3224 1.1362
O33D O 0.7762(7) 0.2927(5) 1.0795(9)
O34D O 0.4349(7) 0.2744(5) 0.9253(10)
C64D C 0.4333(10) 0.2659(8) 0.8548(13)
H52D H 0.4224 0.2891 0.8264
H53D H 0.4059 0.2463 0.8295
O36D O 0.5478(8) 0.1346(5) 0.8096(9)
C65D C 0.8418(12) 0.2604(8) 0.9999(14)
H54D H 0.8809 0.2622 1.0316
H55D H 0.8355 0.2379 0.9707
O37D O 0.7676(4) 0.2981(3) 0.6120(6)
O38D O 0.3154(5) 0.2995(3) 0.6059(7)
Mg1E Mg 0.41413(8) 0.29734(6) 0.49814(12)
Mg3E Mg 0.42818(10) 0.44744(7) 0.76334(15)
Mg4E Mg 0.21955(12) 0.55344(7) 0.22648(16)
Mg5E Mg 0.28723(14) 0.35289(12) 0.39959(15)
Mg6E Mg 0.63774(13) 0.35394(13) 0.40639(15)
O2E O 0.26434(16) 0.34205(13) 0.3001(2)
O3E O 0.58565(17) 0.34291(13) 0.3062(2)
O5E O 0.51361(16) 0.27782(13) 0.4242(2)
O7E O 0.59078(16) 0.31923(14) 0.4225(2)
O8E O 0.42699(16) 0.27650(13) 0.4225(2)
O9E O 0.34707(16) 0.31815(13) 0.4176(3)
O12E O 0.2986(2) 0.45790(13) 0.0901(2)
O14E O 0.38685(19) 0.45901(14) 0.0963(3)
O16E O 0.22956(18) 0.39100(12) 0.2093(2)
O17E O 0.2506(2) 0.45606(13) 0.1660(3)
O18E O 0.54947(19) 0.39245(13) 0.2195(3)
O19E O 0.3776(2) 0.24585(16) 0.5003(3)
O20E O 0.4934(2) 0.45687(14) 0.1790(3)
C1E C 0.3002(2) 0.31783(17) 0.2960(4)
C3E C 0.2629(3) 0.42281(17) 0.1458(3)
C6E C 0.3435(2) 0.30712(17) 0.3577(3)
C9E C 0.5497(2) 0.30820(18) 0.3636(4)
C13E C 0.5083(2) 0.28500(17) 0.3615(4)
C14E C 0.5459(2) 0.31890(17) 0.3004(3)
C19E C 0.2860(3) 0.42347(19) 0.1048(3)
C22E C 0.4660(3) 0.28262(17) 0.2389(4)
H5E H 0.4377 0.2735 0.1965
C23E C 0.4672(2) 0.27195(17) 0.2991(4)
C24E C 0.3838(2) 0.28409(18) 0.3587(3)
C25E C 0.4670(3) 0.42400(19) 0.1551(3)
C26E C 0.4952(3) 0.3900(2) 0.1743(4)
C27E C 0.4119(3) 0.4236(2) 0.1103(4)
C28E C 0.2947(2) 0.30466(17) 0.2342(3)
C29E C 0.3346(2) 0.28164(17) 0.2359(3)
H6E H 0.3313 0.2729 0.1939
C30E C 0.3797(2) 0.27091(16) 0.2985(4)
C31E C 0.2601(2) 0.35436(18) 0.1421(3)
C33E C 0.2503(3) 0.38866(18) 0.1661(3)
C34E C 0.2971(3) 0.38974(19) 0.0804(3)
C35E C 0.5040(2) 0.30590(17) 0.2376(3)
C37E C 0.3844(3) 0.3899(2) 0.0837(3)
C38E C 0.4137(3) 0.3569(2) 0.1039(3)
H8E H 0.3952 0.3338 0.0863
C39E C 0.2828(2) 0.35566(19) 0.1009(3)
H9E H 0.2895 0.3325 0.0852
C40E C 0.2464(2) 0.31748(17) 0.1648(3)
H10E H 0.2164 0.3230 0.1738
C41E C 0.4235(2) 0.24672(17) 0.2999(3)
H11E H 0.4410 0.2334 0.3452
C42E C 0.3240(3) 0.3904(2) 0.0388(3)
H12E H 0.3149 0.4154 0.0147
C43E C 0.4683(3) 0.35552(19) 0.1480(3)
C45E C 0.4999(3) 0.3184(2) 0.1714(4)
H15E H 0.5372 0.3249 0.1828
O22E O 0.1371(3) 0.5543(2) 0.1377(4)
C46E C 0.4027(3) 0.21566(19) 0.2442(4)
H16E H 0.3863 0.2278 0.1985
H17E H 0.3744 0.2012 0.2469
C48E C 0.2271(3) 0.2859(2) 0.1108(4)
H20E H 0.2221 0.2625 0.1311
H21E H 0.2550 0.2810 0.0982
O23E O 0.4506(4) 0.3526(2) 0.4951(6)
C49E C 0.4805(4) 0.2882(2) 0.1142(4)
H22E H 0.4802 0.2993 0.0734
H23E H 0.4433 0.2811 0.1006
C50E C 0.3036(3) 0.3596(2) -0.0191(4)
H24E H 0.3103 0.3343 0.0025
H25E H 0.3245 0.3615 -0.0431
O24E O 0.3030(4) 0.5510(3) 0.3112(5)
O25E O 0.4211(4) 0.4444(3) 0.8577(5)
O27E O 0.3361(3) 0.4012(3) 0.4057(5)
O28E O 0.5937(5) 0.4043(3) 0.4105(5)
O29E O 0.4371(4) 0.4532(3) 0.6715(5)
C52E C 0.4448(5) 0.1889(3) 0.2502(6)
H28E H 0.4717 0.2027 0.2433
H29E H 0.4633 0.1778 0.2970
C53E C 0.5149(5) 0.2529(4) 0.1354(7)
H30E H 0.4992 0.2334 0.0991
H31E H 0.5188 0.2424 0.1787
C54E C 0.1755(4) 0.2953(3) 0.0469(5)
H32E H 0.1477 0.3021 0.0587
H33E H 0.1808 0.3171 0.0231
C55E C 0.2452(4) 0.3628(3) -0.0711(5)
H34E H 0.2237 0.3627 -0.0477
H35E H 0.2383 0.3869 -0.0967
N1E N 0.3750(6) 0.1950(3) 0.5630(7)
C58E C 0.3449(8) 0.1722(4) 0.5031(7)
H40E H 0.3393 0.1471 0.5169
H41E H 0.3645 0.1698 0.4780
H42E H 0.3101 0.1841 0.4734
C59E C 0.3870(5) 0.2307(3) 0.5550(7)
O31E O 0.1826(8) 0.2544(6) -0.0388(9)
C60E C 0.3916(10) 0.1836(7) 0.6359(10)
H43E H 0.3813 0.1573 0.6365
H44E H 0.3738 0.1999 0.6538
H45E H 0.4305 0.1861 0.6648
C61E C 0.4192(7) 0.1557(5) 0.1944(13)
H46E H 0.3961 0.1672 0.1488
H47E H 0.3960 0.1401 0.2057
C63E C 0.2286(12) 0.3275(7) -0.1235(13)
H50E H 0.1940 0.3322 -0.1658
H51E H 0.2563 0.3224 -0.1362
O33E O 0.2238(7) 0.2927(5) -0.0795(9)
O34E O 0.5651(7) 0.2744(5) 0.0747(10)
C64E C 0.5667(10) 0.2659(8) 0.1452(13)
H52E H 0.5776 0.2891 0.1736
H53E H 0.5941 0.2463 0.1705
O36E O 0.4522(8) 0.1346(5) 0.1904(9)
C65E C 0.1582(12) 0.2604(8) 0.0001(14)
H54E H 0.1191 0.2622 -0.0316
H55E H 0.1645 0.2379 0.0293
O37E O 0.2324(4) 0.2981(3) 0.3880(6)
O38E O 0.6846(5) 0.2995(3) 0.3941(7)
loop_
_geom_bond_atom_site_label_1
_geom_bond_atom_site_label_2
_geom_bond_site_symmetry_1
_geom_bond_site_symmetry_2
Mg1 O8 1_555 1_555
Mg2 O12 1_555 1_555
Mg3 O10 1_555 1_555
Mg4 O13 1_555 1_555
Mg5 O1 1_555 1_555
Mg6 O3 1_555 1_555
Mg7 O14 1_555 1_555
O1 C5 1_555 1_555
O2 Mg5 1_555 1_555
O3 C14 1_555 1_555
O4 C11 1_555 1_555
O5 C13 1_555 1_555
O6 C15 1_555 1_555
O7 Mg6 1_555 1_555
O8 C24 1_555 1_555
O9 Mg1 1_555 1_555
O10 C16 1_555 1_555
O11 Mg3 1_555 1_555
O12 C19 1_555 1_555
O13 C7 1_555 1_555
O14 C27 1_555 1_555
O15 Mg5 1_555 1_555
O16 C33 1_555 1_555
O17 Mg2 1_555 1_555
O18 C26 1_555 1_555
O19 Mg1 1_555 1_555
O20 Mg7 1_555 1_555
C1 O2 1_555 1_555
C2 H1 1_555 1_555
C3 O17 1_555 1_555
C4 O15 1_555 1_555
C5 C4 1_555 1_555
C6 O9 1_555 1_555
C7 C15 1_555 1_555
C8 O11 1_555 1_555
C9 O7 1_555 1_555
C10 H2 1_555 1_555
C11 C4 1_555 1_555
C12 H3 1_555 1_555
C13 C9 1_555 1_555
C14 C9 1_555 1_555
C15 C20 1_555 1_555
C16 C8 1_555 1_555
C17 C5 1_555 1_555
C18 C8 1_555 1_555
C19 C3 1_555 1_555
C20 C2 1_555 1_555
C21 C17 1_555 1_555
H4 C21 1_555 1_555
C22 H5 1_555 1_555
C23 C13 1_555 1_555
O21 Mg2 1_555 1_555
C24 C6 1_555 1_555
C25 O20 1_555 1_555
C26 C25 1_555 1_555
C27 C25 1_555 1_555
C28 C1 1_555 1_555
C29 C28 1_555 1_555
H6 C29 1_555 1_555
C30 C24 1_555 1_555
C31 C33 1_555 1_555
C32 C11 1_555 1_555
C33 C3 1_555 1_555
C34 C19 1_555 1_555
C35 C14 1_555 1_555
C36 C18 1_555 1_555
H7 C36 1_555 1_555
C37 C27 1_555 1_555
C38 C37 1_555 1_555
H8 C38 1_555 1_555
C39 C31 1_555 1_555
H9 C39 1_555 1_555
C40 C28 1_555 1_555
H10 C40 1_555 1_555
C41 C23 1_555 1_555
H11 C41 1_555 1_555
C42 C34 1_555 1_555
H12 C42 1_555 1_555
C43 C26 1_555 1_555
C44 C21 1_555 1_555
H13 C44 1_555 1_555
H14 C44 1_555 1_555
C45 C35 1_555 1_555
H15 C45 1_555 1_555
O22 Mg4 1_555 1_555
C46 C41 1_555 1_555
H16 C46 1_555 1_555
H17 C46 1_555 1_555
C47 C36 1_555 1_555
H18 C47 1_555 1_555
H19 C47 1_555 1_555
C48 C40 1_555 1_555
H20 C48 1_555 1_555
H21 C48 1_555 1_555
O23 Mg1 1_555 1_555
C49 C45 1_555 1_555
H22 C49 1_555 1_555
H23 C49 1_555 1_555
C50 C42 1_555 1_555
H24 C50 1_555 1_555
H25 C50 1_555 1_555
O24 Mg4 1_555 1_555
O25 Mg3 1_555 1_555
O26 Mg2 1_555 1_555
O27 Mg5 1_555 1_555
O28 Mg6 1_555 1_555
C51 C44 1_555 1_555
H26 C51 1_555 1_555
H27 C51 1_555 1_555
O29 Mg3 1_555 1_555
O30 Mg7 1_555 1_555
C52 C46 1_555 1_555
H28 C52 1_555 1_555
H29 C52 1_555 1_555
C53 C49 1_555 1_555
H30 C53 1_555 1_555
H31 C53 1_555 1_555
C54 C48 1_555 1_555
H32 C54 1_555 1_555
H33 C54 1_555 1_555
C55 C50 1_555 1_555
H34 C55 1_555 1_555
H35 C55 1_555 1_555
C56 C47 1_555 1_555
H36 C56 1_555 1_555
H37 C56 1_555 1_555
N1 C58 1_555 1_555
C57 C51 1_555 1_555
H38 C57 1_555 1_555
H39 C57 1_555 1_555
C58 H40 1_555 1_555
H41 C58 1_555 1_555
H42 C58 1_555 1_555
C59 O19 1_555 1_555
O31 C65 1_555 1_555
C60 N1 1_555 1_555
H43 C60 1_555 1_555
H44 C60 1_555 1_555
H45 C60 1_555 1_555
C61 C52 1_555 1_555
H46 C61 1_555 1_555
H47 C61 1_555 1_555
C62 C56 1_555 1_555
H48 C62 1_555 1_555
H49 C62 1_555 1_555
C63 C55 1_555 1_555
H50 C63 1_555 1_555
H51 C63 1_555 1_555
O32 C57 1_555 1_555
O33 C63 1_555 1_555
O34 C64 1_555 1_555
O35 C62 1_555 1_555
C64 C53 1_555 1_555
H52 C64 1_555 1_555
H53 C64 1_555 1_555
O36 C61 1_555 1_555
C65 C54 1_555 1_555
H54 C65 1_555 1_555
H55 C65 1_555 1_555
O37 Mg5 1_555 1_555
O38 Mg6 1_555 1_555
O39 Mg7 1_555 1_555
O1E C5E 1_555 1_555
O4E C11E 1_555 1_555
O6E Mg4 1_555 1_555
O11E C8E 1_555 1_555
O15E C4E 1_555 1_555
C4E C5E 1_555 1_555
C5E C17E 1_555 1_555
C8E C16 1_555 1_555
C11E C4E 1_555 1_555
C12E H3E 1_555 1_555
C15E C7 1_555 1_555
C17E C12E 1_555 1_555
C18E C10 1_555 1_555
C20E C2 1_555 1_555
C21E C17E 1_555 1_555
H4E C21E 1_555 1_555
C32E C11E 1_555 1_555
C36E C18E 1_555 1_555
H7E C36E 1_555 1_555
C44E C21E 1_555 1_555
H13E C44E 1_555 1_555
H14E C44E 1_555 1_555
C47E C36E 1_555 1_555
H18E C47E 1_555 1_555
H19E C47E 1_555 1_555
C51E C44E 1_555 1_555
H26E C51E 1_555 1_555
H27E C51E 1_555 1_555
C56E C47E 1_555 1_555
H36E C56E 1_555 1_555
H37E C56E 1_555 1_555
C57E C51E 1_555 1_555
H38E C57E 1_555 1_555
H39E C57E 1_555 1_555
C62E C56E 1_555 1_555
H48E C62E 1_555 1_555
H49E C62E 1_555 1_555
O32E C57E 1_555 1_555
O35E C62E 1_555 1_555
Mg1A O5 1_555 1_555
Mg2A O12A 1_555 1_555
Mg3A O18 1_555 1_555
Mg4A O13A 1_555 1_555
Mg5A O1A 1_555 1_555
Mg6A O4 1_555 1_555
Mg7A O14A 1_555 1_555
O1A C5A 1_555 1_555
O2A Mg5A 1_555 1_555
O3A Mg6A 1_555 1_555
O4A Mg6 1_555 1_555
O5A Mg1 1_555 1_555
O6A C15A 1_555 1_555
O7A Mg1 1_555 1_555
O8A Mg1A 1_555 1_555
O9A Mg1A 1_555 1_555
O10A Mg3A 1_555 1_555
O11A Mg3A 1_555 1_555
O12A C19A 1_555 1_555
O13A C7A 1_555 1_555
O14A C27A 1_555 1_555
O15A Mg6 1_555 1_555
O16A C33A 1_555 1_555
O17A Mg2A 1_555 1_555
O18A Mg3 1_555 1_555
O19A Mg1A 1_555 1_555
O20A Mg3 1_555 1_555
C1A O2A 1_555 1_555
C2A H1A 1_555 1_555
C3A O17A 1_555 1_555
C4A O15A 1_555 1_555
C5A C4A 1_555 1_555
C6A O9A 1_555 1_555
C7A C15A 1_555 1_555
C8A O11A 1_555 1_555
C9A O7A 1_555 1_555
C10A H2A 1_555 1_555
C11A O4A 1_555 1_555
C12A H3A 1_555 1_555
C13A O5A 1_555 1_555
C14A O3A 1_555 1_555
C15A C20A 1_555 1_555
C16A O10A 1_555 1_555
C17A C5A 1_555 1_555
C18A C8A 1_555 1_555
C19A C3A 1_555 1_555
C20A C2A 1_555 1_555
C21A C17A 1_555 1_555
H4A C21A 1_555 1_555
C22A H5A 1_555 1_555
C23A C13A 1_555 1_555
O21A Mg2A 1_555 1_555
C24A O8A 1_555 1_555
C25A O20A 1_555 1_555
C26A O18A 1_555 1_555
C27A C25A 1_555 1_555
C28A C1A 1_555 1_555
C29A C28A 1_555 1_555
H6A C29A 1_555 1_555
C30A C24A 1_555 1_555
C31A C33A 1_555 1_555
C32A C11A 1_555 1_555
C33A C3A 1_555 1_555
C34A C19A 1_555 1_555
C35A C14A 1_555 1_555
C36A C18A 1_555 1_555
H7A C36A 1_555 1_555
C37A C27A 1_555 1_555
C38A C37A 1_555 1_555
H8A C38A 1_555 1_555
C39A C31A 1_555 1_555
H9A C39A 1_555 1_555
C40A C28A 1_555 1_555
H10A C40A 1_555 1_555
C41A C23A 1_555 1_555
H11A C41A 1_555 1_555
C42A C34A 1_555 1_555
H12A C42A 1_555 1_555
C43A C26A 1_555 1_555
C44A C21A 1_555 1_555
H13A C44A 1_555 1_555
H14A C44A 1_555 1_555
C45A C35A 1_555 1_555
H15A C45A 1_555 1_555
O22A Mg4A 1_555 1_555
C46A C41A 1_555 1_555
H16A C46A 1_555 1_555
H17A C46A 1_555 1_555
C47A C36A 1_555 1_555
H18A C47A 1_555 1_555
H19A C47A 1_555 1_555
C48A C40A 1_555 1_555
H20A C48A 1_555 1_555
H21A C48A 1_555 1_555
O23A Mg1A 1_555 1_555
C49A C45A 1_555 1_555
H22A C49A 1_555 1_555
H23A C49A 1_555 1_555
C50A C42A 1_555 1_555
H24A C50A 1_555 1_555
H25A C50A 1_555 1_555
O24A Mg4A 1_555 1_555
O25A Mg3A 1_555 1_555
O26A Mg2A 1_555 1_555
O27A Mg5A 1_555 1_555
O28A Mg6A 1_555 1_555
C51A C44A 1_555 1_555
H26A C51A 1_555 1_555
H27A C51A 1_555 1_555
O29A Mg3A 1_555 1_555
O30A Mg7A 1_555 1_555
C52A C46A 1_555 1_555
H28A C52A 1_555 1_555
H29A C52A 1_555 1_555
C53A C49A 1_555 1_555
H30A C53A 1_555 1_555
H31A C53A 1_555 1_555
C54A C48A 1_555 1_555
H32A C54A 1_555 1_555
H33A C54A 1_555 1_555
C55A C50A 1_555 1_555
H34A C55A 1_555 1_555
H35A C55A 1_555 1_555
C56A C47A 1_555 1_555
H36A C56A 1_555 1_555
H37A C56A 1_555 1_555
N1A C58A 1_555 1_555
C57A C51A 1_555 1_555
H38A C57A 1_555 1_555
H39A C57A 1_555 1_555
C58A H40A 1_555 1_555
H41A C58A 1_555 1_555
H42A C58A 1_555 1_555
C59A O19A 1_555 1_555
O31A C65A 1_555 1_555
C60A N1A 1_555 1_555
H43A C60A 1_555 1_555
H44A C60A 1_555 1_555
H45A C60A 1_555 1_555
C61A C52A 1_555 1_555
H46A C61A 1_555 1_555
H47A C61A 1_555 1_555
C62A C56A 1_555 1_555
H48A C62A 1_555 1_555
H49A C62A 1_555 1_555
C63A C55A 1_555 1_555
H50A C63A 1_555 1_555
H51A C63A 1_555 1_555
O32A C57A 1_555 1_555
O33A C63A 1_555 1_555
O34A C64A 1_555 1_555
O35A C62A 1_555 1_555
C64A C53A 1_555 1_555
H52A C64A 1_555 1_555
H53A C64A 1_555 1_555
O36A C61A 1_555 1_555
C65A C54A 1_555 1_555
H54A C65A 1_555 1_555
H55A C65A 1_555 1_555
O37A Mg5A 1_555 1_555
O38A Mg6A 1_555 1_555
O39A Mg7A 1_555 1_555
O1D C5D 1_555 1_555
O4D C11D 1_555 1_555
O6D Mg4A 1_555 1_555
O11D C8D 1_555 1_555
O15D C4D 1_555 1_555
C4D C5D 1_555 1_555
C5D C17D 1_555 1_555
C8D C16A 1_555 1_555
C11D C4D 1_555 1_555
C12D H3D 1_555 1_555
C15D C7A 1_555 1_555
C17D C12D 1_555 1_555
C18D C10A 1_555 1_555
C20D C2A 1_555 1_555
C21D C17D 1_555 1_555
H4D C21D 1_555 1_555
C32D C11D 1_555 1_555
C36D C18D 1_555 1_555
H7D C36D 1_555 1_555
C44D C21D 1_555 1_555
H13D C44D 1_555 1_555
H14D C44D 1_555 1_555
C47D C36D 1_555 1_555
H18D C47D 1_555 1_555
H19D C47D 1_555 1_555
C51D C44D 1_555 1_555
H26D C51D 1_555 1_555
H27D C51D 1_555 1_555
C56D C47D 1_555 1_555
H36D C56D 1_555 1_555
H37D C56D 1_555 1_555
C57D C51D 1_555 1_555
H38D C57D 1_555 1_555
H39D C57D 1_555 1_555
C62D C56D 1_555 1_555
H48D C62D 1_555 1_555
H49D C62D 1_555 1_555
O32D C57D 1_555 1_555
O35D C62D 1_555 1_555
Mg1D O8D 1_555 1_555
Mg3D O10A 1_555 1_555
Mg4D O6A 1_555 1_555
Mg5D O1D 1_555 1_555
Mg6D O4E 1_555 1_555
O2D Mg5D 1_555 1_555
O3D Mg6D 1_555 1_555
O5D C13D 1_555 1_555
O7D Mg6D 1_555 1_555
O8D C24D 1_555 1_555
O9D Mg1D 1_555 1_555
O12D Mg2A 1_555 1_555
O14D Mg7A 1_555 1_555
O16D Mg4A 1_555 1_555
O17D Mg2A 1_555 1_555
O18D C26D 1_555 1_555
O19D Mg1D 1_555 1_555
O20D Mg7A 1_555 1_555
C1D O2D 1_555 1_555
C3D O17D 1_555 1_555
C6D O9D 1_555 1_555
C9D O7D 1_555 1_555
C13D C9D 1_555 1_555
C14D O3D 1_555 1_555
C19D O12D 1_555 1_555
C22D H5D 1_555 1_555
C23D C13D 1_555 1_555
C24D C6D 1_555 1_555
C25D O20D 1_555 1_555
C26D C25D 1_555 1_555
C27D O14D 1_555 1_555
C28D C1D 1_555 1_555
C29D C28D 1_555 1_555
H6D C29D 1_555 1_555
C30D C24D 1_555 1_555
C31D C33D 1_555 1_555
C33D O16D 1_555 1_555
C34D C19D 1_555 1_555
C35D C14D 1_555 1_555
C37D C27D 1_555 1_555
C38D C37D 1_555 1_555
H8D C38D 1_555 1_555
C39D C31D 1_555 1_555
H9D C39D 1_555 1_555
C40D C28D 1_555 1_555
H10D C40D 1_555 1_555
C41D C23D 1_555 1_555
H11D C41D 1_555 1_555
C42D C34D 1_555 1_555
H12D C42D 1_555 1_555
C43D C26D 1_555 1_555
C45D C35D 1_555 1_555
H15D C45D 1_555 1_555
O22D Mg4D 1_555 1_555
C46D C41D 1_555 1_555
H16D C46D 1_555 1_555
H17D C46D 1_555 1_555
C48D C40D 1_555 1_555
H20D C48D 1_555 1_555
H21D C48D 1_555 1_555
O23D Mg1D 1_555 1_555
C49D C45D 1_555 1_555
H22D C49D 1_555 1_555
H23D C49D 1_555 1_555
C50D C42D 1_555 1_555
H24D C50D 1_555 1_555
H25D C50D 1_555 1_555
O24D Mg4D 1_555 1_555
O25D Mg3D 1_555 1_555
O27D Mg5D 1_555 1_555
O28D Mg6D 1_555 1_555
O29D Mg3D 1_555 1_555
C52D C46D 1_555 1_555
H28D C52D 1_555 1_555
H29D C52D 1_555 1_555
C53D C49D 1_555 1_555
H30D C53D 1_555 1_555
H31D C53D 1_555 1_555
C54D C48D 1_555 1_555
H32D C54D 1_555 1_555
H33D C54D 1_555 1_555
C55D C50D 1_555 1_555
H34D C55D 1_555 1_555
H35D C55D 1_555 1_555
N1D C58D 1_555 1_555
C58D H40D 1_555 1_555
H41D C58D 1_555 1_555
H42D C58D 1_555 1_555
C59D O19D 1_555 1_555
O31D C65D 1_555 1_555
C60D N1D 1_555 1_555
H43D C60D 1_555 1_555
H44D C60D 1_555 1_555
H45D C60D 1_555 1_555
C61D C52D 1_555 1_555
H46D C61D 1_555 1_555
H47D C61D 1_555 1_555
C63D C55D 1_555 1_555
H50D C63D 1_555 1_555
H51D C63D 1_555 1_555
O33D C63D 1_555 1_555
O34D C64D 1_555 1_555
C64D C53D 1_555 1_555
H52D C64D 1_555 1_555
H53D C64D 1_555 1_555
O36D C61D 1_555 1_555
C65D C54D 1_555 1_555
H54D C65D 1_555 1_555
H55D C65D 1_555 1_555
O37D Mg5D 1_555 1_555
O38D Mg6D 1_555 1_555
Mg1E O5D 1_555 1_555
Mg3E O10 1_555 1_555
Mg4E O6 1_555 1_555
Mg5E O1E 1_555 1_555
Mg6E O4D 1_555 1_555
O2E Mg5E 1_555 1_555
O3E Mg6E 1_555 1_555
O5E Mg1D 1_555 1_555
O7E Mg1D 1_555 1_555
O8E Mg1E 1_555 1_555
O9E Mg1E 1_555 1_555
O12E Mg2 1_555 1_555
O14E Mg7 1_555 1_555
O16E Mg4 1_555 1_555
O17E Mg2 1_555 1_555
O18E Mg3D 1_555 1_555
O19E Mg1E 1_555 1_555
O20E Mg7 1_555 1_555
C1E O2E 1_555 1_555
C3E O17E 1_555 1_555
C6E O9E 1_555 1_555
C9E O7E 1_555 1_555
C13E O5E 1_555 1_555
C14E O3E 1_555 1_555
C19E O12E 1_555 1_555
C22E H5E 1_555 1_555
C23E C13E 1_555 1_555
C24E O8E 1_555 1_555
C25E O20E 1_555 1_555
C26E O18E 1_555 1_555
C27E O14E 1_555 1_555
C28E C1E 1_555 1_555
C29E C28E 1_555 1_555
H6E C29E 1_555 1_555
C30E C24E 1_555 1_555
C31E C33E 1_555 1_555
C33E O16E 1_555 1_555
C34E C19E 1_555 1_555
C35E C14E 1_555 1_555
C37E C27E 1_555 1_555
C38E C37E 1_555 1_555
H8E C38E 1_555 1_555
C39E C31E 1_555 1_555
H9E C39E 1_555 1_555
C40E C28E 1_555 1_555
H10E C40E 1_555 1_555
C41E C23E 1_555 1_555
H11E C41E 1_555 1_555
C42E C34E 1_555 1_555
H12E C42E 1_555 1_555
C43E C26E 1_555 1_555
C45E C35E 1_555 1_555
H15E C45E 1_555 1_555
O22E Mg4E 1_555 1_555
C46E C41E 1_555 1_555
H16E C46E 1_555 1_555
H17E C46E 1_555 1_555
C48E C40E 1_555 1_555
H20E C48E 1_555 1_555
H21E C48E 1_555 1_555
O23E Mg1E 1_555 1_555
C49E C45E 1_555 1_555
H22E C49E 1_555 1_555
H23E C49E 1_555 1_555
C50E C42E 1_555 1_555
H24E C50E 1_555 1_555
H25E C50E 1_555 1_555
O24E Mg4E 1_555 1_555
O25E Mg3E 1_555 1_555
O27E Mg5E 1_555 1_555
O28E Mg6E 1_555 1_555
O29E Mg3E 1_555 1_555
C52E C46E 1_555 1_555
H28E C52E 1_555 1_555
H29E C52E 1_555 1_555
C53E C49E 1_555 1_555
H30E C53E 1_555 1_555
H31E C53E 1_555 1_555
C54E C48E 1_555 1_555
H32E C54E 1_555 1_555
H33E C54E 1_555 1_555
C55E C50E 1_555 1_555
H34E C55E 1_555 1_555
H35E C55E 1_555 1_555
N1E C58E 1_555 1_555
C58E H40E 1_555 1_555
H41E C58E 1_555 1_555
H42E C58E 1_555 1_555
C59E O19E 1_555 1_555
O31E C65E 1_555 1_555
C60E N1E 1_555 1_555
H43E C60E 1_555 1_555
H44E C60E 1_555 1_555
H45E C60E 1_555 1_555
C61E C52E 1_555 1_555
H46E C61E 1_555 1_555
H47E C61E 1_555 1_555
C63E C55E 1_555 1_555
H50E C63E 1_555 1_555
H51E C63E 1_555 1_555
O33E C63E 1_555 1_555
O34E C64E 1_555 1_555
C64E C53E 1_555 1_555
H52E C64E 1_555 1_555
H53E C64E 1_555 1_555
O36E C61E 1_555 1_555
C65E C54E 1_555 1_555
H54E C65E 1_555 1_555
H55E C65E 1_555 1_555
O37E Mg5E 1_555 1_555
O38E Mg6E 1_555 1_555
Mg4 O17E 1_555 1_555
Mg5 O9 1_555 1_555
O7 Mg1A 1_555 1_555
O13 Mg4E 1_555 1_555
O15 Mg6A 1_555 1_555
O16 Mg4E 1_555 1_555
O17 Mg4E 1_555 1_555
O20 Mg3A 1_555 1_555
C1 C6 1_555 1_555
C10 C18 1_555 1_555
C12 C17 1_555 1_555
C12 C32 1_555 1_555
C20 C21 1_555 1_555
C22 C23 1_555 1_555
C22 C35 1_555 1_555
C29 C30 1_555 1_555
C30 C41 1_555 1_555
C31 C40 1_555 1_555
C32 C36 1_555 1_555
C34 C39 1_555 1_555
C37 C42 1_555 1_555
C38 C43 1_555 1_555
C43 C45 1_555 1_555
N1 C59 1_555 1_555
O6E C15E 1_555 1_555
O11E Mg3E 1_555 1_555
O15E Mg6D 1_555 1_555
O15E Mg5E 1_555 1_555
C8E C18E 1_555 1_555
C12E C32E 1_555 1_555
C15E C20E 1_555 1_555
C20E C21E 1_555 1_555
C32E C36E 1_555 1_555
Mg4A O17D 1_555 1_555
Mg5A O9A 1_555 1_555
Mg5A O15A 1_555 1_555
Mg6A O7A 1_555 1_555
Mg7A O20A 1_555 1_555
O13A Mg4D 1_555 1_555
O16A Mg4D 1_555 1_555
O17A Mg4D 1_555 1_555
C1A C6A 1_555 1_555
C4A C11A 1_555 1_555
C6A C24A 1_555 1_555
C8A C16A 1_555 1_555
C9A C13A 1_555 1_555
C9A C14A 1_555 1_555
C10A C18A 1_555 1_555
C12A C17A 1_555 1_555
C12A C32A 1_555 1_555
C20A C21A 1_555 1_555
C22A C23A 1_555 1_555
C22A C35A 1_555 1_555
C25A C26A 1_555 1_555
C29A C30A 1_555 1_555
C30A C41A 1_555 1_555
C31A C40A 1_555 1_555
C32A C36A 1_555 1_555
C34A C39A 1_555 1_555
C37A C42A 1_555 1_555
C38A C43A 1_555 1_555
C43A C45A 1_555 1_555
N1A C59A 1_555 1_555
O6D C15D 1_555 1_555
O11D Mg3D 1_555 1_555
O15D Mg5D 1_555 1_555
O15D Mg6E 1_555 1_555
C8D C18D 1_555 1_555
C12D C32D 1_555 1_555
C15D C20D 1_555 1_555
C20D C21D 1_555 1_555
C32D C36D 1_555 1_555
Mg3D O20E 1_555 1_555
Mg5D O9D 1_555 1_555
O7D Mg1E 1_555 1_555
O18D Mg3E 1_555 1_555
O20D Mg3E 1_555 1_555
C1D C6D 1_555 1_555
C3D C19D 1_555 1_555
C3D C33D 1_555 1_555
C9D C14D 1_555 1_555
C22D C23D 1_555 1_555
C22D C35D 1_555 1_555
C25D C27D 1_555 1_555
C29D C30D 1_555 1_555
C30D C41D 1_555 1_555
C31D C40D 1_555 1_555
C34D C39D 1_555 1_555
C37D C42D 1_555 1_555
C38D C43D 1_555 1_555
C43D C45D 1_555 1_555
N1D C59D 1_555 1_555
Mg5E O9E 1_555 1_555
Mg6E O7E 1_555 1_555
C1E C6E 1_555 1_555
C3E C19E 1_555 1_555
C3E C33E 1_555 1_555
C6E C24E 1_555 1_555
C9E C13E 1_555 1_555
C9E C14E 1_555 1_555
C22E C23E 1_555 1_555
C22E C35E 1_555 1_555
C25E C26E 1_555 1_555
C25E C27E 1_555 1_555
C29E C30E 1_555 1_555
C30E C41E 1_555 1_555
C31E C40E 1_555 1_555
C34E C39E 1_555 1_555
C37E C42E 1_555 1_555
C38E C43E 1_555 1_555
C43E C45E 1_555 1_555
N1E C59E 1_555 1_555

#END
