
#######################################################################
#
#                 Cambridge Crystallographic Data Centre
#                                CCDC 
#
#######################################################################
#
# If this CIF has been generated from an entry in the Cambridge 
# Structural Database, then it will include bibliographic, chemical, 
# crystal, experimental, refinement or atomic coordinate data resulting 
# from the CCDC's data processing and validation procedures.
#
#######################################################################

data_KIQGOI
_chemical_formula_moiety         'C32 H54 N2 O2 Si5'
_chemical_name_systematic        
2,4-bis(4-methoxyphenyl)-6,6,9,9-tetrakis(trimethylsilyl)-1,3-diaza-5-silaspiro[4.4]nona-1,3-diene
_symmetry_cell_setting           monoclinic
_symmetry_space_group_name_H-M   'P 21/c'
_symmetry_Int_Tables_number      14
_space_group_name_Hall           '-P 2ybc'
loop_
_symmetry_equiv_pos_site_id
_symmetry_equiv_pos_as_xyz
1 x,y,z
2 -x,1/2+y,1/2-z
3 -x,-y,-z
4 x,1/2-y,1/2+z
_cell_length_a                   17.9250(19)
_cell_length_b                   19.611(2)
_cell_length_c                   11.0217(12)
_cell_angle_alpha                90
_cell_angle_beta                 102.677(2)
_cell_angle_gamma                90
_cell_volume                     3779.98
_exptl_crystal_colour            colorless
_exptl_crystal_description       block
_cell_formula_units_Z            4
loop_
_atom_site_label
_atom_site_type_symbol
_atom_site_fract_x
_atom_site_fract_y
_atom_site_fract_z
Si1 Si 0.72847(5) 0.98551(4) 0.35824(8)
Si2 Si 0.61043(7) 0.85550(6) 0.36486(13)
Si3 Si 0.63445(6) 0.91884(6) 0.11756(10)
Si4 Si 0.69136(7) 1.14312(5) 0.37591(11)
Si5 Si 0.74499(7) 1.06082(6) 0.62218(10)
C1 C 0.8295(2) 0.94119(17) 0.4124(3)
C2 C 0.83564(19) 1.01295(17) 0.2528(3)
O1 O 1.01164(18) 1.13650(17) -0.0462(3)
O2 O 0.9478(2) 0.74792(18) 0.7780(3)
C3 C 0.63663(18) 0.93747(16) 0.2903(3)
C4 C 0.57789(19) 0.9941(2) 0.3101(4)
H1 H 0.5713 1.0269 0.2427
H2 H 0.5286 0.9731 0.3085
C5 C 0.6058(2) 1.0311(2) 0.4348(4)
H3 H 0.6013 1.0008 0.5025
H4 H 0.5738 1.0706 0.4382
C6 C 0.69172(18) 1.05436(17) 0.4509(3)
C7 C 0.6102(3) 0.8595(2) 0.5354(5)
H5 H 0.6021 0.8146 0.5648
H6 H 0.5700 0.8892 0.5478
H7 H 0.6585 0.8767 0.5805
C8 C 0.6721(3) 0.7821(2) 0.3378(5)
H8 H 0.6626 0.7436 0.3860
H9 H 0.7249 0.7949 0.3623
H10 H 0.6602 0.7703 0.2511
C9 C 0.5069(3) 0.8328(3) 0.3011(6)
H11 H 0.4947 0.8392 0.2126
H12 H 0.4749 0.8616 0.3384
H13 H 0.4985 0.7860 0.3199
C10 C 0.7264(2) 0.8788(3) 0.0994(4)
H14 H 0.7157 0.8440 0.0368
H15 H 0.7519 0.8590 0.1771
H16 H 0.7586 0.9130 0.0752
C11 C 0.5574(3) 0.8584(2) 0.0384(5)
H17 H 0.5085 0.8745 0.0487
H18 H 0.5669 0.8139 0.0747
H19 H 0.5573 0.8560 -0.0486
C12 C 0.6170(3) 0.9959(2) 0.0176(4)
H20 H 0.6062 0.9825 -0.0682
H21 H 0.6615 1.0245 0.0348
H22 H 0.5741 1.0206 0.0346
C13 C 0.7896(3) 1.1787(3) 0.3913(5)
H23 H 0.8216 1.1453 0.3641
H24 H 0.8105 1.1901 0.4767
H25 H 0.7872 1.2189 0.3410
C14 C 0.6437(3) 1.1502(2) 0.2091(4)
H26 H 0.6420 1.1972 0.1843
H27 H 0.5926 1.1326 0.1966
H28 H 0.6719 1.1244 0.1602
C15 C 0.6307(4) 1.2044(3) 0.4443(6)
H29 H 0.6138 1.2407 0.3864
H30 H 0.6604 1.2229 0.5204
H31 H 0.5872 1.1807 0.4609
C16 C 0.7206(4) 1.1378(3) 0.7046(5)
H32 H 0.7525 1.1396 0.7867
H33 H 0.6679 1.1356 0.7101
H34 H 0.7286 1.1780 0.6593
C17 C 0.7244(4) 0.9897(3) 0.7221(4)
H35 H 0.7399 0.9472 0.6918
H36 H 0.6706 0.9884 0.7199
H37 H 0.7522 0.9968 0.8061
C18 C 0.8504(2) 1.0610(3) 0.6374(4)
H38 H 0.8622 1.0791 0.5629
H39 H 0.8694 1.0152 0.6501
H40 H 0.8740 1.0887 0.7071
N1 N 0.76390(15) 1.02740(15) 0.2417(3)
N2 N 0.87304(16) 0.96470(15) 0.3455(3)
C19 C 0.88270(19) 1.04356(19) 0.1760(3)
C20 C 0.9605(2) 1.0302(2) 0.1951(3)
H41 H 0.9829 1.0006 0.2586
C21 C 1.0053(2) 1.0594(2) 0.1231(4)
H42 H 1.0572 1.0492 0.1374
C22 C 0.9726(2) 1.1046(2) 0.0281(4)
C23 C 0.8956(2) 1.1182(2) 0.0089(4)
H43 H 0.8734 1.1484 -0.0537
C24 C 0.8513(2) 1.0883(2) 0.0797(3)
H44 H 0.7993 1.0979 0.0636
C25 C 1.0920(3) 1.1296(3) -0.0235(5)
H45 H 1.1147 1.1493 0.0558
H46 H 1.1108 1.1528 -0.0876
H47 H 1.1052 1.0822 -0.0233
C26 C 0.8600(2) 0.89064(18) 0.5066(3)
C27 C 0.8169(3) 0.8564(2) 0.5744(4)
H48 H 0.7649 0.8659 0.5599
C28 C 0.8459(3) 0.8093(3) 0.6615(4)
H49 H 0.8135 0.7872 0.7042
C29 C 0.9221(3) 0.7937(2) 0.6878(4)
C30 C 0.9687(3) 0.8265(3) 0.6220(4)
H50 H 1.0206 0.8161 0.6369
C31 C 0.9386(2) 0.8739(2) 0.5355(4)
H51 H 0.9711 0.8964 0.4934
C32 C 1.0250(4) 0.7289(3) 0.8083(5)
H52 H 1.0395 0.7108 0.7359
H53 H 1.0327 0.6949 0.8724
H54 H 1.0559 0.7681 0.8373
loop_
_geom_bond_atom_site_label_1
_geom_bond_atom_site_label_2
_geom_bond_site_symmetry_1
_geom_bond_site_symmetry_2
Si1 C1 1_555 1_555
Si2 C3 1_555 1_555
Si3 C3 1_555 1_555
Si4 C6 1_555 1_555
Si5 C6 1_555 1_555
C1 N2 1_555 1_555
C2 N1 1_555 1_555
O1 C22 1_555 1_555
O2 C29 1_555 1_555
C3 Si1 1_555 1_555
C4 C3 1_555 1_555
H1 C4 1_555 1_555
H2 C4 1_555 1_555
C5 C4 1_555 1_555
H3 C5 1_555 1_555
H4 C5 1_555 1_555
C6 Si1 1_555 1_555
C7 Si2 1_555 1_555
H5 C7 1_555 1_555
H6 C7 1_555 1_555
H7 C7 1_555 1_555
C8 Si2 1_555 1_555
H8 C8 1_555 1_555
H9 C8 1_555 1_555
H10 C8 1_555 1_555
C9 Si2 1_555 1_555
H11 C9 1_555 1_555
H12 C9 1_555 1_555
H13 C9 1_555 1_555
C10 Si3 1_555 1_555
H14 C10 1_555 1_555
H15 C10 1_555 1_555
H16 C10 1_555 1_555
C11 Si3 1_555 1_555
H17 C11 1_555 1_555
H18 C11 1_555 1_555
H19 C11 1_555 1_555
C12 Si3 1_555 1_555
H20 C12 1_555 1_555
H21 C12 1_555 1_555
H22 C12 1_555 1_555
C13 Si4 1_555 1_555
H23 C13 1_555 1_555
H24 C13 1_555 1_555
H25 C13 1_555 1_555
C14 Si4 1_555 1_555
H26 C14 1_555 1_555
H27 C14 1_555 1_555
H28 C14 1_555 1_555
C15 Si4 1_555 1_555
H29 C15 1_555 1_555
H30 C15 1_555 1_555
H31 C15 1_555 1_555
C16 Si5 1_555 1_555
H32 C16 1_555 1_555
H33 C16 1_555 1_555
H34 C16 1_555 1_555
C17 Si5 1_555 1_555
H35 C17 1_555 1_555
H36 C17 1_555 1_555
H37 C17 1_555 1_555
C18 Si5 1_555 1_555
H38 C18 1_555 1_555
H39 C18 1_555 1_555
H40 C18 1_555 1_555
N1 Si1 1_555 1_555
N2 C2 1_555 1_555
C19 C2 1_555 1_555
C20 C19 1_555 1_555
H41 C20 1_555 1_555
C21 C20 1_555 1_555
H42 C21 1_555 1_555
C22 C21 1_555 1_555
C23 C22 1_555 1_555
H43 C23 1_555 1_555
C24 C19 1_555 1_555
H44 C24 1_555 1_555
C25 O1 1_555 1_555
H45 C25 1_555 1_555
H46 C25 1_555 1_555
H47 C25 1_555 1_555
C26 C1 1_555 1_555
C27 C26 1_555 1_555
H48 C27 1_555 1_555
C28 C27 1_555 1_555
H49 C28 1_555 1_555
C29 C28 1_555 1_555
C30 C29 1_555 1_555
H50 C30 1_555 1_555
C31 C26 1_555 1_555
H51 C31 1_555 1_555
C32 O2 1_555 1_555
H52 C32 1_555 1_555
H53 C32 1_555 1_555
H54 C32 1_555 1_555
C5 C6 1_555 1_555
C23 C24 1_555 1_555
C30 C31 1_555 1_555

#END
