
#######################################################################
#
#                 Cambridge Crystallographic Data Centre
#                                CCDC 
#
#######################################################################
#
# If this CIF has been generated from an entry in the Cambridge 
# Structural Database, then it will include bibliographic, chemical, 
# crystal, experimental, refinement or atomic coordinate data resulting 
# from the CCDC's data processing and validation procedures.
#
#######################################################################

data_KIQKIG
_chemical_formula_moiety         'C22 H21 I1 O2'
_chemical_name_systematic        
2-(8-(2-Iodophenyl)-1,1-dimethyl-1H-indeno[1,2-c]furan-3-yl)propan-2-ol
_symmetry_cell_setting           monoclinic
_symmetry_space_group_name_H-M   'P 21'
_symmetry_Int_Tables_number      4
_space_group_name_Hall           'P 2yb'
loop_
_symmetry_equiv_pos_site_id
_symmetry_equiv_pos_as_xyz
1 x,y,z
2 -x,1/2+y,-z
_cell_length_a                   10.1646(6)
_cell_length_b                   8.3830(7)
_cell_length_c                   11.7462(7)
_cell_angle_alpha                90
_cell_angle_beta                 99.691(6)
_cell_angle_gamma                90
_cell_volume                     986.609
_cell_formula_units_Z            2
loop_
_atom_site_label
_atom_site_type_symbol
_atom_site_fract_x
_atom_site_fract_y
_atom_site_fract_z
I1 I 0.59259(4) 0.15868(6) 0.87846(4)
O1 O 1.1525(3) 0.2090(5) 0.8076(4)
O2 O 1.0970(5) 0.5275(7) 0.6087(6)
H1 H 1.141(5) 0.584(6) 0.571(5)
C1 C 0.6490(5) -0.0652(7) 0.8200(5)
C2 C 0.5876(6) -0.1984(10) 0.8553(6)
H2 H 0.5211 -0.1870 0.9003
C3 C 0.6234(6) -0.3457(13) 0.8251(6)
H3 H 0.5829 -0.4357 0.8501
C4 C 0.7204(6) -0.3613(10) 0.7569(6)
H4 H 0.7450 -0.4624 0.7355
C5 C 0.7814(5) -0.2290(8) 0.7201(5)
H5 H 0.8462 -0.2415 0.6735
C6 C 0.7468(4) -0.0744(7) 0.7524(5)
C7 C 0.8109(4) 0.0669(6) 0.7107(4)
C8 C 0.7517(4) 0.1744(8) 0.6170(4)
C9 C 0.6240(4) 0.1750(9) 0.5504(4)
H6 H 0.5603 0.1010 0.5642
C10 C 0.5941(5) 0.2863(8) 0.4646(6)
H7 H 0.5086 0.2883 0.4212
C11 C 0.6874(6) 0.3956(8) 0.4406(6)
H8 H 0.6651 0.4673 0.3800
C12 C 0.8146(5) 0.3988(8) 0.5068(5)
H9 H 0.8769 0.4741 0.4920
C13 C 0.8473(5) 0.2890(6) 0.5944(5)
C14 C 0.9663(5) 0.2546(7) 0.6784(5)
C15 C 0.9378(4) 0.1188(6) 0.7453(4)
C16 C 1.0574(5) 0.0864(7) 0.8365(5)
C17 C 1.0939(5) 0.3007(7) 0.7188(5)
C18 C 1.0292(6) 0.1251(12) 0.9558(5)
H10 H 0.9996 0.2336 0.9577
H11 H 1.1092 0.1110 1.0114
H12 H 0.9610 0.0550 0.9741
C19 C 1.1228(6) -0.0715(8) 0.8276(7)
H13 H 1.0630 -0.1551 0.8417
H14 H 1.2030 -0.0772 0.8838
H15 H 1.1443 -0.0836 0.7516
C20 C 1.1812(5) 0.4303(8) 0.6852(6)
C21 C 1.2885(8) 0.3509(10) 0.6265(8)
H16 H 1.3374 0.2750 0.6784
H17 H 1.3486 0.4308 0.6068
H18 H 1.2467 0.2973 0.5576
C22 C 1.2460(7) 0.5218(10) 0.7913(8)
H19 H 1.1781 0.5618 0.8315
H20 H 1.2964 0.6093 0.7683
H21 H 1.3044 0.4520 0.8413
loop_
_geom_bond_atom_site_label_1
_geom_bond_atom_site_label_2
_geom_bond_site_symmetry_1
_geom_bond_site_symmetry_2
I1 C1 1_555 1_555
O1 C16 1_555 1_555
O2 H1 1_555 1_555
C1 C2 1_555 1_555
C2 H2 1_555 1_555
C3 C2 1_555 1_555
H3 C3 1_555 1_555
C4 C3 1_555 1_555
H4 C4 1_555 1_555
C5 C4 1_555 1_555
H5 C5 1_555 1_555
C6 C1 1_555 1_555
C7 C6 1_555 1_555
C8 C7 1_555 1_555
C9 C8 1_555 1_555
H6 C9 1_555 1_555
C10 C9 1_555 1_555
H7 C10 1_555 1_555
C11 C10 1_555 1_555
H8 C11 1_555 1_555
C12 C11 1_555 1_555
H9 C12 1_555 1_555
C13 C8 1_555 1_555
C14 C13 1_555 1_555
C15 C7 1_555 1_555
C16 C15 1_555 1_555
C17 O1 1_555 1_555
C18 C16 1_555 1_555
H10 C18 1_555 1_555
H11 C18 1_555 1_555
H12 C18 1_555 1_555
C19 C16 1_555 1_555
H13 C19 1_555 1_555
H14 C19 1_555 1_555
H15 C19 1_555 1_555
C20 O2 1_555 1_555
C21 C20 1_555 1_555
H16 C21 1_555 1_555
H17 C21 1_555 1_555
H18 C21 1_555 1_555
C22 C20 1_555 1_555
H19 C22 1_555 1_555
H20 C22 1_555 1_555
H21 C22 1_555 1_555
C5 C6 1_555 1_555
C12 C13 1_555 1_555
C14 C15 1_555 1_555
C14 C17 1_555 1_555
C17 C20 1_555 1_555

#END
