
#######################################################################
#
#                 Cambridge Crystallographic Data Centre
#                                CCDC 
#
#######################################################################
#
# If this CIF has been generated from an entry in the Cambridge 
# Structural Database, then it will include bibliographic, chemical, 
# crystal, experimental, refinement or atomic coordinate data resulting 
# from the CCDC's data processing and validation procedures.
#
#######################################################################

data_KIQMII
_chemical_formula_moiety         'C22 H21 Br1 N2 O4'
_chemical_name_systematic        
'Methyl 1,4-diacetyl-3-(4-bromophenyl)-2,3,4,8b-tetrahydropyrrolo[3,2-b]indole-3a(1H)-carboxylate'
_symmetry_cell_setting           monoclinic
_symmetry_space_group_name_H-M   'P 21'
_symmetry_Int_Tables_number      4
_space_group_name_Hall           'P 2yb'
loop_
_symmetry_equiv_pos_site_id
_symmetry_equiv_pos_as_xyz
1 x,y,z
2 -x,1/2+y,-z
_cell_length_a                   8.302(10)
_cell_length_b                   9.769(12)
_cell_length_c                   13.135(16)
_cell_angle_alpha                90
_cell_angle_beta                 99.380(11)
_cell_angle_gamma                90
_cell_volume                     1051.03
_exptl_crystal_colour            colorless
_exptl_crystal_description       block
_cell_formula_units_Z            2
loop_
_atom_site_label
_atom_site_type_symbol
_atom_site_fract_x
_atom_site_fract_y
_atom_site_fract_z
Br1 Br 0.77902(7) 1.04554(8) 0.62769(6)
C1 C 0.1735(5) 0.5294(6) 0.7521(4)
H1 H 0.1174 0.4557 0.7830
C2 C 0.3452(6) 0.4869(5) 0.7408(4)
C3 C 0.3970(8) 0.3981(6) 0.6720(5)
H2 H 0.3219 0.3527 0.6233
C4 C 0.5631(8) 0.3771(7) 0.6762(5)
H3 H 0.5998 0.3171 0.6301
C5 C 0.6730(8) 0.4441(8) 0.7478(5)
H4 H 0.7839 0.4282 0.7498
C6 C 0.6233(6) 0.5354(9) 0.8175(4)
H5 H 0.6993 0.5816 0.8651
C7 C 0.4561(5) 0.5561(7) 0.8142(4)
C8 C 0.2011(5) 0.6547(5) 0.8249(4)
C9 C 0.1620(6) 0.7820(5) 0.7533(4)
H6 H 0.1107 0.8515 0.7912
C10 C 0.0332(6) 0.7285(5) 0.6659(4)
H7 H -0.0757 0.7409 0.6822
H8 H 0.0404 0.7757 0.6018
C11 C 0.4249(6) 0.7343(6) 0.9530(4)
C12 C 0.6007(7) 0.7252(9) 1.0058(5)
H9 H 0.6683 0.7787 0.9683
H10 H 0.6357 0.6314 1.0077
H11 H 0.6097 0.7596 1.0750
C13 C -0.0190(6) 0.4975(5) 0.5899(4)
C14 C -0.1407(6) 0.5629(8) 0.5084(4)
H12 H -0.1732 0.4986 0.4536
H13 H -0.0927 0.6418 0.4817
H14 H -0.2346 0.5903 0.5374
C15 C 0.0895(6) 0.6458(6) 0.9058(4)
C16 C 0.0454(8) 0.5378(11) 1.0597(5)
H15 H 0.0312 0.6248 1.0911
H16 H 0.1003 0.4761 1.1108
H17 H -0.0594 0.5008 1.0313
C17 C 0.3110(6) 0.8451(5) 0.7195(4)
C18 C 0.3810(7) 0.9602(6) 0.7691(5)
H18 H 0.3330 0.9988 0.8216
C19 C 0.5198(7) 1.0203(7) 0.7437(5)
H19 H 0.5656 1.0973 0.7786
C20 C 0.5888(7) 0.9624(6) 0.6644(5)
C21 C 0.5248(7) 0.8479(6) 0.6146(4)
H20 H 0.5750 0.8082 0.5636
C22 C 0.3823(7) 0.7903(6) 0.6408(4)
H21 H 0.3354 0.7145 0.6047
N1 N 0.3734(4) 0.6461(4) 0.8725(3)
N2 N 0.0708(5) 0.5826(4) 0.6578(3)
O1 O -0.0386(4) 0.7045(4) 0.8984(3)
O2 O 0.1425(4) 0.5555(6) 0.9779(3)
O3 O 0.0019(5) 0.3717(4) 0.5957(3)
O4 O 0.3286(5) 0.8124(5) 0.9800(3)
loop_
_geom_bond_atom_site_label_1
_geom_bond_atom_site_label_2
_geom_bond_site_symmetry_1
_geom_bond_site_symmetry_2
Br1 C20 1_555 1_555
C1 H1 1_555 1_555
C2 C1 1_555 1_555
C3 C2 1_555 1_555
H2 C3 1_555 1_555
C4 C3 1_555 1_555
H3 C4 1_555 1_555
C5 C4 1_555 1_555
H4 C5 1_555 1_555
C6 C5 1_555 1_555
H5 C6 1_555 1_555
C7 C2 1_555 1_555
C8 C1 1_555 1_555
C9 C8 1_555 1_555
H6 C9 1_555 1_555
C10 C9 1_555 1_555
H7 C10 1_555 1_555
H8 C10 1_555 1_555
C11 C12 1_555 1_555
C12 H9 1_555 1_555
H10 C12 1_555 1_555
H11 C12 1_555 1_555
C13 C14 1_555 1_555
C14 H12 1_555 1_555
H13 C14 1_555 1_555
H14 C14 1_555 1_555
C15 C8 1_555 1_555
C16 H15 1_555 1_555
H16 C16 1_555 1_555
H17 C16 1_555 1_555
C17 C9 1_555 1_555
C18 C17 1_555 1_555
H18 C18 1_555 1_555
C19 C18 1_555 1_555
H19 C19 1_555 1_555
C20 C19 1_555 1_555
C21 C20 1_555 1_555
H20 C21 1_555 1_555
C22 C17 1_555 1_555
H21 C22 1_555 1_555
N1 C7 1_555 1_555
N2 C1 1_555 1_555
O1 C15 1_555 1_555
O2 C15 1_555 1_555
O3 C13 1_555 1_555
O4 C11 1_555 1_555
C6 C7 1_555 1_555
C8 N1 1_555 1_555
C10 N2 1_555 1_555
C11 N1 1_555 1_555
C13 N2 1_555 1_555
C16 O2 1_555 1_555
C21 C22 1_555 1_555

#END
