
#######################################################################
#
#                 Cambridge Crystallographic Data Centre
#                                CCDC 
#
#######################################################################
#
# If this CIF has been generated from an entry in the Cambridge 
# Structural Database, then it will include bibliographic, chemical, 
# crystal, experimental, refinement or atomic coordinate data resulting 
# from the CCDC's data processing and validation procedures.
#
#######################################################################

data_KIQZUH
_chemical_formula_moiety         'C10 H7 F12 N3 O2,C10 H7 F12 N3 O2'
_chemical_name_systematic        
1,1,1,3,3,3-Hexafluoro-2-((4-(3,3,3-trifluoro-2-hydroxy-2-(trifluoromethyl)propyl)-4H-1,2,4-triazol-1-ium-1-yl)methyl)propan-2-olate
_symmetry_cell_setting           triclinic
_symmetry_space_group_name_H-M   'P -1'
_symmetry_Int_Tables_number      2
_space_group_name_Hall           '-P 1'
loop_
_symmetry_equiv_pos_site_id
_symmetry_equiv_pos_as_xyz
1 x,y,z
2 -x,-y,-z
_cell_length_a                   12.875(10)
_cell_length_b                   14.262(11)
_cell_length_c                   18.26(2)
_cell_angle_alpha                105.347(18)
_cell_angle_beta                 99.173(19)
_cell_angle_gamma                104.957(14)
_cell_volume                     3029.1
_exptl_crystal_colour            colorless
_exptl_crystal_description       'irregular block'
_cell_formula_units_Z            4
loop_
_atom_site_label
_atom_site_type_symbol
_atom_site_fract_x
_atom_site_fract_y
_atom_site_fract_z
F1 F -0.2659(3) 0.7244(4) 0.2497(3)
F2 F -0.3395(3) 0.8057(4) 0.3288(3)
F3 F -0.2921(3) 0.8653(4) 0.2382(3)
F4 F -0.2227(4) 1.0000(4) 0.4121(3)
F5 F -0.1312(4) 1.0455(3) 0.3326(2)
F6 F -0.0466(4) 1.0402(3) 0.4392(3)
F7 F 0.3523(3) 0.9269(3) 0.2903(2)
F8 F 0.4995(3) 0.9587(3) 0.3799(2)
F9 F 0.4408(3) 0.8191(3) 0.2832(2)
F10 F 0.4837(3) 0.8572(2) 0.4860(2)
F11 F 0.4425(3) 0.7195(2) 0.3882(2)
F12 F 0.3349(3) 0.7355(3) 0.4641(2)
O1 O -0.1253(3) 0.8409(3) 0.4032(2)
H1 H -0.1120 0.7871 0.3864
O2 O 0.2455(3) 0.7558(3) 0.3269(2)
N1 N 0.0503(4) 0.9208(3) 0.3346(2)
N2 N 0.2082(4) 0.9361(3) 0.3998(3)
N3 N 0.2221(5) 1.0250(3) 0.3802(3)
C1 C 0.1064(5) 0.8752(4) 0.3724(3)
H2 H 0.0785 0.8114 0.3782
C2 C 0.1242(5) 1.0128(4) 0.3430(4)
H3 H 0.1053 1.0618 0.3236
C3 C -0.0644(5) 0.8737(4) 0.2903(3)
H4 H -0.0762 0.8024 0.2620
H5 H -0.0790 0.9077 0.2521
C4 C -0.1472(5) 0.8796(5) 0.3431(4)
C5 C -0.2642(6) 0.8172(8) 0.2897(5)
C6 C -0.1365(8) 0.9942(6) 0.3838(4)
C7 C 0.3017(4) 0.9138(4) 0.4380(3)
H6 H 0.2831 0.8883 0.4801
H7 H 0.3643 0.9762 0.4606
C8 C 0.3338(5) 0.8327(4) 0.3786(3)
C9 C 0.4073(5) 0.8840(5) 0.3340(4)
C10 C 0.3994(5) 0.7860(4) 0.4291(4)
F13 F -0.2471(3) 0.5165(3) 0.2971(3)
F14 F -0.2502(4) 0.4939(3) 0.4084(3)
F15 F -0.2683(3) 0.6307(3) 0.3912(2)
F16 F -0.0636(4) 0.5895(3) 0.5241(2)
F17 F -0.0914(3) 0.7294(3) 0.5190(2)
F18 F 0.0622(4) 0.7060(3) 0.5080(2)
F19 F -0.0638(3) 0.5885(3) 0.0326(2)
F20 F -0.1020(3) 0.6358(2) 0.1434(2)
F21 F -0.0489(3) 0.7453(3) 0.0880(2)
F22 F 0.1602(3) 0.8030(3) 0.0825(2)
F23 F 0.2714(3) 0.7398(3) 0.1353(2)
F24 F 0.1524(3) 0.6490(3) 0.0273(2)
O3 O -0.0583(3) 0.6858(3) 0.3656(2)
O4 O 0.1063(3) 0.7573(2) 0.2145(2)
H8 H 0.1677 0.7662 0.2412
N4 N -0.0203(3) 0.5103(3) 0.2956(3)
N5 N 0.0404(4) 0.5409(3) 0.2004(3)
N6 N -0.0514(4) 0.4550(3) 0.1678(3)
C11 C 0.0581(4) 0.5734(4) 0.2767(3)
H9 H 0.1150 0.6301 0.3112
C12 C -0.0853(5) 0.4398(4) 0.2282(4)
H10 H -0.1472 0.3867 0.2252
C13 C -0.0352(5) 0.5264(4) 0.3756(3)
H11 H 0.0360 0.5447 0.4120
H12 H -0.0827 0.4634 0.3789
C14 C -0.0877(4) 0.6124(4) 0.3983(3)
C15 C -0.2135(6) 0.5633(6) 0.3749(5)
C16 C -0.0467(6) 0.6590(5) 0.4873(4)
C17 C 0.1065(5) 0.5820(4) 0.1525(3)
H13 H 0.0883 0.5311 0.1012
H14 H 0.1843 0.5966 0.1761
C18 C 0.0867(5) 0.6821(4) 0.1429(3)
C19 C -0.0313(5) 0.6620(4) 0.1004(4)
C20 C 0.1680(6) 0.7188(5) 0.0968(4)
F25 F 0.4361(3) 0.3019(3) 0.4035(2)
F26 F 0.2676(3) 0.2834(3) 0.40700(19)
F27 F 0.3946(3) 0.4215(3) 0.4786(2)
F28 F 0.1572(3) 0.3824(2) 0.3288(2)
F29 F 0.2747(3) 0.5193(3) 0.4113(3)
F30 F 0.2563(3) 0.4938(3) 0.2889(3)
F31 F 0.3857(3) 0.3944(3) -0.0278(2)
F32 F 0.3120(3) 0.3550(2) 0.0599(2)
F33 F 0.2900(3) 0.2393(3) -0.0474(2)
F34 F 0.5569(3) 0.3288(3) -0.0591(2)
F35 F 0.6136(3) 0.2431(3) 0.0089(2)
F36 F 0.4599(3) 0.1748(3) -0.0763(2)
O5 O 0.3210(3) 0.3187(2) 0.27185(19)
O6 O 0.4337(3) 0.2302(3) 0.0762(2)
H15 H 0.4829 0.2382 0.1140
N7 N 0.4804(3) 0.4857(3) 0.2779(2)
N8 N 0.5185(4) 0.4487(3) 0.1682(3)
N9 N 0.4881(4) 0.5356(4) 0.1756(3)
C21 C 0.5122(4) 0.4188(4) 0.2297(3)
H16 H 0.5274 0.3614 0.2376
C22 C 0.4671(5) 0.5555(4) 0.2434(3)
H17 H 0.4454 0.6116 0.2659
C23 C 0.4612(4) 0.4769(4) 0.3529(3)
H18 H 0.4608 0.5424 0.3859
H19 H 0.5207 0.4586 0.3794
C24 C 0.3487(4) 0.3941(4) 0.3398(3)
C25 C 0.3616(6) 0.3492(5) 0.4074(4)
C26 C 0.2593(5) 0.4461(5) 0.3435(4)
C27 C 0.5548(5) 0.4020(4) 0.0995(3)
H20 H 0.6221 0.3871 0.1171
H21 H 0.5729 0.4514 0.0720
C28 C 0.4684(4) 0.3022(4) 0.0414(3)
C29 C 0.3621(5) 0.3230(5) 0.0057(4)
C30 C 0.5245(6) 0.2633(5) -0.0216(4)
F37 F 0.6407(3) 0.2601(3) 0.3432(2)
F38 F 0.7801(3) 0.2722(3) 0.2927(2)
F39 F 0.7091(3) 0.1373(3) 0.3211(2)
F40 F 0.7350(3) 0.1850(2) 0.1344(2)
F41 F 0.7088(3) 0.0495(3) 0.1676(2)
F42 F 0.5840(3) 0.0619(2) 0.0810(2)
F43 F 0.0830(3) -0.0273(2) 0.1616(2)
F44 F -0.0227(4) -0.0138(3) 0.0652(2)
F45 F -0.0544(3) 0.0225(3) 0.1776(2)
F46 F -0.0364(3) 0.1724(4) 0.0735(2)
F47 F -0.0346(3) 0.2186(3) 0.1952(2)
F48 F 0.0937(3) 0.3018(3) 0.1547(2)
O7 O 0.5684(3) 0.2343(2) 0.1918(2)
O8 O 0.1512(3) 0.1698(2) 0.23888(19)
H22 H 0.2015 0.2240 0.2508
N10 N 0.4028(4) 0.0597(3) 0.1678(3)
N11 N 0.2634(4) 0.0963(3) 0.1213(3)
N12 N 0.2649(4) 0.0113(4) 0.0654(3)
C31 C 0.3463(4) 0.1244(4) 0.1816(3)
H23 H 0.3628 0.1803 0.2266
C32 C 0.3518(5) -0.0099(4) 0.0959(4)
H24 H 0.3749 -0.0644 0.0718
C33 C 0.5086(4) 0.0712(4) 0.2184(4)
H25 H 0.5262 0.0076 0.2034
H26 H 0.5029 0.0859 0.2723
C34 C 0.6045(4) 0.1613(4) 0.2111(3)
C35 C 0.6842(5) 0.2068(5) 0.2919(4)
C36 C 0.6606(5) 0.1138(4) 0.1493(4)
C37 C 0.1819(4) 0.1480(4) 0.1081(3)
H27 H 0.1412 0.1191 0.0536
H28 H 0.2205 0.2199 0.1180
C38 C 0.0995(4) 0.1396(4) 0.1596(3)
C39 C 0.0264(5) 0.0300(5) 0.1397(3)
C40 C 0.0303(5) 0.2084(6) 0.1463(4)
loop_
_geom_bond_atom_site_label_1
_geom_bond_atom_site_label_2
_geom_bond_site_symmetry_1
_geom_bond_site_symmetry_2
F1 C5 1_555 1_555
F2 C5 1_555 1_555
F3 C5 1_555 1_555
F4 C6 1_555 1_555
F5 C6 1_555 1_555
F6 C6 1_555 1_555
F7 C9 1_555 1_555
F8 C9 1_555 1_555
F9 C9 1_555 1_555
F10 C10 1_555 1_555
F11 C10 1_555 1_555
F12 C10 1_555 1_555
O1 H1 1_555 1_555
O2 C8 1_555 1_555
N1 C1 1_555 1_555
N2 N3 1_555 1_555
N3 C2 1_555 1_555
C1 N2 1_555 1_555
H2 C1 1_555 1_555
C2 N1 1_555 1_555
H3 C2 1_555 1_555
C3 N1 1_555 1_555
H4 C3 1_555 1_555
H5 C3 1_555 1_555
C4 O1 1_555 1_555
C5 C4 1_555 1_555
C6 C4 1_555 1_555
C7 N2 1_555 1_555
H6 C7 1_555 1_555
H7 C7 1_555 1_555
C8 C7 1_555 1_555
C9 C8 1_555 1_555
C10 C8 1_555 1_555
F13 C15 1_555 1_555
F14 C15 1_555 1_555
F15 C15 1_555 1_555
F16 C16 1_555 1_555
F17 C16 1_555 1_555
F18 C16 1_555 1_555
F19 C19 1_555 1_555
F20 C19 1_555 1_555
F21 C19 1_555 1_555
F22 C20 1_555 1_555
F23 C20 1_555 1_555
F24 C20 1_555 1_555
O3 C14 1_555 1_555
O4 H8 1_555 1_555
N4 C11 1_555 1_555
N5 N6 1_555 1_555
N6 C12 1_555 1_555
C11 N5 1_555 1_555
H9 C11 1_555 1_555
C12 N4 1_555 1_555
H10 C12 1_555 1_555
C13 N4 1_555 1_555
H11 C13 1_555 1_555
H12 C13 1_555 1_555
C14 C13 1_555 1_555
C15 C14 1_555 1_555
C16 C14 1_555 1_555
C17 N5 1_555 1_555
H13 C17 1_555 1_555
H14 C17 1_555 1_555
C18 O4 1_555 1_555
C19 C18 1_555 1_555
C20 C18 1_555 1_555
F25 C25 1_555 1_555
F26 C25 1_555 1_555
F27 C25 1_555 1_555
F28 C26 1_555 1_555
F29 C26 1_555 1_555
F30 C26 1_555 1_555
F31 C29 1_555 1_555
F32 C29 1_555 1_555
F33 C29 1_555 1_555
F34 C30 1_555 1_555
F35 C30 1_555 1_555
F36 C30 1_555 1_555
O5 C24 1_555 1_555
O6 H15 1_555 1_555
N7 C21 1_555 1_555
N8 N9 1_555 1_555
N9 C22 1_555 1_555
C21 N8 1_555 1_555
H16 C21 1_555 1_555
C22 N7 1_555 1_555
H17 C22 1_555 1_555
C23 N7 1_555 1_555
H18 C23 1_555 1_555
H19 C23 1_555 1_555
C24 C23 1_555 1_555
C25 C24 1_555 1_555
C26 C24 1_555 1_555
C27 N8 1_555 1_555
H20 C27 1_555 1_555
H21 C27 1_555 1_555
C28 O6 1_555 1_555
C29 C28 1_555 1_555
C30 C28 1_555 1_555
F37 C35 1_555 1_555
F38 C35 1_555 1_555
F39 C35 1_555 1_555
F40 C36 1_555 1_555
F41 C36 1_555 1_555
F42 C36 1_555 1_555
F43 C39 1_555 1_555
F44 C39 1_555 1_555
F45 C39 1_555 1_555
F46 C40 1_555 1_555
F47 C40 1_555 1_555
F48 C40 1_555 1_555
O7 C34 1_555 1_555
O8 H22 1_555 1_555
N10 C31 1_555 1_555
N11 N12 1_555 1_555
N12 C32 1_555 1_555
C31 N11 1_555 1_555
H23 C31 1_555 1_555
C32 N10 1_555 1_555
H24 C32 1_555 1_555
C33 N10 1_555 1_555
H25 C33 1_555 1_555
H26 C33 1_555 1_555
C34 C33 1_555 1_555
C35 C34 1_555 1_555
C36 C34 1_555 1_555
C37 N11 1_555 1_555
H27 C37 1_555 1_555
H28 C37 1_555 1_555
C38 O8 1_555 1_555
C39 C38 1_555 1_555
C40 C38 1_555 1_555
C3 C4 1_555 1_555
C17 C18 1_555 1_555
C27 C28 1_555 1_555
C37 C38 1_555 1_555

#END
