
#######################################################################
#
#                 Cambridge Crystallographic Data Centre
#                                CCDC 
#
#######################################################################
#
# If this CIF has been generated from an entry in the Cambridge 
# Structural Database, then it will include bibliographic, chemical, 
# crystal, experimental, refinement or atomic coordinate data resulting 
# from the CCDC's data processing and validation procedures.
#
#######################################################################

data_KIRBUI
_chemical_formula_moiety         'C18 H10 F6'
_chemical_name_systematic        
Z-1,1,1,6,6,6-Hexafluoro-2,5-diphenylhexa-2,3,4-triene
_symmetry_cell_setting           orthorhombic
_symmetry_space_group_name_H-M   'P b c a'
_symmetry_Int_Tables_number      61
_space_group_name_Hall           '-P 2ac 2ab'
loop_
_symmetry_equiv_pos_site_id
_symmetry_equiv_pos_as_xyz
1 x,y,z
2 1/2-x,-y,1/2+z
3 1/2+x,1/2-y,-z
4 -x,1/2+y,1/2-z
5 -x,-y,-z
6 1/2+x,y,1/2-z
7 1/2-x,1/2+y,z
8 x,1/2-y,1/2+z
_cell_length_a                   11.027(11)
_cell_length_b                   16.524(4)
_cell_length_c                   17.271(3)
_cell_angle_alpha                90
_cell_angle_beta                 90
_cell_angle_gamma                90
_cell_volume                     3146.95
_exptl_crystal_colour            yellow
_chemical_melting_point          104-107deg.C
_cell_formula_units_Z            8
loop_
_atom_site_label
_atom_site_type_symbol
_atom_site_fract_x
_atom_site_fract_y
_atom_site_fract_z
F1 F 0.3799(2) 0.3186(1) -0.02304(9)
F2 F 0.4442(2) 0.1990(1) -0.00559(9)
F3 F 0.5669(2) 0.2974(1) -0.00733(8)
F4 F 0.0002(1) 0.4545(1) 0.1032(1)
F5 F 0.1253(2) 0.55315(9) 0.1036(1)
F6 F 0.1564(2) 0.4496(1) 0.0317(1)
C1 C 0.5256(2) 0.2434(1) 0.1569(1)
C2 C 0.6184(2) 0.1931(2) 0.1321(1)
C3 C 0.6972(2) 0.1595(2) 0.1853(2)
C4 C 0.6840(2) 0.1725(2) 0.2628(2)
C5 C 0.5916(3) 0.2206(2) 0.2885(1)
C6 C 0.5130(2) 0.2558(1) 0.2358(1)
C7 C 0.4438(2) 0.2853(1) 0.1028(1)
C8 C 0.4576(2) 0.2750(2) 0.0171(1)
C9 C 0.3555(2) 0.3351(1) 0.1253(1)
C10 C 0.2736(2) 0.3832(1) 0.1457(1)
C11 C 0.1868(2) 0.4342(1) 0.1658(1)
C12 C 0.1182(2) 0.4727(2) 0.1016(2)
C13 C 0.1574(2) 0.4529(1) 0.2474(1)
C14 C 0.2287(2) 0.4205(1) 0.3056(1)
C15 C 0.2048(2) 0.4357(2) 0.3827(1)
C16 C 0.1076(2) 0.4840(2) 0.4037(2)
C17 C 0.0355(2) 0.5155(2) 0.3468(2)
C18 C 0.0585(2) 0.5015(1) 0.2691(2)
H1 H 0.6276 0.1814 0.0784
H2 H 0.7621 0.1265 0.1673
H3 H 0.7384 0.1483 0.2987
H4 H 0.5809 0.2297 0.3424
H5 H 0.4491 0.2892 0.2541
H6 H 0.2956 0.3872 0.2921
H7 H 0.2553 0.4129 0.4216
H8 H 0.0911 0.4949 0.4566
H9 H -0.0322 0.5479 0.3608
H10 H 0.0077 0.5247 0.2305
loop_
_geom_bond_atom_site_label_1
_geom_bond_atom_site_label_2
_geom_bond_site_symmetry_1
_geom_bond_site_symmetry_2
F1 C8 1_555 1_555
F2 C8 1_555 1_555
F3 C8 1_555 1_555
F4 C12 1_555 1_555
F5 C12 1_555 1_555
F6 C12 1_555 1_555
C1 C2 1_555 1_555
C2 C3 1_555 1_555
C3 C4 1_555 1_555
C4 C5 1_555 1_555
C5 C6 1_555 1_555
C6 C1 1_555 1_555
C7 C1 1_555 1_555
C8 C7 1_555 1_555
C9 C7 1_555 1_555
C10 C9 1_555 1_555
C11 C10 1_555 1_555
C12 C11 1_555 1_555
C13 C11 1_555 1_555
C14 C13 1_555 1_555
C15 C14 1_555 1_555
C16 C15 1_555 1_555
C17 C16 1_555 1_555
C18 C13 1_555 1_555
H1 C2 1_555 1_555
H2 C3 1_555 1_555
H3 C4 1_555 1_555
H4 C5 1_555 1_555
H5 C6 1_555 1_555
H6 C14 1_555 1_555
H7 C15 1_555 1_555
H8 C16 1_555 1_555
H9 C17 1_555 1_555
H10 C18 1_555 1_555
C17 C18 1_555 1_555

#END
