
#######################################################################
#
#                 Cambridge Crystallographic Data Centre
#                                CCDC 
#
#######################################################################
#
# If this CIF has been generated from an entry in the Cambridge 
# Structural Database, then it will include bibliographic, chemical, 
# crystal, experimental, refinement or atomic coordinate data resulting 
# from the CCDC's data processing and validation procedures.
#
#######################################################################

data_KIRFUO
_chemical_formula_moiety         'C28 H24 Cl1 N1 O2 S1'
_chemical_name_systematic        
1-(4-Chlorophenyl)-2-((4-methylphenyl)sulfonyl)-4-phenyl-1,2,3,4-tetrahydroisoquinoline
_symmetry_cell_setting           triclinic
_symmetry_space_group_name_H-M   'P -1'
_symmetry_Int_Tables_number      2
_space_group_name_Hall           '-P 1'
loop_
_symmetry_equiv_pos_site_id
_symmetry_equiv_pos_as_xyz
1 x,y,z
2 -x,-y,-z
_cell_length_a                   10.1751(9)
_cell_length_b                   10.5681(9)
_cell_length_c                   12.5199(11)
_cell_angle_alpha                67.4930(10)
_cell_angle_beta                 75.2270(10)
_cell_angle_gamma                75.3260(10)
_cell_volume                     1184.22
_exptl_crystal_colour            colorless
_exptl_crystal_description       block
_cell_formula_units_Z            2
loop_
_atom_site_label
_atom_site_type_symbol
_atom_site_fract_x
_atom_site_fract_y
_atom_site_fract_z
C1 C 0.53678(18) 0.49887(19) 0.13450(14)
H1 H 0.5226 0.4192 0.1210
H2 H 0.4631 0.5756 0.1083
C2 C 0.53152(18) 0.46378(19) 0.26516(15)
H3 H 0.5366 0.5492 0.2762
C3 C 0.65783(18) 0.35798(19) 0.30372(14)
C4 C 0.6576(2) 0.2770(2) 0.42163(16)
H4 H 0.5779 0.2862 0.4764
C5 C 0.7723(2) 0.1839(3) 0.45893(17)
H5 H 0.7699 0.1314 0.5381
C6 C 0.8909(2) 0.1687(3) 0.37837(19)
H6 H 0.9686 0.1053 0.4028
C7 C 0.8935(2) 0.2479(2) 0.26191(18)
H7 H 0.9739 0.2379 0.2080
C8 C 0.77868(18) 0.34268(19) 0.22280(15)
C9 C 0.79087(18) 0.42699(18) 0.09251(15)
H8 H 0.8708 0.4732 0.0704
C10 C 0.39612(19) 0.4199(2) 0.33717(15)
C11 C 0.3232(2) 0.4781(3) 0.42213(18)
H9 H 0.3577 0.5441 0.4342
C12 C 0.2000(3) 0.4388(4) 0.4888(2)
H10 H 0.1534 0.4767 0.5468
C13 C 0.1463(3) 0.3452(4) 0.4704(3)
H11 H 0.0626 0.3203 0.5147
C14 C 0.2165(3) 0.2875(3) 0.3857(2)
H12 H 0.1798 0.2236 0.3727
C15 C 0.3415(2) 0.3243(2) 0.31973(18)
H13 H 0.3888 0.2841 0.2633
C16 C 0.81479(17) 0.34077(19) 0.01283(15)
C17 C 0.8562(2) 0.4032(2) -0.10670(16)
H14 H 0.8708 0.4947 -0.1357
C18 C 0.8763(2) 0.3323(2) -0.18374(17)
H15 H 0.9035 0.3758 -0.2639
C19 C 0.8559(2) 0.1980(2) -0.14086(18)
C20 C 0.8147(3) 0.1337(3) -0.0241(2)
H16 H 0.8004 0.0422 0.0042
C21 C 0.7942(3) 0.2058(2) 0.05249(18)
H17 H 0.7660 0.1618 0.1324
C22 C 0.6549(2) 0.77930(18) 0.10339(15)
C23 C 0.7635(2) 0.7679(2) 0.15506(19)
H18 H 0.8501 0.7199 0.1334
C24 C 0.7425(2) 0.8285(2) 0.23926(19)
H19 H 0.8158 0.8208 0.2743
C25 C 0.6151(2) 0.9002(2) 0.27269(17)
C26 C 0.5082(2) 0.9100(2) 0.21985(19)
H20 H 0.4215 0.9579 0.2415
C27 C 0.5270(2) 0.8503(2) 0.13540(18)
H21 H 0.4536 0.8581 0.1004
C28 C 0.5949(3) 0.9682(3) 0.3637(2)
H22 H 0.6056 0.8977 0.4386
H23 H 0.5040 1.0229 0.3692
H24 H 0.6624 1.0271 0.3411
Cl1 Cl 0.88403(8) 0.10644(8) -0.23707(6)
N1 N 0.66934(15) 0.53676(15) 0.06686(12)
O1 O 0.81996(17) 0.70243(15) -0.06414(13)
O2 O 0.56874(18) 0.76140(15) -0.06502(12)
S1 S 0.68116(6) 0.69948(5) -0.00223(4)
loop_
_geom_bond_atom_site_label_1
_geom_bond_atom_site_label_2
_geom_bond_site_symmetry_1
_geom_bond_site_symmetry_2
C1 H1 1_555 1_555
H2 C1 1_555 1_555
C2 C1 1_555 1_555
H3 C2 1_555 1_555
C3 C2 1_555 1_555
C4 C3 1_555 1_555
H4 C4 1_555 1_555
C5 C4 1_555 1_555
H5 C5 1_555 1_555
C6 C5 1_555 1_555
H6 C6 1_555 1_555
C7 C6 1_555 1_555
H7 C7 1_555 1_555
C8 C3 1_555 1_555
C9 C8 1_555 1_555
H8 C9 1_555 1_555
C10 C2 1_555 1_555
C11 C10 1_555 1_555
H9 C11 1_555 1_555
C12 C11 1_555 1_555
H10 C12 1_555 1_555
C13 C12 1_555 1_555
H11 C13 1_555 1_555
C14 C13 1_555 1_555
H12 C14 1_555 1_555
C15 C10 1_555 1_555
H13 C15 1_555 1_555
C16 C9 1_555 1_555
C17 C16 1_555 1_555
H14 C17 1_555 1_555
C18 C17 1_555 1_555
H15 C18 1_555 1_555
C19 C18 1_555 1_555
C20 C19 1_555 1_555
H16 C20 1_555 1_555
C21 C16 1_555 1_555
H17 C21 1_555 1_555
C22 C23 1_555 1_555
C23 H18 1_555 1_555
C24 C23 1_555 1_555
H19 C24 1_555 1_555
C25 C24 1_555 1_555
C26 C25 1_555 1_555
H20 C26 1_555 1_555
C27 C22 1_555 1_555
H21 C27 1_555 1_555
C28 C25 1_555 1_555
H22 C28 1_555 1_555
H23 C28 1_555 1_555
H24 C28 1_555 1_555
Cl1 C19 1_555 1_555
N1 C1 1_555 1_555
O1 S1 1_555 1_555
O2 S1 1_555 1_555
S1 C22 1_555 1_555
C7 C8 1_555 1_555
C9 N1 1_555 1_555
C14 C15 1_555 1_555
C20 C21 1_555 1_555
C26 C27 1_555 1_555
N1 S1 1_555 1_555

#END
