
#######################################################################
#
#                 Cambridge Crystallographic Data Centre
#                                CCDC 
#
#######################################################################
#
# If this CIF has been generated from an entry in the Cambridge 
# Structural Database, then it will include bibliographic, chemical, 
# crystal, experimental, refinement or atomic coordinate data resulting 
# from the CCDC's data processing and validation procedures.
#
#######################################################################

data_KIRGID
_chemical_formula_moiety         'C25 H24 N2 O2 S1'
_chemical_name_systematic        
9-Methyl-2-((4-methylphenyl)sulfonyl)-4-phenyl-2,3,4,9-tetrahydro-1H-\b-carboline
_symmetry_cell_setting           monoclinic
_symmetry_space_group_name_H-M   'P 21/c'
_symmetry_Int_Tables_number      14
_space_group_name_Hall           '-P 2ybc'
loop_
_symmetry_equiv_pos_site_id
_symmetry_equiv_pos_as_xyz
1 x,y,z
2 -x,1/2+y,1/2-z
3 -x,-y,-z
4 x,1/2-y,1/2+z
_cell_length_a                   6.1130(9)
_cell_length_b                   23.108(3)
_cell_length_c                   15.156(2)
_cell_angle_alpha                90
_cell_angle_beta                 91.651(2)
_cell_angle_gamma                90
_cell_volume                     2140.04
_exptl_crystal_colour            colorless
_exptl_crystal_description       block
_cell_formula_units_Z            4
loop_
_atom_site_label
_atom_site_type_symbol
_atom_site_fract_x
_atom_site_fract_y
_atom_site_fract_z
C1 C 0.5599(6) 0.69012(16) -0.0765(2)
C2 C 0.4040(6) 0.71314(18) -0.1352(2)
H1 H 0.2847 0.6914 -0.1554
C3 C 0.4331(8) 0.7691(2) -0.1621(3)
H2 H 0.3296 0.7858 -0.2004
C4 C 0.6133(8) 0.80158(18) -0.1337(3)
H3 H 0.6309 0.8391 -0.1547
C5 C 0.7657(7) 0.77871(16) -0.0750(2)
H4 H 0.8850 0.8007 -0.0556
C6 C 0.7399(6) 0.72250(15) -0.0448(2)
C7 C 0.8584(5) 0.68572(15) 0.0158(2)
C8 C 1.0615(5) 0.69696(14) 0.0716(2)
H5 H 1.1889 0.6942 0.0340
C9 C 1.0797(6) 0.64985(14) 0.1423(2)
H6 H 1.2248 0.6511 0.1699
H7 H 0.9746 0.6576 0.1876
C10 C 0.8156(5) 0.58224(14) 0.0700(2)
H8 H 0.7152 0.5771 0.1178
H9 H 0.8107 0.5478 0.0333
C11 C 0.7522(5) 0.63404(15) 0.0166(2)
C12 C 0.4283(6) 0.58754(15) -0.0629(2)
H10 H 0.2797 0.6007 -0.0691
H11 H 0.4386 0.5585 -0.0177
H12 H 0.4736 0.5714 -0.1178
C13 C 1.0634(6) 0.75588(15) 0.1157(2)
C14 C 1.2372(6) 0.79351(17) 0.1065(2)
H13 H 1.3535 0.7832 0.0716
C15 C 1.2382(9) 0.8468(2) 0.1496(3)
H14 H 1.3553 0.8720 0.1432
C16 C 1.0686(10) 0.8622(2) 0.2012(3)
H15 H 1.0711 0.8976 0.2303
C17 C 0.8958(8) 0.8259(2) 0.2101(3)
H16 H 0.7803 0.8364 0.2453
C18 C 0.8919(6) 0.77333(17) 0.1668(2)
H17 H 0.7713 0.7492 0.1721
C19 C 1.0274(5) 0.54402(14) 0.2708(2)
C20 C 0.8232(6) 0.52112(14) 0.2862(2)
H18 H 0.7473 0.5009 0.2419
C21 C 0.7336(6) 0.52850(15) 0.3675(3)
H19 H 0.5967 0.5128 0.3778
C22 C 0.8417(7) 0.55879(16) 0.4347(3)
C23 C 1.0439(7) 0.58113(16) 0.4175(3)
H20 H 1.1192 0.6014 0.4618
C24 C 1.1395(6) 0.57458(15) 0.3369(3)
H21 H 1.2765 0.5903 0.3269
C25 C 0.7369(7) 0.56827(18) 0.5220(3)
H22 H 0.7898 0.5398 0.5635
H23 H 0.5809 0.5648 0.5147
H24 H 0.7730 0.6063 0.5436
N1 N 0.5693(4) 0.63601(12) -0.03880(18)
N2 N 1.0396(4) 0.59157(11) 0.10582(17)
O1 O 1.3692(4) 0.54810(11) 0.17611(16)
O2 O 1.0605(4) 0.48543(10) 0.12512(15)
S1 S 1.13901(16) 0.53805(4) 0.16546(6)
loop_
_geom_bond_atom_site_label_1
_geom_bond_atom_site_label_2
_geom_bond_site_symmetry_1
_geom_bond_site_symmetry_2
C1 C2 1_555 1_555
C2 H1 1_555 1_555
C3 C2 1_555 1_555
H2 C3 1_555 1_555
C4 C3 1_555 1_555
H3 C4 1_555 1_555
C5 C4 1_555 1_555
H4 C5 1_555 1_555
C6 C1 1_555 1_555
C7 C6 1_555 1_555
C8 C7 1_555 1_555
H5 C8 1_555 1_555
C9 C8 1_555 1_555
H6 C9 1_555 1_555
H7 C9 1_555 1_555
C10 H8 1_555 1_555
H9 C10 1_555 1_555
C11 C7 1_555 1_555
C12 H10 1_555 1_555
H11 C12 1_555 1_555
H12 C12 1_555 1_555
C13 C8 1_555 1_555
C14 C13 1_555 1_555
H13 C14 1_555 1_555
C15 C14 1_555 1_555
H14 C15 1_555 1_555
C16 C15 1_555 1_555
H15 C16 1_555 1_555
C17 C16 1_555 1_555
H16 C17 1_555 1_555
C18 C13 1_555 1_555
H17 C18 1_555 1_555
C19 C20 1_555 1_555
C20 H18 1_555 1_555
C21 C20 1_555 1_555
H19 C21 1_555 1_555
C22 C21 1_555 1_555
C23 C22 1_555 1_555
H20 C23 1_555 1_555
C24 C19 1_555 1_555
H21 C24 1_555 1_555
C25 C22 1_555 1_555
H22 C25 1_555 1_555
H23 C25 1_555 1_555
H24 C25 1_555 1_555
N1 C1 1_555 1_555
N2 C9 1_555 1_555
O1 S1 1_555 1_555
O2 S1 1_555 1_555
S1 C19 1_555 1_555
C5 C6 1_555 1_555
C10 C11 1_555 1_555
C10 N2 1_555 1_555
C11 N1 1_555 1_555
C12 N1 1_555 1_555
C17 C18 1_555 1_555
C23 C24 1_555 1_555
N2 S1 1_555 1_555

#END
