
#######################################################################
#
#                 Cambridge Crystallographic Data Centre
#                                CCDC 
#
#######################################################################
#
# If this CIF has been generated from an entry in the Cambridge 
# Structural Database, then it will include bibliographic, chemical, 
# crystal, experimental, refinement or atomic coordinate data resulting 
# from the CCDC's data processing and validation procedures.
#
#######################################################################

data_KIRHEA
_chemical_formula_moiety         'C11 H8 F12 N2 O2'
_chemical_name_systematic        
1,1,1,3,3,3-Hexafluoro-2-((1-(3,3,3-trifluoro-2-hydroxy-2-(trifluoromethyl)propyl)-1H-imidazol-3-ium-3-yl)methyl)propan-2-olate
_symmetry_cell_setting           monoclinic
_symmetry_space_group_name_H-M   'P 21/c'
_symmetry_Int_Tables_number      14
_space_group_name_Hall           '-P 2ybc'
loop_
_symmetry_equiv_pos_site_id
_symmetry_equiv_pos_as_xyz
1 x,y,z
2 -x,1/2+y,1/2-z
3 -x,-y,-z
4 x,1/2-y,1/2+z
_cell_length_a                   37.532(10)
_cell_length_b                   25.710(7)
_cell_length_c                   12.803(4)
_cell_angle_alpha                90
_cell_angle_beta                 98.377(6)
_cell_angle_gamma                90
_cell_volume                     12222.4
_exptl_crystal_colour            colorless
_exptl_crystal_description       'rectangular plate'
_cell_formula_units_Z            32
_exptl_crystal_recrystallization_method hexane/acetone
loop_
_atom_site_label
_atom_site_type_symbol
_atom_site_fract_x
_atom_site_fract_y
_atom_site_fract_z
F1 F -0.01044(8) 0.67950(13) -0.1395(2)
F2 F -0.05308(9) 0.70989(13) -0.0645(3)
F3 F -0.04767(8) 0.62825(12) -0.0840(3)
F4 F -0.04786(9) 0.70309(12) 0.1478(3)
F5 F -0.04858(8) 0.62104(12) 0.1238(3)
F6 F -0.00549(8) 0.65549(13) 0.2269(2)
F7 F 0.16266(8) 0.62844(11) -0.0794(2)
F8 F 0.16083(8) 0.61786(12) -0.2459(2)
F9 F 0.18545(7) 0.68619(12) -0.1704(3)
F10 F 0.10932(8) 0.66741(12) -0.3755(2)
F11 F 0.14044(9) 0.73438(13) -0.3235(3)
F12 F 0.08410(8) 0.73184(13) -0.3107(2)
N1 N 0.04025(9) 0.73458(14) -0.0052(3)
N2 N 0.08798(9) 0.73947(14) -0.0807(3)
C1 C 0.07257(11) 0.71357(18) -0.0104(4)
H1 H 0.0825 0.6854 0.0291
C2 C 0.03541(13) 0.77526(18) -0.0756(4)
H2 H 0.0152 0.7965 -0.0886
C3 C 0.06489(12) 0.77870(18) -0.1218(4)
H3 H 0.0692 0.8030 -0.1723
C4 C 0.01604(12) 0.71991(18) 0.0692(4)
H4 H -0.0014 0.7476 0.0713
H5 H 0.0300 0.7174 0.1390
C5 C -0.00456(11) 0.66865(17) 0.0455(4)
C6 C -0.02915(12) 0.67167(19) -0.0603(4)
C7 C -0.02723(13) 0.66193(19) 0.1357(4)
C8 C 0.12348(12) 0.72597(18) -0.1076(4)
H6 H 0.1393 0.7159 -0.0440
H7 H 0.1338 0.7562 -0.1369
C9 C 0.12107(11) 0.68040(18) -0.1892(4)
C10 C 0.15787(13) 0.6535(2) -0.1718(4)
C11 C 0.11402(13) 0.7032(2) -0.3009(4)
O1 O 0.01675(8) 0.62579(12) 0.0391(3)
H8 H 0.0354 0.6289 0.0805
O2 O 0.09471(8) 0.64688(11) -0.1733(2)
F13 F 0.22319(8) 0.86489(13) 0.6386(3)
F14 F 0.19506(8) 0.79569(14) 0.5790(3)
F15 F 0.22089(8) 0.79891(14) 0.7400(2)
F16 F 0.23519(10) 0.72232(13) 0.4974(3)
F17 F 0.24251(10) 0.70943(13) 0.6647(3)
F18 F 0.28833(10) 0.71283(12) 0.5826(3)
F19 F 0.36585(10) 0.83109(14) 0.2229(3)
F20 F 0.40796(10) 0.88610(15) 0.2155(3)
F21 F 0.42091(12) 0.80637(16) 0.2506(3)
F22 F 0.44982(9) 0.91169(15) 0.3900(4)
F23 F 0.46080(9) 0.83124(15) 0.4312(4)
F24 F 0.43850(10) 0.88209(16) 0.5376(4)
N3 N 0.29606(10) 0.80377(15) 0.4612(3)
N4 N 0.35134(11) 0.79574(16) 0.4355(3)
C12 C 0.32975(12) 0.81962(18) 0.4940(4)
H9 H 0.3368 0.8432 0.5482
C13 C 0.29661(15) 0.7694(2) 0.3792(4)
H10 H 0.2767 0.7528 0.3416
C14 C 0.33061(15) 0.7641(2) 0.3632(4)
H11 H 0.3389 0.7430 0.3129
C15 C 0.26438(12) 0.8219(2) 0.5041(4)
H12 H 0.2432 0.8166 0.4522
H13 H 0.2666 0.8589 0.5184
C16 C 0.25962(12) 0.79286(19) 0.6071(4)
C17 C 0.22459(13) 0.8129(2) 0.6408(4)
C18 C 0.25656(17) 0.7331(2) 0.5889(5)
C19 C 0.38972(13) 0.8047(2) 0.4429(5)
H14 H 0.4007 0.7755 0.4117
H15 H 0.4001 0.8066 0.5167
C20 C 0.39886(13) 0.8556(2) 0.3865(5)
C21 C 0.39856(17) 0.8453(3) 0.2702(6)
C22 C 0.43708(16) 0.8707(3) 0.4371(8)
O3 O 0.28801(8) 0.80031(13) 0.6861(3)
H16 H 0.2952 0.8303 0.6840
O4 O 0.37629(8) 0.89537(13) 0.4021(3)
F25 F 0.49181(9) 0.67744(14) 0.6307(3)
F26 F 0.45374(10) 0.71902(15) 0.5252(3)
F27 F 0.44985(10) 0.63663(15) 0.5377(3)
F28 F 0.45014(9) 0.69798(14) 0.3163(3)
F29 F 0.45585(9) 0.61590(13) 0.3377(3)
F30 F 0.49504(10) 0.65766(15) 0.2677(3)
F31 F 0.62831(10) 0.67586(14) 0.9580(3)
F32 F 0.59845(12) 0.73822(16) 0.8790(3)
F33 F 0.65596(13) 0.74311(16) 0.9130(3)
F34 F 0.69461(9) 0.69231(15) 0.7830(4)
F35 F 0.67346(9) 0.62379(14) 0.8462(4)
F36 F 0.66701(11) 0.63580(16) 0.6797(4)
N5 N 0.54271(10) 0.73426(15) 0.5321(3)
N6 N 0.59171(10) 0.74212(15) 0.6420(3)
C23 C 0.57545(12) 0.71522(18) 0.5609(4)
H17 H 0.5854 0.6873 0.5291
C24 C 0.53793(14) 0.7748(2) 0.5995(4)
H18 H 0.5173 0.7952 0.5977
C25 C 0.56830(13) 0.77953(19) 0.6677(4)
H19 H 0.5728 0.8036 0.7223
C26 C 0.51860(13) 0.7190(2) 0.4379(4)
H20 H 0.5327 0.7141 0.3809
H21 H 0.5019 0.7472 0.4178
C27 C 0.49679(12) 0.66872(18) 0.4495(4)
C28 C 0.47277(15) 0.6750(2) 0.5354(5)
C29 C 0.47395(15) 0.6598(2) 0.3425(5)
C30 C 0.62861(12) 0.73225(19) 0.6920(4)
H22 H 0.6384 0.7635 0.7277
H23 H 0.6434 0.7236 0.6382
C31 C 0.63020(12) 0.68691(18) 0.7729(4)
C32 C 0.62844(17) 0.7106(3) 0.8819(5)
C33 C 0.66706(15) 0.6600(2) 0.7712(6)
O5 O 0.51768(9) 0.62534(13) 0.4787(3)
H24 H 0.5356 0.6258 0.4489
O6 O 0.60360(8) 0.65208(13) 0.7488(3)
F37 F 0.44303(9) 0.40566(13) 0.7807(2)
F38 F 0.41059(9) 0.47507(13) 0.7628(3)
F39 F 0.45566(9) 0.46672(13) 0.6794(2)
F40 F 0.34726(8) 0.43257(12) 0.6717(3)
F41 F 0.37550(8) 0.36461(13) 0.7350(3)
F42 F 0.35170(8) 0.36672(13) 0.5730(3)
F43 F 0.42536(9) 0.52747(12) 0.1734(3)
F44 F 0.47335(9) 0.51088(15) 0.1085(3)
F45 F 0.42180(9) 0.50373(14) 0.0132(3)
F46 F 0.47698(9) 0.41686(16) 0.0218(3)
F47 F 0.45232(9) 0.35374(15) 0.0934(3)
F48 F 0.42107(9) 0.39984(15) -0.0251(3)
N7 N 0.41952(11) 0.46717(16) 0.4629(3)
N8 N 0.45134(11) 0.45347(17) 0.3377(3)
C34 C 0.42512(13) 0.4350(2) 0.3854(4)
H25 H 0.4126 0.4043 0.3677
C35 C 0.44380(15) 0.5078(2) 0.4638(4)
H26 H 0.4461 0.5360 0.5098
C36 C 0.46346(15) 0.4988(2) 0.3859(5)
H27 H 0.4819 0.5197 0.3681
C37 C 0.39291(13) 0.4586(2) 0.5324(4)
H28 H 0.3703 0.4484 0.4906
H29 H 0.3889 0.4908 0.5682
C38 C 0.40481(13) 0.41571(18) 0.6162(4)
C39 C 0.42834(15) 0.4406(2) 0.7111(4)
C40 C 0.37010(14) 0.3950(2) 0.6503(4)
C41 C 0.46327(13) 0.4284(2) 0.2462(4)
H30 H 0.4651 0.3912 0.2581
H31 H 0.4870 0.4412 0.2380
C42 C 0.43693(13) 0.4392(2) 0.1437(4)
C43 C 0.43964(15) 0.4954(3) 0.1091(5)
C44 C 0.44694(15) 0.4021(3) 0.0568(5)
O7 O 0.42247(8) 0.37521(13) 0.5785(3)
O8 O 0.40134(8) 0.43164(13) 0.1567(3)
H32 H 0.3984 0.4014 0.1736
F49 F 0.14712(8) 0.64106(12) 1.1984(3)
F50 F 0.15350(8) 0.57525(11) 1.3010(2)
F51 F 0.12401(8) 0.64196(12) 1.3412(2)
F52 F 0.09144(9) 0.52619(13) 1.3332(3)
F53 F 0.05989(9) 0.59515(12) 1.3370(2)
F54 F 0.04468(8) 0.53868(12) 1.2187(2)
F55 F 0.02878(8) 0.64319(11) 0.6505(2)
F56 F 0.04132(9) 0.59443(13) 0.5267(2)
F57 F -0.00827(8) 0.58406(13) 0.5870(3)
F58 F 0.05780(8) 0.46785(11) 0.7281(2)
F59 F 0.05802(8) 0.49507(11) 0.5704(2)
F60 F 0.00813(8) 0.48537(12) 0.6304(3)
N9 N 0.08061(9) 0.53429(14) 1.0360(3)
N10 N 0.04392(10) 0.53952(15) 0.8910(3)
C45 C 0.07047(12) 0.56374(18) 0.9523(3)
H33 H 0.0802 0.5959 0.9387
C46 C 0.06022(14) 0.48991(19) 1.0278(4)
H34 H 0.0621 0.4626 1.0759
C47 C 0.03705(13) 0.4931(2) 0.9376(4)
H35 H 0.0197 0.4687 0.9116
C48 C 0.10884(12) 0.54848(19) 1.1225(4)
H36 H 0.1293 0.5625 1.0935
H37 H 0.1168 0.5175 1.1625
C49 C 0.09552(11) 0.58926(17) 1.1977(3)
C50 C 0.12994(13) 0.6119(2) 1.2597(4)
C51 C 0.07313(13) 0.56207(19) 1.2735(4)
C52 C 0.02465(12) 0.5619(2) 0.7944(4)
H38 H 0.0203 0.5984 0.8065
H39 H 0.0014 0.5449 0.7784
C53 C 0.04484(11) 0.55680(18) 0.6977(4)
C54 C 0.02658(13) 0.5948(2) 0.6147(4)
C55 C 0.04204(12) 0.50130(19) 0.6556(4)
O9 O 0.07632(8) 0.62908(12) 1.1478(2)
O10 O 0.08111(8) 0.56676(12) 0.7207(3)
H40 H 0.0842 0.5961 0.7455
F61 F 0.27179(13) 0.25560(15) 0.9199(3)
F62 F 0.24370(11) 0.32195(14) 0.9674(3)
F63 F 0.21398(13) 0.25755(16) 0.8962(3)
F64 F 0.27470(10) 0.36134(15) 0.6782(4)
F65 F 0.30534(8) 0.30626(14) 0.7780(4)
F66 F 0.28487(9) 0.37430(13) 0.8446(3)
F67 F 0.07761(8) 0.40017(13) 0.3619(3)
F68 F 0.06706(9) 0.31977(14) 0.3242(3)
F69 F 0.11649(8) 0.35457(12) 0.2972(2)
F70 F 0.09746(8) 0.31906(12) 0.6456(2)
F71 F 0.07404(7) 0.38800(11) 0.5732(3)
F72 F 0.05330(7) 0.31378(12) 0.5194(3)
N11 N 0.20108(9) 0.25425(14) 0.6556(3)
N12 N 0.15081(10) 0.26477(15) 0.5544(3)
C56 C 0.18439(12) 0.28100(18) 0.5759(4)
H41 H 0.1946 0.3073 0.5401
C57 C 0.17713(13) 0.21955(18) 0.6890(4)
H42 H 0.1819 0.1960 0.7444
C58 C 0.14577(13) 0.22633(19) 0.6263(4)
H43 H 0.1245 0.2085 0.6303
C59 C 0.23859(12) 0.26337(18) 0.7016(4)
H44 H 0.2526 0.2713 0.6457
H45 H 0.2484 0.2321 0.7370
C60 C 0.24170(12) 0.30917(18) 0.7819(4)
C61 C 0.24272(18) 0.2867(2) 0.8919(5)
C62 C 0.27721(15) 0.3380(2) 0.7709(6)
C63 C 0.12486(12) 0.28106(18) 0.4644(4)
H46 H 0.1045 0.2575 0.4570
H47 H 0.1360 0.2785 0.4008
C64 C 0.11099(12) 0.33797(18) 0.4749(4)
C65 C 0.09248(14) 0.3532(2) 0.3647(4)
C66 C 0.08372(12) 0.33993(19) 0.5532(4)
O11 O 0.21402(8) 0.34248(12) 0.7596(2)
H48 H 0.2150 0.3645 0.8063
O12 O 0.13749(8) 0.37245(12) 0.5123(3)
F73 F 0.15579(8) 0.46075(11) 0.3417(2)
F74 F 0.17431(9) 0.40862(12) 0.2312(2)
F75 F 0.20096(9) 0.48188(13) 0.2666(3)
F76 F 0.23882(8) 0.36512(12) 0.2810(3)
F77 F 0.26528(8) 0.43580(11) 0.3348(3)
F78 F 0.26503(8) 0.37120(12) 0.4391(3)
F79 F 0.18427(8) 0.51854(11) 0.8617(3)
F80 F 0.18353(11) 0.48818(14) 1.0153(3)
F81 F 0.13469(9) 0.50125(14) 0.9126(3)
F82 F 0.17572(10) 0.38504(15) 1.0336(3)
F83 F 0.12217(10) 0.40336(16) 0.9628(3)
F84 F 0.15180(10) 0.34332(13) 0.8985(3)
N13 N 0.19494(10) 0.46738(14) 0.5561(3)
N14 N 0.16234(10) 0.45429(15) 0.6786(3)
C67 C 0.18905(11) 0.43512(18) 0.6319(3)
H49 H 0.2014 0.4043 0.6498
C68 C 0.17122(14) 0.5084(2) 0.5538(4)
H50 H 0.1696 0.5365 0.5076
C69 C 0.15084(14) 0.5006(2) 0.6301(4)
H51 H 0.1326 0.5221 0.6471
C70 C 0.22208(13) 0.45816(19) 0.4877(4)
H52 H 0.2442 0.4469 0.5304
H53 H 0.2270 0.4905 0.4535
C71 C 0.20996(12) 0.41594(18) 0.4010(4)
C72 C 0.18558(14) 0.4418(2) 0.3097(4)
C73 C 0.24492(14) 0.3970(2) 0.3630(4)
C74 C 0.14696(12) 0.4261(2) 0.7604(4)
H54 H 0.1442 0.3897 0.7403
H55 H 0.1232 0.4398 0.7650
C75 C 0.17012(12) 0.42979(19) 0.8697(4)
C76 C 0.16843(14) 0.4847(2) 0.9148(4)
C77 C 0.15511(15) 0.3907(2) 0.9414(5)
O13 O 0.19351(8) 0.37389(12) 0.4369(2)
O14 O 0.20600(8) 0.41976(12) 0.8679(2)
F85 F 0.24971(7) 0.57147(12) 0.8679(3)
F86 F 0.24383(8) 0.51482(13) 0.7444(3)
F87 F 0.24265(8) 0.59608(14) 0.7066(3)
F88 F 0.29268(9) 0.51841(12) 0.6082(2)
F89 F 0.29970(10) 0.60166(13) 0.6104(3)
F90 F 0.34439(8) 0.55220(12) 0.6642(2)
F91 F 0.38155(12) 0.61348(19) 1.2776(6)
F92 F 0.34647(13) 0.64363(16) 1.3790(4)
F93 F 0.36815(16) 0.56678(17) 1.4042(4)
F94 F 0.27760(12) 0.61398(14) 1.3453(3)
F95 F 0.29827(16) 0.53875(16) 1.3944(3)
F96 F 0.26445(11) 0.54712(15) 1.2474(4)
N15 N 0.31032(10) 0.50537(15) 0.9417(3)
N16 N 0.31971(10) 0.51150(15) 1.1111(3)
C78 C 0.33141(13) 0.52551(19) 1.0224(4)
H56 H 0.3514 0.5463 1.0181
C79 C 0.28319(14) 0.4786(2) 0.9785(4)
H57 H 0.2643 0.4612 0.9379
C80 C 0.28884(13) 0.48220(19) 1.0836(4)
H58 H 0.2746 0.4677 1.1298
C81 C 0.31599(14) 0.5101(2) 0.8311(4)
H59 H 0.3053 0.4802 0.7922
H60 H 0.3417 0.5095 0.8280
C82 C 0.29988(13) 0.55993(19) 0.7770(4)
C83 C 0.25871(14) 0.5613(2) 0.7733(4)
C84 C 0.30899(15) 0.5589(2) 0.6626(4)
C85 C 0.33659(14) 0.5251(2) 1.2167(4)
H61 H 0.3625 0.5260 1.2185
H62 H 0.3311 0.4986 1.2657
C86 C 0.32358(14) 0.5792(2) 1.2531(4)
C87 C 0.3548(3) 0.6012(3) 1.3280(7)
C88 C 0.2909(2) 0.5693(3) 1.3117(5)
O15 O 0.31225(9) 0.60447(13) 0.8273(3)
H63 H 0.3343 0.6035 0.8401
O16 O 0.31465(8) 0.61221(13) 1.1720(3)
H64? H 0.1530 0.3725 0.4734
loop_
_geom_bond_atom_site_label_1
_geom_bond_atom_site_label_2
_geom_bond_site_symmetry_1
_geom_bond_site_symmetry_2
F1 C6 1_555 1_555
F2 C6 1_555 1_555
F3 C6 1_555 1_555
F4 C7 1_555 1_555
F5 C7 1_555 1_555
F6 C7 1_555 1_555
F7 C10 1_555 1_555
F8 C10 1_555 1_555
F9 C10 1_555 1_555
F10 C11 1_555 1_555
F11 C11 1_555 1_555
F12 C11 1_555 1_555
N1 C1 1_555 1_555
N2 C1 1_555 1_555
C1 H1 1_555 1_555
C2 N1 1_555 1_555
H2 C2 1_555 1_555
C3 N2 1_555 1_555
H3 C3 1_555 1_555
C4 N1 1_555 1_555
H4 C4 1_555 1_555
H5 C4 1_555 1_555
C5 C4 1_555 1_555
C6 C5 1_555 1_555
C7 C5 1_555 1_555
C8 N2 1_555 1_555
H6 C8 1_555 1_555
H7 C8 1_555 1_555
C9 C8 1_555 1_555
C10 C9 1_555 1_555
C11 C9 1_555 1_555
O1 C5 1_555 1_555
H8 O1 1_555 1_555
O2 C9 1_555 1_555
F13 C17 1_555 1_555
F14 C17 1_555 1_555
F15 C17 1_555 1_555
F16 C18 1_555 1_555
F17 C18 1_555 1_555
F18 C18 1_555 1_555
F19 C21 1_555 1_555
F20 C21 1_555 1_555
F21 C21 1_555 1_555
F22 C22 1_555 1_555
F23 C22 1_555 1_555
F24 C22 1_555 1_555
N3 C12 1_555 1_555
N4 C12 1_555 1_555
C12 H9 1_555 1_555
C13 N3 1_555 1_555
H10 C13 1_555 1_555
C14 N4 1_555 1_555
H11 C14 1_555 1_555
C15 N3 1_555 1_555
H12 C15 1_555 1_555
H13 C15 1_555 1_555
C16 C15 1_555 1_555
C17 C16 1_555 1_555
C18 C16 1_555 1_555
C19 N4 1_555 1_555
H14 C19 1_555 1_555
H15 C19 1_555 1_555
C20 C19 1_555 1_555
C21 C20 1_555 1_555
C22 C20 1_555 1_555
O3 C16 1_555 1_555
H16 O3 1_555 1_555
O4 C20 1_555 1_555
F25 C28 1_555 1_555
F26 C28 1_555 1_555
F27 C28 1_555 1_555
F28 C29 1_555 1_555
F29 C29 1_555 1_555
F30 C29 1_555 1_555
F31 C32 1_555 1_555
F32 C32 1_555 1_555
F33 C32 1_555 1_555
F34 C33 1_555 1_555
F35 C33 1_555 1_555
F36 C33 1_555 1_555
N5 C23 1_555 1_555
N6 C23 1_555 1_555
C23 H17 1_555 1_555
C24 N5 1_555 1_555
H18 C24 1_555 1_555
C25 N6 1_555 1_555
H19 C25 1_555 1_555
C26 N5 1_555 1_555
H20 C26 1_555 1_555
H21 C26 1_555 1_555
C27 C26 1_555 1_555
C28 C27 1_555 1_555
C29 C27 1_555 1_555
C30 N6 1_555 1_555
H22 C30 1_555 1_555
H23 C30 1_555 1_555
C31 C30 1_555 1_555
C32 C31 1_555 1_555
C33 C31 1_555 1_555
O5 C27 1_555 1_555
H24 O5 1_555 1_555
O6 C31 1_555 1_555
F37 C39 1_555 1_555
F38 C39 1_555 1_555
F39 C39 1_555 1_555
F40 C40 1_555 1_555
F41 C40 1_555 1_555
F42 C40 1_555 1_555
F43 C43 1_555 1_555
F44 C43 1_555 1_555
F45 C43 1_555 1_555
F46 C44 1_555 1_555
F47 C44 1_555 1_555
F48 C44 1_555 1_555
N7 C34 1_555 1_555
N8 C34 1_555 1_555
C34 H25 1_555 1_555
C35 N7 1_555 1_555
H26 C35 1_555 1_555
C36 N8 1_555 1_555
H27 C36 1_555 1_555
C37 N7 1_555 1_555
H28 C37 1_555 1_555
H29 C37 1_555 1_555
C38 C37 1_555 1_555
C39 C38 1_555 1_555
C40 C38 1_555 1_555
C41 N8 1_555 1_555
H30 C41 1_555 1_555
H31 C41 1_555 1_555
C42 C41 1_555 1_555
C43 C42 1_555 1_555
C44 C42 1_555 1_555
O7 C38 1_555 1_555
O8 C42 1_555 1_555
H32 O8 1_555 1_555
F49 C50 1_555 1_555
F50 C50 1_555 1_555
F51 C50 1_555 1_555
F52 C51 1_555 1_555
F53 C51 1_555 1_555
F54 C51 1_555 1_555
F55 C54 1_555 1_555
F56 C54 1_555 1_555
F57 C54 1_555 1_555
F58 C55 1_555 1_555
F59 C55 1_555 1_555
F60 C55 1_555 1_555
N9 C45 1_555 1_555
N10 C45 1_555 1_555
C45 H33 1_555 1_555
C46 N9 1_555 1_555
H34 C46 1_555 1_555
C47 N10 1_555 1_555
H35 C47 1_555 1_555
C48 N9 1_555 1_555
H36 C48 1_555 1_555
H37 C48 1_555 1_555
C49 C48 1_555 1_555
C50 C49 1_555 1_555
C51 C49 1_555 1_555
C52 N10 1_555 1_555
H38 C52 1_555 1_555
H39 C52 1_555 1_555
C53 C52 1_555 1_555
C54 C53 1_555 1_555
C55 C53 1_555 1_555
O9 C49 1_555 1_555
O10 C53 1_555 1_555
H40 O10 1_555 1_555
F61 C61 1_555 1_555
F62 C61 1_555 1_555
F63 C61 1_555 1_555
F64 C62 1_555 1_555
F65 C62 1_555 1_555
F66 C62 1_555 1_555
F67 C65 1_555 1_555
F68 C65 1_555 1_555
F69 C65 1_555 1_555
F70 C66 1_555 1_555
F71 C66 1_555 1_555
F72 C66 1_555 1_555
N11 C56 1_555 1_555
N12 C56 1_555 1_555
C56 H41 1_555 1_555
C57 N11 1_555 1_555
H42 C57 1_555 1_555
C58 N12 1_555 1_555
H43 C58 1_555 1_555
C59 N11 1_555 1_555
H44 C59 1_555 1_555
H45 C59 1_555 1_555
C60 C59 1_555 1_555
C61 C60 1_555 1_555
C62 C60 1_555 1_555
C63 N12 1_555 1_555
H46 C63 1_555 1_555
H47 C63 1_555 1_555
C64 C63 1_555 1_555
C65 C64 1_555 1_555
C66 C64 1_555 1_555
O11 C60 1_555 1_555
H48 O11 1_555 1_555
O12 C64 1_555 1_555
F73 C72 1_555 1_555
F74 C72 1_555 1_555
F75 C72 1_555 1_555
F76 C73 1_555 1_555
F77 C73 1_555 1_555
F78 C73 1_555 1_555
F79 C76 1_555 1_555
F80 C76 1_555 1_555
F81 C76 1_555 1_555
F82 C77 1_555 1_555
F83 C77 1_555 1_555
F84 C77 1_555 1_555
N13 C67 1_555 1_555
N14 C67 1_555 1_555
C67 H49 1_555 1_555
C68 N13 1_555 1_555
H50 C68 1_555 1_555
C69 N14 1_555 1_555
H51 C69 1_555 1_555
C70 N13 1_555 1_555
H52 C70 1_555 1_555
H53 C70 1_555 1_555
C71 C70 1_555 1_555
C72 C71 1_555 1_555
C73 C71 1_555 1_555
C74 N14 1_555 1_555
H54 C74 1_555 1_555
H55 C74 1_555 1_555
C75 C74 1_555 1_555
C76 C75 1_555 1_555
C77 C75 1_555 1_555
O13 C71 1_555 1_555
O14 C75 1_555 1_555
F85 C83 1_555 1_555
F86 C83 1_555 1_555
F87 C83 1_555 1_555
F88 C84 1_555 1_555
F89 C84 1_555 1_555
F90 C84 1_555 1_555
F91 C87 1_555 1_555
F92 C87 1_555 1_555
F93 C87 1_555 1_555
F94 C88 1_555 1_555
F95 C88 1_555 1_555
F96 C88 1_555 1_555
N15 C78 1_555 1_555
N16 C78 1_555 1_555
C78 H56 1_555 1_555
C79 N15 1_555 1_555
H57 C79 1_555 1_555
C80 N16 1_555 1_555
H58 C80 1_555 1_555
C81 N15 1_555 1_555
H59 C81 1_555 1_555
H60 C81 1_555 1_555
C82 C81 1_555 1_555
C83 C82 1_555 1_555
C84 C82 1_555 1_555
C85 N16 1_555 1_555
H61 C85 1_555 1_555
H62 C85 1_555 1_555
C86 C85 1_555 1_555
C87 C86 1_555 1_555
C88 C86 1_555 1_555
O15 C82 1_555 1_555
H63 O15 1_555 1_555
O16 C86 1_555 1_555
C2 C3 1_555 1_555
C13 C14 1_555 1_555
C24 C25 1_555 1_555
C35 C36 1_555 1_555
C46 C47 1_555 1_555
C57 C58 1_555 1_555
C68 C69 1_555 1_555
C79 C80 1_555 1_555

#END
