
#######################################################################
#
#                 Cambridge Crystallographic Data Centre
#                                CCDC 
#
#######################################################################
#
# If this CIF has been generated from an entry in the Cambridge 
# Structural Database, then it will include bibliographic, chemical, 
# crystal, experimental, refinement or atomic coordinate data resulting 
# from the CCDC's data processing and validation procedures.
#
#######################################################################

data_KIRHIC
_chemical_formula_moiety         'C15 H13 N3 O2'
_chemical_name_systematic        
5-(p-Nitrophenyl)-2-(pent-4-yn-1-yl)-pyrimidine
_symmetry_cell_setting           orthorhombic
_symmetry_space_group_name_H-M   'P c a b'
_symmetry_Int_Tables_number      61
_space_group_name_Hall           '-P 2bc 2ac'
loop_
_symmetry_equiv_pos_site_id
_symmetry_equiv_pos_as_xyz
1 x,y,z
2 -x,1/2-y,1/2+z
3 1/2+x,-y,1/2-z
4 1/2-x,1/2+y,-z
5 -x,-y,-z
6 x,1/2+y,1/2-z
7 1/2-x,y,1/2+z
8 1/2+x,1/2-y,z
_cell_length_a                   10.066(2)
_cell_length_b                   34.428(6)
_cell_length_c                   7.647(3)
_cell_angle_alpha                90
_cell_angle_beta                 90
_cell_angle_gamma                90
_cell_volume                     2650.09
_cell_formula_units_Z            8
loop_
_atom_site_label
_atom_site_type_symbol
_atom_site_fract_x
_atom_site_fract_y
_atom_site_fract_z
N1 N 0.2760(5) 0.2876(1) 0.3143(6)
N2 N 0.2270(5) 0.5095(1) 0.0616(7)
N3 N 0.4863(4) 0.3078(1) 0.4220(6)
O1 O 0.3149(5) 0.5283(1) -0.0026(8)
O2 O 0.1149(5) 0.5218(1) 0.0766(9)
C1 C 0.3925(5) 0.2810(2) 0.3933(7)
C2 C 0.4583(6) 0.3437(2) 0.3707(8)
C3 C 0.3417(5) 0.3549(2) 0.2899(7)
C4 C 0.2538(6) 0.3242(2) 0.2648(8)
C5 C 0.4203(6) 0.2408(2) 0.4587(8)
C6 C 0.3574(6) 0.2083(2) 0.3551(8)
C7 C 0.3875(6) 0.1687(2) 0.4312(9)
C8 C 0.3457(6) 0.1359(2) 0.3210(9)
C9 C 0.3150(6) 0.1097(2) 0.234(1)
C10 C 0.3107(5) 0.3951(1) 0.2346(7)
C11 C 0.4127(6) 0.4207(2) 0.1888(8)
C12 C 0.3857(6) 0.4583(2) 0.1362(9)
C13 C 0.2562(6) 0.4698(1) 0.1239(7)
C14 C 0.1528(6) 0.4457(2) 0.1699(8)
C15 C 0.1811(5) 0.4084(2) 0.2254(8)
H1 H 0.522(5) 0.363(1) 0.399(7)
H2 H 0.174(5) 0.331(1) 0.218(6)
H3 H 0.286(7) 0.091(2) 0.165(9)
H4 H 0.514(6) 0.236(2) 0.448(7)
H5 H 0.393(6) 0.239(2) 0.571(8)
H6 H 0.258(6) 0.214(1) 0.345(7)
H7 H 0.381(4) 0.208(1) 0.236(6)
H8 H 0.485(5) 0.167(2) 0.439(7)
H9 H 0.342(6) 0.166(2) 0.539(9)
H10 H 0.506(4) 0.411(1) 0.203(5)
H11 H 0.455(5) 0.473(1) 0.085(7)
H12 H 0.065(5) 0.454(2) 0.160(7)
H13 H 0.111(6) 0.392(2) 0.261(8)
loop_
_geom_bond_atom_site_label_1
_geom_bond_atom_site_label_2
_geom_bond_site_symmetry_1
_geom_bond_site_symmetry_2
N1 C1 1_555 1_555
N2 O1 1_555 1_555
N3 C1 1_555 1_555
O2 N2 1_555 1_555
C1 C5 1_555 1_555
C2 N3 1_555 1_555
C3 C2 1_555 1_555
C4 N1 1_555 1_555
C5 C6 1_555 1_555
C6 C7 1_555 1_555
C7 C8 1_555 1_555
C8 C9 1_555 1_555
C9 H3 1_555 1_555
C10 C3 1_555 1_555
C11 C10 1_555 1_555
C12 C11 1_555 1_555
C13 N2 1_555 1_555
C14 C13 1_555 1_555
C15 C10 1_555 1_555
H1 C2 1_555 1_555
H2 C4 1_555 1_555
H4 C5 1_555 1_555
H5 C5 1_555 1_555
H6 C6 1_555 1_555
H7 C6 1_555 1_555
H8 C7 1_555 1_555
H9 C7 1_555 1_555
H10 C11 1_555 1_555
H11 C12 1_555 1_555
H12 C14 1_555 1_555
H13 C15 1_555 1_555
C3 C4 1_555 1_555
C12 C13 1_555 1_555
C14 C15 1_555 1_555

#END
