
#######################################################################
#
#                 Cambridge Crystallographic Data Centre
#                                CCDC 
#
#######################################################################
#
# If this CIF has been generated from an entry in the Cambridge 
# Structural Database, then it will include bibliographic, chemical, 
# crystal, experimental, refinement or atomic coordinate data resulting 
# from the CCDC's data processing and validation procedures.
#
#######################################################################

data_KIRHOK
_chemical_formula_moiety         'C11 H9 F12 N2 O2 1+,I1 1-'
_chemical_name_systematic        
'1,3-bis(3,3,3-trifluoro-2-hydroxy-2-(trifluoromethyl)propyl)-1H-imidazol-3-ium iodide'
_symmetry_cell_setting           monoclinic
_symmetry_space_group_name_H-M   'P 21/c'
_symmetry_Int_Tables_number      14
_space_group_name_Hall           '-P 2ybc'
loop_
_symmetry_equiv_pos_site_id
_symmetry_equiv_pos_as_xyz
1 x,y,z
2 -x,1/2+y,1/2-z
3 -x,-y,-z
4 x,1/2-y,1/2+z
_cell_length_a                   13.07(3)
_cell_length_b                   11.45(2)
_cell_length_c                   12.90(3)
_cell_angle_alpha                90
_cell_angle_beta                 110.69(3)
_cell_angle_gamma                90
_cell_volume                     1806
_exptl_crystal_colour            colorless
_exptl_crystal_description       'rectangular plate'
_cell_formula_units_Z            4
loop_
_atom_site_label
_atom_site_type_symbol
_atom_site_fract_x
_atom_site_fract_y
_atom_site_fract_z
F1 F 0.2475(2) 0.8917(3) 0.5226(2)
F2 F 0.3997(3) 0.9496(4) 0.5048(3)
F3 F 0.3671(3) 0.7644(4) 0.5108(3)
F4 F 0.4160(3) 0.9339(3) 0.3014(3)
F5 F 0.3997(3) 0.7449(3) 0.3134(3)
F6 F 0.2888(3) 0.8396(4) 0.1706(3)
F7 F -0.2531(3) 0.8952(3) 0.3355(3)
F8 F -0.3992(3) 0.9598(4) 0.2018(4)
F9 F -0.3769(3) 0.7736(4) 0.2344(4)
F10 F -0.4131(3) 0.9257(3) -0.0124(3)
F11 F -0.3932(3) 0.7374(3) 0.0209(4)
F12 F -0.2820(3) 0.8308(4) -0.0414(3)
O1 O 0.1883(3) 0.7703(3) 0.3118(3)
O2 O -0.1884(3) 0.7684(3) 0.1769(3)
N1 N 0.0902(3) 0.9933(3) 0.3012(3)
N2 N -0.0899(3) 0.9922(3) 0.2323(3)
C1 C 0.0015(4) 0.9572(3) 0.2150(4)
C2 C -0.0575(4) 1.0561(4) 0.3330(4)
C3 C 0.0535(4) 1.0563(4) 0.3755(4)
C4 C 0.2032(4) 0.9870(4) 0.3014(4)
C5 C 0.2607(3) 0.8662(4) 0.3435(4)
C6 C 0.3212(4) 0.8683(5) 0.4723(4)
C7 C 0.3433(4) 0.8461(5) 0.2821(4)
C8 C -0.2016(4) 0.9842(4) 0.1464(4)
C9 C -0.2602(3) 0.8655(4) 0.1492(4)
C10 C -0.3242(4) 0.8729(5) 0.2307(5)
C11 C -0.3396(4) 0.8389(5) 0.0268(4)
H1 H 0.242(4) 1.049(5) 0.346(4)
H2 H 0.154(5) 0.770(5) 0.353(6)
H3 H 0.108(4) 1.091(4) 0.440(4)
H4 H -0.114(5) 1.090(6) 0.355(5)
H5 H -0.244(4) 1.047(5) 0.158(4)
H6 H -0.146(6) 0.769(6) 0.234(6)
H7 H -0.199(5) 0.988(5) 0.070(5)
H8 H 0.205(5) 0.993(6) 0.227(6)
H9 H 0.002(4) 0.918(5) 0.151(5)
I1 I 0.00045(2) 0.70665(2) 0.43901(2)
loop_
_geom_bond_atom_site_label_1
_geom_bond_atom_site_label_2
_geom_bond_site_symmetry_1
_geom_bond_site_symmetry_2
F1 C6 1_555 1_555
F2 C6 1_555 1_555
F3 C6 1_555 1_555
F4 C7 1_555 1_555
F5 C7 1_555 1_555
F6 C7 1_555 1_555
F7 C10 1_555 1_555
F8 C10 1_555 1_555
F9 C10 1_555 1_555
F10 C11 1_555 1_555
F11 C11 1_555 1_555
F12 C11 1_555 1_555
O1 C5 1_555 1_555
O2 C9 1_555 1_555
N1 C1 1_555 1_555
N2 C1 1_555 1_555
C1 H9 1_555 1_555
C2 N2 1_555 1_555
C3 N1 1_555 1_555
C4 N1 1_555 1_555
C5 C4 1_555 1_555
C6 C5 1_555 1_555
C7 C5 1_555 1_555
C8 N2 1_555 1_555
C9 C8 1_555 1_555
C10 C9 1_555 1_555
C11 C9 1_555 1_555
H1 C4 1_555 1_555
H2 O1 1_555 1_555
H3 C3 1_555 1_555
H4 C2 1_555 1_555
H5 C8 1_555 1_555
H6 O2 1_555 1_555
H7 C8 1_555 1_555
H8 C4 1_555 1_555
C2 C3 1_555 1_555

#END
