
#######################################################################
#
#                 Cambridge Crystallographic Data Centre
#                                CCDC 
#
#######################################################################
#
# If this CIF has been generated from an entry in the Cambridge 
# Structural Database, then it will include bibliographic, chemical, 
# crystal, experimental, refinement or atomic coordinate data resulting 
# from the CCDC's data processing and validation procedures.
#
#######################################################################

data_KIRLUU
_chemical_formula_moiety         'C37 H30 N2 O2 S1'
_chemical_name_systematic        
4-Methyl-N-(1,9,10a-triphenyl-4,10a-dihydroazeto[1,2-b][2]benzazepin-2(1H)-ylidene)benzenesulfonamide
_symmetry_cell_setting           triclinic
_symmetry_space_group_name_H-M   'P -1'
_symmetry_Int_Tables_number      2
_space_group_name_Hall           '-P 1'
loop_
_symmetry_equiv_pos_site_id
_symmetry_equiv_pos_as_xyz
1 x,y,z
2 -x,-y,-z
_cell_length_a                   11.6466(9)
_cell_length_b                   11.9984(9)
_cell_length_c                   12.9367(12)
_cell_angle_alpha                67.388(8)
_cell_angle_beta                 64.731(8)
_cell_angle_gamma                85.073(6)
_cell_volume                     1502.49
_exptl_crystal_colour            colorless
_exptl_crystal_description       block
_cell_formula_units_Z            2
loop_
_atom_site_label
_atom_site_type_symbol
_atom_site_fract_x
_atom_site_fract_y
_atom_site_fract_z
S1 S 0.71519(8) 0.80611(8) 0.57710(8)
O1 O 0.7052(3) 0.7283(2) 0.6966(2)
O2 O 0.5989(2) 0.8255(2) 0.5624(3)
N1 N 0.7974(3) 0.9327(2) 0.5310(3)
N2 N 0.7910(2) 1.1376(2) 0.5058(2)
C1 C 0.8061(5) 0.6245(4) 0.5066(5)
H1 H 0.7501 0.5764 0.5870
C2 C 0.8786(5) 0.5713(5) 0.4235(5)
H2 H 0.8678 0.4876 0.4489
C3 C 0.9645(5) 0.6377(5) 0.3064(5)
C4 C 0.9739(5) 0.7586(4) 0.2730(5)
H3 H 1.0310 0.8068 0.1931
C5 C 0.9016(5) 0.8140(5) 0.3533(5)
H4 H 0.9107 0.8979 0.3271
C6 C 0.8175(5) 0.7458(4) 0.4700(5)
C7 C 1.0442(6) 0.5760(7) 0.2195(6)
H5 H 0.9921 0.5500 0.1905
H6 H 1.0772 0.5069 0.2629
H7 H 1.1137 0.6320 0.1501
C8 C 0.7382(3) 1.0283(3) 0.5362(3)
C9 C 0.6036(3) 1.0677(3) 0.5681(3)
H8 H 0.5679 1.0586 0.5153
C10 C 0.6757(3) 1.2010(3) 0.5115(3)
C11 C 0.5106(3) 1.0178(3) 0.7028(3)
C12 C 0.5502(4) 0.9617(4) 0.7963(3)
H9 H 0.6363 0.9527 0.7759
C13 C 0.4635(5) 0.9194(4) 0.9188(4)
H10 H 0.4911 0.8803 0.9804
C14 C 0.3373(5) 0.9346(5) 0.9503(4)
H11 H 0.2792 0.9073 1.0333
C15 C 0.2963(4) 0.9901(5) 0.8595(5)
H12 H 0.2103 1.0006 0.8808
C16 C 0.3827(4) 1.0306(4) 0.7357(4)
H13 H 0.3540 1.0667 0.6744
C17 C 0.6312(4) 1.2677(3) 0.5980(3)
C18 C 0.6944(4) 1.2687(4) 0.6666(4)
H14 H 0.7690 1.2304 0.6572
C19 C 0.6484(6) 1.3259(5) 0.7495(4)
H15 H 0.6927 1.3261 0.7945
C20 C 0.5387(7) 1.3818(5) 0.7657(5)
H16 H 0.5077 1.4194 0.8220
C21 C 0.4750(6) 1.3820(5) 0.6980(5)
H17 H 0.4005 1.4206 0.7084
C22 C 0.5197(4) 1.3256(4) 0.6140(4)
H18 H 0.4752 1.3265 0.5687
C23 C 0.6848(3) 1.2767(3) 0.3849(3)
H19 H 0.6194 1.3269 0.3845
C24 C 0.7705(3) 1.2851(3) 0.2718(3)
C25 C 0.8899(3) 1.2228(3) 0.2341(3)
C26 C 0.9332(4) 1.2076(4) 0.1220(3)
H20 H 0.8862 1.2348 0.0756
C27 C 1.0435(4) 1.1538(4) 0.0777(4)
H21 H 1.0691 1.1442 0.0032
C28 C 1.1152(4) 1.1143(4) 0.1440(4)
H22 H 1.1902 1.0790 0.1142
C29 C 1.0749(3) 1.1278(3) 0.2547(4)
H23 H 1.1233 1.1008 0.2998
C30 C 0.9635(3) 1.1808(3) 0.3010(3)
C31 C 0.9230(3) 1.1896(3) 0.4243(3)
H24 H 0.9784 1.1465 0.4621
H25 H 0.9304 1.2740 0.4127
C32 C 0.7414(3) 1.3668(3) 0.1660(3)
C33 C 0.6432(3) 1.3330(3) 0.1481(3)
H26 H 0.5932 1.2601 0.2031
C34 C 0.6188(4) 1.4067(4) 0.0490(4)
H27 H 0.5538 1.3823 0.0364
C35 C 0.6897(4) 1.5161(4) -0.0313(4)
H28 H 0.6723 1.5658 -0.0975
C36 C 0.7859(4) 1.5514(4) -0.0132(4)
H29 H 0.8332 1.6260 -0.0667
C37 C 0.8134(4) 1.4772(3) 0.0840(3)
H30 H 0.8802 1.5011 0.0946
loop_
_geom_bond_atom_site_label_1
_geom_bond_atom_site_label_2
_geom_bond_site_symmetry_1
_geom_bond_site_symmetry_2
S1 O1 1_555 1_555
O2 S1 1_555 1_555
N1 S1 1_555 1_555
N2 C8 1_555 1_555
C1 H1 1_555 1_555
C2 C1 1_555 1_555
H2 C2 1_555 1_555
C3 C2 1_555 1_555
C4 C3 1_555 1_555
H3 C4 1_555 1_555
C5 C4 1_555 1_555
H4 C5 1_555 1_555
C6 S1 1_555 1_555
C7 C3 1_555 1_555
H5 C7 1_555 1_555
H6 C7 1_555 1_555
H7 C7 1_555 1_555
C8 N1 1_555 1_555
C9 C8 1_555 1_555
H8 C9 1_555 1_555
C10 N2 1_555 1_555
C11 C9 1_555 1_555
C12 C11 1_555 1_555
H9 C12 1_555 1_555
C13 C12 1_555 1_555
H10 C13 1_555 1_555
C14 C13 1_555 1_555
H11 C14 1_555 1_555
C15 C14 1_555 1_555
H12 C15 1_555 1_555
C16 C11 1_555 1_555
H13 C16 1_555 1_555
C17 C10 1_555 1_555
C18 C17 1_555 1_555
H14 C18 1_555 1_555
C19 C18 1_555 1_555
H15 C19 1_555 1_555
C20 C19 1_555 1_555
H16 C20 1_555 1_555
C21 C20 1_555 1_555
H17 C21 1_555 1_555
C22 C17 1_555 1_555
H18 C22 1_555 1_555
C23 C10 1_555 1_555
H19 C23 1_555 1_555
C24 C23 1_555 1_555
C25 C24 1_555 1_555
C26 C25 1_555 1_555
H20 C26 1_555 1_555
C27 C26 1_555 1_555
H21 C27 1_555 1_555
C28 C27 1_555 1_555
H22 C28 1_555 1_555
C29 C28 1_555 1_555
H23 C29 1_555 1_555
C30 C25 1_555 1_555
C31 N2 1_555 1_555
H24 C31 1_555 1_555
H25 C31 1_555 1_555
C32 C24 1_555 1_555
C33 C32 1_555 1_555
H26 C33 1_555 1_555
C34 C33 1_555 1_555
H27 C34 1_555 1_555
C35 C34 1_555 1_555
H28 C35 1_555 1_555
C36 C35 1_555 1_555
H29 C36 1_555 1_555
C37 C32 1_555 1_555
H30 C37 1_555 1_555
C1 C6 1_555 1_555
C5 C6 1_555 1_555
C9 C10 1_555 1_555
C15 C16 1_555 1_555
C21 C22 1_555 1_555
C29 C30 1_555 1_555
C30 C31 1_555 1_555
C36 C37 1_555 1_555

#END
