
#######################################################################
#
#                 Cambridge Crystallographic Data Centre
#                                CCDC 
#
#######################################################################
#
# If this CIF has been generated from an entry in the Cambridge 
# Structural Database, then it will include bibliographic, chemical, 
# crystal, experimental, refinement or atomic coordinate data resulting 
# from the CCDC's data processing and validation procedures.
#
#######################################################################

data_KIRMEG
_chemical_formula_moiety         'C16 H14 O5'
_chemical_name_systematic        
'methyl 4-[(4-formyl-2-hydroxyphenoxy)methyl]benzoate'
_symmetry_cell_setting           orthorhombic
_symmetry_space_group_name_H-M   'P b c a'
_symmetry_Int_Tables_number      61
_space_group_name_Hall           '-P 2ac 2ab'
loop_
_symmetry_equiv_pos_site_id
_symmetry_equiv_pos_as_xyz
1 x,y,z
2 1/2-x,-y,1/2+z
3 -x,1/2+y,1/2-z
4 1/2+x,1/2-y,-z
5 -x,-y,-z
6 1/2+x,y,1/2-z
7 x,1/2-y,1/2+z
8 1/2-x,1/2+y,z
_cell_length_a                   7.6024(6)
_cell_length_b                   16.1869(13)
_cell_length_c                   21.5409(17)
_cell_angle_alpha                90
_cell_angle_beta                 90
_cell_angle_gamma                90
_cell_volume                     2650.81
_exptl_crystal_colour            colorless
_exptl_crystal_description       block
_cell_formula_units_Z            8
_exptl_crystal_recrystallization_method 
'Re-crystallisation from solvent: ethyl acetate'
loop_
_atom_site_label
_atom_site_type_symbol
_atom_site_fract_x
_atom_site_fract_y
_atom_site_fract_z
C1 C 0.3894(3) 0.05928(16) 0.41349(11)
C2 C 0.2794(4) 0.04221(17) 0.46417(12)
C3 C 0.2527(4) -0.03856(18) 0.48194(12)
H1 H 0.176(4) -0.0486(19) 0.5176(14)
C4 C 0.3385(3) -0.10248(16) 0.45032(12)
C5 C 0.4493(4) -0.08469(17) 0.40079(13)
H2 H 0.493(4) -0.133(2) 0.3802(15)
C6 C 0.4743(3) -0.00378(17) 0.38170(12)
H3 H 0.547(4) 0.0041(19) 0.3484(14)
O1 O 0.4028(3) 0.14164(11) 0.39950(8)
C7 C 0.4813(4) 0.16242(16) 0.34090(12)
H4 H 0.600(4) 0.1425(19) 0.3416(14)
H5 H 0.421(4) 0.1342(17) 0.3064(13)
C8 C 0.4704(3) 0.25470(16) 0.33326(11)
C9 C 0.5704(4) 0.30619(17) 0.37116(12)
H6 H 0.648(4) 0.2829(17) 0.4031(13)
C10 C 0.5620(3) 0.39140(16) 0.36406(12)
H7 H 0.622(4) 0.4256(19) 0.3912(14)
C11 C 0.4554(3) 0.42568(15) 0.31843(11)
C12 C 0.3547(4) 0.37481(17) 0.28059(12)
H8 H 0.278(4) 0.3985(18) 0.2500(16)
C13 C 0.3620(3) 0.28949(17) 0.28830(12)
H9 H 0.287(4) 0.2520(17) 0.2626(13)
O2 O 0.1959(3) 0.10382(14) 0.49548(10)
H10 H 0.223(6) 0.151(2) 0.4822(18)
C14 C 0.3101(4) -0.18890(19) 0.46823(15)
H11 H 0.381789 -0.226527 0.445739
O3 O 0.2188(4) -0.22116(19) 0.50402(15)
C15 C 0.4411(3) 0.51669(17) 0.31007(12)
O4 O 0.5364(3) 0.55774(11) 0.35246(9)
C16 C 0.5260(4) 0.64649(19) 0.34943(19)
H12 H 0.593(5) 0.667(2) 0.3840(16)
H13 H 0.408(5) 0.667(2) 0.3509(16)
H14 H 0.586(5) 0.662(2) 0.3095(17)
O5 O 0.3541(3) 0.55013(12) 0.27030(9)
H15? H 0.214879 -0.197460 0.496038
O6? O 0.3787(8) -0.2437(3) 0.4552(3)
loop_
_geom_bond_atom_site_label_1
_geom_bond_atom_site_label_2
_geom_bond_site_symmetry_1
_geom_bond_site_symmetry_2
C1 C2 1_555 1_555
C2 C3 1_555 1_555
C3 H1 1_555 1_555
C4 C3 1_555 1_555
C5 C4 1_555 1_555
H2 C5 1_555 1_555
C6 C1 1_555 1_555
H3 C6 1_555 1_555
O1 C1 1_555 1_555
C7 O1 1_555 1_555
H4 C7 1_555 1_555
H5 C7 1_555 1_555
C8 C7 1_555 1_555
C9 C8 1_555 1_555
H6 C9 1_555 1_555
C10 C9 1_555 1_555
H7 C10 1_555 1_555
C11 C10 1_555 1_555
C12 C11 1_555 1_555
H8 C12 1_555 1_555
C13 C8 1_555 1_555
H9 C13 1_555 1_555
O2 C2 1_555 1_555
H10 O2 1_555 1_555
C14 C4 1_555 1_555
H11 C14 1_555 1_555
O3 C14 1_555 1_555
C15 C11 1_555 1_555
O4 C15 1_555 1_555
C16 O4 1_555 1_555
H12 C16 1_555 1_555
H13 C16 1_555 1_555
H14 C16 1_555 1_555
O5 C15 1_555 1_555
C5 C6 1_555 1_555
C12 C13 1_555 1_555

#END
