
#######################################################################
#
#                 Cambridge Crystallographic Data Centre
#                                CCDC 
#
#######################################################################
#
# If this CIF has been generated from an entry in the Cambridge 
# Structural Database, then it will include bibliographic, chemical, 
# crystal, experimental, refinement or atomic coordinate data resulting 
# from the CCDC's data processing and validation procedures.
#
#######################################################################

data_KIRMAB
_chemical_formula_moiety         'C37 H29 Br1 N2 O2 S1'
_chemical_name_systematic        
N-(1-Benzyl-4-(2-bromophenyl)-3-phenyl-4-(phenylethynyl)azetidin-2-ylidene)-4-methylbenzenesulfonamide
_symmetry_cell_setting           orthorhombic
_symmetry_space_group_name_H-M   'P 21 21 21'
_symmetry_Int_Tables_number      19
_space_group_name_Hall           'P 2ac 2ab'
loop_
_symmetry_equiv_pos_site_id
_symmetry_equiv_pos_as_xyz
1 x,y,z
2 1/2-x,-y,1/2+z
3 1/2+x,1/2-y,-z
4 -x,1/2+y,1/2-z
_cell_length_a                   11.5265(4)
_cell_length_b                   14.9455(4)
_cell_length_c                   18.0607(5)
_cell_angle_alpha                90
_cell_angle_beta                 90
_cell_angle_gamma                90
_cell_volume                     3111.3
_exptl_crystal_colour            colorless
_exptl_crystal_description       block
_cell_formula_units_Z            4
loop_
_atom_site_label
_atom_site_type_symbol
_atom_site_fract_x
_atom_site_fract_y
_atom_site_fract_z
Br1 Br 0.72660(3) 0.401669(19) 0.812112(15)
S1 S 1.00221(6) 0.80555(4) 0.81178(4)
O1 O 1.00178(19) 0.73887(12) 0.75497(10)
O2 O 1.11206(18) 0.83644(14) 0.83900(11)
N1 N 0.9298(2) 0.77388(14) 0.88486(11)
N2 N 0.82731(18) 0.66094(13) 0.94587(10)
C1 C 0.6343(2) 0.46587(18) 0.88140(14)
C2 C 0.5233(3) 0.4344(2) 0.89446(16)
H1 H 0.4967 0.3839 0.8697
C3 C 0.4524(3) 0.4775(2) 0.94386(18)
H2 H 0.3787 0.4551 0.9537
C4 C 0.4898(3) 0.5536(2) 0.97869(16)
H3 H 0.4411 0.5837 1.0114
C5 C 0.5996(2) 0.5852(2) 0.96509(14)
H4 H 0.6238 0.6374 0.9885
C6 C 0.6758(2) 0.54195(17) 0.91757(13)
C7 C 0.8008(2) 0.57330(15) 0.90995(12)
C8 C 0.8406(2) 0.62155(15) 0.83453(12)
H5 H 0.9085 0.5925 0.8124
C9 C 0.8748(2) 0.69848(17) 0.88569(13)
C10 C 0.7486(2) 0.64278(16) 0.77726(12)
C11 C 0.6575(3) 0.69975(18) 0.79305(14)
H6 H 0.6526 0.7261 0.8396
C12 C 0.5736(3) 0.7180(2) 0.74040(18)
H7 H 0.5120 0.7558 0.7518
C13 C 0.5815(3) 0.6805(2) 0.67153(18)
H8 H 0.5263 0.6940 0.6357
C14 C 0.6702(3) 0.6231(2) 0.65522(15)
H9 H 0.6740 0.5966 0.6087
C15 C 0.7546(3) 0.60426(19) 0.70767(12)
H10 H 0.8152 0.5657 0.6961
C16 C 0.8814(2) 0.50287(17) 0.93319(14)
C17 C 0.9468(3) 0.44378(18) 0.94891(14)
C18 C 1.0236(2) 0.37087(17) 0.96512(13)
C19 C 1.0046(3) 0.28763(19) 0.93376(16)
H11 H 0.9419 0.2783 0.9023
C20 C 1.0808(4) 0.2181(2) 0.9500(2)
H12 H 1.0690 0.1623 0.9287
C21 C 1.1721(3) 0.2304(3) 0.9967(2)
H13 H 1.2215 0.1831 1.0077
C22 C 1.1905(3) 0.3118(2) 1.02670(19)
H14 H 1.2540 0.3206 1.0576
C23 C 1.1165(3) 0.3821(2) 1.01226(17)
H15 H 1.1293 0.4374 1.0344
C24 C 0.8440(2) 0.68653(19) 1.02336(12)
H16 H 0.7764 0.6680 1.0514
H17 H 0.8487 0.7512 1.0262
C25 C 0.9505(2) 0.64740(17) 1.05927(13)
C26 C 0.9383(3) 0.6026(2) 1.12547(14)
H18 H 0.8654 0.5963 1.1469
C27 C 1.0351(4) 0.5670(2) 1.15987(18)
H19 H 1.0271 0.5364 1.2044
C28 C 1.1422(4) 0.5766(2) 1.1288(2)
H20 H 1.2070 0.5525 1.1522
C29 C 1.1545(3) 0.6214(2) 1.0634(2)
H21 H 1.2277 0.6277 1.0424
C30 C 1.0591(3) 0.65721(19) 1.02844(16)
H22 H 1.0679 0.6880 0.9840
C31 C 0.9255(2) 0.89903(19) 0.77897(13)
C32 C 0.8497(3) 0.8892(2) 0.72056(14)
H23 H 0.8385 0.8337 0.6984
C33 C 0.7906(3) 0.9638(2) 0.69565(17)
H24 H 0.7394 0.9576 0.6562
C34 C 0.8048(3) 1.0466(2) 0.7269(2)
C35 C 0.8814(3) 1.0543(2) 0.78518(19)
H25 H 0.8920 1.1097 0.8076
C36 C 0.9424(3) 0.98138(17) 0.81085(18)
H26 H 0.9948 0.9879 0.8496
C37 C 0.7362(4) 1.1266(2) 0.6999(3)
H27 H 0.7626 1.1433 0.6514
H28 H 0.7471 1.1757 0.7334
H29 H 0.6553 1.1114 0.6978
loop_
_geom_bond_atom_site_label_1
_geom_bond_atom_site_label_2
_geom_bond_site_symmetry_1
_geom_bond_site_symmetry_2
Br1 C1 1_555 1_555
S1 O1 1_555 1_555
O2 S1 1_555 1_555
N1 S1 1_555 1_555
N2 C7 1_555 1_555
C1 C2 1_555 1_555
C2 H1 1_555 1_555
C3 C2 1_555 1_555
H2 C3 1_555 1_555
C4 C3 1_555 1_555
H3 C4 1_555 1_555
C5 C4 1_555 1_555
H4 C5 1_555 1_555
C6 C1 1_555 1_555
C7 C6 1_555 1_555
C8 C7 1_555 1_555
H5 C8 1_555 1_555
C9 N1 1_555 1_555
C10 C8 1_555 1_555
C11 C10 1_555 1_555
H6 C11 1_555 1_555
C12 C11 1_555 1_555
H7 C12 1_555 1_555
C13 C12 1_555 1_555
H8 C13 1_555 1_555
C14 C13 1_555 1_555
H9 C14 1_555 1_555
C15 C10 1_555 1_555
H10 C15 1_555 1_555
C16 C7 1_555 1_555
C17 C16 1_555 1_555
C18 C17 1_555 1_555
C19 C18 1_555 1_555
H11 C19 1_555 1_555
C20 C19 1_555 1_555
H12 C20 1_555 1_555
C21 C20 1_555 1_555
H13 C21 1_555 1_555
C22 C21 1_555 1_555
H14 C22 1_555 1_555
C23 C18 1_555 1_555
H15 C23 1_555 1_555
C24 N2 1_555 1_555
H16 C24 1_555 1_555
H17 C24 1_555 1_555
C25 C24 1_555 1_555
C26 C25 1_555 1_555
H18 C26 1_555 1_555
C27 C26 1_555 1_555
H19 C27 1_555 1_555
C28 C27 1_555 1_555
H20 C28 1_555 1_555
C29 C28 1_555 1_555
H21 C29 1_555 1_555
C30 C25 1_555 1_555
H22 C30 1_555 1_555
C31 S1 1_555 1_555
C32 C31 1_555 1_555
H23 C32 1_555 1_555
C33 C32 1_555 1_555
H24 C33 1_555 1_555
C34 C33 1_555 1_555
C35 C34 1_555 1_555
H25 C35 1_555 1_555
C36 C31 1_555 1_555
H26 C36 1_555 1_555
C37 C34 1_555 1_555
H27 C37 1_555 1_555
H28 C37 1_555 1_555
H29 C37 1_555 1_555
N2 C9 1_555 1_555
C5 C6 1_555 1_555
C8 C9 1_555 1_555
C14 C15 1_555 1_555
C22 C23 1_555 1_555
C29 C30 1_555 1_555
C35 C36 1_555 1_555

#END
