
#######################################################################
#
#                 Cambridge Crystallographic Data Centre
#                                CCDC 
#
#######################################################################
#
# If this CIF has been generated from an entry in the Cambridge 
# Structural Database, then it will include bibliographic, chemical, 
# crystal, experimental, refinement or atomic coordinate data resulting 
# from the CCDC's data processing and validation procedures.
#
#######################################################################

data_KIRVOZ
_chemical_formula_moiety         'C9 H17 N1 O6'
_chemical_name_systematic        
N-[4,5-dihydroxy-6-(hydroxymethyl)-2-methoxyoxan-3-yl]acetamide
_symmetry_cell_setting           orthorhombic
_symmetry_space_group_name_H-M   'P 21 21 21'
_symmetry_Int_Tables_number      19
_space_group_name_Hall           'P 2ac 2ab'
loop_
_symmetry_equiv_pos_site_id
_symmetry_equiv_pos_as_xyz
1 x,y,z
2 1/2-x,-y,1/2+z
3 -x,1/2+y,1/2-z
4 1/2+x,1/2-y,-z
_cell_length_a                   9.6845(2)
_cell_length_b                   11.1866(2)
_cell_length_c                   20.2699(5)
_cell_angle_alpha                90
_cell_angle_beta                 90
_cell_angle_gamma                90
_cell_volume                     2195.97
_exptl_crystal_colour            colorless
_exptl_crystal_description       block
_cell_formula_units_Z            8
loop_
_atom_site_label
_atom_site_type_symbol
_atom_site_fract_x
_atom_site_fract_y
_atom_site_fract_z
O1 O 0.39779(12) 0.64144(10) 0.42619(5)
O2 O 0.41632(12) 0.40239(10) 0.37862(5)
H1 H 0.358(2) 0.3487(18) 0.3687(5)
O3 O 0.26030(12) 0.26588(10) 0.45994(5)
H2 H 0.2836(16) 0.197(2) 0.4719(9)
O4 O 0.34757(11) 0.55713(10) 0.52942(5)
O5 O 0.05451(12) 0.52537(12) 0.56582(6)
H3 H -0.014(2) 0.5081(13) 0.5418(12)
O6 O 0.82329(11) 0.45567(9) 0.49774(5)
N1 N 0.66081(13) 0.52410(12) 0.42716(6)
H4 H 0.6433 0.5594 0.3893
C1 C 0.45142(15) 0.59477(14) 0.48501(7)
H5 H 0.5075 0.6584 0.5070
C2 C 0.54623(15) 0.48957(14) 0.46931(7)
H6 H 0.5880 0.4645 0.5123
C3 C 0.46776(16) 0.38119(13) 0.44345(7)
H7 H 0.5322 0.3114 0.4420
C4 C 0.34834(16) 0.35145(13) 0.49045(7)
H8 H 0.3859 0.3179 0.5325
C5 C 0.26181(15) 0.46213(13) 0.50525(7)
H9 H 0.2129 0.4886 0.4643
C6 C 0.15728(17) 0.43621(15) 0.55907(8)
H10 H 0.1118 0.3589 0.5494
H11 H 0.2066 0.4278 0.6016
C7 C 0.3216(2) 0.74908(15) 0.43675(10)
H12 H 0.2863 0.7786 0.3945
H13 H 0.3822 0.8095 0.4564
H14 H 0.2442 0.7330 0.4666
C8 C 0.79166(15) 0.50381(13) 0.44419(7)
C9 C 0.90241(16) 0.54120(15) 0.39689(8)
H15 H 0.8609 0.5854 0.3602
H16 H 0.9497 0.4702 0.3798
H17 H 0.9691 0.5925 0.4197
O7 O 0.33456(11) 0.19874(9) 0.18689(5)
O8 O 0.31311(11) -0.04758(10) 0.21916(5)
H18 H 0.319(2) -0.124(2) 0.2176(3)
O9 O 0.12394(12) -0.06577(11) 0.32249(6)
H19 H 0.104(2) -0.0805(15) 0.2875(12)
O10 O 0.26250(10) 0.23778(9) 0.29512(5)
O11 O -0.03143(12) 0.28485(10) 0.30598(6)
H20 H -0.115(3) 0.2637(10) 0.2994(10)
O12 O 0.70663(10) 0.20222(10) 0.28499(5)
N2 N 0.56652(12) 0.06877(12) 0.23522(6)
H21 H 0.5567 0.0138 0.2045
C10 C 0.37528(14) 0.21263(13) 0.25280(7)
H22 H 0.4417 0.2809 0.2553
C11 C 0.44909(14) 0.09978(13) 0.27660(7)
H23 H 0.4861 0.1174 0.3216
C12 C 0.35184(15) -0.00687(13) 0.28340(7)
H24 H 0.4007 -0.0728 0.3072
C13 C 0.22229(15) 0.02861(14) 0.32253(7)
H25 H 0.2507 0.0432 0.3693
C14 C 0.15908(15) 0.14465(13) 0.29577(7)
H26 H 0.1251 0.1309 0.2498
C15 C 0.04132(15) 0.19011(14) 0.33795(7)
H27 H -0.0233 0.1236 0.3472
H28 H 0.0782 0.2191 0.3806
C16 C 0.27483(18) 0.30583(15) 0.15992(8)
H29 H 0.2647 0.2971 0.1121
H30 H 0.3351 0.3740 0.1695
H31 H 0.1840 0.3194 0.1798
C17 C 0.68887(15) 0.12193(13) 0.24286(7)
C18 C 0.80541(16) 0.07685(15) 0.20072(8)
H32 H 0.7686 0.0471 0.1588
H33 H 0.8532 0.0119 0.2237
H34 H 0.8704 0.1422 0.1922
loop_
_geom_bond_atom_site_label_1
_geom_bond_atom_site_label_2
_geom_bond_site_symmetry_1
_geom_bond_site_symmetry_2
O1 C1 1_555 1_555
O2 H1 1_555 1_555
O3 H2 1_555 1_555
O4 C1 1_555 1_555
O5 H3 1_555 1_555
O6 C8 1_555 1_555
N1 H4 1_555 1_555
C1 H5 1_555 1_555
C2 N1 1_555 1_555
H6 C2 1_555 1_555
C3 O2 1_555 1_555
H7 C3 1_555 1_555
C4 O3 1_555 1_555
H8 C4 1_555 1_555
C5 O4 1_555 1_555
H9 C5 1_555 1_555
C6 O5 1_555 1_555
H10 C6 1_555 1_555
H11 C6 1_555 1_555
C7 O1 1_555 1_555
H12 C7 1_555 1_555
H13 C7 1_555 1_555
H14 C7 1_555 1_555
C8 N1 1_555 1_555
C9 C8 1_555 1_555
H15 C9 1_555 1_555
H16 C9 1_555 1_555
H17 C9 1_555 1_555
O7 C10 1_555 1_555
O8 H18 1_555 1_555
O9 H19 1_555 1_555
O10 C10 1_555 1_555
O11 H20 1_555 1_555
O12 C17 1_555 1_555
N2 H21 1_555 1_555
C10 H22 1_555 1_555
C11 N2 1_555 1_555
H23 C11 1_555 1_555
C12 O8 1_555 1_555
H24 C12 1_555 1_555
C13 O9 1_555 1_555
H25 C13 1_555 1_555
C14 O10 1_555 1_555
H26 C14 1_555 1_555
C15 O11 1_555 1_555
H27 C15 1_555 1_555
H28 C15 1_555 1_555
C16 O7 1_555 1_555
H29 C16 1_555 1_555
H30 C16 1_555 1_555
H31 C16 1_555 1_555
C17 N2 1_555 1_555
C18 C17 1_555 1_555
H32 C18 1_555 1_555
H33 C18 1_555 1_555
H34 C18 1_555 1_555
C1 C2 1_555 1_555
C2 C3 1_555 1_555
C3 C4 1_555 1_555
C4 C5 1_555 1_555
C5 C6 1_555 1_555
C10 C11 1_555 1_555
C11 C12 1_555 1_555
C12 C13 1_555 1_555
C13 C14 1_555 1_555
C14 C15 1_555 1_555

#END
