
#######################################################################
#
#                 Cambridge Crystallographic Data Centre
#                                CCDC 
#
#######################################################################
#
# If this CIF has been generated from an entry in the Cambridge 
# Structural Database, then it will include bibliographic, chemical, 
# crystal, experimental, refinement or atomic coordinate data resulting 
# from the CCDC's data processing and validation procedures.
#
#######################################################################

data_KIRXOZ
_chemical_compound_source        'Gelonium aequoreum'
_chemical_name_common            'Gelomulide N'
_chemical_formula_moiety         'C24 H32 O7'
_chemical_name_systematic        
1\a,3\b-Diacetoxy-8\b,14\b-epoxy-ent-abi\h-13,15-ene-16,12-olide
_symmetry_cell_setting           orthorhombic
_symmetry_space_group_name_H-M   'P 21 21 21'
_symmetry_Int_Tables_number      19
_space_group_name_Hall           'P 2ac 2ab'
loop_
_symmetry_equiv_pos_site_id
_symmetry_equiv_pos_as_xyz
1 x,y,z
2 1/2-x,-y,1/2+z
3 -x,1/2+y,1/2-z
4 1/2+x,1/2-y,-z
_cell_length_a                   11.934(2)
_cell_length_b                   12.363(3)
_cell_length_c                   15.479(3)
_cell_angle_alpha                90
_cell_angle_beta                 90
_cell_angle_gamma                90
_cell_volume                     2283.77
_exptl_crystal_colour            colorless
_exptl_crystal_description       prism
_chemical_melting_point          175-176deg.C
_cell_formula_units_Z            4
_exptl_crystal_recrystallization_method methanol
loop_
_atom_site_label
_atom_site_type_symbol
_atom_site_fract_x
_atom_site_fract_y
_atom_site_fract_z
O1 O 0.41653(15) 0.40849(15) 0.87098(12)
O2 O 0.2711(2) 0.3397(2) 0.94459(17)
O3 O 0.23525(17) 0.21213(19) 0.70214(16)
O4 O 0.0587(3) 0.2581(4) 0.6765(3)
O5 O 0.77888(16) 0.16524(15) 0.79533(13)
O6 O 0.71631(19) 0.39241(19) 0.99173(13)
O7 O 0.8768(2) 0.4227(3) 1.06358(16)
C1 C 0.3938(2) 0.3370(2) 0.79798(18)
H1 H 0.3681 0.2669 0.8200
C2 C 0.3020(2) 0.3861(2) 0.7426(2)
H2 H 0.2350 0.3960 0.7772
H3 H 0.3258 0.4566 0.7221
C3 C 0.2753(3) 0.3143(3) 0.6662(2)
H4 H 0.2152 0.3476 0.6322
C4 C 0.3756(2) 0.2922(3) 0.60724(19)
C5 C 0.4789(2) 0.2577(2) 0.66295(16)
H5 H 0.4627 0.1834 0.6812
C6 C 0.5876(2) 0.2495(3) 0.60957(16)
H6 H 0.5721 0.2125 0.5556
H7 H 0.6143 0.3216 0.5960
C7 C 0.6782(2) 0.1884(2) 0.65877(17)
H8 H 0.6598 0.1119 0.6588
H9 H 0.7489 0.1970 0.6287
C8 C 0.6921(2) 0.2259(2) 0.75081(16)
C9 C 0.5844(2) 0.2432(2) 0.80123(17)
H10 H 0.5467 0.1728 0.8013
C10 C 0.5048(2) 0.3207(2) 0.74879(17)
C11 C 0.6096(2) 0.2678(2) 0.89693(16)
H11 H 0.5402 0.2827 0.9273
H12 H 0.6446 0.2054 0.9236
C12 C 0.6862(2) 0.3637(2) 0.90375(17)
H13 H 0.6508 0.4261 0.8758
C13 C 0.7957(2) 0.3411(2) 0.86068(17)
C14 C 0.7964(2) 0.2803(2) 0.77924(17)
H14 H 0.8510 0.3010 0.7350
C15 C 0.8798(3) 0.3667(3) 0.9139(2)
C16 C 0.8306(3) 0.3988(3) 0.9972(2)
C17 C 1.0038(3) 0.3604(4) 0.9004(2)
H15 H 1.0211 0.3776 0.8414
H16 H 1.0293 0.2885 0.9132
H17 H 1.0405 0.4109 0.9380
C18 C 0.3938(3) 0.3936(3) 0.5517(2)
H18 H 0.3323 0.4018 0.5123
H19 H 0.4624 0.3864 0.5197
H20 H 0.3982 0.4561 0.5884
C19 C 0.3460(3) 0.1979(3) 0.5458(2)
H21 H 0.2731 0.2099 0.5213
H22 H 0.3459 0.1312 0.5775
H23 H 0.4006 0.1940 0.5004
C20 C 0.5579(2) 0.4320(2) 0.72936(17)
H24 H 0.5540 0.4767 0.7800
H25 H 0.5179 0.4662 0.6830
H26 H 0.6349 0.4224 0.7130
C21 C 0.3526(3) 0.3963(3) 0.9420(2)
C22 C 0.3973(3) 0.4614(3) 1.0159(2)
H27 H 0.3612 0.4392 1.0684
H28 H 0.3826 0.5367 1.0058
H29 H 0.4766 0.4502 1.0208
C23 C 0.1246(3) 0.1962(4) 0.7078(3)
C24 C 0.0998(4) 0.0956(4) 0.7571(4)
H30 H 0.1362 0.0353 0.7299
H31 H 0.0204 0.0835 0.7580
H32 H 0.1269 0.1030 0.8152
loop_
_geom_bond_atom_site_label_1
_geom_bond_atom_site_label_2
_geom_bond_site_symmetry_1
_geom_bond_site_symmetry_2
O1 C1 1_555 1_555
O2 C21 1_555 1_555
O3 C3 1_555 1_555
O4 C23 1_555 1_555
O5 C8 1_555 1_555
O6 C12 1_555 1_555
O7 C16 1_555 1_555
C1 H1 1_555 1_555
C2 C1 1_555 1_555
H2 C2 1_555 1_555
H3 C2 1_555 1_555
C3 C2 1_555 1_555
H4 C3 1_555 1_555
C4 C3 1_555 1_555
C5 C4 1_555 1_555
H5 C5 1_555 1_555
C6 C5 1_555 1_555
H6 C6 1_555 1_555
H7 C6 1_555 1_555
C7 C6 1_555 1_555
H8 C7 1_555 1_555
H9 C7 1_555 1_555
C8 C7 1_555 1_555
C9 C8 1_555 1_555
H10 C9 1_555 1_555
C10 C1 1_555 1_555
C11 C9 1_555 1_555
H11 C11 1_555 1_555
H12 C11 1_555 1_555
C12 C11 1_555 1_555
H13 C12 1_555 1_555
C13 C12 1_555 1_555
C14 O5 1_555 1_555
H14 C14 1_555 1_555
C15 C13 1_555 1_555
C16 O6 1_555 1_555
C17 C15 1_555 1_555
H15 C17 1_555 1_555
H16 C17 1_555 1_555
H17 C17 1_555 1_555
C18 C4 1_555 1_555
H18 C18 1_555 1_555
H19 C18 1_555 1_555
H20 C18 1_555 1_555
C19 C4 1_555 1_555
H21 C19 1_555 1_555
H22 C19 1_555 1_555
H23 C19 1_555 1_555
C20 C10 1_555 1_555
H24 C20 1_555 1_555
H25 C20 1_555 1_555
H26 C20 1_555 1_555
C21 O1 1_555 1_555
C22 C21 1_555 1_555
H27 C22 1_555 1_555
H28 C22 1_555 1_555
H29 C22 1_555 1_555
C23 O3 1_555 1_555
C24 C23 1_555 1_555
H30 C24 1_555 1_555
H31 C24 1_555 1_555
H32 C24 1_555 1_555
C5 C10 1_555 1_555
C8 C14 1_555 1_555
C9 C10 1_555 1_555
C13 C14 1_555 1_555
C15 C16 1_555 1_555

#END
