
#######################################################################
#
#                 Cambridge Crystallographic Data Centre
#                                CCDC 
#
#######################################################################
#
# If this CIF has been generated from an entry in the Cambridge 
# Structural Database, then it will include bibliographic, chemical, 
# crystal, experimental, refinement or atomic coordinate data resulting 
# from the CCDC's data processing and validation procedures.
#
#######################################################################

data_KISCEX
_chemical_formula_moiety         'C23 H21 Cl1 N2 O4'
_chemical_name_systematic        
3-(4-benzyl-2-oxo-1,3-oxazolidin-3-yl)-4-(4-chlorophenyl)-4a,5,6,7-tetrahydro-1H-pyrrolo[1,2-c][1,3]oxazin-1-one
_symmetry_cell_setting           orthorhombic
_symmetry_space_group_name_H-M   'P 21 21 21'
_symmetry_Int_Tables_number      19
_space_group_name_Hall           'P 2ac 2ab'
loop_
_symmetry_equiv_pos_site_id
_symmetry_equiv_pos_as_xyz
1 x,y,z
2 1/2-x,-y,1/2+z
3 -x,1/2+y,1/2-z
4 1/2+x,1/2-y,-z
_cell_length_a                   10.6835(5)
_cell_length_b                   12.3208(5)
_cell_length_c                   15.9470(7)
_cell_angle_alpha                90
_cell_angle_beta                 90
_cell_angle_gamma                90
_cell_volume                     2099.09
_exptl_crystal_colour            colorless
_exptl_crystal_description       prismatic
_cell_formula_units_Z            4
loop_
_atom_site_label
_atom_site_type_symbol
_atom_site_fract_x
_atom_site_fract_y
_atom_site_fract_z
Cl1 Cl 1.10035(8) 0.40498(11) 0.77727(6)
N1 N 0.4258(2) 0.6778(2) 0.91143(16)
N2 N 0.5186(3) 0.5490(2) 0.68567(15)
O1 O 0.2295(2) 0.6862(3) 0.85973(18)
O2 O 0.3798(2) 0.6292(2) 0.77563(14)
O3 O 0.4115(4) 0.3873(2) 0.69629(19)
O4 O 0.4905(4) 0.4468(2) 0.57437(17)
C1 C 0.3920(3) 0.7025(3) 0.9980(2)
H1 H 0.3180 0.6624 1.0148
H2 H 0.3763 0.7795 1.0051
C2 C 0.5058(4) 0.6670(4) 1.0486(2)
H3 H 0.4805 0.6232 1.0962
H4 H 0.5517 0.7296 1.0689
C3 C 0.5867(3) 0.6005(3) 0.9883(2)
H5 H 0.6747 0.6053 1.0029
H6 H 0.5616 0.5248 0.9878
C4 C 0.5603(3) 0.6548(3) 0.90432(19)
H7 H 0.6057 0.7239 0.9023
C5 C 0.5875(3) 0.5931(2) 0.82554(17)
C6 C 0.4999(3) 0.5878(3) 0.76765(18)
C7 C 0.3389(3) 0.6663(3) 0.8525(2)
C8 C 0.7145(3) 0.5467(3) 0.81362(18)
C9 C 0.8209(3) 0.6087(3) 0.82638(19)
H8 H 0.8123 0.6809 0.8423
C10 C 0.9387(3) 0.5664(3) 0.8163(2)
H9 H 1.0090 0.6092 0.8258
C11 C 0.9514(3) 0.4599(3) 0.79178(19)
C12 C 0.8483(3) 0.3959(3) 0.7773(2)
H10 H 0.8576 0.3243 0.7598
C13 C 0.7304(3) 0.4397(3) 0.7891(2)
H11 H 0.6603 0.3965 0.7803
C14 C 0.4678(4) 0.4546(3) 0.6574(2)
C15 C 0.5649(5) 0.5353(4) 0.5468(3)
H12 H 0.5272 0.5692 0.4980
H13 H 0.6481 0.5105 0.5317
C16 C 0.5722(3) 0.6171(3) 0.6199(2)
H14 H 0.6598 0.6339 0.6327
C17 C 0.4984(3) 0.7216(3) 0.6063(2)
H15 H 0.4139 0.7036 0.5890
H16 H 0.4933 0.7609 0.6589
C18 C 0.5570(3) 0.7935(3) 0.5412(2)
C19 C 0.6526(4) 0.8622(3) 0.5641(3)
H17 H 0.6773 0.8641 0.6200
C20 C 0.7126(4) 0.9280(4) 0.5078(4)
H18 H 0.7763 0.9743 0.5252
C21 C 0.6771(6) 0.9242(5) 0.4257(4)
H19 H 0.7194 0.9664 0.3866
C22 C 0.5796(7) 0.8586(4) 0.3995(3)
H20 H 0.5546 0.8580 0.3436
C23 C 0.5187(5) 0.7927(4) 0.4593(3)
H21 H 0.4523 0.7487 0.4430
loop_
_geom_bond_atom_site_label_1
_geom_bond_atom_site_label_2
_geom_bond_site_symmetry_1
_geom_bond_site_symmetry_2
Cl1 C11 1_555 1_555
N1 C1 1_555 1_555
N2 C6 1_555 1_555
O1 C7 1_555 1_555
O2 C6 1_555 1_555
O3 C14 1_555 1_555
O4 C14 1_555 1_555
C1 H1 1_555 1_555
H2 C1 1_555 1_555
C2 C1 1_555 1_555
H3 C2 1_555 1_555
H4 C2 1_555 1_555
C3 C2 1_555 1_555
H5 C3 1_555 1_555
H6 C3 1_555 1_555
C4 N1 1_555 1_555
H7 C4 1_555 1_555
C5 C4 1_555 1_555
C6 C5 1_555 1_555
C7 N1 1_555 1_555
C8 C5 1_555 1_555
C9 C8 1_555 1_555
H8 C9 1_555 1_555
C10 C9 1_555 1_555
H9 C10 1_555 1_555
C11 C10 1_555 1_555
C12 C11 1_555 1_555
H10 C12 1_555 1_555
C13 C8 1_555 1_555
H11 C13 1_555 1_555
C14 N2 1_555 1_555
C15 O4 1_555 1_555
H12 C15 1_555 1_555
H13 C15 1_555 1_555
C16 N2 1_555 1_555
H14 C16 1_555 1_555
C17 C16 1_555 1_555
H15 C17 1_555 1_555
H16 C17 1_555 1_555
C18 C17 1_555 1_555
C19 C18 1_555 1_555
H17 C19 1_555 1_555
C20 C19 1_555 1_555
H18 C20 1_555 1_555
C21 C20 1_555 1_555
H19 C21 1_555 1_555
C22 C21 1_555 1_555
H20 C22 1_555 1_555
C23 C18 1_555 1_555
H21 C23 1_555 1_555
O2 C7 1_555 1_555
C3 C4 1_555 1_555
C12 C13 1_555 1_555
C15 C16 1_555 1_555
C22 C23 1_555 1_555

#END
