
#######################################################################
#
#                 Cambridge Crystallographic Data Centre
#                                CCDC 
#
#######################################################################
#
# If this CIF has been generated from an entry in the Cambridge 
# Structural Database, then it will include bibliographic, chemical, 
# crystal, experimental, refinement or atomic coordinate data resulting 
# from the CCDC's data processing and validation procedures.
#
#######################################################################

data_KISCEV
_chemical_formula_moiety         'C41 H56 O6'
_chemical_name_systematic        
8,8'-bis-(L-Menthyloxycarbonyloxy)-(+)-1,1'-spirobitetraline
_symmetry_cell_setting           monoclinic
_symmetry_space_group_name_H-M   'P 2'
_symmetry_Int_Tables_number      3
_space_group_name_Hall           'P 2y'
loop_
_symmetry_equiv_pos_site_id
_symmetry_equiv_pos_as_xyz
1 x,y,z
2 -x,y,-z
_cell_length_a                   18.262(2)
_cell_length_b                   8.9571(12)
_cell_length_c                   23.871(3)
_cell_angle_alpha                90
_cell_angle_beta                 105.540(2)
_cell_angle_gamma                90
_cell_volume                     3761.95
_chemical_melting_point          154-156deg.C
_cell_formula_units_Z            4
_exptl_crystal_recrystallization_method 'petroleum ether'
loop_
_atom_site_label
_atom_site_type_symbol
_atom_site_fract_x
_atom_site_fract_y
_atom_site_fract_z
O1 O 0.88060(12) 0.6110(3) 0.58865(9)
O2 O 0.91574(15) 0.4769(4) 0.52012(11)
O3 O 0.97364(12) 0.4594(3) 0.61551(9)
O4 O 0.67979(12) 0.4086(2) 0.53435(9)
O5 O 0.72588(15) 0.3225(4) 0.46195(10)
O6 O 0.61414(13) 0.4408(3) 0.44759(9)
C1 C 0.74489(16) 0.6147(4) 0.62161(12)
C2 C 0.66209(18) 0.6163(4) 0.62663(14)
H1 H 0.6349 0.5320 0.6052
H2 H 0.6627 0.6041 0.6671
C3 C 0.6196(2) 0.7597(5) 0.60344(15)
H3 H 0.5688 0.7568 0.6088
H4 H 0.6461 0.8450 0.6245
C4 C 0.6150(2) 0.7743(5) 0.53962(15)
H5 H 0.5839 0.6940 0.5184
H6 H 0.5906 0.8680 0.5252
C5 C 0.6918(2) 0.7689(4) 0.52839(14)
C6 C 0.7034(3) 0.8426(4) 0.48024(15)
H7 H 0.6638 0.8972 0.4565
C7 C 0.7708(3) 0.8369(5) 0.46717(17)
H8 H 0.7773 0.8882 0.4349
C8 C 0.8303(2) 0.7553(5) 0.50144(16)
H9 H 0.8767 0.7493 0.4923
C9 C 0.81927(19) 0.6833(4) 0.54927(13)
C10 C 0.75084(18) 0.6878(4) 0.56480(12)
C11 C 0.79481(18) 0.7071(4) 0.67258(12)
H10 H 0.8408 0.7371 0.6627
H11 H 0.7675 0.7971 0.6773
C12 C 0.8163(2) 0.6236(5) 0.72968(14)
H12 H 0.8457 0.6881 0.7601
H13 H 0.7708 0.5930 0.7402
C13 C 0.8626(2) 0.4886(5) 0.72365(14)
H14 H 0.9107 0.5208 0.7178
H15 H 0.8733 0.4313 0.7594
C14 C 0.82266(17) 0.3902(4) 0.67385(13)
C15 C 0.8392(2) 0.2392(5) 0.67464(16)
H16 H 0.8737 0.1997 0.7073
C16 C 0.8073(2) 0.1469(5) 0.63005(18)
H17 H 0.8201 0.0462 0.6322
C17 C 0.7562(2) 0.2024(4) 0.58174(16)
H18 H 0.7340 0.1404 0.5506
C18 C 0.73836(17) 0.3502(4) 0.58023(13)
C19 C 0.77040(16) 0.4497(4) 0.62552(12)
C20 C 0.92289(19) 0.5120(5) 0.56945(16)
C21 C 1.02926(18) 0.3526(5) 0.60570(14)
H19 H 1.0464 0.3834 0.5719
C22 C 1.09534(18) 0.3560(4) 0.65959(15)
H20 H 1.0755 0.3191 0.6913
C23 C 1.1530(2) 0.2401(6) 0.65177(18)
H21 H 1.1718 0.2684 0.6189
H22 H 1.1958 0.2395 0.6862
C24 C 1.1195(3) 0.0841(6) 0.64173(19)
H23 H 1.1578 0.0156 0.6357
H24 H 1.1051 0.0518 0.6761
C25 C 1.0510(3) 0.0788(6) 0.5899(2)
H25 H 1.0677 0.1006 0.5550
C26 C 0.9934(2) 0.1969(5) 0.59516(18)
H26 H 0.9723 0.1712 0.6271
H27 H 0.9522 0.1983 0.5598
C27 C 1.1278(2) 0.5102(6) 0.67821(19)
H28 H 1.0846 0.5769 0.6763
C28 C 1.1758(4) 0.5097(8) 0.7407(2)
H29 H 1.1822 0.6103 0.7551
H30 H 1.2247 0.4673 0.7426
H31 H 1.1511 0.4514 0.7640
C29 C 1.1704(3) 0.5719(7) 0.6388(3)
H32 H 1.1405 0.5621 0.5993
H33 H 1.2172 0.5182 0.6440
H34 H 1.1811 0.6755 0.6477
C30 C 1.0137(4) -0.0763(7) 0.5825(3)
H35 H 0.9931 -0.0962 0.6148
H36 H 1.0511 -0.1506 0.5812
H37 H 0.9737 -0.0791 0.5470
C31 C 0.6789(2) 0.3829(4) 0.47864(14)
C32 C 0.59640(19) 0.4287(4) 0.38460(12)
H38 H 0.6323 0.3611 0.3735
C33 C 0.5164(2) 0.3676(4) 0.36373(14)
H39 H 0.4833 0.4357 0.3779
C34 C 0.4913(2) 0.3744(5) 0.29742(15)
H40 H 0.5223 0.3064 0.2819
H41 H 0.4389 0.3414 0.2839
C35 C 0.4978(2) 0.5291(5) 0.27447(15)
H42 H 0.4830 0.5266 0.2323
H43 H 0.4632 0.5953 0.2869
C36 C 0.5774(2) 0.5894(5) 0.29542(15)
H44 H 0.6109 0.5239 0.2805
C37 C 0.6028(2) 0.5826(5) 0.36146(14)
H45 H 0.6552 0.6156 0.3747
H46 H 0.5720 0.6508 0.3771
C38 C 0.5053(4) 0.2108(6) 0.3869(2)
H47 H 0.5398 0.2246 0.4258
C39 C 0.4466(6) 0.1815(9) 0.4034(5)
H48 H 0.4595 0.1791 0.4451
H49 H 0.4268 0.0860 0.3883
H50 H 0.4088 0.2570 0.3893
C40 C 0.5509(3) 0.0887(6) 0.3677(2)
H51 H 0.5338 0.0777 0.3262
H52 H 0.5438 -0.0037 0.3859
H53 H 0.6038 0.1149 0.3788
C41 C 0.5853(3) 0.7459(6) 0.27382(19)
H54 H 0.5470 0.8089 0.2822
H55 H 0.5791 0.7435 0.2326
H56 H 0.6347 0.7844 0.2930
O7 O 0.18926(12) -0.0949(3) 0.09941(9)
O8 O 0.10276(15) 0.0233(4) 0.02726(12)
O9 O 0.10241(13) 0.0354(4) 0.12121(10)
O10 O 0.33603(12) 0.1791(3) 0.04965(9)
O11 O 0.23954(16) 0.2656(4) -0.02247(11)
O12 O 0.34914(13) 0.1839(3) -0.03601(9)
C42 C 0.34598(16) -0.0429(4) 0.13299(12)
C43 C 0.43226(17) -0.0167(4) 0.13935(14)
H57 H 0.4383 0.0759 0.1200
H58 H 0.4583 -0.0057 0.1803
C44 C 0.46904(19) -0.1410(5) 0.11430(16)
H59 H 0.4640 -0.2342 0.1336
H60 H 0.5228 -0.1203 0.1205
C45 C 0.4314(2) -0.1545(5) 0.05018(15)
H61 H 0.4395 -0.0635 0.0306
H62 H 0.4541 -0.2365 0.0342
C46 C 0.3476(2) -0.1817(4) 0.03972(15)
C47 C 0.3116(3) -0.2694(5) -0.00699(17)
H63 H 0.3396 -0.3106 -0.0304
C48 C 0.2355(3) -0.2967(5) -0.01930(19)
H64 H 0.2122 -0.3562 -0.0510
C49 C 0.1936(2) -0.2379(5) 0.01420(18)
H65 H 0.1416 -0.2556 0.0057
C50 C 0.2297(2) -0.1509(4) 0.06143(14)
C51 C 0.30741(18) -0.1215(4) 0.07641(12)
C52 C 0.33937(19) -0.1500(4) 0.18264(12)
H66 H 0.2895 -0.1961 0.1720
H67 H 0.3769 -0.2287 0.1865
C53 C 0.3510(2) -0.0725(5) 0.24121(14)
H68 H 0.3482 -0.1450 0.2708
H69 H 0.4007 -0.0257 0.2525
C54 C 0.2901(2) 0.0435(5) 0.23611(14)
H70 H 0.2988 0.0971 0.2726
H71 H 0.2410 -0.0053 0.2287
C55 C 0.28905(18) 0.1528(4) 0.18790(13)
C56 C 0.2649(2) 0.2981(5) 0.19259(16)
H72 H 0.2503 0.3255 0.2256
C57 C 0.2619(2) 0.4008(5) 0.15070(18)
H73 H 0.2463 0.4977 0.1555
C58 C 0.2821(2) 0.3623(5) 0.10051(16)
H74 H 0.2796 0.4315 0.0710
C59 C 0.30611(19) 0.2177(4) 0.09596(13)
C60 C 0.31205(16) 0.1096(4) 0.13856(12)
C61 C 0.1282(2) -0.0082(5) 0.07718(18)
C62 C 0.0344(2) 0.1324(7) 0.10723(17)
H75 H -0.0018 0.0962 0.0717
C63 C -0.0003(2) 0.1162(9) 0.15844(18)
H76 H 0.0372 0.1583 0.1920
C64 C -0.0679(3) 0.2238(12) 0.1457(3)
H77 H -0.1056 0.1898 0.1112
H78 H -0.0909 0.2209 0.1779
C65 C -0.0471(4) 0.3801(12) 0.1366(3)
H79 H -0.0131 0.4170 0.1724
H80 H -0.0927 0.4408 0.1282
C66 C -0.0081(4) 0.4001(10) 0.0863(3)
H81 H -0.0446 0.3740 0.0494
C67 C 0.0584(3) 0.2911(8) 0.0975(2)
H82 H 0.0799 0.2921 0.0644
H83 H 0.0976 0.3234 0.1314
C68 C -0.0134(4) -0.0473(10) 0.1756(3)
H84 H 0.0322 -0.0985 0.1712
C69 C -0.0769(3) -0.1180(9) 0.1272(3)
H85 H -0.1223 -0.0591 0.1212
H86 H -0.0868 -0.2174 0.1383
H87 H -0.0614 -0.1216 0.0918
C70 C -0.0099(5) -0.0726(12) 0.2338(4)
H88 H -0.0255 -0.1731 0.2384
H89 H -0.0430 -0.0041 0.2459
H90 H 0.0413 -0.0581 0.2571
C71 C 0.0220(5) 0.5599(11) 0.0813(3)
H91 H 0.0560 0.5583 0.0568
H92 H 0.0487 0.5953 0.1193
H93 H -0.0199 0.6252 0.0648
C72 C 0.3008(2) 0.2150(4) -0.00525(15)
C73 C 0.32373(19) 0.1993(4) -0.09913(14)
H94 H 0.2832 0.2741 -0.1099
C74 C 0.3921(2) 0.2491(4) -0.11855(13)
H95 H 0.4320 0.1745 -0.1046
C75 C 0.3711(2) 0.2456(5) -0.18514(14)
H96 H 0.3330 0.3214 -0.2002
H97 H 0.4157 0.2700 -0.1980
C76 C 0.3406(2) 0.0948(5) -0.21029(16)
H98 H 0.3253 0.1014 -0.2524
H99 H 0.3808 0.0211 -0.1994
C77 C 0.2742(2) 0.0447(5) -0.18942(16)
H100 H 0.2328 0.1160 -0.2041
C78 C 0.2942(2) 0.0489(5) -0.12295(15)
H101 H 0.2493 0.0249 -0.1104
H102 H 0.3324 -0.0264 -0.1073
C79 C 0.4249(2) 0.4016(5) -0.09353(16)
H103 H 0.4234 0.4032 -0.0528
C80 C 0.3778(3) 0.5345(5) -0.1231(2)
H104 H 0.3251 0.5168 -0.1259
H105 H 0.3844 0.5470 -0.1614
H106 H 0.3943 0.6231 -0.1007
C81 C 0.5086(3) 0.4183(5) -0.0932(2)
H107 H 0.5131 0.4117 -0.1322
H108 H 0.5379 0.3402 -0.0701
H109 H 0.5272 0.5135 -0.0769
C82 C 0.2456(3) -0.1091(6) -0.2128(2)
H110 H 0.2026 -0.1361 -0.1990
H111 H 0.2854 -0.1813 -0.1996
H112 H 0.2308 -0.1068 -0.2545
loop_
_geom_bond_atom_site_label_1
_geom_bond_atom_site_label_2
_geom_bond_site_symmetry_1
_geom_bond_site_symmetry_2
O1 C9 1_555 1_555
O2 C20 1_555 1_555
O3 C20 1_555 1_555
O4 C18 1_555 1_555
O5 C31 1_555 1_555
O6 C31 1_555 1_555
O7 C50 1_555 1_555
O8 C61 1_555 1_555
O9 C61 1_555 1_555
O10 C59 1_555 1_555
O11 C72 1_555 1_555
O12 C72 1_555 1_555
C1 C2 1_555 1_555
C2 H1 1_555 1_555
H2 C2 1_555 1_555
C3 C2 1_555 1_555
H3 C3 1_555 1_555
H4 C3 1_555 1_555
C4 C3 1_555 1_555
H5 C4 1_555 1_555
H6 C4 1_555 1_555
C5 C4 1_555 1_555
C6 C5 1_555 1_555
H7 C6 1_555 1_555
C7 C6 1_555 1_555
H8 C7 1_555 1_555
C8 C7 1_555 1_555
H9 C8 1_555 1_555
C9 C8 1_555 1_555
C10 C1 1_555 1_555
C11 C1 1_555 1_555
H10 C11 1_555 1_555
H11 C11 1_555 1_555
C12 C11 1_555 1_555
H12 C12 1_555 1_555
H13 C12 1_555 1_555
C13 C12 1_555 1_555
H14 C13 1_555 1_555
H15 C13 1_555 1_555
C14 C13 1_555 1_555
C15 C14 1_555 1_555
H16 C15 1_555 1_555
C16 C15 1_555 1_555
H17 C16 1_555 1_555
C17 C16 1_555 1_555
H18 C17 1_555 1_555
C18 C17 1_555 1_555
C19 C1 1_555 1_555
C20 O1 1_555 1_555
C21 O3 1_555 1_555
H19 C21 1_555 1_555
C22 C21 1_555 1_555
H20 C22 1_555 1_555
C23 C22 1_555 1_555
H21 C23 1_555 1_555
H22 C23 1_555 1_555
C24 C23 1_555 1_555
H23 C24 1_555 1_555
H24 C24 1_555 1_555
C25 C24 1_555 1_555
H25 C25 1_555 1_555
C26 C21 1_555 1_555
H26 C26 1_555 1_555
H27 C26 1_555 1_555
C27 C22 1_555 1_555
H28 C27 1_555 1_555
C28 C27 1_555 1_555
H29 C28 1_555 1_555
H30 C28 1_555 1_555
H31 C28 1_555 1_555
C29 C27 1_555 1_555
H32 C29 1_555 1_555
H33 C29 1_555 1_555
H34 C29 1_555 1_555
C30 C25 1_555 1_555
H35 C30 1_555 1_555
H36 C30 1_555 1_555
H37 C30 1_555 1_555
C31 O4 1_555 1_555
C32 O6 1_555 1_555
H38 C32 1_555 1_555
C33 C32 1_555 1_555
H39 C33 1_555 1_555
C34 C33 1_555 1_555
H40 C34 1_555 1_555
H41 C34 1_555 1_555
C35 C34 1_555 1_555
H42 C35 1_555 1_555
H43 C35 1_555 1_555
C36 C35 1_555 1_555
H44 C36 1_555 1_555
C37 C32 1_555 1_555
H45 C37 1_555 1_555
H46 C37 1_555 1_555
C38 C33 1_555 1_555
H47 C38 1_555 1_555
C39 C38 1_555 1_555
H48 C39 1_555 1_555
H49 C39 1_555 1_555
H50 C39 1_555 1_555
C40 C38 1_555 1_555
H51 C40 1_555 1_555
H52 C40 1_555 1_555
H53 C40 1_555 1_555
C41 C36 1_555 1_555
H54 C41 1_555 1_555
H55 C41 1_555 1_555
H56 C41 1_555 1_555
C42 C43 1_555 1_555
C43 H57 1_555 1_555
H58 C43 1_555 1_555
C44 C43 1_555 1_555
H59 C44 1_555 1_555
H60 C44 1_555 1_555
C45 C44 1_555 1_555
H61 C45 1_555 1_555
H62 C45 1_555 1_555
C46 C45 1_555 1_555
C47 C46 1_555 1_555
H63 C47 1_555 1_555
C48 C47 1_555 1_555
H64 C48 1_555 1_555
C49 C48 1_555 1_555
H65 C49 1_555 1_555
C50 C49 1_555 1_555
C51 C42 1_555 1_555
C52 C42 1_555 1_555
H66 C52 1_555 1_555
H67 C52 1_555 1_555
C53 C52 1_555 1_555
H68 C53 1_555 1_555
H69 C53 1_555 1_555
C54 C53 1_555 1_555
H70 C54 1_555 1_555
H71 C54 1_555 1_555
C55 C54 1_555 1_555
C56 C55 1_555 1_555
H72 C56 1_555 1_555
C57 C56 1_555 1_555
H73 C57 1_555 1_555
C58 C57 1_555 1_555
H74 C58 1_555 1_555
C59 C58 1_555 1_555
C60 C42 1_555 1_555
C61 O7 1_555 1_555
C62 O9 1_555 1_555
H75 C62 1_555 1_555
C63 C62 1_555 1_555
H76 C63 1_555 1_555
C64 C63 1_555 1_555
H77 C64 1_555 1_555
H78 C64 1_555 1_555
C65 C64 1_555 1_555
H79 C65 1_555 1_555
H80 C65 1_555 1_555
C66 C65 1_555 1_555
H81 C66 1_555 1_555
C67 C62 1_555 1_555
H82 C67 1_555 1_555
H83 C67 1_555 1_555
C68 C63 1_555 1_555
H84 C68 1_555 1_555
C69 C68 1_555 1_555
H85 C69 1_555 1_555
H86 C69 1_555 1_555
H87 C69 1_555 1_555
C70 C68 1_555 1_555
H88 C70 1_555 1_555
H89 C70 1_555 1_555
H90 C70 1_555 1_555
C71 C66 1_555 1_555
H91 C71 1_555 1_555
H92 C71 1_555 1_555
H93 C71 1_555 1_555
C72 O10 1_555 1_555
C73 O12 1_555 1_555
H94 C73 1_555 1_555
C74 C73 1_555 1_555
H95 C74 1_555 1_555
C75 C74 1_555 1_555
H96 C75 1_555 1_555
H97 C75 1_555 1_555
C76 C75 1_555 1_555
H98 C76 1_555 1_555
H99 C76 1_555 1_555
C77 C76 1_555 1_555
H100 C77 1_555 1_555
C78 C73 1_555 1_555
H101 C78 1_555 1_555
H102 C78 1_555 1_555
C79 C74 1_555 1_555
H103 C79 1_555 1_555
C80 C79 1_555 1_555
H104 C80 1_555 1_555
H105 C80 1_555 1_555
H106 C80 1_555 1_555
C81 C79 1_555 1_555
H107 C81 1_555 1_555
H108 C81 1_555 1_555
H109 C81 1_555 1_555
C82 C77 1_555 1_555
H110 C82 1_555 1_555
H111 C82 1_555 1_555
H112 C82 1_555 1_555
C5 C10 1_555 1_555
C9 C10 1_555 1_555
C14 C19 1_555 1_555
C18 C19 1_555 1_555
C25 C26 1_555 1_555
C36 C37 1_555 1_555
C46 C51 1_555 1_555
C50 C51 1_555 1_555
C55 C60 1_555 1_555
C59 C60 1_555 1_555
C66 C67 1_555 1_555
C77 C78 1_555 1_555

#END
