
#######################################################################
#
#                 Cambridge Crystallographic Data Centre
#                                CCDC 
#
#######################################################################
#
# If this CIF has been generated from an entry in the Cambridge 
# Structural Database, then it will include bibliographic, chemical, 
# crystal, experimental, refinement or atomic coordinate data resulting 
# from the CCDC's data processing and validation procedures.
#
#######################################################################

data_KISCUN
_chemical_formula_moiety         'C14 H10 F1 N1 O1'
_chemical_name_systematic        
2-fluoro-3'-methoxy[1,1'-biphenyl]-4-carbonitrile
_symmetry_cell_setting           monoclinic
_symmetry_space_group_name_H-M   'P 21/c'
_symmetry_Int_Tables_number      14
_space_group_name_Hall           '-P 2ybc'
loop_
_symmetry_equiv_pos_site_id
_symmetry_equiv_pos_as_xyz
1 x,y,z
2 -x,1/2+y,1/2-z
3 -x,-y,-z
4 x,1/2-y,1/2+z
_cell_length_a                   10.9843(5)
_cell_length_b                   14.3764(6)
_cell_length_c                   7.3629(3)
_cell_angle_alpha                90
_cell_angle_beta                 101.026(2)
_cell_angle_gamma                90
_cell_volume                     1141.25
_exptl_crystal_colour            colorless
_exptl_crystal_description       plate
_cell_formula_units_Z            4
loop_
_atom_site_label
_atom_site_type_symbol
_atom_site_fract_x
_atom_site_fract_y
_atom_site_fract_z
O1 O 1.07306(16) 0.35884(12) 0.5025(2)
N1 N 0.5750(3) 0.6789(2) 1.3049(4)
C1 C 0.6101(3) 0.63615(18) 1.1941(4)
C2 C 0.6549(2) 0.58212(16) 1.0557(3)
C3 C 0.7585(2) 0.52644(17) 1.1068(3)
H1 H 0.7990 0.5229 1.2297
C4 C 0.8003(2) 0.47642(16) 0.9716(3)
C5 C 0.74156(19) 0.47681(14) 0.7861(3)
C6 C 0.7848(2) 0.41898(14) 0.6435(3)
C7 C 0.9092(2) 0.41512(15) 0.6311(3)
H2 H 0.9670 0.4504 0.7112
C8 C 0.9481(2) 0.35858(14) 0.4989(3)
C9 C 1.1188(3) 0.3005(2) 0.3742(4)
H3 H 1.0948 0.2373 0.3907
H4 H 1.2076 0.3046 0.3952
H5 H 1.0848 0.3202 0.2504
C10 C 0.6988(2) 0.36633(16) 0.5210(3)
H6 H 0.6151 0.3687 0.5271
C11 C 0.7385(2) 0.31104(18) 0.3915(3)
H7 H 0.6808 0.2760 0.3107
C12 C 0.8622(2) 0.30642(16) 0.3789(3)
H8 H 0.8875 0.2686 0.2905
C13 C 0.5940(2) 0.58553(17) 0.8721(4)
H9 H 0.5242 0.6228 0.8375
C14 C 0.6379(2) 0.53325(17) 0.7419(3)
H10 H 0.5963 0.5359 0.6195
F1 F 0.90271(15) 0.42449(12) 1.0231(2)
loop_
_geom_bond_atom_site_label_1
_geom_bond_atom_site_label_2
_geom_bond_site_symmetry_1
_geom_bond_site_symmetry_2
O1 C8 1_555 1_555
N1 C1 1_555 1_555
C1 C2 1_555 1_555
C2 C3 1_555 1_555
C3 H1 1_555 1_555
C4 C3 1_555 1_555
C5 C4 1_555 1_555
C6 C5 1_555 1_555
C7 C6 1_555 1_555
H2 C7 1_555 1_555
C8 C7 1_555 1_555
C9 O1 1_555 1_555
H3 C9 1_555 1_555
H4 C9 1_555 1_555
H5 C9 1_555 1_555
C10 C6 1_555 1_555
H6 C10 1_555 1_555
C11 C10 1_555 1_555
H7 C11 1_555 1_555
C12 C8 1_555 1_555
H8 C12 1_555 1_555
C13 C2 1_555 1_555
H9 C13 1_555 1_555
C14 C5 1_555 1_555
H10 C14 1_555 1_555
F1 C4 1_555 1_555
C11 C12 1_555 1_555
C13 C14 1_555 1_555

#END
