
#######################################################################
#
#                 Cambridge Crystallographic Data Centre
#                                CCDC 
#
#######################################################################
#
# If this CIF has been generated from an entry in the Cambridge 
# Structural Database, then it will include bibliographic, chemical, 
# crystal, experimental, refinement or atomic coordinate data resulting 
# from the CCDC's data processing and validation procedures.
#
#######################################################################

data_KISCOH
_chemical_formula_moiety         'C14 H10 F1 N3'
_chemical_name_systematic        5-fluoro-2-phenylquinazolin-4-amine
_symmetry_cell_setting           monoclinic
_symmetry_space_group_name_H-M   'P 21'
_symmetry_Int_Tables_number      4
_space_group_name_Hall           'P 2yb'
loop_
_symmetry_equiv_pos_site_id
_symmetry_equiv_pos_as_xyz
1 x,y,z
2 -x,1/2+y,-z
_cell_length_a                   3.8638(3)
_cell_length_b                   12.3396(9)
_cell_length_c                   23.9712(19)
_cell_angle_alpha                90
_cell_angle_beta                 90.007(4)
_cell_angle_gamma                90
_cell_volume                     1142.89
_exptl_crystal_colour            colorless
_exptl_crystal_description       plate
_cell_formula_units_Z            4
loop_
_atom_site_label
_atom_site_type_symbol
_atom_site_fract_x
_atom_site_fract_y
_atom_site_fract_z
F1 F 0.3570(6) 0.54976(17) 0.34617(8)
N1 N 0.0958(6) 0.52327(17) 0.51756(10)
N2 N 0.0654(7) 0.63076(19) 0.44078(11)
H1 H -0.0247 0.6805 0.4613
H2 H 0.0984 0.6423 0.4058
N3 N 0.2963(6) 0.34032(17) 0.51515(9)
C1 C 0.0188(9) 0.4064(3) 0.71718(14)
H3 H -0.0166 0.4016 0.7555
C2 C -0.0981(9) 0.4958(3) 0.68794(14)
H4 H -0.2109 0.5517 0.7066
C3 C -0.0472(7) 0.5019(3) 0.63104(13)
H5 H -0.1267 0.5624 0.6117
C4 C 0.1197(6) 0.4200(2) 0.60204(12)
C5 C 0.1768(7) 0.4263(2) 0.54091(12)
C6 C 0.1547(7) 0.5349(2) 0.46338(12)
C7 C 0.3115(7) 0.4501(2) 0.43090(12)
C8 C 0.4042(8) 0.4540(3) 0.37448(13)
C9 C 0.5372(9) 0.3686(3) 0.34632(13)
H6 H 0.5924 0.3747 0.3087
C10 C 0.5899(9) 0.2717(3) 0.37461(14)
H7 H 0.6813 0.2124 0.3557
C11 C 0.5089(8) 0.2627(2) 0.42968(13)
H8 H 0.5461 0.1973 0.4481
C12 C 0.3691(7) 0.3515(2) 0.45925(12)
C13 C 0.2421(7) 0.3307(2) 0.63228(12)
H9 H 0.3598 0.2754 0.6140
C14 C 0.1883(8) 0.3245(3) 0.68917(13)
H10 H 0.2674 0.2644 0.7088
F2 F 0.3184(6) 0.20072(17) 1.15747(8)
N4 N 0.3044(6) -0.00637(18) 0.98723(10)
N5 N 0.0984(6) 0.17613(18) 0.98503(10)
N6 N 0.0491(8) 0.2835(2) 1.06107(12)
H11 H -0.0393 0.3332 1.0403
H12 H 0.0757 0.2948 1.0962
C15 C 0.0443(10) 0.0560(3) 0.78470(14)
H13 H 0.0102 0.0500 0.7464
C16 C 0.2195(10) -0.0250(3) 0.81369(14)
H14 H 0.3067 -0.0847 0.7946
C17 C 0.2639(8) -0.0172(3) 0.87046(13)
H15 H 0.3822 -0.0716 0.8894
C18 C 0.1344(7) 0.0712(2) 0.90017(12)
C19 C 0.1825(7) 0.0796(2) 0.96109(12)
C20 C 0.3673(6) 0.0051(2) 1.04348(12)
C21 C 0.2970(6) 0.1037(2) 1.07181(12)
C22 C 0.3786(8) 0.1076(2) 1.12898(13)
C23 C 0.5157(8) 0.0224(3) 1.15730(14)
H16 H 0.5650 0.0279 1.1952
C24 C -0.0785(9) 0.1455(3) 0.81328(15)
H17 H -0.1892 0.2009 0.7939
C25 C -0.0375(8) 0.1532(3) 0.87054(13)
H18 H -0.1246 0.2130 0.8895
C26 C 0.1448(7) 0.1891(2) 1.03880(12)
C27 C 0.5803(8) -0.0726(3) 1.12849(14)
H19 H 0.6744 -0.1312 1.1475
C28 C 0.5099(8) -0.0828(2) 1.07288(12)
H20 H 0.5560 -0.1476 1.0546
loop_
_geom_bond_atom_site_label_1
_geom_bond_atom_site_label_2
_geom_bond_site_symmetry_1
_geom_bond_site_symmetry_2
F1 C8 1_555 1_555
N1 C5 1_555 1_555
N2 H1 1_555 1_555
H2 N2 1_555 1_555
N3 C5 1_555 1_555
C1 H3 1_555 1_555
C2 C1 1_555 1_555
H4 C2 1_555 1_555
C3 C2 1_555 1_555
H5 C3 1_555 1_555
C4 C3 1_555 1_555
C5 C4 1_555 1_555
C6 N1 1_555 1_555
C7 C6 1_555 1_555
C8 C7 1_555 1_555
C9 C8 1_555 1_555
H6 C9 1_555 1_555
C10 C9 1_555 1_555
H7 C10 1_555 1_555
C11 C10 1_555 1_555
H8 C11 1_555 1_555
C12 N3 1_555 1_555
C13 C4 1_555 1_555
H9 C13 1_555 1_555
C14 C1 1_555 1_555
H10 C14 1_555 1_555
F2 C22 1_555 1_555
N4 C19 1_555 1_555
N5 C19 1_555 1_555
N6 H11 1_555 1_555
H12 N6 1_555 1_555
C15 H13 1_555 1_555
C16 C15 1_555 1_555
H14 C16 1_555 1_555
C17 C16 1_555 1_555
H15 C17 1_555 1_555
C18 C17 1_555 1_555
C19 C18 1_555 1_555
C20 N4 1_555 1_555
C21 C20 1_555 1_555
C22 C21 1_555 1_555
C23 C22 1_555 1_555
H16 C23 1_555 1_555
C24 C15 1_555 1_555
H17 C24 1_555 1_555
C25 C18 1_555 1_555
H18 C25 1_555 1_555
C26 N5 1_555 1_555
C27 C23 1_555 1_555
H19 C27 1_555 1_555
C28 C20 1_555 1_555
H20 C28 1_555 1_555
N2 C6 1_555 1_555
C7 C12 1_555 1_555
C11 C12 1_555 1_555
C13 C14 1_555 1_555
N6 C26 1_555 1_555
C21 C26 1_555 1_555
C24 C25 1_555 1_555
C27 C28 1_555 1_555

#END
