
#######################################################################
#
#                 Cambridge Crystallographic Data Centre
#                                CCDC 
#
#######################################################################
#
# If this CIF has been generated from an entry in the Cambridge 
# Structural Database, then it will include bibliographic, chemical, 
# crystal, experimental, refinement or atomic coordinate data resulting 
# from the CCDC's data processing and validation procedures.
#
#######################################################################

data_KISCEW
_chemical_formula_moiety         'C17 H12 F1 N1 O1'
_chemical_name_systematic        2-(2-(2-Fluorophenyl)vinyl)quinolin-8-ol
_symmetry_cell_setting           triclinic
_symmetry_space_group_name_H-M   'P -1'
_symmetry_Int_Tables_number      2
_space_group_name_Hall           '-P 1'
loop_
_symmetry_equiv_pos_site_id
_symmetry_equiv_pos_as_xyz
1 x,y,z
2 -x,-y,-z
_cell_length_a                   7.0637(5)
_cell_length_b                   7.2366(5)
_cell_length_c                   12.5497(9)
_cell_angle_alpha                86.231(6)
_cell_angle_beta                 82.945(6)
_cell_angle_gamma                74.016(6)
_cell_volume                     611.692
_cell_formula_units_Z            2
loop_
_atom_site_label
_atom_site_type_symbol
_atom_site_fract_x
_atom_site_fract_y
_atom_site_fract_z
F1 F 0.16523(12) 0.86195(14) 0.55924(6)
O1 O 0.32344(14) 0.61079(15) -0.13857(7)
H1 H 0.3821 0.6201 -0.0875
N1 N 0.19515(16) 0.72217(15) 0.06415(8)
C1 C 0.1333(2) 0.78079(18) 0.16420(10)
C2 C -0.0708(2) 0.86076(19) 0.19852(10)
H2 H -0.1093 0.9085 0.2671
C3 C -0.2100(2) 0.86767(19) 0.13131(11)
H3 H -0.3436 0.9179 0.1545
C4 C -0.1517(2) 0.79860(18) 0.02623(10)
C5 C -0.2842(2) 0.79271(19) -0.04855(11)
H4 H -0.4203 0.8316 -0.0290
C6 C -0.2113(2) 0.7295(2) -0.14971(11)
H5 H -0.2992 0.7260 -0.1985
C7 C -0.0068(2) 0.6697(2) -0.18155(11)
H6 H 0.0395 0.6303 -0.2513
C8 C 0.1244(2) 0.66958(19) -0.10978(10)
C9 C 0.05467(19) 0.73235(17) -0.00348(10)
C10 C 0.2875(2) 0.75116(19) 0.23674(10)
H7 H 0.4180 0.7023 0.2075
C11 C 0.25653(19) 0.78834(19) 0.34136(10)
H8 H 0.1263 0.8400 0.3704
C12 C 0.4107(2) 0.75458(19) 0.41424(10)
C13 C 0.3607(2) 0.7974(2) 0.52256(11)
C14 C 0.4970(2) 0.7784(2) 0.59480(11)
H9 H 0.4562 0.8096 0.6662
C15 C 0.6959(2) 0.7119(2) 0.55895(11)
H10 H 0.7908 0.7009 0.6059
C16 C 0.7534(2) 0.6618(2) 0.45291(11)
H11 H 0.8871 0.6146 0.4291
C17 C 0.6128(2) 0.6816(2) 0.38205(11)
H12 H 0.6540 0.6455 0.3114
loop_
_geom_bond_atom_site_label_1
_geom_bond_atom_site_label_2
_geom_bond_site_symmetry_1
_geom_bond_site_symmetry_2
F1 C13 1_555 1_555
O1 H1 1_555 1_555
N1 C1 1_555 1_555
C1 C2 1_555 1_555
C2 H2 1_555 1_555
C3 C2 1_555 1_555
H3 C3 1_555 1_555
C4 C3 1_555 1_555
C5 C4 1_555 1_555
H4 C5 1_555 1_555
C6 C5 1_555 1_555
H5 C6 1_555 1_555
C7 C6 1_555 1_555
H6 C7 1_555 1_555
C8 O1 1_555 1_555
C9 N1 1_555 1_555
C10 C1 1_555 1_555
H7 C10 1_555 1_555
C11 C10 1_555 1_555
H8 C11 1_555 1_555
C12 C11 1_555 1_555
C13 C12 1_555 1_555
C14 C13 1_555 1_555
H9 C14 1_555 1_555
C15 C14 1_555 1_555
H10 C15 1_555 1_555
C16 C15 1_555 1_555
H11 C16 1_555 1_555
C17 C12 1_555 1_555
H12 C17 1_555 1_555
C4 C9 1_555 1_555
C7 C8 1_555 1_555
C8 C9 1_555 1_555
C16 C17 1_555 1_555

#END
