
#######################################################################
#
#                 Cambridge Crystallographic Data Centre
#                                CCDC 
#
#######################################################################
#
# If this CIF has been generated from an entry in the Cambridge 
# Structural Database, then it will include bibliographic, chemical, 
# crystal, experimental, refinement or atomic coordinate data resulting 
# from the CCDC's data processing and validation procedures.
#
#######################################################################

data_KISCAR
_chemical_formula_moiety         'C17 H16 O2'
_chemical_name_systematic        1,1'-Spirobiindane-7,7'-diol
_symmetry_cell_setting           orthorhombic
_symmetry_space_group_name_H-M   'P 21 21 21'
_symmetry_Int_Tables_number      19
_space_group_name_Hall           'P 2ac 2ab'
loop_
_symmetry_equiv_pos_site_id
_symmetry_equiv_pos_as_xyz
1 x,y,z
2 1/2-x,-y,1/2+z
3 -x,1/2+y,1/2-z
4 1/2+x,1/2-y,-z
_cell_length_a                   10.526(4)
_cell_length_b                   11.190(4)
_cell_length_c                   22.200(8)
_cell_angle_alpha                90
_cell_angle_beta                 90
_cell_angle_gamma                90
_cell_volume                     2614.85
_cell_formula_units_Z            8
_exptl_crystal_recrystallization_method hexane
loop_
_atom_site_label
_atom_site_type_symbol
_atom_site_fract_x
_atom_site_fract_y
_atom_site_fract_z
O1 O 0.58722(18) 0.82226(18) 0.25495(8)
H1 H 0.5324 0.7755 0.2666
O2 O 0.57937(18) 1.12070(17) 0.21907(8)
H2 H 0.6048 1.0913 0.2507
C1 C 0.6375(2) 0.8813(2) 0.30323(11)
C2 C 0.5834(3) 0.8766(2) 0.36041(12)
H5 H 0.5084 0.8342 0.3664
C3 C 0.6401(3) 0.9346(3) 0.40833(13)
H6 H 0.6038 0.9294 0.4464
C4 C 0.7504(3) 1.0002(3) 0.40042(13)
H7 H 0.7888 1.0387 0.4328
C5 C 0.8022(2) 1.0074(2) 0.34346(12)
C6 C 0.9204(2) 1.0727(2) 0.32438(11)
H8 H 0.9961 1.0300 0.3369
H9 H 0.9225 1.1527 0.3411
C7 C 0.9094(2) 1.0761(2) 0.25612(11)
H10 H 0.9926 1.0682 0.2378
H11 H 0.8724 1.1513 0.2432
C8 C 0.8226(2) 0.9700(2) 0.23718(11)
C9 C 0.7468(2) 0.9494(2) 0.29433(11)
C10 C 0.9000(2) 0.8595(2) 0.21627(12)
H12 H 0.9787 0.8531 0.2388
H13 H 0.8513 0.7867 0.2220
C11 C 0.9270(2) 0.8805(2) 0.14919(11)
H14 H 1.0062 0.9235 0.1435
H15 H 0.9308 0.8056 0.1273
C12 C 0.8151(2) 0.9546(2) 0.12953(11)
C13 C 0.7741(3) 0.9805(2) 0.07156(12)
H16 H 0.8176 0.9511 0.0383
C14 C 0.6675(3) 1.0506(2) 0.06429(12)
H17 H 0.6393 1.0687 0.0257
C15 C 0.6018(3) 1.0946(2) 0.11362(12)
H18 H 0.5289 1.1403 0.1080
C16 C 0.6448(2) 1.0706(2) 0.17111(11)
C17 C 0.7520(2) 1.0006(2) 0.17937(10)
O3 O 0.88538(18) 0.32084(17) 0.03341(8)
H3 H 0.8544 0.3415 0.0012
O4 O 0.57874(17) 0.34735(15) -0.01192(8)
H4 H 0.5287 0.2979 -0.0253
C18 C 0.8241(2) 0.3791(2) 0.07990(11)
C19 C 0.8281(2) 0.3290(2) 0.13670(12)
H19 H 0.8691 0.2563 0.1426
C20 C 0.7715(2) 0.3864(3) 0.18473(13)
H20 H 0.7760 0.3525 0.2229
C21 C 0.7087(2) 0.4930(3) 0.17702(11)
H21 H 0.6717 0.5317 0.2097
C22 C 0.7014(2) 0.5416(2) 0.11999(11)
C23 C 0.6341(3) 0.6536(2) 0.09949(12)
H22 H 0.6812 0.7245 0.1111
H23 H 0.5492 0.6581 0.1163
C24 C 0.6297(2) 0.6403(2) 0.03054(11)
H24 H 0.6378 0.7176 0.0111
H25 H 0.5504 0.6039 0.0180
C25 C 0.7438(2) 0.5588(2) 0.01416(11)
C26 C 0.7595(2) 0.4863(2) 0.07137(11)
C27 C 0.8671(3) 0.6322(2) 0.00013(12)
H26 H 0.8649 0.7087 0.0206
H27 H 0.9419 0.5888 0.0133
C28 C 0.8696(3) 0.6501(2) -0.06810(13)
H28 H 0.8290 0.7246 -0.0793
H29 H 0.9560 0.6499 -0.0833
C29 C 0.7961(2) 0.5444(2) -0.09165(11)
C30 C 0.7940(2) 0.4987(3) -0.14941(13)
H30 H 0.8397 0.5352 -0.1802
C31 C 0.7222(2) 0.3973(3) -0.16055(13)
H31 H 0.7226 0.3637 -0.1989
C32 C 0.6500(2) 0.3453(2) -0.11559(11)
H32 H 0.6019 0.2776 -0.1239
C33 C 0.6492(2) 0.3938(2) -0.05808(11)
C34 C 0.7256(2) 0.4926(2) -0.04529(10)
loop_
_geom_bond_atom_site_label_1
_geom_bond_atom_site_label_2
_geom_bond_site_symmetry_1
_geom_bond_site_symmetry_2
O1 H1 1_555 1_555
O2 H2 1_555 1_555
O3 H3 1_555 1_555
O4 H4 1_555 1_555
C1 O1 1_555 1_555
C2 C1 1_555 1_555
H5 C2 1_555 1_555
C3 C2 1_555 1_555
H6 C3 1_555 1_555
C4 C3 1_555 1_555
H7 C4 1_555 1_555
C5 C4 1_555 1_555
C6 C5 1_555 1_555
H8 C6 1_555 1_555
H9 C6 1_555 1_555
C7 C6 1_555 1_555
H10 C7 1_555 1_555
H11 C7 1_555 1_555
C8 C7 1_555 1_555
C9 C1 1_555 1_555
C10 C8 1_555 1_555
H12 C10 1_555 1_555
H13 C10 1_555 1_555
C11 C10 1_555 1_555
H14 C11 1_555 1_555
H15 C11 1_555 1_555
C12 C11 1_555 1_555
C13 C12 1_555 1_555
H16 C13 1_555 1_555
C14 C13 1_555 1_555
H17 C14 1_555 1_555
C15 C14 1_555 1_555
H18 C15 1_555 1_555
C16 O2 1_555 1_555
C17 C8 1_555 1_555
C18 O3 1_555 1_555
C19 C18 1_555 1_555
H19 C19 1_555 1_555
C20 C19 1_555 1_555
H20 C20 1_555 1_555
C21 C20 1_555 1_555
H21 C21 1_555 1_555
C22 C21 1_555 1_555
C23 C22 1_555 1_555
H22 C23 1_555 1_555
H23 C23 1_555 1_555
C24 C23 1_555 1_555
H24 C24 1_555 1_555
H25 C24 1_555 1_555
C25 C24 1_555 1_555
C26 C18 1_555 1_555
C27 C25 1_555 1_555
H26 C27 1_555 1_555
H27 C27 1_555 1_555
C28 C27 1_555 1_555
H28 C28 1_555 1_555
H29 C28 1_555 1_555
C29 C28 1_555 1_555
C30 C29 1_555 1_555
H30 C30 1_555 1_555
C31 C30 1_555 1_555
H31 C31 1_555 1_555
C32 C31 1_555 1_555
H32 C32 1_555 1_555
C33 O4 1_555 1_555
C34 C25 1_555 1_555
C5 C9 1_555 1_555
C8 C9 1_555 1_555
C12 C17 1_555 1_555
C15 C16 1_555 1_555
C16 C17 1_555 1_555
C22 C26 1_555 1_555
C25 C26 1_555 1_555
C29 C34 1_555 1_555
C32 C33 1_555 1_555
C33 C34 1_555 1_555

#END
