
#######################################################################
#
#                 Cambridge Crystallographic Data Centre
#                                CCDC 
#
#######################################################################
#
# If this CIF has been generated from an entry in the Cambridge 
# Structural Database, then it will include bibliographic, chemical, 
# crystal, experimental, refinement or atomic coordinate data resulting 
# from the CCDC's data processing and validation procedures.
#
#######################################################################

data_KISCAT
_chemical_formula_moiety         'C28 H28 N2 O5 S1'
_chemical_name_systematic        
N-benzyl-N-(5-hydroxy-1-oxo-4-phenyl-5,6,7,8-tetrahydro-1H,4aH-pyrido[1,2-c][1,3]oxazin-3-yl)-4-methylbenzene-1-sulfonamide
_symmetry_cell_setting           monoclinic
_symmetry_space_group_name_H-M   'P 21'
_symmetry_Int_Tables_number      4
_space_group_name_Hall           'P 2yb'
loop_
_symmetry_equiv_pos_site_id
_symmetry_equiv_pos_as_xyz
1 x,y,z
2 -x,1/2+y,-z
_cell_length_a                   9.7480(8)
_cell_length_b                   25.918(2)
_cell_length_c                   10.3862(7)
_cell_angle_alpha                90
_cell_angle_beta                 100.710(2)
_cell_angle_gamma                90
_cell_volume                     2578.35
_exptl_crystal_colour            colorless
_exptl_crystal_description       prismatic
_cell_formula_units_Z            4
loop_
_atom_site_label
_atom_site_type_symbol
_atom_site_fract_x
_atom_site_fract_y
_atom_site_fract_z
S1 S 0.06560(17) 0.64049(7) 0.57385(14)
N1 N 0.3893(5) 0.50687(17) 0.4164(4)
N2 N 0.2011(5) 0.63941(17) 0.4996(4)
O1 O 0.4852(4) 0.50177(17) 0.7774(4)
H1 H 0.5704 0.5040 0.7868
O2 O 0.1831(5) 0.49067(18) 0.2778(4)
O3 O 0.1944(4) 0.55894(14) 0.4051(3)
O4 O 0.0896(5) 0.6005(2) 0.6696(4)
O5 O 0.0502(6) 0.6930(2) 0.6108(5)
C1 C 0.4514(6) 0.52642(19) 0.5458(5)
H2 H 0.5521 0.5299 0.5491
C2 C 0.4295(6) 0.4852(2) 0.6470(5)
H3 H 0.3287 0.4803 0.6404
C3 C 0.4917(8) 0.4340(2) 0.6149(7)
H4 H 0.5924 0.4373 0.6272
H5 H 0.4708 0.4078 0.6753
C4 C 0.4360(8) 0.4166(2) 0.4762(8)
H6 H 0.3385 0.4070 0.4678
H7 H 0.4872 0.3864 0.4566
C5 C 0.4499(8) 0.4590(2) 0.3793(7)
H8 H 0.5478 0.4644 0.3766
H9 H 0.4028 0.4487 0.2924
C6 C 0.2546(7) 0.5162(2) 0.3623(5)
C7 C 0.2729(6) 0.59233(18) 0.4980(5)
C8 C 0.3945(5) 0.57907(19) 0.5693(5)
C9 C 0.4782(6) 0.6131(2) 0.6679(5)
C10 C 0.4227(8) 0.6329(2) 0.7711(6)
H10 H 0.3320 0.6247 0.7797
C11 C 0.5038(11) 0.6652(3) 0.8620(7)
H11 H 0.4666 0.6782 0.9315
C12 C 0.6377(11) 0.6781(3) 0.8509(10)
H12 H 0.6911 0.6997 0.9122
C13 C 0.6908(9) 0.6589(3) 0.7486(11)
H13 H 0.7808 0.6679 0.7392
C14 C 0.6129(7) 0.6261(2) 0.6585(7)
H14 H 0.6520 0.6127 0.5905
C15 C 0.1966(7) 0.6736(3) 0.3858(6)
H15 H 0.1167 0.6964 0.3800
H16 H 0.1826 0.6527 0.3070
C16 C 0.3246(7) 0.7056(2) 0.3897(6)
C17 C 0.3690(10) 0.7151(3) 0.2740(9)
H17 H 0.3253 0.6993 0.1968
C18 C 0.4814(14) 0.7488(5) 0.2743(17)
H18 H 0.5095 0.7565 0.1956
C19 C 0.5507(12) 0.7708(5) 0.388(2)
H19 H 0.6282 0.7917 0.3878
C20 C 0.5048(12) 0.7615(3) 0.4988(14)
H20 H 0.5495 0.7770 0.5760
C21 C 0.3918(9) 0.7293(3) 0.5017(8)
H21 H 0.3614 0.7237 0.5803
C22 C -0.0830(6) 0.6245(2) 0.4571(6)
C23 C -0.1275(7) 0.5738(3) 0.4430(7)
H22 H -0.0786 0.5483 0.4952
C24 C -0.2433(8) 0.5613(3) 0.3524(8)
H23 H -0.2727 0.5271 0.3443
C25 C -0.3174(8) 0.5982(3) 0.2727(8)
C26 C -0.2698(8) 0.6490(3) 0.2875(9)
H24 H -0.3165 0.6744 0.2331
C27 C -0.1559(7) 0.6625(3) 0.3803(8)
H25 H -0.1283 0.6969 0.3912
C28 C -0.4472(10) 0.5853(4) 0.1747(10)
H26 H -0.5231 0.6064 0.1908
H27 H -0.4702 0.5496 0.1833
H28 H -0.4310 0.5916 0.0877
S2 S 0.04453(17) 0.35314(6) 0.60029(14)
N3 N -0.0560(5) 0.49839(18) 0.9222(4)
N4 N -0.0232(5) 0.36485(15) 0.7305(4)
O6 O 0.3263(4) 0.49456(17) 0.9764(4)
H29 H 0.3719 0.4959 0.9176
O7 O -0.2352(5) 0.51492(16) 0.7535(5)
O8 O -0.0946(4) 0.45014(13) 0.7334(4)
O9 O 0.1706(5) 0.3819(2) 0.6160(5)
O10 O 0.0465(6) 0.29841(16) 0.5890(5)
C29 C 0.0849(6) 0.47619(18) 0.9632(5)
H30 H 0.1013 0.4723 1.0587
C30 C 0.1918(6) 0.51506(19) 0.9309(5)
H31 H 0.1776 0.5203 0.8359
C31 C 0.1744(7) 0.5658(2) 0.9985(6)
H32 H 0.2364 0.5911 0.9711
H33 H 0.2025 0.5611 1.0923
C32 C 0.0266(7) 0.5866(2) 0.9699(6)
H34 H 0.0199 0.6163 1.0253
H35 H 0.0039 0.5978 0.8793
C33 C -0.0768(7) 0.5459(2) 0.9946(6)
H36 H -0.0637 0.5385 1.0876
H37 H -0.1712 0.5585 0.9660
C34 C -0.1319(6) 0.4908(2) 0.8046(5)
C35 C 0.0004(6) 0.41358(19) 0.7942(5)
C36 C 0.0893(5) 0.42321(18) 0.9052(5)
C37 C 0.1825(6) 0.3837(2) 0.9798(6)
C38 C 0.2882(8) 0.3615(3) 0.9309(7)
H38 H 0.3027 0.3699 0.8473
C39 C 0.3765(10) 0.3253(4) 1.0092(12)
H39 H 0.4497 0.3101 0.9770
C40 C 0.3552(12) 0.3129(3) 1.1285(12)
H40 H 0.4125 0.2886 1.1778
C41 C 0.2517(11) 0.3351(3) 1.1787(8)
H41 H 0.2388 0.3265 1.2625
C42 C 0.1636(8) 0.3713(2) 1.1042(6)
H42 H 0.0925 0.3868 1.1388
C43 C -0.1483(6) 0.3372(2) 0.7510(6)
H43 H -0.1824 0.3161 0.6746
H44 H -0.2204 0.3621 0.7595
C44 C -0.1230(7) 0.3034(2) 0.8698(6)
C45 C -0.0202(8) 0.2665(2) 0.8866(7)
H45 H 0.0382 0.2641 0.8256
C46 C -0.0014(13) 0.2335(4) 0.9897(13)
H46 H 0.0684 0.2086 0.9978
C47 C -0.083(2) 0.2365(6) 1.0802(12)
H47 H -0.0678 0.2147 1.1526
C48 C -0.191(2) 0.2720(6) 1.0658(12)
H48 H -0.2510 0.2727 1.1254
C49 C -0.2088(13) 0.3070(4) 0.9610(9)
H49 H -0.2776 0.3322 0.9532
C50 C -0.0693(7) 0.3769(2) 0.4610(5)
C51 C -0.0356(7) 0.4218(3) 0.4053(7)
H50 H 0.0430 0.4405 0.4433
C52 C -0.1201(8) 0.4391(3) 0.2916(8)
H51 H -0.0954 0.4692 0.2526
C53 C -0.2393(8) 0.4135(3) 0.2342(6)
C54 C -0.2731(10) 0.3687(3) 0.2939(7)
H52 H -0.3545 0.3510 0.2586
C55 C -0.1871(9) 0.3496(3) 0.4061(6)
H53 H -0.2089 0.3188 0.4436
C56 C -0.3302(11) 0.4331(4) 0.1101(8)
H54 H -0.2754 0.4364 0.0428
H55 H -0.3681 0.4661 0.1264
H56 H -0.4051 0.4092 0.0822
loop_
_geom_bond_atom_site_label_1
_geom_bond_atom_site_label_2
_geom_bond_site_symmetry_1
_geom_bond_site_symmetry_2
S1 N2 1_555 1_555
N1 C1 1_555 1_555
N2 C7 1_555 1_555
O1 H1 1_555 1_555
O2 C6 1_555 1_555
O3 C6 1_555 1_555
O4 S1 1_555 1_555
O5 S1 1_555 1_555
C1 H2 1_555 1_555
C2 O1 1_555 1_555
H3 C2 1_555 1_555
C3 C2 1_555 1_555
H4 C3 1_555 1_555
H5 C3 1_555 1_555
C4 C3 1_555 1_555
H6 C4 1_555 1_555
H7 C4 1_555 1_555
C5 N1 1_555 1_555
H8 C5 1_555 1_555
H9 C5 1_555 1_555
C6 N1 1_555 1_555
C7 O3 1_555 1_555
C8 C1 1_555 1_555
C9 C8 1_555 1_555
C10 C9 1_555 1_555
H10 C10 1_555 1_555
C11 C10 1_555 1_555
H11 C11 1_555 1_555
C12 C11 1_555 1_555
H12 C12 1_555 1_555
C13 C12 1_555 1_555
H13 C13 1_555 1_555
C14 C9 1_555 1_555
H14 C14 1_555 1_555
C15 N2 1_555 1_555
H15 C15 1_555 1_555
H16 C15 1_555 1_555
C16 C15 1_555 1_555
C17 C16 1_555 1_555
H17 C17 1_555 1_555
C18 C17 1_555 1_555
H18 C18 1_555 1_555
C19 C18 1_555 1_555
H19 C19 1_555 1_555
C20 C19 1_555 1_555
H20 C20 1_555 1_555
C21 C16 1_555 1_555
H21 C21 1_555 1_555
C22 S1 1_555 1_555
C23 C22 1_555 1_555
H22 C23 1_555 1_555
C24 C23 1_555 1_555
H23 C24 1_555 1_555
C25 C24 1_555 1_555
C26 C25 1_555 1_555
H24 C26 1_555 1_555
C27 C22 1_555 1_555
H25 C27 1_555 1_555
C28 C25 1_555 1_555
H26 C28 1_555 1_555
H27 C28 1_555 1_555
H28 C28 1_555 1_555
S2 N4 1_555 1_555
N3 C29 1_555 1_555
N4 C35 1_555 1_555
O6 H29 1_555 1_555
O7 C34 1_555 1_555
O8 C34 1_555 1_555
O9 S2 1_555 1_555
O10 S2 1_555 1_555
C29 H30 1_555 1_555
C30 O6 1_555 1_555
H31 C30 1_555 1_555
C31 C30 1_555 1_555
H32 C31 1_555 1_555
H33 C31 1_555 1_555
C32 C31 1_555 1_555
H34 C32 1_555 1_555
H35 C32 1_555 1_555
C33 N3 1_555 1_555
H36 C33 1_555 1_555
H37 C33 1_555 1_555
C34 N3 1_555 1_555
C35 O8 1_555 1_555
C36 C29 1_555 1_555
C37 C36 1_555 1_555
C38 C37 1_555 1_555
H38 C38 1_555 1_555
C39 C38 1_555 1_555
H39 C39 1_555 1_555
C40 C39 1_555 1_555
H40 C40 1_555 1_555
C41 C40 1_555 1_555
H41 C41 1_555 1_555
C42 C37 1_555 1_555
H42 C42 1_555 1_555
C43 N4 1_555 1_555
H43 C43 1_555 1_555
H44 C43 1_555 1_555
C44 C43 1_555 1_555
C45 C44 1_555 1_555
H45 C45 1_555 1_555
C46 C45 1_555 1_555
H46 C46 1_555 1_555
C47 C46 1_555 1_555
H47 C47 1_555 1_555
C48 C47 1_555 1_555
H48 C48 1_555 1_555
C49 C44 1_555 1_555
H49 C49 1_555 1_555
C50 S2 1_555 1_555
C51 C50 1_555 1_555
H50 C51 1_555 1_555
C52 C51 1_555 1_555
H51 C52 1_555 1_555
C53 C52 1_555 1_555
C54 C53 1_555 1_555
H52 C54 1_555 1_555
C55 C50 1_555 1_555
H53 C55 1_555 1_555
C56 C53 1_555 1_555
H54 C56 1_555 1_555
H55 C56 1_555 1_555
H56 C56 1_555 1_555
C1 C2 1_555 1_555
C4 C5 1_555 1_555
C7 C8 1_555 1_555
C13 C14 1_555 1_555
C20 C21 1_555 1_555
C26 C27 1_555 1_555
C29 C30 1_555 1_555
C32 C33 1_555 1_555
C35 C36 1_555 1_555
C41 C42 1_555 1_555
C48 C49 1_555 1_555
C54 C55 1_555 1_555

#END
