
#######################################################################
#
#                 Cambridge Crystallographic Data Centre
#                                CCDC 
#
#######################################################################
#
# If this CIF has been generated from an entry in the Cambridge 
# Structural Database, then it will include bibliographic, chemical, 
# crystal, experimental, refinement or atomic coordinate data resulting 
# from the CCDC's data processing and validation procedures.
#
#######################################################################

data_KISDAU
_chemical_formula_moiety         'C17 H9 F2 N1'
_chemical_name_systematic        2,5-difluoro-4-(naphthalen-1-yl)benzonitrile
_symmetry_cell_setting           monoclinic
_symmetry_space_group_name_H-M   'P 21/c'
_symmetry_Int_Tables_number      14
_space_group_name_Hall           '-P 2ybc'
loop_
_symmetry_equiv_pos_site_id
_symmetry_equiv_pos_as_xyz
1 x,y,z
2 -x,1/2+y,1/2-z
3 -x,-y,-z
4 x,1/2-y,1/2+z
_cell_length_a                   7.2460(5)
_cell_length_b                   25.6754(18)
_cell_length_c                   7.4701(5)
_cell_angle_alpha                90
_cell_angle_beta                 113.808(3)
_cell_angle_gamma                90
_cell_volume                     1271.5
_exptl_crystal_colour            colorless
_exptl_crystal_description       plate
_cell_formula_units_Z            4
loop_
_atom_site_label
_atom_site_type_symbol
_atom_site_fract_x
_atom_site_fract_y
_atom_site_fract_z
F1 F 0.31766(18) 0.45561(4) 0.60572(15)
F2 F 0.1183(2) 0.65864(4) 0.46671(16)
C1 C -0.2230(3) 0.71299(7) 0.9014(3)
H1 H -0.3271 0.7321 0.9119
C2 C -0.2644(3) 0.67817(7) 0.7453(3)
H2 H -0.3961 0.6743 0.6531
C3 C -0.1138(2) 0.64991(6) 0.7273(2)
H3 H -0.1437 0.6270 0.6228
C4 C 0.0883(2) 0.65496(6) 0.8664(2)
C5 C 0.2516(2) 0.62541(6) 0.8590(2)
C6 C 0.2255(2) 0.58982(6) 0.6929(2)
C7 C 0.1651(3) 0.60776(6) 0.5017(2)
C8 C 0.1558(3) 0.57703(7) 0.3480(2)
H4 H 0.1146 0.5909 0.2228
C9 C 0.2092(2) 0.52489(6) 0.3830(2)
C10 C 0.2109(2) 0.49141(7) 0.2293(2)
N1 N 0.2166(3) 0.46536(6) 0.1080(2)
C11 C 0.1281(3) 0.69003(6) 1.0253(2)
C12 C -0.0322(3) 0.71881(7) 1.0367(3)
H5 H -0.0063 0.7422 1.1390
C13 C 0.3274(3) 0.69444(7) 1.1696(3)
H6 H 0.3550 0.7180 1.2716
C14 C 0.4786(3) 0.66484(8) 1.1615(3)
H7 H 0.6079 0.6677 1.2594
C15 C 0.4411(3) 0.62986(7) 1.0058(3)
H8 H 0.5457 0.6095 1.0022
C16 C 0.2742(2) 0.53734(6) 0.7238(2)
H9 H 0.3128 0.5232 0.8483
C17 C 0.2656(2) 0.50628(6) 0.5712(2)
loop_
_geom_bond_atom_site_label_1
_geom_bond_atom_site_label_2
_geom_bond_site_symmetry_1
_geom_bond_site_symmetry_2
F1 C17 1_555 1_555
F2 C7 1_555 1_555
C1 H1 1_555 1_555
C2 C1 1_555 1_555
H2 C2 1_555 1_555
C3 C2 1_555 1_555
H3 C3 1_555 1_555
C4 C3 1_555 1_555
C5 C4 1_555 1_555
C6 C5 1_555 1_555
C7 C6 1_555 1_555
C8 C7 1_555 1_555
H4 C8 1_555 1_555
C9 C8 1_555 1_555
C10 C9 1_555 1_555
N1 C10 1_555 1_555
C11 C4 1_555 1_555
C12 C1 1_555 1_555
H5 C12 1_555 1_555
C13 C11 1_555 1_555
H6 C13 1_555 1_555
C14 C13 1_555 1_555
H7 C14 1_555 1_555
C15 C5 1_555 1_555
H8 C15 1_555 1_555
C16 C6 1_555 1_555
H9 C16 1_555 1_555
C17 C9 1_555 1_555
C11 C12 1_555 1_555
C14 C15 1_555 1_555
C16 C17 1_555 1_555

#END
