
#######################################################################
#
#                 Cambridge Crystallographic Data Centre
#                                CCDC 
#
#######################################################################
#
# If this CIF has been generated from an entry in the Cambridge 
# Structural Database, then it will include bibliographic, chemical, 
# crystal, experimental, refinement or atomic coordinate data resulting 
# from the CCDC's data processing and validation procedures.
#
#######################################################################

data_KISJUT
_chemical_formula_moiety         'C12 H11 N1 O3'
_chemical_name_systematic        
4-(4-Methoxyphenyl)-2-methyl-6H-1,3-oxazin-6-one
_symmetry_cell_setting           monoclinic
_symmetry_space_group_name_H-M   'C 2/c'
_symmetry_Int_Tables_number      15
_space_group_name_Hall           '-C 2yn'
loop_
_symmetry_equiv_pos_site_id
_symmetry_equiv_pos_as_xyz
1 x,y,z
2 -x,y,1/2-z
3 1/2+x,1/2+y,z
4 1/2-x,1/2+y,1/2-z
5 -x,-y,-z
6 x,-y,1/2+z
7 1/2-x,1/2-y,-z
8 1/2+x,1/2-y,1/2+z
_cell_length_a                   26.45(2)
_cell_length_b                   4.006(3)
_cell_length_c                   21.025(15)
_cell_angle_alpha                90
_cell_angle_beta                 109.715(13)
_cell_angle_gamma                90
_cell_volume                     2097.19
_cell_formula_units_Z            8
loop_
_atom_site_label
_atom_site_type_symbol
_atom_site_fract_x
_atom_site_fract_y
_atom_site_fract_z
N1 N 0.14426(13) 0.7368(8) 0.29048(15)
O1 O 0.39856(11) 0.6489(7) 0.40581(14)
O2 O 0.07274(13) 1.2549(8) 0.40006(15)
O3 O 0.06858(10) 0.9811(7) 0.30640(13)
C1 C 0.43866(17) 0.7988(11) 0.4619(2)
H1 H 0.4340 1.0367 0.4599
H2 H 0.4736 0.7446 0.4604
H3 H 0.4354 0.7161 0.5032
C2 C 0.34540(16) 0.7003(9) 0.39768(19)
C3 C 0.32733(16) 0.8633(9) 0.44480(19)
H4 H 0.3517 0.9407 0.4853
C4 C 0.27287(16) 0.9075(9) 0.43036(19)
H5 H 0.2611 1.0205 0.4614
C5 C 0.23481(16) 0.7900(8) 0.37127(18)
C6 C 0.25399(16) 0.6205(9) 0.32607(19)
H6 H 0.2296 0.5365 0.2863
C7 C 0.30809(15) 0.5745(9) 0.33884(19)
H7 H 0.3197 0.4587 0.3080
C8 C 0.17673(15) 0.8561(9) 0.35381(18)
C9 C 0.15384(16) 1.0236(10) 0.3932(2)
H8 H 0.1754 1.0912 0.4361
C10 C 0.09795(18) 1.0996(10) 0.3711(2)
C11 C 0.09383(17) 0.8012(10) 0.2701(2)
C12 C 0.05612(17) 0.6915(10) 0.2038(2)
H9 H 0.0758 0.5824 0.1788
H10 H 0.0377 0.8821 0.1789
H11 H 0.0304 0.5389 0.2106
loop_
_geom_bond_atom_site_label_1
_geom_bond_atom_site_label_2
_geom_bond_site_symmetry_1
_geom_bond_site_symmetry_2
N1 C8 1_555 1_555
O1 C1 1_555 1_555
O2 C10 1_555 1_555
O3 C10 1_555 1_555
C1 H1 1_555 1_555
H2 C1 1_555 1_555
H3 C1 1_555 1_555
C2 O1 1_555 1_555
C3 C2 1_555 1_555
H4 C3 1_555 1_555
C4 C3 1_555 1_555
H5 C4 1_555 1_555
C5 C4 1_555 1_555
C6 C5 1_555 1_555
H6 C6 1_555 1_555
C7 C2 1_555 1_555
H7 C7 1_555 1_555
C8 C5 1_555 1_555
C9 C8 1_555 1_555
H8 C9 1_555 1_555
C10 C9 1_555 1_555
C11 N1 1_555 1_555
C12 C11 1_555 1_555
H9 C12 1_555 1_555
H10 C12 1_555 1_555
H11 C12 1_555 1_555
O3 C11 1_555 1_555
C6 C7 1_555 1_555

#END
