
#######################################################################
#
#                 Cambridge Crystallographic Data Centre
#                                CCDC 
#
#######################################################################
#
# If this CIF has been generated from an entry in the Cambridge 
# Structural Database, then it will include bibliographic, chemical, 
# crystal, experimental, refinement or atomic coordinate data resulting 
# from the CCDC's data processing and validation procedures.
#
#######################################################################

data_KISJON
_chemical_formula_moiety         'C22 H23 N3 O2'
_chemical_name_systematic        
'Ethyl 3-(2-phenylvinyl)-2-(pyrrolidin-1-yl)-2H-indazole-5-carboxylate'
_symmetry_cell_setting           monoclinic
_symmetry_space_group_name_H-M   'C 2/c'
_symmetry_Int_Tables_number      15
_space_group_name_Hall           '-C 2yn'
loop_
_symmetry_equiv_pos_site_id
_symmetry_equiv_pos_as_xyz
1 x,y,z
2 -x,y,1/2-z
3 1/2+x,1/2+y,z
4 1/2-x,1/2+y,1/2-z
5 -x,-y,-z
6 x,-y,1/2+z
7 1/2-x,1/2-y,-z
8 1/2+x,1/2-y,1/2+z
_cell_length_a                   23.6761(12)
_cell_length_b                   9.0466(5)
_cell_length_c                   18.6196(9)
_cell_angle_alpha                90
_cell_angle_beta                 101.730(6)
_cell_angle_gamma                90
_cell_volume                     3904.81
_exptl_crystal_colour            colorless
_exptl_crystal_description       block
_cell_formula_units_Z            8
loop_
_atom_site_label
_atom_site_type_symbol
_atom_site_fract_x
_atom_site_fract_y
_atom_site_fract_z
O1 O 0.23518(10) -0.5054(3) 0.08266(14)
O2 O 0.30325(8) -0.4460(2) 0.02055(11)
N1 N 0.34225(9) 0.0775(2) 0.24262(11)
N2 N 0.37702(8) 0.1366(2) 0.20058(10)
N3 N 0.40655(9) 0.2682(2) 0.22128(11)
C1 C 0.3252(2) -0.5822(5) -0.0789(2)
H1 H 0.3126 -0.5032 -0.1128
H2 H 0.3204 -0.6748 -0.1046
H3 H 0.3652 -0.5685 -0.0569
C2 C 0.29088(16) -0.5823(4) -0.0214(2)
H4 H 0.2501 -0.5878 -0.0434
H5 H 0.3009 -0.6671 0.0105
C3 C 0.27210(11) -0.4216(3) 0.07185(16)
C4 C 0.28965(10) -0.2859(3) 0.11481(14)
C5 C 0.26764(11) -0.2651(3) 0.17983(17)
H6 H 0.2415 -0.3333 0.1915
C6 C 0.28357(11) -0.1490(3) 0.22505(16)
H7 H 0.2698 -0.1386 0.2681
C7 C 0.32178(10) -0.0440(3) 0.20517(13)
C8 C 0.34282(9) -0.0603(3) 0.13895(12)
C9 C 0.32691(9) -0.1841(3) 0.09428(13)
H8 H 0.3411 -0.1975 0.0517
C10 C 0.37891(9) 0.0632(3) 0.13773(12)
C11 C 0.41282(10) 0.1175(3) 0.08749(12)
H9 H 0.4420 0.1844 0.1061
C12 C 0.40669(10) 0.0820(3) 0.01802(12)
H10 H 0.3771 0.0164 -0.0007
C13 C 0.44188(10) 0.1352(3) -0.03306(12)
C14 C 0.48960(11) 0.2264(3) -0.01224(14)
H11 H 0.5001 0.2573 0.0363
C15 C 0.52204(13) 0.2723(4) -0.06272(18)
H12 H 0.5538 0.3337 -0.0480
C16 C 0.50695(14) 0.2263(4) -0.13427(17)
H13 H 0.5289 0.2550 -0.1681
C17 C 0.45952(15) 0.1382(3) -0.15582(15)
H14 H 0.4491 0.1077 -0.2044
C18 C 0.42716(13) 0.0945(3) -0.10603(13)
H15 H 0.3947 0.0362 -0.1218
C19 C 0.36963(14) 0.3985(3) 0.2060(2)
H16 H 0.3316 0.3789 0.2155
H17 H 0.3658 0.4297 0.1554
C20 C 0.4001(2) 0.5120(4) 0.2570(2)
H18 H 0.3728 0.5676 0.2789
H19 H 0.4206 0.5802 0.2313
C21 C 0.4418(2) 0.4290(4) 0.3151(2)
H20 H 0.4811 0.4574 0.3142
H21 H 0.4343 0.4510 0.3634
C22 C 0.43340(16) 0.2737(4) 0.29925(16)
H22 H 0.4084 0.2299 0.3287
H23 H 0.4700 0.2216 0.3087
loop_
_geom_bond_atom_site_label_1
_geom_bond_atom_site_label_2
_geom_bond_site_symmetry_1
_geom_bond_site_symmetry_2
O1 C3 1_555 1_555
O2 C2 1_555 1_555
N1 N2 1_555 1_555
N2 N3 1_555 1_555
N3 C19 1_555 1_555
C1 H1 1_555 1_555
H2 C1 1_555 1_555
H3 C1 1_555 1_555
C2 C1 1_555 1_555
H4 C2 1_555 1_555
H5 C2 1_555 1_555
C3 O2 1_555 1_555
C4 C3 1_555 1_555
C5 C4 1_555 1_555
H6 C5 1_555 1_555
C6 C5 1_555 1_555
H7 C6 1_555 1_555
C7 N1 1_555 1_555
C8 C7 1_555 1_555
C9 C4 1_555 1_555
H8 C9 1_555 1_555
C10 N2 1_555 1_555
C11 C10 1_555 1_555
H9 C11 1_555 1_555
C12 C11 1_555 1_555
H10 C12 1_555 1_555
C13 C12 1_555 1_555
C14 C13 1_555 1_555
H11 C14 1_555 1_555
C15 C14 1_555 1_555
H12 C15 1_555 1_555
C16 C15 1_555 1_555
H13 C16 1_555 1_555
C17 C16 1_555 1_555
H14 C17 1_555 1_555
C18 C13 1_555 1_555
H15 C18 1_555 1_555
C19 H16 1_555 1_555
H17 C19 1_555 1_555
C20 C19 1_555 1_555
H18 C20 1_555 1_555
H19 C20 1_555 1_555
C21 C20 1_555 1_555
H20 C21 1_555 1_555
H21 C21 1_555 1_555
C22 N3 1_555 1_555
H22 C22 1_555 1_555
H23 C22 1_555 1_555
C6 C7 1_555 1_555
C8 C9 1_555 1_555
C8 C10 1_555 1_555
C17 C18 1_555 1_555
C21 C22 1_555 1_555

#END
