
#######################################################################
#
#                 Cambridge Crystallographic Data Centre
#                                CCDC 
#
#######################################################################
#
# If this CIF has been generated from an entry in the Cambridge 
# Structural Database, then it will include bibliographic, chemical, 
# crystal, experimental, refinement or atomic coordinate data resulting 
# from the CCDC's data processing and validation procedures.
#
#######################################################################

data_KISNOS
_chemical_formula_moiety         'C25 H20 F1 N1 O3'
_chemical_name_systematic        
5'-fluoro-1'-methyl-4-phenyl-3a,9b-dihydro-3H,4H-spiro[furo[3,2-c][1]benzopyran-2,3'-indol]-2'(1'H)-one
_symmetry_cell_setting           triclinic
_symmetry_space_group_name_H-M   'P -1'
_symmetry_Int_Tables_number      2
_space_group_name_Hall           '-P 1'
loop_
_symmetry_equiv_pos_site_id
_symmetry_equiv_pos_as_xyz
1 x,y,z
2 -x,-y,-z
_cell_length_a                   8.6230(12)
_cell_length_b                   9.5904(12)
_cell_length_c                   12.8096(16)
_cell_angle_alpha                102.175(10)
_cell_angle_beta                 92.846(11)
_cell_angle_gamma                98.990(11)
_cell_volume                     1019.03
_exptl_crystal_colour            'light white'
_exptl_crystal_description       block
_cell_formula_units_Z            2
loop_
_atom_site_label
_atom_site_type_symbol
_atom_site_fract_x
_atom_site_fract_y
_atom_site_fract_z
C1 C 0.2897(4) 0.7788(4) 0.4407(2)
H1 H 0.346417 0.872541 0.459846
C2 C 0.1643(4) 0.7460(4) 0.3628(3)
H2 H 0.136761 0.817442 0.329988
C3 C 0.0799(4) 0.6060(4) 0.3339(3)
H3 H -0.005145 0.583969 0.282245
C4 C 0.1220(4) 0.4990(4) 0.3818(3)
H4 H 0.066494 0.404940 0.361492
C5 C 0.2465(4) 0.5326(3) 0.4597(2)
H5 H 0.273834 0.460614 0.491952
C6 C 0.3320(3) 0.6726(3) 0.4908(2)
C7 C 0.4612(3) 0.7114(3) 0.5807(2)
H6 H 0.489755 0.621664 0.594671
C8 C 0.4129(3) 0.7982(3) 0.6845(2)
H7 H 0.371596 0.883148 0.671470
C9 C 0.5502(3) 0.8433(3) 0.7698(2)
H8 H 0.534476 0.930330 0.821107
C10 C 0.7086(3) 0.8697(3) 0.7288(3)
C11 C 0.7239(3) 0.8427(3) 0.6193(3)
C12 C 0.8696(4) 0.8712(4) 0.5791(3)
H9 H 0.877356 0.855018 0.505491
C13 C 1.0028(4) 0.9237(4) 0.6496(3)
H10 H 1.100760 0.941348 0.623190
C14 C 0.9913(4) 0.9500(4) 0.7587(3)
H11 H 1.081100 0.985787 0.805765
C15 C 0.8452(4) 0.9229(4) 0.7979(3)
H12 H 0.838013 0.940544 0.871602
C16 C 0.2898(3) 0.7024(3) 0.7334(2)
H13 H 0.204127 0.752971 0.756246
H14 H 0.246904 0.613518 0.681642
C17 C 0.3791(3) 0.6699(3) 0.8297(2)
C18 C 0.3223(4) 0.7467(4) 0.9363(3)
C19 C 0.2147(5) 0.6720(6) 1.0966(3)
H15 H 0.107927 0.622231 1.090934
H16 H 0.216995 0.774299 1.120048
H17 H 0.277340 0.639257 1.147588
C20 C 0.3018(4) 0.5057(4) 0.9389(3)
C21 C 0.3601(4) 0.5149(4) 0.8410(3)
C22 C 0.3958(4) 0.3932(4) 0.7734(3)
H18 H 0.434343 0.396986 0.707338
C23 C 0.3713(5) 0.2658(4) 0.8092(4)
C24 C 0.3179(5) 0.2559(5) 0.9064(4)
H19 H 0.306451 0.168210 0.927724
C25 C 0.2813(4) 0.3768(5) 0.9721(3)
H20 H 0.243177 0.371887 1.038149
F1 F 0.4067(3) 0.1449(3) 0.7442(2)
N1 N 0.2775(3) 0.6423(4) 0.9932(2)
O1 O 0.5963(2) 0.7912(2) 0.54412(16)
O2 O 0.5427(2) 0.7232(2) 0.82343(16)
O3 O 0.3139(3) 0.8748(3) 0.96359(19)
loop_
_geom_bond_atom_site_label_1
_geom_bond_atom_site_label_2
_geom_bond_site_symmetry_1
_geom_bond_site_symmetry_2
C1 H1 1_555 1_555
C2 C1 1_555 1_555
H2 C2 1_555 1_555
C3 C2 1_555 1_555
H3 C3 1_555 1_555
C4 C3 1_555 1_555
H4 C4 1_555 1_555
C5 C4 1_555 1_555
H5 C5 1_555 1_555
C6 C1 1_555 1_555
C7 C6 1_555 1_555
H6 C7 1_555 1_555
C8 C7 1_555 1_555
H7 C8 1_555 1_555
C9 C8 1_555 1_555
H8 C9 1_555 1_555
C10 C9 1_555 1_555
C11 C10 1_555 1_555
C12 C11 1_555 1_555
H9 C12 1_555 1_555
C13 C12 1_555 1_555
H10 C13 1_555 1_555
C14 C13 1_555 1_555
H11 C14 1_555 1_555
C15 C10 1_555 1_555
H12 C15 1_555 1_555
C16 C8 1_555 1_555
H13 C16 1_555 1_555
H14 C16 1_555 1_555
C17 C16 1_555 1_555
C18 C17 1_555 1_555
C19 H15 1_555 1_555
H16 C19 1_555 1_555
H17 C19 1_555 1_555
C20 C21 1_555 1_555
C21 C17 1_555 1_555
C22 C21 1_555 1_555
H18 C22 1_555 1_555
C23 C22 1_555 1_555
C24 C23 1_555 1_555
H19 C24 1_555 1_555
C25 C20 1_555 1_555
H20 C25 1_555 1_555
F1 C23 1_555 1_555
N1 C18 1_555 1_555
O1 C7 1_555 1_555
O2 C9 1_555 1_555
O3 C18 1_555 1_555
C5 C6 1_555 1_555
C11 O1 1_555 1_555
C14 C15 1_555 1_555
C17 O2 1_555 1_555
C19 N1 1_555 1_555
C20 N1 1_555 1_555
C24 C25 1_555 1_555

#END
