
#######################################################################
#
#                 Cambridge Crystallographic Data Centre
#                                CCDC 
#
#######################################################################
#
# If this CIF has been generated from an entry in the Cambridge 
# Structural Database, then it will include bibliographic, chemical, 
# crystal, experimental, refinement or atomic coordinate data resulting 
# from the CCDC's data processing and validation procedures.
#
#######################################################################

data_KISQUZ01
_chemical_formula_moiety         'C52 H66 S4'
_chemical_name_systematic        
5,5'''-diphenyl-3,3'''-didodecyl-2,2':5',2'':5'',2'''-quaterthiophene
_symmetry_cell_setting           monoclinic
_symmetry_space_group_name_H-M   'C 2/c'
_symmetry_Int_Tables_number      15
_space_group_name_Hall           '-C 2yn'
loop_
_symmetry_equiv_pos_site_id
_symmetry_equiv_pos_as_xyz
1 x,y,z
2 1/2+x,1/2+y,z
3 -x,y,1/2-z
4 1/2-x,1/2+y,1/2-z
5 -x,-y,-z
6 1/2-x,1/2-y,-z
7 x,-y,1/2+z
8 1/2+x,1/2-y,1/2+z
_cell_length_a                   24.103(5)
_cell_length_b                   5.4331(10)
_cell_length_c                   35.522(7)
_cell_angle_alpha                90
_cell_angle_beta                 91.121(7)
_cell_angle_gamma                90
_cell_volume                     4650.86
_exptl_crystal_colour            orange
_exptl_crystal_description       needle
_cell_formula_units_Z            4
_exptl_crystal_recrystallization_method 2-propanol
loop_
_atom_site_label
_atom_site_type_symbol
_atom_site_fract_x
_atom_site_fract_y
_atom_site_fract_z
S1 S 0.17886(15) 0.5304(6) 0.65275(12)
C1 C 0.1763(8) 0.285(4) 0.7227(7)
S2 S 0.26493(16) 0.4897(6) 0.54623(12)
C2 C 0.1905(7) 0.109(4) 0.7473(8)
H1 H 0.2162 -0.0095 0.7402
C3 C 0.1675(11) 0.095(4) 0.7839(7)
H2 H 0.1779 -0.0288 0.8007
C4 C 0.1291(10) 0.271(5) 0.7935(7)
H3 H 0.1136 0.2683 0.8173
C5 C 0.1146(9) 0.442(5) 0.7697(9)
H4 H 0.0883 0.5584 0.7763
C6 C 0.1387(11) 0.452(4) 0.7333(7)
H5 H 0.1281 0.5763 0.7167
C7 C 0.1990(8) 0.305(3) 0.6850(6)
C8 C 0.2371(8) 0.163(3) 0.6689(6)
H6 H 0.2526 0.0289 0.6816
C9 C 0.2530(7) 0.221(3) 0.6324(7)
C10 C 0.2212(7) 0.428(4) 0.6183(5)
C11 C 0.2227(6) 0.549(3) 0.5830(5)
C12 C 0.1881(6) 0.753(3) 0.5726(5)
H7 H 0.1614 0.8207 0.5881
C13 C 0.1994(7) 0.838(3) 0.5364(5)
H8 H 0.1789 0.9662 0.5257
C14 C 0.2393(6) 0.734(3) 0.5181(4)
C15 C 0.2964(7) 0.078(2) 0.6098(4)
H9 H 0.2963 -0.0927 0.6176
H10 H 0.2860 0.0839 0.5833
C16 C 0.3554(7) 0.182(2) 0.6150(4)
H11 H 0.3633 0.2087 0.6416
H12 H 0.3580 0.3396 0.6023
C17 C 0.3982(6) 0.001(3) 0.5988(5)
H13 H 0.4351 0.0581 0.6060
H14 H 0.3929 -0.1581 0.6106
C18 C 0.3963(6) -0.035(3) 0.5559(5)
H15 H 0.4173 -0.1827 0.5502
H16 H 0.3581 -0.0656 0.5483
C19 C 0.4174(6) 0.164(3) 0.5328(5)
H17 H 0.4553 0.1985 0.5409
H18 H 0.3956 0.3105 0.5377
C20 C 0.4168(6) 0.119(3) 0.4905(5)
H19 H 0.4364 -0.0334 0.4858
H20 H 0.3785 0.0957 0.4822
C21 C 0.4412(6) 0.313(3) 0.4673(5)
H21 H 0.4800 0.3304 0.4745
H22 H 0.4229 0.4671 0.4728
C22 C 0.4374(6) 0.268(3) 0.4257(6)
H23 H 0.4542 0.1098 0.4205
H24 H 0.3985 0.2569 0.4185
C23 C 0.4636(7) 0.454(3) 0.4015(6)
H25 H 0.5031 0.4558 0.4071
H26 H 0.4489 0.6143 0.4078
C24 C 0.4552(7) 0.414(3) 0.3600(7)
H27 H 0.4692 0.2522 0.3534
H28 H 0.4158 0.4172 0.3539
C25 C 0.4840(10) 0.604(5) 0.3370(6)
H29 H 0.4688 0.7647 0.3426
H30 H 0.5231 0.6057 0.3439
C26 C 0.4779(7) 0.558(4) 0.2986(6)
H31 H 0.4968 0.6831 0.2848
H32 H 0.4392 0.5588 0.2917
H33 H 0.4935 0.3999 0.2929
S1E S 0.32114(15) 0.9696(6) 0.34725(12)
C1E C 0.3237(8) 1.215(4) 0.2773(7)
S2E S 0.23507(16) 1.0103(6) 0.45377(12)
C2E C 0.3095(7) 1.391(4) 0.2527(8)
H1E H 0.2838 1.5095 0.2598
C3E C 0.3325(11) 1.405(4) 0.2161(7)
H2E H 0.3221 1.5288 0.1993
C4E C 0.3709(10) 1.229(5) 0.2065(7)
H3E H 0.3864 1.2317 0.1827
C5E C 0.3854(9) 1.058(5) 0.2303(9)
H4E H 0.4117 0.9416 0.2237
C6E C 0.3613(11) 1.048(4) 0.2667(7)
H5E H 0.3719 0.9237 0.2833
C7E C 0.3010(8) 1.195(3) 0.3150(6)
C8E C 0.2629(8) 1.337(3) 0.3311(6)
H6E H 0.2474 1.4711 0.3184
C9E C 0.2470(7) 1.279(3) 0.3676(7)
C10E C 0.2788(7) 1.072(4) 0.3817(5)
C11E C 0.2773(6) 0.951(3) 0.4170(5)
C12E C 0.3119(6) 0.747(3) 0.4274(5)
H7E H 0.3386 0.6793 0.4119
C13E C 0.3006(7) 0.662(3) 0.4636(5)
H8E H 0.3211 0.5338 0.4743
C14E C 0.2607(6) 0.766(3) 0.4819(4)
C15E C 0.2036(7) 1.422(2) 0.3902(4)
H9E H 0.2037 1.5927 0.3824
H10E H 0.2140 1.4161 0.4167
C16E C 0.1446(7) 1.318(2) 0.3850(4)
H11E H 0.1367 1.2913 0.3584
H12E H 0.1420 1.1604 0.3977
C17E C 0.1018(6) 1.499(3) 0.4012(5)
H13E H 0.0649 1.4419 0.3940
H14E H 0.1071 1.6581 0.3894
C18E C 0.1037(6) 1.535(3) 0.4441(5)
H15E H 0.0827 1.6827 0.4498
H16E H 0.1419 1.5656 0.4517
C19E C 0.0826(6) 1.336(3) 0.4672(5)
H17E H 0.0447 1.3015 0.4591
H18E H 0.1044 1.1895 0.4623
C20E C 0.0832(6) 1.381(3) 0.5095(5)
H19E H 0.0636 1.5334 0.5142
H20E H 0.1215 1.4043 0.5178
C21E C 0.0588(6) 1.187(3) 0.5327(5)
H21E H 0.0200 1.1696 0.5255
H22E H 0.0771 1.0329 0.5272
C22E C 0.0626(6) 1.232(3) 0.5743(6)
H23E H 0.0458 1.3902 0.5795
H24E H 0.1015 1.2431 0.5815
C23E C 0.0364(7) 1.046(3) 0.5985(6)
H25E H -0.0031 1.0442 0.5929
H26E H 0.0511 0.8857 0.5922
C24E C 0.0448(7) 1.086(3) 0.6400(7)
H27E H 0.0308 1.2478 0.6466
H28E H 0.0842 1.0828 0.6461
C25E C 0.0160(10) 0.896(5) 0.6630(6)
H29E H 0.0312 0.7353 0.6574
H30E H -0.0231 0.8943 0.6561
C26E C 0.0221(7) 0.942(4) 0.7014(6)
H31E H 0.0032 0.8169 0.7152
H32E H 0.0608 0.9412 0.7083
H33E H 0.0065 1.1001 0.7071
loop_
_geom_bond_atom_site_label_1
_geom_bond_atom_site_label_2
_geom_bond_site_symmetry_1
_geom_bond_site_symmetry_2
S1 C7 1_555 1_555
C1 C2 1_555 1_555
S2 C11 1_555 1_555
C2 H1 1_555 1_555
C3 C2 1_555 1_555
H2 C3 1_555 1_555
C4 C3 1_555 1_555
H3 C4 1_555 1_555
C5 C4 1_555 1_555
H4 C5 1_555 1_555
C6 C1 1_555 1_555
H5 C6 1_555 1_555
C7 C1 1_555 1_555
C8 C7 1_555 1_555
H6 C8 1_555 1_555
C9 C8 1_555 1_555
C10 S1 1_555 1_555
C11 C10 1_555 1_555
C12 C11 1_555 1_555
H7 C12 1_555 1_555
C13 C12 1_555 1_555
H8 C13 1_555 1_555
C14 S2 1_555 1_555
C15 C9 1_555 1_555
H9 C15 1_555 1_555
H10 C15 1_555 1_555
C16 C15 1_555 1_555
H11 C16 1_555 1_555
H12 C16 1_555 1_555
C17 C16 1_555 1_555
H13 C17 1_555 1_555
H14 C17 1_555 1_555
C18 C17 1_555 1_555
H15 C18 1_555 1_555
H16 C18 1_555 1_555
C19 C18 1_555 1_555
H17 C19 1_555 1_555
H18 C19 1_555 1_555
C20 C19 1_555 1_555
H19 C20 1_555 1_555
H20 C20 1_555 1_555
C21 C20 1_555 1_555
H21 C21 1_555 1_555
H22 C21 1_555 1_555
C22 C21 1_555 1_555
H23 C22 1_555 1_555
H24 C22 1_555 1_555
C23 C22 1_555 1_555
H25 C23 1_555 1_555
H26 C23 1_555 1_555
C24 C23 1_555 1_555
H27 C24 1_555 1_555
H28 C24 1_555 1_555
C25 C24 1_555 1_555
H29 C25 1_555 1_555
H30 C25 1_555 1_555
C26 C25 1_555 1_555
H31 C26 1_555 1_555
H32 C26 1_555 1_555
H33 C26 1_555 1_555
S1E C7E 1_555 1_555
C1E C2E 1_555 1_555
S2E C11E 1_555 1_555
C2E H1E 1_555 1_555
C3E C2E 1_555 1_555
H2E C3E 1_555 1_555
C4E C3E 1_555 1_555
H3E C4E 1_555 1_555
C5E C4E 1_555 1_555
H4E C5E 1_555 1_555
C6E C1E 1_555 1_555
H5E C6E 1_555 1_555
C7E C1E 1_555 1_555
C8E C7E 1_555 1_555
H6E C8E 1_555 1_555
C9E C8E 1_555 1_555
C10E S1E 1_555 1_555
C11E C10E 1_555 1_555
C12E C11E 1_555 1_555
H7E C12E 1_555 1_555
C13E C12E 1_555 1_555
H8E C13E 1_555 1_555
C14E C14 1_555 1_555
C15E C9E 1_555 1_555
H9E C15E 1_555 1_555
H10E C15E 1_555 1_555
C16E C15E 1_555 1_555
H11E C16E 1_555 1_555
H12E C16E 1_555 1_555
C17E C16E 1_555 1_555
H13E C17E 1_555 1_555
H14E C17E 1_555 1_555
C18E C17E 1_555 1_555
H15E C18E 1_555 1_555
H16E C18E 1_555 1_555
C19E C18E 1_555 1_555
H17E C19E 1_555 1_555
H18E C19E 1_555 1_555
C20E C19E 1_555 1_555
H19E C20E 1_555 1_555
H20E C20E 1_555 1_555
C21E C20E 1_555 1_555
H21E C21E 1_555 1_555
H22E C21E 1_555 1_555
C22E C21E 1_555 1_555
H23E C22E 1_555 1_555
H24E C22E 1_555 1_555
C23E C22E 1_555 1_555
H25E C23E 1_555 1_555
H26E C23E 1_555 1_555
C24E C23E 1_555 1_555
H27E C24E 1_555 1_555
H28E C24E 1_555 1_555
C25E C24E 1_555 1_555
H29E C25E 1_555 1_555
H30E C25E 1_555 1_555
C26E C25E 1_555 1_555
H31E C26E 1_555 1_555
H32E C26E 1_555 1_555
H33E C26E 1_555 1_555
C5 C6 1_555 1_555
C9 C10 1_555 1_555
C13 C14 1_555 1_555
S2E C14E 1_555 1_555
C5E C6E 1_555 1_555
C9E C10E 1_555 1_555
C13E C14E 1_555 1_555

#END
