
#######################################################################
#
#                 Cambridge Crystallographic Data Centre
#                                CCDC 
#
#######################################################################
#
# If this CIF has been generated from an entry in the Cambridge 
# Structural Database, then it will include bibliographic, chemical, 
# crystal, experimental, refinement or atomic coordinate data resulting 
# from the CCDC's data processing and validation procedures.
#
#######################################################################

data_KISQEJ01
_chemical_formula_moiety         'C54 H64 F6 S4'
_chemical_name_systematic        
5,5'''-bis(p-trifluoromethylphenyl)-3,3'''-didodecyl-2,2':5',2'':5'',2'''-quaterthiophene
_symmetry_cell_setting           monoclinic
_symmetry_space_group_name_H-M   'C 2/c'
_symmetry_Int_Tables_number      15
_space_group_name_Hall           '-C 2yn'
loop_
_symmetry_equiv_pos_site_id
_symmetry_equiv_pos_as_xyz
1 x,y,z
2 1/2+x,1/2+y,z
3 -x,y,1/2-z
4 1/2-x,1/2+y,1/2-z
5 -x,-y,-z
6 1/2-x,1/2-y,-z
7 x,-y,1/2+z
8 1/2+x,1/2-y,1/2+z
_cell_length_a                   24.3878(6)
_cell_length_b                   5.43320(10)
_cell_length_c                   38.0896(8)
_cell_angle_alpha                90
_cell_angle_beta                 91.832(2)
_cell_angle_gamma                90
_cell_volume                     5044.44
_exptl_crystal_colour            red-orange
_exptl_crystal_description       needle
_cell_formula_units_Z            4
_exptl_crystal_recrystallization_method 2-propanol
loop_
_atom_site_label
_atom_site_type_symbol
_atom_site_fract_x
_atom_site_fract_y
_atom_site_fract_z
S1 S 0.18873(3) 0.51636(13) 0.142029(19)
C1 C 0.12169(16) 0.8774(8) 0.30566(9)
S2 S 0.26908(3) 0.51944(14) 0.041118(19)
C2 C 0.14532(12) 0.8394(6) 0.27080(7)
F1 F 0.15863(10) 0.8683(5) 0.33185(5)
C3 C 0.12891(14) 0.6456(6) 0.24986(8)
H1 H 0.1030 0.5343 0.2576
F2 F 0.08268(12) 0.7254(5) 0.31322(6)
F3 F 0.10033(10) 1.1005(5) 0.30925(6)
C4 C 0.15113(14) 0.6167(6) 0.21707(8)
H2 H 0.1399 0.4842 0.2032
C5 C 0.18935(11) 0.7781(5) 0.20447(7)
C6 C 0.20558(13) 0.9714(6) 0.22635(8)
H3 H 0.2317 1.0830 0.2189
C7 C 0.18341(13) 0.9998(6) 0.25906(8)
H4 H 0.1947 1.1307 0.2733
C8 C 0.21212(11) 0.7474(5) 0.16957(7)
C9 C 0.25071(12) 0.8837(5) 0.15365(7)
H5 H 0.2681 1.0168 0.1646
C10 C 0.26253(11) 0.8082(5) 0.11911(7)
C11 C 0.23128(11) 0.6078(5) 0.10869(7)
C12 C 0.22744(11) 0.4685(5) 0.07618(7)
C13 C 0.19339(12) 0.2741(6) 0.06881(7)
H6 H 0.1677 0.2169 0.0844
C14 C 0.20058(12) 0.1689(6) 0.03581(8)
H7 H 0.1802 0.0355 0.0274
C15 C 0.24011(11) 0.2798(5) 0.01726(7)
C16 C 0.30450(11) 0.9415(5) 0.09789(7)
H8 H 0.3041 1.1144 0.1043
H9 H 0.2937 0.9297 0.0732
C17 C 0.36284(12) 0.8458(6) 0.10267(8)
H10 H 0.3655 0.6862 0.0914
H11 H 0.3713 0.8239 0.1275
C18 C 0.40522(13) 1.0210(6) 0.08708(9)
H12 H 0.4009 1.1821 0.0976
H13 H 0.4416 0.9620 0.0937
C19 C 0.40169(14) 1.0496(6) 0.04745(9)
H14 H 0.3638 1.0825 0.0405
H15 H 0.4230 1.1928 0.0412
C20 C 0.42106(14) 0.8350(6) 0.02654(9)
H16 H 0.3999 0.6912 0.0327
H17 H 0.4591 0.8025 0.0332
C21 C 0.41672(14) 0.8685(7) -0.01292(9)
H18 H 0.3783 0.8881 -0.0197
H19 H 0.4353 1.0201 -0.0188
C22 C 0.43979(13) 0.6657(6) -0.03427(9)
H20 H 0.4226 0.5125 -0.0275
H21 H 0.4787 0.6517 -0.0284
C23 C 0.43261(14) 0.6955(6) -0.07364(9)
H22 H 0.3937 0.7086 -0.0794
H23 H 0.4495 0.8496 -0.0802
C24 C 0.45572(15) 0.4958(7) -0.09543(10)
H24 H 0.4399 0.3408 -0.0882
H25 H 0.4949 0.4867 -0.0903
C25 C 0.44664(16) 0.5218(7) -0.13493(10)
H26 H 0.4075 0.5372 -0.1399
H27 H 0.4636 0.6741 -0.1422
C26 C 0.46762(17) 0.3209(8) -0.15681(11)
H28 H 0.4497 0.1690 -0.1503
H29 H 0.5065 0.3016 -0.1515
C27 C 0.45958(17) 0.3561(10) -0.19570(11)
H30 H 0.4742 0.2169 -0.2078
H31 H 0.4782 0.5028 -0.2027
H32 H 0.4211 0.3713 -0.2015
S1E S 0.31127(3) -0.01636(13) -0.142029(19)
C1E C 0.37831(16) -0.3774(8) -0.30566(9)
S2E S 0.23092(3) -0.01944(14) -0.041118(19)
C2E C 0.35468(12) -0.3394(6) -0.27080(7)
F1E F 0.34137(10) -0.3683(5) -0.33185(5)
C3E C 0.37109(14) -0.1456(6) -0.24986(8)
H1E H 0.3970 -0.0343 -0.2576
F2E F 0.41732(12) -0.2254(5) -0.31322(6)
F3E F 0.39967(10) -0.6005(5) -0.30925(6)
C4E C 0.34887(14) -0.1167(6) -0.21707(8)
H2E H 0.3601 0.0158 -0.2032
C5E C 0.31065(11) -0.2781(5) -0.20447(7)
C6E C 0.29442(13) -0.4714(6) -0.22635(8)
H3E H 0.2683 -0.5830 -0.2189
C7E C 0.31659(13) -0.4998(6) -0.25906(8)
H4E H 0.3053 -0.6307 -0.2733
C8E C 0.28788(11) -0.2474(5) -0.16957(7)
C9E C 0.24929(12) -0.3837(5) -0.15365(7)
H5E H 0.2319 -0.5168 -0.1646
C10E C 0.23747(11) -0.3082(5) -0.11911(7)
C11E C 0.26872(11) -0.1078(5) -0.10869(7)
C12E C 0.27256(11) 0.0315(5) -0.07618(7)
C13E C 0.30661(12) 0.2259(6) -0.06881(7)
H6E H 0.3323 0.2831 -0.0844
C14E C 0.29942(12) 0.3311(6) -0.03581(8)
H7E H 0.3198 0.4645 -0.0274
C15E C 0.25989(11) 0.2202(5) -0.01726(7)
C16E C 0.19550(11) -0.4415(5) -0.09789(7)
H8E H 0.1959 -0.6144 -0.1043
H9E H 0.2063 -0.4297 -0.0732
C17E C 0.13716(12) -0.3458(6) -0.10267(8)
H10E H 0.1345 -0.1862 -0.0914
H11E H 0.1287 -0.3239 -0.1275
C18E C 0.09478(13) -0.5210(6) -0.08708(9)
H12E H 0.0991 -0.6821 -0.0976
H13E H 0.0584 -0.4620 -0.0937
C19E C 0.09831(14) -0.5496(6) -0.04745(9)
H14E H 0.1362 -0.5825 -0.0405
H15E H 0.0770 -0.6928 -0.0412
C20E C 0.07894(14) -0.3350(6) -0.02654(9)
H16E H 0.1001 -0.1912 -0.0327
H17E H 0.0409 -0.3025 -0.0332
C21E C 0.08328(14) -0.3685(7) 0.01292(9)
H18E H 0.1217 -0.3881 0.0197
H19E H 0.0647 -0.5201 0.0188
C22E C 0.06021(13) -0.1657(6) 0.03427(9)
H20E H 0.0774 -0.0125 0.0275
H21E H 0.0213 -0.1517 0.0284
C23E C 0.06739(14) -0.1955(6) 0.07364(9)
H22E H 0.1063 -0.2086 0.0794
H23E H 0.0505 -0.3496 0.0802
C24E C 0.04428(15) 0.0042(7) 0.09543(10)
H24E H 0.0601 0.1592 0.0882
H25E H 0.0051 0.0133 0.0903
C25E C 0.05336(16) -0.0218(7) 0.13493(10)
H26E H 0.0925 -0.0372 0.1399
H27E H 0.0364 -0.1741 0.1422
C26E C 0.03238(17) 0.1791(8) 0.15681(11)
H28E H 0.0503 0.3310 0.1503
H29E H -0.0065 0.1984 0.1515
C27E C 0.04042(17) 0.1439(10) 0.19570(11)
H30E H 0.0258 0.2831 0.2078
H31E H 0.0218 -0.0028 0.2027
H32E H 0.0789 0.1287 0.2015
loop_
_geom_bond_atom_site_label_1
_geom_bond_atom_site_label_2
_geom_bond_site_symmetry_1
_geom_bond_site_symmetry_2
S1 C8 1_555 1_555
C1 C2 1_555 1_555
S2 C12 1_555 1_555
C2 C3 1_555 1_555
F1 C1 1_555 1_555
C3 H1 1_555 1_555
F2 C1 1_555 1_555
F3 C1 1_555 1_555
C4 C3 1_555 1_555
H2 C4 1_555 1_555
C5 C4 1_555 1_555
C6 C5 1_555 1_555
H3 C6 1_555 1_555
C7 C2 1_555 1_555
H4 C7 1_555 1_555
C8 C5 1_555 1_555
C9 C8 1_555 1_555
H5 C9 1_555 1_555
C10 C9 1_555 1_555
C11 S1 1_555 1_555
C12 C11 1_555 1_555
C13 C12 1_555 1_555
H6 C13 1_555 1_555
C14 C13 1_555 1_555
H7 C14 1_555 1_555
C15 S2 1_555 1_555
C16 C10 1_555 1_555
H8 C16 1_555 1_555
H9 C16 1_555 1_555
C17 C16 1_555 1_555
H10 C17 1_555 1_555
H11 C17 1_555 1_555
C18 C17 1_555 1_555
H12 C18 1_555 1_555
H13 C18 1_555 1_555
C19 C18 1_555 1_555
H14 C19 1_555 1_555
H15 C19 1_555 1_555
C20 C19 1_555 1_555
H16 C20 1_555 1_555
H17 C20 1_555 1_555
C21 C20 1_555 1_555
H18 C21 1_555 1_555
H19 C21 1_555 1_555
C22 C21 1_555 1_555
H20 C22 1_555 1_555
H21 C22 1_555 1_555
C23 C22 1_555 1_555
H22 C23 1_555 1_555
H23 C23 1_555 1_555
C24 C23 1_555 1_555
H24 C24 1_555 1_555
H25 C24 1_555 1_555
C25 C24 1_555 1_555
H26 C25 1_555 1_555
H27 C25 1_555 1_555
C26 C25 1_555 1_555
H28 C26 1_555 1_555
H29 C26 1_555 1_555
C27 C26 1_555 1_555
H30 C27 1_555 1_555
H31 C27 1_555 1_555
H32 C27 1_555 1_555
S1E C8E 1_555 1_555
C1E C2E 1_555 1_555
S2E C12E 1_555 1_555
C2E C3E 1_555 1_555
F1E C1E 1_555 1_555
C3E H1E 1_555 1_555
F2E C1E 1_555 1_555
F3E C1E 1_555 1_555
C4E C3E 1_555 1_555
H2E C4E 1_555 1_555
C5E C4E 1_555 1_555
C6E C5E 1_555 1_555
H3E C6E 1_555 1_555
C7E C2E 1_555 1_555
H4E C7E 1_555 1_555
C8E C5E 1_555 1_555
C9E C8E 1_555 1_555
H5E C9E 1_555 1_555
C10E C9E 1_555 1_555
C11E S1E 1_555 1_555
C12E C11E 1_555 1_555
C13E C12E 1_555 1_555
H6E C13E 1_555 1_555
C14E C13E 1_555 1_555
H7E C14E 1_555 1_555
C15E C15 1_555 1_555
C16E C10E 1_555 1_555
H8E C16E 1_555 1_555
H9E C16E 1_555 1_555
C17E C16E 1_555 1_555
H10E C17E 1_555 1_555
H11E C17E 1_555 1_555
C18E C17E 1_555 1_555
H12E C18E 1_555 1_555
H13E C18E 1_555 1_555
C19E C18E 1_555 1_555
H14E C19E 1_555 1_555
H15E C19E 1_555 1_555
C20E C19E 1_555 1_555
H16E C20E 1_555 1_555
H17E C20E 1_555 1_555
C21E C20E 1_555 1_555
H18E C21E 1_555 1_555
H19E C21E 1_555 1_555
C22E C21E 1_555 1_555
H20E C22E 1_555 1_555
H21E C22E 1_555 1_555
C23E C22E 1_555 1_555
H22E C23E 1_555 1_555
H23E C23E 1_555 1_555
C24E C23E 1_555 1_555
H24E C24E 1_555 1_555
H25E C24E 1_555 1_555
C25E C24E 1_555 1_555
H26E C25E 1_555 1_555
H27E C25E 1_555 1_555
C26E C25E 1_555 1_555
H28E C26E 1_555 1_555
H29E C26E 1_555 1_555
C27E C26E 1_555 1_555
H30E C27E 1_555 1_555
H31E C27E 1_555 1_555
H32E C27E 1_555 1_555
C6 C7 1_555 1_555
C10 C11 1_555 1_555
C14 C15 1_555 1_555
S2E C15E 1_555 1_555
C6E C7E 1_555 1_555
C10E C11E 1_555 1_555
C14E C15E 1_555 1_555

#END
