
#######################################################################
#
#                 Cambridge Crystallographic Data Centre
#                                CCDC 
#
#######################################################################
#
# If this CIF has been generated from an entry in the Cambridge 
# Structural Database, then it will include bibliographic, chemical, 
# crystal, experimental, refinement or atomic coordinate data resulting 
# from the CCDC's data processing and validation procedures.
#
#######################################################################

data_KISWIU
_chemical_formula_moiety         'C30 H35 Cl1 N5 O10 P1'
_chemical_name_systematic        
"t-Butyl 5'-chloro-6-(diethoxyphosphoryl)-2-(2-((2,4-dinitrophenyl)hydrazono)ethyl)-2'-oxospiro[cyclohex-3-ene-1,3'-indole]-1'(2'H)-carboxylate"
_symmetry_cell_setting           orthorhombic
_symmetry_space_group_name_H-M   'P 21 21 21'
_symmetry_Int_Tables_number      19
_space_group_name_Hall           'P 2ac 2ab'
loop_
_symmetry_equiv_pos_site_id
_symmetry_equiv_pos_as_xyz
1 x,y,z
2 1/2-x,-y,1/2+z
3 -x,1/2+y,1/2-z
4 1/2+x,1/2-y,-z
_cell_length_a                   12.900(2)
_cell_length_b                   15.120(2)
_cell_length_c                   16.736(3)
_cell_angle_alpha                90
_cell_angle_beta                 90
_cell_angle_gamma                90
_cell_volume                     3264.32
_exptl_crystal_colour            yellow
_exptl_crystal_description       Prism
_cell_formula_units_Z            4
loop_
_atom_site_label
_atom_site_type_symbol
_atom_site_fract_x
_atom_site_fract_y
_atom_site_fract_z
P1 P 0.25643(4) 0.28386(4) 0.65133(3)
Cl1 Cl 0.05534(5) 0.64190(4) 0.63704(4)
O1 O 0.49733(12) 0.33078(9) 0.55820(10)
O2 O 0.63328(11) 0.43915(10) 0.62927(9)
O3 O 0.55705(15) 0.52956(14) 0.71969(12)
O4 O 0.23445(13) 0.18908(11) 0.66050(11)
O5 O 0.35407(13) 0.31616(10) 0.69884(10)
O6 O 0.16796(13) 0.34695(12) 0.68198(10)
O7 O 0.75237(17) 0.85226(12) 0.55777(12)
O8 O 0.90869(17) 0.81798(15) 0.52190(16)
O9 O 0.98559(15) 0.52926(17) 0.44002(19)
O10 O 0.86893(14) 0.43176(13) 0.41259(14)
N1 N 0.46334(13) 0.46777(11) 0.61798(11)
N2 N 0.56132(14) 0.46062(12) 0.42510(11)
N3 N 0.66872(14) 0.47226(13) 0.42134(12)
N4 N 0.81573(18) 0.80071(15) 0.52811(14)
N5 N 0.89504(16) 0.50637(16) 0.43430(14)
C1 C 0.37043(16) 0.51735(13) 0.62973(13)
C2 C 0.35456(18) 0.58843(15) 0.68082(14)
H1 H 0.4085 0.6101 0.7142
C3 C 0.25592(19) 0.62690(15) 0.68123(14)
H2 H 0.2422 0.6761 0.7149
C4 C 0.17835(18) 0.59354(14) 0.63270(14)
C5 C 0.19479(17) 0.52267(15) 0.58165(14)
H3 H 0.1411 0.5013 0.5480
C6 C 0.29237(16) 0.48408(14) 0.58145(12)
C7 C 0.33237(16) 0.40510(14) 0.53474(13)
C8 C 0.44174(16) 0.39367(13) 0.56904(13)
C9 C 0.27073(16) 0.31776(14) 0.54760(14)
H4 H 0.3120 0.2702 0.5210
C10 C 0.16354(17) 0.31688(16) 0.50719(14)
H5 H 0.1442 0.2549 0.4955
H6 H 0.1117 0.3409 0.5451
C11 C 0.15867(18) 0.36904(16) 0.43149(15)
H7 H 0.0973 0.3653 0.4003
C12 C 0.23432(17) 0.41993(16) 0.40532(14)
H8 H 0.2214 0.4547 0.3591
C13 C 0.33976(17) 0.42692(14) 0.44348(13)
H9 H 0.3637 0.4896 0.4381
C14 C 0.41433(17) 0.36795(15) 0.39470(14)
H10 H 0.4069 0.3066 0.4146
H11 H 0.3903 0.3683 0.3385
C15 C 0.52730(17) 0.39004(15) 0.39460(14)
H12 H 0.5748 0.3498 0.3709
C16 C 0.70759(16) 0.54947(14) 0.44850(13)
C17 C 0.63812(18) 0.61718(15) 0.47375(14)
H13 H 0.5657 0.6058 0.4732
C18 C 0.67271(18) 0.69813(15) 0.49882(15)
H14 H 0.6247 0.7424 0.5147
C19 C 0.77910(19) 0.71506(16) 0.50087(15)
C20 C 0.84944(18) 0.65256(17) 0.47832(14)
H15 H 0.9215 0.6653 0.4797
C21 C 0.81469(17) 0.57017(16) 0.45336(14)
C22 C 0.55485(17) 0.48229(14) 0.66215(14)
C23 C 0.73536(18) 0.43505(16) 0.67044(14)
C24 C 0.79696(19) 0.3775(2) 0.61395(17)
H16 H 0.7654 0.3186 0.6113
H17 H 0.8684 0.3723 0.6333
H18 H 0.7970 0.4042 0.5606
C25 C 0.7816(2) 0.52663(19) 0.67771(19)
H19 H 0.7767 0.5571 0.6261
H20 H 0.8546 0.5219 0.6934
H21 H 0.7435 0.5603 0.7182
C26 C 0.7215(2) 0.3906(2) 0.75068(17)
H22 H 0.6780 0.4278 0.7850
H23 H 0.7894 0.3823 0.7759
H24 H 0.6882 0.3330 0.7432
C27 C 0.4324(2) 0.25672(17) 0.73185(17)
H25 H 0.4967 0.2599 0.6997
H26 H 0.4068 0.1950 0.7309
C28 C 0.4533(3) 0.2842(3) 0.8143(2)
H27 H 0.4728 0.3468 0.8151
H28 H 0.5101 0.2486 0.8362
H29 H 0.3909 0.2754 0.8468
C29 C 0.1418(3) 0.3489(2) 0.76601(17)
H30 H 0.1994 0.3757 0.7968
H31 H 0.1310 0.2879 0.7858
C30 C 0.0481(3) 0.4004(3) 0.7771(2)
H32 H 0.0562 0.4582 0.7515
H33 H 0.0353 0.4085 0.8344
H34 H -0.0107 0.3691 0.7530
H35 H 0.719(2) 0.4303(19) 0.4040(18)
loop_
_geom_bond_atom_site_label_1
_geom_bond_atom_site_label_2
_geom_bond_site_symmetry_1
_geom_bond_site_symmetry_2
P1 O4 1_555 1_555
Cl1 C4 1_555 1_555
O1 C8 1_555 1_555
O2 C22 1_555 1_555
O3 C22 1_555 1_555
O5 P1 1_555 1_555
O6 P1 1_555 1_555
O7 N4 1_555 1_555
O8 N4 1_555 1_555
O9 N5 1_555 1_555
O10 N5 1_555 1_555
N1 C1 1_555 1_555
N2 N3 1_555 1_555
N3 C16 1_555 1_555
N4 C19 1_555 1_555
N5 C21 1_555 1_555
C1 C2 1_555 1_555
C2 H1 1_555 1_555
C3 C2 1_555 1_555
H2 C3 1_555 1_555
C4 C3 1_555 1_555
C5 C4 1_555 1_555
H3 C5 1_555 1_555
C6 C1 1_555 1_555
C7 C6 1_555 1_555
C8 N1 1_555 1_555
C9 P1 1_555 1_555
H4 C9 1_555 1_555
C10 C9 1_555 1_555
H5 C10 1_555 1_555
H6 C10 1_555 1_555
C11 C10 1_555 1_555
H7 C11 1_555 1_555
C12 C11 1_555 1_555
H8 C12 1_555 1_555
C13 C7 1_555 1_555
H9 C13 1_555 1_555
C14 C13 1_555 1_555
H10 C14 1_555 1_555
H11 C14 1_555 1_555
C15 N2 1_555 1_555
H12 C15 1_555 1_555
C16 C17 1_555 1_555
C17 H13 1_555 1_555
C18 C17 1_555 1_555
H14 C18 1_555 1_555
C19 C18 1_555 1_555
C20 C19 1_555 1_555
H15 C20 1_555 1_555
C21 C16 1_555 1_555
C22 N1 1_555 1_555
C23 O2 1_555 1_555
C24 C23 1_555 1_555
H16 C24 1_555 1_555
H17 C24 1_555 1_555
H18 C24 1_555 1_555
C25 C23 1_555 1_555
H19 C25 1_555 1_555
H20 C25 1_555 1_555
H21 C25 1_555 1_555
C26 C23 1_555 1_555
H22 C26 1_555 1_555
H23 C26 1_555 1_555
H24 C26 1_555 1_555
C27 O5 1_555 1_555
H25 C27 1_555 1_555
H26 C27 1_555 1_555
C28 C27 1_555 1_555
H27 C28 1_555 1_555
H28 C28 1_555 1_555
H29 C28 1_555 1_555
C29 O6 1_555 1_555
H30 C29 1_555 1_555
H31 C29 1_555 1_555
C30 C29 1_555 1_555
H32 C30 1_555 1_555
H33 C30 1_555 1_555
H34 C30 1_555 1_555
H35 N3 1_555 1_555
C5 C6 1_555 1_555
C7 C8 1_555 1_555
C7 C9 1_555 1_555
C12 C13 1_555 1_555
C14 C15 1_555 1_555
C20 C21 1_555 1_555

#END
