
#######################################################################
#
#                 Cambridge Crystallographic Data Centre
#                                CCDC 
#
#######################################################################
#
# If this CIF has been generated from an entry in the Cambridge 
# Structural Database, then it will include bibliographic, chemical, 
# crystal, experimental, refinement or atomic coordinate data resulting 
# from the CCDC's data processing and validation procedures.
#
#######################################################################

data_KISWEQ
_chemical_formula_moiety         'C15 H14 N6 O1'
_chemical_name_systematic        
10-Isopropyl-8,9-dihydro-7H-cyclopenta[4',5']pyrido[3',2':4,5]furo[2,3-e]tetrazolo[1,5-c]pyrimidine
_symmetry_cell_setting           monoclinic
_symmetry_space_group_name_H-M   'P 21/m'
_symmetry_Int_Tables_number      11
_space_group_name_Hall           '-P 2yb'
loop_
_symmetry_equiv_pos_site_id
_symmetry_equiv_pos_as_xyz
1 x,y,z
2 -x,1/2+y,-z
3 -x,-y,-z
4 x,1/2-y,z
_cell_length_a                   9.7382(19)
_cell_length_b                   6.8425(14)
_cell_length_c                   10.348(2)
_cell_angle_alpha                90
_cell_angle_beta                 102.25(3)
_cell_angle_gamma                90
_cell_volume                     673.825
_exptl_crystal_colour            colorless
_exptl_crystal_description       prism
_cell_formula_units_Z            2
loop_
_atom_site_label
_atom_site_type_symbol
_atom_site_fract_x
_atom_site_fract_y
_atom_site_fract_z
N1 N 0.6082(2) 0.25000 0.8495(2)
N2 N 0.7488(3) 0.25000 0.9040(2)
N3 N 0.8260(2) 0.25000 0.8169(2)
N4 N 0.7330(2) 0.25000 0.6971(2)
C1 C 0.7655(3) 0.25000 0.5742(3)
N5 N 0.6689(2) 0.25000 0.4671(2)
C2 C 0.5329(2) 0.25000 0.4842(2)
C3 C 0.4029(2) 0.25000 0.3874(2)
C4 C 0.3587(2) 0.25000 0.2498(2)
C5 C 0.4411(3) 0.25000 0.1428(3)
C6 C 0.1840(3) 0.25000 0.0504(2)
C7 C 0.2148(3) 0.25000 0.1996(2)
C8 C 0.1186(3) 0.25000 0.2822(2)
N6 N 0.1611(2) 0.25000 0.41662(19)
C9 C 0.2979(3) 0.25000 0.4589(2)
O1 O 0.35404(17) 0.25000 0.59525(15)
C10 C 0.4956(3) 0.25000 0.6038(2)
C11 C 0.6011(3) 0.25000 0.7205(2)
C12 C -0.0379(3) 0.25000 0.2308(3)
C13 C -0.10395(19) 0.0663(4) 0.2736(2)
H1 H 0.86242 0.250 0.567684
H2 H 0.5006(17) 0.366(3) 0.1512(15)
H3 H 0.1248(17) 0.361(3) 0.0142(16)
H4 H -0.055967 0.250 0.135901
H5 H -0.203667 0.069423 0.23976
H6 H -0.06486 -0.046519 0.239586
H7 H -0.085027 0.06006 0.36838
H8 H 0.341105 0.194241 -0.051673
H9 H 0.333525 0.418462 -0.013118
C14 C 0.3281(3) 0.2856(14) 0.0151(3)
C13C C -0.10395(19) 0.4337(4) 0.2736(2)
H2C H 0.5006(17) 0.134(3) 0.1512(15)
H3C H 0.1248(17) 0.139(3) 0.0142(16)
H5C H -0.203667 0.430577 0.23976
H6C H -0.06486 0.546519 0.239586
H7C H -0.085027 0.43994 0.36838
H8C H 0.341105 0.305759 -0.051673
H9C H 0.333525 0.081538 -0.013118
C14C C 0.3281(3) 0.2144(14) 0.0151(3)
loop_
_geom_bond_atom_site_label_1
_geom_bond_atom_site_label_2
_geom_bond_site_symmetry_1
_geom_bond_site_symmetry_2
N1 N2 1_555 1_555
N2 N3 1_555 1_555
N3 N4 1_555 1_555
N4 C1 1_555 1_555
C1 N5 1_555 1_555
N5 C2 1_555 1_555
C2 C3 1_555 1_555
C3 C4 1_555 1_555
C4 C5 1_555 1_555
C5 H2 1_555 1_555
C6 C7 1_555 1_555
C7 C4 1_555 1_555
C8 C7 1_555 1_555
N6 C8 1_555 1_555
C9 C3 1_555 1_555
O1 C9 1_555 1_555
C10 C2 1_555 1_555
C11 N1 1_555 1_555
C12 C8 1_555 1_555
C13 C12 1_555 1_555
H1 C1 1_555 1_555
H3 C6 1_555 1_555
H4 C12 1_555 1_555
H5 C13 1_555 1_555
H6 C13 1_555 1_555
H7 C13 1_555 1_555
H8 C14 1_555 1_555
H9 C14 1_555 1_555
C14 C5 1_555 1_555
C13C C12 1_555 1_555
H2C C5 1_555 1_555
H3C C6 1_555 1_555
H5C C13C 1_555 1_555
H6C C13C 1_555 1_555
H7C C13C 1_555 1_555
H8C C14 1_555 1_555
H9C C14C 1_555 1_555
C14C C5 1_555 1_555
N4 C11 1_555 1_555
C6 C14 1_555 1_555
C6 C14C 1_555 1_555
N6 C9 1_555 1_555
O1 C10 1_555 1_555
C10 C11 1_555 1_555
H8 C14C 1_555 1_555
H8C C14C 1_555 1_555

#END
