
#######################################################################
#
#                 Cambridge Crystallographic Data Centre
#                                CCDC 
#
#######################################################################
#
# If this CIF has been generated from an entry in the Cambridge 
# Structural Database, then it will include bibliographic, chemical, 
# crystal, experimental, refinement or atomic coordinate data resulting 
# from the CCDC's data processing and validation procedures.
#
#######################################################################

data_KITDUP
_chemical_formula_moiety         'C29 H22 Br2 O2'
_chemical_name_systematic        
4,4'-dibromo-3,3'-diphenyl-2,2',3,3'-tetrahydro-1,1'-spirobi[indene]-7,7'-diol
_symmetry_cell_setting           monoclinic
_symmetry_space_group_name_H-M   'C 2'
_symmetry_Int_Tables_number      5
_space_group_name_Hall           'C 2y'
loop_
_symmetry_equiv_pos_site_id
_symmetry_equiv_pos_as_xyz
1 x,y,z
2 -x,y,-z
3 1/2+x,1/2+y,z
4 1/2-x,1/2+y,-z
_cell_length_a                   21.2252(16)
_cell_length_b                   11.2149(8)
_cell_length_c                   14.9561(9)
_cell_angle_alpha                90
_cell_angle_beta                 90.749(7)
_cell_angle_gamma                90
_cell_volume                     3559.82
_exptl_crystal_colour            colorless
_exptl_crystal_description       block
_cell_formula_units_Z            6
loop_
_atom_site_label
_atom_site_type_symbol
_atom_site_fract_x
_atom_site_fract_y
_atom_site_fract_z
Br1 Br 0.29530(4) 0.57857(9) 0.29723(5)
O1 O 0.5415(3) 0.8135(6) 0.4016(4)
H1 H 0.570031 0.771710 0.382431
C1 C 0.2957(4) 0.3865(8) 0.4961(5)
H2 H 0.309354 0.326444 0.458048
C2 C 0.4858(4) 0.7642(7) 0.3800(5)
C3 C 0.2504(4) 0.5668(8) 0.6003(4)
H3 H 0.232967 0.630246 0.631460
C4 C 0.3303(4) 0.4909(6) 0.5059(4)
C5 C 0.4074(3) 0.6093(7) 0.4067(4)
C6 C 0.2187(4) 0.4630(7) 0.5965(5)
H4 H 0.182348 0.452626 0.629517
C7 C 0.2404(4) 0.3729(7) 0.5437(6)
H5 H 0.217936 0.301902 0.539648
C8 C 0.4649(3) 0.6641(7) 0.4284(5)
C9 C 0.3069(4) 0.5820(8) 0.5603(5)
H6 H 0.329691 0.652026 0.568775
C10 C 0.3710(4) 0.6567(7) 0.3360(5)
C11 C 0.3901(4) 0.7546(7) 0.2881(5)
H7 H 0.365892 0.783054 0.240424
C12 C 0.4468(3) 0.5191(8) 0.5396(4)
H8 H 0.463428 0.441892 0.557266
H9 H 0.429375 0.557308 0.591966
C13 C 0.4477(4) 0.8114(7) 0.3132(4)
H10 H 0.459732 0.881092 0.284389
C14 C 0.500000 0.5974(11) 0.500000
C15 C 0.3948(4) 0.5034(6) 0.4664(4)
H11 H 0.403969 0.430684 0.432733
Br1A Br 0.70470(4) 0.57857(9) 0.70277(5)
O1A O 0.4585(3) 0.8135(6) 0.5984(4)
H1A H 0.429969 0.771710 0.617569
C1A C 0.7043(4) 0.3865(8) 0.5039(5)
H2A H 0.690646 0.326444 0.541952
C2A C 0.5142(4) 0.7642(7) 0.6200(5)
C3A C 0.7496(4) 0.5668(8) 0.3997(4)
H3A H 0.767033 0.630246 0.368540
C4A C 0.6697(4) 0.4909(6) 0.4941(4)
C5A C 0.5926(3) 0.6093(7) 0.5933(4)
C6A C 0.7813(4) 0.4630(7) 0.4035(5)
H4A H 0.817652 0.452626 0.370483
C7A C 0.7596(4) 0.3729(7) 0.4563(6)
H5A H 0.782064 0.301902 0.460352
C8A C 0.5351(3) 0.6641(7) 0.5716(5)
C9A C 0.6931(4) 0.5820(8) 0.4397(5)
H6A H 0.670309 0.652026 0.431225
C10A C 0.6290(4) 0.6567(7) 0.6640(5)
C11A C 0.6099(4) 0.7546(7) 0.7119(5)
H7A H 0.634108 0.783054 0.759576
C12A C 0.5532(3) 0.5191(8) 0.4604(4)
H8A H 0.536572 0.441892 0.442734
H9A H 0.570625 0.557308 0.408034
C13A C 0.5523(4) 0.8114(7) 0.6868(4)
H10A H 0.540268 0.881092 0.715611
C15A C 0.6052(4) 0.5034(6) 0.5336(4)
H11A H 0.596031 0.430684 0.567267
Br2 Br 0.41653(4) 0.12880(8) 0.37658(5)
Br3 Br 0.65713(5) 0.74148(8) -0.02704(5)
O2 O 0.6553(2) 0.3837(5) 0.2739(4)
H12 H 0.682013 0.378400 0.313775
O3 O 0.6080(3) 0.2336(5) 0.0862(3)
H13 H 0.613460 0.222187 0.139907
C16 C 0.3348(4) 0.2174(8) 0.1831(5)
H14 H 0.315808 0.279284 0.214124
C17 C 0.5879(3) 0.4428(7) 0.1038(4)
C18 C 0.6228(4) 0.3488(7) 0.0662(4)
C19 C 0.4924(3) 0.2042(6) 0.3390(4)
C20 C 0.4921(3) 0.2823(6) 0.2663(4)
C21 C 0.5362(4) 0.4288(7) 0.1721(4)
C22 C 0.5879(3) 0.7544(8) 0.1691(4)
C23 C 0.6043(3) 0.3165(7) 0.2954(4)
C24 C 0.6793(4) 0.4933(8) -0.0189(5)
H15 H 0.711265 0.513130 -0.058153
C25 C 0.4389(4) 0.3183(7) 0.2041(4)
H16 H 0.412203 0.375241 0.235714
C26 C 0.3243(5) 0.0328(8) 0.1028(6)
H17 H 0.299841 -0.029548 0.080478
C27 C 0.4747(3) 0.3877(7) 0.1298(4)
H18 H 0.482614 0.336083 0.079155
H19 H 0.450055 0.455498 0.109420
C28 C 0.3993(4) 0.2217(7) 0.1721(4)
C29 C 0.6400(4) 0.7472(7) 0.2269(4)
H20 H 0.657057 0.672528 0.239352
C30 C 0.5997(3) 0.5611(7) 0.0782(4)
C31 C 0.6692(4) 0.3765(8) 0.0028(5)
H21 H 0.692580 0.316314 -0.023843
C32 C 0.5325(4) 0.5595(7) 0.2086(4)
H22 H 0.489363 0.579583 0.223305
H23 H 0.558493 0.568072 0.262024
C33 C 0.5469(3) 0.3412(6) 0.2477(4)
C34 C 0.6040(4) 0.2302(7) 0.3615(5)
H24 H 0.641371 0.209299 0.390686
C35 C 0.5895(4) 0.9679(7) 0.1933(6)
H25 H 0.571433 1.042143 0.182859
C36 C 0.5567(4) 0.6419(7) 0.1332(5)
H26 H 0.520676 0.665223 0.095450
C37 C 0.2958(4) 0.1242(7) 0.1498(5)
H27 H 0.252583 0.124448 0.159167
C38 C 0.6433(4) 0.5799(7) 0.0163(4)
C39 C 0.5480(4) 0.1747(7) 0.3842(4)
H28 H 0.547564 0.117879 0.429504
C40 C 0.4255(4) 0.1247(8) 0.1210(5)
H29 H 0.468499 0.123572 0.109560
C41 C 0.5632(4) 0.8648(7) 0.1540(5)
H30 H 0.527987 0.872295 0.116703
C42 C 0.3876(5) 0.0331(8) 0.0889(7)
H31 H 0.405714 -0.029180 0.057272
C43 C 0.6677(4) 0.8476(8) 0.2668(5)
H32 H 0.702256 0.839085 0.305169
C44 C 0.6439(4) 0.9575(8) 0.2490(6)
H33 H 0.662910 1.025185 0.273090
loop_
_geom_bond_atom_site_label_1
_geom_bond_atom_site_label_2
_geom_bond_site_symmetry_1
_geom_bond_site_symmetry_2
Br1 C10 1_555 1_555
O1 H1 1_555 1_555
C1 H2 1_555 1_555
C2 O1 1_555 1_555
C3 H3 1_555 1_555
C4 C1 1_555 1_555
C5 C8 1_555 1_555
C6 C3 1_555 1_555
H4 C6 1_555 1_555
C7 C1 1_555 1_555
H5 C7 1_555 1_555
C8 C2 1_555 1_555
C9 C3 1_555 1_555
H6 C9 1_555 1_555
C10 C5 1_555 1_555
C11 C10 1_555 1_555
H7 C11 1_555 1_555
C12 H8 1_555 1_555
H9 C12 1_555 1_555
C13 C2 1_555 1_555
H10 C13 1_555 1_555
C14 C8 1_555 1_555
C15 C4 1_555 1_555
H11 C15 1_555 1_555
Br2 C19 1_555 1_555
Br3 C38 1_555 1_555
O2 H12 1_555 1_555
O3 H13 1_555 1_555
C16 H14 1_555 1_555
C17 C18 1_555 1_555
C18 O3 1_555 1_555
C19 C20 1_555 1_555
C20 C25 1_555 1_555
C21 C17 1_555 1_555
C22 C29 1_555 1_555
C23 O2 1_555 1_555
C24 H15 1_555 1_555
C25 H16 1_555 1_555
C26 H17 1_555 1_555
C27 C21 1_555 1_555
H18 C27 1_555 1_555
H19 C27 1_555 1_555
C28 C16 1_555 1_555
C29 H20 1_555 1_555
C30 C17 1_555 1_555
C31 C18 1_555 1_555
H21 C31 1_555 1_555
C32 C21 1_555 1_555
H22 C32 1_555 1_555
H23 C32 1_555 1_555
C33 C20 1_555 1_555
C34 C23 1_555 1_555
H24 C34 1_555 1_555
C35 H25 1_555 1_555
C36 C22 1_555 1_555
H26 C36 1_555 1_555
C37 C16 1_555 1_555
H27 C37 1_555 1_555
C38 C24 1_555 1_555
C39 C19 1_555 1_555
H28 C39 1_555 1_555
C40 C28 1_555 1_555
H29 C40 1_555 1_555
C41 C22 1_555 1_555
H30 C41 1_555 1_555
C42 C26 1_555 1_555
H31 C42 1_555 1_555
C43 C29 1_555 1_555
H32 C43 1_555 1_555
C44 C35 1_555 1_555
H33 C44 1_555 1_555
Br1A C10A 1_555 1_555
O1A H1A 1_555 1_555
C1A H2A 1_555 1_555
C2A O1A 1_555 1_555
C3A H3A 1_555 1_555
C4A C1A 1_555 1_555
C5A C8A 1_555 1_555
C6A C3A 1_555 1_555
H4A C6A 1_555 1_555
C7A C1A 1_555 1_555
H5A C7A 1_555 1_555
C8A C14 1_555 1_555
C9A C3A 1_555 1_555
H6A C9A 1_555 1_555
C10A C5A 1_555 1_555
C11A C10A 1_555 1_555
H7A C11A 1_555 1_555
C12A C14 1_555 1_555
H8A C12A 1_555 1_555
H9A C12A 1_555 1_555
C13A C2A 1_555 1_555
H10A C13A 1_555 1_555
C15A C4A 1_555 1_555
H11A C15A 1_555 1_555
C4 C9 1_555 1_555
C5 C15 1_555 1_555
C6 C7 1_555 1_555
C11 C13 1_555 1_555
C12 C14 1_555 1_555
C12 C15 1_555 1_555
C21 C33 1_555 1_555
C23 C33 1_555 1_555
C24 C31 1_555 1_555
C25 C27 1_555 1_555
C25 C28 1_555 1_555
C26 C37 1_555 1_555
C30 C36 1_555 1_555
C30 C38 1_555 1_555
C32 C36 1_555 1_555
C34 C39 1_555 1_555
C35 C41 1_555 1_555
C40 C42 1_555 1_555
C43 C44 1_555 1_555
C2A C8A 1_555 1_555
C4A C9A 1_555 1_555
C5A C15A 1_555 1_555
C6A C7A 1_555 1_555
C11A C13A 1_555 1_555
C12A C15A 1_555 1_555

#END
