
#######################################################################
#
#                 Cambridge Crystallographic Data Centre
#                                CCDC 
#
#######################################################################
#
# If this CIF has been generated from an entry in the Cambridge 
# Structural Database, then it will include bibliographic, chemical, 
# crystal, experimental, refinement or atomic coordinate data resulting 
# from the CCDC's data processing and validation procedures.
#
#######################################################################

data_KITFUR
_chemical_formula_moiety         'C50 H52 N4'
_chemical_name_systematic        
5,6,15,16-tetrabutyl-5,6,15,16-tetrahydroindolo[2,3-a]indolo[2',3':1,2]carbazolo[3,4-c]carbazole
_symmetry_cell_setting           monoclinic
_symmetry_space_group_name_H-M   'P 21/c'
_symmetry_Int_Tables_number      14
_space_group_name_Hall           '-P 2ybc'
loop_
_symmetry_equiv_pos_site_id
_symmetry_equiv_pos_as_xyz
1 x,y,z
2 -x,1/2+y,1/2-z
3 -x,-y,-z
4 x,1/2-y,1/2+z
_cell_length_a                   19.4102(3)
_cell_length_b                   15.5181(2)
_cell_length_c                   14.8473(2)
_cell_angle_alpha                90
_cell_angle_beta                 107.4142(18)
_cell_angle_gamma                90
_cell_volume                     4267.17
_exptl_crystal_colour            'light yellow'
_exptl_crystal_description       block
_cell_formula_units_Z            4
loop_
_atom_site_label
_atom_site_type_symbol
_atom_site_fract_x
_atom_site_fract_y
_atom_site_fract_z
N1 N 0.1549(3) 0.3364(4) 0.4702(4)
N2 N 0.1218(3) 0.4025(4) 0.2494(4)
N3 N 0.4665(3) 0.6023(4) 0.4213(4)
N4 N 0.4031(3) 0.6868(4) 0.5848(4)
C1 C 0.1842(3) 0.4015(4) 0.4289(5)
C2 C 0.3224(3) 0.5761(4) 0.5388(4)
C3 C 0.2345(3) 0.4493(4) 0.4995(5)
C4 C 0.3786(4) 0.6204(4) 0.5192(5)
C5 C 0.3552(3) 0.5394(4) 0.3731(4)
C6 C 0.2814(3) 0.5109(4) 0.4765(4)
C7 C 0.2074(4) 0.4824(4) 0.2111(5)
C8 C 0.2302(3) 0.4695(4) 0.3116(5)
C9 C 0.1402(4) 0.4411(4) 0.1758(5)
C10 C 0.3955(3) 0.5103(4) 0.3113(5)
C11 C 0.1758(3) 0.4219(4) 0.3327(4)
C12 C 0.2891(3) 0.5075(4) 0.3847(5)
C13 C 0.4016(3) 0.5932(4) 0.4410(5)
C14 C 0.2386(3) 0.4081(4) 0.5881(5)
C15 C 0.2849(4) 0.4151(4) 0.6805(5)
H1 H 0.3187 0.4594 0.6966
C16 C 0.3094(4) 0.6200(4) 0.6188(5)
C17 C 0.3604(4) 0.6875(4) 0.6434(5)
C18 C 0.1894(4) 0.3384(4) 0.5662(5)
C19 C 0.3855(4) 0.4462(5) 0.2430(5)
H2 H 0.3411 0.4185 0.2209
C20 C 0.4646(4) 0.5507(5) 0.3441(5)
C21 C 0.2344(4) 0.5303(5) 0.1476(5)
H3 H 0.2778 0.5602 0.1695
C22 C 0.1159(4) 0.2599(4) 0.4246(5)
H4 H 0.1412 0.2089 0.4553
H5 H 0.1156 0.2587 0.3592
C23 C 0.2565(4) 0.6145(5) 0.6654(5)
H6 H 0.2213 0.5717 0.6492
C24 C 0.5365(4) 0.6252(4) 0.4883(5)
H7 H 0.5683 0.5757 0.4969
H8 H 0.5296 0.6382 0.5489
C25 C 0.5732(4) 0.7021(5) 0.4575(5)
H9 H 0.5826 0.6887 0.3985
H10 H 0.5412 0.7516 0.4471
C26 C 0.2799(4) 0.3550(5) 0.7479(5)
H11 H 0.3103 0.3599 0.8093
C27 C 0.1835(4) 0.2792(5) 0.6346(5)
H12 H 0.1493 0.2354 0.6199
C28 C 0.1001(4) 0.4447(5) 0.0805(5)
H13 H 0.0553 0.4179 0.0583
C29 C 0.0456(4) 0.3858(5) 0.2403(5)
H14 H 0.0426 0.3394 0.2828
H15 H 0.0212 0.3670 0.1764
C30 C 0.6441(4) 0.7243(5) 0.5323(5)
H16 H 0.6338 0.7428 0.5893
H17 H 0.6737 0.6728 0.5474
C31 C 0.0386(4) 0.2569(5) 0.4283(6)
H18 H 0.0388 0.2477 0.4930
H19 H 0.0156 0.3119 0.4076
C32 C 0.2305(4) 0.2882(5) 0.7253(5)
H20 H 0.2287 0.2487 0.7716
C33 C 0.1962(4) 0.5322(5) 0.0535(5)
H21 H 0.2145 0.5619 0.0114
C34 C 0.4417(4) 0.4237(6) 0.2080(6)
H22 H 0.4353 0.3798 0.1636
C35 C 0.4388(4) 0.7658(5) 0.5664(6)
H23 H 0.4696 0.7515 0.5278
H24 H 0.4692 0.7886 0.6259
C36 C 0.5205(4) 0.5290(5) 0.3078(5)
H25 H 0.5652 0.5561 0.3296
C37 C 0.3613(5) 0.7466(5) 0.7151(5)
H26 H 0.3959 0.7899 0.7318
C38 C 0.5087(4) 0.4669(6) 0.2394(6)
H27 H 0.5452 0.4530 0.2132
C39 C 0.1294(4) 0.4895(6) 0.0203(5)
H28 H 0.1043 0.4915 -0.0437
C40 C 0.2571(5) 0.6736(5) 0.7359(5)
H29 H 0.2223 0.6697 0.7671
C41 C 0.6864(4) 0.7944(5) 0.5011(6)
H30 H 0.7002 0.7746 0.4477
H31 H 0.7288 0.8080 0.5519
H32 H 0.6568 0.8450 0.4839
C42 C 0.3855(4) 0.8348(5) 0.5168(6)
H33 H 0.3524 0.8107 0.4600
H34 H 0.3576 0.8530 0.5577
C43 C 0.3082(5) 0.7379(5) 0.7606(6)
H35 H 0.3074 0.7762 0.8085
C44 C -0.0050(4) 0.1851(5) 0.3659(5)
H36 H 0.0171 0.1299 0.3878
H37 H -0.0040 0.1932 0.3015
C45 C -0.0831(5) 0.1840(7) 0.3672(8)
H38 H -0.1109 0.1463 0.3186
H39 H -0.1027 0.2412 0.3564
H40 H -0.0851 0.1638 0.4275
C46 C 0.4236(5) 0.9131(5) 0.4907(7)
H41 H 0.4558 0.9377 0.5479
H42 H 0.4528 0.8942 0.4516
C47 C 0.0075(5) 0.4637(6) 0.2623(9)
H43 H 0.0127 0.5108 0.2218
H44 H 0.0307 0.4809 0.3271
C48 C -0.0722(5) 0.4493(7) 0.2491(9)
H45 H -0.0943 0.4258 0.1865
H46 H -0.0772 0.4067 0.2946
C49 C -0.1125(9) 0.5293(11) 0.2603(17)
H47 H -0.0965 0.5769 0.2304
H48 H -0.1034 0.5416 0.3262
H49 H -0.1633 0.5206 0.2315
C50 C 0.3725(6) 0.9816(6) 0.4389(8)
H50 H 0.3447 0.9601 0.3783
H51 H 0.3994 1.0313 0.4306
H52 H 0.3406 0.9973 0.4747
loop_
_geom_bond_atom_site_label_1
_geom_bond_atom_site_label_2
_geom_bond_site_symmetry_1
_geom_bond_site_symmetry_2
N1 C1 1_555 1_555
N2 C9 1_555 1_555
N3 C13 1_555 1_555
N4 C4 1_555 1_555
C1 C3 1_555 1_555
C2 C4 1_555 1_555
C3 C6 1_555 1_555
C4 C13 1_555 1_555
C5 C10 1_555 1_555
C6 C2 1_555 1_555
C7 C8 1_555 1_555
C8 C11 1_555 1_555
C9 C7 1_555 1_555
C10 C19 1_555 1_555
C11 N2 1_555 1_555
C12 C5 1_555 1_555
C13 C5 1_555 1_555
C14 C3 1_555 1_555
C15 C14 1_555 1_555
H1 C15 1_555 1_555
C16 C2 1_555 1_555
C17 N4 1_555 1_555
C18 N1 1_555 1_555
C19 H2 1_555 1_555
C20 N3 1_555 1_555
C21 C7 1_555 1_555
H3 C21 1_555 1_555
C22 N1 1_555 1_555
H4 C22 1_555 1_555
H5 C22 1_555 1_555
C23 C16 1_555 1_555
H6 C23 1_555 1_555
C24 N3 1_555 1_555
H7 C24 1_555 1_555
H8 C24 1_555 1_555
C25 C24 1_555 1_555
H9 C25 1_555 1_555
H10 C25 1_555 1_555
C26 C15 1_555 1_555
H11 C26 1_555 1_555
C27 C18 1_555 1_555
H12 C27 1_555 1_555
C28 C9 1_555 1_555
H13 C28 1_555 1_555
C29 N2 1_555 1_555
H14 C29 1_555 1_555
H15 C29 1_555 1_555
C30 C25 1_555 1_555
H16 C30 1_555 1_555
H17 C30 1_555 1_555
C31 C22 1_555 1_555
H18 C31 1_555 1_555
H19 C31 1_555 1_555
C32 C26 1_555 1_555
H20 C32 1_555 1_555
C33 C21 1_555 1_555
H21 C33 1_555 1_555
C34 C19 1_555 1_555
H22 C34 1_555 1_555
C35 N4 1_555 1_555
H23 C35 1_555 1_555
H24 C35 1_555 1_555
C36 C20 1_555 1_555
H25 C36 1_555 1_555
C37 C17 1_555 1_555
H26 C37 1_555 1_555
C38 C34 1_555 1_555
H27 C38 1_555 1_555
C39 C28 1_555 1_555
H28 C39 1_555 1_555
C40 C23 1_555 1_555
H29 C40 1_555 1_555
C41 C30 1_555 1_555
H30 C41 1_555 1_555
H31 C41 1_555 1_555
H32 C41 1_555 1_555
C42 C35 1_555 1_555
H33 C42 1_555 1_555
H34 C42 1_555 1_555
C43 C37 1_555 1_555
H35 C43 1_555 1_555
C44 C31 1_555 1_555
H36 C44 1_555 1_555
H37 C44 1_555 1_555
C45 C44 1_555 1_555
H38 C45 1_555 1_555
H39 C45 1_555 1_555
H40 C45 1_555 1_555
C46 C42 1_555 1_555
H41 C46 1_555 1_555
H42 C46 1_555 1_555
C47 C29 1_555 1_555
H43 C47 1_555 1_555
H44 C47 1_555 1_555
C48 C47 1_555 1_555
H45 C48 1_555 1_555
H46 C48 1_555 1_555
C49 C48 1_555 1_555
H47 C49 1_555 1_555
H48 C49 1_555 1_555
H49 C49 1_555 1_555
C50 C46 1_555 1_555
H50 C50 1_555 1_555
H51 C50 1_555 1_555
H52 C50 1_555 1_555
C1 C11 1_555 1_555
C6 C12 1_555 1_555
C8 C12 1_555 1_555
C10 C20 1_555 1_555
C14 C18 1_555 1_555
C16 C17 1_555 1_555
C27 C32 1_555 1_555
C33 C39 1_555 1_555
C36 C38 1_555 1_555
C40 C43 1_555 1_555

#END
