
#######################################################################
#
#                 Cambridge Crystallographic Data Centre
#                                CCDC 
#
#######################################################################
#
# If this CIF has been generated from an entry in the Cambridge 
# Structural Database, then it will include bibliographic, chemical, 
# crystal, experimental, refinement or atomic coordinate data resulting 
# from the CCDC's data processing and validation procedures.
#
#######################################################################

data_KITFEA
_chemical_formula_moiety         'C44 H48 N4 O2'
_chemical_name_systematic        
"4,4'-(12',17'-Dimethyl-21',22',23',24'-tetraazadispiro[cyclohexane-1,2'-pentacyclo[16.2.1.1^3,6^.1^8,11^.1^13,16^]tetracosane-7',1''-cyclohexane]-1'(20'),3',5',8',10',13',15',18'-octaene-12',17'-diyl)diphenol unknown solvate"
_symmetry_cell_setting           monoclinic
_symmetry_space_group_name_H-M   'P 21/c'
_symmetry_Int_Tables_number      14
_space_group_name_Hall           '-P 2ybc'
loop_
_symmetry_equiv_pos_site_id
_symmetry_equiv_pos_as_xyz
1 x,y,z
2 -x,1/2+y,1/2-z
3 -x,-y,-z
4 x,1/2-y,1/2+z
_cell_length_a                   11.1573(18)
_cell_length_b                   21.477(4)
_cell_length_c                   18.210(3)
_cell_angle_alpha                90
_cell_angle_beta                 102.310(2)
_cell_angle_gamma                90
_cell_volume                     4263.25
_cell_formula_units_Z            4
loop_
_atom_site_label
_atom_site_type_symbol
_atom_site_fract_x
_atom_site_fract_y
_atom_site_fract_z
C1 C -0.1441(3) 0.37820(14) 0.7771(2)
C2 C -0.2166(4) 0.33361(16) 0.7998(2)
H1 H -0.2590 0.3380 0.8383
C3 C -0.2160(3) 0.27998(16) 0.7549(2)
H2 H -0.2575 0.2430 0.7591
C4 C -0.1443(3) 0.29155(13) 0.70428(19)
C5 C -0.1240(3) 0.25500(13) 0.63613(18)
C6 C -0.2266(3) 0.27406(16) 0.5679(2)
H3 H -0.3045 0.2740 0.5834
H4 H -0.2111 0.3163 0.5534
C7 C -0.2373(4) 0.23155(18) 0.4988(2)
H5 H -0.3093 0.2433 0.4613
H6 H -0.1660 0.2374 0.4770
C8 C -0.2470(4) 0.16363(18) 0.5189(2)
H7 H -0.2488 0.1380 0.4749
H8 H -0.3225 0.1567 0.5360
C9 C -0.1370(4) 0.14528(16) 0.5811(2)
H9 H -0.1423 0.1015 0.5931
H10 H -0.0615 0.1519 0.5640
C10 C -0.1368(3) 0.18470(13) 0.6509(2)
H11 H -0.0695 0.1716 0.6909
H12 H -0.2126 0.1776 0.6676
C11 C 0.0023(3) 0.26829(13) 0.62203(19)
C12 C 0.0399(3) 0.29488(15) 0.5612(2)
H13 H -0.0103 0.3104 0.5176
C13 C 0.1716(3) 0.29374(16) 0.5788(2)
H14 H 0.2216 0.3096 0.5484
C14 C 0.2114(3) 0.26623(13) 0.64571(19)
C15 C 0.3389(3) 0.25187(13) 0.6901(2)
C16 C 0.3474(4) 0.18375(14) 0.7164(2)
H15 H 0.4259 0.1771 0.7505
H16 H 0.2836 0.1758 0.7440
C17 C 0.3341(5) 0.13764(18) 0.6512(3)
H17 H 0.2527 0.1415 0.6195
H18 H 0.3429 0.0955 0.6709
C18 C 0.4308(5) 0.1492(2) 0.6037(3)
H19 H 0.5121 0.1415 0.6340
H20 H 0.4173 0.1207 0.5614
C19 C 0.4234(4) 0.2141(2) 0.5758(3)
H21 H 0.3462 0.2197 0.5401
H22 H 0.4891 0.2212 0.5495
C20 C 0.4325(4) 0.26219(19) 0.6382(2)
H23 H 0.4191 0.3032 0.6156
H24 H 0.5150 0.2613 0.6689
C21 C 0.3731(3) 0.29463(14) 0.7584(2)
C22 C 0.4492(4) 0.28665(16) 0.8250(2)
H25 H 0.4899 0.2499 0.8422
C23 C 0.4575(4) 0.34385(17) 0.8654(2)
H26 H 0.5047 0.3509 0.9133
C24 C 0.3849(3) 0.38592(15) 0.82219(19)
C25 C 0.3510(3) 0.45195(15) 0.83885(19)
C26 C 0.4503(4) 0.47615(18) 0.9071(2)
H27 H 0.4574 0.4475 0.9482
H28 H 0.4264 0.5163 0.9222
H29 H 0.5279 0.4795 0.8926
C27 C 0.3500(3) 0.49736(14) 0.7731(2)
C28 C 0.4349(4) 0.49195(17) 0.7273(2)
H30 H 0.4887 0.4583 0.7338
C29 C 0.4405(4) 0.5359(2) 0.6722(3)
H31 H 0.4955 0.5306 0.6408
C30 C 0.3652(4) 0.58709(18) 0.6639(3)
C31 C 0.2813(4) 0.59312(17) 0.7080(3)
H32 H 0.2280 0.6269 0.7014
C32 C 0.2750(4) 0.54926(15) 0.7625(2)
H33 H 0.2187 0.5548 0.7930
C33 C 0.2273(3) 0.45165(14) 0.8630(2)
C34 C 0.1990(4) 0.45842(16) 0.9325(2)
H34 H 0.2547 0.4643 0.9778
C35 C 0.0696(4) 0.45486(16) 0.9226(2)
H35 H 0.0256 0.4576 0.9605
C36 C 0.0200(3) 0.44648(13) 0.84647(19)
C37 C -0.1110(3) 0.44338(13) 0.80456(19)
C38 C -0.1954(4) 0.46230(16) 0.8580(2)
H36 H -0.1829 0.4343 0.9000
H37 H -0.2795 0.4603 0.8315
H38 H -0.1762 0.5040 0.8756
C39 C -0.1341(3) 0.49095(14) 0.7384(2)
C40 C -0.0801(3) 0.54955(14) 0.7481(2)
H39 H -0.0233 0.5580 0.7923
C41 C -0.1074(4) 0.59518(15) 0.6949(2)
H40 H -0.0691 0.6338 0.7030
C42 C -0.1924(4) 0.58377(15) 0.6289(2)
C43 C -0.2458(4) 0.52611(17) 0.6167(2)
H41 H -0.3017 0.5176 0.5721
C44 C -0.2157(4) 0.48054(15) 0.6718(2)
H42 H -0.2522 0.4415 0.6630
N1 N -0.1003(2) 0.35165(10) 0.71835(14)
H43 H -0.0523 0.3700 0.6940
N2 N 0.1075(2) 0.25165(11) 0.67223(15)
H44 H 0.1087 0.2343 0.7149
N3 N 0.3318(2) 0.35598(11) 0.75654(15)
H45 H 0.2807 0.3727 0.7198
N4 N 0.1185(3) 0.44412(11) 0.81181(15)
H46 H 0.1126 0.4387 0.7644
O1 O -0.2227(3) 0.62952(13) 0.57462(16)
H47 H -0.2879 0.6206 0.5462
O2 O 0.3647(4) 0.63234(16) 0.6098(2)
H48 H 0.4219 0.6263 0.5889
loop_
_geom_bond_atom_site_label_1
_geom_bond_atom_site_label_2
_geom_bond_site_symmetry_1
_geom_bond_site_symmetry_2
C1 C2 1_555 1_555
C2 H1 1_555 1_555
C3 C2 1_555 1_555
H2 C3 1_555 1_555
C4 C3 1_555 1_555
C5 C4 1_555 1_555
C6 C5 1_555 1_555
H3 C6 1_555 1_555
H4 C6 1_555 1_555
C7 C6 1_555 1_555
H5 C7 1_555 1_555
H6 C7 1_555 1_555
C8 C7 1_555 1_555
H7 C8 1_555 1_555
H8 C8 1_555 1_555
C9 C8 1_555 1_555
H9 C9 1_555 1_555
H10 C9 1_555 1_555
C10 C5 1_555 1_555
H11 C10 1_555 1_555
H12 C10 1_555 1_555
C11 C5 1_555 1_555
C12 C11 1_555 1_555
H13 C12 1_555 1_555
C13 C12 1_555 1_555
H14 C13 1_555 1_555
C14 C13 1_555 1_555
C15 C14 1_555 1_555
C16 C15 1_555 1_555
H15 C16 1_555 1_555
H16 C16 1_555 1_555
C17 C16 1_555 1_555
H17 C17 1_555 1_555
H18 C17 1_555 1_555
C18 C17 1_555 1_555
H19 C18 1_555 1_555
H20 C18 1_555 1_555
C19 C18 1_555 1_555
H21 C19 1_555 1_555
H22 C19 1_555 1_555
C20 C15 1_555 1_555
H23 C20 1_555 1_555
H24 C20 1_555 1_555
C21 C15 1_555 1_555
C22 C21 1_555 1_555
H25 C22 1_555 1_555
C23 C22 1_555 1_555
H26 C23 1_555 1_555
C24 C23 1_555 1_555
C25 C24 1_555 1_555
C26 C25 1_555 1_555
H27 C26 1_555 1_555
H28 C26 1_555 1_555
H29 C26 1_555 1_555
C27 C25 1_555 1_555
C28 C27 1_555 1_555
H30 C28 1_555 1_555
C29 C28 1_555 1_555
H31 C29 1_555 1_555
C30 C29 1_555 1_555
C31 C30 1_555 1_555
H32 C31 1_555 1_555
C32 C27 1_555 1_555
H33 C32 1_555 1_555
C33 C25 1_555 1_555
C34 C33 1_555 1_555
H34 C34 1_555 1_555
C35 C34 1_555 1_555
H35 C35 1_555 1_555
C36 C35 1_555 1_555
C37 C1 1_555 1_555
C38 C37 1_555 1_555
H36 C38 1_555 1_555
H37 C38 1_555 1_555
H38 C38 1_555 1_555
C39 C37 1_555 1_555
C40 C39 1_555 1_555
H39 C40 1_555 1_555
C41 C40 1_555 1_555
H40 C41 1_555 1_555
C42 C41 1_555 1_555
C43 C42 1_555 1_555
H41 C43 1_555 1_555
C44 C39 1_555 1_555
H42 C44 1_555 1_555
N1 C1 1_555 1_555
H43 N1 1_555 1_555
N2 C11 1_555 1_555
H44 N2 1_555 1_555
N3 C21 1_555 1_555
H45 N3 1_555 1_555
N4 C33 1_555 1_555
H46 N4 1_555 1_555
O1 C42 1_555 1_555
H47 O1 1_555 1_555
O2 C30 1_555 1_555
H48 O2 1_555 1_555
C4 N1 1_555 1_555
C9 C10 1_555 1_555
C14 N2 1_555 1_555
C19 C20 1_555 1_555
C24 N3 1_555 1_555
C31 C32 1_555 1_555
C36 C37 1_555 1_555
C36 N4 1_555 1_555
C43 C44 1_555 1_555

#END
