
#######################################################################
#
#                 Cambridge Crystallographic Data Centre
#                                CCDC 
#
#######################################################################
#
# If this CIF has been generated from an entry in the Cambridge 
# Structural Database, then it will include bibliographic, chemical, 
# crystal, experimental, refinement or atomic coordinate data resulting 
# from the CCDC's data processing and validation procedures.
#
#######################################################################

data_KITFIE
_chemical_formula_moiety         'C44 H48 N4 O6'
_chemical_name_systematic        
"Dimethyl 2,2'-((5,10,10,15,20,20-hexamethyl-5,10,15,20,22,24-hexahydroporphyrin-5,15-diyl)bis(4,1-phenyleneoxy))diacetate unknown solvate"
_symmetry_cell_setting           triclinic
_symmetry_space_group_name_H-M   'P -1'
_symmetry_Int_Tables_number      2
_space_group_name_Hall           '-P 1'
loop_
_symmetry_equiv_pos_site_id
_symmetry_equiv_pos_as_xyz
1 x,y,z
2 -x,-y,-z
_cell_length_a                   10.5751(16)
_cell_length_b                   12.2118(18)
_cell_length_c                   12.4378(19)
_cell_angle_alpha                80.421(2)
_cell_angle_beta                 67.419(2)
_cell_angle_gamma                64.854(2)
_cell_volume                     1342.53
_cell_formula_units_Z            1
loop_
_atom_site_label
_atom_site_type_symbol
_atom_site_fract_x
_atom_site_fract_y
_atom_site_fract_z
C1 C 0.3086(5) 1.1748(5) 0.5161(3)
H1 H 0.3397 1.2317 0.4611
H2 H 0.3647 1.0951 0.4833
H3 H 0.3258 1.1762 0.5862
C2 C 0.1454(3) 1.2084(3) 0.5437(2)
C3 C 0.0567(6) 1.3359(3) 0.5898(3)
H4 H 0.0743 1.3419 0.6583
H5 H -0.0476 1.3561 0.6088
H6 H 0.0869 1.3910 0.5315
C4 C 0.1226(3) 1.2012(2) 0.4320(2)
C5 C 0.0844(3) 1.2885(2) 0.3515(3)
H7 H 0.0527 1.3713 0.3596
C6 C 0.1017(3) 1.2304(2) 0.2542(3)
H8 H 0.0819 1.2686 0.1878
C7 C 0.1530(3) 1.1079(2) 0.27494(19)
C8 C 0.1899(2) 1.0041(2) 0.20191(18)
C9 C 0.2121(4) 1.0496(3) 0.0739(2)
H9 H 0.2289 0.9865 0.0269
H10 H 0.2967 1.0713 0.0442
H11 H 0.1245 1.1190 0.0717
C10 C 0.0603(3) 0.9657(2) 0.24526(19)
C11 C -0.0580(3) 1.0015(3) 0.2108(3)
H12 H -0.0730 1.0532 0.1487
C12 C -0.1575(3) 0.9458(3) 0.2867(3)
H13 H -0.2474 0.9547 0.2827
C13 C -0.0950(3) 0.8789(2) 0.3640(2)
C14 C 0.3386(3) 0.9009(2) 0.19927(18)
C15 C 0.4539(3) 0.9272(2) 0.2010(2)
H14 H 0.4373 1.0072 0.2081
C16 C 0.5929(3) 0.8368(2) 0.1922(2)
H15 H 0.6678 0.8568 0.1939
C17 C 0.6205(3) 0.7172(2) 0.1810(2)
C18 C 0.5100(3) 0.6890(2) 0.1756(2)
H16 H 0.5276 0.6092 0.1662
C19 C 0.3710(3) 0.7816(2) 0.1845(2)
H17 H 0.2974 0.7617 0.1803
C20 C 0.7941(3) 0.5101(3) 0.1699(3)
H18 H 0.7085 0.4925 0.2200
H19 H 0.8762 0.4629 0.1975
C21 C 0.8364(3) 0.4733(2) 0.0470(2)
C22 C 0.9159(5) 0.3004(4) -0.0648(4)
H20 H 0.8431 0.3428 -0.1016
H21 H 0.9282 0.2173 -0.0531
H22 H 1.0094 0.3046 -0.1136
N1 N 0.1636(2) 1.09223(17) 0.38427(16)
H23 H 0.1922 1.0233 0.4180
N2 N 0.0372(2) 0.89104(17) 0.34021(15)
H24 H 0.0963 0.8570 0.3790
O1 O 0.7588(2) 0.63647(19) 0.1775(2)
O2 O 0.8442(2) 0.5371(2) -0.03593(19)
O3 O 0.8655(3) 0.3559(2) 0.0475(2)
C1A C -0.3086(5) 0.8252(5) 0.4839(3)
H1A H -0.3397 0.7683 0.5389
H2A H -0.3647 0.9049 0.5167
H3A H -0.3258 0.8238 0.4138
C2A C -0.1454(3) 0.7916(3) 0.4563(2)
C3A C -0.0567(6) 0.6641(3) 0.4102(3)
H4A H -0.0743 0.6581 0.3417
H5A H 0.0476 0.6439 0.3912
H6A H -0.0869 0.6090 0.4685
C4A C -0.1226(3) 0.7988(2) 0.5680(2)
C5A C -0.0844(3) 0.7115(2) 0.6485(3)
H7A H -0.0527 0.6287 0.6404
C6A C -0.1017(3) 0.7696(2) 0.7458(3)
H8A H -0.0819 0.7314 0.8122
C7A C -0.1530(3) 0.8921(2) 0.72506(19)
C8A C -0.1899(2) 0.9959(2) 0.79809(18)
C9A C -0.2121(4) 0.9504(3) 0.9261(2)
H9A H -0.2289 1.0135 0.9731
H10A H -0.2967 0.9287 0.9558
H11A H -0.1245 0.8810 0.9283
C10A C -0.0603(3) 1.0343(2) 0.75474(19)
C11A C 0.0580(3) 0.9985(3) 0.7892(3)
H12A H 0.0730 0.9468 0.8513
C12A C 0.1575(3) 1.0542(3) 0.7133(3)
H13A H 0.2474 1.0453 0.7173
C13A C 0.0950(3) 1.1211(2) 0.6360(2)
C14A C -0.3386(3) 1.0991(2) 0.80073(18)
C15A C -0.4539(3) 1.0728(2) 0.7990(2)
H14A H -0.4373 0.9928 0.7919
C16A C -0.5929(3) 1.1632(2) 0.8078(2)
H15A H -0.6678 1.1432 0.8061
C17A C -0.6205(3) 1.2828(2) 0.8190(2)
C18A C -0.5100(3) 1.3110(2) 0.8244(2)
H16A H -0.5276 1.3908 0.8338
C19A C -0.3710(3) 1.2184(2) 0.8155(2)
H17A H -0.2974 1.2383 0.8197
C20A C -0.7941(3) 1.4899(3) 0.8301(3)
H18A H -0.7085 1.5075 0.7800
H19A H -0.8762 1.5371 0.8025
C21A C -0.8364(3) 1.5267(2) 0.9530(2)
C22A C -0.9159(5) 1.6996(4) 1.0648(4)
H20A H -0.8431 1.6572 1.1016
H21A H -0.9282 1.7827 1.0531
H22A H -1.0094 1.6954 1.1136
N1A N -0.1636(2) 0.90777(17) 0.61573(16)
H23A H -0.1922 0.9767 0.5820
N2A N -0.0372(2) 1.10896(17) 0.65979(15)
H24A H -0.0963 1.1430 0.6210
O1A O -0.7588(2) 1.36353(19) 0.8225(2)
O2A O -0.8442(2) 1.4629(2) 1.03593(19)
O3A O -0.8655(3) 1.6441(2) 0.9525(2)
loop_
_geom_bond_atom_site_label_1
_geom_bond_atom_site_label_2
_geom_bond_site_symmetry_1
_geom_bond_site_symmetry_2
C1 H1 1_555 1_555
H2 C1 1_555 1_555
H3 C1 1_555 1_555
C2 C1 1_555 1_555
C3 C2 1_555 1_555
H4 C3 1_555 1_555
H5 C3 1_555 1_555
H6 C3 1_555 1_555
C4 C2 1_555 1_555
C5 C4 1_555 1_555
H7 C5 1_555 1_555
C6 C5 1_555 1_555
H8 C6 1_555 1_555
C7 C6 1_555 1_555
C8 C7 1_555 1_555
C9 C8 1_555 1_555
H9 C9 1_555 1_555
H10 C9 1_555 1_555
H11 C9 1_555 1_555
C10 C8 1_555 1_555
C11 C10 1_555 1_555
H12 C11 1_555 1_555
C12 C11 1_555 1_555
H13 C12 1_555 1_555
C13 C12 1_555 1_555
C14 C8 1_555 1_555
C15 C14 1_555 1_555
H14 C15 1_555 1_555
C16 C15 1_555 1_555
H15 C16 1_555 1_555
C17 C16 1_555 1_555
C18 C17 1_555 1_555
H16 C18 1_555 1_555
C19 C14 1_555 1_555
H17 C19 1_555 1_555
C20 H18 1_555 1_555
H19 C20 1_555 1_555
C21 C20 1_555 1_555
C22 H20 1_555 1_555
H21 C22 1_555 1_555
H22 C22 1_555 1_555
N1 C4 1_555 1_555
H23 N1 1_555 1_555
N2 C10 1_555 1_555
H24 N2 1_555 1_555
O1 C17 1_555 1_555
O2 C21 1_555 1_555
O3 C21 1_555 1_555
C1A H1A 1_555 1_555
H2A C1A 1_555 1_555
H3A C1A 1_555 1_555
C2A C13 1_555 1_555
C3A C2A 1_555 1_555
H4A C3A 1_555 1_555
H5A C3A 1_555 1_555
H6A C3A 1_555 1_555
C4A C2A 1_555 1_555
C5A C4A 1_555 1_555
H7A C5A 1_555 1_555
C6A C5A 1_555 1_555
H8A C6A 1_555 1_555
C7A C6A 1_555 1_555
C8A C7A 1_555 1_555
C9A C8A 1_555 1_555
H9A C9A 1_555 1_555
H10A C9A 1_555 1_555
H11A C9A 1_555 1_555
C10A C8A 1_555 1_555
C11A C10A 1_555 1_555
H12A C11A 1_555 1_555
C12A C11A 1_555 1_555
H13A C12A 1_555 1_555
C13A C2 1_555 1_555
C14A C8A 1_555 1_555
C15A C14A 1_555 1_555
H14A C15A 1_555 1_555
C16A C15A 1_555 1_555
H15A C16A 1_555 1_555
C17A C16A 1_555 1_555
C18A C17A 1_555 1_555
H16A C18A 1_555 1_555
C19A C14A 1_555 1_555
H17A C19A 1_555 1_555
C20A H18A 1_555 1_555
H19A C20A 1_555 1_555
C21A C20A 1_555 1_555
C22A H20A 1_555 1_555
H21A C22A 1_555 1_555
H22A C22A 1_555 1_555
N1A C4A 1_555 1_555
H23A N1A 1_555 1_555
N2A C10A 1_555 1_555
H24A N2A 1_555 1_555
O1A C17A 1_555 1_555
O2A C21A 1_555 1_555
O3A C21A 1_555 1_555
C7 N1 1_555 1_555
C13 N2 1_555 1_555
C18 C19 1_555 1_555
C20 O1 1_555 1_555
C22 O3 1_555 1_555
C1A C2A 1_555 1_555
C7A N1A 1_555 1_555
C12A C13A 1_555 1_555
C13A N2A 1_555 1_555
C18A C19A 1_555 1_555
C20A O1A 1_555 1_555
C22A O3A 1_555 1_555

#END
