
#######################################################################
#
#                 Cambridge Crystallographic Data Centre
#                                CCDC 
#
#######################################################################
#
# If this CIF has been generated from an entry in the Cambridge 
# Structural Database, then it will include bibliographic, chemical, 
# crystal, experimental, refinement or atomic coordinate data resulting 
# from the CCDC's data processing and validation procedures.
#
#######################################################################

data_KITGEB
_chemical_formula_moiety         'C15 H28 O3'
_chemical_name_systematic        
6-Isopropyl-4,8a-dimethyldecahydronaphthalene-1,4,5-triol
_symmetry_cell_setting           triclinic
_symmetry_space_group_name_H-M   'P 1'
_symmetry_Int_Tables_number      1
_space_group_name_Hall           'P 1'
loop_
_symmetry_equiv_pos_site_id
_symmetry_equiv_pos_as_xyz
1 x,y,z
_cell_length_a                   6.285(4)
_cell_length_b                   14.268(10)
_cell_length_c                   14.436(10)
_cell_angle_alpha                60.515(5)
_cell_angle_beta                 87.296(6)
_cell_angle_gamma                88.368(6)
_cell_volume                     1125.6
_exptl_crystal_colour            colorless
_exptl_crystal_description       block
_cell_formula_units_Z            3
loop_
_atom_site_label
_atom_site_type_symbol
_atom_site_fract_x
_atom_site_fract_y
_atom_site_fract_z
C1 C 0.6364(6) 0.9518(3) 0.2036(3)
H1 H 0.4892 0.9262 0.2180
C2 C 0.6297(6) 1.0717(3) 0.1664(3)
H2 H 0.5665 1.0834 0.2225
H3 H 0.7735 1.0998 0.1510
C3 C 0.5006(7) 1.1306(3) 0.0675(4)
H4 H 0.3527 1.1097 0.0872
H5 H 0.5085 1.2072 0.0426
C4 C 0.5679(5) 1.1114(3) -0.0239(3)
C5 C 0.5964(5) 0.9888(2) 0.0188(2)
H6 H 0.4532 0.9589 0.0429
C6 C 0.6658(6) 0.9587(3) -0.0669(3)
H7 H 0.8144 0.9807 -0.0886
C7 C 0.6526(6) 0.8372(3) -0.0273(3)
H8 H 0.7256 0.8249 -0.0819
C8 C 0.7830(6) 0.7787(3) 0.0727(3)
H9 H 0.7698 0.7016 0.1015
H10 H 0.9320 0.7971 0.0534
C9 C 0.7120(6) 0.8072(3) 0.1575(3)
H11 H 0.7968 0.7666 0.2196
H12 H 0.5644 0.7864 0.1785
C10 C 0.7340(5) 0.9280(3) 0.1189(3)
C11 C 0.4240(6) 0.7960(3) -0.0146(3)
H13 H 0.3316 0.8381 0.0081
C12 C 0.3902(8) 0.6780(3) 0.0650(4)
H14 H 0.4830 0.6350 0.0460
H15 H 0.2448 0.6594 0.0646
H16 H 0.4215 0.6648 0.1349
C13 C 0.3437(11) 0.8124(4) -0.1202(5)
H17 H 0.4280 0.7696 -0.1429
H18 H 0.3552 0.8870 -0.1733
H19 H 0.1974 0.7907 -0.1107
C14 C 0.9711(6) 0.9568(3) 0.1014(3)
H20 H 0.9890 1.0260 0.0958
H21 H 1.0245 0.9589 0.0370
H22 H 1.0484 0.9034 0.1605
C15 C 0.7628(7) 1.1776(3) -0.0884(4)
H23 H 0.7964 1.1636 -0.1460
H24 H 0.8820 1.1579 -0.0431
H25 H 0.7319 1.2528 -0.1165
O1 O 0.7455(4) 0.8948(3) 0.3011(2)
H26 H 0.6585 0.8643 0.3508
O2 O 0.3890(4) 1.14852(18) -0.0930(2)
H27 H 0.3987 1.1243 -0.1341
O3 O 0.5377(4) 1.01961(19) -0.15782(17)
H28 H 0.6048 1.0292 -0.2119
C16 C 0.3038(6) 0.7029(3) 0.4898(3)
H29 H 0.1543 0.7156 0.5031
C17 C 0.3084(7) 0.6603(4) 0.4125(3)
H30 H 0.4547 0.6473 0.3971
H31 H 0.2474 0.7134 0.3462
C18 C 0.1834(7) 0.5564(4) 0.4588(3)
H32 H 0.0335 0.5732 0.4622
H33 H 0.2005 0.5277 0.4104
C19 C 0.2459(6) 0.4695(3) 0.5687(3)
C20 C 0.2602(5) 0.5177(2) 0.6424(3)
H34 H 0.1143 0.5399 0.6498
C21 C 0.3235(6) 0.4367(3) 0.7574(3)
H35 H 0.4740 0.4176 0.7554
C22 C 0.2937(7) 0.4806(3) 0.8357(3)
H36 H 0.3622 0.4289 0.9014
C23 C 0.4214(7) 0.5852(3) 0.7882(3)
H37 H 0.3976 0.6180 0.8328
H38 H 0.5720 0.5683 0.7883
C24 C 0.3615(6) 0.6655(3) 0.6753(3)
H39 H 0.4457 0.7300 0.6503
H40 H 0.2129 0.6854 0.6761
C25 C 0.3952(5) 0.6228(3) 0.5970(3)
C26 C 0.0590(8) 0.4901(4) 0.8661(3)
H41 H -0.0272 0.5043 0.8057
C27 C 0.0108(9) 0.5765(4) 0.8948(4)
H42 H 0.1055 0.5692 0.9483
H43 H -0.1338 0.5698 0.9218
H44 H 0.0299 0.6459 0.8326
C28 C -0.0166(13) 0.3828(5) 0.9629(5)
H45 H 0.0565 0.3706 1.0248
H46 H 0.0140 0.3247 0.9486
H47 H -0.1672 0.3864 0.9753
C29 C 0.6344(6) 0.6092(3) 0.5815(4)
H48 H 0.6592 0.5981 0.5214
H49 H 0.6866 0.5482 0.6442
H50 H 0.7075 0.6728 0.5690
C30 C 0.4436(7) 0.4053(4) 0.5662(5)
H51 H 0.4718 0.3495 0.6372
H52 H 0.5638 0.4525 0.5373
H53 H 0.4190 0.3735 0.5225
O4 O 0.4112(4) 0.80365(19) 0.4451(2)
H54 H 0.3232 0.8527 0.4251
O5 O 0.0656(4) 0.3962(2) 0.6060(3)
O6 O 0.1980(5) 0.3406(2) 0.7939(2)
H55 H 0.077(10) 0.350(3) 0.6688(15)
H56 H 0.293(8) 0.295(4) 0.818(6)
C31 C 0.9641(5) -0.0091(3) 0.4426(3)
H57 H 0.8192 0.0086 0.4165
C32 C 0.9476(7) -0.0914(3) 0.5592(4)
H58 H 1.0891 -0.1108 0.5872
H59 H 0.8803 -0.1559 0.5682
C33 C 0.8187(7) -0.0472(3) 0.6203(3)
H60 H 0.8192 -0.1000 0.6955
H61 H 0.6724 -0.0380 0.5986
C34 C 0.8967(5) 0.0592(3) 0.6055(3)
C35 C 0.9340(5) 0.1396(2) 0.4859(2)
H62 H 0.7922 0.1529 0.4562
C36 C 1.0134(6) 0.2512(3) 0.4598(3)
H63 H 1.1615 0.2441 0.4808
C37 C 1.0041(7) 0.3357(3) 0.3406(3)
H64 H 1.0825 0.3987 0.3303
C38 C 1.1290(6) 0.2901(3) 0.2776(3)
H65 H 1.1150 0.3390 0.2020
H66 H 1.2788 0.2856 0.2928
C39 C 1.0522(6) 0.1791(3) 0.3042(3)
H67 H 1.1358 0.1547 0.2619
H68 H 0.9050 0.1846 0.2847
C40 C 1.0687(5) 0.0952(3) 0.4222(3)
C41 C 0.7705(8) 0.3750(3) 0.3043(3)
H69 H 0.6713 0.3184 0.3526
C42 C 0.7232(10) 0.4054(4) 0.1906(4)
H70 H 0.8234 0.4584 0.1424
H71 H 0.5814 0.4343 0.1752
H72 H 0.7349 0.3426 0.1824
C43 C 0.7242(13) 0.4779(5) 0.3148(5)
H73 H 0.8071 0.5368 0.2614
H74 H 0.7617 0.4641 0.3841
H75 H 0.5756 0.4959 0.3053
C44 C 1.3046(5) 0.0745(4) 0.4491(3)
H76 H 1.3187 0.0093 0.5158
H77 H 1.3600 0.1337 0.4544
H78 H 1.3828 0.0676 0.3940
C45 C 1.0877(7) 0.0465(4) 0.6731(3)
H79 H 1.1263 0.1156 0.6629
H80 H 1.2060 0.0164 0.6518
H81 H 1.0505 -0.0006 0.7469
O7 O 1.0770(4) -0.0526(2) 0.3836(2)
H82 H 0.9916 -0.0746 0.3576
O8 O 0.7194(4) 0.0985(2) 0.64517(19)
H83 H 0.7433 0.1603 0.6315
O9 O 0.8863(4) 0.2859(2) 0.5232(2)
H84 H 0.956(6) 0.328(3) 0.533(4)
loop_
_geom_bond_atom_site_label_1
_geom_bond_atom_site_label_2
_geom_bond_site_symmetry_1
_geom_bond_site_symmetry_2
C1 H1 1_555 1_555
C2 C1 1_555 1_555
H2 C2 1_555 1_555
H3 C2 1_555 1_555
C3 C2 1_555 1_555
H4 C3 1_555 1_555
H5 C3 1_555 1_555
C4 C3 1_555 1_555
C5 C4 1_555 1_555
H6 C5 1_555 1_555
C6 C5 1_555 1_555
H7 C6 1_555 1_555
C7 C6 1_555 1_555
H8 C7 1_555 1_555
C8 C7 1_555 1_555
H9 C8 1_555 1_555
H10 C8 1_555 1_555
C9 C8 1_555 1_555
H11 C9 1_555 1_555
H12 C9 1_555 1_555
C10 C1 1_555 1_555
C11 C7 1_555 1_555
H13 C11 1_555 1_555
C12 C11 1_555 1_555
H14 C12 1_555 1_555
H15 C12 1_555 1_555
H16 C12 1_555 1_555
C13 C11 1_555 1_555
H17 C13 1_555 1_555
H18 C13 1_555 1_555
H19 C13 1_555 1_555
C14 C10 1_555 1_555
H20 C14 1_555 1_555
H21 C14 1_555 1_555
H22 C14 1_555 1_555
C15 C4 1_555 1_555
H23 C15 1_555 1_555
H24 C15 1_555 1_555
H25 C15 1_555 1_555
O1 C1 1_555 1_555
H26 O1 1_555 1_555
O2 C4 1_555 1_555
H27 O2 1_555 1_555
O3 C6 1_555 1_555
H28 O3 1_555 1_555
C16 H29 1_555 1_555
C17 C16 1_555 1_555
H30 C17 1_555 1_555
H31 C17 1_555 1_555
C18 C17 1_555 1_555
H32 C18 1_555 1_555
H33 C18 1_555 1_555
C19 C18 1_555 1_555
C20 C19 1_555 1_555
H34 C20 1_555 1_555
C21 C20 1_555 1_555
H35 C21 1_555 1_555
C22 C21 1_555 1_555
H36 C22 1_555 1_555
C23 C22 1_555 1_555
H37 C23 1_555 1_555
H38 C23 1_555 1_555
C24 C23 1_555 1_555
H39 C24 1_555 1_555
H40 C24 1_555 1_555
C25 C16 1_555 1_555
C26 C22 1_555 1_555
H41 C26 1_555 1_555
C27 C26 1_555 1_555
H42 C27 1_555 1_555
H43 C27 1_555 1_555
H44 C27 1_555 1_555
C28 C26 1_555 1_555
H45 C28 1_555 1_555
H46 C28 1_555 1_555
H47 C28 1_555 1_555
C29 C25 1_555 1_555
H48 C29 1_555 1_555
H49 C29 1_555 1_555
H50 C29 1_555 1_555
C30 C19 1_555 1_555
H51 C30 1_555 1_555
H52 C30 1_555 1_555
H53 C30 1_555 1_555
O4 C16 1_555 1_555
H54 O4 1_555 1_555
O5 C19 1_555 1_555
O6 C21 1_555 1_555
H55 O5 1_555 1_555
H56 O6 1_555 1_555
C31 H57 1_555 1_555
C32 C31 1_555 1_555
H58 C32 1_555 1_555
H59 C32 1_555 1_555
C33 C32 1_555 1_555
H60 C33 1_555 1_555
H61 C33 1_555 1_555
C34 C33 1_555 1_555
C35 C34 1_555 1_555
H62 C35 1_555 1_555
C36 C35 1_555 1_555
H63 C36 1_555 1_555
C37 C36 1_555 1_555
H64 C37 1_555 1_555
C38 C37 1_555 1_555
H65 C38 1_555 1_555
H66 C38 1_555 1_555
C39 C38 1_555 1_555
H67 C39 1_555 1_555
H68 C39 1_555 1_555
C40 C31 1_555 1_555
C41 C37 1_555 1_555
H69 C41 1_555 1_555
C42 C41 1_555 1_555
H70 C42 1_555 1_555
H71 C42 1_555 1_555
H72 C42 1_555 1_555
C43 C41 1_555 1_555
H73 C43 1_555 1_555
H74 C43 1_555 1_555
H75 C43 1_555 1_555
C44 C40 1_555 1_555
H76 C44 1_555 1_555
H77 C44 1_555 1_555
H78 C44 1_555 1_555
C45 C34 1_555 1_555
H79 C45 1_555 1_555
H80 C45 1_555 1_555
H81 C45 1_555 1_555
O7 C31 1_555 1_555
H82 O7 1_555 1_555
O8 C34 1_555 1_555
H83 O8 1_555 1_555
O9 C36 1_555 1_555
H84 O9 1_555 1_555
C5 C10 1_555 1_555
C9 C10 1_555 1_555
C20 C25 1_555 1_555
C24 C25 1_555 1_555
C35 C40 1_555 1_555
C39 C40 1_555 1_555

#END
