
#######################################################################
#
#                 Cambridge Crystallographic Data Centre
#                                CCDC 
#
#######################################################################
#
# If this CIF has been generated from an entry in the Cambridge 
# Structural Database, then it will include bibliographic, chemical, 
# crystal, experimental, refinement or atomic coordinate data resulting 
# from the CCDC's data processing and validation procedures.
#
#######################################################################

data_KITKEE
_chemical_formula_moiety         'C15 H12 N4 S1'
_chemical_name_systematic        
'Benzaldehyde 2-phenyl-1,3,4-thiadiazole-5-ylhydrazone'
_symmetry_cell_setting           monoclinic
_symmetry_space_group_name_H-M   'P 21/c'
_symmetry_Int_Tables_number      14
_space_group_name_Hall           '-P 2ybc'
loop_
_symmetry_equiv_pos_site_id
_symmetry_equiv_pos_as_xyz
1 x,y,z
2 -x,1/2+y,1/2-z
3 -x,-y,-z
4 x,1/2-y,1/2+z
_cell_length_a                   13.959
_cell_length_b                   5.728
_cell_length_c                   18.125
_cell_angle_alpha                90
_cell_angle_beta                 111.20
_cell_angle_gamma                90
_cell_volume                     1351.15
_exptl_crystal_colour            colorless
_exptl_crystal_description       parallelepiped
_cell_formula_units_Z            4
loop_
_atom_site_label
_atom_site_type_symbol
_atom_site_fract_x
_atom_site_fract_y
_atom_site_fract_z
C1 C 0.2223(3) 0.6617(7) 0.0833(2)
H1 H 0.1822 0.7924 0.0868
C2 C 0.1943(3) 0.5327(7) 0.0143(2)
H2 H 0.1352 0.5759 -0.0298
C3 C 0.2518(3) 0.3412(7) 0.0089(2)
H3 H 0.2325 0.2536 -0.0387
C4 C 0.3381(3) 0.2773(7) 0.0735(2)
C5 C 0.3664(3) 0.4086(7) 0.1428(2)
H4 H 0.4256 0.3664 0.1869
C6 C 0.3088(3) 0.6000(7) 0.1476(2)
H5 H 0.3285 0.6894 0.1949
C7 C 0.3986(3) 0.0723(7) 0.0677(2)
C8 C 0.5156(3) -0.2399(7) 0.0814(2)
C9 C 0.7425(3) -0.5332(7) 0.1840(2)
C10 C 0.8355(3) -0.5266(7) 0.2556(2)
C11 C 0.9080(3) -0.7048(7) 0.2696(2)
H6 H 0.8971 -0.8281 0.2324
C12 C 0.9958(3) -0.7040(8) 0.3374(3)
H7 H 1.0446 -0.8265 0.3465
C13 C 1.0124(3) -0.5249(8) 0.3918(2)
H8 H 1.0725 -0.5247 0.4383
C14 C 0.9414(3) -0.3455(7) 0.3784(2)
H9 H 0.9531 -0.2221 0.4156
C15 C 0.8534(3) -0.3455(7) 0.3109(2)
H10 H 0.8050 -0.2223 0.3022
N1 N 0.3705(2) -0.0637(6) 0.00710(18)
N2 N 0.4379(2) -0.2462(6) 0.01490(19)
N3 N 0.5899(3) -0.4032(6) 0.10166(19)
N4 N 0.6727(3) -0.3774(6) 0.17088(18)
S1 S 0.51429(8) -0.00733(18) 0.14236(6)
H11 H 0.597(3) -0.527(8) 0.073(3)
H12 H 0.728(3) -0.650(8) 0.147(3)
loop_
_geom_bond_atom_site_label_1
_geom_bond_atom_site_label_2
_geom_bond_site_symmetry_1
_geom_bond_site_symmetry_2
C1 H1 1_555 1_555
C2 C1 1_555 1_555
H2 C2 1_555 1_555
C3 C2 1_555 1_555
H3 C3 1_555 1_555
C4 C3 1_555 1_555
C5 C4 1_555 1_555
H4 C5 1_555 1_555
C6 C1 1_555 1_555
H5 C6 1_555 1_555
C7 C4 1_555 1_555
C8 N2 1_555 1_555
C9 C10 1_555 1_555
C10 C11 1_555 1_555
C11 H6 1_555 1_555
C12 C11 1_555 1_555
H7 C12 1_555 1_555
C13 C12 1_555 1_555
H8 C13 1_555 1_555
C14 C13 1_555 1_555
H9 C14 1_555 1_555
C15 C10 1_555 1_555
H10 C15 1_555 1_555
N1 C7 1_555 1_555
N2 N1 1_555 1_555
N3 C8 1_555 1_555
N4 C9 1_555 1_555
S1 C7 1_555 1_555
H11 N3 1_555 1_555
H12 C9 1_555 1_555
C5 C6 1_555 1_555
C8 S1 1_555 1_555
C14 C15 1_555 1_555
N3 N4 1_555 1_555

#END
