
#######################################################################
#
#                 Cambridge Crystallographic Data Centre
#                                CCDC 
#
#######################################################################
#
# If this CIF has been generated from an entry in the Cambridge 
# Structural Database, then it will include bibliographic, chemical, 
# crystal, experimental, refinement or atomic coordinate data resulting 
# from the CCDC's data processing and validation procedures.
#
#######################################################################

data_KITMOR
_chemical_name_common            'PDB Chemical Component code: HUP'
_chemical_formula_moiety         'C15 H18 N2 O1,0.5(C5 H12 O1)'
_chemical_name_systematic        
'1-Amino-13-ethylidene-11-methyl-6-azatricyclo[7.3.1.0^2,7^]trideca-2(7),3,10-trien-5-one 2-methoxy-2-methylpropane solvate'
_symmetry_cell_setting           orthorhombic
_symmetry_space_group_name_H-M   'P 21 21 2'
_symmetry_Int_Tables_number      18
_space_group_name_Hall           'P 2 2ab'
loop_
_symmetry_equiv_pos_site_id
_symmetry_equiv_pos_as_xyz
1 x,y,z
2 -x,-y,z
3 1/2+x,1/2-y,-z
4 1/2-x,1/2+y,-z
_cell_length_a                   14.7583(14)
_cell_length_b                   29.841(3)
_cell_length_c                   7.5013(8)
_cell_angle_alpha                90
_cell_angle_beta                 90
_cell_angle_gamma                90
_cell_volume                     3303.59
_exptl_crystal_colour            colorless
_exptl_crystal_description       needle
_cell_formula_units_Z            8
loop_
_atom_site_label
_atom_site_type_symbol
_atom_site_fract_x
_atom_site_fract_y
_atom_site_fract_z
O1 O 0.93409(12) 0.92117(5) 0.3364(2)
N1 N 0.91447(13) 0.85749(6) 0.1773(3)
H1 H 0.9176 0.8733 0.0817
C1 C 0.92373(16) 0.87933(7) 0.3368(4)
C2 C 0.91914(16) 0.85182(7) 0.4914(4)
H2 H 0.9247 0.8646 0.6039
C3 C 0.90665(16) 0.80691(8) 0.4750(4)
H3 H 0.9038 0.7894 0.5775
C4 C 0.89784(15) 0.78597(7) 0.3070(4)
C5 C 0.88205(16) 0.73509(7) 0.2943(4)
C6 C 0.78243(18) 0.72524(8) 0.3402(4)
H4 H 0.7750 0.6932 0.3568
H5 H 0.7675 0.7398 0.4519
C7 C 0.71780(17) 0.74087(8) 0.1991(4)
C8 C 0.61993(19) 0.74465(10) 0.2538(5)
H6 H 0.6143 0.7663 0.3477
H7 H 0.5988 0.7161 0.2951
H8 H 0.5843 0.7540 0.1533
C9 C 0.90053(15) 0.81213(7) 0.1582(4)
C10 C 0.89684(16) 0.71995(7) 0.1041(4)
C11 C 0.94802(18) 0.68503(7) 0.0581(4)
H9 H 0.9783 0.6703 0.1498
C12 C 0.9617(2) 0.66715(8) -0.1255(4)
H10 H 0.9217 0.6423 -0.1449
H11 H 1.0233 0.6574 -0.1389
H12 H 0.9489 0.6903 -0.2110
C13 C 0.84330(16) 0.74830(7) -0.0231(4)
H13 H 0.8457 0.7351 -0.1426
C14 C 0.74588(17) 0.75143(8) 0.0381(4)
H14 H 0.7030 0.7615 -0.0435
C15 C 0.88700(17) 0.79583(7) -0.0265(4)
H15 H 0.9448 0.7946 -0.0878
H16 H 0.8479 0.8164 -0.0908
N2 N 0.93837(17) 0.71388(6) 0.4314(3)
H17 H 0.9333 0.6830 0.4215
H18 H 0.9956 0.7171 0.3998
O2 O 0.93565(11) -0.09286(5) -0.1252(2)
N3 N 0.89874(13) -0.03008(6) 0.0309(3)
H19 H 0.9095 -0.0448 0.1272
C16 C 0.91133(15) -0.05183(7) -0.1270(4)
C17 C 0.87019(15) 0.01360(7) 0.0480(4)
C18 C 0.85775(17) 0.03051(7) 0.2331(4)
H20 H 0.9160 0.0388 0.2831
H21 H 0.8318 0.0071 0.3070
C19 C 0.79406(16) 0.07178(7) 0.2309(4)
H22 H 0.7937 0.0859 0.3487
C20 C 0.69862(17) 0.05772(7) 0.1813(4)
H23 H 0.6633 0.0441 0.2686
C21 C 0.66255(17) 0.06353(8) 0.0224(4)
C22 C 0.56678(18) 0.05039(9) -0.0207(5)
H24 H 0.5372 0.0400 0.0855
H25 H 0.5671 0.0269 -0.1080
H26 H 0.5349 0.0759 -0.0673
C23 C 0.71466(17) 0.08467(8) -0.1290(4)
H27 H 0.6927 0.1149 -0.1476
H28 H 0.7035 0.0678 -0.2374
C24 C 0.81806(16) 0.08617(7) -0.0934(4)
C25 C 0.82845(15) 0.10459(7) 0.0939(4)
C26 C 0.85708(16) 0.14601(7) 0.1286(4)
H29 H 0.8781 0.1625 0.0318
C27 C 0.85924(18) 0.16892(8) 0.3057(4)
H30 H 0.8054 0.1866 0.3200
H31 H 0.9115 0.1880 0.3122
H32 H 0.8621 0.1469 0.3987
C28 C 0.85427(15) 0.03788(7) -0.1015(4)
C29 C 0.86841(16) 0.01731(7) -0.2685(4)
H33 H 0.8584 0.0338 -0.3719
C30 C 0.89651(16) -0.02628(7) -0.2824(4)
H34 H 0.9058 -0.0390 -0.3941
N4 N 0.85968(15) 0.11150(6) -0.2379(3)
H35 H 0.8427 0.1378 -0.2435
H36 H 0.9178 0.1115 -0.2182
C31 C 1.0170(2) 0.41374(10) 0.5038(5)
H37 H 1.0191 0.4432 0.4523
H38 H 1.0763 0.4006 0.5004
H39 H 0.9969 0.4158 0.6253
O3 O 0.95608(14) 0.38675(7) 0.4061(4)
C32 C 0.8636(2) 0.40144(11) 0.4117(6)
C33 C 0.8241(3) 0.39866(18) 0.5966(7)
H40 H 0.8289 0.3685 0.6397
H41 H 0.7615 0.4074 0.5933
H42 H 0.8568 0.4184 0.6746
C34 C 0.8176(3) 0.36778(19) 0.2824(8)
H43 H 0.8480 0.3684 0.1693
H44 H 0.7552 0.3760 0.2663
H45 H 0.8210 0.3381 0.3315
C35 C 0.8550(3) 0.44841(14) 0.3427(9)
H46 H 0.8888 0.4684 0.4177
H47 H 0.7923 0.4571 0.3428
H48 H 0.8782 0.4498 0.2233
loop_
_geom_bond_atom_site_label_1
_geom_bond_atom_site_label_2
_geom_bond_site_symmetry_1
_geom_bond_site_symmetry_2
O1 C1 1_555 1_555
N1 H1 1_555 1_555
C1 N1 1_555 1_555
C2 C1 1_555 1_555
H2 C2 1_555 1_555
C3 C2 1_555 1_555
H3 C3 1_555 1_555
C4 C3 1_555 1_555
C5 C4 1_555 1_555
C6 C5 1_555 1_555
H4 C6 1_555 1_555
H5 C6 1_555 1_555
C7 C6 1_555 1_555
C8 C7 1_555 1_555
H6 C8 1_555 1_555
H7 C8 1_555 1_555
H8 C8 1_555 1_555
C9 N1 1_555 1_555
C10 C5 1_555 1_555
C11 C10 1_555 1_555
H9 C11 1_555 1_555
C12 C11 1_555 1_555
H10 C12 1_555 1_555
H11 C12 1_555 1_555
H12 C12 1_555 1_555
C13 C10 1_555 1_555
H13 C13 1_555 1_555
C14 C7 1_555 1_555
H14 C14 1_555 1_555
C15 C9 1_555 1_555
H15 C15 1_555 1_555
H16 C15 1_555 1_555
N2 C5 1_555 1_555
H17 N2 1_555 1_555
H18 N2 1_555 1_555
O2 C16 1_555 1_555
N3 H19 1_555 1_555
C16 N3 1_555 1_555
C17 N3 1_555 1_555
C18 C17 1_555 1_555
H20 C18 1_555 1_555
H21 C18 1_555 1_555
C19 C18 1_555 1_555
H22 C19 1_555 1_555
C20 C19 1_555 1_555
H23 C20 1_555 1_555
C21 C20 1_555 1_555
C22 C21 1_555 1_555
H24 C22 1_555 1_555
H25 C22 1_555 1_555
H26 C22 1_555 1_555
C23 C21 1_555 1_555
H27 C23 1_555 1_555
H28 C23 1_555 1_555
C24 C23 1_555 1_555
C25 C19 1_555 1_555
C26 C25 1_555 1_555
H29 C26 1_555 1_555
C27 C26 1_555 1_555
H30 C27 1_555 1_555
H31 C27 1_555 1_555
H32 C27 1_555 1_555
C28 C17 1_555 1_555
C29 C28 1_555 1_555
H33 C29 1_555 1_555
C30 C16 1_555 1_555
H34 C30 1_555 1_555
N4 C24 1_555 1_555
H35 N4 1_555 1_555
H36 N4 1_555 1_555
C31 H37 1_555 1_555
H38 C31 1_555 1_555
H39 C31 1_555 1_555
O3 C31 1_555 1_555
C32 O3 1_555 1_555
C33 C32 1_555 1_555
H40 C33 1_555 1_555
H41 C33 1_555 1_555
H42 C33 1_555 1_555
C34 C32 1_555 1_555
H43 C34 1_555 1_555
H44 C34 1_555 1_555
H45 C34 1_555 1_555
C35 C32 1_555 1_555
H46 C35 1_555 1_555
H47 C35 1_555 1_555
H48 C35 1_555 1_555
C4 C9 1_555 1_555
C13 C14 1_555 1_555
C13 C15 1_555 1_555
C24 C25 1_555 1_555
C24 C28 1_555 1_555
C29 C30 1_555 1_555

#END
