
#######################################################################
#
#                 Cambridge Crystallographic Data Centre
#                                CCDC 
#
#######################################################################
#
# If this CIF has been generated from an entry in the Cambridge 
# Structural Database, then it will include bibliographic, chemical, 
# crystal, experimental, refinement or atomic coordinate data resulting 
# from the CCDC's data processing and validation procedures.
#
#######################################################################

data_KITNAE
_chemical_formula_moiety         'C15 H18 N2 O1,0.25(C1 H3 N1 O2)'
_chemical_name_systematic        
'1-Amino-13-ethylidene-11-methyl-6-azatricyclo[7.3.1.0^2,7^]trideca-2(7),3,10-trien-5-one nitromethane solvate'
_symmetry_cell_setting           orthorhombic
_symmetry_space_group_name_H-M   'P 21 21 2'
_symmetry_Int_Tables_number      18
_space_group_name_Hall           'P 2 2ab'
loop_
_symmetry_equiv_pos_site_id
_symmetry_equiv_pos_as_xyz
1 x,y,z
2 -x,-y,z
3 1/2+x,1/2-y,-z
4 1/2-x,1/2+y,-z
_cell_length_a                   12.100(2)
_cell_length_b                   29.760(6)
_cell_length_c                   7.7000(15)
_cell_angle_alpha                90
_cell_angle_beta                 90
_cell_angle_gamma                90
_cell_volume                     2772.74
_cell_formula_units_Z            8
loop_
_atom_site_label
_atom_site_type_symbol
_atom_site_fract_x
_atom_site_fract_y
_atom_site_fract_z
N1 N 0.8027(2) 0.16127(7) 0.4714(3)
N2 N 0.9974(2) 0.28965(10) 0.6468(3)
O1 O 0.7743(2) 0.10290(6) 0.6560(3)
C1 C 0.8012(2) 0.14291(9) 0.6357(4)
C2 C 0.8304(2) 0.17344(9) 0.7715(4)
H1 H 0.8272 0.1638 0.8890
C3 C 0.8624(2) 0.21557(9) 0.7347(4)
H2 H 0.8830 0.2348 0.8277
C4 C 0.8665(2) 0.23247(9) 0.5638(4)
C5 C 0.8335(2) 0.20428(8) 0.4336(4)
C6 C 0.8278(3) 0.21750(8) 0.2460(4)
H3 H 0.7575 0.2068 0.1951
H4 H 0.8894 0.2033 0.1815
C7 C 0.8353(2) 0.26934(9) 0.2283(4)
H5 H 0.8488 0.2773 0.1039
C8 C 0.9332(2) 0.28367(9) 0.3352(4)
C9 C 0.9059(2) 0.28024(9) 0.5260(4)
C10 C 0.8130(3) 0.31310(9) 0.5689(4)
H6 H 0.7835 0.3060 0.6857
H7 H 0.8436 0.3439 0.5727
C11 C 0.7202(3) 0.31167(9) 0.4399(4)
C12 C 0.7314(3) 0.29166(9) 0.2882(4)
H8 H 0.6696 0.2914 0.2122
C13 C 0.6155(3) 0.33431(12) 0.4968(5)
H9 H 0.5603 0.3321 0.4042
H10 H 0.6305 0.3660 0.5215
H11 H 0.5875 0.3196 0.6018
C14 C 1.0298(3) 0.29584(11) 0.2730(4)
H12 H 1.0847 0.3035 0.3560
C15 C 1.0628(4) 0.29899(16) 0.0875(5)
H13 H 1.1004 0.2712 0.0528
H14 H 1.1130 0.3245 0.0719
H15 H 0.9969 0.3033 0.0154
H16 H 0.7849 0.1440 0.3850
H17 H 1.0467 0.2706 0.6350
H18 H 1.0279 0.3149 0.6334
N3 N 0.74731(19) 1.05643(7) 0.9727(3)
H19 H 0.7673 1.0739 0.8861
N4 N 0.5628(2) 0.92589(9) 1.1434(4)
H20 H 0.5698 0.9036 1.2218
H21 H 0.4996 0.9418 1.1378
O2 O 0.76670(19) 1.11594(6) 1.1541(3)
C16 C 0.7450(2) 1.07508(9) 1.1362(4)
C17 C 0.7208(2) 1.04472(9) 1.2711(4)
H22 H 0.7247 1.0544 1.3885
C18 C 0.6919(2) 1.00151(10) 1.2344(4)
H23 H 0.6722 0.9821 1.3275
C19 C 0.6902(2) 0.98445(8) 1.0644(3)
C20 C 0.7212(2) 1.01301(8) 0.9343(3)
C21 C 0.7309(3) 0.99971(9) 0.7477(4)
H24 H 0.8012 1.0112 0.6991
H25 H 0.6692 1.0129 0.6804
C22 C 0.7278(2) 0.94828(9) 0.7331(4)
H26 H 0.7171 0.9399 0.6085
C23 C 0.6298(2) 0.93240(9) 0.8354(4)
C24 C 0.6531(2) 0.93631(9) 1.0262(4)
C25 C 0.7481(3) 0.90344(10) 1.0681(4)
H27 H 0.7750 0.9096 1.1871
H28 H 0.7187 0.8724 1.0665
C26 C 0.8426(3) 0.90610(9) 0.9469(5)
C27 C 0.8327(3) 0.92769(10) 0.7968(4)
H29 H 0.8964 0.9302 0.7254
C28 C 0.9488(4) 0.88415(13) 1.0011(7)
H30 H 1.0078 0.8929 0.9208
H31 H 0.9399 0.8514 0.9990
H32 H 0.9680 0.8938 1.1190
C29 C 0.5341(3) 0.91927(10) 0.7677(5)
H33 H 0.4785 0.9103 0.8476
C30 C 0.5049(3) 0.91709(12) 0.5827(5)
H34 H 0.5056 0.9474 0.5333
H35 H 0.4309 0.9041 0.5701
H36 H 0.5586 0.8983 0.5213
O3 O 0.0385(6) 0.0332(2) 0.4084(11)
N5 N 0.0000 0.0000 0.3675(12)
C31 C 0.0000 0.0000 0.1654(9)
O3A O -0.0385(6) -0.0332(2) 0.4084(11)
H37? H 0.0764 0.0000 0.1229
H38? H -0.0382 0.0269 0.1229
H39? H -0.0381 -0.0269 0.1229
loop_
_geom_bond_atom_site_label_1
_geom_bond_atom_site_label_2
_geom_bond_site_symmetry_1
_geom_bond_site_symmetry_2
N1 C1 1_555 1_555
N2 C9 1_555 1_555
O1 C1 1_555 1_555
C1 C2 1_555 1_555
C2 H1 1_555 1_555
C3 C2 1_555 1_555
H2 C3 1_555 1_555
C4 C3 1_555 1_555
C5 N1 1_555 1_555
C6 C5 1_555 1_555
H3 C6 1_555 1_555
H4 C6 1_555 1_555
C7 C6 1_555 1_555
H5 C7 1_555 1_555
C8 C7 1_555 1_555
C9 C4 1_555 1_555
C10 C9 1_555 1_555
H6 C10 1_555 1_555
H7 C10 1_555 1_555
C11 C10 1_555 1_555
C12 C7 1_555 1_555
H8 C12 1_555 1_555
C13 C11 1_555 1_555
H9 C13 1_555 1_555
H10 C13 1_555 1_555
H11 C13 1_555 1_555
C14 C8 1_555 1_555
H12 C14 1_555 1_555
C15 C14 1_555 1_555
H13 C15 1_555 1_555
H14 C15 1_555 1_555
H15 C15 1_555 1_555
H16 N1 1_555 1_555
H17 N2 1_555 1_555
H18 N2 1_555 1_555
N3 H19 1_555 1_555
N4 H20 1_555 1_555
H21 N4 1_555 1_555
O2 C16 1_555 1_555
C16 N3 1_555 1_555
C17 C16 1_555 1_555
H22 C17 1_555 1_555
C18 C17 1_555 1_555
H23 C18 1_555 1_555
C19 C18 1_555 1_555
C20 N3 1_555 1_555
C21 C20 1_555 1_555
H24 C21 1_555 1_555
H25 C21 1_555 1_555
C22 C21 1_555 1_555
H26 C22 1_555 1_555
C23 C22 1_555 1_555
C24 N4 1_555 1_555
C25 C24 1_555 1_555
H27 C25 1_555 1_555
H28 C25 1_555 1_555
C26 C25 1_555 1_555
C27 C22 1_555 1_555
H29 C27 1_555 1_555
C28 C26 1_555 1_555
H30 C28 1_555 1_555
H31 C28 1_555 1_555
H32 C28 1_555 1_555
C29 C23 1_555 1_555
H33 C29 1_555 1_555
C30 C29 1_555 1_555
H34 C30 1_555 1_555
H35 C30 1_555 1_555
H36 C30 1_555 1_555
O3 N5 1_555 1_555
N5 C31 1_555 1_555
O3A N5 1_555 1_555
C4 C5 1_555 1_555
C8 C9 1_555 1_555
C11 C12 1_555 1_555
C19 C20 1_555 1_555
C19 C24 1_555 1_555
C23 C24 1_555 1_555
C26 C27 1_555 1_555

#END
