
#######################################################################
#
#                 Cambridge Crystallographic Data Centre
#                                CCDC 
#
#######################################################################
#
# If this CIF has been generated from an entry in the Cambridge 
# Structural Database, then it will include bibliographic, chemical, 
# crystal, experimental, refinement or atomic coordinate data resulting 
# from the CCDC's data processing and validation procedures.
#
#######################################################################

data_KITQIQ
_chemical_formula_moiety         'C16 H12 O2'
_chemical_name_systematic        7-methyl-4-phenyl-2H-1-benzopyran-2-one
_symmetry_cell_setting           monoclinic
_symmetry_space_group_name_H-M   'C 2/c'
_symmetry_Int_Tables_number      15
_space_group_name_Hall           '-C 2yn'
loop_
_symmetry_equiv_pos_site_id
_symmetry_equiv_pos_as_xyz
1 x,y,z
2 -x,y,1/2-z
3 1/2+x,1/2+y,z
4 1/2-x,1/2+y,1/2-z
5 -x,-y,-z
6 x,-y,1/2+z
7 1/2-x,1/2-y,-z
8 1/2+x,1/2-y,1/2+z
_cell_length_a                   25.601(5)
_cell_length_b                   4.1711(8)
_cell_length_c                   24.268(5)
_cell_angle_alpha                90
_cell_angle_beta                 112.37(3)
_cell_angle_gamma                90
_cell_volume                     2396.42
_exptl_crystal_colour            colorless
_exptl_crystal_description       block
_cell_formula_units_Z            8
loop_
_atom_site_label
_atom_site_type_symbol
_atom_site_fract_x
_atom_site_fract_y
_atom_site_fract_z
O1 O 0.46978(7) -0.1539(6) 0.32649(8)
O2 O 0.51944(5) 0.0711(4) 0.41223(7)
C1 C 0.63043(9) 0.4968(6) 0.29015(9)
H1 H 0.5927 0.5416 0.2677
C2 C 0.67127(11) 0.5820(6) 0.26863(10)
H2 H 0.6610 0.6890 0.2324
C3 C 0.72706(10) 0.5092(6) 0.30056(10)
H3 H 0.7545 0.5672 0.2860
C4 C 0.74210(9) 0.3508(5) 0.35389(10)
H4 H 0.7797 0.2968 0.3751
C5 C 0.70168(8) 0.2711(5) 0.37628(9)
H5 H 0.7124 0.1668 0.4128
C6 C 0.64516(8) 0.3452(5) 0.34483(8)
C7 C 0.51156(9) -0.0033(6) 0.35462(10)
C8 C 0.55472(8) 0.0967(6) 0.33389(9)
H6 H 0.5504 0.0463 0.2951
C9 C 0.60105(7) 0.2599(5) 0.36816(8)
C10 C 0.60660(7) 0.3507(5) 0.42776(8)
C11 C 0.56474(7) 0.2527(5) 0.44774(8)
C12 C 0.56635(8) 0.3298(5) 0.50359(9)
H7 H 0.5380 0.2567 0.5155
C13 C 0.60970(8) 0.5143(5) 0.54199(9)
C14 C 0.65147(8) 0.6183(5) 0.52250(8)
H8 H 0.6810 0.7433 0.5476
C15 C 0.64992(8) 0.5400(5) 0.46695(8)
H9 H 0.6783 0.6144 0.4551
C16 C 0.61112(10) 0.6055(6) 0.60245(9)
H10 H 0.6441 0.7330 0.6228
H11 H 0.5779 0.7266 0.5980
H12 H 0.6123 0.4150 0.6251
loop_
_geom_bond_atom_site_label_1
_geom_bond_atom_site_label_2
_geom_bond_site_symmetry_1
_geom_bond_site_symmetry_2
O1 C7 1_555 1_555
O2 C7 1_555 1_555
C1 H1 1_555 1_555
C2 C1 1_555 1_555
H2 C2 1_555 1_555
C3 C2 1_555 1_555
H3 C3 1_555 1_555
C4 C3 1_555 1_555
H4 C4 1_555 1_555
C5 C4 1_555 1_555
H5 C5 1_555 1_555
C6 C1 1_555 1_555
C7 C8 1_555 1_555
C8 H6 1_555 1_555
C9 C6 1_555 1_555
C10 C9 1_555 1_555
C11 O2 1_555 1_555
C12 C11 1_555 1_555
H7 C12 1_555 1_555
C13 C12 1_555 1_555
C14 C13 1_555 1_555
H8 C14 1_555 1_555
C15 C10 1_555 1_555
H9 C15 1_555 1_555
C16 C13 1_555 1_555
H10 C16 1_555 1_555
H11 C16 1_555 1_555
H12 C16 1_555 1_555
C5 C6 1_555 1_555
C8 C9 1_555 1_555
C10 C11 1_555 1_555
C14 C15 1_555 1_555

#END
