
#######################################################################
#
#                 Cambridge Crystallographic Data Centre
#                                CCDC 
#
#######################################################################
#
# If this CIF has been generated from an entry in the Cambridge 
# Structural Database, then it will include bibliographic, chemical, 
# crystal, experimental, refinement or atomic coordinate data resulting 
# from the CCDC's data processing and validation procedures.
#
#######################################################################

data_KITRUB
_chemical_formula_moiety         'C17 H16 O5'
_chemical_name_systematic        
'Methyl 1-oxo-2,3,4,12-tetrahydro-1H-6,12-methanodibenzo(d,g)(1,3)dioxocine-13-carboxylate'
_symmetry_cell_setting           monoclinic
_symmetry_space_group_name_H-M   'P 21/c'
_symmetry_Int_Tables_number      14
_space_group_name_Hall           '-P 2ybc'
loop_
_symmetry_equiv_pos_site_id
_symmetry_equiv_pos_as_xyz
1 x,y,z
2 -x,1/2+y,1/2-z
3 -x,-y,-z
4 x,1/2-y,1/2+z
_cell_length_a                   25.024(3)
_cell_length_b                   14.7090(15)
_cell_length_c                   12.0532(13)
_cell_angle_alpha                90
_cell_angle_beta                 103.456(7)
_cell_angle_gamma                90
_cell_volume                     4314.73
_exptl_crystal_colour            silver
_exptl_crystal_description       block
_cell_formula_units_Z            12
loop_
_atom_site_label
_atom_site_type_symbol
_atom_site_fract_x
_atom_site_fract_y
_atom_site_fract_z
O1 O 0.11642(10) 0.32434(15) 0.6438(2)
C1 C 0.08036(14) 0.2817(2) 0.7037(3)
H1 H 0.0842 0.3131 0.7768
C2 C 0.09543(14) 0.1829(2) 0.7285(3)
H2 H 0.1342 0.1801 0.7688
C3 C 0.08952(13) 0.1377(2) 0.6109(3)
H3 H 0.0958 0.0721 0.6200
C4 C 0.16195(13) 0.1332(2) 0.4919(3)
H4 H 0.1555 0.0714 0.4784
C5 C 0.20039(14) 0.1768(3) 0.4454(3)
H5 H 0.2192 0.1450 0.3998
C6 C 0.21071(15) 0.2676(3) 0.4667(3)
H6 H 0.2370 0.2966 0.4361
C7 C 0.18269(14) 0.3165(3) 0.5328(3)
H7 H 0.1899 0.3780 0.5466
C8 C 0.14358(13) 0.2724(2) 0.5784(3)
C9 C 0.13273(13) 0.1802(2) 0.5587(3)
O2 O 0.02520(9) 0.29267(14) 0.64043(19)
C10 C 0.00418(13) 0.2290(2) 0.5596(2)
C11 C 0.03280(12) 0.15573(19) 0.5395(2)
C12 C 0.01149(13) 0.1009(2) 0.4381(3)
C13 C -0.04315(14) 0.1263(2) 0.3650(3)
H8 H -0.0607 0.0722 0.3272
H9 H -0.0378 0.1683 0.3065
C14 C -0.08070(14) 0.1697(2) 0.4315(3)
H10 H -0.0901 0.1255 0.4836
H11 H -0.1144 0.1891 0.3794
C15 C -0.05298(14) 0.2511(2) 0.4985(3)
H12 H -0.0525 0.3014 0.4467
H13 H -0.0738 0.2697 0.5532
O3 O 0.03965(10) 0.03995(16) 0.4108(2)
C16 C 0.06198(15) 0.1378(2) 0.8022(3)
O4 O 0.02392(13) 0.1703(2) 0.8307(3)
O5 O 0.08238(11) 0.05673(16) 0.8347(2)
C17 C 0.0545(2) 0.0047(3) 0.9068(4)
H14 H 0.0727 -0.0527 0.9250
H15 H 0.0171 -0.0054 0.8671
H16 H 0.0555 0.0378 0.9758
O6 O 0.39714(10) 0.34536(16) 0.0390(2)
C18 C 0.43556(14) 0.2975(2) 0.1229(3)
H17 H 0.4363 0.3257 0.1969
C19 C 0.41922(14) 0.1992(2) 0.1294(3)
H18 H 0.3812 0.1971 0.1378
C20 C 0.42101(13) 0.1574(2) 0.0135(2)
H19 H 0.4114 0.0927 0.0124
C21 C 0.34871(14) 0.1676(3) -0.1749(3)
H20 H 0.3544 0.1067 -0.1893
C22 C 0.31027(15) 0.2181(3) -0.2525(3)
H21 H 0.2902 0.1907 -0.3187
C23 C 0.30174(16) 0.3081(4) -0.2319(4)
H22 H 0.2756 0.3412 -0.2838
C24 C 0.33156(15) 0.3495(3) -0.1351(3)
H23 H 0.3262 0.4108 -0.1219
C25 C 0.36987(14) 0.2991(2) -0.0568(3)
C26 C 0.37866(13) 0.2084(2) -0.0756(3)
O7 O 0.48923(9) 0.30716(14) 0.10087(19)
C27 C 0.50856(13) 0.2398(2) 0.0425(2)
C28 C 0.47797(13) 0.1684(2) -0.0035(2)
C29 C 0.49886(15) 0.1053(2) -0.0773(3)
C30 C 0.55665(15) 0.1213(3) -0.0911(3)
H24 H 0.5730 0.0634 -0.1027
H25 H 0.5550 0.1580 -0.1587
C31 C 0.59292(15) 0.1684(3) 0.0103(3)
H26 H 0.6283 0.1816 -0.0058
H27 H 0.5989 0.1286 0.0762
C32 C 0.56632(13) 0.2567(2) 0.0368(3)
H28 H 0.5868 0.2809 0.1091
H29 H 0.5672 0.3013 -0.0220
O8 O 0.46962(12) 0.04559(18) -0.1294(2)
C33 C 0.45529(16) 0.1506(2) 0.2298(3)
O9 O 0.49751(13) 0.1792(2) 0.2870(2)
O10 O 0.43300(11) 0.07200(16) 0.2481(2)
C34 C 0.4634(2) 0.0189(3) 0.3435(3)
H30 H 0.4440 -0.0366 0.3492
H31 H 0.4673 0.0531 0.4127
H32 H 0.4992 0.0049 0.3317
O11 O 0.33627(10) 0.70285(18) 0.7246(2)
C35 C 0.30023(15) 0.6290(2) 0.7253(3)
H33 H 0.3117 0.5986 0.7994
C36 C 0.24172(14) 0.6603(2) 0.7125(3)
H34 H 0.2416 0.7073 0.7701
C37 C 0.22500(14) 0.7056(2) 0.5947(3)
H35 H 0.1868 0.7264 0.5798
C38 C 0.24712(17) 0.8655(2) 0.5357(3)
H36 H 0.2114 0.8710 0.4918
C39 C 0.2837(2) 0.9372(3) 0.5404(4)
H37 H 0.2725 0.9906 0.5004
C40 C 0.3369(2) 0.9286(3) 0.6051(4)
H38 H 0.3615 0.9765 0.6081
C41 C 0.35400(18) 0.8498(3) 0.6651(3)
H39 H 0.3899 0.8441 0.7082
C42 C 0.31671(16) 0.7793(2) 0.6602(3)
C43 C 0.26323(15) 0.7851(2) 0.5959(3)
O12 O 0.30579(10) 0.56516(17) 0.6393(2)
C44 C 0.27112(14) 0.5720(2) 0.5342(3)
C45 C 0.23188(13) 0.6359(2) 0.5077(3)
C46 C 0.19714(15) 0.6400(3) 0.3925(3)
C47 C 0.2059(2) 0.5706(3) 0.3084(4)
H40 H 0.1703 0.5454 0.2718
H41 H 0.2198 0.6016 0.2499
C48 C 0.2409(2) 0.4987(3) 0.3483(4)
H42 H 0.2600 0.4851 0.2889
H43 H 0.2176 0.4467 0.3528
C49 C 0.2828(2) 0.5007(3) 0.4556(4)
H44 H 0.3184 0.5122 0.4395
H45 H 0.2842 0.4419 0.4925
O13 O 0.16218(12) 0.6991(2) 0.3655(2)
C50 C 0.20403(15) 0.5850(2) 0.7315(3)
O14 O 0.21903(12) 0.51085(19) 0.7671(3)
O15 O 0.15258(11) 0.61206(17) 0.7093(2)
C51 C 0.11240(17) 0.5515(3) 0.7400(4)
H46 H 0.0767 0.5789 0.7192
H47 H 0.1221 0.5407 0.8208
H48 H 0.1120 0.4948 0.7003
loop_
_geom_bond_atom_site_label_1
_geom_bond_atom_site_label_2
_geom_bond_site_symmetry_1
_geom_bond_site_symmetry_2
O1 C1 1_555 1_555
C1 H1 1_555 1_555
C2 C1 1_555 1_555
H2 C2 1_555 1_555
C3 C2 1_555 1_555
H3 C3 1_555 1_555
C4 H4 1_555 1_555
C5 C4 1_555 1_555
H5 C5 1_555 1_555
C6 C5 1_555 1_555
H6 C6 1_555 1_555
C7 C6 1_555 1_555
H7 C7 1_555 1_555
C8 O1 1_555 1_555
C9 C3 1_555 1_555
O2 C1 1_555 1_555
C10 O2 1_555 1_555
C11 C3 1_555 1_555
C12 C11 1_555 1_555
C13 C12 1_555 1_555
H8 C13 1_555 1_555
H9 C13 1_555 1_555
C14 C13 1_555 1_555
H10 C14 1_555 1_555
H11 C14 1_555 1_555
C15 C10 1_555 1_555
H12 C15 1_555 1_555
H13 C15 1_555 1_555
O3 C12 1_555 1_555
C16 C2 1_555 1_555
O4 C16 1_555 1_555
O5 C16 1_555 1_555
C17 O5 1_555 1_555
H14 C17 1_555 1_555
H15 C17 1_555 1_555
H16 C17 1_555 1_555
O6 C18 1_555 1_555
C18 H17 1_555 1_555
C19 C18 1_555 1_555
H18 C19 1_555 1_555
C20 C19 1_555 1_555
H19 C20 1_555 1_555
C21 H20 1_555 1_555
C22 C21 1_555 1_555
H21 C22 1_555 1_555
C23 C22 1_555 1_555
H22 C23 1_555 1_555
C24 C23 1_555 1_555
H23 C24 1_555 1_555
C25 O6 1_555 1_555
C26 C20 1_555 1_555
O7 C18 1_555 1_555
C27 O7 1_555 1_555
C28 C20 1_555 1_555
C29 C28 1_555 1_555
C30 C29 1_555 1_555
H24 C30 1_555 1_555
H25 C30 1_555 1_555
C31 C30 1_555 1_555
H26 C31 1_555 1_555
H27 C31 1_555 1_555
C32 C27 1_555 1_555
H28 C32 1_555 1_555
H29 C32 1_555 1_555
O8 C29 1_555 1_555
C33 C19 1_555 1_555
O9 C33 1_555 1_555
O10 C33 1_555 1_555
C34 O10 1_555 1_555
H30 C34 1_555 1_555
H31 C34 1_555 1_555
H32 C34 1_555 1_555
O11 C35 1_555 1_555
C35 H33 1_555 1_555
C36 C35 1_555 1_555
H34 C36 1_555 1_555
C37 C36 1_555 1_555
H35 C37 1_555 1_555
C38 H36 1_555 1_555
C39 C38 1_555 1_555
H37 C39 1_555 1_555
C40 C39 1_555 1_555
H38 C40 1_555 1_555
C41 C40 1_555 1_555
H39 C41 1_555 1_555
C42 O11 1_555 1_555
C43 C37 1_555 1_555
O12 C35 1_555 1_555
C44 O12 1_555 1_555
C45 C37 1_555 1_555
C46 C45 1_555 1_555
C47 C46 1_555 1_555
H40 C47 1_555 1_555
H41 C47 1_555 1_555
C48 C47 1_555 1_555
H42 C48 1_555 1_555
H43 C48 1_555 1_555
C49 C44 1_555 1_555
H44 C49 1_555 1_555
H45 C49 1_555 1_555
O13 C46 1_555 1_555
C50 C36 1_555 1_555
O14 C50 1_555 1_555
O15 C50 1_555 1_555
C51 O15 1_555 1_555
H46 C51 1_555 1_555
H47 C51 1_555 1_555
H48 C51 1_555 1_555
C4 C9 1_555 1_555
C7 C8 1_555 1_555
C8 C9 1_555 1_555
C10 C11 1_555 1_555
C14 C15 1_555 1_555
C21 C26 1_555 1_555
C24 C25 1_555 1_555
C25 C26 1_555 1_555
C27 C28 1_555 1_555
C31 C32 1_555 1_555
C38 C43 1_555 1_555
C41 C42 1_555 1_555
C42 C43 1_555 1_555
C44 C45 1_555 1_555
C48 C49 1_555 1_555

#END
