
#######################################################################
#
#                 Cambridge Crystallographic Data Centre
#                                CCDC 
#
#######################################################################
#
# If this CIF has been generated from an entry in the Cambridge 
# Structural Database, then it will include bibliographic, chemical, 
# crystal, experimental, refinement or atomic coordinate data resulting 
# from the CCDC's data processing and validation procedures.
#
#######################################################################

data_KITTUD
_chemical_formula_moiety         'C19 H21 Br1 O4'
_chemical_name_systematic        
'Ethyl 4,6-dimethyl-5-(2-bromoethyl)-3-phenoxysalicylate'
_symmetry_cell_setting           triclinic
_symmetry_space_group_name_H-M   'P -1'
_symmetry_Int_Tables_number      2
_space_group_name_Hall           '-P 1'
loop_
_symmetry_equiv_pos_site_id
_symmetry_equiv_pos_as_xyz
1 x,y,z
2 -x,-y,-z
_cell_length_a                   9.2053(3)
_cell_length_b                   9.4398(3)
_cell_length_c                   11.5253(3)
_cell_angle_alpha                72.805(1)
_cell_angle_beta                 75.531(1)
_cell_angle_gamma                68.299(2)
_cell_volume                     877.719
_exptl_crystal_colour            colorless
_exptl_crystal_description       prism
_chemical_melting_point          '376 K'
_cell_formula_units_Z            2
loop_
_atom_site_label
_atom_site_type_symbol
_atom_site_fract_x
_atom_site_fract_y
_atom_site_fract_z
Br1 Br 1.45225(2) 0.71098(2) 0.028739(16)
O1 O 0.57170(16) 0.53762(16) 0.37455(13)
O2 O 0.78048(16) 0.41919(17) 0.25122(16)
O3 O 0.68399(14) 0.58653(13) 0.54972(11)
H1 H 0.6196 0.5619 0.5255
O4 O 0.89004(13) 0.68807(12) 0.59750(10)
C1 C 0.80401(17) 0.60975(16) 0.33335(14)
C2 C 0.78905(17) 0.62848(16) 0.45240(14)
C3 C 0.89275(17) 0.68960(16) 0.47638(13)
C4 C 1.00470(17) 0.73880(16) 0.38463(14)
C5 C 1.01273(18) 0.72888(17) 0.26336(14)
C6 C 0.91297(18) 0.66426(17) 0.23727(14)
C7 C 0.70562(19) 0.52280(17) 0.32008(15)
C8 C 0.6939(3) 0.3213(3) 0.2425(4)
H2 H 0.6132 0.3117 0.3169
H3 H 0.6388 0.3707 0.1700
C9 C 0.8022(4) 0.1677(3) 0.2313(3)
H4 H 0.8518 0.1166 0.3055
H5 H 0.8842 0.1779 0.1594
H6 H 0.7441 0.1046 0.2215
C10 C 0.77890(17) 0.80793(16) 0.64765(14)
C11 C 0.7826(2) 0.79871(18) 0.76922(15)
H7 H 0.8575 0.7132 0.8129
C12 C 0.6753(2) 0.9162(2) 0.82656(16)
H8 H 0.6773 0.9110 0.9098
C13 C 0.5658(2) 1.0407(2) 0.76283(19)
H9 H 0.4916 1.1199 0.8025
C14 C 0.5650(2) 1.0489(2) 0.64153(19)
H10 H 0.4904 1.1348 0.5978
C15 C 0.67211(19) 0.93302(18) 0.58197(16)
H11 H 0.6718 0.9398 0.4981
C16 C 1.1132(2) 0.80271(19) 0.41767(17)
H12 H 1.0950 0.7911 0.5070
H13 H 1.0915 0.9137 0.3768
H14 H 1.2236 0.7448 0.3907
C17 C 1.1366(2) 0.78091(19) 0.16339(16)
H15 H 1.1571 0.8670 0.1821
H16 H 1.0973 0.8205 0.0835
C18 C 1.2892(2) 0.6443(2) 0.15480(17)
H17 H 1.2690 0.5593 0.1342
H18 H 1.3268 0.6030 0.2354
C19 C 0.9175(2) 0.6599(2) 0.10639(17)
H19 H 0.9179 0.7616 0.0519
H20 H 0.8240 0.6371 0.1012
H21 H 1.0135 0.5782 0.0811
loop_
_geom_bond_atom_site_label_1
_geom_bond_atom_site_label_2
_geom_bond_site_symmetry_1
_geom_bond_site_symmetry_2
Br1 C18 1_555 1_555
O1 C7 1_555 1_555
O2 C7 1_555 1_555
O3 H1 1_555 1_555
O4 C3 1_555 1_555
C1 C2 1_555 1_555
C2 O3 1_555 1_555
C3 C2 1_555 1_555
C4 C3 1_555 1_555
C5 C4 1_555 1_555
C6 C1 1_555 1_555
C7 C1 1_555 1_555
C8 O2 1_555 1_555
H2 C8 1_555 1_555
H3 C8 1_555 1_555
C9 C8 1_555 1_555
H4 C9 1_555 1_555
H5 C9 1_555 1_555
H6 C9 1_555 1_555
C10 O4 1_555 1_555
C11 C10 1_555 1_555
H7 C11 1_555 1_555
C12 C11 1_555 1_555
H8 C12 1_555 1_555
C13 C12 1_555 1_555
H9 C13 1_555 1_555
C14 C13 1_555 1_555
H10 C14 1_555 1_555
C15 C10 1_555 1_555
H11 C15 1_555 1_555
C16 C4 1_555 1_555
H12 C16 1_555 1_555
H13 C16 1_555 1_555
H14 C16 1_555 1_555
C17 C5 1_555 1_555
H15 C17 1_555 1_555
H16 C17 1_555 1_555
C18 C17 1_555 1_555
H17 C18 1_555 1_555
H18 C18 1_555 1_555
C19 C6 1_555 1_555
H19 C19 1_555 1_555
H20 C19 1_555 1_555
H21 C19 1_555 1_555
C5 C6 1_555 1_555
C14 C15 1_555 1_555

#END
