
#######################################################################
#
#                 Cambridge Crystallographic Data Centre
#                                CCDC 
#
#######################################################################
#
# If this CIF has been generated from an entry in the Cambridge 
# Structural Database, then it will include bibliographic, chemical, 
# crystal, experimental, refinement or atomic coordinate data resulting 
# from the CCDC's data processing and validation procedures.
#
#######################################################################

data_KIVCOK
_chemical_formula_moiety         'C92 H42 N2 O2'
_chemical_name_systematic        
(2-[2',5'-bis(hexyloxy)-4'-(pyridin-4-yl)[1,1'-biphenyl]-4-yl]-1-methylpyrrolidine-3,4-diyl)-1,2-diyl-C60-fullerene
_symmetry_cell_setting           monoclinic
_symmetry_space_group_name_H-M   'P 21/n'
_symmetry_Int_Tables_number      14
_space_group_name_Hall           '-P 2yn'
loop_
_symmetry_equiv_pos_site_id
_symmetry_equiv_pos_as_xyz
1 x,y,z
2 1/2-x,1/2+y,1/2-z
3 -x,-y,-z
4 1/2+x,1/2-y,1/2+z
_cell_length_a                   18.0059(11)
_cell_length_b                   9.9966(6)
_cell_length_c                   32.4734(19)
_cell_angle_alpha                90
_cell_angle_beta                 100.570(3)
_cell_angle_gamma                90
_cell_volume                     5745.96
_exptl_crystal_colour            black
_exptl_crystal_description       block
_cell_formula_units_Z            4
loop_
_atom_site_label
_atom_site_type_symbol
_atom_site_fract_x
_atom_site_fract_y
_atom_site_fract_z
O1 O 0.3542(3) -0.5140(5) 0.47293(15)
O2 O 0.4927(3) -0.5930(7) 0.63808(18)
N1 N 0.1982(3) 0.1082(6) 0.46457(16)
N2 N 0.5645(4) -1.0608(7) 0.6000(2)
C1 C 0.2132(4) 0.1378(6) 0.53797(18)
C2 C 0.1551(8) 0.2557(12) 0.5143(4)
C3 C 0.1710(4) 0.3887(6) 0.53595(19)
C4 C 0.2327(4) 0.4178(5) 0.56637(18)
C5 C 0.2826(5) 0.3124(10) 0.5878(2)
C6 C 0.2696(8) 0.1834(13) 0.5759(2)
C7 C 0.2757(4) 0.0828(6) 0.6086(2)
C8 C 0.2194(9) -0.0125(17) 0.5960(6)
C9 C 0.1735(3) 0.0241(5) 0.55632(17)
C10 C 0.0973(4) 0.0046(8) 0.5493(2)
C11 C 0.0465(7) 0.1124(9) 0.5284(4)
C12 C 0.0756(5) 0.2302(7) 0.5163(2)
C13 C 0.0413(6) 0.3562(8) 0.5239(3)
C14 C 0.1010(5) 0.4522(7) 0.5360(2)
C15 C 0.0934(5) 0.5493(7) 0.5656(3)
C16 C 0.1567(4) 0.5836(6) 0.5970(2)
C17 C 0.2203(9) 0.521(3) 0.5969(8)
C18 C 0.2693(3) 0.4775(6) 0.63717(19)
C19 C 0.3056(4) 0.3496(6) 0.6319(2)
C20 C 0.3148(9) 0.2514(18) 0.6608(4)
C21 C 0.2985(4) 0.1152(7) 0.6510(2)
C22 C 0.2634(4) 0.0548(8) 0.6821(2)
C23 C 0.2058(7) -0.0399(7) 0.6707(2)
C24 C 0.1834(4) -0.0753(6) 0.6267(2)
C25 C 0.1022(5) -0.0960(6) 0.6183(2)
C26 C 0.0592(5) -0.0549(6) 0.5808(2)
C27 C -0.0121(5) 0.0113(8) 0.5790(2)
C28 C -0.0192(4) 0.1144(9) 0.5471(3)
C29 C -0.0550(5) 0.2358(8) 0.5535(3)
C30 C -0.0230(6) 0.3579(9) 0.5413(2)
C31 C -0.0303(4) 0.4618(8) 0.5728(2)
C32 C 0.0266(5) 0.5539(7) 0.5841(2)
C33 C 0.0487(4) 0.5883(5) 0.6280(2)
C34 C 0.1284(5) 0.6079(6) 0.6361(2)
C35 C 0.1711(6) 0.5689(7) 0.6736(2)
C36 C 0.2434(5) 0.5021(8) 0.6746(2)
C37 C 0.2520(4) 0.4005(8) 0.7071(2)
C38 C 0.2865(4) 0.2784(8) 0.7013(2)
C39 C 0.2542(4) 0.1554(8) 0.7135(2)
C40 C 0.1912(5) 0.1571(8) 0.7313(2)
C41 C 0.1315(5) 0.0596(8) 0.7191(2)
C42 C 0.1382(6) -0.0380(8) 0.6894(3)
C43 C 0.0752(4) -0.0721(5) 0.6574(2)
C44 C 0.0052(11) -0.013(2) 0.6558(7)
C45 C -0.0376(4) 0.0320(6) 0.6169(2)
C46 C -0.0749(3) 0.1604(8) 0.6221(2)
C47 C -0.0824(10) 0.2630(13) 0.5917(6)
C48 C -0.0685(4) 0.3965(8) 0.6039(2)
C49 C -0.0459(4) 0.4316(7) 0.6459(2)
C50 C 0.0099(12) 0.528(2) 0.6567(5)
C51 C 0.0580(4) 0.4877(6) 0.69766(19)
C52 C 0.1349(4) 0.5067(8) 0.7054(3)
C53 C 0.1845(5) 0.4016(7) 0.7257(2)
C54 C 0.1556(4) 0.2850(8) 0.7381(2)
C55 C 0.0763(8) 0.2558(13) 0.7302(5)
C56 C 0.0594(5) 0.1245(8) 0.7178(2)
C57 C -0.0018(4) 0.0911(7) 0.6873(2)
C58 C -0.0512(6) 0.1973(12) 0.6669(3)
C59 C -0.0373(6) 0.3318(11) 0.6776(3)
C60 C 0.0266(4) 0.3642(8) 0.7100(2)
C61 C 0.1693(10) 0.2542(13) 0.4684(6)
H1 H 0.2080 0.3208 0.4642
H2 H 0.1222 0.2713 0.4480
C62 C 0.2257(5) 0.0889(8) 0.4254(2)
H3 H 0.1833 0.0957 0.4018
H4 H 0.2488 0.0002 0.4254
H5 H 0.2633 0.1576 0.4228
C63 C 0.2554(3) 0.0894(6) 0.50182(18)
H6 H 0.2975 0.1534 0.5004
C64 C 0.2889(4) -0.0487(6) 0.5092(2)
C65 C 0.2475(4) -0.1646(7) 0.4947(2)
H7 H 0.1983 -0.1570 0.4783
C66 C 0.2794(5) -0.2905(9) 0.5045(3)
H8 H 0.2524 -0.3687 0.4940
C67 C 0.3504(4) -0.3020(8) 0.5296(2)
C68 C 0.3904(4) -0.1865(8) 0.5442(2)
H9 H 0.4391 -0.1933 0.5613
C69 C 0.3586(5) -0.0607(9) 0.5334(3)
H10 H 0.3862 0.0176 0.5432
C70 C 0.3867(5) -0.4329(11) 0.5423(3)
C71 C 0.3913(4) -0.5365(7) 0.5134(2)
C72 C 0.4304(3) -0.6528(7) 0.5270(2)
H11 H 0.4347 -0.7209 0.5071
C73 C 0.4632(4) -0.6722(8) 0.5682(2)
C74 C 0.4584(3) -0.5701(8) 0.5976(2)
C75 C 0.4212(3) -0.4524(7) 0.5839(2)
H12 H 0.4192 -0.3827 0.6036
C76 C 0.5009(4) -0.8020(9) 0.5808(2)
C77 C 0.5442(4) -0.8673(7) 0.5554(2)
H13 H 0.5534 -0.8252 0.5306
C78 C 0.5736(4) -0.9921(8) 0.5660(3)
H14 H 0.6027 -1.0326 0.5477
C79 C 0.5247(5) -0.9974(9) 0.6249(3)
H15 H 0.5183 -1.0414 0.6500
C80 C 0.4918(4) -0.8720(10) 0.6170(3)
H16 H 0.4634 -0.8339 0.6360
C81 C 0.3748(4) -0.5896(7) 0.4396(2)
H17 H 0.3683 -0.6865 0.4442
H18 H 0.4283 -0.5729 0.4377
C82 C 0.3226(7) -0.5441(8) 0.3991(2)
H19 H 0.3365 -0.5938 0.3753
H20 H 0.2701 -0.5691 0.4009
C83 C 0.3246(7) -0.3973(9) 0.3899(3)
H21 H 0.3768 -0.3730 0.3872
H22 H 0.3124 -0.3476 0.4142
C84 C 0.2711(6) -0.3504(12) 0.3505(3)
H23 H 0.2180 -0.3687 0.3529
H24 H 0.2821 -0.3978 0.3256
C85 C 0.2837(10) -0.1998(13) 0.3467(5)
H25 H 0.3384 -0.1824 0.3488
H26 H 0.2668 -0.1532 0.3702
C86 C 0.2410(10) -0.143(2) 0.3052(6)
H27 H 0.2588 -0.0518 0.3014
H28 H 0.1868 -0.1409 0.3057
H29 H 0.2502 -0.1994 0.2820
C87 C 0.4965(4) -0.4790(10) 0.6664(2)
H30 H 0.4463 -0.4614 0.6736
H31 H 0.5131 -0.3979 0.6531
C88 C 0.5520(5) -0.5144(12) 0.7045(3)
H32 H 0.5559 -0.4391 0.7246
H33 H 0.6022 -0.5268 0.6967
C89 C 0.5312(7) -0.6414(12) 0.7260(3)
H34 H 0.5255 -0.7186 0.7066
H35 H 0.4838 -0.6293 0.7369
C90 C 0.5995(8) -0.6608(12) 0.7621(3)
H36 H 0.6469 -0.6433 0.7516
H37 H 0.5963 -0.5957 0.7847
C91 C 0.6011(11) -0.7999(16) 0.7793(6)
H38 H 0.6056 -0.8655 0.7571
H39 H 0.5537 -0.8184 0.7897
C92 C 0.6693(11) -0.8130(19) 0.8156(6)
H40 H 0.6960 -0.8969 0.8127
H41 H 0.6516 -0.8128 0.8424
H42 H 0.7038 -0.7374 0.8148
O3? O 0.3583(11) 1.0143(19) 0.4723(5)
O4? O 0.4909(13) 1.094(3) 0.6394(7)
N3? N 0.1968(11) 0.394(2) 0.4648(6)
N4? N 0.5695(13) 1.557(3) 0.6022(8)
C93? C 0.2101(13) 0.367(2) 0.5373(7)
C94? C 0.166(2) 0.236(4) 0.5181(13)
C95? C 0.1680(12) 0.1139(18) 0.5362(5)
C96? C 0.2292(10) 0.0830(17) 0.5676(6)
C97? C 0.274(2) 0.175(4) 0.5875(9)
C98? C 0.2662(18) 0.327(4) 0.5762(9)
C99? C 0.2778(11) 0.4175(18) 0.6097(6)
C100? C 0.234(3) 0.514(8) 0.600(3)
C101? C 0.1749(11) 0.4789(17) 0.5567(5)
C102? C 0.0969(13) 0.500(3) 0.5482(8)
C103? C 0.0484(19) 0.400(3) 0.5300(8)
C104? C 0.0681(17) 0.278(3) 0.5180(8)
C105? C 0.036(2) 0.149(3) 0.5249(13)
C106? C 0.0923(17) 0.052(2) 0.5387(8)
C107? C 0.0862(15) -0.045(2) 0.5680(8)
C108? C 0.1509(13) -0.0793(18) 0.5980(7)
C109? C 0.209(3) -0.026(6) 0.598(2)
C110? C 0.2664(11) 0.028(2) 0.6374(6)
C111? C 0.3030(12) 0.146(2) 0.6330(7)
C112? C 0.309(3) 0.258(6) 0.6683(14)
C113? C 0.2979(11) 0.388(2) 0.6506(7)
C114? C 0.2635(13) 0.448(3) 0.6830(9)
C115? C 0.207(2) 0.548(3) 0.6710(8)
C116? C 0.1864(12) 0.5831(18) 0.6270(7)
C117? C 0.1071(15) 0.601(2) 0.6176(8)
C118? C 0.0622(16) 0.5697(19) 0.5807(7)
C119? C -0.0066(15) 0.510(2) 0.5815(7)
C120? C -0.0206(18) 0.400(3) 0.5500(9)
C121? C -0.0569(18) 0.286(3) 0.5549(10)
C122? C -0.0342(17) 0.157(3) 0.5443(10)
C123? C -0.0373(14) 0.062(3) 0.5737(8)
C124? C 0.0147(16) -0.040(2) 0.5852(7)
C125? C 0.0435(13) -0.0766(18) 0.6296(7)
C126? C 0.1261(16) -0.096(2) 0.6342(8)
C127? C 0.1649(18) -0.060(2) 0.6742(9)
C128? C 0.2397(17) -0.002(3) 0.6729(8)
C129? C 0.2508(13) 0.098(3) 0.7050(8)
C130? C 0.2839(13) 0.215(3) 0.7006(7)
C131? C 0.2589(15) 0.343(3) 0.7121(7)
C132? C 0.1945(16) 0.351(3) 0.7316(7)
C133? C 0.1384(15) 0.455(2) 0.7189(7)
C134? C 0.1407(16) 0.547(2) 0.6895(9)
C135? C 0.0763(12) 0.5824(17) 0.6579(6)
C136? C 0.018(4) 0.528(9) 0.663(2)
C137? C -0.0379(12) 0.481(2) 0.6167(7)
C138? C -0.0762(11) 0.354(2) 0.6239(7)
C139? C -0.087(4) 0.238(5) 0.596(2)
C140? C -0.0692(11) 0.111(2) 0.6052(7)
C141? C -0.0496(11) 0.086(2) 0.6475(6)
C142? C 0.015(4) -0.006(7) 0.660(2)
C143? C 0.0540(12) 0.0257(19) 0.6987(6)
C144? C 0.1309(15) 0.002(3) 0.7044(9)
C145? C 0.1795(17) 0.104(3) 0.7258(7)
C146? C 0.1572(15) 0.224(2) 0.7380(6)
C147? C 0.065(3) 0.279(5) 0.7293(17)
C148? C 0.0610(14) 0.386(2) 0.7178(7)
C149? C -0.0016(12) 0.425(2) 0.6868(6)
C150? C -0.053(2) 0.313(4) 0.6678(10)
C151? C -0.038(2) 0.177(4) 0.6789(9)
C152? C 0.0254(14) 0.149(2) 0.7112(8)
C153? C 0.180(3) 0.225(4) 0.4707(16)
H43? H 0.1348 0.1933 0.4510
H44? H 0.2242 0.1690 0.4683
C154? C 0.2255(17) 0.411(2) 0.4251(7)
H45? H 0.2579 0.3356 0.4211
H46? H 0.2548 0.4945 0.4265
H47? H 0.1829 0.4161 0.4016
C155? C 0.2553(14) 0.411(2) 0.5035(7)
H48? H 0.2967 0.3449 0.5028
C156? C 0.2898(13) 0.550(2) 0.5090(7)
C157? C 0.2472(16) 0.664(3) 0.4940(8)
H49? H 0.1983 0.6545 0.4773
C158? C 0.2758(14) 0.785(3) 0.5032(8)
H50? H 0.2463 0.8618 0.4935
C159? C 0.3540(17) 0.805(3) 0.5289(10)
C160? C 0.3884(17) 0.680(3) 0.5426(9)
H51? H 0.4355 0.6864 0.5613
C161? C 0.3639(19) 0.558(4) 0.5328(11)
H52? H 0.3937 0.4804 0.5411
C162? C 0.3855(16) 0.928(3) 0.5407(12)
C163? C 0.3933(14) 1.038(2) 0.5155(8)
C164? C 0.4344(14) 1.151(3) 0.5277(8)
H53? H 0.4406 1.2177 0.5079
C165? C 0.4668(16) 1.165(3) 0.5697(10)
C166? C 0.4575(15) 1.071(3) 0.5979(10)
C167? C 0.4209(13) 0.952(2) 0.5839(9)
H54? H 0.4192 0.8829 0.6038
C168? C 0.5000(16) 1.303(3) 0.5810(9)
C169? C 0.5484(13) 1.366(3) 0.5575(9)
H55? H 0.5611 1.3202 0.5341
C170? C 0.5778(17) 1.490(3) 0.5670(11)
H56? H 0.6053 1.5313 0.5481
C171? C 0.5254(17) 1.491(4) 0.6254(10)
H57? H 0.5150 1.5353 0.6496
C172? C 0.4959(18) 1.372(4) 0.6178(11)
H58? H 0.4711 1.3308 0.6379
C173? C 0.375(2) 1.089(2) 0.4406(7)
H59? H 0.4285 1.0744 0.4384
H60? H 0.3690 1.1850 0.4471
C174? C 0.325(2) 1.058(2) 0.3984(8)
H61? H 0.2737 1.0917 0.3987
H62? H 0.3452 1.1069 0.3763
C175? C 0.320(2) 0.910(2) 0.3866(8)
H63? H 0.3012 0.8588 0.4088
H64? H 0.3704 0.8757 0.3845
C176? C 0.266(2) 0.888(3) 0.3446(9)
H65? H 0.2137 0.9120 0.3479
H66? H 0.2803 0.9488 0.3234
C177? C 0.266(2) 0.744(3) 0.3288(7)
H67? H 0.2459 0.6840 0.3484
H68? H 0.3186 0.7164 0.3283
C178? C 0.2184(19) 0.727(4) 0.2847(8)
H69? H 0.2425 0.7744 0.2644
H70? H 0.1677 0.7629 0.2842
H71? H 0.2147 0.6313 0.2775
C179? C 0.4940(13) 0.964(3) 0.6645(6)
H72? H 0.5090 0.8880 0.6484
H73? H 0.4443 0.9445 0.6721
C180? C 0.5534(14) 0.991(3) 0.7035(7)
H74? H 0.6042 0.9940 0.6959
H75? H 0.5529 0.9182 0.7241
C181? C 0.5373(16) 1.125(3) 0.7232(7)
H76? H 0.4932 1.1150 0.7372
H77? H 0.5253 1.1936 0.7011
C182? C 0.6065(15) 1.167(3) 0.7551(8)
H78? H 0.6276 1.0891 0.7720
H79? H 0.6459 1.2022 0.7403
C183? C 0.5843(18) 1.275(4) 0.7838(9)
H80? H 0.5513 1.2365 0.8020
H81? H 0.5558 1.3472 0.7667
C184? C 0.656(2) 1.334(5) 0.8110(14)
H82? H 0.7007 1.2955 0.8025
H83? H 0.6563 1.3128 0.8405
H84? H 0.6563 1.4315 0.8074
loop_
_geom_bond_atom_site_label_1
_geom_bond_atom_site_label_2
_geom_bond_site_symmetry_1
_geom_bond_site_symmetry_2
O1 C71 1_555 1_555
O2 C74 1_555 1_555
N1 C61 1_555 1_555
N2 C78 1_555 1_555
C1 C2 1_555 1_555
C2 C3 1_555 1_555
C3 C4 1_555 1_555
C4 C5 1_555 1_555
C5 C6 1_555 1_555
C6 C1 1_555 1_555
C7 C6 1_555 1_555
C8 C7 1_555 1_555
C9 C1 1_555 1_555
C10 C9 1_555 1_555
C11 C10 1_555 1_555
C12 C2 1_555 1_555
C13 C12 1_555 1_555
C14 C3 1_555 1_555
C15 C14 1_555 1_555
C16 C15 1_555 1_555
C17 C4 1_555 1_555
C18 C17 1_555 1_555
C19 C5 1_555 1_555
C20 C19 1_555 1_555
C21 C7 1_555 1_555
C22 C21 1_555 1_555
C23 C22 1_555 1_555
C24 C8 1_555 1_555
C25 C24 1_555 1_555
C26 C10 1_555 1_555
C27 C26 1_555 1_555
C28 C11 1_555 1_555
C29 C28 1_555 1_555
C30 C13 1_555 1_555
C31 C30 1_555 1_555
C32 C15 1_555 1_555
C33 C32 1_555 1_555
C34 C16 1_555 1_555
C35 C34 1_555 1_555
C36 C18 1_555 1_555
C37 C36 1_555 1_555
C38 C20 1_555 1_555
C39 C22 1_555 1_555
C40 C39 1_555 1_555
C41 C40 1_555 1_555
C42 C23 1_555 1_555
C43 C25 1_555 1_555
C44 C43 1_555 1_555
C45 C27 1_555 1_555
C46 C45 1_555 1_555
C47 C29 1_555 1_555
C48 C31 1_555 1_555
C49 C48 1_555 1_555
C50 C33 1_555 1_555
C51 C50 1_555 1_555
C52 C35 1_555 1_555
C53 C37 1_555 1_555
C54 C40 1_555 1_555
C55 C54 1_555 1_555
C56 C41 1_555 1_555
C57 C44 1_555 1_555
C58 C46 1_555 1_555
C59 C49 1_555 1_555
C60 C51 1_555 1_555
C61 C2 1_555 1_555
H1 C61 1_555 1_555
H2 C61 1_555 1_555
C62 N1 1_555 1_555
H3 C62 1_555 1_555
H4 C62 1_555 1_555
H5 C62 1_555 1_555
C63 N1 1_555 1_555
H6 C63 1_555 1_555
C64 C63 1_555 1_555
C65 C64 1_555 1_555
H7 C65 1_555 1_555
C66 C65 1_555 1_555
H8 C66 1_555 1_555
C67 C66 1_555 1_555
C68 C67 1_555 1_555
H9 C68 1_555 1_555
C69 C64 1_555 1_555
H10 C69 1_555 1_555
C70 C67 1_555 1_555
C71 C70 1_555 1_555
C72 C71 1_555 1_555
H11 C72 1_555 1_555
C73 C72 1_555 1_555
C74 C73 1_555 1_555
C75 C70 1_555 1_555
H12 C75 1_555 1_555
C76 C73 1_555 1_555
C77 C76 1_555 1_555
H13 C77 1_555 1_555
C78 C77 1_555 1_555
H14 C78 1_555 1_555
C79 N2 1_555 1_555
H15 C79 1_555 1_555
C80 C76 1_555 1_555
H16 C80 1_555 1_555
C81 O1 1_555 1_555
H17 C81 1_555 1_555
H18 C81 1_555 1_555
C82 C81 1_555 1_555
H19 C82 1_555 1_555
H20 C82 1_555 1_555
C83 C82 1_555 1_555
H21 C83 1_555 1_555
H22 C83 1_555 1_555
C84 C83 1_555 1_555
H23 C84 1_555 1_555
H24 C84 1_555 1_555
C85 C84 1_555 1_555
H25 C85 1_555 1_555
H26 C85 1_555 1_555
C86 C85 1_555 1_555
H27 C86 1_555 1_555
H28 C86 1_555 1_555
H29 C86 1_555 1_555
C87 O2 1_555 1_555
H30 C87 1_555 1_555
H31 C87 1_555 1_555
C88 C87 1_555 1_555
H32 C88 1_555 1_555
H33 C88 1_555 1_555
C89 C88 1_555 1_555
H34 C89 1_555 1_555
H35 C89 1_555 1_555
C90 C89 1_555 1_555
H36 C90 1_555 1_555
H37 C90 1_555 1_555
C91 C90 1_555 1_555
H38 C91 1_555 1_555
H39 C91 1_555 1_555
C92 C91 1_555 1_555
H40 C92 1_555 1_555
H41 C92 1_555 1_555
H42 C92 1_555 1_555
C1 C63 1_555 1_555
C8 C9 1_555 1_555
C11 C12 1_555 1_555
C13 C14 1_555 1_555
C16 C17 1_555 1_555
C18 C19 1_555 1_555
C20 C21 1_555 1_555
C23 C24 1_555 1_555
C25 C26 1_555 1_555
C27 C28 1_555 1_555
C29 C30 1_555 1_555
C31 C32 1_555 1_555
C33 C34 1_555 1_555
C35 C36 1_555 1_555
C37 C38 1_555 1_555
C38 C39 1_555 1_555
C41 C42 1_555 1_555
C42 C43 1_555 1_555
C44 C45 1_555 1_555
C46 C47 1_555 1_555
C47 C48 1_555 1_555
C49 C50 1_555 1_555
C51 C52 1_555 1_555
C52 C53 1_555 1_555
C53 C54 1_555 1_555
C55 C56 1_555 1_555
C55 C60 1_555 1_555
C56 C57 1_555 1_555
C57 C58 1_555 1_555
C58 C59 1_555 1_555
C59 C60 1_555 1_555
C68 C69 1_555 1_555
C74 C75 1_555 1_555
C79 C80 1_555 1_555

#END
