
#######################################################################
#
#                 Cambridge Crystallographic Data Centre
#                                CCDC 
#
#######################################################################
#
# If this CIF has been generated from an entry in the Cambridge 
# Structural Database, then it will include bibliographic, chemical, 
# crystal, experimental, refinement or atomic coordinate data resulting 
# from the CCDC's data processing and validation procedures.
#
#######################################################################

data_KIVCUQ01
_chemical_formula_moiety         'C14 H10 O1 S1'
_chemical_name_systematic        dibenzo[c,e]oxepine-5(7H)-thione
_symmetry_cell_setting           orthorhombic
_symmetry_space_group_name_H-M   'P b c a'
_symmetry_Int_Tables_number      61
_space_group_name_Hall           '-P 2ac 2ab'
loop_
_symmetry_equiv_pos_site_id
_symmetry_equiv_pos_as_xyz
1 x,y,z
2 1/2-x,-y,1/2+z
3 -x,1/2+y,1/2-z
4 1/2+x,1/2-y,-z
5 -x,-y,-z
6 1/2+x,y,1/2-z
7 x,1/2-y,1/2+z
8 1/2-x,1/2+y,z
_cell_length_a                   10.5812(19)
_cell_length_b                   13.097(2)
_cell_length_c                   15.615(2)
_cell_angle_alpha                90
_cell_angle_beta                 90
_cell_angle_gamma                90
_cell_volume                     2163.96
_exptl_crystal_colour            yellow
_exptl_crystal_description       needle
_cell_formula_units_Z            8
loop_
_atom_site_label
_atom_site_type_symbol
_atom_site_fract_x
_atom_site_fract_y
_atom_site_fract_z
S1 S 0.86543(2) 0.25758(2) 0.27319(2)
O1 O 0.72855(6) 0.41189(5) 0.30943(4)
C1 C 0.63981(7) 0.37836(6) 0.49274(5)
C2 C 0.64848(7) 0.25172(6) 0.36937(5)
C3 C 0.64407(7) 0.46860(6) 0.44430(5)
C4 C 0.60445(7) 0.28100(6) 0.45129(4)
C5 C 0.52360(7) 0.21401(6) 0.49535(5)
C6 C 0.66455(8) 0.38325(6) 0.58094(5)
C7 C 0.61026(8) 0.15762(7) 0.33495(5)
C8 C 0.52799(8) 0.09422(7) 0.37838(6)
C9 C 0.48431(8) 0.12247(6) 0.45926(6)
C10 C 0.67191(8) 0.56149(6) 0.48358(5)
C11 C 0.62027(8) 0.46216(6) 0.35017(5)
C12 C 0.69598(8) 0.56561(7) 0.57109(6)
C13 C 0.74254(7) 0.31151(6) 0.31928(4)
C14 C 0.69292(8) 0.47637(7) 0.61932(5)
H1 H 0.6441(15) 0.1349(12) 0.2816(10)
H2 H 0.6208(12) 0.5277(10) 0.3223(8)
H3 H 0.6651(13) 0.3168(11) 0.6151(8)
H4 H 0.5060(14) 0.0281(12) 0.3548(9)
H5 H 0.7173(15) 0.6294(11) 0.5978(9)
H6 H 0.4929(13) 0.2339(10) 0.5486(9)
H7 H 0.4260(14) 0.0822(11) 0.4893(9)
H8 H 0.6739(14) 0.6223(11) 0.4488(9)
H9 H 0.7093(15) 0.4797(12) 0.6799(9)
H10 H 0.5441(12) 0.4260(9) 0.3354(8)
loop_
_geom_bond_atom_site_label_1
_geom_bond_atom_site_label_2
_geom_bond_site_symmetry_1
_geom_bond_site_symmetry_2
S1 C13 1_555 1_555
O1 C11 1_555 1_555
C1 C3 1_555 1_555
C2 C4 1_555 1_555
C3 C10 1_555 1_555
C4 C1 1_555 1_555
C5 C4 1_555 1_555
C6 C1 1_555 1_555
C7 C2 1_555 1_555
C8 C7 1_555 1_555
C9 C5 1_555 1_555
C10 C12 1_555 1_555
C11 C3 1_555 1_555
C12 C14 1_555 1_555
C13 O1 1_555 1_555
C14 C6 1_555 1_555
H1 C7 1_555 1_555
H2 C11 1_555 1_555
H3 C6 1_555 1_555
H4 C8 1_555 1_555
H5 C12 1_555 1_555
H6 C5 1_555 1_555
H7 C9 1_555 1_555
H8 C10 1_555 1_555
H9 C14 1_555 1_555
H10 C11 1_555 1_555
C2 C13 1_555 1_555
C8 C9 1_555 1_555

#END
