
#######################################################################
#
#                 Cambridge Crystallographic Data Centre
#                                CCDC 
#
#######################################################################
#
# If this CIF has been generated from an entry in the Cambridge 
# Structural Database, then it will include bibliographic, chemical, 
# crystal, experimental, refinement or atomic coordinate data resulting 
# from the CCDC's data processing and validation procedures.
#
#######################################################################

data_KIVFIH
_chemical_formula_moiety         'C7 H12 N1 O1 1+,Cl1 O4 1-'
_chemical_name_systematic        '3-oxoquinuclidinium perchlorate'
_symmetry_cell_setting           orthorhombic
_symmetry_space_group_name_H-M   'P n a 21'
_symmetry_Int_Tables_number      33
_space_group_name_Hall           'P 2c -2n'
loop_
_symmetry_equiv_pos_site_id
_symmetry_equiv_pos_as_xyz
1 x,y,z
2 -x,-y,1/2+z
3 1/2+x,1/2-y,z
4 1/2-x,1/2+y,1/2+z
_cell_length_a                   12.6094(6)
_cell_length_b                   9.4862(5)
_cell_length_c                   8.0894(3)
_cell_angle_alpha                90
_cell_angle_beta                 90
_cell_angle_gamma                90
_cell_volume                     967.616
_exptl_crystal_colour            colorless
_exptl_crystal_description       block
_cell_formula_units_Z            4
loop_
_atom_site_label
_atom_site_type_symbol
_atom_site_fract_x
_atom_site_fract_y
_atom_site_fract_z
Cl1 Cl 0.05264(4) 0.17792(5) 0.31647(3)
O1 O 0.0287(5) 0.0877(6) 0.4534(5)
O2 O 0.0410(5) 0.1547(5) 0.1385(5)
O3 O 0.0297(2) 0.31043(7) 0.38377(18)
O4 O 0.16349(5) 0.1810(9) 0.3065(9)
C1 C 0.1800(3) 0.8121(4) 0.1468(6)
H1 H 0.1542 0.9045 0.1789
H2 H 0.1931 0.8127 0.0286
C2 C 0.2805(3) 0.7786(5) 0.2381(7)
C3 C 0.2722(2) 0.6439(4) 0.3297(7)
H3 H 0.3389 0.6219 0.3861
C4 C 0.1790(4) 0.6618(6) 0.4581(6)
H4 H 0.1681 0.5742 0.5175
H5 H 0.1970 0.7345 0.5377
C5 C 0.0782(4) 0.7025(7) 0.3662(6)
H6 H 0.0223 0.6354 0.3908
H7 H 0.0548 0.7952 0.4013
C6 C 0.1348(4) 0.5633(5) 0.1244(7)
H8 H 0.1441 0.5669 0.0055
H9 H 0.0823 0.4919 0.1501
C7 C 0.2424(4) 0.5283(4) 0.2111(7)
H10 H 0.2361 0.4398 0.2704
H11 H 0.2976 0.5178 0.1284
N1 N 0.1001(2) 0.7031(3) 0.1882(4)
H12 H 0.0341 0.7281 0.1312
O10 O 0.3457(5) 0.8702(7) 0.2662(8)
O5? O -0.0057(5) 0.0638(6) 0.3705(7)
O6? O 0.0708(3) 0.22841(17) 0.15630(7)
O7? O -0.0163(4) 0.2962(6) 0.3214(9)
O8? O 0.0653(6) 0.3002(8) 0.4648(8)
O9? O 0.1580(4) 0.1253(9) 0.3409(10)
O11? O 0.3610(5) 0.8413(6) 0.1975(9)
loop_
_geom_bond_atom_site_label_1
_geom_bond_atom_site_label_2
_geom_bond_site_symmetry_1
_geom_bond_site_symmetry_2
Cl1 O1 1_555 1_555
O2 Cl1 1_555 1_555
O3 Cl1 1_555 1_555
O4 Cl1 1_555 1_555
C1 H1 1_555 1_555
H2 C1 1_555 1_555
C2 C1 1_555 1_555
C3 C2 1_555 1_555
H3 C3 1_555 1_555
C4 C3 1_555 1_555
H4 C4 1_555 1_555
H5 C4 1_555 1_555
C5 C4 1_555 1_555
H6 C5 1_555 1_555
H7 C5 1_555 1_555
C6 H8 1_555 1_555
H9 C6 1_555 1_555
C7 C3 1_555 1_555
H10 C7 1_555 1_555
H11 C7 1_555 1_555
N1 C1 1_555 1_555
H12 N1 1_555 1_555
O10 C2 1_555 1_555
C5 N1 1_555 1_555
C6 C7 1_555 1_555
C6 N1 1_555 1_555

#END
