
#######################################################################
#
#                 Cambridge Crystallographic Data Centre
#                                CCDC 
#
#######################################################################
#
# If this CIF has been generated from an entry in the Cambridge 
# Structural Database, then it will include bibliographic, chemical, 
# crystal, experimental, refinement or atomic coordinate data resulting 
# from the CCDC's data processing and validation procedures.
#
#######################################################################

data_KIVHUV
_chemical_formula_moiety         'C30 H41 N5 O4,0.5(H2 O1)'
_chemical_name_systematic        
"2,2'-[8,15-dioxo-2,9,14-triazatricyclo[14.3.1.1^3,7^]henicosa-1(20),3(21),4,6,16,18-hexaene-9,14-diyl]bis(N-t-butylacetamide) hemihydrate unknown solvate"
_symmetry_cell_setting           orthorhombic
_symmetry_space_group_name_H-M   'F d d 2'
_symmetry_Int_Tables_number      43
_space_group_name_Hall           'F 2 -2d'
loop_
_symmetry_equiv_pos_site_id
_symmetry_equiv_pos_as_xyz
1 x,y,z
2 -x,-y,z
3 1/4+x,1/4-y,1/4+z
4 1/4-x,1/4+y,1/4+z
5 x,1/2+y,1/2+z
6 -x,1/2-y,1/2+z
7 1/4+x,3/4-y,3/4+z
8 1/4-x,3/4+y,3/4+z
9 1/2+x,y,1/2+z
10 1/2-x,-y,1/2+z
11 3/4+x,1/4-y,3/4+z
12 3/4-x,1/4+y,3/4+z
13 1/2+x,1/2+y,z
14 1/2-x,1/2-y,z
15 3/4+x,3/4-y,1/4+z
16 3/4-x,3/4+y,1/4+z
_cell_length_a                   27.0176(6)
_cell_length_b                   36.9735(8)
_cell_length_c                   14.7072(3)
_cell_angle_alpha                90
_cell_angle_beta                 90
_cell_angle_gamma                90
_cell_volume                     14691.5
_exptl_crystal_colour            colorless
_exptl_crystal_description       Prism
_cell_formula_units_Z            16
_chemical_properties_physical    Heat-sensitive
_exptl_crystal_recrystallization_method methanol
loop_
_atom_site_label
_atom_site_type_symbol
_atom_site_fract_x
_atom_site_fract_y
_atom_site_fract_z
O1 O -0.06567(15) 0.21035(10) 0.3676(4)
O2 O 0.13431(13) 0.00265(9) 0.3005(3)
O3 O 0.03808(17) 0.21738(10) 0.2528(3)
O4 O 0.22266(14) 0.06968(10) 0.2183(3)
N1 N 0.00677(14) 0.18950(10) 0.4191(3)
C1 C -0.04113(18) 0.18424(13) 0.3930(4)
C2 C -0.06370(17) 0.14758(13) 0.3991(4)
C3 C -0.04838(17) 0.11871(12) 0.3456(4)
H1 H -0.0205 0.1213 0.3090
C4 C -0.07397(16) 0.08607(12) 0.3458(4)
C5 C -0.1149(2) 0.08277(16) 0.4036(5)
H2 H -0.1318 0.0609 0.4070
C6 C -0.1301(3) 0.1112(2) 0.4547(6)
H3 H -0.1577 0.1087 0.4921
C7 C -0.1052(2) 0.14397(18) 0.4519(5)
H4 H -0.1166 0.1635 0.4859
N2 N -0.06193(15) 0.05734(12) 0.2896(5)
H5 H -0.0840 0.0408 0.2820
C8 C -0.01632(18) 0.05293(12) 0.2438(5)
C9 C 0.02785(17) 0.04852(13) 0.2923(4)
H6 H 0.0276 0.0503 0.3554
C10 C 0.07148(18) 0.04162(12) 0.2478(4)
C11 C 0.0715(2) 0.0388(2) 0.1546(5)
H7 H 0.1006 0.0331 0.1240
C12 C 0.0286(3) 0.0444(3) 0.1065(6)
H8 H 0.0292 0.0437 0.0433
C13 C -0.0150(3) 0.0509(2) 0.1506(6)
H9 H -0.0439 0.0540 0.1173
C14 C 0.11890(16) 0.03433(11) 0.2950(4)
N3 N 0.14486(14) 0.06183(10) 0.3308(3)
C15 C 0.03976(17) 0.16107(12) 0.4501(4)
H10 H 0.0203 0.1401 0.4671
H11 H 0.0572 0.1693 0.5039
C16 C 0.07710(19) 0.15013(12) 0.3786(4)
H12 H 0.1021 0.1689 0.3732
H13 H 0.0605 0.1480 0.3203
C17 C 0.10228(19) 0.11415(13) 0.4016(4)
H14 H 0.1256 0.1178 0.4508
H15 H 0.0776 0.0969 0.4217
C18 C 0.12903(18) 0.09937(12) 0.3197(4)
H16 H 0.1074 0.1010 0.2672
H17 H 0.1579 0.1143 0.3077
C19 C 0.02582(17) 0.22619(11) 0.4136(3)
H18 H 0.0566 0.2276 0.4475
H19 H 0.0024 0.2425 0.4422
C20 C 0.03516(16) 0.23889(12) 0.3167(3)
N4 N 0.04157(16) 0.27426(11) 0.3088(3)
H20 H 0.036(2) 0.2862(14) 0.360(2)
C21 C 0.0490(2) 0.29457(15) 0.2241(4)
C22 C 0.0121(9) 0.2851(8) 0.152(2)
H21 H 0.0112 0.3039 0.1070
H22 H -0.0201 0.2825 0.1788
H23 H 0.0215 0.2627 0.1234
C23 C 0.1018(8) 0.2895(9) 0.189(2)
H24 H 0.1067 0.3042 0.1360
H25 H 0.1070 0.2646 0.1736
H26 H 0.1249 0.2965 0.2353
C24 C 0.0609(12) 0.3332(6) 0.2575(16)
H27 H 0.0714 0.3478 0.2069
H28 H 0.0869 0.3322 0.3020
H29 H 0.0318 0.3437 0.2842
C25 C 0.19365(18) 0.05590(13) 0.3683(4)
H30 H 0.1969 0.0308 0.3865
H31 H 0.1980 0.0708 0.4219
C26 C 0.23343(18) 0.06504(11) 0.2989(4)
N5 N 0.27852(16) 0.06798(12) 0.3322(3)
H32 H 0.280(2) 0.0625(16) 0.3920(14)
C27 C 0.3239(2) 0.07792(16) 0.2800(4)
C28 C 0.3656(3) 0.0804(3) 0.3489(6)
H33 H 0.3957 0.0870 0.3184
H34 H 0.3698 0.0575 0.3783
H35 H 0.3577 0.0985 0.3935
C29 C 0.3158(4) 0.1143(2) 0.2332(7)
H36 H 0.3452 0.1210 0.2008
H37 H 0.3084 0.1324 0.2781
H38 H 0.2886 0.1124 0.1914
C30 C 0.3353(3) 0.0491(2) 0.2111(7)
H39 H 0.3649 0.0554 0.1789
H40 H 0.3083 0.0472 0.1690
H41 H 0.3399 0.0264 0.2415
O5 O -0.1691(6) 0.2455(6) 0.2860(13)
C31? C -0.0004(12) 0.2936(10) 0.172(3)
H42? H 0.0042 0.3039 0.1123
H43? H -0.0248 0.3074 0.2042
H44? H -0.0113 0.2691 0.1658
C32? C 0.0935(11) 0.2776(8) 0.170(2)
H45? H 0.1112 0.2964 0.1389
H46? H 0.0811 0.2605 0.1264
H47? H 0.1154 0.2655 0.2115
C33? C 0.0410(14) 0.3370(6) 0.246(2)
H48? H 0.0414 0.3505 0.1905
H49? H 0.0672 0.3454 0.2850
H50? H 0.0098 0.3403 0.2761
O6? O -0.1625(8) 0.2154(8) 0.296(2)
loop_
_geom_bond_atom_site_label_1
_geom_bond_atom_site_label_2
_geom_bond_site_symmetry_1
_geom_bond_site_symmetry_2
O1 C1 1_555 1_555
O2 C14 1_555 1_555
O3 C20 1_555 1_555
O4 C26 1_555 1_555
N1 C1 1_555 1_555
C1 C2 1_555 1_555
C2 C3 1_555 1_555
C3 H1 1_555 1_555
C4 C3 1_555 1_555
C5 C4 1_555 1_555
H2 C5 1_555 1_555
C6 C5 1_555 1_555
H3 C6 1_555 1_555
C7 C2 1_555 1_555
H4 C7 1_555 1_555
N2 C4 1_555 1_555
H5 N2 1_555 1_555
C8 N2 1_555 1_555
C9 C8 1_555 1_555
H6 C9 1_555 1_555
C10 C9 1_555 1_555
C11 C10 1_555 1_555
H7 C11 1_555 1_555
C12 C11 1_555 1_555
H8 C12 1_555 1_555
C13 C8 1_555 1_555
H9 C13 1_555 1_555
C14 C10 1_555 1_555
N3 C14 1_555 1_555
C15 N1 1_555 1_555
H10 C15 1_555 1_555
H11 C15 1_555 1_555
C16 C15 1_555 1_555
H12 C16 1_555 1_555
H13 C16 1_555 1_555
C17 C16 1_555 1_555
H14 C17 1_555 1_555
H15 C17 1_555 1_555
C18 N3 1_555 1_555
H16 C18 1_555 1_555
H17 C18 1_555 1_555
C19 N1 1_555 1_555
H18 C19 1_555 1_555
H19 C19 1_555 1_555
C20 C19 1_555 1_555
N4 C20 1_555 1_555
H20 N4 1_555 1_555
C21 N4 1_555 1_555
C22 C21 1_555 1_555
H21 C22 1_555 1_555
H22 C22 1_555 1_555
H23 C22 1_555 1_555
C23 C21 1_555 1_555
H24 C23 1_555 1_555
H25 C23 1_555 1_555
H26 C23 1_555 1_555
C24 C21 1_555 1_555
H27 C24 1_555 1_555
H28 C24 1_555 1_555
H29 C24 1_555 1_555
C25 N3 1_555 1_555
H30 C25 1_555 1_555
H31 C25 1_555 1_555
C26 C25 1_555 1_555
N5 C26 1_555 1_555
H32 N5 1_555 1_555
C27 N5 1_555 1_555
C28 C27 1_555 1_555
H33 C28 1_555 1_555
H34 C28 1_555 1_555
H35 C28 1_555 1_555
C29 C27 1_555 1_555
H36 C29 1_555 1_555
H37 C29 1_555 1_555
H38 C29 1_555 1_555
C30 C27 1_555 1_555
H39 C30 1_555 1_555
H40 C30 1_555 1_555
H41 C30 1_555 1_555
C6 C7 1_555 1_555
C12 C13 1_555 1_555
C17 C18 1_555 1_555

#END
