
#######################################################################
#
#                 Cambridge Crystallographic Data Centre
#                                CCDC 
#
#######################################################################
#
# If this CIF has been generated from an entry in the Cambridge 
# Structural Database, then it will include bibliographic, chemical, 
# crystal, experimental, refinement or atomic coordinate data resulting 
# from the CCDC's data processing and validation procedures.
#
#######################################################################

data_KIVJAD
_chemical_formula_moiety         'C14 H16 N6'
_chemical_name_systematic        
N,N-diethyl-2-phenyl[1,2,4]triazolo[1,5-a][1,3,5]triazin-5-amine
_symmetry_cell_setting           monoclinic
_symmetry_space_group_name_H-M   'P 21/c'
_symmetry_Int_Tables_number      14
_space_group_name_Hall           '-P 2ybc'
loop_
_symmetry_equiv_pos_site_id
_symmetry_equiv_pos_as_xyz
1 x,y,z
2 -x,1/2+y,1/2-z
3 -x,-y,-z
4 x,1/2-y,1/2+z
_cell_length_a                   11.6358(11)
_cell_length_b                   15.0363(15)
_cell_length_c                   7.9048(7)
_cell_angle_alpha                90
_cell_angle_beta                 99.872(9)
_cell_angle_gamma                90
_cell_volume                     1362.54
_exptl_crystal_colour            yellow
_exptl_crystal_description       plate
_cell_formula_units_Z            4
loop_
_atom_site_label
_atom_site_type_symbol
_atom_site_fract_x
_atom_site_fract_y
_atom_site_fract_z
N1 N 0.86620(13) 0.55461(11) 0.01105(19)
N2 N 0.68946(12) 0.58972(9) 0.11989(17)
N3 N 0.83145(12) 0.49033(10) 0.26121(18)
N4 N 0.85106(13) 0.43769(10) 0.40520(19)
N5 N 0.67818(12) 0.51327(9) 0.38482(17)
N6 N 0.73020(12) 0.65242(10) -0.12947(18)
C1 C 0.89774(16) 0.50199(14) 0.1395(2)
H1 H 0.967980 0.471412 0.148098
C2 C 0.76014(14) 0.59753(12) 0.0048(2)
C3 C 0.72653(14) 0.53478(11) 0.2510(2)
C4 C 0.75667(14) 0.45418(11) 0.4723(2)
C5 C 0.73756(15) 0.41215(11) 0.6333(2)
C6 C 0.63480(16) 0.42613(13) 0.6951(2)
H2 H 0.577146 0.462027 0.633737
C7 C 0.61681(18) 0.38730(14) 0.8470(2)
H3 H 0.548048 0.397958 0.888697
C8 C 0.70149(18) 0.33264(14) 0.9365(2)
H4 H 0.690110 0.306564 1.038990
C9 C 0.80274(18) 0.31686(14) 0.8735(2)
H5 H 0.858792 0.278800 0.932262
C10 C 0.82178(16) 0.35690(13) 0.7242(2)
H6 H 0.891283 0.346898 0.684113
C11 C 0.80081(16) 0.65968(15) -0.2654(2)
H7 H 0.750939 0.677256 -0.371308
H8 H 0.833307 0.601790 -0.283862
C12 C 0.89839(19) 0.72563(16) -0.2242(3)
H9 H 0.937254 0.731832 -0.321318
H10 H 0.952978 0.705093 -0.127025
H11 H 0.867356 0.782150 -0.197910
C13 C 0.62039(15) 0.70272(12) -0.1506(2)
H12 H 0.631014 0.759432 -0.204350
H13 H 0.600561 0.714532 -0.038472
C14 C 0.52170(17) 0.65342(15) -0.2581(3)
H14 H 0.541682 0.640422 -0.368360
H15 H 0.452590 0.689452 -0.272781
H16 H 0.507731 0.598880 -0.201822
loop_
_geom_bond_atom_site_label_1
_geom_bond_atom_site_label_2
_geom_bond_site_symmetry_1
_geom_bond_site_symmetry_2
N1 C1 1_555 1_555
N2 C2 1_555 1_555
N3 N4 1_555 1_555
N4 C4 1_555 1_555
N5 C3 1_555 1_555
N6 C2 1_555 1_555
C1 N3 1_555 1_555
H1 C1 1_555 1_555
C2 N1 1_555 1_555
C3 N2 1_555 1_555
C4 N5 1_555 1_555
C5 C4 1_555 1_555
C6 C5 1_555 1_555
H2 C6 1_555 1_555
C7 C6 1_555 1_555
H3 C7 1_555 1_555
C8 C7 1_555 1_555
H4 C8 1_555 1_555
C9 C8 1_555 1_555
H5 C9 1_555 1_555
C10 C5 1_555 1_555
H6 C10 1_555 1_555
C11 N6 1_555 1_555
H7 C11 1_555 1_555
H8 C11 1_555 1_555
C12 C11 1_555 1_555
H9 C12 1_555 1_555
H10 C12 1_555 1_555
H11 C12 1_555 1_555
C13 N6 1_555 1_555
H12 C13 1_555 1_555
H13 C13 1_555 1_555
C14 C13 1_555 1_555
H14 C14 1_555 1_555
H15 C14 1_555 1_555
H16 C14 1_555 1_555
N3 C3 1_555 1_555
C9 C10 1_555 1_555

#END
