
#######################################################################
#
#                 Cambridge Crystallographic Data Centre
#                                CCDC 
#
#######################################################################
#
# If this CIF has been generated from an entry in the Cambridge 
# Structural Database, then it will include bibliographic, chemical, 
# crystal, experimental, refinement or atomic coordinate data resulting 
# from the CCDC's data processing and validation procedures.
#
#######################################################################

data_KIVKIM
_chemical_formula_moiety         'C20 H20 Cl1 N1 O2 S1'
_chemical_name_systematic        
'ethyl 2-[(4-chlorophenyl)sulfanyl]-3-phenyl-3-[(prop-2-en-1-yl)amino]prop-2-enoate'
_symmetry_cell_setting           monoclinic
_symmetry_space_group_name_H-M   'P 21/c'
_symmetry_Int_Tables_number      14
_space_group_name_Hall           '-P 2ybc'
loop_
_symmetry_equiv_pos_site_id
_symmetry_equiv_pos_as_xyz
1 x,y,z
2 -x,1/2+y,1/2-z
3 -x,-y,-z
4 x,1/2-y,1/2+z
_cell_length_a                   11.5425(5)
_cell_length_b                   20.2515(9)
_cell_length_c                   8.2218(4)
_cell_angle_alpha                90
_cell_angle_beta                 92.176(2)
_cell_angle_gamma                90
_cell_volume                     1920.48
_exptl_crystal_colour            yellow
_exptl_crystal_description       stick
_cell_formula_units_Z            4
loop_
_atom_site_label
_atom_site_type_symbol
_atom_site_fract_x
_atom_site_fract_y
_atom_site_fract_z
S1 S 0.80473(3) 0.40207(2) 0.28398(4)
H1 H 0.7655(19) 0.3368(10) 0.742(2)
Cl1 Cl 0.34272(5) 0.25622(3) 0.07163(8)
N1 N 0.79011(13) 0.49103(7) 0.71482(16)
O1 O 0.67840(12) 0.56116(6) 0.48944(15)
C1 C 0.88812(12) 0.39143(7) 0.63810(17)
O2 O 0.67823(10) 0.52383(6) 0.23345(13)
H2 H 0.890(2) 0.2498(13) 0.813(3)
C2 C 0.84494(17) 0.33735(9) 0.7183(2)
C3 C 0.9184(2) 0.28562(10) 0.7643(3)
H3 H 1.086(2) 0.2514(12) 0.766(3)
C4 C 1.0337(2) 0.28822(10) 0.7293(3)
H4 H 1.155(3) 0.3439(14) 0.622(4)
C5 C 1.07701(17) 0.34129(11) 0.6493(3)
H5 H 1.032(2) 0.4305(12) 0.547(3)
C6 C 0.81260(11) 0.44927(7) 0.59449(16)
H6 H 0.3925(17) 0.3573(9) 0.299(2)
C7 C 1.00431(14) 0.39311(9) 0.6022(2)
H7 H 0.5614(16) 0.4116(9) 0.376(2)
C8 C 0.77151(12) 0.45969(7) 0.43556(16)
H8 H 0.5798(18) 0.2465(10) -0.010(3)
C9 C 0.70660(12) 0.51900(7) 0.39226(17)
H9 H 0.7461(19) 0.3042(10) 0.074(2)
C10 C 0.60876(17) 0.58046(10) 0.1814(3)
H10 H 0.7482(18) 0.5248(11) 0.686(2)
C11 C 0.4834(2) 0.56656(15) 0.1989(3)
H11 H 0.438589 0.603340 0.158204
H12 H 0.468408 0.559746 0.311702
H13 H 0.462377 0.527619 0.138110
H14 H 0.8877(19) 0.4537(11) 0.897(3)
C12 C 0.82810(18) 0.48670(10) 0.8852(2)
H15 H 0.759(2) 0.4741(11) 0.950(3)
C13 C 0.87070(16) 0.55018(11) 0.9530(2)
H16 H 0.624(2) 0.5856(12) 0.066(3)
C14 C 0.8916(3) 0.60373(15) 0.8755(4)
H17 H 0.640(2) 0.6192(13) 0.235(3)
C15 C 0.67121(13) 0.36245(7) 0.23438(16)
H18 H 0.882(2) 0.5506(12) 1.079(3)
C16 C 0.56595(14) 0.37812(8) 0.30133(18)
H19 H 0.922(3) 0.6405(17) 0.937(4)
C17 C 0.46514(15) 0.34527(8) 0.2518(2)
H20 H 0.881(2) 0.6041(13) 0.760(4)
C18 C 0.47012(15) 0.29647(8) 0.1355(2)
C19 C 0.57355(17) 0.27969(9) 0.0677(2)
C20 C 0.67360(16) 0.31283(9) 0.1172(2)
loop_
_geom_bond_atom_site_label_1
_geom_bond_atom_site_label_2
_geom_bond_site_symmetry_1
_geom_bond_site_symmetry_2
S1 C8 1_555 1_555
H1 C2 1_555 1_555
Cl1 C18 1_555 1_555
N1 C6 1_555 1_555
O1 C9 1_555 1_555
C1 C2 1_555 1_555
O2 C9 1_555 1_555
H2 C3 1_555 1_555
C2 C3 1_555 1_555
C3 C4 1_555 1_555
H3 C4 1_555 1_555
C4 C5 1_555 1_555
H4 C5 1_555 1_555
C5 C7 1_555 1_555
H5 C7 1_555 1_555
C6 C1 1_555 1_555
H6 C17 1_555 1_555
C7 C1 1_555 1_555
H7 C16 1_555 1_555
C8 C6 1_555 1_555
H8 C19 1_555 1_555
C9 C8 1_555 1_555
H9 C20 1_555 1_555
C10 O2 1_555 1_555
H10 N1 1_555 1_555
C11 C10 1_555 1_555
H11 C11 1_555 1_555
H12 C11 1_555 1_555
H13 C11 1_555 1_555
H14 C12 1_555 1_555
C12 N1 1_555 1_555
H15 C12 1_555 1_555
C13 C12 1_555 1_555
H16 C10 1_555 1_555
C14 C13 1_555 1_555
H17 C10 1_555 1_555
C15 S1 1_555 1_555
H18 C13 1_555 1_555
C16 C15 1_555 1_555
H19 C14 1_555 1_555
C17 C16 1_555 1_555
H20 C14 1_555 1_555
C18 C17 1_555 1_555
C19 C18 1_555 1_555
C20 C15 1_555 1_555
C19 C20 1_555 1_555

#END
