
#######################################################################
#
#                 Cambridge Crystallographic Data Centre
#                                CCDC 
#
#######################################################################
#
# If this CIF has been generated from an entry in the Cambridge 
# Structural Database, then it will include bibliographic, chemical, 
# crystal, experimental, refinement or atomic coordinate data resulting 
# from the CCDC's data processing and validation procedures.
#
#######################################################################

data_KIVQUD
_chemical_formula_moiety         'C54 H38 N2 O4'
_chemical_name_systematic        
2,13-Dimesitylpyrrolo[3''',4''':6'',7'']anthra[2'',3'':5',6']cycloocta[1',2':6,7]naphtho[2,3-f]isoindole-1,3,12,14(2H,13H)-tetrone
_symmetry_cell_setting           orthorhombic
_symmetry_space_group_name_H-M   'P c c n'
_symmetry_Int_Tables_number      56
_space_group_name_Hall           '-P 2ab 2ac'
loop_
_symmetry_equiv_pos_site_id
_symmetry_equiv_pos_as_xyz
1 x,y,z
2 1/2-x,1/2-y,z
3 1/2+x,-y,1/2-z
4 -x,1/2+y,1/2-z
5 -x,-y,-z
6 1/2+x,1/2+y,-z
7 1/2-x,y,1/2+z
8 x,1/2-y,1/2+z
_cell_length_a                   27.135(3)
_cell_length_b                   15.2884(17)
_cell_length_c                   9.1264(11)
_cell_angle_alpha                90
_cell_angle_beta                 90
_cell_angle_gamma                90
_cell_volume                     3786.09
_exptl_crystal_colour            yellow
_exptl_crystal_description       Needle
_cell_formula_units_Z            4
loop_
_atom_site_label
_atom_site_type_symbol
_atom_site_fract_x
_atom_site_fract_y
_atom_site_fract_z
C1 C 0.55188(6) 0.26312(12) 0.1165(2)
O1 O 0.42882(5) 0.49586(9) 0.31175(17)
O2 O 0.42521(5) 0.20312(9) 0.42778(16)
C2 C 0.68996(6) 0.21974(12) -0.2195(2)
C3 C 0.65890(6) 0.36606(12) -0.1756(2)
H1 H 0.6592 0.4352 -0.2014
C4 C 0.58849(7) 0.38893(12) -0.0104(2)
H2 H 0.5896 0.4585 -0.0323
C5 C 0.71809(7) 0.15794(13) -0.3120(2)
H3 H 0.6957 0.1166 -0.3818
C6 C 0.62236(6) 0.33386(12) -0.0797(2)
C7 C 0.62048(6) 0.24146(12) -0.0516(2)
C8 C 0.44159(7) 0.41985(13) 0.3152(2)
C9 C 0.55329(7) 0.35625(12) 0.0862(2)
C10 C 0.69401(7) 0.31303(13) -0.2374(2)
C11 C 0.51816(7) 0.41290(12) 0.1536(2)
H4 H 0.5187 0.4826 0.1324
C12 C 0.51541(6) 0.22961(12) 0.2163(2)
H5 H 0.5140 0.1606 0.2429
C13 C 0.30999(8) 0.44319(13) 0.5936(2)
H6 H 0.3030 0.4853 0.6867
C14 C 0.48270(7) 0.28687(13) 0.2766(2)
C15 C 0.58527(7) 0.20843(12) 0.0463(2)
H7 H 0.5841 0.1388 0.0676
C16 C 0.65390(6) 0.18707(12) -0.1288(2)
H8 H 0.6509 0.1169 -0.1158
N1 N 0.41600(6) 0.35293(10) 0.38910(19)
C17 C 0.36630(7) 0.36704(13) 0.4398(2)
C18 C 0.73318(7) 0.35527(13) -0.3236(2)
H9 H 0.7214 0.4021 -0.4054
C19 C 0.48412(7) 0.37777(13) 0.2444(2)
C20 C 0.35818(8) 0.42112(13) 0.5597(2)
C21 C 0.27018(8) 0.41257(13) 0.5109(2)
C22 C 0.27974(8) 0.35556(13) 0.3966(2)
H10 H 0.2492 0.3285 0.3352
C23 C 0.32763(7) 0.33204(13) 0.3582(2)
C24 C 0.40047(8) 0.45381(14) 0.6522(2)
H11 H 0.4228 0.4003 0.6840
H12 H 0.3865 0.4853 0.7468
H13 H 0.4218 0.4987 0.5907
C25 C 0.43947(7) 0.27081(13) 0.3730(2)
C26 C 0.33651(8) 0.27202(15) 0.2317(3)
H14 H 0.3640 0.2989 0.1629
H15 H 0.3034 0.2642 0.1715
H16 H 0.3484 0.2104 0.2711
C27 C 0.21826(8) 0.44311(16) 0.5394(3)
H17 H 0.2141 0.5081 0.5012
H18 H 0.2110 0.4409 0.6533
H19 H 0.1932 0.4018 0.4836
C1A C 0.94812(6) 0.23688(12) 0.1165(2)
O1A O 1.07118(5) 0.00414(9) 0.31175(17)
O2A O 1.07479(5) 0.29688(9) 0.42778(16)
C2A C 0.81004(6) 0.28026(12) -0.2195(2)
C3A C 0.84110(6) 0.13394(12) -0.1756(2)
H1A H 0.8408 0.0648 -0.2014
C4A C 0.91151(7) 0.11107(12) -0.0104(2)
H2A H 0.9104 0.0415 -0.0323
C5A C 0.78191(7) 0.34206(13) -0.3120(2)
H3A H 0.8043 0.3834 -0.3818
C6A C 0.87764(6) 0.16614(12) -0.0797(2)
C7A C 0.87952(6) 0.25854(12) -0.0516(2)
C8A C 1.05841(7) 0.08015(13) 0.3152(2)
C9A C 0.94671(7) 0.14375(12) 0.0862(2)
C10A C 0.80599(7) 0.18697(13) -0.2374(2)
C11A C 0.98184(7) 0.08710(12) 0.1536(2)
H4A H 0.9813 0.0174 0.1324
C12A C 0.98459(6) 0.27039(12) 0.2163(2)
H5A H 0.9860 0.3394 0.2429
C13A C 1.19001(8) 0.05681(13) 0.5936(2)
H6A H 1.1970 0.0147 0.6867
C14A C 1.01730(7) 0.21313(13) 0.2766(2)
C15A C 0.91473(7) 0.29157(12) 0.0463(2)
H7A H 0.9159 0.3612 0.0676
C16A C 0.84610(6) 0.31293(12) -0.1288(2)
H8A H 0.8491 0.3831 -0.1158
N1A N 1.08400(6) 0.14707(10) 0.38910(19)
C17A C 1.13370(7) 0.13296(13) 0.4398(2)
C18A C 0.76682(7) 0.14473(13) -0.3236(2)
H9A H 0.7786 0.0979 -0.4054
C19A C 1.01588(7) 0.12223(13) 0.2444(2)
C20A C 1.14182(8) 0.07888(13) 0.5597(2)
C21A C 1.22982(8) 0.08743(13) 0.5109(2)
C22A C 1.22026(8) 0.14444(13) 0.3966(2)
H10A H 1.2508 0.1715 0.3352
C23A C 1.17237(7) 0.16796(13) 0.3582(2)
C24A C 1.09953(8) 0.04619(14) 0.6522(2)
H11A H 1.0772 0.0997 0.6840
H12A H 1.1135 0.0147 0.7468
H13A H 1.0782 0.0013 0.5907
C25A C 1.06053(7) 0.22919(13) 0.3730(2)
C26A C 1.16349(8) 0.22798(15) 0.2317(3)
H14A H 1.1360 0.2011 0.1629
H15A H 1.1966 0.2358 0.1715
H16A H 1.1516 0.2896 0.2711
C27A C 1.28174(8) 0.05689(16) 0.5394(3)
H17A H 1.2859 -0.0081 0.5012
H18A H 1.2890 0.0591 0.6533
H19A H 1.3068 0.0982 0.4836
loop_
_geom_bond_atom_site_label_1
_geom_bond_atom_site_label_2
_geom_bond_site_symmetry_1
_geom_bond_site_symmetry_2
C1 C9 1_555 1_555
O1 C8 1_555 1_555
O2 C25 1_555 1_555
C2 C5 1_555 1_555
C3 H1 1_555 1_555
C4 H2 1_555 1_555
C5 H3 1_555 1_555
C6 C3 1_555 1_555
C7 C6 1_555 1_555
C8 N1 1_555 1_555
C9 C4 1_555 1_555
C10 C2 1_555 1_555
C11 C9 1_555 1_555
H4 C11 1_555 1_555
C12 C1 1_555 1_555
H5 C12 1_555 1_555
C13 H6 1_555 1_555
C14 C12 1_555 1_555
C15 C1 1_555 1_555
H7 C15 1_555 1_555
C16 C2 1_555 1_555
H8 C16 1_555 1_555
N1 C17 1_555 1_555
C17 C20 1_555 1_555
C18 C10 1_555 1_555
H9 C18 1_555 1_555
C19 C8 1_555 1_555
C20 C13 1_555 1_555
C21 C13 1_555 1_555
C22 C21 1_555 1_555
H10 C22 1_555 1_555
C23 C17 1_555 1_555
C24 C20 1_555 1_555
H11 C24 1_555 1_555
H12 C24 1_555 1_555
H13 C24 1_555 1_555
C25 C14 1_555 1_555
C26 C23 1_555 1_555
H14 C26 1_555 1_555
H15 C26 1_555 1_555
H16 C26 1_555 1_555
C27 C21 1_555 1_555
H17 C27 1_555 1_555
H18 C27 1_555 1_555
H19 C27 1_555 1_555
C1A C9A 1_555 1_555
O1A C8A 1_555 1_555
O2A C25A 1_555 1_555
C2A C5A 1_555 1_555
C3A H1A 1_555 1_555
C4A H2A 1_555 1_555
C5A C18 1_555 1_555
H3A C5A 1_555 1_555
C6A C3A 1_555 1_555
C7A C6A 1_555 1_555
C8A N1A 1_555 1_555
C9A C4A 1_555 1_555
C10A C2A 1_555 1_555
C11A C9A 1_555 1_555
H4A C11A 1_555 1_555
C12A C1A 1_555 1_555
H5A C12A 1_555 1_555
C13A H6A 1_555 1_555
C14A C12A 1_555 1_555
C15A C1A 1_555 1_555
H7A C15A 1_555 1_555
C16A C2A 1_555 1_555
H8A C16A 1_555 1_555
N1A C17A 1_555 1_555
C17A C20A 1_555 1_555
C18A C5 1_555 1_555
H9A C18A 1_555 1_555
C19A C8A 1_555 1_555
C20A C13A 1_555 1_555
C21A C13A 1_555 1_555
C22A C21A 1_555 1_555
H10A C22A 1_555 1_555
C23A C17A 1_555 1_555
C24A C20A 1_555 1_555
H11A C24A 1_555 1_555
H12A C24A 1_555 1_555
H13A C24A 1_555 1_555
C25A C14A 1_555 1_555
C26A C23A 1_555 1_555
H14A C26A 1_555 1_555
H15A C26A 1_555 1_555
H16A C26A 1_555 1_555
C27A C21A 1_555 1_555
H17A C27A 1_555 1_555
H18A C27A 1_555 1_555
H19A C27A 1_555 1_555
C3 C10 1_555 1_555
C4 C6 1_555 1_555
C7 C15 1_555 1_555
C7 C16 1_555 1_555
C11 C19 1_555 1_555
C14 C19 1_555 1_555
N1 C25 1_555 1_555
C22 C23 1_555 1_555
C3A C10A 1_555 1_555
C4A C6A 1_555 1_555
C7A C15A 1_555 1_555
C7A C16A 1_555 1_555
C10A C18A 1_555 1_555
C11A C19A 1_555 1_555
C14A C19A 1_555 1_555
N1A C25A 1_555 1_555
C22A C23A 1_555 1_555

#END
