
#######################################################################
#
#                 Cambridge Crystallographic Data Centre
#                                CCDC 
#
#######################################################################
#
# If this CIF has been generated from an entry in the Cambridge 
# Structural Database, then it will include bibliographic, chemical, 
# crystal, experimental, refinement or atomic coordinate data resulting 
# from the CCDC's data processing and validation procedures.
#
#######################################################################

data_KIVQIR
_chemical_formula_moiety         'C36 H30 N2 O4'
_chemical_name_systematic        
2,11-Dibutylpyrrolo[3''',4''':6'',7'']naphtho[2'',3'':5',6']cycloocta[1',2':4,5]benzo[1,2-f]isoindole-1,3,10,12(2H,11H)-tetrone
_symmetry_cell_setting           monoclinic
_symmetry_space_group_name_H-M   'P 2/c'
_symmetry_Int_Tables_number      13
_space_group_name_Hall           '-P 2yc'
loop_
_symmetry_equiv_pos_site_id
_symmetry_equiv_pos_as_xyz
1 x,y,z
2 -x,y,1/2-z
3 -x,-y,-z
4 x,-y,1/2+z
_cell_length_a                   13.416(6)
_cell_length_b                   4.753(2)
_cell_length_c                   21.860(9)
_cell_angle_alpha                90
_cell_angle_beta                 90.455(6)
_cell_angle_gamma                90
_cell_volume                     1393.89
_exptl_crystal_colour            colorless
_exptl_crystal_description       Needle
_cell_formula_units_Z            2
loop_
_atom_site_label
_atom_site_type_symbol
_atom_site_fract_x
_atom_site_fract_y
_atom_site_fract_z
C1 C 0.87934(16) 1.4326(4) 0.76585(9)
H1 H 0.8261 1.5645 0.7661
C2 C 0.88756(15) 1.2547(4) 0.71073(9)
C3 C 0.97366(15) 1.2486(4) 0.67355(9)
C4 C 1.06219(15) 1.4292(4) 0.68483(9)
H2 H 1.0790 1.5571 0.6531
C5 C 0.80493(15) 1.0960(4) 0.69378(9)
H3 H 0.7463 1.1078 0.7177
C6 C 0.80526(15) 0.9178(4) 0.64219(9)
C7 C 0.89262(15) 0.9078(4) 0.60573(9)
C8 C 0.97437(15) 1.0808(4) 0.62201(9)
H4 H 1.0316 1.0816 0.5967
C9 C 0.72095(15) 0.7484(4) 0.62629(9)
H5 H 0.6615 0.7561 0.6495
C10 C 0.72841(14) 0.5754(4) 0.57680(9)
C11 C 0.81588(14) 0.5634(4) 0.54130(9)
C12 C 0.89688(15) 0.7257(4) 0.55425(9)
H6 H 0.9547 0.7175 0.5295
C13 C 0.65571(16) 0.3718(4) 0.55015(9)
O1 O 0.57226(11) 0.3130(3) 0.56635(7)
N1 N 0.70322(12) 0.2510(4) 0.49963(7)
C14 C 0.80006(15) 0.3522(4) 0.49265(9)
O2 O 0.85733(10) 0.2734(3) 0.45330(6)
C15 C 0.65799(16) 0.0341(4) 0.46088(9)
H7 H 0.6125 -0.0812 0.4860
H8 H 0.7112 -0.0912 0.4455
C16 C 0.59994(16) 0.1522(5) 0.40656(9)
H9 H 0.5642 -0.0043 0.3861
H10 H 0.5492 0.2852 0.4220
C17 C 0.66272(16) 0.3024(5) 0.35955(10)
H11 H 0.7165 0.1755 0.3456
H12 H 0.6942 0.4699 0.3785
C18 C 0.59910(19) 0.3934(6) 0.30471(11)
H13 H 0.5707 0.2267 0.2847
H14 H 0.6407 0.4959 0.2756
H15 H 0.5451 0.5159 0.3187
C1A C 1.12066(16) 1.4326(4) 0.73415(9)
H1A H 1.1739 1.5645 0.7339
C2A C 1.11244(15) 1.2547(4) 0.78927(9)
C3A C 1.02634(15) 1.2486(4) 0.82645(9)
C4A C 0.93781(15) 1.4292(4) 0.81517(9)
H2A H 0.9210 1.5571 0.8469
C5A C 1.19507(15) 1.0960(4) 0.80622(9)
H3A H 1.2537 1.1078 0.7823
C6A C 1.19474(15) 0.9178(4) 0.85781(9)
C7A C 1.10738(15) 0.9078(4) 0.89427(9)
C8A C 1.02563(15) 1.0808(4) 0.87799(9)
H4A H 0.9684 1.0816 0.9033
C9A C 1.27905(15) 0.7484(4) 0.87371(9)
H5A H 1.3385 0.7561 0.8505
C10A C 1.27159(14) 0.5754(4) 0.92320(9)
C11A C 1.18412(14) 0.5634(4) 0.95870(9)
C12A C 1.10312(15) 0.7257(4) 0.94575(9)
H6A H 1.0453 0.7175 0.9705
C13A C 1.34429(16) 0.3718(4) 0.94985(9)
O1A O 1.42774(11) 0.3130(3) 0.93365(7)
N1A N 1.29678(12) 0.2510(4) 1.00037(7)
C14A C 1.19994(15) 0.3522(4) 1.00735(9)
O2A O 1.14267(10) 0.2734(3) 1.04670(6)
C15A C 1.34201(16) 0.0341(4) 1.03912(9)
H7A H 1.3875 -0.0812 1.0140
H8A H 1.2888 -0.0912 1.0545
C16A C 1.40006(16) 0.1522(5) 1.09344(9)
H9A H 1.4358 -0.0043 1.1139
H10A H 1.4508 0.2852 1.0780
C17A C 1.33728(16) 0.3024(5) 1.14045(10)
H11A H 1.2835 0.1755 1.1544
H12A H 1.3058 0.4699 1.1215
C18A C 1.40090(19) 0.3934(6) 1.19529(11)
H13A H 1.4293 0.2267 1.2153
H14A H 1.3593 0.4959 1.2244
H15A H 1.4549 0.5159 1.1813
loop_
_geom_bond_atom_site_label_1
_geom_bond_atom_site_label_2
_geom_bond_site_symmetry_1
_geom_bond_site_symmetry_2
C1 H1 1_555 1_555
C2 C1 1_555 1_555
C3 C2 1_555 1_555
C4 C3 1_555 1_555
H2 C4 1_555 1_555
C5 C2 1_555 1_555
H3 C5 1_555 1_555
C6 C5 1_555 1_555
C7 C6 1_555 1_555
C8 C3 1_555 1_555
H4 C8 1_555 1_555
C9 C6 1_555 1_555
H5 C9 1_555 1_555
C10 C9 1_555 1_555
C11 C10 1_555 1_555
C12 C7 1_555 1_555
H6 C12 1_555 1_555
C13 C10 1_555 1_555
O1 C13 1_555 1_555
N1 C13 1_555 1_555
C14 C11 1_555 1_555
O2 C14 1_555 1_555
C15 N1 1_555 1_555
H7 C15 1_555 1_555
H8 C15 1_555 1_555
C16 C15 1_555 1_555
H9 C16 1_555 1_555
H10 C16 1_555 1_555
C17 C16 1_555 1_555
H11 C17 1_555 1_555
H12 C17 1_555 1_555
C18 C17 1_555 1_555
H13 C18 1_555 1_555
H14 C18 1_555 1_555
H15 C18 1_555 1_555
C1A C4 1_555 1_555
H1A C1A 1_555 1_555
C2A C1A 1_555 1_555
C3A C2A 1_555 1_555
C4A C1 1_555 1_555
H2A C4A 1_555 1_555
C5A C2A 1_555 1_555
H3A C5A 1_555 1_555
C6A C5A 1_555 1_555
C7A C6A 1_555 1_555
C8A C3A 1_555 1_555
H4A C8A 1_555 1_555
C9A C6A 1_555 1_555
H5A C9A 1_555 1_555
C10A C9A 1_555 1_555
C11A C10A 1_555 1_555
C12A C7A 1_555 1_555
H6A C12A 1_555 1_555
C13A C10A 1_555 1_555
O1A C13A 1_555 1_555
N1A C13A 1_555 1_555
C14A C11A 1_555 1_555
O2A C14A 1_555 1_555
C15A N1A 1_555 1_555
H7A C15A 1_555 1_555
H8A C15A 1_555 1_555
C16A C15A 1_555 1_555
H9A C16A 1_555 1_555
H10A C16A 1_555 1_555
C17A C16A 1_555 1_555
H11A C17A 1_555 1_555
H12A C17A 1_555 1_555
C18A C17A 1_555 1_555
H13A C18A 1_555 1_555
H14A C18A 1_555 1_555
H15A C18A 1_555 1_555
C7 C8 1_555 1_555
C11 C12 1_555 1_555
N1 C14 1_555 1_555
C3A C4A 1_555 1_555
C7A C8A 1_555 1_555
C11A C12A 1_555 1_555
N1A C14A 1_555 1_555

#END
