
#######################################################################
#
#                 Cambridge Crystallographic Data Centre
#                                CCDC 
#
#######################################################################
#
# If this CIF has been generated from an entry in the Cambridge 
# Structural Database, then it will include bibliographic, chemical, 
# crystal, experimental, refinement or atomic coordinate data resulting 
# from the CCDC's data processing and validation procedures.
#
#######################################################################

data_KIVQAJ
_chemical_formula_moiety         'C23 H23 N3 O3,C2 H6 O1'
_chemical_name_systematic        
"10-Hydroxy-7a-(2-methylbut-3-en-2-yl)-7,7a,12,12a-tetrahydroindolo[3',2':4,5]pyrrolo[2,1-c][1,4]benzodiazepine-6,14(5H,6aH)-dione ethanol solvate"
_symmetry_cell_setting           monoclinic
_symmetry_space_group_name_H-M   'P 21'
_symmetry_Int_Tables_number      4
_space_group_name_Hall           'P 2yb'
loop_
_symmetry_equiv_pos_site_id
_symmetry_equiv_pos_as_xyz
1 x,y,z
2 -x,1/2+y,-z
_cell_length_a                   8.9047(11)
_cell_length_b                   8.0429(10)
_cell_length_c                   15.8214(19)
_cell_angle_alpha                90
_cell_angle_beta                 90.054(3)
_cell_angle_gamma                90
_cell_volume                     1133.12
_exptl_crystal_colour            colorless
_exptl_crystal_description       plate
_cell_formula_units_Z            2
loop_
_atom_site_label
_atom_site_type_symbol
_atom_site_fract_x
_atom_site_fract_y
_atom_site_fract_z
C1 C 0.9748(4) 0.7474(5) 0.8007(2)
H1 H 0.9106 0.6977 0.8442
N1 N 1.0918(4) 0.6348(4) 0.7772(2)
H2 H 1.165(4) 0.637(6) 0.815(2)
C2 C 0.8837(4) 0.7804(5) 0.7191(2)
H3 H 0.870(4) 1.277(5) 0.951(2)
C3 C 1.0013(4) 0.7393(5) 0.6530(2)
C4 C 1.0074(5) 0.7720(6) 0.5678(3)
H4 H 0.9330 0.8356 0.5422
C5 C 1.1267(5) 0.7085(6) 0.5199(3)
H5 H 1.1319 0.7292 0.4621
C6 C 1.2356(5) 0.6157(6) 0.5589(3)
O1 O 1.3475(4) 0.5513(4) 0.5076(2)
H6 H 1.402(5) 0.483(6) 0.533(3)
C7 C 1.2354(5) 0.5856(5) 0.6442(3)
H7 H 1.3110 0.5239 0.6699
C8 C 1.1174(4) 0.6515(5) 0.6904(2)
C9 C 0.8454(5) 0.9676(5) 0.7196(3)
H8 H 0.8659 1.0159 0.6646
H9 H 0.7399 0.9837 0.7323
C10 C 0.9422(4) 1.0504(5) 0.7868(2)
H10 H 1.0120 1.1291 0.7605
C11 C 0.8490(4) 1.1379(5) 0.8540(2)
O2 O 0.7114(3) 1.1364(4) 0.85472(19)
N2 N 0.9264(4) 1.2192(4) 0.9148(2)
C12 C 1.0845(4) 1.2355(5) 0.9226(2)
C13 C 1.1403(5) 1.3866(6) 0.9506(3)
H11 H 1.0747 1.4739 0.9614
C14 C 1.2919(5) 1.4085(6) 0.9626(3)
H12 H 1.3280 1.5101 0.9820
C15 C 1.3906(5) 1.2809(6) 0.9462(3)
H13 H 1.4934 1.2972 0.9526
C16 C 1.3363(5) 1.1290(6) 0.9201(3)
H14 H 1.4029 1.0419 0.9107
C17 C 1.1828(4) 1.1037(5) 0.9077(2)
C18 C 1.1327(4) 0.9319(5) 0.8866(2)
O3 O 1.1913(3) 0.8101(3) 0.92148(16)
N3 N 1.0260(3) 0.9138(4) 0.82731(19)
C19 C 0.7409(5) 0.6657(6) 0.7106(3)
C20 C 0.6379(6) 0.6967(8) 0.7839(4)
H15 H 0.6416 0.8093 0.7971
C21 C 0.5627(13) 0.6381(19) 0.8261(7)
H16 H 0.5452 0.5244 0.8219
H17 H 0.5140 0.7003 0.8673
C22 C 0.7878(7) 0.4842(7) 0.7085(4)
H18 H 0.8419 0.4577 0.7593
H19 H 0.8510 0.4650 0.6604
H20 H 0.7001 0.4152 0.7046
C23 C 0.6575(6) 0.7065(8) 0.6288(3)
H21 H 0.5713 0.6356 0.6236
H22 H 0.7230 0.6891 0.5815
H23 H 0.6257 0.8205 0.6299
C24 C 0.5375(5) 0.7729(5) 0.4196(3)
H24 H 0.4737 0.7061 0.4548
H25 H 0.4868 0.8745 0.4055
H26 H 0.6287 0.7979 0.4495
C25 C 0.5730(16) 0.682(2) 0.3423(13)
H27 H 0.4909 0.6106 0.3248
H28 H 0.5998 0.7562 0.2964
O4 O 0.6829(12) 0.6003(17) 0.3676(12)
H29 H 0.7607 0.6474 0.3536
loop_
_geom_bond_atom_site_label_1
_geom_bond_atom_site_label_2
_geom_bond_site_symmetry_1
_geom_bond_site_symmetry_2
C1 H1 1_555 1_555
N1 C1 1_555 1_555
H2 N1 1_555 1_555
C2 C1 1_555 1_555
H3 N2 1_555 1_555
C3 C2 1_555 1_555
C4 C3 1_555 1_555
H4 C4 1_555 1_555
C5 C4 1_555 1_555
H5 C5 1_555 1_555
C6 C5 1_555 1_555
O1 C6 1_555 1_555
H6 O1 1_555 1_555
C7 C6 1_555 1_555
H7 C7 1_555 1_555
C8 N1 1_555 1_555
C9 C2 1_555 1_555
H8 C9 1_555 1_555
H9 C9 1_555 1_555
C10 C9 1_555 1_555
H10 C10 1_555 1_555
C11 C10 1_555 1_555
O2 C11 1_555 1_555
N2 C11 1_555 1_555
C12 N2 1_555 1_555
C13 C12 1_555 1_555
H11 C13 1_555 1_555
C14 C13 1_555 1_555
H12 C14 1_555 1_555
C15 C14 1_555 1_555
H13 C15 1_555 1_555
C16 C15 1_555 1_555
H14 C16 1_555 1_555
C17 C12 1_555 1_555
C18 C17 1_555 1_555
O3 C18 1_555 1_555
N3 C1 1_555 1_555
C19 C2 1_555 1_555
C20 C19 1_555 1_555
H15 C20 1_555 1_555
C21 C20 1_555 1_555
H16 C21 1_555 1_555
H17 C21 1_555 1_555
C22 C19 1_555 1_555
H18 C22 1_555 1_555
H19 C22 1_555 1_555
H20 C22 1_555 1_555
C23 C19 1_555 1_555
H21 C23 1_555 1_555
H22 C23 1_555 1_555
H23 C23 1_555 1_555
C24 H24 1_555 1_555
H25 C24 1_555 1_555
H26 C24 1_555 1_555
C25 C24 1_555 1_555
H27 C25 1_555 1_555
H28 C25 1_555 1_555
O4 C25 1_555 1_555
H29 O4 1_555 1_555
C3 C8 1_555 1_555
C7 C8 1_555 1_555
C10 N3 1_555 1_555
C16 C17 1_555 1_555
C18 N3 1_555 1_555

#END
