
#######################################################################
#
#                 Cambridge Crystallographic Data Centre
#                                CCDC 
#
#######################################################################
#
# If this CIF has been generated from an entry in the Cambridge 
# Structural Database, then it will include bibliographic, chemical, 
# crystal, experimental, refinement or atomic coordinate data resulting 
# from the CCDC's data processing and validation procedures.
#
#######################################################################

data_KIVQOX
_chemical_formula_moiety         'C44 H34 N2 O4'
_chemical_name_systematic        
2,13-Diisobutylpyrrolo[3''',4''':6'',7'']anthra[2'',3'':5',6']cycloocta[1',2':6,7]naphtho[2,3-f]isoindole-1,3,12,14(2H,13H)-tetrone
_symmetry_cell_setting           orthorhombic
_symmetry_space_group_name_H-M   'P n m a'
_symmetry_Int_Tables_number      62
_space_group_name_Hall           '-P 2ac 2n'
loop_
_symmetry_equiv_pos_site_id
_symmetry_equiv_pos_as_xyz
1 x,y,z
2 1/2-x,-y,1/2+z
3 1/2+x,1/2-y,1/2-z
4 -x,1/2+y,-z
5 -x,-y,-z
6 1/2+x,y,1/2-z
7 1/2-x,1/2+y,1/2+z
8 x,1/2-y,z
_cell_length_a                   8.943(6)
_cell_length_b                   28.01(2)
_cell_length_c                   13.894(10)
_cell_angle_alpha                90
_cell_angle_beta                 90
_cell_angle_gamma                90
_cell_volume                     3480.36
_exptl_crystal_colour            yellow
_exptl_crystal_description       Fiber
_cell_formula_units_Z            4
loop_
_atom_site_label
_atom_site_type_symbol
_atom_site_fract_x
_atom_site_fract_y
_atom_site_fract_z
C1 C 0.8377(3) 0.27372(11) 0.3117(2)
H1 H 0.9005 0.2885 0.3581
C2 C 0.7514(4) 0.30692(10) 0.2480(2)
C3 C 0.7669(3) 0.30678(11) 0.1442(2)
C4 C 0.8704(4) 0.27381(11) 0.0931(2)
H2 H 0.9463 0.2886 0.0557
C5 C 0.6629(3) 0.34105(10) 0.2910(2)
H3 H 0.6571 0.3419 0.3592
C6 C 0.5795(3) 0.37526(11) 0.23686(19)
C7 C 0.5932(3) 0.37494(11) 0.1333(2)
C8 C 0.6904(3) 0.34059(11) 0.0904(2)
H4 H 0.7032 0.3409 0.0225
C9 C 0.4854(3) 0.40870(10) 0.2813(2)
H5 H 0.4774 0.4089 0.3495
C10 C 0.4019(3) 0.44215(10) 0.2270(2)
C11 C 0.4145(3) 0.44158(10) 0.1223(2)
C12 C 0.5101(3) 0.40857(11) 0.0781(2)
H6 H 0.5196 0.4086 0.0100
C13 C 0.3041(3) 0.47579(10) 0.2730(2)
H7 H 0.2964 0.4769 0.3411
C14 C 0.2228(3) 0.50593(11) 0.2174(2)
C15 C 0.2316(3) 0.50477(11) 0.1140(2)
C16 C 0.3267(3) 0.47421(11) 0.0671(2)
H8 H 0.3341 0.4747 -0.0011
C17 C 0.1100(3) 0.54282(11) 0.2440(2)
O1 O 0.0686(2) 0.55596(7) 0.32380(14)
N1 N 0.0548(3) 0.56149(9) 0.15597(17)
C18 C 0.1243(4) 0.53969(12) 0.0759(2)
O2 O 0.0900(3) 0.54921(9) -0.00802(15)
C19 C -0.0708(4) 0.59440(12) 0.1478(2)
H9 H -0.1144 0.5992 0.2125
H10 H -0.1485 0.5795 0.1069
C20 C -0.0310(4) 0.64328(12) 0.1053(2)
H11 H 0.0148 0.6379 0.0406
C21 C 0.0839(5) 0.66929(14) 0.1675(3)
H12 H 0.0428 0.6742 0.2322
H13 H 0.1074 0.7003 0.1385
H14 H 0.1752 0.6501 0.1719
C22 C -0.1739(5) 0.67219(14) 0.0910(3)
H15 H -0.2440 0.6540 0.0512
H16 H -0.1498 0.7024 0.0589
H17 H -0.2195 0.6788 0.1537
C1G C 0.8377(3) 0.22628(11) 0.3117(2)
H1G H 0.9005 0.2115 0.3581
C2G C 0.7514(4) 0.19308(10) 0.2480(2)
C3G C 0.7669(3) 0.19322(11) 0.1442(2)
C4G C 0.8704(4) 0.22619(11) 0.0931(2)
H2G H 0.9463 0.2114 0.0557
C5G C 0.6629(3) 0.15895(10) 0.2910(2)
H3G H 0.6571 0.1581 0.3592
C6G C 0.5795(3) 0.12474(11) 0.23686(19)
C7G C 0.5932(3) 0.12506(11) 0.1333(2)
C8G C 0.6904(3) 0.15941(11) 0.0904(2)
H4G H 0.7032 0.1591 0.0225
C9G C 0.4854(3) 0.09130(10) 0.2813(2)
H5G H 0.4774 0.0911 0.3495
C10G C 0.4019(3) 0.05785(10) 0.2270(2)
C11G C 0.4145(3) 0.05842(10) 0.1223(2)
C12G C 0.5101(3) 0.09143(11) 0.0781(2)
H6G H 0.5196 0.0914 0.0100
C13G C 0.3041(3) 0.02421(10) 0.2730(2)
H7G H 0.2964 0.0231 0.3411
C14G C 0.2228(3) -0.00593(11) 0.2174(2)
C15G C 0.2316(3) -0.00477(11) 0.1140(2)
C16G C 0.3267(3) 0.02579(11) 0.0671(2)
H8G H 0.3341 0.0253 -0.0011
C17G C 0.1100(3) -0.04282(11) 0.2440(2)
O1G O 0.0686(2) -0.05596(7) 0.32380(14)
N1G N 0.0548(3) -0.06149(9) 0.15597(17)
C18G C 0.1243(4) -0.03969(12) 0.0759(2)
O2G O 0.0900(3) -0.04921(9) -0.00802(15)
C19G C -0.0708(4) -0.09440(12) 0.1478(2)
H9G H -0.1144 -0.0992 0.2125
H10G H -0.1485 -0.0795 0.1069
C20G C -0.0310(4) -0.14328(12) 0.1053(2)
H11G H 0.0148 -0.1379 0.0406
C21G C 0.0839(5) -0.16929(14) 0.1675(3)
H12G H 0.0428 -0.1742 0.2322
H13G H 0.1074 -0.2003 0.1385
H14G H 0.1752 -0.1501 0.1719
C22G C -0.1739(5) -0.17219(14) 0.0910(3)
H15G H -0.2440 -0.1540 0.0512
H16G H -0.1498 -0.2024 0.0589
H17G H -0.2195 -0.1788 0.1537
loop_
_geom_bond_atom_site_label_1
_geom_bond_atom_site_label_2
_geom_bond_site_symmetry_1
_geom_bond_site_symmetry_2
C1 H1 1_555 1_555
C2 C1 1_555 1_555
C3 C2 1_555 1_555
C4 C3 1_555 1_555
H2 C4 1_555 1_555
C5 C2 1_555 1_555
H3 C5 1_555 1_555
C6 C5 1_555 1_555
C7 C6 1_555 1_555
C8 C3 1_555 1_555
H4 C8 1_555 1_555
C9 C6 1_555 1_555
H5 C9 1_555 1_555
C10 C9 1_555 1_555
C11 C10 1_555 1_555
C12 C7 1_555 1_555
H6 C12 1_555 1_555
C13 C10 1_555 1_555
H7 C13 1_555 1_555
C14 C13 1_555 1_555
C15 C14 1_555 1_555
C16 C11 1_555 1_555
H8 C16 1_555 1_555
C17 C14 1_555 1_555
O1 C17 1_555 1_555
N1 C17 1_555 1_555
C18 C15 1_555 1_555
O2 C18 1_555 1_555
C19 N1 1_555 1_555
H9 C19 1_555 1_555
H10 C19 1_555 1_555
C20 C19 1_555 1_555
H11 C20 1_555 1_555
C21 C20 1_555 1_555
H12 C21 1_555 1_555
H13 C21 1_555 1_555
H14 C21 1_555 1_555
C22 C20 1_555 1_555
H15 C22 1_555 1_555
H16 C22 1_555 1_555
H17 C22 1_555 1_555
C1G C1 1_555 1_555
H1G C1G 1_555 1_555
C2G C1G 1_555 1_555
C3G C2G 1_555 1_555
C4G C4 1_555 1_555
H2G C4G 1_555 1_555
C5G C2G 1_555 1_555
H3G C5G 1_555 1_555
C6G C5G 1_555 1_555
C7G C6G 1_555 1_555
C8G C3G 1_555 1_555
H4G C8G 1_555 1_555
C9G C6G 1_555 1_555
H5G C9G 1_555 1_555
C10G C9G 1_555 1_555
C11G C10G 1_555 1_555
C12G C7G 1_555 1_555
H6G C12G 1_555 1_555
C13G C10G 1_555 1_555
H7G C13G 1_555 1_555
C14G C13G 1_555 1_555
C15G C14G 1_555 1_555
C16G C11G 1_555 1_555
H8G C16G 1_555 1_555
C17G C14G 1_555 1_555
O1G C17G 1_555 1_555
N1G C17G 1_555 1_555
C18G C15G 1_555 1_555
O2G C18G 1_555 1_555
C19G N1G 1_555 1_555
H9G C19G 1_555 1_555
H10G C19G 1_555 1_555
C20G C19G 1_555 1_555
H11G C20G 1_555 1_555
C21G C20G 1_555 1_555
H12G C21G 1_555 1_555
H13G C21G 1_555 1_555
H14G C21G 1_555 1_555
C22G C20G 1_555 1_555
H15G C22G 1_555 1_555
H16G C22G 1_555 1_555
H17G C22G 1_555 1_555
C7 C8 1_555 1_555
C11 C12 1_555 1_555
C15 C16 1_555 1_555
N1 C18 1_555 1_555
C3G C4G 1_555 1_555
C7G C8G 1_555 1_555
C11G C12G 1_555 1_555
C15G C16G 1_555 1_555
N1G C18G 1_555 1_555

#END
