
#######################################################################
#
#                 Cambridge Crystallographic Data Centre
#                                CCDC 
#
#######################################################################
#
# If this CIF has been generated from an entry in the Cambridge 
# Structural Database, then it will include bibliographic, chemical, 
# crystal, experimental, refinement or atomic coordinate data resulting 
# from the CCDC's data processing and validation procedures.
#
#######################################################################

data_KIVRAK
_chemical_formula_moiety         'C54 H38 N2 O4,C8 H18'
_chemical_name_systematic        
"2,13-Dimesitylpyrrolo[3''',4''':6'',7'']anthra[2'',3'':5',6']cycloocta[1',2':6,7]naphtho[2,3-f]isoindole-1,3,12,14(2H,13H)-tetrone octane solvate"
_symmetry_cell_setting           monoclinic
_symmetry_space_group_name_H-M   'P 2/c'
_symmetry_Int_Tables_number      13
_space_group_name_Hall           '-P 2yc'
loop_
_symmetry_equiv_pos_site_id
_symmetry_equiv_pos_as_xyz
1 x,y,z
2 -x,y,1/2-z
3 -x,-y,-z
4 x,-y,1/2+z
_cell_length_a                   22.248(2)
_cell_length_b                   9.4523(10)
_cell_length_c                   24.519(3)
_cell_angle_alpha                90
_cell_angle_beta                 95.351(5)
_cell_angle_gamma                90
_cell_volume                     5133.75
_exptl_crystal_colour            yellow
_exptl_crystal_description       Platelet
_cell_formula_units_Z            4
loop_
_atom_site_label
_atom_site_type_symbol
_atom_site_fract_x
_atom_site_fract_y
_atom_site_fract_z
C1 C -0.3360(3) 0.4868(7) 0.4160(2)
H1 H -0.3351 0.5872 0.4173
C2 C -0.3832(3) 0.4273(7) 0.4358(2)
H2 H -0.4115 0.4905 0.4494
C3 C -0.3975(3) 0.2793(7) 0.4394(2)
C4 C -0.3589(2) 0.1838(7) 0.4723(2)
C5 C -0.2990(2) 0.2230(6) 0.5008(2)
H3 H -0.2946 0.2080 0.5393
C6 C -0.2509(2) 0.2761(6) 0.4794(2)
H4 H -0.2157 0.2889 0.5040
C7 C -0.2461(2) 0.3176(6) 0.4217(2)
C8 C -0.2850(2) 0.4201(6) 0.3925(2)
C9 C -0.4508(3) 0.2282(7) 0.4181(2)
H5 H -0.4773 0.2924 0.3981
C10 C -0.4710(2) 0.0881(7) 0.4227(2)
C11 C -0.4328(2) -0.0052(7) 0.4565(2)
C12 C -0.3762(2) 0.0479(7) 0.4816(2)
H6 H -0.3507 -0.0118 0.5047
C13 C -0.1981(2) 0.2584(5) 0.39696(19)
H7 H -0.1722 0.1926 0.4168
C14 C -0.1872(2) 0.2952(5) 0.34220(19)
C15 C -0.2248(2) 0.4012(5) 0.31475(19)
C16 C -0.2725(2) 0.4591(6) 0.3425(2)
H8 H -0.2970 0.5301 0.3243
C17 C -0.5268(2) 0.0343(7) 0.3982(2)
H9 H -0.5533 0.0954 0.3767
C18 C -0.5432(2) -0.1057(6) 0.4050(2)
C19 C -0.5044(2) -0.1975(6) 0.43874(19)
C20 C -0.4509(2) -0.1439(7) 0.4637(2)
H10 H -0.4255 -0.2044 0.4866
C21 C -0.14178(19) 0.2329(5) 0.31480(18)
H11 H -0.1169 0.1625 0.3330
C22 C -0.13175(19) 0.2708(5) 0.26135(17)
C23 C -0.1687(2) 0.3798(5) 0.23501(18)
C24 C -0.2139(2) 0.4424(5) 0.26262(19)
H12 H -0.2379 0.5152 0.2450
C25 C -0.5987(2) -0.1629(6) 0.37888(19)
H13 H -0.6259 -0.1041 0.3570
C26 C -0.6117(2) -0.3027(6) 0.38600(19)
C27 C -0.5734(2) -0.3901(6) 0.41970(19)
C28 C -0.5217(2) -0.3396(6) 0.4466(2)
H14 H -0.4973 -0.3994 0.4707
C29 C -0.08621(19) 0.2053(5) 0.23310(18)
H15 H -0.0606 0.1351 0.2505
C30 C -0.0802(2) 0.2458(5) 0.18048(19)
C31 C -0.1186(2) 0.3503(6) 0.15421(18)
C32 C -0.1612(2) 0.4194(6) 0.17965(19)
H16 H -0.1853 0.4915 0.1616
C33 C -0.6631(3) -0.3909(6) 0.3634(2)
O1 O -0.70731(18) -0.3576(4) 0.33258(16)
N1 N -0.65232(18) -0.5295(5) 0.38303(16)
C34 C -0.5986(2) -0.5323(7) 0.4178(2)
O2 O -0.57857(16) -0.6376(4) 0.44122(16)
C35 C -0.0385(2) 0.1937(6) 0.1409(2)
O3 O 0.00144(15) 0.1079(4) 0.14715(12)
N2 N -0.05564(18) 0.2685(5) 0.09165(15)
C36 C -0.1037(2) 0.3612(6) 0.0968(2)
O4 O -0.12731(17) 0.4317(5) 0.05894(16)
C37 C -0.6878(2) -0.6561(6) 0.3701(2)
C38 C -0.6796(3) -0.7226(7) 0.3208(2)
C39 C -0.7131(3) -0.8503(6) 0.3107(3)
H17 H -0.7096 -0.8986 0.2772
C40 C -0.7498(3) -0.9068(7) 0.3467(3)
C41 C -0.7527(3) -0.8381(7) 0.3957(3)
H18 H -0.7762 -0.8786 0.4221
C42 C -0.7224(3) -0.7106(7) 0.4083(3)
C43 C -0.6379(3) -0.6660(6) 0.2824(2)
H19 H -0.6466 -0.5656 0.2755
H20 H -0.6434 -0.7183 0.2478
H21 H -0.5962 -0.6767 0.2984
C44 C -0.7852(3) -1.0408(7) 0.3322(3)
H22 H -0.8278 -1.0256 0.3376
H23 H -0.7691 -1.1184 0.3557
H24 H -0.7816 -1.0649 0.2937
C45 C -0.7286(3) -0.6368(7) 0.4618(3)
H25 H -0.6909 -0.6463 0.4856
H26 H -0.7617 -0.6796 0.4797
H27 H -0.7372 -0.5363 0.4550
C46 C -0.0237(3) 0.2575(6) 0.04308(19)
C47 C -0.0465(3) 0.1676(6) 0.0010(2)
C48 C -0.0143(3) 0.1572(7) -0.0449(2)
H28 H -0.0293 0.0983 -0.0745
C49 C 0.0390(3) 0.2304(7) -0.0483(2)
C50 C 0.0596(2) 0.3216(7) -0.0051(2)
H29 H 0.0955 0.3746 -0.0077
C51 C 0.0293(2) 0.3355(6) 0.0403(2)
C52 C -0.1051(3) 0.0876(7) 0.0040(2)
H30 H -0.1393 0.1516 -0.0052
H31 H -0.1070 0.0506 0.0411
H32 H -0.1071 0.0089 -0.0222
C53 C 0.0736(3) 0.2211(8) -0.0996(2)
H33 H 0.0593 0.1391 -0.1216
H34 H 0.1168 0.2108 -0.0885
H35 H 0.0667 0.3075 -0.1213
C54 C 0.0497(2) 0.4379(6) 0.0843(2)
H36 H 0.0876 0.4818 0.0759
H37 H 0.0559 0.3880 0.1194
H38 H 0.0189 0.5112 0.0866
loop_
_geom_bond_atom_site_label_1
_geom_bond_atom_site_label_2
_geom_bond_site_symmetry_1
_geom_bond_site_symmetry_2
C1 H1 1_555 1_555
C2 C1 1_555 1_555
H2 C2 1_555 1_555
C3 C2 1_555 1_555
C4 C3 1_555 1_555
C5 C4 1_555 1_555
H3 C5 1_555 1_555
C6 C5 1_555 1_555
H4 C6 1_555 1_555
C7 C6 1_555 1_555
C8 C1 1_555 1_555
C9 C3 1_555 1_555
H5 C9 1_555 1_555
C10 C9 1_555 1_555
C11 C10 1_555 1_555
C12 C4 1_555 1_555
H6 C12 1_555 1_555
C13 C7 1_555 1_555
H7 C13 1_555 1_555
C14 C13 1_555 1_555
C15 C14 1_555 1_555
C16 C8 1_555 1_555
H8 C16 1_555 1_555
C17 C10 1_555 1_555
H9 C17 1_555 1_555
C18 C17 1_555 1_555
C19 C18 1_555 1_555
C20 C11 1_555 1_555
H10 C20 1_555 1_555
C21 C14 1_555 1_555
H11 C21 1_555 1_555
C22 C21 1_555 1_555
C23 C22 1_555 1_555
C24 C15 1_555 1_555
H12 C24 1_555 1_555
C25 C18 1_555 1_555
H13 C25 1_555 1_555
C26 C25 1_555 1_555
C27 C26 1_555 1_555
C28 C19 1_555 1_555
H14 C28 1_555 1_555
C29 C22 1_555 1_555
H15 C29 1_555 1_555
C30 C29 1_555 1_555
C31 C30 1_555 1_555
C32 C23 1_555 1_555
H16 C32 1_555 1_555
C33 C26 1_555 1_555
O1 C33 1_555 1_555
N1 C33 1_555 1_555
C34 C27 1_555 1_555
O2 C34 1_555 1_555
C35 C30 1_555 1_555
O3 C35 1_555 1_555
N2 C35 1_555 1_555
C36 C31 1_555 1_555
O4 C36 1_555 1_555
C37 N1 1_555 1_555
C38 C37 1_555 1_555
C39 C38 1_555 1_555
H17 C39 1_555 1_555
C40 C39 1_555 1_555
C41 C40 1_555 1_555
H18 C41 1_555 1_555
C42 C37 1_555 1_555
C43 C38 1_555 1_555
H19 C43 1_555 1_555
H20 C43 1_555 1_555
H21 C43 1_555 1_555
C44 C40 1_555 1_555
H22 C44 1_555 1_555
H23 C44 1_555 1_555
H24 C44 1_555 1_555
C45 C42 1_555 1_555
H25 C45 1_555 1_555
H26 C45 1_555 1_555
H27 C45 1_555 1_555
C46 N2 1_555 1_555
C47 C46 1_555 1_555
C48 C47 1_555 1_555
H28 C48 1_555 1_555
C49 C48 1_555 1_555
C50 C49 1_555 1_555
H29 C50 1_555 1_555
C51 C46 1_555 1_555
C52 C47 1_555 1_555
H30 C52 1_555 1_555
H31 C52 1_555 1_555
H32 C52 1_555 1_555
C53 C49 1_555 1_555
H33 C53 1_555 1_555
H34 C53 1_555 1_555
H35 C53 1_555 1_555
C54 C51 1_555 1_555
H36 C54 1_555 1_555
H37 C54 1_555 1_555
H38 C54 1_555 1_555
C7 C8 1_555 1_555
C11 C12 1_555 1_555
C15 C16 1_555 1_555
C19 C20 1_555 1_555
C23 C24 1_555 1_555
C27 C28 1_555 1_555
C31 C32 1_555 1_555
N1 C34 1_555 1_555
N2 C36 1_555 1_555
C41 C42 1_555 1_555
C50 C51 1_555 1_555

#END
