
#######################################################################
#
#                 Cambridge Crystallographic Data Centre
#                                CCDC 
#
#######################################################################
#
# If this CIF has been generated from an entry in the Cambridge 
# Structural Database, then it will include bibliographic, chemical, 
# crystal, experimental, refinement or atomic coordinate data resulting 
# from the CCDC's data processing and validation procedures.
#
#######################################################################

data_KIVTUG
_chemical_formula_moiety         'C21 H27 N4 1+,Cl1 O4 1-'
_chemical_name_systematic        
'1-t-Butyl-4-(2-((dimethylamino)methyl)phenyl)-3-phenyl-4H-1,2,4-triazol-1-ium perchlorate unknown solvate'
_symmetry_cell_setting           triclinic
_symmetry_space_group_name_H-M   'P -1'
_symmetry_Int_Tables_number      2
_space_group_name_Hall           '-P 1'
loop_
_symmetry_equiv_pos_site_id
_symmetry_equiv_pos_as_xyz
1 x,y,z
2 -x,-y,-z
_cell_length_a                   8.4700(5)
_cell_length_b                   10.7750(10)
_cell_length_c                   24.981(3)
_cell_angle_alpha                93.583(8)
_cell_angle_beta                 94.994(8)
_cell_angle_gamma                101.075(7)
_cell_volume                     2221.59
_exptl_crystal_colour            colorless
_exptl_crystal_description       block
_cell_formula_units_Z            4
loop_
_atom_site_label
_atom_site_type_symbol
_atom_site_fract_x
_atom_site_fract_y
_atom_site_fract_z
Cl1 Cl 0.22767(18) 0.69275(13) 0.45033(5)
O1 O 0.2050(7) 0.6152(5) 0.4008(2)
O2 O 0.2884(10) 0.6360(7) 0.4929(3)
O3 O 0.3648(10) 0.7999(7) 0.4436(3)
O4 O 0.1072(11) 0.7577(10) 0.4581(4)
Cl2 Cl 0.25153(18) 0.19895(14) 0.05704(6)
O5 O 0.2520(8) 0.1291(5) 0.1050(2)
O6 O 0.3784(12) 0.3099(7) 0.0681(3)
O7 O 0.2976(13) 0.1314(8) 0.0141(3)
O8 O 0.1161(11) 0.2489(11) 0.0484(5)
N1 N -0.1214(6) 1.0110(4) 0.13672(18)
N2 N 0.0329(6) 0.8789(4) 0.12425(18)
N3 N -0.0483(6) 0.9990(5) 0.18645(19)
C1 C -0.0751(7) 0.9386(5) 0.0997(2)
H1 H -0.1099 0.9298 0.0631
C2 C 0.1008(7) 0.7803(5) 0.0987(2)
C3 C 0.2907(7) 0.8371(6) 0.2134(2)
H2 H 0.3263 0.8354 0.1793
C4 C 0.0435(7) 0.6550(5) 0.1076(2)
C5 C 0.2410(9) 0.5979(6) 0.0513(3)
H3 H 0.2897 0.5361 0.0358
C6 C 0.1477(7) 0.8771(5) 0.2212(2)
C7 C 0.0449(7) 0.9184(6) 0.1784(2)
N4 N -0.2371(7) 0.6635(5) 0.1244(2)
C8 C -0.2445(7) 1.0940(6) 0.1320(2)
C9 C 0.2243(8) 0.8172(6) 0.0664(2)
H4 H 0.2596 0.9022 0.0609
C10 C 0.3301(8) 0.8031(6) 0.3076(2)
H5 H 0.3926 0.7797 0.3363
C11 C 0.1881(9) 0.8421(7) 0.3158(3)
H6 H 0.1518 0.8419 0.3498
C12 C 0.0977(9) 0.8805(6) 0.2736(2)
H7 H 0.0038 0.9097 0.2796
C13 C 0.1147(8) 0.5642(6) 0.0825(3)
H8 H 0.0768 0.4789 0.0867
C14 C -0.0938(8) 0.6163(6) 0.1421(3)
H9 H -0.1203 0.5245 0.1418
H10 H -0.0581 0.6502 0.1790
C15 C 0.2936(8) 0.7233(7) 0.0425(3)
H11 H 0.3764 0.7458 0.0208
C16 C 0.3814(8) 0.8012(6) 0.2564(3)
H12 H 0.4769 0.7742 0.2506
C17 C -0.3051(9) 0.6006(10) 0.0716(3)
H13 H -0.2281 0.6220 0.0460
H14 H -0.4027 0.6290 0.0605
H15 H -0.3288 0.5103 0.0735
C18 C -0.3559(10) 0.6377(9) 0.1626(4)
H16 H -0.3834 0.5480 0.1660
H17 H -0.4513 0.6678 0.1504
H18 H -0.3113 0.6806 0.1970
C19 C -0.1633(11) 1.2260(7) 0.1571(4)
H19 H -0.1255 1.2211 0.1941
H20 H -0.2392 1.2816 0.1552
H21 H -0.0734 1.2582 0.1376
C20 C -0.3822(10) 1.0370(9) 0.1619(4)
H22 H -0.4232 0.9514 0.1471
H23 H -0.4667 1.0849 0.1587
H24 H -0.3443 1.0370 0.1993
C21 C -0.2979(11) 1.0971(10) 0.0727(3)
H25 H -0.2122 1.1401 0.0538
H26 H -0.3887 1.1383 0.0687
H27 H -0.3298 1.0104 0.0581
N5 N 0.9828(5) 0.3591(4) 0.37489(18)
C22 C 0.8694(6) 0.4101(5) 0.3974(2)
H28 H 0.8330 0.3947 0.4309
N6 N 0.8195(6) 0.4865(4) 0.36344(18)
C23 C 0.9972(7) 0.4096(5) 0.3255(2)
C24 C 1.0597(7) 0.2649(5) 0.3998(2)
N7 N 0.8983(6) 0.4862(5) 0.31759(18)
C25 C 1.1088(7) 0.3821(6) 0.2858(2)
C26 C 1.2050(7) 0.3070(6) 0.4315(2)
H29 H 1.2530 0.3927 0.4357
C27 C 0.6915(7) 0.5638(5) 0.3682(2)
C28 C 1.1541(7) 0.4781(6) 0.2511(3)
H30 H 1.1197 0.5547 0.2552
C29 C 1.2050(9) 0.0917(6) 0.4494(3)
H31 H 1.2533 0.0319 0.4663
N8 N 0.6962(6) 0.1454(5) 0.3763(2)
C30 C 1.1650(7) 0.2706(6) 0.2808(2)
H32 H 1.1389 0.2090 0.3048
C31 C 0.9829(7) 0.1385(6) 0.3910(2)
C32 C 0.8270(8) 0.0991(6) 0.3539(3)
H33 H 0.8420 0.1313 0.3190
H34 H 0.7998 0.0072 0.3489
C33 C 1.2609(8) 0.2502(6) 0.2401(3)
H35 H 1.2946 0.1732 0.2361
C34 C 1.2782(9) 0.2172(6) 0.4565(3)
H36 H 1.3754 0.2424 0.4783
C35 C 1.3059(8) 0.3450(7) 0.2048(3)
H37 H 1.3725 0.3328 0.1781
C36 C 1.0580(8) 0.0511(6) 0.4169(3)
H38 H 1.0111 -0.0347 0.4123
C37 C 1.2510(8) 0.4569(7) 0.2117(3)
H39 H 1.2793 0.5198 0.1885
C38 C 0.6444(10) 0.0744(8) 0.4215(3)
H40 H 0.6053 -0.0130 0.4090
H41 H 0.5591 0.1081 0.4364
H42 H 0.7334 0.0810 0.4488
C39 C 0.6358(12) 0.5521(10) 0.4232(3)
H43 H 0.6167 0.4642 0.4303
H44 H 0.5370 0.5830 0.4242
H45 H 0.7159 0.6000 0.4501
C40 C 0.5573(8) 0.5141(8) 0.3250(4)
H46 H 0.5956 0.5294 0.2905
H47 H 0.4695 0.5571 0.3298
H48 H 0.5205 0.4246 0.3269
C41 C 0.7693(9) 0.6998(7) 0.3596(5)
H49 H 0.8544 0.7324 0.3878
H50 H 0.6889 0.7515 0.3597
H51 H 0.8132 0.7009 0.3254
C42 C 0.5610(9) 0.1416(8) 0.3355(4)
H52 H 0.5959 0.1969 0.3084
H53 H 0.4742 0.1695 0.3520
H54 H 0.5241 0.0566 0.3193
loop_
_geom_bond_atom_site_label_1
_geom_bond_atom_site_label_2
_geom_bond_site_symmetry_1
_geom_bond_site_symmetry_2
Cl1 O1 1_555 1_555
O2 Cl1 1_555 1_555
O3 Cl1 1_555 1_555
O4 Cl1 1_555 1_555
Cl2 O5 1_555 1_555
O6 Cl2 1_555 1_555
O7 Cl2 1_555 1_555
O8 Cl2 1_555 1_555
N1 N3 1_555 1_555
N2 C1 1_555 1_555
N3 C7 1_555 1_555
C1 N1 1_555 1_555
H1 C1 1_555 1_555
C2 N2 1_555 1_555
C3 H2 1_555 1_555
C4 C2 1_555 1_555
C5 H3 1_555 1_555
C6 C3 1_555 1_555
C7 N2 1_555 1_555
N4 C14 1_555 1_555
C8 N1 1_555 1_555
C9 C2 1_555 1_555
H4 C9 1_555 1_555
C10 H5 1_555 1_555
C11 C10 1_555 1_555
H6 C11 1_555 1_555
C12 C6 1_555 1_555
H7 C12 1_555 1_555
C13 C4 1_555 1_555
H8 C13 1_555 1_555
C14 C4 1_555 1_555
H9 C14 1_555 1_555
H10 C14 1_555 1_555
C15 C5 1_555 1_555
H11 C15 1_555 1_555
C16 C3 1_555 1_555
H12 C16 1_555 1_555
C17 N4 1_555 1_555
H13 C17 1_555 1_555
H14 C17 1_555 1_555
H15 C17 1_555 1_555
C18 N4 1_555 1_555
H16 C18 1_555 1_555
H17 C18 1_555 1_555
H18 C18 1_555 1_555
C19 C8 1_555 1_555
H19 C19 1_555 1_555
H20 C19 1_555 1_555
H21 C19 1_555 1_555
C20 C8 1_555 1_555
H22 C20 1_555 1_555
H23 C20 1_555 1_555
H24 C20 1_555 1_555
C21 C8 1_555 1_555
H25 C21 1_555 1_555
H26 C21 1_555 1_555
H27 C21 1_555 1_555
N5 C22 1_555 1_555
C22 H28 1_555 1_555
N6 C22 1_555 1_555
C23 N5 1_555 1_555
C24 N5 1_555 1_555
N7 N6 1_555 1_555
C25 C23 1_555 1_555
C26 C24 1_555 1_555
H29 C26 1_555 1_555
C27 N6 1_555 1_555
C28 C25 1_555 1_555
H30 C28 1_555 1_555
C29 H31 1_555 1_555
N8 C32 1_555 1_555
C30 C25 1_555 1_555
H32 C30 1_555 1_555
C31 C24 1_555 1_555
C32 C31 1_555 1_555
H33 C32 1_555 1_555
H34 C32 1_555 1_555
C33 C30 1_555 1_555
H35 C33 1_555 1_555
C34 C26 1_555 1_555
H36 C34 1_555 1_555
C35 C33 1_555 1_555
H37 C35 1_555 1_555
C36 C29 1_555 1_555
H38 C36 1_555 1_555
C37 C28 1_555 1_555
H39 C37 1_555 1_555
C38 N8 1_555 1_555
H40 C38 1_555 1_555
H41 C38 1_555 1_555
H42 C38 1_555 1_555
C39 C27 1_555 1_555
H43 C39 1_555 1_555
H44 C39 1_555 1_555
H45 C39 1_555 1_555
C40 C27 1_555 1_555
H46 C40 1_555 1_555
H47 C40 1_555 1_555
H48 C40 1_555 1_555
C41 C27 1_555 1_555
H49 C41 1_555 1_555
H50 C41 1_555 1_555
H51 C41 1_555 1_555
C42 N8 1_555 1_555
H52 C42 1_555 1_555
H53 C42 1_555 1_555
H54 C42 1_555 1_555
C5 C13 1_555 1_555
C6 C7 1_555 1_555
C9 C15 1_555 1_555
C10 C16 1_555 1_555
C11 C12 1_555 1_555
C23 N7 1_555 1_555
C29 C34 1_555 1_555
C31 C36 1_555 1_555
C35 C37 1_555 1_555

#END
