
#######################################################################
#
#                 Cambridge Crystallographic Data Centre
#                                CCDC 
#
#######################################################################
#
# If this CIF has been generated from an entry in the Cambridge 
# Structural Database, then it will include bibliographic, chemical, 
# crystal, experimental, refinement or atomic coordinate data resulting 
# from the CCDC's data processing and validation procedures.
#
#######################################################################

data_KIVVAO
_chemical_formula_moiety         'C29 H33 N1 O2'
_chemical_name_systematic        
'methyl 7-isopropyl-1,4a-dimethyl-9-vinyl-2,3,4,4a,9,13c-hexahydro-1H-dibenzo[a,c]carbazole-1-carboxylate'
_symmetry_cell_setting           monoclinic
_symmetry_space_group_name_H-M   'P 21'
_symmetry_Int_Tables_number      4
_space_group_name_Hall           'P 2yb'
loop_
_symmetry_equiv_pos_site_id
_symmetry_equiv_pos_as_xyz
1 x,y,z
2 -x,1/2+y,-z
_cell_length_a                   14.428(3)
_cell_length_b                   7.3440(15)
_cell_length_c                   22.768(5)
_cell_angle_alpha                90
_cell_angle_beta                 95.17(3)
_cell_angle_gamma                90
_cell_volume                     2402.67
_exptl_crystal_colour            colorless
_exptl_crystal_description       needle
_cell_formula_units_Z            4
loop_
_atom_site_label
_atom_site_type_symbol
_atom_site_fract_x
_atom_site_fract_y
_atom_site_fract_z
O1 O 0.8902(3) 0.8355(6) 0.6187(2)
O2 O 0.8208(3) 0.6663(7) 0.68324(18)
N1 N 0.6535(3) 0.9429(7) 0.4366(2)
C1 C 0.9064(4) 0.3608(9) 0.4864(3)
H1 H 0.9064 0.2666 0.4565
H2 H 0.9648 0.4264 0.4867
C2 C 0.9006(5) 0.2712(10) 0.5465(3)
H3 H 0.8444 0.1983 0.5457
H4 H 0.9535 0.1909 0.5549
C3 C 0.8997(4) 0.4112(10) 0.5942(3)
H5 H 0.9583 0.4768 0.5970
H6 H 0.8948 0.3500 0.6316
C4 C 0.8185(4) 0.5505(8) 0.5839(3)
C5 C 0.8188(4) 0.6352(8) 0.5222(2)
H7 H 0.8763 0.7067 0.5234
C6 C 0.7414(3) 0.7683(8) 0.5037(2)
C7 C 0.6736(4) 0.8723(8) 0.5339(2)
C8 C 0.6529(4) 0.8848(8) 0.5930(3)
H8 H 0.6863 0.8201 0.6230
C9 C 0.5789(4) 1.0005(9) 0.6042(3)
H9 H 0.5652 1.0155 0.6430
C10 C 0.5280(4) 1.0891(10) 0.5624(3)
H10 H 0.4782 1.1588 0.5728
C11 C 0.5457(4) 1.0822(9) 0.5037(3)
H11 H 0.5101 1.1453 0.4743
C12 C 0.6222(4) 0.9717(8) 0.4919(2)
C13 C 0.7271(4) 0.8189(8) 0.4468(3)
C14 C 0.7883(3) 0.7640(8) 0.4031(2)
C15 C 0.8032(4) 0.8700(9) 0.3528(2)
H12 H 0.7731 0.9814 0.3471
C16 C 0.8628(4) 0.8089(11) 0.3117(3)
C17 C 0.9102(4) 0.6473(10) 0.3227(3)
H13 H 0.9493 0.6049 0.2954
C18 C 0.9009(4) 0.5465(10) 0.3735(3)
H14 H 0.9350 0.4400 0.3804
C19 C 0.8398(3) 0.6062(9) 0.4144(2)
C20 C 0.8250(4) 0.4944(7) 0.4695(2)
C21 C 0.7281(4) 0.4526(8) 0.5965(2)
H15 H 0.7154 0.3565 0.5683
H16 H 0.6775 0.5380 0.5934
H17 H 0.7350 0.4023 0.6355
C22 C 0.8451(4) 0.7005(11) 0.6283(3)
C23 C 0.7369(3) 0.3848(8) 0.4548(3)
H18 H 0.6856 0.4661 0.4452
H19 H 0.7245 0.3117 0.4882
H20 H 0.7447 0.3072 0.4217
C24 C 0.8750(5) 0.9233(11) 0.2563(3)
H21 H 0.9259 0.8691 0.2366
C25 C 0.9024(6) 1.1213(13) 0.2716(3)
H22 H 0.9575 1.1224 0.2986
H23 H 0.8525 1.1801 0.2895
H24 H 0.9142 1.1851 0.2362
C26 C 0.7903(5) 0.9208(14) 0.2137(3)
H25 H 0.7736 0.7970 0.2043
H26 H 0.8029 0.9841 0.1784
H27 H 0.7400 0.9795 0.2311
C27 C 0.8406(5) 0.8135(11) 0.7261(3)
H28 H 0.8196 0.7789 0.7633
H29 H 0.8088 0.9221 0.7121
H30 H 0.9064 0.8359 0.7309
C28 C 0.6076(4) 0.9814(9) 0.3818(2)
H31 H 0.6112 0.8927 0.3529
C29 C 0.5607(4) 1.1246(10) 0.3662(3)
H32 H 0.5546 1.2179 0.3933
H33 H 0.5328 1.1351 0.3280
O3 O 0.6001(3) 0.6127(7) 0.24866(18)
O4 O 0.4839(3) 0.4120(6) 0.25118(18)
N2 N 0.3267(4) 0.2770(7) 0.0469(2)
C30 C 0.2659(4) 0.8559(10) 0.2031(3)
H34 H 0.2156 0.9391 0.1910
H35 H 0.2472 0.7856 0.2362
C31 C 0.3517(5) 0.9653(10) 0.2234(3)
H36 H 0.3377 1.0499 0.2541
H37 H 0.3722 1.0346 0.1906
C32 C 0.4287(4) 0.8333(9) 0.2471(3)
H38 H 0.4076 0.7653 0.2799
H39 H 0.4833 0.9024 0.2617
C33 C 0.4553(4) 0.6986(8) 0.1991(2)
C34 C 0.3661(4) 0.6020(8) 0.1717(2)
H40 H 0.3454 0.5291 0.2041
C35 C 0.3793(4) 0.4615(8) 0.1227(2)
C36 C 0.4580(4) 0.3654(8) 0.1026(2)
C37 C 0.5547(4) 0.3601(10) 0.1183(3)
H41 H 0.5807 0.4309 0.1494
C38 C 0.6093(5) 0.2525(10) 0.0881(3)
H42 H 0.6731 0.2504 0.0987
C39 C 0.5719(5) 0.1424(10) 0.0408(3)
H43 H 0.6111 0.0688 0.0208
C40 C 0.4801(6) 0.1438(10) 0.0245(3)
H44 H 0.4558 0.0749 -0.0076
C41 C 0.4223(5) 0.2479(9) 0.0557(3)
C42 C 0.3010(4) 0.3996(9) 0.0904(3)
C43 C 0.2080(4) 0.4456(9) 0.1025(3)
C44 C 0.1326(4) 0.3297(11) 0.0895(3)
H45 H 0.1405 0.2227 0.0687
C45 C 0.0443(5) 0.3733(11) 0.1077(3)
C46 C 0.0344(5) 0.5269(11) 0.1391(3)
H46 H -0.0238 0.5579 0.1506
C47 C 0.1111(5) 0.6404(12) 0.1545(3)
H47 H 0.1030 0.7433 0.1773
C48 C 0.1975(4) 0.6039(10) 0.1369(3)
C49 C 0.2801(5) 0.7261(9) 0.1520(3)
C50 C 0.5084(4) 0.7938(8) 0.1527(3)
H48 H 0.5230 0.7071 0.1233
H49 H 0.5650 0.8446 0.1713
H50 H 0.4707 0.8893 0.1344
C51 C 0.5125(4) 0.5486(9) 0.2352(3)
C52 C 0.2911(4) 0.8381(10) 0.0963(3)
H51 H 0.3032 0.7580 0.0646
H52 H 0.3420 0.9215 0.1037
H53 H 0.2349 0.9051 0.0858
C53 C -0.0403(6) 0.2463(12) 0.0915(4)
H54 H -0.0892 0.2851 0.1160
C54 C -0.0770(5) 0.2786(14) 0.0301(3)
H55 H -0.1274 0.1961 0.0196
H56 H -0.0284 0.2592 0.0045
H57 H -0.0990 0.4017 0.0259
C55 C -0.0188(5) 0.0440(13) 0.1078(3)
H58 H -0.0716 -0.0301 0.0950
H59 H -0.0058 0.0331 0.1497
H60 H 0.0343 0.0042 0.0886
C56 C 0.6578(4) 0.4888(11) 0.2856(3)
H61 H 0.7192 0.5387 0.2929
H62 H 0.6610 0.3735 0.2661
H63 H 0.6312 0.4723 0.3225
C57 C 0.2560(5) 0.2640(12) -0.0054(3)
H64 H 0.2110 0.3533 -0.0137
C58 C 0.2615(5) 0.1150(13) -0.0398(3)
H65 H 0.3072 0.0280 -0.0304
H66 H 0.2195 0.0996 -0.0729
loop_
_geom_bond_atom_site_label_1
_geom_bond_atom_site_label_2
_geom_bond_site_symmetry_1
_geom_bond_site_symmetry_2
O1 C22 1_555 1_555
O2 C22 1_555 1_555
N1 C12 1_555 1_555
C1 H1 1_555 1_555
H2 C1 1_555 1_555
C2 C1 1_555 1_555
H3 C2 1_555 1_555
H4 C2 1_555 1_555
C3 C2 1_555 1_555
H5 C3 1_555 1_555
H6 C3 1_555 1_555
C4 C3 1_555 1_555
C5 C4 1_555 1_555
H7 C5 1_555 1_555
C6 C5 1_555 1_555
C7 C6 1_555 1_555
C8 C7 1_555 1_555
H8 C8 1_555 1_555
C9 C8 1_555 1_555
H9 C9 1_555 1_555
C10 C9 1_555 1_555
H10 C10 1_555 1_555
C11 C10 1_555 1_555
H11 C11 1_555 1_555
C12 C7 1_555 1_555
C13 N1 1_555 1_555
C14 C13 1_555 1_555
C15 C14 1_555 1_555
H12 C15 1_555 1_555
C16 C15 1_555 1_555
C17 C16 1_555 1_555
H13 C17 1_555 1_555
C18 C17 1_555 1_555
H14 C18 1_555 1_555
C19 C14 1_555 1_555
C20 C1 1_555 1_555
C21 C4 1_555 1_555
H15 C21 1_555 1_555
H16 C21 1_555 1_555
H17 C21 1_555 1_555
C22 C4 1_555 1_555
C23 C20 1_555 1_555
H18 C23 1_555 1_555
H19 C23 1_555 1_555
H20 C23 1_555 1_555
C24 C16 1_555 1_555
H21 C24 1_555 1_555
C25 C24 1_555 1_555
H22 C25 1_555 1_555
H23 C25 1_555 1_555
H24 C25 1_555 1_555
C26 C24 1_555 1_555
H25 C26 1_555 1_555
H26 C26 1_555 1_555
H27 C26 1_555 1_555
C27 O2 1_555 1_555
H28 C27 1_555 1_555
H29 C27 1_555 1_555
H30 C27 1_555 1_555
C28 N1 1_555 1_555
H31 C28 1_555 1_555
C29 C28 1_555 1_555
H32 C29 1_555 1_555
H33 C29 1_555 1_555
O3 C51 1_555 1_555
O4 C51 1_555 1_555
N2 C41 1_555 1_555
C30 H34 1_555 1_555
H35 C30 1_555 1_555
C31 C30 1_555 1_555
H36 C31 1_555 1_555
H37 C31 1_555 1_555
C32 C31 1_555 1_555
H38 C32 1_555 1_555
H39 C32 1_555 1_555
C33 C32 1_555 1_555
C34 C33 1_555 1_555
H40 C34 1_555 1_555
C35 C34 1_555 1_555
C36 C35 1_555 1_555
C37 C36 1_555 1_555
H41 C37 1_555 1_555
C38 C37 1_555 1_555
H42 C38 1_555 1_555
C39 C38 1_555 1_555
H43 C39 1_555 1_555
C40 C39 1_555 1_555
H44 C40 1_555 1_555
C41 C36 1_555 1_555
C42 N2 1_555 1_555
C43 C42 1_555 1_555
C44 C43 1_555 1_555
H45 C44 1_555 1_555
C45 C44 1_555 1_555
C46 C45 1_555 1_555
H46 C46 1_555 1_555
C47 C46 1_555 1_555
H47 C47 1_555 1_555
C48 C43 1_555 1_555
C49 C30 1_555 1_555
C50 C33 1_555 1_555
H48 C50 1_555 1_555
H49 C50 1_555 1_555
H50 C50 1_555 1_555
C51 C33 1_555 1_555
C52 C49 1_555 1_555
H51 C52 1_555 1_555
H52 C52 1_555 1_555
H53 C52 1_555 1_555
C53 C45 1_555 1_555
H54 C53 1_555 1_555
C54 C53 1_555 1_555
H55 C54 1_555 1_555
H56 C54 1_555 1_555
H57 C54 1_555 1_555
C55 C53 1_555 1_555
H58 C55 1_555 1_555
H59 C55 1_555 1_555
H60 C55 1_555 1_555
C56 O3 1_555 1_555
H61 C56 1_555 1_555
H62 C56 1_555 1_555
H63 C56 1_555 1_555
C57 N2 1_555 1_555
H64 C57 1_555 1_555
C58 C57 1_555 1_555
H65 C58 1_555 1_555
H66 C58 1_555 1_555
C5 C20 1_555 1_555
C6 C13 1_555 1_555
C11 C12 1_555 1_555
C18 C19 1_555 1_555
C19 C20 1_555 1_555
C34 C49 1_555 1_555
C35 C42 1_555 1_555
C40 C41 1_555 1_555
C47 C48 1_555 1_555
C48 C49 1_555 1_555

#END
