
#######################################################################
#
#                 Cambridge Crystallographic Data Centre
#                                CCDC 
#
#######################################################################
#
# If this CIF has been generated from an entry in the Cambridge 
# Structural Database, then it will include bibliographic, chemical, 
# crystal, experimental, refinement or atomic coordinate data resulting 
# from the CCDC's data processing and validation procedures.
#
#######################################################################

data_KIWBAV
_chemical_formula_moiety         'C26 H25 N3 O6 S1,C4 H10 O1'
_chemical_name_systematic        
"1''-t-butyl 3'-methyl 1-methyl-2,2''-dioxo-5'-thioxo-1,2-dihydrodispiro[indole-3,2'-pyrrolidine-4',3''-indole]-1'',3'(2''H)-dicarboxylate diethyl ether solvate"
_symmetry_cell_setting           orthorhombic
_symmetry_space_group_name_H-M   'P 21 21 21'
_symmetry_Int_Tables_number      19
_space_group_name_Hall           'P 2ac 2ab'
loop_
_symmetry_equiv_pos_site_id
_symmetry_equiv_pos_as_xyz
1 x,y,z
2 1/2-x,-y,1/2+z
3 -x,1/2+y,1/2-z
4 1/2+x,1/2-y,-z
_cell_length_a                   10.254(2)
_cell_length_b                   17.224(3)
_cell_length_c                   17.264(3)
_cell_angle_alpha                90
_cell_angle_beta                 90
_cell_angle_gamma                90
_cell_volume                     3049.08
_exptl_crystal_colour            colorless
_exptl_crystal_description       Prism
_cell_formula_units_Z            4
loop_
_atom_site_label
_atom_site_type_symbol
_atom_site_fract_x
_atom_site_fract_y
_atom_site_fract_z
S1 S 0.26164(4) 0.37646(3) 0.65517(3)
O1 O 0.63453(11) 0.52062(7) 0.76115(6)
O2 O 0.64903(10) 0.63984(6) 0.55836(7)
O3 O 0.43848(11) 0.67053(7) 0.54370(8)
O4 O 0.26106(11) 0.57827(7) 0.71853(6)
O5 O 0.06474(11) 0.66980(7) 0.68598(7)
O6 O -0.03247(12) 0.65236(7) 0.56986(7)
N1 N 0.79955(12) 0.47684(8) 0.68204(8)
N2 N 0.50578(12) 0.42525(7) 0.63685(7)
N3 N 0.16110(12) 0.59364(7) 0.59774(7)
C1 C 0.81372(15) 0.46173(9) 0.60236(9)
C2 C 0.92623(17) 0.43894(10) 0.56475(12)
H1 H 1.0052 0.4300 0.5921
C3 C 0.91838(19) 0.42963(11) 0.48468(12)
H2 H 0.9935 0.4133 0.4569
C4 C 0.8052(2) 0.44340(12) 0.44499(11)
H3 H 0.8035 0.4377 0.3903
C5 C 0.69167(18) 0.46591(10) 0.48438(10)
H4 H 0.6132 0.4757 0.4568
C6 C 0.69619(14) 0.47355(9) 0.56377(8)
C7 C 0.59304(13) 0.49120(8) 0.62389(8)
C8 C 0.67641(14) 0.49961(9) 0.69874(8)
C9 C 0.49381(13) 0.55873(8) 0.61779(8)
H5 H 0.4886 0.5802 0.6715
C10 C 0.35825(13) 0.52125(8) 0.60388(7)
C11 C 0.37851(14) 0.43874(8) 0.63422(8)
C12 C 0.30167(14) 0.52079(8) 0.52355(8)
C13 C 0.34252(16) 0.48074(10) 0.45826(9)
H6 H 0.4161 0.4473 0.4605
C14 C 0.27393(18) 0.49045(12) 0.38956(9)
H7 H 0.3020 0.4646 0.3439
C15 C 0.16543(18) 0.53743(11) 0.38741(9)
H8 H 0.1211 0.5446 0.3396
C16 C 0.11895(17) 0.57477(10) 0.45365(9)
H9 H 0.0424 0.6058 0.4521
C17 C 0.18846(14) 0.56485(8) 0.52159(8)
C18 C 0.25592(13) 0.56668(8) 0.64985(8)
C19 C 0.90459(17) 0.47268(11) 0.73790(11)
H10 H 0.9676 0.5142 0.7276
H11 H 0.9482 0.4222 0.7336
H12 H 0.8692 0.4788 0.7903
C20 C 0.52231(14) 0.62832(9) 0.56749(8)
C21 C 0.68574(17) 0.70893(10) 0.51562(12)
H13 H 0.6449 0.7078 0.4643
H14 H 0.7808 0.7106 0.5099
H15 H 0.6563 0.7551 0.5438
C22 C 0.05309(14) 0.64118(9) 0.61574(9)
C23 C -0.03542(16) 0.72345(10) 0.71892(10)
C24 C 0.02308(19) 0.74156(12) 0.79742(11)
H16 H 0.0313 0.6935 0.8274
H17 H -0.0336 0.7780 0.8251
H18 H 0.1095 0.7649 0.7905
C25 C -0.16437(18) 0.68171(11) 0.72732(12)
H19 H -0.1951 0.6651 0.6762
H20 H -0.2286 0.7168 0.7506
H21 H -0.1530 0.6361 0.7606
C26 C -0.04548(18) 0.79526(10) 0.66917(11)
H22 H 0.0415 0.8176 0.6618
H23 H -0.1019 0.8334 0.6947
H24 H -0.0826 0.7814 0.6187
H25 H 0.534(2) 0.3777(14) 0.6470(13)
O7 O 0.62036(13) 0.28325(7) 0.68065(8)
C27 C 0.5828(2) 0.25837(13) 0.75639(14)
H26 H 0.6310 0.2105 0.7702
H27 H 0.4884 0.2464 0.7570
C28 C 0.6113(3) 0.31966(15) 0.81338(14)
H28 H 0.7049 0.3312 0.8129
H29 H 0.5857 0.3020 0.8651
H30 H 0.5623 0.3666 0.8000
C29 C 0.6102(3) 0.22371(13) 0.62405(16)
H31 H 0.5178 0.2079 0.6185
H32 H 0.6609 0.1778 0.6409
C30 C 0.6599(4) 0.25140(15) 0.54923(16)
H33 H 0.5971 0.2877 0.5264
H34 H 0.6722 0.2071 0.5143
H35 H 0.7434 0.2778 0.5570
loop_
_geom_bond_atom_site_label_1
_geom_bond_atom_site_label_2
_geom_bond_site_symmetry_1
_geom_bond_site_symmetry_2
S1 C11 1_555 1_555
O1 C8 1_555 1_555
O2 C20 1_555 1_555
O3 C20 1_555 1_555
O4 C18 1_555 1_555
O5 C22 1_555 1_555
O6 C22 1_555 1_555
N1 C1 1_555 1_555
N2 C7 1_555 1_555
N3 C17 1_555 1_555
C1 C2 1_555 1_555
C2 H1 1_555 1_555
C3 C2 1_555 1_555
H2 C3 1_555 1_555
C4 C3 1_555 1_555
H3 C4 1_555 1_555
C5 C4 1_555 1_555
H4 C5 1_555 1_555
C6 C1 1_555 1_555
C7 C6 1_555 1_555
C8 N1 1_555 1_555
C9 C7 1_555 1_555
H5 C9 1_555 1_555
C10 C9 1_555 1_555
C11 N2 1_555 1_555
C12 C10 1_555 1_555
C13 C12 1_555 1_555
H6 C13 1_555 1_555
C14 C13 1_555 1_555
H7 C14 1_555 1_555
C15 C14 1_555 1_555
H8 C15 1_555 1_555
C16 C15 1_555 1_555
H9 C16 1_555 1_555
C17 C12 1_555 1_555
C18 N3 1_555 1_555
C19 N1 1_555 1_555
H10 C19 1_555 1_555
H11 C19 1_555 1_555
H12 C19 1_555 1_555
C20 C9 1_555 1_555
C21 O2 1_555 1_555
H13 C21 1_555 1_555
H14 C21 1_555 1_555
H15 C21 1_555 1_555
C22 N3 1_555 1_555
C23 O5 1_555 1_555
C24 C23 1_555 1_555
H16 C24 1_555 1_555
H17 C24 1_555 1_555
H18 C24 1_555 1_555
C25 C23 1_555 1_555
H19 C25 1_555 1_555
H20 C25 1_555 1_555
H21 C25 1_555 1_555
C26 C23 1_555 1_555
H22 C26 1_555 1_555
H23 C26 1_555 1_555
H24 C26 1_555 1_555
H25 N2 1_555 1_555
O7 C27 1_555 1_555
C27 H26 1_555 1_555
H27 C27 1_555 1_555
C28 C27 1_555 1_555
H28 C28 1_555 1_555
H29 C28 1_555 1_555
H30 C28 1_555 1_555
C29 O7 1_555 1_555
H31 C29 1_555 1_555
H32 C29 1_555 1_555
C30 C29 1_555 1_555
H33 C30 1_555 1_555
H34 C30 1_555 1_555
H35 C30 1_555 1_555
C5 C6 1_555 1_555
C7 C8 1_555 1_555
C10 C11 1_555 1_555
C10 C18 1_555 1_555
C16 C17 1_555 1_555

#END
