
#######################################################################
#
#                 Cambridge Crystallographic Data Centre
#                                CCDC 
#
#######################################################################
#
# If this CIF has been generated from an entry in the Cambridge 
# Structural Database, then it will include bibliographic, chemical, 
# crystal, experimental, refinement or atomic coordinate data resulting 
# from the CCDC's data processing and validation procedures.
#
#######################################################################

data_KIWBEZ
_chemical_formula_moiety         'C16 H16 Cl1 N1 O5'
_chemical_name_systematic        
't-Butyl 4-chloro-3-(2-methoxy-2-oxoethylidene)-2-oxoindoline-1-carboxylate'
_symmetry_cell_setting           monoclinic
_symmetry_space_group_name_H-M   'P 21/c'
_symmetry_Int_Tables_number      14
_space_group_name_Hall           '-P 2ybc'
loop_
_symmetry_equiv_pos_site_id
_symmetry_equiv_pos_as_xyz
1 x,y,z
2 -x,1/2+y,1/2-z
3 -x,-y,-z
4 x,1/2-y,1/2+z
_cell_length_a                   7.129(5)
_cell_length_b                   21.765(15)
_cell_length_c                   12.243(6)
_cell_angle_alpha                90
_cell_angle_beta                 118.15(3)
_cell_angle_gamma                90
_cell_volume                     1674.96
_exptl_crystal_colour            colorless
_exptl_crystal_description       block
_cell_formula_units_Z            4
loop_
_atom_site_label
_atom_site_type_symbol
_atom_site_fract_x
_atom_site_fract_y
_atom_site_fract_z
Cl1 Cl 0.76980(15) 1.12275(4) 0.83201(8)
O1 O 0.7216(4) 0.87389(11) 1.16634(18)
O2 O 0.6735(4) 0.81568(10) 1.00177(19)
O3 O 0.4960(4) 0.87320(10) 0.78478(19)
O4 O 0.4932(5) 0.92524(12) 0.5382(2)
O5 O 0.2049(4) 0.94820(12) 0.5606(2)
N1 N 0.6681(4) 0.91757(10) 0.98328(19)
C1 C 0.7919(5) 1.07569(14) 0.9524(3)
C2 C 0.8918(5) 1.09794(16) 1.0725(3)
H1 H 0.9436 1.1380 1.0882
C3 C 0.9140(5) 1.06033(16) 1.1688(3)
H2 H 0.9784 1.0759 1.2491
C4 C 0.8423(5) 0.99959(15) 1.1488(3)
H3 H 0.8588 0.9745 1.2143
C5 C 0.7460(4) 0.97790(13) 1.0282(2)
C6 C 0.7148(4) 1.01549(13) 0.9276(2)
C7 C 0.6024(4) 0.98017(13) 0.8136(2)
C8 C 0.5782(5) 0.91612(14) 0.8522(2)
C9 C 0.6899(5) 0.86734(14) 1.0617(3)
C10 C 0.6693(7) 0.75455(16) 1.0540(3)
C11 C 0.6358(11) 0.71248(19) 0.9479(5)
H4 H 0.7540 0.7162 0.9311
H5 H 0.5071 0.7238 0.8754
H6 H 0.6250 0.6708 0.9698
C12 C 0.4841(8) 0.7509(2) 1.0813(5)
H7 H 0.3542 0.7588 1.0069
H8 H 0.5018 0.7809 1.1429
H9 H 0.4784 0.7106 1.1115
C13 C 0.8788(9) 0.7424(2) 1.1680(5)
H10 H 0.8974 0.7712 1.2317
H11 H 0.9930 0.7469 1.1479
H12 H 0.8793 0.7014 1.1969
C14 C 0.5237(5) 0.99542(15) 0.6943(3)
H13 H 0.5407 1.0357 0.6750
C15 C 0.4105(6) 0.95140(15) 0.5907(3)
C16 C 0.0767(9) 0.9048(2) 0.4634(4)
H14 H 0.1167 0.8636 0.4935
H15 H 0.0999 0.9112 0.3931
H16 H -0.0710 0.9111 0.4394
loop_
_geom_bond_atom_site_label_1
_geom_bond_atom_site_label_2
_geom_bond_site_symmetry_1
_geom_bond_site_symmetry_2
Cl1 C1 1_555 1_555
O1 C9 1_555 1_555
O2 C9 1_555 1_555
O3 C8 1_555 1_555
O4 C15 1_555 1_555
O5 C15 1_555 1_555
N1 C5 1_555 1_555
C1 C2 1_555 1_555
C2 H1 1_555 1_555
C3 C2 1_555 1_555
H2 C3 1_555 1_555
C4 C3 1_555 1_555
H3 C4 1_555 1_555
C5 C4 1_555 1_555
C6 C1 1_555 1_555
C7 C6 1_555 1_555
C8 N1 1_555 1_555
C9 N1 1_555 1_555
C10 O2 1_555 1_555
C11 C10 1_555 1_555
H4 C11 1_555 1_555
H5 C11 1_555 1_555
H6 C11 1_555 1_555
C12 C10 1_555 1_555
H7 C12 1_555 1_555
H8 C12 1_555 1_555
H9 C12 1_555 1_555
C13 C10 1_555 1_555
H10 C13 1_555 1_555
H11 C13 1_555 1_555
H12 C13 1_555 1_555
C14 C7 1_555 1_555
H13 C14 1_555 1_555
C15 C14 1_555 1_555
C16 O5 1_555 1_555
H14 C16 1_555 1_555
H15 C16 1_555 1_555
H16 C16 1_555 1_555
C5 C6 1_555 1_555
C7 C8 1_555 1_555

#END
