
#######################################################################
#
#                 Cambridge Crystallographic Data Centre
#                                CCDC 
#
#######################################################################
#
# If this CIF has been generated from an entry in the Cambridge 
# Structural Database, then it will include bibliographic, chemical, 
# crystal, experimental, refinement or atomic coordinate data resulting 
# from the CCDC's data processing and validation procedures.
#
#######################################################################

data_KIWKAD
_chemical_formula_moiety         'C16 H21 I1 N1 O4 P1'
_chemical_name_systematic        
'Dimethyl (1-(1-allyl-5-iodo-1H-indol-3-yl)-3-hydroxypropyl)phosphonate'
_symmetry_cell_setting           orthorhombic
_symmetry_space_group_name_H-M   'P 21 21 21'
_symmetry_Int_Tables_number      19
_space_group_name_Hall           'P 2ac 2ab'
loop_
_symmetry_equiv_pos_site_id
_symmetry_equiv_pos_as_xyz
1 x,y,z
2 1/2-x,-y,1/2+z
3 -x,1/2+y,1/2-z
4 1/2+x,1/2-y,-z
_cell_length_a                   7.9983(9)
_cell_length_b                   10.1295(11)
_cell_length_c                   22.372(2)
_cell_angle_alpha                90
_cell_angle_beta                 90
_cell_angle_gamma                90
_cell_volume                     1812.55
_exptl_crystal_colour            colorless
_exptl_crystal_description       block
_cell_formula_units_Z            4
_exptl_crystal_recrystallization_method chloroform
loop_
_atom_site_label
_atom_site_type_symbol
_atom_site_fract_x
_atom_site_fract_y
_atom_site_fract_z
I1 I -0.17245(5) -0.23508(4) 1.053595(16)
C1 C -0.1488(6) 0.1985(4) 0.96322(18)
C2 C -0.2149(6) 0.1867(5) 1.0200(2)
H1 H -0.2571 0.2594 1.0403
C3 C -0.2156(7) 0.0612(6) 1.0456(2)
H2 H -0.2578 0.0496 1.0840
C4 C -0.1539(7) -0.0466(5) 1.0142(2)
C5 C -0.0840(6) -0.0346(5) 0.95793(19)
H3 H -0.0410 -0.1078 0.9381
C6 C -0.0797(5) 0.0895(4) 0.93177(17)
C7 C -0.0231(5) 0.1394(4) 0.87526(18)
C8 C -0.0613(5) 0.2706(5) 0.87441(19)
H4 H -0.0392 0.3272 0.8426
C9 C -0.1983(9) 0.4395(5) 0.9421(2)
H5 H -0.2831 0.4311 0.9729
H6 H -0.1065 0.4899 0.9589
C10 C -0.2671(16) 0.5123(9) 0.8935(4)
C11 C -0.2198(14) 0.6232(7) 0.8735(3)
H7 H -0.1850 0.7045 0.8588
C12 C 0.0601(5) 0.0606(5) 0.82596(18)
H8 H 0.0479 -0.0333 0.8355
C13 C -0.0168(6) 0.0847(5) 0.76337(19)
H9 H -0.0208 0.1790 0.7558
H10 H 0.0548 0.0450 0.7333
C14 C -0.1890(8) 0.0288(6) 0.7576(2)
H11 H -0.2650 0.0780 0.7830
H12 H -0.2268 0.0380 0.7166
C15 C 0.5198(7) 0.0591(7) 0.9004(2)
H13 H 0.5880 0.0036 0.8757
H14 H 0.5368 0.0364 0.9416
H15 H 0.5501 0.1498 0.8942
C16 C 0.3562(9) -0.1284(6) 0.7722(3)
H16 H 0.4054 -0.1624 0.8082
H17 H 0.4164 -0.1614 0.7382
H18 H 0.2416 -0.1560 0.7698
N1 N -0.1372(5) 0.3077(4) 0.92710(16)
O1 O -0.1920(10) -0.1054(5) 0.7740(3)
H19 H -0.2282 -0.1494 0.7461
O2 O 0.3443(4) 0.0403(3) 0.88490(12)
O3 O 0.3640(4) 0.0128(4) 0.77278(15)
O4 O 0.3213(4) 0.2375(4) 0.81365(16)
P1 P 0.28044(14) 0.09839(13) 0.82351(5)
loop_
_geom_bond_atom_site_label_1
_geom_bond_atom_site_label_2
_geom_bond_site_symmetry_1
_geom_bond_site_symmetry_2
I1 C4 1_555 1_555
C1 C2 1_555 1_555
C2 H1 1_555 1_555
C3 C2 1_555 1_555
H2 C3 1_555 1_555
C4 C3 1_555 1_555
C5 C4 1_555 1_555
H3 C5 1_555 1_555
C6 C1 1_555 1_555
C7 C6 1_555 1_555
C8 C7 1_555 1_555
H4 C8 1_555 1_555
C9 H5 1_555 1_555
H6 C9 1_555 1_555
C10 C9 1_555 1_555
C11 C10 1_555 1_555
H7 C11 1_555 1_555
C12 C7 1_555 1_555
H8 C12 1_555 1_555
C13 C12 1_555 1_555
H9 C13 1_555 1_555
H10 C13 1_555 1_555
C14 C13 1_555 1_555
H11 C14 1_555 1_555
H12 C14 1_555 1_555
C15 H13 1_555 1_555
H14 C15 1_555 1_555
H15 C15 1_555 1_555
C16 H16 1_555 1_555
H17 C16 1_555 1_555
H18 C16 1_555 1_555
N1 C1 1_555 1_555
O1 C14 1_555 1_555
H19 O1 1_555 1_555
O2 C15 1_555 1_555
O3 C16 1_555 1_555
O4 P1 1_555 1_555
P1 C12 1_555 1_555
C5 C6 1_555 1_555
C8 N1 1_555 1_555
C9 N1 1_555 1_555
O2 P1 1_555 1_555
O3 P1 1_555 1_555

#END
