
#######################################################################
#
#                 Cambridge Crystallographic Data Centre
#                                CCDC 
#
#######################################################################
#
# If this CIF has been generated from an entry in the Cambridge 
# Structural Database, then it will include bibliographic, chemical, 
# crystal, experimental, refinement or atomic coordinate data resulting 
# from the CCDC's data processing and validation procedures.
#
#######################################################################

data_KIWKOR
_chemical_formula_moiety         'C30 H25 Cl2 N1 O3'
_chemical_name_systematic        
2-Anilino-3-benzoyl-4-(2,5-dichlorophenyl)-7,7-dimethyl-5-oxo-5,6,7,8-tetrahydro-4H-benzo(b)pyran
_symmetry_cell_setting           monoclinic
_symmetry_space_group_name_H-M   'P 21/n'
_symmetry_Int_Tables_number      14
_space_group_name_Hall           '-P 2yn'
loop_
_symmetry_equiv_pos_site_id
_symmetry_equiv_pos_as_xyz
1 x,y,z
2 1/2-x,1/2+y,1/2-z
3 -x,-y,-z
4 1/2+x,1/2-y,1/2+z
_cell_length_a                   12.844(3)
_cell_length_b                   9.256(2)
_cell_length_c                   22.557(5)
_cell_angle_alpha                90
_cell_angle_beta                 103.365(4)
_cell_angle_gamma                90
_cell_volume                     2609.04
_chemical_melting_point          467K
_cell_formula_units_Z            4
_exptl_crystal_recrystallization_method ethanol/thf
loop_
_atom_site_label
_atom_site_type_symbol
_atom_site_fract_x
_atom_site_fract_y
_atom_site_fract_z
Cl1 Cl 1.02394(6) 0.53547(9) 0.14792(4)
Cl2 Cl 0.63077(9) 0.80839(10) -0.03029(4)
N1 N 1.01125(19) 0.1076(3) 0.12728(11)
O1 O 0.65405(15) 0.5247(2) 0.17605(9)
O2 O 0.96352(13) 0.23945(17) 0.20044(7)
O3 O 0.91053(15) 0.1391(2) 0.01577(8)
C1 C 0.7347(2) 0.4727(3) 0.20864(12)
C2 C 0.7538(2) 0.4781(3) 0.27707(12)
H1 H 0.7192 0.3954 0.2907
H2 H 0.7202 0.5644 0.2884
C3 C 0.8716(2) 0.4783(3) 0.31028(12)
C4 C 0.9243(2) 0.3467(3) 0.28778(11)
H3 H 1.0015 0.3561 0.3008
H4 H 0.9036 0.2601 0.3063
C5 C 0.89396(19) 0.3311(2) 0.22046(11)
C6 C 0.9429(2) 0.2043(3) 0.13997(12)
C7 C 0.86258(19) 0.2673(3) 0.09639(11)
C8 C 0.79466(19) 0.3875(3) 0.11449(11)
H5 H 0.7195 0.3616 0.0982
C9 C 0.81208(19) 0.3949(2) 0.18249(11)
C10 C 0.9257(2) 0.6182(3) 0.29677(15)
H6 H 0.8928 0.6992 0.3118
H7 H 0.9177 0.6278 0.2536
H8 H 1.0003 0.6152 0.3165
C11 C 0.8814(3) 0.4667(4) 0.37879(13)
H9 H 0.8455 0.3810 0.3875
H10 H 0.8493 0.5499 0.3927
H11 H 0.9556 0.4619 0.3994
C12 C 1.0879(2) 0.0194(3) 0.16614(13)
C13 C 1.0736(2) -0.0379(3) 0.21985(14)
H12 H 1.0137 -0.0131 0.2342
C14 C 1.1488(3) -0.1329(3) 0.25254(15)
H13 H 1.1393 -0.1719 0.2889
C15 C 1.2367(3) -0.1695(4) 0.2314(2)
H14 H 1.2879 -0.2316 0.2538
C16 C 1.2491(3) -0.1147(5) 0.1776(2)
H15 H 1.3078 -0.1423 0.1627
C17 C 1.1760(2) -0.0190(4) 0.14480(16)
H16 H 1.1861 0.0194 0.1085
C18 C 0.8497(2) 0.2257(3) 0.03393(12)
C19 C 0.7627(2) 0.2933(3) -0.01376(12)
C20 C 0.6553(2) 0.2647(3) -0.01880(14)
H17 H 0.6343 0.2005 0.0079
C21 C 0.5790(2) 0.3324(4) -0.06390(15)
H18 H 0.5068 0.3133 -0.0672
C22 C 0.6089(3) 0.4266(4) -0.10348(15)
H19 H 0.5572 0.4719 -0.1334
C23 C 0.7149(3) 0.4542(4) -0.09893(14)
H20 H 0.7354 0.5180 -0.1260
C24 C 0.7915(2) 0.3877(3) -0.05430(13)
H21 H 0.8636 0.4068 -0.0516
C25 C 0.8126(2) 0.5352(3) 0.08756(11)
C26 C 0.9106(2) 0.6062(3) 0.09834(13)
C27 C 0.9232(3) 0.7360(3) 0.07054(15)
H22 H 0.9896 0.7812 0.0788
C28 C 0.8378(3) 0.7983(3) 0.03080(16)
H23 H 0.8461 0.8849 0.0115
C29 C 0.7397(3) 0.7304(3) 0.01996(14)
C30 C 0.7271(2) 0.6016(3) 0.04800(12)
H24 H 0.6600 0.5582 0.0403
H25 H 0.998(2) 0.096(3) 0.0845(13)
loop_
_geom_bond_atom_site_label_1
_geom_bond_atom_site_label_2
_geom_bond_site_symmetry_1
_geom_bond_site_symmetry_2
Cl1 C26 1_555 1_555
Cl2 C29 1_555 1_555
N1 C6 1_555 1_555
O1 C1 1_555 1_555
O2 C5 1_555 1_555
O3 C18 1_555 1_555
C1 C2 1_555 1_555
C2 H1 1_555 1_555
H2 C2 1_555 1_555
C3 C2 1_555 1_555
C4 C3 1_555 1_555
H3 C4 1_555 1_555
H4 C4 1_555 1_555
C5 C4 1_555 1_555
C6 O2 1_555 1_555
C7 C6 1_555 1_555
C8 C7 1_555 1_555
H5 C8 1_555 1_555
C9 C1 1_555 1_555
C10 C3 1_555 1_555
H6 C10 1_555 1_555
H7 C10 1_555 1_555
H8 C10 1_555 1_555
C11 C3 1_555 1_555
H9 C11 1_555 1_555
H10 C11 1_555 1_555
H11 C11 1_555 1_555
C12 N1 1_555 1_555
C13 C12 1_555 1_555
H12 C13 1_555 1_555
C14 C13 1_555 1_555
H13 C14 1_555 1_555
C15 C14 1_555 1_555
H14 C15 1_555 1_555
C16 C15 1_555 1_555
H15 C16 1_555 1_555
C17 C12 1_555 1_555
H16 C17 1_555 1_555
C18 C7 1_555 1_555
C19 C18 1_555 1_555
C20 C19 1_555 1_555
H17 C20 1_555 1_555
C21 C20 1_555 1_555
H18 C21 1_555 1_555
C22 C21 1_555 1_555
H19 C22 1_555 1_555
C23 C22 1_555 1_555
H20 C23 1_555 1_555
C24 C19 1_555 1_555
H21 C24 1_555 1_555
C25 C8 1_555 1_555
C26 C25 1_555 1_555
C27 C26 1_555 1_555
H22 C27 1_555 1_555
C28 C27 1_555 1_555
H23 C28 1_555 1_555
C29 C28 1_555 1_555
C30 C25 1_555 1_555
H24 C30 1_555 1_555
H25 N1 1_555 1_555
C5 C9 1_555 1_555
C8 C9 1_555 1_555
C16 C17 1_555 1_555
C23 C24 1_555 1_555
C29 C30 1_555 1_555

#END
