
#######################################################################
#
#                 Cambridge Crystallographic Data Centre
#                                CCDC 
#
#######################################################################
#
# If this CIF has been generated from an entry in the Cambridge 
# Structural Database, then it will include bibliographic, chemical, 
# crystal, experimental, refinement or atomic coordinate data resulting 
# from the CCDC's data processing and validation procedures.
#
#######################################################################

data_KIWNEL
_chemical_formula_moiety         'C10 H10 O2 P2'
_chemical_name_systematic        2,6-diphosphinonaphthalene-1,5-diol
_symmetry_cell_setting           triclinic
_symmetry_space_group_name_H-M   'P -1'
_symmetry_Int_Tables_number      2
_space_group_name_Hall           '-P 1'
loop_
_symmetry_equiv_pos_site_id
_symmetry_equiv_pos_as_xyz
1 x,y,z
2 -x,-y,-z
_cell_length_a                   4.6031(5)
_cell_length_b                   8.0600(9)
_cell_length_c                   13.9923(15)
_cell_angle_alpha                86.660(4)
_cell_angle_beta                 89.391(4)
_cell_angle_gamma                74.183(4)
_cell_volume                     498.617
_exptl_crystal_colour            colorless
_exptl_crystal_description       plate
_cell_formula_units_Z            2
loop_
_atom_site_label
_atom_site_type_symbol
_atom_site_fract_x
_atom_site_fract_y
_atom_site_fract_z
P1 P 0.14684(16) 0.12036(9) 0.15641(5)
H1 H 0.045(5) 0.035(3) 0.0929(16)
H2 H -0.096(3) 0.226(3) 0.1916(18)
O1 O 0.2863(4) 0.4389(2) 0.20220(13)
C1 C 0.3264(5) 0.2359(3) -0.02438(18)
H3 H 0.2732 0.1410 -0.0494
C2 C 0.2667(5) 0.2708(3) 0.07261(18)
C3 C 0.3421(5) 0.4095(3) 0.10676(17)
C4 C 0.4691(5) 0.5197(3) 0.04858(16)
C5 C 0.5419(5) 0.6655(3) 0.08283(18)
H4 H 0.4983 0.6945 0.1472
H5 H 0.397(7) 0.466(4) 0.217(2)
P1A P 0.85316(16) 0.87964(9) -0.15641(5)
H1A H 0.955(5) 0.965(3) -0.0929(16)
H2A H 1.096(3) 0.774(3) -0.1916(18)
O1A O 0.7137(4) 0.5611(2) -0.20220(13)
C1A C 0.6736(5) 0.7641(3) 0.02438(18)
H3A H 0.7268 0.8590 0.0494
C2A C 0.7333(5) 0.7292(3) -0.07261(18)
C3A C 0.6579(5) 0.5905(3) -0.10676(17)
C4A C 0.5309(5) 0.4803(3) -0.04858(16)
C5A C 0.4581(5) 0.3345(3) -0.08283(18)
H4A H 0.5017 0.3055 -0.1472
H5A H 0.603(7) 0.534(4) -0.217(2)
P2 P 0.97083(15) 0.81056(9) 0.32924(5)
H6 H 1.188(4) 0.710(3) 0.2798(17)
H7 H 1.084(5) 0.898(3) 0.3887(16)
O2 O 0.7599(4) 0.4871(2) 0.30336(12)
C6 C 0.7741(5) 0.7008(3) 0.41574(18)
C7 C 0.7003(5) 0.5544(3) 0.39172(17)
C8 C 0.5432(5) 0.4663(3) 0.45461(16)
C9 C 0.4647(5) 0.3157(3) 0.43014(17)
H8 H 0.5207 0.2696 0.3696
C10 C 0.3106(5) 0.2371(3) 0.49255(18)
H9 H 0.2579 0.1373 0.4743
H10 H 0.907(8) 0.500(4) 0.280(3)
P2A P 0.02917(15) 0.18944(9) 0.67076(5)
H6A H -0.188(4) 0.290(3) 0.7202(17)
H7A H -0.084(5) 0.102(3) 0.6113(16)
O2A O 0.2401(4) 0.5129(2) 0.69664(12)
C6A C 0.2259(5) 0.2992(3) 0.58426(18)
C7A C 0.2997(5) 0.4456(3) 0.60828(17)
C8A C 0.4568(5) 0.5337(3) 0.54539(16)
C9A C 0.5353(5) 0.6843(3) 0.56986(17)
H8A H 0.4793 0.7304 0.6304
C10A C 0.6894(5) 0.7629(3) 0.50745(18)
H9A H 0.7421 0.8627 0.5257
H10A H 0.093(8) 0.500(4) 0.720(3)
loop_
_geom_bond_atom_site_label_1
_geom_bond_atom_site_label_2
_geom_bond_site_symmetry_1
_geom_bond_site_symmetry_2
P1 H1 1_555 1_555
H2 P1 1_555 1_555
O1 C3 1_555 1_555
C1 H3 1_555 1_555
C2 P1 1_555 1_555
C3 C2 1_555 1_555
C4 C3 1_555 1_555
C5 C4 1_555 1_555
H4 C5 1_555 1_555
H5 O1 1_555 1_555
P2 H6 1_555 1_555
H7 P2 1_555 1_555
O2 C7 1_555 1_555
C6 P2 1_555 1_555
C7 C6 1_555 1_555
C8 C7 1_555 1_555
C9 C8 1_555 1_555
H8 C9 1_555 1_555
C10 C9 1_555 1_555
H9 C10 1_555 1_555
H10 O2 1_555 1_555
P1A H1A 1_555 1_555
H2A P1A 1_555 1_555
O1A C3A 1_555 1_555
C1A C5 1_555 1_555
H3A C1A 1_555 1_555
C2A P1A 1_555 1_555
C3A C2A 1_555 1_555
C4A C4 1_555 1_555
C5A C1 1_555 1_555
H4A C5A 1_555 1_555
H5A O1A 1_555 1_555
P2A H6A 1_555 1_555
H7A P2A 1_555 1_555
O2A C7A 1_555 1_555
C6A C10 1_555 1_555
C7A C6A 1_555 1_555
C8A C8 1_555 1_555
C9A C8A 1_555 1_555
H8A C9A 1_555 1_555
C10A C6 1_555 1_555
H9A C10A 1_555 1_555
H10A O2A 1_555 1_555
C1 C2 1_555 1_555
C1A C2A 1_555 1_555
C3A C4A 1_555 1_555
C4A C5A 1_555 1_555
P2A C6A 1_555 1_555
C7A C8A 1_555 1_555
C9A C10A 1_555 1_555

#END
