
#######################################################################
#
#                 Cambridge Crystallographic Data Centre
#                                CCDC 
#
#######################################################################
#
# If this CIF has been generated from an entry in the Cambridge 
# Structural Database, then it will include bibliographic, chemical, 
# crystal, experimental, refinement or atomic coordinate data resulting 
# from the CCDC's data processing and validation procedures.
#
#######################################################################

data_KIWNIP
_chemical_formula_moiety         'C20 H22 O2 P2'
_chemical_name_systematic        
2,7-di-t-butyl[1,3]oxaphospholo[5',4':5,6]naphtho[2,1-d][1,3]oxaphosphole
_symmetry_cell_setting           monoclinic
_symmetry_space_group_name_H-M   'P 21/c'
_symmetry_Int_Tables_number      14
_space_group_name_Hall           '-P 2ybc'
loop_
_symmetry_equiv_pos_site_id
_symmetry_equiv_pos_as_xyz
1 x,y,z
2 -x,1/2+y,1/2-z
3 -x,-y,-z
4 x,1/2-y,1/2+z
_cell_length_a                   10.5582(7)
_cell_length_b                   10.0690(7)
_cell_length_c                   9.5461(7)
_cell_angle_alpha                90
_cell_angle_beta                 112.5050(10)
_cell_angle_gamma                90
_cell_volume                     937.566
_exptl_crystal_colour            colorless
_exptl_crystal_description       irregular
_cell_formula_units_Z            2
loop_
_atom_site_label
_atom_site_type_symbol
_atom_site_fract_x
_atom_site_fract_y
_atom_site_fract_z
P1 P 0.15787(4) 0.41314(4) 0.11190(5)
C1 C 0.1899(2) 0.7516(2) 0.3161(2)
H1 H 0.2712 0.7932 0.3090
H2 H 0.1668 0.7969 0.3941
H3 H 0.1127 0.7587 0.2181
C2 C 0.0937(2) 0.5417(2) 0.3751(3)
H4 H 0.0154 0.5459 0.2777
H5 H 0.0718 0.5901 0.4520
H6 H 0.1136 0.4487 0.4061
C3 C 0.3450(2) 0.5927(2) 0.5091(2)
H7 H 0.3631 0.4988 0.5361
H8 H 0.3263 0.6392 0.5893
H9 H 0.4252 0.6325 0.4976
C4 C 0.21963(18) 0.60488(18) 0.3585(2)
O1 O 0.36556(12) 0.57693(11) 0.21752(13)
C5 C 0.38386(16) 0.50990(16) 0.10192(17)
C6 C 0.49725(16) 0.53733(16) 0.06222(17)
C7 C 0.24852(16) 0.53402(17) 0.23455(18)
C8 C 0.28392(17) 0.41758(16) 0.02979(19)
C9 C 0.29300(17) 0.34514(18) -0.09385(19)
H10 H 0.2249 0.2812 -0.1454
C10 C 0.60052(17) 0.63262(17) 0.13852(19)
H11 H 0.5952 0.6812 0.2214
P1B P 0.84213(4) 0.58686(4) -0.11190(5)
C1B C 0.8101(2) 0.2484(2) -0.3161(2)
H1B H 0.7288 0.2068 -0.3090
H2B H 0.8332 0.2031 -0.3941
H3B H 0.8873 0.2413 -0.2181
C2B C 0.9063(2) 0.4583(2) -0.3751(3)
H4B H 0.9846 0.4541 -0.2777
H5B H 0.9282 0.4099 -0.4520
H6B H 0.8864 0.5513 -0.4061
C3B C 0.6550(2) 0.4073(2) -0.5091(2)
H7B H 0.6369 0.5012 -0.5361
H8B H 0.6737 0.3608 -0.5893
H9B H 0.5748 0.3675 -0.4976
C4B C 0.78037(18) 0.39512(18) -0.3585(2)
O1B O 0.63444(12) 0.42307(11) -0.21752(13)
C5B C 0.61614(16) 0.49010(16) -0.10192(17)
C6B C 0.50275(16) 0.46267(16) -0.06222(17)
C7B C 0.75148(16) 0.46598(17) -0.23455(18)
C8B C 0.71608(17) 0.58242(16) -0.02979(19)
C9B C 0.70700(17) 0.65486(18) 0.09385(19)
H10B H 0.7751 0.7188 0.1454
C10B C 0.39948(17) 0.36738(17) -0.13852(19)
H11B H 0.4048 0.3188 -0.2214
loop_
_geom_bond_atom_site_label_1
_geom_bond_atom_site_label_2
_geom_bond_site_symmetry_1
_geom_bond_site_symmetry_2
P1 C7 1_555 1_555
C1 H1 1_555 1_555
H2 C1 1_555 1_555
H3 C1 1_555 1_555
C2 H4 1_555 1_555
H5 C2 1_555 1_555
H6 C2 1_555 1_555
C3 H7 1_555 1_555
H8 C3 1_555 1_555
H9 C3 1_555 1_555
C4 C1 1_555 1_555
O1 C5 1_555 1_555
C5 C6 1_555 1_555
C6 C10 1_555 1_555
C7 C4 1_555 1_555
C8 P1 1_555 1_555
C9 C8 1_555 1_555
H10 C9 1_555 1_555
C10 H11 1_555 1_555
P1B C7B 1_555 1_555
C1B H1B 1_555 1_555
H2B C1B 1_555 1_555
H3B C1B 1_555 1_555
C2B H4B 1_555 1_555
H5B C2B 1_555 1_555
H6B C2B 1_555 1_555
C3B H7B 1_555 1_555
H8B C3B 1_555 1_555
H9B C3B 1_555 1_555
C4B C1B 1_555 1_555
O1B C5B 1_555 1_555
C5B C6B 1_555 1_555
C6B C6 1_555 1_555
C7B C4B 1_555 1_555
C8B P1B 1_555 1_555
C9B C10 1_555 1_555
H10B C9B 1_555 1_555
C10B C9 1_555 1_555
H11B C10B 1_555 1_555
C2 C4 1_555 1_555
C3 C4 1_555 1_555
O1 C7 1_555 1_555
C5 C8 1_555 1_555
C2B C4B 1_555 1_555
C3B C4B 1_555 1_555
O1B C7B 1_555 1_555
C5B C8B 1_555 1_555
C6B C10B 1_555 1_555
C8B C9B 1_555 1_555

#END
