
#######################################################################
#
#                 Cambridge Crystallographic Data Centre
#                                CCDC 
#
#######################################################################
#
# If this CIF has been generated from an entry in the Cambridge 
# Structural Database, then it will include bibliographic, chemical, 
# crystal, experimental, refinement or atomic coordinate data resulting 
# from the CCDC's data processing and validation procedures.
#
#######################################################################

data_KIWNEM
_chemical_formula_moiety         'C32 H25 N1 O6'
_chemical_name_systematic        
"dimethyl 6'-methyl-1,3-dioxo-3'-phenyl-1,3-dihydro-3'H,4a'H-spiro[indene-2,4'-pyrido[1,2-a]quinoline]-1',2'-dicarboxylate"
_symmetry_cell_setting           monoclinic
_symmetry_space_group_name_H-M   'P 21/c'
_symmetry_Int_Tables_number      14
_space_group_name_Hall           '-P 2ybc'
loop_
_symmetry_equiv_pos_site_id
_symmetry_equiv_pos_as_xyz
1 x,y,z
2 -x,1/2+y,1/2-z
3 -x,-y,-z
4 x,1/2-y,1/2+z
_cell_length_a                   11.702(2)
_cell_length_b                   15.339(3)
_cell_length_c                   15.136(4)
_cell_angle_alpha                90
_cell_angle_beta                 103.842(8)
_cell_angle_gamma                90
_cell_volume                     2637.97
_exptl_crystal_colour            yellow
_exptl_crystal_description       block
_chemical_melting_point          '212-214 deg.C'
_cell_formula_units_Z            4
loop_
_atom_site_label
_atom_site_type_symbol
_atom_site_fract_x
_atom_site_fract_y
_atom_site_fract_z
C1 C 1.09354(19) 0.04271(15) 0.32260(16)
C2 C 1.1570(2) 0.11955(16) 0.33966(17)
H1 H 1.1486 0.1618 0.2945
C3 C 1.2331(2) 0.13367(18) 0.42384(19)
H2 H 1.2772 0.1847 0.4344
C4 C 1.2438(2) 0.0728(2) 0.49167(19)
H3 H 1.2977 0.0811 0.5471
C5 C 1.1739(2) -0.00074(18) 0.47706(17)
H4 H 1.1785 -0.0403 0.5243
C6 C 1.09681(19) -0.01714(15) 0.39365(16)
C7 C 1.0220(2) -0.15551(17) 0.45479(17)
H5 H 0.9658 -0.2013 0.4347
H6 H 1.0047 -0.1266 0.5063
H7 H 1.0997 -0.1799 0.4717
C8 C 1.0153(2) -0.09101(15) 0.37906(17)
C9 C 0.9351(2) -0.09756(15) 0.30034(17)
H8 H 0.8813 -0.1431 0.2942
C10 C 0.92494(19) -0.03756(15) 0.22124(15)
H9 H 0.9294 -0.0741 0.1691
C11 C 1.0287(2) 0.07175(14) 0.15863(16)
C12 C 1.1507(2) 0.09015(18) 0.14651(16)
C13 C 1.2832(2) 0.1945(2) 0.1181(2)
H10 H 1.3464 0.1700 0.1637
H11 H 1.2929 0.2565 0.1162
H12 H 1.2840 0.1700 0.0598
C14 C 0.9312(2) 0.08611(14) 0.09274(15)
C15 C 0.9441(2) 0.11545(15) 0.00243(17)
C16 C 0.8461(3) 0.17263(19) -0.14072(17)
H13 H 0.9094 0.2131 -0.1379
H14 H 0.7728 0.2001 -0.1691
H15 H 0.8577 0.1225 -0.1756
C17 C 0.7011(2) -0.04617(19) 0.17658(18)
C18 C 0.6219(2) -0.0161(2) 0.23263(18)
C19 C 0.5106(3) -0.0473(3) 0.2360(2)
H16 H 0.4765 -0.0948 0.2013
C20 C 0.4536(3) -0.0042(3) 0.2937(3)
H17 H 0.3794 -0.0231 0.2975
C21 C 0.5038(3) 0.0657(3) 0.3453(3)
H18 H 0.4627 0.0930 0.3830
C22 C 0.6128(3) 0.0963(2) 0.3425(2)
H19 H 0.6464 0.1435 0.3778
C23 C 0.6715(2) 0.05425(19) 0.28511(18)
C24 C 0.7889(2) 0.07331(16) 0.26963(16)
C25 C 0.80801(19) 0.01445(15) 0.19284(15)
C26 C 0.80833(19) 0.06390(15) 0.10227(15)
H20 H 0.7754 0.0233 0.0527
C27 C 0.72556(19) 0.14254(17) 0.08877(15)
C28 C 0.7616(2) 0.22270(17) 0.12782(17)
H21 H 0.8381 0.2293 0.1628
C29 C 0.6860(3) 0.29276(19) 0.11558(19)
H22 H 0.7115 0.3461 0.1423
C30 C 0.5729(3) 0.2839(2) 0.0640(2)
H23 H 0.5217 0.3312 0.0560
C31 C 0.5358(2) 0.2057(2) 0.0245(2)
H24 H 0.4593 0.1999 -0.0107
C32 C 0.6111(2) 0.13548(19) 0.03659(18)
H25 H 0.5848 0.0825 0.0093
N1 N 1.02417(15) 0.02302(12) 0.23494(13)
O1 O 1.22014(16) 0.03303(13) 0.14496(13)
O2 O 1.17249(14) 0.17468(12) 0.13977(12)
O3 O 1.03423(16) 0.11133(12) -0.02302(11)
O4 O 0.84375(15) 0.14577(11) -0.04964(11)
O5 O 0.68645(18) -0.10762(15) 0.12491(15)
O6 O 0.85883(15) 0.12456(11) 0.31292(12)
loop_
_geom_bond_atom_site_label_1
_geom_bond_atom_site_label_2
_geom_bond_site_symmetry_1
_geom_bond_site_symmetry_2
C1 C2 1_555 1_555
C2 H1 1_555 1_555
C3 C2 1_555 1_555
H2 C3 1_555 1_555
C4 C3 1_555 1_555
H3 C4 1_555 1_555
C5 C4 1_555 1_555
H4 C5 1_555 1_555
C6 C1 1_555 1_555
C7 H5 1_555 1_555
H6 C7 1_555 1_555
H7 C7 1_555 1_555
C8 C6 1_555 1_555
C9 C8 1_555 1_555
H8 C9 1_555 1_555
C10 C9 1_555 1_555
H9 C10 1_555 1_555
C11 C12 1_555 1_555
C12 O1 1_555 1_555
C13 H10 1_555 1_555
H11 C13 1_555 1_555
H12 C13 1_555 1_555
C14 C11 1_555 1_555
C15 C14 1_555 1_555
C16 H13 1_555 1_555
H14 C16 1_555 1_555
H15 C16 1_555 1_555
C17 C18 1_555 1_555
C18 C19 1_555 1_555
C19 H16 1_555 1_555
C20 C19 1_555 1_555
H17 C20 1_555 1_555
C21 C20 1_555 1_555
H18 C21 1_555 1_555
C22 C21 1_555 1_555
H19 C22 1_555 1_555
C23 C18 1_555 1_555
C24 C23 1_555 1_555
C25 C10 1_555 1_555
C26 C14 1_555 1_555
H20 C26 1_555 1_555
C27 C26 1_555 1_555
C28 C27 1_555 1_555
H21 C28 1_555 1_555
C29 C28 1_555 1_555
H22 C29 1_555 1_555
C30 C29 1_555 1_555
H23 C30 1_555 1_555
C31 C30 1_555 1_555
H24 C31 1_555 1_555
C32 C27 1_555 1_555
H25 C32 1_555 1_555
N1 C1 1_555 1_555
O2 C12 1_555 1_555
O3 C15 1_555 1_555
O4 C15 1_555 1_555
O5 C17 1_555 1_555
O6 C24 1_555 1_555
C5 C6 1_555 1_555
C7 C8 1_555 1_555
C10 N1 1_555 1_555
C11 N1 1_555 1_555
C13 O2 1_555 1_555
C16 O4 1_555 1_555
C17 C25 1_555 1_555
C22 C23 1_555 1_555
C24 C25 1_555 1_555
C25 C26 1_555 1_555
C31 C32 1_555 1_555

#END
