
#######################################################################
#
#                 Cambridge Crystallographic Data Centre
#                                CCDC 
#
#######################################################################
#
# If this CIF has been generated from an entry in the Cambridge 
# Structural Database, then it will include bibliographic, chemical, 
# crystal, experimental, refinement or atomic coordinate data resulting 
# from the CCDC's data processing and validation procedures.
#
#######################################################################

data_KIWPUE
_chemical_formula_moiety         'C22 H22 O8 S1'
_chemical_name_systematic        
6,7,9,10,12,13,15,16-octahydro-11H,22H-1,21-methanodibenzo[n,q][1,4,10,13,7]tetraoxathiacyclooctadecine-11,11,22,23-tetrone
_symmetry_cell_setting           monoclinic
_symmetry_space_group_name_H-M   'P 21/n'
_symmetry_Int_Tables_number      14
_space_group_name_Hall           '-P 2yn'
loop_
_symmetry_equiv_pos_site_id
_symmetry_equiv_pos_as_xyz
1 x,y,z
2 1/2-x,1/2+y,1/2-z
3 -x,-y,-z
4 1/2+x,1/2-y,1/2+z
_cell_length_a                   8.8081(4)
_cell_length_b                   19.4651(9)
_cell_length_c                   11.6478(5)
_cell_angle_alpha                90
_cell_angle_beta                 102.4530(10)
_cell_angle_gamma                90
_cell_volume                     1950.04
_exptl_crystal_colour            brown
_exptl_crystal_description       block
_cell_formula_units_Z            4
loop_
_atom_site_label
_atom_site_type_symbol
_atom_site_fract_x
_atom_site_fract_y
_atom_site_fract_z
C1 C -0.0315(2) -0.12243(8) 0.32933(15)
C2 C -0.0437(2) -0.19271(9) 0.35284(17)
H1 H -0.1159 -0.2196 0.3023
C3 C 0.0510(3) -0.22216(9) 0.45054(18)
H2 H 0.0393 -0.2685 0.4662
C4 C 0.1625(3) -0.18399(10) 0.52532(17)
H3 H 0.2271 -0.2047 0.5897
C5 C 0.4280(2) 0.03841(11) 0.63913(16)
H4 H 0.4857 0.0180 0.7068
C6 C 0.4517(2) 0.10636(11) 0.61562(17)
H5 H 0.5218 0.1322 0.6699
C7 C 0.3732(2) 0.13694(10) 0.51304(17)
H6 H 0.3932 0.1825 0.4972
C8 C 0.2630(2) 0.09897(9) 0.43250(15)
C9 C 0.2947(2) -0.07329(10) 0.58850(15)
C10 C 0.09032(19) -0.00626(8) 0.38988(14)
C11 C 0.08036(19) -0.08225(8) 0.40657(14)
C12 C 0.1775(2) -0.11412(9) 0.50350(15)
C13 C 0.31717(19) 0.00009(10) 0.56120(15)
C14 C 0.22884(19) 0.03044(8) 0.45935(14)
C15 C 0.2165(2) 0.19559(9) 0.30160(18)
H7 H 0.3269 0.2032 0.3081
H8 H 0.1815 0.2254 0.3574
C16 C 0.1289(2) 0.21174(9) 0.17852(18)
H9 H 0.1734 0.2528 0.1520
H10 H 0.1451 0.1744 0.1273
C17 C -0.1228(2) 0.16313(9) 0.18136(16)
H11 H -0.2306 0.1769 0.1720
H12 H -0.0875 0.1471 0.2615
C18 C -0.1152(2) 0.10339(8) 0.09829(15)
H13 H -0.1689 0.0642 0.1223
H14 H -0.0073 0.0905 0.1048
C19 C -0.1856(2) 0.04536(9) -0.12963(15)
H15 H -0.2169 0.0549 -0.2131
H16 H -0.0777 0.0309 -0.1138
C20 C -0.2830(2) -0.01360(9) -0.10065(16)
H17 H -0.3813 0.0038 -0.0881
H18 H -0.3045 -0.0456 -0.1660
C21 C -0.30829(19) -0.08362(9) 0.05817(17)
H19 H -0.3819 -0.1091 -0.0003
H20 H -0.3661 -0.0507 0.0944
C22 C -0.2235(2) -0.13201(8) 0.14981(16)
H21 H -0.2965 -0.1568 0.1861
H22 H -0.1646 -0.1651 0.1148
O1 O 0.37292(17) -0.10016(8) 0.67689(13)
O2 O -0.01551(14) 0.02518(6) 0.32673(11)
O3 O -0.12101(14) -0.09108(6) 0.23588(11)
O4 O 0.18874(15) 0.12467(6) 0.32720(11)
O5 O -0.03359(17) 0.22202(6) 0.16496(12)
O6 O -0.20220(13) -0.04814(6) 0.00265(11)
O7 O -0.10491(15) 0.17311(6) -0.09439(12)
O8 O -0.36115(15) 0.13868(7) -0.06085(12)
S1 S -0.19890(5) 0.12290(2) -0.05085(4)
loop_
_geom_bond_atom_site_label_1
_geom_bond_atom_site_label_2
_geom_bond_site_symmetry_1
_geom_bond_site_symmetry_2
C1 C2 1_555 1_555
C2 H1 1_555 1_555
C3 C2 1_555 1_555
H2 C3 1_555 1_555
C4 C3 1_555 1_555
H3 C4 1_555 1_555
C5 H4 1_555 1_555
C6 C5 1_555 1_555
H5 C6 1_555 1_555
C7 C6 1_555 1_555
H6 C7 1_555 1_555
C8 C7 1_555 1_555
C9 C12 1_555 1_555
C10 C11 1_555 1_555
C11 C1 1_555 1_555
C12 C4 1_555 1_555
C13 C5 1_555 1_555
C14 C8 1_555 1_555
C15 H7 1_555 1_555
H8 C15 1_555 1_555
C16 C15 1_555 1_555
H9 C16 1_555 1_555
H10 C16 1_555 1_555
C17 H11 1_555 1_555
H12 C17 1_555 1_555
C18 C17 1_555 1_555
H13 C18 1_555 1_555
H14 C18 1_555 1_555
C19 H15 1_555 1_555
H16 C19 1_555 1_555
C20 C19 1_555 1_555
H17 C20 1_555 1_555
H18 C20 1_555 1_555
C21 H19 1_555 1_555
H20 C21 1_555 1_555
C22 C21 1_555 1_555
H21 C22 1_555 1_555
H22 C22 1_555 1_555
O1 C9 1_555 1_555
O2 C10 1_555 1_555
O3 C1 1_555 1_555
O4 C8 1_555 1_555
O5 C16 1_555 1_555
O6 C20 1_555 1_555
O7 S1 1_555 1_555
O8 S1 1_555 1_555
S1 C18 1_555 1_555
C9 C13 1_555 1_555
C10 C14 1_555 1_555
C11 C12 1_555 1_555
C13 C14 1_555 1_555
C15 O4 1_555 1_555
C17 O5 1_555 1_555
C19 S1 1_555 1_555
C21 O6 1_555 1_555
C22 O3 1_555 1_555

#END
