
#######################################################################
#
#                 Cambridge Crystallographic Data Centre
#                                CCDC 
#
#######################################################################
#
# If this CIF has been generated from an entry in the Cambridge 
# Structural Database, then it will include bibliographic, chemical, 
# crystal, experimental, refinement or atomic coordinate data resulting 
# from the CCDC's data processing and validation procedures.
#
#######################################################################

data_KIWRIR
_chemical_formula_moiety         'C18 H39 N9 P4 Se4,C1 H2 Cl2'
_chemical_name_systematic        
'3,5-bis(Dimethylamino)-2,6-bis(bis(dimethylamino)selenophosphine)-2,4,6-triaza-3,5-diphosphatricycl(5.3.1.0^4,11^)undeca-1(11),7,9-triene-3,5-diselenone dichloromethane solvate'
_symmetry_cell_setting           orthorhombic
_symmetry_space_group_name_H-M   'P b c a'
_symmetry_Int_Tables_number      61
_space_group_name_Hall           '-P 2ac 2ab'
loop_
_symmetry_equiv_pos_site_id
_symmetry_equiv_pos_as_xyz
1 x,y,z
2 1/2-x,1/2+y,z
3 x,1/2-y,1/2+z
4 1/2-x,-y,1/2+z
5 -x,-y,-z
6 1/2+x,1/2-y,-z
7 -x,1/2+y,1/2-z
8 1/2+x,y,1/2-z
_cell_length_a                   14.858(3)
_cell_length_b                   21.626(6)
_cell_length_c                   22.327(7)
_cell_angle_alpha                90
_cell_angle_beta                 90
_cell_angle_gamma                90
_cell_volume                     7174.09
_exptl_crystal_colour            colorless
_chemical_melting_point          255-258deg.C
_cell_formula_units_Z            8
loop_
_atom_site_label
_atom_site_type_symbol
_atom_site_fract_x
_atom_site_fract_y
_atom_site_fract_z
Se1 Se 0.3714(2) 0.0750(2) -0.1106(2)
Se2 Se 0.1362(3) -0.0219(2) 0.0834(2)
Se3 Se 0.3459(3) 0.0824(2) 0.2330(2)
Se4 Se 0.1141(2) 0.3067(2) 0.1997(2)
P1 P 0.2509(7) 0.0502(4) -0.0685(4)
P2 P 0.2446(7) 0.0358(4) 0.0675(4)
P3 P 0.2421(6) 0.1197(4) 0.1839(4)
P4 P 0.2338(6) 0.2584(4) 0.2157(4)
N1 N 0.2474(14) 0.0794(10) 0.0022(9)
N2 N 0.2434(14) 0.1001(10) 0.1102(10)
N3 N 0.2439(14) 0.1984(10) 0.1660(9)
N4 N 0.1595(17) 0.0824(13) -0.0984(13)
N5 N 0.2399(19) -0.0262(12) -0.0633(12)
N6 N 0.3429(15) 0.0037(11) 0.0731(11)
N7 N 0.1390(16) 0.1052(12) 0.2114(11)
N8 N 0.3249(17) 0.2994(13) 0.2024(12)
N9 N 0.2412(16) 0.2291(12) 0.2833(10)
C1 C 0.2489(19) 0.1436(13) 0.0142(12)
C2 C 0.2442(19) 0.1527(13) 0.0759(12)
C3 C 0.2477(18) 0.2083(14) 0.1021(13)
C4 C 0.2530(18) 0.2641(13) 0.0687(13)
C5 C 0.2522(21) 0.2553(16) 0.0051(14)
C6 C 0.2523(20) 0.1974(17) -0.0224(13)
C7 C 0.1535(26) 0.0808(19) -0.1660(18)
C8 C 0.0787(23) 0.1003(16) -0.0659(16)
C9 C 0.3173(24) -0.0675(18) -0.0561(17)
C10 C 0.1472(25) -0.0540(17) -0.0741(16)
C11 C 0.3634(23) -0.0561(16) 0.1051(16)
C12 C 0.4257(19) 0.0418(13) 0.0673(13)
C13 C 0.1201(22) 0.0539(15) 0.2572(16)
C14 C 0.0625(19) 0.1292(15) 0.1775(14)
C15 C 0.3323(22) 0.3647(16) 0.2175(14)
C16 C 0.4137(21) 0.2687(15) 0.1777(14)
C17 C 0.3264(21) 0.2289(14) 0.3182(14)
C18 C 0.1570(21) 0.2119(16) 0.3172(15)
Cl1 Cl -0.0215(7) 0.2063(6) 0.0455(5)
Cl2 Cl 0.0199(7) 0.3039(5) -0.0365(5)
C19 C 0.0077(28) 0.2863(17) 0.0396(17)
loop_
_geom_bond_atom_site_label_1
_geom_bond_atom_site_label_2
_geom_bond_site_symmetry_1
_geom_bond_site_symmetry_2
Se1 P1 1_555 1_555
Se2 P2 1_555 1_555
Se3 P3 1_555 1_555
Se4 P4 1_555 1_555
P1 N1 1_555 1_555
P2 N1 1_555 1_555
P3 N2 1_555 1_555
P4 N3 1_555 1_555
N1 C1 1_555 1_555
N2 P2 1_555 1_555
N3 P3 1_555 1_555
N4 P1 1_555 1_555
N5 P1 1_555 1_555
N6 P2 1_555 1_555
N7 P3 1_555 1_555
N8 P4 1_555 1_555
N9 P4 1_555 1_555
C1 C2 1_555 1_555
C2 N2 1_555 1_555
C3 N3 1_555 1_555
C4 C3 1_555 1_555
C5 C4 1_555 1_555
C6 C1 1_555 1_555
C7 N4 1_555 1_555
C8 N4 1_555 1_555
C9 N5 1_555 1_555
C10 N5 1_555 1_555
C11 N6 1_555 1_555
C12 N6 1_555 1_555
C13 N7 1_555 1_555
C14 N7 1_555 1_555
C15 N8 1_555 1_555
C16 N8 1_555 1_555
C17 N9 1_555 1_555
C18 N9 1_555 1_555
Cl1 C19 1_555 1_555
Cl2 C19 1_555 1_555
C2 C3 1_555 1_555
C5 C6 1_555 1_555

#END
