
#######################################################################
#
#                 Cambridge Crystallographic Data Centre
#                                CCDC 
#
#######################################################################
#
# If this CIF has been generated from an entry in the Cambridge 
# Structural Database, then it will include bibliographic, chemical, 
# crystal, experimental, refinement or atomic coordinate data resulting 
# from the CCDC's data processing and validation procedures.
#
#######################################################################

data_KIWXEV
_chemical_formula_moiety         'C28 H37 B1 N2 O2'
_chemical_name_systematic        
'6,8-Di-t-butyl-3,5-bis(2,6-dimethylphenyl)-2-oxo-1-oxa-3-aza-4-borata-5-azoniaspiro[3.4]octa-5,7-diene unknown solvate'
_symmetry_cell_setting           trigonal
_symmetry_space_group_name_H-M   'P -3'
_symmetry_Int_Tables_number      147
_space_group_name_Hall           '-P 3'
loop_
_symmetry_equiv_pos_site_id
_symmetry_equiv_pos_as_xyz
1 x,y,z
2 -y,x-y,z
3 -x+y,-x,z
4 -x,-y,-z
5 y,-x+y,-z
6 x-y,x,-z
_cell_length_a                   24.400(6)
_cell_length_b                   24.400(6)
_cell_length_c                   8.7778(18)
_cell_angle_alpha                90
_cell_angle_beta                 90
_cell_angle_gamma                120
_cell_volume                     4525.81
_exptl_crystal_colour            yellow
_exptl_crystal_description       prism
_cell_formula_units_Z            6
_exptl_crystal_recrystallization_method toluene
loop_
_atom_site_label
_atom_site_type_symbol
_atom_site_fract_x
_atom_site_fract_y
_atom_site_fract_z
B1 B 0.07998(8) 0.71020(8) 0.0385(2)
O1 O 0.03980(5) 0.66599(5) -0.08614(12)
O2 O -0.06697(5) 0.61698(5) -0.03579(13)
N1 N 0.01740(6) 0.68631(6) 0.12659(14)
N2 N 0.12864(6) 0.69238(6) 0.11369(14)
C1 C -0.01211(7) 0.65087(7) 0.00029(18)
C2 C -0.00905(7) 0.68294(8) 0.27343(17)
C3 C 0.00881(8) 0.73911(8) 0.35518(18)
C4 C -0.01753(9) 0.73499(10) 0.4981(2)
H1 H -0.0061 0.7728 0.5529
C5 C -0.05975(9) 0.67764(10) 0.5624(2)
H2 H -0.0777 0.6758 0.6596
C6 C -0.07547(9) 0.62273(9) 0.4830(2)
H3 H -0.1040 0.5830 0.5277
C7 C -0.05060(7) 0.62394(8) 0.33920(19)
C8 C 0.05689(9) 0.80276(8) 0.2949(2)
H4 H 0.0678 0.8347 0.3745
H5 H 0.0393 0.8134 0.2068
H6 H 0.0950 0.8018 0.2640
C9 C -0.06736(8) 0.56186(8) 0.2650(2)
H7 H -0.0819 0.5287 0.3429
H8 H -0.0300 0.5656 0.2136
H9 H -0.1012 0.5508 0.1903
C10 C 0.12856(7) 0.78114(7) -0.01412(18)
C11 C 0.18682(7) 0.79427(7) 0.02894(18)
H10 H 0.2240 0.8340 0.0131
C12 C 0.18620(7) 0.74026(7) 0.10304(17)
C13 C 0.11671(8) 0.82484(8) -0.11614(18)
C14 C 0.14106(10) 0.82196(10) -0.2755(2)
H11 H 0.1865 0.8369 -0.2705
H12 H 0.1337 0.8490 -0.3453
H13 H 0.1186 0.7782 -0.3126
C15 C 0.15334(9) 0.89333(8) -0.0583(2)
H14 H 0.1372 0.8959 0.0422
H15 H 0.1478 0.9210 -0.1297
H16 H 0.1984 0.9068 -0.0504
C16 C 0.04645(8) 0.80361(9) -0.1281(2)
H17 H 0.0234 0.7604 -0.1685
H18 H 0.0408 0.8321 -0.1967
H19 H 0.0300 0.8047 -0.0270
C17 C 0.24845(7) 0.74489(8) 0.14926(19)
C18 C 0.28036(9) 0.79970(8) 0.2638(2)
H20 H 0.2860 0.8386 0.2169
H21 H 0.3217 0.8056 0.2927
H22 H 0.2537 0.7898 0.3546
C19 C 0.28876(9) 0.76173(10) 0.0036(2)
H23 H 0.2665 0.7286 -0.0729
H24 H 0.3296 0.7650 0.0273
H25 H 0.2958 0.8023 -0.0363
C20 C 0.24454(8) 0.68564(8) 0.2191(2)
H26 H 0.2186 0.6740 0.3117
H27 H 0.2872 0.6942 0.2448
H28 H 0.2253 0.6508 0.1457
C21 C 0.10762(7) 0.63129(7) 0.18229(19)
C22 C 0.09620(7) 0.58085(8) 0.0857(2)
C23 C 0.07228(8) 0.52125(8) 0.1510(2)
H29 H 0.0640 0.4862 0.0884
C24 C 0.06039(8) 0.51237(9) 0.3055(2)
H30 H 0.0437 0.4713 0.3481
C25 C 0.07253(8) 0.56274(9) 0.3982(2)
H31 H 0.0645 0.5559 0.5044
C26 C 0.09640(7) 0.62357(8) 0.33936(19)
C27 C 0.11185(9) 0.59038(9) -0.0812(2)
H32 H 0.1083 0.5517 -0.1242
H33 H 0.1552 0.6255 -0.0947
H34 H 0.0823 0.6002 -0.1335
C28 C 0.11107(9) 0.67782(9) 0.44459(19)
H35 H 0.0785 0.6637 0.5239
H36 H 0.1118 0.7125 0.3865
H37 H 0.1525 0.6926 0.4920
loop_
_geom_bond_atom_site_label_1
_geom_bond_atom_site_label_2
_geom_bond_site_symmetry_1
_geom_bond_site_symmetry_2
B1 O1 1_555 1_555
O1 C1 1_555 1_555
O2 C1 1_555 1_555
N1 B1 1_555 1_555
N2 B1 1_555 1_555
C1 N1 1_555 1_555
C2 N1 1_555 1_555
C3 C2 1_555 1_555
C4 C3 1_555 1_555
H1 C4 1_555 1_555
C5 C4 1_555 1_555
H2 C5 1_555 1_555
C6 C5 1_555 1_555
H3 C6 1_555 1_555
C7 C2 1_555 1_555
C8 C3 1_555 1_555
H4 C8 1_555 1_555
H5 C8 1_555 1_555
H6 C8 1_555 1_555
C9 C7 1_555 1_555
H7 C9 1_555 1_555
H8 C9 1_555 1_555
H9 C9 1_555 1_555
C10 B1 1_555 1_555
C11 C10 1_555 1_555
H10 C11 1_555 1_555
C12 N2 1_555 1_555
C13 C10 1_555 1_555
C14 C13 1_555 1_555
H11 C14 1_555 1_555
H12 C14 1_555 1_555
H13 C14 1_555 1_555
C15 C13 1_555 1_555
H14 C15 1_555 1_555
H15 C15 1_555 1_555
H16 C15 1_555 1_555
C16 C13 1_555 1_555
H17 C16 1_555 1_555
H18 C16 1_555 1_555
H19 C16 1_555 1_555
C17 C12 1_555 1_555
C18 C17 1_555 1_555
H20 C18 1_555 1_555
H21 C18 1_555 1_555
H22 C18 1_555 1_555
C19 C17 1_555 1_555
H23 C19 1_555 1_555
H24 C19 1_555 1_555
H25 C19 1_555 1_555
C20 C17 1_555 1_555
H26 C20 1_555 1_555
H27 C20 1_555 1_555
H28 C20 1_555 1_555
C21 N2 1_555 1_555
C22 C21 1_555 1_555
C23 C22 1_555 1_555
H29 C23 1_555 1_555
C24 C23 1_555 1_555
H30 C24 1_555 1_555
C25 C24 1_555 1_555
H31 C25 1_555 1_555
C26 C21 1_555 1_555
C27 C22 1_555 1_555
H32 C27 1_555 1_555
H33 C27 1_555 1_555
H34 C27 1_555 1_555
C28 C26 1_555 1_555
H35 C28 1_555 1_555
H36 C28 1_555 1_555
H37 C28 1_555 1_555
C6 C7 1_555 1_555
C11 C12 1_555 1_555
C25 C26 1_555 1_555

#END
