
#######################################################################
#
#                 Cambridge Crystallographic Data Centre
#                                CCDC 
#
#######################################################################
#
# If this CIF has been generated from an entry in the Cambridge 
# Structural Database, then it will include bibliographic, chemical, 
# crystal, experimental, refinement or atomic coordinate data resulting 
# from the CCDC's data processing and validation procedures.
#
#######################################################################

data_KIWXEW
_chemical_formula_moiety         'C18 H26 N4 O2'
_chemical_name_systematic        
{ethane-1,2-diylbis[(methylazanediyl)methylenepyridine-6,2-diyl]}dimethanol
_symmetry_cell_setting           monoclinic
_symmetry_space_group_name_H-M   'P 21/c'
_symmetry_Int_Tables_number      14
_space_group_name_Hall           '-P 2ybc'
loop_
_symmetry_equiv_pos_site_id
_symmetry_equiv_pos_as_xyz
1 x,y,z
2 -x,1/2+y,1/2-z
3 -x,-y,-z
4 x,1/2-y,1/2+z
_cell_length_a                   8.5565(3)
_cell_length_b                   11.9424(5)
_cell_length_c                   8.8195(4)
_cell_angle_alpha                90
_cell_angle_beta                 105.2960(10)
_cell_angle_gamma                90
_cell_volume                     869.297
_exptl_crystal_colour            colorless
_exptl_crystal_description       'irregular block'
_cell_formula_units_Z            2
loop_
_atom_site_label
_atom_site_type_symbol
_atom_site_fract_x
_atom_site_fract_y
_atom_site_fract_z
C1 C 0.40876(12) 0.29332(9) 0.26599(12)
H1 H 0.431407 0.215748 0.305231
H2 H 0.309521 0.318797 0.293364
C2 C 0.54875(12) 0.36760(9) 0.34881(12)
C3 C 0.62669(13) 0.43866(9) 0.26772(13)
H3 H 0.594109 0.442038 0.156172
C4 C 0.75331(13) 0.50476(9) 0.35294(13)
H4 H 0.808787 0.554163 0.300565
C5 C 0.79719(13) 0.49745(9) 0.51502(13)
H5 H 0.883406 0.541807 0.575629
C6 C 0.71346(12) 0.42419(8) 0.58868(12)
C7 C 0.75766(12) 0.41636(9) 0.76602(12)
H6 H 0.724414 0.486124 0.809558
H7 H 0.697813 0.353365 0.797473
C8 C 0.97318(15) 0.28197(10) 0.81622(15)
H8 H 0.915568 0.234829 0.874725
H9 H 1.090243 0.271573 0.858359
H10 H 0.941346 0.260768 0.704943
C9 C 0.98709(13) 0.43689(8) 0.99549(12)
N1 N 0.59139(10) 0.35989(7) 0.50686(10)
N2 N 0.93207(10) 0.39921(7) 0.83205(10)
O1 O 0.37947(9) 0.29288(7) 0.10105(9)
H11 H 1.0915(17) 0.3977(11) 1.0443(15)
H12 H 0.9094(17) 0.4151(11) 1.0587(16)
H13 H 0.449(2) 0.2445(15) 0.0781(19)
C1B C 1.59124(12) 0.70668(9) 1.73401(12)
H1B H 1.568593 0.784252 1.694769
H2B H 1.690479 0.681203 1.706636
C2B C 1.45125(12) 0.63240(9) 1.65119(12)
C3B C 1.37331(13) 0.56134(9) 1.73228(13)
H3B H 1.405891 0.557962 1.843828
C4B C 1.24669(13) 0.49524(9) 1.64706(13)
H4B H 1.191213 0.445837 1.699435
C5B C 1.20281(13) 0.50255(9) 1.48498(13)
H5B H 1.116594 0.458193 1.424371
C6B C 1.28654(12) 0.57581(8) 1.41132(12)
C7B C 1.24234(12) 0.58364(9) 1.23398(12)
H6B H 1.275586 0.513876 1.190442
H7B H 1.302187 0.646635 1.202527
C8B C 1.02682(15) 0.71803(10) 1.18378(15)
H8B H 1.084432 0.765171 1.125275
H9B H 0.909757 0.728427 1.141641
H10B H 1.058654 0.739232 1.295057
C9B C 1.01291(13) 0.56311(8) 1.00451(12)
N1B N 1.40861(10) 0.64011(7) 1.49314(10)
N2B N 1.06793(10) 0.60079(7) 1.16795(10)
O1B O 1.62053(9) 0.70712(7) 1.89895(9)
H11B H 0.9085(17) 0.6023(11) 0.9557(15)
H12B H 1.0906(17) 0.5849(11) 0.9413(16)
H13B H 1.551(2) 0.7555(15) 1.9219(19)
loop_
_geom_bond_atom_site_label_1
_geom_bond_atom_site_label_2
_geom_bond_site_symmetry_1
_geom_bond_site_symmetry_2
C1 H1 1_555 1_555
H2 C1 1_555 1_555
C2 C1 1_555 1_555
C3 C2 1_555 1_555
H3 C3 1_555 1_555
C4 C3 1_555 1_555
H4 C4 1_555 1_555
C5 C4 1_555 1_555
H5 C5 1_555 1_555
C6 C5 1_555 1_555
C7 C6 1_555 1_555
H6 C7 1_555 1_555
H7 C7 1_555 1_555
C8 H8 1_555 1_555
H9 C8 1_555 1_555
H10 C8 1_555 1_555
C9 N2 1_555 1_555
N1 C2 1_555 1_555
N2 C7 1_555 1_555
O1 C1 1_555 1_555
H11 C9 1_555 1_555
H12 C9 1_555 1_555
H13 O1 1_555 1_555
C1B H1B 1_555 1_555
H2B C1B 1_555 1_555
C2B C1B 1_555 1_555
C3B C2B 1_555 1_555
H3B C3B 1_555 1_555
C4B C3B 1_555 1_555
H4B C4B 1_555 1_555
C5B C4B 1_555 1_555
H5B C5B 1_555 1_555
C6B C5B 1_555 1_555
C7B C6B 1_555 1_555
H6B C7B 1_555 1_555
H7B C7B 1_555 1_555
C8B H8B 1_555 1_555
H9B C8B 1_555 1_555
H10B C8B 1_555 1_555
C9B C9 1_555 1_555
N1B C2B 1_555 1_555
N2B C7B 1_555 1_555
O1B C1B 1_555 1_555
H11B C9B 1_555 1_555
H12B C9B 1_555 1_555
H13B O1B 1_555 1_555
C6 N1 1_555 1_555
C8 N2 1_555 1_555
C6B N1B 1_555 1_555
C8B N2B 1_555 1_555
C9B N2B 1_555 1_555

#END
