
#######################################################################
#
#                 Cambridge Crystallographic Data Centre
#                                CCDC 
#
#######################################################################
#
# If this CIF has been generated from an entry in the Cambridge 
# Structural Database, then it will include bibliographic, chemical, 
# crystal, experimental, refinement or atomic coordinate data resulting 
# from the CCDC's data processing and validation procedures.
#
#######################################################################

data_KIWYEX
_chemical_formula_moiety         'C20 H18 F3 N1 O1'
_chemical_name_systematic        
(6aR,11bR)-5,6a-dimethyl-11b-(2,2,2-trifluoroethyl)-5,6a,7,11b-tetrahydro-6H-indeno[2,1-c]quinolin-6-one
_symmetry_cell_setting           triclinic
_symmetry_space_group_name_H-M   'P -1'
_symmetry_Int_Tables_number      2
_space_group_name_Hall           '-P 1'
loop_
_symmetry_equiv_pos_site_id
_symmetry_equiv_pos_as_xyz
1 x,y,z
2 -x,-y,-z
_cell_length_a                   10.8613(6)
_cell_length_b                   12.2821(6)
_cell_length_c                   13.7407(8)
_cell_angle_alpha                74.040(5)
_cell_angle_beta                 71.906(5)
_cell_angle_gamma                78.776(3)
_cell_volume                     1663.19
_exptl_crystal_colour            colorless
_exptl_crystal_description       rod-like
_cell_formula_units_Z            4
loop_
_atom_site_label
_atom_site_type_symbol
_atom_site_fract_x
_atom_site_fract_y
_atom_site_fract_z
F1 F 0.2284(2) 0.0112(2) 0.48006(19)
F2 F 0.0482(2) 0.1205(2) 0.49306(18)
F3 F 0.2285(3) 0.1908(2) 0.4147(2)
O1 O 0.4845(3) -0.1615(2) 0.3975(2)
N1 N 0.5130(3) 0.0223(3) 0.3174(2)
C1 C 0.6132(4) 0.0168(4) 0.3707(4)
H1 H 0.6052 -0.0474 0.4299
H2 H 0.6015 0.0856 0.3945
H3 H 0.6982 0.0087 0.3225
C2 C 0.4877(3) 0.1232(3) 0.2431(3)
C3 C 0.5755(4) 0.2055(4) 0.2052(3)
H4 H 0.6501 0.1927 0.2284
C4 C 0.5515(4) 0.3051(4) 0.1339(3)
H5 H 0.6102 0.3590 0.1090
C5 C 0.4409(4) 0.3255(4) 0.0991(3)
H6 H 0.4240 0.3932 0.0518
C6 C 0.3554(4) 0.2437(3) 0.1355(3)
H7 H 0.2816 0.2572 0.1113
C7 C 0.3767(3) 0.1421(3) 0.2070(3)
C8 C 0.2819(3) 0.0524(3) 0.2445(3)
C9 C 0.1558(3) 0.0865(3) 0.3259(3)
H8 H 0.1129 0.1570 0.2918
H9 H 0.0983 0.0284 0.3439
C10 C 0.1675(4) 0.1032(3) 0.4262(3)
C11 C 0.3553(3) -0.0688(3) 0.2783(3)
C12 C 0.2631(4) -0.1583(3) 0.3410(3)
H10 H 0.2189 -0.1430 0.4090
H11 H 0.3122 -0.2326 0.3493
H12 H 0.2001 -0.1557 0.3042
C13 C 0.4547(3) -0.0731(3) 0.3369(3)
C14 C 0.4291(3) -0.0995(3) 0.1704(3)
H13 H 0.5116 -0.0680 0.1404
H14 H 0.4449 -0.1814 0.1775
C15 C 0.3360(3) -0.0449(3) 0.1047(3)
C16 C 0.2487(3) 0.0386(3) 0.1483(3)
C17 C 0.1498(4) 0.0987(3) 0.1028(3)
H15 H 0.0902 0.1542 0.1323
C18 C 0.1427(4) 0.0733(4) 0.0121(3)
H16 H 0.0777 0.1127 -0.0195
C19 C 0.2300(4) -0.0086(4) -0.0313(3)
H17 H 0.2242 -0.0232 -0.0926
C20 C 0.3273(4) -0.0704(3) 0.0151(3)
H18 H 0.3851 -0.1275 -0.0133
F4 F 0.2789(2) 0.3103(2) 0.87239(19)
F5 F 0.2747(2) 0.4906(2) 0.85005(18)
F6 F 0.4574(2) 0.3831(2) 0.83014(19)
O2 O 0.0303(3) 0.6707(3) 0.8013(2)
N2 N -0.0043(3) 0.4875(3) 0.8285(2)
C21 C -0.1057(4) 0.4972(4) 0.9253(3)
H19 H -0.1897 0.5016 0.9142
H20 H -0.1005 0.5649 0.9452
H21 H -0.0938 0.4316 0.9802
C22 C 0.0211(3) 0.3853(3) 0.7945(3)
C23 C -0.0655(3) 0.3020(3) 0.8432(3)
H22 H -0.1396 0.3158 0.8967
C24 C -0.0415(4) 0.2007(3) 0.8125(3)
H23 H -0.0998 0.1467 0.8451
C25 C 0.0678(4) 0.1785(3) 0.7339(3)
H24 H 0.0839 0.1098 0.7133
C26 C 0.1537(4) 0.2597(3) 0.6858(3)
H25 H 0.2278 0.2446 0.6327
C27 C 0.1320(3) 0.3630(3) 0.7148(3)
C28 C 0.2286(3) 0.4511(3) 0.6586(3)
C29 C 0.3541(3) 0.4154(3) 0.6964(3)
H26 H 0.3960 0.3442 0.6770
H27 H 0.4130 0.4724 0.6577
C30 C 0.3396(4) 0.4000(3) 0.8109(3)
C31 C 0.1571(3) 0.5737(3) 0.6670(3)
C32 C 0.2521(4) 0.6625(3) 0.6369(3)
H28 H 0.3025 0.6444 0.6868
H29 H 0.2038 0.7368 0.6372
H30 H 0.3094 0.6620 0.5679
C33 C 0.0576(4) 0.5817(3) 0.7714(3)
C34 C 0.0815(4) 0.6017(3) 0.5813(3)
H31 H -0.0011 0.5703 0.6090
H32 H 0.0657 0.6833 0.5542
C35 C 0.1732(3) 0.5446(3) 0.4978(3)
C36 C 0.2613(3) 0.4615(3) 0.5405(3)
C37 C 0.3569(3) 0.3982(3) 0.4776(3)
H33 H 0.4162 0.3429 0.5057
C38 C 0.3624(4) 0.4193(3) 0.3714(3)
H34 H 0.4264 0.3783 0.3279
C39 C 0.2728(4) 0.5013(3) 0.3303(3)
H35 H 0.2759 0.5132 0.2598
C40 C 0.1790(4) 0.5654(3) 0.3928(3)
H36 H 0.1207 0.6217 0.3645
loop_
_geom_bond_atom_site_label_1
_geom_bond_atom_site_label_2
_geom_bond_site_symmetry_1
_geom_bond_site_symmetry_2
F1 C10 1_555 1_555
F2 C10 1_555 1_555
F3 C10 1_555 1_555
O1 C13 1_555 1_555
N1 C1 1_555 1_555
C1 H1 1_555 1_555
H2 C1 1_555 1_555
H3 C1 1_555 1_555
C2 N1 1_555 1_555
C3 C2 1_555 1_555
H4 C3 1_555 1_555
C4 C3 1_555 1_555
H5 C4 1_555 1_555
C5 C4 1_555 1_555
H6 C5 1_555 1_555
C6 C5 1_555 1_555
H7 C6 1_555 1_555
C7 C2 1_555 1_555
C8 C7 1_555 1_555
C9 C8 1_555 1_555
H8 C9 1_555 1_555
H9 C9 1_555 1_555
C10 C9 1_555 1_555
C11 C8 1_555 1_555
C12 C11 1_555 1_555
H10 C12 1_555 1_555
H11 C12 1_555 1_555
H12 C12 1_555 1_555
C13 N1 1_555 1_555
C14 C11 1_555 1_555
H13 C14 1_555 1_555
H14 C14 1_555 1_555
C15 C14 1_555 1_555
C16 C8 1_555 1_555
C17 C16 1_555 1_555
H15 C17 1_555 1_555
C18 C17 1_555 1_555
H16 C18 1_555 1_555
C19 C18 1_555 1_555
H17 C19 1_555 1_555
C20 C15 1_555 1_555
H18 C20 1_555 1_555
F4 C30 1_555 1_555
F5 C30 1_555 1_555
F6 C30 1_555 1_555
O2 C33 1_555 1_555
N2 C21 1_555 1_555
C21 H19 1_555 1_555
H20 C21 1_555 1_555
H21 C21 1_555 1_555
C22 N2 1_555 1_555
C23 C22 1_555 1_555
H22 C23 1_555 1_555
C24 C23 1_555 1_555
H23 C24 1_555 1_555
C25 C24 1_555 1_555
H24 C25 1_555 1_555
C26 C25 1_555 1_555
H25 C26 1_555 1_555
C27 C22 1_555 1_555
C28 C27 1_555 1_555
C29 C28 1_555 1_555
H26 C29 1_555 1_555
H27 C29 1_555 1_555
C30 C29 1_555 1_555
C31 C28 1_555 1_555
C32 C31 1_555 1_555
H28 C32 1_555 1_555
H29 C32 1_555 1_555
H30 C32 1_555 1_555
C33 N2 1_555 1_555
C34 C31 1_555 1_555
H31 C34 1_555 1_555
H32 C34 1_555 1_555
C35 C34 1_555 1_555
C36 C28 1_555 1_555
C37 C36 1_555 1_555
H33 C37 1_555 1_555
C38 C37 1_555 1_555
H34 C38 1_555 1_555
C39 C38 1_555 1_555
H35 C39 1_555 1_555
C40 C35 1_555 1_555
H36 C40 1_555 1_555
C6 C7 1_555 1_555
C11 C13 1_555 1_555
C15 C16 1_555 1_555
C19 C20 1_555 1_555
C26 C27 1_555 1_555
C31 C33 1_555 1_555
C35 C36 1_555 1_555
C39 C40 1_555 1_555

#END
