
#######################################################################
#
#                 Cambridge Crystallographic Data Centre
#                                CCDC 
#
#######################################################################
#
# If this CIF has been generated from an entry in the Cambridge 
# Structural Database, then it will include bibliographic, chemical, 
# crystal, experimental, refinement or atomic coordinate data resulting 
# from the CCDC's data processing and validation procedures.
#
#######################################################################

data_KIXBIF
_chemical_formula_moiety         'C16 H29 N2 1+,I1 1-'
_chemical_name_systematic        '16-methylmatridin-16-ium iodide'
_symmetry_cell_setting           orthorhombic
_symmetry_space_group_name_H-M   'P 21 21 21'
_symmetry_Int_Tables_number      19
_space_group_name_Hall           'P 2ac 2ab'
loop_
_symmetry_equiv_pos_site_id
_symmetry_equiv_pos_as_xyz
1 x,y,z
2 1/2-x,-y,1/2+z
3 1/2+x,1/2-y,-z
4 -x,1/2+y,1/2-z
_cell_length_a                   9.045(3)
_cell_length_b                   18.898(6)
_cell_length_c                   10.068(3)
_cell_angle_alpha                90
_cell_angle_beta                 90
_cell_angle_gamma                90
_cell_volume                     1720.95
_exptl_crystal_colour            colorless
_exptl_crystal_description       block
_cell_formula_units_Z            4
loop_
_atom_site_label
_atom_site_type_symbol
_atom_site_fract_x
_atom_site_fract_y
_atom_site_fract_z
I1 I -0.54653(7) -0.57657(3) -0.15282(6)
N1 N -0.5610(7) -0.5568(3) -0.6577(7)
C1 C -0.6979(9) -0.6014(5) -0.6741(10)
H1 H -0.7835 -0.5706 -0.6770
H2 H -0.7081 -0.6319 -0.5971
C2 C -0.4251(8) -0.6046(4) -0.6583(10)
H3 H -0.4392 -0.6386 -0.5859
C3 C -0.5556(13) -0.5018(4) -0.7666(8)
H4 H -0.5566 -0.5248 -0.8516
H5 H -0.4667 -0.4744 -0.7581
H6 H -0.6399 -0.4712 -0.7594
C4 C -0.6962(10) -0.6467(6) -0.7977(9)
H7 H -0.6943 -0.6151 -0.8749
C5 C -0.5724(12) -0.5193(5) -0.5255(9)
H8 H -0.6568 -0.4877 -0.5275
H9 H -0.5900 -0.5542 -0.4565
C6 C -0.5588(13) -0.6927(5) -0.8027(9)
H10 H -0.5555 -0.7152 -0.8903
N2 N -0.5647(12) -0.7499(4) -0.7010(8)
C7 C -0.4205(9) -0.6483(5) -0.7882(9)
H11 H -0.4176 -0.6150 -0.8627
C8 C -0.2837(12) -0.6952(7) -0.7977(11)
H12 H -0.2770 -0.7154 -0.8861
H13 H -0.1957 -0.6670 -0.7823
C9 C -0.2876(10) -0.5642(5) -0.6258(10)
H14 H -0.2674 -0.5306 -0.6964
H15 H -0.2048 -0.5967 -0.6206
C10 C -0.2920(16) -0.7537(7) -0.6965(15)
H16 H -0.2864 -0.7337 -0.6079
H17 H -0.2086 -0.7854 -0.7080
C11 C -0.4362(13) -0.4774(5) -0.4907(9)
H18 H -0.4469 -0.4574 -0.4025
H19 H -0.4242 -0.4388 -0.5533
C12 C -0.6986(17) -0.7926(7) -0.7155(14)
H20 H -0.6996 -0.8290 -0.6476
H21 H -0.6973 -0.8158 -0.8014
C13 C -0.4345(18) -0.7949(6) -0.7109(13)
H22 H -0.4350 -0.8187 -0.7963
H23 H -0.4389 -0.8309 -0.6423
C14 C -0.8383(13) -0.6897(7) -0.8038(12)
H24 H -0.9220 -0.6590 -0.7861
H25 H -0.8502 -0.7092 -0.8923
C15 C -0.8360(17) -0.7490(7) -0.7041(15)
H26 H -0.8422 -0.7293 -0.6152
H27 H -0.9216 -0.7790 -0.7177
C16 C -0.3019(11) -0.5247(6) -0.4949(10)
H28 H -0.3078 -0.5587 -0.4230
H29 H -0.2140 -0.4962 -0.4811
loop_
_geom_bond_atom_site_label_1
_geom_bond_atom_site_label_2
_geom_bond_site_symmetry_1
_geom_bond_site_symmetry_2
N1 C1 1_555 1_555
C1 H1 1_555 1_555
H2 C1 1_555 1_555
C2 N1 1_555 1_555
H3 C2 1_555 1_555
C3 N1 1_555 1_555
H4 C3 1_555 1_555
H5 C3 1_555 1_555
H6 C3 1_555 1_555
C4 C1 1_555 1_555
H7 C4 1_555 1_555
C5 N1 1_555 1_555
H8 C5 1_555 1_555
H9 C5 1_555 1_555
C6 C4 1_555 1_555
H10 C6 1_555 1_555
N2 C6 1_555 1_555
C7 C2 1_555 1_555
H11 C7 1_555 1_555
C8 C7 1_555 1_555
H12 C8 1_555 1_555
H13 C8 1_555 1_555
C9 C2 1_555 1_555
H14 C9 1_555 1_555
H15 C9 1_555 1_555
C10 C8 1_555 1_555
H16 C10 1_555 1_555
H17 C10 1_555 1_555
C11 C5 1_555 1_555
H18 C11 1_555 1_555
H19 C11 1_555 1_555
C12 N2 1_555 1_555
H20 C12 1_555 1_555
H21 C12 1_555 1_555
C13 N2 1_555 1_555
H22 C13 1_555 1_555
H23 C13 1_555 1_555
C14 C4 1_555 1_555
H24 C14 1_555 1_555
H25 C14 1_555 1_555
C15 C12 1_555 1_555
H26 C15 1_555 1_555
H27 C15 1_555 1_555
C16 C9 1_555 1_555
H28 C16 1_555 1_555
H29 C16 1_555 1_555
C6 C7 1_555 1_555
C10 C13 1_555 1_555
C11 C16 1_555 1_555
C14 C15 1_555 1_555

#END
