
#######################################################################
#
#                 Cambridge Crystallographic Data Centre
#                                CCDC 
#
#######################################################################
#
# If this CIF has been generated from an entry in the Cambridge 
# Structural Database, then it will include bibliographic, chemical, 
# crystal, experimental, refinement or atomic coordinate data resulting 
# from the CCDC's data processing and validation procedures.
#
#######################################################################

data_KIXBAU
_chemical_formula_moiety         'C18 H13 N5 O6,C1 H1 Cl3'
_chemical_name_systematic        
'2,2-Diphenyl-1-picrylhydrazine chloroform clathrate'
_symmetry_cell_setting           rhombohedral
_symmetry_space_group_name_H-M   'R -3'
_symmetry_Int_Tables_number      148
_space_group_name_Hall           '-R 3'
loop_
_symmetry_equiv_pos_site_id
_symmetry_equiv_pos_as_xyz
1 x,y,z
2 1/3+x,2/3+y,2/3+z
3 2/3+x,1/3+y,1/3+z
4 -y,x-y,z
5 -x+y,-x,z
6 1/3-y,2/3+x-y,2/3+z
7 1/3-x+y,2/3-x,2/3+z
8 2/3-y,1/3+x-y,1/3+z
9 2/3-x+y,1/3-x,1/3+z
10 -x,-y,-z
11 2/3-x,1/3-y,1/3-z
12 1/3-x,2/3-y,2/3-z
13 y,-x+y,-z
14 x-y,x,-z
15 2/3+y,1/3-x+y,1/3-z
16 2/3+x-y,1/3+x,1/3-z
17 1/3+y,2/3-x+y,2/3-z
18 1/3+x-y,2/3+x,2/3-z
_cell_length_a                   25.453(12)
_cell_length_b                   25.453(12)
_cell_length_c                   15.083(12)
_cell_angle_alpha                90
_cell_angle_beta                 90
_cell_angle_gamma                120
_cell_volume                     8462.45
_exptl_crystal_colour            red
_cell_formula_units_Z            18
loop_
_atom_site_label
_atom_site_type_symbol
_atom_site_fract_x
_atom_site_fract_y
_atom_site_fract_z
H1 H -0.054(3) 0.786(3) 0.085(4)
C1 C 0.0220(2) 0.7864(2) 0.1134(3)
C2 C 0.0227(2) 0.7866(2) 0.2080(3)
C3 C 0.0663(3) 0.7822(2) 0.2552(4)
C4 C 0.1102(3) 0.7777(2) 0.2119(4)
C5 C 0.1152(3) 0.7793(2) 0.1200(3)
C6 C 0.0706(2) 0.7844(2) 0.0746(3)
C7 C -0.0643(2) 0.7061(3) -0.0383(3)
C8 C -0.0994(3) 0.6661(3) 0.0273(4)
C9 C -0.1319(3) 0.6042(3) 0.0121(5)
C10 C -0.1279(3) 0.5815(3) -0.0708(5)
C11 C -0.0905(3) 0.6221(3) -0.1360(5)
C12 C -0.0580(3) 0.6835(3) -0.1202(4)
C13 C -0.0295(5) 0.8149(2) -0.0810(3)
C14 C -0.0620(2) 0.7989(3) -0.1601(3)
C15 C -0.0559(2) 0.8440(3) -0.2181(3)
C16 C -0.0193(3) 0.9042(3) -0.1968(4)
C17 C 0.0110(3) 0.9200(3) -0.1161(4)
C18 C 0.0059(2) 0.8754(2) -0.0586(3)
N1 N -0.0221(2) 0.7923(2) 0.2589(3)
N2 N 0.1569(3) 0.7716(2) 0.2628(3)
N3 N 0.0818(2) 0.7920(2) -0.0230(2)
N4 N -0.0226(2) 0.7869(2) 0.0664(3)
N5 N -0.0304(2) 0.7701(2) -0.0230(2)
O1 O -0.0196(2) 0.7915(2) 0.3406(2)
O2 O -0.0615(2) 0.7985(2) 0.2202(3)
O3 O 0.1976(2) 0.7706(2) 0.2235(3)
O4 O 0.1503(2) 0.7689(2) 0.3447(3)
O5 O 0.0978(2) 0.8423(2) -0.0543(2)
O6 O 0.0788(2) 0.7498(2) -0.0650(3)
H2 H 0.151(2) 0.782(2) 0.080(3)
H3 H 0.068(3) 0.782(2) 0.311(4)
H4 H -0.103(3) 0.680(3) 0.098(5)
H5 H -0.155(3) 0.579(3) 0.058(4)
H6 H -0.153(4) 0.535(4) -0.080(5)
H7 H -0.081(4) 0.608(4) -0.202(6)
H8 H -0.023(4) 0.713(4) -0.164(5)
H9 H -0.086(2) 0.761(3) -0.174(3)
H10 H -0.076 0.832(2) -0.269(3)
H11 H -0.018(3) 0.946(3) -0.234(4)
H12 H 0.030(3) 0.959(3) -0.099(4)
H13 H 0.033(3) 0.885(3) -0.005(4)
loop_
_geom_bond_atom_site_label_1
_geom_bond_atom_site_label_2
_geom_bond_site_symmetry_1
_geom_bond_site_symmetry_2
H1 N4 1_555 1_555
C1 C2 1_555 1_555
C2 C3 1_555 1_555
C3 C4 1_555 1_555
C4 C5 1_555 1_555
C5 C6 1_555 1_555
C6 C1 1_555 1_555
C7 C8 1_555 1_555
C8 C9 1_555 1_555
C9 C10 1_555 1_555
C10 C11 1_555 1_555
C11 C12 1_555 1_555
C12 C7 1_555 1_555
C13 C14 1_555 1_555
C14 C15 1_555 1_555
C15 C16 1_555 1_555
C16 C17 1_555 1_555
C17 C18 1_555 1_555
C18 C13 1_555 1_555
N1 C2 1_555 1_555
N2 C4 1_555 1_555
N3 C6 1_555 1_555
N4 C1 1_555 1_555
N5 C7 1_555 1_555
O1 N1 1_555 1_555
O2 N1 1_555 1_555
O3 N2 1_555 1_555
O4 N2 1_555 1_555
O5 N3 1_555 1_555
O6 N3 1_555 1_555
H2 C5 1_555 1_555
H3 C3 1_555 1_555
H4 C8 1_555 1_555
H5 C9 1_555 1_555
H6 C10 1_555 1_555
H7 C11 1_555 1_555
H8 C12 1_555 1_555
H9 C14 1_555 1_555
H10 C15 1_555 1_555
H11 C16 1_555 1_555
H12 C17 1_555 1_555
H13 C18 1_555 1_555
C13 N5 1_555 1_555
N4 N5 1_555 1_555

#END
