
#######################################################################
#
#                 Cambridge Crystallographic Data Centre
#                                CCDC 
#
#######################################################################
#
# If this CIF has been generated from an entry in the Cambridge 
# Structural Database, then it will include bibliographic, chemical, 
# crystal, experimental, refinement or atomic coordinate data resulting 
# from the CCDC's data processing and validation procedures.
#
#######################################################################

data_KIXCID
_chemical_formula_moiety         'C11 H12 N2 O1'
_chemical_name_systematic        2-(Benzoylmethylene)imidazolidine
_symmetry_cell_setting           monoclinic
_symmetry_space_group_name_H-M   'P 21/n'
_symmetry_Int_Tables_number      14
_space_group_name_Hall           '-P 2yn'
loop_
_symmetry_equiv_pos_site_id
_symmetry_equiv_pos_as_xyz
1 x,y,z
2 1/2-x,1/2+y,1/2-z
3 -x,-y,-z
4 1/2+x,1/2-y,1/2+z
_cell_length_a                   7.108(4)
_cell_length_b                   6.371(3)
_cell_length_c                   21.588(11)
_cell_angle_alpha                90
_cell_angle_beta                 97.32(2)
_cell_angle_gamma                90
_cell_volume                     969.647
_exptl_crystal_colour            colorless
_cell_formula_units_Z            4
loop_
_atom_site_label
_atom_site_type_symbol
_atom_site_fract_x
_atom_site_fract_y
_atom_site_fract_z
C1 C 0.2854(8) 0.4035(2) 0.5430(2)
C2 C 0.3168(7) 0.1728(9) 0.5624(2)
C3 C 0.2090(7) 0.1868(7) 0.4567(2)
C4 C 0.1485(7) 0.1241(7) 0.3951(2)
C5 C 0.1317(7) -0.0853(7) 0.3783(2)
C6 C -0.0284(7) -0.3287(8) 0.2965(2)
C7 C 0.0658(6) -0.1380(7) 0.3106(2)
C8 C -0.0941(7) -0.3789(8) 0.2351(3)
C9 C -0.0642(7) -0.2422(9) 0.1874(2)
C10 C 0.0310(7) -0.0538(8) 0.2006(2)
C11 C 0.0954(7) -0.0004(8) 0.2621(2)
N1 N 0.2541(7) 0.0599(7) 0.5051(2)
N2 N 0.2334(7) 0.3860(7) 0.4756(2)
O1 O 0.1640(6) -0.2357(5) 0.4146(2)
H1 H 0.412(6) 0.516(8) 0.555(2)
H2 H 0.162(7) 0.502(8) 0.564(2)
H3 H 0.465(7) 0.157(9) 0.579(2)
H4 H 0.238(6) 0.130(8) 0.600(2)
H5 H 0.134(5) 0.249(7) 0.362(2)
H6 H -0.063(6) -0.424(7) 0.336(2)
H7 H -0.178(6) -0.519(7) 0.224(2)
H8 H -0.120(8) -0.291(9) 0.143(2)
H9 H 0.067(6) 0.043(7) 0.164(2)
H10 H 0.161(5) 0.148(6) 0.271(2)
H11 H 0.241(6) -0.096(8) 0.502(2)
H12 H 0.223(7) 0.502(8) 0.445(2)
loop_
_geom_bond_atom_site_label_1
_geom_bond_atom_site_label_2
_geom_bond_site_symmetry_1
_geom_bond_site_symmetry_2
C1 C2 1_555 1_555
C2 N1 1_555 1_555
C3 C4 1_555 1_555
C4 C5 1_555 1_555
C5 C7 1_555 1_555
C6 C7 1_555 1_555
C7 C11 1_555 1_555
C8 C6 1_555 1_555
C9 C8 1_555 1_555
C10 C9 1_555 1_555
C11 C10 1_555 1_555
N1 C3 1_555 1_555
N2 C1 1_555 1_555
O1 C5 1_555 1_555
H1 C1 1_555 1_555
H2 C1 1_555 1_555
H3 C2 1_555 1_555
H4 C2 1_555 1_555
H5 C4 1_555 1_555
H6 C6 1_555 1_555
H7 C8 1_555 1_555
H8 C9 1_555 1_555
H9 C10 1_555 1_555
H10 C11 1_555 1_555
H11 N1 1_555 1_555
H12 N2 1_555 1_555
C3 N2 1_555 1_555

#END
