
#######################################################################
#
#                 Cambridge Crystallographic Data Centre
#                                CCDC 
#
#######################################################################
#
# If this CIF has been generated from an entry in the Cambridge 
# Structural Database, then it will include bibliographic, chemical, 
# crystal, experimental, refinement or atomic coordinate data resulting 
# from the CCDC's data processing and validation procedures.
#
#######################################################################

data_KIXFED
_chemical_formula_moiety         'C40 H44 O8'
_chemical_name_systematic        
25,27-bis((Methoxycarbonyl)methoxy)-26,28-dipropoxycalix(4)arene
_symmetry_cell_setting           monoclinic
_symmetry_space_group_name_H-M   'P 21/c'
_symmetry_Int_Tables_number      14
_space_group_name_Hall           '-P 2ybc'
loop_
_symmetry_equiv_pos_site_id
_symmetry_equiv_pos_as_xyz
1 x,y,z
2 -x,1/2+y,1/2-z
3 -x,-y,-z
4 x,1/2-y,1/2+z
_cell_length_a                   9.3007(18)
_cell_length_b                   18.114(4)
_cell_length_c                   20.768(4)
_cell_angle_alpha                90
_cell_angle_beta                 101.334(3)
_cell_angle_gamma                90
_cell_volume                     3430.61
_exptl_crystal_colour            colorless
_exptl_crystal_description       block
_cell_formula_units_Z            4
_exptl_crystal_recrystallization_method methanol/dichloromethane
loop_
_atom_site_label
_atom_site_type_symbol
_atom_site_fract_x
_atom_site_fract_y
_atom_site_fract_z
C1 C 0.4972(2) 0.73848(11) 0.02361(9)
H1 H 0.4664 0.7738 -0.0115
H2 H 0.5528 0.7000 0.0071
C2 C 0.5945(2) 0.77685(10) 0.08095(9)
C3 C 0.7334(2) 0.75018(11) 0.10761(10)
H3 H 0.7710 0.7106 0.0876
C4 C 0.8167(2) 0.78136(11) 0.16329(10)
H4 H 0.9105 0.7637 0.1801
C5 C 0.7595(2) 0.83898(11) 0.19370(9)
H5 H 0.8147 0.8588 0.2320
C6 C 0.6214(2) 0.86838(10) 0.16860(9)
C7 C 0.5431(2) 0.83749(10) 0.11086(9)
C8 C 0.4144(2) 0.92188(11) 0.03600(10)
H6 H 0.4717 0.9041 0.0049
H7 H 0.4629 0.9651 0.0578
C9 C 0.2634(2) 0.94198(11) 0.00053(9)
C10 C 0.1375(2) 1.02558(13) -0.07828(11)
H8 H 0.1019 0.9897 -0.1116
H9 H 0.1550 1.0714 -0.0986
H10 H 0.0659 1.0329 -0.0513
C11 C 0.5597(2) 0.93063(10) 0.20352(10)
H11 H 0.6329 0.9458 0.2411
H12 H 0.5394 0.9725 0.1740
C12 C 0.4208(2) 0.90960(10) 0.22657(9)
C13 C 0.2855(2) 0.93849(11) 0.19661(9)
H13 H 0.2814 0.9736 0.1637
C14 C 0.1574(2) 0.91623(11) 0.21461(10)
H14 H 0.0685 0.9375 0.1951
C15 C 0.1615(2) 0.86226(11) 0.26167(9)
H15 H 0.0743 0.8459 0.2724
C16 C 0.2935(2) 0.83180(10) 0.29339(9)
C17 C 0.4221(2) 0.85832(10) 0.27674(9)
C18 C 0.6063(2) 0.87236(11) 0.36982(10)
C21 C 0.2928(2) 0.76960(11) 0.34205(9)
H23 H 0.3929 0.7582 0.3632
H24 H 0.2407 0.7855 0.3758
C22 C 0.2207(2) 0.70070(10) 0.30918(9)
C23 C 0.0867(2) 0.67571(11) 0.32014(10)
H25 H 0.0414 0.7006 0.3499
C24 C 0.0191(2) 0.61448(12) 0.28763(11)
H26 H -0.0697 0.5977 0.2963
C25 C 0.0841(2) 0.57875(11) 0.24254(10)
H27 H 0.0380 0.5378 0.2206
C26 C 0.2170(2) 0.60219(10) 0.22883(9)
C27 C 0.2867(2) 0.66187(10) 0.26456(9)
C28 C 0.5503(2) 0.65411(12) 0.27113(9)
H28 H 0.6263 0.6816 0.2555
H29 H 0.5433 0.6060 0.2503
C29 C 0.5965(2) 0.64378(11) 0.34452(10)
C30 C 0.8024(3) 0.63060(15) 0.42966(11)
H30 H 0.7630 0.6642 0.4575
H31 H 0.9071 0.6356 0.4374
H32 H 0.7774 0.5809 0.4392
C31 C 0.2738(2) 0.56959(10) 0.17147(9)
H33 H 0.2203 0.5247 0.1570
H34 H 0.3766 0.5569 0.1854
C32 C 0.2563(2) 0.62392(10) 0.11495(9)
C33 C 0.1197(2) 0.65398(12) 0.08963(10)
H35 H 0.0381 0.6377 0.1052
C34 C 0.1031(2) 0.70765(12) 0.04169(10)
H36 H 0.0106 0.7267 0.0245
C35 C 0.2239(2) 0.73306(11) 0.01923(9)
H37 H 0.2121 0.7699 -0.0125
C36 C 0.3630(2) 0.70474(10) 0.04306(9)
C37 C 0.3764(2) 0.64870(10) 0.09015(9)
C38 C 0.5595(2) 0.56049(11) 0.08040(10)
H38 H 0.5730 0.5776 0.0377
H39 H 0.4847 0.5224 0.0737
C39 C 0.7012(2) 0.52970(12) 0.11846(11)
H40 H 0.6836 0.5077 0.1588
H41 H 0.7707 0.5697 0.1303
C40 C 0.7671(3) 0.47225(15) 0.07997(13)
H42 H 0.6979 0.4330 0.0673
H43 H 0.8548 0.4527 0.1068
H44 H 0.7905 0.4946 0.0414
H45 H 0.5279 0.8738 0.3944
H46 H 0.6276 0.9227 0.3589
C41 C 0.7406(4) 0.8397(2) 0.41222(19)
H47 H 0.7202 0.7895 0.4240
H48 H 0.7671 0.8681 0.4524
C42 C 0.8681(4) 0.8398(2) 0.37574(16)
H49 H 0.8457 0.8075 0.3384
H50 H 0.9554 0.8229 0.4046
H51 H 0.8832 0.8889 0.3612
O1 O 0.41503(14) 0.69143(7) 0.25091(6)
O2 O 0.51744(17) 0.63185(10) 0.38196(7)
O3 O 0.74159(15) 0.64726(9) 0.36180(7)
O4 O 0.55748(14) 0.83184(7) 0.31032(6)
O5 O 0.51464(14) 0.62042(7) 0.11647(6)
O6 O 0.27257(15) 0.99957(8) -0.03810(7)
O7 O 0.15084(17) 0.91286(9) 0.00548(8)
O8 O 0.40569(14) 0.86619(7) 0.08311(6)
H16? H 0.5593 0.8549 0.4047
H17? H 0.5881 0.9248 0.3634
C19? C 0.7747(8) 0.8551(5) 0.3847(4)
H18? H 0.7915 0.8026 0.3919
H19? H 0.8190 0.8704 0.3483
C20? C 0.8404(8) 0.8985(4) 0.4468(3)
H20? H 0.8208 0.9502 0.4393
H21? H 0.9444 0.8906 0.4574
H22? H 0.7970 0.8820 0.4826
loop_
_geom_bond_atom_site_label_1
_geom_bond_atom_site_label_2
_geom_bond_site_symmetry_1
_geom_bond_site_symmetry_2
C1 H1 1_555 1_555
H2 C1 1_555 1_555
C2 C1 1_555 1_555
C3 C2 1_555 1_555
H3 C3 1_555 1_555
C4 C3 1_555 1_555
H4 C4 1_555 1_555
C5 C4 1_555 1_555
H5 C5 1_555 1_555
C6 C5 1_555 1_555
C7 C2 1_555 1_555
C8 H6 1_555 1_555
H7 C8 1_555 1_555
C9 C8 1_555 1_555
C10 H8 1_555 1_555
H9 C10 1_555 1_555
H10 C10 1_555 1_555
C11 C6 1_555 1_555
H11 C11 1_555 1_555
H12 C11 1_555 1_555
C12 C11 1_555 1_555
C13 C12 1_555 1_555
H13 C13 1_555 1_555
C14 C13 1_555 1_555
H14 C14 1_555 1_555
C15 C14 1_555 1_555
H15 C15 1_555 1_555
C16 C15 1_555 1_555
C17 C12 1_555 1_555
C18 H45 1_555 1_555
C21 C16 1_555 1_555
H23 C21 1_555 1_555
H24 C21 1_555 1_555
C22 C21 1_555 1_555
C23 C22 1_555 1_555
H25 C23 1_555 1_555
C24 C23 1_555 1_555
H26 C24 1_555 1_555
C25 C24 1_555 1_555
H27 C25 1_555 1_555
C26 C25 1_555 1_555
C27 C22 1_555 1_555
C28 H28 1_555 1_555
H29 C28 1_555 1_555
C29 C28 1_555 1_555
C30 H30 1_555 1_555
H31 C30 1_555 1_555
H32 C30 1_555 1_555
C31 C26 1_555 1_555
H33 C31 1_555 1_555
H34 C31 1_555 1_555
C32 C31 1_555 1_555
C33 C32 1_555 1_555
H35 C33 1_555 1_555
C34 C33 1_555 1_555
H36 C34 1_555 1_555
C35 C34 1_555 1_555
H37 C35 1_555 1_555
C36 C1 1_555 1_555
C37 C32 1_555 1_555
C38 H38 1_555 1_555
H39 C38 1_555 1_555
C39 C38 1_555 1_555
H40 C39 1_555 1_555
H41 C39 1_555 1_555
C40 C39 1_555 1_555
H42 C40 1_555 1_555
H43 C40 1_555 1_555
H44 C40 1_555 1_555
H46 C18 1_555 1_555
C41 C18 1_555 1_555
H47 C41 1_555 1_555
H48 C41 1_555 1_555
C42 C41 1_555 1_555
H49 C42 1_555 1_555
H50 C42 1_555 1_555
H51 C42 1_555 1_555
O1 C27 1_555 1_555
O2 C29 1_555 1_555
O3 C29 1_555 1_555
O4 C17 1_555 1_555
O5 C37 1_555 1_555
O6 C9 1_555 1_555
O7 C9 1_555 1_555
O8 C7 1_555 1_555
C6 C7 1_555 1_555
C8 O8 1_555 1_555
C10 O6 1_555 1_555
C16 C17 1_555 1_555
C18 O4 1_555 1_555
C26 C27 1_555 1_555
C28 O1 1_555 1_555
C30 O3 1_555 1_555
C35 C36 1_555 1_555
C36 C37 1_555 1_555
C38 O5 1_555 1_555

#END
