
#######################################################################
#
#                 Cambridge Crystallographic Data Centre
#                                CCDC 
#
#######################################################################
#
# If this CIF has been generated from an entry in the Cambridge 
# Structural Database, then it will include bibliographic, chemical, 
# crystal, experimental, refinement or atomic coordinate data resulting 
# from the CCDC's data processing and validation procedures.
#
#######################################################################

data_KIXKUZ
_chemical_formula_moiety         'C13 H20 B1 N1 O2'
_chemical_name_systematic        
6-benzyl-1,4-dioxa-6-azonia-5-borataspiro[4.5]decane
_symmetry_cell_setting           triclinic
_symmetry_space_group_name_H-M   'P -1'
_symmetry_Int_Tables_number      2
_space_group_name_Hall           '-P 1'
loop_
_symmetry_equiv_pos_site_id
_symmetry_equiv_pos_as_xyz
1 x,y,z
2 -x,-y,-z
_cell_length_a                   9.1549(19)
_cell_length_b                   9.369(2)
_cell_length_c                   9.411(2)
_cell_angle_alpha                63.308(3)
_cell_angle_beta                 78.812(4)
_cell_angle_gamma                61.103(3)
_cell_volume                     631.114
_exptl_crystal_colour            colorless
_exptl_crystal_description       prism
_cell_formula_units_Z            2
loop_
_atom_site_label
_atom_site_type_symbol
_atom_site_fract_x
_atom_site_fract_y
_atom_site_fract_z
O1 O 0.05447(13) 0.63749(14) 0.34743(12)
O2 O 0.12061(14) 0.83309(15) 0.38142(13)
N1 N -0.03341(15) 0.68277(17) 0.59966(15)
B1 B 0.1137(2) 0.6628(2) 0.4650(2)
C1 C 0.0209(2) 0.6870(2) 0.7372(2)
C2 C 0.1825(2) 0.5241(3) 0.8162(2)
C3 C 0.3255(2) 0.5103(3) 0.7007(2)
C4 C 0.2826(2) 0.4971(2) 0.5596(2)
C5 C -0.19794(19) 0.8422(2) 0.53146(19)
C6 C -0.33329(19) 0.8554(2) 0.65258(18)
C7 C -0.3934(2) 0.7289(2) 0.7181(2)
C8 C -0.5144(2) 0.7389(2) 0.8329(2)
C9 C -0.5762(2) 0.8752(3) 0.8823(2)
C10 C -0.5199(2) 1.0038(2) 0.8162(2)
C11 C -0.3990(2) 0.9942(2) 0.7011(2)
C12 C 0.0585(3) 0.7689(3) 0.1954(2)
C13 C 0.0535(3) 0.9164(2) 0.2250(2)
H1 H 0.034(2) 0.804(2) 0.691(2)
H2 H -0.070(2) 0.700(2) 0.813(2)
H3 H -0.049(2) 0.580(2) 0.636(2)
H4 H 0.206(3) 0.537(3) 0.905(2)
H5 H 0.170(2) 0.413(3) 0.857(2)
H6 H 0.342(2) 0.619(2) 0.661(2)
H7 H 0.430(3) 0.405(3) 0.756(2)
H8 H 0.373(2) 0.490(2) 0.483(2)
H9 H 0.277(2) 0.382(3) 0.600(2)
H10 H -0.228(2) 0.829(2) 0.438(2)
H11 H -0.180(2) 0.955(3) 0.488(2)
H12 H -0.347(2) 0.630(2) 0.687(2)
H13 H -0.554(2) 0.647(3) 0.878(2)
H14 H -0.659(3) 0.883(2) 0.962(2)
H15 H -0.566(2) 1.102(2) 0.852(2)
H16 H -0.362(2) 1.085(2) 0.657(2)
H17 H -0.033(3) 0.805(3) 0.125(3)
H18 H 0.164(3) 0.714(3) 0.140(3)
H19 H -0.071(3) 1.018(3) 0.217(2)
H20 H 0.114(3) 0.978(3) 0.151(2)
loop_
_geom_bond_atom_site_label_1
_geom_bond_atom_site_label_2
_geom_bond_site_symmetry_1
_geom_bond_site_symmetry_2
O1 B1 1_555 1_555
O2 B1 1_555 1_555
N1 B1 1_555 1_555
B1 C4 1_555 1_555
C1 N1 1_555 1_555
C2 C1 1_555 1_555
C3 C2 1_555 1_555
C4 C3 1_555 1_555
C5 N1 1_555 1_555
C6 C5 1_555 1_555
C7 C6 1_555 1_555
C8 C7 1_555 1_555
C9 C8 1_555 1_555
C10 C9 1_555 1_555
C11 C6 1_555 1_555
C12 O1 1_555 1_555
C13 O2 1_555 1_555
H1 C1 1_555 1_555
H2 C1 1_555 1_555
H3 N1 1_555 1_555
H4 C2 1_555 1_555
H5 C2 1_555 1_555
H6 C3 1_555 1_555
H7 C3 1_555 1_555
H8 C4 1_555 1_555
H9 C4 1_555 1_555
H10 C5 1_555 1_555
H11 C5 1_555 1_555
H12 C7 1_555 1_555
H13 C8 1_555 1_555
H14 C9 1_555 1_555
H15 C10 1_555 1_555
H16 C11 1_555 1_555
H17 C12 1_555 1_555
H18 C12 1_555 1_555
H19 C13 1_555 1_555
H20 C13 1_555 1_555
C10 C11 1_555 1_555
C12 C13 1_555 1_555

#END
