
#######################################################################
#
#                 Cambridge Crystallographic Data Centre
#                                CCDC 
#
#######################################################################
#
# If this CIF has been generated from an entry in the Cambridge 
# Structural Database, then it will include bibliographic, chemical, 
# crystal, experimental, refinement or atomic coordinate data resulting 
# from the CCDC's data processing and validation procedures.
#
#######################################################################

data_KIXKAD01
_chemical_name_common            Phenylacridine
_chemical_formula_moiety         'C19 H13 N1'
_chemical_name_systematic        9-phenylacridine
_symmetry_cell_setting           monoclinic
_symmetry_space_group_name_H-M   'P 21/n'
_symmetry_Int_Tables_number      14
_space_group_name_Hall           '-P 2yn'
loop_
_symmetry_equiv_pos_site_id
_symmetry_equiv_pos_as_xyz
1 x,y,z
2 1/2-x,1/2+y,1/2-z
3 -x,-y,-z
4 1/2+x,1/2-y,1/2+z
_cell_length_a                   8.4813(17)
_cell_length_b                   17.802(4)
_cell_length_c                   9.0789(18)
_cell_angle_alpha                90
_cell_angle_beta                 107.32(3)
_cell_angle_gamma                90
_cell_volume                     1308.61
_exptl_crystal_colour            yellow
_exptl_crystal_description       block
_cell_formula_units_Z            4
_chemical_properties_physical    Efflorescent
_exptl_crystal_recrystallization_method Trichloromethane
loop_
_atom_site_label
_atom_site_type_symbol
_atom_site_fract_x
_atom_site_fract_y
_atom_site_fract_z
C1 C 0.10266(14) 0.14623(6) 0.18781(13)
C2 C -0.06976(14) 0.10530(6) 0.34218(12)
N1 N 0.21807(12) 0.14002(6) 0.46937(11)
C3 C 0.04991(16) 0.10312(7) 0.62482(14)
H1 H 0.1412 0.1101 0.7145
C4 C -0.05064(14) 0.11933(6) 0.19618(13)
C5 C -0.22225(15) 0.08127(7) 0.36344(14)
H2 H -0.3157 0.0737 0.2760
C6 C 0.06938(14) 0.11693(6) 0.47638(13)
C7 C -0.19056(13) 0.10529(6) 0.05364(12)
C8 C 0.39071(15) 0.18153(7) 0.32235(15)
H3 H 0.4797 0.1860 0.4147
C9 C 0.23444(14) 0.15471(6) 0.32923(13)
C10 C -0.09711(17) 0.08016(7) 0.63977(14)
H4 H -0.1078 0.0714 0.7396
C11 C 0.41366(16) 0.20067(7) 0.18555(16)
H5 H 0.5179 0.2193 0.1833
C12 C 0.13309(15) 0.16611(7) 0.04636(14)
H6 H 0.0478 0.1604 -0.0483
C13 C -0.23538(16) 0.06916(7) 0.50711(14)
H7 H -0.3378 0.0532 0.5190
C14 C -0.23467(15) 0.03190(7) 0.00494(13)
H8 H -0.1743 -0.0090 0.0618
C15 C 0.28336(16) 0.19318(7) 0.04569(16)
H9 H 0.3010 0.2071 -0.0492
C16 C -0.41159(15) 0.15053(8) -0.16257(14)
H10 H -0.4716 0.1913 -0.2204
C17 C -0.45538(15) 0.07752(8) -0.20948(14)
H11 H -0.5461 0.0681 -0.2985
C18 C -0.28006(15) 0.16458(7) -0.03097(14)
H12 H -0.2514 0.2148 0.0011
C19 C -0.36634(15) 0.01817(7) -0.12609(14)
H13 H -0.3954 -0.0320 -0.1586
loop_
_geom_bond_atom_site_label_1
_geom_bond_atom_site_label_2
_geom_bond_site_symmetry_1
_geom_bond_site_symmetry_2
C1 C4 1_555 1_555
C2 C4 1_555 1_555
N1 C6 1_555 1_555
C3 H1 1_555 1_555
C4 C7 1_555 1_555
C5 C2 1_555 1_555
H2 C5 1_555 1_555
C6 C2 1_555 1_555
C7 C14 1_555 1_555
C8 H3 1_555 1_555
C9 C1 1_555 1_555
C10 C3 1_555 1_555
H4 C10 1_555 1_555
C11 C8 1_555 1_555
H5 C11 1_555 1_555
C12 C1 1_555 1_555
H6 C12 1_555 1_555
C13 C5 1_555 1_555
H7 C13 1_555 1_555
C14 H8 1_555 1_555
C15 C11 1_555 1_555
H9 C15 1_555 1_555
C16 H10 1_555 1_555
C17 C16 1_555 1_555
H11 C17 1_555 1_555
C18 C7 1_555 1_555
H12 C18 1_555 1_555
C19 C14 1_555 1_555
H13 C19 1_555 1_555
N1 C9 1_555 1_555
C3 C6 1_555 1_555
C8 C9 1_555 1_555
C10 C13 1_555 1_555
C12 C15 1_555 1_555
C16 C18 1_555 1_555
C17 C19 1_555 1_555

#END
