
#######################################################################
#
#                 Cambridge Crystallographic Data Centre
#                                CCDC 
#
#######################################################################
#
# If this CIF has been generated from an entry in the Cambridge 
# Structural Database, then it will include bibliographic, chemical, 
# crystal, experimental, refinement or atomic coordinate data resulting 
# from the CCDC's data processing and validation procedures.
#
#######################################################################

data_KIXLOU
_chemical_formula_moiety         'C13 H21 B1 N1 O2 1+,C1 F3 O3 S1 1-'
_chemical_name_systematic        
'N-benzyl-4-(1,3,2-dioxaborolan-2-yl)butan-1-aminium trifluoromethanesulfonate'
_symmetry_cell_setting           monoclinic
_symmetry_space_group_name_H-M   'P 21/c'
_symmetry_Int_Tables_number      14
_space_group_name_Hall           '-P 2ybc'
loop_
_symmetry_equiv_pos_site_id
_symmetry_equiv_pos_as_xyz
1 x,y,z
2 -x,1/2+y,1/2-z
3 -x,-y,-z
4 x,1/2-y,1/2+z
_cell_length_a                   5.4754(6)
_cell_length_b                   11.9363(13)
_cell_length_c                   27.308(3)
_cell_angle_alpha                90
_cell_angle_beta                 94.034(2)
_cell_angle_gamma                90
_cell_volume                     1780.32
_exptl_crystal_colour            colorless
_exptl_crystal_description       needle
_cell_formula_units_Z            4
loop_
_atom_site_label
_atom_site_type_symbol
_atom_site_fract_x
_atom_site_fract_y
_atom_site_fract_z
S1 S 0.39997(8) 0.23512(4) 0.286967(17)
O1 O 0.1428(2) 0.25816(11) 0.28926(5)
O2 O 0.4529(2) 0.12890(11) 0.26483(5)
O3 O 0.5427(2) 0.32770(11) 0.27148(5)
F1 F 0.7484(2) 0.19504(10) 0.35513(4)
F2 F 0.4685(2) 0.30543(11) 0.37753(5)
F3 F 0.3963(2) 0.12904(11) 0.37059(4)
C1 C 0.5093(4) 0.21491(16) 0.35081(7)
O4 O 1.2505(3) 0.39967(12) 0.03463(5)
O5 O 0.9507(3) 0.28456(13) 0.00183(5)
N1 N 0.9340(3) 0.47746(13) 0.26623(6)
B1 B 1.0404(4) 0.34351(18) 0.04189(8)
C2 C 1.3160(4) 0.3752(2) -0.01441(7)
H1 H 1.4738 0.3345 -0.0136
H2 H 1.3304 0.4450 -0.0335
C3 C 1.1125(5) 0.3037(3) -0.03643(9)
H3 H 1.0252 0.3424 -0.0645
H4 H 1.1773 0.2318 -0.0481
C4 C 0.9110(3) 0.34578(16) 0.09104(7)
H5 H 0.7441 0.3766 0.0844
H6 H 0.8939 0.2678 0.1027
C5 C 1.0428(3) 0.41424(15) 0.13216(7)
H7 H 1.2128 0.3865 0.1378
H8 H 1.0507 0.4934 0.1216
C6 C 0.9184(3) 0.40853(15) 0.18022(7)
H9 H 0.7477 0.4356 0.1749
H10 H 0.9139 0.3298 0.1916
C7 C 1.0557(3) 0.47980(15) 0.21903(6)
H11 H 1.2254 0.4517 0.2246
H12 H 1.0634 0.5580 0.2072
C8 C 1.0691(3) 0.54288(16) 0.30636(7)
H13 H 1.0977 0.6200 0.2947
H14 H 1.2305 0.5077 0.3146
C9 C 0.9279(3) 0.54744(15) 0.35157(7)
C10 C 0.7353(4) 0.62216(18) 0.35475(8)
H15 H 0.6905 0.6703 0.3279
C11 C 0.6081(4) 0.62705(19) 0.39675(8)
H16 H 0.4760 0.6781 0.3985
C12 C 0.6719(4) 0.55861(19) 0.43590(8)
H17 H 0.5853 0.5630 0.4648
C13 C 0.8605(5) 0.4838(2) 0.43334(8)
H18 H 0.9033 0.4355 0.4602
C14 C 0.9889(4) 0.47894(18) 0.39125(8)
H19 H 1.1208 0.4276 0.3898
H20 H 0.921(4) 0.4088(19) 0.2756(8)
H21 H 0.788(4) 0.5060(17) 0.2612(7)
loop_
_geom_bond_atom_site_label_1
_geom_bond_atom_site_label_2
_geom_bond_site_symmetry_1
_geom_bond_site_symmetry_2
S1 O1 1_555 1_555
O2 S1 1_555 1_555
O3 S1 1_555 1_555
F1 C1 1_555 1_555
F2 C1 1_555 1_555
F3 C1 1_555 1_555
C1 S1 1_555 1_555
O4 B1 1_555 1_555
O5 B1 1_555 1_555
N1 C7 1_555 1_555
B1 C4 1_555 1_555
C2 O4 1_555 1_555
H1 C2 1_555 1_555
H2 C2 1_555 1_555
C3 O5 1_555 1_555
H3 C3 1_555 1_555
H4 C3 1_555 1_555
C4 H5 1_555 1_555
H6 C4 1_555 1_555
C5 C4 1_555 1_555
H7 C5 1_555 1_555
H8 C5 1_555 1_555
C6 C5 1_555 1_555
H9 C6 1_555 1_555
H10 C6 1_555 1_555
C7 C6 1_555 1_555
H11 C7 1_555 1_555
H12 C7 1_555 1_555
C8 N1 1_555 1_555
H13 C8 1_555 1_555
H14 C8 1_555 1_555
C9 C8 1_555 1_555
C10 C9 1_555 1_555
H15 C10 1_555 1_555
C11 C10 1_555 1_555
H16 C11 1_555 1_555
C12 C11 1_555 1_555
H17 C12 1_555 1_555
C13 C12 1_555 1_555
H18 C13 1_555 1_555
C14 C9 1_555 1_555
H19 C14 1_555 1_555
H20 N1 1_555 1_555
H21 N1 1_555 1_555
C2 C3 1_555 1_555
C13 C14 1_555 1_555

#END
