
#######################################################################
#
#                 Cambridge Crystallographic Data Centre
#                                CCDC 
#
#######################################################################
#
# If this CIF has been generated from an entry in the Cambridge 
# Structural Database, then it will include bibliographic, chemical, 
# crystal, experimental, refinement or atomic coordinate data resulting 
# from the CCDC's data processing and validation procedures.
#
#######################################################################

data_KIXMAI
_chemical_formula_moiety         'C13 H7 B1 Cl1 F2 N3 O1'
_chemical_name_systematic        
'[6-chloro-2-(pyridin-2-yl)quinazolin-4(3H)-onato](difluoro)boron'
_symmetry_cell_setting           triclinic
_symmetry_space_group_name_H-M   'P -1'
_symmetry_Int_Tables_number      2
_space_group_name_Hall           '-P 1'
loop_
_symmetry_equiv_pos_site_id
_symmetry_equiv_pos_as_xyz
1 x,y,z
2 -x,-y,-z
_cell_length_a                   9.1890(7)
_cell_length_b                   11.6149(10)
_cell_length_c                   12.5824(10)
_cell_angle_alpha                108.629(7)
_cell_angle_beta                 99.023(7)
_cell_angle_gamma                90.161(7)
_cell_volume                     1254.79
_exptl_crystal_colour            colorless
_exptl_crystal_description       block
_cell_formula_units_Z            4
loop_
_atom_site_label
_atom_site_type_symbol
_atom_site_fract_x
_atom_site_fract_y
_atom_site_fract_z
Cl1 Cl 0.44183(8) -0.27434(6) 0.44801(7)
F1 F 0.96386(17) 0.15668(13) 0.24271(11)
F2 F 0.80032(17) 0.29644(13) 0.30779(12)
O1 O 0.6635(2) 0.03058(16) 0.26594(14)
N1 N 0.9117(2) 0.11919(17) 0.58575(15)
N2 N 0.8507(2) 0.14185(16) 0.40130(14)
N3 N 1.0311(2) 0.30025(17) 0.43412(16)
C1 C 0.9278(2) 0.1694(2) 0.50970(18)
C2 C 0.8005(2) 0.0273(2) 0.55178(18)
C3 C 0.7128(2) -0.0081(2) 0.44328(18)
C4 C 0.7367(3) 0.0536(2) 0.36134(19)
C5 C 1.0397(2) 0.2681(2) 0.52907(19)
C6 C 0.6018(3) -0.1004(2) 0.4127(2)
H1 H 0.5437 -0.1232 0.3410
C7 C 1.1422(3) 0.3244(2) 0.6246(2)
H2 H 1.1474 0.3022 0.6898
C8 C 0.7733(3) -0.0333(2) 0.6281(2)
H3 H 0.8301 -0.0113 0.7003
C9 C 0.6643(3) -0.1242(2) 0.5973(2)
H4 H 0.6473 -0.1634 0.6484
C10 C 0.5794(3) -0.1574(2) 0.4897(2)
C11 C 1.2371(3) 0.4149(2) 0.6205(2)
H5 H 1.3067 0.4551 0.6840
C12 C 1.1234(3) 0.3871(2) 0.4294(2)
H6 H 1.1166 0.4079 0.3633
C13 C 1.2287(3) 0.4458(2) 0.5225(3)
H7 H 1.2935 0.5058 0.5193
B1 B 0.9039(3) 0.2215(2) 0.3346(2)
Cl2 Cl -0.09532(9) 0.86167(7) 0.10376(6)
F3 F 0.48199(17) 0.39580(15) 0.28794(12)
F4 F 0.28645(17) 0.26054(15) 0.20512(13)
O2 O 0.1897(2) 0.53727(16) 0.27022(13)
N4 N 0.3128(2) 0.42773(18) 0.13047(15)
N5 N 0.2929(2) 0.45785(18) -0.05117(15)
N6 N 0.4740(2) 0.26679(18) 0.09081(17)
C14 C 0.3429(2) 0.4046(2) 0.02197(18)
C15 C 0.1993(3) 0.5508(2) -0.01317(18)
C16 C 0.2207(3) 0.5186(2) 0.17508(19)
C17 C 0.1645(2) 0.5859(2) 0.09783(18)
C18 C 0.0756(3) 0.6828(2) 0.1334(2)
H8 H 0.0558 0.7078 0.2074
C19 C 0.4440(3) 0.3052(2) -0.0009(2)
C20 C 0.1375(3) 0.6134(2) -0.0868(2)
H9 H 0.1581 0.5910 -0.1605
C21 C 0.0477(3) 0.7067(2) -0.0517(2)
H10 H 0.0070 0.7469 -0.1015
C22 C 0.0171(3) 0.7415(2) 0.0588(2)
C23 C 0.5044(3) 0.2529(2) -0.0972(2)
H11 H 0.4841 0.2803 -0.1595
C24 C 0.5630(3) 0.1761(2) 0.0900(2)
H12 H 0.5824 0.1506 0.1536
C25 C 0.5960(3) 0.1583(3) -0.0989(2)
H13 H 0.6372 0.1205 -0.1634
C26 C 0.6265(3) 0.1197(3) -0.0045(3)
H14 H 0.6889 0.0568 -0.0049
B2 B 0.3864(3) 0.3393(3) 0.1903(2)
loop_
_geom_bond_atom_site_label_1
_geom_bond_atom_site_label_2
_geom_bond_site_symmetry_1
_geom_bond_site_symmetry_2
Cl1 C10 1_555 1_555
F1 B1 1_555 1_555
F2 B1 1_555 1_555
O1 C4 1_555 1_555
N1 C1 1_555 1_555
N2 C1 1_555 1_555
N3 C5 1_555 1_555
C1 C5 1_555 1_555
C2 N1 1_555 1_555
C3 C2 1_555 1_555
C4 N2 1_555 1_555
C5 C7 1_555 1_555
C6 C3 1_555 1_555
H1 C6 1_555 1_555
C7 H2 1_555 1_555
C8 C2 1_555 1_555
H3 C8 1_555 1_555
C9 C8 1_555 1_555
H4 C9 1_555 1_555
C10 C6 1_555 1_555
C11 C7 1_555 1_555
H5 C11 1_555 1_555
C12 N3 1_555 1_555
H6 C12 1_555 1_555
C13 C11 1_555 1_555
H7 C13 1_555 1_555
B1 N2 1_555 1_555
Cl2 C22 1_555 1_555
F3 B2 1_555 1_555
F4 B2 1_555 1_555
O2 C16 1_555 1_555
N4 C14 1_555 1_555
N5 C14 1_555 1_555
N6 C19 1_555 1_555
C14 C19 1_555 1_555
C15 N5 1_555 1_555
C16 N4 1_555 1_555
C17 C15 1_555 1_555
C18 C17 1_555 1_555
H8 C18 1_555 1_555
C19 C23 1_555 1_555
C20 C15 1_555 1_555
H9 C20 1_555 1_555
C21 C20 1_555 1_555
H10 C21 1_555 1_555
C22 C18 1_555 1_555
C23 H11 1_555 1_555
C24 N6 1_555 1_555
H12 C24 1_555 1_555
C25 C23 1_555 1_555
H13 C25 1_555 1_555
C26 C24 1_555 1_555
H14 C26 1_555 1_555
B2 N4 1_555 1_555
N3 B1 1_555 1_555
C3 C4 1_555 1_555
C9 C10 1_555 1_555
C12 C13 1_555 1_555
N6 B2 1_555 1_555
C16 C17 1_555 1_555
C21 C22 1_555 1_555
C25 C26 1_555 1_555

#END
