
#######################################################################
#
#                 Cambridge Crystallographic Data Centre
#                                CCDC 
#
#######################################################################
#
# If this CIF has been generated from an entry in the Cambridge 
# Structural Database, then it will include bibliographic, chemical, 
# crystal, experimental, refinement or atomic coordinate data resulting 
# from the CCDC's data processing and validation procedures.
#
#######################################################################

data_KIXNAH
_chemical_compound_source        'Platycladus orientalis'
_chemical_formula_moiety         'C20 H32 O4'
_chemical_name_systematic        
'14R,15-Dihydroxylabda-8(17),12Z-dien-19-oic acid'
_symmetry_cell_setting           orthorhombic
_symmetry_space_group_name_H-M   'P 21 21 21'
_symmetry_Int_Tables_number      19
_space_group_name_Hall           'P 2ac 2ab'
loop_
_symmetry_equiv_pos_site_id
_symmetry_equiv_pos_as_xyz
1 x,y,z
2 1/2-x,-y,1/2+z
3 -x,1/2+y,1/2-z
4 1/2+x,1/2-y,-z
_cell_length_a                   7.67930(10)
_cell_length_b                   13.1780(2)
_cell_length_c                   18.7288(3)
_cell_angle_alpha                90
_cell_angle_beta                 90
_cell_angle_gamma                90
_cell_volume                     1895.31
_exptl_crystal_colour            colorless
_exptl_crystal_description       'irregular plate'
_cell_formula_units_Z            4
loop_
_atom_site_label
_atom_site_type_symbol
_atom_site_fract_x
_atom_site_fract_y
_atom_site_fract_z
O1 O 0.01031(15) -1.63712(8) -0.49060(5)
H1 H -0.031(4) -1.693(2) -0.4816(16)
O2 O 0.35647(15) -1.68606(9) -0.54276(6)
H2 H 0.337(3) -1.635(2) -0.5029(13)
O3 O -0.38496(13) -0.98146(8) -0.61120(6)
H3 H -0.422(3) -0.9416(16) -0.5720(12)
O4 O -0.12376(13) -0.95936(7) -0.56248(5)
C1 C -0.22137(17) -1.35023(10) -0.64507(7)
H4 H -0.1700 -1.3640 -0.6932
C2 C -0.41714(18) -1.35000(10) -0.65498(7)
C3 C -0.47545(18) -1.27786(11) -0.71208(8)
H5 H -0.6040 -1.2795 -0.7158
H6 H -0.4265 -1.2992 -0.7586
C4 C -0.41535(17) -1.16945(11) -0.69487(8)
H7 H -0.4775 -1.1448 -0.6519
H8 H -0.4456 -1.1241 -0.7352
C5 C -0.21799(17) -1.16478(10) -0.68162(7)
H9 H -0.1646 -1.1908 -0.7267
C6 C -0.14287(18) -1.05473(10) -0.67299(7)
C7 C 0.05642(18) -1.06123(11) -0.66718(8)
H10 H 0.1042 -1.0830 -0.7138
H11 H 0.1030 -0.9928 -0.6567
C8 C 0.11886(16) -1.13416(11) -0.60991(8)
H12 H 0.0841 -1.1083 -0.5624
H13 H 0.2475 -1.1382 -0.6112
C9 C 0.04218(17) -1.23985(10) -0.62095(7)
H14 H 0.0826 -1.2847 -0.5819
H15 H 0.0869 -1.2679 -0.6664
C10 C -0.15763(17) -1.24107(9) -0.62279(7)
C11 C -0.15643(19) -1.43532(10) -0.59572(8)
H16 H -0.0303 -1.4259 -0.5871
H17 H -0.2168 -1.4299 -0.5492
C12 C -0.18632(18) -1.53958(10) -0.62590(7)
H18 H -0.2813 -1.5463 -0.6581
C13 C -0.09579(18) -1.62338(10) -0.61297(7)
C14 C -0.1508(2) -1.72335(11) -0.64445(8)
H19 H -0.2581 -1.7140 -0.6721
H20 H -0.1716 -1.7722 -0.6060
H21 H -0.0586 -1.7489 -0.6759
C15 C 0.06106(19) -1.62284(10) -0.56346(7)
H22 H 0.1145 -1.5538 -0.5668
C16 C 0.2009(2) -1.69841(12) -0.58383(8)
H23 H 0.1556 -1.7680 -0.5768
H24 H 0.2290 -1.6902 -0.6351
C17 C -0.52910(19) -1.40199(11) -0.61571(8)
H25 H -0.494(2) -1.4450(14) -0.5781(10)
H26 H -0.654(2) -1.3975(12) -0.6253(9)
C18 C -0.1878(2) -0.99069(11) -0.73947(8)
H27 H -0.3142 -0.9813 -0.7423
H28 H -0.1469 -1.0258 -0.7825
H29 H -0.1308 -0.9243 -0.7359
C19 C -0.21550(18) -0.99514(10) -0.60933(7)
C20 C -0.23084(18) -1.21529(10) -0.54879(7)
H30 H -0.1890 -1.2651 -0.5139
H31 H -0.3584 -1.2170 -0.5504
H32 H -0.1920 -1.1473 -0.5347
loop_
_geom_bond_atom_site_label_1
_geom_bond_atom_site_label_2
_geom_bond_site_symmetry_1
_geom_bond_site_symmetry_2
O1 H1 1_555 1_555
O2 H2 1_555 1_555
O3 H3 1_555 1_555
O4 C19 1_555 1_555
C1 H4 1_555 1_555
C2 C1 1_555 1_555
C3 C2 1_555 1_555
H5 C3 1_555 1_555
H6 C3 1_555 1_555
C4 C3 1_555 1_555
H7 C4 1_555 1_555
H8 C4 1_555 1_555
C5 C4 1_555 1_555
H9 C5 1_555 1_555
C6 C5 1_555 1_555
C7 C6 1_555 1_555
H10 C7 1_555 1_555
H11 C7 1_555 1_555
C8 C7 1_555 1_555
H12 C8 1_555 1_555
H13 C8 1_555 1_555
C9 C8 1_555 1_555
H14 C9 1_555 1_555
H15 C9 1_555 1_555
C10 C1 1_555 1_555
C11 C1 1_555 1_555
H16 C11 1_555 1_555
H17 C11 1_555 1_555
C12 C11 1_555 1_555
H18 C12 1_555 1_555
C13 C12 1_555 1_555
C14 C13 1_555 1_555
H19 C14 1_555 1_555
H20 C14 1_555 1_555
H21 C14 1_555 1_555
C15 O1 1_555 1_555
H22 C15 1_555 1_555
C16 O2 1_555 1_555
H23 C16 1_555 1_555
H24 C16 1_555 1_555
C17 C2 1_555 1_555
H25 C17 1_555 1_555
H26 C17 1_555 1_555
C18 C6 1_555 1_555
H27 C18 1_555 1_555
H28 C18 1_555 1_555
H29 C18 1_555 1_555
C19 O3 1_555 1_555
C20 C10 1_555 1_555
H30 C20 1_555 1_555
H31 C20 1_555 1_555
H32 C20 1_555 1_555
C5 C10 1_555 1_555
C6 C19 1_555 1_555
C9 C10 1_555 1_555
C13 C15 1_555 1_555
C15 C16 1_555 1_555

#END
