
#######################################################################
#
#                 Cambridge Crystallographic Data Centre
#                                CCDC 
#
#######################################################################
#
# If this CIF has been generated from an entry in the Cambridge 
# Structural Database, then it will include bibliographic, chemical, 
# crystal, experimental, refinement or atomic coordinate data resulting 
# from the CCDC's data processing and validation procedures.
#
#######################################################################

data_KIXRUG
_chemical_formula_moiety         'C11 H13 N5 O5'
_chemical_name_systematic        
5-amino-8-(3-hydroxy-5-(hydroxymethyl)tetrahydrofuran-2-yl)pyrimido[4,5-d]pyrimidine-2,4(3H,8H)-dione
_symmetry_cell_setting           triclinic
_symmetry_space_group_name_H-M   'P 1'
_symmetry_Int_Tables_number      1
_space_group_name_Hall           'P 1'
loop_
_symmetry_equiv_pos_site_id
_symmetry_equiv_pos_as_xyz
1 x,y,z
_cell_length_a                   4.9116(6)
_cell_length_b                   8.8528(14)
_cell_length_c                   13.9600(17)
_cell_angle_alpha                105.332(6)
_cell_angle_beta                 93.529(4)
_cell_angle_gamma                91.847(3)
_cell_volume                     583.545
_cell_formula_units_Z            2
loop_
_atom_site_label
_atom_site_type_symbol
_atom_site_fract_x
_atom_site_fract_y
_atom_site_fract_z
O1 O -0.0648(7) 0.4676(4) 0.5230(2)
O2 O -0.1888(7) 0.3035(4) 0.9127(2)
O3 O 0.4802(8) -0.0252(4) 0.7989(3)
O4 O -0.0783(7) 0.7497(4) 0.7016(3)
H1 H -0.1012 0.7564 0.7602
N1 N 0.1448(9) 0.1406(5) 0.8537(3)
N2 N 0.0101(8) 0.3400(5) 0.7772(3)
N3 N 0.7082(10) 0.0042(5) 0.6257(4)
N4 N 0.5422(9) 0.1912(5) 0.5580(3)
O5 O 0.3688(9) 0.6611(5) 0.3837(3)
H2 H 0.3197 0.7513 0.4008
C1 C -0.0191(11) 0.2626(6) 0.8497(4)
C2 C 0.1839(11) 0.2821(6) 0.7088(4)
N5 N 0.1944(9) 0.3539(5) 0.6312(3)
C3 C 0.0044(11) 0.4802(6) 0.6245(4)
H3 H -0.1615 0.4664 0.6575
C4 C 0.0374(12) 0.6066(6) 0.4966(4)
C5 C 0.3377(11) 0.0836(6) 0.7885(4)
C6 C 0.3517(11) 0.1593(6) 0.7085(4)
C7 C 0.5333(11) 0.1149(5) 0.6318(4)
C8 C 0.3711(11) 0.3033(6) 0.5614(4)
H4 H 0.3726 0.3525 0.5103
C9 C 0.1318(11) 0.6461(6) 0.6700(4)
H5 H 0.2719 0.6497 0.7238
C10 C 0.2500(11) 0.6853(6) 0.5811(3)
H6 H 0.4276 0.6420 0.5693
H7 H 0.2661 0.7977 0.5899
C11 C 0.1502(13) 0.5540(6) 0.3944(4)
H8 H 0.2184 0.4499 0.3851
H9 H 0.0045 0.5486 0.3432
H10 H -0.108(8) 0.684(5) 0.497(3)
H11 H 0.143(11) 0.095(6) 0.912(4)
H12 H 0.718(13) -0.045(7) 0.669(5)
H13 H 0.808(13) -0.018(7) 0.582(5)
O6 O 0.0552(7) 0.9506(4) 0.4626(2)
O7 O -0.3724(7) 1.2652(4) 0.2985(3)
O8 O 0.5196(8) 0.5505(5) 0.1969(3)
H14 H 0.5285 0.5885 0.2573
N6 N -0.1443(10) 1.1108(5) 0.3796(3)
N7 N 0.1890(9) 0.9369(5) 0.3086(3)
N8 N 0.3040(9) 0.9237(5) 0.1491(3)
O9 O 0.6724(7) 0.7770(4) 0.0799(2)
O10 O 0.8665(8) 0.6510(4) -0.1300(3)
H15 H 0.9287 0.5650 -0.1527
N9 N 0.1075(9) 1.0739(5) 0.0490(3)
N10 N -0.2156(10) 1.2509(6) 0.1060(4)
C12 C 0.0361(10) 0.9963(6) 0.3861(4)
C13 C 0.1521(11) 0.9887(6) 0.2288(4)
C14 C 0.4989(11) 0.7981(6) 0.1589(4)
H16 H 0.6078 0.8320 0.2227
C15 C 0.6112(11) 0.6217(6) 0.0109(4)
H17 H 0.7514 0.5502 0.0213
C16 C 0.5983(10) 0.6300(7) -0.0950(4)
H18 H 0.5083 0.5342 -0.1372
H19 H 0.4888 0.7167 -0.1012
C17 C -0.1950(11) 1.1695(6) 0.2991(4)
C18 C 0.3389(11) 0.5672(6) 0.0381(4)
H20 H 0.3208 0.4536 0.0221
H21 H 0.1887 0.6052 0.0040
C19 C 0.3493(11) 0.6400(6) 0.1502(4)
H22 H 0.1677 0.6509 0.1759
C20 C 0.2681(12) 0.9709(6) 0.0660(4)
H23 H 0.3725 0.9232 0.0141
C21 C -0.0499(11) 1.1451(6) 0.1262(4)
C22 C -0.0283(11) 1.1037(6) 0.2173(4)
H24 H -0.214(13) 1.142(8) 0.429(4)
H25 H -0.245(11) 1.250(6) 0.047(4)
H26 H -0.280(13) 1.307(7) 0.155(5)
loop_
_geom_bond_atom_site_label_1
_geom_bond_atom_site_label_2
_geom_bond_site_symmetry_1
_geom_bond_site_symmetry_2
O1 C3 1_555 1_555
O2 C1 1_555 1_555
O3 C5 1_555 1_555
O4 H1 1_555 1_555
N1 C1 1_555 1_555
N2 C1 1_555 1_555
N3 C7 1_555 1_555
N4 C7 1_555 1_555
O5 H2 1_555 1_555
C2 N2 1_555 1_555
N5 C2 1_555 1_555
C3 N5 1_555 1_555
H3 C3 1_555 1_555
C4 O1 1_555 1_555
C5 N1 1_555 1_555
C6 C2 1_555 1_555
C7 C6 1_555 1_555
C8 N4 1_555 1_555
H4 C8 1_555 1_555
C9 O4 1_555 1_555
H5 C9 1_555 1_555
C10 C4 1_555 1_555
H6 C10 1_555 1_555
H7 C10 1_555 1_555
C11 O5 1_555 1_555
H8 C11 1_555 1_555
H9 C11 1_555 1_555
H10 C4 1_555 1_555
H11 N1 1_555 1_555
H12 N3 1_555 1_555
H13 N3 1_555 1_555
O6 C12 1_555 1_555
O7 C17 1_555 1_555
O8 H14 1_555 1_555
N6 C12 1_555 1_555
N7 C12 1_555 1_555
N8 C13 1_555 1_555
O9 C14 1_555 1_555
O10 H15 1_555 1_555
N9 C20 1_555 1_555
N10 C21 1_555 1_555
C13 N7 1_555 1_555
C14 N8 1_555 1_555
H16 C14 1_555 1_555
C15 O9 1_555 1_555
H17 C15 1_555 1_555
C16 O10 1_555 1_555
H18 C16 1_555 1_555
H19 C16 1_555 1_555
C17 N6 1_555 1_555
C18 C15 1_555 1_555
H20 C18 1_555 1_555
H21 C18 1_555 1_555
C19 O8 1_555 1_555
H22 C19 1_555 1_555
C20 N8 1_555 1_555
H23 C20 1_555 1_555
C21 N9 1_555 1_555
C22 C13 1_555 1_555
H24 N6 1_555 1_555
H25 N10 1_555 1_555
H26 N10 1_555 1_555
N5 C8 1_555 1_555
C3 C9 1_555 1_555
C4 C11 1_555 1_555
C5 C6 1_555 1_555
C9 C10 1_555 1_555
C14 C19 1_555 1_555
C15 C16 1_555 1_555
C17 C22 1_555 1_555
C18 C19 1_555 1_555
C21 C22 1_555 1_555

#END
