
#######################################################################
#
#                 Cambridge Crystallographic Data Centre
#                                CCDC 
#
#######################################################################
#
# If this CIF has been generated from an entry in the Cambridge 
# Structural Database, then it will include bibliographic, chemical, 
# crystal, experimental, refinement or atomic coordinate data resulting 
# from the CCDC's data processing and validation procedures.
#
#######################################################################

data_KIXTEQ
_chemical_formula_moiety         'C25 H22 N2 O4'
_chemical_name_systematic        
7-Benzoyl-2-(4-methoxyphenyl)-6-phenyl-5-oxa-2,6-diazaspiro(3.4)octan-1-one
_symmetry_cell_setting           monoclinic
_symmetry_space_group_name_H-M   'P 21/n'
_symmetry_Int_Tables_number      14
_space_group_name_Hall           '-P 2yn'
loop_
_symmetry_equiv_pos_site_id
_symmetry_equiv_pos_as_xyz
1 x,y,z
2 1/2+x,1/2-y,1/2+z
3 -x,-y,-z
4 1/2-x,1/2+y,1/2-z
_cell_length_a                   9.368(5)
_cell_length_b                   19.776(7)
_cell_length_c                   11.484(8)
_cell_angle_alpha                90
_cell_angle_beta                 101.92(4)
_cell_angle_gamma                90
_cell_volume                     2081.67
_exptl_crystal_colour            colorless
_exptl_crystal_description       prism
_chemical_melting_point          428-429K
_cell_formula_units_Z            4
_exptl_crystal_recrystallization_method ethanol
loop_
_atom_site_label
_atom_site_type_symbol
_atom_site_fract_x
_atom_site_fract_y
_atom_site_fract_z
C1 C -0.2160(2) 0.09152(11) 0.5334(2)
N1 N -0.2516(2) 0.12935(9) 0.6222(2)
C2 C -0.1230(3) 0.17395(12) 0.6373(2)
H1 H -0.0600 0.17178 0.7157
H2 H -0.1456 0.22039 0.6131
C3 C -0.0710(2) 0.13078(11) 0.5434(2)
O1 O -0.0531(2) 0.16853(7) 0.44033(15)
N2 N 0.0715(2) 0.14217(9) 0.3979(2)
C4 C 0.1703(2) 0.12119(11) 0.5092(2)
H3 H 0.2416 0.08794 0.4935
C5 C 0.0696(2) 0.09035(12) 0.5829(2)
H4 H 0.1087 0.09596 0.6674
H5 H 0.0537 0.04262 0.5655
O2 O -0.2763(2) 0.04440(8) 0.4760(2)
C6 C -0.3512(2) 0.12200(11) 0.6979(2)
C7 C -0.3413(3) 0.16374(14) 0.7952(3)
H6 H -0.2733 0.19865 0.8066
C8 C -0.4291(3) 0.15501(15) 0.8753(3)
H7 H -0.4204 0.18352 0.9408
C9 C -0.5314(3) 0.10334(15) 0.8583(3)
C10 C -0.5453(3) 0.06272(13) 0.7586(2)
H8 H -0.6156 0.02881 0.7459
C11 C -0.4574(2) 0.07158(11) 0.6782(2)
H9 H -0.4684 0.04420 0.6110
O3 O -0.6222(2) 0.08993(13) 0.9351(2)
C12 C -0.5825(4) 0.1119(2) 1.0514(3)
H10 H -0.6455(17) 0.0918(10) 1.0978(6)
H11 H -0.591(3) 0.1602(2) 1.0538(4)
H12 H -0.4834(9) 0.0989(11) 1.0835(8)
C13 C 0.2463(3) 0.18565(12) 0.5645(2)
O4 O 0.2044(2) 0.21298(10) 0.6458(2)
C14 C 0.3685(2) 0.21479(11) 0.5151(2)
C15 C 0.4331(3) 0.27318(13) 0.5663(3)
H13 H 0.4003 0.29293 0.6294
C16 C 0.5462(3) 0.3025(2) 0.5243(3)
H14 H 0.5890 0.3419 0.5595
C17 C 0.5956(3) 0.2745(2) 0.4326(3)
H15 H 0.6712 0.2950 0.4044
C18 C 0.5342(3) 0.21589(15) 0.3813(3)
H16 H 0.5691 0.19606 0.3192
C19 C 0.4193(3) 0.18628(13) 0.4225(2)
H17 H 0.3766 0.14690 0.3871
C20 C 0.0272(3) 0.09079(11) 0.3107(2)
C21 C 0.1302(3) 0.04808(12) 0.2785(2)
H18 H 0.2273 0.05118 0.3177
C22 C 0.0899(3) 0.00099(13) 0.1887(2)
H19 H 0.1599 -0.02722 0.1677
C23 C -0.0537(3) -0.00425(14) 0.1303(2)
H20 H -0.0817 -0.03684 0.0716
C24 C -0.1546(3) 0.03891(15) 0.1594(2)
H21 H -0.2510 0.03637 0.1182
C25 C -0.1166(3) 0.08612(13) 0.2486(2)
H22 H -0.1871 0.11490 0.2673
loop_
_geom_bond_atom_site_label_1
_geom_bond_atom_site_label_2
_geom_bond_site_symmetry_1
_geom_bond_site_symmetry_2
C1 N1 1_555 1_555
N1 C2 1_555 1_555
C2 H1 1_555 1_555
H2 C2 1_555 1_555
C3 C1 1_555 1_555
O1 C3 1_555 1_555
N2 O1 1_555 1_555
C4 N2 1_555 1_555
H3 C4 1_555 1_555
C5 C3 1_555 1_555
H4 C5 1_555 1_555
H5 C5 1_555 1_555
O2 C1 1_555 1_555
C6 N1 1_555 1_555
C7 C6 1_555 1_555
H6 C7 1_555 1_555
C8 C7 1_555 1_555
H7 C8 1_555 1_555
C9 C8 1_555 1_555
C10 C9 1_555 1_555
H8 C10 1_555 1_555
C11 C6 1_555 1_555
H9 C11 1_555 1_555
O3 C9 1_555 1_555
C12 O3 1_555 1_555
H10 C12 1_555 1_555
H11 C12 1_555 1_555
H12 C12 1_555 1_555
C13 C4 1_555 1_555
O4 C13 1_555 1_555
C14 C13 1_555 1_555
C15 C14 1_555 1_555
H13 C15 1_555 1_555
C16 C15 1_555 1_555
H14 C16 1_555 1_555
C17 C16 1_555 1_555
H15 C17 1_555 1_555
C18 C17 1_555 1_555
H16 C18 1_555 1_555
C19 C14 1_555 1_555
H17 C19 1_555 1_555
C20 N2 1_555 1_555
C21 C20 1_555 1_555
H18 C21 1_555 1_555
C22 C21 1_555 1_555
H19 C22 1_555 1_555
C23 C22 1_555 1_555
H20 C23 1_555 1_555
C24 C23 1_555 1_555
H21 C24 1_555 1_555
C25 C20 1_555 1_555
H22 C25 1_555 1_555
C2 C3 1_555 1_555
C4 C5 1_555 1_555
C10 C11 1_555 1_555
C18 C19 1_555 1_555
C24 C25 1_555 1_555

#END
