
#######################################################################
#
#                 Cambridge Crystallographic Data Centre
#                                CCDC 
#
#######################################################################
#
# If this CIF has been generated from an entry in the Cambridge 
# Structural Database, then it will include bibliographic, chemical, 
# crystal, experimental, refinement or atomic coordinate data resulting 
# from the CCDC's data processing and validation procedures.
#
#######################################################################

data_KIYDII
_chemical_formula_moiety         'C20 H16 N2 O3 S1'
_chemical_name_systematic        
6a,6b,7,11a-tetrahydro-6H,9H-spiro[1-benzopyrano[3',4':3,4]pyrrolo[1,2-c][1,3]thiazole-11,3'-indole]-2',6(1'H)-dione
_symmetry_cell_setting           monoclinic
_symmetry_space_group_name_H-M   'P 21/n'
_symmetry_Int_Tables_number      14
_space_group_name_Hall           '-P 2yn'
loop_
_symmetry_equiv_pos_site_id
_symmetry_equiv_pos_as_xyz
1 x,y,z
2 1/2-x,1/2+y,1/2-z
3 -x,-y,-z
4 1/2+x,1/2-y,1/2+z
_cell_length_a                   11.3058(9)
_cell_length_b                   10.0905(8)
_cell_length_c                   15.1957(12)
_cell_angle_alpha                90
_cell_angle_beta                 101.0720(10)
_cell_angle_gamma                90
_cell_volume                     1701.28
_exptl_crystal_colour            colorless
_exptl_crystal_description       Block
_cell_formula_units_Z            4
loop_
_atom_site_label
_atom_site_type_symbol
_atom_site_fract_x
_atom_site_fract_y
_atom_site_fract_z
S1 S 0.57371(5) 0.86992(6) 0.95071(3)
O1 O 0.84530(11) 0.85243(14) 0.62287(8)
O2 O 0.91582(12) 0.96789(15) 0.74380(10)
O3 O 0.63036(12) 1.05167(12) 0.61274(9)
N1 N 0.61304(11) 0.95792(13) 0.79329(8)
N2 N 0.42770(14) 1.00915(16) 0.59558(11)
H1 H 0.401330 1.064837 0.553539
C1 C 0.84352(14) 0.88731(17) 0.70943(12)
C2 C 0.75317(15) 0.77756(17) 0.57221(11)
C3 C 0.77089(19) 0.7398(2) 0.48794(13)
H2 H 0.842381 0.760585 0.469330
C4 C 0.6811(2) 0.6711(2) 0.43215(13)
H3 H 0.692571 0.644363 0.375835
C5 C 0.5742(2) 0.6417(2) 0.45907(13)
H4 H 0.512648 0.598674 0.420168
C6 C 0.55927(18) 0.67675(18) 0.54432(13)
H5 H 0.487889 0.655046 0.562774
C7 C 0.64923(15) 0.74391(15) 0.60294(11)
C8 C 0.63887(13) 0.77552(15) 0.69741(10)
H6 H 0.608885 0.695840 0.722794
C9 C 0.75974(14) 0.81137(16) 0.75678(10)
H7 H 0.799982 0.729271 0.780519
C10 C 0.72344(14) 0.88742(18) 0.83418(10)
H8 H 0.786632 0.950538 0.859742
C11 C 0.6941(2) 0.7942(2) 0.90799(13)
H9 H 0.764283 0.783469 0.955452
H10 H 0.669905 0.707638 0.883100
C12 C 0.54452(15) 0.99367(18) 0.86045(11)
H11 H 0.459238 0.995734 0.834284
H12 H 0.568283 1.080964 0.884175
C13 C 0.55309(13) 0.89158(14) 0.70978(10)
C14 C 0.54547(15) 0.99491(15) 0.63379(10)
C15 C 0.35371(15) 0.92197(19) 0.63287(12)
C16 C 0.23026(18) 0.9034(3) 0.60850(16)
H13 H 0.183914 0.953834 0.563437
C17 C 0.17892(19) 0.8076(3) 0.65336(18)
H14 H 0.096136 0.793850 0.638706
C18 C 0.2469(2) 0.7318(3) 0.71934(17)
H15 H 0.209658 0.666702 0.747758
C19 C 0.37089(18) 0.7509(2) 0.74433(13)
H16 H 0.417048 0.699062 0.788679
C20 C 0.42334(14) 0.84931(17) 0.70121(10)
loop_
_geom_bond_atom_site_label_1
_geom_bond_atom_site_label_2
_geom_bond_site_symmetry_1
_geom_bond_site_symmetry_2
S1 C11 1_555 1_555
O1 C1 1_555 1_555
O2 C1 1_555 1_555
O3 C14 1_555 1_555
N1 C10 1_555 1_555
N2 H1 1_555 1_555
C1 C9 1_555 1_555
C2 O1 1_555 1_555
C3 C2 1_555 1_555
H2 C3 1_555 1_555
C4 C3 1_555 1_555
H3 C4 1_555 1_555
C5 C4 1_555 1_555
H4 C5 1_555 1_555
C6 C5 1_555 1_555
H5 C6 1_555 1_555
C7 C2 1_555 1_555
C8 C7 1_555 1_555
H6 C8 1_555 1_555
C9 C8 1_555 1_555
H7 C9 1_555 1_555
C10 C9 1_555 1_555
H8 C10 1_555 1_555
C11 C10 1_555 1_555
H9 C11 1_555 1_555
H10 C11 1_555 1_555
C12 S1 1_555 1_555
H11 C12 1_555 1_555
H12 C12 1_555 1_555
C13 N1 1_555 1_555
C14 N2 1_555 1_555
C15 N2 1_555 1_555
C16 C15 1_555 1_555
H13 C16 1_555 1_555
C17 C16 1_555 1_555
H14 C17 1_555 1_555
C18 C17 1_555 1_555
H15 C18 1_555 1_555
C19 C18 1_555 1_555
H16 C19 1_555 1_555
C20 C13 1_555 1_555
N1 C12 1_555 1_555
C6 C7 1_555 1_555
C8 C13 1_555 1_555
C13 C14 1_555 1_555
C15 C20 1_555 1_555
C19 C20 1_555 1_555

#END
