
#######################################################################
#
#                 Cambridge Crystallographic Data Centre
#                                CCDC 
#
#######################################################################
#
# If this CIF has been generated from an entry in the Cambridge 
# Structural Database, then it will include bibliographic, chemical, 
# crystal, experimental, refinement or atomic coordinate data resulting 
# from the CCDC's data processing and validation procedures.
#
#######################################################################

data_KIYFUV
_chemical_name_common            
N-((8aR,9S,10R,12aS)-9-methyl-5-oxodecahydro-1H,5H-benzo[b]pyrrolo[1,2-a]azepin-10-yl)-2-nitrobenzenesulfonamide
_chemical_formula_moiety         'C20 H27 N3 O5 S1'
_chemical_name_systematic        
N-((8aR,9S,10R,12aS)-9-Methyl-5-oxodecahydro-1H,5H-pyrrolo[2,1-k][1]benzazepin-10-yl)-2-nitrobenzenesulfonamide
_symmetry_cell_setting           triclinic
_symmetry_space_group_name_H-M   'P -1'
_symmetry_Int_Tables_number      2
_space_group_name_Hall           '-P 1'
loop_
_symmetry_equiv_pos_site_id
_symmetry_equiv_pos_as_xyz
1 x,y,z
2 -x,-y,-z
_cell_length_a                   9.3311(4)
_cell_length_b                   10.7524(5)
_cell_length_c                   10.8992(6)
_cell_angle_alpha                116.238(2)
_cell_angle_beta                 94.799(2)
_cell_angle_gamma                96.792(2)
_cell_volume                     962.568
_exptl_crystal_colour            colorless
_exptl_crystal_description       Rectangular
_chemical_melting_point          '500-502 K'
_cell_formula_units_Z            2
loop_
_atom_site_label
_atom_site_type_symbol
_atom_site_fract_x
_atom_site_fract_y
_atom_site_fract_z
S1 S 0.61493(3) 0.08657(3) 0.22656(3)
O1 O -0.22347(12) -0.35019(12) -0.12844(12)
O2 O 0.67943(10) 0.06287(10) 0.33634(10)
O3 O 0.67407(10) 0.04044(10) 0.09885(10)
O4 O 0.84998(15) 0.35427(13) 0.59383(12)
O5 O 0.93324(11) 0.26568(12) 0.39854(12)
N1 N -0.07843(12) -0.24506(12) 0.07776(12)
N2 N 0.44617(12) 0.01454(12) 0.18564(12)
H1 H 0.4050(19) 0.0030(18) 0.1065(19)
N3 N 0.84500(13) 0.32443(12) 0.47188(13)
C1 C -0.09885(16) -0.30416(15) -0.06219(15)
C2 C 0.03186(17) -0.32657(16) -0.13656(15)
H2 H -0.007(2) -0.3862(19) -0.231(2)
H3 H 0.0806(19) -0.240(2) -0.1280(18)
C3 C 0.13933(16) -0.39535(14) -0.08414(15)
H4 H 0.0842(19) -0.4726(19) -0.0690(18)
H5 H 0.1979(19) -0.4407(19) -0.1545(19)
C4 C 0.24537(15) -0.29205(14) 0.04498(15)
H6 H 0.2965(18) -0.2181(18) 0.0225(17)
H7 H 0.3179(19) -0.3441(18) 0.0584(17)
C5 C 0.18463(14) -0.22141(14) 0.18233(14)
H8 H 0.1532(18) -0.2964(18) 0.2090(17)
C6 C 0.30882(14) -0.11443(14) 0.29907(14)
H9 H 0.2728(18) -0.0839(18) 0.3869(19)
C7 C 0.35208(15) 0.02578(14) 0.29203(14)
H10 H 0.4117(19) 0.0885(18) 0.3802(19)
C8 C 0.21724(15) 0.08857(14) 0.27351(15)
H11 H 0.2444(19) 0.1720(19) 0.2600(18)
H12 H 0.1793(18) 0.1229(17) 0.3602(18)
C9 C 0.09851(15) -0.01857(14) 0.15582(15)
H13 H 0.1330(18) -0.0480(17) 0.0655(18)
H14 H 0.014(2) 0.0246(19) 0.1514(18)
C10 C 0.05173(14) -0.14730(14) 0.17979(14)
C11 C -0.01299(15) -0.09920(15) 0.31739(15)
H15 H 0.0581(18) -0.0852(17) 0.3943(18)
H16 H -0.0463(18) -0.0094(19) 0.3377(17)
C12 C -0.14334(16) -0.21173(16) 0.29093(16)
H17 H -0.1127(19) -0.290(2) 0.2992(18)
H18 H -0.212(2) -0.178(2) 0.354(2)
C13 C -0.20820(15) -0.25362(15) 0.14327(16)
H19 H -0.2706(19) -0.1870(19) 0.1418(18)
H20 H -0.2654(18) -0.3489(18) 0.0926(17)
C14 C 0.44066(16) -0.18106(15) 0.31491(16)
H21 H 0.492(2) -0.2098(19) 0.234(2)
H22 H 0.405(2) -0.265(2) 0.326(2)
H23 H 0.511(2) -0.115(2) 0.396(2)
C15 C 0.62438(14) 0.27311(14) 0.29657(14)
C16 C 0.72705(15) 0.36871(15) 0.40942(15)
C17 C 0.72753(16) 0.51216(15) 0.46738(16)
H24 H 0.793(2) 0.572(2) 0.544(2)
C18 C 0.62565(16) 0.56173(15) 0.40799(17)
H25 H 0.6255(19) 0.658(2) 0.4475(18)
C19 C 0.52376(16) 0.46844(16) 0.29433(17)
H26 H 0.453(2) 0.5006(18) 0.2535(18)
C20 C 0.52245(15) 0.32423(15) 0.23944(15)
H27 H 0.453(2) 0.2632(19) 0.1669(19)
loop_
_geom_bond_atom_site_label_1
_geom_bond_atom_site_label_2
_geom_bond_site_symmetry_1
_geom_bond_site_symmetry_2
S1 O2 1_555 1_555
O1 C1 1_555 1_555
O3 S1 1_555 1_555
O4 N3 1_555 1_555
O5 N3 1_555 1_555
N1 C1 1_555 1_555
N2 S1 1_555 1_555
H1 N2 1_555 1_555
N3 C16 1_555 1_555
C1 C2 1_555 1_555
C2 H2 1_555 1_555
H3 C2 1_555 1_555
C3 C2 1_555 1_555
H4 C3 1_555 1_555
H5 C3 1_555 1_555
C4 C3 1_555 1_555
H6 C4 1_555 1_555
H7 C4 1_555 1_555
C5 C4 1_555 1_555
H8 C5 1_555 1_555
C6 C5 1_555 1_555
H9 C6 1_555 1_555
C7 N2 1_555 1_555
H10 C7 1_555 1_555
C8 C7 1_555 1_555
H11 C8 1_555 1_555
H12 C8 1_555 1_555
C9 C8 1_555 1_555
H13 C9 1_555 1_555
H14 C9 1_555 1_555
C10 N1 1_555 1_555
C11 C10 1_555 1_555
H15 C11 1_555 1_555
H16 C11 1_555 1_555
C12 C11 1_555 1_555
H17 C12 1_555 1_555
H18 C12 1_555 1_555
C13 N1 1_555 1_555
H19 C13 1_555 1_555
H20 C13 1_555 1_555
C14 C6 1_555 1_555
H21 C14 1_555 1_555
H22 C14 1_555 1_555
H23 C14 1_555 1_555
C15 S1 1_555 1_555
C16 C15 1_555 1_555
C17 C16 1_555 1_555
H24 C17 1_555 1_555
C18 C17 1_555 1_555
H25 C18 1_555 1_555
C19 C18 1_555 1_555
H26 C19 1_555 1_555
C20 C15 1_555 1_555
H27 C20 1_555 1_555
C5 C10 1_555 1_555
C6 C7 1_555 1_555
C9 C10 1_555 1_555
C12 C13 1_555 1_555
C19 C20 1_555 1_555

#END
