
#######################################################################
#
#                 Cambridge Crystallographic Data Centre
#                                CCDC 
#
#######################################################################
#
# If this CIF has been generated from an entry in the Cambridge 
# Structural Database, then it will include bibliographic, chemical, 
# crystal, experimental, refinement or atomic coordinate data resulting 
# from the CCDC's data processing and validation procedures.
#
#######################################################################

data_KIYGOQ
_chemical_name_common            
'(7S,9S,10S,10aS)-6-oxodecahydro-7,10-methanopyrido[1,2-a]azepin-9-yl 4-bromobenzoate'
_chemical_formula_moiety         'C18 H20 Br1 N1 O3'
_chemical_name_systematic        
'(1S,2S,9S,11S)-8-Oxo-7-azatricyclo[7.2.1.0^2,7^]dodec-11-yl 4-bromobenzoate'
_symmetry_cell_setting           monoclinic
_symmetry_space_group_name_H-M   'P 21/n'
_symmetry_Int_Tables_number      14
_space_group_name_Hall           '-P 2yn'
loop_
_symmetry_equiv_pos_site_id
_symmetry_equiv_pos_as_xyz
1 x,y,z
2 1/2-x,1/2+y,1/2-z
3 -x,-y,-z
4 1/2+x,1/2-y,1/2+z
_cell_length_a                   9.717(5)
_cell_length_b                   7.555(4)
_cell_length_c                   23.041(12)
_cell_angle_alpha                90
_cell_angle_beta                 99.168(8)
_cell_angle_gamma                90
_cell_volume                     1669.88
_exptl_crystal_colour            colorless
_exptl_crystal_description       Irregular
_chemical_melting_point          '403-405 K'
_cell_formula_units_Z            4
loop_
_atom_site_label
_atom_site_type_symbol
_atom_site_fract_x
_atom_site_fract_y
_atom_site_fract_z
Br1 Br 0.11429(2) 0.61723(3) 0.700717(9)
O1 O 0.08599(15) 0.14792(18) 0.24637(6)
O2 O 0.32293(14) 0.33267(18) 0.45030(6)
O3 O 0.51582(15) 0.2601(2) 0.51295(6)
N1 N 0.14635(17) 0.0213(2) 0.33590(7)
C1 C 0.1721(2) 0.1234(2) 0.29109(9)
C2 C 0.3121(2) 0.2132(3) 0.29893(9)
H1 H 0.322(2) 0.255(3) 0.2604(10)
C3 C 0.3138(2) 0.3605(3) 0.34521(9)
H2 H 0.359(2) 0.457(3) 0.3363(10)
H3 H 0.231(3) 0.397(3) 0.3484(11)
C4 C 0.3881(2) 0.2748(3) 0.40168(8)
H4 H 0.486(2) 0.311(3) 0.4082(9)
C5 C 0.3886(2) 0.0753(3) 0.38919(9)
H5 H 0.457(2) 0.014(3) 0.4149(10)
C6 C 0.2526(2) -0.0286(3) 0.38682(8)
H6 H 0.269(2) -0.157(3) 0.3796(9)
C7 C 0.1890(2) -0.0240(3) 0.44296(9)
H7 H 0.164(3) 0.095(3) 0.4517(11)
H8 H 0.256(3) -0.065(3) 0.4757(11)
C8 C 0.0603(2) -0.1418(3) 0.43749(11)
H9 H 0.019(3) -0.137(3) 0.4722(13)
H10 H 0.085(2) -0.274(3) 0.4318(10)
C9 C -0.0449(2) -0.0799(3) 0.38559(11)
H11 H -0.068(3) 0.035(3) 0.3948(11)
H12 H -0.125(3) -0.154(4) 0.3810(12)
C10 C 0.0177(2) -0.0837(3) 0.32998(10)
H13 H -0.045(3) -0.040(4) 0.2998(12)
H14 H 0.034(2) -0.202(3) 0.3203(11)
C11 C 0.4239(2) 0.0818(3) 0.32689(9)
H15 H 0.516(3) 0.129(3) 0.3253(11)
H16 H 0.414(2) -0.034(3) 0.3101(10)
C12 C 0.3998(2) 0.3197(3) 0.50393(9)
C13 C 0.3262(2) 0.3890(2) 0.55029(9)
C14 C 0.3850(2) 0.3618(3) 0.60885(9)
H17 H 0.467(3) 0.295(3) 0.6153(11)
C15 C 0.3235(2) 0.4293(3) 0.65384(9)
H18 H 0.359(3) 0.408(3) 0.6941(12)
C16 C 0.2012(2) 0.5245(2) 0.64006(9)
C17 C 0.1404(2) 0.5531(3) 0.58223(9)
H19 H 0.056(3) 0.618(3) 0.5725(12)
C18 C 0.2023(2) 0.4845(3) 0.53788(9)
H20 H 0.167(3) 0.502(3) 0.4994(12)
loop_
_geom_bond_atom_site_label_1
_geom_bond_atom_site_label_2
_geom_bond_site_symmetry_1
_geom_bond_site_symmetry_2
Br1 C16 1_555 1_555
O1 C1 1_555 1_555
O2 C4 1_555 1_555
O3 C12 1_555 1_555
N1 C1 1_555 1_555
C1 C2 1_555 1_555
C2 H1 1_555 1_555
C3 C2 1_555 1_555
H2 C3 1_555 1_555
H3 C3 1_555 1_555
C4 C3 1_555 1_555
H4 C4 1_555 1_555
C5 C4 1_555 1_555
H5 C5 1_555 1_555
C6 N1 1_555 1_555
H6 C6 1_555 1_555
C7 C6 1_555 1_555
H7 C7 1_555 1_555
H8 C7 1_555 1_555
C8 C7 1_555 1_555
H9 C8 1_555 1_555
H10 C8 1_555 1_555
C9 C8 1_555 1_555
H11 C9 1_555 1_555
H12 C9 1_555 1_555
C10 N1 1_555 1_555
H13 C10 1_555 1_555
H14 C10 1_555 1_555
C11 C2 1_555 1_555
H15 C11 1_555 1_555
H16 C11 1_555 1_555
C12 O2 1_555 1_555
C13 C12 1_555 1_555
C14 C13 1_555 1_555
H17 C14 1_555 1_555
C15 C14 1_555 1_555
H18 C15 1_555 1_555
C16 C15 1_555 1_555
C17 C16 1_555 1_555
H19 C17 1_555 1_555
C18 C13 1_555 1_555
H20 C18 1_555 1_555
C5 C6 1_555 1_555
C5 C11 1_555 1_555
C9 C10 1_555 1_555
C17 C18 1_555 1_555

#END
