
#######################################################################
#
#                 Cambridge Crystallographic Data Centre
#                                CCDC 
#
#######################################################################
#
# If this CIF has been generated from an entry in the Cambridge 
# Structural Database, then it will include bibliographic, chemical, 
# crystal, experimental, refinement or atomic coordinate data resulting 
# from the CCDC's data processing and validation procedures.
#
#######################################################################

data_KIYTAP
_chemical_formula_moiety         'C14 H21 N1 O2,H2 O1'
_chemical_name_systematic        
'9-Methyloctahydro-1H,5H-pyrrolo[2,1-k][1]benzazepine-5,10(6H)-dione monohydrate'
_symmetry_cell_setting           triclinic
_symmetry_space_group_name_H-M   'P -1'
_symmetry_Int_Tables_number      2
_space_group_name_Hall           '-P 1'
loop_
_symmetry_equiv_pos_site_id
_symmetry_equiv_pos_as_xyz
1 x,y,z
2 -x,-y,-z
_cell_length_a                   7.8670(3)
_cell_length_b                   9.1892(4)
_cell_length_c                   10.2943(4)
_cell_angle_alpha                110.9640(10)
_cell_angle_beta                 109.5910(10)
_cell_angle_gamma                90.0810(10)
_cell_volume                     648.438
_exptl_crystal_colour            colorless
_cell_formula_units_Z            2
loop_
_atom_site_label
_atom_site_type_symbol
_atom_site_fract_x
_atom_site_fract_y
_atom_site_fract_z
O1 O 0.18619(10) 0.40684(10) 0.15419(9)
O2 O 0.79631(11) -0.07135(10) 0.49750(9)
N1 N 0.46319(12) 0.34307(10) 0.24873(10)
C1 C 0.28068(14) 0.31870(13) 0.20696(11)
C2 C 0.18745(15) 0.18472(14) 0.22170(12)
H1 H 0.2203(18) 0.2015(16) 0.3261(16)
H2 H 0.0586(19) 0.1919(16) 0.1829(15)
C3 C 0.22535(15) 0.02180(14) 0.13751(13)
H3 H 0.1312(19) -0.0570(16) 0.1263(15)
H4 H 0.2118(18) 0.0103(16) 0.0341(15)
C4 C 0.41027(15) -0.01845(14) 0.21348(13)
H5 H 0.4213(17) -0.0090(15) 0.3158(15)
H6 H 0.4125(18) -0.1312(18) 0.1577(15)
C5 C 0.57752(14) 0.07797(13) 0.22435(11)
H7 H 0.5664(17) 0.0648(15) 0.1214(15)
C6 C 0.74997(14) 0.00728(13) 0.29045(12)
H8 H 0.8594(18) 0.0727(16) 0.2997(14)
C7 C 0.77362(14) 0.03414(14) 0.45075(12)
C8 C 0.77270(15) 0.20156(14) 0.54988(12)
H9 H 0.7665(19) 0.2038(17) 0.6430(16)
H10 H 0.894(2) 0.2585(17) 0.5762(15)
C9 C 0.62429(15) 0.28689(14) 0.47754(12)
H11 H 0.5060(18) 0.2518(16) 0.4787(14)
H12 H 0.6541(18) 0.4016(18) 0.5381(15)
C10 C 0.60665(14) 0.25614(13) 0.31612(11)
C11 C 0.77770(15) 0.33682(13) 0.31308(13)
H13 H 0.8897(19) 0.3328(16) 0.3902(15)
H14 H 0.7877(17) 0.2812(16) 0.2147(15)
C12 C 0.74146(15) 0.50350(14) 0.32956(13)
H15 H 0.8178(19) 0.5551(17) 0.2969(15)
H16 H 0.7585(19) 0.5695(17) 0.4336(16)
C13 C 0.54288(15) 0.47801(13) 0.23081(13)
H17 H 0.5275(17) 0.4498(15) 0.1264(15)
H18 H 0.4765(18) 0.5686(16) 0.2573(14)
C14 C 0.75034(16) -0.16348(14) 0.19648(13)
H19 H 0.667(2) -0.2379(17) 0.2046(16)
H20 H 0.872(2) -0.1951(18) 0.2263(16)
H21 H 0.711(2) -0.1825(18) 0.0876(17)
O3 O -0.19629(12) 0.38858(11) 0.00077(11)
H22 H -0.078(3) 0.392(2) 0.047(2)
H23 H -0.200(2) 0.454(2) -0.049(2)
loop_
_geom_bond_atom_site_label_1
_geom_bond_atom_site_label_2
_geom_bond_site_symmetry_1
_geom_bond_site_symmetry_2
O1 C1 1_555 1_555
O2 C7 1_555 1_555
N1 C1 1_555 1_555
C1 C2 1_555 1_555
C2 H1 1_555 1_555
H2 C2 1_555 1_555
C3 C2 1_555 1_555
H3 C3 1_555 1_555
H4 C3 1_555 1_555
C4 C3 1_555 1_555
H5 C4 1_555 1_555
H6 C4 1_555 1_555
C5 C4 1_555 1_555
H7 C5 1_555 1_555
C6 C5 1_555 1_555
H8 C6 1_555 1_555
C7 C6 1_555 1_555
C8 C7 1_555 1_555
H9 C8 1_555 1_555
H10 C8 1_555 1_555
C9 C8 1_555 1_555
H11 C9 1_555 1_555
H12 C9 1_555 1_555
C10 N1 1_555 1_555
C11 C10 1_555 1_555
H13 C11 1_555 1_555
H14 C11 1_555 1_555
C12 C11 1_555 1_555
H15 C12 1_555 1_555
H16 C12 1_555 1_555
C13 N1 1_555 1_555
H17 C13 1_555 1_555
H18 C13 1_555 1_555
C14 C6 1_555 1_555
H19 C14 1_555 1_555
H20 C14 1_555 1_555
H21 C14 1_555 1_555
O3 H22 1_555 1_555
H23 O3 1_555 1_555
C5 C10 1_555 1_555
C9 C10 1_555 1_555
C12 C13 1_555 1_555

#END
