
#######################################################################
#
#                 Cambridge Crystallographic Data Centre
#                                CCDC 
#
#######################################################################
#
# If this CIF has been generated from an entry in the Cambridge 
# Structural Database, then it will include bibliographic, chemical, 
# crystal, experimental, refinement or atomic coordinate data resulting 
# from the CCDC's data processing and validation procedures.
#
#######################################################################

data_KIYTOE
_chemical_formula_moiety         'C24 H16 O3 S1'
_chemical_name_systematic        4-[4-(phenylsulfonyl)phenyl]dibenzo[b,d]furan
_symmetry_cell_setting           monoclinic
_symmetry_space_group_name_H-M   'P 21/n'
_symmetry_Int_Tables_number      14
_space_group_name_Hall           '-P 2yn'
loop_
_symmetry_equiv_pos_site_id
_symmetry_equiv_pos_as_xyz
1 x,y,z
2 1/2-x,1/2+y,1/2-z
3 -x,-y,-z
4 1/2+x,1/2-y,1/2+z
_cell_length_a                   9.58264(13)
_cell_length_b                   13.41109(13)
_cell_length_c                   14.54265(16)
_cell_angle_alpha                90
_cell_angle_beta                 94.6344(14)
_cell_angle_gamma                90
_cell_volume                     1862.82
_cell_formula_units_Z            4
loop_
_atom_site_label
_atom_site_type_symbol
_atom_site_fract_x
_atom_site_fract_y
_atom_site_fract_z
S1 S 0.14224(7) 0.24680(4) 0.34939(4)
O1 O 0.14741(15) 0.29710(10) 0.80760(10)
O2 O 0.2802(2) 0.22331(14) 0.32302(12)
C1 C 0.2400(3) 0.24398(15) 0.53020(17)
C2 C 0.1054(2) 0.00031(16) 0.86511(18)
C3 C 0.1350(2) 0.19538(14) 0.81906(15)
C4 C 0.1078(2) 0.02784(15) 0.77322(16)
C5 C 0.1305(2) 0.16993(16) 0.91158(15)
C6 C 0.1499(2) 0.33688(15) 0.89534(15)
C7 C 0.1242(2) 0.12736(14) 0.74708(14)
O3 O 0.0231(2) 0.20409(14) 0.29788(12)
C8 C 0.1248(2) 0.37747(16) 0.34813(13)
C9 C 0.2371(3) 0.43447(17) 0.32670(15)
C10 C 0.2367(2) 0.21773(16) 0.62175(15)
C11 C 0.1350(2) 0.21293(14) 0.46634(14)
C12 C 0.1404(2) 0.26339(16) 0.96185(16)
C13 C 0.1598(2) 0.43761(16) 0.91467(18)
C14 C 0.1279(2) 0.15759(13) 0.64903(15)
C15 C 0.0259(2) 0.12538(16) 0.58383(17)
C16 C 0.1174(2) 0.06963(16) 0.93477(17)
C17 C 0.1603(3) 0.4637(2) 1.0066(2)
C18 C 0.1490(3) 0.3923(2) 1.07463(18)
C19 C -0.0001(3) 0.42175(19) 0.3649(2)
C20 C 0.2234(3) 0.53583(19) 0.32039(18)
C21 C 0.1011(3) 0.58019(19) 0.3363(2)
C22 C 0.1394(3) 0.2919(2) 1.05377(17)
C23 C 0.0269(2) 0.15386(16) 0.49233(16)
C24 C -0.0108(3) 0.5244(2) 0.3591(3)
H1 H -0.0759(3) 0.38339(19) 0.3798(2)
H2 H -0.0942(3) 0.5557(2) 0.3708(3)
H3 H 0.0929(3) 0.64914(19) 0.3317(2)
H4 H 0.2987(3) 0.57443(19) 0.30505(18)
H5 H 0.3219(3) 0.40426(17) 0.31656(15)
H6 H -0.0441(2) 0.13350(16) 0.44906(16)
H7 H -0.0449(2) 0.08382(16) 0.60146(17)
H8 H 0.3064(2) 0.23989(16) 0.66515(15)
H9 H 0.3131(3) 0.28269(15) 0.51160(17)
H10 H 0.0982(2) -0.02110(15) 0.72784(16)
H11 H 0.0956(2) -0.06667(16) 0.87982(18)
H12 H 0.1167(2) 0.05014(16) 0.99610(17)
H13 H 0.1657(2) 0.48507(16) 0.86852(18)
H14 H 0.1684(3) 0.5305(2) 1.0232(2)
H15 H 0.1479(3) 0.4125(2) 1.13574(18)
H16 H 0.1324(3) 0.2447(2) 1.09997(17)
loop_
_geom_bond_atom_site_label_1
_geom_bond_atom_site_label_2
_geom_bond_site_symmetry_1
_geom_bond_site_symmetry_2
S1 O2 1_555 1_555
O1 C3 1_555 1_555
C1 C10 1_555 1_555
C2 C4 1_555 1_555
C3 C5 1_555 1_555
C4 C7 1_555 1_555
C5 C12 1_555 1_555
C6 O1 1_555 1_555
C7 C3 1_555 1_555
O3 S1 1_555 1_555
C8 S1 1_555 1_555
C9 C8 1_555 1_555
C10 C14 1_555 1_555
C11 S1 1_555 1_555
C12 C6 1_555 1_555
C13 C6 1_555 1_555
C14 C7 1_555 1_555
C15 C14 1_555 1_555
C16 C2 1_555 1_555
C17 C13 1_555 1_555
C18 C17 1_555 1_555
C19 C8 1_555 1_555
C20 C9 1_555 1_555
C21 C20 1_555 1_555
C22 C12 1_555 1_555
C23 C11 1_555 1_555
C24 C19 1_555 1_555
H1 C19 1_555 1_555
H2 C24 1_555 1_555
H3 C21 1_555 1_555
H4 C20 1_555 1_555
H5 C9 1_555 1_555
H6 C23 1_555 1_555
H7 C15 1_555 1_555
H8 C10 1_555 1_555
H9 C1 1_555 1_555
H10 C4 1_555 1_555
H11 C2 1_555 1_555
H12 C16 1_555 1_555
H13 C13 1_555 1_555
H14 C17 1_555 1_555
H15 C18 1_555 1_555
H16 C22 1_555 1_555
C1 C11 1_555 1_555
C5 C16 1_555 1_555
C15 C23 1_555 1_555
C18 C22 1_555 1_555
C21 C24 1_555 1_555

#END
