
#######################################################################
#
#                 Cambridge Crystallographic Data Centre
#                                CCDC 
#
#######################################################################
#
# If this CIF has been generated from an entry in the Cambridge 
# Structural Database, then it will include bibliographic, chemical, 
# crystal, experimental, refinement or atomic coordinate data resulting 
# from the CCDC's data processing and validation procedures.
#
#######################################################################

data_KIYZIC
_chemical_formula_moiety         'C10 H6 Cl2 N6'
_chemical_name_systematic        
2-Azido-4-dichloromethyl-6-phenyl-1,3,5-triazine
_symmetry_cell_setting           triclinic
_symmetry_space_group_name_H-M   'P -1'
_symmetry_Int_Tables_number      2
_space_group_name_Hall           '-P 1'
loop_
_symmetry_equiv_pos_site_id
_symmetry_equiv_pos_as_xyz
1 x,y,z
2 -x,-y,-z
_cell_length_a                   6.700(2)
_cell_length_b                   8.665(3)
_cell_length_c                   11.646(4)
_cell_angle_alpha                85.87(3)
_cell_angle_beta                 77.16(3)
_cell_angle_gamma                67.47(3)
_cell_volume                     608.832
_exptl_crystal_colour            yellowish
_exptl_crystal_description       prism
_chemical_melting_point          '428-429 K'
_cell_formula_units_Z            2
loop_
_atom_site_label
_atom_site_type_symbol
_atom_site_fract_x
_atom_site_fract_y
_atom_site_fract_z
C1 C 0.2718(6) 0.5430(4) 0.3922(3)
C2 C 0.3198(6) 0.6008(4) 0.1993(3)
C3 C 0.4324(6) 0.3368(4) 0.2564(3)
C4 C 0.2927(7) 0.7231(5) 0.0991(3)
H1 H 0.366(6) 0.669(5) 0.027(4)
C5 C 0.1931(6) 0.5985(4) 0.5166(3)
C6 C 0.0946(7) 0.7675(5) 0.5465(4)
H2 H 0.089(6) 0.835(4) 0.489(3)
C7 C 0.0221(8) 0.8203(6) 0.6614(4)
H3 H -0.044(7) 0.932(5) 0.683(4)
C8 C 0.0447(7) 0.7048(6) 0.7501(4)
H4 H -0.005(6) 0.743(4) 0.826(3)
C9 C 0.1416(7) 0.5361(5) 0.7233(3)
H5 H 0.162(7) 0.461(5) 0.785(4)
C10 C 0.2157(7) 0.4831(5) 0.6068(3)
H6 H 0.283(6) 0.374(4) 0.590(3)
Cl1 Cl 0.0093(2) 0.82617(17) 0.09792(11)
Cl2 Cl 0.4122(2) 0.86920(15) 0.11002(11)
N1 N 0.3657(5) 0.3783(3) 0.3692(2)
N2 N 0.2447(5) 0.6607(3) 0.3084(2)
N3 N 0.4170(5) 0.4411(4) 0.1652(2)
N4 N 0.5336(6) 0.1688(4) 0.2206(3)
N5 N 0.5532(7) 0.0689(4) 0.3049(3)
N6 N 0.5807(9) -0.0345(5) 0.3695(4)
loop_
_geom_bond_atom_site_label_1
_geom_bond_atom_site_label_2
_geom_bond_site_symmetry_1
_geom_bond_site_symmetry_2
C1 C5 1_555 1_555
C2 C4 1_555 1_555
C3 N1 1_555 1_555
C4 H1 1_555 1_555
C5 C6 1_555 1_555
C6 H2 1_555 1_555
C7 C6 1_555 1_555
H3 C7 1_555 1_555
C8 C7 1_555 1_555
H4 C8 1_555 1_555
C9 C8 1_555 1_555
H5 C9 1_555 1_555
C10 C5 1_555 1_555
H6 C10 1_555 1_555
Cl1 C4 1_555 1_555
Cl2 C4 1_555 1_555
N1 C1 1_555 1_555
N2 C1 1_555 1_555
N3 C2 1_555 1_555
N4 C3 1_555 1_555
N5 N4 1_555 1_555
N6 N5 1_555 1_555
C2 N2 1_555 1_555
C3 N3 1_555 1_555
C9 C10 1_555 1_555

#END
