
#######################################################################
#
#                 Cambridge Crystallographic Data Centre
#                                CCDC 
#
#######################################################################
#
# If this CIF has been generated from an entry in the Cambridge 
# Structural Database, then it will include bibliographic, chemical, 
# crystal, experimental, refinement or atomic coordinate data resulting 
# from the CCDC's data processing and validation procedures.
#
#######################################################################

data_KIZGIJ
_chemical_formula_moiety         'C21 H18 N2 O4 S2'
_chemical_name_systematic        
8-Nitro-10-(p-tolylsulfonyl)-1-thia-10-aza(2.2)metacyclophane
_symmetry_cell_setting           triclinic
_symmetry_space_group_name_H-M   'P -1'
_symmetry_Int_Tables_number      2
_space_group_name_Hall           '-P 1'
loop_
_symmetry_equiv_pos_site_id
_symmetry_equiv_pos_as_xyz
1 x,y,z
2 -x,-y,-z
_cell_length_a                   7.857(4)
_cell_length_b                   12.140(2)
_cell_length_c                   20.679(5)
_cell_angle_alpha                89.29(2)
_cell_angle_beta                 80.18(3)
_cell_angle_gamma                86.30(3)
_cell_volume                     1939.49
_exptl_crystal_colour            'light yellow'
_chemical_melting_point          178deg.C
_cell_formula_units_Z            4
loop_
_atom_site_label
_atom_site_type_symbol
_atom_site_fract_x
_atom_site_fract_y
_atom_site_fract_z
S1 S 0.91202(9) 0.45650(6) 0.09422(4)
C1 C 0.91329(38) 0.60799(23) 0.08024(13)
C2 C 0.83068(31) 0.67053(19) 0.14058(12)
C3 C 0.92405(34) 0.67983(21) 0.19141(14)
C4 C 0.84360(36) 0.71302(21) 0.25359(14)
C5 C 0.66496(35) 0.72379(19) 0.26795(12)
C6 C 0.56277(29) 0.71107(17) 0.21949(11)
C7 C 0.65201(30) 0.69768(17) 0.15523(11)
C8 C 0.37402(30) 0.69019(18) 0.24125(12)
N1 N 0.35334(25) 0.56827(15) 0.25022(9)
C9 C 0.43076(29) 0.49422(17) 0.19854(11)
C10 C 0.32826(33) 0.44641(20) 0.15899(13)
C11 C 0.40713(40) 0.39495(22) 0.10149(14)
C12 C 0.58435(40) 0.39653(22) 0.08007(13)
C13 C 0.68756(31) 0.44093(18) 0.12082(11)
C14 C 0.61074(28) 0.48116(17) 0.18217(11)
S2 S 0.27291(8) 0.52247(5) 0.32305(3)
O1 O 0.25921(28) 0.40695(16) 0.31564(9)
O2 O 0.12245(22) 0.59234(19) 0.34755(10)
C15 C 0.42687(29) 0.54403(18) 0.37350(11)
C16 C 0.58792(31) 0.48551(19) 0.36236(12)
C17 C 0.71202(33) 0.50873(21) 0.39901(12)
C18 C 0.67819(33) 0.58852(21) 0.44810(12)
C19 C 0.51484(36) 0.64304(21) 0.45961(13)
C20 C 0.38901(33) 0.62167(20) 0.42315(12)
C21 C 0.81325(41) 0.61520(29) 0.48826(15)
N2 N 0.55583(30) 0.70715(17) 0.09937(10)
O3 O 0.62610(32) 0.75469(20) 0.05077(10)
O4 O 0.41162(27) 0.67127(17) 0.10411(10)
S3 S -0.35736(9) -0.04982(6) 0.40732(3)
C22 C -0.39189(36) 0.10045(22) 0.42457(14)
C23 C -0.32754(29) 0.16689(19) 0.36484(11)
C24 C -0.42849(32) 0.17875(21) 0.31549(14)
C25 C -0.36095(35) 0.21451(21) 0.25366(14)
C26 C -0.18471(33) 0.22695(19) 0.23726(11)
C27 C -0.07615(28) 0.21340(16) 0.28432(10)
C28 C -0.15569(28) 0.19571(17) 0.34863(10)
C29 C 0.11768(29) 0.19565(18) 0.26008(12)
N3 N 0.16728(24) 0.07547(14) 0.24933(8)
C30 C 0.10958(28) -0.00269(16) 0.29991(10)
C31 C 0.22560(33) -0.05007(19) 0.33769(12)
C32 C 0.16254(37) -0.10408(21) 0.39512(13)
C33 C -0.01431(38) -0.10574(20) 0.41758(12)
C34 C -0.13010(31) -0.06205(18) 0.37840(11)
C35 C -0.06621(28) -0.01831(16) 0.31691(10)
S4 S 0.25645(7) 0.03479(5) 0.17550(3)
O5 O 0.30416(28) -0.07988(16) 0.18071(9)
O6 O 0.38441(22) 0.11034(19) 0.15119(9)
C36 C 0.09232(29) 0.05098(18) 0.12736(11)
C37 C 0.09750(34) 0.13362(21) 0.08090(12)
C38 C -0.03650(36) 0.14848(22) 0.04523(12)
C39 C -0.17594(33) 0.08314(21) 0.05498(12)
C40 C -0.17875(37) -0.00027(23) 0.10201(13)
C41 C -0.04576(36) -0.01725(20) 0.13797(12)
C42 C -0.32061(39) 0.09992(30) 0.01587(15)
N4 N -0.05603(26) 0.20366(16) 0.40310(9)
O7 O 0.09604(24) 0.16932(16) 0.39628(9)
O8 O -0.13229(28) 0.24933(18) 0.45306(9)
loop_
_geom_bond_atom_site_label_1
_geom_bond_atom_site_label_2
_geom_bond_site_symmetry_1
_geom_bond_site_symmetry_2
S1 C1 1_555 1_555
C1 C2 1_555 1_555
C2 C3 1_555 1_555
C3 C4 1_555 1_555
C4 C5 1_555 1_555
C5 C6 1_555 1_555
C6 C7 1_555 1_555
C7 C2 1_555 1_555
C8 C6 1_555 1_555
N1 C8 1_555 1_555
C9 N1 1_555 1_555
C10 C9 1_555 1_555
C11 C10 1_555 1_555
C12 C11 1_555 1_555
C13 S1 1_555 1_555
C14 C9 1_555 1_555
S2 N1 1_555 1_555
O1 S2 1_555 1_555
O2 S2 1_555 1_555
C15 S2 1_555 1_555
C16 C15 1_555 1_555
C17 C16 1_555 1_555
C18 C17 1_555 1_555
C19 C18 1_555 1_555
C20 C15 1_555 1_555
C21 C18 1_555 1_555
N2 C7 1_555 1_555
O3 N2 1_555 1_555
O4 N2 1_555 1_555
S3 C22 1_555 1_555
C22 C23 1_555 1_555
C23 C24 1_555 1_555
C24 C25 1_555 1_555
C25 C26 1_555 1_555
C26 C27 1_555 1_555
C27 C28 1_555 1_555
C28 C23 1_555 1_555
C29 C27 1_555 1_555
N3 C29 1_555 1_555
C30 N3 1_555 1_555
C31 C30 1_555 1_555
C32 C31 1_555 1_555
C33 C32 1_555 1_555
C34 S3 1_555 1_555
C35 C30 1_555 1_555
S4 N3 1_555 1_555
O5 S4 1_555 1_555
O6 S4 1_555 1_555
C36 S4 1_555 1_555
C37 C36 1_555 1_555
C38 C37 1_555 1_555
C39 C38 1_555 1_555
C40 C39 1_555 1_555
C41 C36 1_555 1_555
C42 C39 1_555 1_555
N4 C28 1_555 1_555
O7 N4 1_555 1_555
O8 N4 1_555 1_555
C12 C13 1_555 1_555
C13 C14 1_555 1_555
C19 C20 1_555 1_555
C33 C34 1_555 1_555
C34 C35 1_555 1_555
C40 C41 1_555 1_555

#END
