
#######################################################################
#
#                 Cambridge Crystallographic Data Centre
#                                CCDC 
#
#######################################################################
#
# If this CIF has been generated from an entry in the Cambridge 
# Structural Database, then it will include bibliographic, chemical, 
# crystal, experimental, refinement or atomic coordinate data resulting 
# from the CCDC's data processing and validation procedures.
#
#######################################################################

data_KIZHEH
_chemical_formula_moiety         'C27 H31 N1 O5'
_chemical_name_systematic        
'(+-)-(S)-Methyl 2-((1S,2S,3R)-2-benzoyl-3-cyclohexylcyclopropyl)-2-(((benzyloxy)carbonyl)amino)ethanoate'
_symmetry_cell_setting           monoclinic
_symmetry_space_group_name_H-M   'P 21/c'
_symmetry_Int_Tables_number      14
_space_group_name_Hall           '-P 2ybc'
loop_
_symmetry_equiv_pos_site_id
_symmetry_equiv_pos_as_xyz
1 x,y,z
2 -x,1/2+y,1/2-z
3 -x,-y,-z
4 x,1/2-y,1/2+z
_cell_length_a                   13.2687(19)
_cell_length_b                   5.3827(8)
_cell_length_c                   31.512(5)
_cell_angle_alpha                90
_cell_angle_beta                 99.945(9)
_cell_angle_gamma                90
_cell_volume                     2216.81
_exptl_crystal_colour            colorless
_exptl_crystal_description       'triangular fragment'
_chemical_melting_point          '142-143 deg.C'
_cell_formula_units_Z            4
loop_
_atom_site_label
_atom_site_type_symbol
_atom_site_fract_x
_atom_site_fract_y
_atom_site_fract_z
O1 O 0.3819(4) 0.3301(10) 0.20485(15)
O2 O 0.4070(4) -0.0225(9) 0.17119(15)
O3 O 0.1376(4) -0.1069(10) 0.15200(17)
O4 O 0.0526(4) 0.2088(10) 0.17736(16)
O5 O 0.2502(4) 0.8726(9) 0.04873(16)
N1 N 0.1870(4) 0.2955(11) 0.14864(17)
H1 H 0.1670 0.4504 0.1505
C1 C 0.3083(5) 0.4739(13) 0.1107(2)
H2 H 0.2868 0.6357 0.1219
C2 C 0.2918(5) 0.4529(14) 0.0620(2)
H3 H 0.2763 0.2826 0.0500
C3 C 0.3969(5) 0.4894(13) 0.0877(2)
H4 H 0.4250 0.6608 0.0860
C4 C 0.2824(5) 0.2472(14) 0.1349(2)
H5 H 0.2750 0.0999 0.1152
C5 C 0.3630(5) 0.1933(13) 0.1744(2)
C6 C 0.4845(6) -0.0942(15) 0.2071(2)
H6 H 0.5398 0.0289 0.2109
H7 H 0.5121 -0.2573 0.2013
H8 H 0.4543 -0.1030 0.2333
C7 C 0.1275(6) 0.1121(15) 0.1587(2)
C8 C -0.0231(5) 0.0423(14) 0.1876(3)
H9 H 0.0070 -0.0706 0.2112
H10 H -0.0517 -0.0590 0.1621
C9 C -0.1041(6) 0.1981(14) 0.2011(2)
C10 C -0.1370(6) 0.4140(14) 0.1794(2)
H11 H -0.1069 0.4636 0.1555
C11 C -0.2113(6) 0.5567(16) 0.1915(2)
H12 H -0.2315 0.7069 0.1766
C12 C -0.2570(6) 0.4834(16) 0.2252(2)
H13 H -0.3098 0.5818 0.2336
C13 C -0.2267(6) 0.2679(16) 0.2470(2)
H14 H -0.2582 0.2161 0.2704
C14 C -0.1508(6) 0.1287(15) 0.2346(2)
H15 H -0.1300 -0.0204 0.2498
C15 C 0.2387(5) 0.6567(13) 0.0370(2)
C16 C 0.1662(3) 0.5972(8) -0.00268(12)
C17 C 0.1742(3) 0.3797(7) -0.02564(14)
H16 H 0.2291 0.2679 -0.0165
C18 C 0.1020(3) 0.3259(7) -0.06195(14)
H17 H 0.1076 0.1773 -0.0776
C19 C 0.0218(3) 0.4895(9) -0.07530(12)
H18 H -0.0276 0.4527 -0.1001
C20 C 0.0137(3) 0.7070(8) -0.05234(14)
H19 H -0.0412 0.8188 -0.0615
C21 C 0.0859(3) 0.7608(7) -0.01603(13)
H20 H 0.0804 0.9095 -0.0003
C22 C 0.4739(5) 0.2891(14) 0.0891(2)
H21 H 0.4399 0.1259 0.0921
C23 C 0.5617(5) 0.3208(13) 0.1270(2)
H22 H 0.5342 0.3281 0.1542
H23 H 0.5978 0.4789 0.1238
C24 C 0.6367(5) 0.1047(15) 0.1287(2)
H24 H 0.6918 0.1243 0.1540
H25 H 0.6006 -0.0532 0.1320
C25 C 0.6830(6) 0.0951(17) 0.0879(3)
H26 H 0.7285 -0.0514 0.0888
H27 H 0.7247 0.2460 0.0860
C26 C 0.5988(6) 0.0790(17) 0.0486(2)
H28 H 0.6295 0.0905 0.0222
H29 H 0.5643 -0.0841 0.0484
C27 C 0.5205(6) 0.2843(15) 0.0483(2)
H30 H 0.4653 0.2614 0.0231
H31 H 0.5537 0.4462 0.0450
loop_
_geom_bond_atom_site_label_1
_geom_bond_atom_site_label_2
_geom_bond_site_symmetry_1
_geom_bond_site_symmetry_2
O1 C5 1_555 1_555
O2 C5 1_555 1_555
O3 C7 1_555 1_555
O4 C7 1_555 1_555
O5 C15 1_555 1_555
N1 H1 1_555 1_555
C1 H2 1_555 1_555
C2 C1 1_555 1_555
H3 C2 1_555 1_555
C3 C1 1_555 1_555
H4 C3 1_555 1_555
C4 N1 1_555 1_555
H5 C4 1_555 1_555
C5 C4 1_555 1_555
C6 O2 1_555 1_555
H6 C6 1_555 1_555
H7 C6 1_555 1_555
H8 C6 1_555 1_555
C7 N1 1_555 1_555
C8 O4 1_555 1_555
H9 C8 1_555 1_555
H10 C8 1_555 1_555
C9 C8 1_555 1_555
C10 C9 1_555 1_555
H11 C10 1_555 1_555
C11 C10 1_555 1_555
H12 C11 1_555 1_555
C12 C11 1_555 1_555
H13 C12 1_555 1_555
C13 C12 1_555 1_555
H14 C13 1_555 1_555
C14 C9 1_555 1_555
H15 C14 1_555 1_555
C15 C2 1_555 1_555
C16 C15 1_555 1_555
C17 C16 1_555 1_555
H16 C17 1_555 1_555
C18 C17 1_555 1_555
H17 C18 1_555 1_555
C19 C18 1_555 1_555
H18 C19 1_555 1_555
C20 C19 1_555 1_555
H19 C20 1_555 1_555
C21 C16 1_555 1_555
H20 C21 1_555 1_555
C22 C3 1_555 1_555
H21 C22 1_555 1_555
C23 C22 1_555 1_555
H22 C23 1_555 1_555
H23 C23 1_555 1_555
C24 C23 1_555 1_555
H24 C24 1_555 1_555
H25 C24 1_555 1_555
C25 C24 1_555 1_555
H26 C25 1_555 1_555
H27 C25 1_555 1_555
C26 C25 1_555 1_555
H28 C26 1_555 1_555
H29 C26 1_555 1_555
C27 C22 1_555 1_555
H30 C27 1_555 1_555
H31 C27 1_555 1_555
C1 C4 1_555 1_555
C2 C3 1_555 1_555
C13 C14 1_555 1_555
C20 C21 1_555 1_555
C26 C27 1_555 1_555

#END
