
#######################################################################
#
#                 Cambridge Crystallographic Data Centre
#                                CCDC 
#
#######################################################################
#
# If this CIF has been generated from an entry in the Cambridge 
# Structural Database, then it will include bibliographic, chemical, 
# crystal, experimental, refinement or atomic coordinate data resulting 
# from the CCDC's data processing and validation procedures.
#
#######################################################################

data_KIZHOR
_chemical_formula_moiety         'C21 H21 N1 O5'
_chemical_name_systematic        
'(+-)-(R)-Methyl 2-(((1S,2S)-2-benzoyl)cyclopropyl)-2-(((benzoyl)carbonyl)amino)ethanoate'
_symmetry_cell_setting           triclinic
_symmetry_space_group_name_H-M   'P -1'
_symmetry_Int_Tables_number      2
_space_group_name_Hall           '-P 1'
loop_
_symmetry_equiv_pos_site_id
_symmetry_equiv_pos_as_xyz
1 x,y,z
2 -x,-y,-z
_cell_length_a                   10.362(3)
_cell_length_b                   12.880(4)
_cell_length_c                   14.775(4)
_cell_angle_alpha                76.806(14)
_cell_angle_beta                 75.382(14)
_cell_angle_gamma                83.256(15)
_cell_volume                     1853.96
_exptl_crystal_colour            colorless
_exptl_crystal_description       block
_chemical_melting_point          '89-91 deg.C'
_cell_formula_units_Z            4
loop_
_atom_site_label
_atom_site_type_symbol
_atom_site_fract_x
_atom_site_fract_y
_atom_site_fract_z
O1 O 0.73805(17) -0.21960(14) 0.17641(13)
O2 O 0.58622(17) -0.08658(13) 0.20926(12)
O3 O 0.55702(14) -0.22907(13) 0.00251(13)
O4 O 0.75799(13) -0.30401(11) -0.06375(11)
O5 O 0.95625(13) 0.15265(11) 0.04322(12)
N1 N 0.75135(16) -0.15180(14) -0.01628(14)
H1 H 0.8342 -0.1464 -0.0503
C1 C 0.78494(19) 0.01241(16) 0.02095(15)
H2 H 0.8804 -0.0099 0.0220
C2 C 0.73640(19) 0.11879(16) 0.04816(15)
H3 H 0.6409 0.1282 0.0827
C3 C 0.7653(2) 0.10687(18) -0.05496(17)
H4 H 0.6883 0.1094 -0.0838
H5 H 0.8461 0.1387 -0.0995
C4 C 0.69410(19) -0.07872(16) 0.04625(15)
H6 H 0.6043 -0.0499 0.0351
C5 C 0.6779(2) -0.13723(16) 0.15038(17)
C6 C 0.5620(3) -0.1384(2) 0.31042(19)
H7 H 0.5430 -0.2131 0.3181
H8 H 0.4854 -0.1012 0.3467
H9 H 0.6413 -0.1357 0.3343
C7 C 0.67751(19) -0.22871(16) -0.02258(15)
C8 C 0.6895(2) -0.38640(18) -0.08164(19)
H10 H 0.6374 -0.3552 -0.1301
H11 H 0.6272 -0.4196 -0.0221
C9 C 0.7926(2) -0.46835(16) -0.11688(15)
C10 C 0.8761(2) -0.52592(17) -0.05994(15)
H12 H 0.8675 -0.5135 0.0023
C11 C 0.9716(2) -0.60132(17) -0.09377(16)
H13 H 1.0293 -0.6393 -0.0549
C12 C 0.9838(2) -0.62187(17) -0.18346(17)
H14 H 1.0489 -0.6742 -0.2060
C13 C 0.9008(2) -0.56572(19) -0.23994(17)
H15 H 0.9085 -0.5795 -0.3016
C14 C 0.8063(2) -0.48925(17) -0.20692(16)
H16 H 0.7500 -0.4506 -0.2466
C15 C 0.83685(19) 0.17561(15) 0.07107(15)
C16 C 0.79085(19) 0.26071(15) 0.12771(15)
C17 C 0.6611(2) 0.30654(18) 0.14095(18)
H17 H 0.5978 0.2833 0.1145
C18 C 0.6246(2) 0.3867(2) 0.1932(2)
H18 H 0.5359 0.4181 0.2025
C19 C 0.7159(3) 0.4210(2) 0.23186(19)
H19 H 0.6898 0.4755 0.2679
C20 C 0.8458(2) 0.37577(17) 0.21809(16)
H20 H 0.9089 0.3996 0.2444
C21 C 0.8835(2) 0.29612(16) 0.16609(15)
H21 H 0.9726 0.2654 0.1565
O6 O 0.56987(13) 0.27146(12) 0.48546(11)
O7 O 0.77456(13) 0.19511(11) 0.42854(10)
O8 O 0.95034(14) 0.65223(12) 0.54873(12)
C22 C 0.7389(2) 0.62582(17) 0.53171(17)
H22 H 0.6406 0.6388 0.5563
C23 C 0.7893(3) 0.61480(18) 0.42796(18)
H23 H 0.7224 0.6216 0.3892
H24 H 0.8766 0.6433 0.3924
C24 C 0.69066(19) 0.27262(16) 0.46435(14)
C25 C 0.7083(2) 0.11148(19) 0.41080(19)
H25 H 0.6577 0.1413 0.3611
H26 H 0.6450 0.0788 0.4700
C26 C 0.8133(2) 0.02914(16) 0.37789(15)
C27 C 0.8903(2) -0.03129(18) 0.43793(17)
H27 H 0.8765 -0.0207 0.5013
C28 C 0.9867(2) -0.10671(19) 0.40632(18)
H28 H 1.0398 -0.1467 0.4477
C29 C 1.0065(2) -0.12448(18) 0.31485(19)
H29 H 1.0728 -0.1766 0.2933
C30 C 0.9292(2) -0.0660(2) 0.25515(18)
H30 H 0.9413 -0.0783 0.1925
C31 C 0.8342(2) 0.01060(18) 0.28649(16)
H31 H 0.7822 0.0513 0.2446
C32 C 0.83024(19) 0.67640(15) 0.56896(15)
C33 C 0.77648(19) 0.75688(15) 0.62953(15)
C34 C 0.6429(2) 0.79411(17) 0.64726(17)
H32 H 0.5817 0.7681 0.6208
C35 C 0.5996(2) 0.8699(2) 0.70413(19)
H33 H 0.5084 0.8955 0.7163
C36 C 0.6879(2) 0.90812(19) 0.74297(18)
H34 H 0.6571 0.9595 0.7819
C37 C 0.8211(2) 0.87161(17) 0.72511(16)
H35 H 0.8821 0.8983 0.7513
C38 C 0.8652(2) 0.79624(16) 0.66905(15)
H36 H 0.9565 0.7709 0.6572
N2 N 0.76049(16) 0.35089(13) 0.47191(12)
H37 H 0.8480 0.3495 0.4515
C39 C 0.78915(19) 0.51894(16) 0.50582(15)
H38 H 0.8788 0.4910 0.5178
C40 C 0.6916(16) 0.4318(13) 0.5119(11)
H39 H 0.6256 0.4657 0.4732
C41 C 0.6179(5) 0.4097(4) 0.6150(3)
C42 C 0.6168(6) 0.2985(5) 0.7660(3)
H40 H 0.6604 0.3318 0.8028
H41 H 0.6261 0.2206 0.7862
H42 H 0.5217 0.3222 0.7772
O9 O 0.5153(3) 0.4553(3) 0.6483(2)
O10 O 0.6786(10) 0.3293(5) 0.6655(5)
N3? N 0.76049(16) 0.35089(13) 0.47191(12)
H43? H 0.8450 0.3550 0.4412
C43? C 0.78915(19) 0.51894(16) 0.50582(15)
H44? H 0.8799 0.4939 0.5171
C44? C 0.6955(17) 0.4328(15) 0.5329(11)
H45? H 0.6077 0.4620 0.5180
C45? C 0.6723(12) 0.3639(8) 0.6393(7)
C46? C 0.5501(6) 0.3570(4) 0.7983(4)
H46? H 0.5438 0.2804 0.8035
H47? H 0.4658 0.3868 0.8332
H48? H 0.6232 0.3674 0.8257
O11? O 0.7337(4) 0.2826(4) 0.6652(3)
O12? O 0.5761(3) 0.4116(3) 0.6967(2)
loop_
_geom_bond_atom_site_label_1
_geom_bond_atom_site_label_2
_geom_bond_site_symmetry_1
_geom_bond_site_symmetry_2
O1 C5 1_555 1_555
O2 C5 1_555 1_555
O3 C7 1_555 1_555
O4 C7 1_555 1_555
O5 C15 1_555 1_555
N1 H1 1_555 1_555
C1 H2 1_555 1_555
C2 C1 1_555 1_555
H3 C2 1_555 1_555
C3 C1 1_555 1_555
H4 C3 1_555 1_555
H5 C3 1_555 1_555
C4 N1 1_555 1_555
H6 C4 1_555 1_555
C5 C4 1_555 1_555
C6 O2 1_555 1_555
H7 C6 1_555 1_555
H8 C6 1_555 1_555
H9 C6 1_555 1_555
C7 N1 1_555 1_555
C8 O4 1_555 1_555
H10 C8 1_555 1_555
H11 C8 1_555 1_555
C9 C8 1_555 1_555
C10 C9 1_555 1_555
H12 C10 1_555 1_555
C11 C10 1_555 1_555
H13 C11 1_555 1_555
C12 C11 1_555 1_555
H14 C12 1_555 1_555
C13 C12 1_555 1_555
H15 C13 1_555 1_555
C14 C9 1_555 1_555
H16 C14 1_555 1_555
C15 C2 1_555 1_555
C16 C15 1_555 1_555
C17 C16 1_555 1_555
H17 C17 1_555 1_555
C18 C17 1_555 1_555
H18 C18 1_555 1_555
C19 C18 1_555 1_555
H19 C19 1_555 1_555
C20 C19 1_555 1_555
H20 C20 1_555 1_555
C21 C16 1_555 1_555
H21 C21 1_555 1_555
O6 C24 1_555 1_555
O7 C24 1_555 1_555
O8 C32 1_555 1_555
C22 H22 1_555 1_555
C23 C22 1_555 1_555
H23 C23 1_555 1_555
H24 C23 1_555 1_555
C24 N2 1_555 1_555
C25 O7 1_555 1_555
H25 C25 1_555 1_555
H26 C25 1_555 1_555
C26 C25 1_555 1_555
C27 C26 1_555 1_555
H27 C27 1_555 1_555
C28 C27 1_555 1_555
H28 C28 1_555 1_555
C29 C28 1_555 1_555
H29 C29 1_555 1_555
C30 C29 1_555 1_555
H30 C30 1_555 1_555
C31 C26 1_555 1_555
H31 C31 1_555 1_555
C32 C22 1_555 1_555
C33 C32 1_555 1_555
C34 C33 1_555 1_555
H32 C34 1_555 1_555
C35 C34 1_555 1_555
H33 C35 1_555 1_555
C36 C35 1_555 1_555
H34 C36 1_555 1_555
C37 C36 1_555 1_555
H35 C37 1_555 1_555
C38 C33 1_555 1_555
H36 C38 1_555 1_555
N2 H37 1_555 1_555
C39 C22 1_555 1_555
H38 C39 1_555 1_555
C40 N2 1_555 1_555
H39 C40 1_555 1_555
C41 C40 1_555 1_555
C42 H40 1_555 1_555
H41 C42 1_555 1_555
H42 C42 1_555 1_555
O9 C41 1_555 1_555
O10 C41 1_555 1_555
C1 C4 1_555 1_555
C2 C3 1_555 1_555
C13 C14 1_555 1_555
C20 C21 1_555 1_555
C23 C39 1_555 1_555
C30 C31 1_555 1_555
C37 C38 1_555 1_555
C39 C40 1_555 1_555
C42 O10 1_555 1_555

#END
