
#######################################################################
#
#                 Cambridge Crystallographic Data Centre
#                                CCDC 
#
#######################################################################
#
# If this CIF has been generated from an entry in the Cambridge 
# Structural Database, then it will include bibliographic, chemical, 
# crystal, experimental, refinement or atomic coordinate data resulting 
# from the CCDC's data processing and validation procedures.
#
#######################################################################

data_KIZHIL
_chemical_formula_moiety         'C22 H23 N1 O5'
_chemical_name_systematic        
'(+-)-(R)-Methyl 2-((1S,2S,3R)-2-benzoyl-3-methylcyclopropyl)-2-(((benzyloxy)carbonyl)amino)ethanoate'
_symmetry_cell_setting           monoclinic
_symmetry_space_group_name_H-M   'P 21/c'
_symmetry_Int_Tables_number      14
_space_group_name_Hall           '-P 2ybc'
loop_
_symmetry_equiv_pos_site_id
_symmetry_equiv_pos_as_xyz
1 x,y,z
2 -x,1/2+y,1/2-z
3 -x,-y,-z
4 x,1/2-y,1/2+z
_cell_length_a                   11.8275(9)
_cell_length_b                   17.1277(14)
_cell_length_c                   9.6366(8)
_cell_angle_alpha                90
_cell_angle_beta                 97.521(2)
_cell_angle_gamma                90
_cell_volume                     1935.37
_exptl_crystal_colour            colorless
_exptl_crystal_description       prism
_chemical_melting_point          '137-139 deg.C'
_cell_formula_units_Z            4
loop_
_atom_site_label
_atom_site_type_symbol
_atom_site_fract_x
_atom_site_fract_y
_atom_site_fract_z
O1 O 0.23836(13) 0.92708(10) 0.4529(2)
O2 O 0.05330(11) 0.91708(8) 0.37159(15)
O3 O 0.28249(11) 0.70924(8) 0.33454(12)
O4 O 0.38725(10) 0.68475(7) 0.54357(13)
O5 O -0.13836(11) 0.82668(8) 0.71034(12)
N1 N 0.24849(12) 0.77121(9) 0.53298(15)
H1 H 0.2773 0.7841 0.6176
C1 C 0.05200(14) 0.79210(10) 0.56974(17)
H2 H 0.0615 0.8254 0.6545
C2 C -0.07078(14) 0.77350(10) 0.51196(17)
H3 H -0.0887 0.7675 0.4093
C3 C 0.00710(14) 0.71180(10) 0.59039(18)
H4 H -0.0093 0.7011 0.6867
C4 C 0.14061(13) 0.80399(10) 0.47200(17)
H5 H 0.1152 0.7749 0.3847
C5 C 0.15281(15) 0.88948(10) 0.43336(18)
C6 C 0.0534(2) 0.99786(12) 0.3268(3)
H6 H 0.0753 1.0311 0.4072
H7 H -0.0223 1.0122 0.2831
H8 H 0.1074 1.0043 0.2600
C7 C 0.30414(14) 0.72113(10) 0.45966(17)
C8 C 0.44582(15) 0.62314(11) 0.4786(2)
H9 H 0.5142 0.6079 0.5414
H10 H 0.4703 0.6429 0.3918
C9 C 0.37162(15) 0.55277(10) 0.44595(19)
C10 C 0.33205(17) 0.51037(12) 0.5526(2)
H11 H 0.3512 0.5261 0.6462
C11 C 0.26456(18) 0.44498(13) 0.5219(2)
H12 H 0.2369 0.4171 0.5944
C12 C 0.23785(18) 0.42076(13) 0.3855(3)
H13 H 0.1935 0.3757 0.3651
C13 C 0.27615(19) 0.46261(13) 0.2788(2)
H14 H 0.2573 0.4463 0.1855
C14 C 0.34216(17) 0.52848(12) 0.3090(2)
H15 H 0.3674 0.5571 0.2357
C15 C -0.16065(14) 0.80791(10) 0.58750(17)
C16 C -0.27770(14) 0.81915(10) 0.51187(18)
C17 C -0.31664(15) 0.77854(10) 0.38982(19)
H16 H -0.2682 0.7431 0.3521
C18 C -0.42680(16) 0.79033(12) 0.3237(2)
H17 H -0.4533 0.7623 0.2420
C19 C -0.49757(16) 0.84316(12) 0.3779(2)
H18 H -0.5718 0.8516 0.3323
C20 C -0.45962(17) 0.88350(13) 0.4988(2)
H19 H -0.5082 0.9192 0.5357
C21 C -0.35049(17) 0.87163(12) 0.5659(2)
H20 H -0.3252 0.8991 0.6486
C22 C 0.04507(17) 0.64134(11) 0.5151(2)
H21 H 0.0060 0.5953 0.5432
H22 H 0.1267 0.6345 0.5388
H23 H 0.0270 0.6488 0.4149
loop_
_geom_bond_atom_site_label_1
_geom_bond_atom_site_label_2
_geom_bond_site_symmetry_1
_geom_bond_site_symmetry_2
O1 C5 1_555 1_555
O2 C5 1_555 1_555
O3 C7 1_555 1_555
O4 C7 1_555 1_555
O5 C15 1_555 1_555
N1 H1 1_555 1_555
C1 H2 1_555 1_555
C2 C1 1_555 1_555
H3 C2 1_555 1_555
C3 C1 1_555 1_555
H4 C3 1_555 1_555
C4 N1 1_555 1_555
H5 C4 1_555 1_555
C5 C4 1_555 1_555
C6 O2 1_555 1_555
H6 C6 1_555 1_555
H7 C6 1_555 1_555
H8 C6 1_555 1_555
C7 N1 1_555 1_555
C8 O4 1_555 1_555
H9 C8 1_555 1_555
H10 C8 1_555 1_555
C9 C8 1_555 1_555
C10 C9 1_555 1_555
H11 C10 1_555 1_555
C11 C10 1_555 1_555
H12 C11 1_555 1_555
C12 C11 1_555 1_555
H13 C12 1_555 1_555
C13 C12 1_555 1_555
H14 C13 1_555 1_555
C14 C9 1_555 1_555
H15 C14 1_555 1_555
C15 C2 1_555 1_555
C16 C15 1_555 1_555
C17 C16 1_555 1_555
H16 C17 1_555 1_555
C18 C17 1_555 1_555
H17 C18 1_555 1_555
C19 C18 1_555 1_555
H18 C19 1_555 1_555
C20 C19 1_555 1_555
H19 C20 1_555 1_555
C21 C16 1_555 1_555
H20 C21 1_555 1_555
C22 C3 1_555 1_555
H21 C22 1_555 1_555
H22 C22 1_555 1_555
H23 C22 1_555 1_555
C1 C4 1_555 1_555
C2 C3 1_555 1_555
C13 C14 1_555 1_555
C20 C21 1_555 1_555

#END
