
#######################################################################
#
#                 Cambridge Crystallographic Data Centre
#                                CCDC 
#
#######################################################################
#
# If this CIF has been generated from an entry in the Cambridge 
# Structural Database, then it will include bibliographic, chemical, 
# crystal, experimental, refinement or atomic coordinate data resulting 
# from the CCDC's data processing and validation procedures.
#
#######################################################################

data_KIZJAF
_chemical_formula_moiety         'C26 H41 N1 O7 Si1'
_chemical_name_systematic        
'(+-)-(S)-Methyl 2-(t-butoxycarbonylamino)-2-((1S,2R,3R)-2-((t-butyl(dimethyl)silyloxy)methyl)-3-(2-methoxybenzoyl)cyclopropyl)ethanoate'
_symmetry_cell_setting           triclinic
_symmetry_space_group_name_H-M   'P -1'
_symmetry_Int_Tables_number      2
_space_group_name_Hall           '-P 1'
loop_
_symmetry_equiv_pos_site_id
_symmetry_equiv_pos_as_xyz
1 x,y,z
2 -x,-y,-z
_cell_length_a                   9.733(1)
_cell_length_b                   11.5486(6)
_cell_length_c                   14.5657(11)
_cell_angle_alpha                69.626(12)
_cell_angle_beta                 79.534(15)
_cell_angle_gamma                66.374(12)
_cell_volume                     1404.46
_exptl_crystal_colour            colorless
_exptl_crystal_description       'triangular block'
_cell_formula_units_Z            2
loop_
_atom_site_label
_atom_site_type_symbol
_atom_site_fract_x
_atom_site_fract_y
_atom_site_fract_z
Si1 Si 0.77993(5) 0.88388(5) 0.58316(3)
O1 O 0.74347(13) 0.45614(10) 0.93967(9)
O2 O 0.83403(12) 0.61969(10) 0.88684(8)
O3 O 0.66622(13) 0.67266(12) 1.11062(9)
O4 O 0.48189(13) 0.59494(11) 1.19419(8)
O5 O 0.19042(13) 0.72691(11) 0.81241(9)
O6 O 0.11435(13) 1.09253(11) 0.81034(9)
O7 O 0.65774(15) 0.82802(13) 0.65919(9)
N1 N 0.51035(14) 0.63728(12) 1.03409(9)
H1 H 0.4343 0.6114 1.0414
C1 C 0.46903(16) 0.70407(14) 0.86305(11)
H2 H 0.4496 0.6239 0.8666
C2 C 0.33125(17) 0.83123(14) 0.84500(11)
H3 H 0.3259 0.8989 0.8750
C3 C 0.45158(17) 0.80484(14) 0.76450(11)
H4 H 0.4213 0.7796 0.7144
C4 C 0.57692(16) 0.67915(14) 0.93687(11)
H5 H 0.5935 0.7627 0.9275
C5 C 0.72598(16) 0.57092(14) 0.92237(11)
C6 C 0.98038(18) 0.52560(16) 0.86824(14)
H6 H 1.0131 0.4521 0.9286
H7 H 1.0529 0.5701 0.8464
H8 H 0.9739 0.4911 0.8172
C7 C 0.56323(17) 0.63735(15) 1.11365(11)
C8 C 0.5101(2) 0.58984(18) 1.29193(12)
C9 C 0.4718(3) 0.7290(2) 1.29455(17)
H9 H 0.3675 0.7827 1.2770
H10 H 0.5388 0.7686 1.2477
H11 H 0.4843 0.7260 1.3607
C10 C 0.4005(3) 0.5281(3) 1.35666(15)
H12 H 0.2977 0.5869 1.3383
H13 H 0.4111 0.5156 1.4254
H14 H 0.4221 0.4419 1.3480
C11 C 0.6697(2) 0.5016(2) 1.31839(13)
H15 H 0.6895 0.4126 1.3158
H16 H 0.6843 0.4961 1.3848
H17 H 0.7388 0.5388 1.2718
C12 C 0.18828(17) 0.81699(15) 0.83904(11)
C13 C 0.04217(17) 0.90678(15) 0.87050(11)
C14 C 0.00663(18) 1.04180(15) 0.85689(11)
C15 C -0.1349(2) 1.11750(16) 0.88732(13)
H18 H -0.1599 1.2092 0.8775
C16 C -0.23897(19) 1.05876(18) 0.93185(13)
H19 H -0.3351 1.1110 0.9526
C17 C -0.20614(19) 0.92580(18) 0.94682(13)
H20 H -0.2779 0.8861 0.9782
C18 C -0.06634(18) 0.85189(16) 0.91504(12)
H21 H -0.0435 0.7608 0.9239
C19 C 0.0853(2) 1.22698(17) 0.80278(15)
H22 H 0.0029 1.2866 0.7591
H23 H 0.1758 1.2475 0.7762
H24 H 0.0574 1.2390 0.8679
C20 C 0.54534(19) 0.88927(16) 0.72199(12)
H25 H 0.4827 0.9802 0.6847
H26 H 0.5915 0.8947 0.7748
C21 C 0.9119(3) 0.8972(2) 0.65260(16)
H27 H 0.9632 0.8100 0.6986
H28 H 0.8561 0.9606 0.6891
H29 H 0.9862 0.9280 0.6069
C22 C 0.6833(2) 1.04971(18) 0.49620(14)
H30 H 0.6133 1.0433 0.4593
H31 H 0.7579 1.0804 0.4506
H32 H 0.6278 1.1129 0.5329
C23 C 0.8742(2) 0.75283(19) 0.51994(13)
C24 C 0.7607(2) 0.7487(2) 0.46154(15)
H33 H 0.6771 0.7323 0.5057
H34 H 0.8102 0.6773 0.4314
H35 H 0.7224 0.8338 0.4102
C25 C 0.9350(3) 0.6177(2) 0.59826(16)
H36 H 0.8523 0.6009 0.6432
H37 H 1.0097 0.6180 0.6351
H38 H 0.9820 0.5478 0.5665
C26 C 1.0041(2) 0.7785(3) 0.44999(18)
H39 H 0.9657 0.8648 0.3998
H40 H 1.0510 0.7085 0.4184
H41 H 1.0786 0.7787 0.4870
loop_
_geom_bond_atom_site_label_1
_geom_bond_atom_site_label_2
_geom_bond_site_symmetry_1
_geom_bond_site_symmetry_2
Si1 O7 1_555 1_555
O1 C5 1_555 1_555
O2 C5 1_555 1_555
O3 C7 1_555 1_555
O4 C7 1_555 1_555
O5 C12 1_555 1_555
O6 C14 1_555 1_555
O7 C20 1_555 1_555
N1 H1 1_555 1_555
C1 H2 1_555 1_555
C2 C1 1_555 1_555
H3 C2 1_555 1_555
C3 C1 1_555 1_555
H4 C3 1_555 1_555
C4 N1 1_555 1_555
H5 C4 1_555 1_555
C5 C4 1_555 1_555
C6 O2 1_555 1_555
H6 C6 1_555 1_555
H7 C6 1_555 1_555
H8 C6 1_555 1_555
C7 N1 1_555 1_555
C8 O4 1_555 1_555
C9 C8 1_555 1_555
H9 C9 1_555 1_555
H10 C9 1_555 1_555
H11 C9 1_555 1_555
C10 C8 1_555 1_555
H12 C10 1_555 1_555
H13 C10 1_555 1_555
H14 C10 1_555 1_555
C11 C8 1_555 1_555
H15 C11 1_555 1_555
H16 C11 1_555 1_555
H17 C11 1_555 1_555
C12 C2 1_555 1_555
C13 C12 1_555 1_555
C14 C13 1_555 1_555
C15 C14 1_555 1_555
H18 C15 1_555 1_555
C16 C15 1_555 1_555
H19 C16 1_555 1_555
C17 C16 1_555 1_555
H20 C17 1_555 1_555
C18 C13 1_555 1_555
H21 C18 1_555 1_555
C19 O6 1_555 1_555
H22 C19 1_555 1_555
H23 C19 1_555 1_555
H24 C19 1_555 1_555
C20 C3 1_555 1_555
H25 C20 1_555 1_555
H26 C20 1_555 1_555
C21 Si1 1_555 1_555
H27 C21 1_555 1_555
H28 C21 1_555 1_555
H29 C21 1_555 1_555
C22 Si1 1_555 1_555
H30 C22 1_555 1_555
H31 C22 1_555 1_555
H32 C22 1_555 1_555
C23 Si1 1_555 1_555
C24 C23 1_555 1_555
H33 C24 1_555 1_555
H34 C24 1_555 1_555
H35 C24 1_555 1_555
C25 C23 1_555 1_555
H36 C25 1_555 1_555
H37 C25 1_555 1_555
H38 C25 1_555 1_555
C26 C23 1_555 1_555
H39 C26 1_555 1_555
H40 C26 1_555 1_555
H41 C26 1_555 1_555
C1 C4 1_555 1_555
C2 C3 1_555 1_555
C17 C18 1_555 1_555

#END
