
#######################################################################
#
#                 Cambridge Crystallographic Data Centre
#                                CCDC 
#
#######################################################################
#
# If this CIF has been generated from an entry in the Cambridge 
# Structural Database, then it will include bibliographic, chemical, 
# crystal, experimental, refinement or atomic coordinate data resulting 
# from the CCDC's data processing and validation procedures.
#
#######################################################################

data_KIZLAG
_chemical_formula_moiety         'C24 H39 N3 O8'
_chemical_name_systematic        
5-(2-Nitrophenyl)-4,7,13,16,21,24-hexaoxa-1,10-diazabicyclo(8.8.8)hexacosane
_symmetry_cell_setting           triclinic
_symmetry_space_group_name_H-M   'P -1'
_symmetry_Int_Tables_number      2
_space_group_name_Hall           '-P 1'
loop_
_symmetry_equiv_pos_site_id
_symmetry_equiv_pos_as_xyz
1 x,y,z
2 -x,-y,-z
_cell_length_a                   7.968(3)
_cell_length_b                   11.0012(7)
_cell_length_c                   15.400(1)
_cell_angle_alpha                74.396(5)
_cell_angle_beta                 85.77(2)
_cell_angle_gamma                84.39(2)
_cell_volume                     1292.36
_exptl_crystal_colour            colorless
_chemical_melting_point          98-98.5deg.C
_cell_formula_units_Z            2
loop_
_atom_site_label
_atom_site_type_symbol
_atom_site_fract_x
_atom_site_fract_y
_atom_site_fract_z
O1 O 0.3149(2) 0.5401(2) 0.3796(1)
O2 O 0.1992(2) 0.4545(1) 0.1847(1)
O3 O 0.5250(2) 0.9030(2) 0.3233(1)
O4 O 0.4553(2) 0.7860(1) 0.1346(1)
O5 O 0.0011(2) 0.8237(2) 0.3271(1)
O6 O -0.0790(3) 0.8810(2) 0.0942(1)
O7 O 0.3002(3) 0.1688(2) 0.2070(2)
O8 O 0.2476(3) 0.1926(2) 0.3413(2)
N1 N 0.2644(2) 0.7649(2) 0.4575(1)
N2 N 0.2047(2) 0.7008(2) 0.0339(1)
N3 N 0.3305(3) 0.2085(2) 0.2704(2)
C1 C 0.3015(4) 0.6323(3) 0.5050(2)
C2 C 0.2272(3) 0.5430(2) 0.4627(2)
C3 C 0.2158(3) 0.4918(2) 0.3257(2)
C4 C 0.3135(3) 0.4926(2) 0.2380(2)
C5 C 0.2592(3) 0.4652(2) 0.0936(2)
C6 C 0.1743(3) 0.5758(2) 0.0270(2)
C7 C 0.3827(4) 0.8495(3) 0.4734(2)
C8 C 0.5462(3) 0.8488(3) 0.4166(2)
C9 C 0.4942(3) 0.8138(2) 0.2764(2)
C10 C 0.4795(3) 0.8790(2) 0.1789(2)
C11 C 0.4296(3) 0.8363(2) 0.0413(2)
C12 C 0.3791(3) 0.7322(2) 0.0043(2)
C13 C 0.0878(3) 0.8120(3) 0.4729(2)
C14 C 0.0210(3) 0.8981(2) 0.3872(2)
C15 C -0.0344(3) 0.8957(3) 0.2393(2)
C16 C -0.0316(3) 0.8083(3) 0.1804(2)
C17 C -0.0851(3) 0.8113(3) 0.0300(2)
C18 C 0.0836(3) 0.7962(3) -0.0198(2)
C19 C 0.4766(3) 0.4064(2) 0.2489(1)
C20 C 0.4866(3) 0.2753(2) 0.2624(2)
C21 C 0.6360(3) 0.2001(2) 0.2661(2)
C22 C 0.7857(3) 0.2569(3) 0.2579(2)
C23 C 0.7830(3) 0.3857(3) 0.2446(2)
C24 C 0.6304(3) 0.4600(2) 0.2393(2)
H1 H 0.268(4) 0.609(3) 0.572(2)
H2 H 0.430(4) 0.613(3) 0.503(2)
H3 H 0.234(4) 0.454(3) 0.506(2)
H4 H 0.106(4) 0.575(3) 0.452(2)
H5 H 0.112(4) 0.556(3) 0.304(2)
H6 H 0.209(4) 0.393(3) 0.359(2)
H7 H 0.335(4) 0.585(3) 0.209(2)
H8 H 0.239(4) 0.384(3) 0.080(2)
H9 H 0.391(4) 0.468(3) 0.089(2)
H10 H 0.209(4) 0.563(3) -0.037(2)
H11 H 0.052(4) 0.563(3) 0.038(2)
H12 H 0.400(4) 0.817(3) 0.545(2)
H13 H 0.334(4) 0.945(3) 0.458(2)
H14 H 0.612(4) 0.899(3) 0.438(2)
H15 H 0.594(4) 0.759(3) 0.428(2)
H16 H 0.387(4) 0.772(3) 0.301(2)
H17 H 0.571(4) 0.742(3) 0.288(2)
H18 H 0.391(4) 0.952(3) 0.168(2)
H19 H 0.574(4) 0.921(3) 0.155(2)
H20 H 0.529(4) 0.876(3) 0.009(2)
H21 H 0.349(4) 0.908(3) 0.031(2)
H22 H 0.394(4) 0.757(3) -0.066(2)
H23 H 0.461(4) 0.656(3) 0.030(2)
H24 H 0.080(4) 0.855(3) 0.525(2)
H25 H 0.015(4) 0.744(3) 0.489(2)
H26 H -0.082(4) 0.9489(3) 0.399(2)
H27 H 0.096(4) 0.971(3) 0.357(2)
H28 H 0.040(4) 0.967(3) 0.215(2)
H29 H -0.137(4) 0.952(3) 0.237(2)
H30 H 0.084(4) 0.755(3) 0.178(2)
H31 H -0.096(4) 0.743(3) 0.204(2)
H32 H -0.155(4) 0.864(3) -0.019(2)
H33 H -0.122(4) 0.717(3) 0.064(2)
H34 H 0.072(4) 0.770(3) -0.080(2)
H35 H 0.129(4) 0.890(3) -0.039(2)
H36 H 0.630(4) 0.101(3) 0.275(2)
H37 H 0.895(4) 0.202(3) 0.262(2)
H38 H 0.881(4) 0.430(3) 0.237(2)
H39 H 0.627(4) 0.555(3) 0.229(2)
loop_
_geom_bond_atom_site_label_1
_geom_bond_atom_site_label_2
_geom_bond_site_symmetry_1
_geom_bond_site_symmetry_2
O1 C2 1_555 1_555
O2 C4 1_555 1_555
O3 C8 1_555 1_555
O4 C10 1_555 1_555
O5 C14 1_555 1_555
O6 C16 1_555 1_555
O7 N3 1_555 1_555
O8 N3 1_555 1_555
N1 C1 1_555 1_555
N2 C6 1_555 1_555
N3 C20 1_555 1_555
C1 C2 1_555 1_555
C2 H3 1_555 1_555
C3 O1 1_555 1_555
C4 C3 1_555 1_555
C5 O2 1_555 1_555
C6 C5 1_555 1_555
C7 N1 1_555 1_555
C8 C7 1_555 1_555
C9 O3 1_555 1_555
C10 C9 1_555 1_555
C11 O4 1_555 1_555
C12 N2 1_555 1_555
C13 N1 1_555 1_555
C14 C13 1_555 1_555
C15 O5 1_555 1_555
C16 C15 1_555 1_555
C17 O6 1_555 1_555
C18 N2 1_555 1_555
C19 C4 1_555 1_555
C20 C19 1_555 1_555
C21 C20 1_555 1_555
C22 C21 1_555 1_555
C23 C22 1_555 1_555
C24 C19 1_555 1_555
H1 C1 1_555 1_555
H2 C1 1_555 1_555
H4 C2 1_555 1_555
H5 C3 1_555 1_555
H6 C3 1_555 1_555
H7 C4 1_555 1_555
H8 C5 1_555 1_555
H9 C5 1_555 1_555
H10 C6 1_555 1_555
H11 C6 1_555 1_555
H12 C7 1_555 1_555
H13 C7 1_555 1_555
H14 C8 1_555 1_555
H15 C8 1_555 1_555
H16 C9 1_555 1_555
H17 C9 1_555 1_555
H18 C10 1_555 1_555
H19 C10 1_555 1_555
H20 C11 1_555 1_555
H21 C11 1_555 1_555
H22 C12 1_555 1_555
H23 C12 1_555 1_555
H24 C13 1_555 1_555
H25 C13 1_555 1_555
H26 C14 1_555 1_555
H27 C14 1_555 1_555
H28 C15 1_555 1_555
H29 C15 1_555 1_555
H30 C16 1_555 1_555
H31 C16 1_555 1_555
H32 C17 1_555 1_555
H33 C17 1_555 1_555
H34 C18 1_555 1_555
H35 C18 1_555 1_555
H36 C21 1_555 1_555
H37 C22 1_555 1_555
H38 C23 1_555 1_555
H39 C24 1_555 1_555
C11 C12 1_555 1_555
C17 C18 1_555 1_555
C23 C24 1_555 1_555

#END
