
#######################################################################
#
#                 Cambridge Crystallographic Data Centre
#                                CCDC 
#
#######################################################################
#
# If this CIF has been generated from an entry in the Cambridge 
# Structural Database, then it will include bibliographic, chemical, 
# crystal, experimental, refinement or atomic coordinate data resulting 
# from the CCDC's data processing and validation procedures.
#
#######################################################################

data_KIZLEK
_chemical_formula_moiety         'C24 H39 K1 N3 O8 1+,C1 N1 S1 1-'
_chemical_name_systematic        
'Potassium (5-(2-nitrophenyl)-4,7,13,16,21,24-hexaoxa-1,10-diazabicyclo(8.8.8)hexacosane) isothiocyanate'
_symmetry_cell_setting           triclinic
_symmetry_space_group_name_H-M   'P -1'
_symmetry_Int_Tables_number      2
_space_group_name_Hall           '-P 1'
loop_
_symmetry_equiv_pos_site_id
_symmetry_equiv_pos_as_xyz
1 x,y,z
2 -x,-y,-z
_cell_length_a                   10.125(2)
_cell_length_b                   11.726(2)
_cell_length_c                   14.084(2)
_cell_angle_alpha                72.34(1)
_cell_angle_beta                 72.56(2)
_cell_angle_gamma                77.43(2)
_cell_volume                     1505.25
_exptl_crystal_colour            colorless
_chemical_melting_point          149-151deg.C
_cell_formula_units_Z            2
loop_
_atom_site_label
_atom_site_type_symbol
_atom_site_fract_x
_atom_site_fract_y
_atom_site_fract_z
K1 K 0.12394(5) 0.27606(5) 0.21112(4)
O1 O 0.2557(2) 0.4879(2) 0.0777(1)
O2 O 0.0385(2) 0.5102(2) 0.2492(1)
O3 O 0.3805(2) 0.1324(2) 0.2119(2)
O4 O 0.2062(2) 0.1819(2) 0.3940(1)
O5 O 0.0412(2) 0.2004(2) 0.0699(1)
O6 O -0.1269(2) 0.1858(2) 0.2707(1)
O7 O 0.2090(3) 0.9011(2) 0.2451(2)
O8 O 0.2036(3) 0.8417(2) 0.1178(2)
N1 N 0.3272(2) 0.2602(2) 0.0124(2)
N2 N -0.0787(2) 0.3089(2) 0.4060(2)
N3 N 0.2281(3) 0.8224(2) 0.2010(2)
C1 C 0.4003(3) 0.3670(3) -0.0340(2)
C2 C 0.3060(3) 0.4840(3) -0.0268(2)
C3 C 0.1716(3) 0.6008(2) 0.0850(2)
C4 C 0.1198(3) 0.6068(2) 0.1950(2)
C5 C -0.0478(4) 0.5268(3) 0.3463(3)
C6 C -0.1462(3) 0.4337(3) 0.3911(3)
C7 C 0.4277(3) 0.1506(3) 0.0334(3)
C8 C 0.4888(3) 0.1401(3) 0.1204(3)
C9 C 0.4304(3) 0.1136(3) 0.3001(3)
C10 C 0.3155(3) 0.0817(3) 0.3936(2)
C11 C 0.1009(4) 0.1622(3) 0.4865(2)
C12 C -0.0026(4) 0.2757(3) 0.4872(2)
C13 C 0.2503(3) 0.2503(3) -0.0585(2)
C14 C 0.1475(3) 0.1611(3) -0.0105(2)
C15 C -0.0566(3) 0.1167(3) 0.1194(2)
C16 C -0.1750(3) 0.1676(3) 0.1937(2)
C17 C -0.2389(3) 0.2261(3) 0.3476(3)
C18 C -0.1836(3) 0.2265(3) 0.4347(2)
C19 C 0.2390(3) 0.5998(2) 0.2440(2)
C20 C 0.2863(3) 0.6997(2) 0.2495(2)
C21 C 0.3868(3) 0.6919(3) 0.3000(2)
C22 C 0.4457(3) 0.5791(3) 0.3463(2)
C23 C 0.4027(3) 0.4770(3) 0.3429(2)
C24 C 0.3005(3) 0.4872(3) 0.2930(2)
H1 H 0.4471 0.3695 -0.1072
H2 H 0.4742 0.3587 0.0015
H3 H 0.3571 0.5535 -0.0677
H4 H 0.2265 0.4899 -0.0565
H5 H 0.0908 0.6114 0.0552
H6 H 0.2267 0.6678 0.0440
H7 H 0.0620 0.6867 0.1989
H8 H -0.0997 0.6095 0.3390
H9 H 0.0117 0.5162 0.3948
H10 H -0.2082 0.4453 0.4578
H11 H -0.2069 0.4478 0.3434
H12 H 0.5046 0.1488 -0.0299
H13 H 0.3804 0.0787 0.0497
H14 H 0.5604 0.0672 0.1273
H15 H 0.5356 0.2113 0.1051
H16 H 0.4611 0.1885 0.2993
H17 H 0.5115 0.0491 0.3005
H18 H 0.2803 0.0086 0.3930
H19 H 0.3501 0.0598 0.4567
H20 H 0.1423 0.1391 0.5467
H21 H 0.0522 0.0944 0.4925
H22 H -0.0706 0.2654 0.5558
H23 H 0.0493 0.3422 0.4787
H24 H 0.3182 0.2279 -0.1194
H25 H 0.1978 0.3307 -0.0834
H26 H 0.1057 0.1519 -0.0624
H27 H 0.1974 0.0803 0.0178
H28 H -0.0103 0.0396 0.1563
H29 H -0.0902 0.0983 0.0668
H30 H -0.2197 0.2458 0.1561
H31 H -0.2475 0.1127 0.2244
H32 H -0.3129 0.1726 0.3721
H33 H -0.2827 0.3088 0.3183
H34 H -0.2619 0.2484 0.4907
H35 H -0.1396 0.1430 0.4620
H36 H 0.4165 0.7665 0.3028
H37 H 0.5197 0.5715 0.3826
H38 H 0.4475 0.3953 0.3758
H39 H 0.2683 0.4117 0.2932
S1 S 0.2456(2) 0.1530(2) 0.7172(1)
N4 N 0.4391(4) 0.2231(5) 0.5469(3)
C25 C 0.3659(5) 0.1954(4) 0.6163(3)
S2? S 0.4105(6) 0.2142(5) 0.5786(4)
C26? C 0.2874 0.1776 0.6794
N5? N 0.2143 0.1523 0.7471
loop_
_geom_bond_atom_site_label_1
_geom_bond_atom_site_label_2
_geom_bond_site_symmetry_1
_geom_bond_site_symmetry_2
K1 O1 1_555 1_555
O1 C2 1_555 1_555
O2 K1 1_555 1_555
O3 K1 1_555 1_555
O4 K1 1_555 1_555
O5 K1 1_555 1_555
O6 K1 1_555 1_555
O7 N3 1_555 1_555
O8 N3 1_555 1_555
N1 K1 1_555 1_555
N2 K1 1_555 1_555
N3 C20 1_555 1_555
C1 N1 1_555 1_555
C2 C1 1_555 1_555
C3 O1 1_555 1_555
C4 O2 1_555 1_555
C5 O2 1_555 1_555
C6 N2 1_555 1_555
C7 N1 1_555 1_555
C8 O3 1_555 1_555
C9 O3 1_555 1_555
C10 O4 1_555 1_555
C11 O4 1_555 1_555
C12 N2 1_555 1_555
C13 N1 1_555 1_555
C14 O5 1_555 1_555
C15 O5 1_555 1_555
C16 O6 1_555 1_555
C17 O6 1_555 1_555
C18 N2 1_555 1_555
C19 C4 1_555 1_555
C20 C19 1_555 1_555
C21 C20 1_555 1_555
C22 C21 1_555 1_555
C23 C22 1_555 1_555
C24 C19 1_555 1_555
H1 C1 1_555 1_555
H2 C1 1_555 1_555
H3 C2 1_555 1_555
H4 C2 1_555 1_555
H5 C3 1_555 1_555
H6 C3 1_555 1_555
H7 C4 1_555 1_555
H8 C5 1_555 1_555
H9 C5 1_555 1_555
H10 C6 1_555 1_555
H11 C6 1_555 1_555
H12 C7 1_555 1_555
H13 C7 1_555 1_555
H14 C8 1_555 1_555
H15 C8 1_555 1_555
H16 C9 1_555 1_555
H17 C9 1_555 1_555
H18 C10 1_555 1_555
H19 C10 1_555 1_555
H20 C11 1_555 1_555
H21 C11 1_555 1_555
H22 C12 1_555 1_555
H23 C12 1_555 1_555
H24 C13 1_555 1_555
H25 C13 1_555 1_555
H26 C14 1_555 1_555
H27 C14 1_555 1_555
H28 C15 1_555 1_555
H29 C15 1_555 1_555
H30 C16 1_555 1_555
H31 C16 1_555 1_555
H32 C17 1_555 1_555
H33 C17 1_555 1_555
H34 C18 1_555 1_555
H35 C18 1_555 1_555
H36 C21 1_555 1_555
H37 C22 1_555 1_555
H38 C23 1_555 1_555
H39 C24 1_555 1_555
S1 C25 1_555 1_555
N4 C25 1_555 1_555
C3 C4 1_555 1_555
C5 C6 1_555 1_555
C7 C8 1_555 1_555
C9 C10 1_555 1_555
C11 C12 1_555 1_555
C13 C14 1_555 1_555
C15 C16 1_555 1_555
C17 C18 1_555 1_555
C23 C24 1_555 1_555

#END
