
#######################################################################
#
#                 Cambridge Crystallographic Data Centre
#                                CCDC 
#
#######################################################################
#
# If this CIF has been generated from an entry in the Cambridge 
# Structural Database, then it will include bibliographic, chemical, 
# crystal, experimental, refinement or atomic coordinate data resulting 
# from the CCDC's data processing and validation procedures.
#
#######################################################################

data_KIZLOW
_chemical_formula_moiety         'C30 H24 O6,C1 H4 O1,0.25(H2 O1)'
_chemical_name_systematic        
'(2,4-Diphenylcyclobutane-1,3-diyl)bis((2,4-dihydroxyphenyl)methanone) methanol solvate hydrate'
_symmetry_cell_setting           monoclinic
_symmetry_space_group_name_H-M   'P 21/c'
_symmetry_Int_Tables_number      14
_space_group_name_Hall           '-P 2ybc'
loop_
_symmetry_equiv_pos_site_id
_symmetry_equiv_pos_as_xyz
1 x,y,z
2 -x,1/2+y,1/2-z
3 -x,-y,-z
4 x,1/2-y,1/2+z
_cell_length_a                   19.472(4)
_cell_length_b                   10.790(3)
_cell_length_c                   12.591(3)
_cell_angle_alpha                90
_cell_angle_beta                 105.87(2)
_cell_angle_gamma                90
_cell_volume                     2544.57
_exptl_crystal_colour            colorless
_exptl_crystal_description       needle
_cell_formula_units_Z            4
loop_
_atom_site_label
_atom_site_type_symbol
_atom_site_fract_x
_atom_site_fract_y
_atom_site_fract_z
O1 O 0.32278(6) 1.17013(10) 0.14785(12)
H1 H 0.2840 1.1398 0.1468
O2 O 0.55961(6) 1.05854(12) 0.16841(14)
H2 H 0.5857 0.9979 0.1740
O3 O 0.23293(5) 1.00028(10) 0.15036(10)
O4 O 0.20356(6) 0.58814(12) 0.40895(10)
O5 O 0.09742(6) 0.46917(11) 0.44249(10)
H3 H 0.1395 0.4847 0.4481
O6 O -0.13445(6) 0.63466(12) 0.28166(11)
H4 H -0.1456 0.5754 0.3141
C1 C 0.37162(8) 1.07803(13) 0.15515(13)
C2 C 0.44089(8) 1.11226(14) 0.15698(15)
H5 H 0.4524 1.1954 0.1527
C3 C 0.49298(8) 1.02118(14) 0.16523(14)
C4 C 0.47582(8) 0.89553(14) 0.17084(14)
H6 H 0.5104 0.8349 0.1753
C5 C 0.40708(7) 0.86276(13) 0.16972(13)
H7 H 0.3962 0.7794 0.1748
C6 C 0.35278(7) 0.95178(13) 0.16116(12)
C7 C 0.28013(7) 0.91869(13) 0.16139(11)
C8 C 0.26347(7) 0.78679(13) 0.18337(12)
H8 H 0.2892 0.7265 0.1503
C9 C 0.18273(7) 0.75522(13) 0.16186(12)
H9 H 0.1523 0.8220 0.1219
C10 C 0.19237(7) 0.76375(13) 0.29023(12)
H10 H 0.1759 0.8445 0.3091
C11 C 0.27435(7) 0.76411(13) 0.31213(12)
H11 H 0.2921 0.6796 0.3304
C12 C 0.31908(7) 0.85210(14) 0.39632(12)
C13 C 0.39113(8) 0.82411(15) 0.44310(14)
H12 H 0.4102 0.7520 0.4223
C14 C 0.43463(9) 0.90280(17) 0.52032(15)
H13 H 0.4826 0.8835 0.5503
C15 C 0.40653(10) 1.01027(18) 0.55266(15)
H14 H 0.4357 1.0633 0.6038
C16 C 0.33492(11) 1.03817(19) 0.50839(17)
H15 H 0.3159 1.1093 0.5308
C17 C 0.29139(9) 0.95987(17) 0.43032(15)
H16 H 0.2435 0.9795 0.4006
C18 C 0.16207(8) 0.66110(14) 0.34578(12)
C19 C 0.08485(7) 0.65044(13) 0.32560(12)
C20 C 0.05556(8) 0.55475(13) 0.37672(12)
C21 C -0.01802(8) 0.54763(14) 0.36244(13)
H17 H -0.0370 0.4839 0.3953
C22 C -0.06280(8) 0.63632(14) 0.29874(13)
C23 C -0.03509(8) 0.73300(14) 0.24829(14)
H18 H -0.0652 0.7928 0.2069
C24 C 0.03760(8) 0.73784(14) 0.26122(13)
H19 H 0.0559 0.8007 0.2264
C25 C 0.16059(7) 0.63067(14) 0.10923(12)
C26 C 0.09887(8) 0.61980(15) 0.02083(13)
H20 H 0.0717 0.6900 -0.0051
C27 C 0.07752(9) 0.50548(17) -0.02889(15)
H21 H 0.0373 0.5003 -0.0890
C28 C 0.11628(10) 0.39926(17) 0.01123(15)
H22 H 0.1016 0.3226 -0.0208
C29 C 0.17727(9) 0.40832(16) 0.09971(15)
H23 H 0.2032 0.3374 0.1273
C30 C 0.19965(8) 0.52320(15) 0.14718(14)
H24 H 0.2412 0.5284 0.2050
O7 O 0.34694(8) 0.37373(15) 0.29475(14)
H25 H 0.3510 0.3121 0.2588
C31 C 0.31416(17) 0.3411(3) 0.3760(2)
H26 H 0.3448 0.2861 0.4280
H27 H 0.2697 0.3003 0.3425
H28 H 0.3054 0.4143 0.4136
O8 O 0.2308(6) 0.3091(12) 0.3740(12)
loop_
_geom_bond_atom_site_label_1
_geom_bond_atom_site_label_2
_geom_bond_site_symmetry_1
_geom_bond_site_symmetry_2
O1 H1 1_555 1_555
O2 H2 1_555 1_555
O3 C7 1_555 1_555
O4 C18 1_555 1_555
O5 H3 1_555 1_555
O6 H4 1_555 1_555
C1 O1 1_555 1_555
C2 C1 1_555 1_555
H5 C2 1_555 1_555
C3 O2 1_555 1_555
C4 C3 1_555 1_555
H6 C4 1_555 1_555
C5 C4 1_555 1_555
H7 C5 1_555 1_555
C6 C1 1_555 1_555
C7 C6 1_555 1_555
C8 C7 1_555 1_555
H8 C8 1_555 1_555
C9 C8 1_555 1_555
H9 C9 1_555 1_555
C10 C9 1_555 1_555
H10 C10 1_555 1_555
C11 C8 1_555 1_555
H11 C11 1_555 1_555
C12 C11 1_555 1_555
C13 C12 1_555 1_555
H12 C13 1_555 1_555
C14 C13 1_555 1_555
H13 C14 1_555 1_555
C15 C14 1_555 1_555
H14 C15 1_555 1_555
C16 C15 1_555 1_555
H15 C16 1_555 1_555
C17 C12 1_555 1_555
H16 C17 1_555 1_555
C18 C10 1_555 1_555
C19 C18 1_555 1_555
C20 O5 1_555 1_555
C21 C20 1_555 1_555
H17 C21 1_555 1_555
C22 O6 1_555 1_555
C23 C22 1_555 1_555
H18 C23 1_555 1_555
C24 C19 1_555 1_555
H19 C24 1_555 1_555
C25 C9 1_555 1_555
C26 C25 1_555 1_555
H20 C26 1_555 1_555
C27 C26 1_555 1_555
H21 C27 1_555 1_555
C28 C27 1_555 1_555
H22 C28 1_555 1_555
C29 C28 1_555 1_555
H23 C29 1_555 1_555
C30 C25 1_555 1_555
H24 C30 1_555 1_555
O7 H25 1_555 1_555
C31 O7 1_555 1_555
H26 C31 1_555 1_555
H27 C31 1_555 1_555
H28 C31 1_555 1_555
C2 C3 1_555 1_555
C5 C6 1_555 1_555
C10 C11 1_555 1_555
C16 C17 1_555 1_555
C19 C20 1_555 1_555
C21 C22 1_555 1_555
C23 C24 1_555 1_555
C29 C30 1_555 1_555

#END
