
#######################################################################
#
#                 Cambridge Crystallographic Data Centre
#                                CCDC 
#
#######################################################################
#
# If this CIF has been generated from an entry in the Cambridge 
# Structural Database, then it will include bibliographic, chemical, 
# crystal, experimental, refinement or atomic coordinate data resulting 
# from the CCDC's data processing and validation procedures.
#
#######################################################################

data_KIZLEN
_chemical_formula_moiety         'C32 H42'
_chemical_name_systematic        
1,1'-(1,2-dicyclopentylideneethane-1,2-diyl)bis(4-t-butylbenzene)
_symmetry_cell_setting           triclinic
_symmetry_space_group_name_H-M   'P -1'
_symmetry_Int_Tables_number      2
_space_group_name_Hall           '-P 1'
loop_
_symmetry_equiv_pos_site_id
_symmetry_equiv_pos_as_xyz
1 x,y,z
2 -x,-y,-z
_cell_length_a                   10.4327(5)
_cell_length_b                   11.7013(5)
_cell_length_c                   12.5296(6)
_cell_angle_alpha                69.1368(13)
_cell_angle_beta                 73.8505(14)
_cell_angle_gamma                84.8861(14)
_cell_volume                     1372.79
_exptl_crystal_colour            colorless
_exptl_crystal_description       block
_cell_formula_units_Z            2
_exptl_crystal_recrystallization_method hexane
loop_
_atom_site_label
_atom_site_type_symbol
_atom_site_fract_x
_atom_site_fract_y
_atom_site_fract_z
C1 C 0.2359(3) 0.8927(3) 0.0947(3)
C2 C 0.3371(9) 0.9307(5) 0.1431(7)
H1 H 0.4247 0.9066 0.1087
H2 H 0.3354 1.0179 0.1234
H3 H 0.3152 0.8917 0.2276
C3 C 0.1057(8) 0.9318(5) 0.1500(13)
H4 H 0.0820 0.8861 0.2334
H5 H 0.1094 1.0174 0.1375
H6 H 0.0401 0.9175 0.1154
C4 C 0.2790(10) 0.9601(4) -0.0353(6)
H7 H 0.3649 0.9316 -0.0679
H8 H 0.2153 0.9461 -0.0720
H9 H 0.2846 1.0460 -0.0499
C5 C 0.2388(3) 0.7547(2) 0.1275(3)
C6 C 0.2101(3) 0.6772(3) 0.2434(3)
H10 H 0.1889 0.7104 0.3034
C7 C 0.2118(3) 0.5515(3) 0.2734(2)
H11 H 0.1901 0.5024 0.3529
C8 C 0.2448(2) 0.4970(2) 0.1881(2)
C9 C 0.2720(3) 0.5749(2) 0.0724(2)
H12 H 0.2930 0.5422 0.0120
C10 C 0.2690(4) 0.7002(3) 0.0436(3)
H13 H 0.2883 0.7494 -0.0359
C11 C 0.2464(2) 0.3611(2) 0.2214(2)
C12 C 0.3356(3) 0.2926(2) 0.2739(2)
C13 C 0.4478(3) 0.3396(3) 0.3028(3)
H14 H 0.4989 0.4030 0.2337
H15 H 0.4128 0.3726 0.3660
C14 C 0.5321(4) 0.2307(5) 0.3407(5)
H16 H 0.6184 0.2410 0.2832
H17 H 0.5462 0.2218 0.4166
C15 C 0.4662(6) 0.1257(5) 0.3501(7)
H18 H 0.4420 0.0720 0.4322
H19 H 0.5269 0.0818 0.3045
C16 C 0.3478(3) 0.1557(3) 0.3082(3)
H20 H 0.2701 0.1151 0.3701
H21 H 0.3565 0.1309 0.2404
C17 C 0.1448(2) 0.3074(2) 0.1874(2)
C18 C 0.0338(2) 0.2539(2) 0.2693(2)
C19 C 0.0002(3) 0.2400(3) 0.3995(3)
H22 H 0.0706 0.1972 0.4346
H23 H -0.0114 0.3194 0.4088
C20 C -0.1293(4) 0.1663(4) 0.4568(3)
H24 H -0.1299 0.1098 0.5354
H25 H -0.2054 0.2198 0.4628
C21 C -0.1324(3) 0.0987(3) 0.3763(3)
H26 H -0.2231 0.0754 0.3861
H27 H -0.0784 0.0257 0.3917
C22 C -0.0751(3) 0.1894(3) 0.2533(3)
H28 H -0.0388 0.1478 0.1969
H29 H -0.1424 0.2465 0.2263
C23 C 0.1783(2) 0.3174(2) 0.0616(2)
C24 C 0.3096(2) 0.3046(2) 0.0011(2)
H30 H 0.3758 0.2888 0.0410
C25 C 0.3438(3) 0.3146(2) -0.1163(2)
H31 H 0.4327 0.3056 -0.1535
C26 C 0.2500(3) 0.3378(2) -0.1803(2)
C27 C 0.1191(3) 0.3536(3) -0.1207(2)
H32 H 0.0535 0.3712 -0.1615
C28 C 0.0838(3) 0.3440(3) -0.0034(2)
H33 H -0.0046 0.3555 0.0331
C29 C 0.2856(3) 0.3519(3) -0.3110(3)
C30 C 0.4361(5) 0.3287(7) -0.3574(4)
H34 H 0.4883 0.3824 -0.3430
H35 H 0.4560 0.2453 -0.3170
H36 H 0.4572 0.3439 -0.4409
C31 C 0.2024(6) 0.2709(7) -0.3317(4)
H37 H 0.2144 0.1876 -0.2851
H38 H 0.1103 0.2924 -0.3096
H39 H 0.2282 0.2800 -0.4141
C32 C 0.2689(8) 0.4833(5) -0.3831(4)
H40 H 0.3238 0.5346 -0.3685
H41 H 0.2950 0.4934 -0.4658
H42 H 0.1771 0.5058 -0.3612
loop_
_geom_bond_atom_site_label_1
_geom_bond_atom_site_label_2
_geom_bond_site_symmetry_1
_geom_bond_site_symmetry_2
C1 C2 1_555 1_555
C2 H1 1_555 1_555
H2 C2 1_555 1_555
H3 C2 1_555 1_555
C3 C1 1_555 1_555
H4 C3 1_555 1_555
H5 C3 1_555 1_555
H6 C3 1_555 1_555
C4 C1 1_555 1_555
H7 C4 1_555 1_555
H8 C4 1_555 1_555
H9 C4 1_555 1_555
C5 C1 1_555 1_555
C6 C5 1_555 1_555
H10 C6 1_555 1_555
C7 C6 1_555 1_555
H11 C7 1_555 1_555
C8 C7 1_555 1_555
C9 C8 1_555 1_555
H12 C9 1_555 1_555
C10 C5 1_555 1_555
H13 C10 1_555 1_555
C11 C8 1_555 1_555
C12 C11 1_555 1_555
C13 C12 1_555 1_555
H14 C13 1_555 1_555
H15 C13 1_555 1_555
C14 C13 1_555 1_555
H16 C14 1_555 1_555
H17 C14 1_555 1_555
C15 C14 1_555 1_555
H18 C15 1_555 1_555
H19 C15 1_555 1_555
C16 C12 1_555 1_555
H20 C16 1_555 1_555
H21 C16 1_555 1_555
C17 C11 1_555 1_555
C18 C17 1_555 1_555
C19 C18 1_555 1_555
H22 C19 1_555 1_555
H23 C19 1_555 1_555
C20 C19 1_555 1_555
H24 C20 1_555 1_555
H25 C20 1_555 1_555
C21 C20 1_555 1_555
H26 C21 1_555 1_555
H27 C21 1_555 1_555
C22 C18 1_555 1_555
H28 C22 1_555 1_555
H29 C22 1_555 1_555
C23 C17 1_555 1_555
C24 C23 1_555 1_555
H30 C24 1_555 1_555
C25 C24 1_555 1_555
H31 C25 1_555 1_555
C26 C25 1_555 1_555
C27 C26 1_555 1_555
H32 C27 1_555 1_555
C28 C23 1_555 1_555
H33 C28 1_555 1_555
C29 C26 1_555 1_555
C30 C29 1_555 1_555
H34 C30 1_555 1_555
H35 C30 1_555 1_555
H36 C30 1_555 1_555
C31 C29 1_555 1_555
H37 C31 1_555 1_555
H38 C31 1_555 1_555
H39 C31 1_555 1_555
C32 C29 1_555 1_555
H40 C32 1_555 1_555
H41 C32 1_555 1_555
H42 C32 1_555 1_555
C9 C10 1_555 1_555
C15 C16 1_555 1_555
C21 C22 1_555 1_555
C27 C28 1_555 1_555

#END
