
#######################################################################
#
#                 Cambridge Crystallographic Data Centre
#                                CCDC 
#
#######################################################################
#
# If this CIF has been generated from an entry in the Cambridge 
# Structural Database, then it will include bibliographic, chemical, 
# crystal, experimental, refinement or atomic coordinate data resulting 
# from the CCDC's data processing and validation procedures.
#
#######################################################################

data_KIZNEO
_chemical_formula_moiety         'C8 H8 B1 O10 1-,H4 N1 1+,H2 O1'
_chemical_name_systematic        'Ammonium bis(D-malato)borate monohydrate'
_symmetry_cell_setting           orthorhombic
_symmetry_space_group_name_H-M   'P n a 21'
_symmetry_Int_Tables_number      33
_space_group_name_Hall           'P 2c -2n'
loop_
_symmetry_equiv_pos_site_id
_symmetry_equiv_pos_as_xyz
1 x,y,z
2 -x,-y,1/2+z
3 1/2+x,1/2-y,z
4 1/2-x,1/2+y,1/2+z
_cell_length_a                   11.484(6)
_cell_length_b                   5.354(3)
_cell_length_c                   21.079(12)
_cell_angle_alpha                90
_cell_angle_beta                 90
_cell_angle_gamma                90
_cell_volume                     1296.05
_exptl_crystal_colour            colorless
_exptl_crystal_description       block
_cell_formula_units_Z            4
loop_
_atom_site_label
_atom_site_type_symbol
_atom_site_fract_x
_atom_site_fract_y
_atom_site_fract_z
O1 O 0.79060(15) 0.5049(3) 0.89950(10)
O2 O 1.03516(16) 0.6901(3) 0.85230(11)
C1 C 0.9290(2) 0.2177(5) 0.85206(14)
H1 H 0.8959 0.0571 0.8652
O3 O 0.79850(14) 0.4548(3) 0.79466(9)
O4 O 0.96159(14) 0.1999(3) 0.78761(10)
O5 O 0.79181(16) 0.1082(4) 0.72122(10)
O6 O 0.91129(18) 0.4422(4) 0.69626(10)
O7 O 0.7187(2) 0.0225(5) 0.62637(11)
C2 C 1.0813(2) 0.5292(4) 0.88303(13)
C3 C 0.7790(2) 0.1524(5) 0.66065(14)
B1 B 0.8713(3) 0.3015(5) 0.74880(17)
C4 C 0.8329(2) 0.4106(4) 0.85226(14)
C5 C 1.0298(2) 0.2781(5) 0.89498(14)
H2 H 1.0036 0.2701 0.9387
H3 H 1.0897 0.1524 0.8894
O8 O 1.0515(2) 0.1518(5) 0.52382(11)
H4 H 1.0951 0.0305 0.5235
C6 C 0.9126(3) 0.3724(6) 0.58162(15)
H5 H 0.8587 0.3648 0.5462
H6 H 0.9573 0.5250 0.5773
C7 C 0.9935(3) 0.1566(6) 0.57712(15)
C8 C 0.8431(3) 0.3867(5) 0.64244(14)
H7 H 0.7855 0.5203 0.6376
O9 O 1.0028(2) -0.0009(4) 0.61751(12)
O10 O 1.18335(16) 0.5583(4) 0.91057(12)
H8 H 1.2028 0.7054 0.9086
N1 N 0.0891(3) 0.7900(6) 0.72754(15)
H9 H 0.047(3) 0.929(8) 0.754(2)
H10 H 0.146(4) 0.747(8) 0.737(2)
H11 H 0.042(4) 0.661(8) 0.725(2)
H12 H 0.084(4) 0.861(9) 0.697(3)
O11 O 0.1877(2) 0.7591(5) 0.51768(13)
H13 H 0.201(4) 0.677(8) 0.485(2)
H14 H 0.198(4) 0.663(8) 0.546(2)
loop_
_geom_bond_atom_site_label_1
_geom_bond_atom_site_label_2
_geom_bond_site_symmetry_1
_geom_bond_site_symmetry_2
O1 C4 1_555 1_555
O2 C2 1_555 1_555
C1 H1 1_555 1_555
O3 B1 1_555 1_555
O4 C1 1_555 1_555
O5 C3 1_555 1_555
O6 B1 1_555 1_555
O7 C3 1_555 1_555
C2 C5 1_555 1_555
C3 C8 1_555 1_555
B1 O4 1_555 1_555
C4 C1 1_555 1_555
C5 C1 1_555 1_555
H2 C5 1_555 1_555
H3 C5 1_555 1_555
O8 H4 1_555 1_555
C6 H5 1_555 1_555
H6 C6 1_555 1_555
C7 O8 1_555 1_555
C8 O6 1_555 1_555
H7 C8 1_555 1_555
O9 C7 1_555 1_555
O10 C2 1_555 1_555
H8 O10 1_555 1_555
N1 H9 1_555 1_555
H10 N1 1_555 1_555
H11 N1 1_555 1_555
H12 N1 1_555 1_555
O11 H13 1_555 1_555
H14 O11 1_555 1_555
O3 C4 1_555 1_555
O5 B1 1_555 1_555
C6 C7 1_555 1_555
C6 C8 1_555 1_555

#END
