
#######################################################################
#
#                 Cambridge Crystallographic Data Centre
#                                CCDC 
#
#######################################################################
#
# If this CIF has been generated from an entry in the Cambridge 
# Structural Database, then it will include bibliographic, chemical, 
# crystal, experimental, refinement or atomic coordinate data resulting 
# from the CCDC's data processing and validation procedures.
#
#######################################################################

data_KIZPOA
_chemical_formula_moiety         'C16 H14 N4 O4,2(C1 H4 O1)'
_chemical_name_systematic        
"N'^1^,N'^2^-Dibenzoylethanedihydrazide methanol solvate"
_symmetry_cell_setting           triclinic
_symmetry_space_group_name_H-M   'P -1'
_symmetry_Int_Tables_number      2
_space_group_name_Hall           '-P 1'
loop_
_symmetry_equiv_pos_site_id
_symmetry_equiv_pos_as_xyz
1 x,y,z
2 -x,-y,-z
_cell_length_a                   8.3602(10)
_cell_length_b                   10.0999(12)
_cell_length_c                   13.3869(15)
_cell_angle_alpha                107.745(2)
_cell_angle_beta                 103.9030(10)
_cell_angle_gamma                98.1030(10)
_cell_volume                     1016.6
_exptl_crystal_colour            colorless
_exptl_crystal_description       lamellar
_cell_formula_units_Z            2
loop_
_atom_site_label
_atom_site_type_symbol
_atom_site_fract_x
_atom_site_fract_y
_atom_site_fract_z
N1 N 0.8661(5) 0.1484(5) 0.6219(4)
H1 H 0.8868 0.1282 0.6810
N2 N 0.6997(5) 0.1253(5) 0.5578(4)
H2 H 0.6694 0.1895 0.5324
O1 O 0.9639(4) 0.2388(5) 0.5091(4)
O2 O 0.6219(5) -0.0917(5) 0.5707(4)
C1 C 0.9943(7) 0.2026(7) 0.5909(6)
C2 C 1.1652(7) 0.2130(7) 0.6568(5)
C3 C 1.2952(7) 0.3308(7) 0.6741(5)
H3 H 1.2700 0.4027 0.6475
C4 C 1.4595(8) 0.3388(9) 0.7307(6)
H4 H 1.5433 0.4191 0.7451
C5 C 1.5023(8) 0.2307(10) 0.7664(6)
H5 H 1.6147 0.2358 0.8015
C6 C 1.3761(9) 0.1143(8) 0.7495(6)
H6 H 1.4036 0.0418 0.7748
C7 C 1.2099(8) 0.1048(7) 0.6952(5)
H7 H 1.1266 0.0258 0.6841
C8 C 0.5855(6) 0.0036(7) 0.5352(5)
N1A N 0.1339(5) -0.1484(5) 0.3781(4)
H1A H 0.1132 -0.1282 0.3190
N2A N 0.3003(5) -0.1253(5) 0.4422(4)
H2A H 0.3306 -0.1895 0.4676
O1A O 0.0361(4) -0.2388(5) 0.4909(4)
O2A O 0.3781(5) 0.0917(5) 0.4293(4)
C1A C 0.0057(7) -0.2026(7) 0.4091(6)
C2A C -0.1652(7) -0.2130(7) 0.3432(5)
C3A C -0.2952(7) -0.3308(7) 0.3259(5)
H3A H -0.2700 -0.4027 0.3525
C4A C -0.4595(8) -0.3388(9) 0.2693(6)
H4A H -0.5433 -0.4191 0.2549
C5A C -0.5023(8) -0.2307(10) 0.2336(6)
H5A H -0.6147 -0.2358 0.1985
C6A C -0.3761(9) -0.1143(8) 0.2505(6)
H6A H -0.4036 -0.0418 0.2252
C7A C -0.2099(8) -0.1048(7) 0.3048(5)
H7A H -0.1266 -0.0258 0.3159
C8A C 0.4145(6) -0.0036(7) 0.4648(5)
N3 N 0.8599(5) 0.6688(5) 1.6223(4)
H8 H 0.9291 0.6919 1.5888
N4 N 0.6871(5) 0.6403(5) 1.5720(4)
H9 H 0.6394 0.7097 1.5692
O3 O 0.8254(5) 0.6341(5) 1.7754(4)
O4 O 0.6484(4) 0.3982(5) 1.5277(4)
C9 C 0.9218(7) 0.6611(7) 1.7230(6)
C10 C 1.1095(7) 0.6990(7) 1.7695(6)
C11 C 1.2192(7) 0.6963(7) 1.7071(6)
H10 H 1.1755 0.6711 1.6313
C12 C 1.3917(8) 0.7299(8) 1.7543(7)
H11 H 1.4625 0.7259 1.7100
C13 C 1.4596(8) 0.7687(8) 1.8639(7)
H12 H 1.5764 0.7923 1.8959
C14 C 1.3511(9) 0.7725(9) 1.9278(6)
H13 H 1.3960 0.7975 2.0034
C15 C 1.1787(8) 0.7403(9) 1.8816(6)
H14 H 1.1083 0.7463 1.9263
C16 C 0.5922(6) 0.5039(7) 1.5272(5)
N3A N 0.1401(5) 0.3312(5) 1.3777(4)
H8A H 0.0709 0.3081 1.4112
N4A N 0.3129(5) 0.3597(5) 1.4280(4)
H9A H 0.3606 0.2903 1.4308
O3A O 0.1746(5) 0.3659(5) 1.2246(4)
O4A O 0.3516(4) 0.6018(5) 1.4723(4)
C9A C 0.0782(7) 0.3389(7) 1.2770(6)
C10A C -0.1095(7) 0.3010(7) 1.2305(6)
C11A C -0.2192(7) 0.3037(7) 1.2929(6)
H10A H -0.1755 0.3289 1.3687
C12A C -0.3917(8) 0.2701(8) 1.2457(7)
H11A H -0.4625 0.2741 1.2900
C13A C -0.4596(8) 0.2313(8) 1.1361(7)
H12A H -0.5764 0.2077 1.1041
C14A C -0.3511(9) 0.2275(9) 1.0722(6)
H13A H -0.3960 0.2025 0.9966
C15A C -0.1787(8) 0.2597(9) 1.1184(6)
H14A H -0.1083 0.2537 1.0737
C16A C 0.4078(6) 0.4961(7) 1.4728(5)
O5 O 0.8949(5) 0.1351(6) 0.8317(4)
H15 H 0.9737 0.1904 0.8840
C17 C 0.8619(11) 0.0031(9) 0.8454(7)
H16 H 0.9669 -0.0222 0.8703
H17 H 0.7944 -0.0686 0.7765
H18 H 0.8017 0.0095 0.8988
O6 O 0.8466(6) 0.6816(6) 0.9952(4)
H19 H 0.8473 0.6528 0.9311
C18 C 0.7538(11) 0.5729(10) 1.0162(7)
H20 H 0.8112 0.4963 1.0110
H21 H 0.6433 0.5380 0.9632
H22 H 0.7429 0.6094 1.0887
loop_
_geom_bond_atom_site_label_1
_geom_bond_atom_site_label_2
_geom_bond_site_symmetry_1
_geom_bond_site_symmetry_2
N1 H1 1_555 1_555
N2 N1 1_555 1_555
H2 N2 1_555 1_555
O1 C1 1_555 1_555
O2 C8 1_555 1_555
C1 N1 1_555 1_555
C2 C1 1_555 1_555
C3 C2 1_555 1_555
H3 C3 1_555 1_555
C4 C3 1_555 1_555
H4 C4 1_555 1_555
C5 C4 1_555 1_555
H5 C5 1_555 1_555
C6 C5 1_555 1_555
H6 C6 1_555 1_555
C7 C2 1_555 1_555
H7 C7 1_555 1_555
C8 N2 1_555 1_555
N3 H8 1_555 1_555
N4 N3 1_555 1_555
H9 N4 1_555 1_555
O3 C9 1_555 1_555
O4 C16 1_555 1_555
C9 N3 1_555 1_555
C10 C9 1_555 1_555
C11 C10 1_555 1_555
H10 C11 1_555 1_555
C12 C11 1_555 1_555
H11 C12 1_555 1_555
C13 C12 1_555 1_555
H12 C13 1_555 1_555
C14 C13 1_555 1_555
H13 C14 1_555 1_555
C15 C10 1_555 1_555
H14 C15 1_555 1_555
C16 N4 1_555 1_555
O5 H15 1_555 1_555
C17 O5 1_555 1_555
H16 C17 1_555 1_555
H17 C17 1_555 1_555
H18 C17 1_555 1_555
O6 H19 1_555 1_555
C18 O6 1_555 1_555
H20 C18 1_555 1_555
H21 C18 1_555 1_555
H22 C18 1_555 1_555
N1A H1A 1_555 1_555
N2A N1A 1_555 1_555
H2A N2A 1_555 1_555
O1A C1A 1_555 1_555
O2A C8A 1_555 1_555
C1A N1A 1_555 1_555
C2A C1A 1_555 1_555
C3A C2A 1_555 1_555
H3A C3A 1_555 1_555
C4A C3A 1_555 1_555
H4A C4A 1_555 1_555
C5A C4A 1_555 1_555
H5A C5A 1_555 1_555
C6A C5A 1_555 1_555
H6A C6A 1_555 1_555
C7A C2A 1_555 1_555
H7A C7A 1_555 1_555
C8A C8 1_555 1_555
N3A H8A 1_555 1_555
N4A N3A 1_555 1_555
H9A N4A 1_555 1_555
O3A C9A 1_555 1_555
O4A C16A 1_555 1_555
C9A N3A 1_555 1_555
C10A C9A 1_555 1_555
C11A C10A 1_555 1_555
H10A C11A 1_555 1_555
C12A C11A 1_555 1_555
H11A C12A 1_555 1_555
C13A C12A 1_555 1_555
H12A C13A 1_555 1_555
C14A C13A 1_555 1_555
H13A C14A 1_555 1_555
C15A C10A 1_555 1_555
H14A C15A 1_555 1_555
C16A C16 1_555 1_555
C6 C7 1_555 1_555
C14 C15 1_555 1_555
N2A C8A 1_555 1_555
C6A C7A 1_555 1_555
N4A C16A 1_555 1_555
C14A C15A 1_555 1_555

#END
