
#######################################################################
#
#                 Cambridge Crystallographic Data Centre
#                                CCDC 
#
#######################################################################
#
# If this CIF has been generated from an entry in the Cambridge 
# Structural Database, then it will include bibliographic, chemical, 
# crystal, experimental, refinement or atomic coordinate data resulting 
# from the CCDC's data processing and validation procedures.
#
#######################################################################

data_KIZQOA
_chemical_formula_moiety         'C26 H20 Cl1 N1 O1'
_chemical_name_systematic        2-Chloro-N-(trityl)benzamide
_symmetry_cell_setting           triclinic
_symmetry_space_group_name_H-M   'P -1'
_symmetry_Int_Tables_number      2
_space_group_name_Hall           '-P 1'
loop_
_symmetry_equiv_pos_site_id
_symmetry_equiv_pos_as_xyz
1 x,y,z
2 -x,-y,-z
_cell_length_a                   9.9688(19)
_cell_length_b                   10.288(2)
_cell_length_c                   12.266(2)
_cell_angle_alpha                82.418(4)
_cell_angle_beta                 68.134(4)
_cell_angle_gamma                61.305(3)
_cell_volume                     1022.41
_exptl_crystal_colour            colorless
_exptl_crystal_description       prismatic
_chemical_melting_point          '136-138 deg.C'
_cell_formula_units_Z            2
_exptl_crystal_recrystallization_method chloroform
loop_
_atom_site_label
_atom_site_type_symbol
_atom_site_fract_x
_atom_site_fract_y
_atom_site_fract_z
Cl1 Cl -0.11662(5) 0.50565(5) 0.18661(4)
N1 N 0.03882(16) 0.66105(14) 0.25046(12)
O1 O 0.24404(13) 0.66934(12) 0.09392(10)
C1 C 0.16196(18) 0.60757(16) 0.14561(14)
C2 C 0.20053(18) 0.46170(16) 0.09601(13)
C3 C 0.3640(2) 0.37341(19) 0.02976(15)
H1 H 0.4390 0.4076 0.0186
C4 C 0.4180(2) 0.2368(2) -0.01976(17)
H2 H 0.5285 0.1794 -0.0627
C5 C 0.3093(3) 0.1850(2) -0.00590(18)
H3 H 0.3457 0.0928 -0.0397
C6 C 0.1467(2) 0.26974(19) 0.05792(16)
H4 H 0.0724 0.2354 0.0671
C7 C 0.09323(19) 0.40628(17) 0.10863(14)
C8 C 0.00604(17) 0.78326(16) 0.32359(13)
C9 C 0.16769(17) 0.74689(16) 0.33704(13)
C10 C 0.2568(2) 0.60584(18) 0.36967(16)
H5 H 0.2177 0.5372 0.3818
C11 C 0.4016(2) 0.5658(2) 0.38431(17)
H6 H 0.4594 0.4706 0.4059
C12 C 0.4613(2) 0.6647(2) 0.36740(16)
H7 H 0.5589 0.6376 0.3780
C13 C 0.3761(2) 0.8036(2) 0.33476(16)
H8 H 0.4160 0.8715 0.3233
C14 C 0.23037(19) 0.84505(18) 0.31843(14)
H9 H 0.1748 0.9396 0.2948
C15 C -0.07366(17) 0.93488(16) 0.27313(13)
C16 C -0.10160(19) 0.95146(18) 0.16878(14)
H10 H -0.0666 0.8675 0.1238
C17 C -0.1808(2) 1.0907(2) 0.12992(16)
H11 H -0.1985 1.0993 0.0594
C18 C -0.2332(2) 1.21587(19) 0.19467(17)
H12 H -0.2856 1.3094 0.1682
C19 C -0.20756(19) 1.20160(18) 0.29938(16)
H13 H -0.2423 1.2860 0.3437
C20 C -0.13085(18) 1.06328(17) 0.33890(14)
H14 H -0.1170 1.0555 0.4108
C21 C -0.12328(17) 0.78506(15) 0.44337(13)
C22 C -0.1040(2) 0.77894(17) 0.54966(15)
H15 H -0.0068 0.7684 0.5513
C23 C -0.2285(2) 0.78835(19) 0.65468(16)
H16 H -0.2136 0.7839 0.7258
C24 C -0.3722(2) 0.8040(2) 0.65422(17)
H17 H -0.4548 0.8097 0.7246
C25 C -0.3936(2) 0.81123(19) 0.54939(18)
H18 H -0.4913 0.8221 0.5485
C26 C -0.27059(19) 0.80250(18) 0.44461(15)
H19 H -0.2870 0.8084 0.3739
H20 H -0.0102(18) 0.6151(16) 0.2814(14)
loop_
_geom_bond_atom_site_label_1
_geom_bond_atom_site_label_2
_geom_bond_site_symmetry_1
_geom_bond_site_symmetry_2
Cl1 C7 1_555 1_555
N1 C1 1_555 1_555
O1 C1 1_555 1_555
C1 C2 1_555 1_555
C2 C3 1_555 1_555
C3 H1 1_555 1_555
C4 C3 1_555 1_555
H2 C4 1_555 1_555
C5 C4 1_555 1_555
H3 C5 1_555 1_555
C6 C5 1_555 1_555
H4 C6 1_555 1_555
C7 C2 1_555 1_555
C8 N1 1_555 1_555
C9 C8 1_555 1_555
C10 C9 1_555 1_555
H5 C10 1_555 1_555
C11 C10 1_555 1_555
H6 C11 1_555 1_555
C12 C11 1_555 1_555
H7 C12 1_555 1_555
C13 C12 1_555 1_555
H8 C13 1_555 1_555
C14 C9 1_555 1_555
H9 C14 1_555 1_555
C15 C8 1_555 1_555
C16 C15 1_555 1_555
H10 C16 1_555 1_555
C17 C16 1_555 1_555
H11 C17 1_555 1_555
C18 C17 1_555 1_555
H12 C18 1_555 1_555
C19 C18 1_555 1_555
H13 C19 1_555 1_555
C20 C15 1_555 1_555
H14 C20 1_555 1_555
C21 C8 1_555 1_555
C22 C21 1_555 1_555
H15 C22 1_555 1_555
C23 C22 1_555 1_555
H16 C23 1_555 1_555
C24 C23 1_555 1_555
H17 C24 1_555 1_555
C25 C24 1_555 1_555
H18 C25 1_555 1_555
C26 C21 1_555 1_555
H19 C26 1_555 1_555
H20 N1 1_555 1_555
C6 C7 1_555 1_555
C13 C14 1_555 1_555
C19 C20 1_555 1_555
C25 C26 1_555 1_555

#END
