
#######################################################################
#
#                 Cambridge Crystallographic Data Centre
#                                CCDC 
#
#######################################################################
#
# If this CIF has been generated from an entry in the Cambridge 
# Structural Database, then it will include bibliographic, chemical, 
# crystal, experimental, refinement or atomic coordinate data resulting 
# from the CCDC's data processing and validation procedures.
#
#######################################################################

data_KIZQIU
_chemical_formula_moiety         'C26 H20 I1 N1 O1'
_chemical_name_systematic        N-(2-Iodophenyl)-2,2,2-triphenylacetamide
_symmetry_cell_setting           triclinic
_symmetry_space_group_name_H-M   'P -1'
_symmetry_Int_Tables_number      2
_space_group_name_Hall           '-P 1'
loop_
_symmetry_equiv_pos_site_id
_symmetry_equiv_pos_as_xyz
1 x,y,z
2 -x,-y,-z
_cell_length_a                   9.4903(10)
_cell_length_b                   9.6430(10)
_cell_length_c                   13.3479(14)
_cell_angle_alpha                72.081(2)
_cell_angle_beta                 74.873(2)
_cell_angle_gamma                66.580(2)
_cell_volume                     1052.99
_exptl_crystal_colour            colorless
_exptl_crystal_description       prismatic
_chemical_melting_point          '163-164 deg.C'
_cell_formula_units_Z            2
_exptl_crystal_recrystallization_method chloroform
loop_
_atom_site_label
_atom_site_type_symbol
_atom_site_fract_x
_atom_site_fract_y
_atom_site_fract_z
I1 I 0.31366(7) 0.66338(8) 0.07642(4)
N1 N 0.6037(7) 0.4840(6) 0.2028(4)
O1 O 0.7643(6) 0.4464(6) 0.3137(4)
C1 C 0.6712(7) 0.4092(6) 0.2922(4)
C2 C 0.6220(6) 0.2680(6) 0.3605(4)
C3 C 0.6371(10) 0.6010(7) 0.1188(5)
C4 C 0.7770(14) 0.6207(12) 0.0991(7)
H1 H 0.8504 0.5589 0.1439
C5 C 0.810(2) 0.735(2) 0.0112(11)
H2 H 0.9049 0.7498 -0.0032
C6 C 0.698(3) 0.8230(17) -0.0533(11)
H3 H 0.7199 0.8979 -0.1120
C7 C 0.558(2) 0.8059(13) -0.0349(9)
H4 H 0.4848 0.8687 -0.0798
C8 C 0.5242(13) 0.6940(8) 0.0515(5)
C9 C 0.4464(6) 0.3081(6) 0.3614(4)
C10 C 0.3399(6) 0.4402(6) 0.3946(5)
H5 H 0.3752 0.5006 0.4177
C11 C 0.1842(7) 0.4833(7) 0.3942(5)
H6 H 0.1160 0.5740 0.4149
C12 C 0.1267(7) 0.3944(7) 0.3636(6)
H7 H 0.0205 0.4217 0.3658
C13 C 0.2318(7) 0.2637(8) 0.3295(6)
H8 H 0.1958 0.2035 0.3068
C14 C 0.3880(7) 0.2209(7) 0.3285(5)
H9 H 0.4562 0.1320 0.3054
C15 C 0.7225(6) 0.1252(6) 0.3129(4)
C16 C 0.8130(8) 0.1334(8) 0.2134(5)
H10 H 0.8156 0.2293 0.1711
C17 C 0.8993(9) 0.0014(9) 0.1759(6)
H11 H 0.9610 0.0095 0.1092
C18 C 0.8966(8) -0.1401(8) 0.2339(6)
H12 H 0.9539 -0.2281 0.2070
C19 C 0.8093(7) -0.1512(7) 0.3314(6)
H13 H 0.8065 -0.2480 0.3717
C20 C 0.7239(7) -0.0215(7) 0.3727(5)
H14 H 0.6668 -0.0325 0.4411
C21 C 0.6574(6) 0.2292(6) 0.4747(4)
C22 C 0.8125(7) 0.1822(6) 0.4883(5)
H15 H 0.8904 0.1795 0.4291
C23 C 0.8501(8) 0.1399(7) 0.5892(6)
H16 H 0.9534 0.1095 0.5972
C24 C 0.7373(9) 0.1419(7) 0.6780(6)
H17 H 0.7640 0.1131 0.7456
C25 C 0.5856(8) 0.1867(7) 0.6662(5)
H18 H 0.5087 0.1882 0.7260
C26 C 0.5460(7) 0.2301(6) 0.5650(5)
H19 H 0.4423 0.2604 0.5580
H20 H 0.530(5) 0.460(6) 0.202(4)
loop_
_geom_bond_atom_site_label_1
_geom_bond_atom_site_label_2
_geom_bond_site_symmetry_1
_geom_bond_site_symmetry_2
I1 C8 1_555 1_555
N1 C1 1_555 1_555
O1 C1 1_555 1_555
C1 C2 1_555 1_555
C2 C9 1_555 1_555
C3 N1 1_555 1_555
C4 C3 1_555 1_555
H1 C4 1_555 1_555
C5 C4 1_555 1_555
H2 C5 1_555 1_555
C6 C5 1_555 1_555
H3 C6 1_555 1_555
C7 C6 1_555 1_555
H4 C7 1_555 1_555
C8 C3 1_555 1_555
C9 C10 1_555 1_555
C10 H5 1_555 1_555
C11 C10 1_555 1_555
H6 C11 1_555 1_555
C12 C11 1_555 1_555
H7 C12 1_555 1_555
C13 C12 1_555 1_555
H8 C13 1_555 1_555
C14 C9 1_555 1_555
H9 C14 1_555 1_555
C15 C2 1_555 1_555
C16 C15 1_555 1_555
H10 C16 1_555 1_555
C17 C16 1_555 1_555
H11 C17 1_555 1_555
C18 C17 1_555 1_555
H12 C18 1_555 1_555
C19 C18 1_555 1_555
H13 C19 1_555 1_555
C20 C15 1_555 1_555
H14 C20 1_555 1_555
C21 C2 1_555 1_555
C22 C21 1_555 1_555
H15 C22 1_555 1_555
C23 C22 1_555 1_555
H16 C23 1_555 1_555
C24 C23 1_555 1_555
H17 C24 1_555 1_555
C25 C24 1_555 1_555
H18 C25 1_555 1_555
C26 C21 1_555 1_555
H19 C26 1_555 1_555
H20 N1 1_555 1_555
C7 C8 1_555 1_555
C13 C14 1_555 1_555
C19 C20 1_555 1_555
C25 C26 1_555 1_555

#END
