
#######################################################################
#
#                 Cambridge Crystallographic Data Centre
#                                CCDC 
#
#######################################################################
#
# If this CIF has been generated from an entry in the Cambridge 
# Structural Database, then it will include bibliographic, chemical, 
# crystal, experimental, refinement or atomic coordinate data resulting 
# from the CCDC's data processing and validation procedures.
#
#######################################################################

data_KIZRES
_chemical_formula_moiety         'C13 H12 N4 O4,H2 O1'
_chemical_name_systematic        
"N'-(2-Hydroxybenzylidene)-1-methyl-4-nitro-1H-pyrrole-2-carbohydrazide monohydrate"
_symmetry_cell_setting           monoclinic
_symmetry_space_group_name_H-M   'P 21/c'
_symmetry_Int_Tables_number      14
_space_group_name_Hall           '-P 2ybc'
loop_
_symmetry_equiv_pos_site_id
_symmetry_equiv_pos_as_xyz
1 x,y,z
2 -x,1/2+y,1/2-z
3 -x,-y,-z
4 x,1/2-y,1/2+z
_cell_length_a                   14.2124(14)
_cell_length_b                   7.1502(8)
_cell_length_c                   14.2714(15)
_cell_angle_alpha                90
_cell_angle_beta                 103.1540(10)
_cell_angle_gamma                90
_cell_volume                     1412.23
_exptl_crystal_colour            yellow
_exptl_crystal_description       needle
_cell_formula_units_Z            4
loop_
_atom_site_label
_atom_site_type_symbol
_atom_site_fract_x
_atom_site_fract_y
_atom_site_fract_z
N1 N 0.5505(2) 0.2243(5) 0.5188(2)
H1 H 0.5722 0.2018 0.5790
N2 N 0.4559(2) 0.2701(5) 0.4828(2)
N3 N 0.7786(2) 0.1610(5) 0.4431(2)
N4 N 0.9240(3) 0.0332(6) 0.6704(3)
O1 O 0.5774(2) 0.2470(5) 0.3701(2)
O2 O 1.0054(2) 0.0049(5) 0.6575(2)
O3 O 0.9038(2) 0.0157(6) 0.7487(2)
O4 O 0.3105(2) 0.3729(6) 0.3451(2)
H2 H 0.3671 0.3485 0.3699
C1 C 0.6088(3) 0.2156(6) 0.4560(3)
C2 C 0.7097(3) 0.1680(6) 0.4989(3)
C3 C 0.7539(3) 0.1220(6) 0.5910(3)
H3 H 0.7254 0.1148 0.6435
C4 C 0.8506(3) 0.0879(6) 0.5909(3)
C5 C 0.8630(3) 0.1143(6) 0.5005(3)
H4 H 0.9212 0.1019 0.4816
C6 C 0.7673(3) 0.1965(8) 0.3406(3)
H5 H 0.8286 0.1827 0.3238
H6 H 0.7438 0.3215 0.3260
H7 H 0.7221 0.1089 0.3044
C7 C 0.4001(3) 0.2772(6) 0.5419(3)
H8 H 0.4250 0.2520 0.6068
C8 C 0.2994(3) 0.3236(6) 0.5087(3)
C9 C 0.2582(3) 0.3676(7) 0.4126(3)
C10 C 0.1602(3) 0.4028(7) 0.3838(4)
H9 H 0.1329 0.4295 0.3196
C11 C 0.1034(3) 0.3987(7) 0.4488(4)
H10 H 0.0380 0.4264 0.4288
C12 C 0.1417(3) 0.3542(7) 0.5437(4)
H11 H 0.1018 0.3488 0.5870
C13 C 0.2389(3) 0.3177(7) 0.5745(3)
H12 H 0.2648 0.2891 0.6387
O5 O 0.5687(2) 0.4557(5) 0.2035(2)
H13 H 0.5639 0.4067 0.2565
H14 H 0.5266 0.5419 0.1905
loop_
_geom_bond_atom_site_label_1
_geom_bond_atom_site_label_2
_geom_bond_site_symmetry_1
_geom_bond_site_symmetry_2
N1 H1 1_555 1_555
N2 N1 1_555 1_555
N3 C2 1_555 1_555
N4 O2 1_555 1_555
O1 C1 1_555 1_555
O3 N4 1_555 1_555
O4 H2 1_555 1_555
C1 N1 1_555 1_555
C2 C1 1_555 1_555
C3 C2 1_555 1_555
H3 C3 1_555 1_555
C4 N4 1_555 1_555
C5 N3 1_555 1_555
H4 C5 1_555 1_555
C6 N3 1_555 1_555
H5 C6 1_555 1_555
H6 C6 1_555 1_555
H7 C6 1_555 1_555
C7 N2 1_555 1_555
H8 C7 1_555 1_555
C8 C7 1_555 1_555
C9 O4 1_555 1_555
C10 C9 1_555 1_555
H9 C10 1_555 1_555
C11 C10 1_555 1_555
H10 C11 1_555 1_555
C12 C11 1_555 1_555
H11 C12 1_555 1_555
C13 C8 1_555 1_555
H12 C13 1_555 1_555
O5 H13 1_555 1_555
H14 O5 1_555 1_555
C3 C4 1_555 1_555
C4 C5 1_555 1_555
C8 C9 1_555 1_555
C12 C13 1_555 1_555

#END
