
#######################################################################
#
#                 Cambridge Crystallographic Data Centre
#                                CCDC 
#
#######################################################################
#
# If this CIF has been generated from an entry in the Cambridge 
# Structural Database, then it will include bibliographic, chemical, 
# crystal, experimental, refinement or atomic coordinate data resulting 
# from the CCDC's data processing and validation procedures.
#
#######################################################################

data_KIZROC
_chemical_formula_moiety         'C16 H16 N2 O4'
_chemical_name_systematic        "2,2'-(Ethane-1,2-diyldiimino)dibenzoic acid"
_symmetry_cell_setting           triclinic
_symmetry_space_group_name_H-M   'P -1'
_symmetry_Int_Tables_number      2
_space_group_name_Hall           '-P 1'
loop_
_symmetry_equiv_pos_site_id
_symmetry_equiv_pos_as_xyz
1 x,y,z
2 -x,-y,-z
_cell_length_a                   11.3854(11)
_cell_length_b                   12.0081(14)
_cell_length_c                   14.4804(16)
_cell_angle_alpha                80.5040(10)
_cell_angle_beta                 71.1460(10)
_cell_angle_gamma                82.903(2)
_cell_volume                     1842.58
_exptl_crystal_colour            colorless
_exptl_crystal_description       block
_cell_formula_units_Z            5
loop_
_atom_site_label
_atom_site_type_symbol
_atom_site_fract_x
_atom_site_fract_y
_atom_site_fract_z
N1 N 0.3678(3) 0.6309(2) 0.17204(19)
H1 H 0.3553 0.6926 0.1356
N2 N 0.2819(3) 0.3593(2) 0.1202(2)
H2 H 0.2863 0.2983 0.1599
O1 O 0.3453(2) 0.85772(18) 0.14770(19)
O2 O 0.3387(3) 0.94669(19) 0.27303(19)
H3 H 0.3383 1.0024 0.2319
O3 O 0.3143(2) 0.13174(18) 0.14753(19)
O4 O 0.3436(3) 0.0413(2) 0.0173(2)
H4 H 0.3437 -0.0143 0.0586
C1 C 0.3486(3) 0.8536(3) 0.2322(3)
C2 C 0.3612(3) 0.7479(3) 0.2969(2)
C3 C 0.3705(3) 0.6405(3) 0.2639(2)
C4 C 0.3838(3) 0.5434(3) 0.3307(3)
H5 H 0.3889 0.4720 0.3122
C5 C 0.3895(4) 0.5527(3) 0.4220(3)
H6 H 0.3999 0.4871 0.4638
C6 C 0.3800(3) 0.6574(3) 0.4544(3)
H7 H 0.3830 0.6625 0.5170
C7 C 0.3662(3) 0.7526(3) 0.3911(3)
H8 H 0.3598 0.8231 0.4117
C8 C 0.3248(3) 0.1356(3) 0.0600(3)
C9 C 0.3166(3) 0.2394(3) -0.0081(2)
C10 C 0.2926(3) 0.3476(3) 0.0256(2)
C11 C 0.2785(3) 0.4419(3) -0.0435(3)
H9 H 0.2607 0.5137 -0.0238
C12 C 0.2902(3) 0.4305(3) -0.1388(3)
H10 H 0.2801 0.4946 -0.1821
C13 C 0.3169(3) 0.3253(3) -0.1721(3)
H11 H 0.3264 0.3184 -0.2372
C14 C 0.3289(3) 0.2321(3) -0.1059(3)
H12 H 0.3458 0.1612 -0.1271
C15 C 0.3840(3) 0.5261(3) 0.1304(2)
H13 H 0.4458 0.4754 0.1522
H14 H 0.4152 0.5421 0.0592
C16 C 0.2635(3) 0.4667(3) 0.1594(2)
H15 H 0.2305 0.4532 0.2306
H16 H 0.2026 0.5161 0.1352
N3 N 0.8555(2) 0.2956(2) 0.2461(2)
H17 H 0.7868 0.3004 0.2934
N4 N 1.0628(2) 0.3027(2) 0.3943(2)
H18 H 1.1303 0.2911 0.3473
O5 O 0.6124(2) 0.2571(2) 0.30810(16)
O6 O 0.5268(2) 0.2264(2) 0.19703(18)
H19 H 0.4661 0.2193 0.2465
O7 O 1.3114(2) 0.2472(2) 0.34437(17)
O8 O 1.4053(2) 0.2550(2) 0.45660(16)
H20 H 1.4658 0.2346 0.4122
C17 C 0.6236(3) 0.2467(3) 0.2215(3)
C18 C 0.7394(3) 0.2574(3) 0.1408(2)
C19 C 0.8505(3) 0.2814(3) 0.1559(2)
C20 C 0.9575(3) 0.2910(3) 0.0732(3)
H21 H 1.0312 0.3077 0.0808
C21 C 0.9564(4) 0.2763(3) -0.0189(3)
H22 H 1.0289 0.2829 -0.0720
C22 C 0.8478(4) 0.2518(3) -0.0330(3)
H23 H 0.8476 0.2418 -0.0953
C23 C 0.7405(3) 0.2423(3) 0.0458(3)
H24 H 0.6679 0.2257 0.0364
C24 C 1.3037(3) 0.2623(3) 0.4292(2)
C25 C 1.1878(3) 0.2919(3) 0.5048(2)
C26 C 1.0723(3) 0.3105(3) 0.4854(2)
C27 C 0.9658(3) 0.3394(3) 0.5629(3)
H25 H 0.8890 0.3537 0.5518
C28 C 0.9735(4) 0.3469(4) 0.6543(3)
H26 H 0.9014 0.3633 0.7046
C29 C 1.0864(4) 0.3305(4) 0.6729(3)
H27 H 1.0911 0.3384 0.7344
C30 C 1.1922(3) 0.3020(3) 0.5985(3)
H28 H 1.2682 0.2892 0.6111
C31 C 0.9704(3) 0.3030(3) 0.2662(3)
H29 H 1.0114 0.3685 0.2258
H30 H 1.0255 0.2360 0.2493
C32 C 0.9459(3) 0.3129(3) 0.3731(2)
H31 H 0.9019 0.3856 0.3878
H32 H 0.8942 0.2538 0.4140
N5 N 0.8992(3) 1.0049(2) 0.4227(2)
H33 H 0.8309 1.0193 0.4680
O9 O 0.6492(2) 1.0102(2) 0.47989(17)
O10 O 0.5590(2) 0.9874(2) 0.36889(17)
H34 H 0.4978 0.9820 0.4182
C33 C 0.6582(3) 0.9971(3) 0.3945(3)
C34 C 0.7771(3) 0.9909(3) 0.3146(2)
C35 C 0.8921(3) 0.9940(3) 0.3321(2)
C36 C 1.0020(3) 0.9867(3) 0.2509(3)
H35 H 1.0790 0.9893 0.2597
C37 C 0.9965(4) 0.9760(3) 0.1601(3)
H36 H 1.0700 0.9713 0.1081
C38 C 0.8844(4) 0.9721(3) 0.1434(3)
H37 H 0.8820 0.9649 0.0811
C39 C 0.7768(4) 0.9790(3) 0.2206(3)
H38 H 0.7012 0.9756 0.2099
C40 C 1.0137(3) 0.9939(3) 0.4473(2)
H39 H 1.0674 1.0518 0.4065
H40 H 1.0568 0.9205 0.4347
N5A N 1.1008(3) 0.9951(2) 0.5773(2)
H33A H 1.1691 0.9807 0.5320
O9A O 1.3508(2) 0.9898(2) 0.52011(17)
O10A O 1.4410(2) 1.0126(2) 0.63111(17)
H34A H 1.5022 1.0180 0.5818
C33A C 1.3418(3) 1.0029(3) 0.6055(3)
C34A C 1.2229(3) 1.0091(3) 0.6854(2)
C35A C 1.1079(3) 1.0060(3) 0.6679(2)
C36A C 0.9980(3) 1.0133(3) 0.7491(3)
H35A H 0.9210 1.0107 0.7403
C37A C 1.0035(4) 1.0240(3) 0.8399(3)
H36A H 0.9300 1.0287 0.8919
C38A C 1.1156(4) 1.0279(3) 0.8566(3)
H37A H 1.1180 1.0351 0.9189
C39A C 1.2232(4) 1.0210(3) 0.7794(3)
H38A H 1.2988 1.0244 0.7901
C40A C 0.9863(3) 1.0061(3) 0.5527(2)
H39A H 0.9326 0.9482 0.5935
H40A H 0.9432 1.0795 0.5653
loop_
_geom_bond_atom_site_label_1
_geom_bond_atom_site_label_2
_geom_bond_site_symmetry_1
_geom_bond_site_symmetry_2
N1 H1 1_555 1_555
N2 H2 1_555 1_555
O1 C1 1_555 1_555
O2 H3 1_555 1_555
O3 C8 1_555 1_555
O4 H4 1_555 1_555
C1 O2 1_555 1_555
C2 C1 1_555 1_555
C3 N1 1_555 1_555
C4 C3 1_555 1_555
H5 C4 1_555 1_555
C5 C4 1_555 1_555
H6 C5 1_555 1_555
C6 C5 1_555 1_555
H7 C6 1_555 1_555
C7 C2 1_555 1_555
H8 C7 1_555 1_555
C8 O4 1_555 1_555
C9 C8 1_555 1_555
C10 N2 1_555 1_555
C11 C10 1_555 1_555
H9 C11 1_555 1_555
C12 C11 1_555 1_555
H10 C12 1_555 1_555
C13 C12 1_555 1_555
H11 C13 1_555 1_555
C14 C9 1_555 1_555
H12 C14 1_555 1_555
C15 N1 1_555 1_555
H13 C15 1_555 1_555
H14 C15 1_555 1_555
C16 N2 1_555 1_555
H15 C16 1_555 1_555
H16 C16 1_555 1_555
N3 H17 1_555 1_555
N4 H18 1_555 1_555
O5 C17 1_555 1_555
O6 H19 1_555 1_555
O7 C24 1_555 1_555
O8 H20 1_555 1_555
C17 O6 1_555 1_555
C18 C17 1_555 1_555
C19 N3 1_555 1_555
C20 C19 1_555 1_555
H21 C20 1_555 1_555
C21 C20 1_555 1_555
H22 C21 1_555 1_555
C22 C21 1_555 1_555
H23 C22 1_555 1_555
C23 C18 1_555 1_555
H24 C23 1_555 1_555
C24 O8 1_555 1_555
C25 C24 1_555 1_555
C26 N4 1_555 1_555
C27 C26 1_555 1_555
H25 C27 1_555 1_555
C28 C27 1_555 1_555
H26 C28 1_555 1_555
C29 C28 1_555 1_555
H27 C29 1_555 1_555
C30 C25 1_555 1_555
H28 C30 1_555 1_555
C31 N3 1_555 1_555
H29 C31 1_555 1_555
H30 C31 1_555 1_555
C32 N4 1_555 1_555
H31 C32 1_555 1_555
H32 C32 1_555 1_555
N5 H33 1_555 1_555
O9 C33 1_555 1_555
O10 H34 1_555 1_555
C33 O10 1_555 1_555
C34 C33 1_555 1_555
C35 N5 1_555 1_555
C36 C35 1_555 1_555
H35 C36 1_555 1_555
C37 C36 1_555 1_555
H36 C37 1_555 1_555
C38 C37 1_555 1_555
H37 C38 1_555 1_555
C39 C34 1_555 1_555
H38 C39 1_555 1_555
C40 N5 1_555 1_555
H39 C40 1_555 1_555
H40 C40 1_555 1_555
N5A H33A 1_555 1_555
O9A C33A 1_555 1_555
O10A H34A 1_555 1_555
C33A O10A 1_555 1_555
C34A C33A 1_555 1_555
C35A N5A 1_555 1_555
C36A C35A 1_555 1_555
H35A C36A 1_555 1_555
C37A C36A 1_555 1_555
H36A C37A 1_555 1_555
C38A C37A 1_555 1_555
H37A C38A 1_555 1_555
C39A C34A 1_555 1_555
H38A C39A 1_555 1_555
C40A C40 1_555 1_555
H39A C40A 1_555 1_555
H40A C40A 1_555 1_555
C2 C3 1_555 1_555
C6 C7 1_555 1_555
C9 C10 1_555 1_555
C13 C14 1_555 1_555
C15 C16 1_555 1_555
C18 C19 1_555 1_555
C22 C23 1_555 1_555
C25 C26 1_555 1_555
C29 C30 1_555 1_555
C31 C32 1_555 1_555
C34 C35 1_555 1_555
C38 C39 1_555 1_555
N5A C40A 1_555 1_555
C34A C35A 1_555 1_555
C38A C39A 1_555 1_555

#END
