
#######################################################################
#
#                 Cambridge Crystallographic Data Centre
#                                CCDC 
#
#######################################################################
#
# If this CIF has been generated from an entry in the Cambridge 
# Structural Database, then it will include bibliographic, chemical, 
# crystal, experimental, refinement or atomic coordinate data resulting 
# from the CCDC's data processing and validation procedures.
#
#######################################################################

data_KIZRAN
_chemical_formula_moiety         'C26 H20 I1 N1 O1'
_chemical_name_systematic        2-Iodo-N-(trityl)benzamide
_symmetry_cell_setting           orthorhombic
_symmetry_space_group_name_H-M   'P c a 21'
_symmetry_Int_Tables_number      29
_space_group_name_Hall           'P 2c -2ac'
loop_
_symmetry_equiv_pos_site_id
_symmetry_equiv_pos_as_xyz
1 x,y,z
2 -x,-y,1/2+z
3 1/2+x,-y,z
4 1/2-x,y,1/2+z
_cell_length_a                   22.323(3)
_cell_length_b                   9.4696(12)
_cell_length_c                   9.9570(13)
_cell_angle_alpha                90
_cell_angle_beta                 90
_cell_angle_gamma                90
_cell_volume                     2104.81
_exptl_crystal_colour            colorless
_exptl_crystal_description       prismatic
_chemical_melting_point          '197-198 deg.C'
_cell_formula_units_Z            4
_exptl_crystal_recrystallization_method chloroform
loop_
_atom_site_label
_atom_site_type_symbol
_atom_site_fract_x
_atom_site_fract_y
_atom_site_fract_z
I1 I 0.751029(19) 0.57140(5) 0.8415(3)
N1 N 0.71528(19) 0.9657(5) 0.8285(9)
H1 H 0.7313 0.9865 0.7525
O1 O 0.7366(2) 0.9057(6) 1.0366(6)
C1 C 0.7509(2) 0.9093(7) 0.9214(8)
C2 C 0.65087(18) 0.9955(5) 0.8446(10)
C3 C 0.8110(3) 0.8581(8) 0.8618(14)
C4 C 0.8581(3) 0.9544(8) 0.8583(13)
H2 H 0.8510 1.0508 0.8664
C5 C 0.9157(2) 0.9032(8) 0.8423(12)
H3 H 0.9474 0.9656 0.8295
C6 C 0.9257(3) 0.7651(9) 0.8454(17)
H4 H 0.9648 0.7321 0.8530
C7 C 0.8797(3) 0.6707(7) 0.8376(16)
H5 H 0.8876 0.5744 0.8334
C8 C 0.8227(2) 0.7175(6) 0.8360(15)
C9 C 0.62049(19) 0.8474(5) 0.8367(10)
C10 C 0.6097(3) 0.7722(9) 0.7201(10)
H6 H 0.6171 0.8128 0.6367
C11 C 0.5891(4) 0.6425(8) 0.7288(10)
H7 H 0.5816 0.5961 0.6482
C12 C 0.5779(3) 0.5721(7) 0.8388(16)
H8 H 0.5632 0.4803 0.8333
C13 C 0.5883(5) 0.6354(13) 0.9688(13)
H9 H 0.5817 0.5885 1.0496
C14 C 0.6102(4) 0.7816(10) 0.9602(11)
H10 H 0.6175 0.8316 1.0389
C15 C 0.6340(3) 1.0898(8) 0.9618(8)
C16 C 0.5731(4) 1.0959(11) 1.0058(9)
H11 H 0.5452 1.0327 0.9711
C17 C 0.5562(4) 1.1908(9) 1.0957(11)
H12 H 0.5162 1.1928 1.1221
C18 C 0.5945(6) 1.2847(15) 1.1507(11)
H13 H 0.5824 1.3487 1.2161
C19 C 0.6531(6) 1.2803(12) 1.1037(14)
H14 H 0.6804 1.3440 1.1398
C20 C 0.6732(5) 1.1885(11) 1.0079(10)
H15 H 0.7122 1.1933 0.9754
C21 C 0.6339(3) 1.0861(9) 0.7213(8)
C22 C 0.5775(4) 1.0888(8) 0.6753(9)
H16 H 0.5505 1.0220 0.7073
C23 C 0.5574(5) 1.1890(13) 0.5803(12)
H17 H 0.5180 1.1881 0.5502
C24 C 0.5969(6) 1.2868(9) 0.5338(10)
H18 H 0.5832 1.3548 0.4737
C25 C 0.6566(5) 1.2899(10) 0.5718(11)
H19 H 0.6835 1.3562 0.5381
C26 C 0.6739(4) 1.1854(9) 0.6651(8)
H20 H 0.7138 1.1817 0.6912
loop_
_geom_bond_atom_site_label_1
_geom_bond_atom_site_label_2
_geom_bond_site_symmetry_1
_geom_bond_site_symmetry_2
I1 C8 1_555 1_555
N1 H1 1_555 1_555
O1 C1 1_555 1_555
C1 N1 1_555 1_555
C2 N1 1_555 1_555
C3 C1 1_555 1_555
C4 C3 1_555 1_555
H2 C4 1_555 1_555
C5 C4 1_555 1_555
H3 C5 1_555 1_555
C6 C5 1_555 1_555
H4 C6 1_555 1_555
C7 C6 1_555 1_555
H5 C7 1_555 1_555
C8 C3 1_555 1_555
C9 C2 1_555 1_555
C10 C9 1_555 1_555
H6 C10 1_555 1_555
C11 C10 1_555 1_555
H7 C11 1_555 1_555
C12 C11 1_555 1_555
H8 C12 1_555 1_555
C13 C12 1_555 1_555
H9 C13 1_555 1_555
C14 C9 1_555 1_555
H10 C14 1_555 1_555
C15 C2 1_555 1_555
C16 C15 1_555 1_555
H11 C16 1_555 1_555
C17 C16 1_555 1_555
H12 C17 1_555 1_555
C18 C17 1_555 1_555
H13 C18 1_555 1_555
C19 C18 1_555 1_555
H14 C19 1_555 1_555
C20 C15 1_555 1_555
H15 C20 1_555 1_555
C21 C2 1_555 1_555
C22 C21 1_555 1_555
H16 C22 1_555 1_555
C23 C22 1_555 1_555
H17 C23 1_555 1_555
C24 C23 1_555 1_555
H18 C24 1_555 1_555
C25 C24 1_555 1_555
H19 C25 1_555 1_555
C26 C21 1_555 1_555
H20 C26 1_555 1_555
C7 C8 1_555 1_555
C13 C14 1_555 1_555
C19 C20 1_555 1_555
C25 C26 1_555 1_555

#END
