
#######################################################################
#
#                 Cambridge Crystallographic Data Centre
#                                CCDC 
#
#######################################################################
#
# If this CIF has been generated from an entry in the Cambridge 
# Structural Database, then it will include bibliographic, chemical, 
# crystal, experimental, refinement or atomic coordinate data resulting 
# from the CCDC's data processing and validation procedures.
#
#######################################################################

data_KIZWIC
_chemical_formula_moiety         'C3 N5 O4 1-,2(H2 O1),Na1 1+'
_chemical_name_systematic        
'sodium 6-nitro-5-oxo-5\l^5^-pyrazolo[3,4-c][1,2,5]oxadiazol-4-ide dihydrate'
_symmetry_cell_setting           monoclinic
_symmetry_space_group_name_H-M   'P 21/c'
_symmetry_Int_Tables_number      14
_space_group_name_Hall           '-P 2ybc'
loop_
_symmetry_equiv_pos_site_id
_symmetry_equiv_pos_as_xyz
1 x,y,z
2 -x,1/2+y,1/2-z
3 -x,-y,-z
4 x,1/2-y,1/2+z
_cell_length_a                   6.3579(7)
_cell_length_b                   16.774(2)
_cell_length_c                   8.6224(11)
_cell_angle_alpha                90
_cell_angle_beta                 110.750(4)
_cell_angle_gamma                90
_cell_volume                     859.91
_exptl_crystal_description       block
_cell_formula_units_Z            4
loop_
_atom_site_label
_atom_site_type_symbol
_atom_site_fract_x
_atom_site_fract_y
_atom_site_fract_z
C1 C 0.2647(4) 0.03615(18) 0.5967(4)
C2 C 0.2860(5) 0.10772(17) 0.6900(3)
C3 C 0.2537(5) 0.06133(17) 0.4391(4)
N1 N 0.2994(4) 0.09246(15) 0.8399(3)
N2 N 0.2632(4) -0.02531(15) 0.6910(3)
N3 N 0.2880(4) 0.17460(14) 0.5988(3)
N4 N 0.2677(4) 0.14429(15) 0.4480(3)
N5 N 0.2283(4) 0.01615(15) 0.2995(3)
O1 O 0.2851(4) 0.01005(12) 0.8445(3)
O2 O 0.2641(4) 0.19191(12) 0.3362(3)
O3 O 0.2160(4) 0.04775(13) 0.1665(3)
O4 O 0.2206(3) -0.05767(12) 0.3166(3)
Na1 Na 0.27285(18) 0.18094(6) 1.06568(14)
O5 O 0.6797(4) 0.18946(13) 1.1845(3)
H1 H 0.714(5) 0.1491(14) 1.232(4)
H2 H 0.721(5) 0.2252(15) 1.247(4)
O6 O -0.1322(4) 0.18591(13) 0.9282(3)
H3 H -0.188(5) 0.1867(19) 0.999(3)
H4 H -0.156(5) 0.1444(14) 0.879(4)
loop_
_geom_bond_atom_site_label_1
_geom_bond_atom_site_label_2
_geom_bond_site_symmetry_1
_geom_bond_site_symmetry_2
C1 C2 1_555 1_555
C2 N1 1_555 1_555
C3 C1 1_555 1_555
N1 O1 1_555 1_555
N2 C1 1_555 1_555
N3 C2 1_555 1_555
N4 C3 1_555 1_555
N5 C3 1_555 1_555
O1 N2 1_555 1_555
O2 N4 1_555 1_555
O3 N5 1_555 1_555
O4 N5 1_555 1_555
O5 H1 1_555 1_555
H2 O5 1_555 1_555
O6 H3 1_555 1_555
H4 O6 1_555 1_555
N3 N4 1_555 1_555

#END
