
#######################################################################
#
#                 Cambridge Crystallographic Data Centre
#                                CCDC 
#
#######################################################################
#
# If this CIF has been generated from an entry in the Cambridge 
# Structural Database, then it will include bibliographic, chemical, 
# crystal, experimental, refinement or atomic coordinate data resulting 
# from the CCDC's data processing and validation procedures.
#
#######################################################################

data_KOBGAJ
_chemical_name_common            (RRR)-Siliphosborane
_chemical_formula_moiety         'C34 H60 B3 P3 Si1'
_chemical_name_systematic        
(1,1,1-tris(Boranato-phenyl-t-butylphosphino)methyl)methylsilane
_symmetry_cell_setting           orthorhombic
_symmetry_space_group_name_H-M   'P 21 21 21'
_symmetry_Int_Tables_number      19
_space_group_name_Hall           'P 2ac 2ab'
loop_
_symmetry_equiv_pos_site_id
_symmetry_equiv_pos_as_xyz
1 x,y,z
2 1/2+x,1/2-y,-z
3 -x,1/2+y,1/2-z
4 1/2-x,-y,1/2+z
_cell_length_a                   19.85(2)
_cell_length_b                   13.051(9)
_cell_length_c                   15.91(2)
_cell_angle_alpha                90
_cell_angle_beta                 90
_cell_angle_gamma                90
_cell_volume                     4121.68
_chemical_melting_point          215-217deg.C
_cell_formula_units_Z            4
loop_
_atom_site_label
_atom_site_type_symbol
_atom_site_fract_x
_atom_site_fract_y
_atom_site_fract_z
Si1 Si 0.7211(2) 0.1740(3) 0.6485(3)
C1 C 0.7257(8) 0.2379(13) 0.7537(10)
C2 C 0.7161(8) 0.0292(12) 0.6644(8)
C3 C 0.6383(8) 0.2131(13) 0.5960(10)
C4 C 0.7895(9) 0.2089(14) 0.5765(11)
P1 P 0.7450(2) 0.3738(3) 0.7620(3)
P2 P 0.7890(2) -0.0413(3) 0.6997(3)
P3 P 0.5601(2) 0.1549(4) 0.6293(3)
B1 B 0.6860(8) 0.4593(13) 0.6924(10)
B2 B 0.8354(6) 0.0189(10) 0.7984(8)
B3 B 0.5536(7) 0.1472(11) 0.7523(8)
C5 C 0.8339(9) 0.3945(13) 0.7334(10)
C6 C 0.8811(9) 0.3256(15) 0.7593(12)
C7 C 0.9550(10) 0.3478(19) 0.7329(14)
C8 C 0.9599(12) 0.4334(16) 0.6876(13)
C9 C 0.9159(13) 0.5002(21) 0.6612(15)
C10 C 0.8453(10) 0.4756(16) 0.6846(13)
C11 C 0.7449(9) 0.4077(14) 0.8760(11)
C12 C 0.6686(11) 0.3917(19) 0.9051(14)
C13 C 0.7890(10) 0.3449(16) 0.9300(12)
C14 C 0.7634(11) 0.5222(17) 0.8913(14)
C15 C 0.8423(8) -0.0522(11) 0.6082(9)
C16 C 0.8191(9) -0.0637(13) 0.5271(11)
C17 C 0.8616(10) -0.0734(17) 0.4593(11)
C18 C 0.9282(10) -0.0756(15) 0.4754(13)
C19 C 0.9543(12) -0.0680(16) 0.5555(13)
C20 C 0.9106(9) -0.0502(15) 0.6219(11)
C21 C 0.7573(10) -0.1725(15) 0.7217(12)
C22 C 0.7089(12) -0.2076(18) 0.6501(14)
C23 C 0.8198(11) -0.2416(18) 0.7426(14)
C24 C 0.7204(13) -0.1635(21) 0.8074(14)
C25 C 0.5555(8) 0.0284(12) 0.5826(9)
C26 C 0.5240(9) -0.0528(13) 0.6305(11)
C27 C 0.5225(9) -0.1498(16) 0.5935(12)
C28 C 0.5476(9) -0.1657(17) 0.5197(12)
C29 C 0.5769(9) -0.0967(14) 0.4751(11)
C30 C 0.5824(8) 0.0049(14) 0.5074(10)
C31 C 0.4926(10) 0.2313(15) 0.5770(12)
C32 C 0.4259(10) 0.1698(16) 0.5868(13)
C33 C 0.5078(11) 0.2528(18) 0.4866(11)
C34 C 0.4860(11) 0.3310(16) 0.6226(13)
loop_
_geom_bond_atom_site_label_1
_geom_bond_atom_site_label_2
_geom_bond_site_symmetry_1
_geom_bond_site_symmetry_2
Si1 C1 1_555 1_555
C1 P1 1_555 1_555
C2 Si1 1_555 1_555
C3 Si1 1_555 1_555
C4 Si1 1_555 1_555
P1 B1 1_555 1_555
P2 C2 1_555 1_555
P3 C3 1_555 1_555
B2 P2 1_555 1_555
B3 P3 1_555 1_555
C5 P1 1_555 1_555
C6 C5 1_555 1_555
C7 C6 1_555 1_555
C8 C7 1_555 1_555
C9 C8 1_555 1_555
C10 C5 1_555 1_555
C11 P1 1_555 1_555
C12 C11 1_555 1_555
C13 C11 1_555 1_555
C14 C11 1_555 1_555
C15 P2 1_555 1_555
C16 C15 1_555 1_555
C17 C16 1_555 1_555
C18 C17 1_555 1_555
C19 C18 1_555 1_555
C20 C15 1_555 1_555
C21 P2 1_555 1_555
C22 C21 1_555 1_555
C23 C21 1_555 1_555
C24 C21 1_555 1_555
C25 P3 1_555 1_555
C26 C25 1_555 1_555
C27 C26 1_555 1_555
C28 C27 1_555 1_555
C29 C28 1_555 1_555
C30 C25 1_555 1_555
C31 P3 1_555 1_555
C32 C31 1_555 1_555
C33 C31 1_555 1_555
C34 C31 1_555 1_555
C9 C10 1_555 1_555
C19 C20 1_555 1_555
C29 C30 1_555 1_555

#END
