
#######################################################################
#
#                 Cambridge Crystallographic Data Centre
#                                CCDC 
#
#######################################################################
#
# If this CIF has been generated from an entry in the Cambridge 
# Structural Database, then it will include bibliographic, chemical, 
# crystal, experimental, refinement or atomic coordinate data resulting 
# from the CCDC's data processing and validation procedures.
#
#######################################################################

data_KOBHUH
_chemical_formula_moiety         'C40 H32 O12,C4 H8 O2,0.2(C6 H14)'
_chemical_name_systematic        
'3,9,15,21-tetraoxopentacyclo[20.2.2.2^4,7^.2^10,13^.2^16,19^]dotriaconta-1(24),4,6,10,12,16,18,22,25,27,29,31-dodecaene-2,8,14,20-tetrayl tetraacetate ethyl acetate hexane solvate'
_symmetry_cell_setting           tetragonal
_symmetry_space_group_name_H-M   'P -4 21 c'
_symmetry_Int_Tables_number      114
_space_group_name_Hall           'P -4 2n'
loop_
_symmetry_equiv_pos_site_id
_symmetry_equiv_pos_as_xyz
1 x,y,z
2 -x,-y,z
3 y,-x,-z
4 -y,x,-z
5 1/2-x,1/2+y,1/2-z
6 1/2+x,1/2-y,1/2-z
7 1/2-y,1/2-x,1/2+z
8 1/2+y,1/2+x,1/2+z
_cell_length_a                   14.2340(3)
_cell_length_b                   14.2340(3)
_cell_length_c                   10.2135(2)
_cell_angle_alpha                90
_cell_angle_beta                 90
_cell_angle_gamma                90
_cell_volume                     2069.32
_exptl_crystal_colour            colorless
_exptl_crystal_description       block
_cell_formula_units_Z            2
loop_
_atom_site_label
_atom_site_type_symbol
_atom_site_fract_x
_atom_site_fract_y
_atom_site_fract_z
O1 O 0.29382(7) 0.23752(8) 0.34471(11)
O2 O 0.39591(7) 0.14832(8) 0.52112(11)
O3 O 0.39987(9) 0.29062(10) 0.61511(13)
C1 C -0.04574(11) 0.26571(10) 0.45581(14)
C2 C 0.00159(12) 0.23887(12) 0.56800(15)
H1 H -0.0311 0.2356 0.6490
C3 C 0.09688(11) 0.21658(12) 0.56311(14)
H2 H 0.1288 0.1976 0.6403
C4 C 0.14518(11) 0.22226(10) 0.44470(14)
C5 C 0.09669(11) 0.24759(12) 0.33199(16)
H3 H 0.1289 0.2505 0.2506
C6 C 0.00216(12) 0.26847(12) 0.33732(15)
H4 H -0.0304 0.2848 0.2594
C7 C 0.24822(10) 0.20549(10) 0.43438(14)
C8 C 0.29544(10) 0.14751(11) 0.54134(13)
H5 H 0.2813 0.1766 0.6283
C9 C 0.44008(12) 0.22664(13) 0.56298(16)
C10 C 0.54316(13) 0.22193(18) 0.5382(2)
H6 H 0.5650 0.2824 0.5036
H7 H 0.5563 0.1722 0.4743
H8 H 0.5760 0.2081 0.6203
O1B O 0.23752(8) -0.29382(7) 0.65529(11)
O2B O 0.14832(8) -0.39591(7) 0.47888(11)
O3B O 0.29062(10) -0.39987(9) 0.38489(13)
C1B C 0.26571(10) 0.04574(11) 0.54419(14)
C2B C 0.23887(12) -0.00159(12) 0.43200(15)
H1B H 0.2356 0.0311 0.3510
C3B C 0.21658(12) -0.09688(11) 0.43689(14)
H2B H 0.1976 -0.1288 0.3597
C4B C 0.22226(10) -0.14518(11) 0.55530(14)
C5B C 0.24759(12) -0.09669(11) 0.66801(16)
H3B H 0.2505 -0.1289 0.7494
C6B C 0.26847(12) -0.00216(12) 0.66268(15)
H4B H 0.2848 0.0304 0.7406
C7B C 0.20549(10) -0.24822(10) 0.56562(14)
C8B C 0.14751(11) -0.29544(10) 0.45866(13)
H5B H 0.1766 -0.2813 0.3717
C9B C 0.22664(13) -0.44008(12) 0.43702(16)
C10B C 0.22193(18) -0.54316(13) 0.4618(2)
H6B H 0.2824 -0.5650 0.4964
H7B H 0.1722 -0.5563 0.5257
H8B H 0.2081 -0.5760 0.3797
O1C O -0.23752(8) 0.29382(7) 0.65529(11)
O2C O -0.14832(8) 0.39591(7) 0.47888(11)
O3C O -0.29062(10) 0.39987(9) 0.38489(13)
C1C C -0.26571(10) -0.04574(11) 0.54419(14)
C2C C -0.23887(12) 0.00159(12) 0.43200(15)
H1C H -0.2356 -0.0311 0.3510
C3C C -0.21658(12) 0.09688(11) 0.43689(14)
H2C H -0.1976 0.1288 0.3597
C4C C -0.22226(10) 0.14518(11) 0.55530(14)
C5C C -0.24759(12) 0.09669(11) 0.66801(16)
H3C H -0.2505 0.1289 0.7494
C6C C -0.26847(12) 0.00216(12) 0.66268(15)
H4C H -0.2848 -0.0304 0.7406
C7C C -0.20549(10) 0.24822(10) 0.56562(14)
C8C C -0.14751(11) 0.29544(10) 0.45866(13)
H5C H -0.1766 0.2813 0.3717
C9C C -0.22664(13) 0.44008(12) 0.43702(16)
C10C C -0.22193(18) 0.54316(13) 0.4618(2)
H6C H -0.2824 0.5650 0.4964
H7C H -0.1722 0.5563 0.5257
H8C H -0.2081 0.5760 0.3797
O1A O -0.29382(7) -0.23752(8) 0.34471(11)
O2A O -0.39591(7) -0.14832(8) 0.52112(11)
O3A O -0.39987(9) -0.29062(10) 0.61511(13)
C1A C 0.04574(11) -0.26571(10) 0.45581(14)
C2A C -0.00159(12) -0.23887(12) 0.56800(15)
H1A H 0.0311 -0.2356 0.6490
C3A C -0.09688(11) -0.21658(12) 0.56311(14)
H2A H -0.1288 -0.1976 0.6403
C4A C -0.14518(11) -0.22226(10) 0.44470(14)
C5A C -0.09669(11) -0.24759(12) 0.33199(16)
H3A H -0.1289 -0.2505 0.2506
C6A C -0.00216(12) -0.26847(12) 0.33732(15)
H4A H 0.0304 -0.2848 0.2594
C7A C -0.24822(10) -0.20549(10) 0.43438(14)
C8A C -0.29544(10) -0.14751(11) 0.54134(13)
H5A H -0.2813 -0.1766 0.6283
C9A C -0.44008(12) -0.22664(13) 0.56298(16)
C10A C -0.54316(13) -0.22193(18) 0.5382(2)
H6A H -0.5650 -0.2824 0.5036
H7A H -0.5563 -0.1722 0.4743
H8A H -0.5760 -0.2081 0.6203
O4? O 0.4946(5) 0.5317(3) 0.4718(4)
O5? O 0.4373(5) 0.4057(4) 0.3684(7)
C11? C 0.4793(6) 0.4782(5) 0.3647(7)
C12? C 0.5183(7) 0.5151(7) 0.2409(7)
H9? H 0.5593 0.4676 0.2012
H10? H 0.5547 0.5721 0.2588
H11? H 0.4668 0.5299 0.1806
C13? C 0.4537(6) 0.5074(8) 0.5961(7)
H12? H 0.4118 0.4526 0.5839
H13? H 0.4147 0.5606 0.6267
C14? C 0.5252(6) 0.4842(7) 0.7004(9)
H14? H 0.5589 0.4268 0.6760
H15? H 0.4931 0.4746 0.7842
H16? H 0.5699 0.5362 0.7086
C15? C 0.508(4) 0.017(3) 0.799(2)
H17? H 0.5193 0.0615 0.8703
H18? H 0.5567 -0.0310 0.7982
H19? H 0.4462 -0.0127 0.8115
C16? C 0.508(3) 0.069(2) 0.671(2)
H20? H 0.4525 0.1104 0.6653
H21? H 0.5652 0.1083 0.6647
C17? C 0.507(2) 0.000(2) 0.560(2)
H22? H 0.4453 -0.0333 0.5560
H23? H 0.5572 -0.0474 0.5700
C18? C 0.522(3) 0.059(2) 0.439(2)
H24? H 0.4882 0.1194 0.4470
H25? H 0.5895 0.0715 0.4262
C19? C 0.483(3) 0.002(4) 0.327(2)
H26? H 0.4524 -0.0550 0.3609
H27? H 0.4358 0.0399 0.2794
C20? C 0.562(3) -0.024(4) 0.236(3)
H28? H 0.5363 -0.0608 0.1632
H29? H 0.6081 -0.0617 0.2837
H30? H 0.5916 0.0330 0.2024
loop_
_geom_bond_atom_site_label_1
_geom_bond_atom_site_label_2
_geom_bond_site_symmetry_1
_geom_bond_site_symmetry_2
O1 C7 1_555 1_555
O2 C8 1_555 1_555
O3 C9 1_555 1_555
C1 C2 1_555 1_555
C2 H1 1_555 1_555
C3 C2 1_555 1_555
H2 C3 1_555 1_555
C4 C3 1_555 1_555
C5 C4 1_555 1_555
H3 C5 1_555 1_555
C6 C1 1_555 1_555
H4 C6 1_555 1_555
C7 C4 1_555 1_555
C8 C7 1_555 1_555
H5 C8 1_555 1_555
C9 O2 1_555 1_555
C10 C9 1_555 1_555
H6 C10 1_555 1_555
H7 C10 1_555 1_555
H8 C10 1_555 1_555
O1B C7B 1_555 1_555
O2B C8B 1_555 1_555
O3B C9B 1_555 1_555
C1B C8 1_555 1_555
C2B C1B 1_555 1_555
H1B C2B 1_555 1_555
C3B C2B 1_555 1_555
H2B C3B 1_555 1_555
C4B C3B 1_555 1_555
C5B C4B 1_555 1_555
H3B C5B 1_555 1_555
C6B C1B 1_555 1_555
H4B C6B 1_555 1_555
C7B C4B 1_555 1_555
C8B C7B 1_555 1_555
H5B C8B 1_555 1_555
C9B O2B 1_555 1_555
C10B C9B 1_555 1_555
H6B C10B 1_555 1_555
H7B C10B 1_555 1_555
H8B C10B 1_555 1_555
O1C C7C 1_555 1_555
O2C C8C 1_555 1_555
O3C C9C 1_555 1_555
C1C C2C 1_555 1_555
C2C H1C 1_555 1_555
C3C C2C 1_555 1_555
H2C C3C 1_555 1_555
C4C C3C 1_555 1_555
C5C C4C 1_555 1_555
H3C C5C 1_555 1_555
C6C C1C 1_555 1_555
H4C C6C 1_555 1_555
C7C C4C 1_555 1_555
C8C C1 1_555 1_555
H5C C8C 1_555 1_555
C9C O2C 1_555 1_555
C10C C9C 1_555 1_555
H6C C10C 1_555 1_555
H7C C10C 1_555 1_555
H8C C10C 1_555 1_555
O1A C7A 1_555 1_555
O2A C8A 1_555 1_555
O3A C9A 1_555 1_555
C1A C8B 1_555 1_555
C2A C1A 1_555 1_555
H1A C2A 1_555 1_555
C3A C2A 1_555 1_555
H2A C3A 1_555 1_555
C4A C3A 1_555 1_555
C5A C4A 1_555 1_555
H3A C5A 1_555 1_555
C6A C1A 1_555 1_555
H4A C6A 1_555 1_555
C7A C4A 1_555 1_555
C8A C1C 1_555 1_555
H5A C8A 1_555 1_555
C9A O2A 1_555 1_555
C10A C9A 1_555 1_555
H6A C10A 1_555 1_555
H7A C10A 1_555 1_555
H8A C10A 1_555 1_555
C5 C6 1_555 1_555
C5B C6B 1_555 1_555
C5C C6C 1_555 1_555
C7C C8C 1_555 1_555
C5A C6A 1_555 1_555
C7A C8A 1_555 1_555

#END
