
#######################################################################
#
#                 Cambridge Crystallographic Data Centre
#                                CCDC 
#
#######################################################################
#
# If this CIF has been generated from an entry in the Cambridge 
# Structural Database, then it will include bibliographic, chemical, 
# crystal, experimental, refinement or atomic coordinate data resulting 
# from the CCDC's data processing and validation procedures.
#
#######################################################################

data_KOBJUJ
_chemical_formula_moiety         'C40 H32 O12,1.14(C3 H6 O1)'
_chemical_name_systematic        
'3,9,15,21-tetraoxopentacyclo[20.2.2.2^4,7^.2^10,13^.2^16,19^]dotriaconta-1(24),4,6,10,12,16,18,22,25,27,29,31-dodecaene-2,8,14,20-tetrayl tetraacetate acetone solvate'
_symmetry_cell_setting           tetragonal
_symmetry_space_group_name_H-M   'P -4 21 c'
_symmetry_Int_Tables_number      114
_space_group_name_Hall           'P -4 2n'
loop_
_symmetry_equiv_pos_site_id
_symmetry_equiv_pos_as_xyz
1 x,y,z
2 -x,-y,z
3 y,-x,-z
4 -y,x,-z
5 1/2-x,1/2+y,1/2-z
6 1/2+x,1/2-y,1/2-z
7 1/2-y,1/2-x,1/2+z
8 1/2+y,1/2+x,1/2+z
_cell_length_a                   14.2362(17)
_cell_length_b                   14.2362(17)
_cell_length_c                   10.2880(12)
_cell_angle_alpha                90
_cell_angle_beta                 90
_cell_angle_gamma                90
_cell_volume                     2085.06
_exptl_crystal_colour            colorless
_exptl_crystal_description       polyhedron
_cell_formula_units_Z            2
loop_
_atom_site_label
_atom_site_type_symbol
_atom_site_fract_x
_atom_site_fract_y
_atom_site_fract_z
O1 O 0.64296(8) 0.89884(7) 1.02215(11)
C1 C 0.35105(10) 0.71977(9) 1.05479(13)
O2 O 0.78916(10) 0.90224(10) 1.10508(16)
C2 C 0.39832(11) 0.71877(13) 0.93617(15)
H1 H 0.3660 0.7014 0.8590
C3 C 0.49343(12) 0.74337(14) 0.93097(15)
H2 H 0.5254 0.7436 0.8499
O3 O 0.20280(8) 0.73008(9) 1.15719(11)
C4 C 0.54122(10) 0.76750(10) 1.04379(14)
C5 C 0.39970(11) 0.74298(14) 1.16786(16)
H3 H 0.3679 0.7429 1.2490
C6 C 0.49444(12) 0.76623(13) 1.16266(15)
H4 H 0.5273 0.7813 1.2403
C7 C 0.64297(10) 0.79848(9) 1.04166(13)
H5 H 0.6723 0.7840 1.1277
C8 C 0.72307(12) 0.94265(11) 1.05910(16)
C9 C 0.24830(10) 0.70041(10) 1.06588(14)
C10 C 0.71643(17) 1.04676(12) 1.0368(2)
H6 H 0.6672 1.0597 0.9727
H7 H 0.7767 1.0702 1.0043
H8 H 0.7010 1.0782 1.1188
O1B O 0.89884(7) 0.35704(8) 0.97785(11)
C1B C 0.71977(9) 0.64895(10) 0.94521(13)
O2B O 0.90224(10) 0.21084(10) 0.89492(16)
C2B C 0.71877(13) 0.60168(11) 1.06383(15)
H1B H 0.7014 0.6340 1.1410
C3B C 0.74337(14) 0.50657(12) 1.06903(15)
H2B H 0.7436 0.4746 1.1501
O3B O 0.73008(9) 0.79720(8) 0.84281(11)
C4B C 0.76750(10) 0.45878(10) 0.95621(14)
C5B C 0.74298(14) 0.60030(11) 0.83214(16)
H3B H 0.7429 0.6321 0.7510
C6B C 0.76623(13) 0.50556(12) 0.83734(15)
H4B H 0.7813 0.4727 0.7597
C7B C 0.79848(9) 0.35703(10) 0.95834(13)
H5B H 0.7840 0.3277 0.8723
C8B C 0.94265(11) 0.27693(12) 0.94090(16)
C9B C 0.70041(10) 0.75170(10) 0.93412(14)
C10B C 1.04676(12) 0.28357(17) 0.9632(2)
H6B H 1.0597 0.3328 1.0273
H7B H 1.0702 0.2233 0.9957
H8B H 1.0782 0.2990 0.8812
O1C O 0.10116(7) 0.64296(8) 0.97785(11)
C1C C 0.28023(9) 0.35105(10) 0.94521(13)
O2C O 0.09776(10) 0.78916(10) 0.89492(16)
C2C C 0.28123(13) 0.39832(11) 1.06383(15)
H1C H 0.2986 0.3660 1.1410
C3C C 0.25663(14) 0.49343(12) 1.06903(15)
H2C H 0.2564 0.5254 1.1501
O3C O 0.26992(9) 0.20280(8) 0.84281(11)
C4C C 0.23250(10) 0.54122(10) 0.95621(14)
C5C C 0.25702(14) 0.39970(11) 0.83214(16)
H3C H 0.2571 0.3679 0.7510
C6C C 0.23377(13) 0.49444(12) 0.83734(15)
H4C H 0.2187 0.5273 0.7597
C7C C 0.20152(9) 0.64297(10) 0.95834(13)
H5C H 0.2160 0.6723 0.8723
C8C C 0.05735(11) 0.72307(12) 0.94090(16)
C9C C 0.29959(10) 0.24830(10) 0.93412(14)
C10C C -0.04676(12) 0.71643(17) 0.9632(2)
H6C H -0.0597 0.6672 1.0273
H7C H -0.0702 0.7767 0.9957
H8C H -0.0782 0.7010 0.8812
O1A O 0.35704(8) 0.10116(7) 1.02215(11)
C1A C 0.64895(10) 0.28023(9) 1.05479(13)
O2A O 0.21084(10) 0.09776(10) 1.10508(16)
C2A C 0.60168(11) 0.28123(13) 0.93617(15)
H1A H 0.6340 0.2986 0.8590
C3A C 0.50657(12) 0.25663(14) 0.93097(15)
H2A H 0.4746 0.2564 0.8499
O3A O 0.79720(8) 0.26992(9) 1.15719(11)
C4A C 0.45878(10) 0.23250(10) 1.04379(14)
C5A C 0.60030(11) 0.25702(14) 1.16786(16)
H3A H 0.6321 0.2571 1.2490
C6A C 0.50556(12) 0.23377(13) 1.16266(15)
H4A H 0.4727 0.2187 1.2403
C7A C 0.35703(10) 0.20152(9) 1.04166(13)
H5A H 0.3277 0.2160 1.1277
C8A C 0.27693(12) 0.05735(11) 1.05910(16)
C9A C 0.75170(10) 0.29959(10) 1.06588(14)
C10A C 0.28357(17) -0.04676(12) 1.0368(2)
H6A H 0.3328 -0.0597 0.9727
H7A H 0.2233 -0.0702 1.0043
H8A H 0.2990 -0.0782 1.1188
O4? O 0.5778(19) 0.438(2) 0.706(3)
C11? C 0.509(2) 0.484(2) 0.754(2)
C12? C 0.444(3) 0.530(3) 0.660(3)
H9? H 0.4794 0.5550 0.5867
H10? H 0.4107 0.5818 0.7040
H11? H 0.3976 0.4842 0.6290
C13? C 0.494(5) 0.491(4) 0.8960(17)
H12? H 0.4570 0.5476 0.9152
H13? H 0.5556 0.4963 0.9394
H14? H 0.4614 0.4356 0.9274
O5? O 0.3982(8) 0.5661(10) 0.6549(13)
C14? C 0.4697(9) 0.5191(11) 0.6178(15)
C15? C 0.489(2) 0.505(3) 0.4753(12)
H15? H 0.5498 0.5338 0.4532
H16? H 0.4393 0.5351 0.4241
H17? H 0.4911 0.4379 0.4557
C16? C 0.5356(14) 0.4785(14) 0.714(2)
H18? H 0.5962 0.5108 0.7077
H19? H 0.5443 0.4115 0.6955
H20? H 0.5099 0.4863 0.8014
loop_
_geom_bond_atom_site_label_1
_geom_bond_atom_site_label_2
_geom_bond_site_symmetry_1
_geom_bond_site_symmetry_2
O1 C7 1_555 1_555
C1 C2 1_555 1_555
O2 C8 1_555 1_555
C2 H1 1_555 1_555
C3 C2 1_555 1_555
H2 C3 1_555 1_555
O3 C9 1_555 1_555
C4 C3 1_555 1_555
C5 C1 1_555 1_555
H3 C5 1_555 1_555
C6 C4 1_555 1_555
H4 C6 1_555 1_555
C7 C4 1_555 1_555
H5 C7 1_555 1_555
C8 O1 1_555 1_555
C9 C1 1_555 1_555
C10 C8 1_555 1_555
H6 C10 1_555 1_555
H7 C10 1_555 1_555
H8 C10 1_555 1_555
O1B C7B 1_555 1_555
C1B C2B 1_555 1_555
O2B C8B 1_555 1_555
C2B H1B 1_555 1_555
C3B C2B 1_555 1_555
H2B C3B 1_555 1_555
O3B C9B 1_555 1_555
C4B C3B 1_555 1_555
C5B C1B 1_555 1_555
H3B C5B 1_555 1_555
C6B C4B 1_555 1_555
H4B C6B 1_555 1_555
C7B C4B 1_555 1_555
H5B C7B 1_555 1_555
C8B O1B 1_555 1_555
C9B C7 1_555 1_555
C10B C8B 1_555 1_555
H6B C10B 1_555 1_555
H7B C10B 1_555 1_555
H8B C10B 1_555 1_555
O1C C7C 1_555 1_555
C1C C2C 1_555 1_555
O2C C8C 1_555 1_555
C2C H1C 1_555 1_555
C3C C2C 1_555 1_555
H2C C3C 1_555 1_555
O3C C9C 1_555 1_555
C4C C3C 1_555 1_555
C5C C1C 1_555 1_555
H3C C5C 1_555 1_555
C6C C4C 1_555 1_555
H4C C6C 1_555 1_555
C7C C9 1_555 1_555
H5C C7C 1_555 1_555
C8C O1C 1_555 1_555
C9C C1C 1_555 1_555
C10C C8C 1_555 1_555
H6C C10C 1_555 1_555
H7C C10C 1_555 1_555
H8C C10C 1_555 1_555
O1A C7A 1_555 1_555
C1A C2A 1_555 1_555
O2A C8A 1_555 1_555
C2A H1A 1_555 1_555
C3A C2A 1_555 1_555
H2A C3A 1_555 1_555
O3A C9A 1_555 1_555
C4A C3A 1_555 1_555
C5A C1A 1_555 1_555
H3A C5A 1_555 1_555
C6A C4A 1_555 1_555
H4A C6A 1_555 1_555
C7A C9C 1_555 1_555
H5A C7A 1_555 1_555
C8A O1A 1_555 1_555
C9A C7B 1_555 1_555
C10A C8A 1_555 1_555
H6A C10A 1_555 1_555
H7A C10A 1_555 1_555
H8A C10A 1_555 1_555
C5 C6 1_555 1_555
C1B C9B 1_555 1_555
C5B C6B 1_555 1_555
C4C C7C 1_555 1_555
C5C C6C 1_555 1_555
C1A C9A 1_555 1_555
C4A C7A 1_555 1_555
C5A C6A 1_555 1_555

#END
