
#######################################################################
#
#                 Cambridge Crystallographic Data Centre
#                                CCDC 
#
#######################################################################
#
# If this CIF has been generated from an entry in the Cambridge 
# Structural Database, then it will include bibliographic, chemical, 
# crystal, experimental, refinement or atomic coordinate data resulting 
# from the CCDC's data processing and validation procedures.
#
#######################################################################

data_KOBXEE01
_chemical_formula_moiety         'C28 H18'
_chemical_name_systematic        7,10-Diphenylfluoranthene
_symmetry_cell_setting           triclinic
_symmetry_space_group_name_H-M   'P -1'
_symmetry_Int_Tables_number      2
_space_group_name_Hall           '-P 1'
loop_
_symmetry_equiv_pos_site_id
_symmetry_equiv_pos_as_xyz
1 x,y,z
2 -x,-y,-z
_cell_length_a                   10.6924(14)
_cell_length_b                   13.0351(17)
_cell_length_c                   14.5733(19)
_cell_angle_alpha                100.978(2)
_cell_angle_beta                 90.8674(19)
_cell_angle_gamma                108.058(2)
_cell_volume                     1889.79
_cell_formula_units_Z            4
loop_
_atom_site_label
_atom_site_type_symbol
_atom_site_fract_x
_atom_site_fract_y
_atom_site_fract_z
C1 C 0.36227(14) 0.30508(12) 0.96611(10)
C2 C 0.45078(14) 0.36854(12) 0.91031(10)
C3 C 0.57020(15) 0.29645(13) 1.00028(10)
C4 C 0.22918(14) 0.29802(13) 0.96335(10)
C5 C 0.13419(15) 0.23875(13) 1.02443(11)
C6 C 0.40406(15) 0.41681(12) 0.84505(10)
C7 C 0.43693(15) 0.25353(13) 1.01944(10)
C8 C 0.58546(14) 0.36792(12) 0.93625(10)
C9 C 0.48686(15) 0.47106(14) 0.77522(10)
C10 C 0.67480(16) 0.27260(15) 1.04105(12)
C11 C 0.27010(15) 0.40748(14) 0.84252(11)
H1 H 0.2367 0.4402 0.8008
C12 C 0.18595(15) 0.35094(13) 0.90034(11)
H2 H 0.0979 0.3480 0.8973
C13 C 0.71148(15) 0.42165(14) 0.91653(11)
H3 H 0.7261 0.4706 0.8760
C14 C 0.80289(16) 0.32881(16) 1.01815(12)
H4 H 0.8761 0.3166 1.0434
C15 C 0.02078(16) 0.15399(14) 0.98605(13)
H5 H 0.0042 0.1325 0.9213
C16 C 0.81896(16) 0.40074(15) 0.95930(12)
H6 H 0.9042 0.4379 0.9465
C17 C 0.56368(18) 0.41840(17) 0.72068(12)
H7 H 0.5662 0.3503 0.7297
C18 C 0.15580(17) 0.26963(15) 1.12180(12)
H8 H 0.2311 0.3267 1.1489
C19 C 0.48336(17) 0.57167(15) 0.75883(12)
H9 H 0.4314 0.6075 0.7937
C20 C 0.40676(17) 0.17841(15) 1.07669(12)
H10 H 0.3199 0.1468 1.0895
C21 C -0.04579(19) 0.13144(17) 1.13919(15)
H11 H -0.1058 0.0952 1.1772
C22 C 0.06591(19) 0.21596(17) 1.17857(13)
H12 H 0.0812 0.2372 1.2434
C23 C 0.63935(19) 0.19602(17) 1.10081(13)
H13 H 0.7045 0.1770 1.1299
C24 C -0.06806(18) 0.10099(16) 1.04336(15)
H14 H -0.1437 0.0441 1.0167
C25 C 0.5560(2) 0.61937(19) 0.69138(15)
H15 H 0.5529 0.6870 0.6815
C26 C 0.51010(19) 0.14987(17) 1.11597(14)
H16 H 0.4892 0.0977 1.1536
C27 C 0.6365(2) 0.4665(2) 0.65306(14)
H17 H 0.6879 0.4308 0.6172
C28 C 0.6328(2) 0.5671(2) 0.63900(15)
H18 H 0.6823 0.5997 0.5941
C29 C -0.10064(15) 0.19294(13) 0.44529(10)
C30 C 0.06760(15) 0.11170(13) 0.41892(10)
C31 C 0.03659(14) 0.20182(13) 0.47439(10)
C32 C -0.05415(15) 0.03848(13) 0.36080(10)
C33 C 0.09131(16) 0.36540(13) 0.60963(10)
C34 C 0.23758(15) 0.01830(14) 0.36405(11)
C35 C -0.14960(15) 0.09330(13) 0.37827(10)
C36 C 0.19528(15) 0.10443(14) 0.42590(11)
C37 C 0.12831(15) 0.27931(13) 0.54315(10)
C38 C -0.01195(16) 0.33262(15) 0.66565(11)
H19 H -0.0566 0.2579 0.6605
C39 C -0.27859(15) 0.05257(15) 0.33487(11)
C40 C 0.29971(16) -0.04554(14) 0.40108(12)
H20 H 0.3142 -0.0351 0.4658
C41 C 0.28616(16) 0.18485(15) 0.49342(11)
H21 H 0.3715 0.1818 0.4998
C42 C -0.18165(16) 0.25662(14) 0.46652(11)
H22 H -0.1519 0.3237 0.5090
C43 C -0.09237(17) -0.06339(14) 0.30214(11)
H23 H -0.0336 -0.1033 0.2909
C44 C -0.35980(16) 0.11982(16) 0.35954(12)
H24 H -0.4461 0.0972 0.3330
C45 C 0.25377(16) 0.26867(15) 0.55102(11)
H25 H 0.3170 0.3191 0.5960
C46 C 0.22034(17) 0.00206(16) 0.26686(12)
H26 H 0.1808 0.0449 0.2403
C47 C -0.31128(17) 0.21804(16) 0.42243(12)
H27 H -0.3658 0.2613 0.4368
C48 C 0.34030(18) -0.12426(16) 0.34329(14)
H28 H 0.3815 -0.1664 0.3693
C49 C 0.26107(17) -0.07671(17) 0.20921(13)
H29 H 0.2484 -0.0864 0.1445
C50 C -0.04904(19) 0.40868(18) 0.72836(13)
H30 H -0.1192 0.3854 0.7645
C51 C -0.31232(17) -0.05150(16) 0.27309(12)
H31 H -0.3961 -0.0823 0.2420
C52 C 0.32003(17) -0.14069(16) 0.24683(14)
H32 H 0.3461 -0.1945 0.2079
C53 C 0.1589(2) 0.47662(15) 0.62007(12)
H33 H 0.2294 0.5002 0.5843
C54 C -0.22269(17) -0.10688(15) 0.25894(12)
H34 H -0.2482 -0.1760 0.2193
C55 C 0.0175(2) 0.51898(19) 0.73767(14)
H35 H -0.0077 0.5705 0.7801
C56 C 0.1213(3) 0.55349(17) 0.68431(14)
H36 H 0.1666 0.6283 0.6910
loop_
_geom_bond_atom_site_label_1
_geom_bond_atom_site_label_2
_geom_bond_site_symmetry_1
_geom_bond_site_symmetry_2
C1 C2 1_555 1_555
C2 C6 1_555 1_555
C3 C7 1_555 1_555
C4 C1 1_555 1_555
C5 C4 1_555 1_555
C6 C9 1_555 1_555
C7 C1 1_555 1_555
C8 C2 1_555 1_555
C9 C17 1_555 1_555
C10 C3 1_555 1_555
C11 C6 1_555 1_555
H1 C11 1_555 1_555
C12 C4 1_555 1_555
H2 C12 1_555 1_555
C13 C8 1_555 1_555
H3 C13 1_555 1_555
C14 C10 1_555 1_555
H4 C14 1_555 1_555
C15 C5 1_555 1_555
H5 C15 1_555 1_555
C16 C13 1_555 1_555
H6 C16 1_555 1_555
C17 H7 1_555 1_555
C18 C5 1_555 1_555
H8 C18 1_555 1_555
C19 C9 1_555 1_555
H9 C19 1_555 1_555
C20 C7 1_555 1_555
H10 C20 1_555 1_555
C21 H11 1_555 1_555
C22 C18 1_555 1_555
H12 C22 1_555 1_555
C23 C10 1_555 1_555
H13 C23 1_555 1_555
C24 C15 1_555 1_555
H14 C24 1_555 1_555
C25 C19 1_555 1_555
H15 C25 1_555 1_555
C26 C20 1_555 1_555
H16 C26 1_555 1_555
C27 C17 1_555 1_555
H17 C27 1_555 1_555
C28 C25 1_555 1_555
H18 C28 1_555 1_555
C29 C31 1_555 1_555
C30 C31 1_555 1_555
C31 C37 1_555 1_555
C32 C30 1_555 1_555
C33 C37 1_555 1_555
C34 C36 1_555 1_555
C35 C29 1_555 1_555
C36 C30 1_555 1_555
C37 C45 1_555 1_555
C38 C33 1_555 1_555
H19 C38 1_555 1_555
C39 C35 1_555 1_555
C40 C34 1_555 1_555
H20 C40 1_555 1_555
C41 C36 1_555 1_555
H21 C41 1_555 1_555
C42 C29 1_555 1_555
H22 C42 1_555 1_555
C43 C32 1_555 1_555
H23 C43 1_555 1_555
C44 C39 1_555 1_555
H24 C44 1_555 1_555
C45 C41 1_555 1_555
H25 C45 1_555 1_555
C46 C34 1_555 1_555
H26 C46 1_555 1_555
C47 C42 1_555 1_555
H27 C47 1_555 1_555
C48 C40 1_555 1_555
H28 C48 1_555 1_555
C49 C46 1_555 1_555
H29 C49 1_555 1_555
C50 C38 1_555 1_555
H30 C50 1_555 1_555
C51 C39 1_555 1_555
H31 C51 1_555 1_555
C52 C48 1_555 1_555
H32 C52 1_555 1_555
C53 C33 1_555 1_555
H33 C53 1_555 1_555
C54 C43 1_555 1_555
H34 C54 1_555 1_555
C55 C50 1_555 1_555
H35 C55 1_555 1_555
C56 C53 1_555 1_555
H36 C56 1_555 1_555
C3 C8 1_555 1_555
C11 C12 1_555 1_555
C14 C16 1_555 1_555
C21 C22 1_555 1_555
C21 C24 1_555 1_555
C23 C26 1_555 1_555
C27 C28 1_555 1_555
C32 C35 1_555 1_555
C44 C47 1_555 1_555
C49 C52 1_555 1_555
C51 C54 1_555 1_555
C55 C56 1_555 1_555

#END
