
#######################################################################
#
#                 Cambridge Crystallographic Data Centre
#                                CCDC 
#
#######################################################################
#
# If this CIF has been generated from an entry in the Cambridge 
# Structural Database, then it will include bibliographic, chemical, 
# crystal, experimental, refinement or atomic coordinate data resulting 
# from the CCDC's data processing and validation procedures.
#
#######################################################################

data_KOBZUY
_chemical_formula_moiety         'C9 H17 B10 N1 O1'
_chemical_name_systematic        
1-(Phenylaminocarbonyl)-1,2-dicarba-closo-dodecaborane
_symmetry_cell_setting           triclinic
_symmetry_space_group_name_H-M   'P -1'
_symmetry_Int_Tables_number      2
_space_group_name_Hall           '-P 1'
loop_
_symmetry_equiv_pos_site_id
_symmetry_equiv_pos_as_xyz
1 x,y,z
2 -x,-y,-z
_cell_length_a                   7.1110(7)
_cell_length_b                   9.6524(8)
_cell_length_c                   12.4183(8)
_cell_angle_alpha                104.922(6)
_cell_angle_beta                 104.856(7)
_cell_angle_gamma                103.257(8)
_cell_volume                     755.244
_exptl_crystal_colour            colorless
_cell_formula_units_Z            2
loop_
_atom_site_label
_atom_site_type_symbol
_atom_site_fract_x
_atom_site_fract_y
_atom_site_fract_z
N1 N 0.1348(2) 0.32808(17) 0.24893(13)
H1 H 0.1196 0.3480 0.3172
C1 C -0.0223(3) 0.5228(2) 0.23926(14)
C2 C 0.0572(3) 0.4006(2) 0.17979(16)
C3 C 0.2402(3) 0.2213(2) 0.22290(17)
C4 C 0.3678(3) 0.2009(2) 0.31713(18)
H2 H 0.3811 0.2548 0.3939
C5 C -0.1296(3) 0.6031(2) 0.15206(16)
H3 H -0.1428 0.5674 0.0581
C6 C 0.2185(3) 0.1414(2) 0.10887(18)
H4 H 0.1329 0.1551 0.0447
B1 B -0.0871(4) 0.7040(3) 0.4262(2)
H5 H -0.0725 0.7396 0.5203
B2 B 0.1051(4) 0.6490(3) 0.37806(18)
H6 H 0.2453 0.6458 0.4393
B3 B -0.1337(4) 0.5136(3) 0.3437(2)
H7 H -0.1475 0.4232 0.3829
B4 B -0.2065(4) 0.7887(3) 0.3298(2)
H8 H -0.2710 0.8787 0.3602
B5 B -0.0829(5) 0.7890(3) 0.2240(2)
H9 H -0.0658 0.8785 0.1841
B6 B 0.1100(4) 0.7029(3) 0.2526(2)
H10 H 0.2509 0.7338 0.2307
B7 B -0.3271(4) 0.5994(3) 0.3142(2)
H11 H -0.4686 0.5659 0.3349
C7 C 0.3272(4) 0.0400(2) 0.0917(2)
H12 H 0.3117 -0.0160 0.0150
B8 B -0.2849(4) 0.4805(3) 0.1960(2)
H13 H -0.3965 0.3698 0.1382
B9 B 0.0639(4) 0.8207(3) 0.3709(2)
H14 H 0.1764 0.9312 0.4282
B10 B -0.3240(4) 0.6531(3) 0.1882(2)
H15 H -0.4629 0.6543 0.1246
C8 C 0.4565(4) 0.0207(3) 0.1848(2)
H16 H 0.5305 -0.0461 0.1716
C9 C 0.4764(4) 0.1007(3) 0.2983(2)
H17 H 0.5628 0.0873 0.3623
O1 O 0.0476(3) 0.3771(2) 0.07815(13)
loop_
_geom_bond_atom_site_label_1
_geom_bond_atom_site_label_2
_geom_bond_site_symmetry_1
_geom_bond_site_symmetry_2
N1 H1 1_555 1_555
C1 C2 1_555 1_555
C2 N1 1_555 1_555
C3 N1 1_555 1_555
C4 C3 1_555 1_555
H2 C4 1_555 1_555
C5 C1 1_555 1_555
H3 C5 1_555 1_555
C6 C3 1_555 1_555
H4 C6 1_555 1_555
B1 H5 1_555 1_555
B2 C1 1_555 1_555
H6 B2 1_555 1_555
B3 C1 1_555 1_555
H7 B3 1_555 1_555
B4 B1 1_555 1_555
H8 B4 1_555 1_555
B5 C5 1_555 1_555
H9 B5 1_555 1_555
B6 C1 1_555 1_555
H10 B6 1_555 1_555
B7 B1 1_555 1_555
H11 B7 1_555 1_555
C7 C6 1_555 1_555
H12 C7 1_555 1_555
B8 C1 1_555 1_555
H13 B8 1_555 1_555
B9 B1 1_555 1_555
H14 B9 1_555 1_555
B10 C5 1_555 1_555
H15 B10 1_555 1_555
C8 C7 1_555 1_555
H16 C8 1_555 1_555
C9 C4 1_555 1_555
H17 C9 1_555 1_555
O1 C2 1_555 1_555
C5 B6 1_555 1_555
C5 B8 1_555 1_555
B1 B2 1_555 1_555
B1 B3 1_555 1_555
B2 B3 1_555 1_555
B2 B6 1_555 1_555
B2 B9 1_555 1_555
B3 B7 1_555 1_555
B3 B8 1_555 1_555
B4 B5 1_555 1_555
B4 B7 1_555 1_555
B4 B9 1_555 1_555
B4 B10 1_555 1_555
B5 B6 1_555 1_555
B5 B9 1_555 1_555
B5 B10 1_555 1_555
B6 B9 1_555 1_555
B7 B8 1_555 1_555
B7 B10 1_555 1_555
B8 B10 1_555 1_555
C8 C9 1_555 1_555

#END
