
#######################################################################
#
#                 Cambridge Crystallographic Data Centre
#                                CCDC 
#
#######################################################################
#
# If this CIF has been generated from an entry in the Cambridge 
# Structural Database, then it will include bibliographic, chemical, 
# crystal, experimental, refinement or atomic coordinate data resulting 
# from the CCDC's data processing and validation procedures.
#
#######################################################################

data_KOCBEL
_chemical_formula_moiety         'C10 H16 B10 N2 O1'
_chemical_name_systematic        
1-([(3-cyanophenyl)amino]carbonyl)-1,2-closo-dicarbadodecaborane
_symmetry_cell_setting           orthorhombic
_symmetry_space_group_name_H-M   'P 21 21 21'
_symmetry_Int_Tables_number      19
_space_group_name_Hall           'P 2ac 2ab'
loop_
_symmetry_equiv_pos_site_id
_symmetry_equiv_pos_as_xyz
1 x,y,z
2 1/2-x,-y,1/2+z
3 1/2+x,1/2-y,-z
4 -x,1/2+y,1/2-z
_cell_length_a                   7.1169(6)
_cell_length_b                   8.6634(5)
_cell_length_c                   25.2552(15)
_cell_angle_alpha                90
_cell_angle_beta                 90
_cell_angle_gamma                90
_cell_volume                     1557.15
_exptl_crystal_colour            colorless
_cell_formula_units_Z            4
loop_
_atom_site_label
_atom_site_type_symbol
_atom_site_fract_x
_atom_site_fract_y
_atom_site_fract_z
C1 C 0.2793(4) 0.6066(3) 0.00843(9)
N1 N 0.2779(3) 0.4955(2) 0.04993(8)
H1 H 0.2607 0.4010 0.0407
C2 C 0.2712(4) 0.7647(3) 0.01714(10)
H2 H 0.2659 0.8041 0.0514
C3 C 0.2713(4) 0.8625(3) -0.02628(10)
C4 C 0.3003(5) 0.5220(3) 0.10212(11)
O1 O 0.3294(4) 0.6444(2) 0.12192(8)
C5 C 0.2572(5) 1.0278(3) -0.01776(10)
C6 C 0.2812(5) 0.8077(3) -0.07741(11)
H3 H 0.2833 0.8754 -0.1060
N2 N 0.2450(5) 1.1575(3) -0.01189(10)
C7 C 0.3186(5) 0.4099(3) 0.19964(10)
H4 H 0.3520 0.5266 0.2140
C8 C 0.2876(5) 0.5509(3) -0.04304(10)
H5 H 0.2929 0.4451 -0.0489
C9 C 0.2857(4) 0.3775(3) 0.13636(9)
C10 C 0.2879(5) 0.6497(3) -0.08521(11)
H6 H 0.2927 0.6104 -0.1195
B1 B 0.4207(6) 0.2586(4) 0.23060(15)
H7 H 0.5171 0.2671 0.2645
B2 B 0.2229(6) 0.0701(4) 0.15621(13)
H8 H 0.1903 -0.0463 0.1415
B3 B 0.0556(6) 0.1811(5) 0.19221(15)
H9 H -0.0861 0.1373 0.2010
B4 B 0.3676(5) 0.1996(4) 0.12039(15)
H10 H 0.4301 0.1693 0.0819
B5 B 0.2563(5) 0.1090(4) 0.22426(12)
H11 H 0.2458 0.0168 0.2541
B6 B 0.1780(6) 0.2963(4) 0.23756(15)
H12 H 0.1173 0.3298 0.2759
B7 B 0.4907(5) 0.3158(4) 0.16598(14)
H13 H 0.6311 0.3630 0.1575
B8 B 0.4495(5) 0.1202(4) 0.18010(13)
H14 H 0.5653 0.0361 0.1809
B9 B 0.1241(6) 0.2364(4) 0.12682(16)
H15 H 0.0285 0.2296 0.0927
B10 B 0.0943(6) 0.3774(5) 0.17734(15)
H16 H -0.0188 0.4638 0.1762
loop_
_geom_bond_atom_site_label_1
_geom_bond_atom_site_label_2
_geom_bond_site_symmetry_1
_geom_bond_site_symmetry_2
C1 N1 1_555 1_555
N1 H1 1_555 1_555
C2 C1 1_555 1_555
H2 C2 1_555 1_555
C3 C2 1_555 1_555
C4 N1 1_555 1_555
O1 C4 1_555 1_555
C5 C3 1_555 1_555
C6 C3 1_555 1_555
H3 C6 1_555 1_555
N2 C5 1_555 1_555
C7 H4 1_555 1_555
C8 C1 1_555 1_555
H5 C8 1_555 1_555
C9 C4 1_555 1_555
C10 C6 1_555 1_555
H6 C10 1_555 1_555
B1 C7 1_555 1_555
H7 B1 1_555 1_555
B2 H8 1_555 1_555
B3 B2 1_555 1_555
H9 B3 1_555 1_555
B4 C9 1_555 1_555
H10 B4 1_555 1_555
B5 B1 1_555 1_555
H11 B5 1_555 1_555
B6 C7 1_555 1_555
H12 B6 1_555 1_555
B7 C7 1_555 1_555
H13 B7 1_555 1_555
B8 B1 1_555 1_555
H14 B8 1_555 1_555
B9 C9 1_555 1_555
H15 B9 1_555 1_555
B10 C7 1_555 1_555
H16 B10 1_555 1_555
C7 C9 1_555 1_555
C8 C10 1_555 1_555
C9 B7 1_555 1_555
C9 B10 1_555 1_555
B1 B6 1_555 1_555
B1 B7 1_555 1_555
B2 B4 1_555 1_555
B2 B5 1_555 1_555
B2 B8 1_555 1_555
B2 B9 1_555 1_555
B3 B5 1_555 1_555
B3 B6 1_555 1_555
B3 B9 1_555 1_555
B3 B10 1_555 1_555
B4 B7 1_555 1_555
B4 B8 1_555 1_555
B4 B9 1_555 1_555
B5 B6 1_555 1_555
B5 B8 1_555 1_555
B6 B10 1_555 1_555
B7 B8 1_555 1_555
B9 B10 1_555 1_555

#END
