
#######################################################################
#
#                 Cambridge Crystallographic Data Centre
#                                CCDC 
#
#######################################################################
#
# If this CIF has been generated from an entry in the Cambridge 
# Structural Database, then it will include bibliographic, chemical, 
# crystal, experimental, refinement or atomic coordinate data resulting 
# from the CCDC's data processing and validation procedures.
#
#######################################################################

data_KOCCOX
_chemical_formula_moiety         'C23 H28 Be1 Cl2 N4'
_chemical_name_systematic        
(carbodi(1-methyl-3-isopropylbenzimidazol-2-ylidene))-dichloro-beryllium
_symmetry_cell_setting           monoclinic
_symmetry_space_group_name_H-M   'C 2/c'
_symmetry_Int_Tables_number      15
_space_group_name_Hall           '-C 2yn'
loop_
_symmetry_equiv_pos_site_id
_symmetry_equiv_pos_as_xyz
1 x,y,z
2 -x,y,1/2-z
3 1/2+x,1/2+y,z
4 1/2-x,1/2+y,1/2-z
5 -x,-y,-z
6 x,-y,1/2+z
7 1/2-x,1/2-y,-z
8 1/2+x,1/2-y,1/2+z
_cell_length_a                   15.654(2)
_cell_length_b                   8.9806(13)
_cell_length_c                   16.425(3)
_cell_angle_alpha                90
_cell_angle_beta                 106.399(5)
_cell_angle_gamma                90
_cell_volume                     2215.13
_exptl_crystal_colour            yellow
_exptl_crystal_description       block
_chemical_melting_point          '443 K'
_cell_formula_units_Z            4
_chemical_properties_physical    Air-sensitive,Moisture-sensitive
_exptl_crystal_recrystallization_method 
'Re-crystallisation from solvent: Dichloromethane, hexanes'
loop_
_atom_site_label
_atom_site_type_symbol
_atom_site_fract_x
_atom_site_fract_y
_atom_site_fract_z
Be1 Be 0.500 0.9017(6) 0.750
Cl1 Cl 0.55877(5) 1.01429(8) 0.85118(5)
N1 N 0.50414(13) 0.4896(2) 0.65661(13)
N2 N 0.60337(13) 0.6662(2) 0.66171(13)
C1 C 0.500 0.7070(4) 0.750
C2 C 0.53372(16) 0.6248(3) 0.69314(16)
C3 C 0.42175(17) 0.4166(3) 0.65835(17)
H1 H 0.434207 0.343533 0.704509
H2 H 0.395817 0.366026 0.604124
H3 H 0.379701 0.491147 0.667581
C4 C 0.65863(18) 0.7996(3) 0.68767(18)
H4 H 0.629561 0.860083 0.723534
C5 C 0.65811(19) 0.8954(3) 0.61068(18)
H5 H 0.68765 0.841483 0.574332
H6 H 0.68987 0.988742 0.629758
H7 H 0.596491 0.917327 0.578562
C6 C 0.75057(18) 0.7590(3) 0.74364(18)
H8 H 0.744985 0.705609 0.79393
H9 H 0.785495 0.849928 0.7613
H10 H 0.780592 0.695203 0.711853
C7 C 0.61957(17) 0.5535(3) 0.60888(16)
C8 C 0.68476(17) 0.5346(3) 0.56747(17)
H11 H 0.729646 0.607484 0.570926
C9 C 0.68171(18) 0.4049(3) 0.52080(17)
H12 H 0.725574 0.38901 0.491845
C10 C 0.61628(18) 0.2975(3) 0.51519(17)
H13 H 0.615134 0.211863 0.480959
C11 C 0.55285(17) 0.3132(3) 0.55860(17)
H14 H 0.508942 0.239046 0.556216
C12 C 0.55636(16) 0.4424(3) 0.60576(16)
N1A N 0.49586(13) 0.4896(2) 0.84339(13)
N2A N 0.39663(13) 0.6662(2) 0.83829(13)
C2A C 0.46628(16) 0.6248(3) 0.80686(16)
C3A C 0.57825(17) 0.4166(3) 0.84165(17)
H1A H 0.565793 0.343533 0.795491
H2A H 0.604183 0.366026 0.895876
H3A H 0.620299 0.491147 0.832419
C4A C 0.34137(18) 0.7996(3) 0.81233(18)
H4A H 0.370439 0.860083 0.776466
C5A C 0.34189(19) 0.8954(3) 0.88932(18)
H5A H 0.31235 0.841483 0.925668
H6A H 0.31013 0.988742 0.870242
H7A H 0.403509 0.917327 0.921438
C6A C 0.24943(18) 0.7590(3) 0.75636(18)
H8A H 0.255015 0.705609 0.70607
H9A H 0.214505 0.849928 0.7387
H10A H 0.219408 0.695203 0.788147
C7A C 0.38043(17) 0.5535(3) 0.89112(16)
C8A C 0.31524(17) 0.5346(3) 0.93253(17)
H11A H 0.270354 0.607484 0.929074
C9A C 0.31829(18) 0.4049(3) 0.97920(17)
H12A H 0.274426 0.38901 1.008155
C10A C 0.38372(18) 0.2975(3) 0.98481(17)
H13A H 0.384866 0.211863 1.019041
C11A C 0.44715(17) 0.3132(3) 0.94140(17)
H14A H 0.491058 0.239046 0.943784
C12A C 0.44364(16) 0.4424(3) 0.89424(16)
Cl1A Cl 0.44123(5) 1.01429(8) 0.64882(5)
loop_
_geom_bond_atom_site_label_1
_geom_bond_atom_site_label_2
_geom_bond_site_symmetry_1
_geom_bond_site_symmetry_2
Be1 Cl1 1_555 1_555
N1 C2 1_555 1_555
N2 C2 1_555 1_555
C1 Be1 1_555 1_555
C2 C1 1_555 1_555
C3 N1 1_555 1_555
H1 C3 1_555 1_555
H2 C3 1_555 1_555
H3 C3 1_555 1_555
C4 N2 1_555 1_555
H4 C4 1_555 1_555
C5 C4 1_555 1_555
H5 C5 1_555 1_555
H6 C5 1_555 1_555
H7 C5 1_555 1_555
C6 C4 1_555 1_555
H8 C6 1_555 1_555
H9 C6 1_555 1_555
H10 C6 1_555 1_555
C7 N2 1_555 1_555
C8 C7 1_555 1_555
H11 C8 1_555 1_555
C9 C8 1_555 1_555
H12 C9 1_555 1_555
C10 C9 1_555 1_555
H13 C10 1_555 1_555
C11 C10 1_555 1_555
H14 C11 1_555 1_555
C12 N1 1_555 1_555
N1A C2A 1_555 1_555
N2A C2A 1_555 1_555
C2A C1 1_555 1_555
C3A N1A 1_555 1_555
H1A C3A 1_555 1_555
H2A C3A 1_555 1_555
H3A C3A 1_555 1_555
C4A N2A 1_555 1_555
H4A C4A 1_555 1_555
C5A C4A 1_555 1_555
H5A C5A 1_555 1_555
H6A C5A 1_555 1_555
H7A C5A 1_555 1_555
C6A C4A 1_555 1_555
H8A C6A 1_555 1_555
H9A C6A 1_555 1_555
H10A C6A 1_555 1_555
C7A N2A 1_555 1_555
C8A C7A 1_555 1_555
H11A C8A 1_555 1_555
C9A C8A 1_555 1_555
H12A C9A 1_555 1_555
C10A C9A 1_555 1_555
H13A C10A 1_555 1_555
C11A C10A 1_555 1_555
H14A C11A 1_555 1_555
C12A N1A 1_555 1_555
Cl1A Be1 1_555 1_555
C7 C12 1_555 1_555
C11 C12 1_555 1_555
C7A C12A 1_555 1_555
C11A C12A 1_555 1_555

#END
