
#######################################################################
#
#                 Cambridge Crystallographic Data Centre
#                                CCDC 
#
#######################################################################
#
# If this CIF has been generated from an entry in the Cambridge 
# Structural Database, then it will include bibliographic, chemical, 
# crystal, experimental, refinement or atomic coordinate data resulting 
# from the CCDC's data processing and validation procedures.
#
#######################################################################

data_KOCJIY
_chemical_formula_moiety         'C84 H124 K2 Mg2 N10 O6,2(C4 H8 O1)'
_chemical_name_systematic        
'bis(\m-N^1^,N^2^-bis[2,6-di(propan-2-yl)phenyl]benzene-1,2-bis(aminide))-bis(\m-azido)-hexakis(tetrahydrofuran)-di-magnesium-di-potassium tetrahydrofuran solvate'
_symmetry_cell_setting           triclinic
_symmetry_space_group_name_H-M   'P -1'
_symmetry_Int_Tables_number      2
_space_group_name_Hall           '-P 1'
loop_
_symmetry_equiv_pos_site_id
_symmetry_equiv_pos_as_xyz
1 x,y,z
2 -x,-y,-z
_cell_length_a                   9.703(3)
_cell_length_b                   13.489(4)
_cell_length_c                   19.372(5)
_cell_angle_alpha                104.191(3)
_cell_angle_beta                 92.282(3)
_cell_angle_gamma                110.287(3)
_cell_volume                     2283.8
_exptl_crystal_colour            yellow
_exptl_crystal_description       block
_cell_formula_units_Z            1
loop_
_atom_site_label
_atom_site_type_symbol
_atom_site_fract_x
_atom_site_fract_y
_atom_site_fract_z
Mg1 Mg 0.76471(10) 0.28705(7) 0.75174(5)
K1 K 0.65720(8) -0.02756(5) 0.41561(3)
O1 O 0.9414(2) 0.42592(16) 0.73685(11)
O2 O 0.9215(2) 0.29855(17) 0.83448(11)
O3 O 0.9150(3) 0.1478(2) 0.43555(13)
N1 N 0.5971(3) 0.33564(18) 0.72537(12)
N2 N 0.5911(3) 0.17657(19) 0.78432(12)
N3 N 0.8116(3) 0.1847(2) 0.66322(13)
N4 N 0.7305(3) 0.1212(2) 0.61241(13)
N5 N 0.6509(3) 0.0575(2) 0.56148(14)
C1 C 0.4605(3) 0.2552(2) 0.72039(14)
C2 C 0.4571(3) 0.1685(2) 0.75309(14)
C3 C 0.3189(3) 0.0862(2) 0.75060(15)
H1 H 0.3131 0.0300 0.7769
C4 C 0.1876(3) 0.0856(2) 0.71795(16)
H2 H 0.0903 0.0316 0.7232
C5 C 0.1902(3) 0.1669(2) 0.68585(15)
H3 H 0.0954 0.1715 0.6675
C6 C 0.3269(3) 0.2509(2) 0.68798(15)
H4 H 0.3280 0.3113 0.6664
C7 C 0.5952(3) 0.4249(2) 0.70041(15)
C8 C 0.5963(3) 0.5218(2) 0.74981(15)
C9 C 0.5917(3) 0.6086(2) 0.72463(16)
H5 H 0.5917 0.6734 0.7579
C10 C 0.5871(4) 0.6030(2) 0.65218(17)
H6 H 0.5824 0.6627 0.6357
C11 C 0.5895(3) 0.5092(2) 0.60414(16)
H7 H 0.5877 0.5054 0.5545
C12 C 0.5943(3) 0.4212(2) 0.62674(15)
C13 C 0.5979(4) 0.5286(3) 0.82951(16)
H8 H 0.6429 0.4760 0.8390
C14 C 0.6909(4) 0.6422(3) 0.87889(18)
H9 H 0.6436 0.6944 0.8749
H10 H 0.7904 0.6667 0.8648
H11 H 0.6983 0.6383 0.9287
C15 C 0.4408(4) 0.4916(3) 0.84853(18)
H12 H 0.3950 0.5437 0.8422
H13 H 0.4439 0.4890 0.8987
H14 H 0.3824 0.4183 0.8170
C16 C 0.5997(3) 0.3201(2) 0.57317(15)
H15 H 0.6004 0.2660 0.6003
C17 C 0.4651(4) 0.2648(3) 0.51550(17)
H16 H 0.3745 0.2493 0.5383
H17 H 0.4685 0.1958 0.4857
H18 H 0.4657 0.3136 0.4854
C18 C 0.7422(4) 0.3479(3) 0.5389(2)
H19 H 0.7409 0.3960 0.5085
H20 H 0.7494 0.2800 0.5094
H21 H 0.8278 0.3854 0.5767
C19 C 0.5900(3) 0.1028(2) 0.82529(15)
C20 C 0.5802(3) -0.0060(2) 0.79317(15)
C21 C 0.5893(3) -0.0725(2) 0.83637(16)
H22 H 0.5843 -0.1451 0.8145
C22 C 0.6053(4) -0.0356(3) 0.90990(16)
H23 H 0.6103 -0.0826 0.9385
C23 C 0.6141(3) 0.0702(2) 0.94213(15)
H24 H 0.6252 0.0956 0.9931
C24 C 0.6070(3) 0.1403(2) 0.90096(15)
C25 C 0.5634(3) -0.0511(2) 0.71199(15)
H25 H 0.5545 0.0065 0.6899
C26 C 0.4233(4) -0.1540(3) 0.68382(17)
H26 H 0.4315 -0.2130 0.7028
H27 H 0.4116 -0.1775 0.6312
H28 H 0.3368 -0.1375 0.6994
C27 C 0.7004(4) -0.0755(3) 0.68870(16)
H29 H 0.7886 -0.0078 0.7044
H30 H 0.6872 -0.1037 0.6362
H31 H 0.7128 -0.1306 0.7106
C28 C 0.6147(4) 0.2563(2) 0.93700(15)
H32 H 0.6681 0.3045 0.9072
C29 C 0.7005(4) 0.3046(3) 1.01314(17)
H33 H 0.7146 0.3826 1.0302
H34 H 0.7974 0.2971 1.0126
H35 H 0.6443 0.2650 1.0453
C30 C 0.4604(4) 0.2611(3) 0.93841(18)
H36 H 0.4061 0.2306 0.8896
H37 H 0.4688 0.3377 0.9569
H38 H 0.4069 0.2181 0.9696
C31 C 0.9653(4) 0.5421(3) 0.7566(2)
H39 H 0.9377 0.5648 0.8050
H40 H 0.9050 0.5584 0.7216
C32 C 1.1278(4) 0.6015(3) 0.7562(2)
H41 H 1.1862 0.6154 0.8030
H42 H 1.1466 0.6722 0.7446
C33 C 1.1634(4) 0.5210(3) 0.6973(2)
H43 H 1.1337 0.5260 0.6492
H44 H 1.2705 0.5335 0.7030
C34 C 1.0718(4) 0.4120(3) 0.70850(19)
H45 H 1.0430 0.3534 0.6625
H46 H 1.1283 0.3921 0.7430
C35 C 1.0081(4) 0.3952(3) 0.89131(17)
H47 H 0.9424 0.4264 0.9194
H48 H 1.0748 0.4520 0.8712
C36 C 1.0967(4) 0.3585(3) 0.93807(19)
H49 H 1.0444 0.3387 0.9784
H50 H 1.1959 0.4160 0.9574
C37 C 1.1088(8) 0.2502(6) 0.8813(4)
C38 C 0.9678(4) 0.2085(3) 0.83784(18)
H51 H 0.8936 0.1566 0.8586
H52 H 0.9747 0.1682 0.7888
C39 C 1.0140(4) 0.2105(3) 0.5007(2)
H53 H 1.0880 0.1773 0.5079
H54 H 0.9583 0.2127 0.5424
C40 C 1.0906(4) 0.3260(3) 0.4930(2)
H55 H 1.0628 0.3802 0.5282
H56 H 1.1998 0.3479 0.5002
C41 C 1.0354(5) 0.3180(3) 0.4168(2)
H57 H 0.9544 0.3465 0.4157
H58 H 1.1167 0.3587 0.3933
C42 C 0.9809(4) 0.1974(3) 0.3817(2)
H59 H 0.9069 0.1768 0.3390
H60 H 1.0640 0.1743 0.3666
Mg1A Mg 0.23529(10) -0.28705(7) 0.24826(5)
K1A K 0.34280(8) 0.02756(5) 0.58439(3)
O1A O 0.0586(2) -0.42592(16) 0.26315(11)
O2A O 0.0785(2) -0.29855(17) 0.16552(11)
O3A O 0.0850(3) -0.1478(2) 0.56445(13)
N1A N 0.4029(3) -0.33564(18) 0.27463(12)
N2A N 0.4089(3) -0.17657(19) 0.21568(12)
N3A N 0.1884(3) -0.1847(2) 0.33678(13)
N4A N 0.2695(3) -0.1212(2) 0.38759(13)
N5A N 0.3491(3) -0.0575(2) 0.43852(14)
C1A C 0.5395(3) -0.2552(2) 0.27961(14)
C2A C 0.5429(3) -0.1685(2) 0.24691(14)
C3A C 0.6811(3) -0.0862(2) 0.24940(15)
H1A H 0.6869 -0.0300 0.2231
C4A C 0.8124(3) -0.0856(2) 0.28205(16)
H2A H 0.9097 -0.0316 0.2768
C5A C 0.8098(3) -0.1669(2) 0.31415(15)
H3A H 0.9046 -0.1715 0.3325
C6A C 0.6731(3) -0.2509(2) 0.31202(15)
H4A H 0.6720 -0.3113 0.3336
C7A C 0.4048(3) -0.4249(2) 0.29959(15)
C8A C 0.4037(3) -0.5218(2) 0.25019(15)
C9A C 0.4083(3) -0.6086(2) 0.27537(16)
H5A H 0.4083 -0.6734 0.2421
C10A C 0.4129(4) -0.6030(2) 0.34782(17)
H6A H 0.4176 -0.6627 0.3643
C11A C 0.4105(3) -0.5092(2) 0.39586(16)
H7A H 0.4123 -0.5054 0.4455
C12A C 0.4057(3) -0.4212(2) 0.37326(15)
C13A C 0.4021(4) -0.5286(3) 0.17049(16)
H8A H 0.3571 -0.4760 0.1610
C14A C 0.3091(4) -0.6422(3) 0.12111(18)
H9A H 0.3564 -0.6944 0.1251
H10A H 0.2096 -0.6667 0.1352
H11A H 0.3017 -0.6383 0.0713
C15A C 0.5592(4) -0.4916(3) 0.15147(18)
H12A H 0.6050 -0.5437 0.1578
H13A H 0.5561 -0.4890 0.1013
H14A H 0.6176 -0.4183 0.1830
C16A C 0.4003(3) -0.3201(2) 0.42683(15)
H15A H 0.3996 -0.2660 0.3997
C17A C 0.5349(4) -0.2648(3) 0.48450(17)
H16A H 0.6255 -0.2493 0.4617
H17A H 0.5315 -0.1958 0.5143
H18A H 0.5343 -0.3136 0.5146
C18A C 0.2578(4) -0.3479(3) 0.4611(2)
H19A H 0.2591 -0.3960 0.4915
H20A H 0.2506 -0.2800 0.4906
H21A H 0.1722 -0.3854 0.4233
C19A C 0.4100(3) -0.1028(2) 0.17471(15)
C20A C 0.4198(3) 0.0060(2) 0.20683(15)
C21A C 0.4107(3) 0.0725(2) 0.16363(16)
H22A H 0.4157 0.1451 0.1855
C22A C 0.3947(4) 0.0356(3) 0.09010(16)
H23A H 0.3897 0.0826 0.0615
C23A C 0.3859(3) -0.0702(2) 0.05787(15)
H24A H 0.3748 -0.0956 0.0069
C24A C 0.3930(3) -0.1403(2) 0.09904(15)
C25A C 0.4366(3) 0.0511(2) 0.28801(15)
H25A H 0.4455 -0.0065 0.3101
C26A C 0.5767(4) 0.1540(3) 0.31618(17)
H26A H 0.5685 0.2130 0.2972
H27A H 0.5884 0.1775 0.3688
H28A H 0.6632 0.1375 0.3006
C27A C 0.2996(4) 0.0755(3) 0.31130(16)
H29A H 0.2114 0.0078 0.2956
H30A H 0.3128 0.1037 0.3638
H31A H 0.2872 0.1306 0.2894
C28A C 0.3853(4) -0.2563(2) 0.06300(15)
H32A H 0.3319 -0.3045 0.0928
C29A C 0.2995(4) -0.3046(3) -0.01314(17)
H33A H 0.2854 -0.3826 -0.0302
H34A H 0.2026 -0.2971 -0.0126
H35A H 0.3557 -0.2650 -0.0453
C30A C 0.5396(4) -0.2611(3) 0.06159(18)
H36A H 0.5939 -0.2306 0.1104
H37A H 0.5312 -0.3377 0.0431
H38A H 0.5931 -0.2181 0.0304
C31A C 0.0347(4) -0.5421(3) 0.2434(2)
H39A H 0.0623 -0.5648 0.1950
H40A H 0.0950 -0.5584 0.2784
C32A C -0.1278(4) -0.6015(3) 0.2438(2)
H41A H -0.1862 -0.6154 0.1970
H42A H -0.1466 -0.6722 0.2554
C33A C -0.1634(4) -0.5210(3) 0.3027(2)
H43A H -0.1337 -0.5260 0.3508
H44A H -0.2705 -0.5335 0.2970
C34A C -0.0718(4) -0.4120(3) 0.29150(19)
H45A H -0.0430 -0.3534 0.3375
H46A H -0.1283 -0.3921 0.2570
C35A C -0.0081(4) -0.3952(3) 0.10869(17)
H47A H 0.0576 -0.4264 0.0806
H48A H -0.0748 -0.4520 0.1288
C36A C -0.0967(4) -0.3585(3) 0.06193(19)
H49A H -0.0444 -0.3387 0.0216
H50A H -0.1959 -0.4160 0.0426
C37A C -0.1088(8) -0.2502(6) 0.1187(4)
C38A C 0.0322(4) -0.2085(3) 0.16216(18)
H51A H 0.1064 -0.1566 0.1414
H52A H 0.0253 -0.1682 0.2112
C39A C -0.0140(4) -0.2105(3) 0.4993(2)
H53A H -0.0880 -0.1773 0.4921
H54A H 0.0417 -0.2127 0.4576
C40A C -0.0906(4) -0.3260(3) 0.5070(2)
H55A H -0.0628 -0.3802 0.4718
H56A H -0.1998 -0.3479 0.4998
C41A C -0.0354(5) -0.3180(3) 0.5832(2)
H57A H 0.0456 -0.3465 0.5843
H58A H -0.1167 -0.3587 0.6067
C42A C 0.0191(4) -0.1974(3) 0.6183(2)
H59A H 0.0931 -0.1768 0.6610
H60A H -0.0640 -0.1743 0.6334
C44 C 0.1345(6) 0.9641(5) 0.9158(3)
H61 H 0.1543 0.9689 0.9673
H62 H 0.1898 1.0367 0.9082
C45 C -0.0260(5) 0.9301(4) 0.8932(3)
H63 H -0.0562 0.9944 0.8995
H64 H -0.0857 0.8803 0.9199
C46 C -0.0397(5) 0.8712(5) 0.8147(3)
H65 H -0.1326 0.8055 0.8005
H66 H -0.0420 0.9205 0.7847
O4 O 0.0823(5) 0.8400(3) 0.80500(18)
C47 C 0.1783(5) 0.8780(4) 0.8703(2)
H67 H 0.2830 0.9087 0.8623
H68 H 0.1658 0.8175 0.8928
C43? C 1.0336(9) 0.2410(6) 0.9186(4)
loop_
_geom_bond_atom_site_label_1
_geom_bond_atom_site_label_2
_geom_bond_site_symmetry_1
_geom_bond_site_symmetry_2
Mg1 O1 1_555 1_555
K1 O3 1_555 1_555
O1 C31 1_555 1_555
O2 Mg1 1_555 1_555
O3 C39 1_555 1_555
N1 Mg1 1_555 1_555
N2 Mg1 1_555 1_555
N3 Mg1 1_555 1_555
N4 N3 1_555 1_555
N5 K1 1_555 1_555
C1 N1 1_555 1_555
C2 N2 1_555 1_555
C3 C2 1_555 1_555
H1 C3 1_555 1_555
C4 C3 1_555 1_555
H2 C4 1_555 1_555
C5 C4 1_555 1_555
H3 C5 1_555 1_555
C6 C1 1_555 1_555
H4 C6 1_555 1_555
C7 N1 1_555 1_555
C8 C7 1_555 1_555
C9 C8 1_555 1_555
H5 C9 1_555 1_555
C10 C9 1_555 1_555
H6 C10 1_555 1_555
C11 C10 1_555 1_555
H7 C11 1_555 1_555
C12 C7 1_555 1_555
C13 C8 1_555 1_555
H8 C13 1_555 1_555
C14 C13 1_555 1_555
H9 C14 1_555 1_555
H10 C14 1_555 1_555
H11 C14 1_555 1_555
C15 C13 1_555 1_555
H12 C15 1_555 1_555
H13 C15 1_555 1_555
H14 C15 1_555 1_555
C16 C12 1_555 1_555
H15 C16 1_555 1_555
C17 C16 1_555 1_555
H16 C17 1_555 1_555
H17 C17 1_555 1_555
H18 C17 1_555 1_555
C18 C16 1_555 1_555
H19 C18 1_555 1_555
H20 C18 1_555 1_555
H21 C18 1_555 1_555
C19 N2 1_555 1_555
C20 C19 1_555 1_555
C21 C20 1_555 1_555
H22 C21 1_555 1_555
C22 C21 1_555 1_555
H23 C22 1_555 1_555
C23 C22 1_555 1_555
H24 C23 1_555 1_555
C24 C19 1_555 1_555
C25 C20 1_555 1_555
H25 C25 1_555 1_555
C26 C25 1_555 1_555
H26 C26 1_555 1_555
H27 C26 1_555 1_555
H28 C26 1_555 1_555
C27 C25 1_555 1_555
H29 C27 1_555 1_555
H30 C27 1_555 1_555
H31 C27 1_555 1_555
C28 C24 1_555 1_555
H32 C28 1_555 1_555
C29 C28 1_555 1_555
H33 C29 1_555 1_555
H34 C29 1_555 1_555
H35 C29 1_555 1_555
C30 C28 1_555 1_555
H36 C30 1_555 1_555
H37 C30 1_555 1_555
H38 C30 1_555 1_555
C31 H39 1_555 1_555
H40 C31 1_555 1_555
C32 C31 1_555 1_555
H41 C32 1_555 1_555
H42 C32 1_555 1_555
C33 C32 1_555 1_555
H43 C33 1_555 1_555
H44 C33 1_555 1_555
C34 O1 1_555 1_555
H45 C34 1_555 1_555
H46 C34 1_555 1_555
C35 O2 1_555 1_555
H47 C35 1_555 1_555
H48 C35 1_555 1_555
C36 C35 1_555 1_555
H49 C36 1_555 1_555
H50 C36 1_555 1_555
C37 C36 1_555 1_555
C38 O2 1_555 1_555
H51 C38 1_555 1_555
H52 C38 1_555 1_555
C39 H53 1_555 1_555
H54 C39 1_555 1_555
C40 C39 1_555 1_555
H55 C40 1_555 1_555
H56 C40 1_555 1_555
C41 C40 1_555 1_555
H57 C41 1_555 1_555
H58 C41 1_555 1_555
C42 O3 1_555 1_555
H59 C42 1_555 1_555
H60 C42 1_555 1_555
C44 H61 1_555 1_555
H62 C44 1_555 1_555
C45 C44 1_555 1_555
H63 C45 1_555 1_555
H64 C45 1_555 1_555
C46 C45 1_555 1_555
H65 C46 1_555 1_555
H66 C46 1_555 1_555
O4 C46 1_555 1_555
C47 C44 1_555 1_555
H67 C47 1_555 1_555
H68 C47 1_555 1_555
Mg1A O1A 1_555 1_555
K1A N5 1_555 1_555
O1A C31A 1_555 1_555
O2A Mg1A 1_555 1_555
O3A K1A 1_555 1_555
N1A Mg1A 1_555 1_555
N2A Mg1A 1_555 1_555
N3A Mg1A 1_555 1_555
N4A N3A 1_555 1_555
N5A K1 1_555 1_555
C1A K1 1_555 1_555
C2A K1 1_555 1_555
C3A K1 1_555 1_555
H1A C3A 1_555 1_555
C4A K1 1_555 1_555
H2A C4A 1_555 1_555
C5A K1 1_555 1_555
H3A C5A 1_555 1_555
C6A K1 1_555 1_555
H4A C6A 1_555 1_555
C7A N1A 1_555 1_555
C8A C7A 1_555 1_555
C9A C8A 1_555 1_555
H5A C9A 1_555 1_555
C10A C9A 1_555 1_555
H6A C10A 1_555 1_555
C11A C10A 1_555 1_555
H7A C11A 1_555 1_555
C12A C7A 1_555 1_555
C13A C8A 1_555 1_555
H8A C13A 1_555 1_555
C14A C13A 1_555 1_555
H9A C14A 1_555 1_555
H10A C14A 1_555 1_555
H11A C14A 1_555 1_555
C15A C13A 1_555 1_555
H12A C15A 1_555 1_555
H13A C15A 1_555 1_555
H14A C15A 1_555 1_555
C16A C12A 1_555 1_555
H15A C16A 1_555 1_555
C17A C16A 1_555 1_555
H16A C17A 1_555 1_555
H17A C17A 1_555 1_555
H18A C17A 1_555 1_555
C18A C16A 1_555 1_555
H19A C18A 1_555 1_555
H20A C18A 1_555 1_555
H21A C18A 1_555 1_555
C19A N2A 1_555 1_555
C20A C19A 1_555 1_555
C21A C20A 1_555 1_555
H22A C21A 1_555 1_555
C22A C21A 1_555 1_555
H23A C22A 1_555 1_555
C23A C22A 1_555 1_555
H24A C23A 1_555 1_555
C24A C19A 1_555 1_555
C25A C20A 1_555 1_555
H25A C25A 1_555 1_555
C26A C25A 1_555 1_555
H26A C26A 1_555 1_555
H27A C26A 1_555 1_555
H28A C26A 1_555 1_555
C27A C25A 1_555 1_555
H29A C27A 1_555 1_555
H30A C27A 1_555 1_555
H31A C27A 1_555 1_555
C28A C24A 1_555 1_555
H32A C28A 1_555 1_555
C29A C28A 1_555 1_555
H33A C29A 1_555 1_555
H34A C29A 1_555 1_555
H35A C29A 1_555 1_555
C30A C28A 1_555 1_555
H36A C30A 1_555 1_555
H37A C30A 1_555 1_555
H38A C30A 1_555 1_555
C31A H39A 1_555 1_555
H40A C31A 1_555 1_555
C32A C31A 1_555 1_555
H41A C32A 1_555 1_555
H42A C32A 1_555 1_555
C33A C32A 1_555 1_555
H43A C33A 1_555 1_555
H44A C33A 1_555 1_555
C34A O1A 1_555 1_555
H45A C34A 1_555 1_555
H46A C34A 1_555 1_555
C35A O2A 1_555 1_555
H47A C35A 1_555 1_555
H48A C35A 1_555 1_555
C36A C35A 1_555 1_555
H49A C36A 1_555 1_555
H50A C36A 1_555 1_555
C37A C36A 1_555 1_555
C38A O2A 1_555 1_555
H51A C38A 1_555 1_555
H52A C38A 1_555 1_555
C39A O3A 1_555 1_555
H53A C39A 1_555 1_555
H54A C39A 1_555 1_555
C40A C39A 1_555 1_555
H55A C40A 1_555 1_555
H56A C40A 1_555 1_555
C41A C40A 1_555 1_555
H57A C41A 1_555 1_555
H58A C41A 1_555 1_555
C42A O3A 1_555 1_555
H59A C42A 1_555 1_555
H60A C42A 1_555 1_555
N4 N5 1_555 1_555
C1 C2 1_555 1_555
C1 K1A 1_555 1_555
C2 K1A 1_555 1_555
C3 K1A 1_555 1_555
C4 K1A 1_555 1_555
C5 C6 1_555 1_555
C5 K1A 1_555 1_555
C6 K1A 1_555 1_555
C11 C12 1_555 1_555
C23 C24 1_555 1_555
C33 C34 1_555 1_555
C37 C38 1_555 1_555
C41 C42 1_555 1_555
O4 C47 1_555 1_555
K1A N5A 1_555 1_555
N1A C1A 1_555 1_555
N2A C2A 1_555 1_555
N4A N5A 1_555 1_555
C1A C2A 1_555 1_555
C1A C6A 1_555 1_555
C2A C3A 1_555 1_555
C3A C4A 1_555 1_555
C4A C5A 1_555 1_555
C5A C6A 1_555 1_555
C11A C12A 1_555 1_555
C23A C24A 1_555 1_555
C33A C34A 1_555 1_555
C37A C38A 1_555 1_555
C41A C42A 1_555 1_555

#END
