
#######################################################################
#
#                 Cambridge Crystallographic Data Centre
#                                CCDC 
#
#######################################################################
#
# If this CIF has been generated from an entry in the Cambridge 
# Structural Database, then it will include bibliographic, chemical, 
# crystal, experimental, refinement or atomic coordinate data resulting 
# from the CCDC's data processing and validation procedures.
#
#######################################################################

data_KOCKIZ
_chemical_formula_moiety         'C67 H3 Cl1 O1'
_chemical_name_systematic        (4-chlorobenzoyl-2-yl)-C60-fullerene
_symmetry_cell_setting           monoclinic
_symmetry_space_group_name_H-M   'P 21'
_symmetry_Int_Tables_number      4
_space_group_name_Hall           'P 2yb'
loop_
_symmetry_equiv_pos_site_id
_symmetry_equiv_pos_as_xyz
1 x,y,z
2 -x,1/2+y,-z
_cell_length_a                   10.1607(11)
_cell_length_b                   9.8856(11)
_cell_length_c                   16.4378(16)
_cell_angle_alpha                90
_cell_angle_beta                 102.188(10)
_cell_angle_gamma                90
_cell_volume                     1613.87
_exptl_crystal_colour            black
_exptl_crystal_description       block
_cell_formula_units_Z            2
loop_
_atom_site_label
_atom_site_type_symbol
_atom_site_fract_x
_atom_site_fract_y
_atom_site_fract_z
Cl1 Cl 0.9142(2) 0.9766(4) 0.97238(17)
O1 O 1.3325(7) 0.8311(8) 1.3416(4)
C1 C 1.5507(9) 1.0948(10) 1.4118(5)
C2 C 1.4297(8) 1.1210(9) 1.3525(5)
C3 C 1.5629(8) 0.9782(9) 1.2900(5)
C4 C 1.4585(8) 1.1014(9) 1.1312(5)
C5 C 1.3685(8) 1.3175(11) 1.1279(5)
C6 C 1.3224(7) 1.3127(10) 1.2669(6)
C7 C 1.6925(9) 1.0874(10) 1.1164(6)
C8 C 1.6322(8) 0.9693(9) 1.2267(6)
C9 C 1.4351(9) 1.3519(10) 1.4040(5)
C10 C 1.3537(8) 1.4565(11) 1.2751(6)
C11 C 1.3737(8) 1.2489(10) 1.3475(5)
C12 C 1.6324(9) 1.0038(9) 1.3736(6)
C13 C 1.3606(8) 1.0979(10) 1.1907(5)
C14 C 1.8813(9) 1.5267(11) 1.4206(6)
C15 C 1.9065(9) 1.2768(11) 1.1482(6)
C16 C 1.8464(9) 1.0070(10) 1.3274(7)
C17 C 1.3266(7) 1.2457(10) 1.1939(5)
C18 C 1.5529(9) 1.3233(11) 1.4640(5)
C19 C 1.8134(9) 1.0565(10) 1.1775(6)
C20 C 1.9188(9) 1.1489(10) 1.1940(7)
C21 C 1.7755(9) 0.9847(10) 1.2449(6)
C22 C 1.4968(9) 1.6234(9) 1.2276(7)
C23 C 1.9707(8) 1.3784(11) 1.2065(6)
C24 C 1.9783(8) 1.3137(13) 1.4272(6)
C25 C 1.4179(8) 1.0292(9) 1.2772(5)
C26 C 1.7933(9) 1.5392(10) 1.1420(6)
C27 C 1.6101(10) 1.1922(12) 1.4676(5)
C28 C 1.4486(9) 1.2297(10) 1.0895(5)
C29 C 1.5805(9) 1.0317(10) 1.1464(5)
C30 C 1.6599(10) 1.4211(12) 1.4803(6)
C31 C 1.7609(10) 1.5968(11) 1.4073(6)
C32 C 1.7909(9) 1.3039(12) 1.0900(5)
C33 C 1.7122(9) 1.6617(10) 1.3276(6)
C34 C 1.5578(9) 1.2823(11) 1.0582(5)
C35 C 2.0154(8) 1.3831(11) 1.3599(6)
C36 C 1.6490(11) 1.5446(12) 1.4388(6)
C37 C 1.3963(8) 1.4592(11) 1.1345(6)
C38 C 1.6822(11) 1.2091(11) 1.0722(5)
C39 C 1.7819(10) 1.6520(10) 1.2651(7)
C40 C 2.0218(8) 1.3171(12) 1.2862(7)
C41 C 1.8338(9) 1.1209(12) 1.4502(6)
C42 C 1.3208(9) 0.9067(9) 1.2817(6)
C43 C 1.9145(9) 1.5079(11) 1.2036(6)
C44 C 1.5293(10) 1.5738(10) 1.3773(6)
C45 C 1.4213(9) 1.4801(11) 1.3606(6)
C46 C 1.5726(9) 1.6141(9) 1.1607(6)
C47 C 1.7319(10) 1.4411(12) 1.0870(6)
C48 C 1.1431(9) 1.0316(11) 1.0808(6)
H1 H 1.1539 1.1021 1.0453
C49 C 1.7723(10) 1.0191(11) 1.3922(6)
C50 C 1.9546(9) 1.1041(12) 1.3434(7)
C51 C 1.2176(9) 0.9040(10) 1.2055(6)
C52 C 1.3891(8) 1.5259(10) 1.2099(7)
C53 C 1.9473(8) 1.1773(11) 1.4205(7)
C54 C 1.5661(10) 1.6457(10) 1.3099(7)
C55 C 1.7859(10) 1.3506(12) 1.4941(5)
C56 C 1.9898(8) 1.1741(12) 1.2773(7)
C57 C 1.5882(10) 1.4252(11) 1.0677(5)
C58 C 1.5102(9) 1.5126(11) 1.1044(6)
C59 C 1.7553(10) 1.2071(12) 1.4872(5)
C60 C 1.9082(9) 1.5788(11) 1.2795(6)
C61 C 1.0189(10) 0.8382(12) 1.1097(7)
H2 H 0.9458 0.7805 1.0932
C62 C 1.7121(9) 1.6272(10) 1.1806(6)
C63 C 1.2355(8) 1.0115(10) 1.1544(5)
C64 C 1.9563(9) 1.5179(11) 1.3553(6)
C65 C 1.8968(10) 1.4021(12) 1.4651(6)
C66 C 1.0359(8) 0.9462(13) 1.0611(6)
C67 C 1.1110(10) 0.8147(12) 1.1842(7)
H3 H 1.1013 0.7418 1.2182
loop_
_geom_bond_atom_site_label_1
_geom_bond_atom_site_label_2
_geom_bond_site_symmetry_1
_geom_bond_site_symmetry_2
Cl1 C66 1_555 1_555
O1 C42 1_555 1_555
C1 C2 1_555 1_555
C2 C11 1_555 1_555
C3 C8 1_555 1_555
C4 C13 1_555 1_555
C5 C17 1_555 1_555
C6 C10 1_555 1_555
C7 C19 1_555 1_555
C8 C21 1_555 1_555
C9 C11 1_555 1_555
C10 C45 1_555 1_555
C11 C6 1_555 1_555
C12 C1 1_555 1_555
C13 C17 1_555 1_555
C14 C31 1_555 1_555
C15 C20 1_555 1_555
C16 C21 1_555 1_555
C17 C6 1_555 1_555
C18 C9 1_555 1_555
C19 C20 1_555 1_555
C20 C56 1_555 1_555
C21 C19 1_555 1_555
C22 C46 1_555 1_555
C23 C15 1_555 1_555
C24 C35 1_555 1_555
C25 C2 1_555 1_555
C26 C43 1_555 1_555
C27 C1 1_555 1_555
C28 C4 1_555 1_555
C29 C4 1_555 1_555
C30 C18 1_555 1_555
C31 C33 1_555 1_555
C32 C15 1_555 1_555
C33 C39 1_555 1_555
C34 C28 1_555 1_555
C35 C40 1_555 1_555
C36 C30 1_555 1_555
C37 C5 1_555 1_555
C38 C7 1_555 1_555
C39 C60 1_555 1_555
C40 C23 1_555 1_555
C41 C49 1_555 1_555
C42 C25 1_555 1_555
C43 C23 1_555 1_555
C44 C36 1_555 1_555
C45 C9 1_555 1_555
C46 C58 1_555 1_555
C47 C26 1_555 1_555
C48 H1 1_555 1_555
C49 C12 1_555 1_555
C50 C16 1_555 1_555
C51 C42 1_555 1_555
C52 C10 1_555 1_555
C53 C24 1_555 1_555
C54 C22 1_555 1_555
C55 C30 1_555 1_555
C56 C40 1_555 1_555
C57 C34 1_555 1_555
C58 C37 1_555 1_555
C59 C27 1_555 1_555
C60 C43 1_555 1_555
C61 H2 1_555 1_555
C62 C26 1_555 1_555
C63 C13 1_555 1_555
C64 C14 1_555 1_555
C65 C14 1_555 1_555
C66 C48 1_555 1_555
C67 C51 1_555 1_555
H3 C67 1_555 1_555
C3 C12 1_555 1_555
C3 C25 1_555 1_555
C5 C28 1_555 1_555
C7 C29 1_555 1_555
C8 C29 1_555 1_555
C13 C25 1_555 1_555
C16 C49 1_555 1_555
C18 C27 1_555 1_555
C22 C52 1_555 1_555
C24 C65 1_555 1_555
C31 C36 1_555 1_555
C32 C38 1_555 1_555
C32 C47 1_555 1_555
C33 C54 1_555 1_555
C34 C38 1_555 1_555
C35 C64 1_555 1_555
C37 C52 1_555 1_555
C39 C62 1_555 1_555
C41 C53 1_555 1_555
C41 C59 1_555 1_555
C44 C45 1_555 1_555
C44 C54 1_555 1_555
C46 C62 1_555 1_555
C47 C57 1_555 1_555
C48 C63 1_555 1_555
C50 C53 1_555 1_555
C50 C56 1_555 1_555
C51 C63 1_555 1_555
C55 C59 1_555 1_555
C55 C65 1_555 1_555
C57 C58 1_555 1_555
C60 C64 1_555 1_555
C61 C66 1_555 1_555
C61 C67 1_555 1_555

#END
