
#######################################################################
#
#                 Cambridge Crystallographic Data Centre
#                                CCDC 
#
#######################################################################
#
# If this CIF has been generated from an entry in the Cambridge 
# Structural Database, then it will include bibliographic, chemical, 
# crystal, experimental, refinement or atomic coordinate data resulting 
# from the CCDC's data processing and validation procedures.
#
#######################################################################

data_KOCLOG
_chemical_formula_moiety         'C22 H18 O3'
_chemical_name_systematic        
3'-(benzenecarbonyl)-3'-(but-1-en-2-yl)-2H-spiro[naphthalene-1,2'-oxiran]-2-one
_symmetry_cell_setting           orthorhombic
_symmetry_space_group_name_H-M   'P n a 21'
_symmetry_Int_Tables_number      33
_space_group_name_Hall           'P 2c -2n'
loop_
_symmetry_equiv_pos_site_id
_symmetry_equiv_pos_as_xyz
1 x,y,z
2 -x,-y,1/2+z
3 1/2-x,1/2+y,1/2+z
4 1/2+x,1/2-y,z
_cell_length_a                   14.3566(10)
_cell_length_b                   9.8762(6)
_cell_length_c                   12.0290(8)
_cell_angle_alpha                90
_cell_angle_beta                 90
_cell_angle_gamma                90
_cell_volume                     1705.58
_exptl_crystal_colour            'light yellow'
_exptl_crystal_description       block
_cell_formula_units_Z            4
loop_
_atom_site_label
_atom_site_type_symbol
_atom_site_fract_x
_atom_site_fract_y
_atom_site_fract_z
O1 O 0.76433(19) 0.5821(3) 0.1733(3)
O2 O 0.6286(3) 0.3953(3) 0.2289(4)
O3 O 0.6194(2) 0.4303(3) -0.0262(4)
C1 C 0.7081(3) 0.8675(4) 0.1917(4)
H1 H 0.769956 0.848335 0.175195
C2 C 0.6808(4) 1.0016(5) 0.2083(4)
H2 H 0.724410 1.070899 0.203368
C3 C 0.5900(4) 1.0310(6) 0.2319(5)
H3 H 0.571847 1.120706 0.240984
C4 C 0.5250(4) 0.9289(5) 0.2424(5)
H4 H 0.463507 0.950028 0.259249
C5 C 0.5516(3) 0.7930(5) 0.2277(4)
C6 C 0.6443(3) 0.7623(4) 0.1993(3)
C7 C 0.6683(3) 0.6201(4) 0.1746(4)
C8 C 0.6020(3) 0.5110(5) 0.2184(4)
C9 C 0.5084(3) 0.5549(5) 0.2409(5)
H5 H 0.462673 0.489959 0.253463
C10 C 0.4850(3) 0.6847(6) 0.2445(5)
H6 H 0.423132 0.707239 0.258326
C11 C 0.7178(3) 0.5802(4) 0.0688(4)
C12 C 0.6944(3) 0.4423(4) 0.0179(4)
C13 C 0.7647(3) 0.3323(4) 0.0152(4)
C14 C 0.7377(3) 0.2077(4) -0.0267(5)
H7 H 0.676664 0.195330 -0.050579
C15 C 0.7999(4) 0.1020(5) -0.0334(6)
H8 H 0.781023 0.019157 -0.062450
C16 C 0.8892(4) 0.1189(5) 0.0026(5)
H9 H 0.930827 0.046870 -0.000107
C17 C 0.9176(4) 0.2415(6) 0.0426(6)
H10 H 0.979074 0.253224 0.064829
C18 C 0.8555(3) 0.3489(5) 0.0504(5)
H11 H 0.874995 0.431537 0.079215
C19 C 0.7495(3) 0.6802(4) -0.0176(4)
C20 C 0.8360(3) 0.7239(5) -0.0173(5)
H12 H 0.877534 0.692999 0.036370
H13 H 0.855657 0.785760 -0.070634
C21 C 0.6827(3) 0.7161(5) -0.1098(5)
H14 H 0.713600 0.778279 -0.160187
H15 H 0.668414 0.634486 -0.151343
C22 C 0.5926(4) 0.7794(7) -0.0719(5)
H16 H 0.555592 0.802629 -0.135556
H17 H 0.605792 0.859600 -0.029693
H18 H 0.559104 0.716167 -0.026342
loop_
_geom_bond_atom_site_label_1
_geom_bond_atom_site_label_2
_geom_bond_site_symmetry_1
_geom_bond_site_symmetry_2
O1 C7 1_555 1_555
O2 C8 1_555 1_555
O3 C12 1_555 1_555
C1 H1 1_555 1_555
C2 C1 1_555 1_555
H2 C2 1_555 1_555
C3 C2 1_555 1_555
H3 C3 1_555 1_555
C4 C3 1_555 1_555
H4 C4 1_555 1_555
C5 C4 1_555 1_555
C6 C1 1_555 1_555
C7 C6 1_555 1_555
C8 C7 1_555 1_555
C9 C8 1_555 1_555
H5 C9 1_555 1_555
C10 C5 1_555 1_555
H6 C10 1_555 1_555
C11 O1 1_555 1_555
C12 C11 1_555 1_555
C13 C12 1_555 1_555
C14 C13 1_555 1_555
H7 C14 1_555 1_555
C15 C14 1_555 1_555
H8 C15 1_555 1_555
C16 C15 1_555 1_555
H9 C16 1_555 1_555
C17 C16 1_555 1_555
H10 C17 1_555 1_555
C18 C13 1_555 1_555
H11 C18 1_555 1_555
C19 C11 1_555 1_555
C20 C19 1_555 1_555
H12 C20 1_555 1_555
H13 C20 1_555 1_555
C21 C19 1_555 1_555
H14 C21 1_555 1_555
H15 C21 1_555 1_555
C22 C21 1_555 1_555
H16 C22 1_555 1_555
H17 C22 1_555 1_555
H18 C22 1_555 1_555
C5 C6 1_555 1_555
C7 C11 1_555 1_555
C9 C10 1_555 1_555
C17 C18 1_555 1_555

#END
