
#######################################################################
#
#                 Cambridge Crystallographic Data Centre
#                                CCDC 
#
#######################################################################
#
# If this CIF has been generated from an entry in the Cambridge 
# Structural Database, then it will include bibliographic, chemical, 
# crystal, experimental, refinement or atomic coordinate data resulting 
# from the CCDC's data processing and validation procedures.
#
#######################################################################

data_KOCLIA
_chemical_formula_moiety         'C19 H16 Cl1 N5 O1'
_chemical_name_systematic        
N-[2-(1H-benzimidazol-2-yl)phenyl]-5-chloro-1,3-dimethyl-1H-pyrazole-4-carboxamide
_symmetry_cell_setting           monoclinic
_symmetry_space_group_name_H-M   'P 21/c'
_symmetry_Int_Tables_number      14
_space_group_name_Hall           '-P 2ybc'
loop_
_symmetry_equiv_pos_site_id
_symmetry_equiv_pos_as_xyz
1 x,y,z
2 -x,1/2+y,1/2-z
3 -x,-y,-z
4 x,1/2-y,1/2+z
_cell_length_a                   9.2973(4)
_cell_length_b                   16.7097(7)
_cell_length_c                   11.0503(5)
_cell_angle_alpha                90
_cell_angle_beta                 94.760(4)
_cell_angle_gamma                90
_cell_volume                     1710.8
_exptl_crystal_colour            yellow
_exptl_crystal_description       block
_cell_formula_units_Z            4
loop_
_atom_site_label
_atom_site_type_symbol
_atom_site_fract_x
_atom_site_fract_y
_atom_site_fract_z
C1 C 0.65960(18) -0.09013(10) 0.83622(17)
C2 C 0.76126(18) -0.02764(10) 0.85964(16)
C3 C 0.74844(18) -0.00855(10) 0.97972(16)
C4 C 0.86019(17) 0.00471(10) 0.77324(16)
C5 C 0.97516(18) 0.13232(11) 0.71615(16)
C6 C 0.97170(18) 0.21641(10) 0.73256(16)
C7 C 1.05895(18) 0.26360(11) 0.66442(17)
H1 H 1.0576 0.3188 0.6744
C8 C 1.1472(2) 0.23111(11) 0.58276(17)
H2 H 1.2044 0.2639 0.5387
C9 C 1.14905(19) 0.14883(11) 0.56748(17)
H3 H 1.2079 0.1263 0.5125
C10 C 1.06439(19) 0.09990(11) 0.63310(18)
H4 H 1.0669 0.0448 0.6218
C11 C 0.87825(18) 0.25457(10) 0.81689(15)
C12 C 0.71797(18) 0.27471(10) 0.94458(16)
C13 C 0.61131(19) 0.26693(11) 1.02545(17)
H5 H 0.5716 0.2173 1.0414
C14 C 0.56680(19) 0.33560(11) 1.08095(17)
H6 H 0.4962 0.3321 1.1356
C15 C 0.62581(19) 0.41040(11) 1.05665(17)
H7 H 0.5926 0.4555 1.0950
C16 C 0.73231(19) 0.41899(11) 0.97701(18)
H8 H 0.7715 0.4687 0.9611
C17 C 0.77763(18) 0.34961(11) 0.92208(16)
C18 C 0.6058(2) -0.06416(13) 1.14582(18)
H9 H 0.6737 -0.0980 1.1916
H10 H 0.5113 -0.0874 1.1440
H11 H 0.6049 -0.0123 1.1833
C19 C 0.6201(2) -0.13489(11) 0.72096(18)
H12 H 0.5417 -0.1707 0.7326
H13 H 0.7019 -0.1650 0.6991
H14 H 0.5914 -0.0977 0.6573
Cl1 Cl 0.83884(5) 0.05921(3) 1.07324(4)
N1 N 0.64762(16) -0.05612(9) 1.02248(14)
N2 N 0.59137(16) -0.10669(9) 0.93419(14)
N3 N 0.88749(15) 0.08393(8) 0.78413(14)
H15 H 0.8456 0.1081 0.8402
N4 N 0.87992(15) 0.33526(8) 0.84061(13)
H16 H 0.9344 0.3703 0.8104
N5 N 0.78186(15) 0.21640(9) 0.87694(14)
O1 O 0.90988(13) -0.04032(7) 0.69781(11)
loop_
_geom_bond_atom_site_label_1
_geom_bond_atom_site_label_2
_geom_bond_site_symmetry_1
_geom_bond_site_symmetry_2
C1 C2 1_555 1_555
C2 C3 1_555 1_555
C3 Cl1 1_555 1_555
C4 C2 1_555 1_555
C5 C6 1_555 1_555
C6 C7 1_555 1_555
C7 H1 1_555 1_555
C8 C7 1_555 1_555
H2 C8 1_555 1_555
C9 C8 1_555 1_555
H3 C9 1_555 1_555
C10 C5 1_555 1_555
H4 C10 1_555 1_555
C11 C6 1_555 1_555
C12 C13 1_555 1_555
C13 H5 1_555 1_555
C14 C13 1_555 1_555
H6 C14 1_555 1_555
C15 C14 1_555 1_555
H7 C15 1_555 1_555
C16 C15 1_555 1_555
H8 C16 1_555 1_555
C17 C12 1_555 1_555
C18 H9 1_555 1_555
H10 C18 1_555 1_555
H11 C18 1_555 1_555
C19 C1 1_555 1_555
H12 C19 1_555 1_555
H13 C19 1_555 1_555
H14 C19 1_555 1_555
N1 C3 1_555 1_555
N2 C1 1_555 1_555
N3 C4 1_555 1_555
H15 N3 1_555 1_555
N4 C11 1_555 1_555
H16 N4 1_555 1_555
N5 C11 1_555 1_555
O1 C4 1_555 1_555
C5 N3 1_555 1_555
C9 C10 1_555 1_555
C12 N5 1_555 1_555
C16 C17 1_555 1_555
C17 N4 1_555 1_555
C18 N1 1_555 1_555
N1 N2 1_555 1_555

#END
