
#######################################################################
#
#                 Cambridge Crystallographic Data Centre
#                                CCDC 
#
#######################################################################
#
# If this CIF has been generated from an entry in the Cambridge 
# Structural Database, then it will include bibliographic, chemical, 
# crystal, experimental, refinement or atomic coordinate data resulting 
# from the CCDC's data processing and validation procedures.
#
#######################################################################

data_KOCREC
_chemical_formula_moiety         
'C70 H94 Mg2 N6 O2 2-,2(C16 H32 Li1 O4 1+),2(C4 H8 O1)'
_chemical_name_systematic        
'bis(tetrakis(tetrahydrofuran)-lithium) bis{N^1^,N^2^-bis[2,6-diisopropylphenyl]benzene-1,2-diaminato}-(\m-N^1^,N^2^-di-t-butylethanediimidato)-di-magnesium tetrahydrofuran solvate'
_symmetry_cell_setting           triclinic
_symmetry_space_group_name_H-M   'P -1'
_symmetry_Int_Tables_number      2
_space_group_name_Hall           '-P 1'
loop_
_symmetry_equiv_pos_site_id
_symmetry_equiv_pos_as_xyz
1 x,y,z
2 -x,-y,-z
_cell_length_a                   12.575(2)
_cell_length_b                   12.681(2)
_cell_length_c                   17.464(3)
_cell_angle_alpha                80.066(2)
_cell_angle_beta                 81.603(2)
_cell_angle_gamma                84.333(2)
_cell_volume                     2705.97
_exptl_crystal_colour            yellow
_exptl_crystal_description       block
_cell_formula_units_Z            1
loop_
_atom_site_label
_atom_site_type_symbol
_atom_site_fract_x
_atom_site_fract_y
_atom_site_fract_z
Mg1 Mg 0.61383(7) 0.61529(7) 0.37407(5)
O1 O 0.37536(14) 0.52705(14) 0.55815(10)
N1 N 0.62967(17) 0.62807(18) 0.25580(12)
N2 N 0.72751(17) 0.72303(17) 0.35306(12)
N3 N 0.46747(16) 0.63031(17) 0.45018(12)
C1 C 0.6925(2) 0.7128(2) 0.22130(15)
C2 C 0.7454(2) 0.7613(2) 0.27281(15)
C3 C 0.8145(2) 0.8422(2) 0.23916(16)
H1 H 0.8527 0.8723 0.2722
C4 C 0.8289(2) 0.8797(2) 0.15862(17)
H2 H 0.8745 0.9362 0.1378
C5 C 0.7772(2) 0.8349(2) 0.10951(17)
H3 H 0.7866 0.8602 0.0547
C6 C 0.7104(2) 0.7517(2) 0.14104(16)
H4 H 0.6759 0.7205 0.1065
C7 C 0.5979(2) 0.5666(2) 0.20348(15)
C8 C 0.6556(2) 0.4680(2) 0.19237(16)
C9 C 0.6246(3) 0.4087(3) 0.14002(18)
H5 H 0.6641 0.3428 0.1320
C10 C 0.5379(3) 0.4439(3) 0.09971(18)
H6 H 0.5177 0.4025 0.0644
C11 C 0.4807(3) 0.5397(3) 0.11117(17)
H7 H 0.4208 0.5636 0.0836
C12 C 0.5088(2) 0.6021(2) 0.16218(16)
C13 C 0.4418(2) 0.7060(3) 0.17378(17)
H8 H 0.4793 0.7440 0.2065
C14 C 0.4294(3) 0.7816(3) 0.0966(2)
H9 H 0.5008 0.7981 0.0689
H10 H 0.3882 0.8482 0.1077
H11 H 0.3912 0.7469 0.0639
C15 C 0.3302(3) 0.6818(3) 0.2188(2)
H12 H 0.2907 0.6467 0.1871
H13 H 0.2900 0.7490 0.2295
H14 H 0.3388 0.6343 0.2684
C16 C 0.7540(3) 0.4280(3) 0.23319(18)
H15 H 0.7472 0.4616 0.2816
C17 C 0.8563(3) 0.4655(3) 0.1806(2)
H16 H 0.9193 0.4402 0.2076
H17 H 0.8515 0.5441 0.1689
H18 H 0.8636 0.4361 0.1315
C18 C 0.7652(3) 0.3063(3) 0.2581(2)
H19 H 0.6959 0.2816 0.2850
H20 H 0.8200 0.2875 0.2938
H21 H 0.7868 0.2716 0.2117
C19 C 0.8086(2) 0.7427(2) 0.39664(15)
C20 C 0.9102(2) 0.6829(2) 0.38950(15)
C21 C 0.9882(2) 0.7013(2) 0.43318(17)
H22 H 1.0556 0.6603 0.4292
C22 C 0.9706(2) 0.7772(3) 0.48217(18)
H23 H 1.0259 0.7894 0.5106
C23 C 0.8714(2) 0.8359(2) 0.48958(17)
H24 H 0.8590 0.8881 0.5235
C24 C 0.7895(2) 0.8193(2) 0.44786(16)
C25 C 0.9345(2) 0.5975(2) 0.33736(17)
H25 H 0.8725 0.6010 0.3068
C26 C 1.0358(3) 0.6181(3) 0.27848(19)
H26 H 1.0284 0.6909 0.2488
H27 H 1.0453 0.5658 0.2423
H28 H 1.0988 0.6110 0.3066
C27 C 0.9427(3) 0.4854(3) 0.3865(2)
H29 H 0.9991 0.4814 0.4204
H30 H 0.9609 0.4316 0.3517
H31 H 0.8735 0.4716 0.4189
C28 C 0.6807(2) 0.8828(2) 0.45744(16)
H32 H 0.6244 0.8322 0.4576
C29 C 0.6560(2) 0.9277(2) 0.53408(17)
H33 H 0.6656 0.8698 0.5781
H34 H 0.5814 0.9590 0.5397
H35 H 0.7051 0.9833 0.5337
C30 C 0.6698(2) 0.9730(2) 0.38764(17)
H36 H 0.7248 1.0235 0.3848
H37 H 0.5980 1.0107 0.3944
H38 H 0.6795 0.9422 0.3391
C31 C 0.45435(19) 0.5447(2) 0.50276(14)
C32 C 0.3863(2) 0.7241(2) 0.45188(15)
C33 C 0.3835(2) 0.7698(2) 0.52761(16)
H39 H 0.3648 0.7143 0.5727
H40 H 0.3295 0.8310 0.5285
H41 H 0.4546 0.7936 0.5302
C34 C 0.2738(2) 0.6943(2) 0.44446(18)
H42 H 0.2771 0.6597 0.3980
H43 H 0.2247 0.7594 0.4392
H44 H 0.2473 0.6448 0.4914
C35 C 0.4221(2) 0.8077(2) 0.38108(16)
H45 H 0.4939 0.8282 0.3852
H46 H 0.3708 0.8712 0.3797
H47 H 0.4245 0.7772 0.3329
N3A N 0.53253(16) 0.36969(17) 0.54982(12)
C31A C 0.54565(19) 0.4553(2) 0.49724(14)
C32A C 0.6137(2) 0.2759(2) 0.54812(15)
C33A C 0.6165(2) 0.2302(2) 0.47239(16)
H39A H 0.6352 0.2857 0.4273
H40A H 0.6705 0.1690 0.4715
H41A H 0.5454 0.2064 0.4698
C34A C 0.7262(2) 0.3057(2) 0.55554(18)
H42A H 0.7229 0.3403 0.6020
H43A H 0.7753 0.2406 0.5608
H44A H 0.7527 0.3552 0.5086
C35A C 0.5779(2) 0.1923(2) 0.61892(16)
H45A H 0.5061 0.1718 0.6148
H46A H 0.6292 0.1288 0.6203
H47A H 0.5755 0.2228 0.6671
O1A O 0.62464(14) 0.47295(14) 0.44185(10)
Mg1A Mg 0.38617(7) 0.38471(7) 0.62593(5)
N1A N 0.37033(17) 0.37193(18) 0.74420(12)
N2A N 0.27249(17) 0.27697(17) 0.64694(12)
C1A C 0.3075(2) 0.2872(2) 0.77870(15)
C2A C 0.2546(2) 0.2387(2) 0.72719(15)
C3A C 0.1855(2) 0.1578(2) 0.76084(16)
H1A H 0.1473 0.1277 0.7278
C4A C 0.1711(2) 0.1203(2) 0.84138(17)
H2A H 0.1255 0.0638 0.8622
C5A C 0.2228(2) 0.1651(2) 0.89049(17)
H3A H 0.2134 0.1398 0.9453
C6A C 0.2896(2) 0.2483(2) 0.85896(16)
H4A H 0.3241 0.2795 0.8935
C7A C 0.4021(2) 0.4334(2) 0.79652(15)
C8A C 0.3444(2) 0.5320(2) 0.80763(16)
C9A C 0.3754(3) 0.5913(3) 0.85998(18)
H5A H 0.3359 0.6572 0.8680
C10A C 0.4621(3) 0.5561(3) 0.90029(18)
H6A H 0.4823 0.5975 0.9356
C11A C 0.5193(3) 0.4603(3) 0.88883(17)
H7A H 0.5792 0.4364 0.9164
C12A C 0.4912(2) 0.3979(2) 0.83782(16)
C13A C 0.5582(2) 0.2940(3) 0.82622(17)
H8A H 0.5207 0.2560 0.7935
C14A C 0.5706(3) 0.2184(3) 0.9034(2)
H9A H 0.4992 0.2019 0.9311
H10A H 0.6118 0.1518 0.8923
H11A H 0.6088 0.2531 0.9361
C15A C 0.6698(3) 0.3182(3) 0.7812(2)
H12A H 0.7093 0.3533 0.8129
H13A H 0.7100 0.2510 0.7705
H14A H 0.6612 0.3657 0.7316
C16A C 0.2460(3) 0.5720(3) 0.76681(18)
H15A H 0.2528 0.5384 0.7184
C17A C 0.1437(3) 0.5345(3) 0.8194(2)
H16A H 0.0807 0.5598 0.7924
H17A H 0.1485 0.4559 0.8311
H18A H 0.1364 0.5639 0.8685
C18A C 0.2348(3) 0.6937(3) 0.7419(2)
H19A H 0.3041 0.7184 0.7150
H20A H 0.1800 0.7125 0.7062
H21A H 0.2132 0.7284 0.7883
C19A C 0.1914(2) 0.2573(2) 0.60336(15)
C20A C 0.0898(2) 0.3171(2) 0.61050(15)
C21A C 0.0118(2) 0.2987(2) 0.56682(17)
H22A H -0.0556 0.3397 0.5708
C22A C 0.0294(2) 0.2228(3) 0.51783(18)
H23A H -0.0259 0.2106 0.4894
C23A C 0.1286(2) 0.1641(2) 0.51042(17)
H24A H 0.1410 0.1119 0.4765
C24A C 0.2105(2) 0.1807(2) 0.55214(16)
C25A C 0.0655(2) 0.4025(2) 0.66264(17)
H25A H 0.1275 0.3990 0.6932
C26A C -0.0358(3) 0.3819(3) 0.72152(19)
H26A H -0.0284 0.3091 0.7512
H27A H -0.0453 0.4342 0.7577
H28A H -0.0988 0.3890 0.6934
C27A C 0.0573(3) 0.5146(3) 0.6135(2)
H29A H 0.0009 0.5186 0.5796
H30A H 0.0391 0.5684 0.6483
H31A H 0.1265 0.5284 0.5811
C28A C 0.3193(2) 0.1172(2) 0.54256(16)
H32A H 0.3756 0.1678 0.5424
C29A C 0.3440(2) 0.0723(2) 0.46592(17)
H33A H 0.3344 0.1302 0.4219
H34A H 0.4186 0.0410 0.4603
H35A H 0.2949 0.0167 0.4663
C30A C 0.3302(2) 0.0270(2) 0.61236(17)
H36A H 0.2752 -0.0235 0.6152
H37A H 0.4020 -0.0107 0.6056
H38A H 0.3205 0.0578 0.6609
Li1 Li 0.2666(4) 0.1995(4) 0.2294(3)
O2 O 0.20016(19) 0.29789(19) 0.14992(14)
O3 O 0.39253(19) 0.1178(2) 0.18722(13)
O4 O 0.30771(18) 0.28508(18) 0.29856(13)
O5 O 0.15805(19) 0.1023(2) 0.27731(17)
C36 C 0.2369(4) 0.4032(3) 0.1237(2)
H48 H 0.3114 0.4059 0.1350
H49 H 0.1892 0.4574 0.1495
C37 C 0.1311(4) 0.2760(4) 0.0973(2)
H50 H 0.0570 0.2675 0.1246
H51 H 0.1579 0.2091 0.0764
C38 C 0.1318(3) 0.3710(4) 0.0312(2)
H52 H 0.1358 0.3472 -0.0203
H53 H 0.0670 0.4210 0.0389
C39 C 0.2324(4) 0.4223(4) 0.0375(2)
H54 H 0.2967 0.3878 0.0091
H55 H 0.2267 0.5001 0.0165
C40 C 0.4651(4) 0.0453(5) 0.2307(2)
H56 H 0.4737 0.0732 0.2789
H57 H 0.4346 -0.0254 0.2466
C41 C 0.4383(4) 0.1308(4) 0.1077(2)
H58 H 0.4465 0.2078 0.0870
H59 H 0.3913 0.1033 0.0760
C42 C 0.5455(4) 0.0694(4) 0.1035(2)
H60 H 0.6028 0.1155 0.0757
H61 H 0.5456 0.0069 0.0764
C43 C 0.5609(5) 0.0337(6) 0.1880(3)
H62 H 0.5897 -0.0424 0.1964
H63 H 0.6125 0.0779 0.2032
C44 C 0.2323(4) 0.3540(3) 0.3409(3)
H64 H 0.1740 0.3137 0.3740
H65 H 0.2002 0.4139 0.3051
C45 C 0.4162(4) 0.3113(4) 0.3011(2)
H66 H 0.4581 0.2476 0.3260
H67 H 0.4524 0.3331 0.2472
C46 C 0.4124(6) 0.3973(4) 0.3452(4)
H68 H 0.4199 0.4670 0.3100
H69 H 0.4704 0.3855 0.3792
C47 C 0.3073(8) 0.3950(4) 0.3919(2)
H70 H 0.2807 0.4676 0.4031
H71 H 0.3104 0.3458 0.4422
C48 C 0.0470(3) 0.1360(4) 0.3012(3)
H72 H 0.0215 0.1969 0.2630
H73 H 0.0386 0.1586 0.3534
C49 C 0.1664(4) -0.0098(4) 0.2799(5)
H74 H 0.1987 -0.0459 0.3270
H75 H 0.2130 -0.0292 0.2329
C50 C 0.0598(5) -0.0432(4) 0.2827(4)
H76 H 0.0489 -0.0586 0.2308
H77 H 0.0487 -0.1088 0.3219
C51 C -0.0132(5) 0.0433(5) 0.3040(7)
H78 H -0.0511 0.0227 0.3575
H79 H -0.0677 0.0607 0.2672
O6 O 0.8854(4) 0.1882(5) 0.9164(3)
C52 C 0.8663(6) 0.1638(5) 1.0538(3)
H80 H 0.7988 0.1555 1.0906
H81 H 0.9272 0.1315 1.0822
C53 C 0.8862(8) 0.2906(5) 0.9493(5)
H82 H 0.9537 0.3253 0.9277
H83 H 0.8248 0.3408 0.9337
C54 C 0.8788(6) 0.2695(4) 1.0279(3)
H84 H 0.8165 0.3129 1.0511
H85 H 0.9448 0.2894 1.0449
C55 C 0.8623(6) 0.1083(4) 0.9879(3)
H86 H 0.7902 0.0819 0.9905
H87 H 0.9169 0.0464 0.9883
loop_
_geom_bond_atom_site_label_1
_geom_bond_atom_site_label_2
_geom_bond_site_symmetry_1
_geom_bond_site_symmetry_2
Mg1 N1 1_555 1_555
O1 C31 1_555 1_555
N1 C1 1_555 1_555
N2 Mg1 1_555 1_555
N3 Mg1 1_555 1_555
C1 C2 1_555 1_555
C2 N2 1_555 1_555
C3 C2 1_555 1_555
H1 C3 1_555 1_555
C4 C3 1_555 1_555
H2 C4 1_555 1_555
C5 C4 1_555 1_555
H3 C5 1_555 1_555
C6 C1 1_555 1_555
H4 C6 1_555 1_555
C7 N1 1_555 1_555
C8 C7 1_555 1_555
C9 C8 1_555 1_555
H5 C9 1_555 1_555
C10 C9 1_555 1_555
H6 C10 1_555 1_555
C11 C10 1_555 1_555
H7 C11 1_555 1_555
C12 C7 1_555 1_555
C13 C12 1_555 1_555
H8 C13 1_555 1_555
C14 C13 1_555 1_555
H9 C14 1_555 1_555
H10 C14 1_555 1_555
H11 C14 1_555 1_555
C15 C13 1_555 1_555
H12 C15 1_555 1_555
H13 C15 1_555 1_555
H14 C15 1_555 1_555
C16 C8 1_555 1_555
H15 C16 1_555 1_555
C17 C16 1_555 1_555
H16 C17 1_555 1_555
H17 C17 1_555 1_555
H18 C17 1_555 1_555
C18 C16 1_555 1_555
H19 C18 1_555 1_555
H20 C18 1_555 1_555
H21 C18 1_555 1_555
C19 N2 1_555 1_555
C20 C19 1_555 1_555
C21 C20 1_555 1_555
H22 C21 1_555 1_555
C22 C21 1_555 1_555
H23 C22 1_555 1_555
C23 C22 1_555 1_555
H24 C23 1_555 1_555
C24 C19 1_555 1_555
C25 C20 1_555 1_555
H25 C25 1_555 1_555
C26 C25 1_555 1_555
H26 C26 1_555 1_555
H27 C26 1_555 1_555
H28 C26 1_555 1_555
C27 C25 1_555 1_555
H29 C27 1_555 1_555
H30 C27 1_555 1_555
H31 C27 1_555 1_555
C28 C24 1_555 1_555
H32 C28 1_555 1_555
C29 C28 1_555 1_555
H33 C29 1_555 1_555
H34 C29 1_555 1_555
H35 C29 1_555 1_555
C30 C28 1_555 1_555
H36 C30 1_555 1_555
H37 C30 1_555 1_555
H38 C30 1_555 1_555
C31 N3 1_555 1_555
C32 N3 1_555 1_555
C33 C32 1_555 1_555
H39 C33 1_555 1_555
H40 C33 1_555 1_555
H41 C33 1_555 1_555
C34 C32 1_555 1_555
H42 C34 1_555 1_555
H43 C34 1_555 1_555
H44 C34 1_555 1_555
C35 C32 1_555 1_555
H45 C35 1_555 1_555
H46 C35 1_555 1_555
H47 C35 1_555 1_555
Li1 O2 1_555 1_555
O2 C36 1_555 1_555
O3 Li1 1_555 1_555
O4 Li1 1_555 1_555
O5 Li1 1_555 1_555
C36 H48 1_555 1_555
H49 C36 1_555 1_555
C37 O2 1_555 1_555
H50 C37 1_555 1_555
H51 C37 1_555 1_555
C38 C37 1_555 1_555
H52 C38 1_555 1_555
H53 C38 1_555 1_555
C39 C36 1_555 1_555
H54 C39 1_555 1_555
H55 C39 1_555 1_555
C40 O3 1_555 1_555
H56 C40 1_555 1_555
H57 C40 1_555 1_555
C41 O3 1_555 1_555
H58 C41 1_555 1_555
H59 C41 1_555 1_555
C42 C41 1_555 1_555
H60 C42 1_555 1_555
H61 C42 1_555 1_555
C43 C40 1_555 1_555
H62 C43 1_555 1_555
H63 C43 1_555 1_555
C44 O4 1_555 1_555
H64 C44 1_555 1_555
H65 C44 1_555 1_555
C45 O4 1_555 1_555
H66 C45 1_555 1_555
H67 C45 1_555 1_555
C46 C45 1_555 1_555
H68 C46 1_555 1_555
H69 C46 1_555 1_555
C47 C44 1_555 1_555
H70 C47 1_555 1_555
H71 C47 1_555 1_555
C48 O5 1_555 1_555
H72 C48 1_555 1_555
H73 C48 1_555 1_555
C49 O5 1_555 1_555
H74 C49 1_555 1_555
H75 C49 1_555 1_555
C50 C49 1_555 1_555
H76 C50 1_555 1_555
H77 C50 1_555 1_555
C51 C48 1_555 1_555
H78 C51 1_555 1_555
H79 C51 1_555 1_555
O6 C53 1_555 1_555
C52 H80 1_555 1_555
H81 C52 1_555 1_555
C53 H82 1_555 1_555
H83 C53 1_555 1_555
C54 C52 1_555 1_555
H84 C54 1_555 1_555
H85 C54 1_555 1_555
C55 O6 1_555 1_555
H86 C55 1_555 1_555
H87 C55 1_555 1_555
N3A C31A 1_555 1_555
C31A C31 1_555 1_555
C32A N3A 1_555 1_555
C33A C32A 1_555 1_555
H39A C33A 1_555 1_555
H40A C33A 1_555 1_555
H41A C33A 1_555 1_555
C34A C32A 1_555 1_555
H42A C34A 1_555 1_555
H43A C34A 1_555 1_555
H44A C34A 1_555 1_555
C35A C32A 1_555 1_555
H45A C35A 1_555 1_555
H46A C35A 1_555 1_555
H47A C35A 1_555 1_555
O1A Mg1 1_555 1_555
Mg1A O1 1_555 1_555
N1A Mg1A 1_555 1_555
N2A Mg1A 1_555 1_555
C1A N1A 1_555 1_555
C2A N2A 1_555 1_555
C3A C2A 1_555 1_555
H1A C3A 1_555 1_555
C4A C3A 1_555 1_555
H2A C4A 1_555 1_555
C5A C4A 1_555 1_555
H3A C5A 1_555 1_555
C6A C1A 1_555 1_555
H4A C6A 1_555 1_555
C7A N1A 1_555 1_555
C8A C7A 1_555 1_555
C9A C8A 1_555 1_555
H5A C9A 1_555 1_555
C10A C9A 1_555 1_555
H6A C10A 1_555 1_555
C11A C10A 1_555 1_555
H7A C11A 1_555 1_555
C12A C7A 1_555 1_555
C13A C12A 1_555 1_555
H8A C13A 1_555 1_555
C14A C13A 1_555 1_555
H9A C14A 1_555 1_555
H10A C14A 1_555 1_555
H11A C14A 1_555 1_555
C15A C13A 1_555 1_555
H12A C15A 1_555 1_555
H13A C15A 1_555 1_555
H14A C15A 1_555 1_555
C16A C8A 1_555 1_555
H15A C16A 1_555 1_555
C17A C16A 1_555 1_555
H16A C17A 1_555 1_555
H17A C17A 1_555 1_555
H18A C17A 1_555 1_555
C18A C16A 1_555 1_555
H19A C18A 1_555 1_555
H20A C18A 1_555 1_555
H21A C18A 1_555 1_555
C19A N2A 1_555 1_555
C20A C19A 1_555 1_555
C21A C20A 1_555 1_555
H22A C21A 1_555 1_555
C22A C21A 1_555 1_555
H23A C22A 1_555 1_555
C23A C22A 1_555 1_555
H24A C23A 1_555 1_555
C24A C19A 1_555 1_555
C25A C20A 1_555 1_555
H25A C25A 1_555 1_555
C26A C25A 1_555 1_555
H26A C26A 1_555 1_555
H27A C26A 1_555 1_555
H28A C26A 1_555 1_555
C27A C25A 1_555 1_555
H29A C27A 1_555 1_555
H30A C27A 1_555 1_555
H31A C27A 1_555 1_555
C28A C24A 1_555 1_555
H32A C28A 1_555 1_555
C29A C28A 1_555 1_555
H33A C29A 1_555 1_555
H34A C29A 1_555 1_555
H35A C29A 1_555 1_555
C30A C28A 1_555 1_555
H36A C30A 1_555 1_555
H37A C30A 1_555 1_555
H38A C30A 1_555 1_555
C5 C6 1_555 1_555
C11 C12 1_555 1_555
C23 C24 1_555 1_555
C38 C39 1_555 1_555
C42 C43 1_555 1_555
C46 C47 1_555 1_555
C50 C51 1_555 1_555
C52 C55 1_555 1_555
C53 C54 1_555 1_555
N3A Mg1A 1_555 1_555
C31A O1A 1_555 1_555
C1A C2A 1_555 1_555
C5A C6A 1_555 1_555
C11A C12A 1_555 1_555
C23A C24A 1_555 1_555

#END
