
#######################################################################
#
#                 Cambridge Crystallographic Data Centre
#                                CCDC 
#
#######################################################################
#
# If this CIF has been generated from an entry in the Cambridge 
# Structural Database, then it will include bibliographic, chemical, 
# crystal, experimental, refinement or atomic coordinate data resulting 
# from the CCDC's data processing and validation procedures.
#
#######################################################################

data_KOCRAY
_chemical_formula_moiety         'C84 H124 K2 Mg2 N4 O6,3.5(C7 H8)'
_chemical_name_systematic        
'bis(\m-N^1^,N^2^-bis[2,6-diisopropylphenyl]benzene-1,2-diaminato)-hexakis(tetrahydrofuran)-di-magnesium(i)-di-potassium toluene solvate'
_symmetry_cell_setting           orthorhombic
_symmetry_space_group_name_H-M   'P b c a'
_symmetry_Int_Tables_number      61
_space_group_name_Hall           '-P 2ac 2ab'
loop_
_symmetry_equiv_pos_site_id
_symmetry_equiv_pos_as_xyz
1 x,y,z
2 1/2-x,-y,1/2+z
3 -x,1/2+y,1/2-z
4 1/2+x,1/2-y,-z
5 -x,-y,-z
6 1/2+x,y,1/2-z
7 x,1/2-y,1/2+z
8 1/2-x,1/2+y,z
_cell_length_a                   20.745(3)
_cell_length_b                   16.854(3)
_cell_length_c                   28.794(5)
_cell_angle_alpha                90
_cell_angle_beta                 90
_cell_angle_gamma                90
_cell_volume                     10067.4
_exptl_crystal_colour            yellow
_exptl_crystal_description       block
_cell_formula_units_Z            4
loop_
_atom_site_label
_atom_site_type_symbol
_atom_site_fract_x
_atom_site_fract_y
_atom_site_fract_z
Mg1 Mg 0.49442(4) 0.45361(5) 0.54068(3)
K1 K 0.48550(3) 0.52072(4) 0.69073(2)
O1 O 0.48881(12) 0.66282(13) 0.64871(7)
O2 O 0.39225(11) 0.54762(14) 0.75289(8)
O3 O 0.56320(12) 0.57326(15) 0.75998(8)
N1 N 0.42852(10) 0.41318(12) 0.58707(7)
N2 N 0.55684(10) 0.40885(12) 0.58783(7)
C1 C 0.45648(12) 0.38402(14) 0.62698(8)
C2 C 0.52657(12) 0.38170(14) 0.62734(8)
C3 C 0.55753(12) 0.35457(15) 0.66753(8)
H1 H 0.6057 0.3527 0.6682
C4 C 0.52316(13) 0.33202(16) 0.70745(9)
H2 H 0.5468 0.3155 0.7362
C5 C 0.45626(13) 0.33421(15) 0.70711(9)
H3 H 0.4315 0.3167 0.7351
C6 C 0.42346(12) 0.35948(15) 0.66706(9)
H4 H 0.3754 0.3553 0.6661
C7 C 0.36085(12) 0.40414(15) 0.58091(8)
C8 C 0.31935(13) 0.46993(16) 0.58437(9)
C9 C 0.25369(14) 0.46053(18) 0.57441(10)
H5 H 0.2257 0.5049 0.5768
C10 C 0.22904(14) 0.38796(19) 0.56119(10)
H6 H 0.1844 0.3825 0.5545
C11 C 0.26969(14) 0.32306(18) 0.55772(10)
H7 H 0.2525 0.2732 0.5486
C12 C 0.33552(13) 0.32953(16) 0.56731(9)
C13 C 0.34440(14) 0.55148(17) 0.59849(10)
H8 H 0.3914 0.5459 0.6055
C14 C 0.33773(17) 0.61129(19) 0.55892(12)
H9 H 0.3634 0.5936 0.5323
H10 H 0.3531 0.6633 0.5693
H11 H 0.2923 0.6153 0.5498
C15 C 0.31135(18) 0.5819(2) 0.64236(11)
H12 H 0.2650 0.5873 0.6367
H13 H 0.3294 0.6337 0.6508
H14 H 0.3185 0.5443 0.6678
C16 C 0.38029(14) 0.25911(16) 0.56036(10)
H15 H 0.4191 0.2678 0.5803
C17 C 0.3501(2) 0.1804(2) 0.57474(16)
H16 H 0.3339 0.1845 0.6066
H17 H 0.3827 0.1384 0.5731
H18 H 0.3144 0.1677 0.5538
C18 C 0.40323(18) 0.2548(2) 0.50994(11)
H19 H 0.3660 0.2471 0.4894
H20 H 0.4332 0.2102 0.5064
H21 H 0.4252 0.3043 0.5017
C19 C 0.62295(12) 0.39081(15) 0.58098(8)
C20 C 0.64249(13) 0.31234(15) 0.57061(8)
C21 C 0.70719(14) 0.29722(18) 0.56096(9)
H22 H 0.7205 0.2445 0.5543
C22 C 0.75255(14) 0.35764(19) 0.56087(10)
H23 H 0.7966 0.3462 0.5546
C23 C 0.73336(13) 0.43436(18) 0.56988(10)
H24 H 0.7644 0.4758 0.5692
C24 C 0.66915(12) 0.45259(16) 0.57997(8)
C25 C 0.59345(14) 0.24539(16) 0.56713(9)
H25 H 0.5506 0.2676 0.5761
C26 C 0.60836(18) 0.1771(2) 0.60038(13)
H26 H 0.5727 0.1389 0.5999
H27 H 0.6137 0.1979 0.6319
H28 H 0.6482 0.1506 0.5906
C27 C 0.58774(19) 0.2153(2) 0.51729(11)
H29 H 0.5761 0.2594 0.4968
H30 H 0.5543 0.1742 0.5157
H31 H 0.6291 0.1928 0.5074
C28 C 0.64816(13) 0.53699(16) 0.59090(9)
H32 H 0.6050 0.5451 0.5762
C29 C 0.69327(16) 0.60123(19) 0.57165(11)
H33 H 0.7347 0.5989 0.5880
H34 H 0.6737 0.6536 0.5763
H35 H 0.7002 0.5923 0.5384
C30 C 0.63934(14) 0.54684(18) 0.64343(10)
H36 H 0.6125 0.5036 0.6554
H37 H 0.6183 0.5978 0.6498
H38 H 0.6816 0.5455 0.6587
C31 C 0.4818(2) 0.7278(2) 0.68011(12)
H39 H 0.5104 0.7206 0.7073
H40 H 0.4368 0.7314 0.6912
C32 C 0.4998(3) 0.8009(3) 0.65443(16)
H41 H 0.4714 0.8457 0.6630
H42 H 0.5451 0.8159 0.6607
C33 C 0.4909(4) 0.7787(3) 0.60552(17)
H43 H 0.4800 0.8128 0.5805
C34 C 0.50239(19) 0.6932(2) 0.60334(12)
H44 H 0.4738 0.6683 0.5800
H45 H 0.5477 0.6822 0.5947
C35 C 0.35394(17) 0.6154(2) 0.76668(11)
H46 H 0.3344 0.6411 0.7391
H47 H 0.3810 0.6549 0.7831
C36 C 0.30232(16) 0.5838(2) 0.79851(13)
H48 H 0.2904 0.6233 0.8225
H49 H 0.2633 0.5683 0.7809
C37 C 0.3347(2) 0.5126(2) 0.81981(13)
H50 H 0.3026 0.4736 0.8311
H51 H 0.3631 0.5282 0.8459
C38 C 0.37359(19) 0.4790(2) 0.77956(12)
H52 H 0.3369 0.4607 0.7597
C39 C 0.5364(2) 0.6137(2) 0.79932(13)
H53 H 0.4905 0.6267 0.7939
H54 H 0.5602 0.6635 0.8056
C40 C 0.5430(2) 0.5590(3) 0.83781(17)
H55 H 0.5073 0.5199 0.8380
H56 H 0.5434 0.5876 0.8678
C41 C 0.6060(2) 0.5194(3) 0.82901(16)
H57 H 0.6417 0.5483 0.8444
H58 H 0.6056 0.4638 0.8402
C42 C 0.6124(2) 0.5226(3) 0.77765(14)
H59 H 0.6554 0.5434 0.7690
H60 H 0.6078 0.4687 0.7644
Mg1D Mg 0.50558(4) 0.54639(5) 0.45932(3)
K1D K 0.51450(3) 0.47928(4) 0.30927(2)
O1D O 0.51119(12) 0.33718(13) 0.35129(7)
O2D O 0.60775(11) 0.45238(14) 0.24711(8)
O3D O 0.43680(12) 0.42674(15) 0.24002(8)
N1D N 0.57148(10) 0.58682(12) 0.41293(7)
N2D N 0.44316(10) 0.59115(12) 0.41217(7)
C1D C 0.54352(12) 0.61598(14) 0.37302(8)
C2D C 0.47343(12) 0.61830(14) 0.37266(8)
C3D C 0.44247(12) 0.64543(15) 0.33247(8)
H1D H 0.3943 0.6473 0.3318
C4D C 0.47684(13) 0.66798(16) 0.29255(9)
H2D H 0.4532 0.6845 0.2638
C5D C 0.54374(13) 0.66579(15) 0.29289(9)
H3D H 0.5685 0.6833 0.2649
C6D C 0.57654(12) 0.64052(15) 0.33294(9)
H4D H 0.6246 0.6447 0.3339
C7D C 0.63915(12) 0.59586(15) 0.41909(8)
C8D C 0.68065(13) 0.53007(16) 0.41563(9)
C9D C 0.74631(14) 0.53947(18) 0.42559(10)
H5D H 0.7743 0.4951 0.4232
C10D C 0.77096(14) 0.61204(19) 0.43881(10)
H6D H 0.8156 0.6175 0.4455
C11D C 0.73031(14) 0.67694(18) 0.44228(10)
H7D H 0.7475 0.7268 0.4514
C12D C 0.66448(13) 0.67047(16) 0.43269(9)
C13D C 0.65560(14) 0.44852(17) 0.40151(10)
H8D H 0.6086 0.4541 0.3945
C14D C 0.66227(17) 0.38871(19) 0.44108(12)
H9D H 0.6366 0.4064 0.4677
H10D H 0.6469 0.3367 0.4307
H11D H 0.7077 0.3847 0.4502
C15D C 0.68865(18) 0.4181(2) 0.35764(11)
H12D H 0.7350 0.4127 0.3633
H13D H 0.6706 0.3663 0.3492
H14D H 0.6815 0.4557 0.3322
C16D C 0.61971(14) 0.74089(16) 0.43964(10)
H15D H 0.5809 0.7322 0.4197
C17D C 0.6499(2) 0.8196(2) 0.42526(16)
H16D H 0.6661 0.8155 0.3934
H17D H 0.6173 0.8616 0.4269
H18D H 0.6856 0.8323 0.4462
C18D C 0.59677(18) 0.7452(2) 0.49006(11)
H19D H 0.6340 0.7529 0.5106
H20D H 0.5668 0.7898 0.4936
H21D H 0.5748 0.6957 0.4983
C19D C 0.37705(12) 0.60919(15) 0.41902(8)
C20D C 0.35751(13) 0.68766(15) 0.42939(8)
C21D C 0.29281(14) 0.70278(18) 0.43904(9)
H22D H 0.2795 0.7555 0.4457
C22D C 0.24745(14) 0.64236(19) 0.43913(10)
H23D H 0.2034 0.6538 0.4454
C23D C 0.26664(13) 0.56564(18) 0.43012(10)
H24D H 0.2356 0.5242 0.4308
C24D C 0.33085(12) 0.54741(16) 0.42003(8)
C25D C 0.40655(14) 0.75461(16) 0.43287(9)
H25D H 0.4494 0.7324 0.4239
C26D C 0.39164(18) 0.8229(2) 0.39962(13)
H26D H 0.4273 0.8611 0.4001
H27D H 0.3863 0.8021 0.3681
H28D H 0.3518 0.8494 0.4094
C27D C 0.41226(19) 0.7847(2) 0.48271(11)
H29D H 0.4239 0.7406 0.5032
H30D H 0.4457 0.8258 0.4843
H31D H 0.3709 0.8072 0.4926
C28D C 0.35184(13) 0.46301(16) 0.40910(9)
H32D H 0.3950 0.4549 0.4238
C29D C 0.30673(16) 0.39877(19) 0.42835(11)
H33D H 0.2653 0.4011 0.4120
H34D H 0.3263 0.3464 0.4237
H35D H 0.2998 0.4077 0.4616
C30D C 0.36066(14) 0.45316(18) 0.35657(10)
H36D H 0.3875 0.4964 0.3446
H37D H 0.3817 0.4022 0.3502
H38D H 0.3184 0.4545 0.3413
C31D C 0.5182(2) 0.2722(2) 0.31989(12)
H39D H 0.4896 0.2794 0.2927
H40D H 0.5632 0.2686 0.3088
C32D C 0.5002(3) 0.1991(3) 0.34557(16)
H41D H 0.5286 0.1543 0.3370
H42D H 0.4549 0.1841 0.3393
C33D C 0.5091(4) 0.2213(3) 0.39448(17)
H43D H 0.5200 0.1872 0.4195
C34D C 0.49761(19) 0.3068(2) 0.39666(12)
H44D H 0.5262 0.3317 0.4200
H45D H 0.4523 0.3178 0.4053
C35D C 0.64606(17) 0.3846(2) 0.23332(11)
H46D H 0.6656 0.3589 0.2609
H47D H 0.6190 0.3451 0.2169
C36D C 0.69768(16) 0.4162(2) 0.20149(13)
H48D H 0.7096 0.3767 0.1775
H49D H 0.7367 0.4317 0.2191
C37D C 0.6653(2) 0.4874(2) 0.18019(13)
H50D H 0.6974 0.5264 0.1689
H51D H 0.6369 0.4718 0.1541
C38D C 0.62641(19) 0.5210(2) 0.22044(12)
H52D H 0.6631 0.5393 0.2403
C39D C 0.4636(2) 0.3863(2) 0.20068(13)
H53D H 0.5095 0.3733 0.2061
H54D H 0.4398 0.3365 0.1944
C40D C 0.4570(2) 0.4410(3) 0.16219(17)
H55D H 0.4927 0.4801 0.1620
H56D H 0.4566 0.4124 0.1322
C41D C 0.3940(2) 0.4806(3) 0.17099(16)
H57D H 0.3583 0.4517 0.1556
H58D H 0.3944 0.5362 0.1598
C42D C 0.3876(2) 0.4774(3) 0.22235(14)
H59D H 0.3446 0.4566 0.2310
H60D H 0.3922 0.5313 0.2356
C43 C 0.2194(2) 0.3239(3) 0.68191(13)
H61 H 0.1724 0.3283 0.6836
H62 H 0.2311 0.2825 0.6595
H63 H 0.2377 0.3747 0.6719
C44 C 0.24567(15) 0.3025(2) 0.72899(11)
C45 C 0.29700(16) 0.2507(2) 0.73342(12)
H64 H 0.3154 0.2277 0.7064
C46 C 0.32198(17) 0.2318(2) 0.77651(13)
H65 H 0.3576 0.1966 0.7788
C47 C 0.29552(17) 0.2638(2) 0.81630(12)
H66 H 0.3126 0.2505 0.8459
C48 C 0.24412(16) 0.3152(2) 0.81271(11)
H67 H 0.2257 0.3377 0.8399
C49 C 0.21935(16) 0.3341(2) 0.76945(11)
H68 H 0.1837 0.3693 0.7673
C50? C 0.5120(3) 0.4842(4) 0.9600(2)
C51? C 0.6003(3) 0.5133(4) 1.0110(2)
C52? C 0.5634(6) 0.4923(6) 0.9652(4)
C53? C 0.4648(4) 0.4933(5) 0.9936(3)
C54? C 0.4327(5) 0.4714(5) 0.9530(3)
loop_
_geom_bond_atom_site_label_1
_geom_bond_atom_site_label_2
_geom_bond_site_symmetry_1
_geom_bond_site_symmetry_2
Mg1 N1 1_555 1_555
K1 O1 1_555 1_555
O1 C31 1_555 1_555
O2 K1 1_555 1_555
O3 K1 1_555 1_555
N1 C1 1_555 1_555
N2 Mg1 1_555 1_555
C1 K1 1_555 1_555
C2 K1 1_555 1_555
C3 K1 1_555 1_555
H1 C3 1_555 1_555
C4 K1 1_555 1_555
H2 C4 1_555 1_555
C5 K1 1_555 1_555
H3 C5 1_555 1_555
C6 K1 1_555 1_555
H4 C6 1_555 1_555
C7 N1 1_555 1_555
C8 C7 1_555 1_555
C9 C8 1_555 1_555
H5 C9 1_555 1_555
C10 C9 1_555 1_555
H6 C10 1_555 1_555
C11 C10 1_555 1_555
H7 C11 1_555 1_555
C12 C7 1_555 1_555
C13 C8 1_555 1_555
H8 C13 1_555 1_555
C14 C13 1_555 1_555
H9 C14 1_555 1_555
H10 C14 1_555 1_555
H11 C14 1_555 1_555
C15 C13 1_555 1_555
H12 C15 1_555 1_555
H13 C15 1_555 1_555
H14 C15 1_555 1_555
C16 C12 1_555 1_555
H15 C16 1_555 1_555
C17 C16 1_555 1_555
H16 C17 1_555 1_555
H17 C17 1_555 1_555
H18 C17 1_555 1_555
C18 C16 1_555 1_555
H19 C18 1_555 1_555
H20 C18 1_555 1_555
H21 C18 1_555 1_555
C19 N2 1_555 1_555
C20 C19 1_555 1_555
C21 C20 1_555 1_555
H22 C21 1_555 1_555
C22 C21 1_555 1_555
H23 C22 1_555 1_555
C23 C22 1_555 1_555
H24 C23 1_555 1_555
C24 C19 1_555 1_555
C25 C20 1_555 1_555
H25 C25 1_555 1_555
C26 C25 1_555 1_555
H26 C26 1_555 1_555
H27 C26 1_555 1_555
H28 C26 1_555 1_555
C27 C25 1_555 1_555
H29 C27 1_555 1_555
H30 C27 1_555 1_555
H31 C27 1_555 1_555
C28 C24 1_555 1_555
H32 C28 1_555 1_555
C29 C28 1_555 1_555
H33 C29 1_555 1_555
H34 C29 1_555 1_555
H35 C29 1_555 1_555
C30 C28 1_555 1_555
H36 C30 1_555 1_555
H37 C30 1_555 1_555
H38 C30 1_555 1_555
C31 H39 1_555 1_555
H40 C31 1_555 1_555
C32 C31 1_555 1_555
H41 C32 1_555 1_555
H42 C32 1_555 1_555
C33 C32 1_555 1_555
H43 C33 1_555 1_555
C34 O1 1_555 1_555
H44 C34 1_555 1_555
H45 C34 1_555 1_555
C35 O2 1_555 1_555
H46 C35 1_555 1_555
H47 C35 1_555 1_555
C36 C35 1_555 1_555
H48 C36 1_555 1_555
H49 C36 1_555 1_555
C37 C36 1_555 1_555
H50 C37 1_555 1_555
H51 C37 1_555 1_555
C38 O2 1_555 1_555
H52 C38 1_555 1_555
C39 O3 1_555 1_555
H53 C39 1_555 1_555
H54 C39 1_555 1_555
C40 C39 1_555 1_555
H55 C40 1_555 1_555
H56 C40 1_555 1_555
C41 C40 1_555 1_555
H57 C41 1_555 1_555
H58 C41 1_555 1_555
C42 O3 1_555 1_555
H59 C42 1_555 1_555
H60 C42 1_555 1_555
C43 H61 1_555 1_555
H62 C43 1_555 1_555
H63 C43 1_555 1_555
C44 C43 1_555 1_555
C45 C44 1_555 1_555
H64 C45 1_555 1_555
C46 C45 1_555 1_555
H65 C46 1_555 1_555
C47 C46 1_555 1_555
H66 C47 1_555 1_555
C48 C47 1_555 1_555
H67 C48 1_555 1_555
C49 C44 1_555 1_555
H68 C49 1_555 1_555
Mg1D Mg1 1_555 1_555
K1D O1D 1_555 1_555
O1D C31D 1_555 1_555
O2D K1D 1_555 1_555
O3D K1D 1_555 1_555
N1D Mg1D 1_555 1_555
N2D Mg1D 1_555 1_555
C1D K1D 1_555 1_555
C2D K1D 1_555 1_555
C3D K1D 1_555 1_555
H1D C3D 1_555 1_555
C4D K1D 1_555 1_555
H2D C4D 1_555 1_555
C5D K1D 1_555 1_555
H3D C5D 1_555 1_555
C6D K1D 1_555 1_555
H4D C6D 1_555 1_555
C7D N1D 1_555 1_555
C8D C7D 1_555 1_555
C9D C8D 1_555 1_555
H5D C9D 1_555 1_555
C10D C9D 1_555 1_555
H6D C10D 1_555 1_555
C11D C10D 1_555 1_555
H7D C11D 1_555 1_555
C12D C7D 1_555 1_555
C13D C8D 1_555 1_555
H8D C13D 1_555 1_555
C14D C13D 1_555 1_555
H9D C14D 1_555 1_555
H10D C14D 1_555 1_555
H11D C14D 1_555 1_555
C15D C13D 1_555 1_555
H12D C15D 1_555 1_555
H13D C15D 1_555 1_555
H14D C15D 1_555 1_555
C16D C12D 1_555 1_555
H15D C16D 1_555 1_555
C17D C16D 1_555 1_555
H16D C17D 1_555 1_555
H17D C17D 1_555 1_555
H18D C17D 1_555 1_555
C18D C16D 1_555 1_555
H19D C18D 1_555 1_555
H20D C18D 1_555 1_555
H21D C18D 1_555 1_555
C19D N2D 1_555 1_555
C20D C19D 1_555 1_555
C21D C20D 1_555 1_555
H22D C21D 1_555 1_555
C22D C21D 1_555 1_555
H23D C22D 1_555 1_555
C23D C22D 1_555 1_555
H24D C23D 1_555 1_555
C24D C19D 1_555 1_555
C25D C20D 1_555 1_555
H25D C25D 1_555 1_555
C26D C25D 1_555 1_555
H26D C26D 1_555 1_555
H27D C26D 1_555 1_555
H28D C26D 1_555 1_555
C27D C25D 1_555 1_555
H29D C27D 1_555 1_555
H30D C27D 1_555 1_555
H31D C27D 1_555 1_555
C28D C24D 1_555 1_555
H32D C28D 1_555 1_555
C29D C28D 1_555 1_555
H33D C29D 1_555 1_555
H34D C29D 1_555 1_555
H35D C29D 1_555 1_555
C30D C28D 1_555 1_555
H36D C30D 1_555 1_555
H37D C30D 1_555 1_555
H38D C30D 1_555 1_555
C31D H39D 1_555 1_555
H40D C31D 1_555 1_555
C32D C31D 1_555 1_555
H41D C32D 1_555 1_555
H42D C32D 1_555 1_555
C33D C32D 1_555 1_555
H43D C33D 1_555 1_555
C34D O1D 1_555 1_555
H44D C34D 1_555 1_555
H45D C34D 1_555 1_555
C35D O2D 1_555 1_555
H46D C35D 1_555 1_555
H47D C35D 1_555 1_555
C36D C35D 1_555 1_555
H48D C36D 1_555 1_555
H49D C36D 1_555 1_555
C37D C36D 1_555 1_555
H50D C37D 1_555 1_555
H51D C37D 1_555 1_555
C38D O2D 1_555 1_555
H52D C38D 1_555 1_555
C39D O3D 1_555 1_555
H53D C39D 1_555 1_555
H54D C39D 1_555 1_555
C40D C39D 1_555 1_555
H55D C40D 1_555 1_555
H56D C40D 1_555 1_555
C41D C40D 1_555 1_555
H57D C41D 1_555 1_555
H58D C41D 1_555 1_555
C42D O3D 1_555 1_555
H59D C42D 1_555 1_555
H60D C42D 1_555 1_555
N2 C2 1_555 1_555
C1 C2 1_555 1_555
C1 C6 1_555 1_555
C2 C3 1_555 1_555
C3 C4 1_555 1_555
C4 C5 1_555 1_555
C5 C6 1_555 1_555
C11 C12 1_555 1_555
C23 C24 1_555 1_555
C33 C34 1_555 1_555
C37 C38 1_555 1_555
C41 C42 1_555 1_555
C48 C49 1_555 1_555
N1D C1D 1_555 1_555
N2D C2D 1_555 1_555
C1D C2D 1_555 1_555
C1D C6D 1_555 1_555
C2D C3D 1_555 1_555
C3D C4D 1_555 1_555
C4D C5D 1_555 1_555
C5D C6D 1_555 1_555
C11D C12D 1_555 1_555
C23D C24D 1_555 1_555
C33D C34D 1_555 1_555
C37D C38D 1_555 1_555
C41D C42D 1_555 1_555

#END
