
#######################################################################
#
#                 Cambridge Crystallographic Data Centre
#                                CCDC 
#
#######################################################################
#
# If this CIF has been generated from an entry in the Cambridge 
# Structural Database, then it will include bibliographic, chemical, 
# crystal, experimental, refinement or atomic coordinate data resulting 
# from the CCDC's data processing and validation procedures.
#
#######################################################################

data_KOCWUX
_chemical_formula_moiety         'C24 H17 N2 1+,C1 F3 O3 S1 1-'
_chemical_name_systematic        
'5,7-diphenylbenzo[c]cinnolin-5-ium trifluoromethanesulfonate'
_symmetry_cell_setting           orthorhombic
_symmetry_space_group_name_H-M   'P b c a'
_symmetry_Int_Tables_number      61
_space_group_name_Hall           '-P 2ac 2ab'
loop_
_symmetry_equiv_pos_site_id
_symmetry_equiv_pos_as_xyz
1 x,y,z
2 1/2-x,-y,1/2+z
3 -x,1/2+y,1/2-z
4 1/2+x,1/2-y,-z
5 -x,-y,-z
6 1/2+x,y,1/2-z
7 x,1/2-y,1/2+z
8 1/2-x,1/2+y,z
_cell_length_a                   11.5402(3)
_cell_length_b                   13.4856(3)
_cell_length_c                   28.1272(7)
_cell_angle_alpha                90
_cell_angle_beta                 90
_cell_angle_gamma                90
_cell_volume                     4377.34
_exptl_crystal_colour            'orangish red'
_exptl_crystal_description       block
_cell_formula_units_Z            8
loop_
_atom_site_label
_atom_site_type_symbol
_atom_site_fract_x
_atom_site_fract_y
_atom_site_fract_z
S1 S 0.54094(6) 0.79724(5) 0.63075(2)
O1 O 0.4689(2) 0.76445(19) 0.66916(8)
F1 F 0.4945(2) 0.8978(2) 0.55405(7)
F2 F 0.4094(2) 0.95077(16) 0.61703(12)
O2 O 0.6263(2) 0.8691(2) 0.64278(8)
O3 O 0.5777(3) 0.72111(18) 0.59903(9)
F3 F 0.3482(2) 0.8170(2) 0.58296(11)
C1 C 0.4434(3) 0.8681(2) 0.59437(12)
N1 N 0.68578(16) 0.53137(14) 0.63174(6)
N2 N 0.75210(16) 0.55092(14) 0.59580(6)
C2 C 0.5251(2) 0.49224(17) 0.70549(7)
C3 C 0.71217(19) 0.57094(16) 0.67472(7)
C4 C 0.71204(19) 0.50785(18) 0.55112(7)
C5 C 0.6332(2) 0.54887(16) 0.71255(8)
C6 C 0.4532(2) 0.50849(19) 0.66601(8)
H1 H 0.4754 0.5536 0.6427
C7 C 0.8521(2) 0.60841(18) 0.59775(9)
C8 C 0.8118(2) 0.63080(17) 0.68196(9)
C9 C 0.6621(2) 0.58500(18) 0.75677(8)
H2 H 0.6136 0.5715 0.7824
C10 C 0.4877(2) 0.42528(19) 0.74019(8)
H3 H 0.5338 0.4136 0.7667
C11 C 0.8829(2) 0.65053(18) 0.64176(9)
C12 C 0.7130(2) 0.4067(2) 0.54620(9)
H4 H 0.7381 0.3659 0.5708
C13 C 0.3147(2) 0.3912(2) 0.69625(9)
H5 H 0.2454 0.3566 0.6930
C14 C 0.7620(3) 0.64128(18) 0.76435(8)
H6 H 0.7791 0.6627 0.7950
C15 C 0.6717(2) 0.5702(2) 0.51603(9)
H7 H 0.6701 0.6384 0.5207
C16 C 0.8350(2) 0.66557(19) 0.72815(9)
H8 H 0.8997 0.7049 0.7339
C17 C 0.9213(2) 0.6210(2) 0.55721(10)
H9 H 0.8999 0.5925 0.5284
C18 C 0.3843(3) 0.3768(2) 0.73564(9)
H10 H 0.3604 0.3335 0.7594
C19 C 0.3499(2) 0.4580(2) 0.66157(9)
H11 H 0.3033 0.4688 0.6351
C20 C 0.6339(3) 0.5295(2) 0.47405(9)
H12 H 0.6066 0.5705 0.4499
C21 C 0.6359(3) 0.4284(3) 0.46739(9)
H13 H 0.6110 0.4013 0.4388
C22 C 0.9846(3) 0.7084(2) 0.64307(12)
H14 H 1.0067 0.7383 0.6714
C23 C 1.0204(3) 0.6756(3) 0.56049(12)
H15 H 1.0682 0.6827 0.5341
C24 C 0.6753(3) 0.3671(2) 0.50346(10)
H16 H 0.6764 0.2988 0.4989
C25 C 1.0503(3) 0.7211(3) 0.60382(14)
H17 H 1.1163 0.7605 0.6054
loop_
_geom_bond_atom_site_label_1
_geom_bond_atom_site_label_2
_geom_bond_site_symmetry_1
_geom_bond_site_symmetry_2
S1 O1 1_555 1_555
F1 C1 1_555 1_555
F2 C1 1_555 1_555
O2 S1 1_555 1_555
O3 S1 1_555 1_555
F3 C1 1_555 1_555
C1 S1 1_555 1_555
N1 N2 1_555 1_555
N2 C4 1_555 1_555
C2 C5 1_555 1_555
C3 N1 1_555 1_555
C4 C12 1_555 1_555
C5 C3 1_555 1_555
C6 C2 1_555 1_555
H1 C6 1_555 1_555
C7 N2 1_555 1_555
C8 C3 1_555 1_555
C9 C5 1_555 1_555
H2 C9 1_555 1_555
C10 C2 1_555 1_555
H3 C10 1_555 1_555
C11 C7 1_555 1_555
C12 H4 1_555 1_555
C13 H5 1_555 1_555
C14 C9 1_555 1_555
H6 C14 1_555 1_555
C15 C4 1_555 1_555
H7 C15 1_555 1_555
C16 C8 1_555 1_555
H8 C16 1_555 1_555
C17 C7 1_555 1_555
H9 C17 1_555 1_555
C18 C10 1_555 1_555
H10 C18 1_555 1_555
C19 C6 1_555 1_555
H11 C19 1_555 1_555
C20 C15 1_555 1_555
H12 C20 1_555 1_555
C21 C20 1_555 1_555
H13 C21 1_555 1_555
C22 C11 1_555 1_555
H14 C22 1_555 1_555
C23 C17 1_555 1_555
H15 C23 1_555 1_555
C24 C12 1_555 1_555
H16 C24 1_555 1_555
C25 C22 1_555 1_555
H17 C25 1_555 1_555
C8 C11 1_555 1_555
C13 C18 1_555 1_555
C13 C19 1_555 1_555
C14 C16 1_555 1_555
C21 C24 1_555 1_555
C23 C25 1_555 1_555

#END
