
#######################################################################
#
#                 Cambridge Crystallographic Data Centre
#                                CCDC 
#
#######################################################################
#
# If this CIF has been generated from an entry in the Cambridge 
# Structural Database, then it will include bibliographic, chemical, 
# crystal, experimental, refinement or atomic coordinate data resulting 
# from the CCDC's data processing and validation procedures.
#
#######################################################################

data_KOCXOP
_chemical_formula_moiety         'C20 H22 Li1 N1 O5 S1'
_chemical_name_systematic        
(2-(Hydroxymethyl)dibenzo-14-crown-4)-isothiocyanato-lithium
_symmetry_cell_setting           triclinic
_symmetry_space_group_name_H-M   'P -1'
_symmetry_Int_Tables_number      2
_space_group_name_Hall           '-P 1'
loop_
_symmetry_equiv_pos_site_id
_symmetry_equiv_pos_as_xyz
1 x,y,z
2 -x,-y,-z
_cell_length_a                   8.656(2)
_cell_length_b                   9.828(3)
_cell_length_c                   13.073(3)
_cell_angle_alpha                74.48(2)
_cell_angle_beta                 72.45(2)
_cell_angle_gamma                73.72(2)
_cell_volume                     997.288
_cell_formula_units_Z            2
loop_
_atom_site_label
_atom_site_type_symbol
_atom_site_fract_x
_atom_site_fract_y
_atom_site_fract_z
O1 O -0.2322(4) 0.2706(3) 0.8514(2)
C1 C -0.3827(6) 0.3758(5) 0.8816(4)
C2 C -0.4883(5) 0.3926(5) 0.8046(4)
C3 C -0.4217(5) 0.4646(4) 0.6886(3)
O2 O -0.2783(3) 0.3665(3) 0.6405(2)
C4 C -0.2020(5) 0.4105(4) 0.5325(3)
C5 C -0.2579(5) 0.5373(4) 0.4641(3)
C6 C -0.1708(7) 0.5655(5) 0.3565(4)
C7 C -0.0300(7) 0.4727(5) 0.3173(4)
C8 C 0.0298(5) 0.3448(4) 0.3848(3)
C9 C -0.0580(5) 0.3143(4) 0.4926(3)
O3 O -0.0149(3) 0.1922(2) 0.5683(2)
C10 C 0.1411(4) 0.0950(4) 0.5376(3)
C11 C 0.1599(5) -0.0321(4) 0.6313(4)
C12 C 0.2947(7) -0.1615(8) 0.5998(8)
O4 O 0.4533(5) -0.1301(4) 0.5773(4)
C14 C 0.1823(5) 0.0062(4) 0.7302(3)
O6 O 0.0345(3) 0.0983(3) 0.7790(2)
C15 C 0.0335(6) 0.1503(4) 0.8676(3)
C16 C 0.1657(7) 0.1144(5) 0.9152(4)
C17 C 0.1516(10) 0.1764(7) 1.0028(5)
C18 C 0.0115(9) 0.2702(7) 1.0389(5)
C19 C -0.1237(7) 0.3059(5) 0.9923(3)
C20 C -0.1115(6) 0.2454(4) 0.9063(3)
H1 H -0.4409 0.3431 0.9555
H2 H -0.3567 0.4668 0.8757
H3 H -0.4985 0.2981 0.8040
H4 H -0.5959 0.4494 0.8319
H5 H -0.3917 0.5518 0.6880
H6 H -0.5045 0.4875 0.6480
H7 H -0.3564 0.6049 0.4914
H8 H -0.2106 0.6525 0.3085
H9 H 0.0294 0.4952 0.2421
H10 H 0.1300 0.2793 0.3569
H11 H 0.1446 0.0615 0.4742
H12 H 0.2298 0.1442 0.5212
H13 H 0.0553 -0.0600 0.6517
H14 H 0.2824 -0.1869 0.5372
H15 H 0.2872 -0.2419 0.6606
H16 H 0.2724 0.0551 0.7075
H17 H 0.2070 -0.0809 0.7827
H18 H 0.2657 0.0479 0.8884
H19 H 0.2419 0.1520 1.0372
H20 H 0.0042 0.3138 1.0982
H21 H -0.2236 0.3717 1.0201
Li1 Li -0.1707(8) 0.1758(7) 0.7206(5)
S1 S -0.4354(2) -0.2146(1) 0.8165(1)
C21 C -0.3560(5) -0.0719(4) 0.7727(3)
N1 N -0.2985(4) 0.0272(4) 0.7420(3)
C13? C 0.3173 -0.1359 0.5825
O5? O 0.3747 -0.2690 0.6611
loop_
_geom_bond_atom_site_label_1
_geom_bond_atom_site_label_2
_geom_bond_site_symmetry_1
_geom_bond_site_symmetry_2
O1 C1 1_555 1_555
C1 C2 1_555 1_555
C2 C3 1_555 1_555
C3 O2 1_555 1_555
O2 C4 1_555 1_555
C4 C5 1_555 1_555
C5 C6 1_555 1_555
C6 C7 1_555 1_555
C7 C8 1_555 1_555
C8 C9 1_555 1_555
C9 C4 1_555 1_555
O3 C9 1_555 1_555
C10 O3 1_555 1_555
C11 C10 1_555 1_555
C12 C11 1_555 1_555
O4 C12 1_555 1_555
C14 C11 1_555 1_555
O6 C14 1_555 1_555
C15 O6 1_555 1_555
C16 C15 1_555 1_555
C17 C16 1_555 1_555
C18 C17 1_555 1_555
C19 C18 1_555 1_555
C20 O1 1_555 1_555
S1 C21 1_555 1_555
C21 N1 1_555 1_555
H1 C1 1_555 1_555
H2 C1 1_555 1_555
H3 C2 1_555 1_555
H4 C2 1_555 1_555
H5 C3 1_555 1_555
H6 C3 1_555 1_555
H7 C5 1_555 1_555
H8 C6 1_555 1_555
H9 C7 1_555 1_555
H10 C8 1_555 1_555
H11 C10 1_555 1_555
H12 C10 1_555 1_555
H13 C11 1_555 1_555
H14 C12 1_555 1_555
H15 C12 1_555 1_555
H16 C14 1_555 1_555
H17 C14 1_555 1_555
H18 C16 1_555 1_555
H19 C17 1_555 1_555
H20 C18 1_555 1_555
H21 C19 1_555 1_555
C15 C20 1_555 1_555
C19 C20 1_555 1_555

#END
