
#######################################################################
#
#                 Cambridge Crystallographic Data Centre
#                                CCDC 
#
#######################################################################
#
# If this CIF has been generated from an entry in the Cambridge 
# Structural Database, then it will include bibliographic, chemical, 
# crystal, experimental, refinement or atomic coordinate data resulting 
# from the CCDC's data processing and validation procedures.
#
#######################################################################

data_KOCXUV
_chemical_formula_moiety         'C19 H22 Li1 N1 O8'
_chemical_name_systematic        
'(2-(Hydroxymethyl)dibenzo-14-crown-4 alcohol)-nitrato-lithium'
_symmetry_cell_setting           triclinic
_symmetry_space_group_name_H-M   'P -1'
_symmetry_Int_Tables_number      2
_space_group_name_Hall           '-P 1'
loop_
_symmetry_equiv_pos_site_id
_symmetry_equiv_pos_as_xyz
1 x,y,z
2 -x,-y,-z
_cell_length_a                   8.684(1)
_cell_length_b                   9.050(2)
_cell_length_c                   13.290(2)
_cell_angle_alpha                98.89(2)
_cell_angle_beta                 106.57(1)
_cell_angle_gamma                102.65(2)
_cell_volume                     950.132
_cell_formula_units_Z            2
loop_
_atom_site_label
_atom_site_type_symbol
_atom_site_fract_x
_atom_site_fract_y
_atom_site_fract_z
O1 O -0.1212(4) 0.1615(4) 0.1521(3)
C1 C -0.2280(7) 0.0611(7) 0.1930(5)
C2 C -0.1902(8) 0.1347(8) 0.3108(5)
C3 C -0.0244(8) 0.1332(7) 0.3841(5)
O2 O 0.1044(4) 0.2334(4) 0.3599(3)
C4 C 0.2672(7) 0.2407(6) 0.4125(4)
C5 C 0.3204(9) 0.1684(7) 0.4953(5)
C6 C 0.4861(10) 0.1835(8) 0.5421(6)
C7 C 0.6026(9) 0.2710(8) 0.5073(5)
C8 C 0.5527(8) 0.3447(7) 0.4247(5)
C9 C 0.3841(7) 0.3287(6) 0.3778(4)
O3 O 0.3168(4) 0.3962(4) 0.2954(3)
C10 C 0.4284(7) 0.4805(6) 0.2515(5)
C11 C 0.3331(7) 0.5539(6) 0.1667(5)
C12 C 0.4565(9) 0.6720(8) 0.1368(6)
O4 O 0.5554(10) 0.6297(11) 0.0911(7)
H1 H 0.6105 0.5795 0.1131
C13 C 0.2131(7) 0.4375(6) 0.0651(5)
O5 O 0.0805(4) 0.3441(4) 0.0907(3)
C14 C -0.0367(7) 0.2242(6) 0.0089(4)
C15 C -0.0487(7) 0.1991(7) -0.0977(4)
C16 C -0.1692(9) 0.0757(8) -0.1706(5)
C17 C -0.2797(8) -0.0250(8) -0.1394(5)
C18 C -0.2671(7) -0.0020(7) -0.0300(5)
C19 C -0.1453(7) 0.1241(6) 0.0433(4)
Li1 Li 0.0624(11) 0.3545(10) 0.2418(7)
N1 N -0.0983(6) 0.5836(6) 0.2783(5)
O6 O -0.2113(8) 0.4947(7) 0.1942(5)
O7 O -0.1158(7) 0.7109(6) 0.3141(5)
O8 O 0.0308(6) 0.5453(7) 0.3102(5)
H2 H -0.3430 0.0493 0.1534
H3 H -0.2068 -0.0391 0.1862
H4 H -0.2757 0.0793 0.3346
H5 H -0.1932 0.2410 0.3167
H6 H -0.0133 0.0292 0.3732
H7 H -0.0160 0.1692 0.4578
H8 H 0.2397 0.1070 0.5199
H9 H 0.5217 0.1331 0.5996
H10 H 0.7193 0.2811 0.5406
H11 H 0.6338 0.4059 0.4004
H12 H 0.5140 0.5609 0.3080
H13 H 0.4788 0.4113 0.2185
H14 H 0.2663 0.6033 0.1994
H15 H 0.4024 0.7497 0.0911
H16 H 0.2713 0.3722 0.0365
H17 H 0.1678 0.4920 0.0124
H18 H 0.0275 0.2684 -0.1209
H19 H -0.1770 0.0589 -0.2453
H20 H -0.3650 -0.1105 -0.1920
H21 H -0.3418 -0.0727 -0.0066
O9? O 0.5764(12) 0.7695(10) 0.2161(8)
loop_
_geom_bond_atom_site_label_1
_geom_bond_atom_site_label_2
_geom_bond_site_symmetry_1
_geom_bond_site_symmetry_2
O1 C1 1_555 1_555
C1 C2 1_555 1_555
C2 C3 1_555 1_555
C3 O2 1_555 1_555
O2 C4 1_555 1_555
C4 C5 1_555 1_555
C5 C6 1_555 1_555
C6 C7 1_555 1_555
C7 C8 1_555 1_555
C8 C9 1_555 1_555
C9 C4 1_555 1_555
O3 C9 1_555 1_555
C10 O3 1_555 1_555
C11 C10 1_555 1_555
C12 C11 1_555 1_555
O4 C12 1_555 1_555
H1 O4 1_555 1_555
C13 C11 1_555 1_555
O5 C13 1_555 1_555
C14 O5 1_555 1_555
C15 C14 1_555 1_555
C16 C15 1_555 1_555
C17 C16 1_555 1_555
C18 C17 1_555 1_555
C19 O1 1_555 1_555
Li1 O1 1_555 1_555
N1 O6 1_555 1_555
O7 N1 1_555 1_555
O8 Li1 1_555 1_555
H2 C1 1_555 1_555
H3 C1 1_555 1_555
H4 C2 1_555 1_555
H5 C2 1_555 1_555
H6 C3 1_555 1_555
H7 C3 1_555 1_555
H8 C5 1_555 1_555
H9 C6 1_555 1_555
H10 C7 1_555 1_555
H11 C8 1_555 1_555
H12 C10 1_555 1_555
H13 C10 1_555 1_555
H14 C11 1_555 1_555
H15 C12 1_555 1_555
H16 C13 1_555 1_555
H17 C13 1_555 1_555
H18 C15 1_555 1_555
H19 C16 1_555 1_555
H20 C17 1_555 1_555
H21 C18 1_555 1_555
O2 Li1 1_555 1_555
O3 Li1 1_555 1_555
O5 Li1 1_555 1_555
C14 C19 1_555 1_555
C18 C19 1_555 1_555
N1 O8 1_555 1_555

#END
