
#######################################################################
#
#                 Cambridge Crystallographic Data Centre
#                                CCDC 
#
#######################################################################
#
# If this CIF has been generated from an entry in the Cambridge 
# Structural Database, then it will include bibliographic, chemical, 
# crystal, experimental, refinement or atomic coordinate data resulting 
# from the CCDC's data processing and validation procedures.
#
#######################################################################

data_KOCXEI
_chemical_compound_source        'the endophytic fungus Xylaria cf. curta.'
_chemical_name_common            'Curtachalasin E  methanol solvate hydrate'
_chemical_formula_moiety         'C28 H33 N1 O5,1.75(C1 H4 O1),0.33(H2 O1)'
_chemical_name_systematic        
'10-acetyl-2-benzyl-6,10,11-trihydroxy-5,9,13-trimethyl-2,3,5,6,8,9,10,11-octahydro-1,5-methanonaphtho[2,3-d]azocin-4(1H)-one methanol solvate hydrate'
_symmetry_cell_setting           orthorhombic
_symmetry_space_group_name_H-M   'P 21 21 21'
_symmetry_Int_Tables_number      19
_space_group_name_Hall           'P 2ac 2ab'
loop_
_symmetry_equiv_pos_site_id
_symmetry_equiv_pos_as_xyz
1 x,y,z
2 1/2-x,-y,1/2+z
3 -x,1/2+y,1/2-z
4 1/2+x,1/2-y,-z
_cell_length_a                   7.4314(3)
_cell_length_b                   14.2203(6)
_cell_length_c                   25.7043(11)
_cell_angle_alpha                90
_cell_angle_beta                 90
_cell_angle_gamma                90
_cell_volume                     2716.35
_exptl_crystal_colour            colorless
_exptl_crystal_description       needle
_cell_formula_units_Z            4
loop_
_atom_site_label
_atom_site_type_symbol
_atom_site_fract_x
_atom_site_fract_y
_atom_site_fract_z
O1 O 0.166(3) 0.5127(13) 0.5697(7)
H1 H 0.0828 0.5509 0.5587
H2 H 0.1217 0.4886 0.5980
O2 O 0.8621(6) 0.4111(3) 0.55851(17)
O3 O 0.3255(6) 0.3451(3) 0.59575(16)
H3 H 0.3123 0.3702 0.5664
O4 O 0.5851(10) 0.1400(5) 0.8370(2)
H4 H 0.6547 0.1701 0.8567
O5 O 0.5646(7) 0.3249(4) 0.87099(18)
H5 H 0.5838 0.3292 0.9031
O6 O 0.4312(8) 0.2376(4) 0.95199(18)
N1 N 0.9391(7) 0.2934(3) 0.61211(19)
H6 H 1.0412 0.3232 0.6175
C1 C 0.8224(8) 0.3355(4) 0.5805(2)
C2 C 0.9174(8) 0.2026(4) 0.6392(2)
H7 H 0.9802 0.1538 0.6179
C3 C 0.7177(8) 0.1755(4) 0.6414(2)
H8 H 0.7106 0.1074 0.6510
C4 C 0.6409(8) 0.1863(4) 0.5867(2)
H9 H 0.7266 0.1556 0.5620
C5 C 0.6335(8) 0.2930(4) 0.5730(2)
C6 C 0.5122(7) 0.3497(4) 0.6108(2)
H10 H 0.5512 0.4170 0.6101
C7 C 0.5180(8) 0.3154(4) 0.6666(2)
C8 C 0.6036(8) 0.2305(4) 0.6805(2)
C9 C 1.0172(9) 0.2097(4) 0.6913(2)
H11 H 1.1358 0.2393 0.6850
H12 H 0.9484 0.2522 0.7145
C10 C 0.4576(9) 0.1364(4) 0.5812(2)
H13 H 0.4653 0.0732 0.5963
H14 H 0.4258 0.1316 0.5443
H15 H 0.3651 0.1726 0.5995
C11 C 0.5768(8) 0.3083(4) 0.5169(2)
H16 H 0.5820 0.3756 0.5087
H17 H 0.4536 0.2854 0.5120
H18 H 0.6583 0.2738 0.4937
C12 C 0.4278(8) 0.3662(4) 0.7046(2)
H19 H 0.3762 0.4251 0.6955
C13 C 0.4107(8) 0.3346(4) 0.7547(2)
C14 C 0.3226(9) 0.3951(4) 0.7961(2)
H20 H 0.4104 0.4431 0.8077
H21 H 0.2196 0.4286 0.7802
C15 C 0.2563(9) 0.3423(5) 0.8431(2)
H22 H 0.1500 0.3040 0.8321
C16 C 0.4035(9) 0.2732(5) 0.8624(2)
C17 C 0.3458(10) 0.2253(5) 0.9121(2)
C18 C 0.4443(9) 0.2001(5) 0.8200(3)
H23 H 0.3342 0.1604 0.8159
C19 C 0.4812(8) 0.2453(4) 0.7680(2)
C20 C 0.5791(8) 0.1964(4) 0.7302(2)
H24 H 0.6307 0.1374 0.7391
C21 C 0.1799(11) 0.1638(6) 0.9118(3)
H25 H 0.2151 0.0982 0.9059
H26 H 0.0989 0.1843 0.8839
H27 H 0.1181 0.1690 0.9453
C22 C 0.1950(13) 0.4077(6) 0.8862(3)
H28 H 0.2987 0.4424 0.8998
H29 H 0.1401 0.3708 0.9142
H30 H 0.1064 0.4522 0.8723
C23 C 1.0474(8) 0.1176(4) 0.7196(2)
C24 C 1.1488(8) 0.0463(5) 0.6962(3)
H31 H 1.1912 0.0539 0.6616
C25 C 1.1876(9) -0.0358(5) 0.7236(3)
H32 H 1.2543 -0.0846 0.7073
C26 C 1.1305(11) -0.0467(5) 0.7738(3)
H33 H 1.1605 -0.1019 0.7928
C27 C 1.0276(10) 0.0239(5) 0.7971(3)
H34 H 0.9832 0.0160 0.8315
C28 C 0.9908(9) 0.1048(5) 0.7699(3)
H35 H 0.9243 0.1534 0.7865
O7 O 0.8159(8) 0.3382(4) 0.95127(19)
H36 H 0.8347 0.3112 0.9798
C29 C 0.7966(14) 0.4346(6) 0.9595(3)
H37 H 0.7136 0.4453 0.9886
H38 H 0.7485 0.4642 0.9280
H39 H 0.9141 0.4621 0.9678
O8? O 0.1957(9) 0.4671(4) 0.5242(3)
H40? H 0.0869 0.4551 0.5302
C30? C 0.2283(12) 0.5598(7) 0.5340(5)
H41? H 0.1994 0.5737 0.5704
H42? H 0.1534 0.5987 0.5112
H43? H 0.3556 0.5736 0.5275
loop_
_geom_bond_atom_site_label_1
_geom_bond_atom_site_label_2
_geom_bond_site_symmetry_1
_geom_bond_site_symmetry_2
O1 H1 1_555 1_555
H2 O1 1_555 1_555
O2 C1 1_555 1_555
O3 H3 1_555 1_555
O4 H4 1_555 1_555
O5 H5 1_555 1_555
O6 C17 1_555 1_555
N1 H6 1_555 1_555
C1 N1 1_555 1_555
C2 N1 1_555 1_555
H7 C2 1_555 1_555
C3 C2 1_555 1_555
H8 C3 1_555 1_555
C4 C3 1_555 1_555
H9 C4 1_555 1_555
C5 C1 1_555 1_555
C6 O3 1_555 1_555
H10 C6 1_555 1_555
C7 C6 1_555 1_555
C8 C3 1_555 1_555
C9 C2 1_555 1_555
H11 C9 1_555 1_555
H12 C9 1_555 1_555
C10 C4 1_555 1_555
H13 C10 1_555 1_555
H14 C10 1_555 1_555
H15 C10 1_555 1_555
C11 C5 1_555 1_555
H16 C11 1_555 1_555
H17 C11 1_555 1_555
H18 C11 1_555 1_555
C12 C7 1_555 1_555
H19 C12 1_555 1_555
C13 C12 1_555 1_555
C14 C13 1_555 1_555
H20 C14 1_555 1_555
H21 C14 1_555 1_555
C15 C14 1_555 1_555
H22 C15 1_555 1_555
C16 O5 1_555 1_555
C17 C16 1_555 1_555
C18 O4 1_555 1_555
H23 C18 1_555 1_555
C19 C13 1_555 1_555
C20 C8 1_555 1_555
H24 C20 1_555 1_555
C21 C17 1_555 1_555
H25 C21 1_555 1_555
H26 C21 1_555 1_555
H27 C21 1_555 1_555
C22 C15 1_555 1_555
H28 C22 1_555 1_555
H29 C22 1_555 1_555
H30 C22 1_555 1_555
C23 C9 1_555 1_555
C24 C23 1_555 1_555
H31 C24 1_555 1_555
C25 C24 1_555 1_555
H32 C25 1_555 1_555
C26 C25 1_555 1_555
H33 C26 1_555 1_555
C27 C26 1_555 1_555
H34 C27 1_555 1_555
C28 C23 1_555 1_555
H35 C28 1_555 1_555
O7 H36 1_555 1_555
C29 O7 1_555 1_555
H37 C29 1_555 1_555
H38 C29 1_555 1_555
H39 C29 1_555 1_555
C4 C5 1_555 1_555
C5 C6 1_555 1_555
C7 C8 1_555 1_555
C15 C16 1_555 1_555
C16 C18 1_555 1_555
C18 C19 1_555 1_555
C19 C20 1_555 1_555
C27 C28 1_555 1_555

#END
