
#######################################################################
#
#                 Cambridge Crystallographic Data Centre
#                                CCDC 
#
#######################################################################
#
# If this CIF has been generated from an entry in the Cambridge 
# Structural Database, then it will include bibliographic, chemical, 
# crystal, experimental, refinement or atomic coordinate data resulting 
# from the CCDC's data processing and validation procedures.
#
#######################################################################

data_KOCYOT
_chemical_formula_moiety         'C61 H50 O18,0.5(C4 H8 O2)'
_chemical_name_systematic        
'2,3,4,6-tetra-O-benzoyl-\b-D-galactopyranosyl-(1-4)-1,2,6-tri-O-benzoyl-\b-D-glucopyranose ethyl acetate solvate'
_symmetry_cell_setting           monoclinic
_symmetry_space_group_name_H-M   'P 21'
_symmetry_Int_Tables_number      4
_space_group_name_Hall           'P 2yb'
loop_
_symmetry_equiv_pos_site_id
_symmetry_equiv_pos_as_xyz
1 x,y,z
2 -x,1/2+y,-z
_cell_length_a                   23.9979(5)
_cell_length_b                   8.8603(2)
_cell_length_c                   26.2562(6)
_cell_angle_alpha                90
_cell_angle_beta                 93.5130(10)
_cell_angle_gamma                90
_cell_volume                     5572.33
_exptl_crystal_colour            colorless
_exptl_crystal_description       blade
_cell_formula_units_Z            4
loop_
_atom_site_label
_atom_site_type_symbol
_atom_site_fract_x
_atom_site_fract_y
_atom_site_fract_z
O1 O 0.85594(14) -0.1830(4) 0.55659(15)
O2 O 0.77338(14) -0.0691(4) 0.61459(14)
O3 O 0.73839(18) 0.2327(4) 0.59165(14)
H1 H 0.705(3) 0.238(7) 0.591(2)
O4 O 0.83948(14) 0.0023(4) 0.49731(13)
O5 O 0.86665(15) 0.2680(4) 0.44280(14)
O6 O 0.79418(19) -0.3742(5) 0.55047(17)
O7 O 0.83919(19) 0.0075(5) 0.67409(16)
O8 O 0.8893(2) 0.2840(5) 0.36185(18)
C1 C 0.8144(2) -0.0811(6) 0.5349(2)
H2 H 0.781619 -0.138652 0.519564
C2 C 0.7965(2) 0.0229(6) 0.5758(2)
H3 H 0.829137 0.081692 0.590641
C3 C 0.7517(2) 0.1296(6) 0.5532(2)
H4 H 0.717572 0.069903 0.542447
C4 C 0.7734(2) 0.2082(5) 0.5065(2)
H5 H 0.802797 0.283331 0.517672
C5 C 0.7977(2) 0.0935(6) 0.4703(2)
H6 H 0.766731 0.025429 0.457248
C6 C 0.8234(2) 0.1637(6) 0.4249(2)
H7 H 0.839492 0.083979 0.403873
H8 H 0.794397 0.217748 0.403578
O9 O 0.73017(14) 0.2818(4) 0.47550(13)
O10 O 0.73105(14) 0.5826(4) 0.43640(13)
O11 O 0.62427(14) 0.7234(4) 0.43493(13)
O12 O 0.56144(14) 0.4847(3) 0.46937(13)
O13 O 0.65583(14) 0.3411(4) 0.52118(13)
O14 O 0.61436(15) 0.3033(4) 0.61635(14)
O15 O 0.72748(17) 0.4454(5) 0.36413(15)
O16 O 0.67386(16) 0.9196(4) 0.46755(15)
O17 O 0.48860(17) 0.5924(6) 0.50503(18)
O18 O 0.53380(18) 0.2183(4) 0.64377(16)
C7 C 0.7035(2) 0.4011(5) 0.4971(2)
H9 H 0.729188 0.454066 0.522598
C8 C 0.6833(2) 0.5086(6) 0.4547(2)
H10 H 0.662687 0.452072 0.426411
C9 C 0.6464(2) 0.6283(5) 0.4757(2)
H11 H 0.670113 0.692456 0.499744
C10 C 0.5996(2) 0.5653(5) 0.5047(2)
H12 H 0.579438 0.648884 0.521371
C11 C 0.6245(2) 0.4569(5) 0.5450(2)
H13 H 0.650381 0.514701 0.569007
C12 C 0.5823(2) 0.3788(6) 0.5752(2)
H14 H 0.556095 0.452513 0.588850
H15 H 0.560734 0.304687 0.553715
C13 C 0.8382(2) -0.3261(6) 0.5667(2)
C14 C 0.8788(2) -0.4079(6) 0.6012(2)
C15 C 0.9317(2) -0.3514(7) 0.6153(3)
H16 H 0.943922 -0.259435 0.601113
C16 C 0.9663(3) -0.4292(7) 0.6499(3)
H17 H 1.002480 -0.391074 0.659121
C17 C 0.9489(3) -0.5617(8) 0.6712(3)
H18 H 0.972746 -0.613366 0.695648
C18 C 0.8960(3) -0.6203(7) 0.6568(3)
H19 H 0.883995 -0.712504 0.670992
C19 C 0.8614(3) -0.5430(6) 0.6219(2)
H20 H 0.825601 -0.582438 0.611934
C20 C 0.8024(2) -0.0788(6) 0.6603(2)
C21 C 0.7837(2) -0.2085(6) 0.6912(2)
C22 C 0.7452(2) -0.3132(6) 0.6714(2)
H21 H 0.729457 -0.302883 0.637459
C23 C 0.7301(3) -0.4318(7) 0.7011(3)
H22 H 0.703553 -0.503189 0.687660
C24 C 0.7529(3) -0.4491(9) 0.7503(3)
H23 H 0.741592 -0.531071 0.770585
C25 C 0.7919(3) -0.3476(9) 0.7700(3)
H24 H 0.807953 -0.359664 0.803773
C26 C 0.8076(3) -0.2278(7) 0.7403(2)
H25 H 0.834841 -0.158200 0.753520
C27 C 0.8981(2) 0.3198(6) 0.4058(2)
C28 C 0.9441(2) 0.4236(6) 0.4252(2)
C29 C 0.9504(3) 0.4662(6) 0.4749(2)
H26 H 0.924401 0.433810 0.498471
C30 C 0.9957(3) 0.5590(8) 0.4911(3)
H27 H 1.001254 0.588553 0.525785
C31 C 1.0322(3) 0.6064(8) 0.4551(3)
H28 H 1.062763 0.669859 0.465490
C32 C 1.0251(3) 0.5637(7) 0.4056(3)
H29 H 1.050612 0.596950 0.381685
C33 C 0.9805(2) 0.4712(7) 0.3898(3)
H30 H 0.975177 0.441215 0.355087
C34 C 0.7499(2) 0.5406(6) 0.3912(2)
C35 C 0.8010(2) 0.6246(6) 0.3790(2)
C36 C 0.8323(2) 0.7036(6) 0.4160(2)
H31 H 0.821216 0.706046 0.450124
C37 C 0.8803(2) 0.7796(6) 0.4032(3)
H32 H 0.901849 0.833501 0.428689
C38 C 0.8966(3) 0.7775(6) 0.3544(3)
H33 H 0.929198 0.830107 0.345904
C39 C 0.8654(3) 0.6986(8) 0.3175(3)
H34 H 0.876562 0.697434 0.283359
C40 C 0.8183(3) 0.6215(7) 0.3297(2)
H35 H 0.797481 0.565814 0.304165
C41 C 0.6428(2) 0.8685(6) 0.4347(2)
C42 C 0.6197(2) 0.9520(6) 0.3890(2)
C43 C 0.5828(3) 0.8875(6) 0.3525(2)
H36 H 0.570275 0.786773 0.356763
C44 C 0.5640(3) 0.9688(7) 0.3100(2)
H37 H 0.538462 0.924581 0.285251
C45 C 0.5828(3) 1.1154(7) 0.3035(2)
H38 H 0.570467 1.171437 0.274068
C46 C 0.6193(3) 1.1793(7) 0.3400(3)
H39 H 0.632038 1.279643 0.335497
C47 C 0.6375(2) 1.1000(6) 0.3826(2)
H40 H 0.662111 1.145933 0.407680
C48 C 0.5058(2) 0.5101(6) 0.4733(2)
C49 C 0.4705(2) 0.4251(6) 0.4357(2)
C50 C 0.4927(2) 0.3260(6) 0.4010(2)
H41 H 0.531828 0.309811 0.401391
C51 C 0.4568(2) 0.2508(7) 0.3656(2)
H42 H 0.471331 0.183079 0.341698
C52 C 0.3992(2) 0.2759(6) 0.3657(2)
H43 H 0.374593 0.225708 0.341505
C53 C 0.3781(2) 0.3722(6) 0.4003(2)
H44 H 0.338961 0.387367 0.400405
C54 C 0.4131(2) 0.4472(6) 0.4350(2)
H45 H 0.397985 0.514637 0.458737
C55 C 0.5837(2) 0.2266(5) 0.6490(2)
C56 C 0.6191(3) 0.1500(6) 0.6908(2)
C57 C 0.6760(3) 0.1684(6) 0.6974(2)
H46 H 0.695045 0.230294 0.674589
C58 C 0.7052(3) 0.0968(7) 0.7371(2)
H47 H 0.744369 0.111864 0.742268
C59 C 0.6780(3) 0.0035(7) 0.7693(3)
H48 H 0.698680 -0.048336 0.795927
C60 C 0.6219(3) -0.0148(7) 0.7633(2)
H49 H 0.603162 -0.076702 0.786310
C61 C 0.5918(3) 0.0569(6) 0.7234(2)
H50 H 0.552642 0.042074 0.718573
O19 O 0.84604(14) 0.2635(4) 0.07633(14)
O20 O 0.75556(15) 0.3668(4) 0.12666(14)
O21 O 0.72191(18) 0.6747(4) 0.10155(15)
H51 H 0.694(3) 0.693(8) 0.091(2)
O22 O 0.83283(14) 0.4445(4) 0.01627(14)
O23 O 0.86187(14) 0.6982(4) -0.04511(14)
O24 O 0.78722(19) 0.0664(4) 0.06455(16)
O25 O 0.7913(2) 0.4889(5) 0.19624(16)
O26 O 0.88717(18) 0.6898(5) -0.12596(16)
C62 C 0.8051(2) 0.3589(5) 0.0525(2)
H52 H 0.774381 0.297845 0.035271
C63 C 0.7819(2) 0.4649(5) 0.0916(2)
H53 H 0.812649 0.523992 0.109682
C64 C 0.7400(2) 0.5692(5) 0.0646(2)
H54 H 0.707218 0.508554 0.051119
C65 C 0.7663(2) 0.6480(6) 0.0200(2)
H55 H 0.795383 0.721218 0.033243
C66 C 0.7923(2) 0.5314(5) -0.0140(2)
H56 H 0.761942 0.460475 -0.026164
C67 C 0.8185(2) 0.5899(6) -0.0602(2)
H57 H 0.834769 0.505153 -0.078886
H58 H 0.789719 0.638969 -0.083259
O27 O 0.73415(14) 1.0263(4) -0.05267(13)
O28 O 0.62946(15) 1.1682(4) -0.06736(14)
O29 O 0.72620(14) 0.7235(4) -0.01375(13)
O30 O 0.56165(14) 0.9299(4) -0.03920(14)
O31 O 0.64768(13) 0.7910(3) 0.02464(13)
O32 O 0.59142(14) 0.7601(4) 0.11354(14)
O33 O 0.73943(17) 0.8832(4) -0.12360(15)
O34 O 0.66683(16) 1.3712(4) -0.02683(15)
O35 O 0.48279(15) 1.0124(4) -0.00685(16)
O36 O 0.50621(17) 0.6740(4) 0.12857(16)
C68 C 0.6981(2) 0.8465(5) 0.0051(2)
H59 H 0.721628 0.899199 0.032347
C69 C 0.6836(2) 0.9521(5) -0.0395(2)
H60 H 0.666308 0.895128 -0.069305
C70 C 0.6450(2) 1.0771(5) -0.0233(2)
H61 H 0.665622 1.141660 0.002780
C71 C 0.5938(2) 1.0136(5) -0.0005(2)
H62 H 0.570781 1.097410 0.012625
C72 C 0.6133(2) 0.9093(5) 0.0432(2)
H63 H 0.635638 0.969146 0.069440
C73 C 0.5662(2) 0.8321(6) 0.0682(2)
H64 H 0.537723 0.906560 0.077421
H65 H 0.548122 0.756185 0.044966
C74 C 0.8306(3) 0.1151(6) 0.0813(2)
C75 C 0.8749(3) 0.0234(6) 0.1097(2)
C76 C 0.9289(3) 0.0734(7) 0.1183(2)
H66 H 0.939464 0.170079 0.106613
C77 C 0.9680(3) -0.0190(7) 0.1444(3)
H67 H 1.005705 0.013456 0.149538
C78 C 0.9523(3) -0.1567(7) 0.1626(3)
H68 H 0.979103 -0.218361 0.180801
C79 C 0.8984(3) -0.2062(6) 0.1549(2)
H69 H 0.887835 -0.301588 0.167774
C80 C 0.8589(3) -0.1162(6) 0.1280(2)
H70 H 0.821458 -0.149996 0.122320
C81 C 0.7682(3) 0.3798(6) 0.1767(2)
C82 C 0.7510(2) 0.2431(6) 0.2057(2)
C83 C 0.7379(2) 0.1106(7) 0.1814(2)
H71 H 0.736603 0.105926 0.145234
C84 C 0.7264(3) -0.0167(7) 0.2093(3)
H72 H 0.717776 -0.109057 0.192165
C85 C 0.7276(3) -0.0102(8) 0.2617(3)
H73 H 0.720406 -0.098485 0.280807
C86 C 0.7389(3) 0.1229(8) 0.2864(3)
H74 H 0.738260 0.128164 0.322490
C87 C 0.7515(3) 0.2512(8) 0.2585(3)
H75 H 0.760363 0.343434 0.275548
C88 C 0.8943(2) 0.7377(6) -0.0832(2)
C89 C 0.9409(2) 0.8404(6) -0.0658(2)
C90 C 0.9492(2) 0.8934(6) -0.0167(2)
H76 H 0.923454 0.867660 0.007982
C91 C 0.9949(3) 0.9843(7) -0.0027(3)
H77 H 1.001163 1.018654 0.031418
C92 C 1.0311(3) 1.0237(6) -0.0395(3)
H78 H 1.062235 1.086339 -0.030327
C93 C 1.0231(3) 0.9750(7) -0.0885(3)
H79 H 1.048343 1.003658 -0.113264
C94 C 0.9779(2) 0.8832(7) -0.1021(2)
H80 H 0.972048 0.849263 -0.136289
C95 C 0.7581(2) 0.9813(6) -0.0953(2)
C96 C 0.8099(2) 1.0702(6) -0.1026(2)
C97 C 0.8383(2) 1.1442(6) -0.0632(3)
H81 H 0.824807 1.139890 -0.029937
C98 C 0.8863(3) 1.2252(6) -0.0712(3)
H82 H 0.906389 1.274716 -0.043732
C99 C 0.9043(3) 1.2325(8) -0.1197(4)
H83 H 0.936668 1.289662 -0.125899
C100 C 0.8764(4) 1.1586(9) -0.1593(4)
H84 H 0.889684 1.164618 -0.192620
C101 C 0.8293(3) 1.0759(7) -0.1513(3)
H85 H 0.810251 1.023271 -0.178646
C102 C 0.6453(2) 1.3151(6) -0.0647(2)
C103 C 0.6330(2) 1.3953(6) -0.1136(2)
C104 C 0.6052(2) 1.3274(6) -0.1553(2)
H86 H 0.593069 1.225654 -0.153276
C105 C 0.5951(3) 1.4085(6) -0.2001(2)
H87 H 0.574988 1.363437 -0.228424
C106 C 0.6144(3) 1.5559(6) -0.2033(2)
H88 H 0.608488 1.610644 -0.234286
C107 C 0.6423(2) 1.6229(6) -0.1615(2)
H89 H 0.654971 1.724154 -0.163711
C108 C 0.6517(2) 1.5443(6) -0.1169(2)
H90 H 0.670772 1.590784 -0.088292
C109 C 0.5056(2) 0.9384(6) -0.0379(2)
C110 C 0.4760(2) 0.8449(6) -0.0783(2)
C111 C 0.5034(2) 0.7502(7) -0.1100(2)
H91 H 0.542897 0.741865 -0.106541
C112 C 0.4731(3) 0.6672(7) -0.1467(3)
H92 H 0.491944 0.600601 -0.168261
C113 C 0.4157(3) 0.6807(8) -0.1523(3)
H93 H 0.395260 0.625351 -0.178141
C114 C 0.3881(2) 0.7745(7) -0.1203(2)
H94 H 0.348538 0.781427 -0.123717
C115 C 0.4177(2) 0.8593(7) -0.0829(2)
H95 H 0.398845 0.925019 -0.061106
C116 C 0.5546(2) 0.6892(6) 0.1420(2)
C117 C 0.5813(2) 0.6338(6) 0.1918(2)
C118 C 0.6382(3) 0.6363(6) 0.2025(2)
H96 H 0.662477 0.666165 0.177122
C119 C 0.6597(3) 0.5948(7) 0.2506(2)
H97 H 0.698921 0.593118 0.257896
C120 C 0.6245(3) 0.5562(7) 0.2877(3)
H98 H 0.639372 0.532260 0.321087
C121 C 0.5675(3) 0.5520(9) 0.2767(3)
H99 H 0.543078 0.523846 0.302163
C122 C 0.5467(3) 0.5887(8) 0.2287(2)
H100 H 0.507569 0.582889 0.220660
O37 O 0.9572(3) 0.5093(7) 0.2217(2)
O38 O 0.9617(2) 0.2776(6) 0.25283(19)
C123 C 1.0440(3) 0.4157(14) 0.2566(4)
H101 H 1.064301 0.445529 0.226973
H102 H 1.057012 0.316195 0.268587
H103 H 1.050817 0.489858 0.284009
C124 C 0.9847(3) 0.4089(10) 0.2424(3)
C125 C 0.9022(3) 0.2583(8) 0.2396(3)
H104 H 0.894147 0.271514 0.202423
H105 H 0.880162 0.333027 0.257861
C126 C 0.8879(3) 0.0979(8) 0.2558(3)
H106 H 0.848624 0.076701 0.245812
H107 H 0.894026 0.088477 0.292893
H108 H 0.911728 0.025820 0.239047
loop_
_geom_bond_atom_site_label_1
_geom_bond_atom_site_label_2
_geom_bond_site_symmetry_1
_geom_bond_site_symmetry_2
O1 C1 1_555 1_555
O2 C2 1_555 1_555
O3 H1 1_555 1_555
O4 C1 1_555 1_555
O5 C6 1_555 1_555
O6 C13 1_555 1_555
O7 C20 1_555 1_555
O8 C27 1_555 1_555
C1 H2 1_555 1_555
C2 C1 1_555 1_555
H3 C2 1_555 1_555
C3 O3 1_555 1_555
H4 C3 1_555 1_555
C4 C3 1_555 1_555
H5 C4 1_555 1_555
C5 O4 1_555 1_555
H6 C5 1_555 1_555
C6 C5 1_555 1_555
H7 C6 1_555 1_555
H8 C6 1_555 1_555
O9 C4 1_555 1_555
O10 C8 1_555 1_555
O11 C9 1_555 1_555
O12 C10 1_555 1_555
O13 C7 1_555 1_555
O14 C12 1_555 1_555
O15 C34 1_555 1_555
O16 C41 1_555 1_555
O17 C48 1_555 1_555
O18 C55 1_555 1_555
C7 O9 1_555 1_555
H9 C7 1_555 1_555
C8 C7 1_555 1_555
H10 C8 1_555 1_555
C9 C8 1_555 1_555
H11 C9 1_555 1_555
C10 C9 1_555 1_555
H12 C10 1_555 1_555
C11 O13 1_555 1_555
H13 C11 1_555 1_555
C12 C11 1_555 1_555
H14 C12 1_555 1_555
H15 C12 1_555 1_555
C13 O1 1_555 1_555
C14 C13 1_555 1_555
C15 C14 1_555 1_555
H16 C15 1_555 1_555
C16 C15 1_555 1_555
H17 C16 1_555 1_555
C17 C16 1_555 1_555
H18 C17 1_555 1_555
C18 C17 1_555 1_555
H19 C18 1_555 1_555
C19 C14 1_555 1_555
H20 C19 1_555 1_555
C20 O2 1_555 1_555
C21 C20 1_555 1_555
C22 C21 1_555 1_555
H21 C22 1_555 1_555
C23 C22 1_555 1_555
H22 C23 1_555 1_555
C24 C23 1_555 1_555
H23 C24 1_555 1_555
C25 C24 1_555 1_555
H24 C25 1_555 1_555
C26 C21 1_555 1_555
H25 C26 1_555 1_555
C27 O5 1_555 1_555
C28 C27 1_555 1_555
C29 C28 1_555 1_555
H26 C29 1_555 1_555
C30 C29 1_555 1_555
H27 C30 1_555 1_555
C31 C30 1_555 1_555
H28 C31 1_555 1_555
C32 C31 1_555 1_555
H29 C32 1_555 1_555
C33 C28 1_555 1_555
H30 C33 1_555 1_555
C34 O10 1_555 1_555
C35 C34 1_555 1_555
C36 C35 1_555 1_555
H31 C36 1_555 1_555
C37 C36 1_555 1_555
H32 C37 1_555 1_555
C38 C37 1_555 1_555
H33 C38 1_555 1_555
C39 C38 1_555 1_555
H34 C39 1_555 1_555
C40 C35 1_555 1_555
H35 C40 1_555 1_555
C41 O11 1_555 1_555
C42 C41 1_555 1_555
C43 C42 1_555 1_555
H36 C43 1_555 1_555
C44 C43 1_555 1_555
H37 C44 1_555 1_555
C45 C44 1_555 1_555
H38 C45 1_555 1_555
C46 C45 1_555 1_555
H39 C46 1_555 1_555
C47 C42 1_555 1_555
H40 C47 1_555 1_555
C48 O12 1_555 1_555
C49 C48 1_555 1_555
C50 C49 1_555 1_555
H41 C50 1_555 1_555
C51 C50 1_555 1_555
H42 C51 1_555 1_555
C52 C51 1_555 1_555
H43 C52 1_555 1_555
C53 C52 1_555 1_555
H44 C53 1_555 1_555
C54 C49 1_555 1_555
H45 C54 1_555 1_555
C55 O14 1_555 1_555
C56 C55 1_555 1_555
C57 C56 1_555 1_555
H46 C57 1_555 1_555
C58 C57 1_555 1_555
H47 C58 1_555 1_555
C59 C58 1_555 1_555
H48 C59 1_555 1_555
C60 C59 1_555 1_555
H49 C60 1_555 1_555
C61 C56 1_555 1_555
H50 C61 1_555 1_555
O19 C62 1_555 1_555
O20 C63 1_555 1_555
O21 H51 1_555 1_555
O22 C62 1_555 1_555
O23 C67 1_555 1_555
O24 C74 1_555 1_555
O25 C81 1_555 1_555
O26 C88 1_555 1_555
C62 H52 1_555 1_555
C63 C62 1_555 1_555
H53 C63 1_555 1_555
C64 O21 1_555 1_555
H54 C64 1_555 1_555
C65 C64 1_555 1_555
H55 C65 1_555 1_555
C66 O22 1_555 1_555
H56 C66 1_555 1_555
C67 C66 1_555 1_555
H57 C67 1_555 1_555
H58 C67 1_555 1_555
O27 C69 1_555 1_555
O28 C70 1_555 1_555
O29 C65 1_555 1_555
O30 C71 1_555 1_555
O31 C68 1_555 1_555
O32 C73 1_555 1_555
O33 C95 1_555 1_555
O34 C102 1_555 1_555
O35 C109 1_555 1_555
O36 C116 1_555 1_555
C68 O29 1_555 1_555
H59 C68 1_555 1_555
C69 C68 1_555 1_555
H60 C69 1_555 1_555
C70 C69 1_555 1_555
H61 C70 1_555 1_555
C71 C70 1_555 1_555
H62 C71 1_555 1_555
C72 O31 1_555 1_555
H63 C72 1_555 1_555
C73 C72 1_555 1_555
H64 C73 1_555 1_555
H65 C73 1_555 1_555
C74 O19 1_555 1_555
C75 C74 1_555 1_555
C76 C75 1_555 1_555
H66 C76 1_555 1_555
C77 C76 1_555 1_555
H67 C77 1_555 1_555
C78 C77 1_555 1_555
H68 C78 1_555 1_555
C79 C78 1_555 1_555
H69 C79 1_555 1_555
C80 C75 1_555 1_555
H70 C80 1_555 1_555
C81 O20 1_555 1_555
C82 C81 1_555 1_555
C83 C82 1_555 1_555
H71 C83 1_555 1_555
C84 C83 1_555 1_555
H72 C84 1_555 1_555
C85 C84 1_555 1_555
H73 C85 1_555 1_555
C86 C85 1_555 1_555
H74 C86 1_555 1_555
C87 C82 1_555 1_555
H75 C87 1_555 1_555
C88 O23 1_555 1_555
C89 C88 1_555 1_555
C90 C89 1_555 1_555
H76 C90 1_555 1_555
C91 C90 1_555 1_555
H77 C91 1_555 1_555
C92 C91 1_555 1_555
H78 C92 1_555 1_555
C93 C92 1_555 1_555
H79 C93 1_555 1_555
C94 C89 1_555 1_555
H80 C94 1_555 1_555
C95 O27 1_555 1_555
C96 C95 1_555 1_555
C97 C96 1_555 1_555
H81 C97 1_555 1_555
C98 C97 1_555 1_555
H82 C98 1_555 1_555
C99 C98 1_555 1_555
H83 C99 1_555 1_555
C100 C99 1_555 1_555
H84 C100 1_555 1_555
C101 C96 1_555 1_555
H85 C101 1_555 1_555
C102 O28 1_555 1_555
C103 C102 1_555 1_555
C104 C103 1_555 1_555
H86 C104 1_555 1_555
C105 C104 1_555 1_555
H87 C105 1_555 1_555
C106 C105 1_555 1_555
H88 C106 1_555 1_555
C107 C106 1_555 1_555
H89 C107 1_555 1_555
C108 C103 1_555 1_555
H90 C108 1_555 1_555
C109 O30 1_555 1_555
C110 C109 1_555 1_555
C111 C110 1_555 1_555
H91 C111 1_555 1_555
C112 C111 1_555 1_555
H92 C112 1_555 1_555
C113 C112 1_555 1_555
H93 C113 1_555 1_555
C114 C113 1_555 1_555
H94 C114 1_555 1_555
C115 C110 1_555 1_555
H95 C115 1_555 1_555
C116 O32 1_555 1_555
C117 C116 1_555 1_555
C118 C117 1_555 1_555
H96 C118 1_555 1_555
C119 C118 1_555 1_555
H97 C119 1_555 1_555
C120 C119 1_555 1_555
H98 C120 1_555 1_555
C121 C120 1_555 1_555
H99 C121 1_555 1_555
C122 C117 1_555 1_555
H100 C122 1_555 1_555
O37 C124 1_555 1_555
O38 C124 1_555 1_555
C123 H101 1_555 1_555
H102 C123 1_555 1_555
H103 C123 1_555 1_555
C124 C123 1_555 1_555
C125 O38 1_555 1_555
H104 C125 1_555 1_555
H105 C125 1_555 1_555
C126 C125 1_555 1_555
H106 C126 1_555 1_555
H107 C126 1_555 1_555
H108 C126 1_555 1_555
C2 C3 1_555 1_555
C4 C5 1_555 1_555
C10 C11 1_555 1_555
C18 C19 1_555 1_555
C25 C26 1_555 1_555
C32 C33 1_555 1_555
C39 C40 1_555 1_555
C46 C47 1_555 1_555
C53 C54 1_555 1_555
C60 C61 1_555 1_555
C63 C64 1_555 1_555
C65 C66 1_555 1_555
C71 C72 1_555 1_555
C79 C80 1_555 1_555
C86 C87 1_555 1_555
C93 C94 1_555 1_555
C100 C101 1_555 1_555
C107 C108 1_555 1_555
C114 C115 1_555 1_555
C121 C122 1_555 1_555

#END
