
#######################################################################
#
#                 Cambridge Crystallographic Data Centre
#                                CCDC 
#
#######################################################################
#
# If this CIF has been generated from an entry in the Cambridge 
# Structural Database, then it will include bibliographic, chemical, 
# crystal, experimental, refinement or atomic coordinate data resulting 
# from the CCDC's data processing and validation procedures.
#
#######################################################################

data_KOCYUZ
_chemical_formula_moiety         'C34 H28 O10,C3 H6 O1'
_chemical_name_systematic        
'1,2,4,6-tetra-O-benozyl-\b-D-glucopyranose acetone solvate'
_symmetry_cell_setting           orthorhombic
_symmetry_space_group_name_H-M   'P 21 21 21'
_symmetry_Int_Tables_number      19
_space_group_name_Hall           'P 2ac 2ab'
loop_
_symmetry_equiv_pos_site_id
_symmetry_equiv_pos_as_xyz
1 x,y,z
2 1/2-x,-y,1/2+z
3 -x,1/2+y,1/2-z
4 1/2+x,1/2-y,-z
_cell_length_a                   5.6342(2)
_cell_length_b                   19.9711(8)
_cell_length_c                   29.6094(11)
_cell_angle_alpha                90
_cell_angle_beta                 90
_cell_angle_gamma                90
_cell_volume                     3331.68
_exptl_crystal_colour            colorless
_exptl_crystal_description       needle
_cell_formula_units_Z            4
loop_
_atom_site_label
_atom_site_type_symbol
_atom_site_fract_x
_atom_site_fract_y
_atom_site_fract_z
O1 O 0.71598(19) 0.61168(5) 0.67190(3)
O2 O 0.51227(19) 0.51317(5) 0.73044(3)
O3 O 0.1940(2) 0.42653(6) 0.68429(4)
H1 H 0.1978 0.3853 0.6900
O4 O 0.3962(2) 0.37642(5) 0.60127(4)
O5 O 0.66468(19) 0.54186(5) 0.61282(3)
O6 O 0.4464(2) 0.52909(6) 0.53425(3)
O7 O 1.0761(2) 0.61400(6) 0.63814(3)
O8 O 0.1803(2) 0.57306(7) 0.74478(4)
O9 O 0.0840(2) 0.39447(6) 0.55505(4)
O10 O 0.5742(2) 0.53514(6) 0.46280(4)
C1 C 0.6951(3) 0.54302(7) 0.66012(5)
H2 H 0.8379 0.5168 0.6696
C2 C 0.4708(3) 0.51718(7) 0.68248(4)
H3 H 0.3348 0.5479 0.6760
C3 C 0.4149(3) 0.44667(7) 0.66592(5)
H4 H 0.5416 0.4154 0.6766
C4 C 0.4086(3) 0.44620(7) 0.61448(5)
H5 H 0.2671 0.4713 0.6031
C5 C 0.6368(3) 0.47582(7) 0.59525(5)
H6 H 0.7749 0.4476 0.6046
C6 C 0.6350(3) 0.48287(8) 0.54450(5)
H7 H 0.7891 0.5005 0.5336
H8 H 0.6054 0.4390 0.5300
C7 C 0.9167(3) 0.64249(8) 0.65719(5)
C8 C 0.9126(3) 0.71557(8) 0.66667(5)
C9 C 1.1059(3) 0.75298(9) 0.65200(6)
H9 H 1.2339 0.7316 0.6369
C10 C 1.1118(4) 0.82151(10) 0.65945(8)
H10 H 1.2439 0.8471 0.6495
C11 C 0.9252(4) 0.85264(9) 0.68140(7)
H11 H 0.9299 0.8996 0.6866
C12 C 0.7315(4) 0.81563(9) 0.69585(6)
H12 H 0.6037 0.8373 0.7108
C13 C 0.7236(3) 0.74696(8) 0.68851(6)
H13 H 0.5905 0.7216 0.6983
C14 C 0.3477(3) 0.54065(7) 0.75764(5)
C15 C 0.3993(3) 0.52627(7) 0.80603(5)
C16 C 0.6103(3) 0.49601(8) 0.81988(5)
H14 H 0.7268 0.4836 0.7982
C17 C 0.6491(3) 0.48408(8) 0.86556(5)
H15 H 0.7941 0.4645 0.8752
C18 C 0.4763(3) 0.50067(8) 0.89711(5)
H16 H 0.5023 0.4916 0.9282
C19 C 0.2661(3) 0.53037(8) 0.88333(5)
H17 H 0.1481 0.5416 0.9050
C20 C 0.2280(3) 0.54381(8) 0.83777(5)
H18 H 0.0853 0.5649 0.8284
C21 C 0.2212(3) 0.35697(8) 0.57317(5)
C22 C 0.2203(3) 0.28273(8) 0.56731(5)
C23 C 0.4016(3) 0.24286(8) 0.58459(5)
H19 H 0.5296 0.2627 0.6006
C24 C 0.3942(3) 0.17400(8) 0.57828(6)
H20 H 0.5192 0.1468 0.5896
C25 C 0.2053(3) 0.14467(8) 0.55555(5)
H21 H 0.1999 0.0975 0.5517
C26 C 0.0243(3) 0.18441(9) 0.53847(5)
H22 H -0.1051 0.1643 0.5230
C27 C 0.0317(3) 0.25358(8) 0.54393(5)
H23 H -0.0910 0.2808 0.5318
C28 C 0.4428(3) 0.55396(8) 0.49223(5)
C29 C 0.2557(3) 0.60598(8) 0.48703(5)
C30 C 0.0917(3) 0.61948(8) 0.52115(5)
H24 H 0.1010 0.5965 0.5492
C31 C -0.0851(3) 0.66670(9) 0.51390(7)
H25 H -0.1985 0.6755 0.5369
C32 C -0.0971(4) 0.70125(9) 0.47316(7)
H26 H -0.2187 0.7334 0.4683
C33 C 0.0697(4) 0.68854(9) 0.43959(6)
H27 H 0.0633 0.7126 0.4119
C34 C 0.2455(3) 0.64079(9) 0.44633(5)
H28 H 0.3584 0.6319 0.4233
O11 O 0.2960(3) 0.29141(6) 0.69577(5)
C35 C 0.1682(3) 0.24299(9) 0.69602(6)
C36 C 0.2618(4) 0.17400(9) 0.70283(7)
H29 H 0.2532 0.1492 0.6743
H30 H 0.1664 0.1510 0.7258
H31 H 0.4272 0.1764 0.7129
C37 C -0.0913(6) 0.24957(19) 0.6894(2)
H32 H -0.1729 0.2409 0.7181
H33 H -0.1445 0.2171 0.6668
H34 H -0.1284 0.2950 0.6791
loop_
_geom_bond_atom_site_label_1
_geom_bond_atom_site_label_2
_geom_bond_site_symmetry_1
_geom_bond_site_symmetry_2
O1 C1 1_555 1_555
O2 C2 1_555 1_555
O3 H1 1_555 1_555
O4 C4 1_555 1_555
O5 C1 1_555 1_555
O6 C6 1_555 1_555
O7 C7 1_555 1_555
O8 C14 1_555 1_555
O9 C21 1_555 1_555
O10 C28 1_555 1_555
C1 H2 1_555 1_555
C2 C1 1_555 1_555
H3 C2 1_555 1_555
C3 O3 1_555 1_555
H4 C3 1_555 1_555
C4 C3 1_555 1_555
H5 C4 1_555 1_555
C5 O5 1_555 1_555
H6 C5 1_555 1_555
C6 C5 1_555 1_555
H7 C6 1_555 1_555
H8 C6 1_555 1_555
C7 O1 1_555 1_555
C8 C7 1_555 1_555
C9 C8 1_555 1_555
H9 C9 1_555 1_555
C10 C9 1_555 1_555
H10 C10 1_555 1_555
C11 C10 1_555 1_555
H11 C11 1_555 1_555
C12 C11 1_555 1_555
H12 C12 1_555 1_555
C13 C8 1_555 1_555
H13 C13 1_555 1_555
C14 O2 1_555 1_555
C15 C14 1_555 1_555
C16 C15 1_555 1_555
H14 C16 1_555 1_555
C17 C16 1_555 1_555
H15 C17 1_555 1_555
C18 C17 1_555 1_555
H16 C18 1_555 1_555
C19 C18 1_555 1_555
H17 C19 1_555 1_555
C20 C15 1_555 1_555
H18 C20 1_555 1_555
C21 O4 1_555 1_555
C22 C21 1_555 1_555
C23 C22 1_555 1_555
H19 C23 1_555 1_555
C24 C23 1_555 1_555
H20 C24 1_555 1_555
C25 C24 1_555 1_555
H21 C25 1_555 1_555
C26 C25 1_555 1_555
H22 C26 1_555 1_555
C27 C22 1_555 1_555
H23 C27 1_555 1_555
C28 O6 1_555 1_555
C29 C28 1_555 1_555
C30 C29 1_555 1_555
H24 C30 1_555 1_555
C31 C30 1_555 1_555
H25 C31 1_555 1_555
C32 C31 1_555 1_555
H26 C32 1_555 1_555
C33 C32 1_555 1_555
H27 C33 1_555 1_555
C34 C29 1_555 1_555
H28 C34 1_555 1_555
O11 C35 1_555 1_555
C35 C36 1_555 1_555
C36 H29 1_555 1_555
H30 C36 1_555 1_555
H31 C36 1_555 1_555
C37 C35 1_555 1_555
H32 C37 1_555 1_555
H33 C37 1_555 1_555
H34 C37 1_555 1_555
C2 C3 1_555 1_555
C4 C5 1_555 1_555
C12 C13 1_555 1_555
C19 C20 1_555 1_555
C26 C27 1_555 1_555
C33 C34 1_555 1_555

#END
