
#######################################################################
#
#                 Cambridge Crystallographic Data Centre
#                                CCDC 
#
#######################################################################
#
# If this CIF has been generated from an entry in the Cambridge 
# Structural Database, then it will include bibliographic, chemical, 
# crystal, experimental, refinement or atomic coordinate data resulting 
# from the CCDC's data processing and validation procedures.
#
#######################################################################

data_KOCZUX
_chemical_formula_moiety         'C36 H48 N4 O2,0.5(C4 H8 O2)'
_chemical_name_systematic        
"cis-2,3-Dihydroxy-2',3',7,8,12,13,17,18-octaethylporphyrin ethyl acetate solvate"
_chemical_properties_biological  
'better photonecrotic activity than standard haematoporphyrin derivative used in clinical tumour phototherapy'
_symmetry_cell_setting           monoclinic
_symmetry_space_group_name_H-M   'C 2/c'
_symmetry_Int_Tables_number      15
_space_group_name_Hall           '-C 2yn'
loop_
_symmetry_equiv_pos_site_id
_symmetry_equiv_pos_as_xyz
1 x,y,z
2 1/2+x,1/2+y,z
3 -x,y,1/2-z
4 1/2-x,1/2+y,1/2-z
5 -x,-y,-z
6 1/2-x,1/2-y,-z
7 x,-y,1/2+z
8 1/2+x,1/2-y,1/2+z
_cell_length_a                   24.477(8)
_cell_length_b                   14.696(6)
_cell_length_c                   22.502(16)
_cell_angle_alpha                90
_cell_angle_beta                 114.08(5)
_cell_angle_gamma                90
_cell_volume                     7389.89
_cell_formula_units_Z            8
loop_
_atom_site_label
_atom_site_type_symbol
_atom_site_fract_x
_atom_site_fract_y
_atom_site_fract_z
O1 O 0.9240(2) 1.1058(2) 0.7419(2)
O2 O 0.9764(2) 1.0086(2) 0.6727(2)
N1 N 0.8649(2) 0.9008(3) 0.6514(2)
N2 N 0.8325(2) 0.7617(3) 0.5522(2)
N3 N 0.8198(2) 0.6344(3) 0.6460(2)
N4 N 0.8540(2) 0.7695(3) 0.7464(2)
C1 C 0.8741(2) 0.9579(4) 0.7024(3)
C2 C 0.8862(2) 1.0555(4) 0.6870(3)
C3 C 0.9145(3) 1.0343(4) 0.6374(3)
C4 C 0.8806(3) 0.9468(4) 0.6074(3)
C5 C 0.8708(2) 0.9144(4) 0.5465(3)
C6 C 0.8468(3) 0.8303(4) 0.5193(3)
C7 C 0.8321(3) 0.7981(4) 0.4544(3)
C8 C 0.8102(3) 0.7116(4) 0.4505(3)
C9 C 0.8102(3) 0.6877(4) 0.5120(3)
C10 C 0.7940(3) 0.6064(4) 0.5308(3)
C11 C 0.7992(3) 0.5791(4) 0.5921(3)
C12 C 0.7851(3) 0.4882(4) 0.6075(3)
C13 C 0.7992(3) 0.4877(4) 0.6720(3)
C14 C 0.8202(3) 0.5799(4) 0.6958(3)
C15 C 0.8361(3) 0.6089(4) 0.7592(3)
C16 C 0.8515(3) 0.6965(4) 0.7838(3)
C17 C 0.8639(3) 0.7303(4) 0.8472(3)
C18 C 0.8720(3) 0.8221(4) 0.8462(3)
C19 C 0.8664(3) 0.8468(4) 0.7830(3)
C20 C 0.8734(3) 0.9344(4) 0.7611(3)
C21 C 0.8280(3) 1.1086(4) 0.6552(3)
C22 C 0.7955(3) 1.1227(4) 0.7004(3)
C23 C 0.9128(3) 1.1083(4) 0.5894(3)
C24 C 0.9484(3) 1.1934(4) 0.6223(3)
C25 C 0.8411(3) 0.8510(4) 0.4022(3)
C26 C 0.9023(3) 0.8374(5) 0.4012(3)
C27 C 0.7913(3) 0.6485(4) 0.3936(3)
C28 C 0.8395(4) 0.5782(4) 0.4006(3)
C29 C 0.7617(3) 0.4114(4) 0.5593(3)
C30 C 0.8108(4) 0.3646(5) 0.5457(4)
C31 C 0.7951(4) 0.4098(4) 0.7136(3)
C32 C 0.8556(4) 0.3655(5) 0.7487(4)
C33 C 0.8670(3) 0.6748(4) 0.9044(3)
C34 C 0.9286(4) 0.6382(6) 0.9441(4)
C35 C 0.8869(3) 0.8883(4) 0.9016(3)
C36 C 0.9527(3) 0.9119(5) 0.9337(3)
O3? O 1.0000 0.8479(4) 0.7500
O4? O 1.0000 0.7004(6) 0.7500
C37? C 1.0064(6) 0.7676(9) 0.7769(6)
C38? C 0.9807(9) 0.7184(11) 0.6670(9)
C39? C 0.9606(7) 0.6308(10) 0.6257(7)
C40? C 1.0176(9) 0.7409(10) 0.8436(8)
loop_
_geom_bond_atom_site_label_1
_geom_bond_atom_site_label_2
_geom_bond_site_symmetry_1
_geom_bond_site_symmetry_2
O1 C2 1_555 1_555
O2 C3 1_555 1_555
N1 C1 1_555 1_555
N2 C6 1_555 1_555
N3 C11 1_555 1_555
N4 C16 1_555 1_555
C1 C2 1_555 1_555
C2 C3 1_555 1_555
C3 C4 1_555 1_555
C4 N1 1_555 1_555
C5 C4 1_555 1_555
C6 C5 1_555 1_555
C7 C6 1_555 1_555
C8 C7 1_555 1_555
C9 N2 1_555 1_555
C10 C9 1_555 1_555
C11 C10 1_555 1_555
C12 C11 1_555 1_555
C13 C12 1_555 1_555
C14 N3 1_555 1_555
C15 C14 1_555 1_555
C16 C15 1_555 1_555
C17 C16 1_555 1_555
C18 C17 1_555 1_555
C19 N4 1_555 1_555
C20 C1 1_555 1_555
C21 C2 1_555 1_555
C22 C21 1_555 1_555
C23 C3 1_555 1_555
C24 C23 1_555 1_555
C25 C7 1_555 1_555
C26 C25 1_555 1_555
C27 C8 1_555 1_555
C28 C27 1_555 1_555
C29 C12 1_555 1_555
C30 C29 1_555 1_555
C31 C13 1_555 1_555
C32 C31 1_555 1_555
C33 C17 1_555 1_555
C34 C33 1_555 1_555
C35 C18 1_555 1_555
C36 C35 1_555 1_555
C8 C9 1_555 1_555
C13 C14 1_555 1_555
C18 C19 1_555 1_555
C19 C20 1_555 1_555

#END
