
#######################################################################
#
#                 Cambridge Crystallographic Data Centre
#                                CCDC 
#
#######################################################################
#
# If this CIF has been generated from an entry in the Cambridge 
# Structural Database, then it will include bibliographic, chemical, 
# crystal, experimental, refinement or atomic coordinate data resulting 
# from the CCDC's data processing and validation procedures.
#
#######################################################################

data_KODFAM
_chemical_formula_moiety         'C38 H30 O4 P2 S1,2(C1 H2 Cl2)'
_chemical_name_systematic        
'((5,5-dioxidodibenzo[b,d]thiene-4,6-diyl)bis(methylene))bis(diphenylphosphine) dioxide dichloromethane solvate'
_symmetry_cell_setting           triclinic
_symmetry_space_group_name_H-M   'P 1'
_symmetry_Int_Tables_number      1
_space_group_name_Hall           'P 1'
loop_
_symmetry_equiv_pos_site_id
_symmetry_equiv_pos_as_xyz
1 x,y,z
_cell_length_a                   8.9081(4)
_cell_length_b                   10.2099(5)
_cell_length_c                   11.4562(5)
_cell_angle_alpha                91.404(3)
_cell_angle_beta                 97.115(3)
_cell_angle_gamma                114.544(3)
_cell_volume                     937.169
_exptl_crystal_colour            colorless
_exptl_crystal_description       rod
_cell_formula_units_Z            1
loop_
_atom_site_label
_atom_site_type_symbol
_atom_site_fract_x
_atom_site_fract_y
_atom_site_fract_z
S1 S 0.47396(7) 0.23310(6) 0.20706(5)
P1 P 0.64243(7) 0.53641(7) -0.09951(5)
P2 P 0.24353(7) -0.18452(7) 0.41957(5)
O1 O 0.7293(2) 0.69759(19) -0.08854(15)
O2 O 0.1270(2) -0.2185(2) 0.50791(15)
O3 O 0.5919(2) 0.1699(2) 0.21302(16)
O4 O 0.3413(2) 0.1821(2) 0.10881(15)
C1 C 0.6800(3) 0.5107(3) 0.1450(2)
C2 C 0.7643(3) 0.6580(3) 0.1822(2)
H1 H 0.8347 0.7219 0.1330
C3 C 0.7474(3) 0.7129(3) 0.2890(2)
H2 H 0.8081 0.8131 0.3124
C4 C 0.6429(3) 0.6235(3) 0.3629(2)
H3 H 0.6297 0.6623 0.4352
C5 C 0.5593(3) 0.4784(3) 0.3292(2)
C6 C 0.4424(3) 0.3646(3) 0.3933(2)
C7 C 0.3790(3) 0.3820(3) 0.4949(2)
H4 H 0.4095 0.4754 0.5322
C8 C 0.2701(3) 0.2592(3) 0.5402(2)
H5 H 0.2254 0.2697 0.6091
C9 C 0.2247(3) 0.1222(3) 0.4880(2)
H6 H 0.1515 0.0408 0.5226
C10 C 0.2845(3) 0.1009(3) 0.3853(2)
C11 C 0.3914(3) 0.2251(3) 0.3405(2)
C12 C 0.5805(3) 0.4240(3) 0.2221(2)
C13 C 0.7026(3) 0.4535(3) 0.0279(2)
H7 H 0.6347 0.3477 0.0169
H8 H 0.8210 0.4713 0.0306
C14 C 0.4194(3) 0.4752(3) -0.1229(2)
C15 C 0.3085(3) 0.3325(3) -0.1154(2)
H9 H 0.3494 0.2634 -0.0916
C16 C 0.1370(3) 0.2912(3) -0.1430(2)
H10 H 0.0612 0.1939 -0.1376
C17 C 0.0777(4) 0.3905(4) -0.1779(3)
H11 H -0.0391 0.3616 -0.1968
C18 C 0.1867(4) 0.5324(4) -0.1858(3)
H12 H 0.1448 0.6006 -0.2103
C19 C 0.3586(4) 0.5757(3) -0.1577(2)
H13 H 0.4336 0.6735 -0.1624
C20 C 0.6898(3) 0.4575(3) -0.2252(2)
C21 C 0.7960(3) 0.5524(3) -0.2957(2)
H14 H 0.8429 0.6537 -0.2756
C22 C 0.8328(3) 0.4983(3) -0.3950(2)
H15 H 0.9045 0.5627 -0.4433
C23 C 0.7662(3) 0.3520(3) -0.4238(2)
H16 H 0.7933 0.3158 -0.4915
C24 C 0.6594(3) 0.2562(3) -0.3549(2)
H17 H 0.6131 0.1550 -0.3755
C25 C 0.6212(3) 0.3100(3) -0.2555(2)
H18 H 0.5478 0.2454 -0.2083
C26 C 0.2330(3) -0.0471(3) 0.3244(2)
H19 H 0.3050 -0.0382 0.2630
H20 H 0.1170 -0.0811 0.2838
C27 C 0.4587(3) -0.1258(3) 0.4859(2)
C28 C 0.4888(3) -0.1748(3) 0.5950(2)
H21 H 0.3976 -0.2324 0.6333
C29 C 0.6495(4) -0.1403(3) 0.6479(2)
H22 H 0.6685 -0.1751 0.7219
C30 C 0.7835(4) -0.0552(3) 0.5936(3)
H23 H 0.8941 -0.0326 0.6298
C31 C 0.7558(3) -0.0027(3) 0.4857(2)
H24 H 0.8476 0.0573 0.4490
C32 C 0.5951(3) -0.0380(3) 0.4323(2)
H25 H 0.5766 -0.0025 0.3586
C33 C 0.2006(3) -0.3379(3) 0.3178(2)
C34 C 0.3029(3) -0.3329(3) 0.2342(2)
H26 H 0.3995 -0.2467 0.2296
C35 C 0.2643(4) -0.4532(3) 0.1575(2)
H27 H 0.3347 -0.4491 0.1006
C36 C 0.1251(4) -0.5781(3) 0.1633(2)
H28 H 0.0995 -0.6601 0.1105
C37 C 0.0214(4) -0.5847(3) 0.2463(3)
H29 H -0.0749 -0.6713 0.2507
C38 C 0.0591(3) -0.4647(3) 0.3225(2)
H30 H -0.0124 -0.4688 0.3787
C39 C 0.6948(4) -0.0381(3) 1.0507(3)
H31 H 0.6149 -0.0364 1.1029
H32 H 0.6630 -0.1400 1.0230
Cl1 Cl 0.68442(15) 0.06094(12) 0.92865(8)
Cl2 Cl 0.89751(12) 0.03524(9) 1.13067(9)
C40 C 1.1098(4) -0.0841(3) 0.9200(2)
H33 H 1.1568 0.0144 0.9604
H34 H 0.9867 -0.1210 0.9075
Cl3 Cl 1.16879(11) -0.19729(10) 1.01004(7)
Cl4 Cl 1.18098(11) -0.07605(10) 0.78106(7)
loop_
_geom_bond_atom_site_label_1
_geom_bond_atom_site_label_2
_geom_bond_site_symmetry_1
_geom_bond_site_symmetry_2
S1 O3 1_555 1_555
P1 O1 1_555 1_555
P2 O2 1_555 1_555
O4 S1 1_555 1_555
C1 C2 1_555 1_555
C2 H1 1_555 1_555
C3 C2 1_555 1_555
H2 C3 1_555 1_555
C4 C3 1_555 1_555
H3 C4 1_555 1_555
C5 C4 1_555 1_555
C6 C5 1_555 1_555
C7 C6 1_555 1_555
H4 C7 1_555 1_555
C8 C7 1_555 1_555
H5 C8 1_555 1_555
C9 C8 1_555 1_555
H6 C9 1_555 1_555
C10 C9 1_555 1_555
C11 S1 1_555 1_555
C12 S1 1_555 1_555
C13 P1 1_555 1_555
H7 C13 1_555 1_555
H8 C13 1_555 1_555
C14 P1 1_555 1_555
C15 C14 1_555 1_555
H9 C15 1_555 1_555
C16 C15 1_555 1_555
H10 C16 1_555 1_555
C17 C16 1_555 1_555
H11 C17 1_555 1_555
C18 C17 1_555 1_555
H12 C18 1_555 1_555
C19 C14 1_555 1_555
H13 C19 1_555 1_555
C20 P1 1_555 1_555
C21 C20 1_555 1_555
H14 C21 1_555 1_555
C22 C21 1_555 1_555
H15 C22 1_555 1_555
C23 C22 1_555 1_555
H16 C23 1_555 1_555
C24 C23 1_555 1_555
H17 C24 1_555 1_555
C25 C20 1_555 1_555
H18 C25 1_555 1_555
C26 P2 1_555 1_555
H19 C26 1_555 1_555
H20 C26 1_555 1_555
C27 P2 1_555 1_555
C28 C27 1_555 1_555
H21 C28 1_555 1_555
C29 C28 1_555 1_555
H22 C29 1_555 1_555
C30 C29 1_555 1_555
H23 C30 1_555 1_555
C31 C30 1_555 1_555
H24 C31 1_555 1_555
C32 C27 1_555 1_555
H25 C32 1_555 1_555
C33 P2 1_555 1_555
C34 C33 1_555 1_555
H26 C34 1_555 1_555
C35 C34 1_555 1_555
H27 C35 1_555 1_555
C36 C35 1_555 1_555
H28 C36 1_555 1_555
C37 C36 1_555 1_555
H29 C37 1_555 1_555
C38 C33 1_555 1_555
H30 C38 1_555 1_555
C39 H31 1_555 1_555
H32 C39 1_555 1_555
Cl1 C39 1_555 1_555
Cl2 C39 1_555 1_555
C40 H33 1_555 1_555
H34 C40 1_555 1_555
Cl3 C40 1_555 1_555
Cl4 C40 1_555 1_555
C1 C12 1_555 1_555
C1 C13 1_555 1_555
C5 C12 1_555 1_555
C6 C11 1_555 1_555
C10 C11 1_555 1_555
C10 C26 1_555 1_555
C18 C19 1_555 1_555
C24 C25 1_555 1_555
C31 C32 1_555 1_555
C37 C38 1_555 1_555

#END
