
#######################################################################
#
#                 Cambridge Crystallographic Data Centre
#                                CCDC 
#
#######################################################################
#
# If this CIF has been generated from an entry in the Cambridge 
# Structural Database, then it will include bibliographic, chemical, 
# crystal, experimental, refinement or atomic coordinate data resulting 
# from the CCDC's data processing and validation procedures.
#
#######################################################################

data_KODFEO
_chemical_formula_moiety         'C24 H32 N12 4+,4(Cl1 1-),5.5(H2 O1)'
_chemical_name_systematic        
'(16-(4-Amino-2-methyl)pyridinium crown-4) tetrachloride clathrate hydrate'
_chemical_properties_biological  'biological significance'
_symmetry_cell_setting           monoclinic
_symmetry_space_group_name_H-M   'C 2/c'
_symmetry_Int_Tables_number      15
_space_group_name_Hall           '-C 2yn'
loop_
_symmetry_equiv_pos_site_id
_symmetry_equiv_pos_as_xyz
1 x,y,z
2 1/2+x,1/2+y,z
3 -x,y,1/2-z
4 1/2-x,1/2+y,1/2-z
5 -x,-y,-z
6 1/2-x,1/2-y,-z
7 x,-y,1/2+z
8 1/2+x,1/2-y,1/2+z
_cell_length_a                   10.725(5)
_cell_length_b                   16.633(4)
_cell_length_c                   19.270(9)
_cell_angle_alpha                90
_cell_angle_beta                 100.21(2)
_cell_angle_gamma                90
_cell_volume                     3383.12
_cell_formula_units_Z            4
loop_
_atom_site_label
_atom_site_type_symbol
_atom_site_fract_x
_atom_site_fract_y
_atom_site_fract_z
Cl1 Cl 0.0000 0.4186(2) 0.2500
Cl2 Cl 0.0000 0.7672(2) 0.2500
Cl3 Cl -0.0287(2) 0.7658(1) 0.0089(1)
N1 N -0.2310(5) 0.6032(3) 0.3093(3)
C1 C -0.2842(7) 0.6717(5) 0.3276(4)
N2 N -0.3349(5) 0.7254(4) 0.2810(3)
C2 C -0.3335(7) 0.7118(4) 0.2109(4)
C3 C -0.2624(6) 0.6467(4) 0.1908(4)
C4 C -0.2157(7) 0.5931(4) 0.2396(4)
C5 C -0.2860(8) 0.6896(5) 0.4036(4)
N3 N -0.3982(6) 0.7623(4) 0.1667(3)
C6 C -0.2405(7) 0.6442(5) 0.1148(4)
N4 N -0.1556(6) 0.5780(4) 0.1029(3)
C7 C -0.2000(7) 0.5077(5) 0.0690(4)
N5 N -0.1215(6) 0.4523(4) 0.0554(3)
C8 C 0.0041(7) 0.4614(4) 0.0772(3)
C9 C 0.0549(7) 0.5316(4) 0.1159(3)
C10 C -0.0282(7) 0.5893(4) 0.1255(4)
C11 C -0.3389(7) 0.4944(5) 0.0478(4)
N6 N 0.0797(6) 0.4042(3) 0.0606(3)
C12 C -0.1942(7) 0.5356(5) 0.3577(4)
H1 H -0.166 0.538 0.240
H2 H -0.331 0.748 0.410
H3 H -0.337 0.643 0.428
H4 H -0.188 0.692 0.435
H5 H -0.472 0.801 0.171
H6 H -0.402 0.757 0.113
H7 H -0.198 0.702 0.102
H8 H -0.332 0.638 0.079
H9 H -0.014 0.646 0.151
H10 H -0.358 0.437 0.023
H11 H -0.385 0.498 0.094
H12 H -0.380 0.542 0.011
H13 H 0.179 0.407 0.084
H14 H 0.043 0.351 0.030
H15 H -0.228 0.481 0.335
H16 H -0.246 0.553 0.403
C12B C 0.1942(7) 0.5356(5) 0.1423(4)
C9B C -0.0549(7) 0.5316(4) 0.3841(3)
N1B N 0.2310(5) 0.6032(3) 0.1907(3)
H15B H 0.228 0.481 0.165
H16B H 0.246 0.553 0.097
C8B C -0.0041(7) 0.4614(4) 0.4228(3)
C10B C 0.0282(7) 0.5893(4) 0.3745(4)
C1B C 0.2842(7) 0.6717(5) 0.1724(4)
C4B C 0.2157(7) 0.5931(4) 0.2604(4)
N5B N 0.1215(6) 0.4523(4) 0.4446(3)
N6B N -0.0797(6) 0.4042(3) 0.4394(3)
N4B N 0.1556(6) 0.5780(4) 0.3971(3)
H9B H 0.014 0.646 0.349
N2B N 0.3349(5) 0.7254(4) 0.2190(3)
C5B C 0.2860(8) 0.6896(5) 0.0964(4)
C3B C 0.2624(6) 0.6467(4) 0.3092(4)
H1B H 0.166 0.538 0.260
C7B C 0.2000(7) 0.5077(5) 0.4310(4)
H13B H -0.179 0.407 0.416
H14B H -0.043 0.351 0.470
C6B C 0.2405(7) 0.6442(5) 0.3852(4)
C2B C 0.3335(7) 0.7118(4) 0.2891(4)
H2B H 0.331 0.748 0.090
H3B H 0.337 0.643 0.072
H4B H 0.188 0.692 0.065
C11B C 0.3389(7) 0.4944(5) 0.4522(4)
H7B H 0.198 0.702 0.398
H8B H 0.332 0.638 0.421
N3B N 0.3982(6) 0.7623(4) 0.3333(3)
H10B H 0.358 0.437 0.477
H11B H 0.385 0.498 0.406
H12B H 0.380 0.542 0.489
H5B H 0.472 0.801 0.329
H6B H 0.402 0.757 0.387
O1 O -0.1498(5) 0.8765(4) 0.1079(3)
O2 O -0.1914(6) 0.9033(4) 0.2851(4)
O3 O 0.0000 0.017(1) 0.2500
O4? O -0.008(1) 0.015(1) 0.181(1)
loop_
_geom_bond_atom_site_label_1
_geom_bond_atom_site_label_2
_geom_bond_site_symmetry_1
_geom_bond_site_symmetry_2
N1 C1 1_555 1_555
C1 N2 1_555 1_555
N2 C2 1_555 1_555
C2 C3 1_555 1_555
C3 C4 1_555 1_555
C4 N1 1_555 1_555
C5 C1 1_555 1_555
N3 C2 1_555 1_555
C6 C3 1_555 1_555
N4 C6 1_555 1_555
C7 N4 1_555 1_555
N5 C7 1_555 1_555
C8 N5 1_555 1_555
C9 C8 1_555 1_555
C10 N4 1_555 1_555
C11 C7 1_555 1_555
N6 C8 1_555 1_555
C12 N1 1_555 1_555
H1 C4 1_555 1_555
H2 C5 1_555 1_555
H3 C5 1_555 1_555
H4 C5 1_555 1_555
H5 N3 1_555 1_555
H6 N3 1_555 1_555
H7 C6 1_555 1_555
H8 C6 1_555 1_555
H9 C10 1_555 1_555
H10 C11 1_555 1_555
H11 C11 1_555 1_555
H12 C11 1_555 1_555
H13 N6 1_555 1_555
H14 N6 1_555 1_555
H15 C12 1_555 1_555
H16 C12 1_555 1_555
C12B C9 1_555 1_555
C9B C12 1_555 1_555
N1B C12B 1_555 1_555
H15B C12B 1_555 1_555
H16B C12B 1_555 1_555
C8B C9B 1_555 1_555
C10B C9B 1_555 1_555
C1B N1B 1_555 1_555
C4B N1B 1_555 1_555
N5B C8B 1_555 1_555
N6B C8B 1_555 1_555
N4B C10B 1_555 1_555
H9B C10B 1_555 1_555
N2B C1B 1_555 1_555
C5B C1B 1_555 1_555
C3B C4B 1_555 1_555
H1B C4B 1_555 1_555
C7B N5B 1_555 1_555
H13B N6B 1_555 1_555
H14B N6B 1_555 1_555
C6B N4B 1_555 1_555
C2B N2B 1_555 1_555
H2B C5B 1_555 1_555
H3B C5B 1_555 1_555
H4B C5B 1_555 1_555
C11B C7B 1_555 1_555
H7B C6B 1_555 1_555
H8B C6B 1_555 1_555
N3B C2B 1_555 1_555
H10B C11B 1_555 1_555
H11B C11B 1_555 1_555
H12B C11B 1_555 1_555
H5B N3B 1_555 1_555
H6B N3B 1_555 1_555
C9 C10 1_555 1_555
N4B C7B 1_555 1_555
C3B C2B 1_555 1_555
C3B C6B 1_555 1_555

#END
