
#######################################################################
#
#                 Cambridge Crystallographic Data Centre
#                                CCDC 
#
#######################################################################
#
# If this CIF has been generated from an entry in the Cambridge 
# Structural Database, then it will include bibliographic, chemical, 
# crystal, experimental, refinement or atomic coordinate data resulting 
# from the CCDC's data processing and validation procedures.
#
#######################################################################

data_KODFEQ
_chemical_formula_moiety         'C36 H26 O4 P2 S1,3(C1 H1 Cl3)'
_chemical_name_systematic        
'(5,5-dioxidodibenzo[b,d]thiene-4,6-diyl)bis(diphenylphosphine) dioxide chloroform solvate'
_symmetry_cell_setting           monoclinic
_symmetry_space_group_name_H-M   'P 21/n'
_symmetry_Int_Tables_number      14
_space_group_name_Hall           '-P 2yn'
loop_
_symmetry_equiv_pos_site_id
_symmetry_equiv_pos_as_xyz
1 x,y,z
2 1/2-x,1/2+y,1/2-z
3 -x,-y,-z
4 1/2+x,1/2-y,1/2+z
_cell_length_a                   14.6937(5)
_cell_length_b                   15.6122(5)
_cell_length_c                   20.4382(6)
_cell_angle_alpha                90
_cell_angle_beta                 94.086(2)
_cell_angle_gamma                90
_cell_volume                     4676.63
_exptl_crystal_colour            colorless
_exptl_crystal_description       rod
_cell_formula_units_Z            4
loop_
_atom_site_label
_atom_site_type_symbol
_atom_site_fract_x
_atom_site_fract_y
_atom_site_fract_z
S1 S 0.31168(9) 0.05968(8) 0.22171(7)
P1 P 0.13716(10) 0.07361(8) 0.32707(7)
P2 P 0.50704(10) 0.12020(9) 0.13969(7)
O1 O 0.1468(3) 0.1529(2) 0.28721(19)
O2 O 0.5132(3) 0.1721(2) 0.20104(19)
O3 O 0.2649(3) 0.1119(2) 0.1719(2)
O4 O 0.3545(3) 0.1008(3) 0.2789(2)
C1 C 0.4663(4) 0.0112(3) 0.1504(3)
C2 C 0.5139(4) -0.0576(4) 0.1243(3)
H1 H 0.5669 -0.0463 0.1017
C3 C 0.4852(4) -0.1420(4) 0.1309(3)
H2 H 0.5193 -0.187 0.113
C4 C 0.4080(4) -0.1617(3) 0.1628(3)
H3 H 0.3893 -0.2194 0.1675
C5 C 0.3584(4) -0.0945(3) 0.1880(3)
C6 C 0.2747(4) -0.1039(3) 0.2217(3)
C7 C 0.2279(4) -0.1804(4) 0.2338(3)
H4 H 0.249 -0.2336 0.2181
C8 C 0.1517(4) -0.1771(3) 0.2686(3)
H5 H 0.1185 -0.2282 0.275
C9 C 0.1217(4) -0.1004(4) 0.2946(3)
H6 H 0.0695 -0.1004 0.3195
C10 C 0.1672(4) -0.0240(4) 0.2848(3)
C11 C 0.2426(4) -0.0268(3) 0.2464(3)
C12 C 0.3877(4) -0.0106(3) 0.1829(3)
C13 C 0.2096(4) 0.0725(4) 0.4030(3)
C14 C 0.2226(5) 0.1493(4) 0.4372(3)
H7 H 0.1944 0.2005 0.4208
C15 C 0.2767(5) 0.1499(5) 0.4947(3)
H8 H 0.2855 0.2022 0.518
C16 C 0.3178(5) 0.0784(5) 0.5190(3)
H9 H 0.355 0.0811 0.5589
C17 C 0.3063(5) 0.0012(5) 0.4863(3)
H10 H 0.3355 -0.049 0.5037
C18 C 0.2517(4) -0.0028(4) 0.4278(3)
H11 H 0.243 -0.0555 0.405
C19 C 0.0218(4) 0.0602(4) 0.3502(3)
C20 C 0.0004(4) 0.0096(4) 0.4042(3)
H12 H 0.0475 -0.018 0.4306
C21 C -0.0904(4) 0.0004(4) 0.4185(3)
H13 H -0.1055 -0.0358 0.4535
C22 C -0.1585(4) 0.0436(4) 0.3820(3)
H14 H -0.2202 0.038 0.3925
C23 C -0.1371(4) 0.0951(4) 0.3301(4)
H15 H -0.1843 0.1246 0.3051
C24 C -0.0469(4) 0.1039(4) 0.3143(3)
H16 H -0.0325 0.1399 0.279
C25 C 0.6173(4) 0.1077(3) 0.1063(3)
C26 C 0.6929(4) 0.0893(5) 0.1497(3)
H17 H 0.6857 0.0841 0.1953
C27 C 0.7787(5) 0.0785(5) 0.1260(4)
H18 H 0.8298 0.0648 0.1552
C28 C 0.7889(5) 0.0879(5) 0.0605(4)
H19 H 0.8477 0.0813 0.0445
C29 C 0.7159(5) 0.1066(5) 0.0171(4)
H20 H 0.7245 0.1128 -0.0283
C30 C 0.6299(4) 0.1165(4) 0.0393(3)
H21 H 0.5794 0.1292 0.0093
C31 C 0.4336(4) 0.1661(4) 0.0743(3)
C32 C 0.4443(5) 0.2530(4) 0.0617(3)
H22 H 0.4868 0.2861 0.0881
C33 C 0.3920(6) 0.2911(5) 0.0096(4)
H23 H 0.3981 0.3505 0.0011
C34 C 0.3321(5) 0.2426(5) -0.0291(3)
H24 H 0.2975 0.2686 -0.0648
C35 C 0.3214(5) 0.1566(5) -0.0169(3)
H25 H 0.2789 0.124 -0.0437
C36 C 0.3719(4) 0.1175(4) 0.0339(3)
H26 H 0.3651 0.0579 0.0416
C37 C 0.5454(4) 0.1001(5) 0.3422(3)
H27 H 0.5004 0.1237 0.3079
Cl1 Cl 0.62784(13) 0.17949(14) 0.36389(10)
Cl2 Cl 0.60004(14) 0.00975(13) 0.30947(9)
Cl3 Cl 0.48756(13) 0.07019(16) 0.41061(10)
C38 C 0.1884(6) 0.1892(5) 0.7306(4)
H28 H 0.1579 0.2455 0.7374
Cl4 Cl 0.11518(19) 0.10708(17) 0.75153(13)
Cl5 Cl 0.2122(2) 0.18099(16) 0.64821(13)
Cl6 Cl 0.2888(2) 0.1844(2) 0.78187(18)
C39 C 0.0310(9) 0.8762(9) 0.1078(6)
H29 H 0.0191 0.8668 0.1549
Cl7 Cl 0.0921(2) 0.79309(19) 0.07982(16)
Cl8 Cl 0.1121(8) 0.9740(4) 0.1000(5)
Cl9 Cl -0.0697(3) 0.8931(4) 0.0621(3)
Cl10? Cl 0.0713(18) 0.9675(13) 0.1215(11)
loop_
_geom_bond_atom_site_label_1
_geom_bond_atom_site_label_2
_geom_bond_site_symmetry_1
_geom_bond_site_symmetry_2
S1 O3 1_555 1_555
P1 O1 1_555 1_555
P2 O2 1_555 1_555
O4 S1 1_555 1_555
C1 P2 1_555 1_555
C2 C1 1_555 1_555
H1 C2 1_555 1_555
C3 C2 1_555 1_555
H2 C3 1_555 1_555
C4 C3 1_555 1_555
H3 C4 1_555 1_555
C5 C4 1_555 1_555
C6 C5 1_555 1_555
C7 C6 1_555 1_555
H4 C7 1_555 1_555
C8 C7 1_555 1_555
H5 C8 1_555 1_555
C9 C8 1_555 1_555
H6 C9 1_555 1_555
C10 P1 1_555 1_555
C11 S1 1_555 1_555
C12 S1 1_555 1_555
C13 P1 1_555 1_555
C14 C13 1_555 1_555
H7 C14 1_555 1_555
C15 C14 1_555 1_555
H8 C15 1_555 1_555
C16 C15 1_555 1_555
H9 C16 1_555 1_555
C17 C16 1_555 1_555
H10 C17 1_555 1_555
C18 C13 1_555 1_555
H11 C18 1_555 1_555
C19 P1 1_555 1_555
C20 C19 1_555 1_555
H12 C20 1_555 1_555
C21 C20 1_555 1_555
H13 C21 1_555 1_555
C22 C21 1_555 1_555
H14 C22 1_555 1_555
C23 C22 1_555 1_555
H15 C23 1_555 1_555
C24 C19 1_555 1_555
H16 C24 1_555 1_555
C25 P2 1_555 1_555
C26 C25 1_555 1_555
H17 C26 1_555 1_555
C27 C26 1_555 1_555
H18 C27 1_555 1_555
C28 C27 1_555 1_555
H19 C28 1_555 1_555
C29 C28 1_555 1_555
H20 C29 1_555 1_555
C30 C25 1_555 1_555
H21 C30 1_555 1_555
C31 P2 1_555 1_555
C32 C31 1_555 1_555
H22 C32 1_555 1_555
C33 C32 1_555 1_555
H23 C33 1_555 1_555
C34 C33 1_555 1_555
H24 C34 1_555 1_555
C35 C34 1_555 1_555
H25 C35 1_555 1_555
C36 C31 1_555 1_555
H26 C36 1_555 1_555
C37 H27 1_555 1_555
Cl1 C37 1_555 1_555
Cl2 C37 1_555 1_555
Cl3 C37 1_555 1_555
C38 H28 1_555 1_555
Cl4 C38 1_555 1_555
Cl5 C38 1_555 1_555
Cl6 C38 1_555 1_555
C39 H29 1_555 1_555
Cl7 C39 1_555 1_555
Cl8 C39 1_555 1_555
Cl9 C39 1_555 1_555
C1 C12 1_555 1_555
C5 C12 1_555 1_555
C6 C11 1_555 1_555
C9 C10 1_555 1_555
C10 C11 1_555 1_555
C17 C18 1_555 1_555
C23 C24 1_555 1_555
C29 C30 1_555 1_555
C35 C36 1_555 1_555

#END
