
#######################################################################
#
#                 Cambridge Crystallographic Data Centre
#                                CCDC 
#
#######################################################################
#
# If this CIF has been generated from an entry in the Cambridge 
# Structural Database, then it will include bibliographic, chemical, 
# crystal, experimental, refinement or atomic coordinate data resulting 
# from the CCDC's data processing and validation procedures.
#
#######################################################################

data_KODLOG
_chemical_formula_moiety         'C23 H15 F3 S1'
_chemical_name_systematic        
1-phenyl-2-(phenylsulfanyl)-3-(trifluoromethyl)naphthalene
_symmetry_cell_setting           triclinic
_symmetry_space_group_name_H-M   'P -1'
_symmetry_Int_Tables_number      2
_space_group_name_Hall           '-P 1'
loop_
_symmetry_equiv_pos_site_id
_symmetry_equiv_pos_as_xyz
1 x,y,z
2 -x,-y,-z
_cell_length_a                   10.0003(11)
_cell_length_b                   10.1715(12)
_cell_length_c                   10.5155(12)
_cell_angle_alpha                103.701(2)
_cell_angle_beta                 91.041(2)
_cell_angle_gamma                117.397(2)
_cell_volume                     912.545
_exptl_crystal_colour            colorless
_exptl_crystal_description       prism
_cell_formula_units_Z            2
loop_
_atom_site_label
_atom_site_type_symbol
_atom_site_fract_x
_atom_site_fract_y
_atom_site_fract_z
S1 S 0.44776(6) 0.39607(5) 0.23992(5)
F1 F 0.2845(2) 0.39500(19) 0.49237(16)
F2 F 0.12160(18) 0.2619(2) 0.31926(16)
F3 F 0.0954(2) 0.1791(2) 0.4896(2)
C1 C 0.4684(2) 0.0256(2) 0.30165(17)
C2 C 0.5545(3) -0.0526(2) 0.26942(19)
H1 H 0.6417 -0.0092 0.2307
C3 C 0.5101(3) -0.1920(2) 0.2949(2)
H2 H 0.5669 -0.2429 0.2721
C4 C 0.3809(3) -0.2583(3) 0.3544(2)
H3 H 0.3518 -0.3531 0.3705
C5 C 0.2975(3) -0.1849(2) 0.3890(2)
H4 H 0.2125 -0.2292 0.4300
C6 C 0.3384(2) -0.0420(2) 0.36352(18)
C7 C 0.2542(2) 0.0366(2) 0.40042(19)
H5 H 0.1729 -0.0039 0.4464
C8 C 0.2897(2) 0.1711(2) 0.36999(19)
C9 C 0.4137(2) 0.2348(2) 0.29857(18)
C10 C 0.5053(2) 0.1669(2) 0.26988(17)
C11 C 0.6457(2) 0.2385(2) 0.20822(18)
C12 C 0.7838(2) 0.3353(3) 0.2888(2)
H6 H 0.7878 0.3610 0.3803
C13 C 0.9167(3) 0.3943(3) 0.2336(3)
H7 H 1.0095 0.4589 0.2883
C14 C 0.9120(3) 0.3580(3) 0.0983(3)
H8 H 1.0014 0.3959 0.0614
C15 C 0.7752(4) 0.2661(3) 0.0193(3)
H9 H 0.7717 0.2434 -0.0722
C16 C 0.6420(3) 0.2060(3) 0.0719(2)
H10 H 0.5496 0.1437 0.0162
C17 C 0.3238(2) 0.3066(2) 0.08672(19)
C18 C 0.2409(3) 0.1480(3) 0.0308(2)
H11 H 0.2475 0.0814 0.0748
C19 C 0.1491(3) 0.0896(3) -0.0897(2)
H12 H 0.0937 -0.0164 -0.1266
C20 C 0.1388(3) 0.1874(4) -0.1560(2)
H13 H 0.0761 0.1475 -0.2369
C21 C 0.2227(3) 0.3459(4) -0.1011(2)
H14 H 0.2176 0.4124 -0.1460
C22 C 0.3131(3) 0.4043(3) 0.0196(2)
H15 H 0.3677 0.5104 0.0566
C23 C 0.1990(3) 0.2512(3) 0.4173(2)
loop_
_geom_bond_atom_site_label_1
_geom_bond_atom_site_label_2
_geom_bond_site_symmetry_1
_geom_bond_site_symmetry_2
S1 C9 1_555 1_555
F1 C23 1_555 1_555
F2 C23 1_555 1_555
F3 C23 1_555 1_555
C1 C2 1_555 1_555
C2 H1 1_555 1_555
C3 C2 1_555 1_555
H2 C3 1_555 1_555
C4 C3 1_555 1_555
H3 C4 1_555 1_555
C5 C4 1_555 1_555
H4 C5 1_555 1_555
C6 C1 1_555 1_555
C7 C6 1_555 1_555
H5 C7 1_555 1_555
C8 C7 1_555 1_555
C9 C8 1_555 1_555
C10 C1 1_555 1_555
C11 C10 1_555 1_555
C12 C11 1_555 1_555
H6 C12 1_555 1_555
C13 C12 1_555 1_555
H7 C13 1_555 1_555
C14 C13 1_555 1_555
H8 C14 1_555 1_555
C15 C14 1_555 1_555
H9 C15 1_555 1_555
C16 C11 1_555 1_555
H10 C16 1_555 1_555
C17 S1 1_555 1_555
C18 C17 1_555 1_555
H11 C18 1_555 1_555
C19 C18 1_555 1_555
H12 C19 1_555 1_555
C20 C19 1_555 1_555
H13 C20 1_555 1_555
C21 C20 1_555 1_555
H14 C21 1_555 1_555
C22 C17 1_555 1_555
H15 C22 1_555 1_555
C23 C8 1_555 1_555
C5 C6 1_555 1_555
C9 C10 1_555 1_555
C15 C16 1_555 1_555
C21 C22 1_555 1_555

#END
