
#######################################################################
#
#                 Cambridge Crystallographic Data Centre
#                                CCDC 
#
#######################################################################
#
# If this CIF has been generated from an entry in the Cambridge 
# Structural Database, then it will include bibliographic, chemical, 
# crystal, experimental, refinement or atomic coordinate data resulting 
# from the CCDC's data processing and validation procedures.
#
#######################################################################

data_KOFBAK
_chemical_formula_moiety         'C32 H24 O3'
_chemical_name_systematic        
'3-(2-oxo-2-phenylethyl)-2,4-diphenylcyclopenta-1,4-dien-1-yl benzoate'
_symmetry_cell_setting           monoclinic
_symmetry_space_group_name_H-M   'C c'
_symmetry_Int_Tables_number      9
_space_group_name_Hall           'C -2yc'
loop_
_symmetry_equiv_pos_site_id
_symmetry_equiv_pos_as_xyz
1 x,y,z
2 x,-y,1/2+z
3 1/2+x,1/2+y,z
4 1/2+x,1/2-y,1/2+z
_cell_length_a                   5.5702(14)
_cell_length_b                   24.243(6)
_cell_length_c                   17.573(5)
_cell_angle_alpha                90
_cell_angle_beta                 93.744(10)
_cell_angle_gamma                90
_cell_volume                     2367.96
_exptl_crystal_colour            colorless
_exptl_crystal_description       needles
_cell_formula_units_Z            4
loop_
_atom_site_label
_atom_site_type_symbol
_atom_site_fract_x
_atom_site_fract_y
_atom_site_fract_z
O1 O 0.2504(4) 0.06242(8) 0.20685(12)
O2 O 0.4126(4) 0.02471(8) 0.31532(13)
O3 O 1.0086(4) 0.25253(9) 0.13128(13)
C1 C 0.4073(5) 0.10710(11) 0.21466(17)
C2 C 0.4250(5) 0.14309(12) 0.28037(17)
H1 H 0.3404 0.1387 0.3252
C3 C 0.5820(5) 0.18412(11) 0.26742(17)
C4 C 0.6701(5) 0.17708(11) 0.18834(16)
H2 H 0.8489 0.1726 0.1917
C5 C 0.5508(5) 0.12381(11) 0.16049(16)
C6 C 0.2670(6) 0.02252(12) 0.26205(17)
C7 C 0.0914(6) -0.02237(12) 0.24568(16)
C8 C -0.1077(5) -0.01530(13) 0.19430(19)
H3 H -0.1325 0.0187 0.1680
C9 C -0.2682(7) -0.05810(14) 0.1821(2)
H4 H -0.4055 -0.0535 0.1477
C10 C -0.2302(6) -0.10805(13) 0.2197(2)
H5 H -0.3419 -0.1373 0.2110
C11 C -0.0331(6) -0.11536(12) 0.26929(18)
H6 H -0.0062 -0.1498 0.2942
C12 C 0.1273(6) -0.07217(12) 0.28296(17)
H7 H 0.2626 -0.0768 0.3182
C13 C 0.6585(5) 0.22844(11) 0.32001(17)
C14 C 0.5241(5) 0.24143(11) 0.38185(18)
H8 H 0.3792 0.2219 0.3888
C15 C 0.5981(6) 0.28212(12) 0.43316(18)
H9 H 0.5051 0.2902 0.4752
C16 C 0.8080(5) 0.31123(12) 0.42339(18)
H10 H 0.8584 0.3394 0.4585
C17 C 0.9434(6) 0.29914(11) 0.36258(17)
H11 H 1.0872 0.3191 0.3558
C18 C 0.8709(5) 0.25789(12) 0.31104(18)
H12 H 0.9661 0.2497 0.2696
C19 C 0.5975(5) 0.22570(11) 0.13451(17)
H13 H 0.5127 0.2105 0.0879
H14 H 0.4815 0.2492 0.1600
C20 C 0.7998(5) 0.26180(11) 0.11084(17)
C21 C 0.7349(5) 0.30918(12) 0.05940(16)
C22 C 0.9090(6) 0.34951(12) 0.0493(2)
H15 H 1.0629 0.3466 0.0757
C23 C 0.8580(7) 0.39378(14) 0.0009(2)
H16 H 0.9765 0.4213 -0.0053
C24 C 0.6367(6) 0.39802(13) -0.03804(19)
H17 H 0.6016 0.4288 -0.0703
C25 C 0.4657(6) 0.35772(13) -0.0304(2)
H18 H 0.3151 0.3600 -0.0588
C26 C 0.5138(6) 0.31383(13) 0.01906(18)
H19 H 0.3937 0.2867 0.0253
C27 C 0.5906(5) 0.09907(11) 0.08612(17)
C28 C 0.7964(5) 0.11220(12) 0.04877(16)
H20 H 0.9110 0.1369 0.0723
C29 C 0.8375(6) 0.08994(12) -0.02203(18)
H21 H 0.9786 0.0996 -0.0465
C30 C 0.6737(6) 0.05380(12) -0.05678(17)
H22 H 0.7013 0.0383 -0.1051
C31 C 0.4685(5) 0.04031(12) -0.02043(17)
H23 H 0.3547 0.0157 -0.0446
C32 C 0.4255(5) 0.06178(11) 0.05003(17)
H24 H 0.2847 0.0515 0.0743
loop_
_geom_bond_atom_site_label_1
_geom_bond_atom_site_label_2
_geom_bond_site_symmetry_1
_geom_bond_site_symmetry_2
O1 C1 1_555 1_555
O2 C6 1_555 1_555
O3 C20 1_555 1_555
C1 C2 1_555 1_555
C2 H1 1_555 1_555
C3 C2 1_555 1_555
C4 C3 1_555 1_555
H2 C4 1_555 1_555
C5 C1 1_555 1_555
C6 O1 1_555 1_555
C7 C6 1_555 1_555
C8 C7 1_555 1_555
H3 C8 1_555 1_555
C9 C8 1_555 1_555
H4 C9 1_555 1_555
C10 C9 1_555 1_555
H5 C10 1_555 1_555
C11 C10 1_555 1_555
H6 C11 1_555 1_555
C12 C7 1_555 1_555
H7 C12 1_555 1_555
C13 C3 1_555 1_555
C14 C13 1_555 1_555
H8 C14 1_555 1_555
C15 C14 1_555 1_555
H9 C15 1_555 1_555
C16 C15 1_555 1_555
H10 C16 1_555 1_555
C17 C16 1_555 1_555
H11 C17 1_555 1_555
C18 C13 1_555 1_555
H12 C18 1_555 1_555
C19 C4 1_555 1_555
H13 C19 1_555 1_555
H14 C19 1_555 1_555
C20 C19 1_555 1_555
C21 C20 1_555 1_555
C22 C21 1_555 1_555
H15 C22 1_555 1_555
C23 C22 1_555 1_555
H16 C23 1_555 1_555
C24 C23 1_555 1_555
H17 C24 1_555 1_555
C25 C24 1_555 1_555
H18 C25 1_555 1_555
C26 C21 1_555 1_555
H19 C26 1_555 1_555
C27 C5 1_555 1_555
C28 C27 1_555 1_555
H20 C28 1_555 1_555
C29 C28 1_555 1_555
H21 C29 1_555 1_555
C30 C29 1_555 1_555
H22 C30 1_555 1_555
C31 C30 1_555 1_555
H23 C31 1_555 1_555
C32 C27 1_555 1_555
H24 C32 1_555 1_555
C4 C5 1_555 1_555
C11 C12 1_555 1_555
C17 C18 1_555 1_555
C25 C26 1_555 1_555
C31 C32 1_555 1_555

#END
