
#######################################################################
#
#                 Cambridge Crystallographic Data Centre
#                                CCDC 
#
#######################################################################
#
# If this CIF has been generated from an entry in the Cambridge 
# Structural Database, then it will include bibliographic, chemical, 
# crystal, experimental, refinement or atomic coordinate data resulting 
# from the CCDC's data processing and validation procedures.
#
#######################################################################

data_KOFDEP
_chemical_formula_moiety         'C14 H16 N2 O2'
_chemical_name_systematic        
'(E)-6-Methoxy-9-methyl-1,2,3,4-tetrahydro-9H-carbazol-4-one oxime'
_symmetry_cell_setting           monoclinic
_symmetry_space_group_name_H-M   'P 21/c'
_symmetry_Int_Tables_number      14
_space_group_name_Hall           '-P 2ybc'
loop_
_symmetry_equiv_pos_site_id
_symmetry_equiv_pos_as_xyz
1 x,y,z
2 -x,1/2+y,1/2-z
3 -x,-y,-z
4 x,1/2-y,1/2+z
_cell_length_a                   8.833(5)
_cell_length_b                   6.460(4)
_cell_length_c                   22.247(12)
_cell_angle_alpha                90
_cell_angle_beta                 104.14(2)
_cell_angle_gamma                90
_cell_volume                     1230.98
_exptl_crystal_colour            colorless
_exptl_crystal_description       prism
_cell_formula_units_Z            4
_exptl_crystal_recrystallization_method acetone
loop_
_atom_site_label
_atom_site_type_symbol
_atom_site_fract_x
_atom_site_fract_y
_atom_site_fract_z
O1 O 0.3608(3) -0.1623(4) -0.01619(11)
H1 H 0.392(4) -0.054(4) 0.0026(18)
O2 O 1.0030(2) 0.1510(3) -0.09437(10)
N1 N 0.4790(2) -0.1762(4) -0.04926(10)
C1 C 0.4333(3) -0.7039(4) -0.16677(13)
H2 H 0.4711 -0.8230 -0.1409
H3 H 0.4036 -0.7496 -0.2096
C2 C 0.2945(4) -0.6123(6) -0.14878(16)
H4 H 0.2228 -0.7231 -0.1455
H5 H 0.2410 -0.5203 -0.1816
C3 C 0.3335(3) -0.4929(5) -0.08831(13)
H6 H 0.2402 -0.4226 -0.0834
H7 H 0.3647 -0.5901 -0.0543
C4 C 0.4606(2) -0.3367(4) -0.08413(11)
C5 C 0.5725(2) -0.3745(3) -0.12087(9)
C6 C 0.7093(2) -0.2625(3) -0.12699(9)
C7 C 0.7843(2) -0.0819(4) -0.10084(10)
H8 H 0.7437 -0.0036 -0.0734
C8 C 0.9189(3) -0.0218(4) -0.11637(11)
C9 C 0.9790(3) -0.1381(4) -0.15859(12)
H9 H 1.0704 -0.0947 -0.1685
C10 C 0.9066(3) -0.3127(4) -0.18535(11)
H10 H 0.9468 -0.3879 -0.2136
C11 C 0.7708(2) -0.3758(4) -0.16943(9)
C12 C 0.7019(3) -0.6996(4) -0.23323(12)
H11 H 0.6501 -0.8262 -0.2277
H12 H 0.8117 -0.7251 -0.2273
H13 H 0.6599 -0.6479 -0.2744
N2 N 0.6779(2) -0.5471(3) -0.18818(8)
C13 C 0.5588(3) -0.5450(4) -0.15895(10)
C14 C 0.9545(3) 0.2735(4) -0.04983(13)
H14 H 0.8514 0.3259 -0.0673
H15 H 1.0254 0.3872 -0.0379
H16 H 0.9536 0.1907 -0.0141
loop_
_geom_bond_atom_site_label_1
_geom_bond_atom_site_label_2
_geom_bond_site_symmetry_1
_geom_bond_site_symmetry_2
O1 H1 1_555 1_555
O2 C8 1_555 1_555
N1 O1 1_555 1_555
C1 H2 1_555 1_555
H3 C1 1_555 1_555
C2 C1 1_555 1_555
H4 C2 1_555 1_555
H5 C2 1_555 1_555
C3 C2 1_555 1_555
H6 C3 1_555 1_555
H7 C3 1_555 1_555
C4 N1 1_555 1_555
C5 C4 1_555 1_555
C6 C5 1_555 1_555
C7 C6 1_555 1_555
H8 C7 1_555 1_555
C8 C7 1_555 1_555
C9 C8 1_555 1_555
H9 C9 1_555 1_555
C10 C9 1_555 1_555
H10 C10 1_555 1_555
C11 C6 1_555 1_555
C12 H11 1_555 1_555
H12 C12 1_555 1_555
H13 C12 1_555 1_555
N2 C11 1_555 1_555
C13 C1 1_555 1_555
C14 O2 1_555 1_555
H14 C14 1_555 1_555
H15 C14 1_555 1_555
H16 C14 1_555 1_555
C3 C4 1_555 1_555
C5 C13 1_555 1_555
C10 C11 1_555 1_555
C12 N2 1_555 1_555
N2 C13 1_555 1_555

#END
