
#######################################################################
#
#                 Cambridge Crystallographic Data Centre
#                                CCDC 
#
#######################################################################
#
# If this CIF has been generated from an entry in the Cambridge 
# Structural Database, then it will include bibliographic, chemical, 
# crystal, experimental, refinement or atomic coordinate data resulting 
# from the CCDC's data processing and validation procedures.
#
#######################################################################

data_KOFFIV
_chemical_name_common            2,6-Diformyl-4-chlorophenol
_chemical_formula_moiety         'C8 H5 Cl1 O3'
_chemical_name_systematic        5-Chloro-2-hydroxybenzene-1,3-dicarbaldehyde
_symmetry_cell_setting           monoclinic
_symmetry_space_group_name_H-M   'P 21/c'
_symmetry_Int_Tables_number      14
_space_group_name_Hall           '-P 2ybc'
loop_
_symmetry_equiv_pos_site_id
_symmetry_equiv_pos_as_xyz
1 x,y,z
2 -x,1/2+y,1/2-z
3 -x,-y,-z
4 x,1/2-y,1/2+z
_cell_length_a                   7.5554(15)
_cell_length_b                   3.9144(8)
_cell_length_c                   25.676(5)
_cell_angle_alpha                90
_cell_angle_beta                 97.921(3)
_cell_angle_gamma                90
_cell_volume                     752.119
_exptl_crystal_colour            yellow
_exptl_crystal_description       block
_cell_formula_units_Z            4
_exptl_crystal_recrystallization_method chloroform
loop_
_atom_site_label
_atom_site_type_symbol
_atom_site_fract_x
_atom_site_fract_y
_atom_site_fract_z
C1 C 0.4171(2) 0.4316(4) 0.33617(6)
C2 C 0.5238(2) 0.6213(5) 0.37437(7)
C3 C 0.4574(2) 0.7115(5) 0.42026(8)
C4 C 0.2876(2) 0.6140(5) 0.42836(7)
C5 C 0.1802(2) 0.4303(5) 0.39068(7)
C6 C 0.2425(2) 0.3385(5) 0.34400(7)
C7 C 0.7038(3) 0.7330(5) 0.36545(9)
C8 C 0.1285(3) 0.1496(5) 0.30341(8)
Cl1 Cl 0.20868(7) 0.73166(14) 0.486064(19)
H1 H 0.532(3) 0.831(5) 0.4454(7)
H2 H 0.064(3) 0.358(5) 0.3977(8)
H3 H 0.747(3) 0.653(5) 0.3360(8)
H4 H 0.015(2) 0.099(5) 0.3119(7)
O1 O 0.48613(16) 0.3399(3) 0.29244(5)
H5 H 0.4106 0.2351 0.2726
O2 O 0.79414(18) 0.9339(4) 0.39307(6)
O3 O 0.17345(17) 0.0628(4) 0.26168(5)
loop_
_geom_bond_atom_site_label_1
_geom_bond_atom_site_label_2
_geom_bond_site_symmetry_1
_geom_bond_site_symmetry_2
C1 C2 1_555 1_555
C2 C3 1_555 1_555
C3 C4 1_555 1_555
C4 C5 1_555 1_555
C5 C6 1_555 1_555
C6 C1 1_555 1_555
C7 C2 1_555 1_555
C8 C6 1_555 1_555
Cl1 C4 1_555 1_555
H1 C3 1_555 1_555
H2 C5 1_555 1_555
H3 C7 1_555 1_555
H4 C8 1_555 1_555
O1 C1 1_555 1_555
H5 O1 1_555 1_555
O2 C7 1_555 1_555
O3 C8 1_555 1_555

#END
