
#######################################################################
#
#                 Cambridge Crystallographic Data Centre
#                                CCDC 
#
#######################################################################
#
# If this CIF has been generated from an entry in the Cambridge 
# Structural Database, then it will include bibliographic, chemical, 
# crystal, experimental, refinement or atomic coordinate data resulting 
# from the CCDC's data processing and validation procedures.
#
#######################################################################

data_KOFGOB
_chemical_formula_moiety         'C18 H15 Br1 O1'
_chemical_name_systematic        
trans-6-(4-Bromophenyl)-5-phenylbicyclo(3.1.0)hexan-2-one
_symmetry_cell_setting           monoclinic
_symmetry_space_group_name_H-M   'I 2/a'
_symmetry_Int_Tables_number      15
_space_group_name_Hall           '-I 2ya'
loop_
_symmetry_equiv_pos_site_id
_symmetry_equiv_pos_as_xyz
1 x,y,z
2 1/2+x,1/2+y,1/2+z
3 1/2-x,y,-z
4 -x,1/2+y,1/2-z
5 -x,-y,-z
6 1/2-x,1/2-y,1/2-z
7 1/2+x,-y,z
8 x,1/2-y,1/2+z
_cell_length_a                   17.607(4)
_cell_length_b                   8.213(2)
_cell_length_c                   19.976(5)
_cell_angle_alpha                90
_cell_angle_beta                 93.09(3)
_cell_angle_gamma                90
_cell_volume                     2884.46
_cell_formula_units_Z            8
loop_
_atom_site_label
_atom_site_type_symbol
_atom_site_fract_x
_atom_site_fract_y
_atom_site_fract_z
Br1 Br 0.39622(3) -0.07849(6) 0.06624(2)
O1 O 0.0177(2) 0.2961(4) 0.0033(2)
C1 C 0.0661(2) 0.3634(5) 0.0383(2)
C2 C 0.0628(2) 0.3904(5) 0.1116(2)
C3 C 0.1332(3) 0.3508(5) 0.1566(2)
C4 C 0.1220(2) 0.5211(5) 0.1316(2)
C5 C 0.1615(3) 0.5657(6) 0.0681(2)
C6 C 0.1357(3) 0.444(6) 0.0139(2)
C7 C 0.1965(2) 0.2429(5) 0.1372(2)
C8 C 0.2716(3) 0.2842(6) 0.1522(2)
C9 C 0.3310(3) 0.1903(5) 0.1332(2)
C10 C 0.3156(3) 0.0482(5) 0.0983(2)
C11 C 0.2422(3) -0.0001(6) 0.0857(3)
C12 C 0.1825(3) 0.0942(5) 0.1041(2)
C13 C 0.1065(2) 0.6564(5) 0.1788(2)
C14 C 0.1486(3) 0.6746(6) 0.2388(2)
C15 C 0.1373(5) 0.8073(6) 0.2801(2)
C16 C 0.0837(3) 0.9205(7) 0.2623(2)
C17 C 0.0402(3) 0.9052(6) 0.2030(3)
C18 C 0.0521(3) 0.7740(6) 0.1611(2)
H1 H 0.018(2) 0.382(4) 0.131(2)
H2 H 0.120(2) 0.339(4) 0.203(2)
H3 H 0.219(3) 0.566(5) 0.077(2)
H4 H 0.145(2) 0.665(5) 0.055(2)
H5 H 0.175(2) 0.369(5) 0.009(2)
H6 H 0.127(3) 0.489(7) -0.032(3)
H7 H 0.283(2) 0.383(5) 0.175(2)
H8 H 0.380(2) 0.222(6) 0.140(2)
H9 H 0.236(3) -0.080(6) 0.066(3)
H10 H 0.129(2) 0.066(5) 0.094(2)
H11 H 0.185(2) 0.603(5) 0.248(2)
H12 H 0.166(3) 0.809(6) 0.320(3)
H13 H 0.072(2) 1.018(6) 0.283(2)
H14 H 0.006(3) 0.980(7) 0.189(3)
H15 H 0.024(2) 0.761(5) 0.121(2)
loop_
_geom_bond_atom_site_label_1
_geom_bond_atom_site_label_2
_geom_bond_site_symmetry_1
_geom_bond_site_symmetry_2
Br1 C10 1_555 1_555
O1 C1 1_555 1_555
C1 C2 1_555 1_555
C2 C3 1_555 1_555
C3 C4 1_555 1_555
C4 C2 1_555 1_555
C5 C4 1_555 1_555
C6 C1 1_555 1_555
C7 C3 1_555 1_555
C8 C7 1_555 1_555
C9 C8 1_555 1_555
C10 C9 1_555 1_555
C11 C10 1_555 1_555
C12 C7 1_555 1_555
C13 C4 1_555 1_555
C14 C13 1_555 1_555
C15 C14 1_555 1_555
C16 C15 1_555 1_555
C17 C16 1_555 1_555
C18 C13 1_555 1_555
H1 C2 1_555 1_555
H2 C3 1_555 1_555
H3 C5 1_555 1_555
H4 C5 1_555 1_555
H5 C6 1_555 1_555
H6 C6 1_555 1_555
H7 C8 1_555 1_555
H8 C9 1_555 1_555
H9 C11 1_555 1_555
H10 C12 1_555 1_555
H11 C14 1_555 1_555
H12 C15 1_555 1_555
H13 C16 1_555 1_555
H14 C17 1_555 1_555
H15 C18 1_555 1_555
C5 C6 1_555 1_555
C11 C12 1_555 1_555
C17 C18 1_555 1_555

#END
