
#######################################################################
#
#                 Cambridge Crystallographic Data Centre
#                                CCDC 
#
#######################################################################
#
# If this CIF has been generated from an entry in the Cambridge 
# Structural Database, then it will include bibliographic, chemical, 
# crystal, experimental, refinement or atomic coordinate data resulting 
# from the CCDC's data processing and validation procedures.
#
#######################################################################

data_KOFLAT
_chemical_formula_moiety         'C12 H13 N1 O3'
_chemical_name_systematic        N-Acryloylphenylalanine
_symmetry_cell_setting           monoclinic
_symmetry_space_group_name_H-M   'P 21'
_symmetry_Int_Tables_number      4
_space_group_name_Hall           'P 2yb'
loop_
_symmetry_equiv_pos_site_id
_symmetry_equiv_pos_as_xyz
1 x,y,z
2 -x,1/2+y,-z
_cell_length_a                   6.0050(12)
_cell_length_b                   7.5820(15)
_cell_length_c                   12.512(3)
_cell_angle_alpha                90
_cell_angle_beta                 98.58(3)
_cell_angle_gamma                90
_cell_volume                     563.295
_exptl_crystal_colour            colorless
_exptl_crystal_description       block
_chemical_melting_point          '401-403 K'
_cell_formula_units_Z            2
_exptl_crystal_recrystallization_method ethanol
loop_
_atom_site_label
_atom_site_type_symbol
_atom_site_fract_x
_atom_site_fract_y
_atom_site_fract_z
N1 N 0.7481(7) 0.7059(7) 0.2952(3)
H1 H 0.8730 0.7469 0.2798
O1 O 0.5602(6) 0.8820(8) 0.4513(3)
H2 H 0.4871 0.9128 0.4985
C1 C 0.8147(14) 0.9763(11) -0.0922(6)
H3 H 0.8611 0.9777 -0.1599
O2 O 0.2165(6) 0.8618(7) 0.3516(3)
C2 C 0.9519(13) 1.0469(10) -0.0068(7)
H4 H 1.0883 1.0979 -0.0164
O3 O 0.5572(6) 0.4855(7) 0.3658(3)
C3 C 0.8883(9) 1.0423(9) 0.0922(5)
H5 H 0.9839 1.0857 0.1517
C4 C 0.6681(9) 0.9687(8) 0.1060(4)
C5 C 0.5445(10) 0.8933(9) 0.0224(4)
H6 H 0.4140 0.8336 0.0325
C6 C 0.6059(12) 0.9014(10) -0.0818(5)
H7 H 0.5110 0.8584 -0.1417
C7 C 0.5920(12) 0.9795(10) 0.2154(5)
H8 H 0.4576 1.0520 0.2085
H9 H 0.7079 1.0400 0.2642
C8 C 0.5411(10) 0.8052(8) 0.2676(4)
H10 H 0.4362 0.7369 0.2159
C9 C 0.4281(9) 0.8489(9) 0.3655(4)
C10 C 0.7431(9) 0.5410(8) 0.3477(3)
C11 C 0.9502(11) 0.4520(10) 0.3691(4)
H11 H 1.0794 0.5112 0.3564
C12 C 0.9710(12) 0.2919(10) 0.4055(6)
H12 H 0.8446 0.2297 0.4189
H13 H 1.1124 0.2392 0.4183
loop_
_geom_bond_atom_site_label_1
_geom_bond_atom_site_label_2
_geom_bond_site_symmetry_1
_geom_bond_site_symmetry_2
N1 H1 1_555 1_555
O1 H2 1_555 1_555
C1 H3 1_555 1_555
O2 C9 1_555 1_555
C2 C1 1_555 1_555
H4 C2 1_555 1_555
O3 C10 1_555 1_555
C3 C2 1_555 1_555
H5 C3 1_555 1_555
C4 C3 1_555 1_555
C5 C4 1_555 1_555
H6 C5 1_555 1_555
C6 C1 1_555 1_555
H7 C6 1_555 1_555
C7 C4 1_555 1_555
H8 C7 1_555 1_555
H9 C7 1_555 1_555
C8 N1 1_555 1_555
H10 C8 1_555 1_555
C9 O1 1_555 1_555
C10 N1 1_555 1_555
C11 C10 1_555 1_555
H11 C11 1_555 1_555
C12 C11 1_555 1_555
H12 C12 1_555 1_555
H13 C12 1_555 1_555
C5 C6 1_555 1_555
C7 C8 1_555 1_555
C8 C9 1_555 1_555

#END
