
#######################################################################
#
#                 Cambridge Crystallographic Data Centre
#                                CCDC 
#
#######################################################################
#
# If this CIF has been generated from an entry in the Cambridge 
# Structural Database, then it will include bibliographic, chemical, 
# crystal, experimental, refinement or atomic coordinate data resulting 
# from the CCDC's data processing and validation procedures.
#
#######################################################################

data_KOFLAU01
_chemical_name_common            'bis(morpholin-4-ium) ethanedioate'
_chemical_formula_moiety         '2(C4 H10 N1 O1 1+),C2 O4 2-'
_chemical_name_systematic        'bis(morpholin-4-ium) oxalate'
_symmetry_cell_setting           monoclinic
_symmetry_space_group_name_H-M   'P 21/c'
_symmetry_Int_Tables_number      14
_space_group_name_Hall           '-P 2ybc'
loop_
_symmetry_equiv_pos_site_id
_symmetry_equiv_pos_as_xyz
1 x,y,z
2 -x,1/2+y,1/2-z
3 -x,-y,-z
4 x,1/2-y,1/2+z
_cell_length_a                   9.694(4)
_cell_length_b                   6.660(3)
_cell_length_c                   10.819(5)
_cell_angle_alpha                90
_cell_angle_beta                 102.423(7)
_cell_angle_gamma                90
_cell_volume                     682.142
_exptl_crystal_colour            yellow
_exptl_crystal_description       block
_cell_formula_units_Z            2
loop_
_atom_site_label
_atom_site_type_symbol
_atom_site_fract_x
_atom_site_fract_y
_atom_site_fract_z
C1 C 0.57540(18) 0.4855(3) 0.6960(2)
H1 H 0.6069 0.4426 0.7832
H2 H 0.4794 0.5346 0.6854
C2 C 0.7156(2) 0.2437(3) 0.6292(2)
H3 H 0.7144 0.1297 0.5732
H4 H 0.7491 0.1973 0.7155
C3 C 0.66843(17) 0.6523(2) 0.66931(17)
H5 H 0.6329 0.7038 0.5846
H6 H 0.6683 0.7611 0.7289
C4 C 0.81539(18) 0.4001(3) 0.59937(17)
H7 H 0.9103 0.3456 0.6137
H8 H 0.7872 0.4389 0.5111
O1 O 0.57710(13) 0.31989(19) 0.61530(15)
N1 N 0.81318(12) 0.57638(18) 0.68072(11)
H9 H 0.8676 0.6738 0.6587
H10 H 0.8494 0.5428 0.7618
C5 C 0.95300(15) 0.9190(2) 0.52167(13)
O2 O 0.98801(14) 0.8679(2) 0.63512(11)
O3 O 0.85183(13) 0.8531(2) 0.44431(11)
C5B C 1.04700(15) 1.0810(2) 0.47833(13)
O2B O 1.01199(14) 1.1321(2) 0.36488(11)
O3B O 1.14817(13) 1.1469(2) 0.55569(11)
loop_
_geom_bond_atom_site_label_1
_geom_bond_atom_site_label_2
_geom_bond_site_symmetry_1
_geom_bond_site_symmetry_2
C1 H1 1_555 1_555
H2 C1 1_555 1_555
C2 H3 1_555 1_555
H4 C2 1_555 1_555
C3 C1 1_555 1_555
H5 C3 1_555 1_555
H6 C3 1_555 1_555
C4 C2 1_555 1_555
H7 C4 1_555 1_555
H8 C4 1_555 1_555
O1 C1 1_555 1_555
N1 C3 1_555 1_555
H9 N1 1_555 1_555
H10 N1 1_555 1_555
C5 O2 1_555 1_555
O3 C5 1_555 1_555
C5B C5 1_555 1_555
O2B C5B 1_555 1_555
O3B C5B 1_555 1_555
C2 O1 1_555 1_555
C4 N1 1_555 1_555

#END
