
#######################################################################
#
#                 Cambridge Crystallographic Data Centre
#                                CCDC 
#
#######################################################################
#
# If this CIF has been generated from an entry in the Cambridge 
# Structural Database, then it will include bibliographic, chemical, 
# crystal, experimental, refinement or atomic coordinate data resulting 
# from the CCDC's data processing and validation procedures.
#
#######################################################################

data_KOFYIP
_chemical_formula_moiety         'C14 H10 N6'
_chemical_name_systematic        2,3-bis(1H-imidazol-1-yl)quinoxaline
_symmetry_cell_setting           orthorhombic
_symmetry_space_group_name_H-M   'P 21 21 21'
_symmetry_Int_Tables_number      19
_space_group_name_Hall           'P 2ac 2ab'
loop_
_symmetry_equiv_pos_site_id
_symmetry_equiv_pos_as_xyz
1 x,y,z
2 1/2-x,-y,1/2+z
3 1/2+x,1/2-y,-z
4 -x,1/2+y,1/2-z
_cell_length_a                   11.528(2)
_cell_length_b                   14.035(3)
_cell_length_c                   14.729(3)
_cell_angle_alpha                90
_cell_angle_beta                 90
_cell_angle_gamma                90
_cell_volume                     2383.09
_exptl_crystal_colour            colorless
_exptl_crystal_description       prism
_cell_formula_units_Z            8
loop_
_atom_site_label
_atom_site_type_symbol
_atom_site_fract_x
_atom_site_fract_y
_atom_site_fract_z
N1 N -0.1868(3) -0.4235(3) -0.9222(2)
N2 N -0.2978(2) -0.3923(2) -0.8055(2)
N3 N 0.0215(3) -0.3364(3) -0.6560(3)
N4 N -0.1611(2) -0.3748(2) -0.63556(19)
N5 N -0.4627(2) -0.3842(2) -0.7187(2)
N6 N -0.3342(3) -0.3750(2) -0.5569(2)
C1 C -0.1959(3) -0.4388(3) -0.8318(2)
H1 H -0.1452 -0.4730 -0.7950
C2 C -0.2787(3) -0.3707(3) -0.9537(2)
H2 H -0.2919 -0.3510 -1.0131
C3 C -0.3435(3) -0.3540(3) -0.8829(2)
H3 H -0.4127 -0.3200 -0.8849
C4 C -0.0870(3) -0.3199(3) -0.6874(2)
H4 H -0.1076 -0.2795 -0.7347
C5 C 0.0167(3) -0.4001(3) -0.5843(2)
H5 H 0.0790 -0.4230 -0.5506
C6 C -0.0923(3) -0.4216(3) -0.5731(2)
H6 H -0.1201 -0.4631 -0.5290
C7 C -0.3496(3) -0.3859(3) -0.7180(2)
C8 C -0.2840(3) -0.3779(3) -0.6357(2)
C9 C -0.5180(3) -0.3783(3) -0.6361(2)
C10 C -0.6392(3) -0.3741(3) -0.6320(3)
H7 H -0.6824 -0.3757 -0.6853
C11 C -0.6944(3) -0.3676(3) -0.5498(3)
H8 H -0.7749 -0.3636 -0.5476
C12 C -0.6287(3) -0.3671(3) -0.4677(3)
H9 H -0.6669 -0.3639 -0.4122
C13 C -0.5103(3) -0.3711(3) -0.4696(2)
H10 H -0.4678 -0.3707 -0.4159
C14 C -0.4528(3) -0.3761(3) -0.5551(2)
N7 N 0.0313(3) -0.1568(3) -0.8537(3)
N8 N -0.1520(2) -0.1220(2) -0.83512(19)
N9 N -0.1811(3) -0.0689(3) -1.1218(3)
N10 N -0.2915(3) -0.1014(2) -1.00475(19)
N11 N -0.3246(3) -0.1278(2) -0.75571(19)
N12 N -0.4563(3) -0.1184(2) -0.9156(2)
C15 C -0.0772(3) -0.1772(3) -0.8867(2)
H11 H -0.0963 -0.2189 -0.9334
C16 C 0.0236(3) -0.0908(2) -0.7841(2)
H12 H 0.0846 -0.0651 -0.7507
C17 C -0.0854(3) -0.0721(3) -0.7749(3)
H13 H -0.1151 -0.0296 -0.7324
C18 C -0.1870(3) -0.0606(3) -1.0289(2)
H14 H -0.1323 -0.0333 -0.9905
C19 C -0.2807(3) -0.1112(3) -1.1545(2)
H15 H -0.2982 -0.1250 -1.2147
C20 C -0.3453(3) -0.1278(3) -1.0832(3)
H16 H -0.4191 -0.1545 -1.0857
C21 C -0.2762(3) -0.1203(3) -0.8360(2)
C22 C -0.3413(3) -0.1134(3) -0.9176(2)
C23 C -0.4429(3) -0.1296(3) -0.7526(2)
C24 C -0.4997(3) -0.1340(3) -0.6675(3)
H17 H -0.4571 -0.1333 -0.6139
C25 C -0.6181(3) -0.1391(3) -0.6653(2)
H18 H -0.6560 -0.1413 -0.6096
C26 C -0.6833(3) -0.1412(3) -0.7452(3)
H19 H -0.7636 -0.1461 -0.7419
C27 C -0.6302(3) -0.1361(3) -0.8292(3)
H20 H -0.6739 -0.1378 -0.8822
C28 C -0.5089(3) -0.1283(3) -0.8329(3)
loop_
_geom_bond_atom_site_label_1
_geom_bond_atom_site_label_2
_geom_bond_site_symmetry_1
_geom_bond_site_symmetry_2
N1 C1 1_555 1_555
N2 C1 1_555 1_555
N3 C4 1_555 1_555
N4 C4 1_555 1_555
N5 C7 1_555 1_555
N6 C8 1_555 1_555
C1 H1 1_555 1_555
C2 N1 1_555 1_555
H2 C2 1_555 1_555
C3 N2 1_555 1_555
H3 C3 1_555 1_555
C4 H4 1_555 1_555
C5 N3 1_555 1_555
H5 C5 1_555 1_555
C6 N4 1_555 1_555
H6 C6 1_555 1_555
C7 N2 1_555 1_555
C8 N4 1_555 1_555
C9 N5 1_555 1_555
C10 C9 1_555 1_555
H7 C10 1_555 1_555
C11 C10 1_555 1_555
H8 C11 1_555 1_555
C12 C11 1_555 1_555
H9 C12 1_555 1_555
C13 C12 1_555 1_555
H10 C13 1_555 1_555
C14 N6 1_555 1_555
N7 C15 1_555 1_555
N8 C15 1_555 1_555
N9 C18 1_555 1_555
N10 C18 1_555 1_555
N11 C21 1_555 1_555
N12 C22 1_555 1_555
C15 H11 1_555 1_555
C16 N7 1_555 1_555
H12 C16 1_555 1_555
C17 N8 1_555 1_555
H13 C17 1_555 1_555
C18 H14 1_555 1_555
C19 N9 1_555 1_555
H15 C19 1_555 1_555
C20 N10 1_555 1_555
H16 C20 1_555 1_555
C21 N8 1_555 1_555
C22 N10 1_555 1_555
C23 N11 1_555 1_555
C24 C23 1_555 1_555
H17 C24 1_555 1_555
C25 C24 1_555 1_555
H18 C25 1_555 1_555
C26 C25 1_555 1_555
H19 C26 1_555 1_555
C27 C26 1_555 1_555
H20 C27 1_555 1_555
C28 N12 1_555 1_555
C2 C3 1_555 1_555
C5 C6 1_555 1_555
C7 C8 1_555 1_555
C9 C14 1_555 1_555
C13 C14 1_555 1_555
C16 C17 1_555 1_555
C19 C20 1_555 1_555
C21 C22 1_555 1_555
C23 C28 1_555 1_555
C27 C28 1_555 1_555

#END
