
#######################################################################
#
#                 Cambridge Crystallographic Data Centre
#                                CCDC 
#
#######################################################################
#
# If this CIF has been generated from an entry in the Cambridge 
# Structural Database, then it will include bibliographic, chemical, 
# crystal, experimental, refinement or atomic coordinate data resulting 
# from the CCDC's data processing and validation procedures.
#
#######################################################################

data_KOFZOW
_chemical_formula_moiety         'C9 H7 N2 O4 1+,N1 O3 1-'
_chemical_name_systematic        
'5,6-dicarboxy-1H-3,1-benzimidazol-3-ium nitrate'
_symmetry_cell_setting           monoclinic
_symmetry_space_group_name_H-M   'P 21/n'
_symmetry_Int_Tables_number      14
_space_group_name_Hall           '-P 2yn'
loop_
_symmetry_equiv_pos_site_id
_symmetry_equiv_pos_as_xyz
1 x,y,z
2 1/2-x,1/2+y,1/2-z
3 -x,-y,-z
4 1/2+x,1/2-y,1/2+z
_cell_length_a                   10.750(3)
_cell_length_b                   8.193(2)
_cell_length_c                   11.920(4)
_cell_angle_alpha                90
_cell_angle_beta                 99.913(4)
_cell_angle_gamma                90
_cell_volume                     1034.18
_exptl_crystal_colour            colorless
_exptl_crystal_description       plate
_cell_formula_units_Z            4
loop_
_atom_site_label
_atom_site_type_symbol
_atom_site_fract_x
_atom_site_fract_y
_atom_site_fract_z
O1 O 0.45114(18) 0.3467(2) 0.80517(15)
H1 H 0.443(3) 0.332(3) 0.875(3)
O2 O 0.57572(17) 0.1300(2) 0.82294(14)
O3 O 0.33348(16) 0.0706(2) 0.65407(13)
O4 O 0.29138(15) 0.0670(2) 0.46547(13)
H2 H 0.233(3) 0.009(4) 0.481(3)
N1 N 0.77113(15) 0.4915(2) 0.49521(15)
H3 H 0.831(2) 0.550(3) 0.540(2)
N2 N 0.66271(15) 0.3767(2) 0.34628(15)
H4 H 0.639(2) 0.349(3) 0.274(2)
C1 C 0.52444(18) 0.2416(2) 0.76780(17)
C2 C 0.54720(17) 0.2784(2) 0.64952(16)
C3 C 0.64954(18) 0.3766(2) 0.64151(16)
H5 H 0.6983 0.4229 0.7057
C4 C 0.67631(17) 0.4032(2) 0.53335(16)
C5 C 0.75994(18) 0.4717(2) 0.38409(17)
H6 H 0.8130 0.5180 0.3389
C6 C 0.60535(17) 0.3318(2) 0.43742(15)
C7 C 0.50005(16) 0.2379(2) 0.44407(16)
H7 H 0.4509 0.1942 0.3792
C8 C 0.47072(16) 0.2118(2) 0.55151(16)
C9 C 0.35857(18) 0.1101(2) 0.56370(17)
O5 O 0.40771(17) 0.3259(3) 0.18708(14)
O6 O 0.39052(13) 0.35439(19) 0.00590(11)
O7 O 0.56419(15) 0.2632(2) 0.10660(16)
N3 N 0.45533(15) 0.3124(2) 0.10138(15)
loop_
_geom_bond_atom_site_label_1
_geom_bond_atom_site_label_2
_geom_bond_site_symmetry_1
_geom_bond_site_symmetry_2
O1 H1 1_555 1_555
O2 C1 1_555 1_555
O3 C9 1_555 1_555
O4 H2 1_555 1_555
N1 H3 1_555 1_555
N2 H4 1_555 1_555
C1 O1 1_555 1_555
C2 C1 1_555 1_555
C3 C2 1_555 1_555
H5 C3 1_555 1_555
C4 N1 1_555 1_555
C5 N1 1_555 1_555
H6 C5 1_555 1_555
C6 N2 1_555 1_555
C7 C6 1_555 1_555
H7 C7 1_555 1_555
C8 C2 1_555 1_555
C9 O4 1_555 1_555
O5 N3 1_555 1_555
O6 N3 1_555 1_555
O7 N3 1_555 1_555
N2 C5 1_555 1_555
C3 C4 1_555 1_555
C4 C6 1_555 1_555
C7 C8 1_555 1_555
C8 C9 1_555 1_555

#END
