
#######################################################################
#
#                 Cambridge Crystallographic Data Centre
#                                CCDC 
#
#######################################################################
#
# If this CIF has been generated from an entry in the Cambridge 
# Structural Database, then it will include bibliographic, chemical, 
# crystal, experimental, refinement or atomic coordinate data resulting 
# from the CCDC's data processing and validation procedures.
#
#######################################################################

data_KOGBAJ
_chemical_formula_moiety         'C17 H18 Br1 N1 O4,H2 O1'
_chemical_name_systematic        
'4-(2-Bromophenyl)-1,4-dihydro-2,6-dimethyl-3,5-pyridinedicarboxylic acid dimethyl ester monohydrate'
_chemical_properties_biological  
'evaluated for vasorelaxant and receptor binding activity'
_symmetry_cell_setting           monoclinic
_symmetry_space_group_name_H-M   'P 21/n'
_symmetry_Int_Tables_number      14
_space_group_name_Hall           '-P 2yn'
loop_
_symmetry_equiv_pos_site_id
_symmetry_equiv_pos_as_xyz
1 x,y,z
2 1/2-x,1/2+y,1/2-z
3 -x,-y,-z
4 1/2+x,1/2-y,1/2+z
_cell_length_a                   10.969(1)
_cell_length_b                   13.883(1)
_cell_length_c                   11.689(2)
_cell_angle_alpha                90
_cell_angle_beta                 95.07(1)
_cell_angle_gamma                90
_cell_volume                     1773.07
_chemical_melting_point          164-166deg.C
_cell_formula_units_Z            4
loop_
_atom_site_label
_atom_site_type_symbol
_atom_site_fract_x
_atom_site_fract_y
_atom_site_fract_z
N1 N -0.0610(4) 0.6054(4) 0.7753(4)
C1 C -0.0692(5) 0.5260(4) 0.7026(5)
C2 C 0.0200(5) 0.4590(4) 0.7119(5)
C3 C 0.1343(5) 0.4721(4) 0.7939(5)
C4 C 0.1099(5) 0.5441(4) 0.8878(5)
C5 C 0.0190(5) 0.6094(4) 0.8718(5)
C6 C 0.2434(5) 0.5067(4) 0.7308(5)
C7 C 0.3537(5) 0.4570(4) 0.7282(5)
C8 C 0.4479(6) 0.4933(5) 0.6685(6)
C9 C 0.4343(6) 0.5805(5) 0.6137(6)
C10 C 0.3270(6) 0.6306(5) 0.6144(6)
C11 C 0.2334(6) 0.5924(4) 0.6724(5)
C12 C -0.1800(6) 0.5270(5) 0.6181(6)
C13 C 0.0107(5) 0.3708(4) 0.6436(5)
O1 O -0.0819(4) 0.3358(3) 0.5940(4)
O2 O 0.1192(4) 0.3278(3) 0.6412(4)
C14 C 0.1243(7) 0.2392(5) 0.5799(7)
C15 C 0.1916(6) 0.5421(4) 0.9953(5)
O3 O 0.1959(5) 0.6000(4) 1.0719(4)
O4 O 0.2679(4) 0.4665(3) 0.9962(4)
C16 C 0.3561(7) 0.4595(7) 1.0941(7)
C17 C -0.0105(7) 0.6890(5) 0.9517(6)
Br1 Br 0.38373(7) 0.33622(5) 0.80142(8)
O5 O 0.2549(5) 0.7675(4) 0.2489(5)
loop_
_geom_bond_atom_site_label_1
_geom_bond_atom_site_label_2
_geom_bond_site_symmetry_1
_geom_bond_site_symmetry_2
N1 C1 1_555 1_555
C1 C2 1_555 1_555
C2 C3 1_555 1_555
C3 C4 1_555 1_555
C4 C5 1_555 1_555
C5 N1 1_555 1_555
C6 C3 1_555 1_555
C7 C6 1_555 1_555
C8 C7 1_555 1_555
C9 C8 1_555 1_555
C10 C9 1_555 1_555
C11 C6 1_555 1_555
C12 C1 1_555 1_555
C13 C2 1_555 1_555
O1 C13 1_555 1_555
O2 C13 1_555 1_555
C14 O2 1_555 1_555
C15 C4 1_555 1_555
O3 C15 1_555 1_555
O4 C15 1_555 1_555
C16 O4 1_555 1_555
C17 C5 1_555 1_555
Br1 C7 1_555 1_555
C10 C11 1_555 1_555

#END
