
#######################################################################
#
#                 Cambridge Crystallographic Data Centre
#                                CCDC 
#
#######################################################################
#
# If this CIF has been generated from an entry in the Cambridge 
# Structural Database, then it will include bibliographic, chemical, 
# crystal, experimental, refinement or atomic coordinate data resulting 
# from the CCDC's data processing and validation procedures.
#
#######################################################################

data_KOGWIN
_chemical_formula_moiety         'C20 H30 O4'
_chemical_name_systematic        
'4\a-Carboxy-15\a-hydroxy-15,16-seco-ent-19-norbeyeran-16-oic acid 15,16-lactone'
_chemical_properties_biological  'androgen agonist activity'
_symmetry_cell_setting           orthorhombic
_symmetry_space_group_name_H-M   'P 21 21 21'
_symmetry_Int_Tables_number      19
_space_group_name_Hall           'P 2ac 2ab'
loop_
_symmetry_equiv_pos_site_id
_symmetry_equiv_pos_as_xyz
1 x,y,z
2 1/2-x,-y,1/2+z
3 -x,1/2+y,1/2-z
4 1/2+x,1/2-y,-z
_cell_length_a                   7.47470(10)
_cell_length_b                   11.0181(2)
_cell_length_c                   21.0792(4)
_cell_angle_alpha                90
_cell_angle_beta                 90
_cell_angle_gamma                90
_cell_volume                     1736.02
_cell_formula_units_Z            4
loop_
_atom_site_label
_atom_site_type_symbol
_atom_site_fract_x
_atom_site_fract_y
_atom_site_fract_z
O1 O 0.8044(2) 0.39007(15) 0.53774(7)
H1 H 0.8585 0.4511 0.5264
O2 O 1.0108(3) 0.39043(17) 0.61350(9)
O3 O 0.7293(2) 0.40919(13) 0.89704(7)
O4 O 0.5616(2) 0.40269(16) 0.98119(8)
C1 C 0.4526(3) 0.2511(2) 0.67204(9)
H2 H 0.4176 0.1680 0.6808
H3 H 0.3571 0.3036 0.6868
C2 C 0.4734(3) 0.2669(3) 0.60020(10)
H4 H 0.3640 0.2418 0.5792
H5 H 0.4935 0.3519 0.5905
C3 C 0.6275(3) 0.1927(2) 0.57555(9)
H6 H 0.6396 0.2072 0.5304
H7 H 0.6002 0.1074 0.5814
C4 C 0.8065(3) 0.22054(18) 0.60783(9)
C5 C 0.7812(2) 0.20557(16) 0.68097(8)
H8 H 0.7435 0.1209 0.6861
C6 C 0.9501(2) 0.2156(2) 0.72127(9)
H9 H 0.9856 0.3000 0.7247
H10 H 1.0468 0.1712 0.7012
C7 C 0.9155(3) 0.1639(2) 0.78736(9)
H11 H 1.0243 0.1701 0.8122
H12 H 0.8858 0.0785 0.7835
C8 C 0.7637(2) 0.22901(17) 0.82264(8)
C9 C 0.5961(2) 0.23406(16) 0.77948(8)
H13 H 0.5601 0.1490 0.7746
C10 C 0.6247(2) 0.28028(17) 0.70984(8)
C11 C 0.4381(2) 0.2940(2) 0.81453(9)
H14 H 0.4650 0.3789 0.8220
H15 H 0.3319 0.2898 0.7882
C12 C 0.4017(3) 0.2310(2) 0.87792(9)
H16 H 0.3542 0.1506 0.8698
H17 H 0.3114 0.2765 0.9009
C13 C 0.5699(3) 0.21942(18) 0.91982(9)
C14 C 0.7168(3) 0.15685(18) 0.88258(9)
H18 H 0.6779 0.0760 0.8708
H19 H 0.8225 0.1490 0.9090
C15 C 0.8333(3) 0.3510(2) 0.84744(10)
H20 H 0.9538 0.3387 0.8633
H21 H 0.8413 0.4066 0.8119
C16 C 0.6222(3) 0.34736(19) 0.93615(9)
C17 C 0.5279(4) 0.1499(2) 0.98061(10)
H22 H 0.6343 0.1435 1.0059
H23 H 0.4857 0.0701 0.9701
H24 H 0.4374 0.1924 1.0041
C18 C 0.9455(4) 0.1279(2) 0.58325(10)
H25 H 0.9606 0.1380 0.5383
H26 H 0.9044 0.0471 0.5920
H27 H 1.0578 0.1412 0.6042
C19 C 0.8836(3) 0.34340(19) 0.58866(9)
C20 C 0.6581(3) 0.41730(18) 0.70658(11)
H28 H 0.7652 0.4368 0.7296
H29 H 0.5586 0.4596 0.7250
H30 H 0.6716 0.4415 0.6631
loop_
_geom_bond_atom_site_label_1
_geom_bond_atom_site_label_2
_geom_bond_site_symmetry_1
_geom_bond_site_symmetry_2
O1 H1 1_555 1_555
O2 C19 1_555 1_555
O3 C15 1_555 1_555
O4 C16 1_555 1_555
C1 H2 1_555 1_555
H3 C1 1_555 1_555
C2 C1 1_555 1_555
H4 C2 1_555 1_555
H5 C2 1_555 1_555
C3 C2 1_555 1_555
H6 C3 1_555 1_555
H7 C3 1_555 1_555
C4 C3 1_555 1_555
C5 C4 1_555 1_555
H8 C5 1_555 1_555
C6 C5 1_555 1_555
H9 C6 1_555 1_555
H10 C6 1_555 1_555
C7 C6 1_555 1_555
H11 C7 1_555 1_555
H12 C7 1_555 1_555
C8 C7 1_555 1_555
C9 C8 1_555 1_555
H13 C9 1_555 1_555
C10 C1 1_555 1_555
C11 C9 1_555 1_555
H14 C11 1_555 1_555
H15 C11 1_555 1_555
C12 C11 1_555 1_555
H16 C12 1_555 1_555
H17 C12 1_555 1_555
C13 C12 1_555 1_555
C14 C8 1_555 1_555
H18 C14 1_555 1_555
H19 C14 1_555 1_555
C15 C8 1_555 1_555
H20 C15 1_555 1_555
H21 C15 1_555 1_555
C16 O3 1_555 1_555
C17 C13 1_555 1_555
H22 C17 1_555 1_555
H23 C17 1_555 1_555
H24 C17 1_555 1_555
C18 C4 1_555 1_555
H25 C18 1_555 1_555
H26 C18 1_555 1_555
H27 C18 1_555 1_555
C19 O1 1_555 1_555
C20 C10 1_555 1_555
H28 C20 1_555 1_555
H29 C20 1_555 1_555
H30 C20 1_555 1_555
C4 C19 1_555 1_555
C5 C10 1_555 1_555
C9 C10 1_555 1_555
C13 C14 1_555 1_555
C13 C16 1_555 1_555

#END
