
#######################################################################
#
#                 Cambridge Crystallographic Data Centre
#                                CCDC 
#
#######################################################################
#
# If this CIF has been generated from an entry in the Cambridge 
# Structural Database, then it will include bibliographic, chemical, 
# crystal, experimental, refinement or atomic coordinate data resulting 
# from the CCDC's data processing and validation procedures.
#
#######################################################################

data_KOGWUA
_chemical_formula_moiety         'C14 H13 N1 O2'
_chemical_name_systematic        N-(2-Hydroxyphenyl)-N-methylbenzamide
_symmetry_cell_setting           monoclinic
_symmetry_space_group_name_H-M   'P 21/c'
_symmetry_Int_Tables_number      14
_space_group_name_Hall           '-P 2ybc'
loop_
_symmetry_equiv_pos_site_id
_symmetry_equiv_pos_as_xyz
1 x,y,z
2 -x,1/2+y,1/2-z
3 -x,-y,-z
4 x,1/2-y,1/2+z
_cell_length_a                   8.2260(13)
_cell_length_b                   11.7110(18)
_cell_length_c                   13.239(2)
_cell_angle_alpha                90
_cell_angle_beta                 106.880(3)
_cell_angle_gamma                90
_cell_volume                     1220.43
_cell_formula_units_Z            4
loop_
_atom_site_label
_atom_site_type_symbol
_atom_site_fract_x
_atom_site_fract_y
_atom_site_fract_z
N1 N 1.07500(18) 0.59765(13) 0.22491(11)
O1 O 1.10084(16) 0.65542(12) 0.06835(10)
O2 O 1.0443(2) 0.72746(12) 0.38849(11)
H1 H 1.0421 0.7546 0.4452
C1 C 0.7378(3) 0.7259(2) 0.13563(18)
H2 H 0.7955 0.7606 0.1991
C2 C 0.5684(4) 0.7450(3) 0.0915(3)
H3 H 0.5113 0.7934 0.1255
C3 C 0.4810(4) 0.6949(4) -0.0011(4)
H4 H 0.3653 0.7085 -0.0299
C4 C 0.5652(4) 0.6241(3) -0.0514(3)
H5 H 0.5063 0.5892 -0.1145
C5 C 0.7361(3) 0.6043(2) -0.00904(19)
H6 H 0.7931 0.5571 -0.0440
C6 C 0.8230(2) 0.65450(16) 0.08509(15)
C7 C 1.0092(2) 0.63583(15) 0.12567(14)
C8 C 0.9691(2) 0.56080(16) 0.28801(14)
C9 C 0.8830(3) 0.45842(17) 0.26618(16)
H7 H 0.8955 0.4124 0.2117
C10 C 0.7788(3) 0.42461(19) 0.32494(18)
H8 H 0.7208 0.3556 0.3104
C11 C 0.7604(3) 0.49293(19) 0.40530(17)
H9 H 0.6881 0.4705 0.4442
C12 C 0.8475(3) 0.59371(18) 0.42863(15)
H10 H 0.8348 0.6390 0.4835
C13 C 0.9545(2) 0.62839(16) 0.37077(14)
C14 C 1.2589(2) 0.5842(2) 0.26893(17)
H11 H 1.2859 0.5046 0.2808
H12 H 1.2967 0.6247 0.3346
H13 H 1.3147 0.6143 0.2203
loop_
_geom_bond_atom_site_label_1
_geom_bond_atom_site_label_2
_geom_bond_site_symmetry_1
_geom_bond_site_symmetry_2
N1 C7 1_555 1_555
O1 C7 1_555 1_555
O2 H1 1_555 1_555
C1 H2 1_555 1_555
C2 C1 1_555 1_555
H3 C2 1_555 1_555
C3 C2 1_555 1_555
H4 C3 1_555 1_555
C4 C3 1_555 1_555
H5 C4 1_555 1_555
C5 C4 1_555 1_555
H6 C5 1_555 1_555
C6 C1 1_555 1_555
C7 C6 1_555 1_555
C8 N1 1_555 1_555
C9 C8 1_555 1_555
H7 C9 1_555 1_555
C10 C9 1_555 1_555
H8 C10 1_555 1_555
C11 C10 1_555 1_555
H9 C11 1_555 1_555
C12 C11 1_555 1_555
H10 C12 1_555 1_555
C13 O2 1_555 1_555
C14 N1 1_555 1_555
H11 C14 1_555 1_555
H12 C14 1_555 1_555
H13 C14 1_555 1_555
C5 C6 1_555 1_555
C8 C13 1_555 1_555
C12 C13 1_555 1_555

#END
