
#######################################################################
#
#                 Cambridge Crystallographic Data Centre
#                                CCDC 
#
#######################################################################
#
# If this CIF has been generated from an entry in the Cambridge 
# Structural Database, then it will include bibliographic, chemical, 
# crystal, experimental, refinement or atomic coordinate data resulting 
# from the CCDC's data processing and validation procedures.
#
#######################################################################

data_KOGXEL
_chemical_formula_moiety         'C21 H24 O3'
_chemical_name_systematic        
4-Isopropyl-12a-methyl-1,4,4a,5,12a,12b-hexahydro-2H-naphtho[2,3-f]isochromene-7,12-dione
_symmetry_cell_setting           monoclinic
_symmetry_space_group_name_H-M   'P 21/n'
_symmetry_Int_Tables_number      14
_space_group_name_Hall           '-P 2yn'
loop_
_symmetry_equiv_pos_site_id
_symmetry_equiv_pos_as_xyz
1 x,y,z
2 1/2-x,1/2+y,1/2-z
3 -x,-y,-z
4 1/2+x,1/2-y,1/2+z
_cell_length_a                   6.7908(4)
_cell_length_b                   8.8056(5)
_cell_length_c                   28.0909(15)
_cell_angle_alpha                90
_cell_angle_beta                 95.650(3)
_cell_angle_gamma                90
_cell_volume                     1671.59
_exptl_crystal_colour            colorless
_exptl_crystal_description       plate
_cell_formula_units_Z            4
loop_
_atom_site_label
_atom_site_type_symbol
_atom_site_fract_x
_atom_site_fract_y
_atom_site_fract_z
O1 O 0.32122(19) 0.02536(16) 0.14797(5)
O2 O 0.7293(2) -0.15733(18) 0.00315(5)
O3 O 0.78818(19) 0.50150(16) 0.13283(4)
C1 C 0.2340(3) -0.4079(2) 0.03255(7)
H1 H 0.1936 -0.4957 0.0145
C2 C 0.4054(3) -0.3324(2) 0.02388(6)
H2 H 0.4809 -0.3676 -0.0006
C3 C 0.4687(3) -0.2054(2) 0.05071(6)
C4 C 0.6489(3) -0.1224(2) 0.03882(6)
C5 C 0.7200(3) 0.0052(2) 0.07058(6)
C6 C 0.6438(3) 0.0218(2) 0.11984(6)
C7 C 0.6779(3) 0.1843(2) 0.13960(6)
H3 H 0.6603 0.1812 0.1745
C8 C 0.8927(3) 0.2366(2) 0.13478(6)
H4 H 0.9850 0.1646 0.1532
C9 C 0.9297(3) 0.3958(2) 0.15548(6)
H5 H 1.0613 0.4279 0.1458
C10 C 0.9464(3) 0.4084(2) 0.21033(7)
H6 H 0.8238 0.3650 0.2220
C11 C 1.1245(3) 0.3181(3) 0.23253(8)
H7 H 1.2447 0.3543 0.2195
H8 H 1.1052 0.2101 0.2250
H9 H 1.1377 0.3320 0.2673
C12 C 0.3585(3) -0.1553(2) 0.08739(6)
C13 C 0.1839(3) -0.2305(2) 0.09509(7)
H10 H 0.1072 -0.1959 0.1194
C14 C 0.1209(3) -0.3548(2) 0.06775(7)
H11 H 0.0005 -0.4041 0.0730
C15 C 0.4277(3) -0.0270(2) 0.11953(6)
C16 C 0.8530(3) 0.1007(2) 0.05518(6)
H12 H 0.8966 0.0820 0.0246
C17 C 0.9374(3) 0.2336(2) 0.08232(6)
H13 H 0.8844 0.3274 0.0664
H14 H 1.0827 0.2339 0.0812
C18 C 0.5353(3) 0.3043(2) 0.11676(6)
H15 H 0.5433 0.3065 0.0818
H16 H 0.3980 0.2778 0.1225
C19 C 0.5872(3) 0.4595(2) 0.13779(7)
H17 H 0.4975 0.5362 0.1216
H18 H 0.5658 0.4593 0.1721
C20 C 0.9638(3) 0.5737(3) 0.22543(7)
H19 H 0.9949 0.5797 0.2602
H20 H 0.8382 0.6257 0.2163
H21 H 1.0695 0.6225 0.2096
C21 C 0.7530(3) -0.0940(2) 0.15506(6)
H22 H 0.6924 -0.0934 0.1853
H23 H 0.8928 -0.0656 0.1610
H24 H 0.7425 -0.1959 0.1410
loop_
_geom_bond_atom_site_label_1
_geom_bond_atom_site_label_2
_geom_bond_site_symmetry_1
_geom_bond_site_symmetry_2
O1 C15 1_555 1_555
O2 C4 1_555 1_555
O3 C9 1_555 1_555
C1 H1 1_555 1_555
C2 C1 1_555 1_555
H2 C2 1_555 1_555
C3 C2 1_555 1_555
C4 C3 1_555 1_555
C5 C4 1_555 1_555
C6 C5 1_555 1_555
C7 C6 1_555 1_555
H3 C7 1_555 1_555
C8 C7 1_555 1_555
H4 C8 1_555 1_555
C9 C8 1_555 1_555
H5 C9 1_555 1_555
C10 C9 1_555 1_555
H6 C10 1_555 1_555
C11 C10 1_555 1_555
H7 C11 1_555 1_555
H8 C11 1_555 1_555
H9 C11 1_555 1_555
C12 C3 1_555 1_555
C13 C12 1_555 1_555
H10 C13 1_555 1_555
C14 C1 1_555 1_555
H11 C14 1_555 1_555
C15 C6 1_555 1_555
C16 C5 1_555 1_555
H12 C16 1_555 1_555
C17 C8 1_555 1_555
H13 C17 1_555 1_555
H14 C17 1_555 1_555
C18 C7 1_555 1_555
H15 C18 1_555 1_555
H16 C18 1_555 1_555
C19 O3 1_555 1_555
H17 C19 1_555 1_555
H18 C19 1_555 1_555
C20 C10 1_555 1_555
H19 C20 1_555 1_555
H20 C20 1_555 1_555
H21 C20 1_555 1_555
C21 C6 1_555 1_555
H22 C21 1_555 1_555
H23 C21 1_555 1_555
H24 C21 1_555 1_555
C12 C15 1_555 1_555
C13 C14 1_555 1_555
C16 C17 1_555 1_555
C18 C19 1_555 1_555

#END
