
#######################################################################
#
#                 Cambridge Crystallographic Data Centre
#                                CCDC 
#
#######################################################################
#
# If this CIF has been generated from an entry in the Cambridge 
# Structural Database, then it will include bibliographic, chemical, 
# crystal, experimental, refinement or atomic coordinate data resulting 
# from the CCDC's data processing and validation procedures.
#
#######################################################################

data_KOGXAH
_chemical_formula_moiety         'C22 H26 N2 O4 S2'
_chemical_name_systematic        
5-Isobutyl-3-methyl-1,4-bis((4-methylphenyl)sulfonyl)-1H-pyrazole
_symmetry_cell_setting           triclinic
_symmetry_space_group_name_H-M   'P -1'
_symmetry_Int_Tables_number      2
_space_group_name_Hall           '-P 1'
loop_
_symmetry_equiv_pos_site_id
_symmetry_equiv_pos_as_xyz
1 x,y,z
2 -x,-y,-z
_cell_length_a                   6.6422(6)
_cell_length_b                   8.0514(7)
_cell_length_c                   20.8031(17)
_cell_angle_alpha                89.740(7)
_cell_angle_beta                 87.881(7)
_cell_angle_gamma                83.068(7)
_cell_volume                     1103.64
_exptl_crystal_colour            colorless
_exptl_crystal_description       block
_cell_formula_units_Z            2
loop_
_atom_site_label
_atom_site_type_symbol
_atom_site_fract_x
_atom_site_fract_y
_atom_site_fract_z
S1 S 0.78799(11) 0.78239(8) 0.40132(3)
S2 S 0.83581(11) 0.79309(9) 0.13429(3)
O1 O 0.6785(3) 0.6416(2) 0.40769(9)
O2 O 0.9667(3) 0.7923(2) 0.43568(9)
O3 O 0.9013(4) 0.9404(3) 0.10539(10)
O4 O 0.6297(3) 0.7607(3) 0.12750(10)
N1 N 0.8641(3) 0.7856(3) 0.32141(10)
N2 N 1.0157(3) 0.8846(3) 0.30756(11)
C1 C 0.6225(4) 0.9673(3) 0.41102(12)
C2 C 0.6919(4) 1.1052(3) 0.43824(13)
H1 H 0.8241 1.0999 0.4520
C3 C 0.5594(4) 1.2510(3) 0.44442(13)
H2 H 0.6036 1.3443 0.4630
C4 C 0.3624(4) 1.2618(3) 0.42359(13)
C5 C 0.2972(4) 1.1203(3) 0.39744(14)
H3 H 0.1646 1.1250 0.3840
C6 C 0.4249(4) 0.9731(3) 0.39102(14)
H4 H 0.3795 0.8789 0.3735
C7 C 0.2238(5) 1.4233(4) 0.42893(15)
H5 H 0.2673 1.5019 0.3981
H6 H 0.2278 1.4679 0.4715
H7 H 0.0876 1.4032 0.4205
C8 C 1.0273(4) 0.8947(3) 0.24462(13)
C9 C 0.8801(4) 0.8043(3) 0.21663(13)
C10 C 0.7750(4) 0.7363(3) 0.26697(13)
C11 C 1.1830(5) 0.9917(4) 0.21324(15)
H8 H 1.2564 1.0405 0.2457
H9 H 1.1167 1.0788 0.1870
H10 H 1.2756 0.9181 0.1868
C12 C 0.6109(4) 0.6243(4) 0.26617(14)
H11 H 0.5138 0.6658 0.2345
H12 H 0.5402 0.6293 0.3079
C13 C 0.6888(7) 0.4416(5) 0.2507(3)
C14 C 0.8292(13) 0.3631(10) 0.2950(4)
H13 H 0.7707 0.3748 0.3379
H14 H 0.9518 0.4152 0.2923
H15 H 0.8594 0.2465 0.2846
C15 C 0.5530(12) 0.3185(10) 0.2479(4)
H16 H 0.6290 0.2097 0.2437
H17 H 0.4689 0.3400 0.2115
H18 H 0.4692 0.3228 0.2866
C16 C 0.9960(4) 0.6179(3) 0.10475(12)
C17 C 1.2001(5) 0.6300(5) 0.09355(16)
H19 H 1.2518 0.7306 0.1002
C18 C 1.3256(5) 0.4910(5) 0.07248(18)
H20 H 1.4628 0.4991 0.0646
C19 C 1.2524(6) 0.3386(5) 0.06268(15)
C20 C 1.0478(6) 0.3317(4) 0.07158(15)
H21 H 0.9948 0.2324 0.0634
C21 C 0.9197(5) 0.4703(4) 0.09255(14)
H22 H 0.7814 0.4638 0.0984
C22 C 1.3613(13) 0.1649(10) 0.0444(4)
H23 H 1.2626 0.0910 0.0356
H24 H 1.4419 0.1210 0.0794
H25 H 1.4475 0.1742 0.0068
C23? C 0.8884(18) 0.3722(15) 0.2760(6)
H26? H 0.8807 0.3747 0.3221
H27? H 0.9910 0.4383 0.2605
H28? H 0.9221 0.2588 0.2616
C24? C 0.4684(13) 0.3656(11) 0.2451(4)
H29? H 0.4856 0.2700 0.2171
H30? H 0.3702 0.4499 0.2279
H31? H 0.4220 0.3329 0.2870
C25? C 1.4253(12) 0.2064(10) 0.0408(4)
H32? H 1.4997 0.1648 0.0774
H33? H 1.5144 0.2555 0.0108
H34? H 1.3705 0.1160 0.0203
loop_
_geom_bond_atom_site_label_1
_geom_bond_atom_site_label_2
_geom_bond_site_symmetry_1
_geom_bond_site_symmetry_2
S1 O1 1_555 1_555
S2 O3 1_555 1_555
O2 S1 1_555 1_555
O4 S2 1_555 1_555
N1 S1 1_555 1_555
N2 N1 1_555 1_555
C1 S1 1_555 1_555
C2 C1 1_555 1_555
H1 C2 1_555 1_555
C3 C2 1_555 1_555
H2 C3 1_555 1_555
C4 C3 1_555 1_555
C5 C4 1_555 1_555
H3 C5 1_555 1_555
C6 C1 1_555 1_555
H4 C6 1_555 1_555
C7 C4 1_555 1_555
H5 C7 1_555 1_555
H6 C7 1_555 1_555
H7 C7 1_555 1_555
C8 N2 1_555 1_555
C9 S2 1_555 1_555
C10 N1 1_555 1_555
C11 C8 1_555 1_555
H8 C11 1_555 1_555
H9 C11 1_555 1_555
H10 C11 1_555 1_555
C12 C10 1_555 1_555
H11 C12 1_555 1_555
H12 C12 1_555 1_555
C13 C12 1_555 1_555
C14 C13 1_555 1_555
H13 C14 1_555 1_555
H14 C14 1_555 1_555
H15 C14 1_555 1_555
C15 C13 1_555 1_555
H16 C15 1_555 1_555
H17 C15 1_555 1_555
H18 C15 1_555 1_555
C16 S2 1_555 1_555
C17 C16 1_555 1_555
H19 C17 1_555 1_555
C18 C17 1_555 1_555
H20 C18 1_555 1_555
C19 C18 1_555 1_555
C20 C19 1_555 1_555
H21 C20 1_555 1_555
C21 C16 1_555 1_555
H22 C21 1_555 1_555
C22 C19 1_555 1_555
H23 C22 1_555 1_555
H24 C22 1_555 1_555
H25 C22 1_555 1_555
C5 C6 1_555 1_555
C8 C9 1_555 1_555
C9 C10 1_555 1_555
C20 C21 1_555 1_555

#END
