
#######################################################################
#
#                 Cambridge Crystallographic Data Centre
#                                CCDC 
#
#######################################################################
#
# If this CIF has been generated from an entry in the Cambridge 
# Structural Database, then it will include bibliographic, chemical, 
# crystal, experimental, refinement or atomic coordinate data resulting 
# from the CCDC's data processing and validation procedures.
#
#######################################################################

data_KOHRAC
_chemical_formula_moiety         'C14 H28 N2 O5 S1'
_chemical_name_systematic        
'di-t-butyl 1-(2-hydroxy-3-(methylsulfanyl)propyl)hydrazine-1,2-dicarboxylate'
_symmetry_cell_setting           monoclinic
_symmetry_space_group_name_H-M   'P 21/c'
_symmetry_Int_Tables_number      14
_space_group_name_Hall           '-P 2ybc'
loop_
_symmetry_equiv_pos_site_id
_symmetry_equiv_pos_as_xyz
1 x,y,z
2 -x,1/2+y,1/2-z
3 -x,-y,-z
4 x,1/2-y,1/2+z
_cell_length_a                   14.0172(3)
_cell_length_b                   7.83649(15)
_cell_length_c                   17.2076(3)
_cell_angle_alpha                90
_cell_angle_beta                 103.772(2)
_cell_angle_gamma                90
_cell_volume                     1835.84
_exptl_crystal_colour            colorless
_exptl_crystal_description       block
_cell_formula_units_Z            4
_exptl_crystal_recrystallization_method acetone/methanol
loop_
_atom_site_label
_atom_site_type_symbol
_atom_site_fract_x
_atom_site_fract_y
_atom_site_fract_z
C1 C 0.8328(2) 0.0844(4) 0.2221(2)
H1 H 0.8060 0.0494 0.2660
H2 H 0.8898 0.0169 0.2216
H3 H 0.7845 0.0688 0.1728
C2 C 0.86149(18) 0.2704(3) 0.23178(17)
C3 C 0.8960(3) 0.3336(4) 0.1599(2)
H4 H 0.8445 0.3187 0.1125
H5 H 0.9527 0.2697 0.1551
H6 H 0.9127 0.4523 0.1667
C4 C 0.9360(2) 0.3034(4) 0.3097(2)
H7 H 0.9505 0.4232 0.3147
H8 H 0.9951 0.2410 0.3102
H9 H 0.9097 0.2670 0.3536
C5 C 0.75898(17) 0.5211(3) 0.24304(13)
C6 C 0.8608(3) 0.5688(5) 0.4950(2)
H10 H 0.8161 0.4772 0.4973
H11 H 0.9031 0.5863 0.5471
H12 H 0.8996 0.5405 0.4578
C7 C 0.8696(3) 0.8736(6) 0.4540(2)
H13 H 0.8977 0.8445 0.4100
H14 H 0.9212 0.8901 0.5013
H15 H 0.8322 0.9769 0.4418
C8 C 0.7408(3) 0.7799(5) 0.52474(19)
H16 H 0.7031 0.8797 0.5050
H17 H 0.7824 0.8035 0.5766
H18 H 0.6972 0.6876 0.5288
C9 C 0.8032(2) 0.7309(4) 0.46795(15)
C10 C 0.68395(18) 0.7871(3) 0.34172(15)
C11 C 0.59483(19) 0.8209(3) 0.20202(15)
H19 H 0.6411 0.8357 0.1687
H20 H 0.5821 0.9327 0.2217
C12 C 0.50032(19) 0.7509(3) 0.15139(15)
H21 H 0.5117 0.6371 0.1318
C13 C 0.4655(2) 0.8726(4) 0.08046(17)
H22 H 0.5206 0.8962 0.0571
H23 H 0.4464 0.9797 0.1007
C14 C 0.4265(4) 0.6873(6) -0.0605(3)
H24 H 0.4392 0.7640 -0.1004
H25 H 0.3861 0.5948 -0.0862
H26 H 0.4875 0.6430 -0.0294
N1 N 0.63988(15) 0.7134(3) 0.27015(12)
N2 N 0.66615(14) 0.5497(2) 0.25167(12)
H27 H 0.6317 0.4615 0.2686
O1 O 0.73806(14) 0.6746(2) 0.39125(10)
O2 O 0.67196(16) 0.9354(2) 0.35674(12)
O3 O 0.76770(12) 0.3515(2) 0.23478(12)
O4 O 0.81944(14) 0.6293(2) 0.24135(12)
O5 O 0.43100(14) 0.7407(2) 0.19925(12)
H28 H 0.3943 0.6593 0.1847
S1 S 0.36497(6) 0.79803(14) 0.00276(5)
loop_
_geom_bond_atom_site_label_1
_geom_bond_atom_site_label_2
_geom_bond_site_symmetry_1
_geom_bond_site_symmetry_2
C1 H1 1_555 1_555
H2 C1 1_555 1_555
H3 C1 1_555 1_555
C2 C1 1_555 1_555
C3 C2 1_555 1_555
H4 C3 1_555 1_555
H5 C3 1_555 1_555
H6 C3 1_555 1_555
C4 C2 1_555 1_555
H7 C4 1_555 1_555
H8 C4 1_555 1_555
H9 C4 1_555 1_555
C5 N2 1_555 1_555
C6 H10 1_555 1_555
H11 C6 1_555 1_555
H12 C6 1_555 1_555
C7 H13 1_555 1_555
H14 C7 1_555 1_555
H15 C7 1_555 1_555
C8 H16 1_555 1_555
H17 C8 1_555 1_555
H18 C8 1_555 1_555
C9 C6 1_555 1_555
C10 N1 1_555 1_555
C11 H19 1_555 1_555
H20 C11 1_555 1_555
C12 C11 1_555 1_555
H21 C12 1_555 1_555
C13 C12 1_555 1_555
H22 C13 1_555 1_555
H23 C13 1_555 1_555
C14 H24 1_555 1_555
H25 C14 1_555 1_555
H26 C14 1_555 1_555
N1 C11 1_555 1_555
N2 N1 1_555 1_555
H27 N2 1_555 1_555
O1 C9 1_555 1_555
O2 C10 1_555 1_555
O3 C2 1_555 1_555
O4 C5 1_555 1_555
O5 C12 1_555 1_555
H28 O5 1_555 1_555
S1 C13 1_555 1_555
C5 O3 1_555 1_555
C7 C9 1_555 1_555
C8 C9 1_555 1_555
C10 O1 1_555 1_555
C14 S1 1_555 1_555

#END
