
#######################################################################
#
#                 Cambridge Crystallographic Data Centre
#                                CCDC 
#
#######################################################################
#
# If this CIF has been generated from an entry in the Cambridge 
# Structural Database, then it will include bibliographic, chemical, 
# crystal, experimental, refinement or atomic coordinate data resulting 
# from the CCDC's data processing and validation procedures.
#
#######################################################################

data_KOHVIO
_chemical_formula_moiety         'C17 H17 F3 N2 O2'
_chemical_name_systematic        
2-Methoxy-N-(2-(pyridin-2-yl)propan-2-yl)-5-(trifluoromethyl)benzamide
_symmetry_cell_setting           monoclinic
_symmetry_space_group_name_H-M   'P 21/c'
_symmetry_Int_Tables_number      14
_space_group_name_Hall           '-P 2ybc'
loop_
_symmetry_equiv_pos_site_id
_symmetry_equiv_pos_as_xyz
1 x,y,z
2 -x,1/2+y,1/2-z
3 -x,-y,-z
4 x,1/2-y,1/2+z
_cell_length_a                   10.5428(12)
_cell_length_b                   16.2625(12)
_cell_length_c                   10.8624(15)
_cell_angle_alpha                90
_cell_angle_beta                 118.846(16)
_cell_angle_gamma                90
_cell_volume                     1631.3
_exptl_crystal_colour            colorless
_exptl_crystal_description       block
_cell_formula_units_Z            4
loop_
_atom_site_label
_atom_site_type_symbol
_atom_site_fract_x
_atom_site_fract_y
_atom_site_fract_z
F1 F 0.6041(2) 0.73878(18) 0.9728(3)
F2 F 0.6659(2) 0.67795(17) 1.1593(3)
F3 F 0.6515(2) 0.80656(15) 1.1524(3)
O1 O 0.1786(2) 0.56299(11) 0.7597(2)
O2 O 0.00520(19) 0.70849(10) 0.9541(2)
N1 N -0.2242(2) 0.54293(13) 0.8517(2)
N2 N -0.0014(2) 0.56919(11) 0.8167(2)
H1 H -0.0313 0.5951 0.8669
C1 C -0.3385(3) 0.53846(18) 0.8738(3)
H2 H -0.3387 0.5718 0.9433
C2 C -0.4542(3) 0.4881(2) 0.8010(4)
H3 H -0.5333 0.4884 0.8170
C3 C -0.4494(4) 0.4375(2) 0.7041(4)
H4 H -0.5248 0.4009 0.6541
C4 C -0.3333(4) 0.4403(2) 0.6799(3)
H5 H -0.3295 0.4056 0.6137
C5 C -0.2216(3) 0.49509(15) 0.7548(3)
C6 C -0.0927(3) 0.50181(14) 0.7282(3)
C7 C -0.1461(3) 0.52248(18) 0.5726(3)
H6 H -0.1990 0.5733 0.5495
H7 H -0.2080 0.4792 0.5146
H8 H -0.0644 0.5279 0.5567
C8 C -0.0079(3) 0.42094(15) 0.7686(3)
H9 H 0.0738 0.4255 0.7527
H10 H -0.0696 0.3771 0.7123
H11 H 0.0251 0.4095 0.8661
C9 C 0.1235(3) 0.59379(14) 0.8264(3)
C10 C 0.2033(3) 0.66349(13) 0.9275(2)
C11 C 0.3466(3) 0.67344(14) 0.9608(3)
H12 H 0.3859 0.6382 0.9205
C12 C 0.4334(3) 0.73398(15) 1.0519(3)
C13 C 0.3746(3) 0.78656(15) 1.1108(3)
H13 H 0.4321 0.8274 1.1724
C14 C 0.2328(3) 0.77937(15) 1.0797(3)
H14 H 0.1945 0.8155 1.1194
C15 C 0.1462(3) 0.71811(13) 0.9887(3)
C16 C 0.5866(3) 0.7405(2) 1.0872(4)
C17 C -0.0593(3) 0.76447(18) 1.0086(4)
H15 H -0.1593 0.7504 0.9731
H16 H -0.0522 0.8194 0.9800
H17 H -0.0097 0.7613 1.1093
loop_
_geom_bond_atom_site_label_1
_geom_bond_atom_site_label_2
_geom_bond_site_symmetry_1
_geom_bond_site_symmetry_2
F1 C16 1_555 1_555
F2 C16 1_555 1_555
F3 C16 1_555 1_555
O1 C9 1_555 1_555
O2 C15 1_555 1_555
N1 C1 1_555 1_555
N2 H1 1_555 1_555
C1 H2 1_555 1_555
C2 C1 1_555 1_555
H3 C2 1_555 1_555
C3 C2 1_555 1_555
H4 C3 1_555 1_555
C4 C3 1_555 1_555
H5 C4 1_555 1_555
C5 N1 1_555 1_555
C6 N2 1_555 1_555
C7 C6 1_555 1_555
H6 C7 1_555 1_555
H7 C7 1_555 1_555
H8 C7 1_555 1_555
C8 C6 1_555 1_555
H9 C8 1_555 1_555
H10 C8 1_555 1_555
H11 C8 1_555 1_555
C9 N2 1_555 1_555
C10 C9 1_555 1_555
C11 C10 1_555 1_555
H12 C11 1_555 1_555
C12 C11 1_555 1_555
C13 C12 1_555 1_555
H13 C13 1_555 1_555
C14 C13 1_555 1_555
H14 C14 1_555 1_555
C15 C10 1_555 1_555
C16 C12 1_555 1_555
C17 O2 1_555 1_555
H15 C17 1_555 1_555
H16 C17 1_555 1_555
H17 C17 1_555 1_555
C4 C5 1_555 1_555
C5 C6 1_555 1_555
C14 C15 1_555 1_555

#END
