
#######################################################################
#
#                 Cambridge Crystallographic Data Centre
#                                CCDC 
#
#######################################################################
#
# If this CIF has been generated from an entry in the Cambridge 
# Structural Database, then it will include bibliographic, chemical, 
# crystal, experimental, refinement or atomic coordinate data resulting 
# from the CCDC's data processing and validation procedures.
#
#######################################################################

data_KOHYEN
_chemical_formula_moiety         'C35 H25 N3 O1'
_chemical_name_systematic        
4-(phenyl(4-(6-phenyl-2,2'-bipyridin-4-yl)phenyl)amino)benzaldehyde
_symmetry_cell_setting           monoclinic
_symmetry_space_group_name_H-M   'P 21/c'
_symmetry_Int_Tables_number      14
_space_group_name_Hall           '-P 2ybc'
loop_
_symmetry_equiv_pos_site_id
_symmetry_equiv_pos_as_xyz
1 x,y,z
2 -x,1/2+y,1/2-z
3 -x,-y,-z
4 x,1/2-y,1/2+z
_cell_length_a                   14.4204(9)
_cell_length_b                   10.0329(6)
_cell_length_c                   18.4597(11)
_cell_angle_alpha                90
_cell_angle_beta                 101.4230(10)
_cell_angle_gamma                90
_cell_volume                     2617.82
_exptl_crystal_colour            yellow
_exptl_crystal_description       needle
_cell_formula_units_Z            4
loop_
_atom_site_label
_atom_site_type_symbol
_atom_site_fract_x
_atom_site_fract_y
_atom_site_fract_z
C1 C 0.37069(18) 0.99664(19) 0.85338(11)
H1 H 0.4274 1.0401 0.8523
C2 C 0.37390(13) 0.88662(15) 0.90600(9)
C3 C 0.45768(13) 0.85771(16) 0.95466(10)
H2 H 0.5119 0.9061 0.9519
C4 C 0.46236(11) 0.75857(15) 1.00714(9)
H3 H 0.5189 0.7428 1.0402
C5 C 0.38289(11) 0.68211(14) 1.01074(8)
C6 C 0.29420(12) 0.81128(16) 0.91074(9)
H4 H 0.2372 0.8295 0.8788
C7 C 0.29833(11) 0.71064(16) 0.96165(9)
H5 H 0.2444 0.6610 0.9635
C8 C 0.45874(11) 0.58033(15) 1.12868(8)
C9 C 0.46558(13) 0.68847(18) 1.17592(10)
H6 H 0.4232 0.7590 1.1654
C10 C 0.53571(16) 0.6910(2) 1.23866(11)
H7 H 0.5412 0.7646 1.2699
C11 C 0.59739(15) 0.5868(2) 1.25570(11)
H8 H 0.6440 0.5892 1.2984
C12 C 0.59008(12) 0.4788(2) 1.20945(10)
H9 H 0.6318 0.4077 1.2208
C13 C 0.52092(11) 0.47552(16) 1.14605(9)
H10 H 0.5162 0.4020 1.1148
C14 C 0.33521(10) 0.45819(14) 1.04475(8)
C15 C 0.32065(10) 0.40549(14) 0.97396(8)
H11 H 0.3448 0.4494 0.9373
C16 C 0.30076(11) 0.38972(15) 1.09888(8)
H12 H 0.3111 0.4228 1.1469
C17 C 0.25108(11) 0.27239(15) 1.08197(8)
H13 H 0.2285 0.2275 1.1190
C18 C 0.27064(10) 0.28839(14) 0.95742(8)
H14 H 0.2612 0.2548 0.9096
C19 C 0.23406(10) 0.21983(14) 1.01084(8)
C20 C 0.17668(10) 0.09761(14) 0.99163(8)
C21 C 0.11550(10) 0.08717(15) 0.92369(8)
H15 H 0.1127 0.1554 0.8892
C22 C 0.17932(11) -0.00827(15) 1.04009(9)
H16 H 0.2190 -0.0054 1.0864
C23 C 0.12231(10) -0.11869(15) 1.01913(9)
C24 C 0.05842(10) -0.02439(15) 0.90672(8)
C25 C -0.01267(10) -0.03392(16) 0.83667(9)
C26 C -0.03301(12) 0.07457(17) 0.79072(9)
H17 H 0.0004 0.1535 0.8024
C27 C -0.10196(14) 0.0679(2) 0.72791(10)
H18 H -0.1148 0.1421 0.6974
C28 C -0.15196(14) -0.0471(2) 0.70983(11)
H19 H -0.1993 -0.0507 0.6676
C29 C -0.13200(14) -0.1569(2) 0.75411(11)
H20 H -0.1651 -0.2358 0.7416
C30 C -0.06295(12) -0.15054(19) 0.81716(10)
H21 H -0.0498 -0.2255 0.8471
C31 C 0.12354(12) -0.23332(15) 1.07047(9)
C32 C 0.05216(13) -0.32814(17) 1.05889(11)
H22 H 0.0041 -0.3243 1.0171
C33 C 0.05354(17) -0.42849(19) 1.11039(14)
H23 H 0.0061 -0.4927 1.1040
C34 C 0.12583(18) -0.4321(2) 1.17110(13)
H24 H 0.1278 -0.4980 1.2068
C35 C 0.19494(16) -0.3370(2) 1.17810(11)
H25 H 0.2443 -0.3413 1.2190
N1 N 0.38793(9) 0.57802(12) 1.06252(7)
N2 N 0.06237(9) -0.12729(12) 0.95393(7)
N3 N 0.19577(11) -0.23785(14) 1.12957(8)
O1 O 0.30133(13) 1.03588(14) 0.81138(8)
loop_
_geom_bond_atom_site_label_1
_geom_bond_atom_site_label_2
_geom_bond_site_symmetry_1
_geom_bond_site_symmetry_2
C1 H1 1_555 1_555
C2 C1 1_555 1_555
C3 C2 1_555 1_555
H2 C3 1_555 1_555
C4 C3 1_555 1_555
H3 C4 1_555 1_555
C5 C4 1_555 1_555
C6 C2 1_555 1_555
H4 C6 1_555 1_555
C7 C5 1_555 1_555
H5 C7 1_555 1_555
C8 C9 1_555 1_555
C9 H6 1_555 1_555
C10 C9 1_555 1_555
H7 C10 1_555 1_555
C11 C10 1_555 1_555
H8 C11 1_555 1_555
C12 C11 1_555 1_555
H9 C12 1_555 1_555
C13 C8 1_555 1_555
H10 C13 1_555 1_555
C14 C15 1_555 1_555
C15 H11 1_555 1_555
C16 C14 1_555 1_555
H12 C16 1_555 1_555
C17 C16 1_555 1_555
H13 C17 1_555 1_555
C18 C15 1_555 1_555
H14 C18 1_555 1_555
C19 C17 1_555 1_555
C20 C19 1_555 1_555
C21 C20 1_555 1_555
H15 C21 1_555 1_555
C22 C20 1_555 1_555
H16 C22 1_555 1_555
C23 C22 1_555 1_555
C24 C21 1_555 1_555
C25 C24 1_555 1_555
C26 C25 1_555 1_555
H17 C26 1_555 1_555
C27 C26 1_555 1_555
H18 C27 1_555 1_555
C28 C27 1_555 1_555
H19 C28 1_555 1_555
C29 C28 1_555 1_555
H20 C29 1_555 1_555
C30 C25 1_555 1_555
H21 C30 1_555 1_555
C31 C23 1_555 1_555
C32 C31 1_555 1_555
H22 C32 1_555 1_555
C33 C32 1_555 1_555
H23 C33 1_555 1_555
C34 C33 1_555 1_555
H24 C34 1_555 1_555
C35 C34 1_555 1_555
H25 C35 1_555 1_555
N1 C5 1_555 1_555
N2 C23 1_555 1_555
N3 C31 1_555 1_555
O1 C1 1_555 1_555
C6 C7 1_555 1_555
C8 N1 1_555 1_555
C12 C13 1_555 1_555
C14 N1 1_555 1_555
C18 C19 1_555 1_555
C24 N2 1_555 1_555
C29 C30 1_555 1_555
C35 N3 1_555 1_555

#END
