
#######################################################################
#
#                 Cambridge Crystallographic Data Centre
#                                CCDC 
#
#######################################################################
#
# If this CIF has been generated from an entry in the Cambridge 
# Structural Database, then it will include bibliographic, chemical, 
# crystal, experimental, refinement or atomic coordinate data resulting 
# from the CCDC's data processing and validation procedures.
#
#######################################################################

data_KOHZUD
_chemical_formula_moiety         'C16 H19 N2 P1 Se2'
_chemical_name_systematic        
"N'-(3-Phenylpropyl)carbamidoyl(phenyl)phosphinodiselenoic acid"
_symmetry_cell_setting           orthorhombic
_symmetry_space_group_name_H-M   'P c a 21'
_symmetry_Int_Tables_number      29
_space_group_name_Hall           'P 2c -2ac'
loop_
_symmetry_equiv_pos_site_id
_symmetry_equiv_pos_as_xyz
1 x,y,z
2 -x,-y,1/2+z
3 1/2+x,-y,z
4 1/2-x,y,1/2+z
_cell_length_a                   13.1547(7)
_cell_length_b                   7.4543(4)
_cell_length_c                   35.8185(19)
_cell_angle_alpha                90
_cell_angle_beta                 90
_cell_angle_gamma                90
_cell_volume                     3512.33
_exptl_crystal_colour            colorless
_exptl_crystal_description       platelet
_cell_formula_units_Z            8
loop_
_atom_site_label
_atom_site_type_symbol
_atom_site_fract_x
_atom_site_fract_y
_atom_site_fract_z
Se1 Se 0.81310(5) 0.39810(10) 0.79509(2)
Se2 Se 0.57477(5) 0.65467(9) 0.81288(2)
P1 P 0.65889(14) 0.4610(2) 0.78101(5)
C1 C 0.5855(5) 0.2456(9) 0.7864(2)
N1 N 0.6390(5) 0.0932(8) 0.7890(2)
H1 H 0.7120(12) 0.119(9) 0.790(2)
H2 H 0.610(7) -0.017(8) 0.799(3)
N2 N 0.4862(5) 0.2518(8) 0.78587(18)
H3 H 0.458(6) 0.359(7) 0.798(2)
C2 C 0.4187(6) 0.0949(9) 0.7820(2)
H4 H 0.3485 0.1292 0.7889
H5 H 0.4413 -0.0011 0.7992
C3 C 0.4195(6) 0.0243(10) 0.7420(2)
H6 H 0.3785 -0.0870 0.7409
H7 H 0.4902 -0.0073 0.7351
C4 C 0.3779(7) 0.1574(11) 0.7131(3)
H8 H 0.3045 0.1775 0.7177
H9 H 0.4133 0.2738 0.7157
C5 C 0.3929(6) 0.0864(10) 0.6740(2)
C6 C 0.3132(7) -0.0014(13) 0.6545(3)
H10 H 0.2476 -0.0075 0.6656
C7 C 0.3282(9) -0.0776(13) 0.6203(3)
H11 H 0.2732 -0.1345 0.6078
C8 C 0.4251(8) -0.0723(12) 0.6032(3)
H12 H 0.4363 -0.1281 0.5797
C9 C 0.5028(8) 0.0156(13) 0.6214(3)
H13 H 0.5680 0.0225 0.6101
C10 C 0.4868(7) 0.0947(11) 0.6563(3)
H14 H 0.5414 0.1556 0.6682
C11 C 0.6423(5) 0.4969(10) 0.7302(2)
C12 C 0.5558(7) 0.5845(11) 0.7172(2)
H15 H 0.5051 0.6214 0.7345
C13 C 0.5424(8) 0.6190(12) 0.6794(3)
H16 H 0.4827 0.6771 0.6706
C14 C 0.6189(8) 0.5659(12) 0.6545(3)
H17 H 0.6123 0.5922 0.6286
C15 C 0.7030(8) 0.4765(13) 0.6672(3)
H18 H 0.7532 0.4380 0.6499
C16 C 0.7163(7) 0.4407(12) 0.7052(2)
H19 H 0.7750 0.3789 0.7137
Se3 Se 0.48650(5) 0.08975(10) 0.39021(2)
Se4 Se 0.72650(5) -0.16280(9) 0.37102(2)
P2 P 0.64192(13) 0.0269(2) 0.40328(5)
C17 C 0.7111(5) 0.2475(9) 0.3989(2)
N3 N 0.6581(5) 0.3973(8) 0.3985(2)
H20 H 0.593(5) 0.374(16) 0.386(3)
H21 H 0.684(6) 0.520(4) 0.400(2)
N4 N 0.8115(4) 0.2424(8) 0.39923(19)
H22 H 0.845(4) 0.125(4) 0.3984(18)
C18 C 0.8787(6) 0.3993(10) 0.4026(2)
H23 H 0.8548 0.4943 0.3854
H24 H 0.9483 0.3648 0.3949
C19 C 0.8822(7) 0.4739(9) 0.4422(2)
H25 H 0.8127 0.5104 0.4496
H26 H 0.9253 0.5829 0.4423
C20 C 0.9236(7) 0.3418(11) 0.4715(2)
H27 H 0.8866 0.2266 0.4694
H28 H 0.9964 0.3183 0.4664
C21 C 0.9122(7) 0.4141(11) 0.5107(2)
C22 C 0.9910(7) 0.4994(13) 0.5287(3)
H29 H 1.0562 0.5056 0.5174
C23 C 0.9747(8) 0.5776(13) 0.5641(3)
H30 H 1.0297 0.6354 0.5764
C24 C 0.8824(9) 0.5724(14) 0.5810(3)
H31 H 0.8723 0.6285 0.6045
C25 C 0.8025(8) 0.4835(14) 0.5633(3)
H32 H 0.7379 0.4762 0.5751
C26 C 0.8173(7) 0.4060(12) 0.5286(3)
H33 H 0.7624 0.3462 0.5167
C27 C 0.6606(6) -0.0083(10) 0.4537(2)
C28 C 0.7474(7) -0.0955(10) 0.4670(3)
H34 H 0.7983 -0.1337 0.4500
C29 C 0.7598(8) -0.1268(12) 0.5049(3)
H35 H 0.8184 -0.1888 0.5135
C30 C 0.6883(8) -0.0692(13) 0.5303(2)
H36 H 0.6980 -0.0894 0.5562
C31 C 0.6010(8) 0.0196(13) 0.5175(3)
H37 H 0.5508 0.0588 0.5347
C32 C 0.5882(7) 0.0501(12) 0.4794(2)
H38 H 0.5294 0.1116 0.4708
loop_
_geom_bond_atom_site_label_1
_geom_bond_atom_site_label_2
_geom_bond_site_symmetry_1
_geom_bond_site_symmetry_2
Se1 P1 1_555 1_555
Se2 P1 1_555 1_555
P1 C1 1_555 1_555
C1 N1 1_555 1_555
N1 H1 1_555 1_555
H2 N1 1_555 1_555
N2 C1 1_555 1_555
H3 N2 1_555 1_555
C2 N2 1_555 1_555
H4 C2 1_555 1_555
H5 C2 1_555 1_555
C3 C2 1_555 1_555
H6 C3 1_555 1_555
H7 C3 1_555 1_555
C4 C3 1_555 1_555
H8 C4 1_555 1_555
H9 C4 1_555 1_555
C5 C4 1_555 1_555
C6 C5 1_555 1_555
H10 C6 1_555 1_555
C7 C6 1_555 1_555
H11 C7 1_555 1_555
C8 C7 1_555 1_555
H12 C8 1_555 1_555
C9 C8 1_555 1_555
H13 C9 1_555 1_555
C10 C5 1_555 1_555
H14 C10 1_555 1_555
C11 P1 1_555 1_555
C12 C11 1_555 1_555
H15 C12 1_555 1_555
C13 C12 1_555 1_555
H16 C13 1_555 1_555
C14 C13 1_555 1_555
H17 C14 1_555 1_555
C15 C14 1_555 1_555
H18 C15 1_555 1_555
C16 C11 1_555 1_555
H19 C16 1_555 1_555
Se3 P2 1_555 1_555
Se4 P2 1_555 1_555
P2 C17 1_555 1_555
C17 N3 1_555 1_555
N3 H20 1_555 1_555
H21 N3 1_555 1_555
N4 C17 1_555 1_555
H22 N4 1_555 1_555
C18 N4 1_555 1_555
H23 C18 1_555 1_555
H24 C18 1_555 1_555
C19 C18 1_555 1_555
H25 C19 1_555 1_555
H26 C19 1_555 1_555
C20 C19 1_555 1_555
H27 C20 1_555 1_555
H28 C20 1_555 1_555
C21 C20 1_555 1_555
C22 C21 1_555 1_555
H29 C22 1_555 1_555
C23 C22 1_555 1_555
H30 C23 1_555 1_555
C24 C23 1_555 1_555
H31 C24 1_555 1_555
C25 C24 1_555 1_555
H32 C25 1_555 1_555
C26 C21 1_555 1_555
H33 C26 1_555 1_555
C27 P2 1_555 1_555
C28 C27 1_555 1_555
H34 C28 1_555 1_555
C29 C28 1_555 1_555
H35 C29 1_555 1_555
C30 C29 1_555 1_555
H36 C30 1_555 1_555
C31 C30 1_555 1_555
H37 C31 1_555 1_555
C32 C27 1_555 1_555
H38 C32 1_555 1_555
C9 C10 1_555 1_555
C15 C16 1_555 1_555
C25 C26 1_555 1_555
C31 C32 1_555 1_555

#END
