
#######################################################################
#
#                 Cambridge Crystallographic Data Centre
#                                CCDC 
#
#######################################################################
#
# If this CIF has been generated from an entry in the Cambridge 
# Structural Database, then it will include bibliographic, chemical, 
# crystal, experimental, refinement or atomic coordinate data resulting 
# from the CCDC's data processing and validation procedures.
#
#######################################################################

data_KOJHEW
_chemical_formula_moiety         'C36 H34 N2 O10,C3 H6 O1'
_chemical_name_systematic        
"N-p-Tolyl-N-methoxycarbonyl-N'-p-tolyl-N'-(1,2,3,4-tetrakis(methoxycarbonylcyclopentanidyl))benzamidinium acetone unknown solvate"
_symmetry_cell_setting           rhombohedral
_symmetry_space_group_name_H-M   'R -3'
_symmetry_Int_Tables_number      148
_space_group_name_Hall           '-P 3*'
loop_
_symmetry_equiv_pos_site_id
_symmetry_equiv_pos_as_xyz
1 x,y,z
2 z,x,y
3 y,z,x
4 -x,-y,-z
5 -z,-x,-y
6 -y,-z,-x
_cell_length_a                   18.583(5)
_cell_length_b                   18.583(5)
_cell_length_c                   18.583(5)
_cell_angle_alpha                100.96(3)
_cell_angle_beta                 100.96(3)
_cell_angle_gamma                100.96(3)
_cell_volume                     6012.41
_exptl_crystal_colour            red
_chemical_melting_point          160-162deg.C
_cell_formula_units_Z            6
loop_
_atom_site_label
_atom_site_type_symbol
_atom_site_fract_x
_atom_site_fract_y
_atom_site_fract_z
O11 O 0.262(1) 0.339(1) 0.062(1)
C37 C 0.293(1) 0.364(1) 0.019(1)
C38 C 0.256(1) 0.359(1) -0.055(1)
C39 C 0.370(1) 0.395(1) 0.029(1)
H35 H 0.295(1) 0.384(1) -0.085(1)
H36 H 0.212(1) 0.389(1) -0.054(1)
H37 H 0.232(1) 0.301(1) -0.084(1)
H38 H 0.401(1) 0.398(1) 0.085(1)
H39 H 0.378(1) 0.451(1) 0.018(1)
H40 H 0.391(1) 0.359(1) -0.011(1)
C40 C 0.222 0.222 0.222
C41 C 0.277 0.277 0.277
C42 C 0.401 0.401 0.401
C44 C 0.342 0.342 0.342
O1 O 0.2134(2) 0.1958(3) 0.7562(3)
O2 O 0.2985(3) 0.4626(3) 0.7156(3)
O3 O 0.0638(5) 0.4711(4) 0.6194(4)
O4 O -0.0602(3) 0.2991(3) 0.6701(3)
O5 O 0.3024(3) 0.2913(3) 0.7473(3)
O6 O 0.2979(4) 0.3705(3) 0.6220(4)
O7 O 0.1664(4) 0.4628(4) 0.5780(4)
O8 O -0.0378(3) 0.3229(3) 0.5616(3)
O9 O -0.0464(3) 0.0856(3) 0.4529(2)
O10 O -0.1100(2) 0.1363(3) 0.5328(2)
N1 N 0.0537(2) 0.2048(2) 0.7042(2)
N2 N 0.0133(3) 0.1431(3) 0.5766(2)
C1 C 0.1774(3) 0.2935(3) 0.7031(3)
C2 C 0.1926(4) 0.3569(3) 0.6730(3)
C3 C 0.1241(4) 0.3744(3) 0.6438(3)
C4 C 0.0649(3) 0.3199(3) 0.6542(3)
C5 C 0.0967(3) 0.2708(3) 0.6892(3)
C6 C 0.2301(3) 0.2539(3) 0.7373(3)
C7 C 0.2686(4) 0.4022(4) 0.6739(4)
C8 C 0.1152(5) 0.4406(4) 0.6133(4)
C9 C -0.0160(4) 0.3133(4) 0.6310(4)
C10 C 0.3591(4) 0.2542(5) 0.7760(6)
C11 C 0.3682(8) 0.4096(9) 0.6150(10)
C12 C 0.1588(8) 0.5245(7) 0.5430(7)
C13 C -0.1160(5) 0.3227(7) 0.5355(6)
C14 C 0.0052(3) 0.1516(3) 0.6492(3)
C15 C -0.0554(3) 0.0963(3) 0.6641(3)
C16 C -0.1026(3) 0.1207(4) 0.7096(3)
C17 C -0.1600(4) 0.0678(5) 0.7206(4)
C18 C -0.1694(5) -0.0085(5) 0.6889(4)
C19 C -0.1239(5) -0.0308(4) 0.6439(4)
C20 C -0.0661(4) 0.0207(4) 0.6309(3)
C21 C 0.0602(3) 0.1992(3) 0.7819(3)
C22 C 0.0544(3) 0.2606(3) 0.8352(3)
C23 C 0.0621(4) 0.2564(4) 0.9093(3)
C24 C 0.0754(3) 0.1918(4) 0.9330(3)
C25 C 0.0821(3) 0.1327(4) 0.8786(3)
C26 C 0.0754(3) 0.1364(3) 0.8040(3)
C27 C 0.0850(5) 0.1877(5) 1.0136(4)
C28 C 0.0878(3) 0.1533(3) 0.5598(3)
C29 C 0.1355(4) 0.1124(4) 0.5865(4)
C30 C 0.2070(4) 0.1221(5) 0.5727(5)
C31 C 0.2295(4) 0.1737(5) 0.5324(5)
C32 C 0.1794(5) 0.2141(5) 0.5037(4)
C33 C 0.1087(4) 0.2053(4) 0.5181(4)
C34 C 0.3092(5) 0.1860(7) 0.5196(6)
C35 C -0.0513(4) 0.1167(3) 0.5135(3)
C36 C -0.1809(4) 0.1059(5) 0.4762(5)
H1 H 0.414 0.289(1) 0.782(1)
H2 H 0.353 0.201(1) 0.737(1)
H3 H 0.353 0.245(1) 0.830(1)
H4 H 0.386(1) 0.376(1) 0.570(1)
H5 H 0.410(1) 0.421(1) 0.667(1)
H6 H 0.362(1) 0.462(1) 0.602(1)
H7 H 0.205(1) 0.536(1) 0.516(1)
H8 H 0.161(1) 0.574(1) 0.586(1)
H9 H 0.106(1) 0.511(1) 0.502(1)
H10 H -0.125(1) 0.332(1) 0.479(1)
H11 H -0.132(1) 0.367(1) 0.572(1)
H12 H -0.150(1) 0.268(1) 0.535(1)
H13 H 0.077(1) 0.239(1) 1.046
H14 H 0.141(1) 0.181(1) 1.035
H15 H 0.044(1) 0.140(1) 1.018
H16 H 0.316(1) 0.228(1) 0.487(1)
H17 H 0.318(1) 0.134(1) 0.489(1)
H18 H 0.350(1) 0.205(1) 0.573(1)
H19 H -0.226 0.126(1) 0.498(1)
H20 H -0.194 0.045(1) 0.464(1)
H21 H -0.176 0.125(1) 0.426(1)
H22 H -0.094(4) 0.175(4) 0.733(4)
H23 H -0.196(4) 0.096(4) 0.754(4)
H24 H -0.205(4) -0.054(4) 0.706(4)
H25 H -0.121(4) -0.077(4) 0.620(4)
H26 H -0.047(4) 0.004(4) 0.590(4)
H27 H 0.032(4) 0.305(4) 0.812(4)
H28 H 0.058(4) 0.307(4) 0.945(4)
H29 H 0.086(4) 0.089(4) 0.896(4)
H30 H 0.093(4) 0.109(4) 0.772(4)
H31 H 0.114(4) 0.087(4) 0.612(4)
H32 H 0.242(4) 0.100(4) 0.603(4)
H33 H 0.190(4) 0.250(4) 0.472(4)
H34 H 0.086(4) 0.238(4) 0.496(4)
C43? C 0.437 0.393 0.423
C45? C 0.338 0.312 0.307
C46? C 0.251 0.215 0.323
C47? C 0.453 0.320 0.441
C48? C 0.199 0.227 0.296
loop_
_geom_bond_atom_site_label_1
_geom_bond_atom_site_label_2
_geom_bond_site_symmetry_1
_geom_bond_site_symmetry_2
O1 C6 1_555 1_555
O2 C7 1_555 1_555
O3 C8 1_555 1_555
O4 C9 1_555 1_555
O5 C6 1_555 1_555
O6 C7 1_555 1_555
O7 C8 1_555 1_555
O8 C9 1_555 1_555
O9 C35 1_555 1_555
O10 C35 1_555 1_555
N1 C5 1_555 1_555
N2 C14 1_555 1_555
C1 C2 1_555 1_555
C2 C3 1_555 1_555
C3 C4 1_555 1_555
C4 C5 1_555 1_555
C5 C1 1_555 1_555
C6 C1 1_555 1_555
C7 C2 1_555 1_555
C8 C3 1_555 1_555
C9 C4 1_555 1_555
C10 O5 1_555 1_555
C11 O6 1_555 1_555
C12 O7 1_555 1_555
C13 O8 1_555 1_555
C14 N1 1_555 1_555
C15 C14 1_555 1_555
C16 C15 1_555 1_555
C17 C16 1_555 1_555
C18 C17 1_555 1_555
C19 C18 1_555 1_555
C20 C15 1_555 1_555
C21 N1 1_555 1_555
C22 C21 1_555 1_555
C23 C22 1_555 1_555
C24 C23 1_555 1_555
C25 C24 1_555 1_555
C26 C21 1_555 1_555
C27 C24 1_555 1_555
C28 N2 1_555 1_555
C29 C28 1_555 1_555
C30 C29 1_555 1_555
C31 C30 1_555 1_555
C32 C31 1_555 1_555
C33 C28 1_555 1_555
C34 C31 1_555 1_555
C35 N2 1_555 1_555
C36 O10 1_555 1_555
O11 C37 1_555 1_555
C37 C38 1_555 1_555
C38 H35 1_555 1_555
C39 C37 1_555 1_555
C40 C41 1_555 1_555
C41 C44 1_555 1_555
C42 C44 1_555 1_555
H1 C10 1_555 1_555
H2 C10 1_555 1_555
H3 C10 1_555 1_555
H4 C11 1_555 1_555
H5 C11 1_555 1_555
H6 C11 1_555 1_555
H7 C12 1_555 1_555
H8 C12 1_555 1_555
H9 C12 1_555 1_555
H10 C13 1_555 1_555
H11 C13 1_555 1_555
H12 C13 1_555 1_555
H13 C27 1_555 1_555
H14 C27 1_555 1_555
H15 C27 1_555 1_555
H16 C34 1_555 1_555
H17 C34 1_555 1_555
H18 C34 1_555 1_555
H19 C36 1_555 1_555
H20 C36 1_555 1_555
H21 C36 1_555 1_555
H22 C16 1_555 1_555
H23 C17 1_555 1_555
H24 C18 1_555 1_555
H25 C19 1_555 1_555
H26 C20 1_555 1_555
H27 C22 1_555 1_555
H28 C23 1_555 1_555
H29 C25 1_555 1_555
H30 C26 1_555 1_555
H31 C29 1_555 1_555
H32 C30 1_555 1_555
H33 C32 1_555 1_555
H34 C33 1_555 1_555
H36 C38 1_555 1_555
H37 C38 1_555 1_555
H38 C39 1_555 1_555
H39 C39 1_555 1_555
H40 C39 1_555 1_555
C19 C20 1_555 1_555
C25 C26 1_555 1_555
C32 C33 1_555 1_555

#END
