
#######################################################################
#
#                 Cambridge Crystallographic Data Centre
#                                CCDC 
#
#######################################################################
#
# If this CIF has been generated from an entry in the Cambridge 
# Structural Database, then it will include bibliographic, chemical, 
# crystal, experimental, refinement or atomic coordinate data resulting 
# from the CCDC's data processing and validation procedures.
#
#######################################################################

data_KOJJEZ
_chemical_formula_moiety         'C21 H14 S1'
_chemical_name_systematic        10-Phenyl-10H-9-thiaindeno(1,2-a)indene
_symmetry_cell_setting           orthorhombic
_symmetry_space_group_name_H-M   'P n a 21'
_symmetry_Int_Tables_number      33
_space_group_name_Hall           'P 2c -2n'
loop_
_symmetry_equiv_pos_site_id
_symmetry_equiv_pos_as_xyz
1 x,y,z
2 -x,-y,1/2+z
3 1/2-x,1/2+y,1/2+z
4 1/2+x,1/2-y,z
_cell_length_a                   15.3000(19)
_cell_length_b                   6.0775(8)
_cell_length_c                   32.484(4)
_cell_angle_alpha                90
_cell_angle_beta                 90
_cell_angle_gamma                90
_cell_volume                     3020.55
_chemical_melting_point          '136-138 deg.C'
_cell_formula_units_Z            8
loop_
_atom_site_label
_atom_site_type_symbol
_atom_site_fract_x
_atom_site_fract_y
_atom_site_fract_z
S1 S 1.0253(1) 0.4270(2) 0.5282(1)
C1 C 1.0453(3) 0.6400(9) 0.5630(2)
C2 C 1.1081(4) 0.8025(11) 0.5595(2)
C3 C 1.1169(4) 0.9558(10) 0.5893(2)
C4 C 1.0640(4) 0.9447(11) 0.6244(2)
C5 C 1.0027(5) 0.7845(10) 0.6286(2)
C6 C 0.9903(3) 0.6301(8) 0.5984(2)
C7 C 0.9313(3) 0.4469(8) 0.5942(2)
C8 C 0.8618(3) 0.3443(9) 0.6181(2)
C9 C 0.8202(4) 0.4017(10) 0.6546(2)
C10 C 0.7570(6) 0.2613(13) 0.6691(3)
C11 C 0.7318(4) 0.0752(12) 0.6492(2)
C12 C 0.7721(4) 0.0183(11) 0.6126(2)
C13 C 0.8362(3) 0.1530(9) 0.5974(2)
C14 C 0.8875(3) 0.1237(9) 0.5572(2)
C15 C 0.9442(3) 0.3305(10) 0.5588(2)
C16 C 0.8326(3) 0.0902(8) 0.5196(2)
C17 C 0.7824(5) 0.2585(10) 0.5035(3)
C18 C 0.7316(5) 0.2275(13) 0.4676(3)
C19 C 0.7314(5) 0.0241(15) 0.4503(2)
C20 C 0.7799(5) -0.1434(13) 0.4653(2)
C21 C 0.8306(4) -0.1087(9) 0.5004(2)
H1 H 1.1444 0.8064 0.5365
H2 H 1.1578 1.0679 0.5866
H3 H 1.0710 1.0485 0.6452
H4 H 0.9686 0.7795 0.6522
H5 H 0.8346 0.5300 0.6686
H6 H 0.7299 0.2957 0.6939
H7 H 0.6879 -0.0132 0.6601
H8 H 0.7559 -0.1087 0.5985
H9 H 0.9258 -0.0045 0.5603
H10 H 0.7820 0.3947 0.5166
H11 H 0.6995 0.3423 0.4562
H12 H 0.6966 -0.0008 0.4273
H13 H 0.7796 -0.2800 0.4524
H14 H 0.8637 -0.2240 0.5110
S2 S 0.2776(1) 0.4130(2) 0.8638(1)
C22 C 0.3016(3) 0.6288(9) 0.8305(2)
C23 C 0.3637(4) 0.7909(11) 0.8358(2)
C24 C 0.3740(4) 0.9468(11) 0.8058(2)
C25 C 0.3229(4) 0.9449(10) 0.7704(2)
C26 C 0.2594(5) 0.7899(11) 0.7649(2)
C27 C 0.2467(3) 0.6264(8) 0.7951(2)
C28 C 0.1863(3) 0.4468(9) 0.7977(2)
C29 C 0.1163(3) 0.3518(10) 0.7721(2)
C30 C 0.0772(4) 0.4199(11) 0.7360(2)
C31 C 0.0107(5) 0.2924(15) 0.7194(2)
C32 C -0.0165(5) 0.1037(14) 0.7385(2)
C33 C 0.0218(4) 0.0345(12) 0.7760(2)
C34 C 0.0867(3) 0.1614(11) 0.7920(2)
C35 C 0.1389(4) 0.1216(9) 0.8319(2)
C36 C 0.1956(3) 0.3206(10) 0.8317(2)
C37 C 0.0837(3) 0.0843(9) 0.8702(2)
C38 C 0.0836(4) -0.1156(10) 0.8892(2)
C39 C 0.0360(5) -0.1504(13) 0.9242(2)
C40 C -0.0134(4) 0.0109(14) 0.9404(2)
C41 C -0.0160(6) 0.2129(14) 0.9198(3)
C42 C 0.0329(4) 0.2483(10) 0.8854(3)
H15 H 0.3981 0.7942 0.8594
H16 H 0.4160 1.0560 0.8091
H17 H 0.3321 1.0508 0.7502
H18 H 0.2248 0.7920 0.7413
H19 H 0.0952 0.5487 0.7230
H20 H -0.0158 0.3358 0.6949
H21 H -0.0608 0.0198 0.7267
H22 H 0.0033 -0.0930 0.7892
H23 H 0.1761 -0.0078 0.8278
H24 H 0.1164 -0.2301 0.8782
H25 H 0.0378 -0.2873 0.9370
H26 H -0.0449 -0.0113 0.9645
H27 H -0.0518 0.3247 0.9297
H28 H 0.0316 0.3846 0.8724
loop_
_geom_bond_atom_site_label_1
_geom_bond_atom_site_label_2
_geom_bond_site_symmetry_1
_geom_bond_site_symmetry_2
S1 C1 1_555 1_555
S2 C22 1_555 1_555
C1 C2 1_555 1_555
C2 C3 1_555 1_555
C3 C4 1_555 1_555
C4 C5 1_555 1_555
C5 C6 1_555 1_555
C6 C1 1_555 1_555
C7 C6 1_555 1_555
C8 C7 1_555 1_555
C9 C8 1_555 1_555
C10 C9 1_555 1_555
C11 C10 1_555 1_555
C12 C11 1_555 1_555
C13 C8 1_555 1_555
C14 C13 1_555 1_555
C15 S1 1_555 1_555
C16 C14 1_555 1_555
C17 C16 1_555 1_555
C18 C17 1_555 1_555
C19 C18 1_555 1_555
C20 C19 1_555 1_555
C21 C16 1_555 1_555
C22 C23 1_555 1_555
C23 C24 1_555 1_555
C24 C25 1_555 1_555
C25 C26 1_555 1_555
C26 C27 1_555 1_555
C27 C22 1_555 1_555
C28 C27 1_555 1_555
C29 C28 1_555 1_555
C30 C29 1_555 1_555
C31 C30 1_555 1_555
C32 C31 1_555 1_555
C33 C32 1_555 1_555
C34 C29 1_555 1_555
C35 C34 1_555 1_555
C36 S2 1_555 1_555
C37 C35 1_555 1_555
C38 C37 1_555 1_555
C39 C38 1_555 1_555
C40 C39 1_555 1_555
C41 C40 1_555 1_555
C42 C37 1_555 1_555
H1 C2 1_555 1_555
H2 C3 1_555 1_555
H3 C4 1_555 1_555
H4 C5 1_555 1_555
H5 C9 1_555 1_555
H6 C10 1_555 1_555
H7 C11 1_555 1_555
H8 C12 1_555 1_555
H9 C14 1_555 1_555
H10 C17 1_555 1_555
H11 C18 1_555 1_555
H12 C19 1_555 1_555
H13 C20 1_555 1_555
H14 C21 1_555 1_555
H15 C23 1_555 1_555
H16 C24 1_555 1_555
H17 C25 1_555 1_555
H18 C26 1_555 1_555
H19 C30 1_555 1_555
H20 C31 1_555 1_555
H21 C32 1_555 1_555
H22 C33 1_555 1_555
H23 C35 1_555 1_555
H24 C38 1_555 1_555
H25 C39 1_555 1_555
H26 C40 1_555 1_555
H27 C41 1_555 1_555
H28 C42 1_555 1_555
C7 C15 1_555 1_555
C12 C13 1_555 1_555
C14 C15 1_555 1_555
C20 C21 1_555 1_555
C28 C36 1_555 1_555
C33 C34 1_555 1_555
C35 C36 1_555 1_555
C41 C42 1_555 1_555

#END
