
#######################################################################
#
#                 Cambridge Crystallographic Data Centre
#                                CCDC 
#
#######################################################################
#
# If this CIF has been generated from an entry in the Cambridge 
# Structural Database, then it will include bibliographic, chemical, 
# crystal, experimental, refinement or atomic coordinate data resulting 
# from the CCDC's data processing and validation procedures.
#
#######################################################################

data_KOJJAW
_chemical_formula_moiety         'C80 H156 N4 O16 Sr4'
_chemical_name_systematic        
tetrakis(\m~3~-1-(3-(Dimethylamino)propoxy)-2-methylpropan-2-olato)-tetrakis(2,2,6,6-tetramethylheptane-3,5-dionato)-tetra-strontium
_symmetry_cell_setting           tetragonal
_symmetry_space_group_name_H-M   'I 41/a'
_symmetry_Int_Tables_number      88
_space_group_name_Hall           '-I 4ad'
loop_
_symmetry_equiv_pos_site_id
_symmetry_equiv_pos_as_xyz
1 x,y,z
2 1/2-x,-y,1/2+z
3 3/4-y,1/4+x,1/4+z
4 3/4+y,3/4-x,3/4+z
5 1/2+x,1/2+y,1/2+z
6 -x,1/2-y,z
7 1/4-y,3/4+x,3/4+z
8 1/4+y,1/4-x,1/4+z
9 -x,-y,-z
10 1/2+x,y,1/2-z
11 1/4+y,3/4-x,3/4-z
12 1/4-y,1/4+x,1/4-z
13 1/2-x,1/2-y,1/2-z
14 x,1/2+y,-z
15 3/4+y,1/4-x,1/4-z
16 3/4-y,3/4+x,3/4-z
_cell_length_a                   26.451(4)
_cell_length_b                   26.451(4)
_cell_length_c                   13.425(3)
_cell_angle_alpha                90
_cell_angle_beta                 90
_cell_angle_gamma                90
_cell_volume                     9392.87
_exptl_crystal_colour            colorless
_exptl_crystal_description       needle
_cell_formula_units_Z            4
_chemical_properties_physical    'Air-sensitive, Moisture-sensitive'
loop_
_atom_site_label
_atom_site_type_symbol
_atom_site_fract_x
_atom_site_fract_y
_atom_site_fract_z
Sr1 Sr 0.513475(12) 0.321301(12) 0.27081(2)
O1 O 0.49024(9) 0.35770(10) 0.11085(18)
O2 O 0.58410(9) 0.37085(9) 0.20641(18)
O3 O 0.51050(8) 0.31051(8) 0.45976(17)
O4 O 0.49364(10) 0.40303(9) 0.36475(18)
N1 N 0.36111(13) 0.49557(12) 0.3139(3)
C1 C 0.59312(13) 0.39772(13) 0.1308(3)
C2 C 0.55937(14) 0.40551(14) 0.0518(3)
H1 H 0.5707 0.4261 -0.0017
C3 C 0.51053(14) 0.38564(14) 0.0449(3)
C4 C 0.64510(14) 0.42431(15) 0.1309(3)
C5 C 0.6423(2) 0.4641(2) 0.2129(4)
H2 H 0.6355 0.4476 0.2769
H3 H 0.6150 0.4880 0.1979
H4 H 0.6745 0.4824 0.2166
C6 C 0.68553(17) 0.38593(19) 0.1536(4)
H5 H 0.6843 0.3588 0.1041
H6 H 0.6798 0.3718 0.2201
H7 H 0.7188 0.4023 0.1515
C7 C 0.65825(17) 0.45152(19) 0.0347(4)
H8 H 0.6912 0.4680 0.0417
H9 H 0.6324 0.4770 0.0203
H10 H 0.6596 0.4271 -0.0201
C8 C 0.47675(14) 0.39742(15) -0.0455(3)
C9 C 0.46366(19) 0.34715(17) -0.0956(3)
H11 H 0.4409 0.3533 -0.1519
H12 H 0.4470 0.3249 -0.0474
H13 H 0.4947 0.3310 -0.1197
C10 C 0.50038(18) 0.43225(19) -0.1220(3)
H14 H 0.5318 0.4172 -0.1470
H15 H 0.5079 0.4650 -0.0912
H16 H 0.4768 0.4371 -0.1775
C11 C 0.42839(17) 0.4220(2) -0.0064(3)
H17 H 0.4368 0.4537 0.0274
H18 H 0.4118 0.3991 0.0407
H19 H 0.4056 0.4290 -0.0622
C12 C 0.52139(13) 0.35665(13) 0.5113(3)
C13 C 0.57714(14) 0.37050(15) 0.4965(3)
H20 H 0.5985 0.3447 0.5276
H21 H 0.5839 0.4034 0.5274
H22 H 0.5847 0.3723 0.4252
C14 C 0.50953(15) 0.35062(15) 0.6223(3)
H23 H 0.4736 0.3424 0.6307
H24 H 0.5171 0.3823 0.6571
H25 H 0.5302 0.3233 0.6501
C15 C 0.48769(14) 0.39863(13) 0.4709(2)
H26 H 0.4519 0.3911 0.4869
H27 H 0.4967 0.4311 0.5030
C16 C 0.49970(15) 0.45380(13) 0.3285(3)
H28 H 0.5075 0.4526 0.2565
H29 H 0.5289 0.4696 0.3628
C17 C 0.45327(14) 0.48679(14) 0.3442(3)
H30 H 0.4468 0.4900 0.4166
H31 H 0.4602 0.5210 0.3178
C18 C 0.40638(15) 0.46590(15) 0.2940(3)
H32 H 0.4122 0.4647 0.2212
H33 H 0.4008 0.4308 0.3173
C19 C 0.36289(18) 0.54486(16) 0.2673(4)
H34 H 0.3913 0.5642 0.2948
H35 H 0.3312 0.5629 0.2804
H36 H 0.3674 0.5409 0.1953
C20 C 0.31622(19) 0.4684(2) 0.2808(5)
H37 H 0.2861 0.4886 0.2952
H38 H 0.3140 0.4360 0.3160
H39 H 0.3184 0.4622 0.2089
Sr1J Sr 0.571301(12) 0.236525(12) 0.47919(2)
O1J O 0.60770(10) 0.25976(9) 0.63915(18)
O2J O 0.62085(9) 0.16590(9) 0.54359(18)
O3J O 0.56051(8) 0.23950(8) 0.29024(17)
O4J O 0.65303(9) 0.25636(10) 0.38525(18)
N1J N 0.74557(12) 0.38889(13) 0.4361(3)
C1J C 0.64772(13) 0.15688(13) 0.6192(3)
C2J C 0.65551(14) 0.19063(14) 0.6982(3)
H1J H 0.6761 0.1793 0.7517
C3J C 0.63564(14) 0.23947(14) 0.7051(3)
C4J C 0.67431(15) 0.10490(14) 0.6191(3)
C5J C 0.7141(2) 0.1077(2) 0.5371(4)
H2J H 0.6976 0.1145 0.4731
H3J H 0.7380 0.1350 0.5521
H4J H 0.7324 0.0755 0.5334
C6J C 0.63593(19) 0.06447(17) 0.5964(4)
H5J H 0.6088 0.0657 0.6459
H6J H 0.6218 0.0702 0.5299
H7J H 0.6523 0.0312 0.5985
C7J C 0.70152(19) 0.09175(17) 0.7153(4)
H8J H 0.7180 0.0588 0.7083
H9J H 0.7270 0.1176 0.7297
H10J H 0.6771 0.0904 0.7701
C8J C 0.64742(15) 0.27325(14) 0.7955(3)
C9J C 0.59715(17) 0.28634(19) 0.8456(3)
H11J H 0.6033 0.3091 0.9019
H12J H 0.5749 0.3030 0.7974
H13J H 0.5810 0.2553 0.8697
C10J C 0.68225(19) 0.24962(18) 0.8720(3)
H14J H 0.6672 0.2182 0.8970
H15J H 0.7150 0.2421 0.8412
H16J H 0.6871 0.2732 0.9275
C11J C 0.6720(2) 0.32161(17) 0.7564(3)
H17J H 0.7037 0.3132 0.7226
H18J H 0.6491 0.3382 0.7093
H19J H 0.6790 0.3444 0.8122
C12J C 0.60665(13) 0.22861(13) 0.2387(3)
C13J C 0.62050(15) 0.17286(14) 0.2535(3)
H20J H 0.5947 0.1515 0.2224
H21J H 0.6534 0.1661 0.2226
H22J H 0.6223 0.1653 0.3248
C14J C 0.60062(15) 0.24047(15) 0.1277(3)
H23J H 0.5924 0.2764 0.1193
H24J H 0.6323 0.2329 0.0929
H25J H 0.5733 0.2198 0.0999
C15J C 0.64863(13) 0.26231(14) 0.2791(2)
H26J H 0.6411 0.2981 0.2631
H27J H 0.6811 0.2533 0.2470
C16J C 0.70380(13) 0.25030(15) 0.4215(3)
H28J H 0.7026 0.2425 0.4935
H29J H 0.7196 0.2211 0.3872
C17J C 0.73679(14) 0.29673(14) 0.4058(3)
H30J H 0.7400 0.3032 0.3334
H31J H 0.7710 0.2898 0.4322
C18J C 0.71590(15) 0.34362(15) 0.4560(3)
H32J H 0.7147 0.3378 0.5288
H33J H 0.6808 0.3492 0.4327
C19J C 0.79486(16) 0.38711(18) 0.4827(4)
H34J H 0.8142 0.3587 0.4552
H35J H 0.8129 0.4188 0.4696
H36J H 0.7909 0.3826 0.5547
C20J C 0.7184(2) 0.43378(19) 0.4692(5)
H37J H 0.7386 0.4639 0.4548
H38J H 0.6860 0.4360 0.4340
H39J H 0.7122 0.4316 0.5411
Sr1O Sr 0.428699(12) 0.263475(12) 0.47919(2)
O1O O 0.39230(10) 0.24024(9) 0.63915(18)
O2O O 0.37915(9) 0.33410(9) 0.54359(18)
O3O O 0.43949(8) 0.26050(8) 0.29024(17)
O4O O 0.34697(9) 0.24364(10) 0.38525(18)
N1O N 0.25443(12) 0.11111(13) 0.4361(3)
C1O C 0.35228(13) 0.34312(13) 0.6192(3)
C2O C 0.34449(14) 0.30937(14) 0.6982(3)
H1O H 0.3239 0.3207 0.7517
C3O C 0.36436(14) 0.26053(14) 0.7051(3)
C4O C 0.32569(15) 0.39510(14) 0.6191(3)
C5O C 0.2859(2) 0.3923(2) 0.5371(4)
H2O H 0.3024 0.3855 0.4731
H3O H 0.2620 0.3650 0.5521
H4O H 0.2676 0.4245 0.5334
C6O C 0.36407(19) 0.43553(17) 0.5964(4)
H5O H 0.3912 0.4343 0.6459
H6O H 0.3782 0.4298 0.5299
H7O H 0.3477 0.4688 0.5985
C7O C 0.29848(19) 0.40825(17) 0.7153(4)
H8O H 0.2820 0.4412 0.7083
H9O H 0.2730 0.3824 0.7297
H10O H 0.3229 0.4096 0.7701
C8O C 0.35258(15) 0.22675(14) 0.7955(3)
C9O C 0.40285(17) 0.21366(19) 0.8456(3)
H11O H 0.3967 0.1909 0.9019
H12O H 0.4251 0.1970 0.7974
H13O H 0.4190 0.2447 0.8697
C10O C 0.31775(19) 0.25038(18) 0.8720(3)
H14O H 0.3328 0.2818 0.8970
H15O H 0.2850 0.2579 0.8412
H16O H 0.3129 0.2268 0.9275
C11O C 0.3280(2) 0.17839(17) 0.7564(3)
H17O H 0.2963 0.1868 0.7226
H18O H 0.3509 0.1618 0.7093
H19O H 0.3210 0.1556 0.8122
C12O C 0.39335(13) 0.27139(13) 0.2387(3)
C13O C 0.37950(15) 0.32714(14) 0.2535(3)
H20O H 0.4053 0.3485 0.2224
H21O H 0.3466 0.3339 0.2226
H22O H 0.3777 0.3347 0.3248
C14O C 0.39938(15) 0.25953(15) 0.1277(3)
H23O H 0.4076 0.2236 0.1193
H24O H 0.3677 0.2671 0.0929
H25O H 0.4267 0.2802 0.0999
C15O C 0.35137(13) 0.23769(14) 0.2791(2)
H26O H 0.3589 0.2019 0.2631
H27O H 0.3189 0.2467 0.2470
C16O C 0.29620(13) 0.24970(15) 0.4215(3)
H28O H 0.2974 0.2575 0.4935
H29O H 0.2804 0.2789 0.3872
C17O C 0.26321(14) 0.20327(14) 0.4058(3)
H30O H 0.2600 0.1968 0.3334
H31O H 0.2290 0.2102 0.4322
C18O C 0.28410(15) 0.15638(15) 0.4560(3)
H32O H 0.2853 0.1622 0.5288
H33O H 0.3192 0.1508 0.4327
C19O C 0.20514(16) 0.11289(18) 0.4827(4)
H34O H 0.1858 0.1413 0.4552
H35O H 0.1871 0.0812 0.4696
H36O H 0.2091 0.1174 0.5547
C20O C 0.2816(2) 0.06622(19) 0.4692(5)
H37O H 0.2614 0.0361 0.4548
H38O H 0.3140 0.0640 0.4340
H39O H 0.2878 0.0684 0.5411
Sr1E Sr 0.486525(12) 0.178699(12) 0.27081(2)
O1E O 0.50976(9) 0.14230(10) 0.11085(18)
O2E O 0.41590(9) 0.12915(9) 0.20641(18)
O3E O 0.48950(8) 0.18949(8) 0.45976(17)
O4E O 0.50636(10) 0.09697(9) 0.36475(18)
N1E N 0.63889(13) 0.00443(12) 0.3139(3)
C1E C 0.40688(13) 0.10228(13) 0.1308(3)
C2E C 0.44063(14) 0.09449(14) 0.0518(3)
H1E H 0.4293 0.0739 -0.0017
C3E C 0.48947(14) 0.11436(14) 0.0449(3)
C4E C 0.35490(14) 0.07569(15) 0.1309(3)
C5E C 0.3577(2) 0.0359(2) 0.2129(4)
H2E H 0.3645 0.0524 0.2769
H3E H 0.3850 0.0120 0.1979
H4E H 0.3255 0.0176 0.2166
C6E C 0.31447(17) 0.11407(19) 0.1536(4)
H5E H 0.3157 0.1412 0.1041
H6E H 0.3202 0.1282 0.2201
H7E H 0.2812 0.0977 0.1515
C7E C 0.34175(17) 0.04848(19) 0.0347(4)
H8E H 0.3088 0.0320 0.0417
H9E H 0.3676 0.0230 0.0203
H10E H 0.3404 0.0729 -0.0201
C8E C 0.52325(14) 0.10258(15) -0.0455(3)
C9E C 0.53634(19) 0.15285(17) -0.0956(3)
H11E H 0.5591 0.1467 -0.1519
H12E H 0.5530 0.1751 -0.0474
H13E H 0.5053 0.1690 -0.1197
C10E C 0.49962(18) 0.06775(19) -0.1220(3)
H14E H 0.4682 0.0828 -0.1470
H15E H 0.4921 0.0350 -0.0912
H16E H 0.5232 0.0629 -0.1775
C11E C 0.57161(17) 0.0780(2) -0.0064(3)
H17E H 0.5632 0.0463 0.0274
H18E H 0.5882 0.1009 0.0407
H19E H 0.5944 0.0710 -0.0622
C12E C 0.47861(13) 0.14335(13) 0.5113(3)
C13E C 0.42286(14) 0.12950(15) 0.4965(3)
H20E H 0.4015 0.1553 0.5276
H21E H 0.4161 0.0966 0.5274
H22E H 0.4153 0.1277 0.4252
C14E C 0.49047(15) 0.14938(15) 0.6223(3)
H23E H 0.5264 0.1576 0.6307
H24E H 0.4829 0.1177 0.6571
H25E H 0.4698 0.1767 0.6501
C15E C 0.51231(14) 0.10137(13) 0.4709(2)
H26E H 0.5481 0.1089 0.4869
H27E H 0.5033 0.0689 0.5030
C16E C 0.50030(15) 0.04620(13) 0.3285(3)
H28E H 0.4925 0.0474 0.2565
H29E H 0.4711 0.0304 0.3628
C17E C 0.54673(14) 0.01321(14) 0.3442(3)
H30E H 0.5532 0.0100 0.4166
H31E H 0.5398 -0.0210 0.3178
C18E C 0.59362(15) 0.03410(15) 0.2940(3)
H32E H 0.5878 0.0353 0.2212
H33E H 0.5992 0.0692 0.3173
C19E C 0.63711(18) -0.04486(16) 0.2673(4)
H34E H 0.6087 -0.0642 0.2948
H35E H 0.6688 -0.0629 0.2804
H36E H 0.6326 -0.0409 0.1953
C20E C 0.68378(19) 0.0316(2) 0.2808(5)
H37E H 0.7139 0.0114 0.2952
H38E H 0.6860 0.0640 0.3160
H39E H 0.6816 0.0378 0.2089
loop_
_geom_bond_atom_site_label_1
_geom_bond_atom_site_label_2
_geom_bond_site_symmetry_1
_geom_bond_site_symmetry_2
Sr1 O1 1_555 1_555
O1 C3 1_555 1_555
O2 Sr1 1_555 1_555
O3 Sr1 1_555 1_555
O4 Sr1 1_555 1_555
N1 C18 1_555 1_555
C1 O2 1_555 1_555
C2 C1 1_555 1_555
H1 C2 1_555 1_555
C3 C2 1_555 1_555
C4 C1 1_555 1_555
C5 C4 1_555 1_555
H2 C5 1_555 1_555
H3 C5 1_555 1_555
H4 C5 1_555 1_555
C6 C4 1_555 1_555
H5 C6 1_555 1_555
H6 C6 1_555 1_555
H7 C6 1_555 1_555
C7 C4 1_555 1_555
H8 C7 1_555 1_555
H9 C7 1_555 1_555
H10 C7 1_555 1_555
C8 C3 1_555 1_555
C9 C8 1_555 1_555
H11 C9 1_555 1_555
H12 C9 1_555 1_555
H13 C9 1_555 1_555
C10 C8 1_555 1_555
H14 C10 1_555 1_555
H15 C10 1_555 1_555
H16 C10 1_555 1_555
C11 C8 1_555 1_555
H17 C11 1_555 1_555
H18 C11 1_555 1_555
H19 C11 1_555 1_555
C12 O3 1_555 1_555
C13 C12 1_555 1_555
H20 C13 1_555 1_555
H21 C13 1_555 1_555
H22 C13 1_555 1_555
C14 C12 1_555 1_555
H23 C14 1_555 1_555
H24 C14 1_555 1_555
H25 C14 1_555 1_555
C15 O4 1_555 1_555
H26 C15 1_555 1_555
H27 C15 1_555 1_555
C16 O4 1_555 1_555
H28 C16 1_555 1_555
H29 C16 1_555 1_555
C17 C16 1_555 1_555
H30 C17 1_555 1_555
H31 C17 1_555 1_555
C18 C17 1_555 1_555
H32 C18 1_555 1_555
H33 C18 1_555 1_555
C19 N1 1_555 1_555
H34 C19 1_555 1_555
H35 C19 1_555 1_555
H36 C19 1_555 1_555
C20 N1 1_555 1_555
H37 C20 1_555 1_555
H38 C20 1_555 1_555
H39 C20 1_555 1_555
Sr1J O3 1_555 1_555
O1J Sr1J 1_555 1_555
O2J Sr1J 1_555 1_555
O3J Sr1 1_555 1_555
O4J Sr1J 1_555 1_555
N1J C18J 1_555 1_555
C1J O2J 1_555 1_555
C2J C1J 1_555 1_555
H1J C2J 1_555 1_555
C3J O1J 1_555 1_555
C4J C1J 1_555 1_555
C5J C4J 1_555 1_555
H2J C5J 1_555 1_555
H3J C5J 1_555 1_555
H4J C5J 1_555 1_555
C6J C4J 1_555 1_555
H5J C6J 1_555 1_555
H6J C6J 1_555 1_555
H7J C6J 1_555 1_555
C7J C4J 1_555 1_555
H8J C7J 1_555 1_555
H9J C7J 1_555 1_555
H10J C7J 1_555 1_555
C8J C3J 1_555 1_555
C9J C8J 1_555 1_555
H11J C9J 1_555 1_555
H12J C9J 1_555 1_555
H13J C9J 1_555 1_555
C10J C8J 1_555 1_555
H14J C10J 1_555 1_555
H15J C10J 1_555 1_555
H16J C10J 1_555 1_555
C11J C8J 1_555 1_555
H17J C11J 1_555 1_555
H18J C11J 1_555 1_555
H19J C11J 1_555 1_555
C12J O3J 1_555 1_555
C13J C12J 1_555 1_555
H20J C13J 1_555 1_555
H21J C13J 1_555 1_555
H22J C13J 1_555 1_555
C14J C12J 1_555 1_555
H23J C14J 1_555 1_555
H24J C14J 1_555 1_555
H25J C14J 1_555 1_555
C15J O4J 1_555 1_555
H26J C15J 1_555 1_555
H27J C15J 1_555 1_555
C16J O4J 1_555 1_555
H28J C16J 1_555 1_555
H29J C16J 1_555 1_555
C17J C16J 1_555 1_555
H30J C17J 1_555 1_555
H31J C17J 1_555 1_555
C18J C17J 1_555 1_555
H32J C18J 1_555 1_555
H33J C18J 1_555 1_555
C19J N1J 1_555 1_555
H34J C19J 1_555 1_555
H35J C19J 1_555 1_555
H36J C19J 1_555 1_555
C20J N1J 1_555 1_555
H37J C20J 1_555 1_555
H38J C20J 1_555 1_555
H39J C20J 1_555 1_555
Sr1O O3 1_555 1_555
O1O Sr1O 1_555 1_555
O2O Sr1O 1_555 1_555
O3O Sr1 1_555 1_555
O4O Sr1O 1_555 1_555
N1O C18O 1_555 1_555
C1O O2O 1_555 1_555
C2O C1O 1_555 1_555
H1O C2O 1_555 1_555
C3O O1O 1_555 1_555
C4O C1O 1_555 1_555
C5O C4O 1_555 1_555
H2O C5O 1_555 1_555
H3O C5O 1_555 1_555
H4O C5O 1_555 1_555
C6O C4O 1_555 1_555
H5O C6O 1_555 1_555
H6O C6O 1_555 1_555
H7O C6O 1_555 1_555
C7O C4O 1_555 1_555
H8O C7O 1_555 1_555
H9O C7O 1_555 1_555
H10O C7O 1_555 1_555
C8O C3O 1_555 1_555
C9O C8O 1_555 1_555
H11O C9O 1_555 1_555
H12O C9O 1_555 1_555
H13O C9O 1_555 1_555
C10O C8O 1_555 1_555
H14O C10O 1_555 1_555
H15O C10O 1_555 1_555
H16O C10O 1_555 1_555
C11O C8O 1_555 1_555
H17O C11O 1_555 1_555
H18O C11O 1_555 1_555
H19O C11O 1_555 1_555
C12O O3O 1_555 1_555
C13O C12O 1_555 1_555
H20O C13O 1_555 1_555
H21O C13O 1_555 1_555
H22O C13O 1_555 1_555
C14O C12O 1_555 1_555
H23O C14O 1_555 1_555
H24O C14O 1_555 1_555
H25O C14O 1_555 1_555
C15O O4O 1_555 1_555
H26O C15O 1_555 1_555
H27O C15O 1_555 1_555
C16O O4O 1_555 1_555
H28O C16O 1_555 1_555
H29O C16O 1_555 1_555
C17O C16O 1_555 1_555
H30O C17O 1_555 1_555
H31O C17O 1_555 1_555
C18O C17O 1_555 1_555
H32O C18O 1_555 1_555
H33O C18O 1_555 1_555
C19O N1O 1_555 1_555
H34O C19O 1_555 1_555
H35O C19O 1_555 1_555
H36O C19O 1_555 1_555
C20O N1O 1_555 1_555
H37O C20O 1_555 1_555
H38O C20O 1_555 1_555
H39O C20O 1_555 1_555
Sr1E O3J 1_555 1_555
O1E Sr1E 1_555 1_555
O2E Sr1E 1_555 1_555
O3E Sr1J 1_555 1_555
O4E Sr1E 1_555 1_555
N1E C18E 1_555 1_555
C1E O2E 1_555 1_555
C2E C1E 1_555 1_555
H1E C2E 1_555 1_555
C3E O1E 1_555 1_555
C4E C1E 1_555 1_555
C5E C4E 1_555 1_555
H2E C5E 1_555 1_555
H3E C5E 1_555 1_555
H4E C5E 1_555 1_555
C6E C4E 1_555 1_555
H5E C6E 1_555 1_555
H6E C6E 1_555 1_555
H7E C6E 1_555 1_555
C7E C4E 1_555 1_555
H8E C7E 1_555 1_555
H9E C7E 1_555 1_555
H10E C7E 1_555 1_555
C8E C3E 1_555 1_555
C9E C8E 1_555 1_555
H11E C9E 1_555 1_555
H12E C9E 1_555 1_555
H13E C9E 1_555 1_555
C10E C8E 1_555 1_555
H14E C10E 1_555 1_555
H15E C10E 1_555 1_555
H16E C10E 1_555 1_555
C11E C8E 1_555 1_555
H17E C11E 1_555 1_555
H18E C11E 1_555 1_555
H19E C11E 1_555 1_555
C12E O3E 1_555 1_555
C13E C12E 1_555 1_555
H20E C13E 1_555 1_555
H21E C13E 1_555 1_555
H22E C13E 1_555 1_555
C14E C12E 1_555 1_555
H23E C14E 1_555 1_555
H24E C14E 1_555 1_555
H25E C14E 1_555 1_555
C15E O4E 1_555 1_555
H26E C15E 1_555 1_555
H27E C15E 1_555 1_555
C16E O4E 1_555 1_555
H28E C16E 1_555 1_555
H29E C16E 1_555 1_555
C17E C16E 1_555 1_555
H30E C17E 1_555 1_555
H31E C17E 1_555 1_555
C18E C17E 1_555 1_555
H32E C18E 1_555 1_555
H33E C18E 1_555 1_555
C19E N1E 1_555 1_555
H34E C19E 1_555 1_555
H35E C19E 1_555 1_555
H36E C19E 1_555 1_555
C20E N1E 1_555 1_555
H37E C20E 1_555 1_555
H38E C20E 1_555 1_555
H39E C20E 1_555 1_555
C12 C15 1_555 1_555
Sr1J O3J 1_555 1_555
C2J C3J 1_555 1_555
C12J C15J 1_555 1_555
Sr1O O3O 1_555 1_555
Sr1O O3E 1_555 1_555
O3O Sr1E 1_555 1_555
C2O C3O 1_555 1_555
C12O C15O 1_555 1_555
Sr1E O3E 1_555 1_555
C2E C3E 1_555 1_555
C12E C15E 1_555 1_555

#END
