
#######################################################################
#
#                 Cambridge Crystallographic Data Centre
#                                CCDC 
#
#######################################################################
#
# If this CIF has been generated from an entry in the Cambridge 
# Structural Database, then it will include bibliographic, chemical, 
# crystal, experimental, refinement or atomic coordinate data resulting 
# from the CCDC's data processing and validation procedures.
#
#######################################################################

data_KOJNEE01
_chemical_formula_moiety         'C42 H50 S2 Si2'
_chemical_name_systematic        
(Indeno[2,1-b]indeno[1',2':4,5]thieno[2,3-d]thiene-5,11-diyldiethyne-2,1-diyl)bis(tri-isopropylsilane)
_symmetry_cell_setting           triclinic
_symmetry_space_group_name_H-M   'P -1'
_symmetry_Int_Tables_number      2
_space_group_name_Hall           '-P 1'
loop_
_symmetry_equiv_pos_site_id
_symmetry_equiv_pos_as_xyz
1 x,y,z
2 -x,-y,-z
_cell_length_a                   7.402(6)
_cell_length_b                   14.535(11)
_cell_length_c                   18.955(14)
_cell_angle_alpha                73.693(15)
_cell_angle_beta                 83.913(16)
_cell_angle_gamma                77.680(14)
_cell_volume                     1909.9
_exptl_crystal_colour            black
_exptl_crystal_description       plate
_cell_formula_units_Z            2
_chemical_properties_physical    'Air-sensitive, Light-sensitive'
_exptl_crystal_recrystallization_method chloroform/acetonitrile
loop_
_atom_site_label
_atom_site_type_symbol
_atom_site_fract_x
_atom_site_fract_y
_atom_site_fract_z
S1 S 0.37287(19) 0.49657(8) 0.60660(6)
Si1 Si 0.0183(2) 0.76402(10) 0.77675(7)
C1 C 0.4733(7) 0.4598(3) 0.5297(2)
C2 C 0.3933(7) 0.6164(3) 0.5620(2)
C3 C 0.3461(7) 0.7052(3) 0.5771(2)
C4 C 0.4081(7) 0.7776(3) 0.5124(2)
C5 C 0.3945(7) 0.8763(3) 0.5000(3)
H1 H 0.3392 0.9088 0.5362
C6 C 0.4649(8) 0.9283(3) 0.4319(3)
H2 H 0.4583 0.9967 0.4224
C7 C 0.5428(7) 0.8819(3) 0.3789(3)
H3 H 0.5872 0.9189 0.3331
C8 C 0.5576(7) 0.7817(3) 0.3913(3)
H4 H 0.6131 0.7497 0.3548
C9 C 0.4897(7) 0.7296(3) 0.4579(3)
C10 C 0.4814(7) 0.6270(3) 0.4884(2)
C11 C 0.2504(7) 0.7274(3) 0.6412(3)
C12 C 0.1646(8) 0.7475(3) 0.6946(3)
C13 C 0.0027(8) 0.8915(4) 0.7805(3)
H5 H -0.0612 0.9330 0.7352
C14 C -0.1235(11) 0.9188(5) 0.8456(4)
H6 H -0.0715 0.8785 0.8924
H7 H -0.2480 0.9072 0.8430
H8 H -0.1303 0.9879 0.8425
C15 C 0.1863(10) 0.9262(4) 0.7761(3)
H9 H 0.1615 0.9970 0.7696
H10 H 0.2639 0.9105 0.7343
H11 H 0.2507 0.8933 0.8217
C16 C 0.1279(9) 0.6659(4) 0.8564(3)
H12 H 0.1519 0.6048 0.8397
C17 C 0.0015(10) 0.6456(5) 0.9242(3)
H13 H 0.0689 0.5949 0.9636
H14 H -0.1053 0.6231 0.9131
H15 H -0.0413 0.7055 0.9402
C18 C 0.3179(9) 0.6780(4) 0.8718(3)
H16 H 0.3049 0.7357 0.8903
H17 H 0.3962 0.6860 0.8262
H18 H 0.3751 0.6199 0.9087
C19 C -0.2161(8) 0.7446(4) 0.7629(3)
H19 H -0.2929 0.7451 0.8095
C20 C -0.3157(9) 0.8263(4) 0.7006(3)
H20 H -0.2321 0.8370 0.6567
H21 H -0.3522 0.8867 0.7163
H22 H -0.4262 0.8072 0.6892
C21 C -0.2064(10) 0.6449(4) 0.7478(4)
H23 H -0.3313 0.6373 0.7410
H24 H -0.1535 0.5926 0.7897
H25 H -0.1282 0.6413 0.7032
S1A S 0.62713(19) 0.50343(8) 0.39340(6)
Si1A Si 0.9817(2) 0.23598(10) 0.22325(7)
C1A C 0.5267(7) 0.5402(3) 0.4703(2)
C2A C 0.6067(7) 0.3836(3) 0.4380(2)
C3A C 0.6539(7) 0.2948(3) 0.4229(2)
C4A C 0.5919(7) 0.2224(3) 0.4876(2)
C5A C 0.6055(7) 0.1237(3) 0.5000(3)
H1A H 0.6608 0.0912 0.4638
C6A C 0.5351(8) 0.0717(3) 0.5681(3)
H2A H 0.5417 0.0033 0.5776
C7A C 0.4572(7) 0.1181(3) 0.6211(3)
H3A H 0.4128 0.0811 0.6669
C8A C 0.4424(7) 0.2183(3) 0.6087(3)
H4A H 0.3869 0.2503 0.6452
C9A C 0.5103(7) 0.2704(3) 0.5421(3)
C10A C 0.5186(7) 0.3730(3) 0.5116(2)
C11A C 0.7496(7) 0.2726(3) 0.3588(3)
C12A C 0.8354(8) 0.2525(3) 0.3054(3)
C13A C 0.9973(8) 0.1085(4) 0.2195(3)
H5A H 1.0612 0.0670 0.2648
C14A C 1.1235(11) 0.0812(5) 0.1544(4)
H6A H 1.0715 0.1215 0.1076
H7A H 1.2480 0.0928 0.1570
H8A H 1.1303 0.0121 0.1575
C15A C 0.8137(10) 0.0738(4) 0.2239(3)
H9A H 0.8385 0.0030 0.2304
H10A H 0.7361 0.0895 0.2657
H11A H 0.7493 0.1067 0.1783
C16A C 0.8721(9) 0.3341(4) 0.1436(3)
H12A H 0.8481 0.3952 0.1603
C17A C 0.9985(10) 0.3544(5) 0.0758(3)
H13A H 0.9311 0.4051 0.0364
H14A H 1.1053 0.3769 0.0869
H15A H 1.0413 0.2945 0.0598
C18A C 0.6821(9) 0.3220(4) 0.1282(3)
H16A H 0.6951 0.2643 0.1097
H17A H 0.6038 0.3140 0.1738
H18A H 0.6249 0.3801 0.0913
C19A C 1.2161(8) 0.2554(4) 0.2371(3)
H19A H 1.2929 0.2549 0.1905
C20A C 1.3157(9) 0.1737(4) 0.2994(3)
H20A H 1.2321 0.1630 0.3433
H21A H 1.3522 0.1133 0.2837
H22A H 1.4262 0.1928 0.3108
C21A C 1.2064(10) 0.3551(4) 0.2522(4)
H23A H 1.3313 0.3627 0.2590
H24A H 1.1535 0.4074 0.2103
H25A H 1.1282 0.3587 0.2968
S2 S 0.13691(19) 0.48740(8) 0.39752(6)
Si2 Si 0.4669(2) 0.73465(10) 0.13812(7)
C22 C 0.0316(7) 0.4575(3) 0.4856(2)
C23 C 0.0972(7) 0.6097(3) 0.3986(2)
C24 C 0.1371(7) 0.6948(3) 0.3524(2)
C25 C 0.0632(7) 0.7724(3) 0.3907(2)
C26 C 0.0632(7) 0.8706(3) 0.3687(3)
H26 H 0.1162 0.8992 0.3219
C27 C -0.0155(7) 0.9275(3) 0.4159(3)
H27 H -0.0175 0.9958 0.4010
C28 C -0.0915(8) 0.8859(3) 0.4848(3)
H28 H -0.1422 0.9260 0.5168
C29 C -0.0942(7) 0.7868(3) 0.5075(2)
H29 H -0.1469 0.7584 0.5544
C30 C -0.0182(7) 0.7307(3) 0.4600(2)
C31 C 0.0042(7) 0.6264(3) 0.4663(2)
C32 C 0.2357(7) 0.7100(3) 0.2827(3)
C33 C 0.3220(8) 0.7236(3) 0.2242(3)
C34 C 0.3594(9) 0.8492(4) 0.0697(3)
H30 H 0.3583 0.9037 0.0923
C35 C 0.1575(11) 0.8539(5) 0.0561(4)
H31 H 0.1048 0.9196 0.0269
H32 H 0.0872 0.8390 0.1034
H33 H 0.1509 0.8061 0.0293
C36 C 0.4724(11) 0.8730(5) -0.0036(3)
H34 H 0.4721 0.8238 -0.0298
H35 H 0.6000 0.8728 0.0060
H36 H 0.4171 0.9376 -0.0337
C37 C 0.4821(9) 0.6168(4) 0.1123(3)
H37 H 0.5310 0.5637 0.1560
C38 C 0.3003(11) 0.5958(5) 0.0995(4)
H38 H 0.2488 0.6431 0.0549
H39 H 0.2140 0.6009 0.1418
H40 H 0.3192 0.5296 0.0933
C39 C 0.6257(10) 0.6068(4) 0.0492(3)
H41 H 0.6263 0.5459 0.0365
H42 H 0.7486 0.6059 0.0645
H43 H 0.5941 0.6623 0.0061
C40 C 0.7048(9) 0.7465(4) 0.1574(3)
H44 H 0.7824 0.7515 0.1105
C41 C 0.7980(9) 0.6561(4) 0.2143(3)
H45 H 0.9217 0.6641 0.2224
H46 H 0.8088 0.5982 0.1962
H47 H 0.7233 0.6481 0.2607
C42 C 0.6988(11) 0.8405(5) 0.1814(3)
H48 H 0.6138 0.8408 0.2247
H49 H 0.6557 0.8978 0.1411
H50 H 0.8231 0.8424 0.1936
S2A S -0.13691(19) 0.51260(8) 0.60248(6)
Si2A Si -0.4669(2) 0.26535(10) 0.86188(7)
C22A C -0.0316(7) 0.5425(3) 0.5144(2)
C23A C -0.0972(7) 0.3903(3) 0.6014(2)
C24A C -0.1371(7) 0.3052(3) 0.6476(2)
C25A C -0.0632(7) 0.2276(3) 0.6093(2)
C26A C -0.0632(7) 0.1294(3) 0.6313(3)
H26A H -0.1162 0.1008 0.6781
C27A C 0.0155(7) 0.0725(3) 0.5841(3)
H27A H 0.0175 0.0042 0.5990
C28A C 0.0915(8) 0.1141(3) 0.5152(3)
H28A H 0.1422 0.0740 0.4832
C29A C 0.0942(7) 0.2132(3) 0.4925(2)
H29A H 0.1469 0.2416 0.4456
C30A C 0.0182(7) 0.2693(3) 0.5400(2)
C31A C -0.0042(7) 0.3736(3) 0.5337(2)
C32A C -0.2357(7) 0.2900(3) 0.7173(3)
C33A C -0.3220(8) 0.2764(3) 0.7758(3)
C34A C -0.3594(9) 0.1508(4) 0.9303(3)
H30A H -0.3583 0.0963 0.9077
C35A C -0.1575(11) 0.1461(5) 0.9439(4)
H31A H -0.1048 0.0804 0.9731
H32A H -0.0872 0.1610 0.8966
H33A H -0.1509 0.1939 0.9707
C36A C -0.4724(11) 0.1270(5) 1.0036(3)
H34A H -0.4721 0.1762 1.0298
H35A H -0.6000 0.1272 0.9940
H36A H -0.4171 0.0624 1.0337
C37A C -0.4821(9) 0.3832(4) 0.8877(3)
H37A H -0.5310 0.4363 0.8440
C38A C -0.3003(11) 0.4042(5) 0.9005(4)
H38A H -0.2488 0.3569 0.9451
H39A H -0.2140 0.3991 0.8582
H40A H -0.3192 0.4704 0.9067
C39A C -0.6257(10) 0.3932(4) 0.9508(3)
H41A H -0.6263 0.4541 0.9635
H42A H -0.7486 0.3941 0.9355
H43A H -0.5941 0.3377 0.9939
C40A C -0.7048(9) 0.2535(4) 0.8426(3)
H44A H -0.7824 0.2485 0.8895
C41A C -0.7980(9) 0.3439(4) 0.7857(3)
H45A H -0.9217 0.3359 0.7776
H46A H -0.8088 0.4018 0.8038
H47A H -0.7233 0.3519 0.7393
C42A C -0.6988(11) 0.1595(5) 0.8186(3)
H48A H -0.6138 0.1592 0.7753
H49A H -0.6557 0.1022 0.8589
H50A H -0.8231 0.1576 0.8064
loop_
_geom_bond_atom_site_label_1
_geom_bond_atom_site_label_2
_geom_bond_site_symmetry_1
_geom_bond_site_symmetry_2
S1 C1 1_555 1_555
Si1 C12 1_555 1_555
C1 C1A 1_555 1_555
C2 S1 1_555 1_555
C3 C2 1_555 1_555
C4 C3 1_555 1_555
C5 C4 1_555 1_555
H1 C5 1_555 1_555
C6 C5 1_555 1_555
H2 C6 1_555 1_555
C7 C6 1_555 1_555
H3 C7 1_555 1_555
C8 C7 1_555 1_555
H4 C8 1_555 1_555
C9 C4 1_555 1_555
C10 C2 1_555 1_555
C11 C3 1_555 1_555
C12 C11 1_555 1_555
C13 Si1 1_555 1_555
H5 C13 1_555 1_555
C14 C13 1_555 1_555
H6 C14 1_555 1_555
H7 C14 1_555 1_555
H8 C14 1_555 1_555
C15 C13 1_555 1_555
H9 C15 1_555 1_555
H10 C15 1_555 1_555
H11 C15 1_555 1_555
C16 Si1 1_555 1_555
H12 C16 1_555 1_555
C17 C16 1_555 1_555
H13 C17 1_555 1_555
H14 C17 1_555 1_555
H15 C17 1_555 1_555
C18 C16 1_555 1_555
H16 C18 1_555 1_555
H17 C18 1_555 1_555
H18 C18 1_555 1_555
C19 Si1 1_555 1_555
H19 C19 1_555 1_555
C20 C19 1_555 1_555
H20 C20 1_555 1_555
H21 C20 1_555 1_555
H22 C20 1_555 1_555
C21 C19 1_555 1_555
H23 C21 1_555 1_555
H24 C21 1_555 1_555
H25 C21 1_555 1_555
S2 C22 1_555 1_555
Si2 C33 1_555 1_555
C22 C22A 1_555 1_555
C23 S2 1_555 1_555
C24 C23 1_555 1_555
C25 C24 1_555 1_555
C26 C25 1_555 1_555
H26 C26 1_555 1_555
C27 C26 1_555 1_555
H27 C27 1_555 1_555
C28 C27 1_555 1_555
H28 C28 1_555 1_555
C29 C28 1_555 1_555
H29 C29 1_555 1_555
C30 C25 1_555 1_555
C31 C23 1_555 1_555
C32 C24 1_555 1_555
C33 C32 1_555 1_555
C34 Si2 1_555 1_555
H30 C34 1_555 1_555
C35 C34 1_555 1_555
H31 C35 1_555 1_555
H32 C35 1_555 1_555
H33 C35 1_555 1_555
C36 C34 1_555 1_555
H34 C36 1_555 1_555
H35 C36 1_555 1_555
H36 C36 1_555 1_555
C37 Si2 1_555 1_555
H37 C37 1_555 1_555
C38 C37 1_555 1_555
H38 C38 1_555 1_555
H39 C38 1_555 1_555
H40 C38 1_555 1_555
C39 C37 1_555 1_555
H41 C39 1_555 1_555
H42 C39 1_555 1_555
H43 C39 1_555 1_555
C40 Si2 1_555 1_555
H44 C40 1_555 1_555
C41 C40 1_555 1_555
H45 C41 1_555 1_555
H46 C41 1_555 1_555
H47 C41 1_555 1_555
C42 C40 1_555 1_555
H48 C42 1_555 1_555
H49 C42 1_555 1_555
H50 C42 1_555 1_555
S1A C1A 1_555 1_555
Si1A C12A 1_555 1_555
C1A C10 1_555 1_555
C2A S1A 1_555 1_555
C3A C2A 1_555 1_555
C4A C3A 1_555 1_555
C5A C4A 1_555 1_555
H1A C5A 1_555 1_555
C6A C5A 1_555 1_555
H2A C6A 1_555 1_555
C7A C6A 1_555 1_555
H3A C7A 1_555 1_555
C8A C7A 1_555 1_555
H4A C8A 1_555 1_555
C9A C4A 1_555 1_555
C10A C1 1_555 1_555
C11A C3A 1_555 1_555
C12A C11A 1_555 1_555
C13A Si1A 1_555 1_555
H5A C13A 1_555 1_555
C14A C13A 1_555 1_555
H6A C14A 1_555 1_555
H7A C14A 1_555 1_555
H8A C14A 1_555 1_555
C15A C13A 1_555 1_555
H9A C15A 1_555 1_555
H10A C15A 1_555 1_555
H11A C15A 1_555 1_555
C16A Si1A 1_555 1_555
H12A C16A 1_555 1_555
C17A C16A 1_555 1_555
H13A C17A 1_555 1_555
H14A C17A 1_555 1_555
H15A C17A 1_555 1_555
C18A C16A 1_555 1_555
H16A C18A 1_555 1_555
H17A C18A 1_555 1_555
H18A C18A 1_555 1_555
C19A Si1A 1_555 1_555
H19A C19A 1_555 1_555
C20A C19A 1_555 1_555
H20A C20A 1_555 1_555
H21A C20A 1_555 1_555
H22A C20A 1_555 1_555
C21A C19A 1_555 1_555
H23A C21A 1_555 1_555
H24A C21A 1_555 1_555
H25A C21A 1_555 1_555
S2A C22A 1_555 1_555
Si2A C33A 1_555 1_555
C22A C31 1_555 1_555
C23A S2A 1_555 1_555
C24A C23A 1_555 1_555
C25A C24A 1_555 1_555
C26A C25A 1_555 1_555
H26A C26A 1_555 1_555
C27A C26A 1_555 1_555
H27A C27A 1_555 1_555
C28A C27A 1_555 1_555
H28A C28A 1_555 1_555
C29A C28A 1_555 1_555
H29A C29A 1_555 1_555
C30A C25A 1_555 1_555
C31A C22 1_555 1_555
C32A C24A 1_555 1_555
C33A C32A 1_555 1_555
C34A Si2A 1_555 1_555
H30A C34A 1_555 1_555
C35A C34A 1_555 1_555
H31A C35A 1_555 1_555
H32A C35A 1_555 1_555
H33A C35A 1_555 1_555
C36A C34A 1_555 1_555
H34A C36A 1_555 1_555
H35A C36A 1_555 1_555
H36A C36A 1_555 1_555
C37A Si2A 1_555 1_555
H37A C37A 1_555 1_555
C38A C37A 1_555 1_555
H38A C38A 1_555 1_555
H39A C38A 1_555 1_555
H40A C38A 1_555 1_555
C39A C37A 1_555 1_555
H41A C39A 1_555 1_555
H42A C39A 1_555 1_555
H43A C39A 1_555 1_555
C40A Si2A 1_555 1_555
H44A C40A 1_555 1_555
C41A C40A 1_555 1_555
H45A C41A 1_555 1_555
H46A C41A 1_555 1_555
H47A C41A 1_555 1_555
C42A C40A 1_555 1_555
H48A C42A 1_555 1_555
H49A C42A 1_555 1_555
H50A C42A 1_555 1_555
C8 C9 1_555 1_555
C9 C10 1_555 1_555
C29 C30 1_555 1_555
C30 C31 1_555 1_555
C2A C10A 1_555 1_555
C8A C9A 1_555 1_555
C9A C10A 1_555 1_555
C23A C31A 1_555 1_555
C29A C30A 1_555 1_555
C30A C31A 1_555 1_555

#END
