
#######################################################################
#
#                 Cambridge Crystallographic Data Centre
#                                CCDC 
#
#######################################################################
#
# If this CIF has been generated from an entry in the Cambridge 
# Structural Database, then it will include bibliographic, chemical, 
# crystal, experimental, refinement or atomic coordinate data resulting 
# from the CCDC's data processing and validation procedures.
#
#######################################################################

data_KOJNAA01
_chemical_formula_moiety         'C40 H50 S1 Si2'
_chemical_name_systematic        
(Di-indeno[2,1-b:1',2'-d]thiene-5,7-diyldiethyne-2,1-diyl)bis(tri-isopropylsilane)
_symmetry_cell_setting           monoclinic
_symmetry_space_group_name_H-M   'C 2/c'
_symmetry_Int_Tables_number      15
_space_group_name_Hall           '-C 2yn'
loop_
_symmetry_equiv_pos_site_id
_symmetry_equiv_pos_as_xyz
1 x,y,z
2 -x,y,1/2-z
3 1/2+x,1/2+y,z
4 1/2-x,1/2+y,1/2-z
5 -x,-y,-z
6 x,-y,1/2+z
7 1/2-x,1/2-y,-z
8 1/2+x,1/2-y,1/2+z
_cell_length_a                   18.8584(12)
_cell_length_b                   12.3701(8)
_cell_length_c                   15.9959(11)
_cell_angle_alpha                90
_cell_angle_beta                 104.724(4)
_cell_angle_gamma                90
_cell_volume                     3608.99
_exptl_crystal_colour            black
_exptl_crystal_description       prism
_cell_formula_units_Z            4
_chemical_properties_physical    'Air-sensitive, Light-sensitive'
_exptl_crystal_recrystallization_method chloroform/acetonitrile
loop_
_atom_site_label
_atom_site_type_symbol
_atom_site_fract_x
_atom_site_fract_y
_atom_site_fract_z
S1 S 0.0000 0.72892(6) 0.7500
Si1 Si 0.16747(4) 0.57361(5) 1.09910(4)
C1 C 0.02938(15) 0.82962(18) 0.82792(16)
C2 C 0.01598(14) 0.93845(18) 0.79340(16)
C3 C 0.04305(13) 1.01176(19) 0.86596(15)
C4 C 0.04429(15) 1.1235(2) 0.87286(16)
H1 H 0.0259 1.1675 0.8234
C5 C 0.07293(17) 1.1698(2) 0.95357(17)
H2 H 0.0743 1.2463 0.9592
C6 C 0.09937(16) 1.1062(2) 1.02569(16)
H3 H 0.1179 1.1396 1.0804
C7 C 0.09930(15) 0.9938(2) 1.01963(16)
H4 H 0.1181 0.9502 1.0692
C8 C 0.07121(14) 0.94776(19) 0.93969(16)
C9 C 0.06346(14) 0.83192(19) 0.91419(15)
C10 C 0.09090(15) 0.74519(19) 0.97085(15)
C11 C 0.11881(14) 0.67507(19) 1.02106(15)
C12 C 0.11067(15) 0.5559(2) 1.17950(16)
H5 H 0.1348 0.4999 1.2225
C13 C 0.03335(17) 0.5154(2) 1.13368(19)
H6 H 0.0036 0.5101 1.1756
H7 H 0.0369 0.4441 1.1084
H8 H 0.0103 0.5663 1.0879
C14 C 0.10576(17) 0.6611(2) 1.22853(18)
H9 H 0.0860 0.7187 1.1871
H10 H 0.1548 0.6815 1.2628
H11 H 0.0734 0.6503 1.2670
C15 C 0.26280(15) 0.6272(2) 1.14912(17)
H12 H 0.2941 0.6036 1.1105
C16 C 0.29711(18) 0.5779(3) 1.23818(19)
H13 H 0.3484 0.6010 1.2580
H14 H 0.2950 0.4989 1.2340
H15 H 0.2699 0.6023 1.2794
C17 C 0.26735(19) 0.7509(3) 1.1531(2)
H16 H 0.2364 0.7782 1.1892
H17 H 0.2503 0.7806 1.0946
H18 H 0.3183 0.7730 1.1781
C18 C 0.17076(16) 0.44435(19) 1.03752(17)
H19 H 0.1199 0.4143 1.0210
C19 C 0.2198(2) 0.3592(2) 1.0932(2)
H20 H 0.2147 0.2904 1.0618
H21 H 0.2051 0.3495 1.1473
H22 H 0.2710 0.3830 1.1063
C20 C 0.1941(2) 0.4632(3) 0.95373(19)
H23 H 0.2437 0.4936 0.9674
H24 H 0.1600 0.5137 0.9168
H25 H 0.1936 0.3943 0.9233
Si1A Si -0.16747(4) 0.57361(5) 0.40090(4)
C1A C -0.02938(15) 0.82962(18) 0.67208(16)
C2A C -0.01598(14) 0.93845(18) 0.70660(16)
C3A C -0.04305(13) 1.01176(19) 0.63404(15)
C4A C -0.04429(15) 1.1235(2) 0.62714(16)
H1A H -0.0259 1.1675 0.6766
C5A C -0.07293(17) 1.1698(2) 0.54643(17)
H2A H -0.0743 1.2463 0.5408
C6A C -0.09937(16) 1.1062(2) 0.47431(16)
H3A H -0.1179 1.1396 0.4196
C7A C -0.09930(15) 0.9938(2) 0.48037(16)
H4A H -0.1181 0.9502 0.4308
C8A C -0.07121(14) 0.94776(19) 0.56031(16)
C9A C -0.06346(14) 0.83192(19) 0.58581(15)
C10A C -0.09090(15) 0.74519(19) 0.52915(15)
C11A C -0.11881(14) 0.67507(19) 0.47894(15)
C12A C -0.11067(15) 0.5559(2) 0.32050(16)
H5A H -0.1348 0.4999 0.2775
C13A C -0.03335(17) 0.5154(2) 0.36632(19)
H6A H -0.0036 0.5101 0.3244
H7A H -0.0369 0.4441 0.3916
H8A H -0.0103 0.5663 0.4121
C14A C -0.10576(17) 0.6611(2) 0.27147(18)
H9A H -0.0860 0.7187 0.3129
H10A H -0.1548 0.6815 0.2372
H11A H -0.0734 0.6503 0.2330
C15A C -0.26280(15) 0.6272(2) 0.35088(17)
H12A H -0.2941 0.6036 0.3895
C16A C -0.29711(18) 0.5779(3) 0.26182(19)
H13A H -0.3484 0.6010 0.2420
H14A H -0.2950 0.4989 0.2660
H15A H -0.2699 0.6023 0.2206
C17A C -0.26735(19) 0.7509(3) 0.3469(2)
H16A H -0.2364 0.7782 0.3108
H17A H -0.2503 0.7806 0.4054
H18A H -0.3183 0.7730 0.3219
C18A C -0.17076(16) 0.44435(19) 0.46248(17)
H19A H -0.1199 0.4143 0.4790
C19A C -0.2198(2) 0.3592(2) 0.4068(2)
H20A H -0.2147 0.2904 0.4382
H21A H -0.2051 0.3495 0.3527
H22A H -0.2710 0.3830 0.3937
C20A C -0.1941(2) 0.4632(3) 0.54627(19)
H23A H -0.2437 0.4936 0.5326
H24A H -0.1600 0.5137 0.5832
H25A H -0.1936 0.3943 0.5767
loop_
_geom_bond_atom_site_label_1
_geom_bond_atom_site_label_2
_geom_bond_site_symmetry_1
_geom_bond_site_symmetry_2
S1 C1 1_555 1_555
Si1 C11 1_555 1_555
C1 C2 1_555 1_555
C2 C3 1_555 1_555
C3 C4 1_555 1_555
C4 H1 1_555 1_555
C5 C4 1_555 1_555
H2 C5 1_555 1_555
C6 C5 1_555 1_555
H3 C6 1_555 1_555
C7 C6 1_555 1_555
H4 C7 1_555 1_555
C8 C3 1_555 1_555
C9 C1 1_555 1_555
C10 C9 1_555 1_555
C11 C10 1_555 1_555
C12 Si1 1_555 1_555
H5 C12 1_555 1_555
C13 C12 1_555 1_555
H6 C13 1_555 1_555
H7 C13 1_555 1_555
H8 C13 1_555 1_555
C14 C12 1_555 1_555
H9 C14 1_555 1_555
H10 C14 1_555 1_555
H11 C14 1_555 1_555
C15 Si1 1_555 1_555
H12 C15 1_555 1_555
C16 C15 1_555 1_555
H13 C16 1_555 1_555
H14 C16 1_555 1_555
H15 C16 1_555 1_555
C17 C15 1_555 1_555
H16 C17 1_555 1_555
H17 C17 1_555 1_555
H18 C17 1_555 1_555
C18 Si1 1_555 1_555
H19 C18 1_555 1_555
C19 C18 1_555 1_555
H20 C19 1_555 1_555
H21 C19 1_555 1_555
H22 C19 1_555 1_555
C20 C18 1_555 1_555
H23 C20 1_555 1_555
H24 C20 1_555 1_555
H25 C20 1_555 1_555
Si1A C11A 1_555 1_555
C1A S1 1_555 1_555
C2A C2 1_555 1_555
C3A C2A 1_555 1_555
C4A C3A 1_555 1_555
H1A C4A 1_555 1_555
C5A C4A 1_555 1_555
H2A C5A 1_555 1_555
C6A C5A 1_555 1_555
H3A C6A 1_555 1_555
C7A C6A 1_555 1_555
H4A C7A 1_555 1_555
C8A C3A 1_555 1_555
C9A C1A 1_555 1_555
C10A C9A 1_555 1_555
C11A C10A 1_555 1_555
C12A Si1A 1_555 1_555
H5A C12A 1_555 1_555
C13A C12A 1_555 1_555
H6A C13A 1_555 1_555
H7A C13A 1_555 1_555
H8A C13A 1_555 1_555
C14A C12A 1_555 1_555
H9A C14A 1_555 1_555
H10A C14A 1_555 1_555
H11A C14A 1_555 1_555
C15A Si1A 1_555 1_555
H12A C15A 1_555 1_555
C16A C15A 1_555 1_555
H13A C16A 1_555 1_555
H14A C16A 1_555 1_555
H15A C16A 1_555 1_555
C17A C15A 1_555 1_555
H16A C17A 1_555 1_555
H17A C17A 1_555 1_555
H18A C17A 1_555 1_555
C18A Si1A 1_555 1_555
H19A C18A 1_555 1_555
C19A C18A 1_555 1_555
H20A C19A 1_555 1_555
H21A C19A 1_555 1_555
H22A C19A 1_555 1_555
C20A C18A 1_555 1_555
H23A C20A 1_555 1_555
H24A C20A 1_555 1_555
H25A C20A 1_555 1_555
C7 C8 1_555 1_555
C8 C9 1_555 1_555
C1A C2A 1_555 1_555
C7A C8A 1_555 1_555
C8A C9A 1_555 1_555

#END
