
#######################################################################
#
#                 Cambridge Crystallographic Data Centre
#                                CCDC 
#
#######################################################################
#
# If this CIF has been generated from an entry in the Cambridge 
# Structural Database, then it will include bibliographic, chemical, 
# crystal, experimental, refinement or atomic coordinate data resulting 
# from the CCDC's data processing and validation procedures.
#
#######################################################################

data_KOJVOW
_chemical_formula_moiety         'C19 H22 N2 O4'
_chemical_name_systematic        
'ethyl 3-((t-butoxycarbonyl)amino)-4-(pyridin-2-yl)benzoate'
_symmetry_cell_setting           monoclinic
_symmetry_space_group_name_H-M   'P 21/c'
_symmetry_Int_Tables_number      14
_space_group_name_Hall           '-P 2ybc'
loop_
_symmetry_equiv_pos_site_id
_symmetry_equiv_pos_as_xyz
1 x,y,z
2 -x,1/2+y,1/2-z
3 -x,-y,-z
4 x,1/2-y,1/2+z
_cell_length_a                   7.297(2)
_cell_length_b                   12.192(4)
_cell_length_c                   19.971(6)
_cell_angle_alpha                90
_cell_angle_beta                 94.898(4)
_cell_angle_gamma                90
_cell_volume                     1770.23
_exptl_crystal_colour            white
_exptl_crystal_description       platy
_cell_formula_units_Z            4
_exptl_crystal_recrystallization_method dichloromethane/hexane
loop_
_atom_site_label
_atom_site_type_symbol
_atom_site_fract_x
_atom_site_fract_y
_atom_site_fract_z
O1 O 0.2611(3) 0.94814(16) 0.03541(10)
O2 O 0.2937(4) 0.85584(19) 0.13452(11)
O3 O 0.1975(3) 0.38514(18) 0.22150(11)
O4 O 0.1482(5) 0.5600(2) 0.24894(12)
N1 N 0.2081(4) 0.6982(2) -0.09425(12)
C1 C 0.2325(4) 0.6579(2) 0.05172(14)
N2 N 0.2421(4) 0.7684(2) 0.03277(12)
H1 H 0.2299 0.7820 -0.0107
C2 C 0.2054(4) 0.4356(3) 0.08713(15)
H2 H 0.1967 0.3604 0.0990
C3 C 0.2417(4) 0.5754(2) 0.00175(14)
C4 C 0.2680(4) 0.8573(2) 0.07402(14)
C5 C 0.2637(4) 0.5995(2) -0.07066(14)
C6 C 0.2210(5) 0.7205(3) -0.15942(15)
H3 H 0.1818 0.7905 -0.1759
C7 C 0.2099(4) 0.6269(2) 0.11773(14)
H4 H 0.2029 0.6819 0.1511
C8 C 0.2261(4) 0.4659(3) 0.02138(15)
H5 H 0.2299 0.4101 -0.0117
C9 C 0.1975(4) 0.5174(2) 0.13554(14)
C10 C 0.3374(4) 0.5215(3) -0.11203(15)
H6 H 0.3805 0.4530 -0.0943
C11 C 0.1785(5) 0.4915(3) 0.20741(15)
C12 C 0.2888(5) 0.6465(3) -0.20408(15)
H7 H 0.2951 0.6649 -0.2501
C13 C 0.3466(5) 0.5458(3) -0.17945(16)
H8 H 0.3927 0.4929 -0.2086
C14 C 0.2703(4) 1.0583(2) 0.06622(15)
C15 C 0.1836(6) 0.3550(3) 0.29137(17)
H9 H 0.0558 0.3651 0.3034
H10 H 0.2659 0.4016 0.3213
C16 C 0.1067(5) 1.0749(3) 0.10775(18)
H11 H -0.0077 1.0624 0.0794
H12 H 0.1081 1.1500 0.1252
H13 H 0.1146 1.0229 0.1453
C17 C 0.4524(5) 1.0760(3) 0.10757(18)
H14 H 0.5538 1.0640 0.0792
H15 H 0.4629 1.0242 0.1452
H16 H 0.4579 1.1512 0.1250
C18 C 0.2560(5) 1.1329(3) 0.00476(17)
H17 H 0.1381 1.1202 -0.0214
H18 H 0.3569 1.1167 -0.0231
H19 H 0.2637 1.2096 0.0193
C19 C 0.2387(7) 0.2372(3) 0.2990(2)
H20 H 0.2299 0.2141 0.3456
H21 H 0.3657 0.2283 0.2874
H22 H 0.1567 0.1919 0.2690
loop_
_geom_bond_atom_site_label_1
_geom_bond_atom_site_label_2
_geom_bond_site_symmetry_1
_geom_bond_site_symmetry_2
O1 C4 1_555 1_555
O2 C4 1_555 1_555
O3 C11 1_555 1_555
O4 C11 1_555 1_555
N1 C5 1_555 1_555
C1 N2 1_555 1_555
N2 H1 1_555 1_555
C2 H2 1_555 1_555
C3 C1 1_555 1_555
C4 N2 1_555 1_555
C5 C3 1_555 1_555
C6 N1 1_555 1_555
H3 C6 1_555 1_555
C7 C1 1_555 1_555
H4 C7 1_555 1_555
C8 C2 1_555 1_555
H5 C8 1_555 1_555
C9 C2 1_555 1_555
C10 C5 1_555 1_555
H6 C10 1_555 1_555
C11 C9 1_555 1_555
C12 C6 1_555 1_555
H7 C12 1_555 1_555
C13 C10 1_555 1_555
H8 C13 1_555 1_555
C14 O1 1_555 1_555
C15 O3 1_555 1_555
H9 C15 1_555 1_555
H10 C15 1_555 1_555
C16 C14 1_555 1_555
H11 C16 1_555 1_555
H12 C16 1_555 1_555
H13 C16 1_555 1_555
C17 C14 1_555 1_555
H14 C17 1_555 1_555
H15 C17 1_555 1_555
H16 C17 1_555 1_555
C18 C14 1_555 1_555
H17 C18 1_555 1_555
H18 C18 1_555 1_555
H19 C18 1_555 1_555
C19 C15 1_555 1_555
H20 C19 1_555 1_555
H21 C19 1_555 1_555
H22 C19 1_555 1_555
C3 C8 1_555 1_555
C7 C9 1_555 1_555
C12 C13 1_555 1_555

#END
