
#######################################################################
#
#                 Cambridge Crystallographic Data Centre
#                                CCDC 
#
#######################################################################
#
# If this CIF has been generated from an entry in the Cambridge 
# Structural Database, then it will include bibliographic, chemical, 
# crystal, experimental, refinement or atomic coordinate data resulting 
# from the CCDC's data processing and validation procedures.
#
#######################################################################

data_KOJYIT
_chemical_formula_moiety         'C20 H20 B1 N1 O1'
_chemical_name_systematic        
1-benzyl-2-(2-(4-methoxyphenyl)vinyl)-1,2-dihydro-1,2-azaborinine
_symmetry_cell_setting           monoclinic
_symmetry_space_group_name_H-M   'P 21/c'
_symmetry_Int_Tables_number      14
_space_group_name_Hall           '-P 2ybc'
loop_
_symmetry_equiv_pos_site_id
_symmetry_equiv_pos_as_xyz
1 x,y,z
2 -x,1/2+y,1/2-z
3 -x,-y,-z
4 x,1/2-y,1/2+z
_cell_length_a                   23.009(4)
_cell_length_b                   5.4564(10)
_cell_length_c                   13.699(3)
_cell_angle_alpha                90
_cell_angle_beta                 103.943(3)
_cell_angle_gamma                90
_cell_volume                     1669.18
_exptl_crystal_colour            colorless
_exptl_crystal_description       block
_cell_formula_units_Z            4
_chemical_properties_physical    'Air-sensitive, Oxygen-sensitive'
_exptl_crystal_recrystallization_method 'Diethyl Ether, Pentane'
loop_
_atom_site_label
_atom_site_type_symbol
_atom_site_fract_x
_atom_site_fract_y
_atom_site_fract_z
O1 O 0.44903(4) 0.44008(16) 1.36881(6)
N1 N 0.20033(5) 0.7028(2) 0.75147(8)
B1 B 0.25174(7) 0.5563(3) 0.79740(12)
C1 C 0.16741(7) 0.6554(3) 0.65587(11)
C2 C 0.18137(7) 0.4744(3) 0.59857(11)
C3 C 0.23218(7) 0.3262(3) 0.63512(11)
C4 C 0.26691(6) 0.3598(3) 0.72933(11)
C5 C 0.17822(6) 0.9100(3) 0.80130(12)
C6 C 0.12204(6) 0.8543(2) 0.83502(9)
C7 C 0.07502(6) 1.0185(3) 0.81478(11)
C8 C 0.02427(8) 0.9803(4) 0.84978(14)
C9 C 0.02040(9) 0.7748(4) 0.90558(14)
C10 C 0.06683(10) 0.6065(4) 0.92526(13)
C11 C 0.11726(8) 0.6447(3) 0.88994(11)
C12 C 0.28577(6) 0.5941(3) 0.90903(11)
C13 C 0.32808(6) 0.4422(3) 0.95854(10)
C14 C 0.36059(5) 0.4480(2) 1.06459(10)
C15 C 0.35244(6) 0.6310(2) 1.13198(10)
C16 C 0.38252(6) 0.6236(2) 1.23182(10)
C17 C 0.42200(5) 0.4323(2) 1.26819(9)
C18 C 0.43127(6) 0.2506(2) 1.20320(10)
C19 C 0.40059(6) 0.2607(2) 1.10288(10)
C20 C 0.48706(7) 0.2386(3) 1.40869(11)
H1 H 0.1329(7) 0.770(3) 0.6304(13)
H2 H 0.1553(7) 0.449(3) 0.5310(14)
H3 H 0.2410(7) 0.195(3) 0.5925(13)
H4 H 0.3003(7) 0.251(3) 0.7506(12)
H5 H 0.2102(6) 0.957(3) 0.8608(11)
H6 H 0.1704(6) 1.049(3) 0.7548(11)
H7 H 0.0789(7) 1.165(3) 0.7758(12)
H8 H -0.0093(9) 1.098(4) 0.8360(15)
H9 H -0.0135(9) 0.749(4) 0.9301(15)
H10 H 0.0659(8) 0.462(4) 0.9639(14)
H11 H 0.1498(7) 0.520(4) 0.9039(12)
H12 H 0.2742(7) 0.733(3) 0.9485(13)
H13 H 0.3388(7) 0.303(3) 0.9211(12)
H14 H 0.3245(6) 0.766(3) 1.1093(11)
H15 H 0.3763(6) 0.750(3) 1.2785(10)
H16 H 0.4581(6) 0.118(3) 1.2273(10)
H17 H 0.4066(6) 0.133(3) 1.0587(11)
H18 H 0.4632(7) 0.086(3) 1.3982(12)
H19 H 0.5216(7) 0.227(3) 1.3756(12)
H20 H 0.5040(7) 0.276(3) 1.4796(13)
loop_
_geom_bond_atom_site_label_1
_geom_bond_atom_site_label_2
_geom_bond_site_symmetry_1
_geom_bond_site_symmetry_2
O1 C17 1_555 1_555
N1 B1 1_555 1_555
B1 C4 1_555 1_555
C1 N1 1_555 1_555
C2 C1 1_555 1_555
C3 C2 1_555 1_555
C4 C3 1_555 1_555
C5 N1 1_555 1_555
C6 C5 1_555 1_555
C7 C6 1_555 1_555
C8 C7 1_555 1_555
C9 C8 1_555 1_555
C10 C9 1_555 1_555
C11 C6 1_555 1_555
C12 B1 1_555 1_555
C13 C12 1_555 1_555
C14 C13 1_555 1_555
C15 C14 1_555 1_555
C16 C15 1_555 1_555
C17 C16 1_555 1_555
C18 C17 1_555 1_555
C19 C14 1_555 1_555
C20 O1 1_555 1_555
H1 C1 1_555 1_555
H2 C2 1_555 1_555
H3 C3 1_555 1_555
H4 C4 1_555 1_555
H5 C5 1_555 1_555
H6 C5 1_555 1_555
H7 C7 1_555 1_555
H8 C8 1_555 1_555
H9 C9 1_555 1_555
H10 C10 1_555 1_555
H11 C11 1_555 1_555
H12 C12 1_555 1_555
H13 C13 1_555 1_555
H14 C15 1_555 1_555
H15 C16 1_555 1_555
H16 C18 1_555 1_555
H17 C19 1_555 1_555
H18 C20 1_555 1_555
H19 C20 1_555 1_555
H20 C20 1_555 1_555
C10 C11 1_555 1_555
C18 C19 1_555 1_555

#END
