
#######################################################################
#
#                 Cambridge Crystallographic Data Centre
#                                CCDC 
#
#######################################################################
#
# If this CIF has been generated from an entry in the Cambridge 
# Structural Database, then it will include bibliographic, chemical, 
# crystal, experimental, refinement or atomic coordinate data resulting 
# from the CCDC's data processing and validation procedures.
#
#######################################################################

data_KOKJOL01
_chemical_name_common            TTF7-II
_chemical_formula_moiety         'C30 H12 F8 S8'
_chemical_name_systematic        
2-(4,5-bis((3,5-difluorophenyl)sulfanyl)-1,3-dithiol-2-ylidene)-4,5-bis((3,5-difluorophenyl)sulfanyl)-1,3-dithiole
_symmetry_cell_setting           monoclinic
_symmetry_space_group_name_H-M   'P 21/c'
_symmetry_Int_Tables_number      14
_space_group_name_Hall           '-P 2ybc'
loop_
_symmetry_equiv_pos_site_id
_symmetry_equiv_pos_as_xyz
1 x,y,z
2 -x,1/2+y,1/2-z
3 -x,-y,-z
4 x,1/2-y,1/2+z
_cell_length_a                   5.4074(3)
_cell_length_b                   12.7270(5)
_cell_length_c                   22.9518(10)
_cell_angle_alpha                90
_cell_angle_beta                 94.936(4)
_cell_angle_gamma                90
_cell_volume                     1573.68
_exptl_crystal_colour            'dark red'
_exptl_crystal_description       block
_chemical_melting_point          '430 K'
_cell_formula_units_Z            2
loop_
_atom_site_label
_atom_site_type_symbol
_atom_site_fract_x
_atom_site_fract_y
_atom_site_fract_z
C1 C 0.0852(5) 0.02573(19) 0.48575(12)
C2 C 0.4279(5) 0.1523(2) 0.45730(13)
C3 C 0.3522(6) 0.1007(2) 0.40753(13)
C4 C 0.5931(6) 0.3201(2) 0.52323(15)
C5 C 0.7570(7) 0.3208(3) 0.57240(16)
H1 H 0.8976 0.2783 0.5748
C6 C 0.7087(7) 0.3857(3) 0.61818(16)
C7 C 0.5058(8) 0.4499(3) 0.61670(17)
H2 H 0.4773 0.4937 0.6478
C8 C 0.3465(7) 0.4464(2) 0.56704(17)
C9 C 0.3840(6) 0.3840(2) 0.51965(15)
H3 H 0.2732 0.3845 0.4863
C10 C 0.3146(6) 0.2101(2) 0.30290(12)
C11 C 0.1223(6) 0.2654(2) 0.32433(14)
H4 H 0.0739 0.2521 0.3615
C12 C 0.0048(8) 0.3405(3) 0.28910(16)
C13 C 0.0668(9) 0.3626(3) 0.23417(17)
H5 H -0.0160 0.4141 0.2113
C14 C 0.2536(9) 0.3065(4) 0.21437(16)
C15 C 0.3820(7) 0.2302(3) 0.24684(14)
H6 H 0.5102 0.1932 0.2317
F1 F 0.8675(5) 0.3867(2) 0.66672(10)
F2 F 0.1452(4) 0.51001(15) 0.56358(10)
F3 F 0.3225(7) 0.3253(3) 0.16037(10)
F4 F -0.1845(5) 0.3938(2) 0.30961(11)
S1 S 0.12171(16) 0.00499(6) 0.41123(3)
S2 S 0.28785(15) 0.11805(6) 0.52049(3)
S3 S 0.49614(18) 0.11416(7) 0.34246(4)
S4 S 0.66771(17) 0.24447(6) 0.46204(4)
C1B C -0.0852(5) -0.02573(19) 0.51425(12)
C2B C -0.4279(5) -0.1523(2) 0.54270(13)
C3B C -0.3522(6) -0.1007(2) 0.59247(13)
C4B C -0.5931(6) -0.3201(2) 0.47677(15)
C5B C -0.7570(7) -0.3208(3) 0.42760(16)
H1B H -0.8976 -0.2783 0.4252
C6B C -0.7087(7) -0.3857(3) 0.38182(16)
C7B C -0.5058(8) -0.4499(3) 0.38330(17)
H2B H -0.4773 -0.4937 0.3522
C8B C -0.3465(7) -0.4464(2) 0.43296(17)
C9B C -0.3840(6) -0.3840(2) 0.48035(15)
H3B H -0.2732 -0.3845 0.5137
C10B C -0.3146(6) -0.2101(2) 0.69710(12)
C11B C -0.1223(6) -0.2654(2) 0.67567(14)
H4B H -0.0739 -0.2521 0.6385
C12B C -0.0048(8) -0.3405(3) 0.71090(16)
C13B C -0.0668(9) -0.3626(3) 0.76583(17)
H5B H 0.0160 -0.4141 0.7887
C14B C -0.2536(9) -0.3065(4) 0.78563(16)
C15B C -0.3820(7) -0.2302(3) 0.75316(14)
H6B H -0.5102 -0.1932 0.7683
F1B F -0.8675(5) -0.3867(2) 0.33328(10)
F2B F -0.1452(4) -0.51001(15) 0.43642(10)
F3B F -0.3225(7) -0.3253(3) 0.83963(10)
F4B F 0.1845(5) -0.3938(2) 0.69039(11)
S1B S -0.12171(16) -0.00499(6) 0.58877(3)
S2B S -0.28785(15) -0.11805(6) 0.47951(3)
S3B S -0.49614(18) -0.11416(7) 0.65754(4)
S4B S -0.66771(17) -0.24447(6) 0.53796(4)
loop_
_geom_bond_atom_site_label_1
_geom_bond_atom_site_label_2
_geom_bond_site_symmetry_1
_geom_bond_site_symmetry_2
C1 S1 1_555 1_555
C2 C3 1_555 1_555
C3 S1 1_555 1_555
C4 C5 1_555 1_555
C5 H1 1_555 1_555
C6 C5 1_555 1_555
C7 C6 1_555 1_555
H2 C7 1_555 1_555
C8 C7 1_555 1_555
C9 C4 1_555 1_555
H3 C9 1_555 1_555
C10 C11 1_555 1_555
C11 H4 1_555 1_555
C12 C11 1_555 1_555
C13 C12 1_555 1_555
H5 C13 1_555 1_555
C14 C13 1_555 1_555
C15 C10 1_555 1_555
H6 C15 1_555 1_555
F1 C6 1_555 1_555
F2 C8 1_555 1_555
F3 C14 1_555 1_555
F4 C12 1_555 1_555
S2 C1 1_555 1_555
S3 C3 1_555 1_555
S4 C2 1_555 1_555
C1B C1 1_555 1_555
C2B C3B 1_555 1_555
C3B S1B 1_555 1_555
C4B C5B 1_555 1_555
C5B H1B 1_555 1_555
C6B C5B 1_555 1_555
C7B C6B 1_555 1_555
H2B C7B 1_555 1_555
C8B C7B 1_555 1_555
C9B C4B 1_555 1_555
H3B C9B 1_555 1_555
C10B C11B 1_555 1_555
C11B H4B 1_555 1_555
C12B C11B 1_555 1_555
C13B C12B 1_555 1_555
H5B C13B 1_555 1_555
C14B C13B 1_555 1_555
C15B C10B 1_555 1_555
H6B C15B 1_555 1_555
F1B C6B 1_555 1_555
F2B C8B 1_555 1_555
F3B C14B 1_555 1_555
F4B C12B 1_555 1_555
S1B C1B 1_555 1_555
S2B C1B 1_555 1_555
S3B C3B 1_555 1_555
S4B C2B 1_555 1_555
C2 S2 1_555 1_555
C4 S4 1_555 1_555
C8 C9 1_555 1_555
C10 S3 1_555 1_555
C14 C15 1_555 1_555
C2B S2B 1_555 1_555
C4B S4B 1_555 1_555
C8B C9B 1_555 1_555
C10B S3B 1_555 1_555
C14B C15B 1_555 1_555

#END
