
#######################################################################
#
#                 Cambridge Crystallographic Data Centre
#                                CCDC 
#
#######################################################################
#
# If this CIF has been generated from an entry in the Cambridge 
# Structural Database, then it will include bibliographic, chemical, 
# crystal, experimental, refinement or atomic coordinate data resulting 
# from the CCDC's data processing and validation procedures.
#
#######################################################################

data_KOKKAY
_chemical_name_common            TTF8
_chemical_formula_moiety         'C30 F20 S8'
_chemical_name_systematic        
2-(4,5-bis((pentafluorophenyl)sulfanyl)-1,3-dithiol-2-ylidene)-4,5-bis((pentafluorophenyl)sulfanyl)-1,3-dithiole
_symmetry_cell_setting           triclinic
_symmetry_space_group_name_H-M   'P -1'
_symmetry_Int_Tables_number      2
_space_group_name_Hall           '-P 1'
loop_
_symmetry_equiv_pos_site_id
_symmetry_equiv_pos_as_xyz
1 x,y,z
2 -x,-y,-z
_cell_length_a                   5.8265(8)
_cell_length_b                   11.7565(12)
_cell_length_c                   12.428(2)
_cell_angle_alpha                92.560(10)
_cell_angle_beta                 95.837(12)
_cell_angle_gamma                95.696(10)
_cell_volume                     841.423
_exptl_crystal_colour            red
_exptl_crystal_description       platelet
_chemical_melting_point          '501 K'
_cell_formula_units_Z            1
loop_
_atom_site_label
_atom_site_type_symbol
_atom_site_fract_x
_atom_site_fract_y
_atom_site_fract_z
C1 C 0.6005(5) 0.5146(2) 0.0306(2)
C2 C 0.9674(5) 0.5189(3) 0.1673(2)
C3 C 0.9578(5) 0.6276(3) 0.1400(2)
C4 C 1.0533(6) 0.3852(3) 0.3383(2)
C5 C 1.1344(7) 0.2814(3) 0.3594(3)
C6 C 1.0366(9) 0.2085(4) 0.4289(3)
C7 C 0.8495(10) 0.2360(5) 0.4770(3)
C8 C 0.7632(7) 0.3375(4) 0.4590(3)
C9 C 0.8660(6) 0.4122(3) 0.3911(3)
C10 C 1.0153(6) 0.8569(3) 0.1962(3)
C11 C 0.8298(7) 0.8609(3) 0.2564(3)
C12 C 0.7105(7) 0.9565(3) 0.2616(3)
C13 C 0.7811(8) 1.0507(3) 0.2088(3)
C14 C 0.9687(8) 1.0512(3) 0.1516(3)
C15 C 1.0837(7) 0.9550(3) 0.1455(3)
S1 S 0.75454(15) 0.41571(6) 0.10212(7)
S2 S 0.73603(15) 0.65598(6) 0.04228(7)
S3 S 1.19766(16) 0.47697(9) 0.25192(7)
S4 S 1.17497(17) 0.73704(8) 0.18843(10)
F1 F 1.3160(4) 0.2505(2) 0.31109(19)
F2 F 1.1248(6) 0.1085(2) 0.4466(2)
F3 F 0.7522(6) 0.1619(3) 0.5417(2)
F4 F 0.5806(5) 0.3663(3) 0.50655(18)
F5 F 0.7828(4) 0.5131(2) 0.37683(17)
F6 F 0.7593(4) 0.77108(17) 0.31084(17)
F7 F 0.5304(5) 0.9581(2) 0.3192(2)
F8 F 0.6659(5) 1.14331(19) 0.2116(2)
F9 F 1.0400(5) 1.1443(2) 0.10102(19)
F10 F 1.2674(4) 0.9575(2) 0.08822(18)
C1A C 0.3995(5) 0.4854(2) -0.0306(2)
C2A C 0.0326(5) 0.4811(3) -0.1673(2)
C3A C 0.0422(5) 0.3724(3) -0.1400(2)
C4A C -0.0533(6) 0.6148(3) -0.3383(2)
C5A C -0.1344(7) 0.7186(3) -0.3594(3)
C6A C -0.0366(9) 0.7915(4) -0.4289(3)
C7A C 0.1505(10) 0.7640(5) -0.4770(3)
C8A C 0.2368(7) 0.6625(4) -0.4590(3)
C9A C 0.1340(6) 0.5878(3) -0.3911(3)
C10A C -0.0153(6) 0.1431(3) -0.1962(3)
C11A C 0.1702(7) 0.1391(3) -0.2564(3)
C12A C 0.2895(7) 0.0435(3) -0.2616(3)
C13A C 0.2189(8) -0.0507(3) -0.2088(3)
C14A C 0.0313(8) -0.0512(3) -0.1516(3)
C15A C -0.0837(7) 0.0450(3) -0.1455(3)
S1A S 0.24546(15) 0.58429(6) -0.10212(7)
S2A S 0.26397(15) 0.34402(6) -0.04228(7)
S3A S -0.19766(16) 0.52303(9) -0.25192(7)
S4A S -0.17497(17) 0.26296(8) -0.18843(10)
F1A F -0.3160(4) 0.7495(2) -0.31109(19)
F2A F -0.1248(6) 0.8915(2) -0.4466(2)
F3A F 0.2478(6) 0.8381(3) -0.5417(2)
F4A F 0.4194(5) 0.6337(3) -0.50655(18)
F5A F 0.2172(4) 0.4869(2) -0.37683(17)
F6A F 0.2407(4) 0.22892(17) -0.31084(17)
F7A F 0.4696(5) 0.0419(2) -0.3192(2)
F8A F 0.3341(5) -0.14331(19) -0.2116(2)
F9A F -0.0400(5) -0.1443(2) -0.10102(19)
F10A F -0.2674(4) 0.0425(2) -0.08822(18)
loop_
_geom_bond_atom_site_label_1
_geom_bond_atom_site_label_2
_geom_bond_site_symmetry_1
_geom_bond_site_symmetry_2
C1 S1 1_555 1_555
C2 C3 1_555 1_555
C3 S2 1_555 1_555
C4 C5 1_555 1_555
C5 C6 1_555 1_555
C6 C7 1_555 1_555
C7 C8 1_555 1_555
C8 C9 1_555 1_555
C9 C4 1_555 1_555
C10 C11 1_555 1_555
C11 C12 1_555 1_555
C12 C13 1_555 1_555
C13 C14 1_555 1_555
C14 C15 1_555 1_555
C15 C10 1_555 1_555
S1 C2 1_555 1_555
S2 C1 1_555 1_555
S3 C2 1_555 1_555
S4 C3 1_555 1_555
F1 C5 1_555 1_555
F2 C6 1_555 1_555
F3 C7 1_555 1_555
F4 C8 1_555 1_555
F5 C9 1_555 1_555
F6 C11 1_555 1_555
F7 C12 1_555 1_555
F8 C13 1_555 1_555
F9 C14 1_555 1_555
F10 C15 1_555 1_555
C1A C1 1_555 1_555
C2A C3A 1_555 1_555
C3A S2A 1_555 1_555
C4A C5A 1_555 1_555
C5A C6A 1_555 1_555
C6A C7A 1_555 1_555
C7A C8A 1_555 1_555
C8A C9A 1_555 1_555
C9A C4A 1_555 1_555
C10A C11A 1_555 1_555
C11A C12A 1_555 1_555
C12A C13A 1_555 1_555
C13A C14A 1_555 1_555
C14A C15A 1_555 1_555
C15A C10A 1_555 1_555
S1A C1A 1_555 1_555
S2A C1A 1_555 1_555
S3A C2A 1_555 1_555
S4A C3A 1_555 1_555
F1A C5A 1_555 1_555
F2A C6A 1_555 1_555
F3A C7A 1_555 1_555
F4A C8A 1_555 1_555
F5A C9A 1_555 1_555
F6A C11A 1_555 1_555
F7A C12A 1_555 1_555
F8A C13A 1_555 1_555
F9A C14A 1_555 1_555
F10A C15A 1_555 1_555
C4 S3 1_555 1_555
C10 S4 1_555 1_555
C2A S1A 1_555 1_555
C4A S3A 1_555 1_555
C10A S4A 1_555 1_555

#END
