
#######################################################################
#
#                 Cambridge Crystallographic Data Centre
#                                CCDC 
#
#######################################################################
#
# If this CIF has been generated from an entry in the Cambridge 
# Structural Database, then it will include bibliographic, chemical, 
# crystal, experimental, refinement or atomic coordinate data resulting 
# from the CCDC's data processing and validation procedures.
#
#######################################################################

data_KOKMON
_chemical_formula_moiety         'C34 H30 O8,C4 H8 O1'
_chemical_name_systematic        
"3,3'-bis(3,4,5-Trimethoxyphenyl)-1,1'-bi(isobenzofuran) tetrahydrofuran solvate"
_symmetry_cell_setting           triclinic
_symmetry_space_group_name_H-M   'P -1'
_symmetry_Int_Tables_number      2
_space_group_name_Hall           '-P 1'
loop_
_symmetry_equiv_pos_site_id
_symmetry_equiv_pos_as_xyz
1 x,y,z
2 -x,-y,-z
_cell_length_a                   9.357(5)
_cell_length_b                   12.657(6)
_cell_length_c                   14.014(7)
_cell_angle_alpha                71.596(17)
_cell_angle_beta                 83.61(2)
_cell_angle_gamma                88.76(2)
_cell_volume                     1564.87
_exptl_crystal_colour            red
_exptl_crystal_description       block
_chemical_melting_point          '232-234 deg.C'
_cell_formula_units_Z            2
loop_
_atom_site_label
_atom_site_type_symbol
_atom_site_fract_x
_atom_site_fract_y
_atom_site_fract_z
C1 C 0.5454(3) 0.8279(2) 0.2974(2)
C2 C 0.4635(3) 0.8538(2) 0.2151(2)
H1 H 0.4307 0.7958 0.1931
C3 C 0.4302(3) 0.9633(3) 0.1658(2)
C4 C 0.4790(3) 1.0497(2) 0.1973(2)
C5 C 0.5629(4) 1.0248(2) 0.2782(2)
C6 C 0.5943(3) 0.9146(2) 0.3291(2)
H2 H 0.6487 0.8978 0.3853
C7 C 0.5865(3) 0.7144(2) 0.3459(2)
C8 C 0.5571(3) 0.6101(2) 0.3391(2)
C9 C 0.6414(3) 0.5305(2) 0.4081(2)
C10 C 0.7172(3) 0.5910(2) 0.4541(2)
O1 O 0.6835(2) 0.70143(16) 0.41702(15)
C11 C 0.4635(4) 0.5707(3) 0.2835(2)
H3 H 0.4054 0.6212 0.2390
C12 C 0.4586(4) 0.4594(3) 0.2951(3)
H4 H 0.3980 0.4332 0.2572
C13 C 0.5430(4) 0.3816(3) 0.3635(3)
H5 H 0.5356 0.3047 0.3707
C14 C 0.6338(4) 0.4149(3) 0.4185(2)
H6 H 0.6905 0.3625 0.4627
C15 C 0.8099(3) 0.5623(2) 0.5310(2)
C16 C 0.8765(3) 0.6210(3) 0.5833(2)
C17 C 0.9493(3) 0.5405(2) 0.6580(2)
C18 C 0.9254(3) 0.4363(3) 0.6476(2)
O2 O 0.8407(2) 0.45152(16) 0.56894(15)
C19 C 0.8790(4) 0.7360(3) 0.5759(3)
H7 H 0.8314 0.7897 0.5262
C20 C 0.9515(4) 0.7664(3) 0.6420(3)
H8 H 0.9530 0.8425 0.6387
C21 C 1.0252(4) 0.6879(3) 0.7160(3)
H9 H 1.0754 0.7130 0.7604
C22 C 1.0258(4) 0.5771(3) 0.7249(3)
H10 H 1.0759 0.5256 0.7745
C23 C 0.9690(3) 0.3229(2) 0.6940(2)
C24 C 1.0606(3) 0.2960(2) 0.7708(2)
H11 H 1.0934 0.3528 0.7944
C25 C 1.1036(3) 0.1869(3) 0.8125(2)
C26 C 1.0551(3) 0.1022(2) 0.7786(2)
C27 C 0.9621(4) 0.1288(2) 0.7036(2)
C28 C 0.9173(4) 0.2370(3) 0.6623(2)
H12 H 0.8517 0.2534 0.6126
O3 O 0.3533(2) 0.99664(17) 0.08436(16)
C29 C 0.3107(4) 0.9129(3) 0.0446(3)
H13 H 0.3963 0.8763 0.0236
H14 H 0.2579 0.9472 -0.0138
H15 H 0.2488 0.8577 0.0968
O4 O 0.4527(2) 1.15918(16) 0.14290(16)
C30 C 0.3395(4) 1.2077(3) 0.1935(3)
H16 H 0.2523 1.1611 0.2083
H17 H 0.3195 1.2826 0.1497
H18 H 0.3696 1.2122 0.2569
O5 O 0.6068(3) 1.11452(17) 0.30232(18)
C31 C 0.6991(4) 1.0926(3) 0.3810(3)
H19 H 0.6457 1.0502 0.4456
H20 H 0.7332 1.1633 0.3858
H21 H 0.7816 1.0495 0.3656
O6 O 1.1924(2) 0.15293(17) 0.88782(16)
C32 C 1.2460(4) 0.2374(3) 0.9238(3)
H22 H 1.2976 0.2949 0.8671
H23 H 1.3116 0.2038 0.9747
H24 H 1.1653 0.2709 0.9542
O7 O 1.1052(2) -0.00569(17) 0.81724(17)
C33 C 1.0042(4) -0.0807(3) 0.8892(3)
H25 H 0.9888 -0.0591 0.9508
H26 H 1.0417 -0.1566 0.9057
H27 H 0.9128 -0.0781 0.8606
O8 O 0.9200(3) 0.03969(17) 0.67537(17)
C34 C 0.8194(4) 0.0636(3) 0.6019(3)
H28 H 0.7323 0.0949 0.6274
H29 H 0.7946 -0.0052 0.5892
H30 H 0.8624 0.1174 0.5388
O9 O 0.2071(12) 0.6108(6) 1.0537(6)
C35 C 0.2497(19) 0.6737(8) 0.9509(8)
H31 H 0.3141 0.7361 0.9474
H32 H 0.1642 0.7049 0.9165
C36 C 0.3245(7) 0.5991(6) 0.9018(5)
H33 H 0.2976 0.6139 0.8325
H34 H 0.4301 0.6078 0.8982
C37 C 0.2789(17) 0.4926(6) 0.9636(8)
H37 H 0.3530 0.4367 0.9596
H38 H 0.1883 0.4709 0.9441
C38 C 0.2575(18) 0.5027(7) 1.0633(8)
H39 H 0.1863 0.4464 1.1069
H40 H 0.3491 0.4909 1.0941
H35? H 0.3031 0.6708 0.8515
H36? H 0.4072 0.5639 0.8737
C39? C 0.3492(12) 0.6128(14) 1.0014(8)
H41? H 0.4075 0.5512 1.0401
H42? H 0.3992 0.6844 0.9911
C40? C 0.1985(15) 0.5249(12) 0.9357(8)
H43? H 0.1435 0.5315 0.8777
H44? H 0.2300 0.4468 0.9617
C41? C 0.1059(15) 0.553(2) 1.0152(12)
H45? H 0.0265 0.6016 0.9874
H46? H 0.0655 0.4850 1.0683
loop_
_geom_bond_atom_site_label_1
_geom_bond_atom_site_label_2
_geom_bond_site_symmetry_1
_geom_bond_site_symmetry_2
C1 C2 1_555 1_555
C2 H1 1_555 1_555
C3 C2 1_555 1_555
C4 C3 1_555 1_555
C5 C4 1_555 1_555
C6 C1 1_555 1_555
H2 C6 1_555 1_555
C7 C1 1_555 1_555
C8 C7 1_555 1_555
C9 C8 1_555 1_555
C10 C9 1_555 1_555
O1 C7 1_555 1_555
C11 C8 1_555 1_555
H3 C11 1_555 1_555
C12 C11 1_555 1_555
H4 C12 1_555 1_555
C13 C12 1_555 1_555
H5 C13 1_555 1_555
C14 C9 1_555 1_555
H6 C14 1_555 1_555
C15 C10 1_555 1_555
C16 C15 1_555 1_555
C17 C16 1_555 1_555
C18 C17 1_555 1_555
O2 C15 1_555 1_555
C19 C16 1_555 1_555
H7 C19 1_555 1_555
C20 C19 1_555 1_555
H8 C20 1_555 1_555
C21 C20 1_555 1_555
H9 C21 1_555 1_555
C22 C17 1_555 1_555
H10 C22 1_555 1_555
C23 C18 1_555 1_555
C24 C23 1_555 1_555
H11 C24 1_555 1_555
C25 C24 1_555 1_555
C26 C25 1_555 1_555
C27 C26 1_555 1_555
C28 C23 1_555 1_555
H12 C28 1_555 1_555
O3 C3 1_555 1_555
C29 O3 1_555 1_555
H13 C29 1_555 1_555
H14 C29 1_555 1_555
H15 C29 1_555 1_555
O4 C4 1_555 1_555
C30 O4 1_555 1_555
H16 C30 1_555 1_555
H17 C30 1_555 1_555
H18 C30 1_555 1_555
O5 C5 1_555 1_555
C31 O5 1_555 1_555
H19 C31 1_555 1_555
H20 C31 1_555 1_555
H21 C31 1_555 1_555
O6 C25 1_555 1_555
C32 O6 1_555 1_555
H22 C32 1_555 1_555
H23 C32 1_555 1_555
H24 C32 1_555 1_555
O7 C26 1_555 1_555
C33 O7 1_555 1_555
H25 C33 1_555 1_555
H26 C33 1_555 1_555
H27 C33 1_555 1_555
O8 C27 1_555 1_555
C34 O8 1_555 1_555
H28 C34 1_555 1_555
H29 C34 1_555 1_555
H30 C34 1_555 1_555
O9 C35 1_555 1_555
C35 H31 1_555 1_555
H32 C35 1_555 1_555
C36 C35 1_555 1_555
H33 C36 1_555 1_555
H34 C36 1_555 1_555
C37 C36 1_555 1_555
H37 C37 1_555 1_555
H38 C37 1_555 1_555
C38 O9 1_555 1_555
H39 C38 1_555 1_555
H40 C38 1_555 1_555
C5 C6 1_555 1_555
C10 O1 1_555 1_555
C13 C14 1_555 1_555
C18 O2 1_555 1_555
C21 C22 1_555 1_555
C27 C28 1_555 1_555
C37 C38 1_555 1_555

#END
