
#######################################################################
#
#                 Cambridge Crystallographic Data Centre
#                                CCDC 
#
#######################################################################
#
# If this CIF has been generated from an entry in the Cambridge 
# Structural Database, then it will include bibliographic, chemical, 
# crystal, experimental, refinement or atomic coordinate data resulting 
# from the CCDC's data processing and validation procedures.
#
#######################################################################

data_KOKQOS
_chemical_formula_moiety         'C11 H22 B10'
_chemical_name_systematic        3-mesityl-1,2-dicarba-closo-dodecaborane
_symmetry_cell_setting           monoclinic
_symmetry_space_group_name_H-M   'P 21'
_symmetry_Int_Tables_number      4
_space_group_name_Hall           'P 2yb'
loop_
_symmetry_equiv_pos_site_id
_symmetry_equiv_pos_as_xyz
1 x,y,z
2 -x,1/2+y,-z
_cell_length_a                   10.331(3)
_cell_length_b                   6.6049(17)
_cell_length_c                   12.085(3)
_cell_angle_alpha                90
_cell_angle_beta                 105.585(5)
_cell_angle_gamma                90
_cell_volume                     794.304
_exptl_crystal_colour            colorless
_exptl_crystal_description       block
_cell_formula_units_Z            2
loop_
_atom_site_label
_atom_site_type_symbol
_atom_site_fract_x
_atom_site_fract_y
_atom_site_fract_z
C1 C 0.8017(3) 0.3039(6) 0.3634(3)
C2 C 0.6445(3) 0.2949(5) 0.2998(3)
H1 H 0.5996 0.1583 0.2529
C3 C 0.7809(4) 0.3626(5) 0.1177(3)
C4 C 0.8769(4) 0.2108(6) 0.1146(3)
C5 C 0.8879(4) 0.1348(7) 0.0100(3)
H2 H 0.9503 0.0333 0.0101
C6 C 0.8085(4) 0.2059(7) -0.0947(3)
C7 C 0.7242(4) 0.3628(7) -0.0909(3)
H3 H 0.6745 0.4177 -0.1601
C8 C 0.7079(4) 0.4447(7) 0.0088(3)
C9 C 0.9774(5) 0.1268(7) 0.2181(4)
C10 C 0.8211(6) 0.1134(9) -0.2062(4)
H4 H 0.7586 0.1779 -0.2698
H5 H 0.8016 -0.0288 -0.2068
H6 H 0.9109 0.1325 -0.2126
C11 C 0.6148(6) 0.6254(9) -0.0062(4)
H7 H 0.5783 0.6526 -0.0865
H8 H 0.6641 0.7414 0.0305
H9 H 0.5430 0.5968 0.0280
B1 B 0.6901(5) 0.2784(7) 0.4474(4)
H10 H 0.6778 0.1447 0.4979
B2 B 0.8337(4) 0.4379(7) 0.4867(3)
H11 H 0.9155 0.4058 0.5641
B3 B 0.8675(4) 0.5381(7) 0.3601(4)
H12 H 0.9710 0.5719 0.3577
B4 B 0.7496(4) 0.4380(6) 0.2331(3)
B5 B 0.5523(5) 0.4268(8) 0.3731(4)
H13 H 0.4496 0.3893 0.3761
B6 B 0.6742(5) 0.5287(7) 0.4930(4)
H14 H 0.6516 0.5604 0.5752
B7 B 0.7827(4) 0.6872(7) 0.4396(4)
H15 H 0.8301 0.8215 0.4875
B8 B 0.7287(4) 0.6857(6) 0.2857(3)
H16 H 0.7397 0.8186 0.2342
B9 B 0.5864(4) 0.5219(6) 0.2457(4)
H17 H 0.5042 0.5445 0.1672
B10 B 0.6081(4) 0.6798(7) 0.3691(4)
H18 H 0.5416 0.8092 0.3707
H19 H 0.847(4) 0.182(7) 0.355(3)
H20 H 1.017(3) 0.241(5) 0.287(3)
H21 H 0.953(4) 0.028(7) 0.257(4)
H22 H 1.041(4) 0.072(7) 0.190(4)
loop_
_geom_bond_atom_site_label_1
_geom_bond_atom_site_label_2
_geom_bond_site_symmetry_1
_geom_bond_site_symmetry_2
C1 C2 1_555 1_555
C2 H1 1_555 1_555
C3 C4 1_555 1_555
C4 C5 1_555 1_555
C5 H2 1_555 1_555
C6 C5 1_555 1_555
C7 C6 1_555 1_555
H3 C7 1_555 1_555
C8 C3 1_555 1_555
C9 C4 1_555 1_555
C10 C6 1_555 1_555
H4 C10 1_555 1_555
H5 C10 1_555 1_555
H6 C10 1_555 1_555
C11 C8 1_555 1_555
H7 C11 1_555 1_555
H8 C11 1_555 1_555
H9 C11 1_555 1_555
B1 C1 1_555 1_555
H10 B1 1_555 1_555
B2 C1 1_555 1_555
H11 B2 1_555 1_555
B3 C1 1_555 1_555
H12 B3 1_555 1_555
B4 C1 1_555 1_555
B5 C2 1_555 1_555
H13 B5 1_555 1_555
B6 B1 1_555 1_555
H14 B6 1_555 1_555
B7 B2 1_555 1_555
H15 B7 1_555 1_555
B8 B3 1_555 1_555
H16 B8 1_555 1_555
B9 C2 1_555 1_555
H17 B9 1_555 1_555
B10 B5 1_555 1_555
H18 B10 1_555 1_555
H19 C1 1_555 1_555
H20 C9 1_555 1_555
H21 C9 1_555 1_555
H22 C9 1_555 1_555
C2 B1 1_555 1_555
C2 B4 1_555 1_555
C3 B4 1_555 1_555
C7 C8 1_555 1_555
B1 B2 1_555 1_555
B1 B5 1_555 1_555
B2 B3 1_555 1_555
B2 B6 1_555 1_555
B3 B4 1_555 1_555
B3 B7 1_555 1_555
B4 B8 1_555 1_555
B4 B9 1_555 1_555
B5 B6 1_555 1_555
B5 B9 1_555 1_555
B6 B7 1_555 1_555
B6 B10 1_555 1_555
B7 B8 1_555 1_555
B7 B10 1_555 1_555
B8 B9 1_555 1_555
B8 B10 1_555 1_555
B9 B10 1_555 1_555

#END
