
#######################################################################
#
#                 Cambridge Crystallographic Data Centre
#                                CCDC 
#
#######################################################################
#
# If this CIF has been generated from an entry in the Cambridge 
# Structural Database, then it will include bibliographic, chemical, 
# crystal, experimental, refinement or atomic coordinate data resulting 
# from the CCDC's data processing and validation procedures.
#
#######################################################################

data_KOKYOZ
_chemical_formula_moiety         'C23 H26 O2'
_chemical_name_systematic        
"Ethyl 2-methyl-5(E)-phenyl-2-(1'-phenyl-1'(Z)-propen-2'-yl)-4-pentenoate"
_symmetry_cell_setting           triclinic
_symmetry_space_group_name_H-M   'P -1'
_symmetry_Int_Tables_number      2
_space_group_name_Hall           '-P 1'
loop_
_symmetry_equiv_pos_site_id
_symmetry_equiv_pos_as_xyz
1 x,y,z
2 -x,-y,-z
_cell_length_a                   8.2770(6)
_cell_length_b                   8.6143(7)
_cell_length_c                   14.1523(13)
_cell_angle_alpha                103.444(2)
_cell_angle_beta                 91.662(2)
_cell_angle_gamma                95.1097(19)
_cell_volume                     976.228
_exptl_crystal_colour            colorless
_exptl_crystal_description       chunk
_cell_formula_units_Z            2
loop_
_atom_site_label
_atom_site_type_symbol
_atom_site_fract_x
_atom_site_fract_y
_atom_site_fract_z
O1 O 0.6600(2) 0.4317(2) 0.31101(17)
O2 O 0.8028(2) 0.6118(3) 0.2478(2)
C1 C 0.6737(4) 0.5523(4) 0.2668(2)
C2 C 0.5097(3) 0.6117(3) 0.2511(2)
C3 C 0.4484(3) 0.6737(4) 0.3536(2)
C4 C 0.5672(3) 0.7858(4) 0.4260(2)
C5 C 0.6091(3) 0.7634(4) 0.5113(2)
C6 C 0.7215(3) 0.8688(3) 0.5870(2)
C7 C 0.8237(3) 0.9955(3) 0.5698(2)
C8 C 0.9280(4) 1.0903(4) 0.6420(3)
C9 C 0.9318(4) 1.0622(4) 0.7331(3)
C10 C 0.8325(5) 0.9384(5) 0.7520(3)
C11 C 0.7280(4) 0.8424(4) 0.6799(3)
C12 C 0.8139(4) 0.3715(6) 0.3262(3)
C13 C 0.8139(9) 0.2906(14) 0.4110(7)
C14 C 0.5342(4) 0.7519(4) 0.2015(3)
C15 C 0.3865(3) 0.4818(3) 0.1896(2)
C16 C 0.4213(3) 0.3520(4) 0.1256(2)
C17 C 0.5768(4) 0.2936(4) 0.0930(2)
C18 C 0.6876(4) 0.3770(4) 0.0481(2)
C19 C 0.8308(5) 0.3135(6) 0.0161(3)
C20 C 0.8642(5) 0.1696(6) 0.0280(3)
C21 C 0.7548(6) 0.0817(5) 0.0708(3)
C22 C 0.6120(5) 0.1437(4) 0.1018(2)
C23 C 0.2113(3) 0.5096(4) 0.2029(3)
H1 H 0.6139 0.8770 0.4090
H2 H 0.5627 0.6700 0.5260
H3 H 0.8214 1.0164 0.5083
H4 H 0.9960 1.1738 0.6288
H5 H 1.0015 1.1270 0.7821
H6 H 0.8356 0.9188 0.8139
H7 H 0.6610 0.7589 0.6938
H8 H 0.3305 0.2854 0.0956
H9 H 0.6668 0.4770 0.0391
H10 H 0.9042 0.3717 -0.0141
H11 H 0.9613 0.1295 0.0074
H12 H 0.7765 -0.0187 0.0788
H13 H 0.5373 0.0826 0.1295
H14 H 0.3537 0.7297 0.3469
H15 H 0.4174 0.5814 0.3798
H16 H 0.8984 0.4604 0.3394
H17 H 0.8364 0.2942 0.2676
H18 H 0.7439 0.3414 0.4592
H19 H 0.9223 0.3002 0.4392
H20 H 0.7755 0.1792 0.3881
H21 H 0.5771 0.7153 0.1388
H22 H 0.4318 0.7932 0.1939
H23 H 0.6089 0.8352 0.2409
H24 H 0.1444 0.4312 0.1549
H25 H 0.1946 0.6151 0.1954
H26 H 0.1827 0.5002 0.2667
loop_
_geom_bond_atom_site_label_1
_geom_bond_atom_site_label_2
_geom_bond_site_symmetry_1
_geom_bond_site_symmetry_2
O1 C1 1_555 1_555
O2 C1 1_555 1_555
C1 C2 1_555 1_555
C2 C3 1_555 1_555
C3 C4 1_555 1_555
C4 C5 1_555 1_555
C5 C6 1_555 1_555
C6 C7 1_555 1_555
C7 C8 1_555 1_555
C8 C9 1_555 1_555
C9 C10 1_555 1_555
C10 C11 1_555 1_555
C11 C6 1_555 1_555
C12 O1 1_555 1_555
C13 C12 1_555 1_555
C14 C2 1_555 1_555
C15 C2 1_555 1_555
C16 C15 1_555 1_555
C17 C16 1_555 1_555
C18 C17 1_555 1_555
C19 C18 1_555 1_555
C20 C19 1_555 1_555
C21 C20 1_555 1_555
C22 C17 1_555 1_555
C23 C15 1_555 1_555
H1 C4 1_555 1_555
H2 C5 1_555 1_555
H3 C7 1_555 1_555
H4 C8 1_555 1_555
H5 C9 1_555 1_555
H6 C10 1_555 1_555
H7 C11 1_555 1_555
H8 C16 1_555 1_555
H9 C18 1_555 1_555
H10 C19 1_555 1_555
H11 C20 1_555 1_555
H12 C21 1_555 1_555
H13 C22 1_555 1_555
H14 C3 1_555 1_555
H15 C3 1_555 1_555
H16 C12 1_555 1_555
H17 C12 1_555 1_555
H18 C13 1_555 1_555
H19 C13 1_555 1_555
H20 C13 1_555 1_555
H21 C14 1_555 1_555
H22 C14 1_555 1_555
H23 C14 1_555 1_555
H24 C23 1_555 1_555
H25 C23 1_555 1_555
H26 C23 1_555 1_555
C21 C22 1_555 1_555

#END
