
#######################################################################
#
#                 Cambridge Crystallographic Data Centre
#                                CCDC 
#
#######################################################################
#
# If this CIF has been generated from an entry in the Cambridge 
# Structural Database, then it will include bibliographic, chemical, 
# crystal, experimental, refinement or atomic coordinate data resulting 
# from the CCDC's data processing and validation procedures.
#
#######################################################################

data_KOKZIV
_chemical_formula_moiety         'C20 H24 B10'
_chemical_name_systematic        
1,2-(2-(diphenylmethylene)cyclopent-4-ene-1,3-diyl)-1,2-dicarba-closo-dodecaborane
_symmetry_cell_setting           monoclinic
_symmetry_space_group_name_H-M   'P 21/c'
_symmetry_Int_Tables_number      14
_space_group_name_Hall           '-P 2ybc'
loop_
_symmetry_equiv_pos_site_id
_symmetry_equiv_pos_as_xyz
1 x,y,z
2 -x,1/2+y,1/2-z
3 -x,-y,-z
4 x,1/2-y,1/2+z
_cell_length_a                   16.321(2)
_cell_length_b                   11.7230(16)
_cell_length_c                   11.8786(16)
_cell_angle_alpha                90
_cell_angle_beta                 111.216(2)
_cell_angle_gamma                90
_cell_volume                     2118.71
_exptl_crystal_colour            colorless
_exptl_crystal_description       block
_cell_formula_units_Z            4
loop_
_atom_site_label
_atom_site_type_symbol
_atom_site_fract_x
_atom_site_fract_y
_atom_site_fract_z
B1 B 0.07789(8) 0.45522(11) 0.18068(12)
H1 H 0.0416 0.4712 0.0821
B2 B 0.14279(9) 0.33281(11) 0.23008(12)
H2 H 0.1511 0.2688 0.1651
B3 B 0.23061(8) 0.36480(10) 0.36703(12)
H3 H 0.2959 0.3218 0.3905
B4 B 0.22228(8) 0.50711(10) 0.40649(11)
H4 H 0.2824 0.5576 0.4584
B5 B 0.03449(8) 0.50116(12) 0.28855(14)
H5 H -0.0291 0.5491 0.2621
B6 B 0.04201(9) 0.35236(12) 0.25589(13)
H6 H -0.0176 0.2993 0.2086
B7 B 0.13473(9) 0.29407(11) 0.37125(12)
H7 H 0.1364 0.2027 0.3997
B8 B 0.18391(9) 0.40321(11) 0.47735(12)
H8 H 0.2176 0.3836 0.5757
B9 B 0.12231(9) 0.53201(11) 0.42531(13)
H9 H 0.1155 0.6000 0.4876
B10 B 0.06752(9) 0.39801(12) 0.40700(13)
H10 H 0.0245 0.3758 0.4589
C1 C 0.19106(7) 0.46503(9) 0.25436(9)
C2 C 0.13135(7) 0.55904(9) 0.28806(10)
C3 C 0.15625(7) 0.67226(9) 0.23596(11)
H11 H 0.1430 0.7452 0.2696
C4 C 0.12293(8) 0.66371(10) 0.09857(11)
H12 H 0.0760 0.7065 0.0436
C5 C 0.17123(8) 0.58551(10) 0.06919(11)
H13 H 0.1647 0.5629 -0.0104
C6 C 0.23897(7) 0.53857(9) 0.18599(10)
H14 H 0.2926 0.5036 0.1785
C7 C 0.25322(7) 0.65066(9) 0.25617(10)
C8 C 0.32487(7) 0.71577(9) 0.30265(10)
C9 C 0.32185(7) 0.83247(9) 0.35040(10)
C10 C 0.25814(8) 0.91207(9) 0.28746(11)
H15 H 0.2144 0.8916 0.2123
C11 C 0.25801(9) 1.02092(10) 0.33357(12)
H16 H 0.2140 1.0741 0.2902
C12 C 0.32181(10) 1.05238(11) 0.44262(12)
H17 H 0.3214 1.1268 0.4741
C13 C 0.38609(9) 0.97472(11) 0.50536(12)
H18 H 0.4302 0.9961 0.5798
C14 C 0.38627(8) 0.86575(11) 0.45981(11)
H19 H 0.4307 0.8131 0.5034
C15 C 0.41242(7) 0.67310(10) 0.30951(10)
C16 C 0.46808(9) 0.74306(13) 0.27515(13)
H20 H 0.4510 0.8192 0.2501
C17 C 0.54859(10) 0.70246(18) 0.27712(15)
H21 H 0.5854 0.7503 0.2512
C18 C 0.57551(9) 0.59294(18) 0.31652(14)
H22 H 0.6301 0.5650 0.3164
C19 C 0.52295(9) 0.52497(15) 0.35576(13)
H23 H 0.5424 0.4508 0.3860
C20 C 0.44133(8) 0.56375(11) 0.35169(11)
H24 H 0.4050 0.5154 0.3778
loop_
_geom_bond_atom_site_label_1
_geom_bond_atom_site_label_2
_geom_bond_site_symmetry_1
_geom_bond_site_symmetry_2
B1 H1 1_555 1_555
B2 B1 1_555 1_555
H2 B2 1_555 1_555
B3 B2 1_555 1_555
H3 B3 1_555 1_555
B4 B3 1_555 1_555
H4 B4 1_555 1_555
B5 B1 1_555 1_555
H5 B5 1_555 1_555
B6 B1 1_555 1_555
H6 B6 1_555 1_555
B7 B2 1_555 1_555
H7 B7 1_555 1_555
B8 B3 1_555 1_555
H8 B8 1_555 1_555
B9 B4 1_555 1_555
H9 B9 1_555 1_555
B10 B5 1_555 1_555
H10 B10 1_555 1_555
C1 B1 1_555 1_555
C2 B1 1_555 1_555
C3 C2 1_555 1_555
H11 C3 1_555 1_555
C4 C3 1_555 1_555
H12 C4 1_555 1_555
C5 C4 1_555 1_555
H13 C5 1_555 1_555
C6 C1 1_555 1_555
H14 C6 1_555 1_555
C7 C3 1_555 1_555
C8 C7 1_555 1_555
C9 C8 1_555 1_555
C10 C9 1_555 1_555
H15 C10 1_555 1_555
C11 C10 1_555 1_555
H16 C11 1_555 1_555
C12 C11 1_555 1_555
H17 C12 1_555 1_555
C13 C12 1_555 1_555
H18 C13 1_555 1_555
C14 C9 1_555 1_555
H19 C14 1_555 1_555
C15 C8 1_555 1_555
C16 C15 1_555 1_555
H20 C16 1_555 1_555
C17 C16 1_555 1_555
H21 C17 1_555 1_555
C18 C17 1_555 1_555
H22 C18 1_555 1_555
C19 C18 1_555 1_555
H23 C19 1_555 1_555
C20 C15 1_555 1_555
H24 C20 1_555 1_555
B2 B6 1_555 1_555
B2 C1 1_555 1_555
B3 B7 1_555 1_555
B3 C1 1_555 1_555
B4 B8 1_555 1_555
B4 C1 1_555 1_555
B4 C2 1_555 1_555
B5 B6 1_555 1_555
B5 B9 1_555 1_555
B5 C2 1_555 1_555
B6 B7 1_555 1_555
B6 B10 1_555 1_555
B7 B8 1_555 1_555
B7 B10 1_555 1_555
B8 B9 1_555 1_555
B8 B10 1_555 1_555
B9 B10 1_555 1_555
B9 C2 1_555 1_555
C1 C2 1_555 1_555
C5 C6 1_555 1_555
C6 C7 1_555 1_555
C13 C14 1_555 1_555
C19 C20 1_555 1_555

#END
