
#######################################################################
#
#                 Cambridge Crystallographic Data Centre
#                                CCDC 
#
#######################################################################
#
# If this CIF has been generated from an entry in the Cambridge 
# Structural Database, then it will include bibliographic, chemical, 
# crystal, experimental, refinement or atomic coordinate data resulting 
# from the CCDC's data processing and validation procedures.
#
#######################################################################

data_KOLBOD
_chemical_formula_moiety         'C18 H20 N4 O3'
_chemical_name_systematic        
5-(2-Isopropoxy-4-methoxyphenyl)-2-(4-methoxyphenyl)-2H-tetrazole
_symmetry_cell_setting           monoclinic
_symmetry_space_group_name_H-M   'P 21/c'
_symmetry_Int_Tables_number      14
_space_group_name_Hall           '-P 2ybc'
loop_
_symmetry_equiv_pos_site_id
_symmetry_equiv_pos_as_xyz
1 x,y,z
2 -x,1/2+y,1/2-z
3 -x,-y,-z
4 x,1/2-y,1/2+z
_cell_length_a                   10.0439(5)
_cell_length_b                   16.4876(8)
_cell_length_c                   10.9830(5)
_cell_angle_alpha                90
_cell_angle_beta                 116.0680(10)
_cell_angle_gamma                90
_cell_volume                     1633.76
_exptl_crystal_colour            'pale yellow'
_exptl_crystal_description       prism
_cell_formula_units_Z            4
loop_
_atom_site_label
_atom_site_type_symbol
_atom_site_fract_x
_atom_site_fract_y
_atom_site_fract_z
C1 C 0.87328(12) 0.44103(6) 0.75692(10)
C2 C 0.74354(11) 0.38772(6) 0.69709(10)
C3 C 0.73030(11) 0.31497(6) 0.75928(10)
C4 C 0.59948(12) 0.27046(6) 0.70169(11)
H1 H 0.5902 0.2219 0.7439
C5 C 0.48181(12) 0.29686(7) 0.58219(11)
C6 C 0.49307(12) 0.36740(7) 0.51783(11)
H2 H 0.4134 0.3849 0.4358
C7 C 0.62403(12) 0.41148(6) 0.57689(11)
H3 H 0.6325 0.4598 0.5336
C8 C 0.83904(12) 0.22872(6) 0.95983(10)
H4 H 0.7424 0.2322 0.9653
C9 C 0.85415(12) 0.14620(7) 0.90600(11)
H5 H 0.7700 0.1371 0.8174
H6 H 0.8556 0.1040 0.9694
H7 H 0.9466 0.1442 0.8964
C10 C 0.96608(12) 0.24529(7) 1.09791(11)
H8 H 1.0601 0.2437 1.0910
H9 H 0.9671 0.2039 1.1623
H10 H 0.9532 0.2989 1.1296
C11 C 0.23644(12) 0.27102(7) 0.41213(11)
H11 H 0.1553 0.2322 0.3908
H12 H 0.2681 0.2705 0.3395
H13 H 0.2024 0.3255 0.4204
C12 C 1.22389(12) 0.50451(6) 0.98227(10)
C13 C 1.30476(12) 0.57273(6) 0.98233(11)
H14 H 1.2618 0.6129 0.9141
C14 C 1.44915(12) 0.58212(7) 1.08273(11)
H15 H 1.5051 0.6287 1.0835
C15 C 1.51092(12) 0.52278(7) 1.18206(11)
C16 C 1.42826(12) 0.45437(7) 1.18042(11)
H16 H 1.4710 0.4140 1.2483
C17 C 1.28491(12) 0.44479(7) 1.08105(11)
H17 H 1.2289 0.3982 1.0801
C18 C 1.74109(13) 0.59310(7) 1.29352(12)
H18 H 1.8384 0.5866 1.3710
H19 H 1.6933 0.6422 1.3057
H20 H 1.7534 0.5977 1.2101
N1 N 1.00040(10) 0.42487(5) 0.86543(9)
N2 N 1.07638(10) 0.49352(5) 0.87815(9)
N3 N 1.00358(11) 0.54878(6) 0.78449(9)
N4 N 0.87414(11) 0.51636(6) 0.70615(10)
O1 O 0.84954(8) 0.29363(5) 0.87504(8)
O2 O 0.35841(8) 0.24872(5) 0.53732(8)
O3 O 1.65118(9) 0.52438(5) 1.28449(8)
loop_
_geom_bond_atom_site_label_1
_geom_bond_atom_site_label_2
_geom_bond_site_symmetry_1
_geom_bond_site_symmetry_2
C1 C2 1_555 1_555
C2 C3 1_555 1_555
C3 C4 1_555 1_555
C4 H1 1_555 1_555
C5 C4 1_555 1_555
C6 C5 1_555 1_555
H2 C6 1_555 1_555
C7 C2 1_555 1_555
H3 C7 1_555 1_555
C8 H4 1_555 1_555
C9 C8 1_555 1_555
H5 C9 1_555 1_555
H6 C9 1_555 1_555
H7 C9 1_555 1_555
C10 C8 1_555 1_555
H8 C10 1_555 1_555
H9 C10 1_555 1_555
H10 C10 1_555 1_555
C11 H11 1_555 1_555
H12 C11 1_555 1_555
H13 C11 1_555 1_555
C12 C13 1_555 1_555
C13 H14 1_555 1_555
C14 C13 1_555 1_555
H15 C14 1_555 1_555
C15 C14 1_555 1_555
C16 C15 1_555 1_555
H16 C16 1_555 1_555
C17 C12 1_555 1_555
H17 C17 1_555 1_555
C18 H18 1_555 1_555
H19 C18 1_555 1_555
H20 C18 1_555 1_555
N1 C1 1_555 1_555
N2 C12 1_555 1_555
N3 N2 1_555 1_555
N4 C1 1_555 1_555
O1 C3 1_555 1_555
O2 C5 1_555 1_555
O3 C15 1_555 1_555
C6 C7 1_555 1_555
C8 O1 1_555 1_555
C11 O2 1_555 1_555
C16 C17 1_555 1_555
C18 O3 1_555 1_555
N1 N2 1_555 1_555
N3 N4 1_555 1_555

#END
