
#######################################################################
#
#                 Cambridge Crystallographic Data Centre
#                                CCDC 
#
#######################################################################
#
# If this CIF has been generated from an entry in the Cambridge 
# Structural Database, then it will include bibliographic, chemical, 
# crystal, experimental, refinement or atomic coordinate data resulting 
# from the CCDC's data processing and validation procedures.
#
#######################################################################

data_KOLBUJ
_chemical_formula_moiety         'C36 H44 O2 S2'
_chemical_name_systematic        
3,3'',5,5''-tetrakis(t-Butyl)-4H,4''H-dispiro[cyclohexa-2,5-diene-1,4'-thieno[3,2-g][1]benzothiophene-5',1''-cyclohexa[2,5]diene]-4,4''-dione
_symmetry_cell_setting           triclinic
_symmetry_space_group_name_H-M   'P -1'
_symmetry_Int_Tables_number      2
_space_group_name_Hall           '-P 1'
loop_
_symmetry_equiv_pos_site_id
_symmetry_equiv_pos_as_xyz
1 x,y,z
2 -x,-y,-z
_cell_length_a                   10.1637(1)
_cell_length_b                   11.4120(4)
_cell_length_c                   17.2254(2)
_cell_angle_alpha                67.23(1)
_cell_angle_beta                 71.58(1)
_cell_angle_gamma                65.98(1)
_cell_volume                     1652.66
_exptl_crystal_colour            colorless
_exptl_crystal_description       prism
_cell_formula_units_Z            2
_exptl_crystal_recrystallization_method dichloromethane/hexane
loop_
_atom_site_label
_atom_site_type_symbol
_atom_site_fract_x
_atom_site_fract_y
_atom_site_fract_z
S1 S 0.58098(7) 0.81111(6) 0.14104(4)
S2 S 0.28462(7) 0.68277(6) 0.25322(4)
O1 O 1.1150(3) 0.2149(4) 0.3632(2)
O2 O 0.7074(3) 0.0292(2) 0.1582(1)
C1 C 0.5883(3) 0.6456(2) 0.1888(2)
C2 C 0.7308(3) 0.5605(2) 0.1884(2)
C3 C 0.8345(3) 0.6313(3) 0.1494(2)
C4 C 0.7682(3) 0.7664(3) 0.1214(2)
C5 C 0.4674(3) 0.5936(2) 0.2277(2)
C6 C 0.4898(3) 0.4575(2) 0.2518(2)
C7 C 0.3576(3) 0.4262(3) 0.2913(2)
C8 C 0.2382(3) 0.5385(3) 0.2955(2)
C9 C 0.7637(3) 0.4109(2) 0.2362(2)
C10 C 0.7514(3) 0.3991(3) 0.3281(2)
C11 C 0.8617(3) 0.3344(3) 0.3718(2)
C12 C 1.0096(3) 0.2650(3) 0.3279(2)
C13 C 1.0260(3) 0.2612(2) 0.2394(2)
C14 C 0.9125(3) 0.3307(3) 0.1988(2)
C15 C 0.6428(3) 0.3596(2) 0.2297(2)
C16 C 0.6634(3) 0.3641(2) 0.1380(2)
C17 C 0.6913(3) 0.2581(2) 0.1124(2)
C18 C 0.6962(3) 0.1250(2) 0.1786(2)
C19 C 0.6860(3) 0.1114(2) 0.2700(2)
C20 C 0.6590(3) 0.2217(3) 0.2909(2)
C21 C 0.8426(3) 0.3302(3) 0.4642(2)
C22 C 0.8816(5) 0.1849(4) 0.5217(2)
C23 C 0.9394(4) 0.3992(4) 0.4704(2)
C24 C 0.6844(4) 0.4047(5) 0.4986(2)
C25 C 1.1739(3) 0.1757(3) 0.1989(2)
C26 C 1.2070(4) 0.0286(3) 0.2559(3)
C27 C 1.2993(3) 0.2230(3) 0.1919(2)
C28 C 1.1713(4) 0.1827(6) 0.1096(3)
C29 C 0.7204(3) 0.2663(2) 0.0177(2)
C30 C 0.8723(3) 0.1669(3) -0.0053(2)
C31 C 0.6035(3) 0.2332(3) -0.0016(2)
C32 C 0.7207(3) 0.4070(3) -0.0417(2)
C33 C 0.7041(3) -0.0283(3) 0.3365(2)
C34 C 0.5764(4) -0.0752(3) 0.3460(2)
C35 C 0.8508(4) -0.1307(3) 0.3096(2)
C36 C 0.7038(4) -0.0236(3) 0.4241(2)
H1 H 0.9382 0.5889 0.1435
H2 H 0.8203 0.8294 0.0935
H3 H 0.3525 0.3370 0.3123
H4 H 0.1404 0.5371 0.3190
H5 H 0.6576 0.4410 0.3578
H6 H 0.9272 0.3284 0.1419
H7 H 0.6562 0.4486 0.0952
H8 H 0.6489 0.2109 0.3500
H9 H 0.8726 0.1819 0.5791
H10 H 0.8172 0.1436 0.5209
H11 H 0.9800 0.1355 0.5016
H12 H 1.0395 0.3565 0.4491
H13 H 0.9112 0.4916 0.4370
H14 H 0.9286 0.3940 0.5284
H15 H 0.6585 0.4968 0.4645
H16 H 0.6204 0.3652 0.4962
H17 H 0.6751 0.4005 0.5562
H18 H 1.1319 -0.0046 0.2624
H19 H 1.2986 -0.0259 0.2323
H20 H 1.2138 0.0234 0.3121
H21 H 1.3036 0.2192 0.2477
H22 H 1.3900 0.1669 0.1691
H23 H 1.2832 0.3133 0.1559
H24 H 1.1549 0.2745 0.0730
H25 H 1.2626 0.1285 0.0858
H26 H 1.0947 0.1547 0.1111
H27 H 0.8754 0.0776 0.0303
H28 H 0.8906 0.1702 -0.0635
H29 H 0.9459 0.1884 0.0040
H30 H 0.5099 0.2979 0.0086
H31 H 0.6272 0.2344 -0.0599
H32 H 0.6006 0.1463 0.0345
H33 H 0.7958 0.4282 -0.0329
H34 H 0.7401 0.4090 -0.0998
H35 H 0.6287 0.4716 -0.0294
H36 H 0.4859 -0.0136 0.3647
H37 H 0.5746 -0.0796 0.2921
H38 H 0.5877 -0.1620 0.3868
H39 H 0.8612 -0.2168 0.3509
H40 H 0.8551 -0.1364 0.2553
H41 H 0.9303 -0.1028 0.3058
H42 H 0.7823 0.0048 0.4203
H43 H 0.6132 0.0388 0.4428
H44 H 0.7142 -0.1099 0.4650
loop_
_geom_bond_atom_site_label_1
_geom_bond_atom_site_label_2
_geom_bond_site_symmetry_1
_geom_bond_site_symmetry_2
S1 C1 1_555 1_555
S2 C5 1_555 1_555
O1 C12 1_555 1_555
O2 C18 1_555 1_555
C1 C2 1_555 1_555
C2 C3 1_555 1_555
C3 C4 1_555 1_555
C4 S1 1_555 1_555
C5 C1 1_555 1_555
C6 C5 1_555 1_555
C7 C6 1_555 1_555
C8 S2 1_555 1_555
C9 C2 1_555 1_555
C10 C9 1_555 1_555
C11 C10 1_555 1_555
C12 C11 1_555 1_555
C13 C12 1_555 1_555
C14 C9 1_555 1_555
C15 C6 1_555 1_555
C16 C15 1_555 1_555
C17 C16 1_555 1_555
C18 C17 1_555 1_555
C19 C18 1_555 1_555
C20 C15 1_555 1_555
C21 C11 1_555 1_555
C22 C21 1_555 1_555
C23 C21 1_555 1_555
C24 C21 1_555 1_555
C25 C13 1_555 1_555
C26 C25 1_555 1_555
C27 C25 1_555 1_555
C28 C25 1_555 1_555
C29 C17 1_555 1_555
C30 C29 1_555 1_555
C31 C29 1_555 1_555
C32 C29 1_555 1_555
C33 C19 1_555 1_555
C34 C33 1_555 1_555
C35 C33 1_555 1_555
C36 C33 1_555 1_555
H1 C3 1_555 1_555
H2 C4 1_555 1_555
H3 C7 1_555 1_555
H4 C8 1_555 1_555
H5 C10 1_555 1_555
H6 C14 1_555 1_555
H7 C16 1_555 1_555
H8 C20 1_555 1_555
H9 C22 1_555 1_555
H10 C22 1_555 1_555
H11 C22 1_555 1_555
H12 C23 1_555 1_555
H13 C23 1_555 1_555
H14 C23 1_555 1_555
H15 C24 1_555 1_555
H16 C24 1_555 1_555
H17 C24 1_555 1_555
H18 C26 1_555 1_555
H19 C26 1_555 1_555
H20 C26 1_555 1_555
H21 C27 1_555 1_555
H22 C27 1_555 1_555
H23 C27 1_555 1_555
H24 C28 1_555 1_555
H25 C28 1_555 1_555
H26 C28 1_555 1_555
H27 C30 1_555 1_555
H28 C30 1_555 1_555
H29 C30 1_555 1_555
H30 C31 1_555 1_555
H31 C31 1_555 1_555
H32 C31 1_555 1_555
H33 C32 1_555 1_555
H34 C32 1_555 1_555
H35 C32 1_555 1_555
H36 C34 1_555 1_555
H37 C34 1_555 1_555
H38 C34 1_555 1_555
H39 C35 1_555 1_555
H40 C35 1_555 1_555
H41 C35 1_555 1_555
H42 C36 1_555 1_555
H43 C36 1_555 1_555
H44 C36 1_555 1_555
C7 C8 1_555 1_555
C9 C15 1_555 1_555
C13 C14 1_555 1_555
C19 C20 1_555 1_555

#END
