
#######################################################################
#
#                 Cambridge Crystallographic Data Centre
#                                CCDC 
#
#######################################################################
#
# If this CIF has been generated from an entry in the Cambridge 
# Structural Database, then it will include bibliographic, chemical, 
# crystal, experimental, refinement or atomic coordinate data resulting 
# from the CCDC's data processing and validation procedures.
#
#######################################################################

data_KOLBIY
_chemical_formula_moiety         'C20 H24 B10 Br2'
_chemical_name_systematic        
1,2-(2-(diphenylmethylene)-4,5-dibromocyclopentane-1,3-diyl)-1,2-dicarba-closo-dodecaborane
_symmetry_cell_setting           monoclinic
_symmetry_space_group_name_H-M   'P 21/n'
_symmetry_Int_Tables_number      14
_space_group_name_Hall           '-P 2yn'
loop_
_symmetry_equiv_pos_site_id
_symmetry_equiv_pos_as_xyz
1 x,y,z
2 1/2-x,1/2+y,1/2-z
3 -x,-y,-z
4 1/2+x,1/2-y,1/2+z
_cell_length_a                   8.2657(9)
_cell_length_b                   13.3117(14)
_cell_length_c                   21.559(2)
_cell_angle_alpha                90
_cell_angle_beta                 101.052(2)
_cell_angle_gamma                90
_cell_volume                     2328.15
_cell_formula_units_Z            4
loop_
_atom_site_label
_atom_site_type_symbol
_atom_site_fract_x
_atom_site_fract_y
_atom_site_fract_z
Br1 Br -1.15645(5) -0.11879(3) -0.204938(16)
Br2 Br -1.12005(5) -0.36662(3) -0.208180(15)
B1 B -0.8465(5) -0.2480(2) 0.03261(16)
H1 H -0.7231 -0.2447 0.0206
B2 B -0.9206(5) -0.3593(3) 0.06100(17)
H2 H -0.8468 -0.4287 0.0665
B3 B -1.1382(5) -0.3632(2) 0.03671(17)
H3 H -1.2035 -0.4351 0.0267
B4 B -1.2038(5) -0.2551(2) -0.00651(17)
H4 H -1.3144 -0.2564 -0.0442
B5 B -0.9317(5) -0.1424(3) 0.06310(17)
H5 H -0.8655 -0.0704 0.0701
B6 B -0.8700(6) -0.2516(2) 0.11053(19)
H6 H -0.7634 -0.2508 0.1499
B7 B -1.0484(5) -0.3235(3) 0.11492(17)
H7 H -1.0569 -0.3693 0.1566
B8 B -1.2218(6) -0.2582(2) 0.07191(18)
H8 H -1.3423 -0.2616 0.0864
B9 B -1.1499(5) -0.1469(3) 0.03891(17)
H9 H -1.2231 -0.0776 0.0303
B10 B -1.0557(5) -0.1878(3) 0.11577(17)
H10 H -1.0691 -0.1450 0.1581
C1 C -1.0170(4) -0.31135(18) -0.01087(13)
C2 C -1.0230(3) -0.18952(18) -0.00985(13)
C3 C -0.9980(3) -0.16185(19) -0.07750(12)
H11 H -0.9568 -0.0936 -0.0817
C4 C -1.1547(4) -0.1893(2) -0.12625(13)
H12 H -1.2520 -0.1695 -0.1094
C5 C -1.1465(4) -0.3073(2) -0.12859(12)
H13 H -1.2440 -0.3359 -0.1155
C6 C -0.9905(3) -0.33342(19) -0.07890(12)
H14 H -0.9434 -0.3996 -0.0844
C7 C -0.8839(4) -0.24507(16) -0.09166(13)
C8 C -0.7497(3) -0.24112(17) -0.11604(12)
C9 C -0.6745(3) -0.14315(19) -0.12919(13)
C10 C -0.5715(4) -0.0948(2) -0.08011(14)
H15 H -0.5526 -0.1225 -0.0398
C11 C -0.4962(4) -0.0050(2) -0.09083(16)
H16 H -0.4282 0.0274 -0.0575
C12 C -0.5208(4) 0.0362(2) -0.14978(18)
H17 H -0.4701 0.0964 -0.1567
C13 C -0.6219(5) -0.0125(3) -0.19902(18)
H18 H -0.6384 0.0145 -0.2395
C14 C -0.6983(4) -0.1008(2) -0.18848(15)
H19 H -0.7673 -0.1324 -0.2219
C15 C -0.6593(3) -0.33344(19) -0.12905(12)
C16 C -0.6102(4) -0.3477(2) -0.18595(15)
H20 H -0.6320 -0.2983 -0.2169
C17 C -0.5291(4) -0.4343(2) -0.19783(15)
H21 H -0.4995 -0.4433 -0.2370
C18 C -0.4921(4) -0.5069(2) -0.15239(16)
H22 H -0.4373 -0.5650 -0.1604
C19 C -0.5364(4) -0.4931(2) -0.09510(15)
H23 H -0.5116 -0.5422 -0.0640
C20 C -0.6179(4) -0.4066(2) -0.08313(14)
H24 H -0.6452 -0.3974 -0.0436
loop_
_geom_bond_atom_site_label_1
_geom_bond_atom_site_label_2
_geom_bond_site_symmetry_1
_geom_bond_site_symmetry_2
Br1 C4 1_555 1_555
Br2 C5 1_555 1_555
B1 H1 1_555 1_555
B2 B1 1_555 1_555
H2 B2 1_555 1_555
B3 B2 1_555 1_555
H3 B3 1_555 1_555
B4 B3 1_555 1_555
H4 B4 1_555 1_555
B5 B1 1_555 1_555
H5 B5 1_555 1_555
B6 B1 1_555 1_555
H6 B6 1_555 1_555
B7 B2 1_555 1_555
H7 B7 1_555 1_555
B8 B3 1_555 1_555
H8 B8 1_555 1_555
B9 B4 1_555 1_555
H9 B9 1_555 1_555
B10 B5 1_555 1_555
H10 B10 1_555 1_555
C1 B1 1_555 1_555
C2 B1 1_555 1_555
C3 C2 1_555 1_555
H11 C3 1_555 1_555
C4 C3 1_555 1_555
H12 C4 1_555 1_555
C5 C4 1_555 1_555
H13 C5 1_555 1_555
C6 C1 1_555 1_555
H14 C6 1_555 1_555
C7 C3 1_555 1_555
C8 C7 1_555 1_555
C9 C8 1_555 1_555
C10 C9 1_555 1_555
H15 C10 1_555 1_555
C11 C10 1_555 1_555
H16 C11 1_555 1_555
C12 C11 1_555 1_555
H17 C12 1_555 1_555
C13 C12 1_555 1_555
H18 C13 1_555 1_555
C14 C9 1_555 1_555
H19 C14 1_555 1_555
C15 C8 1_555 1_555
C16 C15 1_555 1_555
H20 C16 1_555 1_555
C17 C16 1_555 1_555
H21 C17 1_555 1_555
C18 C17 1_555 1_555
H22 C18 1_555 1_555
C19 C18 1_555 1_555
H23 C19 1_555 1_555
C20 C15 1_555 1_555
H24 C20 1_555 1_555
B2 B6 1_555 1_555
B2 C1 1_555 1_555
B3 B7 1_555 1_555
B3 C1 1_555 1_555
B4 B8 1_555 1_555
B4 C1 1_555 1_555
B4 C2 1_555 1_555
B5 B6 1_555 1_555
B5 B9 1_555 1_555
B5 C2 1_555 1_555
B6 B7 1_555 1_555
B6 B10 1_555 1_555
B7 B8 1_555 1_555
B7 B10 1_555 1_555
B8 B9 1_555 1_555
B8 B10 1_555 1_555
B9 B10 1_555 1_555
B9 C2 1_555 1_555
C1 C2 1_555 1_555
C5 C6 1_555 1_555
C6 C7 1_555 1_555
C13 C14 1_555 1_555
C19 C20 1_555 1_555

#END
