
#######################################################################
#
#                 Cambridge Crystallographic Data Centre
#                                CCDC 
#
#######################################################################
#
# If this CIF has been generated from an entry in the Cambridge 
# Structural Database, then it will include bibliographic, chemical, 
# crystal, experimental, refinement or atomic coordinate data resulting 
# from the CCDC's data processing and validation procedures.
#
#######################################################################

data_KOLCAR
_chemical_formula_moiety         'C32 H32 B10 N4'
_chemical_name_systematic        
1,2-(6-(diphenylmethylene)-1,4-bis(pyridin-2-yl)-4a,5,6,7-tetrahydro-2H-cyclopenta[d]pyridazine-5,7-diyl)-1,2-dicarba-closo-dodecaborane
_symmetry_cell_setting           monoclinic
_symmetry_space_group_name_H-M   'P 21/n'
_symmetry_Int_Tables_number      14
_space_group_name_Hall           '-P 2yn'
loop_
_symmetry_equiv_pos_site_id
_symmetry_equiv_pos_as_xyz
1 x,y,z
2 1/2-x,1/2+y,1/2-z
3 -x,-y,-z
4 1/2+x,1/2-y,1/2+z
_cell_length_a                   11.1688(7)
_cell_length_b                   24.8307(16)
_cell_length_c                   12.0184(8)
_cell_angle_alpha                90
_cell_angle_beta                 108.741(2)
_cell_angle_gamma                90
_cell_volume                     3156.34
_cell_formula_units_Z            4
loop_
_atom_site_label
_atom_site_type_symbol
_atom_site_fract_x
_atom_site_fract_y
_atom_site_fract_z
N1 N 0.16404(16) -0.26062(7) -0.17563(16)
N2 N 0.04478(17) -0.28418(7) -0.21331(18)
H1 H 0.047(2) -0.3168(10) -0.176(2)
N3 N 0.32344(17) -0.15073(9) -0.23209(18)
N4 N -0.10772(18) -0.32335(7) -0.10260(17)
B1 B -0.1394(2) -0.04798(9) -0.2733(2)
H2 H -0.0989 -0.0317 -0.1838
B2 B -0.2986(2) -0.06660(10) -0.3278(2)
H3 H -0.3611 -0.0631 -0.2737
B3 B -0.3155(2) -0.12057(10) -0.4283(2)
H4 H -0.3885 -0.1516 -0.4377
B4 B -0.1671(2) -0.13643(9) -0.4409(2)
H5 H -0.1450 -0.1777 -0.4613
B5 B -0.0852(2) -0.02663(9) -0.3882(2)
H6 H -0.0085 0.0030 -0.3736
B6 B -0.2397(2) -0.00947(10) -0.3847(2)
H7 H -0.2655 0.0320 -0.3698
B7 B -0.3502(2) -0.05351(11) -0.4814(2)
H8 H -0.4476 -0.0406 -0.5283
B8 B -0.2671(2) -0.09635(10) -0.5483(2)
H9 H -0.3108 -0.1108 -0.6388
B9 B -0.1012(2) -0.08051(10) -0.4885(2)
H10 H -0.0341 -0.0854 -0.5376
B10 B -0.2170(2) -0.02869(10) -0.5192(2)
H11 H -0.2271 0.0003 -0.5908
C1 C -0.18291(17) -0.11475(7) -0.30815(16)
C2 C -0.06309(17) -0.09226(7) -0.34148(16)
C3 C 0.05196(18) -0.11904(7) -0.24826(16)
H12 H 0.1324 -0.1000 -0.2335
C4 C 0.05651(17) -0.18004(7) -0.27487(17)
H13 H 0.0434 -0.1859 -0.3586
C5 C -0.05702(17) -0.20097(8) -0.24196(17)
C6 C -0.11848(17) -0.15285(7) -0.20410(16)
H14 H -0.1695 -0.1615 -0.1536
C7 C 0.00569(17) -0.12342(7) -0.14262(17)
C8 C 0.05928(18) -0.11396(7) -0.02823(17)
C9 C 0.18141(18) -0.08478(8) 0.02184(17)
C10 C 0.2146(2) -0.04128(9) -0.0341(2)
H15 H 0.1594 -0.0294 -0.1056
C11 C 0.3287(3) -0.01542(11) 0.0149(3)
H16 H 0.3498 0.0137 -0.0237
C12 C 0.4114(3) -0.03227(12) 0.1203(3)
H17 H 0.4887 -0.0150 0.1523
C13 C 0.3797(2) -0.07445(11) 0.1779(2)
H18 H 0.4353 -0.0858 0.2497
C14 C 0.2650(2) -0.10047(9) 0.1296(2)
H19 H 0.2437 -0.1289 0.1700
C15 C -0.00931(18) -0.13072(8) 0.05439(17)
C16 C -0.0442(2) -0.18385(9) 0.06135(19)
H20 H -0.0180 -0.2103 0.0195
C17 C -0.1181(2) -0.19777(11) 0.1305(2)
H21 H -0.1426 -0.2334 0.1336
C18 C -0.1549(2) -0.15941(12) 0.1937(2)
H22 H -0.2053 -0.1688 0.2390
C19 C -0.1178(2) -0.10708(12) 0.1909(2)
H23 H -0.1420 -0.0810 0.2349
C20 C -0.0444(2) -0.09316(9) 0.1226(2)
H24 H -0.0180 -0.0577 0.1224
C21 C 0.17074(19) -0.21083(8) -0.20069(18)
C22 C 0.29803(19) -0.18567(8) -0.15824(19)
C23 C 0.3837(2) -0.19805(10) -0.0505(2)
H25 H 0.3625 -0.2221 -0.0006
C24 C 0.5014(2) -0.17433(12) -0.0176(3)
H26 H 0.5608 -0.1822 0.0548
C25 C 0.5294(2) -0.13916(12) -0.0927(3)
H27 H 0.6084 -0.1229 -0.0732
C26 C 0.4383(3) -0.12842(12) -0.1973(3)
H28 H 0.4575 -0.1040 -0.2476
C27 C -0.05964(18) -0.25293(8) -0.21428(17)
C28 C -0.1527(2) -0.28011(8) -0.16974(18)
C29 C -0.2748(2) -0.26215(9) -0.1922(2)
H29 H -0.3056 -0.2334 -0.2429
C30 C -0.3508(3) -0.28786(12) -0.1376(3)
H30 H -0.4328 -0.2760 -0.1490
C31 C -0.3028(3) -0.33118(13) -0.0664(3)
H31 H -0.3514 -0.3488 -0.0276
C32 C -0.1833(3) -0.34793(11) -0.0533(2)
H32 H -0.1529 -0.3782 -0.0075
loop_
_geom_bond_atom_site_label_1
_geom_bond_atom_site_label_2
_geom_bond_site_symmetry_1
_geom_bond_site_symmetry_2
N1 N2 1_555 1_555
N2 H1 1_555 1_555
N3 C22 1_555 1_555
N4 C28 1_555 1_555
B1 H2 1_555 1_555
B2 B1 1_555 1_555
H3 B2 1_555 1_555
B3 B2 1_555 1_555
H4 B3 1_555 1_555
B4 B3 1_555 1_555
H5 B4 1_555 1_555
B5 B1 1_555 1_555
H6 B5 1_555 1_555
B6 B1 1_555 1_555
H7 B6 1_555 1_555
B7 B2 1_555 1_555
H8 B7 1_555 1_555
B8 B3 1_555 1_555
H9 B8 1_555 1_555
B9 B4 1_555 1_555
H10 B9 1_555 1_555
B10 B5 1_555 1_555
H11 B10 1_555 1_555
C1 B1 1_555 1_555
C2 B1 1_555 1_555
C3 C2 1_555 1_555
H12 C3 1_555 1_555
C4 C3 1_555 1_555
H13 C4 1_555 1_555
C5 C4 1_555 1_555
C6 C1 1_555 1_555
H14 C6 1_555 1_555
C7 C3 1_555 1_555
C8 C7 1_555 1_555
C9 C8 1_555 1_555
C10 C9 1_555 1_555
H15 C10 1_555 1_555
C11 C10 1_555 1_555
H16 C11 1_555 1_555
C12 C11 1_555 1_555
H17 C12 1_555 1_555
C13 C12 1_555 1_555
H18 C13 1_555 1_555
C14 C9 1_555 1_555
H19 C14 1_555 1_555
C15 C8 1_555 1_555
C16 C15 1_555 1_555
H20 C16 1_555 1_555
C17 C16 1_555 1_555
H21 C17 1_555 1_555
C18 C17 1_555 1_555
H22 C18 1_555 1_555
C19 C18 1_555 1_555
H23 C19 1_555 1_555
C20 C15 1_555 1_555
H24 C20 1_555 1_555
C21 N1 1_555 1_555
C22 C21 1_555 1_555
C23 C22 1_555 1_555
H25 C23 1_555 1_555
C24 C23 1_555 1_555
H26 C24 1_555 1_555
C25 C24 1_555 1_555
H27 C25 1_555 1_555
C26 N3 1_555 1_555
H28 C26 1_555 1_555
C27 N2 1_555 1_555
C28 C27 1_555 1_555
C29 C28 1_555 1_555
H29 C29 1_555 1_555
C30 C29 1_555 1_555
H30 C30 1_555 1_555
C31 C30 1_555 1_555
H31 C31 1_555 1_555
C32 N4 1_555 1_555
H32 C32 1_555 1_555
B2 B6 1_555 1_555
B2 C1 1_555 1_555
B3 B7 1_555 1_555
B3 C1 1_555 1_555
B4 B8 1_555 1_555
B4 C1 1_555 1_555
B4 C2 1_555 1_555
B5 B6 1_555 1_555
B5 B9 1_555 1_555
B5 C2 1_555 1_555
B6 B7 1_555 1_555
B6 B10 1_555 1_555
B7 B8 1_555 1_555
B7 B10 1_555 1_555
B8 B9 1_555 1_555
B8 B10 1_555 1_555
B9 B10 1_555 1_555
B9 C2 1_555 1_555
C1 C2 1_555 1_555
C4 C21 1_555 1_555
C5 C6 1_555 1_555
C5 C27 1_555 1_555
C6 C7 1_555 1_555
C13 C14 1_555 1_555
C19 C20 1_555 1_555
C25 C26 1_555 1_555
C31 C32 1_555 1_555

#END
