
#######################################################################
#
#                 Cambridge Crystallographic Data Centre
#                                CCDC 
#
#######################################################################
#
# If this CIF has been generated from an entry in the Cambridge 
# Structural Database, then it will include bibliographic, chemical, 
# crystal, experimental, refinement or atomic coordinate data resulting 
# from the CCDC's data processing and validation procedures.
#
#######################################################################

data_KOLJUR
_chemical_formula_moiety         'C32 H23 F3 N1 O3 P1 S1,C1 H2 Cl2'
_chemical_name_systematic        
"(S)-3-(((4-Sulfidodinaphtho[2,1-d:1',2'-f][1,3,2]dioxaphosphepin-4-yl)amino)(4-(trifluoromethyl)phenyl)methyl)-3-buten-2-one dichloromethane solvate"
_symmetry_cell_setting           orthorhombic
_symmetry_space_group_name_H-M   'P 21 21 21'
_symmetry_Int_Tables_number      19
_space_group_name_Hall           'P 2ac 2ab'
loop_
_symmetry_equiv_pos_site_id
_symmetry_equiv_pos_as_xyz
1 x,y,z
2 1/2+x,1/2-y,-z
3 -x,1/2+y,1/2-z
4 1/2-x,-y,1/2+z
_cell_length_a                   8.0179(3)
_cell_length_b                   10.2679(4)
_cell_length_c                   37.4726(13)
_cell_angle_alpha                90
_cell_angle_beta                 90
_cell_angle_gamma                90
_cell_volume                     3085.01
_exptl_crystal_colour            colorless
_exptl_crystal_description       block
_chemical_melting_point          '123-127 deg.C'
_cell_formula_units_Z            4
loop_
_atom_site_label
_atom_site_type_symbol
_atom_site_fract_x
_atom_site_fract_y
_atom_site_fract_z
Cl1 Cl 0.04928(12) 0.65530(8) 0.37485(2)
Cl2 Cl -0.11071(10) 0.64186(7) 0.305292(18)
C33 C 0.0674(4) 0.6949(3) 0.32936(8)
H23 H 0.1684 0.6531 0.3194
H24 H 0.0797 0.7903 0.3267
S1 S 0.93897(7) 0.00544(6) 0.279832(15)
P1 P 0.87384(7) 0.07760(5) 0.324644(14)
O1 O 0.99214(18) 0.01962(14) 0.35580(4)
O2 O 0.89077(18) 0.23161(14) 0.33034(4)
O3 O 0.4740(2) -0.28363(17) 0.29435(5)
N1 N 0.6779(2) 0.05909(19) 0.33525(5)
F1 F 0.3494(7) -0.3857(4) 0.46766(12)
F2 F 0.3610(8) -0.1909(5) 0.49014(10)
F3 F 0.1444(5) -0.2542(5) 0.46095(13)
C1 C 1.0324(3) 0.1945(2) 0.39753(5)
C2 C 0.9709(3) 0.0720(2) 0.39032(5)
C3 C 0.8890(3) -0.0059(2) 0.41577(6)
H1 H 0.8514 -0.0908 0.4097
C4 C 0.8644(3) 0.0425(2) 0.44931(6)
H2 H 0.8131 -0.0106 0.4669
C5 C 0.9146(3) 0.1712(2) 0.45819(6)
C6 C 0.9978(3) 0.2488(2) 0.43215(5)
C7 C 1.0339(3) 0.3806(2) 0.44050(6)
H3 H 1.0882 0.4342 0.4234
C8 C 0.9910(3) 0.4308(3) 0.47303(6)
H4 H 1.0132 0.5198 0.4780
C9 C 0.9142(4) 0.3527(3) 0.49931(6)
H5 H 0.8875 0.3884 0.5220
C10 C 0.8784(4) 0.2254(3) 0.49199(6)
H6 H 0.8286 0.1726 0.5099
C11 C 1.1248(3) 0.26671(19) 0.36899(5)
C12 C 1.0516(3) 0.2823(2) 0.33602(5)
C13 C 1.1268(3) 0.3493(2) 0.30764(5)
H7 H 1.0703 0.3589 0.2855
C14 C 1.2833(3) 0.4007(2) 0.31229(6)
H8 H 1.3338 0.4488 0.2935
C15 C 1.3706(3) 0.3824(2) 0.34502(6)
C16 C 1.2919(3) 0.3137(2) 0.37356(5)
C17 C 1.3873(3) 0.2898(2) 0.40490(6)
H9 H 1.3376 0.2441 0.4242
C18 C 1.5497(3) 0.3313(2) 0.40789(6)
H10 H 1.6114 0.3126 0.4289
C19 C 1.6253(3) 0.4016(2) 0.37977(6)
H11 H 1.7371 0.4310 0.3820
C20 C 1.5374(3) 0.4273(2) 0.34937(6)
H12 H 1.5884 0.4760 0.3308
C21 C 0.5933(3) -0.0660(2) 0.32825(6)
H13 H 0.6805 -0.1295 0.3205
C22 C 0.4666(3) -0.0551(2) 0.29807(6)
C23 C 0.4203(3) -0.1828(2) 0.28151(6)
C24 C 0.3087(3) -0.1853(3) 0.24915(7)
H14 H 0.2918 -0.2756 0.2415
H15 H 0.3610 -0.1357 0.2298
H16 H 0.2008 -0.1461 0.2551
C25 C 0.4025(3) 0.0579(2) 0.28695(7)
H17 H 0.3246 0.0592 0.2679
H18 H 0.4350 0.1370 0.2981
C26 C 0.5169(3) -0.1182(2) 0.36270(6)
C27 C 0.3920(3) -0.0488(2) 0.38041(6)
H19 H 0.3488 0.0288 0.3702
C28 C 0.3309(3) -0.0927(2) 0.41284(6)
H20 H 0.2478 -0.0441 0.4251
C29 C 0.3907(3) -0.2073(2) 0.42746(6)
C30 C 0.5138(4) -0.2777(2) 0.40990(7)
H21 H 0.5552 -0.3562 0.4200
C31 C 0.5756(3) -0.2335(2) 0.37776(7)
H22 H 0.6592 -0.2822 0.3658
C32 C 0.3199(4) -0.2561(3) 0.46168(7)
H25 H 0.632(4) 0.106(3) 0.3500(9)
F4? F 0.2726(14) -0.3757(8) 0.4608(3)
F5? F 0.4478(11) -0.2513(11) 0.4875(2)
F6? F 0.2043(12) -0.1798(9) 0.4759(3)
F7? F 0.4124(11) -0.3459(9) 0.4774(2)
F8? F 0.2879(18) -0.1569(10) 0.4850(3)
F9? F 0.1706(10) -0.3077(11) 0.4560(3)
loop_
_geom_bond_atom_site_label_1
_geom_bond_atom_site_label_2
_geom_bond_site_symmetry_1
_geom_bond_site_symmetry_2
Cl1 C33 1_555 1_555
Cl2 C33 1_555 1_555
S1 P1 1_555 1_555
P1 O1 1_555 1_555
O1 C2 1_555 1_555
O2 P1 1_555 1_555
O3 C23 1_555 1_555
N1 P1 1_555 1_555
F1 C32 1_555 1_555
F2 C32 1_555 1_555
F3 C32 1_555 1_555
C1 C2 1_555 1_555
C2 C3 1_555 1_555
C3 H1 1_555 1_555
C4 C3 1_555 1_555
H2 C4 1_555 1_555
C5 C4 1_555 1_555
C6 C1 1_555 1_555
C7 C6 1_555 1_555
H3 C7 1_555 1_555
C8 C7 1_555 1_555
H4 C8 1_555 1_555
C9 C8 1_555 1_555
H5 C9 1_555 1_555
C10 C5 1_555 1_555
H6 C10 1_555 1_555
C11 C1 1_555 1_555
C12 O2 1_555 1_555
C13 C12 1_555 1_555
H7 C13 1_555 1_555
C14 C13 1_555 1_555
H8 C14 1_555 1_555
C15 C14 1_555 1_555
C16 C11 1_555 1_555
C17 C16 1_555 1_555
H9 C17 1_555 1_555
C18 C17 1_555 1_555
H10 C18 1_555 1_555
C19 C18 1_555 1_555
H11 C19 1_555 1_555
C20 C15 1_555 1_555
H12 C20 1_555 1_555
C21 N1 1_555 1_555
H13 C21 1_555 1_555
C22 C21 1_555 1_555
C23 C22 1_555 1_555
C24 C23 1_555 1_555
H14 C24 1_555 1_555
H15 C24 1_555 1_555
H16 C24 1_555 1_555
C25 C22 1_555 1_555
H17 C25 1_555 1_555
H18 C25 1_555 1_555
C26 C21 1_555 1_555
C27 C26 1_555 1_555
H19 C27 1_555 1_555
C28 C27 1_555 1_555
H20 C28 1_555 1_555
C29 C28 1_555 1_555
C30 C29 1_555 1_555
H21 C30 1_555 1_555
C31 C26 1_555 1_555
H22 C31 1_555 1_555
C32 C29 1_555 1_555
C33 H23 1_555 1_555
H24 C33 1_555 1_555
H25 N1 1_555 1_555
C5 C6 1_555 1_555
C9 C10 1_555 1_555
C11 C12 1_555 1_555
C15 C16 1_555 1_555
C19 C20 1_555 1_555
C30 C31 1_555 1_555

#END
