
#######################################################################
#
#                 Cambridge Crystallographic Data Centre
#                                CCDC 
#
#######################################################################
#
# If this CIF has been generated from an entry in the Cambridge 
# Structural Database, then it will include bibliographic, chemical, 
# crystal, experimental, refinement or atomic coordinate data resulting 
# from the CCDC's data processing and validation procedures.
#
#######################################################################

data_KOLKED
_chemical_formula_moiety         'C30 H16 F4 S8'
_chemical_name_systematic        
2-(4,5-bis((4-fluorophenyl)sulfanyl)-1,3-dithiol-2-ylidene)-4,5-bis((4-fluorophenyl)sulfanyl)-1,3-dithiole
_symmetry_cell_setting           triclinic
_symmetry_space_group_name_H-M   'P -1'
_symmetry_Int_Tables_number      2
_space_group_name_Hall           '-P 1'
loop_
_symmetry_equiv_pos_site_id
_symmetry_equiv_pos_as_xyz
1 x,y,z
2 -x,-y,-z
_cell_length_a                   5.4564(3)
_cell_length_b                   11.5781(8)
_cell_length_c                   12.3427(12)
_cell_angle_alpha                80.426(7)
_cell_angle_beta                 85.204(6)
_cell_angle_gamma                82.953(5)
_cell_volume                     761.485
_exptl_crystal_colour            orange
_exptl_crystal_description       needle
_chemical_melting_point          '446 K'
_cell_formula_units_Z            1
loop_
_atom_site_label
_atom_site_type_symbol
_atom_site_fract_x
_atom_site_fract_y
_atom_site_fract_z
C1 C 0.9009(4) 0.02351(18) 0.02756(18)
C2 C 0.5599(4) 0.1645(2) 0.1127(2)
C3 C 0.5178(4) 0.0561(2) 0.16229(19)
C4 C 0.5447(4) 0.3840(2) 0.1737(2)
C5 C 0.4857(5) 0.5034(2) 0.1428(2)
H1 H 0.3558 0.5307 0.0977
C6 C 0.6170(6) 0.5829(3) 0.1782(3)
H2 H 0.5768 0.6636 0.1579
C7 C 0.8054(6) 0.5406(3) 0.2429(3)
C8 C 0.8695(5) 0.4233(3) 0.2757(3)
H3 H 1.0002 0.3973 0.3206
C9 C 0.7364(5) 0.3436(2) 0.2409(2)
H4 H 0.7761 0.2631 0.2628
C10 C 0.3906(4) -0.1004(2) 0.34356(19)
C11 C 0.5857(5) -0.0964(3) 0.4074(2)
H5 H 0.6559 -0.0264 0.4033
C12 C 0.6759(5) -0.1952(3) 0.4767(2)
H6 H 0.8065 -0.1934 0.5200
C13 C 0.5677(6) -0.2959(3) 0.4799(2)
C14 C 0.3757(6) -0.3032(3) 0.4204(3)
H7 H 0.3051 -0.3733 0.4261
C15 C 0.2866(5) -0.2037(2) 0.3506(2)
H8 H 0.1552 -0.2067 0.3081
S1 S 0.80728(11) 0.17572(5) 0.01174(6)
S2 S 0.71113(10) -0.06375(5) 0.12109(5)
S3 S 0.35531(11) 0.28912(6) 0.12920(6)
S4 S 0.26505(11) 0.02706(6) 0.25579(6)
F1 F 0.9379(3) 0.61787(18) 0.2784(2)
F2 F 0.6613(4) -0.39487(18) 0.54683(16)
C1A C 1.0991(4) -0.02351(18) -0.02756(18)
C2A C 1.4401(4) -0.1645(2) -0.1127(2)
C3A C 1.4822(4) -0.0561(2) -0.16229(19)
C4A C 1.4553(4) -0.3840(2) -0.1737(2)
C5A C 1.5143(5) -0.5034(2) -0.1428(2)
H1A H 1.6442 -0.5307 -0.0977
C6A C 1.3830(6) -0.5829(3) -0.1782(3)
H2A H 1.4232 -0.6636 -0.1579
C7A C 1.1946(6) -0.5406(3) -0.2429(3)
C8A C 1.1305(5) -0.4233(3) -0.2757(3)
H3A H 0.9998 -0.3973 -0.3206
C9A C 1.2636(5) -0.3436(2) -0.2409(2)
H4A H 1.2239 -0.2631 -0.2628
C10A C 1.6094(4) 0.1004(2) -0.34356(19)
C11A C 1.4143(5) 0.0964(3) -0.4074(2)
H5A H 1.3441 0.0264 -0.4033
C12A C 1.3241(5) 0.1952(3) -0.4767(2)
H6A H 1.1935 0.1934 -0.5200
C13A C 1.4323(6) 0.2959(3) -0.4799(2)
C14A C 1.6243(6) 0.3032(3) -0.4204(3)
H7A H 1.6949 0.3733 -0.4261
C15A C 1.7134(5) 0.2037(2) -0.3506(2)
H8A H 1.8448 0.2067 -0.3081
S1A S 1.19272(11) -0.17572(5) -0.01174(6)
S2A S 1.28887(10) 0.06375(5) -0.12109(5)
S3A S 1.64469(11) -0.28912(6) -0.12920(6)
S4A S 1.73495(11) -0.02706(6) -0.25579(6)
F1A F 1.0621(3) -0.61787(18) -0.2784(2)
F2A F 1.3387(4) 0.39487(18) -0.54683(16)
loop_
_geom_bond_atom_site_label_1
_geom_bond_atom_site_label_2
_geom_bond_site_symmetry_1
_geom_bond_site_symmetry_2
C1 S1 1_555 1_555
C2 C3 1_555 1_555
C3 S2 1_555 1_555
C4 C5 1_555 1_555
C5 H1 1_555 1_555
C6 C5 1_555 1_555
H2 C6 1_555 1_555
C7 C6 1_555 1_555
C8 C7 1_555 1_555
H3 C8 1_555 1_555
C9 C4 1_555 1_555
H4 C9 1_555 1_555
C10 C11 1_555 1_555
C11 H5 1_555 1_555
C12 C11 1_555 1_555
H6 C12 1_555 1_555
C13 C12 1_555 1_555
C14 C13 1_555 1_555
H7 C14 1_555 1_555
C15 C10 1_555 1_555
H8 C15 1_555 1_555
S1 C2 1_555 1_555
S2 C1 1_555 1_555
S3 C2 1_555 1_555
S4 C3 1_555 1_555
F1 C7 1_555 1_555
F2 C13 1_555 1_555
C1A C1 1_555 1_555
C2A C3A 1_555 1_555
C3A S2A 1_555 1_555
C4A C5A 1_555 1_555
C5A H1A 1_555 1_555
C6A C5A 1_555 1_555
H2A C6A 1_555 1_555
C7A C6A 1_555 1_555
C8A C7A 1_555 1_555
H3A C8A 1_555 1_555
C9A C4A 1_555 1_555
H4A C9A 1_555 1_555
C10A C11A 1_555 1_555
C11A H5A 1_555 1_555
C12A C11A 1_555 1_555
H6A C12A 1_555 1_555
C13A C12A 1_555 1_555
C14A C13A 1_555 1_555
H7A C14A 1_555 1_555
C15A C10A 1_555 1_555
H8A C15A 1_555 1_555
S1A C1A 1_555 1_555
S2A C1A 1_555 1_555
S3A C2A 1_555 1_555
S4A C3A 1_555 1_555
F1A C7A 1_555 1_555
F2A C13A 1_555 1_555
C4 S3 1_555 1_555
C8 C9 1_555 1_555
C10 S4 1_555 1_555
C14 C15 1_555 1_555
C2A S1A 1_555 1_555
C4A S3A 1_555 1_555
C8A C9A 1_555 1_555
C10A S4A 1_555 1_555
C14A C15A 1_555 1_555

#END
