
#######################################################################
#
#                 Cambridge Crystallographic Data Centre
#                                CCDC 
#
#######################################################################
#
# If this CIF has been generated from an entry in the Cambridge 
# Structural Database, then it will include bibliographic, chemical, 
# crystal, experimental, refinement or atomic coordinate data resulting 
# from the CCDC's data processing and validation procedures.
#
#######################################################################

data_KOLLAA
_chemical_formula_moiety         'C30 H10 F8 S8'
_chemical_name_systematic        
2-(4,5-bis((3,4-difluorophenyl)sulfanyl)-1,3-dithiol-2-ylidene)-4,5-bis((3,4-difluorophenyl)sulfanyl)-1,3-dithiole
_symmetry_cell_setting           monoclinic
_symmetry_space_group_name_H-M   'P 21/n'
_symmetry_Int_Tables_number      14
_space_group_name_Hall           '-P 2yn'
loop_
_symmetry_equiv_pos_site_id
_symmetry_equiv_pos_as_xyz
1 x,y,z
2 1/2-x,1/2+y,1/2-z
3 -x,-y,-z
4 1/2+x,1/2-y,1/2+z
_cell_length_a                   5.0185(4)
_cell_length_b                   28.363(3)
_cell_length_c                   11.1833(16)
_cell_angle_alpha                90
_cell_angle_beta                 100.431(10)
_cell_angle_gamma                90
_cell_volume                     1565.52
_exptl_crystal_colour            'dark orange'
_exptl_crystal_description       block
_chemical_melting_point          '458 K'
_cell_formula_units_Z            2
loop_
_atom_site_label
_atom_site_type_symbol
_atom_site_fract_x
_atom_site_fract_y
_atom_site_fract_z
C1 C 0.4010(7) 0.01309(12) -0.0318(3)
C2 C 0.0507(7) 0.05224(14) -0.2028(4)
C3 C 0.0151(7) 0.07358(13) -0.1004(4)
C4 C 0.0710(8) 0.08867(16) -0.4267(4)
C5 C 0.1846(9) 0.13167(18) -0.3901(5)
H1 H 0.1490 0.1468 -0.3209
C6 C 0.3520(12) 0.1510(2) -0.4603(7)
C7 C 0.4131(14) 0.1326(3) -0.5611(7)
C8 C 0.2969(15) 0.0909(3) -0.5954(6)
C9 C 0.1326(12) 0.0693(2) -0.5297(5)
H2 H 0.0589 0.0401 -0.5555
C10 C -0.0498(8) 0.15697(14) 0.0130(4)
C11 C 0.1424(9) 0.18588(16) -0.0206(5)
H3 H 0.1872 0.1834 -0.0975
C12 C 0.2669(11) 0.21830(18) 0.0605(7)
C13 C 0.2031(15) 0.2219(2) 0.1764(7)
C14 C 0.0150(14) 0.1939(3) 0.2080(6)
H4 H -0.0304 0.1969 0.2847
C15 C -0.1140(11) 0.16051(19) 0.1275(5)
H5 H -0.2430 0.1406 0.1505
S1 S 0.2998(2) 0.00801(4) -0.19028(9)
S2 S 0.21773(19) 0.05490(4) 0.03673(9)
S3 S -0.1573(2) 0.06123(4) -0.34447(11)
S4 S -0.2333(2) 0.11631(4) -0.09190(13)
F1 F 0.5788(8) 0.15436(19) -0.6218(4)
F2 F 0.4516(7) 0.24730(12) 0.0302(5)
F3 F 0.3361(10) 0.25492(14) 0.2495(5)
F4 F 0.4866(14) 0.1865(2) -0.4359(7)
C1B C 0.5990(7) -0.01309(12) 0.0318(3)
C2B C 0.9493(7) -0.05224(14) 0.2028(4)
C3B C 0.9849(7) -0.07358(13) 0.1004(4)
C4B C 0.9290(8) -0.08867(16) 0.4267(4)
C5B C 0.8154(9) -0.13167(18) 0.3901(5)
H1B H 0.8510 -0.1468 0.3209
C6B C 0.6480(12) -0.1510(2) 0.4603(7)
C7B C 0.5869(14) -0.1326(3) 0.5611(7)
C8B C 0.7031(15) -0.0909(3) 0.5954(6)
C9B C 0.8674(12) -0.0693(2) 0.5297(5)
H2B H 0.9411 -0.0401 0.5555
C10B C 1.0498(8) -0.15697(14) -0.0130(4)
C11B C 0.8576(9) -0.18588(16) 0.0206(5)
H3B H 0.8128 -0.1834 0.0975
C12B C 0.7331(11) -0.21830(18) -0.0605(7)
C13B C 0.7969(15) -0.2219(2) -0.1764(7)
C14B C 0.9850(14) -0.1939(3) -0.2080(6)
H4B H 1.0304 -0.1969 -0.2847
C15B C 1.1140(11) -0.16051(19) -0.1275(5)
H5B H 1.2430 -0.1406 -0.1505
S1B S 0.7002(2) -0.00801(4) 0.19028(9)
S2B S 0.78227(19) -0.05490(4) -0.03673(9)
S3B S 1.1573(2) -0.06123(4) 0.34447(11)
S4B S 1.2333(2) -0.11631(4) 0.09190(13)
F1B F 0.4212(8) -0.15436(19) 0.6218(4)
F2B F 0.5484(7) -0.24730(12) -0.0302(5)
F3B F 0.6639(10) -0.25492(14) -0.2495(5)
F4B F 0.5134(14) -0.1865(2) 0.4359(7)
F5? F 0.4145(19) 0.0804(3) -0.6815(7)
loop_
_geom_bond_atom_site_label_1
_geom_bond_atom_site_label_2
_geom_bond_site_symmetry_1
_geom_bond_site_symmetry_2
C1 S1 1_555 1_555
C2 C3 1_555 1_555
C3 S2 1_555 1_555
C4 C5 1_555 1_555
C5 H1 1_555 1_555
C6 C5 1_555 1_555
C7 C6 1_555 1_555
C8 C7 1_555 1_555
C9 C4 1_555 1_555
H2 C9 1_555 1_555
C10 C11 1_555 1_555
C11 H3 1_555 1_555
C12 C11 1_555 1_555
C13 C12 1_555 1_555
C14 C13 1_555 1_555
H4 C14 1_555 1_555
C15 C10 1_555 1_555
H5 C15 1_555 1_555
S1 C2 1_555 1_555
S2 C1 1_555 1_555
S3 C2 1_555 1_555
S4 C3 1_555 1_555
F1 C7 1_555 1_555
F2 C12 1_555 1_555
F3 C13 1_555 1_555
F4 C6 1_555 1_555
C1B C1 1_555 1_555
C2B C3B 1_555 1_555
C3B S2B 1_555 1_555
C4B C5B 1_555 1_555
C5B H1B 1_555 1_555
C6B C5B 1_555 1_555
C7B C6B 1_555 1_555
C8B C7B 1_555 1_555
C9B C4B 1_555 1_555
H2B C9B 1_555 1_555
C10B C11B 1_555 1_555
C11B H3B 1_555 1_555
C12B C11B 1_555 1_555
C13B C12B 1_555 1_555
C14B C13B 1_555 1_555
H4B C14B 1_555 1_555
C15B C10B 1_555 1_555
H5B C15B 1_555 1_555
S1B C1B 1_555 1_555
S2B C1B 1_555 1_555
S3B C2B 1_555 1_555
S4B C3B 1_555 1_555
F1B C7B 1_555 1_555
F2B C12B 1_555 1_555
F3B C13B 1_555 1_555
F4B C6B 1_555 1_555
C4 S3 1_555 1_555
C8 C9 1_555 1_555
C10 S4 1_555 1_555
C14 C15 1_555 1_555
C2B S1B 1_555 1_555
C4B S3B 1_555 1_555
C8B C9B 1_555 1_555
C10B S4B 1_555 1_555
C14B C15B 1_555 1_555

#END
