
#######################################################################
#
#                 Cambridge Crystallographic Data Centre
#                                CCDC 
#
#######################################################################
#
# If this CIF has been generated from an entry in the Cambridge 
# Structural Database, then it will include bibliographic, chemical, 
# crystal, experimental, refinement or atomic coordinate data resulting 
# from the CCDC's data processing and validation procedures.
#
#######################################################################

data_KOLZES
_chemical_formula_moiety         'C24 H17 Br1 Cl1 N3 O1'
_chemical_name_systematic        
3-(4-Bromophenyl)-2-(4-chlorobenzoyl)-7-(dimethylamino)indolizine-1-carbonitrile
_symmetry_cell_setting           orthorhombic
_symmetry_space_group_name_H-M   'P 21 21 21'
_symmetry_Int_Tables_number      19
_space_group_name_Hall           'P 2ac 2ab'
loop_
_symmetry_equiv_pos_site_id
_symmetry_equiv_pos_as_xyz
1 x,y,z
2 1/2-x,-y,1/2+z
3 -x,1/2+y,1/2-z
4 1/2+x,1/2-y,-z
_cell_length_a                   10.2750(12)
_cell_length_b                   11.4634(14)
_cell_length_c                   18.344(2)
_cell_angle_alpha                90
_cell_angle_beta                 90
_cell_angle_gamma                90
_cell_volume                     2160.67
_cell_formula_units_Z            4
loop_
_atom_site_label
_atom_site_type_symbol
_atom_site_fract_x
_atom_site_fract_y
_atom_site_fract_z
Br1 Br 0.07465(9) 0.64626(9) 0.23396(5)
Cl1 Cl 0.3897(4) 0.7223(3) 0.60731(19)
N1 N 0.2222(5) 0.1081(5) 0.3928(3)
C1 C 0.1686(8) 0.0203(8) 0.5784(4)
C2 C 0.3670(8) 0.5074(7) 0.5503(4)
H1 H 0.4540 0.5150 0.5370
C3 C 0.1724(6) 0.3931(7) 0.5558(4)
C4 C 0.3003(7) 0.4077(7) 0.5347(4)
H2 H 0.3419 0.3482 0.5092
C5 C 0.1759(7) 0.2142(7) 0.4212(4)
N2 N 0.3624(8) -0.2218(6) 0.3433(4)
C6 C 0.2493(7) 0.3615(8) 0.3305(4)
H3 H 0.3299 0.3248 0.3282
C7 C 0.1539(7) 0.3174(7) 0.3762(4)
C8 C 0.4172(9) -0.2459(8) 0.2717(5)
H4 H 0.3485 -0.2483 0.2362
H5 H 0.4612 -0.3198 0.2726
H6 H 0.4779 -0.1856 0.2590
C9 C 0.0350(7) 0.3741(8) 0.3785(4)
H7 H -0.0303 0.3455 0.4087
C10 C 0.2557(7) 0.0789(7) 0.3223(4)
H8 H 0.2491 0.1342 0.2854
O1 O 0.0097(6) 0.2582(7) 0.5856(4)
N3 N 0.1596(9) -0.0284(8) 0.6325(4)
C11 C 0.2269(7) 0.0241(7) 0.4468(4)
C12 C 0.3105(7) -0.1166(7) 0.3605(4)
C13 C 0.1032(7) 0.2825(8) 0.5474(4)
C14 C 0.1510(7) 0.1964(7) 0.4937(4)
C15 C 0.2264(7) 0.4589(7) 0.2883(4)
H9 H 0.2911 0.4879 0.2578
C16 C 0.2975(7) -0.0283(7) 0.3070(4)
H10 H 0.3191 -0.0459 0.2590
C17 C 0.1806(7) 0.0777(7) 0.5101(4)
C18 C 0.3038(9) 0.5969(8) 0.5860(4)
C19 C 0.2717(7) -0.0872(7) 0.4310(4)
H11 H 0.2760 -0.1429 0.4678
C20 C 0.1063(7) 0.5128(7) 0.2918(4)
C21 C 0.1107(9) 0.4851(9) 0.5904(5)
H12 H 0.0239 0.4777 0.6041
C22 C 0.0112(8) 0.4722(8) 0.3369(5)
H13 H -0.0687 0.5101 0.3396
C23 C 0.3695(12) -0.3123(9) 0.3975(6)
H14 H 0.4245 -0.2874 0.4368
H15 H 0.4048 -0.3818 0.3760
H16 H 0.2838 -0.3283 0.4159
C24 C 0.1760(10) 0.5872(9) 0.6047(5)
H17 H 0.1332 0.6491 0.6270
loop_
_geom_bond_atom_site_label_1
_geom_bond_atom_site_label_2
_geom_bond_site_symmetry_1
_geom_bond_site_symmetry_2
Br1 C20 1_555 1_555
Cl1 C18 1_555 1_555
N1 C5 1_555 1_555
C1 N3 1_555 1_555
C2 H1 1_555 1_555
C3 C4 1_555 1_555
C4 C2 1_555 1_555
H2 C4 1_555 1_555
C5 C7 1_555 1_555
N2 C8 1_555 1_555
C6 H3 1_555 1_555
C7 C6 1_555 1_555
C8 H4 1_555 1_555
H5 C8 1_555 1_555
H6 C8 1_555 1_555
C9 C7 1_555 1_555
H7 C9 1_555 1_555
C10 N1 1_555 1_555
H8 C10 1_555 1_555
O1 C13 1_555 1_555
C11 N1 1_555 1_555
C12 N2 1_555 1_555
C13 C3 1_555 1_555
C14 C5 1_555 1_555
C15 C6 1_555 1_555
H9 C15 1_555 1_555
C16 C10 1_555 1_555
H10 C16 1_555 1_555
C17 C1 1_555 1_555
C18 C2 1_555 1_555
C19 C11 1_555 1_555
H11 C19 1_555 1_555
C20 C15 1_555 1_555
C21 C3 1_555 1_555
H12 C21 1_555 1_555
C22 C9 1_555 1_555
H13 C22 1_555 1_555
C23 N2 1_555 1_555
H14 C23 1_555 1_555
H15 C23 1_555 1_555
H16 C23 1_555 1_555
C24 C18 1_555 1_555
H17 C24 1_555 1_555
C11 C17 1_555 1_555
C12 C16 1_555 1_555
C12 C19 1_555 1_555
C13 C14 1_555 1_555
C14 C17 1_555 1_555
C20 C22 1_555 1_555
C21 C24 1_555 1_555

#END
