
#######################################################################
#
#                 Cambridge Crystallographic Data Centre
#                                CCDC 
#
#######################################################################
#
# If this CIF has been generated from an entry in the Cambridge 
# Structural Database, then it will include bibliographic, chemical, 
# crystal, experimental, refinement or atomic coordinate data resulting 
# from the CCDC's data processing and validation procedures.
#
#######################################################################

data_KOMBEV
_chemical_formula_moiety         
'C34 H35 Cl1 F1 N6 O2 S2 1+,C2 F3 O2 1-,C1 H4 O1'
_chemical_name_systematic        
"1-(2-(((2-Chloro-1,3-thiazol-4-yl)carbamoyl)amino)phenyl)-1'-(2,2-dimethylpropyl)-4-(6-fluoro-1,3-benzothiazol-2-yl)-7-hydroxy-1,2-dihydrospiro[indole-3,4'-piperidinium] trifluoroacetate methanol solvate"
_symmetry_cell_setting           monoclinic
_symmetry_space_group_name_H-M   'P 21/n'
_symmetry_Int_Tables_number      14
_space_group_name_Hall           '-P 2yn'
loop_
_symmetry_equiv_pos_site_id
_symmetry_equiv_pos_as_xyz
1 x,y,z
2 1/2-x,1/2+y,1/2-z
3 -x,-y,-z
4 1/2+x,1/2-y,1/2+z
_cell_length_a                   15.1908(3)
_cell_length_b                   14.3335(3)
_cell_length_c                   17.7556(4)
_cell_angle_alpha                90
_cell_angle_beta                 99.8390(10)
_cell_angle_gamma                90
_cell_volume                     3809.19
_exptl_crystal_colour            yellow
_exptl_crystal_description       plate
_cell_formula_units_Z            4
loop_
_atom_site_label
_atom_site_type_symbol
_atom_site_fract_x
_atom_site_fract_y
_atom_site_fract_z
O1 O 0.4064(5) 0.8714(7) 0.8982(5)
O2 O 0.3321(8) 0.7423(8) 0.8524(7)
F1 F 0.2111(7) 0.8573(9) 0.9189(7)
F2 F 0.2050(8) 0.8641(10) 0.8005(7)
F3 F 0.2580(9) 0.9745(8) 0.8670(7)
C1 C 0.2550(8) 0.8825(9) 0.8651(7)
C2 C 0.3385(8) 0.8277(9) 0.8736(8)
O3 O 0.4556(7) 0.6388(6) 0.8118(6)
H1 H 0.4194 0.6816 0.8255
C3 C 0.4417(16) 0.5451(12) 0.8359(11)
H2 H 0.4515 0.5425 0.8913
H3 H 0.4832 0.5036 0.8169
H4 H 0.3810 0.5260 0.8158
S1 S 1.01213(14) 0.78943(15) 0.99035(13)
Cl1 Cl 0.2381(2) 0.9249(2) 0.4060(2)
S2 S 0.2239(2) 1.0419(4) 0.5409(3)
F4 F 0.9965(4) 0.5671(4) 1.2173(3)
N1 N 0.7396(4) 1.0618(4) 0.7844(4)
N2 N 0.5872(4) 0.8471(4) 0.9482(4)
H5 H 0.5265 0.8379 0.9422
N3 N 0.5971(5) 1.1322(5) 0.6825(4)
H6 H 0.6302 1.0964 0.6593
N4 N 0.8620(4) 0.8480(5) 1.0222(4)
N5 N 0.4795(6) 1.0765(6) 0.5937(5)
H7 H 0.5219 1.0553 0.5711
N6 N 0.3711(6) 1.0010(5) 0.5010(5)
O4 O 0.8987(4) 1.1395(4) 0.7479(4)
H8 H 0.9454 1.1381 0.7296
O5 O 0.4449(7) 1.1682(7) 0.6891(5)
C4 C 0.8259(5) 1.0363(5) 0.8216(4)
C5 C 0.8916(5) 0.7769(6) 1.0740(5)
C6 C 0.9079(5) 0.9314(5) 0.9147(4)
C7 C 0.9854(5) 1.0373(6) 0.8414(5)
H9 H 1.0396 1.0599 0.8299
C8 C 0.7285(5) 0.9381(5) 0.8755(4)
C9 C 0.6965(5) 0.9780(5) 0.9472(4)
H10 H 0.7362 0.9555 0.9930
H11 H 0.7010 1.0462 0.9465
C10 C 0.6817(5) 0.9860(5) 0.8022(4)
H12 H 0.6715 0.9411 0.7600
H13 H 0.6238 1.0110 0.8098
C11 C 0.6011(5) 0.9509(5) 0.9522(5)
H14 H 0.5862 0.9742 1.0004
H15 H 0.5604 0.9806 0.9103
C12 C 0.7114(5) 1.1569(5) 0.7921(5)
C13 C 0.9166(5) 0.8612(5) 0.9758(5)
C14 C 0.6157(5) 0.8087(5) 0.8772(4)
H16 H 0.5766 0.8340 0.8322
H17 H 0.6086 0.7408 0.8765
C15 C 0.8259(5) 0.9656(5) 0.8744(4)
C16 C 0.9044(6) 1.0725(6) 0.8029(5)
C17 C 0.9732(5) 0.7362(6) 1.0658(5)
C18 C 0.9858(5) 0.9698(6) 0.8960(5)
H18 H 1.0411 0.9484 0.9222
C19 C 1.0098(6) 0.6664(6) 1.1139(6)
H19 H 1.0650 0.6395 1.1094
C20 C 0.6380(6) 1.1899(6) 0.7415(5)
C21 C 0.7115(5) 0.8323(5) 0.8724(4)
H20 H 0.7261 0.8074 0.8247
H21 H 0.7511 0.8023 0.9149
C22 C 0.6264(6) 0.7981(6) 1.0206(5)
H22 H 0.6631 0.8429 1.0539
H23 H 0.6663 0.7488 1.0081
C23 C 0.5597(6) 0.7547(7) 1.0651(6)
C24 C 0.8486(7) 0.7472(8) 1.1324(6)
H24 H 0.7950 0.7756 1.1398
C25 C 0.9628(7) 0.6371(7) 1.1692(6)
C26 C 0.8841(7) 0.6769(8) 1.1788(5)
H25 H 0.8544 0.6555 1.2177
C27 C 0.6081(7) 1.2814(7) 0.7481(6)
H26 H 0.5580 1.3039 0.7145
C28 C 0.3908(6) 1.0551(7) 0.5623(6)
C29 C 0.7555(6) 1.2151(6) 0.8465(5)
H27 H 0.8062 1.1934 0.8798
C30 C 0.5070(8) 0.6796(8) 1.0182(7)
H28 H 0.4710 0.7073 0.9734
H29 H 0.4684 0.6486 1.0486
H30 H 0.5477 0.6344 1.0023
C31 C 0.7269(7) 1.3052(7) 0.8533(7)
H31 H 0.7578 1.3443 0.8914
C32 C 0.6536(8) 1.3386(7) 0.8051(7)
H32 H 0.6341 1.4000 0.8104
C33 C 0.4956(8) 0.8278(8) 1.0864(7)
H33 H 0.5294 0.8782 1.1141
H34 H 0.4571 0.7996 1.1182
H35 H 0.4596 0.8523 1.0402
C34 C 0.2851(8) 0.9873(7) 0.4858(6)
C35 C 0.6111(8) 0.7132(8) 1.1373(6)
H36 H 0.6524 0.6666 1.1245
H37 H 0.5698 0.6843 1.1664
H38 H 0.6442 0.7620 1.1677
C36 C 0.5028(8) 1.1302(8) 0.6594(6)
C37 C 0.3196(10) 1.0844(11) 0.5946(7)
H39 H 0.3230 1.1215 0.6387
loop_
_geom_bond_atom_site_label_1
_geom_bond_atom_site_label_2
_geom_bond_site_symmetry_1
_geom_bond_site_symmetry_2
O1 C2 1_555 1_555
O2 C2 1_555 1_555
F1 C1 1_555 1_555
F2 C1 1_555 1_555
F3 C1 1_555 1_555
C1 C2 1_555 1_555
O3 H1 1_555 1_555
C3 O3 1_555 1_555
H2 C3 1_555 1_555
H3 C3 1_555 1_555
H4 C3 1_555 1_555
S1 C13 1_555 1_555
Cl1 C34 1_555 1_555
S2 C34 1_555 1_555
F4 C25 1_555 1_555
N1 C4 1_555 1_555
N2 H5 1_555 1_555
N3 H6 1_555 1_555
N4 C5 1_555 1_555
N5 H7 1_555 1_555
N6 C28 1_555 1_555
O4 H8 1_555 1_555
O5 C36 1_555 1_555
C4 C15 1_555 1_555
C5 C17 1_555 1_555
C6 C13 1_555 1_555
C7 H9 1_555 1_555
C8 C9 1_555 1_555
C9 H10 1_555 1_555
H11 C9 1_555 1_555
C10 N1 1_555 1_555
H12 C10 1_555 1_555
H13 C10 1_555 1_555
C11 N2 1_555 1_555
H14 C11 1_555 1_555
H15 C11 1_555 1_555
C12 N1 1_555 1_555
C13 N4 1_555 1_555
C14 N2 1_555 1_555
H16 C14 1_555 1_555
H17 C14 1_555 1_555
C15 C6 1_555 1_555
C16 O4 1_555 1_555
C17 S1 1_555 1_555
C18 C6 1_555 1_555
H18 C18 1_555 1_555
C19 C17 1_555 1_555
H19 C19 1_555 1_555
C20 N3 1_555 1_555
C21 C8 1_555 1_555
H20 C21 1_555 1_555
H21 C21 1_555 1_555
C22 N2 1_555 1_555
H22 C22 1_555 1_555
H23 C22 1_555 1_555
C23 C22 1_555 1_555
C24 C5 1_555 1_555
H24 C24 1_555 1_555
C25 C19 1_555 1_555
C26 C24 1_555 1_555
H25 C26 1_555 1_555
C27 C20 1_555 1_555
H26 C27 1_555 1_555
C28 N5 1_555 1_555
C29 C12 1_555 1_555
H27 C29 1_555 1_555
C30 C23 1_555 1_555
H28 C30 1_555 1_555
H29 C30 1_555 1_555
H30 C30 1_555 1_555
C31 C29 1_555 1_555
H31 C31 1_555 1_555
C32 C27 1_555 1_555
H32 C32 1_555 1_555
C33 C23 1_555 1_555
H33 C33 1_555 1_555
H34 C33 1_555 1_555
H35 C33 1_555 1_555
C34 N6 1_555 1_555
C35 C23 1_555 1_555
H36 C35 1_555 1_555
H37 C35 1_555 1_555
H38 C35 1_555 1_555
C36 N3 1_555 1_555
C37 S2 1_555 1_555
H39 C37 1_555 1_555
N5 C36 1_555 1_555
C4 C16 1_555 1_555
C7 C16 1_555 1_555
C7 C18 1_555 1_555
C8 C10 1_555 1_555
C8 C15 1_555 1_555
C9 C11 1_555 1_555
C12 C20 1_555 1_555
C14 C21 1_555 1_555
C25 C26 1_555 1_555
C28 C37 1_555 1_555
C31 C32 1_555 1_555

#END
