
#######################################################################
#
#                 Cambridge Crystallographic Data Centre
#                                CCDC 
#
#######################################################################
#
# If this CIF has been generated from an entry in the Cambridge 
# Structural Database, then it will include bibliographic, chemical, 
# crystal, experimental, refinement or atomic coordinate data resulting 
# from the CCDC's data processing and validation procedures.
#
#######################################################################

data_KOMCUK
_chemical_formula_moiety         'C25 H32 S4 Si1'
_chemical_name_systematic        
5'-Trimethylsilyldispiro(bis(1,3-dithiane)-1,2':10,2''-(2.2)metacyclophane)
_symmetry_cell_setting           orthorhombic
_symmetry_space_group_name_H-M   'P 21 21 21'
_symmetry_Int_Tables_number      19
_space_group_name_Hall           'P 2ac 2ab'
loop_
_symmetry_equiv_pos_site_id
_symmetry_equiv_pos_as_xyz
1 x,y,z
2 1/2+x,1/2-y,-z
3 -x,1/2+y,1/2-z
4 1/2-x,-y,1/2+z
_cell_length_a                   7.889(1)
_cell_length_b                   9.486(1)
_cell_length_c                   34.520(3)
_cell_angle_alpha                90
_cell_angle_beta                 90
_cell_angle_gamma                90
_cell_volume                     2583.31
_exptl_crystal_colour            colorless
_cell_formula_units_Z            4
loop_
_atom_site_label
_atom_site_type_symbol
_atom_site_fract_x
_atom_site_fract_y
_atom_site_fract_z
C1 C 0.7040(4) 0.7275(3) 0.8244(1)
C2 C 0.9039(4) 0.7309(4) 0.8240(1)
C3 C 0.9799(4) 0.6227(4) 0.8509(1)
C4 C 1.0285(4) 0.4906(4) 0.8377(1)
C5 C 1.0651(4) 0.3797(4) 0.8631(1)
C6 C 1.0354(4) 0.4035(4) 0.9023(1)
C7 C 0.9844(4) 0.5331(4) 0.9164(1)
C8 C 0.9734(4) 0.6444(4) 0.8906(1)
C9 C 0.9114(4) 0.5488(4) 0.9566(1)
C10 C 0.7123(4) 0.5364(4) 0.9566(1)
C11 C 0.6382(4) 0.6514(3) 0.9306(1)
C12 C 0.6014(5) 0.7856(4) 0.9449(1)
C13 C 0.5780(5) 0.8962(4) 0.9197(1)
C14 C 0.6018(5) 0.8787(4) 0.8804(1)
C15 C 0.6363(4) 0.7459(3) 0.8650(1)
C16 C 0.6415(4) 0.6325(3) 0.8905(1)
Si1 Si 1.1444(1) 0.2046(1) 0.8451(1)
C17 C 1.3775(5) 0.2151(4) 0.8382(2)
C18 C 1.0396(7) 0.1622(5) 0.7985(1)
C19 C 1.0973(7) 0.0670(4) 0.8817(1)
S1 S 0.6453(1) 0.5587(1) 0.8026(1)
C20 C 0.4181(4) 0.5831(4) 0.7984(1)
C21 C 0.3671(5) 0.7050(4) 0.7730(1)
C22 C 0.4181(5) 0.8457(4) 0.7889(1)
S2 S 0.6455(1) 0.8711(1) 0.7915(1)
S3 S 0.6610(1) 0.3589(1) 0.9398(2)
C23 C 0.4359(5) 0.3573(3) 0.9483(2)
C24 C 0.3860(6) 0.3814(6) 0.9900(2)
C25 C 0.4335(6) 0.5240(7) 1.0059(1)
S4 S 0.6582(2) 0.5560(1) 1.0076(1)
H1 H 0.9416 0.7117 0.7981
H2 H 0.9428 0.8233 0.8311
H3 H 1.0368 0.4753 0.8103
H4 H 1.0508 0.3271 0.9202
H5 H 0.9625 0.7386 0.9004
H6 H 0.9580 0.4775 0.9732
H7 H 0.9427 0.6392 0.9668
H8 H 0.5920 0.8004 0.9723
H9 H 0.5412 0.9857 0.9295
H10 H 0.5973 0.9591 0.8636
H11 H 0.6467 0.5384 0.8803
H12 H 1.4309 0.2376 0.8624
H13 H 1.4034 0.2869 0.8196
H14 H 1.4187 0.1258 0.8291
H15 H 0.9191 0.1572 0.8023
H16 H 1.0805 0.0729 0.7894
H17 H 1.0652 0.2340 0.7798
H18 H 1.1519 0.0906 0.9057
H19 H 1.1384 -0.0226 0.8728
H20 H 0.9770 0.0618 0.8857
H21 H 0.3679 0.4975 0.7889
H22 H 0.3731 0.6008 0.8238
H23 H 0.4218 0.6931 0.7483
H24 H 0.2468 0.7026 0.7687
H25 H 0.3695 0.9192 0.7734
H26 H 0.3721 0.8538 0.8146
H27 H 0.3843 0.4288 0.9325
H28 H 0.3921 0.2677 0.9402
H29 H 0.2660 0.3685 0.9930
H30 H 0.4416 0.3118 1.0057
H31 H 0.3819 0.5940 0.9896
H32 H 0.3889 0.5356 1.0315
loop_
_geom_bond_atom_site_label_1
_geom_bond_atom_site_label_2
_geom_bond_site_symmetry_1
_geom_bond_site_symmetry_2
C1 C2 1_555 1_555
C2 C3 1_555 1_555
C3 C4 1_555 1_555
C4 C5 1_555 1_555
C5 C6 1_555 1_555
C6 C7 1_555 1_555
C7 C8 1_555 1_555
C8 C3 1_555 1_555
C9 C7 1_555 1_555
C10 C9 1_555 1_555
C11 C10 1_555 1_555
C12 C11 1_555 1_555
C13 C12 1_555 1_555
C14 C13 1_555 1_555
C15 C1 1_555 1_555
C16 C11 1_555 1_555
Si1 C5 1_555 1_555
C17 Si1 1_555 1_555
C18 Si1 1_555 1_555
C19 Si1 1_555 1_555
S1 C1 1_555 1_555
C20 S1 1_555 1_555
C21 C20 1_555 1_555
C22 C21 1_555 1_555
S2 C1 1_555 1_555
S3 C10 1_555 1_555
C23 S3 1_555 1_555
C24 C23 1_555 1_555
C25 C24 1_555 1_555
S4 C10 1_555 1_555
H1 C2 1_555 1_555
H2 C2 1_555 1_555
H3 C4 1_555 1_555
H4 C6 1_555 1_555
H5 C8 1_555 1_555
H6 C9 1_555 1_555
H7 C9 1_555 1_555
H8 C12 1_555 1_555
H9 C13 1_555 1_555
H10 C14 1_555 1_555
H11 C16 1_555 1_555
H12 C17 1_555 1_555
H13 C17 1_555 1_555
H14 C17 1_555 1_555
H15 C18 1_555 1_555
H16 C18 1_555 1_555
H17 C18 1_555 1_555
H18 C19 1_555 1_555
H19 C19 1_555 1_555
H20 C19 1_555 1_555
H21 C20 1_555 1_555
H22 C20 1_555 1_555
H23 C21 1_555 1_555
H24 C21 1_555 1_555
H25 C22 1_555 1_555
H26 C22 1_555 1_555
H27 C23 1_555 1_555
H28 C23 1_555 1_555
H29 C24 1_555 1_555
H30 C24 1_555 1_555
H31 C25 1_555 1_555
H32 C25 1_555 1_555
C14 C15 1_555 1_555
C15 C16 1_555 1_555
C22 S2 1_555 1_555
C25 S4 1_555 1_555

#END
