
#######################################################################
#
#                 Cambridge Crystallographic Data Centre
#                                CCDC 
#
#######################################################################
#
# If this CIF has been generated from an entry in the Cambridge 
# Structural Database, then it will include bibliographic, chemical, 
# crystal, experimental, refinement or atomic coordinate data resulting 
# from the CCDC's data processing and validation procedures.
#
#######################################################################

data_KOMDIB
_chemical_formula_moiety         'C44 H88 N4 O6 Sr2'
_chemical_name_systematic        
bis(\m-3-(((2-(dimethylamino)ethyl)(methyl)amino)methyl)pentan-3-olato)-bis(2,2,6,6-tetramethylheptane-3,5-dionato)-di-strontium
_symmetry_cell_setting           monoclinic
_symmetry_space_group_name_H-M   'P 21/n'
_symmetry_Int_Tables_number      14
_space_group_name_Hall           '-P 2yn'
loop_
_symmetry_equiv_pos_site_id
_symmetry_equiv_pos_as_xyz
1 x,y,z
2 1/2-x,1/2+y,1/2-z
3 -x,-y,-z
4 1/2+x,1/2-y,1/2+z
_cell_length_a                   10.736(2)
_cell_length_b                   14.750(3)
_cell_length_c                   16.890(3)
_cell_angle_alpha                90
_cell_angle_beta                 102.20(3)
_cell_angle_gamma                90
_cell_volume                     2614.23
_exptl_crystal_colour            colorless
_exptl_crystal_description       block
_cell_formula_units_Z            2
_chemical_properties_physical    
'Air-sensitive, Moisture-sensitive, Hygroscropic'
loop_
_atom_site_label
_atom_site_type_symbol
_atom_site_fract_x
_atom_site_fract_y
_atom_site_fract_z
Sr1 Sr 0.36676(2) 0.958032(16) 0.422246(14)
O1 O 0.16601(18) 0.94963(15) 0.32129(11)
O2 O 0.41155(17) 0.97574(13) 0.28699(10)
C1 C 0.1317(3) 0.95751(18) 0.24554(15)
C2 C 0.2153(2) 0.96821(17) 0.19238(15)
H1 H 0.1782 0.9710 0.1361
C3 C 0.3485(3) 0.97521(17) 0.21497(15)
C4 C -0.0132(3) 0.9504(2) 0.21177(17)
C5 C 0.4293(3) 0.98318(19) 0.14919(16)
C6 C -0.0516(4) 0.8532(3) 0.2280(2)
H2 H -0.0306 0.8413 0.2864
H3 H -0.0053 0.8105 0.2004
H4 H -0.1435 0.8455 0.2077
C7 C -0.0781(4) 1.0178(4) 0.2578(2)
H5 H -0.0490 1.0792 0.2490
H6 H -0.0566 1.0035 0.3157
H7 H -0.1707 1.0141 0.2382
C8 C -0.0554(3) 0.9696(2) 0.12103(18)
H8 H -0.1485 0.9659 0.1051
H9 H -0.0173 0.9248 0.0905
H10 H -0.0275 1.0305 0.1093
C9 C 0.3514(3) 0.9783(2) 0.06217(17)
H11 H 0.3050 0.9206 0.0541
H12 H 0.4088 0.9823 0.0242
H13 H 0.2906 1.0286 0.0525
C10 C 0.5003(3) 1.0735(2) 0.1623(2)
H14 H 0.5556 1.0793 0.1232
H15 H 0.5521 1.0758 0.2174
H16 H 0.4385 1.1234 0.1545
C11 C 0.5262(3) 0.9053(2) 0.1624(2)
H17 H 0.4809 0.8472 0.1554
H18 H 0.5786 0.9089 0.2174
H19 H 0.5809 0.9101 0.1229
O3 O 0.57921(17) 0.91117(11) 0.49401(10)
N1 N 0.2348(3) 0.86812(18) 0.52156(17)
N2 N 0.4015(3) 0.77718(17) 0.42239(17)
C12 C 0.6323(3) 0.82837(17) 0.47782(17)
C13 C 0.2107(9) 0.7803(7) 0.4828(5)
H20 H 0.1545 0.7885 0.4287
H21 H 0.1650 0.7418 0.5153
C14 C 0.3295(4) 0.7323(2) 0.4731(3)
H22 H 0.3850 0.7239 0.5274
H23 H 0.3057 0.6713 0.4504
C15 C 0.5276(7) 0.7696(4) 0.4172(5)
H24 H 0.5335 0.7856 0.3612
H25 H 0.5519 0.7050 0.4253
C16 C 0.302(2) 0.8779(16) 0.6066(7)
H26 H 0.3065 0.9422 0.6214
H27 H 0.3878 0.8530 0.6136
H28 H 0.2547 0.8450 0.6415
C17 C 0.1058(13) 0.9129(10) 0.5119(10)
H29 H 0.0544 0.8798 0.5439
H30 H 0.0626 0.9122 0.4547
H31 H 0.1169 0.9757 0.5310
C18 C 0.6667(8) 0.7735(5) 0.5590(4)
H32 H 0.5884 0.7681 0.5808
H33 H 0.6911 0.7114 0.5459
C19 C 0.768(3) 0.809(2) 0.6233(13)
H34 H 0.8329 0.8379 0.5994
H35 H 0.8058 0.7588 0.6584
H36 H 0.7316 0.8533 0.6553
C20 C 0.7364(8) 0.8430(5) 0.4380(5)
H37 H 0.8005 0.8813 0.4735
H38 H 0.7038 0.8778 0.3878
C21 C 0.8043(9) 0.7583(6) 0.4154(7)
H39 H 0.8368 0.7224 0.4642
H40 H 0.8754 0.7766 0.3909
H41 H 0.7440 0.7217 0.3766
C22 C 0.3199(9) 0.7536(6) 0.3343(5)
H42 H 0.3418 0.7959 0.2947
H43 H 0.2289 0.7588 0.3343
H44 H 0.3388 0.6915 0.3199
Sr1B Sr 0.63324(2) 1.041968(16) 0.577754(14)
O1B O 0.83399(18) 1.05037(15) 0.67871(11)
O2B O 0.58845(17) 1.02426(13) 0.71301(10)
C1B C 0.8683(3) 1.04249(18) 0.75446(15)
C2B C 0.7847(2) 1.03179(17) 0.80762(15)
H1B H 0.8218 1.0290 0.8639
C3B C 0.6515(3) 1.02479(17) 0.78503(15)
C4B C 1.0132(3) 1.0496(2) 0.78823(17)
C5B C 0.5707(3) 1.01682(19) 0.85081(16)
C6B C 1.0516(4) 1.1468(3) 0.7720(2)
H2B H 1.0306 1.1587 0.7136
H3B H 1.0053 1.1895 0.7996
H4B H 1.1435 1.1545 0.7923
C7B C 1.0781(4) 0.9822(4) 0.7422(2)
H5B H 1.0490 0.9208 0.7510
H6B H 1.0566 0.9965 0.6843
H7B H 1.1707 0.9859 0.7618
C8B C 1.0554(3) 1.0304(2) 0.87897(18)
H8B H 1.1485 1.0341 0.8949
H9B H 1.0173 1.0752 0.9095
H10B H 1.0275 0.9695 0.8907
C9B C 0.6486(3) 1.0217(2) 0.93783(17)
H11B H 0.6950 1.0794 0.9459
H12B H 0.5912 1.0177 0.9758
H13B H 0.7094 0.9714 0.9475
C10B C 0.4997(3) 0.9265(2) 0.8377(2)
H14B H 0.4444 0.9207 0.8768
H15B H 0.4479 0.9242 0.7826
H16B H 0.5615 0.8766 0.8455
C11B C 0.4738(3) 1.0947(2) 0.8376(2)
H17B H 0.5191 1.1528 0.8446
H18B H 0.4214 1.0911 0.7826
H19B H 0.4191 1.0899 0.8771
O3B O 0.42079(17) 1.08883(11) 0.50599(10)
N1B N 0.7652(3) 1.13188(18) 0.47844(17)
N2B N 0.5985(3) 1.22282(17) 0.57761(17)
C12B C 0.3677(3) 1.17163(17) 0.52218(17)
C13B C 0.7893(9) 1.2197(7) 0.5172(5)
H20B H 0.8455 1.2115 0.5713
H21B H 0.8350 1.2582 0.4847
C14B C 0.6705(4) 1.2677(2) 0.5269(3)
H22B H 0.6150 1.2761 0.4726
H23B H 0.6943 1.3287 0.5496
C15B C 0.4724(7) 1.2304(4) 0.5828(5)
H24B H 0.4665 1.2144 0.6388
H25B H 0.4481 1.2950 0.5747
C16B C 0.698(2) 1.1221(16) 0.3934(7)
H26B H 0.6935 1.0578 0.3786
H27B H 0.6122 1.1470 0.3864
H28B H 0.7453 1.1550 0.3585
C17B C 0.8942(13) 1.0871(10) 0.4881(10)
H29B H 0.9456 1.1202 0.4561
H30B H 0.9374 1.0878 0.5453
H31B H 0.8831 1.0243 0.4690
C18B C 0.3333(8) 1.2265(5) 0.4410(4)
H32B H 0.4116 1.2319 0.4192
H33B H 0.3089 1.2886 0.4541
C19B C 0.232(3) 1.191(2) 0.3767(13)
H34B H 0.1671 1.1621 0.4006
H35B H 0.1942 1.2412 0.3416
H36B H 0.2684 1.1467 0.3447
C20B C 0.2636(8) 1.1570(5) 0.5620(5)
H37B H 0.1995 1.1187 0.5265
H38B H 0.2962 1.1222 0.6122
C21B C 0.1957(9) 1.2417(6) 0.5846(7)
H39B H 0.1632 1.2776 0.5358
H40B H 0.1246 1.2234 0.6091
H41B H 0.2560 1.2783 0.6234
C22B C 0.6801(9) 1.2464(6) 0.6657(5)
H42B H 0.6582 1.2041 0.7053
H43B H 0.7711 1.2412 0.6657
H44B H 0.6612 1.3085 0.6801
C23? C 0.2662(15) 0.7675(7) 0.5239(7)
H45? H 0.3148 0.7537 0.5792
H46? H 0.1844 0.7342 0.5168
H47? H 0.2665 0.6949 0.4357
H48? H 0.3898 0.6890 0.5057
C24? C 0.5404(5) 0.7518(3) 0.4780(3)
H49? H 0.5317 0.7396 0.5343
H50? H 0.5734 0.6963 0.4568
C25? C 0.289(3) 0.890(2) 0.6034(13)
H51? H 0.2475 0.8544 0.6394
H52? H 0.2765 0.9549 0.6124
H53? H 0.3804 0.8766 0.6150
C26? C 0.1042(15) 0.8867(14) 0.5035(12)
H54? H 0.0614 0.8487 0.5372
H55? H 0.0694 0.8738 0.4462
H56? H 0.0904 0.9508 0.5145
C27? C 0.7601(6) 0.8088(4) 0.5415(4)
H57? H 0.7948 0.7495 0.5292
H58? H 0.8236 0.8560 0.5366
C28? C 0.740(2) 0.8077(16) 0.6273(7)
H59? H 0.6887 0.8602 0.6359
H60? H 0.8229 0.8103 0.6652
H61? H 0.6959 0.7518 0.6365
C29? C 0.6772(7) 0.8391(4) 0.3936(4)
H62? H 0.6037 0.8613 0.3526
H63? H 0.7437 0.8866 0.4005
C30? C 0.7302(8) 0.7531(6) 0.3594(5)
H64? H 0.8033 0.7300 0.3991
H65? H 0.7571 0.7685 0.3091
H66? H 0.6636 0.7066 0.3484
C31? C 0.3945(8) 0.7426(6) 0.3449(6)
H67? H 0.4605 0.7707 0.3209
H68? H 0.3104 0.7557 0.3112
H69? H 0.4078 0.6768 0.3481
loop_
_geom_bond_atom_site_label_1
_geom_bond_atom_site_label_2
_geom_bond_site_symmetry_1
_geom_bond_site_symmetry_2
Sr1 O1 1_555 1_555
O1 C1 1_555 1_555
O2 Sr1 1_555 1_555
C1 C2 1_555 1_555
C2 H1 1_555 1_555
C3 O2 1_555 1_555
C4 C1 1_555 1_555
C5 C3 1_555 1_555
C6 C4 1_555 1_555
H2 C6 1_555 1_555
H3 C6 1_555 1_555
H4 C6 1_555 1_555
C7 C4 1_555 1_555
H5 C7 1_555 1_555
H6 C7 1_555 1_555
H7 C7 1_555 1_555
C8 C4 1_555 1_555
H8 C8 1_555 1_555
H9 C8 1_555 1_555
H10 C8 1_555 1_555
C9 C5 1_555 1_555
H11 C9 1_555 1_555
H12 C9 1_555 1_555
H13 C9 1_555 1_555
C10 C5 1_555 1_555
H14 C10 1_555 1_555
H15 C10 1_555 1_555
H16 C10 1_555 1_555
C11 C5 1_555 1_555
H17 C11 1_555 1_555
H18 C11 1_555 1_555
H19 C11 1_555 1_555
O3 Sr1 1_555 1_555
N1 Sr1 1_555 1_555
N2 Sr1 1_555 1_555
C12 O3 1_555 1_555
C13 N1 1_555 1_555
H20 C13 1_555 1_555
H21 C13 1_555 1_555
C14 N2 1_555 1_555
H22 C14 1_555 1_555
H23 C14 1_555 1_555
C15 N2 1_555 1_555
H24 C15 1_555 1_555
H25 C15 1_555 1_555
C16 N1 1_555 1_555
H26 C16 1_555 1_555
H27 C16 1_555 1_555
H28 C16 1_555 1_555
C17 N1 1_555 1_555
H29 C17 1_555 1_555
H30 C17 1_555 1_555
H31 C17 1_555 1_555
C18 C12 1_555 1_555
H32 C18 1_555 1_555
H33 C18 1_555 1_555
C19 C18 1_555 1_555
H34 C19 1_555 1_555
H35 C19 1_555 1_555
H36 C19 1_555 1_555
C20 C12 1_555 1_555
H37 C20 1_555 1_555
H38 C20 1_555 1_555
C21 C20 1_555 1_555
H39 C21 1_555 1_555
H40 C21 1_555 1_555
H41 C21 1_555 1_555
C22 N2 1_555 1_555
H42 C22 1_555 1_555
H43 C22 1_555 1_555
H44 C22 1_555 1_555
Sr1B O3 1_555 1_555
O1B Sr1B 1_555 1_555
O2B Sr1B 1_555 1_555
C1B O1B 1_555 1_555
C2B C1B 1_555 1_555
H1B C2B 1_555 1_555
C3B O2B 1_555 1_555
C4B C1B 1_555 1_555
C5B C3B 1_555 1_555
C6B C4B 1_555 1_555
H2B C6B 1_555 1_555
H3B C6B 1_555 1_555
H4B C6B 1_555 1_555
C7B C4B 1_555 1_555
H5B C7B 1_555 1_555
H6B C7B 1_555 1_555
H7B C7B 1_555 1_555
C8B C4B 1_555 1_555
H8B C8B 1_555 1_555
H9B C8B 1_555 1_555
H10B C8B 1_555 1_555
C9B C5B 1_555 1_555
H11B C9B 1_555 1_555
H12B C9B 1_555 1_555
H13B C9B 1_555 1_555
C10B C5B 1_555 1_555
H14B C10B 1_555 1_555
H15B C10B 1_555 1_555
H16B C10B 1_555 1_555
C11B C5B 1_555 1_555
H17B C11B 1_555 1_555
H18B C11B 1_555 1_555
H19B C11B 1_555 1_555
O3B Sr1 1_555 1_555
N1B Sr1B 1_555 1_555
N2B Sr1B 1_555 1_555
C12B O3B 1_555 1_555
C13B N1B 1_555 1_555
H20B C13B 1_555 1_555
H21B C13B 1_555 1_555
C14B N2B 1_555 1_555
H22B C14B 1_555 1_555
H23B C14B 1_555 1_555
C15B N2B 1_555 1_555
H24B C15B 1_555 1_555
H25B C15B 1_555 1_555
C16B N1B 1_555 1_555
H26B C16B 1_555 1_555
H27B C16B 1_555 1_555
H28B C16B 1_555 1_555
C17B N1B 1_555 1_555
H29B C17B 1_555 1_555
H30B C17B 1_555 1_555
H31B C17B 1_555 1_555
C18B C12B 1_555 1_555
H32B C18B 1_555 1_555
H33B C18B 1_555 1_555
C19B C18B 1_555 1_555
H34B C19B 1_555 1_555
H35B C19B 1_555 1_555
H36B C19B 1_555 1_555
C20B C12B 1_555 1_555
H37B C20B 1_555 1_555
H38B C20B 1_555 1_555
C21B C20B 1_555 1_555
H39B C21B 1_555 1_555
H40B C21B 1_555 1_555
H41B C21B 1_555 1_555
C22B N2B 1_555 1_555
H42B C22B 1_555 1_555
H43B C22B 1_555 1_555
H44B C22B 1_555 1_555
C2 C3 1_555 1_555
C12 C15 1_555 1_555
C13 C14 1_555 1_555
Sr1B O3B 1_555 1_555
C2B C3B 1_555 1_555
C12B C15B 1_555 1_555
C13B C14B 1_555 1_555

#END
