
#######################################################################
#
#                 Cambridge Crystallographic Data Centre
#                                CCDC 
#
#######################################################################
#
# If this CIF has been generated from an entry in the Cambridge 
# Structural Database, then it will include bibliographic, chemical, 
# crystal, experimental, refinement or atomic coordinate data resulting 
# from the CCDC's data processing and validation procedures.
#
#######################################################################

data_KOMDUN
_chemical_formula_moiety         'C52 H106 N6 O6 Sr2'
_chemical_name_systematic        
bis(\m-1,7-bis(dimethylamino)-4-(2-(dimethylamino)ethyl)heptan-4-olato)-bis(2,2,6,6-tetramethylheptane-3,5-dionato)-di-strontium
_symmetry_cell_setting           monoclinic
_symmetry_space_group_name_H-M   'P 21/n'
_symmetry_Int_Tables_number      14
_space_group_name_Hall           '-P 2yn'
loop_
_symmetry_equiv_pos_site_id
_symmetry_equiv_pos_as_xyz
1 x,y,z
2 1/2-x,1/2+y,1/2-z
3 -x,-y,-z
4 1/2+x,1/2-y,1/2+z
_cell_length_a                   12.915(3)
_cell_length_b                   14.502(3)
_cell_length_c                   16.512(3)
_cell_angle_alpha                90
_cell_angle_beta                 99.99(3)
_cell_angle_gamma                90
_cell_volume                     3045.7
_exptl_crystal_colour            colorless
_exptl_crystal_description       block
_cell_formula_units_Z            2
_chemical_properties_physical    
'Air-sensitive, Moisture-sensitive, Hygroscropic, Oxygen-sensitive'
loop_
_atom_site_label
_atom_site_type_symbol
_atom_site_fract_x
_atom_site_fract_y
_atom_site_fract_z
Sr1 Sr 0.49071(3) 0.37742(3) 0.03202(2)
O1 O 0.4900(2) 0.2586(2) 0.13702(17)
O2 O 0.3115(2) 0.3616(2) 0.06152(16)
C1 C 0.4267(3) 0.2330(3) 0.1837(2)
C2 C 0.3206(3) 0.2588(3) 0.1729(2)
H1 H 0.2801 0.2334 0.2102
C3 C 0.2687(3) 0.3182(3) 0.1126(2)
C4 C 0.4741(3) 0.1687(3) 0.2545(3)
C5 C 0.5751(4) 0.2133(4) 0.3005(3)
H2 H 0.6233 0.2251 0.2619
H3 H 0.6087 0.1717 0.3440
H4 H 0.5578 0.2717 0.3250
C6 C 0.4022(4) 0.1499(4) 0.3177(3)
H5 H 0.3810 0.2085 0.3393
H6 H 0.4402 0.1127 0.3629
H7 H 0.3396 0.1163 0.2911
C7 C 0.5021(5) 0.0778(4) 0.2168(4)
H8 H 0.4381 0.0492 0.1866
H9 H 0.5348 0.0361 0.2606
H10 H 0.5513 0.0896 0.1790
C8 C 0.1480(3) 0.3307(3) 0.1055(2)
C9 C 0.0958(4) 0.2512(4) 0.0555(4)
H11 H 0.0194 0.2602 0.0453
H12 H 0.1130 0.1935 0.0857
H13 H 0.1210 0.2482 0.0029
C10 C 0.1134(4) 0.4183(4) 0.0587(4)
H14 H 0.1352 0.4163 0.0048
H15 H 0.1458 0.4716 0.0897
H16 H 0.0367 0.4237 0.0513
C11 C 0.1133(4) 0.3350(7) 0.1884(4)
H17 H 0.0382 0.3496 0.1807
H18 H 0.1534 0.3828 0.2222
H19 H 0.1259 0.2752 0.2160
O3 O 0.5337(2) 0.5317(2) 0.09062(15)
N1 N 0.7077(3) 0.3511(3) 0.0612(2)
N2 N 0.5571(3) 0.7625(3) 0.0826(3)
N3 N 0.3670(3) 0.4939(3) 0.4182(2)
C12 C 0.5591(3) 0.5440(3) 0.1761(2)
C13 C 0.6385(7) 0.4593(7) 0.2066(5)
H20 H 0.6495 0.4577 0.2675
H21 H 0.6026 0.4012 0.1866
C14 C 0.7439(10) 0.4595(11) 0.1814(11)
H22 H 0.7668 0.5247 0.1816
H23 H 0.7927 0.4280 0.2256
C15 C 0.7605(14) 0.4225(19) 0.1092(14)
H24 H 0.8351 0.4031 0.1199
H25 H 0.7571 0.4757 0.0712
C16 C 0.736(2) 0.256(2) 0.0892(18)
H26 H 0.8127 0.2486 0.0952
H27 H 0.7011 0.2123 0.0487
H28 H 0.7144 0.2457 0.1423
C17 C 0.7396(4) 0.3623(4) -0.0181(3)
H29 H 0.8165 0.3611 -0.0112
H30 H 0.7135 0.4214 -0.0422
H31 H 0.7103 0.3119 -0.0546
C18 C 0.6168(7) 0.6287(6) 0.1969(5)
H32 H 0.6791 0.6297 0.1694
H33 H 0.6420 0.6307 0.2570
C19 C 0.5485(9) 0.7156(7) 0.1706(5)
H34 H 0.5671 0.7631 0.2138
H35 H 0.4740 0.6988 0.1698
C20 C 0.6615(7) 0.7836(8) 0.0797(7)
H36 H 0.6893 0.8245 0.1256
H37 H 0.6657 0.8146 0.0276
H38 H 0.7030 0.7267 0.0838
C21 C 0.4736(13) 0.8306(12) 0.0620(11)
H39 H 0.4067 0.8039 0.0705
H40 H 0.4684 0.8488 0.0042
H41 H 0.4897 0.8849 0.0972
C22 C 0.4649(3) 0.5133(4) 0.2141(2)
H42 H 0.4043 0.5520 0.1896
H43 H 0.4479 0.4492 0.1958
C23 C 0.4707(4) 0.5156(4) 0.3061(3)
H44 H 0.4957 0.5770 0.3272
H45 H 0.5223 0.4691 0.3318
C24 C 0.3644(4) 0.4959(4) 0.3303(3)
H46 H 0.3138 0.5437 0.3058
H47 H 0.3384 0.4356 0.3068
C25 C 0.4148(5) 0.4089(4) 0.4543(3)
H48 H 0.3724 0.3561 0.4313
H49 H 0.4182 0.4106 0.5140
H50 H 0.4860 0.4031 0.4419
C26 C 0.2635(5) 0.5043(5) 0.4376(4)
H51 H 0.2330 0.5626 0.4148
H52 H 0.2678 0.5046 0.4974
H53 H 0.2191 0.4529 0.4138
Sr1B Sr 0.50929(3) 0.62258(3) -0.03202(2)
O1B O 0.5100(2) 0.7414(2) -0.13702(17)
O2B O 0.6885(2) 0.6384(2) -0.06152(16)
C1B C 0.5733(3) 0.7670(3) -0.1837(2)
C2B C 0.6794(3) 0.7412(3) -0.1729(2)
H1B H 0.7199 0.7666 -0.2102
C3B C 0.7313(3) 0.6818(3) -0.1126(2)
C4B C 0.5259(3) 0.8313(3) -0.2545(3)
C5B C 0.4249(4) 0.7867(4) -0.3005(3)
H2B H 0.3767 0.7749 -0.2619
H3B H 0.3913 0.8283 -0.3440
H4B H 0.4422 0.7283 -0.3250
C6B C 0.5978(4) 0.8501(4) -0.3177(3)
H5B H 0.6190 0.7915 -0.3393
H6B H 0.5598 0.8873 -0.3629
H7B H 0.6604 0.8837 -0.2911
C7B C 0.4979(5) 0.9222(4) -0.2168(4)
H8B H 0.5619 0.9508 -0.1866
H9B H 0.4652 0.9639 -0.2606
H10B H 0.4487 0.9104 -0.1790
C8B C 0.8520(3) 0.6693(3) -0.1055(2)
C9B C 0.9042(4) 0.7488(4) -0.0555(4)
H11B H 0.9806 0.7398 -0.0453
H12B H 0.8870 0.8065 -0.0857
H13B H 0.8790 0.7518 -0.0029
C10B C 0.8866(4) 0.5817(4) -0.0587(4)
H14B H 0.8648 0.5837 -0.0048
H15B H 0.8542 0.5284 -0.0897
H16B H 0.9633 0.5763 -0.0513
C11B C 0.8867(4) 0.6650(7) -0.1884(4)
H17B H 0.9618 0.6504 -0.1807
H18B H 0.8466 0.6172 -0.2222
H19B H 0.8741 0.7248 -0.2160
O3B O 0.4663(2) 0.4683(2) -0.09062(15)
N1B N 0.2923(3) 0.6489(3) -0.0612(2)
N2B N 0.4429(3) 0.2375(3) -0.0826(3)
N3B N 0.6330(3) 0.5061(3) -0.4182(2)
C12B C 0.4409(3) 0.4560(3) -0.1761(2)
C13B C 0.3615(7) 0.5407(7) -0.2066(5)
H20B H 0.3505 0.5423 -0.2675
H21B H 0.3974 0.5988 -0.1866
C14B C 0.2561(10) 0.5405(11) -0.1814(11)
H22B H 0.2332 0.4753 -0.1816
H23B H 0.2073 0.5720 -0.2256
C15B C 0.2395(14) 0.5775(19) -0.1092(14)
H24B H 0.1649 0.5969 -0.1199
H25B H 0.2429 0.5243 -0.0712
C16B C 0.264(2) 0.744(2) -0.0892(18)
H26B H 0.1873 0.7514 -0.0952
H27B H 0.2989 0.7877 -0.0487
H28B H 0.2856 0.7543 -0.1423
C17B C 0.2604(4) 0.6377(4) 0.0181(3)
H29B H 0.1835 0.6389 0.0112
H30B H 0.2865 0.5786 0.0422
H31B H 0.2897 0.6881 0.0546
C18B C 0.3832(7) 0.3713(6) -0.1969(5)
H32B H 0.3209 0.3703 -0.1694
H33B H 0.3580 0.3693 -0.2570
C19B C 0.4515(9) 0.2844(7) -0.1706(5)
H34B H 0.4329 0.2369 -0.2138
H35B H 0.5260 0.3012 -0.1698
C20B C 0.3385(7) 0.2164(8) -0.0797(7)
H36B H 0.3107 0.1755 -0.1256
H37B H 0.3343 0.1854 -0.0276
H38B H 0.2970 0.2733 -0.0838
C21B C 0.5264(13) 0.1694(12) -0.0620(11)
H39B H 0.5933 0.1961 -0.0705
H40B H 0.5316 0.1512 -0.0042
H41B H 0.5103 0.1151 -0.0972
C22B C 0.5351(3) 0.4867(4) -0.2141(2)
H42B H 0.5957 0.4480 -0.1896
H43B H 0.5521 0.5508 -0.1958
C23B C 0.5293(4) 0.4844(4) -0.3061(3)
H44B H 0.5043 0.4230 -0.3272
H45B H 0.4777 0.5309 -0.3318
C24B C 0.6356(4) 0.5041(4) -0.3303(3)
H46B H 0.6862 0.4563 -0.3058
H47B H 0.6616 0.5644 -0.3068
C25B C 0.5852(5) 0.5911(4) -0.4543(3)
H48B H 0.6276 0.6439 -0.4313
H49B H 0.5818 0.5894 -0.5140
H50B H 0.5140 0.5969 -0.4419
C26B C 0.7365(5) 0.4957(5) -0.4376(4)
H51B H 0.7670 0.4374 -0.4148
H52B H 0.7322 0.4954 -0.4974
H53B H 0.7809 0.5471 -0.4138
C27? C 0.6678(8) 0.5264(8) 0.2195(6)
H54? H 0.6706 0.5291 0.2798
H55? H 0.7164 0.5733 0.2040
C28? C 0.6990(14) 0.4308(8) 0.1943(7)
H56? H 0.6368 0.3897 0.1865
H57? H 0.7525 0.4044 0.2384
C29? C 0.7443(10) 0.4363(7) 0.1127(8)
H58? H 0.7188 0.4929 0.0821
H59? H 0.8220 0.4384 0.1250
C30? C 0.7518(14) 0.2699(10) 0.1029(13)
H60? H 0.8287 0.2732 0.1108
H61? H 0.7274 0.2154 0.0699
H62? H 0.7295 0.2655 0.1566
C31? C 0.5488(11) 0.6582(9) 0.1933(6)
H63? H 0.4739 0.6751 0.1763
H64? H 0.5662 0.6678 0.2535
C32? C 0.6127(10) 0.7263(7) 0.1538(7)
H65? H 0.6358 0.7769 0.1929
H66? H 0.6764 0.6951 0.1414
C33? C 0.6364(10) 0.8277(9) 0.0435(8)
H67? H 0.6722 0.8697 0.0857
H68? H 0.5966 0.8636 -0.0018
H69? H 0.6886 0.7895 0.0226
C34? C 0.4920(14) 0.8405(11) 0.1010(12)
H70? H 0.4279 0.8171 0.1180
H71? H 0.4732 0.8789 0.0518
H72? H 0.5317 0.8776 0.1455
loop_
_geom_bond_atom_site_label_1
_geom_bond_atom_site_label_2
_geom_bond_site_symmetry_1
_geom_bond_site_symmetry_2
Sr1 O1 1_555 1_555
O1 C1 1_555 1_555
O2 Sr1 1_555 1_555
C1 C2 1_555 1_555
C2 H1 1_555 1_555
C3 O2 1_555 1_555
C4 C1 1_555 1_555
C5 C4 1_555 1_555
H2 C5 1_555 1_555
H3 C5 1_555 1_555
H4 C5 1_555 1_555
C6 C4 1_555 1_555
H5 C6 1_555 1_555
H6 C6 1_555 1_555
H7 C6 1_555 1_555
C7 C4 1_555 1_555
H8 C7 1_555 1_555
H9 C7 1_555 1_555
H10 C7 1_555 1_555
C8 C3 1_555 1_555
C9 C8 1_555 1_555
H11 C9 1_555 1_555
H12 C9 1_555 1_555
H13 C9 1_555 1_555
C10 C8 1_555 1_555
H14 C10 1_555 1_555
H15 C10 1_555 1_555
H16 C10 1_555 1_555
C11 C8 1_555 1_555
H17 C11 1_555 1_555
H18 C11 1_555 1_555
H19 C11 1_555 1_555
O3 Sr1 1_555 1_555
N1 Sr1 1_555 1_555
N2 C19 1_555 1_555
N3 C24 1_555 1_555
C12 O3 1_555 1_555
C13 C12 1_555 1_555
H20 C13 1_555 1_555
H21 C13 1_555 1_555
C14 C13 1_555 1_555
H22 C14 1_555 1_555
H23 C14 1_555 1_555
C15 N1 1_555 1_555
H24 C15 1_555 1_555
H25 C15 1_555 1_555
C16 N1 1_555 1_555
H26 C16 1_555 1_555
H27 C16 1_555 1_555
H28 C16 1_555 1_555
C17 N1 1_555 1_555
H29 C17 1_555 1_555
H30 C17 1_555 1_555
H31 C17 1_555 1_555
C18 C12 1_555 1_555
H32 C18 1_555 1_555
H33 C18 1_555 1_555
C19 C18 1_555 1_555
H34 C19 1_555 1_555
H35 C19 1_555 1_555
C20 N2 1_555 1_555
H36 C20 1_555 1_555
H37 C20 1_555 1_555
H38 C20 1_555 1_555
C21 N2 1_555 1_555
H39 C21 1_555 1_555
H40 C21 1_555 1_555
H41 C21 1_555 1_555
C22 C12 1_555 1_555
H42 C22 1_555 1_555
H43 C22 1_555 1_555
C23 C22 1_555 1_555
H44 C23 1_555 1_555
H45 C23 1_555 1_555
C24 C23 1_555 1_555
H46 C24 1_555 1_555
H47 C24 1_555 1_555
C25 N3 1_555 1_555
H48 C25 1_555 1_555
H49 C25 1_555 1_555
H50 C25 1_555 1_555
C26 N3 1_555 1_555
H51 C26 1_555 1_555
H52 C26 1_555 1_555
H53 C26 1_555 1_555
Sr1B O3 1_555 1_555
O1B Sr1B 1_555 1_555
O2B Sr1B 1_555 1_555
C1B O1B 1_555 1_555
C2B C1B 1_555 1_555
H1B C2B 1_555 1_555
C3B O2B 1_555 1_555
C4B C1B 1_555 1_555
C5B C4B 1_555 1_555
H2B C5B 1_555 1_555
H3B C5B 1_555 1_555
H4B C5B 1_555 1_555
C6B C4B 1_555 1_555
H5B C6B 1_555 1_555
H6B C6B 1_555 1_555
H7B C6B 1_555 1_555
C7B C4B 1_555 1_555
H8B C7B 1_555 1_555
H9B C7B 1_555 1_555
H10B C7B 1_555 1_555
C8B C3B 1_555 1_555
C9B C8B 1_555 1_555
H11B C9B 1_555 1_555
H12B C9B 1_555 1_555
H13B C9B 1_555 1_555
C10B C8B 1_555 1_555
H14B C10B 1_555 1_555
H15B C10B 1_555 1_555
H16B C10B 1_555 1_555
C11B C8B 1_555 1_555
H17B C11B 1_555 1_555
H18B C11B 1_555 1_555
H19B C11B 1_555 1_555
O3B Sr1 1_555 1_555
N1B Sr1B 1_555 1_555
N2B Sr1 1_555 1_555
N3B C24B 1_555 1_555
C12B O3B 1_555 1_555
C13B C12B 1_555 1_555
H20B C13B 1_555 1_555
H21B C13B 1_555 1_555
C14B C13B 1_555 1_555
H22B C14B 1_555 1_555
H23B C14B 1_555 1_555
C15B N1B 1_555 1_555
H24B C15B 1_555 1_555
H25B C15B 1_555 1_555
C16B N1B 1_555 1_555
H26B C16B 1_555 1_555
H27B C16B 1_555 1_555
H28B C16B 1_555 1_555
C17B N1B 1_555 1_555
H29B C17B 1_555 1_555
H30B C17B 1_555 1_555
H31B C17B 1_555 1_555
C18B C12B 1_555 1_555
H32B C18B 1_555 1_555
H33B C18B 1_555 1_555
C19B N2B 1_555 1_555
H34B C19B 1_555 1_555
H35B C19B 1_555 1_555
C20B N2B 1_555 1_555
H36B C20B 1_555 1_555
H37B C20B 1_555 1_555
H38B C20B 1_555 1_555
C21B N2B 1_555 1_555
H39B C21B 1_555 1_555
H40B C21B 1_555 1_555
H41B C21B 1_555 1_555
C22B C12B 1_555 1_555
H42B C22B 1_555 1_555
H43B C22B 1_555 1_555
C23B C22B 1_555 1_555
H44B C23B 1_555 1_555
H45B C23B 1_555 1_555
C24B C23B 1_555 1_555
H46B C24B 1_555 1_555
H47B C24B 1_555 1_555
C25B N3B 1_555 1_555
H48B C25B 1_555 1_555
H49B C25B 1_555 1_555
H50B C25B 1_555 1_555
C26B N3B 1_555 1_555
H51B C26B 1_555 1_555
H52B C26B 1_555 1_555
H53B C26B 1_555 1_555
C2 C3 1_555 1_555
N2 Sr1B 1_555 1_555
C14 C15 1_555 1_555
Sr1B O3B 1_555 1_555
C2B C3B 1_555 1_555
C14B C15B 1_555 1_555
C18B C19B 1_555 1_555

#END
