
#######################################################################
#
#                 Cambridge Crystallographic Data Centre
#                                CCDC 
#
#######################################################################
#
# If this CIF has been generated from an entry in the Cambridge 
# Structural Database, then it will include bibliographic, chemical, 
# crystal, experimental, refinement or atomic coordinate data resulting 
# from the CCDC's data processing and validation procedures.
#
#######################################################################

data_KOMKOO
_chemical_formula_moiety         'C22 H12 Br1 Cl1 N2 O1'
_chemical_name_systematic        
2-(4-bromobenzoyl)-1-(4-chlorophenyl)indolizine-3-carbonitrile
_symmetry_cell_setting           triclinic
_symmetry_space_group_name_H-M   'P -1'
_symmetry_Int_Tables_number      2
_space_group_name_Hall           '-P 1'
loop_
_symmetry_equiv_pos_site_id
_symmetry_equiv_pos_as_xyz
1 x,y,z
2 -x,-y,-z
_cell_length_a                   7.7273(16)
_cell_length_b                   8.9408(18)
_cell_length_c                   14.824(3)
_cell_angle_alpha                76.526(6)
_cell_angle_beta                 80.859(6)
_cell_angle_gamma                70.826(6)
_cell_volume                     936.936
_cell_formula_units_Z            2
loop_
_atom_site_label
_atom_site_type_symbol
_atom_site_fract_x
_atom_site_fract_y
_atom_site_fract_z
Br1 Br 0.88205(9) 0.03003(12) 0.11414(6)
Cl1 Cl 0.7907(2) 0.6475(3) 0.05344(12)
C1 C 0.0077(5) 0.7227(4) 0.3572(2)
C2 C 0.6438(7) 0.1206(7) 0.1710(4)
C3 C -0.2235(6) 0.4185(6) 0.4332(3)
C4 C 0.1170(6) 0.6116(5) 0.3047(3)
C5 C 0.0469(6) 0.4820(5) 0.3247(3)
C6 C 0.2830(7) 0.6354(6) 0.1473(3)
H1 H 0.1825 0.6272 0.1238
C7 C -0.1098(6) 0.5165(5) 0.3900(3)
C8 C 0.2734(6) 0.6415(5) 0.2404(3)
C9 C 0.2962(6) 0.2598(5) 0.2480(3)
C10 C 0.4396(7) 0.6411(6) 0.0887(3)
H2 H 0.4450 0.6369 0.0262
C11 C 0.6248(7) 0.2050(6) 0.2398(4)
H3 H 0.7274 0.2157 0.2599
C12 C -0.2606(7) 0.7621(6) 0.4693(3)
H4 H -0.3549 0.7264 0.5051
C13 C -0.2434(7) 0.9058(6) 0.4724(4)
H5 H -0.3248 0.9688 0.5122
C14 C 0.5874(7) 0.6532(7) 0.1242(4)
C15 C 0.1044(7) 0.3337(6) 0.2859(3)
C16 C 0.4495(6) 0.2745(5) 0.2788(3)
H6 H 0.4344 0.3315 0.3260
C17 C 0.0181(7) 0.8725(6) 0.3594(4)
H7 H 0.1085 0.9114 0.3218
C18 C 0.4942(8) 0.1005(7) 0.1409(4)
H8 H 0.5107 0.0406 0.0949
C19 C 0.5785(7) 0.6682(7) 0.2146(4)
H9 H 0.6771 0.6824 0.2367
C20 C -0.1035(7) 0.9622(6) 0.4164(4)
H10 H -0.0954 1.0626 0.4189
C21 C 0.4215(7) 0.6622(6) 0.2728(3)
H11 H 0.4148 0.6722 0.3344
C22 C 0.3201(7) 0.1701(6) 0.1797(3)
H12 H 0.2185 0.1570 0.1600
N1 N -0.1316(6) 0.6670(5) 0.4101(3)
N2 N -0.3186(6) 0.3427(5) 0.4700(3)
O1 O -0.0108(5) 0.2679(5) 0.2861(3)
loop_
_geom_bond_atom_site_label_1
_geom_bond_atom_site_label_2
_geom_bond_site_symmetry_1
_geom_bond_site_symmetry_2
Br1 C2 1_555 1_555
Cl1 C14 1_555 1_555
C1 C4 1_555 1_555
C2 C11 1_555 1_555
C3 C7 1_555 1_555
C4 C5 1_555 1_555
C5 C7 1_555 1_555
C6 H1 1_555 1_555
C7 N1 1_555 1_555
C8 C4 1_555 1_555
C9 C15 1_555 1_555
C10 C6 1_555 1_555
H2 C10 1_555 1_555
C11 H3 1_555 1_555
C12 H4 1_555 1_555
C13 C12 1_555 1_555
H5 C13 1_555 1_555
C14 C10 1_555 1_555
C15 C5 1_555 1_555
C16 C9 1_555 1_555
H6 C16 1_555 1_555
C17 C1 1_555 1_555
H7 C17 1_555 1_555
C18 C2 1_555 1_555
H8 C18 1_555 1_555
C19 C14 1_555 1_555
H9 C19 1_555 1_555
C20 C13 1_555 1_555
H10 C20 1_555 1_555
C21 C8 1_555 1_555
H11 C21 1_555 1_555
C22 C9 1_555 1_555
H12 C22 1_555 1_555
N1 C1 1_555 1_555
N2 C3 1_555 1_555
O1 C15 1_555 1_555
C6 C8 1_555 1_555
C11 C16 1_555 1_555
C12 N1 1_555 1_555
C17 C20 1_555 1_555
C18 C22 1_555 1_555
C19 C21 1_555 1_555

#END
