
#######################################################################
#
#                 Cambridge Crystallographic Data Centre
#                                CCDC 
#
#######################################################################
#
# If this CIF has been generated from an entry in the Cambridge 
# Structural Database, then it will include bibliographic, chemical, 
# crystal, experimental, refinement or atomic coordinate data resulting 
# from the CCDC's data processing and validation procedures.
#
#######################################################################

data_KOMMOP
_chemical_formula_moiety         'C19 H17 Cl1 O4'
_chemical_name_systematic        
3-(2-Chlorophenyl)-3-ethyl-4-(4-methoxybenzoyl)-2-oxetanone
_symmetry_cell_setting           orthorhombic
_symmetry_space_group_name_H-M   'P 21 21 21'
_symmetry_Int_Tables_number      19
_space_group_name_Hall           'P 2ac 2ab'
loop_
_symmetry_equiv_pos_site_id
_symmetry_equiv_pos_as_xyz
1 x,y,z
2 1/2-x,-y,1/2+z
3 -x,1/2+y,1/2-z
4 1/2+x,1/2-y,-z
_cell_length_a                   8.9876(18)
_cell_length_b                   11.718(2)
_cell_length_c                   15.898(3)
_cell_angle_alpha                90
_cell_angle_beta                 90
_cell_angle_gamma                90
_cell_volume                     1674.32
_exptl_crystal_colour            colorless
_exptl_crystal_description       block
_chemical_melting_point          '152-153 deg.C'
_cell_formula_units_Z            4
_exptl_crystal_recrystallization_method 'n-hexane/ethyl acetate'
loop_
_atom_site_label
_atom_site_type_symbol
_atom_site_fract_x
_atom_site_fract_y
_atom_site_fract_z
Cl1 Cl 0.76484(9) 0.10301(6) 0.14677(5)
O1 O 0.4019(3) 0.49065(18) 0.16516(16)
O2 O 0.4370(2) 0.37612(17) 0.05147(13)
O3 O 0.2597(3) 0.19464(17) 0.07404(14)
O4 O 0.5297(2) -0.26092(18) -0.07628(14)
C1 C 0.7413(4) 0.4339(2) 0.20530(19)
H1 H 0.6685 0.4923 0.2107
C2 C 0.8890(4) 0.4586(3) 0.2231(2)
H2 H 0.9159 0.5332 0.2409
C3 C 0.9962(4) 0.3764(3) 0.2153(2)
H3 H 1.0975 0.3942 0.2264
C4 C 0.9568(4) 0.2676(3) 0.19126(19)
H4 H 1.0303 0.2098 0.1861
C5 C 0.8092(3) 0.2433(2) 0.17475(17)
C6 C 0.6975(3) 0.3253(2) 0.17965(17)
C7 C 0.5351(3) 0.2990(2) 0.16111(18)
C8 C 0.4586(4) 0.2302(3) 0.23086(18)
H5 H 0.3510 0.2249 0.2182
H6 H 0.4995 0.1518 0.2311
C9 C 0.4784(5) 0.2821(3) 0.3181(2)
H7 H 0.4265 0.2350 0.3597
H8 H 0.4369 0.3595 0.3187
H9 H 0.5846 0.2853 0.3319
C10 C 0.5060(3) 0.2635(2) 0.06683(18)
H10 H 0.5991 0.2504 0.0338
C11 C 0.4497(3) 0.4068(3) 0.1340(2)
C12 C 0.3875(4) 0.1711(3) 0.05374(18)
C13 C 0.4285(3) 0.0587(2) 0.01856(18)
C14 C 0.5632(3) 0.0354(3) -0.02202(18)
H11 H 0.6357 0.0939 -0.0275
C15 C 0.5917(3) -0.0713(2) -0.05397(19)
H12 H 0.6828 -0.0856 -0.0824
C16 C 0.4880(4) -0.1584(3) -0.04494(19)
C17 C 0.3528(4) -0.1376(3) -0.00544(19)
H13 H 0.2810 -0.1967 0.0002
C18 C 0.3244(4) -0.0297(3) 0.0255(2)
H14 H 0.2318 -0.0150 0.0522
C19 C 0.4311(4) -0.3560(2) -0.0629(2)
H15 H 0.4738 -0.4247 -0.0885
H16 H 0.3344 -0.3397 -0.0887
H17 H 0.4181 -0.3683 -0.0023
loop_
_geom_bond_atom_site_label_1
_geom_bond_atom_site_label_2
_geom_bond_site_symmetry_1
_geom_bond_site_symmetry_2
Cl1 C5 1_555 1_555
O1 C11 1_555 1_555
O2 C10 1_555 1_555
O3 C12 1_555 1_555
O4 C16 1_555 1_555
C1 H1 1_555 1_555
C2 C1 1_555 1_555
H2 C2 1_555 1_555
C3 C2 1_555 1_555
H3 C3 1_555 1_555
C4 C3 1_555 1_555
H4 C4 1_555 1_555
C5 C4 1_555 1_555
C6 C1 1_555 1_555
C7 C6 1_555 1_555
C8 C7 1_555 1_555
H5 C8 1_555 1_555
H6 C8 1_555 1_555
C9 C8 1_555 1_555
H7 C9 1_555 1_555
H8 C9 1_555 1_555
H9 C9 1_555 1_555
C10 C7 1_555 1_555
H10 C10 1_555 1_555
C11 O2 1_555 1_555
C12 C10 1_555 1_555
C13 C12 1_555 1_555
C14 C13 1_555 1_555
H11 C14 1_555 1_555
C15 C14 1_555 1_555
H12 C15 1_555 1_555
C16 C15 1_555 1_555
C17 C16 1_555 1_555
H13 C17 1_555 1_555
C18 C13 1_555 1_555
H14 C18 1_555 1_555
C19 O4 1_555 1_555
H15 C19 1_555 1_555
H16 C19 1_555 1_555
H17 C19 1_555 1_555
C5 C6 1_555 1_555
C7 C11 1_555 1_555
C17 C18 1_555 1_555

#END
