
#######################################################################
#
#                 Cambridge Crystallographic Data Centre
#                                CCDC 
#
#######################################################################
#
# If this CIF has been generated from an entry in the Cambridge 
# Structural Database, then it will include bibliographic, chemical, 
# crystal, experimental, refinement or atomic coordinate data resulting 
# from the CCDC's data processing and validation procedures.
#
#######################################################################

data_KOMNEH
_chemical_formula_moiety         'C16 H13 N1 O1'
_chemical_name_systematic        
3-(4-Methylbenzylidene)-1,3-dihydro-2H-indol-2-one
_symmetry_cell_setting           triclinic
_symmetry_space_group_name_H-M   'P -1'
_symmetry_Int_Tables_number      2
_space_group_name_Hall           '-P 1'
loop_
_symmetry_equiv_pos_site_id
_symmetry_equiv_pos_as_xyz
1 x,y,z
2 -x,-y,-z
_cell_length_a                   8.1168(4)
_cell_length_b                   9.2556(4)
_cell_length_c                   9.3927(3)
_cell_angle_alpha                62.290(2)
_cell_angle_beta                 80.933(3)
_cell_angle_gamma                72.180(2)
_cell_volume                     594.637
_exptl_crystal_colour            yellow
_cell_formula_units_Z            2
loop_
_atom_site_label
_atom_site_type_symbol
_atom_site_fract_x
_atom_site_fract_y
_atom_site_fract_z
C1 C 0.8966(3) 0.4150(3) 0.2247(3)
C2 C 0.8082(3) 0.3257(3) 0.3803(2)
C3 C 0.8055(3) 0.1662(3) 0.3834(3)
C4 C 0.7533(3) 0.0235(3) 0.4951(3)
H1 H 0.6997 0.0192 0.5940
C5 C 0.7802(3) -0.1127(3) 0.4606(3)
H2 H 0.7427 -0.2091 0.5360
C6 C 0.8605(3) -0.1107(3) 0.3188(3)
H3 H 0.8772 -0.2053 0.2979
C7 C 0.9174(3) 0.0295(3) 0.2061(3)
H4 H 0.9744 0.0315 0.1090
C8 C 0.8880(3) 0.1646(3) 0.2407(3)
C9 C 0.7640(3) 0.3974(3) 0.4814(3)
H5 H 0.7978 0.4989 0.4447
C10 C 0.6737(3) 0.3483(3) 0.6373(3)
C11 C 0.5478(3) 0.2602(3) 0.6816(3)
H6 H 0.5177 0.2287 0.6083
C12 C 0.4657(3) 0.2179(3) 0.8313(3)
H7 H 0.3813 0.1567 0.8592
C13 C 0.5048(3) 0.2636(3) 0.9412(3)
C14 C 0.6278(3) 0.3553(3) 0.8951(3)
H8 H 0.6558 0.3892 0.9675
C15 C 0.7097(3) 0.3979(3) 0.7460(3)
H9 H 0.7918 0.4618 0.7171
C16 C 0.4159(3) 0.2186(3) 1.1036(3)
H10 H 0.3459 0.1421 1.1207
H11 H 0.3408 0.3219 1.1082
H12 H 0.5029 0.1625 1.1875
N1 N 0.9369(2) 0.3154(2) 0.1478(2)
H13 H 0.9870 0.3420 0.0521
O1 O 0.9289(2) 0.5533(2) 0.17276(18)
loop_
_geom_bond_atom_site_label_1
_geom_bond_atom_site_label_2
_geom_bond_site_symmetry_1
_geom_bond_site_symmetry_2
C1 C2 1_555 1_555
C2 C3 1_555 1_555
C3 C4 1_555 1_555
C4 H1 1_555 1_555
C5 C4 1_555 1_555
H2 C5 1_555 1_555
C6 C5 1_555 1_555
H3 C6 1_555 1_555
C7 C6 1_555 1_555
H4 C7 1_555 1_555
C8 C3 1_555 1_555
C9 C2 1_555 1_555
H5 C9 1_555 1_555
C10 C9 1_555 1_555
C11 C10 1_555 1_555
H6 C11 1_555 1_555
C12 C11 1_555 1_555
H7 C12 1_555 1_555
C13 C12 1_555 1_555
C14 C13 1_555 1_555
H8 C14 1_555 1_555
C15 C10 1_555 1_555
H9 C15 1_555 1_555
C16 C13 1_555 1_555
H10 C16 1_555 1_555
H11 C16 1_555 1_555
H12 C16 1_555 1_555
N1 C1 1_555 1_555
H13 N1 1_555 1_555
O1 C1 1_555 1_555
C7 C8 1_555 1_555
C8 N1 1_555 1_555
C14 C15 1_555 1_555

#END
