
#######################################################################
#
#                 Cambridge Crystallographic Data Centre
#                                CCDC 
#
#######################################################################
#
# If this CIF has been generated from an entry in the Cambridge 
# Structural Database, then it will include bibliographic, chemical, 
# crystal, experimental, refinement or atomic coordinate data resulting 
# from the CCDC's data processing and validation procedures.
#
#######################################################################

data_KOMROU
_chemical_formula_moiety         'C5 H9 O4 P1 S1'
_chemical_name_systematic        
'2,6,7-Trioxa-1-phosphabicyclo(2.2.2)octan-4-ylmethanol 1-sulfide'
_symmetry_cell_setting           orthorhombic
_symmetry_space_group_name_H-M   'P n a 21'
_symmetry_Int_Tables_number      33
_space_group_name_Hall           'P 2c -2n'
loop_
_symmetry_equiv_pos_site_id
_symmetry_equiv_pos_as_xyz
1 x,y,z
2 -x,-y,1/2+z
3 1/2-x,1/2+y,1/2+z
4 1/2+x,1/2-y,z
_cell_length_a                   11.571(3)
_cell_length_b                   9.724(3)
_cell_length_c                   7.112(4)
_cell_angle_alpha                90
_cell_angle_beta                 90
_cell_angle_gamma                90
_cell_volume                     800.217
_exptl_crystal_colour            colorless
_exptl_crystal_description       Block
_chemical_melting_point          '431-433 K'
_cell_formula_units_Z            4
_exptl_crystal_recrystallization_method water
loop_
_atom_site_label
_atom_site_type_symbol
_atom_site_fract_x
_atom_site_fract_y
_atom_site_fract_z
S1 S 0.43219(11) 0.07576(14) 1.1866(2)
P1 P 0.32384(8) 0.09916(9) 0.98909(19)
O1 O 0.2853(3) -0.0370(3) 0.8907(5)
O2 O 0.2054(3) 0.1676(3) 1.0501(5)
O3 O 0.3650(2) 0.1924(3) 0.8211(5)
O4 O 0.1030(4) 0.0757(5) 0.3982(6)
H1 H 0.1541 0.1153 0.3394
C1 C 0.2796(4) 0.2118(5) 0.6721(8)
H2 H 0.3115 0.1806 0.5534
H3 H 0.2617 0.3089 0.6603
C2 C 0.1994(4) -0.0202(5) 0.7394(8)
H4 H 0.1299 -0.0711 0.7703
H5 H 0.2302 -0.0566 0.6227
C3 C 0.1224(3) 0.1837(5) 0.8992(7)
H6 H 0.1019 0.2801 0.8873
H7 H 0.0527 0.1329 0.9296
C4 C 0.1702(3) 0.1327(4) 0.7147(7)
C5 C 0.0792(4) 0.1483(5) 0.5622(7)
H8 H 0.0055 0.1173 0.6115
H9 H 0.0716 0.2450 0.5314
loop_
_geom_bond_atom_site_label_1
_geom_bond_atom_site_label_2
_geom_bond_site_symmetry_1
_geom_bond_site_symmetry_2
S1 P1 1_555 1_555
P1 O1 1_555 1_555
O1 C2 1_555 1_555
O2 P1 1_555 1_555
O3 P1 1_555 1_555
O4 H1 1_555 1_555
C1 O3 1_555 1_555
H2 C1 1_555 1_555
H3 C1 1_555 1_555
C2 H4 1_555 1_555
H5 C2 1_555 1_555
C3 O2 1_555 1_555
H6 C3 1_555 1_555
H7 C3 1_555 1_555
C4 C1 1_555 1_555
C5 O4 1_555 1_555
H8 C5 1_555 1_555
H9 C5 1_555 1_555
C2 C4 1_555 1_555
C3 C4 1_555 1_555
C4 C5 1_555 1_555

#END
