
#######################################################################
#
#                 Cambridge Crystallographic Data Centre
#                                CCDC 
#
#######################################################################
#
# If this CIF has been generated from an entry in the Cambridge 
# Structural Database, then it will include bibliographic, chemical, 
# crystal, experimental, refinement or atomic coordinate data resulting 
# from the CCDC's data processing and validation procedures.
#
#######################################################################

data_KONCOG
_chemical_formula_moiety         'C12 H17 I1 O3'
_chemical_name_systematic        
(3S,5R,10S)-3-(1-iodo-1-methylethyl)-10-hydroxy-2-oxaspiro[4.5]dec-6-en-1-one
_symmetry_cell_setting           monoclinic
_symmetry_space_group_name_H-M   'P 21'
_symmetry_Int_Tables_number      4
_space_group_name_Hall           'P 2yb'
loop_
_symmetry_equiv_pos_site_id
_symmetry_equiv_pos_as_xyz
1 x,y,z
2 -x,1/2+y,-z
_cell_length_a                   6.6437(6)
_cell_length_b                   9.2713(8)
_cell_length_c                   11.2039(12)
_cell_angle_alpha                90
_cell_angle_beta                 107.245(4)
_cell_angle_gamma                90
_cell_volume                     659.089
_exptl_crystal_colour            colorless
_exptl_crystal_description       prism
_chemical_melting_point          '104-105 deg.C'
_cell_formula_units_Z            2
_exptl_crystal_recrystallization_method 'diethyl ether'
loop_
_atom_site_label
_atom_site_type_symbol
_atom_site_fract_x
_atom_site_fract_y
_atom_site_fract_z
I1 I 0.920386(17) 0.43329(7) 0.895633(9)
O1 O 0.76327(19) 0.44554(19) 0.58981(10)
O2 O 0.6618(3) 0.55871(16) 0.40743(15)
O3 O 0.3558(2) 0.29238(15) 0.43826(13)
C1 C 0.7063(2) 0.4459(3) 0.46391(13)
C2 C 0.8014(3) 0.29941(18) 0.63897(15)
C3 C 0.8188(3) 0.20685(17) 0.52905(15)
C4 C 0.7058(3) 0.2953(2) 0.4109(2)
C5 C 0.8199(3) 0.29017(18) 0.31293(17)
C6 C 0.7228(3) 0.2800(2) 0.19162(17)
C7 C 0.4884(3) 0.2755(2) 0.13557(18)
C8 C 0.3728(3) 0.3196(2) 0.22886(17)
C9 C 0.4717(3) 0.25016(18) 0.35493(16)
C10 C 0.9995(3) 0.30141(19) 0.75226(16)
C11 C 1.0445(3) 0.1493(2) 0.80467(18)
C12 C 1.1969(3) 0.37275(19) 0.72895(17)
H1 H 0.6844 0.2680 0.6645
H2 H 0.7510 0.1165 0.5285
H3 H 0.9623 0.1914 0.5338
H4 H 0.9694 0.2948 0.3398
H5 H 0.8074 0.2753 0.1366
H6 H 0.4479 0.1801 0.1080
H7 H 0.4494 0.3395 0.0663
H8 H 0.2297 0.2902 0.1981
H9 H 0.3794 0.4214 0.2382
H10 H 0.4643 0.1483 0.3455
H11 H 0.340(4) 0.233(3) 0.477(2)
H12 H 1.1672 0.1503 0.8748
H13 H 1.0665 0.0871 0.7423
H14 H 0.9280 0.1157 0.8296
H15 H 1.3119 0.3694 0.8034
H16 H 1.2327 0.3221 0.6644
H17 H 1.1660 0.4703 0.7045
loop_
_geom_bond_atom_site_label_1
_geom_bond_atom_site_label_2
_geom_bond_site_symmetry_1
_geom_bond_site_symmetry_2
I1 C10 1_555 1_555
O1 C1 1_555 1_555
O2 C1 1_555 1_555
O3 C9 1_555 1_555
C1 C4 1_555 1_555
C2 O1 1_555 1_555
C3 C2 1_555 1_555
C4 C3 1_555 1_555
C5 C4 1_555 1_555
C6 C5 1_555 1_555
C7 C6 1_555 1_555
C8 C7 1_555 1_555
C9 C4 1_555 1_555
C10 C2 1_555 1_555
C11 C10 1_555 1_555
C12 C10 1_555 1_555
H1 C2 1_555 1_555
H2 C3 1_555 1_555
H3 C3 1_555 1_555
H4 C5 1_555 1_555
H5 C6 1_555 1_555
H6 C7 1_555 1_555
H7 C7 1_555 1_555
H8 C8 1_555 1_555
H9 C8 1_555 1_555
H10 C9 1_555 1_555
H11 O3 1_555 1_555
H12 C11 1_555 1_555
H13 C11 1_555 1_555
H14 C11 1_555 1_555
H15 C12 1_555 1_555
H16 C12 1_555 1_555
H17 C12 1_555 1_555
C8 C9 1_555 1_555

#END
