
#######################################################################
#
#                 Cambridge Crystallographic Data Centre
#                                CCDC 
#
#######################################################################
#
# If this CIF has been generated from an entry in the Cambridge 
# Structural Database, then it will include bibliographic, chemical, 
# crystal, experimental, refinement or atomic coordinate data resulting 
# from the CCDC's data processing and validation procedures.
#
#######################################################################

data_KONKUT
_chemical_formula_moiety         'C19 H30 O3 Si1'
_chemical_name_systematic        
1-t-Butyl-6-(1,2,4)benza-1-sila-2,10,11-trioxatricyclo(4.4.4)tetradecaphane
_symmetry_cell_setting           orthorhombic
_symmetry_space_group_name_H-M   'P 21 21 21'
_symmetry_Int_Tables_number      19
_space_group_name_Hall           'P 2ac 2ab'
loop_
_symmetry_equiv_pos_site_id
_symmetry_equiv_pos_as_xyz
1 x,y,z
2 1/2+x,1/2-y,-z
3 -x,1/2+y,1/2-z
4 1/2-x,-y,1/2+z
_cell_length_a                   8.196(2)
_cell_length_b                   11.573(4)
_cell_length_c                   19.792(6)
_cell_angle_alpha                90
_cell_angle_beta                 90
_cell_angle_gamma                90
_cell_volume                     1877.32
_exptl_crystal_colour            colorless
_cell_formula_units_Z            4
loop_
_atom_site_label
_atom_site_type_symbol
_atom_site_fract_x
_atom_site_fract_y
_atom_site_fract_z
Si1 Si 0.2445(1) 0.4608(1) 0.8950(1)
O1 O 0.0508(2) 0.4572(2) 0.8835(1)
O2 O 0.3509(2) 0.4489(2) 0.8263(1)
O3 O 0.2821(3) 0.3476(2) 0.9399(1)
C1 C -0.0534(4) 0.2702(3) 0.7929(2)
C2 C 0.1032(4) 0.2696(3) 0.7656(1)
C3 C 0.2216(5) 0.2004(3) 0.7951(2)
C4 C 0.1904(5) 0.1329(2) 0.8512(2)
C5 C 0.0315(5) 0.1276(3) 0.8740(2)
C6 C -0.0874(5) 0.1945(3) 0.8454(2)
C7 C -0.1842(5) 0.3551(3) 0.7751(2)
C8 C -0.2103(4) 0.4485(4) 0.8276(2)
C9 C -0.0660(5) 0.5204(4) 0.8473(3)
C11 C 0.1536(5) 0.3426(3) 0.7049(2)
C12 C 0.3170(5) 0.4048(3) 0.7083(2)
C13 C 0.3304(5) 0.4949(3) 0.7609(1)
C14 C 0.3296(6) 0.0801(3) 0.8901(2)
C15 C 0.3749(5) 0.1504(3) 0.9526(2)
C16 C 0.4195(4) 0.2735(3) 0.9398(2)
C17 C 0.3057(4) 0.5943(2) 0.9413(2)
C18 C 0.4900(5) 0.5934(3) 0.9540(2)
C19 C 0.2189(5) 0.5992(3) 1.0094(2)
C20 C 0.2640(6) 0.7034(2) 0.9014(2)
H1 H 0.3291 0.2003 0.7759
H2 H 0.0035 0.0751 0.9097
H3 H -0.1972 0.1899 0.8620
H4 H -0.2848 0.3144 0.7680
H5 H -0.1549 0.3915 0.7332
H6 H -0.2553 0.4121 0.8671
H7 H -0.2914 0.5008 0.8107
H8 H -0.0160 0.5508 0.8071
H9 H -0.1020 0.5841 0.8744
H12 H 0.0714 0.4011 0.7002
H13 H 0.1494 0.2950 0.6652
H14 H 0.3407 0.4369 0.6646
H15 H 0.3984 0.3474 0.7178
H16 H 0.4225 0.5433 0.7511
H17 H 0.2338 0.5418 0.7601
H18 H 0.4238 0.0766 0.8614
H19 H 0.3017 0.0025 0.9027
H20 H 0.4628 0.1122 0.9757
H21 H 0.2823 0.1509 0.9823
H22 H 0.4950 0.3002 0.9735
H23 H 0.4720 0.2778 0.8965
H24 H 0.5243 0.6611 0.9781
H25 H 0.5171 0.5258 0.9798
H26 H 0.5443 0.5903 0.9111
H27 H 0.2504 0.6676 1.0336
H28 H 0.1033 0.6003 1.0016
H29 H 0.2468 0.5322 1.0356
H30 H 0.2962 0.7711 0.9261
H31 H 0.3184 0.7024 0.8584
H32 H 0.1481 0.7046 0.8945
C10? C -0.0960(26) 0.4809(18) 0.8752(11)
H10? H -0.0832 0.5604 0.8623
H11? H -0.1482 0.4821 0.9186
loop_
_geom_bond_atom_site_label_1
_geom_bond_atom_site_label_2
_geom_bond_site_symmetry_1
_geom_bond_site_symmetry_2
Si1 O1 1_555 1_555
O1 C9 1_555 1_555
O2 Si1 1_555 1_555
O3 Si1 1_555 1_555
C1 C2 1_555 1_555
C2 C3 1_555 1_555
C3 C4 1_555 1_555
C4 C5 1_555 1_555
C5 C6 1_555 1_555
C6 C1 1_555 1_555
C7 C1 1_555 1_555
C8 C7 1_555 1_555
C9 C8 1_555 1_555
C11 C2 1_555 1_555
C12 C11 1_555 1_555
C13 O2 1_555 1_555
C14 C4 1_555 1_555
C15 C14 1_555 1_555
C16 O3 1_555 1_555
C17 Si1 1_555 1_555
C18 C17 1_555 1_555
C19 C17 1_555 1_555
C20 C17 1_555 1_555
H1 C3 1_555 1_555
H2 C5 1_555 1_555
H3 C6 1_555 1_555
H4 C7 1_555 1_555
H5 C7 1_555 1_555
H6 C8 1_555 1_555
H7 C8 1_555 1_555
H8 C9 1_555 1_555
H9 C9 1_555 1_555
H12 C11 1_555 1_555
H13 C11 1_555 1_555
H14 C12 1_555 1_555
H15 C12 1_555 1_555
H16 C13 1_555 1_555
H17 C13 1_555 1_555
H18 C14 1_555 1_555
H19 C14 1_555 1_555
H20 C15 1_555 1_555
H21 C15 1_555 1_555
H22 C16 1_555 1_555
H23 C16 1_555 1_555
H24 C18 1_555 1_555
H25 C18 1_555 1_555
H26 C18 1_555 1_555
H27 C19 1_555 1_555
H28 C19 1_555 1_555
H29 C19 1_555 1_555
H30 C20 1_555 1_555
H31 C20 1_555 1_555
H32 C20 1_555 1_555
C12 C13 1_555 1_555
C15 C16 1_555 1_555

#END
