
#######################################################################
#
#                 Cambridge Crystallographic Data Centre
#                                CCDC 
#
#######################################################################
#
# If this CIF has been generated from an entry in the Cambridge 
# Structural Database, then it will include bibliographic, chemical, 
# crystal, experimental, refinement or atomic coordinate data resulting 
# from the CCDC's data processing and validation procedures.
#
#######################################################################

data_KONLAA
_chemical_formula_moiety         'C19 H30 O3 Si1'
_chemical_name_systematic        
1-t-Butyl-6-(1,3,5)benza-1-sila-2,10,11-trioxatricyclo(4.4.4)tetradecaphane
_symmetry_cell_setting           monoclinic
_symmetry_space_group_name_H-M   'P 21/m'
_symmetry_Int_Tables_number      11
_space_group_name_Hall           '-P 2yb'
loop_
_symmetry_equiv_pos_site_id
_symmetry_equiv_pos_as_xyz
1 x,y,z
2 -x,1/2+y,-z
3 -x,-y,-z
4 x,1/2-y,z
_cell_length_a                   8.533(2)
_cell_length_b                   11.232(2)
_cell_length_c                   10.028(2)
_cell_angle_alpha                90
_cell_angle_beta                 95.150(10)
_cell_angle_gamma                90
_cell_volume                     957.23
_exptl_crystal_colour            colorless
_cell_formula_units_Z            2
loop_
_atom_site_label
_atom_site_type_symbol
_atom_site_fract_x
_atom_site_fract_y
_atom_site_fract_z
Si1 Si 0.3239(2) 0.7500 0.4490(1)
O2 O 0.2027(9) 0.8408(6) 0.3682(6)
C1 C 0.5526(7) 0.7500 0.1345(6)
C2 C 0.4709(5) 0.8559(5) 0.1170(4)
C3 C 0.3097(6) 0.8573(5) 0.0861(4)
C4 C 0.2323(8) 0.7500 0.0695(6)
C5 C 0.7219(7) 0.7500 0.1887(6)
C8 C 0.2207(7) 0.9700(6) 0.0817(5)
C9 C 0.1617(9) 1.0079(6) 0.2103(5)
C10 C 0.1883(8) 0.9493(6) 0.3404(5)
C11 C 0.2913(7) 0.7500 0.6302(6)
C12 C 0.4168(16) 0.6814(11) 0.7099(10)
H1 H 0.5275 0.9297 0.1266
H2 H 0.1210 0.7500 0.0446
H3 H 0.7713 0.6810 0.1545
H8 H 0.2909 1.0308 0.0558
H9 H 0.1326 0.9675 0.0151
H10 H 0.2024 1.0866 0.2275
H11 H 0.0501 1.0173 0.1911
H14 H 0.1011 0.9768 0.3863
H16 H 0.3990 0.6828 0.8030
O2C O 0.2027(9) 0.6592(6) 0.3682(6)
C2C C 0.4709(5) 0.6441(5) 0.1170(4)
C3C C 0.3097(6) 0.6427(5) 0.0861(4)
H3C H 0.7713 0.8190 0.1545
C12C C 0.4168(16) 0.8186(11) 0.7099(10)
C10C C 0.1883(8) 0.5507(6) 0.3404(5)
H1C H 0.5275 0.5703 0.1266
C8C C 0.2207(7) 0.5300(6) 0.0817(5)
H16C H 0.3990 0.8172 0.8030
C9C C 0.1617(9) 0.4921(6) 0.2103(5)
H14C H 0.1011 0.5232 0.3863
H8C H 0.2909 0.4692 0.0558
H9C H 0.1326 0.5325 0.0151
H10C H 0.2024 0.4134 0.2275
H11C H 0.0501 0.4827 0.1911
O1? O 0.4989(6) 0.7952(5) 0.4276(5)
O3? O 0.3015(9) 0.6206(6) 0.3884(7)
C6? C 0.7512(8) 0.7127(8) 0.3339(6)
C7? C 0.6418(7) 0.7500 0.4310(6)
C13? C 0.2977(15) 0.8829(10) 0.6828(10)
C14? C 0.1295(12) 0.7074(12) 0.6525(9)
H4? H 0.8529 0.7430 0.3659
H5? H 0.7582 0.6274 0.3366
H6? H 0.6982 0.7185 0.5104
H7? H 0.6259 0.8328 0.4493
H12? H 0.1912 0.4874 0.4049
H13? H 0.0901 0.5910 0.3473
H15? H 0.2802 0.5153 0.3864
H17? H 0.4114 0.6008 0.6779
H18? H 0.5190 0.7137 0.6986
H19? H 0.2823 0.8830 0.7765
H20? H 0.3996 0.9148 0.6702
H21? H 0.2181 0.9309 0.6353
H22? H 0.1149 0.7076 0.7463
H23? H 0.0565 0.7618 0.6065
H24? H 0.1114 0.6287 0.6171
loop_
_geom_bond_atom_site_label_1
_geom_bond_atom_site_label_2
_geom_bond_site_symmetry_1
_geom_bond_site_symmetry_2
Si1 O2 1_555 1_555
O2 C10 1_555 1_555
C1 C2 1_555 1_555
C2 C3 1_555 1_555
C3 C4 1_555 1_555
C4 H2 1_555 1_555
C5 C1 1_555 1_555
C8 C3 1_555 1_555
C9 C8 1_555 1_555
C10 C9 1_555 1_555
C11 Si1 1_555 1_555
C12 C11 1_555 1_555
H1 C2 1_555 1_555
H3 C5 1_555 1_555
H8 C8 1_555 1_555
H9 C8 1_555 1_555
H10 C9 1_555 1_555
H11 C9 1_555 1_555
H14 C10 1_555 1_555
H16 C12 1_555 1_555
O2C Si1 1_555 1_555
C2C C1 1_555 1_555
C3C C4 1_555 1_555
H3C C5 1_555 1_555
C12C C11 1_555 1_555
C10C O2C 1_555 1_555
H1C C2C 1_555 1_555
C8C C3C 1_555 1_555
H16C C12C 1_555 1_555
C9C C10C 1_555 1_555
H14C C10C 1_555 1_555
H8C C8C 1_555 1_555
H9C C8C 1_555 1_555
H10C C9C 1_555 1_555
H11C C9C 1_555 1_555
C12 C12C 1_555 1_555
C2C C3C 1_555 1_555
C8C C9C 1_555 1_555

#END
