
#######################################################################
#
#                 Cambridge Crystallographic Data Centre
#                                CCDC 
#
#######################################################################
#
# If this CIF has been generated from an entry in the Cambridge 
# Structural Database, then it will include bibliographic, chemical, 
# crystal, experimental, refinement or atomic coordinate data resulting 
# from the CCDC's data processing and validation procedures.
#
#######################################################################

data_KONMAD
_chemical_formula_moiety         'C18 H16 N2'
_chemical_name_systematic        8-benzyl-2-methyl-8H-pyrazolo[5,1-a]isoindole
_symmetry_cell_setting           monoclinic
_symmetry_space_group_name_H-M   'P 21/c'
_symmetry_Int_Tables_number      14
_space_group_name_Hall           '-P 2ybc'
loop_
_symmetry_equiv_pos_site_id
_symmetry_equiv_pos_as_xyz
1 x,y,z
2 -x,1/2+y,1/2-z
3 -x,-y,-z
4 x,1/2-y,1/2+z
_cell_length_a                   15.707(3)
_cell_length_b                   9.1380(16)
_cell_length_c                   19.686(3)
_cell_angle_alpha                90
_cell_angle_beta                 90.777(2)
_cell_angle_gamma                90
_cell_volume                     2825.28
_exptl_crystal_description       block
_cell_formula_units_Z            8
loop_
_atom_site_label
_atom_site_type_symbol
_atom_site_fract_x
_atom_site_fract_y
_atom_site_fract_z
C1 C 0.14975(12) 0.68460(19) 0.32934(11)
H1 H 0.1358 0.7822 0.3218
C2 C 0.19731(12) 0.6469(2) 0.38581(11)
H2 H 0.2147 0.7194 0.4161
C3 C 0.21974(11) 0.5025(2) 0.39821(10)
H3 H 0.2513 0.4773 0.4368
C4 C 0.19441(10) 0.39727(17) 0.35233(8)
C5 C 0.14545(9) 0.43562(16) 0.29517(8)
C6 C 0.12240(11) 0.57933(18) 0.28376(9)
H4 H 0.0891 0.6047 0.2461
C7 C 0.21302(10) 0.23444(17) 0.35283(9)
H5 H 0.2743 0.2191 0.3473
C8 C 0.09180(10) 0.23960(18) 0.20074(9)
H6 H 0.0596 0.2861 0.1671
C9 C 0.12894(10) 0.30220(16) 0.25681(8)
C10 C 0.11237(10) 0.09104(19) 0.20456(9)
C11 C 0.08685(13) -0.0286(2) 0.15696(10)
H7 H 0.1220 -0.0253 0.1175
H8 H 0.0283 -0.0161 0.1436
H9 H 0.0938 -0.1214 0.1792
C12 C 0.18308(11) 0.14961(19) 0.41504(9)
H10 H 0.1940 0.0464 0.4076
H11 H 0.2172 0.1799 0.4540
C13 C 0.09078(11) 0.16804(17) 0.43218(8)
C14 C 0.06477(14) 0.2660(2) 0.48112(9)
H12 H 0.1052 0.3235 0.5035
C15 C -0.01974(15) 0.2803(2) 0.49738(10)
H13 H -0.0359 0.3477 0.5302
C16 C -0.07996(13) 0.1960(2) 0.46572(10)
H14 H -0.1370 0.2049 0.4771
C17 C -0.05559(12) 0.0988(2) 0.41733(10)
H15 H -0.0964 0.0411 0.3955
C18 C 0.02873(11) 0.08485(19) 0.40028(9)
H16 H 0.0441 0.0185 0.3668
N1 N 0.16848(8) 0.19235(13) 0.29026(7)
N2 N 0.16015(9) 0.06067(14) 0.25992(8)
C19 C 0.28113(11) 0.6462(2) 0.14985(9)
H17 H 0.2544 0.6188 0.1897
C20 C 0.29344(12) 0.7928(2) 0.13460(11)
H18 H 0.2749 0.8641 0.1647
C21 C 0.33252(12) 0.8340(2) 0.07580(10)
H19 H 0.3390 0.9329 0.0659
C22 C 0.36231(11) 0.73017(18) 0.03104(9)
H20 H 0.3896 0.7585 -0.0085
C23 C 0.35100(9) 0.58389(16) 0.04568(7)
C24 C 0.30932(9) 0.54174(17) 0.10472(8)
C25 C 0.30316(10) 0.37709(18) 0.10922(8)
H21 H 0.2432 0.3476 0.1066
C26 C 0.37507(9) 0.45130(16) 0.00994(8)
C27 C 0.41519(10) 0.39151(18) -0.04483(8)
H22 H 0.4426 0.4410 -0.0795
C28 C 0.40601(10) 0.24046(19) -0.03738(10)
C29 C 0.43744(13) 0.1227(2) -0.08327(11)
H23 H 0.4513 0.0373 -0.0569
H24 H 0.4873 0.1562 -0.1062
H25 H 0.3939 0.0988 -0.1161
C30 C 0.34542(11) 0.3069(2) 0.17170(9)
H26 H 0.3171 0.3422 0.2120
H27 H 0.3367 0.2019 0.1694
C31 C 0.43952(11) 0.33643(18) 0.17928(8)
C32 C 0.47049(13) 0.4544(2) 0.21509(9)
H28 H 0.4326 0.5202 0.2343
C33 C 0.55684(14) 0.4766(2) 0.22289(10)
H29 H 0.5764 0.5578 0.2469
C34 C 0.61400(13) 0.3811(2) 0.19595(9)
H30 H 0.6722 0.3961 0.2019
C35 C 0.58448(12) 0.2636(2) 0.16015(9)
H31 H 0.6227 0.1975 0.1416
C36 C 0.49830(11) 0.24224(18) 0.15141(8)
H32 H 0.4792 0.1625 0.1261
N3 N 0.34519(8) 0.33777(13) 0.04625(7)
N4 N 0.36275(9) 0.20560(14) 0.01875(8)
loop_
_geom_bond_atom_site_label_1
_geom_bond_atom_site_label_2
_geom_bond_site_symmetry_1
_geom_bond_site_symmetry_2
C1 H1 1_555 1_555
C2 C1 1_555 1_555
H2 C2 1_555 1_555
C3 C2 1_555 1_555
H3 C3 1_555 1_555
C4 C3 1_555 1_555
C5 C4 1_555 1_555
C6 C1 1_555 1_555
H4 C6 1_555 1_555
C7 C4 1_555 1_555
H5 C7 1_555 1_555
C8 H6 1_555 1_555
C9 C5 1_555 1_555
C10 C8 1_555 1_555
C11 C10 1_555 1_555
H7 C11 1_555 1_555
H8 C11 1_555 1_555
H9 C11 1_555 1_555
C12 C7 1_555 1_555
H10 C12 1_555 1_555
H11 C12 1_555 1_555
C13 C12 1_555 1_555
C14 C13 1_555 1_555
H12 C14 1_555 1_555
C15 C14 1_555 1_555
H13 C15 1_555 1_555
C16 C15 1_555 1_555
H14 C16 1_555 1_555
C17 C16 1_555 1_555
H15 C17 1_555 1_555
C18 C13 1_555 1_555
H16 C18 1_555 1_555
N1 C7 1_555 1_555
N2 C10 1_555 1_555
C19 H17 1_555 1_555
C20 C19 1_555 1_555
H18 C20 1_555 1_555
C21 C20 1_555 1_555
H19 C21 1_555 1_555
C22 C21 1_555 1_555
H20 C22 1_555 1_555
C23 C22 1_555 1_555
C24 C19 1_555 1_555
C25 C24 1_555 1_555
H21 C25 1_555 1_555
C26 C23 1_555 1_555
C27 C26 1_555 1_555
H22 C27 1_555 1_555
C28 C27 1_555 1_555
C29 C28 1_555 1_555
H23 C29 1_555 1_555
H24 C29 1_555 1_555
H25 C29 1_555 1_555
C30 C25 1_555 1_555
H26 C30 1_555 1_555
H27 C30 1_555 1_555
C31 C30 1_555 1_555
C32 C31 1_555 1_555
H28 C32 1_555 1_555
C33 C32 1_555 1_555
H29 C33 1_555 1_555
C34 C33 1_555 1_555
H30 C34 1_555 1_555
C35 C34 1_555 1_555
H31 C35 1_555 1_555
C36 C31 1_555 1_555
H32 C36 1_555 1_555
N3 C25 1_555 1_555
N4 C28 1_555 1_555
C5 C6 1_555 1_555
C8 C9 1_555 1_555
C9 N1 1_555 1_555
C17 C18 1_555 1_555
N1 N2 1_555 1_555
C23 C24 1_555 1_555
C26 N3 1_555 1_555
C35 C36 1_555 1_555
N3 N4 1_555 1_555

#END
