
#######################################################################
#
#                 Cambridge Crystallographic Data Centre
#                                CCDC 
#
#######################################################################
#
# If this CIF has been generated from an entry in the Cambridge 
# Structural Database, then it will include bibliographic, chemical, 
# crystal, experimental, refinement or atomic coordinate data resulting 
# from the CCDC's data processing and validation procedures.
#
#######################################################################

data_KONMOR
_chemical_formula_moiety         'C17 H16 N2 S1'
_chemical_name_systematic        
2,6-dimethyl-8-(2-thienylmethyl)-8H-pyrazolo[5,1-a]isoindole
_symmetry_cell_setting           triclinic
_symmetry_space_group_name_H-M   'P -1'
_symmetry_Int_Tables_number      2
_space_group_name_Hall           '-P 1'
loop_
_symmetry_equiv_pos_site_id
_symmetry_equiv_pos_as_xyz
1 x,y,z
2 -x,-y,-z
_cell_length_a                   8.779(2)
_cell_length_b                   9.460(2)
_cell_length_c                   9.713(2)
_cell_angle_alpha                81.819(3)
_cell_angle_beta                 67.038(3)
_cell_angle_gamma                80.927(3)
_cell_volume                     730.548
_exptl_crystal_description       block
_cell_formula_units_Z            2
loop_
_atom_site_label
_atom_site_type_symbol
_atom_site_fract_x
_atom_site_fract_y
_atom_site_fract_z
C1 C 0.8075(9) 0.4353(8) 0.1801(7)
H1 H 0.8363 0.5296 0.1777
H2 H 0.7359 0.4400 0.1256
H3 H 0.9069 0.3723 0.1348
C2 C 0.7200(7) 0.3796(6) 0.3379(6)
C3 C 0.7325(7) 0.4413(6) 0.4546(6)
H4 H 0.7950 0.5177 0.4355
C4 C 0.6492(6) 0.3856(5) 0.5989(6)
C5 C 0.5502(7) 0.2699(6) 0.6337(7)
C6 C 0.5339(8) 0.2097(7) 0.5189(8)
H5 H 0.4696 0.1348 0.5369
C7 C 0.6218(8) 0.2701(7) 0.3724(7)
H6 H 0.6124 0.2327 0.2929
C8 C 0.6472(6) 0.4302(5) 0.7439(5)
H7 H 0.5917 0.5283 0.7587
C9 C 0.4835(7) 0.2380(6) 0.7932(7)
C10 C 0.3855(8) 0.2065(7) 1.0417(7)
C11 C 0.3808(8) 0.1549(7) 0.9173(8)
H8 H 0.3226 0.0814 0.9157
C12 C 0.3038(11) 0.1573(9) 1.2025(8)
H9 H 0.2833 0.0590 1.2119
H10 H 0.2002 0.2162 1.2455
H11 H 0.3751 0.1650 1.2544
C13 C 0.8173(6) 0.4209(5) 0.7534(6)
H12 H 0.8810 0.4905 0.6781
H13 H 0.8023 0.4478 0.8510
C14 C 0.9166(6) 0.2759(5) 0.7314(5)
C15 C 1.0134(5) 0.2142(4) 0.5707(4)
H14 H 1.0214 0.2533 0.4750
C16 C 1.0916(8) 0.0650(7) 0.6268(9)
H15 H 1.1626 -0.0004 0.5604
C17 C 1.0498(11) 0.0400(8) 0.7719(9)
H16 H 1.0901 -0.0445 0.8143
N1 N 0.5403(5) 0.3292(5) 0.8533(5)
N2 N 0.4841(6) 0.3125(5) 1.0026(5)
S1 S 0.9257(5) 0.1616(3) 0.8738(3)
loop_
_geom_bond_atom_site_label_1
_geom_bond_atom_site_label_2
_geom_bond_site_symmetry_1
_geom_bond_site_symmetry_2
C1 H1 1_555 1_555
H2 C1 1_555 1_555
H3 C1 1_555 1_555
C2 C1 1_555 1_555
C3 C2 1_555 1_555
H4 C3 1_555 1_555
C4 C3 1_555 1_555
C5 C4 1_555 1_555
C6 C5 1_555 1_555
H5 C6 1_555 1_555
C7 C2 1_555 1_555
H6 C7 1_555 1_555
C8 C4 1_555 1_555
H7 C8 1_555 1_555
C9 C5 1_555 1_555
C10 C11 1_555 1_555
C11 C9 1_555 1_555
H8 C11 1_555 1_555
C12 C10 1_555 1_555
H9 C12 1_555 1_555
H10 C12 1_555 1_555
H11 C12 1_555 1_555
C13 C8 1_555 1_555
H12 C13 1_555 1_555
H13 C13 1_555 1_555
C14 C13 1_555 1_555
C15 C14 1_555 1_555
H14 C15 1_555 1_555
C16 C15 1_555 1_555
H15 C16 1_555 1_555
C17 C16 1_555 1_555
H16 C17 1_555 1_555
N1 C8 1_555 1_555
N2 C10 1_555 1_555
S1 C14 1_555 1_555
C6 C7 1_555 1_555
C9 N1 1_555 1_555
C17 S1 1_555 1_555
N1 N2 1_555 1_555

#END
