
#######################################################################
#
#                 Cambridge Crystallographic Data Centre
#                                CCDC 
#
#######################################################################
#
# If this CIF has been generated from an entry in the Cambridge 
# Structural Database, then it will include bibliographic, chemical, 
# crystal, experimental, refinement or atomic coordinate data resulting 
# from the CCDC's data processing and validation procedures.
#
#######################################################################

data_KONNEI
_chemical_formula_moiety         'C28 H35 N3 O4,C1 H4 O1'
_chemical_name_systematic        
"4,4,7',7',11,14-hexamethyl-7',8'-dihydro-2'H,13H-spiro[9,14-diazatetracyclo[5.5.2.0^1,9^.0^3,7^]tetradecane-5,3'-pyrano[2,3-g]indole]-2',9',13(1'H)-trione methanol solvate"
_symmetry_cell_setting           orthorhombic
_symmetry_space_group_name_H-M   'P 21 21 21'
_symmetry_Int_Tables_number      19
_space_group_name_Hall           'P 2ac 2ab'
loop_
_symmetry_equiv_pos_site_id
_symmetry_equiv_pos_as_xyz
1 x,y,z
2 1/2-x,-y,1/2+z
3 1/2+x,1/2-y,-z
4 -x,1/2+y,1/2-z
_cell_length_a                   10.99325(15)
_cell_length_b                   12.83816(15)
_cell_length_c                   18.6918(2)
_cell_angle_alpha                90
_cell_angle_beta                 90
_cell_angle_gamma                90
_cell_volume                     2638.03
_exptl_crystal_colour            colorless
_exptl_crystal_description       block
_cell_formula_units_Z            4
loop_
_atom_site_label
_atom_site_type_symbol
_atom_site_fract_x
_atom_site_fract_y
_atom_site_fract_z
N1 N 0.16832(10) 0.35141(10) 0.20807(6)
H1 H 0.2045(16) 0.4060(15) 0.1898(9)
C1 C 0.16973(12) 0.33471(11) 0.28020(7)
C2 C 0.08785(12) 0.24003(11) 0.29706(7)
C3 C -0.06031(13) 0.15312(12) 0.20270(8)
H2 H -0.1009 0.1105 0.2367
C4 C -0.09265(13) 0.14803(12) 0.13075(8)
H3 H -0.1551 0.1018 0.1158
C5 C -0.03390(13) 0.21025(11) 0.08094(7)
C6 C 0.05589(13) 0.28295(11) 0.10165(8)
C7 C 0.08589(12) 0.28525(11) 0.17429(8)
C8 C 0.03108(12) 0.22036(11) 0.22489(7)
C9 C 0.00049(12) 0.26976(11) 0.35942(7)
H4 H -0.0078 0.3464 0.3627
H5 H -0.0811 0.2394 0.3513
C10 C 0.05640(12) 0.22597(10) 0.42867(7)
C11 C -0.02956(12) 0.14627(11) 0.46328(7)
H6 H -0.1027 0.1821 0.4819
H7 H -0.0560 0.0947 0.4271
N2 N 0.03340(10) 0.09314(9) 0.52181(6)
C12 C -0.02327(13) 0.09872(11) 0.59240(8)
H8 H -0.0954 0.0527 0.5950
H9 H -0.0485 0.1709 0.6036
C13 C 0.07677(14) 0.06168(11) 0.64393(8)
H10 H 0.0665 -0.0147 0.6524
C14 C 0.19641(14) 0.07958(12) 0.60132(8)
H11 H 0.2534 0.1237 0.6289
H12 H 0.2366 0.0124 0.5906
C15 C 0.15800(12) 0.13407(11) 0.53253(7)
C16 C 0.07218(17) 0.11768(13) 0.71553(8)
H13 H 0.0837 0.1926 0.7080
H14 H 0.1369 0.0911 0.7466
H15 H -0.0070 0.1055 0.7381
C17 C 0.14806(12) 0.25338(11) 0.54222(7)
N3 N 0.08647(11) 0.29909(9) 0.48805(6)
C18 C 0.22951(13) 0.10968(11) 0.46448(7)
H16 H 0.2184 0.0358 0.4509
H17 H 0.3173 0.1226 0.4722
C19 C 0.18056(12) 0.18120(10) 0.40552(7)
H18 H 0.2372 0.2421 0.4044
C20 C 0.16738(12) 0.14652(11) 0.32707(7)
C21 C 0.29257(13) 0.13947(13) 0.29082(8)
H19 H 0.3376 0.2042 0.2991
H20 H 0.2818 0.1289 0.2393
H21 H 0.3381 0.0808 0.3110
C22 C 0.10367(15) 0.04090(11) 0.31772(8)
H22 H 0.1468 -0.0122 0.3456
H23 H 0.1041 0.0214 0.2670
H24 H 0.0195 0.0461 0.3346
C23 C 0.10919(13) 0.35430(11) 0.04891(8)
C24 C 0.05951(15) 0.34412(12) -0.02571(8)
H25 H 0.1240 0.3636 -0.0602
H26 H -0.0084 0.3940 -0.0317
C25 C 0.01416(14) 0.23520(12) -0.04385(8)
C26 C 0.11840(16) 0.15752(13) -0.04882(10)
H27 H 0.1620 0.1553 -0.0031
H28 H 0.1744 0.1790 -0.0868
H29 H 0.0859 0.0882 -0.0597
C27 C -0.06154(17) 0.23471(14) -0.11191(8)
H30 H -0.0914 0.1640 -0.1211
H31 H -0.0113 0.2577 -0.1522
H32 H -0.1308 0.2821 -0.1063
C28 C 0.08230(15) 0.41235(11) 0.48168(9)
H33 H 0.1077 0.4440 0.5270
H34 H -0.0009 0.4343 0.4704
H35 H 0.1373 0.4348 0.4434
O1 O 0.22486(10) 0.38775(8) 0.32346(5)
O2 O 0.18965(9) 0.30006(8) 0.59435(5)
O3 O -0.07018(9) 0.20039(9) 0.01151(5)
O4 O 0.18421(10) 0.42071(8) 0.06474(6)
C29 C 0.35685(14) 0.58921(13) 0.24434(9)
H36 H 0.3192 0.6574 0.2524
H37 H 0.4430 0.5986 0.2325
H38 H 0.3496 0.5469 0.2878
O5 O 0.29750(14) 0.53841(10) 0.18723(7)
H39 H 0.294(2) 0.576(2) 0.1532(14)
loop_
_geom_bond_atom_site_label_1
_geom_bond_atom_site_label_2
_geom_bond_site_symmetry_1
_geom_bond_site_symmetry_2
N1 H1 1_555 1_555
C1 N1 1_555 1_555
C2 C1 1_555 1_555
C3 H2 1_555 1_555
C4 C3 1_555 1_555
H3 C4 1_555 1_555
C5 C4 1_555 1_555
C6 C5 1_555 1_555
C7 N1 1_555 1_555
C8 C2 1_555 1_555
C9 C2 1_555 1_555
H4 C9 1_555 1_555
H5 C9 1_555 1_555
C10 C9 1_555 1_555
C11 C10 1_555 1_555
H6 C11 1_555 1_555
H7 C11 1_555 1_555
N2 C11 1_555 1_555
C12 N2 1_555 1_555
H8 C12 1_555 1_555
H9 C12 1_555 1_555
C13 C12 1_555 1_555
H10 C13 1_555 1_555
C14 C13 1_555 1_555
H11 C14 1_555 1_555
H12 C14 1_555 1_555
C15 N2 1_555 1_555
C16 C13 1_555 1_555
H13 C16 1_555 1_555
H14 C16 1_555 1_555
H15 C16 1_555 1_555
C17 C15 1_555 1_555
N3 C10 1_555 1_555
C18 C15 1_555 1_555
H16 C18 1_555 1_555
H17 C18 1_555 1_555
C19 C10 1_555 1_555
H18 C19 1_555 1_555
C20 C2 1_555 1_555
C21 C20 1_555 1_555
H19 C21 1_555 1_555
H20 C21 1_555 1_555
H21 C21 1_555 1_555
C22 C20 1_555 1_555
H22 C22 1_555 1_555
H23 C22 1_555 1_555
H24 C22 1_555 1_555
C23 C6 1_555 1_555
C24 C23 1_555 1_555
H25 C24 1_555 1_555
H26 C24 1_555 1_555
C25 C24 1_555 1_555
C26 C25 1_555 1_555
H27 C26 1_555 1_555
H28 C26 1_555 1_555
H29 C26 1_555 1_555
C27 C25 1_555 1_555
H30 C27 1_555 1_555
H31 C27 1_555 1_555
H32 C27 1_555 1_555
C28 N3 1_555 1_555
H33 C28 1_555 1_555
H34 C28 1_555 1_555
H35 C28 1_555 1_555
O1 C1 1_555 1_555
O2 C17 1_555 1_555
O3 C5 1_555 1_555
O4 C23 1_555 1_555
C29 H36 1_555 1_555
H37 C29 1_555 1_555
H38 C29 1_555 1_555
O5 C29 1_555 1_555
H39 O5 1_555 1_555
C3 C8 1_555 1_555
C6 C7 1_555 1_555
C7 C8 1_555 1_555
C14 C15 1_555 1_555
C17 N3 1_555 1_555
C18 C19 1_555 1_555
C19 C20 1_555 1_555
C25 O3 1_555 1_555

#END
