
#######################################################################
#
#                 Cambridge Crystallographic Data Centre
#                                CCDC 
#
#######################################################################
#
# If this CIF has been generated from an entry in the Cambridge 
# Structural Database, then it will include bibliographic, chemical, 
# crystal, experimental, refinement or atomic coordinate data resulting 
# from the CCDC's data processing and validation procedures.
#
#######################################################################

data_KONWIV
_chemical_name_common            
'Ethyl 4-(2-bromo-4-fluorophenyl)-6-(morpholinomethyl)-2-(thiazol-2-yl)-1,4-dihydropyrimidine-5-carboxylate'
_chemical_formula_moiety         'C21 H22 Br1 F1 N4 O3 S1'
_chemical_name_systematic        
'ethyl 4-(2-bromo-4-fluorophenyl)-6-(morpholin-4-ylmethyl)-2-(1,3-thiazol-2-yl)-1,4-dihydropyrimidine-5-carboxylate'
_chemical_properties_biological  'anti-HBV (hepatitis B) activity'
_symmetry_cell_setting           monoclinic
_symmetry_space_group_name_H-M   'C 2/c'
_symmetry_Int_Tables_number      15
_space_group_name_Hall           '-C 2yn'
loop_
_symmetry_equiv_pos_site_id
_symmetry_equiv_pos_as_xyz
1 x,y,z
2 -x,y,1/2-z
3 1/2+x,1/2+y,z
4 1/2-x,1/2+y,1/2-z
5 -x,-y,-z
6 x,-y,1/2+z
7 1/2-x,1/2-y,-z
8 1/2+x,1/2-y,1/2+z
_cell_length_a                   17.8031(13)
_cell_length_b                   12.8788(10)
_cell_length_c                   19.6644(14)
_cell_angle_alpha                90
_cell_angle_beta                 94.1910(10)
_cell_angle_gamma                90
_cell_volume                     4496.65
_exptl_crystal_colour            'light yellow'
_exptl_crystal_description       prism
_cell_formula_units_Z            8
_chemical_properties_physical    Oxygen-sensitive
_exptl_crystal_recrystallization_method ethanol
loop_
_atom_site_label
_atom_site_type_symbol
_atom_site_fract_x
_atom_site_fract_y
_atom_site_fract_z
Br1 Br 0.21712(3) 0.92210(6) 0.23275(3)
S1 S 0.15192(6) 0.54383(11) 0.42524(7)
C1 C 0.2839(2) 0.6615(4) 0.4330(2)
C2 C 0.4001(2) 0.7535(4) 0.4534(2)
C3 C 0.3764(2) 0.8229(4) 0.4052(2)
C4 C 0.3044(2) 0.8027(4) 0.3609(2)
H1 H 0.2759 0.8679 0.3575
C5 C 0.4216(3) 0.9133(4) 0.3923(2)
C6 C 0.3223(2) 0.7714(4) 0.2891(2)
C7 C 0.3748(3) 0.6944(4) 0.2817(3)
H2 H 0.3978 0.6644 0.3209
C8 C 0.3953(3) 0.6590(5) 0.2191(3)
H3 H 0.4309 0.6068 0.2156
C9 C 0.3602(3) 0.7051(6) 0.1626(3)
C10 C 0.3077(3) 0.7821(5) 0.1663(2)
H4 H 0.2850 0.8122 0.1270
C11 C 0.2893(2) 0.8136(4) 0.2302(2)
C12 C 0.2409(2) 0.5740(4) 0.4583(2)
C13 C 0.1504(3) 0.4449(4) 0.4810(3)
H5 H 0.1102 0.3996 0.4843
C14 C 0.2149(3) 0.4404(5) 0.5198(3)
H6 H 0.2236 0.3903 0.5535
C15 C 0.4733(2) 0.7544(4) 0.4984(2)
H7 H 0.5155 0.7497 0.4699
H8 H 0.4776 0.8196 0.5231
C16 C 0.4461(3) 0.6937(4) 0.6114(2)
H9 H 0.3949 0.7185 0.6029
H10 H 0.4757 0.7487 0.6340
C17 C 0.4468(3) 0.6005(5) 0.6564(3)
H11 H 0.4280 0.6197 0.6998
H12 H 0.4133 0.5483 0.6355
C18 C 0.5508(3) 0.5346(5) 0.6058(3)
H13 H 0.5208 0.4808 0.5824
H14 H 0.6014 0.5079 0.6150
C19 C 0.5532(2) 0.6276(4) 0.5602(2)
H15 H 0.5856 0.6804 0.5819
H16 H 0.5736 0.6082 0.5176
C20 C 0.4230(4) 1.0692(5) 0.3283(3)
H17 H 0.4721 1.0528 0.3128
H18 H 0.4305 1.1123 0.3687
C21 C 0.3799(4) 1.1257(7) 0.2760(4)
H19 H 0.3754 1.0851 0.2350
H20 H 0.4048 1.1900 0.2674
H21 H 0.3306 1.1399 0.2906
N1 N 0.25520(19) 0.7231(3) 0.38763(18)
N2 N 0.35623(18) 0.6676(3) 0.46331(18)
H22 H 0.3739 0.6174 0.4885
N3 N 0.2674(2) 0.5140(4) 0.5070(2)
N4 N 0.47708(18) 0.6684(3) 0.54705(18)
O1 O 0.38574(19) 0.9746(3) 0.34547(16)
O2 O 0.4837(2) 0.9342(3) 0.4179(2)
O3 O 0.5200(2) 0.5576(3) 0.66813(17)
F1 F 0.3785(2) 0.6737(4) 0.09943(16)
loop_
_geom_bond_atom_site_label_1
_geom_bond_atom_site_label_2
_geom_bond_site_symmetry_1
_geom_bond_site_symmetry_2
Br1 C11 1_555 1_555
S1 C12 1_555 1_555
C1 C12 1_555 1_555
C2 C3 1_555 1_555
C3 C4 1_555 1_555
C4 H1 1_555 1_555
C5 C3 1_555 1_555
C6 C4 1_555 1_555
C7 C6 1_555 1_555
H2 C7 1_555 1_555
C8 C7 1_555 1_555
H3 C8 1_555 1_555
C9 C8 1_555 1_555
C10 C9 1_555 1_555
H4 C10 1_555 1_555
C11 C6 1_555 1_555
C12 N3 1_555 1_555
C13 S1 1_555 1_555
H5 C13 1_555 1_555
C14 C13 1_555 1_555
H6 C14 1_555 1_555
C15 C2 1_555 1_555
H7 C15 1_555 1_555
H8 C15 1_555 1_555
C16 H9 1_555 1_555
H10 C16 1_555 1_555
C17 C16 1_555 1_555
H11 C17 1_555 1_555
H12 C17 1_555 1_555
C18 H13 1_555 1_555
H14 C18 1_555 1_555
C19 C18 1_555 1_555
H15 C19 1_555 1_555
H16 C19 1_555 1_555
C20 H17 1_555 1_555
H18 C20 1_555 1_555
C21 C20 1_555 1_555
H19 C21 1_555 1_555
H20 C21 1_555 1_555
H21 C21 1_555 1_555
N1 C1 1_555 1_555
N2 C1 1_555 1_555
H22 N2 1_555 1_555
N3 C14 1_555 1_555
N4 C15 1_555 1_555
O1 C5 1_555 1_555
O2 C5 1_555 1_555
O3 C17 1_555 1_555
F1 C9 1_555 1_555
C2 N2 1_555 1_555
C4 N1 1_555 1_555
C10 C11 1_555 1_555
C16 N4 1_555 1_555
C18 O3 1_555 1_555
C19 N4 1_555 1_555
C20 O1 1_555 1_555

#END
