
#######################################################################
#
#                 Cambridge Crystallographic Data Centre
#                                CCDC 
#
#######################################################################
#
# If this CIF has been generated from an entry in the Cambridge 
# Structural Database, then it will include bibliographic, chemical, 
# crystal, experimental, refinement or atomic coordinate data resulting 
# from the CCDC's data processing and validation procedures.
#
#######################################################################

data_KOPJAC
_chemical_formula_moiety         'C24 H19 Br2 F3 N2 O7,C4 H8 O2'
_chemical_name_systematic        
'ethyl 7,11-bis(4-bromophenyl)-9-hydroxy-1,3,5-trioxo-9-(trifluoromethyl)-8-oxa-2,4-diazaspiro[5.5]undecane-10-carboxylate ethyl acetate solvate'
_symmetry_cell_setting           triclinic
_symmetry_space_group_name_H-M   'P -1'
_symmetry_Int_Tables_number      2
_space_group_name_Hall           '-P 1'
loop_
_symmetry_equiv_pos_site_id
_symmetry_equiv_pos_as_xyz
1 x,y,z
2 -x,-y,-z
_cell_length_a                   11.7433(5)
_cell_length_b                   12.0617(5)
_cell_length_c                   13.2191(6)
_cell_angle_alpha                105.9950(10)
_cell_angle_beta                 90.8350(10)
_cell_angle_gamma                117.2590(10)
_cell_volume                     1578.17
_exptl_crystal_colour            colorless
_exptl_crystal_description       block
_cell_formula_units_Z            2
loop_
_atom_site_label
_atom_site_type_symbol
_atom_site_fract_x
_atom_site_fract_y
_atom_site_fract_z
Br1 Br 0.54600(4) 0.76254(4) 0.62629(5)
Br2 Br -0.31427(6) 0.05523(7) 1.10796(4)
F1 F -0.2942(2) 0.0623(3) 0.34710(16)
F2 F -0.41245(19) -0.0492(2) 0.44263(18)
F3 F -0.3371(2) 0.1599(2) 0.49121(19)
N1 N 0.1460(3) 0.3224(3) 0.8775(2)
H1 H 0.2098 0.3251 0.9156
N2 N 0.0077(3) 0.4085(3) 0.8641(2)
H2 H -0.0223 0.4619 0.8953
O1 O -0.0093(2) 0.3051(2) 0.37073(18)
O2 O 0.0031(2) 0.1224(2) 0.35569(18)
O3 O -0.1038(2) 0.3709(2) 0.70896(17)
O4 O 0.1598(2) 0.1759(2) 0.73858(17)
O5 O 0.1175(3) 0.4505(3) 1.02384(19)
O6 O -0.1709(2) -0.02719(19) 0.46547(16)
H3 H -0.1167 -0.0118 0.4235
O7 O -0.21762(19) 0.08493(19) 0.61058(15)
C1 C -0.1724(3) 0.0836(3) 0.7849(2)
C2 C -0.1296(4) 0.0291(4) 0.8459(3)
H4 H -0.0705 -0.0020 0.8220
C3 C -0.1729(4) 0.0198(5) 0.9418(3)
H5 H -0.1440 -0.0178 0.9837
C4 C -0.2575(4) 0.0654(4) 0.9752(3)
C5 C -0.3033(4) 0.1165(4) 0.9155(3)
H6 H -0.3638 0.1456 0.9393
C6 C -0.2605(3) 0.1254(4) 0.8197(3)
H7 H -0.2922 0.1607 0.7774
C7 C 0.1664(3) 0.3756(3) 0.6020(2)
C8 C 0.1645(3) 0.4935(3) 0.6162(3)
H8 H 0.0845 0.4951 0.6204
C9 C 0.2769(4) 0.6081(3) 0.6245(3)
H9 H 0.2747 0.6883 0.6353
C10 C 0.3923(3) 0.6051(3) 0.6168(3)
C11 C 0.3977(3) 0.4908(4) 0.6024(3)
H10 H 0.4779 0.4898 0.5975
C12 C 0.2842(3) 0.3762(3) 0.5950(3)
H11 H 0.2875 0.2967 0.5850
C13 C -0.1867(3) 0.0825(3) 0.5080(2)
C14 C -0.0688(3) 0.2140(3) 0.5104(2)
H12 H -0.0931 0.2856 0.5307
C15 C 0.0456(3) 0.2473(3) 0.5937(2)
H13 H 0.0699 0.1762 0.5677
C16 C 0.0035(3) 0.2415(3) 0.7043(2)
C17 C -0.1180(3) 0.1017(3) 0.6847(2)
H14 H -0.0921 0.0326 0.6542
C18 C 0.1105(3) 0.2441(3) 0.7730(2)
C19 C 0.0911(3) 0.3970(3) 0.9281(3)
C20 C -0.0347(3) 0.3462(3) 0.7563(2)
C21 C -0.3100(3) 0.0632(4) 0.4476(3)
C22 C -0.0218(3) 0.2068(3) 0.4033(2)
C23 C 0.0439(5) 0.3116(5) 0.2713(3)
H15 H 0.0078 0.2217 0.2201
H16 H 0.0180 0.3632 0.2390
C24 C 0.1839(6) 0.3720(7) 0.2917(5)
H17 H 0.2175 0.3754 0.2245
H18 H 0.2095 0.3201 0.3227
H19 H 0.2197 0.4614 0.3416
O8 O 0.6525(5) 0.6836(5) 0.0051(3)
O9 O 0.4787(4) 0.6875(4) 0.0638(4)
C25 C 0.4989(7) 0.6859(7) -0.1106(5)
H20 H 0.5560 0.6818 -0.1632
H21 H 0.4935 0.7671 -0.0982
H22 H 0.4120 0.6099 -0.1376
C26 C 0.5521(6) 0.6839(5) -0.0089(5)
C27 C 0.5273(7) 0.6882(10) 0.1661(6)
H23 H 0.5521 0.6180 0.1545
H24 H 0.6057 0.7737 0.2013
C28 C 0.4304(7) 0.6675(9) 0.2330(7)
H25 H 0.4648 0.6699 0.3019
H26 H 0.3540 0.5816 0.1990
H27 H 0.4057 0.7368 0.2440
loop_
_geom_bond_atom_site_label_1
_geom_bond_atom_site_label_2
_geom_bond_site_symmetry_1
_geom_bond_site_symmetry_2
Br1 C10 1_555 1_555
Br2 C4 1_555 1_555
F1 C21 1_555 1_555
F2 C21 1_555 1_555
F3 C21 1_555 1_555
N1 H1 1_555 1_555
N2 H2 1_555 1_555
O1 C22 1_555 1_555
O2 C22 1_555 1_555
O3 C20 1_555 1_555
O4 C18 1_555 1_555
O5 C19 1_555 1_555
O6 H3 1_555 1_555
O7 C13 1_555 1_555
C1 C2 1_555 1_555
C2 H4 1_555 1_555
C3 C2 1_555 1_555
H5 C3 1_555 1_555
C4 C3 1_555 1_555
C5 C4 1_555 1_555
H6 C5 1_555 1_555
C6 C1 1_555 1_555
H7 C6 1_555 1_555
C7 C8 1_555 1_555
C8 H8 1_555 1_555
C9 C8 1_555 1_555
H9 C9 1_555 1_555
C10 C9 1_555 1_555
C11 C10 1_555 1_555
H10 C11 1_555 1_555
C12 C7 1_555 1_555
H11 C12 1_555 1_555
C13 O6 1_555 1_555
C14 C13 1_555 1_555
H12 C14 1_555 1_555
C15 C7 1_555 1_555
H13 C15 1_555 1_555
C16 C15 1_555 1_555
C17 O7 1_555 1_555
H14 C17 1_555 1_555
C18 N1 1_555 1_555
C19 N1 1_555 1_555
C20 N2 1_555 1_555
C21 C13 1_555 1_555
C22 C14 1_555 1_555
C23 O1 1_555 1_555
H15 C23 1_555 1_555
H16 C23 1_555 1_555
C24 C23 1_555 1_555
H17 C24 1_555 1_555
H18 C24 1_555 1_555
H19 C24 1_555 1_555
O8 C26 1_555 1_555
O9 C26 1_555 1_555
C25 H20 1_555 1_555
H21 C25 1_555 1_555
H22 C25 1_555 1_555
C26 C25 1_555 1_555
C27 O9 1_555 1_555
H23 C27 1_555 1_555
H24 C27 1_555 1_555
C28 C27 1_555 1_555
H25 C28 1_555 1_555
H26 C28 1_555 1_555
H27 C28 1_555 1_555
N2 C19 1_555 1_555
C1 C17 1_555 1_555
C5 C6 1_555 1_555
C11 C12 1_555 1_555
C14 C15 1_555 1_555
C16 C17 1_555 1_555
C16 C18 1_555 1_555
C16 C20 1_555 1_555

#END
