
#######################################################################
#
#                 Cambridge Crystallographic Data Centre
#                                CCDC 
#
#######################################################################
#
# If this CIF has been generated from an entry in the Cambridge 
# Structural Database, then it will include bibliographic, chemical, 
# crystal, experimental, refinement or atomic coordinate data resulting 
# from the CCDC's data processing and validation procedures.
#
#######################################################################

data_KOPKUX
_chemical_formula_moiety         'C29 H24 N2 O6'
_chemical_name_systematic        
'dimethyl 10-benzyl-1-(4-methoxyphenyl)-4-oxo-1,4-dihydropyrimido[1,2-a]indole-2,3-dicarboxylate'
_symmetry_cell_setting           triclinic
_symmetry_space_group_name_H-M   'P -1'
_symmetry_Int_Tables_number      2
_space_group_name_Hall           '-P 1'
loop_
_symmetry_equiv_pos_site_id
_symmetry_equiv_pos_as_xyz
1 x,y,z
2 -x,-y,-z
_cell_length_a                   9.6565(7)
_cell_length_b                   11.9956(7)
_cell_length_c                   12.1963(9)
_cell_angle_alpha                64.135(6)
_cell_angle_beta                 77.913(6)
_cell_angle_gamma                86.070(5)
_cell_volume                     1242.64
_exptl_crystal_colour            yellow
_exptl_crystal_description       block
_cell_formula_units_Z            2
loop_
_atom_site_label
_atom_site_type_symbol
_atom_site_fract_x
_atom_site_fract_y
_atom_site_fract_z
O1 O 0.18202(18) 0.92890(17) 0.28700(14)
O2 O 0.3455(2) 0.8344(2) 0.60824(17)
O3 O 0.16147(18) 0.8995(2) 0.52138(15)
O4 O 0.53954(17) 0.63600(15) 0.60024(14)
O5 O 0.64119(19) 0.82436(14) 0.52327(14)
O6 O 1.06506(19) 0.50601(15) 0.34838(16)
N1 N 0.56858(18) 0.77327(15) 0.31288(14)
N2 N 0.37641(18) 0.85082(15) 0.20785(14)
C1 C 0.4564(3) 0.8625(2) -0.09693(19)
H1 H 0.5354 0.8469 -0.1463
C2 C 0.3327(3) 0.9004(2) -0.1400(2)
H2 H 0.3284 0.9108 -0.2193
C3 C 0.2145(3) 0.9234(2) -0.0670(2)
H3 H 0.1317 0.9473 -0.0980
C4 C 0.2158(3) 0.91183(19) 0.0506(2)
H4 H 0.1364 0.9285 0.0988
C5 C 0.3412(2) 0.87425(18) 0.09337(17)
C6 C 0.4614(2) 0.84754(18) 0.02286(18)
C7 C 0.5723(2) 0.80646(18) 0.09289(18)
C8 C 0.5154(2) 0.80780(18) 0.20469(18)
C9 C 0.2957(2) 0.8795(2) 0.30141(18)
C10 C 0.3612(2) 0.84466(19) 0.40869(17)
C11 C 0.4915(2) 0.79201(18) 0.41001(18)
C12 C 0.7175(2) 0.7769(2) 0.0408(2)
H5 H 0.7796 0.7700 0.0963
H6 H 0.7525 0.8463 -0.0384
C13 C 0.7288(3) 0.6598(2) 0.02103(19)
C14 C 0.6350(3) 0.5620(3) 0.0856(3)
H7 H 0.5564 0.5675 0.1417
C15 C 0.6549(4) 0.4542(3) 0.0691(3)
H8 H 0.5909 0.3877 0.1157
C16 C 0.7662(5) 0.4452(3) -0.0138(4)
H9 H 0.7787 0.3731 -0.0252
C17 C 0.8594(5) 0.5415(4) -0.0803(4)
H10 H 0.9362 0.5359 -0.1380
C18 C 0.8413(4) 0.6492(3) -0.0631(3)
H11 H 0.9064 0.7149 -0.1093
C19 C 0.2902(3) 0.8572(2) 0.52245(19)
C20 C 0.0890(3) 0.9114(4) 0.6328(3)
H12 H -0.0015 0.9477 0.6206
H13 H 0.1450 0.9633 0.6492
H14 H 0.0758 0.8309 0.7020
C21 C 0.5578(2) 0.7411(2) 0.52447(19)
C22 C 0.7087(3) 0.7823(3) 0.6298(3)
H15 H 0.7872 0.7315 0.6200
H16 H 0.6415 0.7348 0.7042
H17 H 0.7421 0.8526 0.6357
C23 C 0.6993(2) 0.70529(18) 0.32446(18)
C24 C 0.8225(2) 0.76280(19) 0.31429(18)
H18 H 0.8220 0.8450 0.3018
C25 C 0.9475(2) 0.6986(2) 0.32254(19)
H19 H 1.0309 0.7372 0.3165
C26 C 0.9474(3) 0.5770(2) 0.33981(19)
C27 C 0.8221(3) 0.5192(2) 0.3507(2)
H20 H 0.8222 0.4372 0.3626
C28 C 0.6979(3) 0.5830(2) 0.3438(2)
H21 H 0.6137 0.5441 0.3522
C29 C 1.1985(3) 0.5661(3) 0.3236(3)
H22 H 1.2142 0.6333 0.2417
H23 H 1.2728 0.5077 0.3287
H24 H 1.1981 0.5976 0.3837
loop_
_geom_bond_atom_site_label_1
_geom_bond_atom_site_label_2
_geom_bond_site_symmetry_1
_geom_bond_site_symmetry_2
O1 C9 1_555 1_555
O2 C19 1_555 1_555
O3 C19 1_555 1_555
O4 C21 1_555 1_555
O5 C21 1_555 1_555
O6 C26 1_555 1_555
N1 C8 1_555 1_555
N2 C5 1_555 1_555
C1 H1 1_555 1_555
C2 C1 1_555 1_555
H2 C2 1_555 1_555
C3 C2 1_555 1_555
H3 C3 1_555 1_555
C4 C3 1_555 1_555
H4 C4 1_555 1_555
C5 C4 1_555 1_555
C6 C1 1_555 1_555
C7 C6 1_555 1_555
C8 N2 1_555 1_555
C9 N2 1_555 1_555
C10 C9 1_555 1_555
C11 N1 1_555 1_555
C12 C7 1_555 1_555
H5 C12 1_555 1_555
H6 C12 1_555 1_555
C13 C12 1_555 1_555
C14 C13 1_555 1_555
H7 C14 1_555 1_555
C15 C14 1_555 1_555
H8 C15 1_555 1_555
C16 C15 1_555 1_555
H9 C16 1_555 1_555
C17 C16 1_555 1_555
H10 C17 1_555 1_555
C18 C13 1_555 1_555
H11 C18 1_555 1_555
C19 C10 1_555 1_555
C20 O3 1_555 1_555
H12 C20 1_555 1_555
H13 C20 1_555 1_555
H14 C20 1_555 1_555
C21 C11 1_555 1_555
C22 O5 1_555 1_555
H15 C22 1_555 1_555
H16 C22 1_555 1_555
H17 C22 1_555 1_555
C23 N1 1_555 1_555
C24 C23 1_555 1_555
H18 C24 1_555 1_555
C25 C24 1_555 1_555
H19 C25 1_555 1_555
C26 C25 1_555 1_555
C27 C26 1_555 1_555
H20 C27 1_555 1_555
C28 C23 1_555 1_555
H21 C28 1_555 1_555
C29 O6 1_555 1_555
H22 C29 1_555 1_555
H23 C29 1_555 1_555
H24 C29 1_555 1_555
C5 C6 1_555 1_555
C7 C8 1_555 1_555
C10 C11 1_555 1_555
C17 C18 1_555 1_555
C27 C28 1_555 1_555

#END
