
#######################################################################
#
#                 Cambridge Crystallographic Data Centre
#                                CCDC 
#
#######################################################################
#
# If this CIF has been generated from an entry in the Cambridge 
# Structural Database, then it will include bibliographic, chemical, 
# crystal, experimental, refinement or atomic coordinate data resulting 
# from the CCDC's data processing and validation procedures.
#
#######################################################################

data_KOPKOR
_chemical_formula_moiety         'C29 H24 N2 O6'
_chemical_name_systematic        
'dimethyl 10-benzylidene-1-(4-methoxyphenyl)-4-oxo-1,4,10,10a-tetrahydropyrimido[1,2-a]indole-2,3-dicarboxylate'
_symmetry_cell_setting           monoclinic
_symmetry_space_group_name_H-M   'P 21/n'
_symmetry_Int_Tables_number      14
_space_group_name_Hall           '-P 2yn'
loop_
_symmetry_equiv_pos_site_id
_symmetry_equiv_pos_as_xyz
1 x,y,z
2 1/2-x,1/2+y,1/2-z
3 -x,-y,-z
4 1/2+x,1/2-y,1/2+z
_cell_length_a                   13.2503(5)
_cell_length_b                   10.2220(6)
_cell_length_c                   19.0567(7)
_cell_angle_alpha                90
_cell_angle_beta                 104.005(4)
_cell_angle_gamma                90
_cell_volume                     2504.4
_exptl_crystal_colour            yellow
_exptl_crystal_description       block
_cell_formula_units_Z            4
loop_
_atom_site_label
_atom_site_type_symbol
_atom_site_fract_x
_atom_site_fract_y
_atom_site_fract_z
O1 O 0.10917(17) 0.0638(2) 0.48846(10)
O2 O 0.37175(14) 0.17301(18) 0.30685(9)
O3 O 0.41214(15) -0.03671(19) 0.29173(10)
O4 O 0.47169(16) 0.1239(3) 0.18416(13)
O5 O 0.41645(17) 0.1030(3) 0.06589(12)
O6 O 0.20773(16) 0.1753(2) 0.02312(9)
N1 N 0.10994(16) 0.0715(2) 0.08858(10)
N2 N 0.18210(14) 0.02912(19) 0.21345(10)
C1 C -0.0185(2) 0.2165(3) 0.00462(13)
H1 H 0.0289 0.2475 -0.0203
C2 C -0.1204(3) 0.2581(3) -0.01258(15)
H2 H -0.1422 0.3182 -0.0498
C3 C -0.1906(3) 0.2121(3) 0.02431(16)
H3 H -0.2588 0.2426 0.0121
C4 C -0.1612(2) 0.1217(3) 0.07901(15)
H4 H -0.2093 0.0907 0.1033
C5 C -0.05963(19) 0.0773(2) 0.09749(12)
C6 C 0.01076(19) 0.1272(2) 0.06021(12)
C7 C 0.10687(18) -0.0180(2) 0.14754(12)
H5 H 0.1272 -0.1057 0.1353
C8 C -0.00647(18) -0.0197(2) 0.15104(12)
C9 C -0.04127(18) -0.1020(2) 0.19391(13)
H6 H 0.0085 -0.1540 0.2241
C10 C -0.1490(9) -0.1200(11) 0.1990(9)
C11 C -0.2286(4) -0.1517(5) 0.1462(3)
H7 H -0.2186 -0.1620 0.0998
C12 C -0.3267(4) -0.1702(6) 0.1571(3)
H8 H -0.3799 -0.1962 0.1181
C13 C -0.3483(13) -0.1528(13) 0.2199(7)
H9 H -0.4166 -0.1478 0.2244
C14 C -0.2614(5) -0.1419(7) 0.2816(3)
H10 H -0.2712 -0.1480 0.3282
C15 C -0.1626(4) -0.1220(6) 0.2707(3)
H11 H -0.1060 -0.1101 0.3099
C16 C 0.16060(17) 0.0338(2) 0.28390(12)
C17 C 0.11461(19) 0.1436(3) 0.30528(13)
H12 H 0.0953 0.2134 0.2735
C18 C 0.0976(2) 0.1492(3) 0.37341(14)
H13 H 0.0659 0.2227 0.3874
C19 C 0.12690(19) 0.0472(3) 0.42131(13)
C20 C 0.1725(2) -0.0627(3) 0.40037(14)
H14 H 0.1922 -0.1321 0.4323
C21 C 0.1884(2) -0.0685(2) 0.33126(13)
H15 H 0.2184 -0.1428 0.3167
C22 C 0.1472(3) -0.0346(5) 0.54129(17)
H16 H 0.1131 -0.1161 0.5257
H17 H 0.1334 -0.0094 0.5866
H18 H 0.2208 -0.0446 0.5472
C23 C 0.27694(18) 0.0570(2) 0.20319(12)
C24 C 0.29354(19) 0.0756(2) 0.13560(13)
C25 C 0.2035(2) 0.1087(3) 0.07564(13)
C26 C 0.36053(18) 0.0740(3) 0.27243(13)
C27 C 0.4935(3) -0.0304(4) 0.35735(18)
H19 H 0.5407 0.0391 0.3537
H20 H 0.5305 -0.1120 0.3645
H21 H 0.4634 -0.0141 0.3976
C28 C 0.4021(2) 0.1012(3) 0.13192(16)
C29 C 0.5221(3) 0.1383(5) 0.0622(2)
H22 H 0.5244 0.1489 0.0126
H23 H 0.5694 0.0703 0.0839
H24 H 0.5418 0.2188 0.0878
H25? H 0.0070 -0.1644 0.2162
C30? C -0.1436(14) -0.1116(17) 0.2125(15)
C31? C -0.1945(6) -0.2330(9) 0.2095(4)
H26? H -0.1613 -0.3074 0.1981
C32? C -0.2938(6) -0.2462(10) 0.2231(5)
H27? H -0.3267 -0.3270 0.2201
C33? C -0.339(2) -0.1373(18) 0.2406(13)
H28? H -0.4055 -0.1435 0.2487
C34? C -0.2915(6) -0.0183(11) 0.2469(5)
H29? H -0.3240 0.0550 0.2603
C35? C -0.1950(6) -0.0082(9) 0.2331(4)
H30? H -0.1628 0.0732 0.2381
loop_
_geom_bond_atom_site_label_1
_geom_bond_atom_site_label_2
_geom_bond_site_symmetry_1
_geom_bond_site_symmetry_2
O1 C19 1_555 1_555
O2 C26 1_555 1_555
O3 C26 1_555 1_555
O4 C28 1_555 1_555
O5 C28 1_555 1_555
O6 C25 1_555 1_555
N1 C6 1_555 1_555
N2 C7 1_555 1_555
C1 H1 1_555 1_555
C2 C1 1_555 1_555
H2 C2 1_555 1_555
C3 C2 1_555 1_555
H3 C3 1_555 1_555
C4 C3 1_555 1_555
H4 C4 1_555 1_555
C5 C4 1_555 1_555
C6 C1 1_555 1_555
C7 N1 1_555 1_555
H5 C7 1_555 1_555
C8 C5 1_555 1_555
C9 C8 1_555 1_555
H6 C9 1_555 1_555
C10 C9 1_555 1_555
C11 C10 1_555 1_555
H7 C11 1_555 1_555
C12 C11 1_555 1_555
H8 C12 1_555 1_555
C13 C12 1_555 1_555
H9 C13 1_555 1_555
C14 C13 1_555 1_555
H10 C14 1_555 1_555
C15 C10 1_555 1_555
H11 C15 1_555 1_555
C16 N2 1_555 1_555
C17 C16 1_555 1_555
H12 C17 1_555 1_555
C18 C17 1_555 1_555
H13 C18 1_555 1_555
C19 C18 1_555 1_555
C20 C19 1_555 1_555
H14 C20 1_555 1_555
C21 C16 1_555 1_555
H15 C21 1_555 1_555
C22 O1 1_555 1_555
H16 C22 1_555 1_555
H17 C22 1_555 1_555
H18 C22 1_555 1_555
C23 N2 1_555 1_555
C24 C23 1_555 1_555
C25 N1 1_555 1_555
C26 C23 1_555 1_555
C27 O3 1_555 1_555
H19 C27 1_555 1_555
H20 C27 1_555 1_555
H21 C27 1_555 1_555
C28 C24 1_555 1_555
C29 O5 1_555 1_555
H22 C29 1_555 1_555
H23 C29 1_555 1_555
H24 C29 1_555 1_555
C5 C6 1_555 1_555
C7 C8 1_555 1_555
C14 C15 1_555 1_555
C20 C21 1_555 1_555
C24 C25 1_555 1_555

#END
