
#######################################################################
#
#                 Cambridge Crystallographic Data Centre
#                                CCDC 
#
#######################################################################
#
# If this CIF has been generated from an entry in the Cambridge 
# Structural Database, then it will include bibliographic, chemical, 
# crystal, experimental, refinement or atomic coordinate data resulting 
# from the CCDC's data processing and validation procedures.
#
#######################################################################

data_KOPLOQ
_chemical_formula_moiety         'C12 H14 Cl4 N2 Si1'
_chemical_name_systematic        Tetrachlorobis(4-methypyridine)silicon
_symmetry_cell_setting           orthorhombic
_symmetry_space_group_name_H-M   'P m n a'
_symmetry_Int_Tables_number      53
_space_group_name_Hall           '-P 2ac 2'
loop_
_symmetry_equiv_pos_site_id
_symmetry_equiv_pos_as_xyz
1 x,y,z
2 1/2+x,y,1/2-z
3 1/2+x,-y,1/2+z
4 -x,y,z
5 -x,-y,-z
6 1/2-x,-y,1/2+z
7 1/2-x,y,1/2-z
8 x,-y,-z
_cell_length_a                   7.17660(10)
_cell_length_b                   7.89110(10)
_cell_length_c                   13.70360(10)
_cell_angle_alpha                90
_cell_angle_beta                 90
_cell_angle_gamma                90
_cell_volume                     776.052
_exptl_crystal_colour            colorless
_exptl_crystal_description       block
_cell_formula_units_Z            2
_exptl_crystal_recrystallization_method chloroform
loop_
_atom_site_label
_atom_site_type_symbol
_atom_site_fract_x
_atom_site_fract_y
_atom_site_fract_z
Si1 Si 0.0000 0.5000 0.5000
Cl1 Cl 0.21877(5) 0.33821(4) 0.43645(2)
N1 N 0.0000 0.64104(17) 0.38019(10)
C1 C 0.0000 0.8127(2) 0.38592(13)
H1 H 0.0000 0.8642 0.4486
C2 C 0.0000 0.9155(2) 0.30441(13)
H2 H 0.0000 1.0352 0.3118
C3 C 0.0000 0.8439(2) 0.21074(13)
C4 C 0.0000 0.9519(2) 0.11990(13)
H3 H 0.0000 0.8795 0.0618
H4 H 0.1106 1.0248 0.1195
C5 C 0.0000 0.6671(2) 0.20496(13)
H7 H 0.0000 0.6129 0.1430
C6 C 0.0000 0.5706(2) 0.28969(12)
H8 H 0.0000 0.4506 0.2842
Cl1C Cl -0.21877(5) 0.33821(4) 0.43645(2)
Cl1D Cl -0.21877(5) 0.66179(4) 0.56355(2)
Cl1G Cl 0.21877(5) 0.66179(4) 0.56355(2)
H4C H -0.1106 1.0248 0.1195
N1D N 0.0000 0.35896(17) 0.61981(10)
C1D C 0.0000 0.1873(2) 0.61408(13)
H1D H 0.0000 0.1358 0.5514
C2D C 0.0000 0.0845(2) 0.69559(13)
H2D H 0.0000 -0.0352 0.6882
C3D C 0.0000 0.1561(2) 0.78926(13)
C4D C 0.0000 0.0481(2) 0.88010(13)
H3D H 0.0000 0.1205 0.9382
H4D H -0.1106 -0.0248 0.8805
H4G H 0.1106 -0.0248 0.8805
C5D C 0.0000 0.3329(2) 0.79504(13)
H7D H 0.0000 0.3871 0.8570
C6D C 0.0000 0.4294(2) 0.71031(12)
H8D H 0.0000 0.5494 0.7158
H5? H 0.0000 1.0722 0.1377
H6? H 0.1083 0.9268 0.0814
loop_
_geom_bond_atom_site_label_1
_geom_bond_atom_site_label_2
_geom_bond_site_symmetry_1
_geom_bond_site_symmetry_2
Si1 Cl1 1_555 1_555
N1 Si1 1_555 1_555
C1 N1 1_555 1_555
H1 C1 1_555 1_555
C2 C1 1_555 1_555
H2 C2 1_555 1_555
C3 C2 1_555 1_555
C4 C3 1_555 1_555
H3 C4 1_555 1_555
H4 C4 1_555 1_555
C5 C3 1_555 1_555
H7 C5 1_555 1_555
C6 N1 1_555 1_555
H8 C6 1_555 1_555
Cl1C Si1 1_555 1_555
Cl1D Si1 1_555 1_555
Cl1G Si1 1_555 1_555
H4C C4 1_555 1_555
N1D Si1 1_555 1_555
C1D N1D 1_555 1_555
H1D C1D 1_555 1_555
C2D C1D 1_555 1_555
H2D C2D 1_555 1_555
C3D C2D 1_555 1_555
C4D C3D 1_555 1_555
H3D C4D 1_555 1_555
H4D C4D 1_555 1_555
H4G C4D 1_555 1_555
C5D C3D 1_555 1_555
H7D C5D 1_555 1_555
C6D N1D 1_555 1_555
H8D C6D 1_555 1_555
C5 C6 1_555 1_555
C5D C6D 1_555 1_555

#END
