
#######################################################################
#
#                 Cambridge Crystallographic Data Centre
#                                CCDC 
#
#######################################################################
#
# If this CIF has been generated from an entry in the Cambridge 
# Structural Database, then it will include bibliographic, chemical, 
# crystal, experimental, refinement or atomic coordinate data resulting 
# from the CCDC's data processing and validation procedures.
#
#######################################################################

data_KOPROW
_chemical_formula_moiety         'C17 H27 N1 O7'
_chemical_name_systematic        
N-5-O-Diacetyl-2,3;6,7-di-O-isopropylidene-1,5-dideoxy-1,5-imino-D-glycero-D-allo-heptitol
_chemical_properties_biological  
'potential wide spectrum of biological activity and promising therapeutic activity'
_symmetry_cell_setting           triclinic
_symmetry_space_group_name_H-M   'P 1'
_symmetry_Int_Tables_number      1
_space_group_name_Hall           'P 1'
loop_
_symmetry_equiv_pos_site_id
_symmetry_equiv_pos_as_xyz
1 x,y,z
_cell_length_a                   7.737(3)
_cell_length_b                   10.840(3)
_cell_length_c                   5.822(2)
_cell_angle_alpha                94.63(2)
_cell_angle_beta                 101.89(3)
_cell_angle_gamma                96.31(2)
_cell_volume                     472.225
_exptl_crystal_colour            colorless
_chemical_melting_point          225-227deg.C
_cell_formula_units_Z            1
loop_
_atom_site_label
_atom_site_type_symbol
_atom_site_fract_x
_atom_site_fract_y
_atom_site_fract_z
N1 N 0.4287 0.4225 0.5150
O1 O 0.3651(7) 0.8069(4) 0.2448(8)
O2 O 0.4418(7) 0.7002(5) 0.5593(8)
O3 O 0.0973(7) 0.2929(4) 0.1210(8)
O4 O 0.1784(7) 0.1976(4) 0.4517(9)
O5 O 0.0982(6) 0.5525(4) 0.0861(8)
O6 O -0.0866(8) 0.6559(6) 0.2575(10)
O7 O 0.6416(7) 0.3695(5) 0.3259(11)
C1 C 0.3094(8) 0.3920(5) 0.6731(9)
C2 C 0.1399(8) 0.3181(6) 0.5330(10)
C3 C 0.0665(7) 0.3776(5) 0.3076(10)
C4 C 0.1664(7) 0.5040(5) 0.3055(9)
C5 C 0.3663(7) 0.4988(5) 0.3242(9)
C6 C 0.4818(7) 0.6270(5) 0.3670(10)
C7 C 0.4537(8) 0.7087(5) 0.1630(10)
C8 C 0.4280(10) 0.8234(6) 0.4971(11)
C9 C 0.2849(14) 0.8777(8) 0.6000(14)
C10 C 0.6071(14) 0.9026(8) 0.5659(18)
C11 C 0.1013(9) 0.1745(6) 0.2038(11)
C12 C 0.2252(14) 0.1068(7) 0.0831(15)
C13 C -0.0914(12) 0.1052(8) 0.1633(17)
C14 C 0.5688(8) 0.3599(6) 0.4964(12)
C15 C 0.6322(10) 0.2793(8) 0.6923(17)
C16 C -0.0297(7) 0.6270(6) 0.0864(11)
C17 C -0.0910(11) 0.6687(10) -0.1508(14)
H1 H 0.27478 0.48000 0.77000
H2 H 0.36952 0.34039 0.80975
H3 H 0.04938 0.30340 0.64506
H4 H -0.07671 0.38314 0.27416
H5 H 0.15494 0.55495 0.47574
H6 H 0.37545 0.44524 0.18955
H7 H 0.60850 0.61430 0.40270
H8 H 0.56245 0.73008 0.11837
H9 H 0.36204 0.65394 0.01273
H10 H 0.27090 0.95430 0.56930
H11 H 0.31957 0.87701 0.79102
H12 H 0.15884 0.81849 0.52874
H13 H 0.62532 0.97139 0.45707
H14 H 0.70970 0.84156 0.56254
H15 H 0.62200 0.94722 0.74469
H16 H 0.23855 0.03457 0.11534
H17 H 0.35606 0.16243 0.13002
H18 H 0.17371 0.10216 -0.10676
H19 H -0.08487 0.03847 0.21378
H20 H -0.15223 0.09187 -0.02477
H21 H -0.17129 0.15931 0.25653
H22 H 0.52015 0.21025 0.69868
H23 H 0.67554 0.33710 0.86098
H24 H 0.74247 0.23260 0.65405
H25 H -0.16870 0.73890 -0.10260
H26 H -0.17174 0.59364 -0.27585
H27 H 0.01978 0.70776 -0.22299
loop_
_geom_bond_atom_site_label_1
_geom_bond_atom_site_label_2
_geom_bond_site_symmetry_1
_geom_bond_site_symmetry_2
N1 C1 1_555 1_555
O1 C7 1_555 1_555
O2 C6 1_555 1_555
O3 C3 1_555 1_555
O4 C2 1_555 1_555
O5 C4 1_555 1_555
O6 C16 1_555 1_555
O7 C14 1_555 1_555
C1 C2 1_555 1_555
C2 C3 1_555 1_555
C3 C4 1_555 1_555
C4 C5 1_555 1_555
C5 N1 1_555 1_555
C6 C5 1_555 1_555
C7 C6 1_555 1_555
C8 O1 1_555 1_555
C9 C8 1_555 1_555
C10 C8 1_555 1_555
C11 O3 1_555 1_555
C12 C11 1_555 1_555
C13 C11 1_555 1_555
C14 N1 1_555 1_555
C15 C14 1_555 1_555
C16 O5 1_555 1_555
C17 C16 1_555 1_555
H1 C1 1_555 1_555
H2 C1 1_555 1_555
H3 C2 1_555 1_555
H4 C3 1_555 1_555
H5 C4 1_555 1_555
H6 C5 1_555 1_555
H7 C6 1_555 1_555
H8 C7 1_555 1_555
H9 C7 1_555 1_555
H10 C9 1_555 1_555
H11 C9 1_555 1_555
H12 C9 1_555 1_555
H13 C10 1_555 1_555
H14 C10 1_555 1_555
H15 C10 1_555 1_555
H16 C12 1_555 1_555
H17 C12 1_555 1_555
H18 C12 1_555 1_555
H19 C13 1_555 1_555
H20 C13 1_555 1_555
H21 C13 1_555 1_555
H22 C15 1_555 1_555
H23 C15 1_555 1_555
H24 C15 1_555 1_555
H25 C17 1_555 1_555
H26 C17 1_555 1_555
H27 C17 1_555 1_555
O2 C8 1_555 1_555
O4 C11 1_555 1_555

#END
