
#######################################################################
#
#                 Cambridge Crystallographic Data Centre
#                                CCDC 
#
#######################################################################
#
# If this CIF has been generated from an entry in the Cambridge 
# Structural Database, then it will include bibliographic, chemical, 
# crystal, experimental, refinement or atomic coordinate data resulting 
# from the CCDC's data processing and validation procedures.
#
#######################################################################

data_KOQTIV
_chemical_formula_moiety         
'C34 H37 N3 P1 S2 1+,C32 H12 B1 F24 1-,2(C1 H2 Cl2)'
_chemical_name_systematic        
"4-(diisopropylamino)-3,5-dimethyl-4-(phenyldisulfanyl)-4,5-dihydro-3H-dinaphtho[2,1-d:1',2'-f][1,3,2]diazaphosphepin-4-ium tetrakis(3,5-bis(trifluoromethyl)phenyl)borate dichloromethane solvate"
_symmetry_cell_setting           triclinic
_symmetry_space_group_name_H-M   'P -1'
_symmetry_Int_Tables_number      2
_space_group_name_Hall           '-P 1'
loop_
_symmetry_equiv_pos_site_id
_symmetry_equiv_pos_as_xyz
1 x,y,z
2 -x,-y,-z
_cell_length_a                   14.370(2)
_cell_length_b                   15.135(2)
_cell_length_c                   19.376(3)
_cell_angle_alpha                76.883(2)
_cell_angle_beta                 70.416(2)
_cell_angle_gamma                65.366(2)
_cell_volume                     3590.19
_exptl_crystal_colour            yellow
_exptl_crystal_description       prism
_cell_formula_units_Z            2
_exptl_crystal_preparation       
'The data crystal was mounted using oil (Parantone-N, Exxon) to a  0.3 mm cryo-loop (Hampton Research) with the (2 2 3) scattering  planes roughly normal to the spindle axis.'
loop_
_atom_site_label
_atom_site_type_symbol
_atom_site_fract_x
_atom_site_fract_y
_atom_site_fract_z
P1 P 0.40520(9) 0.36335(8) 0.18535(6)
S1 S 0.39650(10) 0.24294(9) 0.26269(6)
S2 S 0.43837(10) 0.26377(10) 0.34798(7)
N1 N 0.3343(3) 0.4628(3) 0.2272(2)
N2 N 0.5262(3) 0.3662(3) 0.1531(2)
N3 N 0.3629(3) 0.3572(3) 0.1191(2)
C1 C 0.3143(4) 0.3229(4) 0.4108(3)
C2 C 0.2982(5) 0.4107(4) 0.4328(3)
H1 H 0.3504 0.4394 0.4116
C3 C 0.2067(5) 0.4563(5) 0.4852(3)
H2 H 0.1959 0.5158 0.5008
C4 C 0.1306(5) 0.4142(5) 0.5151(3)
H3 H 0.0674 0.4455 0.5511
C5 C 0.1456(5) 0.3276(6) 0.4932(3)
H4 H 0.0925 0.2999 0.5137
C6 C 0.2385(5) 0.2807(4) 0.4411(3)
H5 H 0.2499 0.2204 0.4265
C7 C 0.3605(4) 0.5494(3) 0.2053(2)
C8 C 0.4553(4) 0.5470(3) 0.2105(2)
C9 C 0.4800(4) 0.6343(3) 0.1842(2)
C10 C 0.5798(4) 0.6364(4) 0.1798(3)
H6 H 0.6331 0.5790 0.1945
C11 C 0.5998(5) 0.7205(4) 0.1545(3)
H7 H 0.6670 0.7206 0.1517
C12 C 0.5230(5) 0.8062(4) 0.1328(4)
H8 H 0.5378 0.8642 0.1161
C13 C 0.4268(5) 0.8069(4) 0.1354(3)
H9 H 0.3751 0.8656 0.1204
C14 C 0.4027(4) 0.7214(3) 0.1601(3)
C15 C 0.3059(4) 0.7192(4) 0.1594(3)
H10 H 0.2540 0.7773 0.1440
C16 C 0.2853(4) 0.6358(3) 0.1801(3)
H11 H 0.2204 0.6355 0.1777
C17 C 0.5718(4) 0.3715(3) 0.2077(3)
C18 C 0.5324(4) 0.4568(3) 0.2390(2)
C19 C 0.5666(4) 0.4569(4) 0.3013(3)
C20 C 0.5208(4) 0.5372(4) 0.3428(3)
H12 H 0.4657 0.5944 0.3297
C21 C 0.5547(5) 0.5339(5) 0.4018(3)
H13 H 0.5228 0.5887 0.4294
C22 C 0.6359(5) 0.4507(6) 0.4218(4)
H14 H 0.6599 0.4497 0.4622
C23 C 0.6805(5) 0.3715(5) 0.3838(3)
H15 H 0.7349 0.3150 0.3984
C24 C 0.6476(4) 0.3713(4) 0.3229(3)
C25 C 0.6916(4) 0.2886(4) 0.2835(3)
H16 H 0.7487 0.2329 0.2958
C26 C 0.6539(4) 0.2874(4) 0.2290(3)
H17 H 0.6823 0.2301 0.2047
C27 C 0.6028(4) 0.3083(4) 0.0910(3)
H18 H 0.6686 0.3213 0.0757
H19 H 0.5716 0.3269 0.0496
H20 H 0.6188 0.2385 0.1070
C28 C 0.2232(4) 0.4765(4) 0.2707(3)
H21 H 0.2023 0.5160 0.3109
H22 H 0.2183 0.4126 0.2912
H23 H 0.1756 0.5098 0.2387
C29 C 0.3476(4) 0.2718(4) 0.1032(3)
H24 H 0.3286 0.2931 0.0554
C30 C 0.2525(5) 0.2513(5) 0.1583(3)
H25 H 0.1917 0.3131 0.1679
H26 H 0.2707 0.2187 0.2044
H27 H 0.2339 0.2091 0.1380
C31 C 0.4470(5) 0.1819(4) 0.0895(3)
H28 H 0.5027 0.1981 0.0496
H29 H 0.4323 0.1317 0.0755
H30 H 0.4709 0.1572 0.1344
C32 C 0.343(2) 0.4479(10) 0.0648(9)
H31 H 0.3615 0.4959 0.0807
C33 C 0.225(2) 0.4927(13) 0.0693(11)
H32 H 0.2083 0.5564 0.0400
H33 H 0.1831 0.5011 0.1208
H34 H 0.2062 0.4492 0.0502
C34 C 0.412(2) 0.427(2) -0.0137(9)
H35 H 0.3854 0.4835 -0.0483
H36 H 0.4102 0.3691 -0.0259
H37 H 0.4861 0.4165 -0.0173
B1 B 0.0273(4) 0.0396(4) 0.2330(3)
C38 C 0.0787(3) 0.0077(3) 0.1490(2)
C39 C 0.0643(3) -0.0639(3) 0.1232(2)
H45 H 0.0187 -0.0957 0.1553
C40 C 0.1157(4) -0.0897(3) 0.0512(3)
C41 C 0.1866(4) -0.0487(4) 0.0032(3)
H46 H 0.2215 -0.0668 -0.0455
C42 C 0.2051(4) 0.0200(4) 0.0285(3)
C43 C 0.1519(4) 0.0469(3) 0.0993(2)
H47 H 0.1657 0.0942 0.1149
C44 C 0.0966(4) -0.1657(4) 0.0264(3)
F1 F -0.0035(3) -0.1591(3) 0.0507(2)
F2 F 0.1555(3) -0.2564(2) 0.0478(2)
F3 F 0.1221(3) -0.1624(3) -0.04737(19)
C45 C 0.2813(4) 0.0657(4) -0.0199(3)
F4 F 0.3302(9) 0.0392(8) -0.0851(4)
F5 F 0.3667(6) 0.0369(7) 0.0104(4)
F6 F 0.2499(7) 0.1586(5) -0.0164(6)
C46 C -0.0855(4) 0.0253(3) 0.2778(2)
C47 C -0.1579(4) 0.0244(3) 0.2447(3)
H48 H -0.1412 0.0310 0.1925
C48 C -0.2541(4) 0.0143(3) 0.2863(3)
C49 C -0.2821(4) 0.0061(4) 0.3619(3)
H49 H -0.3472 -0.0015 0.3899
C50 C -0.2138(4) 0.0092(4) 0.3962(3)
C51 C -0.1185(4) 0.0188(4) 0.3551(3)
H50 H -0.0732 0.0211 0.3804
C52 C -0.3246(4) 0.0072(4) 0.2473(3)
F7 F -0.4229(3) 0.0220(3) 0.2898(2)
F8 F -0.2869(3) -0.0811(3) 0.2238(2)
F9 F -0.3334(3) 0.0713(2) 0.18727(18)
C53 C -0.2376(6) -0.0035(6) 0.4788(3)
F10 F -0.2357(4) 0.0674(4) 0.5043(2)
F11 F -0.3299(3) -0.0148(4) 0.5118(2)
F12 F -0.1631(4) -0.0840(4) 0.5036(2)
C54 C 0.1197(4) -0.0288(3) 0.2750(2)
C55 C 0.1204(4) -0.1184(3) 0.3156(2)
H51 H 0.0638 -0.1385 0.3208
C56 C 0.2013(4) -0.1791(3) 0.3488(2)
C57 C 0.2867(4) -0.1530(3) 0.3412(3)
H52 H 0.3420 -0.1939 0.3636
C58 C 0.2889(4) -0.0659(3) 0.3002(3)
C59 C 0.2070(4) -0.0051(3) 0.2681(2)
H53 H 0.2106 0.0545 0.2406
C60 C 0.1959(4) -0.2723(3) 0.3928(3)
F13 F 0.2434(5) -0.3471(3) 0.3526(2)
F14 F 0.0987(3) -0.2683(4) 0.4263(3)
F15 F 0.2465(4) -0.3006(3) 0.4450(3)
C61 C 0.3780(4) -0.0335(4) 0.2912(3)
F16 F 0.4595(3) -0.1034(3) 0.3114(3)
F17 F 0.3459(3) 0.0404(3) 0.3320(2)
F18 F 0.4148(3) 0.0012(3) 0.22271(17)
C62 C 0.0000(3) 0.1573(3) 0.2313(2)
C63 C 0.0055(4) 0.1974(4) 0.2871(3)
H54 H 0.0297 0.1549 0.3271
C64 C -0.0231(4) 0.2976(4) 0.2864(3)
C65 C -0.0589(4) 0.3622(4) 0.2291(3)
H55 H -0.0780 0.4305 0.2282
C66 C -0.0659(4) 0.3242(3) 0.1731(3)
C67 C -0.0379(4) 0.2246(3) 0.1747(3)
H56 H -0.0446 0.2009 0.1359
C68 C -0.0107(4) 0.3352(4) 0.3459(3)
F19 F -0.0631(6) 0.3132(6) 0.4111(3)
F20 F 0.0908(5) 0.3052(7) 0.3447(4)
F21 F -0.0394(9) 0.4327(4) 0.3375(5)
C69 C -0.1032(4) 0.3909(3) 0.1101(3)
F22 F -0.1034(11) 0.4790(5) 0.1022(6)
F23 F -0.0463(8) 0.3568(6) 0.0446(3)
F24 F -0.2001(6) 0.4013(8) 0.1111(5)
C70 C 0.8915(15) 0.6921(15) 0.2729(13)
H57 H 0.8725 0.6473 0.3162
H58 H 0.8257 0.7499 0.2711
Cl1 Cl 0.9762(10) 0.7293(9) 0.2878(7)
Cl2 Cl 0.9287(14) 0.6366(10) 0.1988(8)
C72 C 0.5459(9) 0.8361(11) 0.4576(7)
H61 H 0.5676 0.8557 0.4933
H62 H 0.5038 0.8959 0.4315
Cl5 Cl 0.4702(3) 0.7627(3) 0.5032(2)
Cl6 Cl 0.6589(4) 0.7646(5) 0.3941(3)
C35? C 0.314(3) 0.4515(11) 0.0743(13)
H38? H 0.3177 0.5048 0.0943
C36? C 0.197(2) 0.480(2) 0.0794(16)
H39? H 0.1704 0.5439 0.0523
H40? H 0.1551 0.4817 0.1311
H41? H 0.1891 0.4309 0.0579
C37? C 0.381(3) 0.450(2) -0.0058(15)
H42? H 0.3555 0.5145 -0.0325
H43? H 0.3760 0.4014 -0.0289
H44? H 0.4557 0.4323 -0.0073
F25? F 0.3598(7) 0.0078(6) -0.0673(5)
F26? F 0.3144(9) 0.1078(9) 0.0114(5)
F27? F 0.2323(6) 0.1400(6) -0.0671(5)
F28? F 0.2877(11) -0.3463(14) 0.3854(15)
F29? F 0.1341(17) -0.3043(16) 0.3760(13)
F30? F 0.158(2) -0.264(2) 0.4639(6)
F31? F -0.1015(7) 0.3959(10) 0.3849(8)
F32? F 0.0213(13) 0.2657(7) 0.3998(6)
F33? F 0.0521(10) 0.3821(10) 0.3248(6)
F34? F -0.1718(9) 0.4786(6) 0.1300(5)
F35? F -0.0243(7) 0.4092(10) 0.0597(6)
F36? F -0.1502(10) 0.3596(7) 0.0798(6)
C71? C 0.901(2) 0.7203(18) 0.222(2)
H59? H 0.8323 0.7226 0.2582
H60? H 0.8862 0.7813 0.1882
Cl3? Cl 0.9816(15) 0.7183(15) 0.2667(12)
Cl4? Cl 0.9448(12) 0.6271(8) 0.1736(9)
C73? C 0.5851(17) 0.7905(16) 0.4289(10)
H63? H 0.6373 0.7842 0.4543
H64? H 0.5560 0.8595 0.4085
Cl7? Cl 0.4816(15) 0.7567(15) 0.4917(10)
Cl8? Cl 0.6490(8) 0.7133(7) 0.3561(6)
loop_
_geom_bond_atom_site_label_1
_geom_bond_atom_site_label_2
_geom_bond_site_symmetry_1
_geom_bond_site_symmetry_2
P1 S1 1_555 1_555
S1 S2 1_555 1_555
S2 C1 1_555 1_555
N1 P1 1_555 1_555
N2 P1 1_555 1_555
N3 P1 1_555 1_555
C1 C2 1_555 1_555
C2 H1 1_555 1_555
C3 C2 1_555 1_555
H2 C3 1_555 1_555
C4 C3 1_555 1_555
H3 C4 1_555 1_555
C5 C4 1_555 1_555
H4 C5 1_555 1_555
C6 C1 1_555 1_555
H5 C6 1_555 1_555
C7 N1 1_555 1_555
C8 C7 1_555 1_555
C9 C8 1_555 1_555
C10 C9 1_555 1_555
H6 C10 1_555 1_555
C11 C10 1_555 1_555
H7 C11 1_555 1_555
C12 C11 1_555 1_555
H8 C12 1_555 1_555
C13 C12 1_555 1_555
H9 C13 1_555 1_555
C14 C9 1_555 1_555
C15 C14 1_555 1_555
H10 C15 1_555 1_555
C16 C7 1_555 1_555
H11 C16 1_555 1_555
C17 N2 1_555 1_555
C18 C8 1_555 1_555
C19 C18 1_555 1_555
C20 C19 1_555 1_555
H12 C20 1_555 1_555
C21 C20 1_555 1_555
H13 C21 1_555 1_555
C22 C21 1_555 1_555
H14 C22 1_555 1_555
C23 C22 1_555 1_555
H15 C23 1_555 1_555
C24 C19 1_555 1_555
C25 C24 1_555 1_555
H16 C25 1_555 1_555
C26 C17 1_555 1_555
H17 C26 1_555 1_555
C27 N2 1_555 1_555
H18 C27 1_555 1_555
H19 C27 1_555 1_555
H20 C27 1_555 1_555
C28 N1 1_555 1_555
H21 C28 1_555 1_555
H22 C28 1_555 1_555
H23 C28 1_555 1_555
C29 N3 1_555 1_555
H24 C29 1_555 1_555
C30 C29 1_555 1_555
H25 C30 1_555 1_555
H26 C30 1_555 1_555
H27 C30 1_555 1_555
C31 C29 1_555 1_555
H28 C31 1_555 1_555
H29 C31 1_555 1_555
H30 C31 1_555 1_555
C32 N3 1_555 1_555
H31 C32 1_555 1_555
C33 C32 1_555 1_555
H32 C33 1_555 1_555
H33 C33 1_555 1_555
H34 C33 1_555 1_555
C34 C32 1_555 1_555
H35 C34 1_555 1_555
H36 C34 1_555 1_555
H37 C34 1_555 1_555
B1 C38 1_555 1_555
C38 C39 1_555 1_555
C39 H45 1_555 1_555
C40 C39 1_555 1_555
C41 C40 1_555 1_555
H46 C41 1_555 1_555
C42 C41 1_555 1_555
C43 C38 1_555 1_555
H47 C43 1_555 1_555
C44 C40 1_555 1_555
F1 C44 1_555 1_555
F2 C44 1_555 1_555
F3 C44 1_555 1_555
C45 C42 1_555 1_555
F4 C45 1_555 1_555
F5 C45 1_555 1_555
F6 C45 1_555 1_555
C46 B1 1_555 1_555
C47 C46 1_555 1_555
H48 C47 1_555 1_555
C48 C47 1_555 1_555
C49 C48 1_555 1_555
H49 C49 1_555 1_555
C50 C49 1_555 1_555
C51 C46 1_555 1_555
H50 C51 1_555 1_555
C52 C48 1_555 1_555
F7 C52 1_555 1_555
F8 C52 1_555 1_555
F9 C52 1_555 1_555
C53 C50 1_555 1_555
F10 C53 1_555 1_555
F11 C53 1_555 1_555
F12 C53 1_555 1_555
C54 B1 1_555 1_555
C55 C54 1_555 1_555
H51 C55 1_555 1_555
C56 C55 1_555 1_555
C57 C56 1_555 1_555
H52 C57 1_555 1_555
C58 C57 1_555 1_555
C59 C54 1_555 1_555
H53 C59 1_555 1_555
C60 C56 1_555 1_555
F13 C60 1_555 1_555
F14 C60 1_555 1_555
F15 C60 1_555 1_555
C61 C58 1_555 1_555
F16 C61 1_555 1_555
F17 C61 1_555 1_555
F18 C61 1_555 1_555
C62 B1 1_555 1_555
C63 C62 1_555 1_555
H54 C63 1_555 1_555
C64 C63 1_555 1_555
C65 C64 1_555 1_555
H55 C65 1_555 1_555
C66 C65 1_555 1_555
C67 C62 1_555 1_555
H56 C67 1_555 1_555
C68 C64 1_555 1_555
F19 C68 1_555 1_555
F20 C68 1_555 1_555
F21 C68 1_555 1_555
C69 C66 1_555 1_555
F22 C69 1_555 1_555
F23 C69 1_555 1_555
F24 C69 1_555 1_555
C70 H57 1_555 1_555
H58 C70 1_555 1_555
Cl1 C70 1_555 1_555
Cl2 C70 1_555 1_555
C72 H61 1_555 1_555
H62 C72 1_555 1_555
Cl5 C72 1_555 1_555
Cl6 C72 1_555 1_555
C5 C6 1_555 1_555
C13 C14 1_555 1_555
C15 C16 1_555 1_555
C17 C18 1_555 1_555
C23 C24 1_555 1_555
C25 C26 1_555 1_555
C42 C43 1_555 1_555
C50 C51 1_555 1_555
C58 C59 1_555 1_555
C66 C67 1_555 1_555

#END
