
#######################################################################
#
#                 Cambridge Crystallographic Data Centre
#                                CCDC 
#
#######################################################################
#
# If this CIF has been generated from an entry in the Cambridge 
# Structural Database, then it will include bibliographic, chemical, 
# crystal, experimental, refinement or atomic coordinate data resulting 
# from the CCDC's data processing and validation procedures.
#
#######################################################################

data_KORFUU
_chemical_formula_moiety         'C37 H29 B1 N2'
_chemical_name_systematic        
(N-(1,2-diphenyl-2-(pyridin-2-yl)vinyl)anilinato)(diphenyl)borate
_symmetry_cell_setting           monoclinic
_symmetry_space_group_name_H-M   'P 21/n'
_symmetry_Int_Tables_number      14
_space_group_name_Hall           '-P 2yn'
loop_
_symmetry_equiv_pos_site_id
_symmetry_equiv_pos_as_xyz
1 x,y,z
2 1/2-x,1/2+y,1/2-z
3 -x,-y,-z
4 1/2+x,1/2-y,1/2+z
_cell_length_a                   10.9565(8)
_cell_length_b                   19.2414(16)
_cell_length_c                   13.7066(11)
_cell_angle_alpha                90
_cell_angle_beta                 95.0020(10)
_cell_angle_gamma                90
_cell_volume                     2878.6
_exptl_crystal_colour            yellow
_cell_formula_units_Z            4
loop_
_atom_site_label
_atom_site_type_symbol
_atom_site_fract_x
_atom_site_fract_y
_atom_site_fract_z
N1 N 0.19672(19) 0.00083(11) 0.67631(16)
N2 N 0.30928(18) 0.11143(10) 0.72402(16)
C1 C 0.3283(2) 0.11996(13) 0.6272(2)
C2 C 0.2215(3) 0.01136(14) 0.5819(2)
C3 C 0.3832(2) 0.14703(12) 0.79934(19)
C4 C 0.2795(2) 0.07506(14) 0.5564(2)
C5 C 0.3295(2) 0.17686(13) 0.8773(2)
H1 H 0.2447 0.1760 0.8783
C6 C 0.2258(2) 0.03350(13) 0.8606(2)
C7 C 0.5101(2) 0.14987(15) 0.8001(2)
H2 H 0.5488 0.1294 0.7496
C8 C 0.3997(2) 0.18129(14) 0.5965(2)
C9 C 0.1521(3) -0.06126(15) 0.7026(2)
H3 H 0.1385 -0.0681 0.7679
C10 C 0.0701(2) 0.10555(15) 0.73216(19)
C11 C 0.0624(3) 0.17739(16) 0.7229(2)
H4 H 0.1346 0.2028 0.7232
C12 C 0.1455(3) 0.03946(14) 0.9326(2)
H5 H 0.0725 0.0635 0.9186
C13 C 0.4003(3) 0.20777(15) 0.9532(2)
H6 H 0.3628 0.2264 1.0056
C14 C 0.2886(3) 0.08800(14) 0.4500(2)
C15 C 0.5243(3) 0.21137(15) 0.9526(2)
H7 H 0.5715 0.2327 1.0038
C16 C -0.0423(2) 0.07134(17) 0.7310(2)
H8 H -0.0432 0.0232 0.7365
C17 C 0.5787(3) 0.18291(16) 0.8752(2)
H9 H 0.6632 0.1860 0.8735
B1 B 0.1998(3) 0.06524(15) 0.7519(2)
C18 C -0.1531(3) 0.1071(2) 0.7219(2)
H10 H -0.2262 0.0825 0.7214
C19 C 0.3324(3) -0.00454(15) 0.8863(2)
H11 H 0.3891 -0.0101 0.8403
C20 C 0.3568(3) 0.24710(16) 0.6079(2)
H12 H 0.2854 0.2543 0.6384
C21 C 0.1905(3) -0.04133(16) 0.5136(2)
H13 H 0.2026 -0.0340 0.4481
C22 C 0.1705(3) 0.01079(18) 1.0247(2)
H14 H 0.1151 0.0166 1.0718
C23 C 0.2066(3) 0.13101(17) 0.3984(3)
H15 H 0.1470 0.1534 0.4312
C24 C 0.1263(4) -0.11412(17) 0.6387(3)
H16 H 0.0980 -0.1566 0.6598
C25 C 0.5071(3) 0.17266(18) 0.5512(2)
H17 H 0.5370 0.1280 0.5430
C26 C 0.1434(4) -0.10281(18) 0.5409(3)
H18 H 0.1228 -0.1370 0.4945
C27 C -0.0481(3) 0.2128(2) 0.7134(3)
H19 H -0.0487 0.2609 0.7068
C28 C -0.1556(3) 0.1776(2) 0.7136(3)
H20 H -0.2298 0.2014 0.7082
C29 C 0.2754(3) -0.02592(17) 1.0470(3)
H21 H 0.2919 -0.0452 1.1090
C30 C 0.3746(4) 0.0554(2) 0.3976(3)
H22 H 0.4315 0.0254 0.4294
C31 C 0.3563(3) -0.03410(17) 0.9774(3)
H23 H 0.4276 -0.0597 0.9917
C32 C 0.2099(5) 0.1419(2) 0.2997(3)
H24 H 0.1531 0.1717 0.2672
C33 C 0.4206(5) 0.30373(19) 0.5734(3)
H25 H 0.3905 0.3486 0.5794
C34 C 0.3765(5) 0.0672(3) 0.2975(3)
H26 H 0.4351 0.0453 0.2632
C35 C 0.5277(5) 0.2930(3) 0.5307(3)
H27 H 0.5717 0.3307 0.5101
C36 C 0.2935(6) 0.1105(2) 0.2493(3)
H28 H 0.2949 0.1182 0.1824
C37 C 0.5697(4) 0.2276(3) 0.5185(3)
H29 H 0.6411 0.2204 0.4879
loop_
_geom_bond_atom_site_label_1
_geom_bond_atom_site_label_2
_geom_bond_site_symmetry_1
_geom_bond_site_symmetry_2
N1 C2 1_555 1_555
N2 C1 1_555 1_555
C1 C4 1_555 1_555
C2 C4 1_555 1_555
C3 N2 1_555 1_555
C4 C14 1_555 1_555
C5 C3 1_555 1_555
H1 C5 1_555 1_555
C6 C12 1_555 1_555
C7 C3 1_555 1_555
H2 C7 1_555 1_555
C8 C1 1_555 1_555
C9 N1 1_555 1_555
H3 C9 1_555 1_555
C10 C11 1_555 1_555
C11 H4 1_555 1_555
C12 H5 1_555 1_555
C13 C5 1_555 1_555
H6 C13 1_555 1_555
C14 C23 1_555 1_555
C15 C13 1_555 1_555
H7 C15 1_555 1_555
C16 C10 1_555 1_555
H8 C16 1_555 1_555
C17 C7 1_555 1_555
H9 C17 1_555 1_555
B1 N1 1_555 1_555
C18 C16 1_555 1_555
H10 C18 1_555 1_555
C19 C6 1_555 1_555
H11 C19 1_555 1_555
C20 C8 1_555 1_555
H12 C20 1_555 1_555
C21 C2 1_555 1_555
H13 C21 1_555 1_555
C22 C12 1_555 1_555
H14 C22 1_555 1_555
C23 H15 1_555 1_555
C24 C9 1_555 1_555
H16 C24 1_555 1_555
C25 C8 1_555 1_555
H17 C25 1_555 1_555
C26 C21 1_555 1_555
H18 C26 1_555 1_555
C27 C11 1_555 1_555
H19 C27 1_555 1_555
C28 C18 1_555 1_555
H20 C28 1_555 1_555
C29 C22 1_555 1_555
H21 C29 1_555 1_555
C30 C14 1_555 1_555
H22 C30 1_555 1_555
C31 C19 1_555 1_555
H23 C31 1_555 1_555
C32 C23 1_555 1_555
H24 C32 1_555 1_555
C33 C20 1_555 1_555
H25 C33 1_555 1_555
C34 C30 1_555 1_555
H26 C34 1_555 1_555
C35 C33 1_555 1_555
H27 C35 1_555 1_555
C36 C32 1_555 1_555
H28 C36 1_555 1_555
C37 C25 1_555 1_555
H29 C37 1_555 1_555
N2 B1 1_555 1_555
C6 B1 1_555 1_555
C10 B1 1_555 1_555
C15 C17 1_555 1_555
C24 C26 1_555 1_555
C27 C28 1_555 1_555
C29 C31 1_555 1_555
C34 C36 1_555 1_555
C35 C37 1_555 1_555

#END
