
#######################################################################
#
#                 Cambridge Crystallographic Data Centre
#                                CCDC 
#
#######################################################################
#
# If this CIF has been generated from an entry in the Cambridge 
# Structural Database, then it will include bibliographic, chemical, 
# crystal, experimental, refinement or atomic coordinate data resulting 
# from the CCDC's data processing and validation procedures.
#
#######################################################################

data_KORFEE
_chemical_formula_moiety         'C39 H34 B1 N3'
_chemical_name_systematic        
{N'-[1,2-diphenyl-2-(pyridin-2-yl)ethenyl]-N,N-dimethylbenzene-1,4-diaminato}(diphenyl)borate
_symmetry_cell_setting           orthorhombic
_symmetry_space_group_name_H-M   'P 21 21 21'
_symmetry_Int_Tables_number      19
_space_group_name_Hall           'P 2ac 2ab'
loop_
_symmetry_equiv_pos_site_id
_symmetry_equiv_pos_as_xyz
1 x,y,z
2 1/2-x,-y,1/2+z
3 1/2+x,1/2-y,-z
4 -x,1/2+y,1/2-z
_cell_length_a                   8.6210(9)
_cell_length_b                   18.3501(19)
_cell_length_c                   19.690(2)
_cell_angle_alpha                90
_cell_angle_beta                 90
_cell_angle_gamma                90
_cell_volume                     3114.88
_exptl_crystal_colour            red
_exptl_crystal_description       block
_cell_formula_units_Z            4
loop_
_atom_site_label
_atom_site_type_symbol
_atom_site_fract_x
_atom_site_fract_y
_atom_site_fract_z
N1 N 0.0829(4) 0.0776(2) 0.26509(17)
N2 N 0.2794(4) 0.0798(2) 0.35873(19)
N3 N -0.3923(6) -0.0843(3) 0.1366(2)
B1 B 0.0932(6) 0.0796(3) 0.3446(3)
C1 C 0.1768(5) 0.1227(3) 0.2279(2)
C2 C 0.3072(5) 0.1553(3) 0.2583(2)
C3 C 0.3673(5) 0.1279(3) 0.3210(2)
C4 C 0.5164(5) 0.1458(3) 0.3465(3)
H1 H 0.5756 0.1814 0.3250
C5 C 0.5724(6) 0.1114(3) 0.4018(3)
H2 H 0.6704 0.1237 0.4179
C6 C 0.4873(6) 0.0578(3) 0.4356(3)
H3 H 0.5288 0.0320 0.4720
C7 C 0.3405(6) 0.0450(3) 0.4127(2)
H4 H 0.2800 0.0109 0.4353
C8 C -0.0359(5) 0.0353(3) 0.2316(2)
C9 C -0.1899(5) 0.0438(2) 0.2512(2)
H5 H -0.2143 0.0762 0.2858
C10 C -0.3077(5) 0.0047(3) 0.2200(3)
H6 H -0.4098 0.0118 0.2337
C11 C -0.2763(6) -0.0437(3) 0.1698(3)
C12 C -0.1195(6) -0.0541(3) 0.1501(2)
H7 H -0.0944 -0.0880 0.1167
C13 C -0.0041(5) -0.0134(3) 0.1811(2)
H8 H 0.0981 -0.0196 0.1671
C14 C -0.5536(6) -0.0690(3) 0.1513(3)
H9 H -0.5708 -0.0174 0.1501
H10 H -0.5790 -0.0873 0.1957
H11 H -0.6181 -0.0924 0.1180
C15 C -0.3529(7) -0.1512(3) 0.1022(3)
H12 H -0.2996 -0.1402 0.0607
H13 H -0.4460 -0.1779 0.0923
H14 H -0.2870 -0.1801 0.1309
C16 C 0.1378(6) 0.1378(3) 0.1562(2)
C17 C -0.0084(6) 0.1622(3) 0.1375(3)
H15 H -0.0840 0.1687 0.1707
C18 C -0.0439(7) 0.1769(3) 0.0703(3)
H16 H -0.1414 0.1949 0.0589
C19 C 0.0630(9) 0.1652(3) 0.0213(3)
H17 H 0.0379 0.1749 -0.0237
C20 C 0.2096(8) 0.1391(3) 0.0371(3)
H18 H 0.2821 0.1303 0.0030
C21 C 0.2458(6) 0.1261(3) 0.1046(3)
H19 H 0.3443 0.1093 0.1158
C22 C 0.3862(6) 0.2172(3) 0.2250(2)
C23 C 0.3114(6) 0.2825(3) 0.2188(2)
H20 H 0.2107 0.2865 0.2352
C24 C 0.3789(7) 0.3423(3) 0.1894(2)
H21 H 0.3229 0.3853 0.1849
C25 C 0.5309(7) 0.3385(3) 0.1665(2)
H22 H 0.5792 0.3793 0.1482
C26 C 0.6091(6) 0.2733(3) 0.1712(3)
H23 H 0.7104 0.2697 0.1554
C27 C 0.5374(6) 0.2136(3) 0.1992(2)
H24 H 0.5907 0.1695 0.2012
C28 C 0.0202(5) 0.0091(3) 0.3804(2)
C29 C 0.0494(5) -0.0608(3) 0.3554(3)
H25 H 0.1094 -0.0657 0.3165
C30 C -0.0082(6) -0.1234(3) 0.3867(3)
H26 H 0.0134 -0.1691 0.3687
C31 C -0.0977(7) -0.1169(4) 0.4449(3)
H27 H -0.1376 -0.1583 0.4658
C32 C -0.1270(6) -0.0498(4) 0.4713(3)
H28 H -0.1855 -0.0452 0.5108
C33 C -0.0688(6) 0.0123(3) 0.4390(3)
H29 H -0.0908 0.0577 0.4576
C34 C 0.0308(5) 0.1588(3) 0.3725(2)
C35 C -0.0670(5) 0.2044(3) 0.3353(2)
H30 H -0.0936 0.1911 0.2913
C36 C -0.1256(6) 0.2682(3) 0.3612(3)
H31 H -0.1909 0.2967 0.3346
C37 C -0.0894(7) 0.2903(3) 0.4253(3)
H32 H -0.1318 0.3330 0.4428
C38 C 0.0096(7) 0.2494(3) 0.4636(3)
H33 H 0.0363 0.2643 0.5072
C39 C 0.0707(6) 0.1847(3) 0.4369(3)
H34 H 0.1404 0.1581 0.4630
loop_
_geom_bond_atom_site_label_1
_geom_bond_atom_site_label_2
_geom_bond_site_symmetry_1
_geom_bond_site_symmetry_2
N1 B1 1_555 1_555
N2 B1 1_555 1_555
N3 C11 1_555 1_555
B1 C28 1_555 1_555
C1 N1 1_555 1_555
C2 C1 1_555 1_555
C3 N2 1_555 1_555
C4 C3 1_555 1_555
H1 C4 1_555 1_555
C5 C4 1_555 1_555
H2 C5 1_555 1_555
C6 C5 1_555 1_555
H3 C6 1_555 1_555
C7 N2 1_555 1_555
H4 C7 1_555 1_555
C8 N1 1_555 1_555
C9 C8 1_555 1_555
H5 C9 1_555 1_555
C10 C9 1_555 1_555
H6 C10 1_555 1_555
C11 C10 1_555 1_555
C12 C11 1_555 1_555
H7 C12 1_555 1_555
C13 C8 1_555 1_555
H8 C13 1_555 1_555
C14 N3 1_555 1_555
H9 C14 1_555 1_555
H10 C14 1_555 1_555
H11 C14 1_555 1_555
C15 N3 1_555 1_555
H12 C15 1_555 1_555
H13 C15 1_555 1_555
H14 C15 1_555 1_555
C16 C1 1_555 1_555
C17 C16 1_555 1_555
H15 C17 1_555 1_555
C18 C17 1_555 1_555
H16 C18 1_555 1_555
C19 C18 1_555 1_555
H17 C19 1_555 1_555
C20 C19 1_555 1_555
H18 C20 1_555 1_555
C21 C16 1_555 1_555
H19 C21 1_555 1_555
C22 C2 1_555 1_555
C23 C22 1_555 1_555
H20 C23 1_555 1_555
C24 C23 1_555 1_555
H21 C24 1_555 1_555
C25 C24 1_555 1_555
H22 C25 1_555 1_555
C26 C25 1_555 1_555
H23 C26 1_555 1_555
C27 C22 1_555 1_555
H24 C27 1_555 1_555
C28 C29 1_555 1_555
C29 H25 1_555 1_555
C30 C29 1_555 1_555
H26 C30 1_555 1_555
C31 C30 1_555 1_555
H27 C31 1_555 1_555
C32 C31 1_555 1_555
H28 C32 1_555 1_555
C33 C28 1_555 1_555
H29 C33 1_555 1_555
C34 B1 1_555 1_555
C35 C34 1_555 1_555
H30 C35 1_555 1_555
C36 C35 1_555 1_555
H31 C36 1_555 1_555
C37 C36 1_555 1_555
H32 C37 1_555 1_555
C38 C37 1_555 1_555
H33 C38 1_555 1_555
C39 C34 1_555 1_555
H34 C39 1_555 1_555
C2 C3 1_555 1_555
C6 C7 1_555 1_555
C12 C13 1_555 1_555
C20 C21 1_555 1_555
C26 C27 1_555 1_555
C32 C33 1_555 1_555
C38 C39 1_555 1_555

#END
