
#######################################################################
#
#                 Cambridge Crystallographic Data Centre
#                                CCDC 
#
#######################################################################
#
# If this CIF has been generated from an entry in the Cambridge 
# Structural Database, then it will include bibliographic, chemical, 
# crystal, experimental, refinement or atomic coordinate data resulting 
# from the CCDC's data processing and validation procedures.
#
#######################################################################

data_KORGUV
_chemical_formula_moiety         'C6 H3 N3 O7,C5 H5 N5,C1 H4 O1'
_chemical_name_systematic        'adenine 2,4,6-trinitrophenol methanol solvate'
_symmetry_cell_setting           triclinic
_symmetry_space_group_name_H-M   'P -1'
_symmetry_Int_Tables_number      2
_space_group_name_Hall           '-P 1'
loop_
_symmetry_equiv_pos_site_id
_symmetry_equiv_pos_as_xyz
1 x,y,z
2 -x,-y,-z
_cell_length_a                   9.96(3)
_cell_length_b                   10.03(3)
_cell_length_c                   10.44(3)
_cell_angle_alpha                117.80(5)
_cell_angle_beta                 115.33(5)
_cell_angle_gamma                91.12(5)
_cell_volume                     801.956
_exptl_crystal_colour            yellowish
_exptl_crystal_description       rod
_cell_formula_units_Z            2
loop_
_atom_site_label
_atom_site_type_symbol
_atom_site_fract_x
_atom_site_fract_y
_atom_site_fract_z
C1 C 0.7330(10) 0.6257(8) 0.7040(11)
C2 C 0.8113(9) 0.6268(8) 0.8512(12)
H1 H 0.8864 0.5732 0.8654
C3 C 0.7757(10) 0.7092(9) 0.9771(13)
C4 C 0.6677(10) 0.7920(8) 0.9626(11)
H2 H 0.6449 0.8459 1.0479
C5 C 0.5941(9) 0.7922(8) 0.8161(12)
C6 C 0.6206(10) 0.7109(9) 0.6788(12)
N1 N 0.4730(8) 0.8772(7) 0.7947(9)
N2 N 0.7769(10) 0.5345(8) 0.5779(11)
N3 N 0.8559(9) 0.7103(8) 1.1325(11)
O1 O 0.8257(7) 0.7900(6) 1.2478(8)
O2 O 0.9510(7) 0.6321(6) 1.1455(8)
O3 O 0.3915(6) 0.8686(5) 0.8548(7)
O4 O 0.4621(6) 0.9516(5) 0.7265(7)
O5 O 0.6985(8) 0.5042(6) 0.4349(9)
O6 O 0.8940(9) 0.4894(8) 0.6219(9)
O7 O 0.5482(7) 0.7118(6) 0.5423(8)
H3 H 0.4964 0.6226 0.4643
C7 C 0.5956(11) 0.3381(9) 0.8503(14)
C8 C 0.7513(11) 0.3399(9) 1.1004(12)
H4 H 0.7849 0.3810 1.2127
C9 C 0.7765(9) 0.1824(9) 0.8668(14)
C10 C 0.6684(10) 0.2367(9) 0.7760(14)
C11 C 0.7448(10) 0.0715(9) 0.6189(12)
H5 H 0.7583 0.0093 0.5281
N4 N 0.4829(7) 0.3908(6) 0.7768(9)
H6 H 0.4494 0.3620 0.6744
H7 H 0.4440 0.4534 0.8320
N5 N 0.6429(9) 0.3904(7) 1.0211(10)
N6 N 0.8175(8) 0.2310(7) 1.0277(10)
N7 N 0.8204(8) 0.0782(7) 0.7654(10)
H8 H 0.8842 0.0257 0.7888
N8 N 0.6472(8) 0.1642(7) 0.6168(10)
C12 C 0.0067(10) 0.8211(10) 0.6173(13)
H9 H -0.0968 0.7856 0.5267
H10 H 0.0546 0.7369 0.5954
H11 H 0.0649 0.9071 0.6286
O8 O 0.0029(7) 0.8732(6) 0.7743(9)
H12 H 0.0578 0.8340 0.8234
loop_
_geom_bond_atom_site_label_1
_geom_bond_atom_site_label_2
_geom_bond_site_symmetry_1
_geom_bond_site_symmetry_2
C1 C2 1_555 1_555
C2 H1 1_555 1_555
C3 C2 1_555 1_555
C4 C3 1_555 1_555
H2 C4 1_555 1_555
C5 C4 1_555 1_555
C6 C1 1_555 1_555
N1 C5 1_555 1_555
N2 C1 1_555 1_555
N3 C3 1_555 1_555
O1 N3 1_555 1_555
O2 N3 1_555 1_555
O3 N1 1_555 1_555
O4 N1 1_555 1_555
O5 N2 1_555 1_555
O6 N2 1_555 1_555
O7 C6 1_555 1_555
H3 O7 1_555 1_555
C7 C10 1_555 1_555
C8 H4 1_555 1_555
C9 C10 1_555 1_555
C10 N8 1_555 1_555
C11 H5 1_555 1_555
N4 C7 1_555 1_555
H6 N4 1_555 1_555
H7 N4 1_555 1_555
N5 C7 1_555 1_555
N6 C8 1_555 1_555
N7 C9 1_555 1_555
H8 N7 1_555 1_555
N8 C11 1_555 1_555
C12 H9 1_555 1_555
H10 C12 1_555 1_555
H11 C12 1_555 1_555
O8 C12 1_555 1_555
H12 O8 1_555 1_555
C5 C6 1_555 1_555
C8 N5 1_555 1_555
C9 N6 1_555 1_555
C11 N7 1_555 1_555

#END
