
#######################################################################
#
#                 Cambridge Crystallographic Data Centre
#                                CCDC 
#
#######################################################################
#
# If this CIF has been generated from an entry in the Cambridge 
# Structural Database, then it will include bibliographic, chemical, 
# crystal, experimental, refinement or atomic coordinate data resulting 
# from the CCDC's data processing and validation procedures.
#
#######################################################################

data_KORKIL
_chemical_formula_moiety         'C36 H38 N2 O8 S2'
_chemical_name_systematic        
6,15-bis(2,5-bis(Ethoxycarbonyl)-1-pyrrolyl)-2,11-dithia(3.3)metacyclophane
_symmetry_cell_setting           triclinic
_symmetry_space_group_name_H-M   'P -1'
_symmetry_Int_Tables_number      2
_space_group_name_Hall           '-P 1'
loop_
_symmetry_equiv_pos_site_id
_symmetry_equiv_pos_as_xyz
1 x,y,z
2 -x,-y,-z
_cell_length_a                   9.630(1)
_cell_length_b                   10.707(1)
_cell_length_c                   8.775(1)
_cell_angle_alpha                99.73(1)
_cell_angle_beta                 103.61(1)
_cell_angle_gamma                75.61(1)
_cell_volume                     845.891
_exptl_crystal_colour            colorless
_chemical_melting_point          182-184deg.C
_cell_formula_units_Z            1
loop_
_atom_site_label
_atom_site_type_symbol
_atom_site_fract_x
_atom_site_fract_y
_atom_site_fract_z
S1 S 0.20689(6) 0.97593(6) 0.15193(8)
O1 O 0.2088(2) 1.5513(2) -0.0277(2)
O2 O 0.2909(2) 1.3359(2) -0.0320(2)
O3 O 0.7692(2) 1.2926(2) 0.4769(2)
O4 O 0.7968(2) 1.4948(2) 0.5696(2)
C1 C 0.2163(2) 1.0331(2) -0.0284(3)
C2 C 0.3696(3) 0.9994(3) 0.2971(3)
C3 C 0.4707(2) 1.0651(2) 0.2482(2)
C4 C 0.4502(2) 1.1998(2) 0.2707(2)
C5 C 0.5412(2) 1.2573(2) 0.2178(2)
C6 C 0.6493(2) 1.1852(2) 0.1398(2)
C7 C 0.3296(2) 0.9493(2) -0.1171(2)
C8 C 0.5825(2) 0.9918(2) 0.1745(2)
C9 C 0.6090(2) 1.4680(2) 0.3528(2)
C10 C 0.5554(3) 1.5974(2) 0.3333(3)
C11 C 0.4339(3) 1.6070(2) 0.2105(3)
C12 C 0.4143(2) 1.4828(2) 0.1549(2)
C13 C 0.3014(2) 1.4446(2) 0.0241(3)
C14 C 0.0879(2) 1.5342(2) -0.1583(3)
C15 C -0.0057(3) 1.6669(3) -0.1757(4)
C16 C 0.7335(3) 1.4208(2) 0.4763(3)
C17 C 0.8911(4) 1.2415(3) 0.6001(4)
C18 C 1.0339(6) 1.2205(6) 0.5609(7)
N1 N 0.5215(2) 1.3970(2) 0.2421(2)
H1 H 0.8888(4) 1.3045(3) 0.6980(4)
H2 H 0.8777(4) 1.1566(3) 0.6208(4)
H3 H 1.005(1) 1.139(1) 0.437(1)
H4 H 0.2382(2) 1.1216(2) 0.0000(3)
H5 H 0.1182(2) 1.0388(2) -0.1006(3)
H6 H 0.3371(3) 1.0530(3) 0.3925(3)
H7 H 0.4269(3) 0.9119(3) 0.3254(3)
H8 H 0.3708(2) 1.2543(2) 0.3243(2)
H9 H 0.7118(2) 1.2292(2) 0.1002(2)
H10 H 0.6003(2) 0.8949(2) 0.1624(2)
H11 H 0.5969(3) 1.6714(2) 0.3965(3)
H12 H 0.3719(3) 1.6892(2) 0.1697(3)
H13 H 0.1250(2) 1.4962(2) -0.2571(3)
H14 H 0.0312(2) 1.4760(2) -0.1339(3)
H15 H -0.0916(3) 1.6617(3) -0.2645(4)
H16 H 0.0529(3) 1.7240(3) -0.1989(4)
H17 H -0.0409(3) 1.7038(3) -0.0756(4)
C7A C 0.6704(2) 1.0507(2) 0.1171(2)
C6A C 0.3507(2) 0.8148(2) -0.1398(2)
C8A C 0.4175(2) 1.0082(2) -0.1745(2)
C1A C 0.7837(2) 0.9669(2) 0.0284(3)
C5A C 0.4588(2) 0.7427(2) -0.2178(2)
H9A H 0.2882(2) 0.7708(2) -0.1002(2)
C3A C 0.5293(2) 0.9349(2) -0.2482(2)
H10A H 0.3997(2) 1.1051(2) -0.1624(2)
S1A S 0.79311(6) 1.02407(6) -0.15193(8)
H4A H 0.7618(2) 0.8784(2) 0.0000(3)
H5A H 0.8818(2) 0.9612(2) 0.1006(3)
C4A C 0.5498(2) 0.8002(2) -0.2707(2)
N1A N 0.4785(2) 0.6030(2) -0.2421(2)
C2A C 0.6304(3) 1.0006(3) -0.2971(3)
H8A H 0.6292(2) 0.7457(2) -0.3243(2)
C9A C 0.3910(2) 0.5320(2) -0.3528(2)
C12A C 0.5857(2) 0.5172(2) -0.1549(2)
H6A H 0.6629(3) 0.9470(3) -0.3925(3)
H7A H 0.5731(3) 1.0881(3) -0.3254(3)
C10A C 0.4446(3) 0.4026(2) -0.3333(3)
C16A C 0.2665(3) 0.5792(2) -0.4763(3)
C11A C 0.5661(3) 0.3930(2) -0.2105(3)
C13A C 0.6986(2) 0.5554(2) -0.0241(3)
H11A H 0.4031(3) 0.3286(2) -0.3965(3)
O3A O 0.2308(2) 0.7074(2) -0.4769(2)
O4A O 0.2032(2) 0.5052(2) -0.5696(2)
H12A H 0.6281(3) 0.3108(2) -0.1697(3)
O1A O 0.7912(2) 0.4487(2) 0.0277(2)
O2A O 0.7091(2) 0.6641(2) 0.0320(2)
C17A C 0.1089(4) 0.7585(3) -0.6001(4)
C14A C 0.9121(2) 0.4658(2) 0.1583(3)
C18A C -0.0339(6) 0.7795(6) -0.5609(7)
H1A H 0.1112(4) 0.6955(3) -0.6980(4)
H2A H 0.1223(4) 0.8434(3) -0.6208(4)
C15A C 1.0057(3) 0.3331(3) 0.1757(4)
H13A H 0.8750(2) 0.5038(2) 0.2571(3)
H14A H 0.9688(2) 0.5240(2) 0.1339(3)
H3A H -0.005(1) 0.861(1) -0.437(1)
H15A H 1.0916(3) 0.3383(3) 0.2645(4)
H16A H 0.9471(3) 0.2760(3) 0.1989(4)
H17A H 1.0409(3) 0.2962(3) 0.0756(4)
C19? C 0.970(1) 1.121(1) 0.528(1)
H18? H 0.9567(4) 1.3042(3) 0.6392(4)
H19? H 0.8539(4) 1.2246(3) 0.6902(4)
H20? H 1.055(1) 1.081(1) 0.607(1)
H21? H 0.902(1) 1.060(1) 0.488(1)
H22? H 1.1116(6) 1.1857(6) 0.6504(7)
H23? H 1.0497(6) 1.3047(6) 0.5411(7)
H24? H 1.0386(6) 1.1568(6) 0.4638(7)
loop_
_geom_bond_atom_site_label_1
_geom_bond_atom_site_label_2
_geom_bond_site_symmetry_1
_geom_bond_site_symmetry_2
S1 C1 1_555 1_555
O1 C13 1_555 1_555
O2 C13 1_555 1_555
O3 C16 1_555 1_555
O4 C16 1_555 1_555
C1 C7 1_555 1_555
C2 S1 1_555 1_555
C3 C2 1_555 1_555
C4 C3 1_555 1_555
C5 C4 1_555 1_555
C6 C5 1_555 1_555
C7 C6A 1_555 1_555
C8 C3 1_555 1_555
C9 C10 1_555 1_555
C10 C11 1_555 1_555
C11 C12 1_555 1_555
C12 C13 1_555 1_555
C14 O1 1_555 1_555
C15 C14 1_555 1_555
C16 C9 1_555 1_555
C17 O3 1_555 1_555
C18 C17 1_555 1_555
N1 C5 1_555 1_555
H1 C17 1_555 1_555
H2 C17 1_555 1_555
H3 C18 1_555 1_555
H4 C1 1_555 1_555
H5 C1 1_555 1_555
H6 C2 1_555 1_555
H7 C2 1_555 1_555
H8 C4 1_555 1_555
H9 C6 1_555 1_555
H10 C8 1_555 1_555
H11 C10 1_555 1_555
H12 C11 1_555 1_555
H13 C14 1_555 1_555
H14 C14 1_555 1_555
H15 C15 1_555 1_555
H16 C15 1_555 1_555
H17 C15 1_555 1_555
C7A C6 1_555 1_555
C6A C5A 1_555 1_555
C8A C7 1_555 1_555
C1A C7A 1_555 1_555
C5A C4A 1_555 1_555
H9A C6A 1_555 1_555
C3A C8A 1_555 1_555
H10A C8A 1_555 1_555
S1A C1A 1_555 1_555
H4A C1A 1_555 1_555
H5A C1A 1_555 1_555
C4A C3A 1_555 1_555
N1A C5A 1_555 1_555
C2A C3A 1_555 1_555
H8A C4A 1_555 1_555
C9A N1A 1_555 1_555
C12A N1A 1_555 1_555
H6A C2A 1_555 1_555
H7A C2A 1_555 1_555
C10A C9A 1_555 1_555
C16A C9A 1_555 1_555
C11A C12A 1_555 1_555
C13A C12A 1_555 1_555
H11A C10A 1_555 1_555
O3A C16A 1_555 1_555
O4A C16A 1_555 1_555
H12A C11A 1_555 1_555
O1A C13A 1_555 1_555
O2A C13A 1_555 1_555
C17A O3A 1_555 1_555
C14A O1A 1_555 1_555
C18A C17A 1_555 1_555
H1A C17A 1_555 1_555
H2A C17A 1_555 1_555
C15A C14A 1_555 1_555
H13A C14A 1_555 1_555
H14A C14A 1_555 1_555
H3A C18A 1_555 1_555
H15A C15A 1_555 1_555
H16A C15A 1_555 1_555
H17A C15A 1_555 1_555
C8 C7A 1_555 1_555
C9 N1 1_555 1_555
C12 N1 1_555 1_555
S1A C2A 1_555 1_555
C10A C11A 1_555 1_555

#END
