
#######################################################################
#
#                 Cambridge Crystallographic Data Centre
#                                CCDC 
#
#######################################################################
#
# If this CIF has been generated from an entry in the Cambridge 
# Structural Database, then it will include bibliographic, chemical, 
# crystal, experimental, refinement or atomic coordinate data resulting 
# from the CCDC's data processing and validation procedures.
#
#######################################################################

data_KORLIM
_chemical_name_common            
(N,N',N,N'-bis(3,6-Dioxaoctamethylene)-1,9-bis(aminocarbonyl))-2,3,7,8-tetramethyldipyrrin
_chemical_formula_moiety         'C27 H39 N4 O6'
_chemical_name_systematic        
4,5,9,10-Tetramethyl-16,19,24,27-tetraoxa-1,13,30,31-tetra-azatetracyclo(11.8.8.1^3,6^.1^8,11^)untriaconta-3,5,7,9,11(30)-pentaen-2,12-dione
_symmetry_cell_setting           monoclinic
_symmetry_space_group_name_H-M   'C 2/c'
_symmetry_Int_Tables_number      15
_space_group_name_Hall           '-C 2yn'
loop_
_symmetry_equiv_pos_site_id
_symmetry_equiv_pos_as_xyz
1 x,y,z
2 1/2+x,1/2+y,z
3 -x,y,1/2-z
4 1/2-x,1/2+y,1/2-z
5 -x,-y,-z
6 1/2-x,1/2-y,-z
7 x,-y,1/2+z
8 1/2+x,1/2-y,1/2+z
_cell_length_a                   17.534(1)
_cell_length_b                   16.050(1)
_cell_length_c                   10.239(1)
_cell_angle_alpha                90
_cell_angle_beta                 112.59(1)
_cell_angle_gamma                90
_cell_volume                     2660.39
_exptl_crystal_colour            orange-red
_chemical_melting_point          256-257deg.C
_cell_formula_units_Z            4
loop_
_atom_site_label
_atom_site_type_symbol
_atom_site_fract_x
_atom_site_fract_y
_atom_site_fract_z
C1 C 0.1181(2) 0.4008(2) 0.1312(3)
C2 C 0.1494(2) 0.4776(2) 0.1049(3)
C3 C 0.1082(2) 0.5390(2) 0.1458(3)
C4 C 0.0535(2) 0.4986(2) 0.1978(3)
C5 C 0.0000 0.5359(3) 0.2500
C6 C 0.1346(2) 0.3186(2) 0.0811(3)
N1 N 0.0616(1) 0.4128(1) 0.1883(3)
N2 N 0.1396(1) 0.2489(2) 0.1580(3)
C7 C 0.1646(2) 0.2483(2) 0.3116(3)
C8 C 0.1089(2) 0.1971(2) 0.3610(3)
O1 O 0.1572(1) 0.1691(2) 0.4979(2)
C9 C 0.1291(3) 0.0974(3) 0.5430(5)
C10 C 0.1518(2) 0.1714(2) 0.0934(3)
C11 C 0.0762(2) 0.1433(2) -0.0272(4)
O2 O 0.0141(2) 0.1220(2) 0.0216(2)
C12 C 0.0624(3) 0.1063(3) 0.5921(4)
O3 O 0.1408(2) 0.3158(2) -0.0332(3)
C13 C 0.1165(2) 0.6314(2) 0.1351(3)
C14 C 0.2142(2) 0.4895(2) 0.0450(4)
H1 H 0.0000 0.5957 0.2500
H2 H 0.0342 0.3732 0.2148
H3 H 0.1657 0.3046 0.3437
H4 H 0.2195 0.2259 0.3548
H5 H 0.0869 0.1510 0.2981
H6 H 0.0640 0.2307 0.3628
H7 H 0.1744 0.0688 0.6133
H8 H 0.1071 0.0616 0.4619
H9 H 0.1668 0.1280 0.1633
H10 H 0.1966 0.1786 0.0626
H11 H 0.0884 0.0965 -0.0743
H12 H 0.0572 0.1883 -0.0936
H13 H 0.0580 0.0590 0.6459
H14 H 0.0768 0.1540 0.6535
H15 H 0.1582 0.6426 0.0983
H16 H 0.0648 0.6544 0.0726
H17 H 0.1321 0.6562 0.2270
H18 H 0.2229 0.5482 0.0384
H19 H 0.2648 0.4639 0.1060
H20 H 0.1965 0.4650 -0.0474
C4B C -0.0535(2) 0.4986(2) 0.3022(3)
C12B C -0.0624(3) 0.1063(3) -0.0921(4)
O2B O -0.0141(2) 0.1220(2) 0.4784(2)
C3B C -0.1082(2) 0.5390(2) 0.3542(3)
N1B N -0.0616(1) 0.4128(1) 0.3117(3)
C9B C -0.1291(3) 0.0974(3) -0.0430(5)
H13B H -0.0580 0.0590 -0.1459
H14B H -0.0768 0.1540 -0.1535
C11B C -0.0762(2) 0.1433(2) 0.5272(4)
C2B C -0.1494(2) 0.4776(2) 0.3951(3)
C13B C -0.1165(2) 0.6314(2) 0.3649(3)
C1B C -0.1181(2) 0.4008(2) 0.3688(3)
H2B H -0.0342 0.3732 0.2852
O1B O -0.1572(1) 0.1691(2) 0.0021(2)
H7B H -0.1744 0.0688 -0.1133
H8B H -0.1071 0.0616 0.0381
C10B C -0.1518(2) 0.1714(2) 0.4066(3)
H11B H -0.0884 0.0965 0.5743
H12B H -0.0572 0.1883 0.5936
C14B C -0.2142(2) 0.4895(2) 0.4550(4)
H15B H -0.1582 0.6426 0.4017
H16B H -0.0648 0.6544 0.4274
H17B H -0.1321 0.6562 0.2730
C6B C -0.1346(2) 0.3186(2) 0.4189(3)
C8B C -0.1089(2) 0.1971(2) 0.1390(3)
N2B N -0.1396(1) 0.2489(2) 0.3420(3)
H9B H -0.1668 0.1280 0.3367
H10B H -0.1966 0.1786 0.4374
H18B H -0.2229 0.5482 0.4616
H19B H -0.2648 0.4639 0.3940
H20B H -0.1965 0.4650 0.5474
O3B O -0.1408(2) 0.3158(2) 0.5332(3)
C7B C -0.1646(2) 0.2483(2) 0.1884(3)
H5B H -0.0869 0.1510 0.2019
H6B H -0.0640 0.2307 0.1372
H3B H -0.1657 0.3046 0.1563
H4B H -0.2195 0.2259 0.1452
loop_
_geom_bond_atom_site_label_1
_geom_bond_atom_site_label_2
_geom_bond_site_symmetry_1
_geom_bond_site_symmetry_2
C1 C2 1_555 1_555
C2 C3 1_555 1_555
C3 C4 1_555 1_555
C4 C5 1_555 1_555
C5 H1 1_555 1_555
C6 C1 1_555 1_555
N1 C1 1_555 1_555
N2 C6 1_555 1_555
C7 N2 1_555 1_555
C8 C7 1_555 1_555
O1 C8 1_555 1_555
C9 O1 1_555 1_555
C10 N2 1_555 1_555
C11 C10 1_555 1_555
O2 C11 1_555 1_555
C12 C9 1_555 1_555
O3 C6 1_555 1_555
C13 C3 1_555 1_555
C14 C2 1_555 1_555
H2 N1 1_555 1_555
H3 C7 1_555 1_555
H4 C7 1_555 1_555
H5 C8 1_555 1_555
H6 C8 1_555 1_555
H7 C9 1_555 1_555
H8 C9 1_555 1_555
H9 C10 1_555 1_555
H10 C10 1_555 1_555
H11 C11 1_555 1_555
H12 C11 1_555 1_555
H13 C12 1_555 1_555
H14 C12 1_555 1_555
H15 C13 1_555 1_555
H16 C13 1_555 1_555
H17 C13 1_555 1_555
H18 C14 1_555 1_555
H19 C14 1_555 1_555
H20 C14 1_555 1_555
C4B C5 1_555 1_555
C12B O2 1_555 1_555
O2B C12 1_555 1_555
C3B C4B 1_555 1_555
N1B C4B 1_555 1_555
C9B C12B 1_555 1_555
H13B C12B 1_555 1_555
H14B C12B 1_555 1_555
C11B O2B 1_555 1_555
C2B C3B 1_555 1_555
C13B C3B 1_555 1_555
C1B N1B 1_555 1_555
H2B N1B 1_555 1_555
O1B C9B 1_555 1_555
H7B C9B 1_555 1_555
H8B C9B 1_555 1_555
C10B C11B 1_555 1_555
H11B C11B 1_555 1_555
H12B C11B 1_555 1_555
C14B C2B 1_555 1_555
H15B C13B 1_555 1_555
H16B C13B 1_555 1_555
H17B C13B 1_555 1_555
C6B C1B 1_555 1_555
C8B O1B 1_555 1_555
N2B C10B 1_555 1_555
H9B C10B 1_555 1_555
H10B C10B 1_555 1_555
H18B C14B 1_555 1_555
H19B C14B 1_555 1_555
H20B C14B 1_555 1_555
O3B C6B 1_555 1_555
C7B C8B 1_555 1_555
H5B C8B 1_555 1_555
H6B C8B 1_555 1_555
H3B C7B 1_555 1_555
H4B C7B 1_555 1_555
C4 N1 1_555 1_555
C2B C1B 1_555 1_555
C6B N2B 1_555 1_555
N2B C7B 1_555 1_555

#END
