
#######################################################################
#
#                 Cambridge Crystallographic Data Centre
#                                CCDC 
#
#######################################################################
#
# If this CIF has been generated from an entry in the Cambridge 
# Structural Database, then it will include bibliographic, chemical, 
# crystal, experimental, refinement or atomic coordinate data resulting 
# from the CCDC's data processing and validation procedures.
#
#######################################################################

data_KORVIW
_chemical_formula_moiety         'C23 H18'
_chemical_name_systematic        1,2,4-Triphenylcyclopenta-1,3-diene
_symmetry_cell_setting           orthorhombic
_symmetry_space_group_name_H-M   'P b c a'
_symmetry_Int_Tables_number      61
_space_group_name_Hall           '-P 2ac 2ab'
loop_
_symmetry_equiv_pos_site_id
_symmetry_equiv_pos_as_xyz
1 x,y,z
2 1/2-x,1/2+y,z
3 x,1/2-y,1/2+z
4 1/2-x,-y,1/2+z
5 -x,-y,-z
6 1/2+x,1/2-y,-z
7 -x,1/2+y,1/2-z
8 1/2+x,y,1/2-z
_cell_length_a                   20.927(9)
_cell_length_b                   20.695(9)
_cell_length_c                   7.570(2)
_cell_angle_alpha                90
_cell_angle_beta                 90
_cell_angle_gamma                90
_cell_volume                     3278.45
_cell_formula_units_Z            8
loop_
_atom_site_label
_atom_site_type_symbol
_atom_site_fract_x
_atom_site_fract_y
_atom_site_fract_z
C1 C 0.3125(2) 0.1551(2) 0.2227(6)
C2 C 0.2611(2) 0.1948(2) 0.2521(6)
C3 C 0.2836(2) 0.2623(2) 0.2525(6)
C4 C 0.3481(2) 0.2634(2) 0.2202(6)
C5 C 0.3696(2) 0.1967(2) 0.2037(6)
C6 C 0.3170(2) 0.0844(2) 0.2181(6)
C7 C 0.2743(2) 0.0441(2) 0.3135(7)
C8 C 0.2808(2) -0.0221(2) 0.3080(7)
C9 C 0.3293(2) -0.0506(3) 0.2098(8)
C10 C 0.3706(2) -0.0122(3) 0.1174(7)
C11 C 0.3647(2) 0.0542(3) 0.1222(7)
C12 C 0.1923(2) 0.1798(2) 0.2747(6)
C13 C 0.1567(2) 0.2133(3) 0.3974(7)
C14 C 0.0928(3) 0.2018(3) 0.4170(9)
C15 C 0.0621(2) 0.1568(3) 0.3161(11)
C16 C 0.0967(3) 0.1226(2) 0.1933(9)
C17 C 0.1617(2) 0.1348(2) 0.1697(7)
C18 C 0.3891(2) 0.3211(2) 0.2049(6)
C19 C 0.4552(20) 0.3170(2) 0.2269(8)
C20 C 0.4929(2) 0.3713(3) 0.2145(9)
C21 C 0.4660(3) 0.4301(2) 0.1722(7)
C22 C 0.4025(3) 0.4346(2) 0.1464(7)
C23 C 0.3636(2) 0.3809(2) 0.1616(7)
loop_
_geom_bond_atom_site_label_1
_geom_bond_atom_site_label_2
_geom_bond_site_symmetry_1
_geom_bond_site_symmetry_2
C1 C2 1_555 1_555
C2 C3 1_555 1_555
C3 C4 1_555 1_555
C4 C5 1_555 1_555
C5 C1 1_555 1_555
C6 C1 1_555 1_555
C7 C6 1_555 1_555
C8 C7 1_555 1_555
C9 C8 1_555 1_555
C10 C9 1_555 1_555
C11 C6 1_555 1_555
C12 C2 1_555 1_555
C13 C12 1_555 1_555
C14 C13 1_555 1_555
C15 C14 1_555 1_555
C16 C15 1_555 1_555
C17 C12 1_555 1_555
C18 C4 1_555 1_555
C19 C18 1_555 1_555
C20 C19 1_555 1_555
C21 C20 1_555 1_555
C22 C21 1_555 1_555
C23 C18 1_555 1_555
C10 C11 1_555 1_555
C16 C17 1_555 1_555
C22 C23 1_555 1_555

#END
