
#######################################################################
#
#                 Cambridge Crystallographic Data Centre
#                                CCDC 
#
#######################################################################
#
# If this CIF has been generated from an entry in the Cambridge 
# Structural Database, then it will include bibliographic, chemical, 
# crystal, experimental, refinement or atomic coordinate data resulting 
# from the CCDC's data processing and validation procedures.
#
#######################################################################

data_KORVES
_chemical_compound_source        'Tripterygium wilfordii Hook F'
_chemical_name_common            Triptonide
_chemical_formula_moiety         'C20 H22 O6'
_chemical_name_systematic        
7,8:9,11:12,13-Triepoxy-18-nor-abiet-3-en-14-on-3,19-olide
_symmetry_cell_setting           monoclinic
_symmetry_space_group_name_H-M   'P 21'
_symmetry_Int_Tables_number      4
_space_group_name_Hall           'P 2yb'
loop_
_symmetry_equiv_pos_site_id
_symmetry_equiv_pos_as_xyz
1 x,y,z
2 -x,1/2+y,-z
_cell_length_a                   11.144(5)
_cell_length_b                   6.467(2)
_cell_length_c                   12.681(6)
_cell_angle_alpha                90
_cell_angle_beta                 103.54(4)
_cell_angle_gamma                90
_cell_volume                     888.497
_exptl_crystal_colour            colorless
_chemical_melting_point          251-252deg.C
_cell_formula_units_Z            2
loop_
_atom_site_label
_atom_site_type_symbol
_atom_site_fract_x
_atom_site_fract_y
_atom_site_fract_z
O1 O 1.0810(2) 0.5539 0.5017(1)
O2 O 0.9327(2) 0.5555(5) 0.5941(2)
O3 O 0.8620(2) 0.9675(4) 0.0167(1)
O4 O 0.5996(2) 0.7468(5) 0.0159(2)
O5 O 0.7453(2) 0.3600(4) -0.1114(2)
O6 O 0.8171(3) 0.8378(5) -0.1895(2)
C1 C 0.7013(2) 0.5659(6) 0.2444(2)
C2 C 0.7452(2) 0.5862(6) 0.3677(2)
C3 C 0.8830(2) 0.5781(5) 0.3974(2)
C4 C 0.9548(2) 0.5873(5) 0.3288(2)
C5 C 0.9097(2) 0.6196(5) 0.2083(2)
C6 C 0.9977(2) 0.7512(5) 0.1604(2)
C7 C 0.9457(2) 0.7973(5) 0.0427(2)
C8 C 0.8126(2) 0.7639(5) -0.0089(2)
C9 C 0.7277(2) 0.6870(5) 0.0596(2)
C10 C 0.7744(2) 0.7038(5) 0.1831(2)
C11 C 0.6344(2) 0.5340(6) 0.0098(2)
C12 C 0.6312(2) 0.4460(6) -0.0999(2)
C13 C 0.6985(2) 0.5428(5) -0.1725(2)
C14 C 0.7769(2) 0.7269(5) -0.1294(2)
C15 C 0.6569(3) 0.5239(7) -0.2953(2)
C16 C 0.6126(4) 0.3074(8) -0.3314(3)
C17 C 0.5557(5) 0.6840(1) -0.3373(3)
C18 C 0.9611(3) 0.5603(5) 0.5077(2)
C19 C 1.0868(3) 0.5666(6) 0.3883(2)
C20 C 0.7659(3) 0.9295(5) 0.2184(2)
loop_
_geom_bond_atom_site_label_1
_geom_bond_atom_site_label_2
_geom_bond_site_symmetry_1
_geom_bond_site_symmetry_2
O1 C18 1_555 1_555
O2 C18 1_555 1_555
O3 C7 1_555 1_555
O4 C9 1_555 1_555
O5 C12 1_555 1_555
O6 C14 1_555 1_555
C1 C2 1_555 1_555
C2 C3 1_555 1_555
C3 C4 1_555 1_555
C4 C5 1_555 1_555
C5 C6 1_555 1_555
C6 C7 1_555 1_555
C7 C8 1_555 1_555
C8 O3 1_555 1_555
C9 C8 1_555 1_555
C10 C1 1_555 1_555
C11 O4 1_555 1_555
C12 C11 1_555 1_555
C13 O5 1_555 1_555
C14 C8 1_555 1_555
C15 C13 1_555 1_555
C16 C15 1_555 1_555
C17 C15 1_555 1_555
C18 C3 1_555 1_555
C19 O1 1_555 1_555
C20 C10 1_555 1_555
C4 C19 1_555 1_555
C5 C10 1_555 1_555
C9 C10 1_555 1_555
C9 C11 1_555 1_555
C12 C13 1_555 1_555
C13 C14 1_555 1_555

#END
