
#######################################################################
#
#                 Cambridge Crystallographic Data Centre
#                                CCDC 
#
#######################################################################
#
# If this CIF has been generated from an entry in the Cambridge 
# Structural Database, then it will include bibliographic, chemical, 
# crystal, experimental, refinement or atomic coordinate data resulting 
# from the CCDC's data processing and validation procedures.
#
#######################################################################

data_KOSBOJ
_chemical_formula_moiety         'C18 H40 N4 P1 1+,C1 F3 O3 S1 1-'
_chemical_name_systematic        
'2,2-bis(Diethylamino)-1,3-dipropyl-4,5-dimethyl-1,3,2-diazaphospholenium trifluoromethanesulfonate'
_symmetry_cell_setting           triclinic
_symmetry_space_group_name_H-M   'P -1'
_symmetry_Int_Tables_number      2
_space_group_name_Hall           '-P 1'
loop_
_symmetry_equiv_pos_site_id
_symmetry_equiv_pos_as_xyz
1 x,y,z
2 -x,-y,-z
_cell_length_a                   9.143(4)
_cell_length_b                   10.704(5)
_cell_length_c                   13.610(8)
_cell_angle_alpha                85.7(2)
_cell_angle_beta                 78.2(2)
_cell_angle_gamma                83.3(2)
_cell_volume                     1293.12
_cell_formula_units_Z            2
_chemical_properties_physical    Air-sensitive
loop_
_atom_site_label
_atom_site_type_symbol
_atom_site_fract_x
_atom_site_fract_y
_atom_site_fract_z
S1 S 0.3228(2) 0.4861(2) -0.2116(1)
F1 F 0.4231(6) 0.3568(5) -0.3704(3)
F2 F 0.2046(6) 0.4521(6) -0.3655(4)
F3 F 0.2380(7) 0.2869(5) -0.2720(4)
O1 O 0.4243(6) 0.4058(5) -0.1616(4)
O2 O 0.1720(7) 0.5094(6) -0.1563(4)
O3 O 0.3865(8) 0.5932(5) -0.2658(5)
C1 C 0.2955(9) 0.3918(8) -0.3093(6)
P1 P 0.2228(2) 0.2347(1) 0.2391(2)
N1 N 0.3577(5) 0.1184(4) 0.2218(3)
N2 N 0.0903(5) 0.1403(4) 0.2605(4)
N3 N 0.2465(5) 0.3179(4) 0.3285(3)
N4 N 0.1976(5) 0.3339(4) 0.1466(3)
C2 C 0.1518(8) 0.0094(5) 0.2540(5)
C3 C 0.3024(7) 0.0010(5) 0.2316(4)
C4 C 0.4066(9) -0.1181(6) 0.2195(6)
C5 C 0.0486(9) -0.0897(6) 0.2642(6)
C6 C 0.5177(7) 0.1384(6) 0.1913(5)
C7 C 0.5791(8) 0.1295(6) 0.0794(5)
C8 C 0.7492(8) 0.1405(7) 0.0577(5)
C9 C -0.0686(7) 0.1788(6) 0.3003(5)
C10 C -0.1105(8) 0.1624(7) 0.4157(5)
C11 C -0.2801(9) 0.1842(8) 0.4515(6)
C12 C 0.3336(8) 0.2648(6) 0.4049(4)
C13 C 0.252(1) 0.1755(8) 0.4826(5)
C14 C 0.1427(8) 0.4343(6) 0.3567(5)
C15 C 0.226(1) 0.5457(6) 0.3677(6)
C16 C 0.1127(7) 0.3019(6) 0.0714(4)
C17 C 0.1952(9) 0.2002(7) 0.0020(5)
C18 C 0.3010(8) 0.4330(6) 0.1127(5)
C19 C 0.214(1) 0.5637(6) 0.1001(6)
H1 H 0.3484 -0.1898 0.2288
H2 H 0.4689 -0.1170 0.1526
H3 H 0.4699 -0.1246 0.2691
H4 H 0.1064 -0.1715 0.2581
H5 H -0.0182 -0.0865 0.3294
H6 H -0.0101 -0.0757 0.2117
H7 H 0.5752 0.0752 0.2269
H8 H 0.5302 0.2215 0.2101
H9 H 0.5294 0.1972 0.0428
H10 H 0.5608 0.0491 0.0582
H11 H 0.7886 0.1348 -0.0137
H12 H 0.7672 0.2208 0.0789
H13 H 0.7986 0.0727 0.0942
H14 H -0.1289 0.1282 0.2715
H15 H -0.0905 0.2668 0.2806
H16 H -0.0629 0.2225 0.4452
H17 H -0.0753 0.0775 0.4367
H18 H -0.3043 0.1734 0.5242
H19 H -0.3157 0.2690 0.4308
H20 H -0.3281 0.1240 0.4223
H21 H 0.3570 0.3338 0.4392
H22 H 0.4260 0.2196 0.3708
H23 H 0.3159 0.1444 0.5300
H24 H 0.1600 0.2193 0.5180
H25 H 0.2290 0.1051 0.4495
H26 H 0.0759 0.4166 0.4200
H27 H 0.0840 0.4564 0.3048
H28 H 0.1542 0.6183 0.3859
H29 H 0.2844 0.5249 0.4198
H30 H 0.2926 0.5647 0.3045
H31 H 0.0920 0.3775 0.0305
H32 H 0.0187 0.2728 0.1071
H33 H 0.1333 0.1843 -0.0448
H34 H 0.2891 0.2281 -0.0350
H35 H 0.2157 0.1234 0.0415
H36 H 0.3645 0.4114 0.0487
H37 H 0.3629 0.4364 0.1622
H38 H 0.2843 0.6259 0.0780
H39 H 0.1519 0.5611 0.0504
H40 H 0.1503 0.5861 0.1638
loop_
_geom_bond_atom_site_label_1
_geom_bond_atom_site_label_2
_geom_bond_site_symmetry_1
_geom_bond_site_symmetry_2
S1 O1 1_555 1_555
F1 C1 1_555 1_555
F2 C1 1_555 1_555
F3 C1 1_555 1_555
O2 S1 1_555 1_555
O3 S1 1_555 1_555
C1 S1 1_555 1_555
P1 N1 1_555 1_555
N1 C3 1_555 1_555
N2 P1 1_555 1_555
N3 P1 1_555 1_555
N4 P1 1_555 1_555
C2 N2 1_555 1_555
C3 C2 1_555 1_555
C4 C3 1_555 1_555
C5 C2 1_555 1_555
C6 N1 1_555 1_555
C7 C6 1_555 1_555
C8 C7 1_555 1_555
C9 N2 1_555 1_555
C10 C9 1_555 1_555
C11 C10 1_555 1_555
C12 N3 1_555 1_555
C13 C12 1_555 1_555
C14 N3 1_555 1_555
C15 C14 1_555 1_555
C16 N4 1_555 1_555
C17 C16 1_555 1_555
C18 N4 1_555 1_555
C19 C18 1_555 1_555
H1 C4 1_555 1_555
H2 C4 1_555 1_555
H3 C4 1_555 1_555
H4 C5 1_555 1_555
H5 C5 1_555 1_555
H6 C5 1_555 1_555
H7 C6 1_555 1_555
H8 C6 1_555 1_555
H9 C7 1_555 1_555
H10 C7 1_555 1_555
H11 C8 1_555 1_555
H12 C8 1_555 1_555
H13 C8 1_555 1_555
H14 C9 1_555 1_555
H15 C9 1_555 1_555
H16 C10 1_555 1_555
H17 C10 1_555 1_555
H18 C11 1_555 1_555
H19 C11 1_555 1_555
H20 C11 1_555 1_555
H21 C12 1_555 1_555
H22 C12 1_555 1_555
H23 C13 1_555 1_555
H24 C13 1_555 1_555
H25 C13 1_555 1_555
H26 C14 1_555 1_555
H27 C14 1_555 1_555
H28 C15 1_555 1_555
H29 C15 1_555 1_555
H30 C15 1_555 1_555
H31 C16 1_555 1_555
H32 C16 1_555 1_555
H33 C17 1_555 1_555
H34 C17 1_555 1_555
H35 C17 1_555 1_555
H36 C18 1_555 1_555
H37 C18 1_555 1_555
H38 C19 1_555 1_555
H39 C19 1_555 1_555
H40 C19 1_555 1_555

#END
