
#######################################################################
#
#                 Cambridge Crystallographic Data Centre
#                                CCDC 
#
#######################################################################
#
# If this CIF has been generated from an entry in the Cambridge 
# Structural Database, then it will include bibliographic, chemical, 
# crystal, experimental, refinement or atomic coordinate data resulting 
# from the CCDC's data processing and validation procedures.
#
#######################################################################

data_KOSHIL
_chemical_formula_moiety         'C15 H16 O3'
_chemical_name_systematic        4-cyclohexyl-3-hydroxy-2H-chromen-2-one
_symmetry_cell_setting           monoclinic
_symmetry_space_group_name_H-M   'P 21/n'
_symmetry_Int_Tables_number      14
_space_group_name_Hall           '-P 2yn'
loop_
_symmetry_equiv_pos_site_id
_symmetry_equiv_pos_as_xyz
1 x,y,z
2 1/2-x,1/2+y,1/2-z
3 -x,-y,-z
4 1/2+x,1/2-y,1/2+z
_cell_length_a                   5.518(2)
_cell_length_b                   26.082(10)
_cell_length_c                   8.581(5)
_cell_angle_alpha                90
_cell_angle_beta                 94.23(4)
_cell_angle_gamma                90
_cell_volume                     1231.62
_exptl_crystal_colour            colorless
_exptl_crystal_description       needle
_cell_formula_units_Z            4
loop_
_atom_site_label
_atom_site_type_symbol
_atom_site_fract_x
_atom_site_fract_y
_atom_site_fract_z
O1 O -0.0109(3) 0.47356(6) 0.7929(2)
O2 O -0.3303(3) 0.50191(7) 0.6503(2)
O3 O -0.2946(3) 0.42966(7) 0.4265(2)
H1 H -0.3896 0.4536 0.4331
C1 C 0.1800(4) 0.43938(9) 0.8181(3)
C2 C -0.1659(4) 0.47084(9) 0.6638(3)
C3 C 0.2202(4) 0.40096(9) 0.7089(3)
C4 C 0.0544(4) 0.39593(9) 0.5695(3)
C5 C -0.1280(4) 0.43045(9) 0.5509(3)
C6 C 0.0810(4) 0.35182(10) 0.4557(3)
H2 H 0.2295 0.3334 0.4917
C7 C 0.4246(4) 0.36988(10) 0.7455(3)
H3 H 0.4598 0.3437 0.6772
C8 C 0.1414(5) 0.32267(12) 0.1816(3)
H4 H 0.1489 0.3345 0.0748
H5 H 0.2928 0.3053 0.2122
C9 C -0.0987(6) 0.26805(11) 0.3547(3)
H6 H 0.0419 0.2482 0.3930
H7 H -0.2407 0.2461 0.3555
C10 C 0.1131(5) 0.36864(11) 0.2881(3)
H8 H -0.0270 0.3886 0.2494
H9 H 0.2556 0.3903 0.2864
C11 C 0.3236(5) 0.44625(10) 0.9544(3)
H10 H 0.2868 0.4716 1.0250
C12 C 0.5741(5) 0.37706(10) 0.8793(3)
H11 H 0.7101 0.3563 0.8989
C13 C -0.1287(6) 0.31362(10) 0.4626(3)
H12 H -0.1354 0.3015 0.5691
H13 H -0.2809 0.3308 0.4327
C14 C -0.0668(5) 0.28537(11) 0.1891(3)
H14 H -0.0371 0.2557 0.1251
H15 H -0.2156 0.3015 0.1465
C15 C 0.5229(5) 0.41501(11) 0.9847(3)
H16 H 0.6228 0.4194 1.0759
loop_
_geom_bond_atom_site_label_1
_geom_bond_atom_site_label_2
_geom_bond_site_symmetry_1
_geom_bond_site_symmetry_2
O1 C1 1_555 1_555
O2 C2 1_555 1_555
O3 H1 1_555 1_555
C1 C3 1_555 1_555
C2 O1 1_555 1_555
C3 C4 1_555 1_555
C4 C5 1_555 1_555
C5 O3 1_555 1_555
C6 C4 1_555 1_555
H2 C6 1_555 1_555
C7 C3 1_555 1_555
H3 C7 1_555 1_555
C8 H4 1_555 1_555
H5 C8 1_555 1_555
C9 H6 1_555 1_555
H7 C9 1_555 1_555
C10 C6 1_555 1_555
H8 C10 1_555 1_555
H9 C10 1_555 1_555
C11 C1 1_555 1_555
H10 C11 1_555 1_555
C12 C7 1_555 1_555
H11 C12 1_555 1_555
C13 C6 1_555 1_555
H12 C13 1_555 1_555
H13 C13 1_555 1_555
C14 C8 1_555 1_555
H14 C14 1_555 1_555
H15 C14 1_555 1_555
C15 C11 1_555 1_555
H16 C15 1_555 1_555
C2 C5 1_555 1_555
C8 C10 1_555 1_555
C9 C13 1_555 1_555
C9 C14 1_555 1_555
C12 C15 1_555 1_555

#END
