
#######################################################################
#
#                 Cambridge Crystallographic Data Centre
#                                CCDC 
#
#######################################################################
#
# If this CIF has been generated from an entry in the Cambridge 
# Structural Database, then it will include bibliographic, chemical, 
# crystal, experimental, refinement or atomic coordinate data resulting 
# from the CCDC's data processing and validation procedures.
#
#######################################################################

data_KOSHUX
_chemical_formula_moiety         'C14 H19 N1 O1'
_chemical_name_systematic        2-(4-t-butylphenyl)cyclopropanecarboxamide
_symmetry_cell_setting           monoclinic
_symmetry_space_group_name_H-M   'C 2'
_symmetry_Int_Tables_number      5
_space_group_name_Hall           'C 2y'
loop_
_symmetry_equiv_pos_site_id
_symmetry_equiv_pos_as_xyz
1 x,y,z
2 -x,y,-z
3 1/2+x,1/2+y,z
4 1/2-x,1/2+y,-z
_cell_length_a                   7.0592(2)
_cell_length_b                   9.6718(3)
_cell_length_c                   18.5618(6)
_cell_angle_alpha                90
_cell_angle_beta                 91.179(2)
_cell_angle_gamma                90
_cell_volume                     1267.04
_exptl_crystal_colour            colorless
_exptl_crystal_description       needle
_cell_formula_units_Z            4
loop_
_atom_site_label
_atom_site_type_symbol
_atom_site_fract_x
_atom_site_fract_y
_atom_site_fract_z
N1 N -0.2539(3) 0.68310(19) -0.04139(9)
C1 C -0.2536(2) 0.7923(2) 0.00175(9)
C2 C -0.2621(2) 0.7599(2) 0.07987(9)
H1 H -0.2780 0.6614 0.0929
C3 C -0.1395(3) 0.8474(2) 0.13096(9)
H2 H -0.0679 0.9227 0.1077
C4 C -0.0404(2) 0.77922(19) 0.19268(8)
C5 C -0.1255(3) 0.6784(2) 0.23456(10)
H3 H -0.2509 0.6518 0.2238
C6 C -0.0298(3) 0.6165(2) 0.29165(10)
H4 H -0.0921 0.5490 0.3188
C7 C 0.1561(3) 0.65115(19) 0.31010(9)
C8 C 0.2588(3) 0.5885(2) 0.37591(10)
C9 C 0.4683(4) 0.5646(3) 0.36158(13)
H5 H 0.4808 0.5022 0.3210
H6 H 0.5290 0.5242 0.4039
H7 H 0.5283 0.6521 0.3507
C10 C 0.1722(5) 0.4523(4) 0.3984(2)
H8 H 0.1779 0.3871 0.3588
H9 H 0.0411 0.4669 0.4111
H10 H 0.2420 0.4158 0.4397
C11 C -0.3508(3) 0.8640(2) 0.12864(10)
H11 H -0.4216 0.8290 0.1697
H12 H -0.4027 0.9483 0.1066
C12 C 0.1449(3) 0.8141(2) 0.21083(10)
H13 H 0.2071 0.8818 0.1837
C13 C 0.2405(3) 0.7516(2) 0.26791(10)
H14 H 0.3662 0.7778 0.2785
C14 C 0.2457(4) 0.6942(3) 0.43782(12)
H15 H 0.3091 0.6576 0.4806
H16 H 0.1136 0.7116 0.4480
H17 H 0.3061 0.7799 0.4238
O1 O -0.2465(2) 0.91199(14) -0.02137(7)
H18 H -0.243(3) 0.696(3) -0.0859(15)
H19 H -0.252(3) 0.599(3) -0.0242(13)
loop_
_geom_bond_atom_site_label_1
_geom_bond_atom_site_label_2
_geom_bond_site_symmetry_1
_geom_bond_site_symmetry_2
N1 C1 1_555 1_555
C1 C2 1_555 1_555
C2 H1 1_555 1_555
C3 C2 1_555 1_555
H2 C3 1_555 1_555
C4 C3 1_555 1_555
C5 C4 1_555 1_555
H3 C5 1_555 1_555
C6 C5 1_555 1_555
H4 C6 1_555 1_555
C7 C6 1_555 1_555
C8 C7 1_555 1_555
C9 C8 1_555 1_555
H5 C9 1_555 1_555
H6 C9 1_555 1_555
H7 C9 1_555 1_555
C10 C8 1_555 1_555
H8 C10 1_555 1_555
H9 C10 1_555 1_555
H10 C10 1_555 1_555
C11 C2 1_555 1_555
H11 C11 1_555 1_555
H12 C11 1_555 1_555
C12 C4 1_555 1_555
H13 C12 1_555 1_555
C13 C7 1_555 1_555
H14 C13 1_555 1_555
C14 C8 1_555 1_555
H15 C14 1_555 1_555
H16 C14 1_555 1_555
H17 C14 1_555 1_555
O1 C1 1_555 1_555
H18 N1 1_555 1_555
H19 N1 1_555 1_555
C3 C11 1_555 1_555
C12 C13 1_555 1_555

#END
