
#######################################################################
#
#                 Cambridge Crystallographic Data Centre
#                                CCDC 
#
#######################################################################
#
# If this CIF has been generated from an entry in the Cambridge 
# Structural Database, then it will include bibliographic, chemical, 
# crystal, experimental, refinement or atomic coordinate data resulting 
# from the CCDC's data processing and validation procedures.
#
#######################################################################

data_KOSHEH
_chemical_formula_moiety         'C20 H25 N1 O4'
_chemical_name_systematic        
3-(t-butylperoxy)-4-cyclohexyl-2-oxochromane-3-carbonitrile
_symmetry_cell_setting           monoclinic
_symmetry_space_group_name_H-M   'P 21/n'
_symmetry_Int_Tables_number      14
_space_group_name_Hall           '-P 2yn'
loop_
_symmetry_equiv_pos_site_id
_symmetry_equiv_pos_as_xyz
1 x,y,z
2 1/2-x,1/2+y,1/2-z
3 -x,-y,-z
4 1/2+x,1/2-y,1/2+z
_cell_length_a                   9.6382(7)
_cell_length_b                   12.5190(9)
_cell_length_c                   16.1542(12)
_cell_angle_alpha                90
_cell_angle_beta                 101.439(2)
_cell_angle_gamma                90
_cell_volume                     1910.46
_exptl_crystal_colour            colorless
_exptl_crystal_description       needle
_cell_formula_units_Z            4
loop_
_atom_site_label
_atom_site_type_symbol
_atom_site_fract_x
_atom_site_fract_y
_atom_site_fract_z
C1 C 0.1680(3) 0.3566(2) 0.30690(17)
H1 H 0.2139 0.2907 0.2937
C2 C -0.0852(4) 0.4128(3) 0.25961(17)
C3 C 0.1918(3) 0.4403(2) 0.24159(19)
C4 C 0.0114(4) 0.3347(3) 0.29096(17)
C5 C 0.2351(3) 0.3859(2) 0.39936(18)
H2 H 0.3350 0.4019 0.4007
C6 C 0.1717(3) 0.4844(2) 0.43333(18)
H3 H 0.1841 0.5455 0.3987
H4 H 0.0709 0.4734 0.4290
C7 C -0.0435(4) 0.2354(3) 0.30562(18)
H5 H 0.0177 0.1794 0.3251
C8 C 0.2314(3) 0.2921(2) 0.45867(19)
H6 H 0.1337 0.2724 0.4574
H7 H 0.2780 0.2313 0.4388
C9 C -0.2797(4) 0.2998(4) 0.2629(2)
H8 H -0.3769 0.2887 0.2552
C10 C -0.2288(4) 0.3978(3) 0.24527(17)
H9 H -0.2905 0.4528 0.2240
C11 C 0.2350(3) 0.4125(3) 0.5812(2)
H10 H 0.2844 0.4292 0.6381
H11 H 0.1375 0.3960 0.5833
C12 C -0.1888(5) 0.2189(3) 0.2915(2)
H12 H -0.2241 0.1521 0.3018
C13 C 0.3030(4) 0.3169(3) 0.5489(2)
H13 H 0.2956 0.2556 0.5845
H14 H 0.4027 0.3311 0.5513
C14 C 0.2393(3) 0.5084(3) 0.5249(2)
H15 H 0.3369 0.5299 0.5281
H16 H 0.1896 0.5674 0.5449
C15 C 0.0958(4) 0.5382(3) 0.23909(17)
C16 C 0.2341(4) 0.4020(2) 0.0330(2)
C17 C 0.1197(4) 0.3268(3) -0.0093(2)
H17 H 0.1021 0.2743 0.0308
H18 H 0.1496 0.2917 -0.0556
H19 H 0.0346 0.3663 -0.0299
C18 C 0.3401(5) 0.4761(3) 0.25643(19)
C19 C 0.3701(4) 0.3448(3) 0.0690(2)
H20 H 0.4390 0.3954 0.0963
H21 H 0.4050 0.3099 0.0242
H22 H 0.3531 0.2925 0.1093
C20 C 0.2570(4) 0.4925(3) -0.0252(2)
H23 H 0.1690 0.5290 -0.0448
H24 H 0.2912 0.4642 -0.0726
H25 H 0.3252 0.5416 0.0050
O1 O 0.15730(19) 0.38535(14) 0.16255(13)
O2 O -0.0406(2) 0.51643(16) 0.24161(11)
O3 O 0.1831(2) 0.46230(15) 0.09831(12)
O4 O 0.1305(2) 0.62822(19) 0.23225(13)
N1 N 0.4568(3) 0.5002(2) 0.26886(19)
loop_
_geom_bond_atom_site_label_1
_geom_bond_atom_site_label_2
_geom_bond_site_symmetry_1
_geom_bond_site_symmetry_2
C1 H1 1_555 1_555
C2 C4 1_555 1_555
C3 C1 1_555 1_555
C4 C1 1_555 1_555
C5 C1 1_555 1_555
H2 C5 1_555 1_555
C6 C5 1_555 1_555
H3 C6 1_555 1_555
H4 C6 1_555 1_555
C7 C4 1_555 1_555
H5 C7 1_555 1_555
C8 C5 1_555 1_555
H6 C8 1_555 1_555
H7 C8 1_555 1_555
C9 H8 1_555 1_555
C10 C2 1_555 1_555
H9 C10 1_555 1_555
C11 H10 1_555 1_555
H11 C11 1_555 1_555
C12 C7 1_555 1_555
H12 C12 1_555 1_555
C13 C8 1_555 1_555
H13 C13 1_555 1_555
H14 C13 1_555 1_555
C14 C6 1_555 1_555
H15 C14 1_555 1_555
H16 C14 1_555 1_555
C15 C3 1_555 1_555
C16 C17 1_555 1_555
C17 H17 1_555 1_555
H18 C17 1_555 1_555
H19 C17 1_555 1_555
C18 C3 1_555 1_555
C19 C16 1_555 1_555
H20 C19 1_555 1_555
H21 C19 1_555 1_555
H22 C19 1_555 1_555
C20 C16 1_555 1_555
H23 C20 1_555 1_555
H24 C20 1_555 1_555
H25 C20 1_555 1_555
O1 C3 1_555 1_555
O2 C2 1_555 1_555
O3 C16 1_555 1_555
O4 C15 1_555 1_555
N1 C18 1_555 1_555
C9 C10 1_555 1_555
C9 C12 1_555 1_555
C11 C13 1_555 1_555
C11 C14 1_555 1_555
C15 O2 1_555 1_555
O1 O3 1_555 1_555

#END
