
#######################################################################
#
#                 Cambridge Crystallographic Data Centre
#                                CCDC 
#
#######################################################################
#
# If this CIF has been generated from an entry in the Cambridge 
# Structural Database, then it will include bibliographic, chemical, 
# crystal, experimental, refinement or atomic coordinate data resulting 
# from the CCDC's data processing and validation procedures.
#
#######################################################################

data_KOSMUC
_chemical_formula_moiety         'C26 H23 N1 O2 S1'
_chemical_name_systematic        4-methyl-N-tritylbenzenesulfonamide
_symmetry_cell_setting           triclinic
_symmetry_space_group_name_H-M   'P -1'
_symmetry_Int_Tables_number      2
_space_group_name_Hall           '-P 1'
loop_
_symmetry_equiv_pos_site_id
_symmetry_equiv_pos_as_xyz
1 x,y,z
2 -x,-y,-z
_cell_length_a                   8.0914(16)
_cell_length_b                   10.928(2)
_cell_length_c                   13.830(3)
_cell_angle_alpha                107.341(3)
_cell_angle_beta                 104.389(3)
_cell_angle_gamma                102.082(3)
_cell_volume                     1076.27
_exptl_crystal_colour            colorless
_exptl_crystal_description       rod
_cell_formula_units_Z            2
loop_
_atom_site_label
_atom_site_type_symbol
_atom_site_fract_x
_atom_site_fract_y
_atom_site_fract_z
N1 N 0.0558(4) 0.6622(3) 0.1620(2)
H1 H 0.1062 0.5997 0.1521
C1 C 0.0062(5) 0.7018(3) 0.2611(3)
C2 C -0.1968(5) 0.6425(4) 0.2354(3)
C3 C -0.3038(5) 0.5399(4) 0.1392(3)
H2 H -0.2562 0.5144 0.0843
C4 C -0.4804(5) 0.4742(4) 0.1225(3)
H3 H -0.5494 0.4045 0.0575
C5 C -0.5532(6) 0.5119(5) 0.2017(4)
H4 H -0.6723 0.4686 0.1902
C6 C -0.4509(6) 0.6133(5) 0.2978(3)
H5 H -0.5005 0.6390 0.3516
C7 C -0.2743(5) 0.6773(4) 0.3150(3)
H6 H -0.2054 0.7451 0.3811
C8 C 0.0910(4) 0.6334(3) 0.3351(3)
C9 C 0.0775(5) 0.4986(4) 0.2935(3)
H7 H 0.0208 0.4502 0.2202
C10 C 0.1467(6) 0.4344(4) 0.3589(3)
H8 H 0.1386 0.3440 0.3293
C11 C 0.2276(6) 0.5042(5) 0.4679(4)
H9 H 0.2757 0.4617 0.5119
C12 C 0.2367(6) 0.6366(5) 0.5109(3)
H10 H 0.2885 0.6835 0.5847
C13 C 0.1693(5) 0.7005(4) 0.4451(3)
H11 H 0.1765 0.7906 0.4754
C14 C 0.0851(5) 0.8549(3) 0.3149(3)
C15 C -0.0146(6) 0.9425(4) 0.3264(3)
H12 H -0.1390 0.9089 0.3026
C16 C 0.0691(7) 1.0815(4) 0.3736(3)
H13 H 0.0001 1.1396 0.3820
C17 C 0.2517(8) 1.1327(4) 0.4075(3)
H14 H 0.3068 1.2253 0.4387
C18 C 0.3529(6) 1.0471(4) 0.3953(3)
H15 H 0.4772 1.0814 0.4185
C19 C 0.2705(5) 0.9100(4) 0.3487(3)
H16 H 0.3406 0.8528 0.3395
S1 S 0.02110(13) 0.72914(9) 0.07163(7)
O1 O -0.1211(3) 0.7875(2) 0.0744(2)
O2 O 0.0056(4) 0.6266(2) -0.02657(19)
C20 C 0.2188(5) 0.8592(4) 0.1040(3)
C21 C 0.3786(6) 0.8301(4) 0.1132(3)
H17 H 0.3827 0.7436 0.1066
C22 C 0.5326(6) 0.9299(5) 0.1321(3)
H18 H 0.6400 0.9100 0.1374
C23 C 0.5286(7) 1.0594(5) 0.1431(3)
C24 C 0.3680(7) 1.0866(4) 0.1346(3)
H19 H 0.3638 1.1732 0.1423
C25 C 0.2127(6) 0.9870(4) 0.1148(3)
H20 H 0.1050 1.0066 0.1089
C26 C 0.6987(6) 1.1681(5) 0.1636(4)
H21 H 0.6729 1.2514 0.1699
H22 H 0.7434 1.1422 0.1049
H23 H 0.7873 1.1794 0.2290
loop_
_geom_bond_atom_site_label_1
_geom_bond_atom_site_label_2
_geom_bond_site_symmetry_1
_geom_bond_site_symmetry_2
N1 H1 1_555 1_555
C1 N1 1_555 1_555
C2 C1 1_555 1_555
C3 C2 1_555 1_555
H2 C3 1_555 1_555
C4 C3 1_555 1_555
H3 C4 1_555 1_555
C5 C4 1_555 1_555
H4 C5 1_555 1_555
C6 C5 1_555 1_555
H5 C6 1_555 1_555
C7 C2 1_555 1_555
H6 C7 1_555 1_555
C8 C1 1_555 1_555
C9 C8 1_555 1_555
H7 C9 1_555 1_555
C10 C9 1_555 1_555
H8 C10 1_555 1_555
C11 C10 1_555 1_555
H9 C11 1_555 1_555
C12 C11 1_555 1_555
H10 C12 1_555 1_555
C13 C8 1_555 1_555
H11 C13 1_555 1_555
C14 C1 1_555 1_555
C15 C14 1_555 1_555
H12 C15 1_555 1_555
C16 C15 1_555 1_555
H13 C16 1_555 1_555
C17 C16 1_555 1_555
H14 C17 1_555 1_555
C18 C17 1_555 1_555
H15 C18 1_555 1_555
C19 C14 1_555 1_555
H16 C19 1_555 1_555
S1 N1 1_555 1_555
O1 S1 1_555 1_555
O2 S1 1_555 1_555
C20 S1 1_555 1_555
C21 C20 1_555 1_555
H17 C21 1_555 1_555
C22 C21 1_555 1_555
H18 C22 1_555 1_555
C23 C22 1_555 1_555
C24 C23 1_555 1_555
H19 C24 1_555 1_555
C25 C20 1_555 1_555
H20 C25 1_555 1_555
C26 C23 1_555 1_555
H21 C26 1_555 1_555
H22 C26 1_555 1_555
H23 C26 1_555 1_555
C6 C7 1_555 1_555
C12 C13 1_555 1_555
C18 C19 1_555 1_555
C24 C25 1_555 1_555

#END
