
#######################################################################
#
#                 Cambridge Crystallographic Data Centre
#                                CCDC 
#
#######################################################################
#
# If this CIF has been generated from an entry in the Cambridge 
# Structural Database, then it will include bibliographic, chemical, 
# crystal, experimental, refinement or atomic coordinate data resulting 
# from the CCDC's data processing and validation procedures.
#
#######################################################################

data_KOSNEN
_chemical_formula_moiety         'C17 H19 N1 O2 S1'
_chemical_name_systematic        
4-methyl-N-(1,2,3,4-tetrahydronaphthalen-1-yl)benzenesulfonamide
_symmetry_cell_setting           monoclinic
_symmetry_space_group_name_H-M   'P 2/n'
_symmetry_Int_Tables_number      13
_space_group_name_Hall           '-P 2yac'
loop_
_symmetry_equiv_pos_site_id
_symmetry_equiv_pos_as_xyz
1 x,y,z
2 1/2-x,y,1/2-z
3 -x,-y,-z
4 1/2+x,-y,1/2+z
_cell_length_a                   11.028(2)
_cell_length_b                   11.747(2)
_cell_length_c                   12.630(3)
_cell_angle_alpha                90
_cell_angle_beta                 101.991(3)
_cell_angle_gamma                90
_cell_volume                     1600.46
_exptl_crystal_colour            colorless
_exptl_crystal_description       broken
_cell_formula_units_Z            4
loop_
_atom_site_label
_atom_site_type_symbol
_atom_site_fract_x
_atom_site_fract_y
_atom_site_fract_z
S1 S 0.92007(11) 0.36827(10) 1.10071(8)
O1 O 0.9566(3) 0.4840(3) 1.1247(2)
O2 O 0.9326(3) 0.2889(3) 1.1866(2)
N1 N 1.0015(3) 0.3276(3) 1.0164(3)
H1 H 1.0526 0.3748 0.9974
C1 C 0.9916(4) 0.2134(3) 0.9712(3)
H2 H 0.9392 0.1695 1.0102
C2 C 0.9269(5) 0.2134(4) 0.8519(4)
H3 H 0.8422 0.2398 0.8450
H4 H 0.9692 0.2656 0.8123
C3 C 0.9261(5) 0.0982(5) 0.8044(5)
H5 H 0.8812 0.1001 0.7297
H6 H 0.8834 0.0461 0.8438
C4 C 1.0555(5) 0.0558(5) 0.8086(5)
H7 H 1.0881 0.0924 0.7515
H8 H 1.0524 -0.0254 0.7944
C5 C 1.2575(6) 0.0214(5) 0.9407(5)
H9 H 1.2771 -0.0317 0.8923
C6 C 1.3413(5) 0.0428(6) 1.0355(6)
H10 H 1.4165 0.0041 1.0504
C7 C 1.3151(5) 0.1203(5) 1.1076(5)
H11 H 1.3720 0.1352 1.1714
C8 C 1.2036(4) 0.1761(4) 1.0849(4)
H12 H 1.1859 0.2294 1.1339
C9 C 1.1436(4) 0.0775(4) 0.9157(4)
C10 C 1.1160(4) 0.1550(3) 0.9900(3)
C11 C 0.7639(4) 0.3680(3) 1.0327(3)
C12 C 0.7265(4) 0.4318(4) 0.9400(3)
H13 H 0.7840 0.4753 0.9134
C13 C 0.6055(5) 0.4311(4) 0.8875(4)
H14 H 0.5818 0.4742 0.8248
C14 C 0.5176(4) 0.3688(5) 0.9243(4)
C15 C 0.5555(5) 0.3075(5) 1.0174(5)
H15 H 0.4972 0.2658 1.0448
C16 C 0.6778(5) 0.3057(4) 1.0721(4)
H16 H 0.7014 0.2627 1.1349
C17 C 0.3841(5) 0.3686(5) 0.8657(5)
H17 H 0.3748 0.4156 0.8023
H18 H 0.3332 0.3978 0.9126
H19 H 0.3591 0.2922 0.8447
loop_
_geom_bond_atom_site_label_1
_geom_bond_atom_site_label_2
_geom_bond_site_symmetry_1
_geom_bond_site_symmetry_2
S1 O1 1_555 1_555
O2 S1 1_555 1_555
N1 S1 1_555 1_555
H1 N1 1_555 1_555
C1 N1 1_555 1_555
H2 C1 1_555 1_555
C2 C1 1_555 1_555
H3 C2 1_555 1_555
H4 C2 1_555 1_555
C3 C2 1_555 1_555
H5 C3 1_555 1_555
H6 C3 1_555 1_555
C4 C3 1_555 1_555
H7 C4 1_555 1_555
H8 C4 1_555 1_555
C5 H9 1_555 1_555
C6 C5 1_555 1_555
H10 C6 1_555 1_555
C7 C6 1_555 1_555
H11 C7 1_555 1_555
C8 C7 1_555 1_555
H12 C8 1_555 1_555
C9 C4 1_555 1_555
C10 C1 1_555 1_555
C11 S1 1_555 1_555
C12 C11 1_555 1_555
H13 C12 1_555 1_555
C13 C12 1_555 1_555
H14 C13 1_555 1_555
C14 C13 1_555 1_555
C15 C14 1_555 1_555
H15 C15 1_555 1_555
C16 C11 1_555 1_555
H16 C16 1_555 1_555
C17 C14 1_555 1_555
H17 C17 1_555 1_555
H18 C17 1_555 1_555
H19 C17 1_555 1_555
C5 C9 1_555 1_555
C8 C10 1_555 1_555
C9 C10 1_555 1_555
C15 C16 1_555 1_555

#END
