
#######################################################################
#
#                 Cambridge Crystallographic Data Centre
#                                CCDC 
#
#######################################################################
#
# If this CIF has been generated from an entry in the Cambridge 
# Structural Database, then it will include bibliographic, chemical, 
# crystal, experimental, refinement or atomic coordinate data resulting 
# from the CCDC's data processing and validation procedures.
#
#######################################################################

data_KOSPEP
_chemical_formula_moiety         'C15 H20 N1 O2 S1'
_chemical_name_systematic        
9-((4-methylphenyl)sulfonyl)-9-azabicyclo[6.1.0]nonane
_symmetry_cell_setting           triclinic
_symmetry_space_group_name_H-M   'P -1'
_symmetry_Int_Tables_number      2
_space_group_name_Hall           '-P 1'
loop_
_symmetry_equiv_pos_site_id
_symmetry_equiv_pos_as_xyz
1 x,y,z
2 -x,-y,-z
_cell_length_a                   7.5770(16)
_cell_length_b                   10.156(2)
_cell_length_c                   11.053(2)
_cell_angle_alpha                109.494(2)
_cell_angle_beta                 109.760(2)
_cell_angle_gamma                94.602(3)
_cell_volume                     736.5
_exptl_crystal_colour            colorless
_exptl_crystal_description       plate
_cell_formula_units_Z            2
loop_
_atom_site_label
_atom_site_type_symbol
_atom_site_fract_x
_atom_site_fract_y
_atom_site_fract_z
N1 N 0.4096(2) 0.62727(15) 0.23168(15)
C1 C 0.4424(2) 0.70973(18) 0.14790(18)
H1 H 0.4143 0.6506 0.0482
C2 C 0.2729(3) 0.71557(18) 0.18604(19)
H2 H 0.1474 0.6601 0.1082
C3 C 0.2616(3) 0.8446(2) 0.2964(2)
H3 H 0.3924 0.8946 0.3668
H4 H 0.1854 0.8147 0.3437
C4 C 0.1679(3) 0.9461(2) 0.2323(3)
H5 H 0.1743 1.0347 0.3085
H6 H 0.0305 0.9007 0.1749
C5 C 0.2590(3) 0.9870(2) 0.1415(3)
H7 H 0.2326 0.9007 0.0569
H8 H 0.1945 1.0581 0.1111
C6 C 0.4759(3) 1.0489(2) 0.2104(2)
H9 H 0.5154 1.0807 0.3125
H10 H 0.5018 1.1348 0.1904
C7 C 0.6027(3) 0.9479(2) 0.1659(2)
H11 H 0.6659 0.9597 0.1080
C8 C 0.6213(3) 0.8270(2) 0.2203(2)
H12 H 0.7307 0.7857 0.2073
H13 H 0.6499 0.8673 0.3215
C9 C 0.2272(2) 0.40184(17) 0.24467(17)
C10 C 0.3392(3) 0.37177(18) 0.35671(18)
H14 H 0.4727 0.3772 0.3781
C11 C 0.2545(3) 0.33370(19) 0.43706(18)
H15 H 0.3313 0.3142 0.5144
C12 C 0.0592(3) 0.32364(19) 0.40616(19)
C13 C -0.0514(3) 0.3545(2) 0.2936(2)
H16 H -0.1851 0.3481 0.2717
C14 C 0.0319(3) 0.3948(2) 0.21298(19)
H17 H -0.0438 0.4171 0.1373
C15 C -0.0312(3) 0.2785(2) 0.4926(2)
H18 H -0.1689 0.2774 0.4569
H19 H 0.0297 0.3463 0.5897
H20 H -0.0132 0.1825 0.4872
S1 S 0.33714(6) 0.45143(4) 0.14505(4)
O1 O 0.19578(18) 0.41403(13) 0.00632(12)
O2 O 0.50818(19) 0.39612(15) 0.15924(14)
loop_
_geom_bond_atom_site_label_1
_geom_bond_atom_site_label_2
_geom_bond_site_symmetry_1
_geom_bond_site_symmetry_2
N1 C1 1_555 1_555
C1 H1 1_555 1_555
C2 N1 1_555 1_555
H2 C2 1_555 1_555
C3 C2 1_555 1_555
H3 C3 1_555 1_555
H4 C3 1_555 1_555
C4 C3 1_555 1_555
H5 C4 1_555 1_555
H6 C4 1_555 1_555
C5 C4 1_555 1_555
H7 C5 1_555 1_555
H8 C5 1_555 1_555
C6 C5 1_555 1_555
H9 C6 1_555 1_555
H10 C6 1_555 1_555
C7 C6 1_555 1_555
H11 C7 1_555 1_555
C8 C1 1_555 1_555
H12 C8 1_555 1_555
H13 C8 1_555 1_555
C9 C10 1_555 1_555
C10 H14 1_555 1_555
C11 C10 1_555 1_555
H15 C11 1_555 1_555
C12 C11 1_555 1_555
C13 C12 1_555 1_555
H16 C13 1_555 1_555
C14 C9 1_555 1_555
H17 C14 1_555 1_555
C15 C12 1_555 1_555
H18 C15 1_555 1_555
H19 C15 1_555 1_555
H20 C15 1_555 1_555
S1 N1 1_555 1_555
O1 S1 1_555 1_555
O2 S1 1_555 1_555
C1 C2 1_555 1_555
C7 C8 1_555 1_555
C9 S1 1_555 1_555
C13 C14 1_555 1_555

#END
