
#######################################################################
#
#                 Cambridge Crystallographic Data Centre
#                                CCDC 
#
#######################################################################
#
# If this CIF has been generated from an entry in the Cambridge 
# Structural Database, then it will include bibliographic, chemical, 
# crystal, experimental, refinement or atomic coordinate data resulting 
# from the CCDC's data processing and validation procedures.
#
#######################################################################

data_KOSPUF
_chemical_formula_moiety         'C14 H11 F2 N1 O2 S1'
_chemical_name_systematic        
2-(4-fluorophenyl)-1-((4-fluorophenyl)sulfonyl)aziridine
_symmetry_cell_setting           monoclinic
_symmetry_space_group_name_H-M   'P 21/c'
_symmetry_Int_Tables_number      14
_space_group_name_Hall           '-P 2ybc'
loop_
_symmetry_equiv_pos_site_id
_symmetry_equiv_pos_as_xyz
1 x,y,z
2 -x,1/2+y,1/2-z
3 -x,-y,-z
4 x,1/2-y,1/2+z
_cell_length_a                   20.834(8)
_cell_length_b                   6.982(3)
_cell_length_c                   19.561(8)
_cell_angle_alpha                90
_cell_angle_beta                 95.085(6)
_cell_angle_gamma                90
_cell_volume                     2834.2
_exptl_crystal_colour            colorless
_exptl_crystal_description       rod
_cell_formula_units_Z            8
loop_
_atom_site_label
_atom_site_type_symbol
_atom_site_fract_x
_atom_site_fract_y
_atom_site_fract_z
N1 N 0.3163(2) 0.2698(8) 0.3370(3)
C1 C 0.3045(3) 0.2991(12) 0.4086(3)
H1 H 0.3095 0.1850 0.4378
C2 C 0.3639(3) 0.3681(13) 0.3814(4)
H2 H 0.3685 0.5050 0.3750
H3 H 0.4036 0.3009 0.3952
C3 C 0.2487(3) 0.4225(11) 0.4204(4)
C4 C 0.2189(3) 0.4050(11) 0.4808(3)
H4 H 0.2339 0.3142 0.5132
C5 C 0.1685(4) 0.5177(12) 0.4936(4)
H5 H 0.1486 0.5048 0.5341
C6 C 0.1479(4) 0.6479(11) 0.4466(4)
C7 C 0.1744(4) 0.6711(10) 0.3858(3)
H6 H 0.1578 0.7613 0.3540
C8 C 0.2257(4) 0.5590(11) 0.3724(3)
H7 H 0.2450 0.5739 0.3317
F1 F 0.0965(2) 0.7593(7) 0.4592(2)
S1 S 0.33473(9) 0.0414(3) 0.31393(10)
O1 O 0.2740(2) -0.0493(6) 0.2956(2)
O2 O 0.3785(2) -0.0499(9) 0.3624(3)
C9 C 0.3741(3) 0.0901(9) 0.2406(3)
C10 C 0.4393(3) 0.1042(11) 0.2453(3)
H8 H 0.4631 0.0873 0.2874
C11 C 0.4703(3) 0.1439(10) 0.1870(4)
H9 H 0.5149 0.1558 0.1907
C12 C 0.4366(3) 0.1660(9) 0.1244(3)
C13 C 0.3703(3) 0.1513(9) 0.1202(3)
H10 H 0.3465 0.1669 0.0780
C14 C 0.3387(3) 0.1133(9) 0.1785(3)
H11 H 0.2940 0.1037 0.1755
F2 F 0.4714(3) 0.2085(11) 0.0592(3)
N2 N 0.1869(2) 0.4784(7) 0.1784(2)
C15 C 0.2047(3) 0.5800(9) 0.1160(3)
H12 H 0.1789 0.5469 0.0733
C16 C 0.1692(3) 0.6775(9) 0.1686(4)
H13 H 0.1923 0.7715 0.1977
H14 H 0.1240 0.7068 0.1568
C17 C 0.2743(3) 0.6081(9) 0.1096(3)
C18 C 0.3189(3) 0.6081(9) 0.1664(3)
H15 H 0.3048 0.5882 0.2097
C19 C 0.3834(3) 0.6366(9) 0.1603(3)
H16 H 0.4131 0.6353 0.1987
C20 C 0.4026(3) 0.6673(10) 0.0958(4)
C21 C 0.3613(4) 0.6626(10) 0.0399(4)
H17 H 0.3762 0.6774 -0.0032
C22 C 0.2967(3) 0.6360(9) 0.0456(3)
H18 H 0.2678 0.6367 0.0065
F3 F 0.46624(19) 0.6948(6) 0.0892(2)
S2 S 0.12815(9) 0.3132(3) 0.16431(8)
O3 O 0.1610(2) 0.1377(6) 0.1526(2)
O4 O 0.0789(2) 0.3762(7) 0.1144(2)
C23 C 0.0973(3) 0.3039(9) 0.2445(3)
C24 C 0.1262(3) 0.1915(9) 0.2951(3)
H19 H 0.1628 0.1211 0.2875
C25 C 0.1006(3) 0.1830(9) 0.3584(3)
H20 H 0.1210 0.1081 0.3932
C26 C 0.0459(3) 0.2825(10) 0.3707(3)
C27 C 0.0177(3) 0.3933(10) 0.3186(4)
H21 H -0.0190 0.4629 0.3260
C28 C 0.0421(3) 0.4049(9) 0.2557(3)
H22 H 0.0217 0.4798 0.2210
F4 F 0.0176(3) 0.2671(11) 0.4408(3)
loop_
_geom_bond_atom_site_label_1
_geom_bond_atom_site_label_2
_geom_bond_site_symmetry_1
_geom_bond_site_symmetry_2
N1 C1 1_555 1_555
C1 H1 1_555 1_555
C2 N1 1_555 1_555
H2 C2 1_555 1_555
H3 C2 1_555 1_555
C3 C1 1_555 1_555
C4 C3 1_555 1_555
H4 C4 1_555 1_555
C5 C4 1_555 1_555
H5 C5 1_555 1_555
C6 C5 1_555 1_555
C7 C6 1_555 1_555
H6 C7 1_555 1_555
C8 C3 1_555 1_555
H7 C8 1_555 1_555
F1 C6 1_555 1_555
S1 N1 1_555 1_555
O1 S1 1_555 1_555
O2 S1 1_555 1_555
C9 S1 1_555 1_555
C10 C9 1_555 1_555
H8 C10 1_555 1_555
C11 C10 1_555 1_555
H9 C11 1_555 1_555
C12 C11 1_555 1_555
C13 C12 1_555 1_555
H10 C13 1_555 1_555
C14 C9 1_555 1_555
H11 C14 1_555 1_555
F2 C12 1_555 1_555
N2 C15 1_555 1_555
C15 H12 1_555 1_555
C16 N2 1_555 1_555
H13 C16 1_555 1_555
H14 C16 1_555 1_555
C17 C15 1_555 1_555
C18 C17 1_555 1_555
H15 C18 1_555 1_555
C19 C18 1_555 1_555
H16 C19 1_555 1_555
C20 C19 1_555 1_555
C21 C20 1_555 1_555
H17 C21 1_555 1_555
C22 C17 1_555 1_555
H18 C22 1_555 1_555
F3 C20 1_555 1_555
S2 N2 1_555 1_555
O3 S2 1_555 1_555
O4 S2 1_555 1_555
C23 S2 1_555 1_555
C24 C23 1_555 1_555
H19 C24 1_555 1_555
C25 C24 1_555 1_555
H20 C25 1_555 1_555
C26 C25 1_555 1_555
C27 C26 1_555 1_555
H21 C27 1_555 1_555
C28 C23 1_555 1_555
H22 C28 1_555 1_555
F4 C26 1_555 1_555
C1 C2 1_555 1_555
C7 C8 1_555 1_555
C13 C14 1_555 1_555
C15 C16 1_555 1_555
C21 C22 1_555 1_555
C27 C28 1_555 1_555

#END
