
#######################################################################
#
#                 Cambridge Crystallographic Data Centre
#                                CCDC 
#
#######################################################################
#
# If this CIF has been generated from an entry in the Cambridge 
# Structural Database, then it will include bibliographic, chemical, 
# crystal, experimental, refinement or atomic coordinate data resulting 
# from the CCDC's data processing and validation procedures.
#
#######################################################################

data_KOSPIT
_chemical_formula_moiety         'C21 H19 N1 O2 S1'
_chemical_name_systematic        
N-(2,2-diphenylvinyl)-4-methylbenzenesulfonamide
_symmetry_cell_setting           monoclinic
_symmetry_space_group_name_H-M   'P 21/c'
_symmetry_Int_Tables_number      14
_space_group_name_Hall           '-P 2ybc'
loop_
_symmetry_equiv_pos_site_id
_symmetry_equiv_pos_as_xyz
1 x,y,z
2 -x,1/2+y,1/2-z
3 -x,-y,-z
4 x,1/2-y,1/2+z
_cell_length_a                   19.954(3)
_cell_length_b                   10.0945(13)
_cell_length_c                   20.439(3)
_cell_angle_alpha                90
_cell_angle_beta                 118.375(2)
_cell_angle_gamma                90
_cell_volume                     3622.31
_exptl_crystal_colour            colorless
_exptl_crystal_description       rhombic
_cell_formula_units_Z            8
loop_
_atom_site_label
_atom_site_type_symbol
_atom_site_fract_x
_atom_site_fract_y
_atom_site_fract_z
C1 C 0.05210(10) 0.05479(18) 0.16931(10)
H1 H 0.0173 0.0745 0.1203
C2 C 0.02548(9) -0.01056(16) 0.20867(9)
C3 C -0.05540(9) -0.05396(16) 0.17117(9)
C4 C -0.09609(10) -0.06285(18) 0.21042(9)
H2 H -0.0720 -0.0433 0.2610
C5 C -0.17191(10) -0.1003(2) 0.17547(10)
H3 H -0.1981 -0.1059 0.2028
C6 C -0.20879(10) -0.1293(2) 0.10099(10)
H4 H -0.2598 -0.1541 0.0777
C7 C -0.16934(10) -0.12133(19) 0.06110(10)
H5 H -0.1941 -0.1400 0.0105
C8 C -0.09368(10) -0.08593(18) 0.09554(9)
H6 H -0.0676 -0.0832 0.0681
C9 C 0.07297(9) -0.04431(18) 0.28880(9)
C10 C 0.08526(11) -0.1765(2) 0.31099(11)
H7 H 0.0642 -0.2432 0.2756
C11 C 0.12840(12) -0.2093(2) 0.38501(12)
H8 H 0.1370 -0.2979 0.3990
C12 C 0.15874(12) -0.1121(2) 0.43808(11)
H9 H 0.1875 -0.1345 0.4880
C13 C 0.14631(12) 0.0180(2) 0.41697(11)
H10 H 0.1665 0.0841 0.4529
C14 C 0.10406(10) 0.0524(2) 0.34298(10)
H11 H 0.0965 0.1414 0.3295
N1 N 0.12717(9) 0.09690(16) 0.19409(8)
H12 H 0.1589 0.0932 0.2408
S1 S 0.15604(3) 0.15255(5) 0.13727(3)
O1 O 0.10737(9) 0.09703(16) 0.06671(8)
O2 O 0.23618(8) 0.12917(15) 0.17173(8)
C15 C 0.14152(11) 0.3247(2) 0.13032(9)
C16 C 0.20274(12) 0.4091(2) 0.15196(12)
H13 H 0.2519 0.3754 0.1710
C17 C 0.19035(15) 0.5438(3) 0.14514(15)
H14 H 0.2319 0.6001 0.1595
C18 C 0.11908(16) 0.5979(3) 0.11797(14)
C19 C 0.05818(14) 0.5112(3) 0.09612(13)
H15 H 0.0092 0.5452 0.0773
C20 C 0.06867(12) 0.3760(2) 0.10169(11)
H16 H 0.0271 0.3196 0.0863
C21 C 0.1053(2) 0.7458(3) 0.1116(2)
H17 H 0.1531 0.7913 0.1299
H18 H 0.0810 0.7709 0.1405
H19 H 0.0731 0.7689 0.0605
C22 C 0.45430(10) 0.19046(18) 0.34341(10)
H20 H 0.4887 0.1680 0.3921
C23 C 0.48146(9) 0.25752(17) 0.30517(9)
C24 C 0.56225(9) 0.30020(17) 0.34232(9)
C25 C 0.60258(11) 0.3251(2) 0.41845(10)
H21 H 0.5779 0.3180 0.4471
C26 C 0.67838(11) 0.3602(2) 0.45192(11)
H22 H 0.7045 0.3745 0.5030
C27 C 0.71597(11) 0.3742(2) 0.41070(12)
H23 H 0.7670 0.3987 0.4335
C28 C 0.67726(11) 0.3515(2) 0.33568(12)
H24 H 0.7023 0.3609 0.3075
C29 C 0.60115(10) 0.31470(19) 0.30120(10)
H25 H 0.5758 0.2995 0.2502
C30 C 0.43318(9) 0.29230(18) 0.22529(9)
C31 C 0.41901(11) 0.4234(2) 0.20319(11)
H26 H 0.4390 0.4902 0.2386
C32 C 0.37536(12) 0.4563(2) 0.12882(12)
H27 H 0.3656 0.5447 0.1147
C33 C 0.34645(11) 0.3579(3) 0.07567(11)
H28 H 0.3178 0.3796 0.0256
C34 C 0.36033(11) 0.2284(2) 0.09716(11)
H29 H 0.3407 0.1619 0.0615
C35 C 0.40305(11) 0.1949(2) 0.17105(10)
H30 H 0.4118 0.1061 0.1847
N2 N 0.37839(8) 0.15032(16) 0.31708(8)
H31 H 0.3470 0.1583 0.2705
S2 S 0.34801(3) 0.08939(5) 0.37161(2)
O3 O 0.39630(8) 0.14017(15) 0.44387(7)
O4 O 0.26819(7) 0.11470(14) 0.33702(8)
C36 C 0.36100(10) -0.08285(19) 0.37419(9)
C37 C 0.43387(11) -0.1353(2) 0.40604(11)
H32 H 0.4760 -0.0794 0.4251
C38 C 0.44355(13) -0.2700(2) 0.40926(13)
H33 H 0.4926 -0.3049 0.4305
C39 C 0.38166(15) -0.3553(2) 0.38150(13)
C40 C 0.30996(13) -0.3014(2) 0.35038(13)
H34 H 0.2679 -0.3575 0.3315
C41 C 0.29856(11) -0.1665(2) 0.34636(12)
H35 H 0.2495 -0.1320 0.3252
C42 C 0.39358(19) -0.5038(3) 0.38626(19)
H36 H 0.3450 -0.5476 0.3639
H37 H 0.4220 -0.5297 0.4375
H38 H 0.4212 -0.5282 0.3604
loop_
_geom_bond_atom_site_label_1
_geom_bond_atom_site_label_2
_geom_bond_site_symmetry_1
_geom_bond_site_symmetry_2
C1 H1 1_555 1_555
C2 C1 1_555 1_555
C3 C2 1_555 1_555
C4 C3 1_555 1_555
H2 C4 1_555 1_555
C5 C4 1_555 1_555
H3 C5 1_555 1_555
C6 C5 1_555 1_555
H4 C6 1_555 1_555
C7 C6 1_555 1_555
H5 C7 1_555 1_555
C8 C3 1_555 1_555
H6 C8 1_555 1_555
C9 C2 1_555 1_555
C10 C9 1_555 1_555
H7 C10 1_555 1_555
C11 C10 1_555 1_555
H8 C11 1_555 1_555
C12 C11 1_555 1_555
H9 C12 1_555 1_555
C13 C12 1_555 1_555
H10 C13 1_555 1_555
C14 C9 1_555 1_555
H11 C14 1_555 1_555
N1 C1 1_555 1_555
H12 N1 1_555 1_555
S1 N1 1_555 1_555
O1 S1 1_555 1_555
O2 S1 1_555 1_555
C15 S1 1_555 1_555
C16 C15 1_555 1_555
H13 C16 1_555 1_555
C17 C16 1_555 1_555
H14 C17 1_555 1_555
C18 C17 1_555 1_555
C19 C18 1_555 1_555
H15 C19 1_555 1_555
C20 C15 1_555 1_555
H16 C20 1_555 1_555
C21 C18 1_555 1_555
H17 C21 1_555 1_555
H18 C21 1_555 1_555
H19 C21 1_555 1_555
C22 H20 1_555 1_555
C23 C22 1_555 1_555
C24 C23 1_555 1_555
C25 C24 1_555 1_555
H21 C25 1_555 1_555
C26 C25 1_555 1_555
H22 C26 1_555 1_555
C27 C26 1_555 1_555
H23 C27 1_555 1_555
C28 C27 1_555 1_555
H24 C28 1_555 1_555
C29 C24 1_555 1_555
H25 C29 1_555 1_555
C30 C23 1_555 1_555
C31 C30 1_555 1_555
H26 C31 1_555 1_555
C32 C31 1_555 1_555
H27 C32 1_555 1_555
C33 C32 1_555 1_555
H28 C33 1_555 1_555
C34 C33 1_555 1_555
H29 C34 1_555 1_555
C35 C30 1_555 1_555
H30 C35 1_555 1_555
N2 C22 1_555 1_555
H31 N2 1_555 1_555
S2 N2 1_555 1_555
O3 S2 1_555 1_555
O4 S2 1_555 1_555
C36 S2 1_555 1_555
C37 C36 1_555 1_555
H32 C37 1_555 1_555
C38 C37 1_555 1_555
H33 C38 1_555 1_555
C39 C38 1_555 1_555
C40 C39 1_555 1_555
H34 C40 1_555 1_555
C41 C36 1_555 1_555
H35 C41 1_555 1_555
C42 C39 1_555 1_555
H36 C42 1_555 1_555
H37 C42 1_555 1_555
H38 C42 1_555 1_555
C7 C8 1_555 1_555
C13 C14 1_555 1_555
C19 C20 1_555 1_555
C28 C29 1_555 1_555
C34 C35 1_555 1_555
C40 C41 1_555 1_555

#END
