
#######################################################################
#
#                 Cambridge Crystallographic Data Centre
#                                CCDC 
#
#######################################################################
#
# If this CIF has been generated from an entry in the Cambridge 
# Structural Database, then it will include bibliographic, chemical, 
# crystal, experimental, refinement or atomic coordinate data resulting 
# from the CCDC's data processing and validation procedures.
#
#######################################################################

data_KOSPOZ
_chemical_formula_moiety         'C15 H14 Cl1 N1 O2 S1'
_chemical_name_systematic        
2-(4-chlorophenyl)-1-((4-methylphenyl)sulfonyl)aziridine
_symmetry_cell_setting           orthorhombic
_symmetry_space_group_name_H-M   'P 21 21 21'
_symmetry_Int_Tables_number      19
_space_group_name_Hall           'P 2ac 2ab'
loop_
_symmetry_equiv_pos_site_id
_symmetry_equiv_pos_as_xyz
1 x,y,z
2 1/2-x,-y,1/2+z
3 -x,1/2+y,1/2-z
4 1/2+x,1/2-y,-z
_cell_length_a                   7.0804(13)
_cell_length_b                   12.724(2)
_cell_length_c                   15.486(3)
_cell_angle_alpha                90
_cell_angle_beta                 90
_cell_angle_gamma                90
_cell_volume                     1395.15
_exptl_crystal_colour            colorless
_exptl_crystal_description       plate
_cell_formula_units_Z            4
loop_
_atom_site_label
_atom_site_type_symbol
_atom_site_fract_x
_atom_site_fract_y
_atom_site_fract_z
N1 N 1.0045(4) 0.6908(2) 0.75260(19)
C1 C 1.0567(5) 0.7507(3) 0.8322(2)
H1 H 0.9889 0.8189 0.8408
C2 C 1.1863(5) 0.7467(3) 0.7576(2)
H2 H 1.2011 0.8113 0.7226
H3 H 1.3023 0.7038 0.7634
C3 C 1.0877(5) 0.6872(3) 0.9117(2)
C4 C 1.1570(5) 0.5846(3) 0.9063(2)
H4 H 1.1779 0.5537 0.8512
C5 C 1.1952(5) 0.5277(3) 0.9799(2)
H5 H 1.2437 0.4583 0.9761
C6 C 1.1618(5) 0.5737(3) 1.0600(2)
C7 C 1.0916(5) 0.6747(3) 1.0671(2)
H6 H 1.0697 0.7051 1.1223
C8 C 1.0538(5) 0.7306(3) 0.9926(2)
H7 H 1.0040 0.7997 0.9967
Cl1 Cl 1.21347(15) 0.50128(8) 1.15248(6)
S1 S 0.83601(13) 0.74571(7) 0.69304(5)
O1 O 0.6618(4) 0.72067(19) 0.73513(15)
O2 O 0.8754(4) 0.8538(2) 0.67458(15)
C9 C 0.8508(5) 0.6742(3) 0.5960(2)
C10 C 0.7817(5) 0.5718(3) 0.5942(2)
H8 H 0.7345 0.5399 0.6453
C11 C 0.7827(5) 0.5170(3) 0.5170(2)
H9 H 0.7364 0.4469 0.5153
C12 C 0.8513(5) 0.5637(3) 0.4411(2)
C13 C 0.9212(5) 0.6661(3) 0.4456(2)
H10 H 0.9684 0.6986 0.3947
C14 C 0.9229(5) 0.7210(3) 0.5225(2)
H11 H 0.9731 0.7902 0.5249
C15 C 0.8475(6) 0.5025(3) 0.3574(2)
H12 H 0.9011 0.5456 0.3110
H13 H 0.7168 0.4841 0.3431
H14 H 0.9222 0.4381 0.3638
loop_
_geom_bond_atom_site_label_1
_geom_bond_atom_site_label_2
_geom_bond_site_symmetry_1
_geom_bond_site_symmetry_2
N1 C1 1_555 1_555
C1 H1 1_555 1_555
C2 N1 1_555 1_555
H2 C2 1_555 1_555
H3 C2 1_555 1_555
C3 C1 1_555 1_555
C4 C3 1_555 1_555
H4 C4 1_555 1_555
C5 C4 1_555 1_555
H5 C5 1_555 1_555
C6 C5 1_555 1_555
C7 C6 1_555 1_555
H6 C7 1_555 1_555
C8 C3 1_555 1_555
H7 C8 1_555 1_555
Cl1 C6 1_555 1_555
S1 N1 1_555 1_555
O1 S1 1_555 1_555
O2 S1 1_555 1_555
C9 S1 1_555 1_555
C10 C9 1_555 1_555
H8 C10 1_555 1_555
C11 C10 1_555 1_555
H9 C11 1_555 1_555
C12 C11 1_555 1_555
C13 C12 1_555 1_555
H10 C13 1_555 1_555
C14 C9 1_555 1_555
H11 C14 1_555 1_555
C15 C12 1_555 1_555
H12 C15 1_555 1_555
H13 C15 1_555 1_555
H14 C15 1_555 1_555
C1 C2 1_555 1_555
C7 C8 1_555 1_555
C13 C14 1_555 1_555

#END
