
#######################################################################
#
#                 Cambridge Crystallographic Data Centre
#                                CCDC 
#
#######################################################################
#
# If this CIF has been generated from an entry in the Cambridge 
# Structural Database, then it will include bibliographic, chemical, 
# crystal, experimental, refinement or atomic coordinate data resulting 
# from the CCDC's data processing and validation procedures.
#
#######################################################################

data_KOSQUG
_chemical_formula_moiety         'C15 H18 N2 O4 S2'
_chemical_name_systematic        N,N'-methylenebis(4-methylbenzenesulfonamide)
_symmetry_cell_setting           orthorhombic
_symmetry_space_group_name_H-M   'P n a 21'
_symmetry_Int_Tables_number      33
_space_group_name_Hall           'P 2c -2n'
loop_
_symmetry_equiv_pos_site_id
_symmetry_equiv_pos_as_xyz
1 x,y,z
2 -x,-y,1/2+z
3 1/2+x,1/2-y,z
4 1/2-x,1/2+y,1/2+z
_cell_length_a                   34.23(3)
_cell_length_b                   15.810(13)
_cell_length_c                   6.133(5)
_cell_angle_alpha                90
_cell_angle_beta                 90
_cell_angle_gamma                90
_cell_volume                     3319.03
_exptl_crystal_colour            colorless
_exptl_crystal_description       broken
_cell_formula_units_Z            8
loop_
_atom_site_label
_atom_site_type_symbol
_atom_site_fract_x
_atom_site_fract_y
_atom_site_fract_z
S1 S 0.37017(3) 0.72081(8) 0.2314(2)
S2 S 0.27414(3) 0.79496(8) 0.7390(2)
O1 O 0.40619(9) 0.7449(2) 0.3331(6)
O2 O 0.36863(11) 0.7087(2) 0.0007(5)
O3 O 0.27298(10) 0.7903(2) 0.9733(6)
O4 O 0.25794(9) 0.8663(2) 0.6285(6)
N1 N 0.33862(11) 0.7946(2) 0.2823(6)
H1 H 0.3221 0.8087 0.1827
N2 N 0.31938(11) 0.7891(2) 0.6696(7)
H2 H 0.3344 0.7553 0.7409
C1 C 0.35387(13) 0.6278(3) 0.3544(8)
C2 C 0.36816(13) 0.6027(3) 0.5578(9)
H3 H 0.3879 0.6337 0.6250
C3 C 0.35317(14) 0.5325(3) 0.6579(9)
H4 H 0.3633 0.5157 0.7918
C4 C 0.32310(13) 0.4855(3) 0.5644(9)
C5 C 0.30910(14) 0.5104(3) 0.3625(10)
H5 H 0.2892 0.4794 0.2965
C6 C 0.32412(14) 0.5803(3) 0.2576(10)
H6 H 0.3144 0.5960 0.1219
C7 C 0.30661(15) 0.4077(3) 0.6784(11)
H7 H 0.3246 0.3615 0.6638
H8 H 0.2821 0.3926 0.6130
H9 H 0.3027 0.4200 0.8301
C8 C 0.33690(15) 0.8370(3) 0.4905(8)
H10 H 0.3222 0.8890 0.4723
H11 H 0.3633 0.8525 0.5323
C9 C 0.24917(13) 0.7039(3) 0.6488(8)
C10 C 0.24591(14) 0.6348(3) 0.7860(9)
H12 H 0.2582 0.6347 0.9213
C11 C 0.22420(14) 0.5658(3) 0.7193(10)
H13 H 0.2222 0.5193 0.8115
C12 C 0.20536(14) 0.5636(3) 0.5205(9)
C13 C 0.20953(14) 0.6339(3) 0.3832(9)
H14 H 0.1974 0.6339 0.2475
C14 C 0.23141(13) 0.7031(3) 0.4462(8)
H15 H 0.2342 0.7490 0.3527
C15 C 0.17931(17) 0.4901(3) 0.4588(10)
H16 H 0.1908 0.4383 0.5096
H17 H 0.1766 0.4880 0.3031
H18 H 0.1541 0.4973 0.5245
S3 S 0.39741(4) 0.32623(8) 0.0553(2)
S4 S 0.39705(4) 0.10830(8) 0.5687(2)
O5 O 0.40713(11) 0.3199(2) -0.1740(6)
O6 O 0.36838(10) 0.3846(2) 0.1293(6)
O7 O 0.39932(11) 0.1026(2) 0.8026(5)
O8 O 0.37616(10) 0.0455(2) 0.4492(6)
N3 N 0.38389(11) 0.2321(2) 0.1272(7)
H19 H 0.3923 0.1893 0.0542
N4 N 0.37592(12) 0.1980(3) 0.5153(7)
H20 H 0.3755 0.2362 0.6151
C16 C 0.44124(14) 0.3510(3) 0.1914(8)
C17 C 0.43920(16) 0.3917(3) 0.3902(9)
H21 H 0.4151 0.4039 0.4524
C18 C 0.47336(17) 0.4142(4) 0.4960(9)
H22 H 0.4718 0.4429 0.6280
C19 C 0.50989(17) 0.3949(3) 0.4104(10)
C20 C 0.51113(15) 0.3522(3) 0.2104(11)
H23 H 0.5352 0.3385 0.1493
C21 C 0.47666(15) 0.3299(3) 0.1010(10)
H24 H 0.4778 0.3012 -0.0311
C22 C 0.54717(16) 0.4208(4) 0.5226(11)
H25 H 0.5549 0.4759 0.4725
H26 H 0.5674 0.3807 0.4895
H27 H 0.5430 0.4225 0.6774
C23 C 0.35783(15) 0.2162(4) 0.3082(9)
H28 H 0.3411 0.2653 0.3262
H29 H 0.3411 0.1689 0.2699
C24 C 0.44560(15) 0.1119(3) 0.4737(9)
C25 C 0.47357(14) 0.1503(3) 0.5982(10)
H30 H 0.4669 0.1738 0.7321
C26 C 0.51157(16) 0.1541(3) 0.5257(10)
H31 H 0.5303 0.1811 0.6108
C27 C 0.52254(15) 0.1185(3) 0.3289(10)
C28 C 0.49393(15) 0.0804(3) 0.2056(10)
H32 H 0.5008 0.0567 0.0722
C29 C 0.45540(16) 0.0759(3) 0.2725(9)
H33 H 0.4366 0.0498 0.1864
C30 C 0.56469(16) 0.1222(4) 0.2505(13)
H34 H 0.5657 0.1084 0.0982
H35 H 0.5801 0.0824 0.3314
H36 H 0.5748 0.1782 0.2726
loop_
_geom_bond_atom_site_label_1
_geom_bond_atom_site_label_2
_geom_bond_site_symmetry_1
_geom_bond_site_symmetry_2
S1 O1 1_555 1_555
S2 O3 1_555 1_555
O2 S1 1_555 1_555
O4 S2 1_555 1_555
N1 S1 1_555 1_555
H1 N1 1_555 1_555
N2 S2 1_555 1_555
H2 N2 1_555 1_555
C1 S1 1_555 1_555
C2 C1 1_555 1_555
H3 C2 1_555 1_555
C3 C2 1_555 1_555
H4 C3 1_555 1_555
C4 C3 1_555 1_555
C5 C4 1_555 1_555
H5 C5 1_555 1_555
C6 C1 1_555 1_555
H6 C6 1_555 1_555
C7 C4 1_555 1_555
H7 C7 1_555 1_555
H8 C7 1_555 1_555
H9 C7 1_555 1_555
C8 N1 1_555 1_555
H10 C8 1_555 1_555
H11 C8 1_555 1_555
C9 S2 1_555 1_555
C10 C9 1_555 1_555
H12 C10 1_555 1_555
C11 C10 1_555 1_555
H13 C11 1_555 1_555
C12 C11 1_555 1_555
C13 C12 1_555 1_555
H14 C13 1_555 1_555
C14 C9 1_555 1_555
H15 C14 1_555 1_555
C15 C12 1_555 1_555
H16 C15 1_555 1_555
H17 C15 1_555 1_555
H18 C15 1_555 1_555
S3 O5 1_555 1_555
S4 O7 1_555 1_555
O6 S3 1_555 1_555
O8 S4 1_555 1_555
N3 S3 1_555 1_555
H19 N3 1_555 1_555
N4 S4 1_555 1_555
H20 N4 1_555 1_555
C16 S3 1_555 1_555
C17 C16 1_555 1_555
H21 C17 1_555 1_555
C18 C17 1_555 1_555
H22 C18 1_555 1_555
C19 C18 1_555 1_555
C20 C19 1_555 1_555
H23 C20 1_555 1_555
C21 C16 1_555 1_555
H24 C21 1_555 1_555
C22 C19 1_555 1_555
H25 C22 1_555 1_555
H26 C22 1_555 1_555
H27 C22 1_555 1_555
C23 N3 1_555 1_555
H28 C23 1_555 1_555
H29 C23 1_555 1_555
C24 S4 1_555 1_555
C25 C24 1_555 1_555
H30 C25 1_555 1_555
C26 C25 1_555 1_555
H31 C26 1_555 1_555
C27 C26 1_555 1_555
C28 C27 1_555 1_555
H32 C28 1_555 1_555
C29 C24 1_555 1_555
H33 C29 1_555 1_555
C30 C27 1_555 1_555
H34 C30 1_555 1_555
H35 C30 1_555 1_555
H36 C30 1_555 1_555
N2 C8 1_555 1_555
C5 C6 1_555 1_555
C13 C14 1_555 1_555
N4 C23 1_555 1_555
C20 C21 1_555 1_555
C28 C29 1_555 1_555

#END
