
#######################################################################
#
#                 Cambridge Crystallographic Data Centre
#                                CCDC 
#
#######################################################################
#
# If this CIF has been generated from an entry in the Cambridge 
# Structural Database, then it will include bibliographic, chemical, 
# crystal, experimental, refinement or atomic coordinate data resulting 
# from the CCDC's data processing and validation procedures.
#
#######################################################################

data_KOSQIU
_chemical_formula_moiety         'C21 H19 N1 O2 S1'
_chemical_name_systematic        
1-((4-methylphenyl)sulfonyl)-2,3-diphenylaziridine
_symmetry_cell_setting           monoclinic
_symmetry_space_group_name_H-M   'P 21'
_symmetry_Int_Tables_number      4
_space_group_name_Hall           'P 2yb'
loop_
_symmetry_equiv_pos_site_id
_symmetry_equiv_pos_as_xyz
1 x,y,z
2 -x,1/2+y,-z
_cell_length_a                   9.422(5)
_cell_length_b                   6.079(3)
_cell_length_c                   15.628(8)
_cell_angle_alpha                90
_cell_angle_beta                 101.009(6)
_cell_angle_gamma                90
_cell_volume                     878.642
_exptl_crystal_colour            colorless
_exptl_crystal_description       rod
_cell_formula_units_Z            2
loop_
_atom_site_label
_atom_site_type_symbol
_atom_site_fract_x
_atom_site_fract_y
_atom_site_fract_z
C1 C 0.6369(2) 0.2799(4) 0.20661(14)
H1 H 0.5776 0.1682 0.2310
C2 C 0.5580(2) 0.3984(4) 0.12828(14)
H2 H 0.6223 0.4465 0.0878
N1 N 0.59069(19) 0.5121(3) 0.21521(12)
C3 C 0.4093(2) 0.3375(4) 0.08229(14)
C4 C 0.3494(2) 0.1321(4) 0.09236(15)
H3 H 0.4015 0.0278 0.1315
C5 C 0.2132(2) 0.0796(5) 0.04513(15)
H4 H 0.1726 -0.0606 0.0523
C6 C 0.1369(3) 0.2280(5) -0.01169(15)
H5 H 0.0440 0.1901 -0.0437
C7 C 0.1950(3) 0.4332(5) -0.02258(15)
H6 H 0.1418 0.5372 -0.0614
C8 C 0.3318(3) 0.4856(4) 0.02384(15)
H7 H 0.3729 0.6248 0.0154
C9 C 0.7946(2) 0.2307(4) 0.22222(14)
C10 C 0.8420(2) 0.0253(4) 0.25488(14)
H8 H 0.7752 -0.0775 0.2703
C11 C 0.9875(3) -0.0290(4) 0.26493(16)
H9 H 1.0199 -0.1695 0.2871
C12 C 1.0854(3) 0.1194(4) 0.24298(16)
H10 H 1.1845 0.0805 0.2494
C13 C 1.0385(3) 0.3260(4) 0.21152(15)
H11 H 1.1057 0.4290 0.1968
C14 C 0.8942(2) 0.3816(4) 0.20168(14)
H12 H 0.8627 0.5236 0.1808
O1 O 0.36014(17) 0.7094(3) 0.22357(11)
O2 O 0.40626(17) 0.3576(3) 0.30123(10)
S1 S 0.46105(5) 0.55830(9) 0.27186(3)
C15 C 0.5645(2) 0.6971(4) 0.36127(14)
C16 C 0.6897(3) 0.6009(4) 0.40924(15)
H13 H 0.7188 0.4579 0.3951
C17 C 0.7701(3) 0.7176(5) 0.47746(16)
H14 H 0.8550 0.6531 0.5105
C18 C 0.7294(3) 0.9283(4) 0.49900(15)
C19 C 0.6025(3) 1.0181(4) 0.45182(15)
H15 H 0.5718 1.1593 0.4670
C20 C 0.5201(3) 0.9037(4) 0.38265(14)
H16 H 0.4341 0.9667 0.3504
C21 C 0.8231(3) 1.0585(6) 0.57079(16)
H17 H 0.7784 1.2019 0.5765
H18 H 0.9190 1.0800 0.5565
H19 H 0.8327 0.9779 0.6259
loop_
_geom_bond_atom_site_label_1
_geom_bond_atom_site_label_2
_geom_bond_site_symmetry_1
_geom_bond_site_symmetry_2
C1 H1 1_555 1_555
C2 C1 1_555 1_555
H2 C2 1_555 1_555
N1 C1 1_555 1_555
C3 C2 1_555 1_555
C4 C3 1_555 1_555
H3 C4 1_555 1_555
C5 C4 1_555 1_555
H4 C5 1_555 1_555
C6 C5 1_555 1_555
H5 C6 1_555 1_555
C7 C6 1_555 1_555
H6 C7 1_555 1_555
C8 C3 1_555 1_555
H7 C8 1_555 1_555
C9 C1 1_555 1_555
C10 C9 1_555 1_555
H8 C10 1_555 1_555
C11 C10 1_555 1_555
H9 C11 1_555 1_555
C12 C11 1_555 1_555
H10 C12 1_555 1_555
C13 C12 1_555 1_555
H11 C13 1_555 1_555
C14 C9 1_555 1_555
H12 C14 1_555 1_555
O1 S1 1_555 1_555
O2 S1 1_555 1_555
S1 N1 1_555 1_555
C15 S1 1_555 1_555
C16 C15 1_555 1_555
H13 C16 1_555 1_555
C17 C16 1_555 1_555
H14 C17 1_555 1_555
C18 C17 1_555 1_555
C19 C18 1_555 1_555
H15 C19 1_555 1_555
C20 C15 1_555 1_555
H16 C20 1_555 1_555
C21 C18 1_555 1_555
H17 C21 1_555 1_555
H18 C21 1_555 1_555
H19 C21 1_555 1_555
C2 N1 1_555 1_555
C7 C8 1_555 1_555
C13 C14 1_555 1_555
C19 C20 1_555 1_555

#END
