
#######################################################################
#
#                 Cambridge Crystallographic Data Centre
#                                CCDC 
#
#######################################################################
#
# If this CIF has been generated from an entry in the Cambridge 
# Structural Database, then it will include bibliographic, chemical, 
# crystal, experimental, refinement or atomic coordinate data resulting 
# from the CCDC's data processing and validation procedures.
#
#######################################################################

data_KOSQAM
_chemical_formula_moiety         'C15 H15 N1 O2 S1'
_chemical_name_systematic        
1-((4-methylphenyl)sulfonyl)-2-phenylaziridine
_symmetry_cell_setting           monoclinic
_symmetry_space_group_name_H-M   'P 21/c'
_symmetry_Int_Tables_number      14
_space_group_name_Hall           '-P 2ybc'
loop_
_symmetry_equiv_pos_site_id
_symmetry_equiv_pos_as_xyz
1 x,y,z
2 -x,1/2+y,1/2-z
3 -x,-y,-z
4 x,1/2-y,1/2+z
_cell_length_a                   15.334(7)
_cell_length_b                   7.840(4)
_cell_length_c                   11.787(5)
_cell_angle_alpha                90
_cell_angle_beta                 93.340(6)
_cell_angle_gamma                90
_cell_volume                     1414.61
_exptl_crystal_colour            colorless
_exptl_crystal_description       plate
_cell_formula_units_Z            4
loop_
_atom_site_label
_atom_site_type_symbol
_atom_site_fract_x
_atom_site_fract_y
_atom_site_fract_z
N1 N 0.82248(14) 0.8031(3) 0.93358(18)
C1 C 0.8402(2) 0.6827(5) 1.0281(3)
H1 H 0.8812 0.7180 1.0895
H2 H 0.7921 0.6133 1.0515
C2 C 0.8751(2) 0.6455(4) 0.9181(3)
H3 H 0.8446 0.5546 0.8747
C3 C 0.96766(17) 0.6712(3) 0.8915(2)
C4 C 1.0010(2) 0.5878(4) 0.7998(2)
H4 H 0.9648 0.5166 0.7549
C5 C 1.0861(2) 0.6086(5) 0.7745(3)
H5 H 1.1077 0.5503 0.7133
C6 C 1.1401(2) 0.7154(5) 0.8391(3)
H6 H 1.1980 0.7300 0.8216
C7 C 1.1078(2) 0.7998(4) 0.9292(3)
H7 H 1.1438 0.8729 0.9729
C8 C 1.0230(2) 0.7772(4) 0.9551(2)
H8 H 1.0021 0.8346 1.0170
S1 S 0.72170(4) 0.80321(10) 0.87389(6)
O1 O 0.72903(13) 0.8632(3) 0.76024(16)
O2 O 0.67902(15) 0.6454(3) 0.8890(2)
C9 C 0.67259(16) 0.9606(4) 0.9540(2)
C10 C 0.67229(18) 1.1270(4) 0.9176(3)
H9 H 0.6986 1.1559 0.8511
C11 C 0.6332(2) 1.2502(5) 0.9793(3)
H10 H 0.6336 1.3624 0.9537
C12 C 0.59357(19) 1.2134(5) 1.0780(3)
C13 C 0.5963(2) 1.0475(6) 1.1139(3)
H11 H 0.5714 1.0199 1.1816
C14 C 0.6345(2) 0.9194(5) 1.0537(3)
H12 H 0.6347 0.8075 1.0799
C15 C 0.5487(3) 1.3512(6) 1.1428(4)
H13 H 0.5251 1.3028 1.2092
H14 H 0.5022 1.4000 1.0951
H15 H 0.5901 1.4384 1.1651
loop_
_geom_bond_atom_site_label_1
_geom_bond_atom_site_label_2
_geom_bond_site_symmetry_1
_geom_bond_site_symmetry_2
N1 C1 1_555 1_555
C1 H1 1_555 1_555
H2 C1 1_555 1_555
C2 N1 1_555 1_555
H3 C2 1_555 1_555
C3 C2 1_555 1_555
C4 C3 1_555 1_555
H4 C4 1_555 1_555
C5 C4 1_555 1_555
H5 C5 1_555 1_555
C6 C5 1_555 1_555
H6 C6 1_555 1_555
C7 C6 1_555 1_555
H7 C7 1_555 1_555
C8 C3 1_555 1_555
H8 C8 1_555 1_555
S1 N1 1_555 1_555
O1 S1 1_555 1_555
O2 S1 1_555 1_555
C9 S1 1_555 1_555
C10 C9 1_555 1_555
H9 C10 1_555 1_555
C11 C10 1_555 1_555
H10 C11 1_555 1_555
C12 C11 1_555 1_555
C13 C12 1_555 1_555
H11 C13 1_555 1_555
C14 C9 1_555 1_555
H12 C14 1_555 1_555
C15 C12 1_555 1_555
H13 C15 1_555 1_555
H14 C15 1_555 1_555
H15 C15 1_555 1_555
C1 C2 1_555 1_555
C7 C8 1_555 1_555
C13 C14 1_555 1_555

#END
