
#######################################################################
#
#                 Cambridge Crystallographic Data Centre
#                                CCDC 
#
#######################################################################
#
# If this CIF has been generated from an entry in the Cambridge 
# Structural Database, then it will include bibliographic, chemical, 
# crystal, experimental, refinement or atomic coordinate data resulting 
# from the CCDC's data processing and validation procedures.
#
#######################################################################

data_KOSVUL
_chemical_formula_moiety         'C19 H33 B10 F1 Si1'
_chemical_name_systematic        
1,2,11-(5-fluoro-2-(1-(trimethylsilyl)oct-1-en-1,2,4-triyl)phenyl)-1,2-dicarba-closo-dodecborane(9)
_symmetry_cell_setting           triclinic
_symmetry_space_group_name_H-M   'P -1'
_symmetry_Int_Tables_number      2
_space_group_name_Hall           '-P 1'
loop_
_symmetry_equiv_pos_site_id
_symmetry_equiv_pos_as_xyz
1 x,y,z
2 -x,-y,-z
_cell_length_a                   8.8283(16)
_cell_length_b                   11.613(2)
_cell_length_c                   13.229(2)
_cell_angle_alpha                65.024(3)
_cell_angle_beta                 82.275(3)
_cell_angle_gamma                77.608(3)
_cell_volume                     1199.33
_exptl_crystal_colour            colorless
_exptl_crystal_description       block
_cell_formula_units_Z            2
loop_
_atom_site_label
_atom_site_type_symbol
_atom_site_fract_x
_atom_site_fract_y
_atom_site_fract_z
F1 F 1.0038(3) 0.1385(2) 0.50464(19)
Si1 Si 0.36604(12) 0.36719(10) 0.20987(9)
C1 C 0.4622(4) 0.7817(4) 0.2544(3)
C2 C 0.5670(4) 0.6555(3) 0.2374(3)
C3 C 0.2948(4) 0.7857(4) 0.2274(3)
H1 H 0.2345 0.7514 0.3003
C4 C 0.2081(5) 0.9173(4) 0.1590(3)
H2 H 0.1175 0.9073 0.1286
H3 H 0.2767 0.9622 0.0951
C5 C 0.1507(5) 1.0019(4) 0.2246(3)
H4 H 0.0705 0.9635 0.2820
H5 H 0.2385 1.0024 0.2637
C6 C 0.0823(5) 1.1413(4) 0.1499(4)
H6 H 0.0588 1.1928 0.1954
H7 H 0.1614 1.1782 0.0909
C7 C -0.0625(5) 1.1536(5) 0.0958(4)
H8 H -0.1012 1.2449 0.0510
H9 H -0.1416 1.1173 0.1536
H10 H -0.0392 1.1066 0.0475
C8 C 0.3118(4) 0.6869(4) 0.1746(3)
H11 H 0.2203 0.6434 0.1970
H12 H 0.3179 0.7318 0.0922
C9 C 0.4596(4) 0.5870(4) 0.2145(3)
C10 C 0.4953(4) 0.4581(4) 0.2438(3)
C11 C 0.6398(4) 0.3808(3) 0.3055(3)
C12 C 0.6849(4) 0.2497(4) 0.3234(3)
H13 H 0.6293 0.2159 0.2886
C13 C 0.8062(5) 0.1677(4) 0.3893(3)
H14 H 0.8333 0.0798 0.3996
C14 C 0.8851(4) 0.2173(4) 0.4386(3)
C15 C 0.8529(4) 0.3447(4) 0.4224(3)
H15 H 0.9127 0.3759 0.4567
C16 C 0.7319(4) 0.4284(4) 0.3555(3)
C17 C 0.1767(5) 0.4658(5) 0.1509(5)
H16 H 0.1183 0.4123 0.1358
H17 H 0.1959 0.5391 0.0812
H18 H 0.1165 0.4975 0.2046
C18 C 0.3186(5) 0.2250(4) 0.3366(4)
H19 H 0.2526 0.1805 0.3168
H20 H 0.2635 0.2541 0.3934
H21 H 0.4148 0.1656 0.3664
C19 C 0.4723(5) 0.3162(4) 0.0977(3)
H22 H 0.4084 0.2698 0.0783
H23 H 0.5709 0.2595 0.1252
H24 H 0.4928 0.3927 0.0313
B1 B 0.5924(5) 0.8061(4) 0.1390(4)
H25 H 0.5586 0.8499 0.0502
B2 B 0.5710(5) 0.8993(5) 0.2185(4)
H26 H 0.5234 1.0052 0.1816
B3 B 0.5291(5) 0.8001(5) 0.3614(4)
H27 H 0.4547 0.8419 0.4176
B4 B 0.5211(5) 0.6459(4) 0.3721(3)
H28 H 0.4406 0.5859 0.4357
B5 B 0.7509(5) 0.6765(4) 0.1864(4)
H29 H 0.8222 0.6363 0.1283
B6 B 0.7598(5) 0.8316(5) 0.1797(4)
H30 H 0.8393 0.8942 0.1178
B7 B 0.7227(5) 0.8273(5) 0.3166(4)
H31 H 0.7778 0.8868 0.3444
B8 B 0.6912(5) 0.6693(5) 0.4101(4)
H32 H 0.7263 0.6244 0.4987
B9 B 0.7042(5) 0.5750(4) 0.3283(3)
B10 B 0.8325(5) 0.6879(5) 0.2967(4)
H33 H 0.9595 0.6547 0.3117
loop_
_geom_bond_atom_site_label_1
_geom_bond_atom_site_label_2
_geom_bond_site_symmetry_1
_geom_bond_site_symmetry_2
F1 C14 1_555 1_555
Si1 C10 1_555 1_555
C1 C2 1_555 1_555
C2 C9 1_555 1_555
C3 C1 1_555 1_555
H1 C3 1_555 1_555
C4 C3 1_555 1_555
H2 C4 1_555 1_555
H3 C4 1_555 1_555
C5 C4 1_555 1_555
H4 C5 1_555 1_555
H5 C5 1_555 1_555
C6 C5 1_555 1_555
H6 C6 1_555 1_555
H7 C6 1_555 1_555
C7 C6 1_555 1_555
H8 C7 1_555 1_555
H9 C7 1_555 1_555
H10 C7 1_555 1_555
C8 C3 1_555 1_555
H11 C8 1_555 1_555
H12 C8 1_555 1_555
C9 C8 1_555 1_555
C10 C9 1_555 1_555
C11 C10 1_555 1_555
C12 C11 1_555 1_555
H13 C12 1_555 1_555
C13 C12 1_555 1_555
H14 C13 1_555 1_555
C14 C13 1_555 1_555
C15 C14 1_555 1_555
H15 C15 1_555 1_555
C16 C11 1_555 1_555
C17 Si1 1_555 1_555
H16 C17 1_555 1_555
H17 C17 1_555 1_555
H18 C17 1_555 1_555
C18 Si1 1_555 1_555
H19 C18 1_555 1_555
H20 C18 1_555 1_555
H21 C18 1_555 1_555
C19 Si1 1_555 1_555
H22 C19 1_555 1_555
H23 C19 1_555 1_555
H24 C19 1_555 1_555
B1 C1 1_555 1_555
H25 B1 1_555 1_555
B2 C1 1_555 1_555
H26 B2 1_555 1_555
B3 C1 1_555 1_555
H27 B3 1_555 1_555
B4 C1 1_555 1_555
H28 B4 1_555 1_555
B5 C2 1_555 1_555
H29 B5 1_555 1_555
B6 B1 1_555 1_555
H30 B6 1_555 1_555
B7 B2 1_555 1_555
H31 B7 1_555 1_555
B8 B3 1_555 1_555
H32 B8 1_555 1_555
B9 C2 1_555 1_555
B10 B5 1_555 1_555
H33 B10 1_555 1_555
C2 B1 1_555 1_555
C2 B4 1_555 1_555
C15 C16 1_555 1_555
C16 B9 1_555 1_555
B1 B2 1_555 1_555
B1 B5 1_555 1_555
B2 B3 1_555 1_555
B2 B6 1_555 1_555
B3 B4 1_555 1_555
B3 B7 1_555 1_555
B4 B8 1_555 1_555
B4 B9 1_555 1_555
B5 B6 1_555 1_555
B5 B9 1_555 1_555
B6 B7 1_555 1_555
B6 B10 1_555 1_555
B7 B8 1_555 1_555
B7 B10 1_555 1_555
B8 B9 1_555 1_555
B8 B10 1_555 1_555
B9 B10 1_555 1_555

#END
