
#######################################################################
#
#                 Cambridge Crystallographic Data Centre
#                                CCDC 
#
#######################################################################
#
# If this CIF has been generated from an entry in the Cambridge 
# Structural Database, then it will include bibliographic, chemical, 
# crystal, experimental, refinement or atomic coordinate data resulting 
# from the CCDC's data processing and validation procedures.
#
#######################################################################

data_KOSVOF
_chemical_formula_moiety         'C19 H34 B10 Si1'
_chemical_name_systematic        
1,2,11-(2-(1-(trimethylsilyl)oct-1-en-1,2,4-triyl)phenyl)-1,2-dicarba-closo-dodecborane(9)
_symmetry_cell_setting           triclinic
_symmetry_space_group_name_H-M   'P -1'
_symmetry_Int_Tables_number      2
_space_group_name_Hall           '-P 1'
loop_
_symmetry_equiv_pos_site_id
_symmetry_equiv_pos_as_xyz
1 x,y,z
2 -x,-y,-z
_cell_length_a                   9.261(2)
_cell_length_b                   10.710(2)
_cell_length_c                   12.461(3)
_cell_angle_alpha                92.783(4)
_cell_angle_beta                 98.275(4)
_cell_angle_gamma                105.007(4)
_cell_volume                     1176.59
_exptl_crystal_colour            colorless
_exptl_crystal_description       block
_cell_formula_units_Z            2
loop_
_atom_site_label
_atom_site_type_symbol
_atom_site_fract_x
_atom_site_fract_y
_atom_site_fract_z
Si1 Si 0.72099(11) 0.76016(9) 0.81058(8)
C1 C 0.5019(4) 1.1705(3) 0.7561(4)
C2 C 0.4376(4) 1.0154(3) 0.7544(3)
C3 C 0.6641(5) 1.2053(4) 0.8235(4)
H1 H 0.6634 1.2582 0.8917
C4 C 0.7834(5) 1.2836(5) 0.7652(4)
H2 H 0.7386 1.3425 0.7208
H3 H 0.8122 1.2236 0.7146
C5 C 0.9265(4) 1.3643(4) 0.8384(4)
H4 H 0.8969 1.4195 0.8927
H5 H 0.9754 1.3048 0.8787
C6 C 1.0402(5) 1.4493(5) 0.7815(4)
H6 H 0.9875 1.4974 0.7305
H7 H 1.0846 1.3938 0.7377
C7 C 1.1674(5) 1.5460(5) 0.8563(4)
H8 H 1.2313 1.6035 0.8128
H9 H 1.2285 1.4995 0.9010
H10 H 1.1247 1.5977 0.9037
C8 C 0.6916(5) 1.0737(4) 0.8562(4)
H11 H 0.7912 1.0679 0.8397
H12 H 0.6926 1.0687 0.9354
C9 C 0.5653(4) 0.9606(3) 0.7929(3)
C10 C 0.5636(4) 0.8380(3) 0.7573(3)
C11 C 0.8826(4) 0.8708(4) 0.9044(3)
H13 H 0.9590 0.8247 0.9269
H14 H 0.8464 0.9000 0.9688
H15 H 0.9277 0.9462 0.8671
C12 C 0.8025(5) 0.7022(4) 0.6946(4)
H16 H 0.8825 0.6623 0.7230
H17 H 0.8450 0.7759 0.6546
H18 H 0.7225 0.6380 0.6455
C13 C 0.6384(5) 0.6267(4) 0.8948(4)
H19 H 0.7159 0.5834 0.9217
H20 H 0.5525 0.5634 0.8499
H21 H 0.6037 0.6636 0.9566
C14 C 0.4342(4) 0.7567(3) 0.6744(3)
C15 C 0.4276(4) 0.6257(3) 0.6479(3)
H22 H 0.5016 0.5899 0.6861
C16 C 0.3173(4) 0.5471(4) 0.5683(3)
H23 H 0.3181 0.4598 0.5517
C17 C 0.2069(4) 0.5948(4) 0.5135(3)
H24 H 0.1294 0.5406 0.4602
C18 C 0.2100(4) 0.7240(4) 0.5370(3)
H25 H 0.1346 0.7576 0.4981
C19 C 0.3200(4) 0.8051(3) 0.6157(3)
B1 B 0.3776(6) 1.1121(4) 0.8439(4)
H26 H 0.4068 1.1214 0.9348
B2 B 0.3652(6) 1.2464(4) 0.7682(5)
H27 H 0.3867 1.3462 0.8096
B3 B 0.4208(5) 1.2258(5) 0.6411(5)
H28 H 0.4778 1.3114 0.6000
B4 B 0.4719(5) 1.0791(4) 0.6332(4)
H29 H 0.5631 1.0682 0.5863
B5 B 0.2530(5) 0.9712(4) 0.7731(4)
H30 H 0.1996 0.8877 0.8178
B6 B 0.2015(6) 1.1197(4) 0.7764(5)
H31 H 0.1117 1.1358 0.8225
B7 B 0.2255(5) 1.1863(4) 0.6503(4)
H32 H 0.1507 1.2451 0.6129
B8 B 0.2920(5) 1.0813(5) 0.5670(4)
H33 H 0.2617 1.0700 0.4761
B9 B 0.3120(5) 0.9467(4) 0.6443(4)
B10 B 0.1559(5) 1.0149(4) 0.6538(4)
H34 H 0.0364 0.9603 0.6194
loop_
_geom_bond_atom_site_label_1
_geom_bond_atom_site_label_2
_geom_bond_site_symmetry_1
_geom_bond_site_symmetry_2
Si1 C10 1_555 1_555
C1 C2 1_555 1_555
C2 C9 1_555 1_555
C3 C1 1_555 1_555
H1 C3 1_555 1_555
C4 C3 1_555 1_555
H2 C4 1_555 1_555
H3 C4 1_555 1_555
C5 C4 1_555 1_555
H4 C5 1_555 1_555
H5 C5 1_555 1_555
C6 C5 1_555 1_555
H6 C6 1_555 1_555
H7 C6 1_555 1_555
C7 C6 1_555 1_555
H8 C7 1_555 1_555
H9 C7 1_555 1_555
H10 C7 1_555 1_555
C8 C3 1_555 1_555
H11 C8 1_555 1_555
H12 C8 1_555 1_555
C9 C8 1_555 1_555
C10 C9 1_555 1_555
C11 Si1 1_555 1_555
H13 C11 1_555 1_555
H14 C11 1_555 1_555
H15 C11 1_555 1_555
C12 Si1 1_555 1_555
H16 C12 1_555 1_555
H17 C12 1_555 1_555
H18 C12 1_555 1_555
C13 Si1 1_555 1_555
H19 C13 1_555 1_555
H20 C13 1_555 1_555
H21 C13 1_555 1_555
C14 C10 1_555 1_555
C15 C14 1_555 1_555
H22 C15 1_555 1_555
C16 C15 1_555 1_555
H23 C16 1_555 1_555
C17 C16 1_555 1_555
H24 C17 1_555 1_555
C18 C17 1_555 1_555
H25 C18 1_555 1_555
C19 C14 1_555 1_555
B1 C1 1_555 1_555
H26 B1 1_555 1_555
B2 C1 1_555 1_555
H27 B2 1_555 1_555
B3 C1 1_555 1_555
H28 B3 1_555 1_555
B4 C1 1_555 1_555
H29 B4 1_555 1_555
B5 C2 1_555 1_555
H30 B5 1_555 1_555
B6 B1 1_555 1_555
H31 B6 1_555 1_555
B7 B2 1_555 1_555
H32 B7 1_555 1_555
B8 B3 1_555 1_555
H33 B8 1_555 1_555
B9 C2 1_555 1_555
B10 B5 1_555 1_555
H34 B10 1_555 1_555
C2 B1 1_555 1_555
C2 B4 1_555 1_555
C18 C19 1_555 1_555
C19 B9 1_555 1_555
B1 B2 1_555 1_555
B1 B5 1_555 1_555
B2 B3 1_555 1_555
B2 B6 1_555 1_555
B3 B4 1_555 1_555
B3 B7 1_555 1_555
B4 B8 1_555 1_555
B4 B9 1_555 1_555
B5 B6 1_555 1_555
B5 B9 1_555 1_555
B6 B7 1_555 1_555
B6 B10 1_555 1_555
B7 B8 1_555 1_555
B7 B10 1_555 1_555
B8 B9 1_555 1_555
B8 B10 1_555 1_555
B9 B10 1_555 1_555

#END
