
#######################################################################
#
#                 Cambridge Crystallographic Data Centre
#                                CCDC 
#
#######################################################################
#
# If this CIF has been generated from an entry in the Cambridge 
# Structural Database, then it will include bibliographic, chemical, 
# crystal, experimental, refinement or atomic coordinate data resulting 
# from the CCDC's data processing and validation procedures.
#
#######################################################################

data_KOSWEW
_chemical_formula_moiety         'C20 H36 B10 O1 Si1'
_chemical_name_systematic        
1,2,11-(5-methoxy-2-(1-(trimethylsilyl)oct-1-en-1,2,4-triyl)phenyl)-1,2-dicarba-closo-dodecborane(9)
_symmetry_cell_setting           orthorhombic
_symmetry_space_group_name_H-M   'P 21 21 21'
_symmetry_Int_Tables_number      19
_space_group_name_Hall           'P 2ac 2ab'
loop_
_symmetry_equiv_pos_site_id
_symmetry_equiv_pos_as_xyz
1 x,y,z
2 1/2-x,-y,1/2+z
3 -x,1/2+y,1/2-z
4 1/2+x,1/2-y,-z
_cell_length_a                   9.6641(8)
_cell_length_b                   11.7306(9)
_cell_length_c                   21.7302(18)
_cell_angle_alpha                90
_cell_angle_beta                 90
_cell_angle_gamma                90
_cell_volume                     2463.46
_exptl_crystal_colour            colorless
_exptl_crystal_description       block
_cell_formula_units_Z            4
loop_
_atom_site_label
_atom_site_type_symbol
_atom_site_fract_x
_atom_site_fract_y
_atom_site_fract_z
O1 O 0.7425(3) 1.4079(2) 0.20179(12)
Si1 Si 1.26247(10) 1.12758(8) 0.06021(4)
C1 C 0.9546(4) 0.7877(3) 0.1433(2)
C2 C 0.9302(4) 0.9144(3) 0.11525(17)
C3 C 1.1101(5) 0.7621(5) 0.1337(3)
H1 H 1.1534 0.7852 0.1736
C4 C 1.1516(6) 0.6524(6) 0.1262(5)
H2 H 1.1037 0.6212 0.0896
H3 H 1.1197 0.6082 0.1623
C5 C 1.3081(5) 0.6311(4) 0.1182(3)
H4 H 1.3461 0.6853 0.0877
H5 H 1.3559 0.6442 0.1579
C6 C 1.3332(6) 0.5145(5) 0.0977(2)
H6 H 1.2725 0.4976 0.0621
H7 H 1.3088 0.4611 0.1312
C7 C 1.4840(6) 0.4954(4) 0.0791(2)
H8 H 1.4962 0.4163 0.0656
H9 H 1.5443 0.5105 0.1144
H10 H 1.5080 0.5470 0.0453
C8 C 1.1618(4) 0.8545(3) 0.0872(2)
H11 H 1.2588 0.8757 0.0964
H12 H 1.1573 0.8249 0.0446
C9 C 1.0669(4) 0.9585(3) 0.09426(17)
C10 C 1.0928(4) 1.0712(3) 0.09365(15)
C11 C 1.3679(4) 1.0172(4) 0.0191(2)
H13 H 1.4528 1.0521 0.0033
H14 H 1.3142 0.9859 -0.0152
H15 H 1.3917 0.9557 0.0478
C12 C 1.3710(4) 1.1861(4) 0.1245(2)
H16 H 1.4583 1.2153 0.1078
H17 H 1.3904 1.1255 0.1543
H18 H 1.3210 1.2482 0.1449
C13 C 1.2251(5) 1.2359(4) -0.00092(17)
H19 H 1.3124 1.2645 -0.0179
H20 H 1.1727 1.2993 0.0170
H21 H 1.1706 1.2004 -0.0338
C14 C 0.9899(3) 1.1532(3) 0.12091(15)
C15 C 1.0225(4) 1.2714(3) 0.12084(16)
H22 H 1.1059 1.2953 0.1016
C16 C 0.9392(4) 1.3529(3) 0.14727(17)
H23 H 0.9646 1.4311 0.1455
C17 C 0.8175(4) 1.3205(3) 0.17663(17)
C18 C 0.7819(4) 1.2060(3) 0.17933(15)
H24 H 0.6992 1.1839 0.1998
C19 C 0.8667(4) 1.1219(3) 0.15208(15)
C20 C 0.6141(4) 1.3810(4) 0.23060(19)
H25 H 0.5717 1.4509 0.2465
H26 H 0.6303 1.3279 0.2646
H27 H 0.5520 1.3457 0.2005
B1 B 0.8609(6) 0.8006(4) 0.0761(2)
H28 H 0.8958 0.7685 0.0301
B2 B 0.8095(5) 0.7073(4) 0.1357(2)
H29 H 0.8097 0.6126 0.1290
B3 B 0.8536(5) 0.7669(4) 0.2072(2)
H30 H 0.8821 0.7108 0.2470
B4 B 0.9354(5) 0.9004(4) 0.1948(2)
H31 H 1.0177 0.9327 0.2266
B5 B 0.7697(4) 0.9311(4) 0.08389(17)
H32 H 0.7428 0.9846 0.0429
B6 B 0.6860(5) 0.7994(4) 0.0986(2)
H33 H 0.6025 0.7657 0.0678
B7 B 0.6811(5) 0.7799(4) 0.1804(2)
H34 H 0.5935 0.7337 0.2031
B8 B 0.7622(5) 0.8996(4) 0.21612(19)
H35 H 0.7281 0.9323 0.2621
B9 B 0.8213(4) 0.9942(4) 0.15547(17)
B10 B 0.6595(4) 0.9195(4) 0.14836(19)
H36 H 0.5582 0.9657 0.1503
loop_
_geom_bond_atom_site_label_1
_geom_bond_atom_site_label_2
_geom_bond_site_symmetry_1
_geom_bond_site_symmetry_2
O1 C17 1_555 1_555
Si1 C10 1_555 1_555
C1 C2 1_555 1_555
C2 C9 1_555 1_555
C3 C1 1_555 1_555
H1 C3 1_555 1_555
C4 C3 1_555 1_555
H2 C4 1_555 1_555
H3 C4 1_555 1_555
C5 C4 1_555 1_555
H4 C5 1_555 1_555
H5 C5 1_555 1_555
C6 C5 1_555 1_555
H6 C6 1_555 1_555
H7 C6 1_555 1_555
C7 C6 1_555 1_555
H8 C7 1_555 1_555
H9 C7 1_555 1_555
H10 C7 1_555 1_555
C8 C3 1_555 1_555
H11 C8 1_555 1_555
H12 C8 1_555 1_555
C9 C8 1_555 1_555
C10 C9 1_555 1_555
C11 Si1 1_555 1_555
H13 C11 1_555 1_555
H14 C11 1_555 1_555
H15 C11 1_555 1_555
C12 Si1 1_555 1_555
H16 C12 1_555 1_555
H17 C12 1_555 1_555
H18 C12 1_555 1_555
C13 Si1 1_555 1_555
H19 C13 1_555 1_555
H20 C13 1_555 1_555
H21 C13 1_555 1_555
C14 C10 1_555 1_555
C15 C14 1_555 1_555
H22 C15 1_555 1_555
C16 C15 1_555 1_555
H23 C16 1_555 1_555
C17 C16 1_555 1_555
C18 C17 1_555 1_555
H24 C18 1_555 1_555
C19 C14 1_555 1_555
C20 O1 1_555 1_555
H25 C20 1_555 1_555
H26 C20 1_555 1_555
H27 C20 1_555 1_555
B1 C1 1_555 1_555
H28 B1 1_555 1_555
B2 C1 1_555 1_555
H29 B2 1_555 1_555
B3 C1 1_555 1_555
H30 B3 1_555 1_555
B4 C1 1_555 1_555
H31 B4 1_555 1_555
B5 C2 1_555 1_555
H32 B5 1_555 1_555
B6 B1 1_555 1_555
H33 B6 1_555 1_555
B7 B2 1_555 1_555
H34 B7 1_555 1_555
B8 B3 1_555 1_555
H35 B8 1_555 1_555
B9 C2 1_555 1_555
B10 B5 1_555 1_555
H36 B10 1_555 1_555
C2 B1 1_555 1_555
C2 B4 1_555 1_555
C18 C19 1_555 1_555
C19 B9 1_555 1_555
B1 B2 1_555 1_555
B1 B5 1_555 1_555
B2 B3 1_555 1_555
B2 B6 1_555 1_555
B3 B4 1_555 1_555
B3 B7 1_555 1_555
B4 B8 1_555 1_555
B4 B9 1_555 1_555
B5 B6 1_555 1_555
B5 B9 1_555 1_555
B6 B7 1_555 1_555
B6 B10 1_555 1_555
B7 B8 1_555 1_555
B7 B10 1_555 1_555
B8 B9 1_555 1_555
B8 B10 1_555 1_555
B9 B10 1_555 1_555

#END
