
#######################################################################
#
#                 Cambridge Crystallographic Data Centre
#                                CCDC 
#
#######################################################################
#
# If this CIF has been generated from an entry in the Cambridge 
# Structural Database, then it will include bibliographic, chemical, 
# crystal, experimental, refinement or atomic coordinate data resulting 
# from the CCDC's data processing and validation procedures.
#
#######################################################################

data_KOTDUU
_chemical_formula_moiety         'C19 H26 N2 O2 S1'
_chemical_name_systematic        
N-(adamantan-1-yl)-N'-((4-methylphenyl)sulfonyl)ethanimidamide
_symmetry_cell_setting           orthorhombic
_symmetry_space_group_name_H-M   'P 21 21 21'
_symmetry_Int_Tables_number      19
_space_group_name_Hall           'P 2ac 2ab'
loop_
_symmetry_equiv_pos_site_id
_symmetry_equiv_pos_as_xyz
1 x,y,z
2 1/2-x,-y,1/2+z
3 -x,1/2+y,1/2-z
4 1/2+x,1/2-y,-z
_cell_length_a                   10.769(4)
_cell_length_b                   13.082(5)
_cell_length_c                   25.655(9)
_cell_angle_alpha                90
_cell_angle_beta                 90
_cell_angle_gamma                90
_cell_volume                     3614.28
_exptl_crystal_colour            colorless
_exptl_crystal_description       block
_cell_formula_units_Z            8
loop_
_atom_site_label
_atom_site_type_symbol
_atom_site_fract_x
_atom_site_fract_y
_atom_site_fract_z
C1 C 0.0363(5) 0.6122(4) 0.8165(2)
C2 C 0.0898(6) 0.6525(6) 0.7611(2)
H1 H 0.1750 0.6751 0.7652
H2 H 0.0884 0.5974 0.7358
C3 C 0.0102(7) 0.7402(6) 0.7421(3)
H3 H 0.0411 0.7643 0.7083
C4 C -0.1208(7) 0.7118(7) 0.7374(3)
H4 H -0.1290 0.6579 0.7118
H5 H -0.1677 0.7704 0.7252
C5 C -0.1750(6) 0.6753(6) 0.7894(3)
H6 H -0.2621 0.6557 0.7849
C6 C -0.0981(5) 0.5831(6) 0.8081(3)
H7 H -0.1327 0.5575 0.8405
H8 H -0.1029 0.5289 0.7824
C7 C -0.1644(6) 0.7544(6) 0.8282(3)
H9 H -0.1934 0.7283 0.8614
H10 H -0.2172 0.8114 0.8185
C8 C -0.0300(7) 0.7925(5) 0.8343(3)
H11 H -0.0260 0.8482 0.8597
C9 C 0.0210(9) 0.8267(6) 0.7827(3)
H12 H 0.1074 0.8459 0.7868
H13 H -0.0245 0.8861 0.7707
C10 C 0.0447(6) 0.6981(5) 0.8539(2)
H14 H 0.1311 0.7171 0.8585
H15 H 0.0125 0.6766 0.8875
N1 N 0.1141(4) 0.5256(3) 0.83318(17)
C11 C 0.0933(4) 0.4567(3) 0.87112(16)
C12 C 0.1862(4) 0.3717(4) 0.87465(17)
H16 H 0.2168 0.3670 0.9097
H17 H 0.2540 0.3852 0.8514
H18 H 0.1472 0.3084 0.8651
N2 N -0.0048(4) 0.4676(3) 0.90146(15)
S1 S -0.04753(11) 0.38044(10) 0.94150(4)
O1 O -0.0290(3) 0.2785(3) 0.92231(13)
O2 O -0.1732(3) 0.4074(3) 0.95541(13)
C13 C 0.0417(4) 0.3959(3) 0.99838(16)
C14 C 0.1264(5) 0.3199(4) 1.01289(19)
H19 H 0.1348 0.2611 0.9928
C15 C 0.1974(5) 0.3328(4) 1.0573(2)
H20 H 0.2537 0.2824 1.0669
C16 C 0.1860(4) 0.4195(4) 1.08746(18)
C17 C 0.1000(5) 0.4935(4) 1.0730(2)
H21 H 0.0907 0.5518 1.0934
C18 C 0.0280(4) 0.4818(4) 1.02878(19)
H22 H -0.0293 0.5318 1.0196
C19 C 0.2673(5) 0.4333(5) 1.1354(2)
H23 H 0.2471 0.4969 1.1521
H24 H 0.3531 0.4339 1.1252
H25 H 0.2531 0.3779 1.1592
H26 H 0.171(6) 0.504(5) 0.819(2)
C20 C 0.5480(5) 0.5588(4) 0.9239(2)
C21 C 0.5262(6) 0.6585(5) 0.8999(2)
H27 H 0.4809 0.6501 0.8675
H28 H 0.6049 0.6913 0.8921
C22 C 0.4478(7) 0.7277(6) 0.9393(3)
H29 H 0.4303 0.7936 0.9227
C23 C 0.3306(7) 0.6724(7) 0.9469(3)
H30 H 0.2931 0.6584 0.9133
H31 H 0.2736 0.7148 0.9667
C24 C 0.3519(7) 0.5716(7) 0.9760(3)
H32 H 0.2727 0.5384 0.9841
C25 C 0.4229(5) 0.5108(6) 0.9387(3)
H33 H 0.3738 0.5019 0.9073
H34 H 0.4377 0.4436 0.9534
C26 C 0.4268(7) 0.5900(7) 1.0253(2)
H35 H 0.3796 0.6331 1.0487
H36 H 0.4415 0.5252 1.0426
C27 C 0.5503(6) 0.6406(5) 1.0133(2)
H37 H 0.5972 0.6523 1.0455
C28 C 0.5229(8) 0.7446(5) 0.9852(3)
H38 H 0.4796 0.7901 1.0089
H39 H 0.6005 0.7768 0.9753
C29 C 0.6203(5) 0.5752(5) 0.9780(3)
H40 H 0.6342 0.5094 0.9944
H41 H 0.7006 0.6059 0.9711
N3 N 0.6209(4) 0.4894(3) 0.89183(15)
C30 C 0.5946(4) 0.4485(3) 0.84653(16)
C31 C 0.6834(5) 0.3683(4) 0.8267(2)
H42 H 0.7494 0.3591 0.8514
H43 H 0.7174 0.3899 0.7939
H44 H 0.6399 0.3049 0.8221
N4 N 0.4924(3) 0.4793(3) 0.82212(14)
S2 S 0.44270(10) 0.42943(8) 0.76861(4)
O3 O 0.4488(3) 0.3200(2) 0.76800(13)
O4 O 0.3220(3) 0.4745(3) 0.76084(12)
C32 C 0.5387(4) 0.4751(3) 0.71792(15)
C33 C 0.5458(4) 0.5793(3) 0.70796(16)
H45 H 0.5012 0.6256 0.7281
C34 C 0.6195(4) 0.6128(4) 0.66798(17)
H46 H 0.6234 0.6825 0.6612
C35 C 0.6881(4) 0.5469(4) 0.63743(18)
C36 C 0.6819(5) 0.4437(4) 0.64820(18)
H47 H 0.7293 0.3984 0.6286
C37 C 0.6070(5) 0.4065(3) 0.68739(18)
H48 H 0.6018 0.3366 0.6935
C38 C 0.7710(6) 0.5867(5) 0.5944(2)
H49 H 0.8112 0.5304 0.5774
H50 H 0.8326 0.6314 0.6089
H51 H 0.7218 0.6237 0.5695
H52 H 0.680(5) 0.471(4) 0.906(2)
loop_
_geom_bond_atom_site_label_1
_geom_bond_atom_site_label_2
_geom_bond_site_symmetry_1
_geom_bond_site_symmetry_2
C1 C2 1_555 1_555
C2 H1 1_555 1_555
H2 C2 1_555 1_555
C3 C2 1_555 1_555
H3 C3 1_555 1_555
C4 C3 1_555 1_555
H4 C4 1_555 1_555
H5 C4 1_555 1_555
C5 C4 1_555 1_555
H6 C5 1_555 1_555
C6 C1 1_555 1_555
H7 C6 1_555 1_555
H8 C6 1_555 1_555
C7 C5 1_555 1_555
H9 C7 1_555 1_555
H10 C7 1_555 1_555
C8 C7 1_555 1_555
H11 C8 1_555 1_555
C9 C3 1_555 1_555
H12 C9 1_555 1_555
H13 C9 1_555 1_555
C10 C1 1_555 1_555
H14 C10 1_555 1_555
H15 C10 1_555 1_555
N1 C1 1_555 1_555
C11 N1 1_555 1_555
C12 C11 1_555 1_555
H16 C12 1_555 1_555
H17 C12 1_555 1_555
H18 C12 1_555 1_555
N2 C11 1_555 1_555
S1 N2 1_555 1_555
O1 S1 1_555 1_555
O2 S1 1_555 1_555
C13 S1 1_555 1_555
C14 C13 1_555 1_555
H19 C14 1_555 1_555
C15 C14 1_555 1_555
H20 C15 1_555 1_555
C16 C15 1_555 1_555
C17 C16 1_555 1_555
H21 C17 1_555 1_555
C18 C13 1_555 1_555
H22 C18 1_555 1_555
C19 C16 1_555 1_555
H23 C19 1_555 1_555
H24 C19 1_555 1_555
H25 C19 1_555 1_555
H26 N1 1_555 1_555
C20 C21 1_555 1_555
C21 H27 1_555 1_555
H28 C21 1_555 1_555
C22 C21 1_555 1_555
H29 C22 1_555 1_555
C23 C22 1_555 1_555
H30 C23 1_555 1_555
H31 C23 1_555 1_555
C24 C23 1_555 1_555
H32 C24 1_555 1_555
C25 C20 1_555 1_555
H33 C25 1_555 1_555
H34 C25 1_555 1_555
C26 C24 1_555 1_555
H35 C26 1_555 1_555
H36 C26 1_555 1_555
C27 C26 1_555 1_555
H37 C27 1_555 1_555
C28 C22 1_555 1_555
H38 C28 1_555 1_555
H39 C28 1_555 1_555
C29 C20 1_555 1_555
H40 C29 1_555 1_555
H41 C29 1_555 1_555
N3 C20 1_555 1_555
C30 N3 1_555 1_555
C31 C30 1_555 1_555
H42 C31 1_555 1_555
H43 C31 1_555 1_555
H44 C31 1_555 1_555
N4 C30 1_555 1_555
S2 N4 1_555 1_555
O3 S2 1_555 1_555
O4 S2 1_555 1_555
C32 S2 1_555 1_555
C33 C32 1_555 1_555
H45 C33 1_555 1_555
C34 C33 1_555 1_555
H46 C34 1_555 1_555
C35 C34 1_555 1_555
C36 C35 1_555 1_555
H47 C36 1_555 1_555
C37 C32 1_555 1_555
H48 C37 1_555 1_555
C38 C35 1_555 1_555
H49 C38 1_555 1_555
H50 C38 1_555 1_555
H51 C38 1_555 1_555
H52 N3 1_555 1_555
C5 C6 1_555 1_555
C8 C9 1_555 1_555
C8 C10 1_555 1_555
C17 C18 1_555 1_555
C24 C25 1_555 1_555
C27 C28 1_555 1_555
C27 C29 1_555 1_555
C36 C37 1_555 1_555

#END
