
#######################################################################
#
#                 Cambridge Crystallographic Data Centre
#                                CCDC 
#
#######################################################################
#
# If this CIF has been generated from an entry in the Cambridge 
# Structural Database, then it will include bibliographic, chemical, 
# crystal, experimental, refinement or atomic coordinate data resulting 
# from the CCDC's data processing and validation procedures.
#
#######################################################################

data_KOTFUW
_chemical_formula_moiety         'C21 H19 N1 O2 S1'
_chemical_name_systematic        
N-(9,10-dihydroanthracen-9-yl)-4-methylbenzenesulfonamide
_symmetry_cell_setting           triclinic
_symmetry_space_group_name_H-M   'P -1'
_symmetry_Int_Tables_number      2
_space_group_name_Hall           '-P 1'
loop_
_symmetry_equiv_pos_site_id
_symmetry_equiv_pos_as_xyz
1 x,y,z
2 -x,-y,-z
_cell_length_a                   8.8793(14)
_cell_length_b                   10.4109(16)
_cell_length_c                   10.6536(17)
_cell_angle_alpha                76.209(2)
_cell_angle_beta                 69.071(2)
_cell_angle_gamma                84.434(2)
_cell_volume                     893.265
_exptl_crystal_colour            colorless
_exptl_crystal_description       block
_cell_formula_units_Z            2
loop_
_atom_site_label
_atom_site_type_symbol
_atom_site_fract_x
_atom_site_fract_y
_atom_site_fract_z
N1 N 0.89419(15) 0.06755(12) 0.18862(13)
H1 H 0.9443 0.1126 0.1073
C1 C 0.4899(2) 0.0692(2) 0.31903(19)
H2 H 0.5010 -0.0084 0.3800
C2 C 0.3488(2) 0.0935(3) 0.2883(2)
H3 H 0.2665 0.0319 0.3275
C3 C 0.3316(2) 0.2087(3) 0.1999(2)
H4 H 0.2374 0.2253 0.1791
C4 C 0.4526(3) 0.2996(2) 0.1422(2)
H5 H 0.4391 0.3780 0.0833
C5 C 0.8948(3) 0.49140(18) 0.1958(2)
H6 H 0.8851 0.5693 0.1346
C6 C 0.9780(2) 0.4912(2) 0.2822(3)
H7 H 1.0245 0.5687 0.2792
C7 C 0.9928(2) 0.3766(2) 0.3735(2)
H8 H 1.0492 0.3768 0.4321
C8 C 0.9240(2) 0.26136(19) 0.37790(19)
H9 H 0.9339 0.1840 0.4398
C9 C 0.76990(18) 0.13395(15) 0.29041(15)
H10 H 0.7465 0.0759 0.3821
C10 C 0.7320(3) 0.3739(2) 0.1051(2)
H11 H 0.8051 0.3514 0.0206
H12 H 0.6881 0.4616 0.0814
C11 C 0.61430(19) 0.15968(16) 0.25962(16)
C12 C 0.5964(2) 0.27637(18) 0.17041(18)
C13 C 0.84019(19) 0.26073(16) 0.29035(16)
C14 C 0.8244(2) 0.37582(17) 0.19845(19)
S1 S 0.93579(5) -0.08805(4) 0.22945(4)
O1 O 1.06154(14) -0.11710(12) 0.10971(12)
O2 O 0.96371(17) -0.11341(14) 0.35686(13)
C15 C 0.7634(2) -0.17611(16) 0.25638(17)
C16 C 0.7101(2) -0.1636(2) 0.1468(2)
H13 H 0.7662 -0.1125 0.0607
C17 C 0.5715(3) -0.2286(3) 0.1680(3)
H14 H 0.5340 -0.2197 0.0952
C18 C 0.4875(3) -0.3062(3) 0.2944(3)
C19 C 0.5413(3) -0.3153(2) 0.4027(3)
H15 H 0.4840 -0.3655 0.4889
C20 C 0.6790(2) -0.25090(18) 0.3852(2)
H16 H 0.7144 -0.2578 0.4588
C21 C 0.3367(4) -0.3766(4) 0.3124(4)
H17 H 0.3183 -0.3582 0.2263
H18 H 0.2459 -0.3459 0.3804
H19 H 0.3506 -0.4702 0.3417
loop_
_geom_bond_atom_site_label_1
_geom_bond_atom_site_label_2
_geom_bond_site_symmetry_1
_geom_bond_site_symmetry_2
N1 H1 1_555 1_555
C1 H2 1_555 1_555
C2 C1 1_555 1_555
H3 C2 1_555 1_555
C3 C2 1_555 1_555
H4 C3 1_555 1_555
C4 C3 1_555 1_555
H5 C4 1_555 1_555
C5 H6 1_555 1_555
C6 C5 1_555 1_555
H7 C6 1_555 1_555
C7 C6 1_555 1_555
H8 C7 1_555 1_555
C8 C7 1_555 1_555
H9 C8 1_555 1_555
C9 N1 1_555 1_555
H10 C9 1_555 1_555
C10 H11 1_555 1_555
H12 C10 1_555 1_555
C11 C1 1_555 1_555
C12 C4 1_555 1_555
C13 C8 1_555 1_555
C14 C5 1_555 1_555
S1 N1 1_555 1_555
O1 S1 1_555 1_555
O2 S1 1_555 1_555
C15 S1 1_555 1_555
C16 C15 1_555 1_555
H13 C16 1_555 1_555
C17 C16 1_555 1_555
H14 C17 1_555 1_555
C18 C17 1_555 1_555
C19 C18 1_555 1_555
H15 C19 1_555 1_555
C20 C15 1_555 1_555
H16 C20 1_555 1_555
C21 C18 1_555 1_555
H17 C21 1_555 1_555
H18 C21 1_555 1_555
H19 C21 1_555 1_555
C9 C11 1_555 1_555
C9 C13 1_555 1_555
C10 C12 1_555 1_555
C10 C14 1_555 1_555
C11 C12 1_555 1_555
C13 C14 1_555 1_555
C19 C20 1_555 1_555

#END
