
#######################################################################
#
#                 Cambridge Crystallographic Data Centre
#                                CCDC 
#
#######################################################################
#
# If this CIF has been generated from an entry in the Cambridge 
# Structural Database, then it will include bibliographic, chemical, 
# crystal, experimental, refinement or atomic coordinate data resulting 
# from the CCDC's data processing and validation procedures.
#
#######################################################################

data_KOTFAC
_chemical_formula_moiety         'C24 H28 N2 O2 S1'
_chemical_name_systematic        
N-(adamantan-1-yl)-N'-((4-methylphenyl)sulfonyl)benzenecarboximidamide
_symmetry_cell_setting           monoclinic
_symmetry_space_group_name_H-M   'P 21/n'
_symmetry_Int_Tables_number      14
_space_group_name_Hall           '-P 2yn'
loop_
_symmetry_equiv_pos_site_id
_symmetry_equiv_pos_as_xyz
1 x,y,z
2 1/2-x,1/2+y,1/2-z
3 -x,-y,-z
4 1/2+x,1/2-y,1/2+z
_cell_length_a                   12.066(5)
_cell_length_b                   12.957(6)
_cell_length_c                   13.516(6)
_cell_angle_alpha                90
_cell_angle_beta                 96.458(7)
_cell_angle_gamma                90
_cell_volume                     2099.67
_exptl_crystal_colour            colorless
_exptl_crystal_description       plate
_cell_formula_units_Z            4
loop_
_atom_site_label
_atom_site_type_symbol
_atom_site_fract_x
_atom_site_fract_y
_atom_site_fract_z
N1 N 0.6200(2) 0.5374(2) 0.2214(2)
H1 H 0.644(3) 0.596(3) 0.240(2)
C1 C 0.5095(3) 0.5055(3) 0.2473(2)
C2 C 0.4313(3) 0.4826(3) 0.1527(3)
H2 H 0.4284 0.5418 0.1086
H3 H 0.4596 0.4243 0.1182
C3 C 0.3152(3) 0.4585(4) 0.1788(3)
H4 H 0.2658 0.4438 0.1177
C4 C 0.2694(3) 0.5485(4) 0.2323(3)
H5 H 0.2640 0.6086 0.1893
H6 H 0.1952 0.5321 0.2487
C5 C 0.3435(3) 0.5715(3) 0.3247(3)
H7 H 0.3135 0.6303 0.3587
C6 C 0.4593(3) 0.5974(3) 0.2998(3)
H8 H 0.5068 0.6139 0.3605
H9 H 0.4560 0.6574 0.2568
C7 C 0.5139(3) 0.4145(3) 0.3168(3)
H10 H 0.5607 0.4308 0.3779
H11 H 0.5459 0.3555 0.2862
C8 C 0.3939(4) 0.3881(4) 0.3406(4)
H12 H 0.3967 0.3276 0.3844
C9 C 0.3488(4) 0.4782(4) 0.3923(3)
H13 H 0.3965 0.4928 0.4533
H14 H 0.2748 0.4621 0.4094
C10 C 0.3228(4) 0.3642(4) 0.2452(4)
H15 H 0.2487 0.3440 0.2593
H16 H 0.3550 0.3072 0.2117
C11 C 0.7834(2) 0.5443(3) 0.1373(2)
C12 C 0.8920(3) 0.5105(3) 0.1472(3)
H17 H 0.9111 0.4496 0.1814
C13 C 0.9739(3) 0.5671(5) 0.1061(4)
H18 H 1.0476 0.5448 0.1138
C14 C 0.9454(5) 0.6547(5) 0.0550(4)
H19 H 0.9997 0.6914 0.0261
C15 C 0.8395(5) 0.6898(4) 0.0454(4)
H20 H 0.8215 0.7507 0.0110
C16 C 0.7578(3) 0.6353(3) 0.0868(3)
H21 H 0.6850 0.6601 0.0806
C17 C 0.6925(2) 0.4839(3) 0.1745(2)
N2 N 0.6769(2) 0.3845(2) 0.16468(19)
S1 S 0.73865(7) 0.30334(7) 0.10189(7)
O1 O 0.79177(19) 0.3436(2) 0.02100(17)
O2 O 0.8054(2) 0.2391(2) 0.1712(2)
C18 C 0.6229(3) 0.2319(2) 0.0499(2)
C19 C 0.6023(3) 0.2220(3) -0.0515(3)
H22 H 0.6513 0.2508 -0.0923
C20 C 0.5096(3) 0.1699(3) -0.0929(3)
H23 H 0.4970 0.1635 -0.1618
C21 C 0.4353(3) 0.1269(3) -0.0357(3)
C22 C 0.4573(3) 0.1353(3) 0.0662(3)
H24 H 0.4089 0.1052 0.1068
C23 C 0.5499(3) 0.1875(3) 0.1090(3)
H25 H 0.5633 0.1929 0.1779
C24 C 0.3334(3) 0.0724(3) -0.0834(3)
H26 H 0.3327 0.0743 -0.1545
H27 H 0.2679 0.1061 -0.0649
H28 H 0.3344 0.0020 -0.0613
loop_
_geom_bond_atom_site_label_1
_geom_bond_atom_site_label_2
_geom_bond_site_symmetry_1
_geom_bond_site_symmetry_2
N1 H1 1_555 1_555
C1 N1 1_555 1_555
C2 C1 1_555 1_555
H2 C2 1_555 1_555
H3 C2 1_555 1_555
C3 C2 1_555 1_555
H4 C3 1_555 1_555
C4 C3 1_555 1_555
H5 C4 1_555 1_555
H6 C4 1_555 1_555
C5 C4 1_555 1_555
H7 C5 1_555 1_555
C6 C1 1_555 1_555
H8 C6 1_555 1_555
H9 C6 1_555 1_555
C7 C1 1_555 1_555
H10 C7 1_555 1_555
H11 C7 1_555 1_555
C8 C7 1_555 1_555
H12 C8 1_555 1_555
C9 C5 1_555 1_555
H13 C9 1_555 1_555
H14 C9 1_555 1_555
C10 C3 1_555 1_555
H15 C10 1_555 1_555
H16 C10 1_555 1_555
C11 C12 1_555 1_555
C12 H17 1_555 1_555
C13 C12 1_555 1_555
H18 C13 1_555 1_555
C14 C13 1_555 1_555
H19 C14 1_555 1_555
C15 C14 1_555 1_555
H20 C15 1_555 1_555
C16 C11 1_555 1_555
H21 C16 1_555 1_555
C17 N1 1_555 1_555
N2 C17 1_555 1_555
S1 N2 1_555 1_555
O1 S1 1_555 1_555
O2 S1 1_555 1_555
C18 S1 1_555 1_555
C19 C18 1_555 1_555
H22 C19 1_555 1_555
C20 C19 1_555 1_555
H23 C20 1_555 1_555
C21 C20 1_555 1_555
C22 C21 1_555 1_555
H24 C22 1_555 1_555
C23 C18 1_555 1_555
H25 C23 1_555 1_555
C24 C21 1_555 1_555
H26 C24 1_555 1_555
H27 C24 1_555 1_555
H28 C24 1_555 1_555
C5 C6 1_555 1_555
C8 C9 1_555 1_555
C8 C10 1_555 1_555
C11 C17 1_555 1_555
C15 C16 1_555 1_555
C22 C23 1_555 1_555

#END
