
#######################################################################
#
#                 Cambridge Crystallographic Data Centre
#                                CCDC 
#
#######################################################################
#
# If this CIF has been generated from an entry in the Cambridge 
# Structural Database, then it will include bibliographic, chemical, 
# crystal, experimental, refinement or atomic coordinate data resulting 
# from the CCDC's data processing and validation procedures.
#
#######################################################################

data_KOTGOR
_chemical_formula_moiety         'C16 H17 N1 O2 S1'
_chemical_name_systematic        
N-(2,3-dihydro-1H-inden-1-yl)-4-methylbenzenesulfonamide
_symmetry_cell_setting           triclinic
_symmetry_space_group_name_H-M   'P -1'
_symmetry_Int_Tables_number      2
_space_group_name_Hall           '-P 1'
loop_
_symmetry_equiv_pos_site_id
_symmetry_equiv_pos_as_xyz
1 x,y,z
2 -x,-y,-z
_cell_length_a                   9.086(4)
_cell_length_b                   9.680(5)
_cell_length_c                   10.479(5)
_cell_angle_alpha                101.788(7)
_cell_angle_beta                 107.192(7)
_cell_angle_gamma                115.555(7)
_cell_volume                     733.117
_exptl_crystal_colour            colorless
_exptl_crystal_description       needle
_cell_formula_units_Z            2
loop_
_atom_site_label
_atom_site_type_symbol
_atom_site_fract_x
_atom_site_fract_y
_atom_site_fract_z
N1 N 0.8162(4) 0.4379(4) 0.2867(4)
H1 H 0.7857 0.3943 0.3454
C1 C 0.6951(6) 0.4742(5) 0.1907(5)
H2 H 0.7549 0.5322 0.1379
C2 C 0.6452(7) 0.5811(6) 0.2758(6)
H3 H 0.6783 0.5838 0.3735
H4 H 0.7094 0.6938 0.2811
C3 C 0.4430(7) 0.5057(6) 0.1980(5)
H5 H 0.3884 0.4930 0.2650
H6 H 0.4164 0.5744 0.1514
C4 C 0.1967(7) 0.2139(8) -0.0037(6)
H7 H 0.1007 0.2252 -0.0018
C5 C 0.1658(8) 0.0724(7) -0.0973(6)
H8 H 0.0471 -0.0133 -0.1586
C6 C 0.3052(8) 0.0535(6) -0.1029(5)
H9 H 0.2807 -0.0434 -0.1682
C7 C 0.4830(6) 0.1796(6) -0.0110(5)
H10 H 0.5787 0.1683 -0.0137
C8 C 0.5150(6) 0.3213(5) 0.0843(4)
C9 C 0.3746(6) 0.3403(6) 0.0883(5)
S1 S 1.00644(15) 0.48006(14) 0.28160(11)
O1 O 0.9712(4) 0.3938(4) 0.1383(3)
O2 O 1.0989(4) 0.4483(4) 0.3986(3)
C10 C 1.1280(5) 0.6935(5) 0.3183(4)
C11 C 1.1794(6) 0.7479(6) 0.2181(4)
H11 H 1.1528 0.6722 0.1315
C12 C 1.2706(6) 0.9157(6) 0.2473(5)
H12 H 1.3046 0.9516 0.1792
C13 C 1.3127(6) 1.0312(6) 0.3739(5)
C14 C 1.2624(7) 0.9740(6) 0.4735(5)
H13 H 1.2915 1.0501 0.5609
C15 C 1.1707(7) 0.8081(6) 0.4469(5)
H14 H 1.1372 0.7727 0.5154
C16 C 1.4087(7) 1.2128(6) 0.4014(6)
H15 H 1.4265 1.2750 0.4944
H16 H 1.3369 1.2320 0.3277
H17 H 1.5240 1.2476 0.3997
loop_
_geom_bond_atom_site_label_1
_geom_bond_atom_site_label_2
_geom_bond_site_symmetry_1
_geom_bond_site_symmetry_2
N1 H1 1_555 1_555
C1 N1 1_555 1_555
H2 C1 1_555 1_555
C2 C1 1_555 1_555
H3 C2 1_555 1_555
H4 C2 1_555 1_555
C3 C2 1_555 1_555
H5 C3 1_555 1_555
H6 C3 1_555 1_555
C4 H7 1_555 1_555
C5 C4 1_555 1_555
H8 C5 1_555 1_555
C6 C5 1_555 1_555
H9 C6 1_555 1_555
C7 C6 1_555 1_555
H10 C7 1_555 1_555
C8 C1 1_555 1_555
C9 C3 1_555 1_555
S1 N1 1_555 1_555
O1 S1 1_555 1_555
O2 S1 1_555 1_555
C10 S1 1_555 1_555
C11 C10 1_555 1_555
H11 C11 1_555 1_555
C12 C11 1_555 1_555
H12 C12 1_555 1_555
C13 C12 1_555 1_555
C14 C13 1_555 1_555
H13 C14 1_555 1_555
C15 C10 1_555 1_555
H14 C15 1_555 1_555
C16 C13 1_555 1_555
H15 C16 1_555 1_555
H16 C16 1_555 1_555
H17 C16 1_555 1_555
C4 C9 1_555 1_555
C7 C8 1_555 1_555
C8 C9 1_555 1_555
C14 C15 1_555 1_555

#END
