
#######################################################################
#
#                 Cambridge Crystallographic Data Centre
#                                CCDC 
#
#######################################################################
#
# If this CIF has been generated from an entry in the Cambridge 
# Structural Database, then it will include bibliographic, chemical, 
# crystal, experimental, refinement or atomic coordinate data resulting 
# from the CCDC's data processing and validation procedures.
#
#######################################################################

data_KOTHEI
_chemical_formula_moiety         'C16 H17 N1 O2 S1'
_chemical_name_systematic        
2-methyl-1-((4-methylphenyl)sulfonyl)-3-phenylaziridine
_symmetry_cell_setting           orthorhombic
_symmetry_space_group_name_H-M   'P b c a'
_symmetry_Int_Tables_number      61
_space_group_name_Hall           '-P 2ac 2ab'
loop_
_symmetry_equiv_pos_site_id
_symmetry_equiv_pos_as_xyz
1 x,y,z
2 1/2-x,-y,1/2+z
3 -x,1/2+y,1/2-z
4 1/2+x,1/2-y,-z
5 -x,-y,-z
6 1/2+x,y,1/2-z
7 x,1/2-y,1/2+z
8 1/2-x,1/2+y,z
_cell_length_a                   12.015(4)
_cell_length_b                   7.631(3)
_cell_length_c                   31.475(11)
_cell_angle_alpha                90
_cell_angle_beta                 90
_cell_angle_gamma                90
_cell_volume                     2885.83
_exptl_crystal_colour            colorless
_exptl_crystal_description       'broken plate'
_cell_formula_units_Z            8
loop_
_atom_site_label
_atom_site_type_symbol
_atom_site_fract_x
_atom_site_fract_y
_atom_site_fract_z
N1 N 0.5099(3) -0.3063(5) 0.62944(10)
C1 C 0.5147(4) -0.3125(5) 0.67664(12)
H1 H 0.5518 -0.2095 0.6902
C2 C 0.5896(4) -0.4258(6) 0.65104(13)
H2 H 0.6692 -0.3877 0.6502
C3 C 0.4122(4) -0.3760(6) 0.69895(13)
C4 C 0.4154(4) -0.3967(6) 0.74289(14)
H3 H 0.4821 -0.3721 0.7580
C5 C 0.3216(4) -0.4531(6) 0.76466(14)
H4 H 0.3241 -0.4675 0.7946
C6 C 0.2248(4) -0.4881(6) 0.74274(15)
H5 H 0.1611 -0.5292 0.7575
C7 C 0.2203(4) -0.4638(6) 0.69954(15)
H6 H 0.1524 -0.4831 0.6848
C8 C 0.3131(4) -0.4118(6) 0.67751(14)
H7 H 0.3099 -0.4001 0.6475
C9 C 0.5710(4) -0.6181(6) 0.64492(15)
H8 H 0.6280 -0.6839 0.6605
H9 H 0.5757 -0.6465 0.6146
H10 H 0.4971 -0.6498 0.6557
S1 S 0.55810(9) -0.12459(14) 0.60762(3)
O1 O 0.6566(3) -0.0620(4) 0.62805(9)
O2 O 0.4644(3) -0.0074(4) 0.60529(10)
C10 C 0.5937(4) -0.1979(5) 0.55629(12)
C11 C 0.5272(7) -0.1642(13) 0.5226(3)
H11 H 0.4590 -0.1032 0.5265
C12 C 0.5583(8) -0.2185(13) 0.4822(3)
H12 H 0.5100 -0.1943 0.4591
C13 C 0.6524(4) -0.3026(6) 0.47466(14)
C14 C 0.7217(7) -0.3530(12) 0.5104(3)
H13 H 0.7860 -0.4230 0.5060
C15 C 0.6938(7) -0.2988(11) 0.5510(3)
H14 H 0.7394 -0.3274 0.5747
C16 C 0.6847(5) -0.3588(8) 0.43068(15)
H15 H 0.7068 -0.4824 0.4311
H16 H 0.7472 -0.2872 0.4207
H17 H 0.6212 -0.3436 0.4115
C17? C 0.6978(7) -0.1551(13) 0.5412(3)
H18? H 0.7494 -0.0935 0.5585
C18? C 0.7256(7) -0.2040(13) 0.5001(3)
H19? H 0.7958 -0.1701 0.4889
C19? C 0.5440(8) -0.3247(14) 0.4904(3)
H20? H 0.4896 -0.3778 0.4727
C20? C 0.5138(8) -0.2718(14) 0.5308(3)
H21? H 0.4396 -0.2862 0.5406
loop_
_geom_bond_atom_site_label_1
_geom_bond_atom_site_label_2
_geom_bond_site_symmetry_1
_geom_bond_site_symmetry_2
N1 C1 1_555 1_555
C1 H1 1_555 1_555
C2 N1 1_555 1_555
H2 C2 1_555 1_555
C3 C1 1_555 1_555
C4 C3 1_555 1_555
H3 C4 1_555 1_555
C5 C4 1_555 1_555
H4 C5 1_555 1_555
C6 C5 1_555 1_555
H5 C6 1_555 1_555
C7 C6 1_555 1_555
H6 C7 1_555 1_555
C8 C3 1_555 1_555
H7 C8 1_555 1_555
C9 C2 1_555 1_555
H8 C9 1_555 1_555
H9 C9 1_555 1_555
H10 C9 1_555 1_555
S1 N1 1_555 1_555
O1 S1 1_555 1_555
O2 S1 1_555 1_555
C10 S1 1_555 1_555
C11 C10 1_555 1_555
H11 C11 1_555 1_555
C12 C11 1_555 1_555
H12 C12 1_555 1_555
C13 C12 1_555 1_555
C14 C13 1_555 1_555
H13 C14 1_555 1_555
C15 C10 1_555 1_555
H14 C15 1_555 1_555
C16 C13 1_555 1_555
H15 C16 1_555 1_555
H16 C16 1_555 1_555
H17 C16 1_555 1_555
C1 C2 1_555 1_555
C7 C8 1_555 1_555
C14 C15 1_555 1_555

#END
