
#######################################################################
#
#                 Cambridge Crystallographic Data Centre
#                                CCDC 
#
#######################################################################
#
# If this CIF has been generated from an entry in the Cambridge 
# Structural Database, then it will include bibliographic, chemical, 
# crystal, experimental, refinement or atomic coordinate data resulting 
# from the CCDC's data processing and validation procedures.
#
#######################################################################

data_KOTPOA
_chemical_formula_moiety         'C29 H22 N2'
_chemical_name_systematic        
3-(4-(2-(4-(diphenylamino)phenyl)vinyl)phenyl)acrylonitrile
_symmetry_cell_setting           triclinic
_symmetry_space_group_name_H-M   'P -1'
_symmetry_Int_Tables_number      2
_space_group_name_Hall           '-P 1'
loop_
_symmetry_equiv_pos_site_id
_symmetry_equiv_pos_as_xyz
1 x,y,z
2 -x,-y,-z
_cell_length_a                   10.2279(12)
_cell_length_b                   11.9024(14)
_cell_length_c                   19.510(2)
_cell_angle_alpha                106.347(2)
_cell_angle_beta                 95.623(2)
_cell_angle_gamma                102.023(2)
_cell_volume                     2197.82
_exptl_crystal_colour            yellow
_exptl_crystal_description       block
_cell_formula_units_Z            4
loop_
_atom_site_label
_atom_site_type_symbol
_atom_site_fract_x
_atom_site_fract_y
_atom_site_fract_z
N1 N 0.40058(19) 0.80580(17) 0.12498(10)
C1 C 0.5251(2) 0.5772(2) 0.33469(13)
H1 H 0.5473 0.6237 0.3832
C2 C 0.5206(2) 0.7618(2) 0.29930(13)
H2 H 0.5642 0.8084 0.3458
C3 C 0.4155(2) 0.5726(2) 0.21324(12)
H3 H 0.3877 0.4888 0.2001
C4 C 0.4272(2) 0.7535(2) 0.17947(12)
C5 C 0.4848(2) 0.6364(2) 0.28302(12)
C6 C 0.3870(2) 0.6284(2) 0.16350(12)
H4 H 0.3395 0.5818 0.1177
C7 C 0.4942(2) 0.8194(2) 0.24940(13)
H5 H 0.5213 0.9032 0.2625
C8 C 0.5330(2) 0.4632(2) 0.31895(13)
H6 H 0.5096 0.4186 0.2701
C9 C 0.3665(2) 0.9190(2) 0.13934(13)
C10 C 0.4003(2) 0.7379(2) 0.05206(12)
C11 C 0.5116(2) 0.6956(2) 0.03362(12)
H7 H 0.5878 0.7129 0.0686
C12 C 0.5103(3) 0.6273(2) -0.03682(13)
H8 H 0.5856 0.5988 -0.0490
C13 C 0.5726(2) 0.3978(2) 0.36653(12)
C14 C 0.5685(3) 0.2763(3) 0.33812(14)
H9 H 0.5436 0.2391 0.2884
C15 C 0.3981(3) 0.6012(2) -0.08904(13)
H10 H 0.3973 0.5551 -0.1364
C16 C 0.6448(3) 0.3817(3) 0.48409(13)
H11 H 0.6719 0.4190 0.5337
C17 C 0.3010(2) 0.9607(2) 0.19632(14)
H12 H 0.2803 0.9150 0.2272
C18 C 0.6131(2) 0.4490(2) 0.44134(13)
H13 H 0.6188 0.5307 0.4626
C19 C 0.2870(2) 0.7106(2) -0.00087(13)
H14 H 0.2106 0.7375 0.0110
C20 C 0.6374(3) 0.2596(3) 0.45548(14)
C21 C 0.2883(3) 0.6435(2) -0.07083(13)
H15 H 0.2130 0.6268 -0.1062
C22 C 0.6002(3) 0.2096(3) 0.38145(15)
H16 H 0.5965 0.1283 0.3603
C23 C 0.3967(3) 0.9886(2) 0.09444(14)
H17 H 0.4418 0.9623 0.0561
C24 C 0.2659(3) 1.0693(3) 0.20797(18)
H18 H 0.2225 1.0967 0.2468
C25 C 0.3602(3) 1.0975(3) 0.10633(18)
H19 H 0.3806 1.1438 0.0758
C26 C 0.6668(3) 0.1833(3) 0.49881(16)
H20 H 0.6564 0.1024 0.4731
C27 C 0.7049(3) 0.2123(3) 0.56770(17)
H21 H 0.7161 0.2921 0.5959
C28 C 0.7308(4) 0.1263(3) 0.60251(18)
C29 C 0.2945(4) 1.1372(3) 0.1627(2)
H22 H 0.2694 1.2099 0.1703
N2 N 0.7529(4) 0.0582(3) 0.62927(16)
C30 C -0.0316(2) 0.3016(2) 0.82226(12)
H23 H -0.0965 0.2846 0.8505
N3 N 0.1045(2) 0.19022(17) 0.87341(10)
C31 C -0.1923(3) 0.6587(2) 0.64063(14)
H24 H -0.2486 0.6497 0.6744
C32 C 0.0440(2) 0.3969(2) 0.73447(12)
C33 C -0.0888(2) 0.6002(2) 0.63481(12)
C34 C -0.0518(2) 0.3687(2) 0.77752(12)
H25 H -0.1305 0.3960 0.7756
C35 C -0.0690(3) 0.5267(2) 0.68155(12)
H26 H -0.1331 0.5187 0.7116
C36 C -0.0050(3) 0.6164(2) 0.58376(13)
H27 H 0.0665 0.5793 0.5788
C37 C 0.1777(2) 0.2838(2) 0.78314(13)
H28 H 0.2555 0.2552 0.7846
C38 C 0.0272(3) 0.4702(2) 0.68690(13)
H29 H 0.0919 0.4777 0.6571
C39 C 0.0837(2) 0.2585(2) 0.82639(12)
C40 C -0.2149(3) 0.7295(2) 0.59836(14)
H30 H -0.2856 0.7676 0.6039
C41 C 0.0831(2) 0.2320(2) 0.94615(12)
C42 C 0.1571(2) 0.3510(2) 0.73806(13)
H31 H 0.2213 0.3661 0.7090
C43 C 0.1387(2) 0.0777(2) 0.84609(13)
C44 C -0.0282(3) 0.6868(2) 0.54094(13)
H32 H 0.0276 0.6957 0.5070
C45 C -0.1332(3) 0.7448(2) 0.54739(13)
C46 C -0.1629(3) 0.8213(2) 0.50357(14)
H33 H -0.2336 0.8579 0.5144
C47 C 0.0936(2) 0.3969(2) 1.05251(14)
H34 H 0.1114 0.4797 1.0755
C48 C 0.1140(2) 0.3557(2) 0.98184(12)
H35 H 0.1482 0.4103 0.9581
C49 C 0.0307(3) 0.1546(2) 0.98251(14)
H36 H 0.0037 0.0720 0.9587
C50 C 0.2207(2) 0.0368(2) 0.88819(15)
H37 H 0.2565 0.0836 0.9358
C51 C -0.1029(3) 0.8446(3) 0.45129(15)
H38 H -0.0330 0.8091 0.4370
C52 C 0.0480(3) 0.3192(3) 1.08924(14)
H39 H 0.0378 0.3481 1.1374
C53 C 0.0176(3) 0.1984(3) 1.05430(15)
H40 H -0.0124 0.1444 1.0792
C54 C 0.0901(3) 0.0077(2) 0.77467(14)
H41 H 0.0346 0.0338 0.7449
C55 C -0.1443(3) 0.9247(3) 0.41593(15)
N4 N -0.1793(3) 0.9891(2) 0.38975(14)
C56 C 0.2019(4) -0.1417(3) 0.7902(2)
H42 H 0.2220 -0.2159 0.7714
C57 C 0.1237(4) -0.0998(3) 0.74798(18)
H43 H 0.0920 -0.1453 0.6997
C58 C 0.2509(3) -0.0737(3) 0.8606(2)
H44 H 0.3047 -0.1016 0.8900
loop_
_geom_bond_atom_site_label_1
_geom_bond_atom_site_label_2
_geom_bond_site_symmetry_1
_geom_bond_site_symmetry_2
N1 C4 1_555 1_555
C1 H1 1_555 1_555
C2 H2 1_555 1_555
C3 H3 1_555 1_555
C4 C6 1_555 1_555
C5 C1 1_555 1_555
C6 C3 1_555 1_555
H4 C6 1_555 1_555
C7 C2 1_555 1_555
H5 C7 1_555 1_555
C8 C1 1_555 1_555
H6 C8 1_555 1_555
C9 N1 1_555 1_555
C10 N1 1_555 1_555
C11 C10 1_555 1_555
H7 C11 1_555 1_555
C12 C11 1_555 1_555
H8 C12 1_555 1_555
C13 C8 1_555 1_555
C14 C13 1_555 1_555
H9 C14 1_555 1_555
C15 C12 1_555 1_555
H10 C15 1_555 1_555
C16 H11 1_555 1_555
C17 C9 1_555 1_555
H12 C17 1_555 1_555
C18 C13 1_555 1_555
H13 C18 1_555 1_555
C19 C10 1_555 1_555
H14 C19 1_555 1_555
C20 C16 1_555 1_555
C21 C15 1_555 1_555
H15 C21 1_555 1_555
C22 C14 1_555 1_555
H16 C22 1_555 1_555
C23 C9 1_555 1_555
H17 C23 1_555 1_555
C24 C17 1_555 1_555
H18 C24 1_555 1_555
C25 C23 1_555 1_555
H19 C25 1_555 1_555
C26 C20 1_555 1_555
H20 C26 1_555 1_555
C27 C26 1_555 1_555
H21 C27 1_555 1_555
C28 C27 1_555 1_555
C29 C24 1_555 1_555
H22 C29 1_555 1_555
N2 C28 1_555 1_555
C30 H23 1_555 1_555
N3 C39 1_555 1_555
C31 H24 1_555 1_555
C32 C34 1_555 1_555
C33 C31 1_555 1_555
C34 C30 1_555 1_555
H25 C34 1_555 1_555
C35 C33 1_555 1_555
H26 C35 1_555 1_555
C36 C33 1_555 1_555
H27 C36 1_555 1_555
C37 H28 1_555 1_555
C38 C32 1_555 1_555
H29 C38 1_555 1_555
C39 C30 1_555 1_555
C40 C31 1_555 1_555
H30 C40 1_555 1_555
C41 N3 1_555 1_555
C42 C32 1_555 1_555
H31 C42 1_555 1_555
C43 N3 1_555 1_555
C44 C36 1_555 1_555
H32 C44 1_555 1_555
C45 C40 1_555 1_555
C46 C45 1_555 1_555
H33 C46 1_555 1_555
C47 H34 1_555 1_555
C48 C41 1_555 1_555
H35 C48 1_555 1_555
C49 C41 1_555 1_555
H36 C49 1_555 1_555
C50 C43 1_555 1_555
H37 C50 1_555 1_555
C51 C46 1_555 1_555
H38 C51 1_555 1_555
C52 C47 1_555 1_555
H39 C52 1_555 1_555
C53 C49 1_555 1_555
H40 C53 1_555 1_555
C54 C43 1_555 1_555
H41 C54 1_555 1_555
C55 C51 1_555 1_555
N4 C55 1_555 1_555
C56 H42 1_555 1_555
C57 C54 1_555 1_555
H43 C57 1_555 1_555
C58 C50 1_555 1_555
H44 C58 1_555 1_555
C2 C5 1_555 1_555
C3 C5 1_555 1_555
C4 C7 1_555 1_555
C16 C18 1_555 1_555
C19 C21 1_555 1_555
C20 C22 1_555 1_555
C25 C29 1_555 1_555
C35 C38 1_555 1_555
C37 C39 1_555 1_555
C37 C42 1_555 1_555
C44 C45 1_555 1_555
C47 C48 1_555 1_555
C52 C53 1_555 1_555
C56 C57 1_555 1_555
C56 C58 1_555 1_555

#END
