
#######################################################################
#
#                 Cambridge Crystallographic Data Centre
#                                CCDC 
#
#######################################################################
#
# If this CIF has been generated from an entry in the Cambridge 
# Structural Database, then it will include bibliographic, chemical, 
# crystal, experimental, refinement or atomic coordinate data resulting 
# from the CCDC's data processing and validation procedures.
#
#######################################################################

data_KOTPOY
_chemical_formula_moiety         'C15 H18 O3'
_chemical_name_systematic        
2,3-Dihydro-2',3'-epoxy-8-methoxyspiro(4H-1-benzopyran-4,1'-cyclohexane)
_symmetry_cell_setting           orthorhombic
_symmetry_space_group_name_H-M   'P b c n'
_symmetry_Int_Tables_number      60
_space_group_name_Hall           '-P 2n 2ab'
loop_
_symmetry_equiv_pos_site_id
_symmetry_equiv_pos_as_xyz
1 x,y,z
2 1/2-x,1/2+y,z
3 x,-y,1/2+z
4 1/2-x,1/2-y,1/2+z
5 -x,-y,-z
6 1/2+x,1/2-y,-z
7 -x,y,1/2-z
8 1/2+x,1/2+y,1/2-z
_cell_length_a                   26.085(7)
_cell_length_b                   7.211(2)
_cell_length_c                   13.653(6)
_cell_angle_alpha                90
_cell_angle_beta                 90
_cell_angle_gamma                90
_cell_volume                     2568.11
_cell_formula_units_Z            8
loop_
_atom_site_label
_atom_site_type_symbol
_atom_site_fract_x
_atom_site_fract_y
_atom_site_fract_z
O1 O 0.87206(8) 0.4870(3) 0.6778(2)
C1 C 0.8970(2) 0.6641(6) 0.6802(3)
C2 C 0.9288(2) 0.6854(6) 0.7667(3)
C3 C 0.8981(1) 0.6702(4) 0.8646(2)
C4 C 0.8577(1) 0.5202(4) 0.8532(2)
C5 C 0.8293(1) 0.4574(4) 0.9338(2)
C6 C 0.7941(1) 0.3162(5) 0.9242(2)
C7 C 0.7857(1) 0.2293(4) 0.8345(2)
C8 C 0.8134(1) 0.2899(4) 0.7545(2)
C9 C 0.8484(1) 0.4350(4) 0.7633(2)
O2 O 0.80897(9) 0.2175(3) 0.6619(2)
C10 C 0.7771(1) 0.0585(5) 0.6507(3)
C11 C 0.9366(1) 0.6052(4) 0.9419(2)
C12 C 0.9521(1) 0.7204(5) 1.0250(3)
C13 C 0.9301(1) 0.9093(5) 1.0396(3)
C14 C 0.9097(1) 0.9895(5) 0.9436(3)
C15 C 0.8731(2) 0.8532(5) 0.8943(3)
O3 O 0.98564(8) 0.7007(3) 0.9418(2)
H1 H 0.872 0.763 0.682
H2 H 0.923(2) 0.665(6) 0.611(3)
H3 H 0.948(1) 0.801(6) 0.766(3)
H4 H 0.947(1) 0.541(6) 0.747(3)
H5 H 0.834(1) 0.517(6) 0.998(3)
H6 H 0.773(1) 0.272(5) 0.978(3)
H7 H 0.759(1) 0.126(5) 0.825(2)
H8 H 0.741(1) 0.091(5) 0.668(3)
H9 H 0.789(1) -0.045(6) 0.702(3)
H10 H 0.784(1) 0.013(6) 0.591(3)
H11 H 0.941(1) 0.460(5) 0.947(3)
H12 H 0.967(1) 0.646(5) 1.086(3)
H13 H 0.899(1) 0.909(6) 1.084(3)
H14 H 0.958(1) 0.993(6) 1.068(3)
H15 H 0.889(1) 1.098(6) 0.963(3)
H16 H 0.939(1) 1.016(6) 0.903(3)
H17 H 0.858(1) 0.914(6) 0.832(3)
H18 H 0.846(1) 0.829(6) 0.947(3)
loop_
_geom_bond_atom_site_label_1
_geom_bond_atom_site_label_2
_geom_bond_site_symmetry_1
_geom_bond_site_symmetry_2
O1 C1 1_555 1_555
C1 C2 1_555 1_555
C2 C3 1_555 1_555
C3 C4 1_555 1_555
C4 C5 1_555 1_555
C5 C6 1_555 1_555
C6 C7 1_555 1_555
C7 C8 1_555 1_555
C8 C9 1_555 1_555
C9 O1 1_555 1_555
O2 C8 1_555 1_555
C10 O2 1_555 1_555
C11 C3 1_555 1_555
C12 C11 1_555 1_555
C13 C12 1_555 1_555
C14 C13 1_555 1_555
C15 C3 1_555 1_555
O3 C11 1_555 1_555
H1 C1 1_555 1_555
H2 C1 1_555 1_555
H3 C2 1_555 1_555
H4 C2 1_555 1_555
H5 C5 1_555 1_555
H6 C6 1_555 1_555
H7 C7 1_555 1_555
H8 C10 1_555 1_555
H9 C10 1_555 1_555
H10 C10 1_555 1_555
H11 C11 1_555 1_555
H12 C12 1_555 1_555
H13 C13 1_555 1_555
H14 C13 1_555 1_555
H15 C14 1_555 1_555
H16 C14 1_555 1_555
H17 C15 1_555 1_555
H18 C15 1_555 1_555
C4 C9 1_555 1_555
C12 O3 1_555 1_555
C14 C15 1_555 1_555

#END
