
#######################################################################
#
#                 Cambridge Crystallographic Data Centre
#                                CCDC 
#
#######################################################################
#
# If this CIF has been generated from an entry in the Cambridge 
# Structural Database, then it will include bibliographic, chemical, 
# crystal, experimental, refinement or atomic coordinate data resulting 
# from the CCDC's data processing and validation procedures.
#
#######################################################################

data_KOTQER
_chemical_name_common            hexachlorohexamethylcyclohexasilane
_chemical_formula_moiety         'C6 H18 Cl6 Si6'
_chemical_name_systematic        
1,2,3,4,5,6-hexachloro-1,2,3,4,5,6-hexamethylhexasilinane
_symmetry_cell_setting           monoclinic
_symmetry_space_group_name_H-M   'C 2/c'
_symmetry_Int_Tables_number      15
_space_group_name_Hall           '-C 2yn'
loop_
_symmetry_equiv_pos_site_id
_symmetry_equiv_pos_as_xyz
1 x,y,z
2 -x,y,1/2-z
3 1/2+x,1/2+y,z
4 1/2-x,1/2+y,1/2-z
5 -x,-y,-z
6 x,-y,1/2+z
7 1/2-x,1/2-y,-z
8 1/2+x,1/2-y,1/2+z
_cell_length_a                   17.7183(15)
_cell_length_b                   9.8193(8)
_cell_length_c                   13.5232(12)
_cell_angle_alpha                90
_cell_angle_beta                 109.717(4)
_cell_angle_gamma                90
_cell_volume                     2214.84
_exptl_crystal_colour            'whitish colorless'
_exptl_crystal_description       block
_cell_formula_units_Z            4
_chemical_properties_physical    Moisture-sensitive
_exptl_crystal_recrystallization_method n-hexane
loop_
_atom_site_label
_atom_site_type_symbol
_atom_site_fract_x
_atom_site_fract_y
_atom_site_fract_z
Si1 Si 0.21314(7) 0.03151(11) -0.00095(9)
Si2 Si 0.34674(7) 0.09483(12) 0.08196(9)
Si3 Si 0.37692(7) 0.29261(12) 0.00640(10)
C1 C 0.1856(16) -0.037(3) -0.1375(14)
H1 H 0.1872 0.0363 -0.1856
H2 H 0.1313 -0.0756 -0.1588
H3 H 0.2237 -0.1086 -0.1395
Cl1 Cl 0.4874(3) 0.3593(9) 0.0999(4)
C2 C 0.3674(15) 0.125(3) 0.2278(13)
H4 H 0.3309 0.1950 0.2369
H5 H 0.4230 0.1550 0.2610
H6 H 0.3589 0.0399 0.2607
C3 C 0.384(2) 0.262(4) -0.1263(18)
H7 H 0.3306 0.2607 -0.1790
H8 H 0.4105 0.1737 -0.1266
H9 H 0.4162 0.3343 -0.1428
Cl2 Cl 0.1904(3) -0.1266(5) 0.0855(3)
Cl3 Cl 0.4211(3) -0.0508(5) 0.0666(6)
Si1F Si 0.28686(7) 0.46849(11) 0.00095(9)
Si2F Si 0.15326(7) 0.40517(12) -0.08196(9)
Si3F Si 0.12308(7) 0.20739(12) -0.00640(10)
C1F C 0.3144(16) 0.537(3) 0.1375(14)
H1F H 0.3128 0.4637 0.1856
H2F H 0.3687 0.5756 0.1588
H3F H 0.2763 0.6086 0.1395
Cl1F Cl 0.0126(3) 0.1407(9) -0.0999(4)
C2F C 0.1326(15) 0.375(3) -0.2278(13)
H4F H 0.1691 0.3050 -0.2369
H5F H 0.0770 0.3450 -0.2610
H6F H 0.1411 0.4601 -0.2607
C3F C 0.116(2) 0.238(4) 0.1263(18)
H7F H 0.1694 0.2393 0.1790
H8F H 0.0895 0.3263 0.1266
H9F H 0.0838 0.1657 0.1428
Cl2F Cl 0.3096(3) 0.6266(5) -0.0855(3)
Cl3F Cl 0.0789(3) 0.5508(5) -0.0666(6)
Cl4? Cl 0.2016(3) -0.0164(5) -0.1492(3)
Cl5? Cl 0.3567(3) 0.1378(6) 0.2363(3)
C4? C 0.4816(14) 0.352(4) 0.080(3)
H10? H 0.4910 0.4400 0.0514
H11? H 0.5202 0.2852 0.0727
H12? H 0.4882 0.3634 0.1546
C5? C 0.1888(18) -0.125(2) 0.0631(17)
H13? H 0.2278 -0.1971 0.0654
H14? H 0.1348 -0.1572 0.0224
H15? H 0.1912 -0.1033 0.1348
C6? C 0.4076(16) -0.062(2) 0.082(3)
H16? H 0.4028 -0.1259 0.1349
H17? H 0.4640 -0.0364 0.0981
H18? H 0.3878 -0.1048 0.0124
Cl6? Cl 0.3709(5) 0.2375(7) -0.1408(4)
loop_
_geom_bond_atom_site_label_1
_geom_bond_atom_site_label_2
_geom_bond_site_symmetry_1
_geom_bond_site_symmetry_2
Si1 Si2 1_555 1_555
Si2 Si3 1_555 1_555
Si3 Cl1 1_555 1_555
C1 Si1 1_555 1_555
H1 C1 1_555 1_555
H2 C1 1_555 1_555
H3 C1 1_555 1_555
C2 Si2 1_555 1_555
H4 C2 1_555 1_555
H5 C2 1_555 1_555
H6 C2 1_555 1_555
C3 Si3 1_555 1_555
H7 C3 1_555 1_555
H8 C3 1_555 1_555
H9 C3 1_555 1_555
Cl2 Si1 1_555 1_555
Cl3 Si2 1_555 1_555
Si1F Si3 1_555 1_555
Si2F Si1F 1_555 1_555
Si3F Si1 1_555 1_555
C1F Si1F 1_555 1_555
H1F C1F 1_555 1_555
H2F C1F 1_555 1_555
H3F C1F 1_555 1_555
Cl1F Si3F 1_555 1_555
C2F Si2F 1_555 1_555
H4F C2F 1_555 1_555
H5F C2F 1_555 1_555
H6F C2F 1_555 1_555
C3F Si3F 1_555 1_555
H7F C3F 1_555 1_555
H8F C3F 1_555 1_555
H9F C3F 1_555 1_555
Cl2F Si1F 1_555 1_555
Cl3F Si2F 1_555 1_555
Si2F Si3F 1_555 1_555

#END
