
#######################################################################
#
#                 Cambridge Crystallographic Data Centre
#                                CCDC 
#
#######################################################################
#
# If this CIF has been generated from an entry in the Cambridge 
# Structural Database, then it will include bibliographic, chemical, 
# crystal, experimental, refinement or atomic coordinate data resulting 
# from the CCDC's data processing and validation procedures.
#
#######################################################################

data_KOTTUK
_chemical_formula_moiety         'C32 H16 N8 O4,2(C1 H2 Cl2)'
_chemical_name_systematic        
"2,2',2'',2'''-(2,3,8,9-tetramethoxydibenzo[a,e][8]annulene-5,6,11,12-tetraylidene)tetramalononitrile dichloromethane solvate"
_symmetry_cell_setting           orthorhombic
_symmetry_space_group_name_H-M   'P b c a'
_symmetry_Int_Tables_number      61
_space_group_name_Hall           '-P 2ac 2ab'
loop_
_symmetry_equiv_pos_site_id
_symmetry_equiv_pos_as_xyz
1 x,y,z
2 1/2+x,1/2-y,-z
3 -x,1/2+y,1/2-z
4 1/2-x,-y,1/2+z
5 -x,-y,-z
6 1/2-x,1/2+y,z
7 x,1/2-y,1/2+z
8 1/2+x,y,1/2-z
_cell_length_a                   15.2781(9)
_cell_length_b                   16.4848(10)
_cell_length_c                   27.6784(14)
_cell_angle_alpha                90
_cell_angle_beta                 90
_cell_angle_gamma                90
_cell_volume                     6970.98
_exptl_crystal_colour            brown
_exptl_crystal_description       plank
_cell_formula_units_Z            8
_exptl_crystal_recrystallization_method pentane/dichloromethane
loop_
_atom_site_label
_atom_site_type_symbol
_atom_site_fract_x
_atom_site_fract_y
_atom_site_fract_z
Cl1 Cl 0.89801(6) 0.14720(6) 0.60188(3)
Cl2 Cl 0.89202(7) 0.05637(6) 0.51186(3)
C1 C 0.9496(2) 0.0728(2) 0.56631(12)
H1 H 1.010(2) 0.092(2) 0.5597(11)
H2 H 0.947(2) 0.021(2) 0.5834(11)
Cl3 Cl 0.35800(8) 0.18061(8) 0.60711(4)
Cl4 Cl 0.42752(8) 0.20467(8) 0.51103(4)
C2 C 0.3676(3) 0.2480(3) 0.55839(14)
H3 H 0.401(2) 0.295(2) 0.5703(12)
H4 H 0.307(3) 0.258(3) 0.5429(15)
O1 O 0.17306(12) 0.24937(11) 0.99678(6)
O2 O 0.15343(12) 0.09330(11) 1.00273(6)
O3 O 0.17114(11) 0.05909(11) 0.61011(6)
O4 O 0.10660(12) 0.20452(11) 0.60662(6)
N1 N -0.00641(15) 0.34877(15) 0.86635(8)
N2 N -0.11661(16) 0.22479(15) 0.73958(8)
N3 N 0.35845(16) 0.33961(15) 0.86360(8)
N4 N 0.22508(15) 0.37337(15) 0.72700(8)
N5 N 0.06029(16) -0.08271(15) 0.74790(8)
N6 N -0.04724(15) -0.01945(15) 0.88631(8)
N7 N 0.40350(16) 0.04777(15) 0.72870(8)
N8 N 0.31916(15) -0.04043(15) 0.86917(8)
C3 C 0.09838(17) 0.22433(16) 0.78346(8)
C4 C 0.16909(16) 0.24101(16) 0.81982(8)
C5 C 0.16480(16) 0.19970(16) 0.86720(8)
C6 C 0.17373(17) 0.24526(18) 0.90952(9)
C7 C 0.16807(16) 0.20930(17) 0.95412(8)
C8 C 0.15553(17) 0.12474(17) 0.95750(8)
C9 C 0.14499(17) 0.07963(18) 0.91607(9)
C10 C 0.14763(16) 0.11679(16) 0.87060(8)
C11 C 0.13585(16) 0.06619(16) 0.82710(8)
C12 C 0.19974(17) 0.07347(16) 0.78605(8)
C13 C 0.17001(16) 0.10853(16) 0.74005(8)
C14 C 0.18761(17) 0.06670(17) 0.69717(9)
C15 C 0.16007(16) 0.09765(17) 0.65331(8)
C16 C 0.12020(17) 0.17406(17) 0.65122(8)
C17 C 0.09737(17) 0.21269(18) 0.69383(9)
C18 C 0.12050(16) 0.17981(16) 0.73860(8)
C19 C 0.01831(16) 0.25517(16) 0.79284(8)
C20 C 0.00334(16) 0.30675(17) 0.83392(9)
C21 C -0.05648(18) 0.23939(17) 0.76266(9)
C22 C 0.23101(16) 0.29583(16) 0.80834(8)
C23 C 0.30209(18) 0.31781(17) 0.83969(9)
C24 C 0.22804(17) 0.33866(17) 0.76287(9)
C25 C 0.1755(3) 0.3362(2) 0.99446(11)
C26 C 0.1399(2) 0.00742(19) 1.00597(10)
C27 C 0.07201(16) 0.01006(16) 0.82279(8)
C28 C 0.06560(16) -0.04151(17) 0.78093(9)
C29 C 0.00589(18) -0.00448(17) 0.85898(9)
C30 C 0.28036(17) 0.04213(16) 0.79258(8)
C31 C 0.34850(18) 0.04574(17) 0.75653(9)
C32 C 0.30294(17) -0.00197(17) 0.83581(9)
C33 C 0.2095(2) -0.01995(19) 0.61168(10)
C34 C 0.0797(2) 0.28793(18) 0.60332(10)
H5 H 0.2140(15) 0.0166(16) 0.6979(8)
H6 H 0.1380(17) 0.0214(18) 0.9181(9)
H7 H 0.1757(15) 0.3034(16) 0.9063(8)
H8 H 0.0713(15) 0.2648(16) 0.6919(8)
H9 H 0.0823(17) 0.3024(17) 0.5720(10)
H10 H 0.0856(18) -0.0099(17) 0.9903(9)
H11 H 0.1799(17) 0.3563(16) 1.0293(10)
H12 H 0.2105(15) -0.0408(15) 0.5777(9)
H13 H 0.2692(19) -0.0191(17) 0.6239(9)
H14 H 0.1359(16) -0.0046(16) 1.0388(10)
H15 H 0.1171(17) 0.3209(17) 0.6234(10)
H16 H 0.0202(18) 0.2974(16) 0.6161(9)
H17 H 0.231(2) 0.354(2) 0.9772(11)
H18 H 0.1796(18) -0.0581(18) 0.6313(10)
H19 H 0.1256(19) 0.3572(18) 0.9789(10)
H20 H 0.1869(17) -0.0224(16) 0.9891(9)
loop_
_geom_bond_atom_site_label_1
_geom_bond_atom_site_label_2
_geom_bond_site_symmetry_1
_geom_bond_site_symmetry_2
Cl1 C1 1_555 1_555
Cl2 C1 1_555 1_555
C1 H1 1_555 1_555
H2 C1 1_555 1_555
Cl3 C2 1_555 1_555
Cl4 C2 1_555 1_555
C2 H3 1_555 1_555
H4 C2 1_555 1_555
O1 C7 1_555 1_555
O2 C8 1_555 1_555
O3 C15 1_555 1_555
O4 C16 1_555 1_555
N1 C20 1_555 1_555
N2 C21 1_555 1_555
N3 C23 1_555 1_555
N4 C24 1_555 1_555
N5 C28 1_555 1_555
N6 C29 1_555 1_555
N7 C31 1_555 1_555
N8 C32 1_555 1_555
C3 C4 1_555 1_555
C4 C5 1_555 1_555
C5 C6 1_555 1_555
C6 C7 1_555 1_555
C7 C8 1_555 1_555
C8 C9 1_555 1_555
C9 C10 1_555 1_555
C10 C5 1_555 1_555
C11 C10 1_555 1_555
C12 C11 1_555 1_555
C13 C12 1_555 1_555
C14 C13 1_555 1_555
C15 C14 1_555 1_555
C16 C15 1_555 1_555
C17 C16 1_555 1_555
C18 C3 1_555 1_555
C19 C3 1_555 1_555
C20 C19 1_555 1_555
C21 C19 1_555 1_555
C22 C4 1_555 1_555
C23 C22 1_555 1_555
C24 C22 1_555 1_555
C25 O1 1_555 1_555
C26 O2 1_555 1_555
C27 C11 1_555 1_555
C28 C27 1_555 1_555
C29 C27 1_555 1_555
C30 C12 1_555 1_555
C31 C30 1_555 1_555
C32 C30 1_555 1_555
C33 O3 1_555 1_555
C34 O4 1_555 1_555
H5 C14 1_555 1_555
H6 C9 1_555 1_555
H7 C6 1_555 1_555
H8 C17 1_555 1_555
H9 C34 1_555 1_555
H10 C26 1_555 1_555
H11 C25 1_555 1_555
H12 C33 1_555 1_555
H13 C33 1_555 1_555
H14 C26 1_555 1_555
H15 C34 1_555 1_555
H16 C34 1_555 1_555
H17 C25 1_555 1_555
H18 C33 1_555 1_555
H19 C25 1_555 1_555
H20 C26 1_555 1_555
C13 C18 1_555 1_555
C17 C18 1_555 1_555

#END
