
#######################################################################
#
#                 Cambridge Crystallographic Data Centre
#                                CCDC 
#
#######################################################################
#
# If this CIF has been generated from an entry in the Cambridge 
# Structural Database, then it will include bibliographic, chemical, 
# crystal, experimental, refinement or atomic coordinate data resulting 
# from the CCDC's data processing and validation procedures.
#
#######################################################################

data_KOTVEW
_chemical_formula_moiety         'C32 H16 N8 O4,C1 H1 Cl3'
_chemical_name_systematic        
'7,8-bis(dicyanomethylene)-4,5,10,11-tetramethoxy-7,8-dihydrodibenzo[a,e]cyclobuta[c][8]annulene-1,1,2,2-tetracarbonitrile chloroform solvate'
_symmetry_cell_setting           monoclinic
_symmetry_space_group_name_H-M   'C 2/c'
_symmetry_Int_Tables_number      15
_space_group_name_Hall           '-C 2yn'
loop_
_symmetry_equiv_pos_site_id
_symmetry_equiv_pos_as_xyz
1 x,y,z
2 -x,y,1/2-z
3 1/2+x,1/2+y,z
4 1/2-x,1/2+y,1/2-z
5 -x,-y,-z
6 x,-y,1/2+z
7 1/2-x,1/2-y,-z
8 1/2+x,1/2-y,1/2+z
_cell_length_a                   25.591(3)
_cell_length_b                   14.5686(19)
_cell_length_c                   19.304(5)
_cell_angle_alpha                90
_cell_angle_beta                 116.985(2)
_cell_angle_gamma                90
_cell_volume                     6413.44
_exptl_crystal_description       rod
_cell_formula_units_Z            8
_exptl_crystal_recrystallization_method Chloroform
loop_
_atom_site_label
_atom_site_type_symbol
_atom_site_fract_x
_atom_site_fract_y
_atom_site_fract_z
N1 N 0.25249(9) 0.77154(13) 0.18190(11)
O1 O 0.01371(6) 0.37217(10) 0.07086(9)
O2 O 0.46216(6) 0.65425(10) 0.38717(8)
O3 O 0.06840(7) 0.30228(10) -0.00138(8)
N2 N 0.25153(9) 0.62563(13) 0.50004(11)
O4 O 0.45487(6) 0.58162(10) 0.50458(8)
C1 C -0.01848(10) 0.42350(17) 0.10266(14)
H1 H -0.0084 0.4011 0.1551
H2 H -0.0606 0.4157 0.0694
H3 H -0.0083 0.4887 0.1051
C2 C 0.07277(9) 0.38122(14) 0.10671(12)
C3 C 0.10452(9) 0.42194(13) 0.17826(12)
H4 H 0.0847 0.4417 0.2070
C4 C 0.16543(9) 0.43489(13) 0.20972(11)
C5 C 0.19723(9) 0.46473(13) 0.29009(11)
C6 C 0.25153(9) 0.49035(13) 0.34413(11)
C7 C 0.30712(9) 0.52310(13) 0.35051(11)
C8 C 0.35431(9) 0.53376(13) 0.42497(12)
H5 H 0.3505 0.5129 0.4691
C9 C 0.40620(9) 0.57397(14) 0.43527(11)
C10 C 0.41061(9) 0.61163(14) 0.37077(12)
C11 C 0.47180(10) 0.68179(16) 0.32284(13)
H6 H 0.5115 0.7068 0.3421
H7 H 0.4431 0.7289 0.2927
H8 H 0.4674 0.6286 0.2896
C12 C 0.09761(10) 0.26458(15) -0.04336(13)
H9 H 0.1265 0.2189 -0.0109
H10 H 0.1176 0.3139 -0.0566
H11 H 0.0687 0.2353 -0.0911
C13 C 0.10246(9) 0.34546(14) 0.06645(11)
C14 C 0.16205(9) 0.35918(13) 0.09583(11)
H12 H 0.1820 0.3364 0.0682
C15 C 0.19346(9) 0.40628(13) 0.16591(12)
C16 C 0.17216(9) 0.45794(14) 0.34845(11)
C17 C 0.23717(9) 0.48139(14) 0.41267(11)
C18 C 0.24396(9) 0.56437(15) 0.46041(12)
C19 C 0.26651(9) 0.40434(14) 0.46599(12)
N3 N 0.29028(9) 0.34748(13) 0.50928(11)
C20 C 0.36450(9) 0.60073(13) 0.29705(12)
H13 H 0.3676 0.6248 0.2533
C21 C 0.31342(9) 0.55461(13) 0.28630(11)
C22 C 0.26813(8) 0.53350(13) 0.20683(11)
C23 C 0.24009(9) 0.59814(14) 0.15208(11)
C24 C 0.20007(9) 0.57323(13) 0.07334(12)
N4 N 0.16997(8) 0.55258(12) 0.01062(10)
C25 C 0.24783(9) 0.69473(15) 0.16933(12)
C26 C 0.25418(9) 0.43355(14) 0.18743(11)
C27 C 0.29530(9) 0.37732(14) 0.18507(11)
C28 C 0.28761(9) 0.27940(15) 0.17613(12)
N5 N 0.28396(9) 0.20110(13) 0.17256(11)
C29 C 0.34941(10) 0.41309(14) 0.19018(12)
N6 N 0.39173(9) 0.44286(14) 0.19305(12)
C30 C 0.45434(10) 0.53049(15) 0.56787(12)
H14 H 0.4929 0.5346 0.6132
H15 H 0.4452 0.4660 0.5526
H16 H 0.4245 0.5559 0.5810
C31 C 0.14845(9) 0.36717(15) 0.35371(12)
N7 N 0.12641(9) 0.29820(13) 0.35104(11)
C32 C 0.12782(9) 0.52810(15) 0.33898(12)
N8 N 0.09138(9) 0.57993(14) 0.32712(11)
Cl1 Cl 0.41768(3) 0.33182(4) 0.35903(4)
Cl2 Cl 0.41246(3) 0.13826(4) 0.38627(3)
Cl3 Cl 0.39380(3) 0.27123(4) 0.48395(4)
C33 C 0.43236(10) 0.24719(14) 0.43060(13)
H17 H 0.4753 0.2472 0.4668
loop_
_geom_bond_atom_site_label_1
_geom_bond_atom_site_label_2
_geom_bond_site_symmetry_1
_geom_bond_site_symmetry_2
N1 C25 1_555 1_555
O1 C1 1_555 1_555
O2 C10 1_555 1_555
O3 C12 1_555 1_555
N2 C18 1_555 1_555
O4 C9 1_555 1_555
C1 H1 1_555 1_555
H2 C1 1_555 1_555
H3 C1 1_555 1_555
C2 O1 1_555 1_555
C3 C2 1_555 1_555
H4 C3 1_555 1_555
C4 C3 1_555 1_555
C5 C4 1_555 1_555
C6 C5 1_555 1_555
C7 C6 1_555 1_555
C8 C7 1_555 1_555
H5 C8 1_555 1_555
C9 C8 1_555 1_555
C10 C9 1_555 1_555
C11 O2 1_555 1_555
H6 C11 1_555 1_555
H7 C11 1_555 1_555
H8 C11 1_555 1_555
C12 H9 1_555 1_555
H10 C12 1_555 1_555
H11 C12 1_555 1_555
C13 O3 1_555 1_555
C14 C13 1_555 1_555
H12 C14 1_555 1_555
C15 C4 1_555 1_555
C16 C5 1_555 1_555
C17 C6 1_555 1_555
C18 C17 1_555 1_555
C19 C17 1_555 1_555
N3 C19 1_555 1_555
C20 C10 1_555 1_555
H13 C20 1_555 1_555
C21 C7 1_555 1_555
C22 C21 1_555 1_555
C23 C22 1_555 1_555
C24 C23 1_555 1_555
N4 C24 1_555 1_555
C25 C23 1_555 1_555
C26 C15 1_555 1_555
C27 C26 1_555 1_555
C28 C27 1_555 1_555
N5 C28 1_555 1_555
C29 C27 1_555 1_555
N6 C29 1_555 1_555
C30 O4 1_555 1_555
H14 C30 1_555 1_555
H15 C30 1_555 1_555
H16 C30 1_555 1_555
C31 C16 1_555 1_555
N7 C31 1_555 1_555
C32 C16 1_555 1_555
N8 C32 1_555 1_555
Cl1 C33 1_555 1_555
Cl2 C33 1_555 1_555
Cl3 C33 1_555 1_555
C33 H17 1_555 1_555
C2 C13 1_555 1_555
C14 C15 1_555 1_555
C16 C17 1_555 1_555
C20 C21 1_555 1_555
C22 C26 1_555 1_555

#END
