
#######################################################################
#
#                 Cambridge Crystallographic Data Centre
#                                CCDC 
#
#######################################################################
#
# If this CIF has been generated from an entry in the Cambridge 
# Structural Database, then it will include bibliographic, chemical, 
# crystal, experimental, refinement or atomic coordinate data resulting 
# from the CCDC's data processing and validation procedures.
#
#######################################################################

data_KOTXIC
_chemical_name_common            'octakis(propyl cinnamate)silsesquioxane'
_chemical_formula_moiety         'C96 H104 O28 Si8'
_chemical_name_systematic        
'pentacyclo[9.5.1.1^3,9^.1^5,15^.1^7,13^]octasiloxane-1,3,5,7,9,11,13,15-octayloctapropane-3,1-diyl octakis(3-phenylacrylate)'
_symmetry_cell_setting           monoclinic
_symmetry_space_group_name_H-M   'C c'
_symmetry_Int_Tables_number      9
_space_group_name_Hall           'C -2yc'
loop_
_symmetry_equiv_pos_site_id
_symmetry_equiv_pos_as_xyz
1 x,y,z
2 x,-y,1/2+z
3 1/2+x,1/2+y,z
4 1/2+x,1/2-y,1/2+z
_cell_length_a                   22.9512(16)
_cell_length_b                   18.7907(13)
_cell_length_c                   24.914(2)
_cell_angle_alpha                90
_cell_angle_beta                 116.0890(10)
_cell_angle_gamma                90
_cell_volume                     9649.89
_exptl_crystal_colour            colorless
_chemical_melting_point          '388 K'
_cell_formula_units_Z            4
_exptl_crystal_recrystallization_method 'ethyl acetate/ hexane'
loop_
_atom_site_label
_atom_site_type_symbol
_atom_site_fract_x
_atom_site_fract_y
_atom_site_fract_z
Si1 Si 0.28520(7) 0.03430(9) 0.75113(7)
Si2 Si 0.27862(7) -0.07315(9) 0.65048(7)
Si3 Si 0.27508(7) 0.16079(9) 0.66805(7)
Si4 Si 0.26870(7) 0.05482(8) 0.56809(7)
Si5 Si 0.42762(7) -0.06922(9) 0.70084(7)
Si6 Si 0.43410(7) 0.03721(9) 0.80231(7)
Si7 Si 0.41977(7) 0.05896(8) 0.62033(7)
Si8 Si 0.42619(7) 0.16442(9) 0.72078(7)
O1 O 0.35313(19) -0.0965(2) 0.67078(18)
O2 O 0.25608(18) -0.0197(2) 0.59376(17)
O3 O 0.43960(18) -0.0160(2) 0.65578(17)
O4 O 0.36137(19) 0.0383(2) 0.79754(18)
O5 O 0.27458(19) -0.0306(2) 0.70548(18)
O6 O 0.44069(18) -0.0260(2) 0.76138(17)
O7 O 0.44756(18) 0.1125(2) 0.77799(17)
O8 O 0.35019(19) 0.1845(2) 0.69609(19)
O9 O 0.26386(18) 0.1075(2) 0.71329(17)
O10 O 0.34282(19) 0.0580(2) 0.57669(18)
O11 O 0.25667(18) 0.1194(2) 0.60554(17)
O12 O 0.43528(18) 0.1226(2) 0.66827(18)
O13 O 0.66034(19) -0.1811(2) 0.7791(2)
O14 O 0.6823(2) -0.2981(2) 0.7971(2)
O15 O 0.6399(2) -0.1338(3) 0.9088(2)
O16 O 0.67098(19) -0.0311(2) 0.96004(19)
O17 O 0.64501(18) 0.1146(2) 0.62924(17)
O18 O 0.66910(19) 0.1411(3) 0.55374(19)
O19 O 0.6524(2) 0.2950(3) 0.8305(2)
O20 O 0.6729(2) 0.3339(3) 0.7563(2)
O21 O 0.0351(2) -0.0215(2) 0.8225(2)
O22 O 0.05941(18) -0.0147(2) 0.74461(18)
O23 O 0.04830(19) 0.2848(2) 0.6008(2)
O24 O 0.0256(2) 0.3946(3) 0.5614(2)
O25 O 0.0453(2) -0.1614(3) 0.5814(2)
O26 O 0.0192(2) -0.2455(3) 0.6296(3)
O27 O 0.0250(2) -0.1041(3) 0.4352(2)
O28 O 0.04283(18) 0.0135(2) 0.45267(18)
C1 C 0.4817(3) -0.1467(3) 0.7176(3)
H1 H 0.4752 -0.1763 0.7464
H2 H 0.4688 -0.1744 0.6813
C2 C 0.5543(3) -0.1301(3) 0.7422(3)
H3 H 0.5629 -0.1062 0.7119
H4 H 0.5675 -0.0988 0.7765
C3 C 0.5922(3) -0.1983(3) 0.7603(3)
H5 H 0.5866 -0.2205 0.7928
H6 H 0.5772 -0.2311 0.7268
C4 C 0.7008(3) -0.2380(4) 0.7981(3)
C5 C 0.7685(3) -0.2144(3) 0.8189(3)
H7 H 0.7773 -0.1670 0.8145
C6 C 0.8173(3) -0.2605(3) 0.8441(3)
H8 H 0.8060 -0.3073 0.8473
C7 C 0.8867(3) -0.2452(3) 0.8672(3)
C8 C 0.9314(3) -0.2962(3) 0.9013(3)
H9 H 0.9168 -0.3395 0.9087
C9 C 0.9978(3) -0.2834(3) 0.9245(3)
H10 H 1.0274 -0.3177 0.9476
C10 C 1.0195(3) -0.2190(4) 0.9128(3)
H11 H 1.0637 -0.2101 0.9281
C11 C 0.9756(3) -0.1682(4) 0.8787(3)
H12 H 0.9904 -0.1251 0.8710
C12 C 0.9100(3) -0.1808(3) 0.8559(3)
H13 H 0.8808 -0.1463 0.8327
C13 C 0.4678(3) 0.0736(3) 0.5787(3)
H14 H 0.4616 0.0337 0.5519
H15 H 0.4524 0.1162 0.5545
C14 C 0.5404(3) 0.0816(4) 0.6203(3)
H16 H 0.5463 0.1172 0.6505
H17 H 0.5573 0.0368 0.6404
C15 C 0.5777(3) 0.1033(4) 0.5864(3)
H18 H 0.5751 0.0663 0.5583
H19 H 0.5597 0.1467 0.5642
C16 C 0.6860(3) 0.1325(3) 0.6063(3)
C17 C 0.7529(3) 0.1385(3) 0.6539(3)
H20 H 0.7601 0.1365 0.6936
C18 C 0.8026(3) 0.1467(3) 0.6414(3)
H21 H 0.7928 0.1501 0.6010
C19 C 0.8715(3) 0.1510(3) 0.6834(3)
C20 C 0.8929(3) 0.1550(4) 0.7450(3)
H22 H 0.8624 0.1572 0.7602
C21 C 0.9577(3) 0.1558(4) 0.7841(3)
H23 H 0.9709 0.1587 0.8250
C22 C 1.0033(3) 0.1522(3) 0.7615(3)
H24 H 1.0473 0.1517 0.7876
C23 C 0.9836(3) 0.1494(3) 0.7010(3)
H25 H 1.0144 0.1478 0.6862
C24 C 0.9180(3) 0.1489(3) 0.6617(3)
H26 H 0.9051 0.1471 0.6207
C25 C 0.4752(3) 0.2457(3) 0.7420(3)
H27 H 0.4657 0.2730 0.7060
H28 H 0.4619 0.2740 0.7672
C26 C 0.5490(3) 0.2346(3) 0.7750(3)
H29 H 0.5593 0.2052 0.8101
H30 H 0.5639 0.2101 0.7491
C27 C 0.5830(3) 0.3045(3) 0.7936(3)
H31 H 0.5762 0.3318 0.7583
H32 H 0.5646 0.3311 0.8158
C28 C 0.6919(3) 0.3114(3) 0.8062(3)
C29 C 0.7603(3) 0.3012(3) 0.8481(3)
H33 H 0.7713 0.2827 0.8859
C30 C 0.8057(3) 0.3181(3) 0.8321(3)
H34 H 0.7913 0.3382 0.7943
C31 C 0.8762(3) 0.3098(3) 0.8656(3)
C32 C 0.9164(3) 0.3344(4) 0.8409(3)
H35 H 0.8981 0.3562 0.8036
C33 C 0.9823(3) 0.3269(4) 0.8705(3)
H36 H 1.0083 0.3442 0.8534
C34 C 1.0102(3) 0.2947(4) 0.9245(3)
H37 H 1.0551 0.2907 0.9448
C35 C 0.9720(3) 0.2678(4) 0.9492(3)
H38 H 0.9912 0.2443 0.9857
C36 C 0.9053(3) 0.2753(4) 0.9205(3)
H39 H 0.8799 0.2573 0.9379
C37 C 0.2145(3) 0.0662(3) 0.4883(3)
H40 H 0.2282 0.1084 0.4746
H41 H 0.2208 0.0260 0.4671
C38 C 0.1416(3) 0.0730(3) 0.4700(3)
H42 H 0.1350 0.1049 0.4975
H43 H 0.1204 0.0936 0.4303
C39 C 0.1109(3) 0.0018(4) 0.4700(3)
H44 H 0.1163 -0.0304 0.4421
H45 H 0.1313 -0.0193 0.5096
C40 C 0.0047(3) -0.0444(4) 0.4342(3)
C41 C -0.0641(3) -0.0254(4) 0.4115(3)
H46 H -0.0756 0.0209 0.4159
C42 C -0.1102(3) -0.0741(4) 0.3847(3)
H47 H -0.0961 -0.1203 0.3842
C43 C -0.1805(3) -0.0631(3) 0.3560(3)
C44 C -0.2105(3) 0.0005(4) 0.3587(3)
H48 H -0.1852 0.0381 0.3814
C45 C -0.2763(3) 0.0085(4) 0.3287(3)
H49 H -0.2954 0.0512 0.3314
C46 C -0.3146(3) -0.0466(4) 0.2941(3)
H50 H -0.3592 -0.0404 0.2729
C47 C -0.2869(3) -0.1107(4) 0.2911(3)
H51 H -0.3125 -0.1482 0.2686
C48 C -0.2203(3) -0.1182(4) 0.3221(3)
H52 H -0.2014 -0.1614 0.3203
C49 C 0.2263(3) -0.1513(3) 0.6334(3)
H53 H 0.2338 -0.1813 0.6054
H54 H 0.2375 -0.1785 0.6697
C50 C 0.1532(3) -0.1308(4) 0.6062(4)
H55 H 0.1481 -0.0896 0.6272
H56 H 0.1388 -0.1175 0.5647
C51 C 0.1124(3) -0.1882(4) 0.6095(3)
H57 H 0.1249 -0.2011 0.6508
H58 H 0.1166 -0.2299 0.5885
C52 C 0.0043(4) -0.1977(4) 0.5943(3)
C53 C -0.0626(3) -0.1732(4) 0.5561(3)
H59 H -0.0696 -0.1341 0.5311
C54 C -0.1124(3) -0.2072(4) 0.5576(3)
H60 H -0.1023 -0.2432 0.5858
C55 C -0.1808(3) -0.1950(3) 0.5205(3)
C56 C -0.2046(3) -0.1420(3) 0.4776(3)
H61 H -0.1759 -0.1116 0.4718
C57 C -0.2705(3) -0.1337(3) 0.4435(3)
H62 H -0.2856 -0.0980 0.4148
C58 C -0.3139(3) -0.1775(4) 0.4514(3)
H63 H -0.3583 -0.1712 0.4285
C59 C -0.2910(3) -0.2310(4) 0.4936(3)
H64 H -0.3201 -0.2615 0.4987
C60 C -0.2257(3) -0.2395(4) 0.5281(3)
H65 H -0.2109 -0.2751 0.5569
C61 C 0.2358(3) 0.0217(3) 0.7918(3)
H66 H 0.2517 -0.0195 0.8177
H67 H 0.2409 0.0629 0.8169
C62 C 0.1634(3) 0.0112(4) 0.7503(3)
H68 H 0.1468 0.0524 0.7245
H69 H 0.1577 -0.0302 0.7253
C63 C 0.1258(3) 0.0013(3) 0.7864(3)
H70 H 0.1441 -0.0374 0.8146
H71 H 0.1275 0.0444 0.8085
C64 C 0.0184(3) -0.0236(3) 0.7694(3)
C65 C -0.0478(3) -0.0365(3) 0.7233(3)
H72 H -0.0549 -0.0429 0.6839
C66 C -0.0975(3) -0.0393(3) 0.7365(3)
H73 H -0.0879 -0.0354 0.7767
C67 C -0.1662(3) -0.0478(3) 0.6947(3)
C68 C -0.1873(3) -0.0637(4) 0.6351(3)
H74 H -0.1572 -0.0733 0.6205
C69 C -0.2532(3) -0.0657(4) 0.5966(3)
H75 H -0.2666 -0.0752 0.5562
C70 C -0.2983(3) -0.0537(3) 0.6172(3)
H76 H -0.3423 -0.0551 0.5912
C71 C -0.2780(3) -0.0396(3) 0.6767(3)
H77 H -0.3086 -0.0316 0.6911
C72 C -0.2132(3) -0.0371(3) 0.7153(3)
H78 H -0.2004 -0.0282 0.7557
C73 C 0.4930(3) 0.0211(3) 0.8801(3)
H79 H 0.4919 0.0611 0.9043
H80 H 0.4798 -0.0209 0.8945
C74 C 0.5627(3) 0.0107(4) 0.8890(3)
H81 H 0.5631 -0.0221 0.8592
H82 H 0.5799 0.0559 0.8837
C75 C 0.6046(3) -0.0177(4) 0.9501(3)
H83 H 0.6050 0.0161 0.9796
H84 H 0.5860 -0.0618 0.9557
C76 C 0.6811(3) -0.0938(4) 0.9382(3)
C77 C 0.7516(3) -0.1061(4) 0.9569(3)
H85 H 0.7633 -0.1460 0.9418
C78 C 0.7979(3) -0.0649(4) 0.9929(3)
H86 H 0.7852 -0.0254 1.0076
C79 C 0.8688(3) -0.0741(4) 1.0131(3)
C80 C 0.8957(3) -0.1309(4) 0.9973(3)
H87 H 0.8690 -0.1658 0.9721
C81 C 0.9626(3) -0.1365(4) 1.0189(3)
H88 H 0.9804 -0.1754 1.0083
C82 C 1.0026(3) -0.0850(4) 1.0557(3)
H89 H 1.0473 -0.0892 1.0702
C83 C 0.9766(3) -0.0270(4) 1.0713(3)
H90 H 1.0035 0.0083 1.0960
C84 C 0.9100(3) -0.0221(4) 1.0496(3)
H91 H 0.8924 0.0172 1.0598
C85 C 0.2245(3) 0.2408(3) 0.6551(3)
H92 H 0.2402 0.2674 0.6922
H93 H 0.2306 0.2705 0.6261
C86 C 0.1520(3) 0.2277(3) 0.6330(3)
H94 H 0.1362 0.1972 0.5981
H95 H 0.1444 0.2038 0.6639
C87 C 0.1157(3) 0.2972(3) 0.6174(3)
H96 H 0.1335 0.3291 0.6514
H97 H 0.1206 0.3195 0.5845
C88 C 0.0077(3) 0.3386(3) 0.5719(3)
C89 C -0.0597(3) 0.3188(3) 0.5562(3)
H98 H -0.0680 0.2759 0.5702
C90 C -0.1089(3) 0.3604(3) 0.5227(3)
H99 H -0.0981 0.4042 0.5121
C91 C -0.1778(3) 0.3455(3) 0.5005(3)
C92 C -0.2017(3) 0.2902(4) 0.5230(3)
H100 H -0.1730 0.2629 0.5547
C93 C -0.2671(3) 0.2758(4) 0.4988(3)
H101 H -0.2822 0.2389 0.5142
C94 C -0.3106(3) 0.3162(4) 0.4515(3)
H102 H -0.3547 0.3060 0.4345
C95 C -0.2876(3) 0.3713(4) 0.4301(3)
H103 H -0.3166 0.3991 0.3990
C96 C -0.2226(3) 0.3859(4) 0.4539(3)
H104 H -0.2082 0.4235 0.4386
loop_
_geom_bond_atom_site_label_1
_geom_bond_atom_site_label_2
_geom_bond_site_symmetry_1
_geom_bond_site_symmetry_2
Si1 O4 1_555 1_555
Si2 O1 1_555 1_555
Si3 O8 1_555 1_555
Si4 O2 1_555 1_555
Si5 O1 1_555 1_555
Si6 O4 1_555 1_555
Si7 O3 1_555 1_555
Si8 O7 1_555 1_555
O2 Si2 1_555 1_555
O3 Si5 1_555 1_555
O5 Si1 1_555 1_555
O6 Si5 1_555 1_555
O7 Si6 1_555 1_555
O8 Si8 1_555 1_555
O9 Si1 1_555 1_555
O10 Si4 1_555 1_555
O11 Si3 1_555 1_555
O12 Si7 1_555 1_555
O13 C3 1_555 1_555
O14 C4 1_555 1_555
O15 C76 1_555 1_555
O16 C75 1_555 1_555
O17 C15 1_555 1_555
O18 C16 1_555 1_555
O19 C27 1_555 1_555
O20 C28 1_555 1_555
O21 C64 1_555 1_555
O22 C63 1_555 1_555
O23 C87 1_555 1_555
O24 C88 1_555 1_555
O25 C51 1_555 1_555
O26 C52 1_555 1_555
O27 C40 1_555 1_555
O28 C39 1_555 1_555
C1 Si5 1_555 1_555
H1 C1 1_555 1_555
H2 C1 1_555 1_555
C2 C1 1_555 1_555
H3 C2 1_555 1_555
H4 C2 1_555 1_555
C3 C2 1_555 1_555
H5 C3 1_555 1_555
H6 C3 1_555 1_555
C4 O13 1_555 1_555
C5 C4 1_555 1_555
H7 C5 1_555 1_555
C6 C5 1_555 1_555
H8 C6 1_555 1_555
C7 C6 1_555 1_555
C8 C7 1_555 1_555
H9 C8 1_555 1_555
C9 C8 1_555 1_555
H10 C9 1_555 1_555
C10 C9 1_555 1_555
H11 C10 1_555 1_555
C11 C10 1_555 1_555
H12 C11 1_555 1_555
C12 C7 1_555 1_555
H13 C12 1_555 1_555
C13 Si7 1_555 1_555
H14 C13 1_555 1_555
H15 C13 1_555 1_555
C14 C13 1_555 1_555
H16 C14 1_555 1_555
H17 C14 1_555 1_555
C15 C14 1_555 1_555
H18 C15 1_555 1_555
H19 C15 1_555 1_555
C16 O17 1_555 1_555
C17 C16 1_555 1_555
H20 C17 1_555 1_555
C18 C17 1_555 1_555
H21 C18 1_555 1_555
C19 C18 1_555 1_555
C20 C19 1_555 1_555
H22 C20 1_555 1_555
C21 C20 1_555 1_555
H23 C21 1_555 1_555
C22 C21 1_555 1_555
H24 C22 1_555 1_555
C23 C22 1_555 1_555
H25 C23 1_555 1_555
C24 C19 1_555 1_555
H26 C24 1_555 1_555
C25 Si8 1_555 1_555
H27 C25 1_555 1_555
H28 C25 1_555 1_555
C26 C25 1_555 1_555
H29 C26 1_555 1_555
H30 C26 1_555 1_555
C27 C26 1_555 1_555
H31 C27 1_555 1_555
H32 C27 1_555 1_555
C28 O19 1_555 1_555
C29 C28 1_555 1_555
H33 C29 1_555 1_555
C30 C29 1_555 1_555
H34 C30 1_555 1_555
C31 C30 1_555 1_555
C32 C31 1_555 1_555
H35 C32 1_555 1_555
C33 C32 1_555 1_555
H36 C33 1_555 1_555
C34 C33 1_555 1_555
H37 C34 1_555 1_555
C35 C34 1_555 1_555
H38 C35 1_555 1_555
C36 C31 1_555 1_555
H39 C36 1_555 1_555
C37 Si4 1_555 1_555
H40 C37 1_555 1_555
H41 C37 1_555 1_555
C38 C37 1_555 1_555
H42 C38 1_555 1_555
H43 C38 1_555 1_555
C39 C38 1_555 1_555
H44 C39 1_555 1_555
H45 C39 1_555 1_555
C40 O28 1_555 1_555
C41 C40 1_555 1_555
H46 C41 1_555 1_555
C42 C41 1_555 1_555
H47 C42 1_555 1_555
C43 C42 1_555 1_555
C44 C43 1_555 1_555
H48 C44 1_555 1_555
C45 C44 1_555 1_555
H49 C45 1_555 1_555
C46 C45 1_555 1_555
H50 C46 1_555 1_555
C47 C46 1_555 1_555
H51 C47 1_555 1_555
C48 C43 1_555 1_555
H52 C48 1_555 1_555
C49 Si2 1_555 1_555
H53 C49 1_555 1_555
H54 C49 1_555 1_555
C50 C49 1_555 1_555
H55 C50 1_555 1_555
H56 C50 1_555 1_555
C51 C50 1_555 1_555
H57 C51 1_555 1_555
H58 C51 1_555 1_555
C52 O25 1_555 1_555
C53 C52 1_555 1_555
H59 C53 1_555 1_555
C54 C53 1_555 1_555
H60 C54 1_555 1_555
C55 C54 1_555 1_555
C56 C55 1_555 1_555
H61 C56 1_555 1_555
C57 C56 1_555 1_555
H62 C57 1_555 1_555
C58 C57 1_555 1_555
H63 C58 1_555 1_555
C59 C58 1_555 1_555
H64 C59 1_555 1_555
C60 C55 1_555 1_555
H65 C60 1_555 1_555
C61 Si1 1_555 1_555
H66 C61 1_555 1_555
H67 C61 1_555 1_555
C62 C61 1_555 1_555
H68 C62 1_555 1_555
H69 C62 1_555 1_555
C63 C62 1_555 1_555
H70 C63 1_555 1_555
H71 C63 1_555 1_555
C64 O22 1_555 1_555
C65 C64 1_555 1_555
H72 C65 1_555 1_555
C66 C65 1_555 1_555
H73 C66 1_555 1_555
C67 C66 1_555 1_555
C68 C67 1_555 1_555
H74 C68 1_555 1_555
C69 C68 1_555 1_555
H75 C69 1_555 1_555
C70 C69 1_555 1_555
H76 C70 1_555 1_555
C71 C70 1_555 1_555
H77 C71 1_555 1_555
C72 C67 1_555 1_555
H78 C72 1_555 1_555
C73 Si6 1_555 1_555
H79 C73 1_555 1_555
H80 C73 1_555 1_555
C74 C73 1_555 1_555
H81 C74 1_555 1_555
H82 C74 1_555 1_555
C75 C74 1_555 1_555
H83 C75 1_555 1_555
H84 C75 1_555 1_555
C76 O16 1_555 1_555
C77 C76 1_555 1_555
H85 C77 1_555 1_555
C78 C77 1_555 1_555
H86 C78 1_555 1_555
C79 C78 1_555 1_555
C80 C79 1_555 1_555
H87 C80 1_555 1_555
C81 C80 1_555 1_555
H88 C81 1_555 1_555
C82 C81 1_555 1_555
H89 C82 1_555 1_555
C83 C82 1_555 1_555
H90 C83 1_555 1_555
C84 C79 1_555 1_555
H91 C84 1_555 1_555
C85 Si3 1_555 1_555
H92 C85 1_555 1_555
H93 C85 1_555 1_555
C86 C85 1_555 1_555
H94 C86 1_555 1_555
H95 C86 1_555 1_555
C87 C86 1_555 1_555
H96 C87 1_555 1_555
H97 C87 1_555 1_555
C88 O23 1_555 1_555
C89 C88 1_555 1_555
H98 C89 1_555 1_555
C90 C89 1_555 1_555
H99 C90 1_555 1_555
C91 C90 1_555 1_555
C92 C91 1_555 1_555
H100 C92 1_555 1_555
C93 C92 1_555 1_555
H101 C93 1_555 1_555
C94 C93 1_555 1_555
H102 C94 1_555 1_555
C95 C94 1_555 1_555
H103 C95 1_555 1_555
C96 C91 1_555 1_555
H104 C96 1_555 1_555
Si2 O5 1_555 1_555
Si3 O9 1_555 1_555
Si4 O11 1_555 1_555
Si6 O6 1_555 1_555
Si7 O10 1_555 1_555
Si8 O12 1_555 1_555
C11 C12 1_555 1_555
C23 C24 1_555 1_555
C35 C36 1_555 1_555
C47 C48 1_555 1_555
C59 C60 1_555 1_555
C71 C72 1_555 1_555
C83 C84 1_555 1_555
C95 C96 1_555 1_555

#END
