
#######################################################################
#
#                 Cambridge Crystallographic Data Centre
#                                CCDC 
#
#######################################################################
#
# If this CIF has been generated from an entry in the Cambridge 
# Structural Database, then it will include bibliographic, chemical, 
# crystal, experimental, refinement or atomic coordinate data resulting 
# from the CCDC's data processing and validation procedures.
#
#######################################################################

data_KOTXUM
_chemical_formula_moiety         'C25 H20 N4 O5 S1'
_chemical_name_systematic        
11-(Benzenesulfonyl)-5\b-methoxy-2-phenyl-5,11a\b-dihydro(1,2,4)triazolo(1,2-a)pyridazino(3,4-b)indole-1,3-dione
_symmetry_cell_setting           monoclinic
_symmetry_space_group_name_H-M   'P 21/c'
_symmetry_Int_Tables_number      14
_space_group_name_Hall           '-P 2ybc'
loop_
_symmetry_equiv_pos_site_id
_symmetry_equiv_pos_as_xyz
1 x,y,z
2 -x,1/2+y,1/2-z
3 -x,-y,-z
4 x,1/2-y,1/2+z
_cell_length_a                   9.061(1)
_cell_length_b                   16.618(2)
_cell_length_c                   15.577(2)
_cell_angle_alpha                90
_cell_angle_beta                 103.03(1)
_cell_angle_gamma                90
_cell_volume                     2285.13
_chemical_melting_point          171deg.C
_cell_formula_units_Z            4
loop_
_atom_site_label
_atom_site_type_symbol
_atom_site_fract_x
_atom_site_fract_y
_atom_site_fract_z
S1 S 0.4556(1) 0.26162(5) 0.68167(5)
O1 O 0.0148(2) 0.1448(1) 0.2901(1)
O2 O 0.3826(2) 0.1004(1) 0.5436(1)
O3 O 0.5918(2) 0.2262(1) 0.7316(1)
O4 O 0.0490(3) 0.3463(1) 0.3810(2)
O5 O 0.3129(2) 0.2214(1) 0.6709(1)
N1 N 0.4831(3) 0.2742(2) 0.5796(2)
N2 N 0.1862(3) 0.2256(2) 0.3822(2)
N3 N 0.1882(3) 0.0972(2) 0.4155(2)
N4 N 0.3071(3) 0.2115(2) 0.4558(2)
C1 C 0.3461(3) 0.2845(2) 0.5090(2)
C2 C 0.3883(3) 0.3462(2) 0.4470(2)
C3 C 0.2996(4) 0.3545(2) 0.3669(2)
C4 C 0.1561(4) 0.3064(2) 0.3448(2)
C5 C -0.1025(5) 0.3175(3) 0.3502(4)
C6 C 0.1163(3) 0.1550(2) 0.3547(2)
C7 C 0.3019(3) 0.1326(2) 0.4813(2)
C8 C 0.4368(4) 0.3588(2) 0.7216(2)
C9 C 0.5608(4) 0.3971(2) 0.7735(2)
C10 C 0.5441(5) 0.4751(3) 0.8002(3)
C11 C 0.4092(6) 0.5138(3) 0.7766(3)
C12 C 0.2857(5) 0.4749(2) 0.7267(2)
C13 C 0.2988(4) 0.3967(2) 0.6986(2)
C14 C 0.1461(3) 0.0141(2) 0.4153(2)
C15 C 0.2547(4) -0.0436(2) 0.4450(2)
C16 C 0.2108(4) -0.1234(2) 0.4453(2)
C17 C 0.0623(5) -0.1451(2) 0.4162(3)
C18 C -0.0450(4) -0.0876(2) 0.3860(2)
C19 C -0.0045(4) -0.0073(2) 0.3861(2)
C20 C 0.5931(3) 0.3329(2) 0.5652(2)
C21 C 0.5368(3) 0.3773(2) 0.4892(2)
C22 C 0.6234(4) 0.4379(2) 0.4651(2)
C23 C 0.7656(4) 0.4534(2) 0.5181(3)
C24 C 0.8203(4) 0.4076(2) 0.5927(2)
C25 C 0.7364(3) 0.3460(2) 0.6169(2)
H1 H 0.253(3) 0.301(2) 0.534(2)
H2 H 0.324(3) 0.390(2) 0.320(2)
H3 H 0.118(3) 0.298(2) 0.278(2)
H4 H 0.6564 0.3701 0.7905
H5 H 0.6294 0.5025 0.8360
H6 H 0.4001 0.5683 0.7951
H7 H 0.1900 0.5022 0.7112
H8 H 0.2126 0.3695 0.6634
H9 H 0.3592 -0.0288 0.4652
H10 H 0.2854 -0.1640 0.4665
H11 H 0.0334 -0.2006 0.4169
H12 H -0.1488 -0.1030 0.3644
H13 H -0.0802 0.0330 0.3662
H14 H 0.5861 0.4688 0.4126
H15 H 0.8262 0.4962 0.5029
H16 H 0.9191 0.4190 0.6283
H17 H 0.7760 0.3134 0.6678
H18 H -0.165(5) 0.351(3) 0.371(3)
H19 H -0.129(6) 0.307(3) 0.292(3)
H20 H -0.104(5) 0.265(3) 0.380(3)
loop_
_geom_bond_atom_site_label_1
_geom_bond_atom_site_label_2
_geom_bond_site_symmetry_1
_geom_bond_site_symmetry_2
S1 O3 1_555 1_555
O1 C6 1_555 1_555
O2 C7 1_555 1_555
O4 C4 1_555 1_555
O5 S1 1_555 1_555
N1 S1 1_555 1_555
N2 N4 1_555 1_555
N3 C6 1_555 1_555
N4 C1 1_555 1_555
C1 N1 1_555 1_555
C2 C1 1_555 1_555
C3 C2 1_555 1_555
C4 N2 1_555 1_555
C5 O4 1_555 1_555
C6 N2 1_555 1_555
C7 N3 1_555 1_555
C8 S1 1_555 1_555
C9 C8 1_555 1_555
C10 C9 1_555 1_555
C11 C10 1_555 1_555
C12 C11 1_555 1_555
C13 C8 1_555 1_555
C14 N3 1_555 1_555
C15 C14 1_555 1_555
C16 C15 1_555 1_555
C17 C16 1_555 1_555
C18 C17 1_555 1_555
C19 C14 1_555 1_555
C20 N1 1_555 1_555
C21 C2 1_555 1_555
C22 C21 1_555 1_555
C23 C22 1_555 1_555
C24 C23 1_555 1_555
C25 C20 1_555 1_555
H1 C1 1_555 1_555
H2 C3 1_555 1_555
H3 C4 1_555 1_555
H4 C9 1_555 1_555
H5 C10 1_555 1_555
H6 C11 1_555 1_555
H7 C12 1_555 1_555
H8 C13 1_555 1_555
H9 C15 1_555 1_555
H10 C16 1_555 1_555
H11 C17 1_555 1_555
H12 C18 1_555 1_555
H13 C19 1_555 1_555
H14 C22 1_555 1_555
H15 C23 1_555 1_555
H16 C24 1_555 1_555
H17 C25 1_555 1_555
H18 C5 1_555 1_555
H19 C5 1_555 1_555
H20 C5 1_555 1_555
N4 C7 1_555 1_555
C3 C4 1_555 1_555
C12 C13 1_555 1_555
C18 C19 1_555 1_555
C20 C21 1_555 1_555
C24 C25 1_555 1_555

#END
