
#######################################################################
#
#                 Cambridge Crystallographic Data Centre
#                                CCDC 
#
#######################################################################
#
# If this CIF has been generated from an entry in the Cambridge 
# Structural Database, then it will include bibliographic, chemical, 
# crystal, experimental, refinement or atomic coordinate data resulting 
# from the CCDC's data processing and validation procedures.
#
#######################################################################

data_KOVDUU
_chemical_formula_moiety         'C9 H13 O2 1-,C9 H14 N1 O1 1+'
_chemical_name_systematic        
'(R,R)-(-)-3-Phenyl-2-ammoniopropanol 4-methylcyclohexylidenecarboxylate'
_symmetry_cell_setting           orthorhombic
_symmetry_space_group_name_H-M   'P 21 21 21'
_symmetry_Int_Tables_number      19
_space_group_name_Hall           'P 2ac 2ab'
loop_
_symmetry_equiv_pos_site_id
_symmetry_equiv_pos_as_xyz
1 x,y,z
2 1/2+x,1/2-y,-z
3 -x,1/2+y,1/2-z
4 1/2-x,-y,1/2+z
_cell_length_a                   4.996(1)
_cell_length_b                   11.052(2)
_cell_length_c                   32.683(4)
_cell_angle_alpha                90
_cell_angle_beta                 90
_cell_angle_gamma                90
_cell_volume                     1804.62
_exptl_crystal_colour            colorless
_chemical_melting_point          134-137deg.C
_cell_formula_units_Z            4
loop_
_atom_site_label
_atom_site_type_symbol
_atom_site_fract_x
_atom_site_fract_y
_atom_site_fract_z
O1 O -0.3310(10) -0.6004(3) -0.7676(1)
O2 O -0.1918(9) -0.4120(3) -0.7621(1)
C1 C 0.133(1) -0.4607(6) -0.8366(2)
C2 C 0.326(2) -0.5029(6) -0.8677(2)
C3 C 0.262(2) -0.4580(7) -0.9109(2)
C4 C 0.230(1) -0.3225(6) -0.9123(2)
C5 C 0.029(2) -0.2857(6) -0.8803(2)
C6 C 0.015(1) -0.5377(6) -0.8113(2)
C7 C -0.180(1) -0.5139(5) -0.7787(2)
C14 C 0.087(2) -0.3284(6) -0.8382(2)
C18 C 0.157(3) -0.2839(8) -0.9554(2)
H1 H 0.3372 -0.5909 -0.8703
H2 H 0.5105 -0.4762 -0.8635
H3 H 0.0968 -0.4956 -0.9196
H4 H 0.3978 -0.4040 -0.9307
H5 H 0.3995 -0.2818 -0.9048
H6 H -0.1408 -0.3232 -0.8912
H7 H -0.0006 -0.1999 -0.8837
H8 H -0.0594 -0.3070 -0.8198
H9 H 0.2423 -0.2835 -0.8277
H10 H 0.0598 -0.6232 -0.8169
H24 H 0.0840 -0.2207 -0.9590
H25 H 0.2768 -0.2455 -0.9738
H26 H 0.0067 -0.3138 -0.9701
O3 O -0.4883(12) -0.5795(4) -0.6887(1)
N1 N -0.686(1) -0.3493(4) -0.7287(2)
C8 C -0.751(1) -0.3930(5) -0.6868(2)
C9 C -0.564(2) -0.3362(6) -0.6560(2)
C10 C -0.647(2) -0.3545(7) -0.6126(2)
C11 C -0.823(2) -0.2779(8) -0.5942(2)
C12 C -0.909(3) -0.2975(11) -0.5551(3)
C13 C -0.746(1) -0.5314(6) -0.6860(2)
C15 C -0.556(3) -0.4532(9) -0.5900(3)
C16 C -0.817(3) -0.3932(12) -0.5330(3)
C17 C -0.644(3) -0.4688(10) -0.5506(3)
H11 H -0.9321 -0.3674 -0.6785
H12 H -0.5402 -0.2504 -0.6610
H13 H -0.3843 -0.3717 -0.6592
H14 H -0.8300 -0.5592 -0.6610
H15 H -0.8539 -0.5606 -0.7084
H16 H -0.9030 -0.2098 -0.6089
H17 H -1.0487 -0.2476 -0.5398
H18 H -0.8705 -0.4026 -0.5047
H19 H -0.5656 -0.5337 -0.5315
H20 H -0.4227 -0.5104 -0.6033
H21 H -0.5410 -0.3613 -0.7285
H22 H -0.8470 -0.3535 -0.7438
H23 H -0.6361 -0.2662 -0.7253
H27 H -0.3340 -0.5566 -0.6875
loop_
_geom_bond_atom_site_label_1
_geom_bond_atom_site_label_2
_geom_bond_site_symmetry_1
_geom_bond_site_symmetry_2
O1 C7 1_555 1_555
O2 C7 1_555 1_555
O3 C13 1_555 1_555
N1 C8 1_555 1_555
C1 C2 1_555 1_555
C2 C3 1_555 1_555
C3 C4 1_555 1_555
C4 C5 1_555 1_555
C5 C14 1_555 1_555
C6 C1 1_555 1_555
C7 C6 1_555 1_555
C8 C9 1_555 1_555
C9 C10 1_555 1_555
C10 C11 1_555 1_555
C11 C12 1_555 1_555
C12 C16 1_555 1_555
C13 C8 1_555 1_555
C14 C1 1_555 1_555
C15 C10 1_555 1_555
C16 C17 1_555 1_555
C17 C15 1_555 1_555
C18 C4 1_555 1_555
H1 C2 1_555 1_555
H2 C2 1_555 1_555
H3 C3 1_555 1_555
H4 C3 1_555 1_555
H5 C4 1_555 1_555
H6 C5 1_555 1_555
H7 C5 1_555 1_555
H8 C14 1_555 1_555
H9 C14 1_555 1_555
H10 C6 1_555 1_555
H11 C8 1_555 1_555
H12 C9 1_555 1_555
H13 C9 1_555 1_555
H14 C13 1_555 1_555
H15 C13 1_555 1_555
H16 C11 1_555 1_555
H17 C12 1_555 1_555
H18 C16 1_555 1_555
H19 C17 1_555 1_555
H20 C15 1_555 1_555
H21 N1 1_555 1_555
H22 N1 1_555 1_555
H23 N1 1_555 1_555
H24 C18 1_555 1_555
H25 C18 1_555 1_555
H26 C18 1_555 1_555
H27 O3 1_555 1_555

#END
