
#######################################################################
#
#                 Cambridge Crystallographic Data Centre
#                                CCDC 
#
#######################################################################
#
# If this CIF has been generated from an entry in the Cambridge 
# Structural Database, then it will include bibliographic, chemical, 
# crystal, experimental, refinement or atomic coordinate data resulting 
# from the CCDC's data processing and validation procedures.
#
#######################################################################

data_KOVGAF
_chemical_formula_moiety         'C28 H16 Br2 N2'
_chemical_name_systematic        
2-bromo-6-(1-(3-(6-bromopyridin-2-yl)-1H-inden-1-ylidene)-1H-inden-3-yl)pyridine
_symmetry_cell_setting           monoclinic
_symmetry_space_group_name_H-M   'C 2/c'
_symmetry_Int_Tables_number      15
_space_group_name_Hall           '-C 2yn'
loop_
_symmetry_equiv_pos_site_id
_symmetry_equiv_pos_as_xyz
1 x,y,z
2 -x,y,1/2-z
3 1/2+x,1/2+y,z
4 1/2-x,1/2+y,1/2-z
5 -x,-y,-z
6 x,-y,1/2+z
7 1/2-x,1/2-y,-z
8 1/2+x,1/2-y,1/2+z
_cell_length_a                   23.277(16)
_cell_length_b                   6.251(4)
_cell_length_c                   14.611(11)
_cell_angle_alpha                90
_cell_angle_beta                 92.423(12)
_cell_angle_gamma                90
_cell_volume                     2124.07
_exptl_crystal_colour            red
_exptl_crystal_description       plane
_cell_formula_units_Z            4
loop_
_atom_site_label
_atom_site_type_symbol
_atom_site_fract_x
_atom_site_fract_y
_atom_site_fract_z
Br1 Br 1.039431(16) 0.04502(7) 0.12581(4)
C1 C 0.97081(14) 0.2158(6) 0.1187(3)
C2 C 0.97662(15) 0.4341(7) 0.1268(3)
H1 H 1.0125 0.4990 0.1333
C3 C 0.92638(15) 0.5517(6) 0.1248(3)
H2 H 0.9275 0.6997 0.1310
C4 C 0.87441(14) 0.4464(6) 0.1135(2)
H3 H 0.8402 0.5232 0.1127
C5 C 0.87347(14) 0.2254(5) 0.1034(2)
C6 C 0.82042(13) 0.1011(5) 0.0834(2)
C7 C 0.81731(13) -0.0747(5) 0.0309(2)
H4 H 0.8485 -0.1337 0.0021
C8 C 0.75913(14) -0.1626(5) 0.0242(2)
C9 C 0.72530(13) -0.0162(5) 0.0821(2)
C10 C 0.66835(13) -0.0160(5) 0.1080(2)
H5 H 0.6434 -0.1242 0.0880
C11 C 0.64911(15) 0.1449(6) 0.1631(2)
H6 H 0.6107 0.1467 0.1780
C12 C 0.68557(15) 0.3053(6) 0.1973(2)
H7 H 0.6718 0.4114 0.2353
C13 C 0.74278(14) 0.3049(6) 0.1740(2)
H8 H 0.7678 0.4103 0.1966
C14 C 0.76225(13) 0.1469(5) 0.1172(2)
N1 N 0.92278(11) 0.1086(4) 0.1066(2)
Br1F Br 0.460569(16) -0.54502(7) -0.12581(4)
C1F C 0.52919(14) -0.7158(6) -0.1187(3)
C2F C 0.52338(15) -0.9341(7) -0.1268(3)
H1F H 0.4875 -0.9990 -0.1333
C3F C 0.57362(15) -1.0517(6) -0.1248(3)
H2F H 0.5725 -1.1997 -0.1310
C4F C 0.62559(14) -0.9464(6) -0.1135(2)
H3F H 0.6598 -1.0232 -0.1127
C5F C 0.62653(14) -0.7254(5) -0.1034(2)
C6F C 0.67958(13) -0.6011(5) -0.0834(2)
C7F C 0.68269(13) -0.4253(5) -0.0309(2)
H4F H 0.6515 -0.3663 -0.0021
C8F C 0.74087(14) -0.3374(5) -0.0242(2)
C9F C 0.77470(13) -0.4838(5) -0.0821(2)
C10F C 0.83165(13) -0.4840(5) -0.1080(2)
H5F H 0.8566 -0.3758 -0.0880
C11F C 0.85089(15) -0.6449(6) -0.1631(2)
H6F H 0.8893 -0.6467 -0.1780
C12F C 0.81443(15) -0.8053(6) -0.1973(2)
H7F H 0.8282 -0.9114 -0.2353
C13F C 0.75722(14) -0.8049(6) -0.1740(2)
H8F H 0.7322 -0.9103 -0.1966
C14F C 0.73775(13) -0.6469(5) -0.1172(2)
N1F N 0.57722(11) -0.6086(4) -0.1066(2)
loop_
_geom_bond_atom_site_label_1
_geom_bond_atom_site_label_2
_geom_bond_site_symmetry_1
_geom_bond_site_symmetry_2
Br1 C1 1_555 1_555
C1 C2 1_555 1_555
C2 H1 1_555 1_555
C3 C2 1_555 1_555
H2 C3 1_555 1_555
C4 C3 1_555 1_555
H3 C4 1_555 1_555
C5 C4 1_555 1_555
C6 C5 1_555 1_555
C7 C6 1_555 1_555
H4 C7 1_555 1_555
C8 C7 1_555 1_555
C9 C8 1_555 1_555
C10 C9 1_555 1_555
H5 C10 1_555 1_555
C11 C10 1_555 1_555
H6 C11 1_555 1_555
C12 C11 1_555 1_555
H7 C12 1_555 1_555
C13 C12 1_555 1_555
H8 C13 1_555 1_555
C14 C6 1_555 1_555
N1 C1 1_555 1_555
Br1F C1F 1_555 1_555
C1F C2F 1_555 1_555
C2F H1F 1_555 1_555
C3F C2F 1_555 1_555
H2F C3F 1_555 1_555
C4F C3F 1_555 1_555
H3F C4F 1_555 1_555
C5F C4F 1_555 1_555
C6F C5F 1_555 1_555
C7F C6F 1_555 1_555
H4F C7F 1_555 1_555
C8F C8 1_555 1_555
C9F C8F 1_555 1_555
C10F C9F 1_555 1_555
H5F C10F 1_555 1_555
C11F C10F 1_555 1_555
H6F C11F 1_555 1_555
C12F C11F 1_555 1_555
H7F C12F 1_555 1_555
C13F C12F 1_555 1_555
H8F C13F 1_555 1_555
C14F C6F 1_555 1_555
N1F C1F 1_555 1_555
C5 N1 1_555 1_555
C9 C14 1_555 1_555
C13 C14 1_555 1_555
C5F N1F 1_555 1_555
C7F C8F 1_555 1_555
C9F C14F 1_555 1_555
C13F C14F 1_555 1_555

#END
