
#######################################################################
#
#                 Cambridge Crystallographic Data Centre
#                                CCDC 
#
#######################################################################
#
# If this CIF has been generated from an entry in the Cambridge 
# Structural Database, then it will include bibliographic, chemical, 
# crystal, experimental, refinement or atomic coordinate data resulting 
# from the CCDC's data processing and validation procedures.
#
#######################################################################

data_KOVHIM01
_chemical_formula_moiety         'C6 H10 N4 O4'
_chemical_name_systematic        2-(Dinitromethylene)-1,3-diazepane
_symmetry_cell_setting           orthorhombic
_symmetry_space_group_name_H-M   'P 21 21 2'
_symmetry_Int_Tables_number      18
_space_group_name_Hall           'P 2 2ab'
loop_
_symmetry_equiv_pos_site_id
_symmetry_equiv_pos_as_xyz
1 x,y,z
2 -x,-y,z
3 1/2-x,1/2+y,-z
4 1/2+x,1/2-y,-z
_cell_length_a                   10.053(2)
_cell_length_b                   4.5919(11)
_cell_length_c                   9.705(2)
_cell_angle_alpha                90
_cell_angle_beta                 90
_cell_angle_gamma                90
_cell_volume                     448.006
_exptl_crystal_colour            yellow
_exptl_crystal_description       block
_cell_formula_units_Z            2
loop_
_atom_site_label
_atom_site_type_symbol
_atom_site_fract_x
_atom_site_fract_y
_atom_site_fract_z
N1 N 0.41091(17) 0.3244(5) 0.40747(17)
N2 N 0.38664(17) 0.5333(4) 0.69303(17)
H1 H 0.3269 0.6379 0.6533
O1 O 0.35114(15) 0.1335(4) 0.47525(17)
O2 O 0.3903(2) 0.3561(6) 0.28343(17)
C1 C 0.5000 0.5000 0.4784(3)
C2 C 0.5000 0.5000 0.6283(3)
C3 C 0.3529(2) 0.4073(6) 0.8274(2)
H2 H 0.3711 0.1999 0.8244
H3 H 0.2582 0.4313 0.8426
C4 C 0.4266(3) 0.5367(7) 0.9488(2)
H4 H 0.3869 0.4653 1.0334
H5 H 0.4162 0.7467 0.9472
N1A N 0.58909(17) 0.6756(5) 0.40747(17)
N2A N 0.61336(17) 0.4667(4) 0.69303(17)
H1A H 0.6731 0.3621 0.6533
O1A O 0.64886(15) 0.8665(4) 0.47525(17)
O2A O 0.6097(2) 0.6439(6) 0.28343(17)
C3A C 0.6471(2) 0.5927(6) 0.8274(2)
H2A H 0.6289 0.8001 0.8244
H3A H 0.7418 0.5687 0.8426
C4A C 0.5734(3) 0.4633(7) 0.9488(2)
H4A H 0.6131 0.5347 1.0334
H5A H 0.5838 0.2533 0.9472
loop_
_geom_bond_atom_site_label_1
_geom_bond_atom_site_label_2
_geom_bond_site_symmetry_1
_geom_bond_site_symmetry_2
N1 O1 1_555 1_555
N2 H1 1_555 1_555
O2 N1 1_555 1_555
C1 N1 1_555 1_555
C2 N2 1_555 1_555
C3 N2 1_555 1_555
H2 C3 1_555 1_555
H3 C3 1_555 1_555
C4 C3 1_555 1_555
H4 C4 1_555 1_555
H5 C4 1_555 1_555
N1A C1 1_555 1_555
N2A C2 1_555 1_555
H1A N2A 1_555 1_555
O1A N1A 1_555 1_555
O2A N1A 1_555 1_555
C3A N2A 1_555 1_555
H2A C3A 1_555 1_555
H3A C3A 1_555 1_555
C4A C4 1_555 1_555
H4A C4A 1_555 1_555
H5A C4A 1_555 1_555
C1 C2 1_555 1_555
C3A C4A 1_555 1_555

#END
