
#######################################################################
#
#                 Cambridge Crystallographic Data Centre
#                                CCDC 
#
#######################################################################
#
# If this CIF has been generated from an entry in the Cambridge 
# Structural Database, then it will include bibliographic, chemical, 
# crystal, experimental, refinement or atomic coordinate data resulting 
# from the CCDC's data processing and validation procedures.
#
#######################################################################

data_KOVHOU
_chemical_formula_moiety         'C14 H10 Cl4 Mg1 O6,2(C4 H8 O1)'
_chemical_name_systematic        
'diaqua-bis(3,5-dichloro-2-(oxy)benzaldehyde)-magnesium tetrahydrofuran solvate'
_symmetry_cell_setting           triclinic
_symmetry_space_group_name_H-M   'P -1'
_symmetry_Int_Tables_number      2
_space_group_name_Hall           '-P 1'
loop_
_symmetry_equiv_pos_site_id
_symmetry_equiv_pos_as_xyz
1 x,y,z
2 -x,-y,-z
_cell_length_a                   10.4767(14)
_cell_length_b                   11.6728(16)
_cell_length_c                   12.9373(18)
_cell_angle_alpha                91.500(4)
_cell_angle_beta                 106.143(3)
_cell_angle_gamma                115.291(3)
_cell_volume                     1354.81
_exptl_crystal_colour            yellow
_exptl_crystal_description       block
_cell_formula_units_Z            2
loop_
_atom_site_label
_atom_site_type_symbol
_atom_site_fract_x
_atom_site_fract_y
_atom_site_fract_z
C1 C 0.9020(3) 0.7123(3) 1.2651(2)
H1 H 0.9686 0.7201 1.3329
C2 C 0.8105(3) 0.7748(3) 1.2632(2)
C3 C 0.8292(3) 0.8401(3) 1.3631(2)
H2 H 0.8990 0.8406 1.4262
C4 C 0.7479(3) 0.9024(3) 1.3693(2)
C5 C 0.6464(3) 0.9053(3) 1.2757(3)
H3 H 0.5916 0.9494 1.2797
C6 C 0.6269(3) 0.8429(3) 1.1777(2)
C7 C 0.7054(3) 0.7721(2) 1.1647(2)
C8 C 0.8206(3) 0.4083(3) 0.9134(2)
H4 H 0.8761 0.3634 0.9154
C9 C 0.7237(3) 0.4019(3) 0.8084(2)
C10 C 0.6275(3) 0.4611(2) 0.79325(19)
C11 C 0.5367(3) 0.4423(3) 0.6838(2)
C12 C 0.5401(3) 0.3735(3) 0.5986(2)
H5 H 0.4770 0.3625 0.5284
C13 C 0.6379(4) 0.3201(3) 0.6172(2)
C14 C 0.7269(3) 0.3329(3) 0.7190(2)
H6 H 0.7914 0.2957 0.7304
Cl1 Cl 0.76752(13) 0.97940(12) 1.49349(8)
Cl2 Cl 0.49803(10) 0.84707(8) 1.06198(7)
Cl3 Cl 0.41654(9) 0.51196(8) 0.65853(5)
Cl4 Cl 0.64568(15) 0.23567(13) 0.50798(8)
Mg1 Mg 0.75530(9) 0.59075(8) 1.02863(6)
O1 O 0.9036(2) 0.64926(19) 1.18824(14)
O2 O 0.68001(19) 0.71200(17) 1.07158(13)
O3 O 0.83913(19) 0.46599(19) 1.00101(14)
O4 O 0.62127(18) 0.52630(17) 0.87174(13)
O5 O 0.60724(18) 0.44335(17) 1.08490(13)
H7 H 0.5458 0.4455 1.1143
H8 H 0.5454 0.3796 1.0371
O6 O 0.9239(2) 0.7309(2) 0.98407(16)
H9 H 0.9401 0.7237 0.9247
H10 H 0.9853 0.8060 1.0262
C15 C 1.0653(6) 0.2952(7) 0.3185(4)
H11 H 1.1673 0.3609 0.3351
H12 H 1.0669 0.2188 0.3453
C16 C 0.9865(9) 0.3392(9) 0.3698(6)
H13 H 0.9629 0.2911 0.4275
H14 H 1.0461 0.4296 0.4009
C17 C 0.8557(11) 0.3197(11) 0.2881(7)
H15 H 0.8543 0.4013 0.2781
H16 H 0.7692 0.2657 0.3085
C18 C 0.8525(7) 0.2580(8) 0.1880(4)
H17 H 0.7783 0.1686 0.1709
H18 H 0.8278 0.3007 0.1278
O7 O 0.9927(4) 0.2669(3) 0.2047(2)
C23 C 0.1467(14) 0.0108(12) 0.2109(8)
H27 H 0.1348 -0.0397 0.2691
H28 H 0.0692 0.0385 0.1932
C24 C 0.291(3) 0.121(2) 0.2455(13)
H29 H 0.2796 0.1985 0.2525
H30 H 0.3492 0.1155 0.3164
C25 C 0.365(2) 0.1265(16) 0.1715(16)
H31 H 0.4508 0.1113 0.2028
H32 H 0.3978 0.2095 0.1478
C26 C 0.2518(8) 0.0223(8) 0.0793(7)
H33 H 0.2109 0.0572 0.0189
H34 H 0.2947 -0.0274 0.0539
O9 O 0.1365(4) -0.0571(3) 0.1264(3)
C19? C 0.126(2) 0.0418(16) 0.168(2)
H19? H 0.0697 0.0154 0.2189
H20? H 0.0726 0.0718 0.1102
C20? C 0.277(2) 0.1480(15) 0.226(2)
H21? H 0.2959 0.2257 0.1941
H22? H 0.2945 0.1670 0.3033
C21? C 0.365(2) 0.085(2) 0.203(3)
H23? H 0.4055 0.1198 0.1456
H24? H 0.4469 0.0992 0.2679
C22? C 0.2771(17) -0.0363(15) 0.173(2)
H25? H 0.2835 -0.0795 0.2357
H26? H 0.3079 -0.0718 0.1212
O8? O 0.1365(4) -0.0571(3) 0.1264(3)
loop_
_geom_bond_atom_site_label_1
_geom_bond_atom_site_label_2
_geom_bond_site_symmetry_1
_geom_bond_site_symmetry_2
C1 H1 1_555 1_555
C2 C1 1_555 1_555
C3 C2 1_555 1_555
H2 C3 1_555 1_555
C4 C3 1_555 1_555
C5 C4 1_555 1_555
H3 C5 1_555 1_555
C6 C5 1_555 1_555
C7 C2 1_555 1_555
C8 H4 1_555 1_555
C9 C8 1_555 1_555
C10 C9 1_555 1_555
C11 C10 1_555 1_555
C12 C11 1_555 1_555
H5 C12 1_555 1_555
C13 C12 1_555 1_555
C14 C9 1_555 1_555
H6 C14 1_555 1_555
Cl1 C4 1_555 1_555
Cl2 C6 1_555 1_555
Cl3 C11 1_555 1_555
Cl4 C13 1_555 1_555
Mg1 O1 1_555 1_555
O1 C1 1_555 1_555
O2 C7 1_555 1_555
O3 C8 1_555 1_555
O4 C10 1_555 1_555
O5 Mg1 1_555 1_555
H7 O5 1_555 1_555
H8 O5 1_555 1_555
O6 Mg1 1_555 1_555
H9 O6 1_555 1_555
H10 O6 1_555 1_555
C15 H11 1_555 1_555
H12 C15 1_555 1_555
C16 C15 1_555 1_555
H13 C16 1_555 1_555
H14 C16 1_555 1_555
C17 C16 1_555 1_555
H15 C17 1_555 1_555
H16 C17 1_555 1_555
C18 C17 1_555 1_555
H17 C18 1_555 1_555
H18 C18 1_555 1_555
O7 C15 1_555 1_555
C23 H27 1_555 1_555
H28 C23 1_555 1_555
C24 C23 1_555 1_555
H29 C24 1_555 1_555
H30 C24 1_555 1_555
C25 C24 1_555 1_555
H31 C25 1_555 1_555
H32 C25 1_555 1_555
C26 C25 1_555 1_555
H33 C26 1_555 1_555
H34 C26 1_555 1_555
O9 C23 1_555 1_555
C6 C7 1_555 1_555
C13 C14 1_555 1_555
Mg1 O2 1_555 1_555
Mg1 O3 1_555 1_555
Mg1 O4 1_555 1_555
C18 O7 1_555 1_555
C26 O9 1_555 1_555

#END
