
#######################################################################
#
#                 Cambridge Crystallographic Data Centre
#                                CCDC 
#
#######################################################################
#
# If this CIF has been generated from an entry in the Cambridge 
# Structural Database, then it will include bibliographic, chemical, 
# crystal, experimental, refinement or atomic coordinate data resulting 
# from the CCDC's data processing and validation procedures.
#
#######################################################################

data_KOVKOX
_chemical_formula_moiety         
'2(C19 H18 N1 1+),C12 H8 O8 S2 2-,2(C2 H6 O1),2(H2 O1)'
_chemical_name_systematic        
"bis(triphenylmethanaminium) 4,4'-dihydroxybiphenyl-3,3'-disulfonate ethanol solvate dihydrate"
_symmetry_cell_setting           triclinic
_symmetry_space_group_name_H-M   'P -1'
_symmetry_Int_Tables_number      2
_space_group_name_Hall           '-P 1'
loop_
_symmetry_equiv_pos_site_id
_symmetry_equiv_pos_as_xyz
1 x,y,z
2 -x,-y,-z
_cell_length_a                   9.6061(19)
_cell_length_b                   12.081(2)
_cell_length_c                   12.588(3)
_cell_angle_alpha                68.92(3)
_cell_angle_beta                 72.30(3)
_cell_angle_gamma                82.30(3)
_cell_volume                     1298.07
_exptl_crystal_colour            colorless
_exptl_crystal_description       prism
_cell_formula_units_Z            1
loop_
_atom_site_label
_atom_site_type_symbol
_atom_site_fract_x
_atom_site_fract_y
_atom_site_fract_z
S1 S 0.19096(10) 0.87075(6) 0.37331(7)
O1 O 0.1574(3) 0.93848(18) 0.26279(17)
O2 O 0.3345(3) 0.8922(2) 0.3710(3)
O3 O 0.0762(3) 0.88664(18) 0.47279(18)
O4 O 0.4396(3) 0.7301(2) 0.2530(3)
H1 H 0.439(5) 0.790(3) 0.274(4)
C1 C 0.1945(3) 0.7206(2) 0.3858(2)
C2 C 0.0737(3) 0.6527(2) 0.4547(2)
H2 H -0.0050 0.6865 0.4982
C3 C 0.0636(3) 0.5354(2) 0.4622(2)
C4 C 0.1854(4) 0.4923(3) 0.3916(3)
H3 H 0.1833 0.4160 0.3905
C5 C 0.3063(4) 0.5570(3) 0.3246(3)
H4 H 0.3844 0.5236 0.2802
C6 C 0.3154(4) 0.6722(3) 0.3212(3)
S1A S -0.19096(10) 0.12925(6) 0.62669(7)
O1A O -0.1574(3) 0.06152(18) 0.73721(17)
O2A O -0.3345(3) 0.1078(2) 0.6290(3)
O3A O -0.0762(3) 0.11336(18) 0.52721(18)
O4A O -0.4396(3) 0.2699(2) 0.7470(3)
H1A H -0.439(5) 0.210(3) 0.726(4)
C1A C -0.1945(3) 0.2794(2) 0.6142(2)
C2A C -0.0737(3) 0.3473(2) 0.5453(2)
H2A H 0.0050 0.3135 0.5018
C3A C -0.0636(3) 0.4646(2) 0.5378(2)
C4A C -0.1854(4) 0.5077(3) 0.6084(3)
H3A H -0.1833 0.5840 0.6095
C5A C -0.3063(4) 0.4430(3) 0.6754(3)
H4A H -0.3844 0.4764 0.7198
C6A C -0.3154(4) 0.3278(3) 0.6788(3)
O6 O 0.4597(10) 0.9905(8) 0.8327(7)
O6A O 0.5403(10) 1.0095(8) 1.1673(7)
O7 O 0.3064(5) 0.9794(4) 0.6861(4)
H5 H 0.3499 0.9780 0.7334
C7 C 0.3371(8) 1.0860(7) 0.5874(7)
H6 H 0.4418 1.0963 0.5552
H7 H 0.2978 1.0839 0.5257
C8 C 0.2701(8) 1.1805(7) 0.6290(7)
H8 H 0.2945 1.2548 0.5660
H9 H 0.3045 1.1779 0.6939
H10 H 0.1659 1.1725 0.6551
N1 N 0.0526(3) 0.88095(18) 0.70204(19)
H11 H -0.013(2) 0.936(2) 0.713(2)
H12 H 0.066(3) 0.883(3) 0.6302(14)
H13 H 0.1322(16) 0.902(3) 0.707(3)
C9 C 0.0215(3) 0.7564(2) 0.7918(2)
C10 C 0.1239(3) 0.6695(2) 0.7394(2)
C11 C 0.2648(4) 0.6991(3) 0.6696(3)
H14 H 0.2974 0.7746 0.6512
C12 C 0.3575(4) 0.6176(3) 0.6268(3)
H15 H 0.4514 0.6390 0.5786
C13 C 0.3115(4) 0.5052(3) 0.6552(3)
H16 H 0.3746 0.4501 0.6272
C14 C 0.1759(4) 0.4748(3) 0.7232(3)
H17 H 0.1456 0.3984 0.7420
C15 C 0.0788(4) 0.5558(2) 0.7664(3)
H18 H -0.0154 0.5336 0.8129
C16 C -0.1380(3) 0.7330(2) 0.8153(3)
C17 C -0.2066(4) 0.7734(3) 0.7245(3)
H19 H -0.1545 0.8174 0.6483
C18 C -0.3502(4) 0.7488(4) 0.7467(4)
H20 H -0.3949 0.7781 0.6857
C19 C -0.4278(5) 0.6827(5) 0.8558(5)
H21 H -0.5246 0.6659 0.8692
C20 C -0.3635(5) 0.6409(4) 0.9459(4)
H22 H -0.4167 0.5952 1.0209
C21 C -0.2189(4) 0.6657(3) 0.9268(3)
H23 H -0.1764 0.6371 0.9892
C22 C 0.0531(3) 0.7586(2) 0.9031(2)
C23 C -0.0180(5) 0.8409(3) 0.9553(3)
H24 H -0.0838 0.8953 0.9213
C24 C 0.0057(6) 0.8446(3) 1.0563(3)
H25 H -0.0448 0.8996 1.0914
C25 C 0.1060(5) 0.7650(4) 1.1048(3)
H26 H 0.1254 0.7683 1.1716
C26 C 0.1768(4) 0.6818(4) 1.0559(3)
H27 H 0.2423 0.6276 1.0903
C27 C 0.1507(4) 0.6784(3) 0.9550(3)
H28 H 0.1992 0.6217 0.9216
O5? O 0.4493(10) 0.9793(8) 0.9751(7)
loop_
_geom_bond_atom_site_label_1
_geom_bond_atom_site_label_2
_geom_bond_site_symmetry_1
_geom_bond_site_symmetry_2
S1 O1 1_555 1_555
O2 S1 1_555 1_555
O3 S1 1_555 1_555
O4 H1 1_555 1_555
C1 S1 1_555 1_555
C2 C1 1_555 1_555
H2 C2 1_555 1_555
C3 C2 1_555 1_555
C4 C3 1_555 1_555
H3 C4 1_555 1_555
C5 C4 1_555 1_555
H4 C5 1_555 1_555
C6 O4 1_555 1_555
O7 H5 1_555 1_555
C7 O7 1_555 1_555
H6 C7 1_555 1_555
H7 C7 1_555 1_555
C8 C7 1_555 1_555
H8 C8 1_555 1_555
H9 C8 1_555 1_555
H10 C8 1_555 1_555
N1 H11 1_555 1_555
H12 N1 1_555 1_555
H13 N1 1_555 1_555
C9 N1 1_555 1_555
C10 C9 1_555 1_555
C11 C10 1_555 1_555
H14 C11 1_555 1_555
C12 C11 1_555 1_555
H15 C12 1_555 1_555
C13 C12 1_555 1_555
H16 C13 1_555 1_555
C14 C13 1_555 1_555
H17 C14 1_555 1_555
C15 C10 1_555 1_555
H18 C15 1_555 1_555
C16 C9 1_555 1_555
C17 C16 1_555 1_555
H19 C17 1_555 1_555
C18 C17 1_555 1_555
H20 C18 1_555 1_555
C19 C18 1_555 1_555
H21 C19 1_555 1_555
C20 C19 1_555 1_555
H22 C20 1_555 1_555
C21 C16 1_555 1_555
H23 C21 1_555 1_555
C22 C9 1_555 1_555
C23 C22 1_555 1_555
H24 C23 1_555 1_555
C24 C23 1_555 1_555
H25 C24 1_555 1_555
C25 C24 1_555 1_555
H26 C25 1_555 1_555
C26 C25 1_555 1_555
H27 C26 1_555 1_555
C27 C22 1_555 1_555
H28 C27 1_555 1_555
S1A O1A 1_555 1_555
O2A S1A 1_555 1_555
O3A S1A 1_555 1_555
O4A H1A 1_555 1_555
C1A S1A 1_555 1_555
C2A C1A 1_555 1_555
H2A C2A 1_555 1_555
C3A C3 1_555 1_555
C4A C3A 1_555 1_555
H3A C4A 1_555 1_555
C5A C4A 1_555 1_555
H4A C5A 1_555 1_555
C6A O4A 1_555 1_555
C1 C6 1_555 1_555
C5 C6 1_555 1_555
C14 C15 1_555 1_555
C20 C21 1_555 1_555
C26 C27 1_555 1_555
C1A C6A 1_555 1_555
C2A C3A 1_555 1_555
C5A C6A 1_555 1_555

#END
