
#######################################################################
#
#                 Cambridge Crystallographic Data Centre
#                                CCDC 
#
#######################################################################
#
# If this CIF has been generated from an entry in the Cambridge 
# Structural Database, then it will include bibliographic, chemical, 
# crystal, experimental, refinement or atomic coordinate data resulting 
# from the CCDC's data processing and validation procedures.
#
#######################################################################

data_KOVLUE
_chemical_formula_moiety         
'2(C19 H18 N1 1+),C12 H8 O8 S2 2-,2(C2 H6 O1 S1)'
_chemical_name_systematic        
"bis(triphenylmethanaminium) 4,4'-dihydroxybiphenyl-3,3'-disulfonate dimethyl sulfoxide solvate"
_symmetry_cell_setting           triclinic
_symmetry_space_group_name_H-M   'P -1'
_symmetry_Int_Tables_number      2
_space_group_name_Hall           '-P 1'
loop_
_symmetry_equiv_pos_site_id
_symmetry_equiv_pos_as_xyz
1 x,y,z
2 -x,-y,-z
_cell_length_a                   8.9446(8)
_cell_length_b                   11.9700(10)
_cell_length_c                   12.7475(8)
_cell_angle_alpha                103.421(6)
_cell_angle_beta                 107.836(7)
_cell_angle_gamma                94.705(7)
_cell_volume                     1246.36
_exptl_crystal_colour            colorless
_exptl_crystal_description       prism
_cell_formula_units_Z            1
loop_
_atom_site_label
_atom_site_type_symbol
_atom_site_fract_x
_atom_site_fract_y
_atom_site_fract_z
S1 S 0.40841(7) 0.64947(5) 0.33475(4)
O1 O 0.4836(2) 0.75378(14) 0.43035(13)
O2 O 0.4499(2) 0.54589(15) 0.36996(15)
O3 O 0.2405(2) 0.64440(19) 0.28224(15)
O4 O 0.6539(3) 0.85107(17) 0.32730(17)
H1 H 0.610(4) 0.838(3) 0.375(3)
C1 C 0.4979(3) 0.65766(19) 0.23023(18)
C2 C 0.6070(3) 0.7520(2) 0.2396(2)
C3 C 0.6744(4) 0.7449(2) 0.1539(2)
H2 H 0.7479 0.8071 0.1586
C4 C 0.6346(3) 0.6476(2) 0.0624(2)
H3 H 0.6836 0.6450 0.0074
C5 C 0.5225(3) 0.5525(2) 0.04966(18)
C6 C 0.4558(3) 0.5610(2) 0.13554(18)
H4 H 0.3800 0.4998 0.1297
S1A S 0.59159(7) 0.35053(5) -0.33475(4)
O1A O 0.5164(2) 0.24622(14) -0.43035(13)
O2A O 0.5501(2) 0.45411(15) -0.36996(15)
O3A O 0.7595(2) 0.35560(19) -0.28224(15)
O4A O 0.3461(3) 0.14893(17) -0.32730(17)
H1A H 0.390(4) 0.162(3) -0.375(3)
C1A C 0.5021(3) 0.34234(19) -0.23023(18)
C2A C 0.3930(3) 0.2480(2) -0.2396(2)
C3A C 0.3256(4) 0.2551(2) -0.1539(2)
H2A H 0.2521 0.1929 -0.1586
C4A C 0.3654(3) 0.3524(2) -0.0624(2)
H3A H 0.3164 0.3550 -0.0074
C5A C 0.4775(3) 0.4475(2) -0.04966(18)
C6A C 0.5442(3) 0.4390(2) -0.13554(18)
H4A H 0.6200 0.5002 -0.1297
S2 S 0.94038(10) 0.68073(7) 0.47214(7)
O5 O 0.8882(3) 0.61856(19) 0.5461(2)
C7 C 0.9045(4) 0.5768(3) 0.3409(3)
H5 H 0.9548 0.5112 0.3545
H6 H 0.9472 0.6108 0.2928
H7 H 0.7919 0.5515 0.3039
C8 C 1.1503(4) 0.6964(3) 0.5232(3)
H8 H 1.1909 0.7464 0.5999
H9 H 1.1928 0.7300 0.4747
H10 H 1.1812 0.6214 0.5227
N1 N 0.6588(2) 0.68325(16) 0.63215(15)
H11 H 0.7379(18) 0.667(2) 0.609(2)
H12 H 0.5891(19) 0.701(2) 0.5781(16)
H13 H 0.618(2) 0.6214(14) 0.643(2)
C9 C 0.7124(3) 0.78412(19) 0.73877(18)
C10 C 0.8351(3) 0.7521(2) 0.83646(18)
C11 C 0.8962(3) 0.8346(2) 0.9430(2)
H14 H 0.8630 0.9067 0.9522
C12 C 1.0049(3) 0.8107(3) 1.0345(2)
H15 H 1.0453 0.8667 1.1047
C13 C 1.0541(3) 0.7033(3) 1.0221(2)
H16 H 1.1268 0.6866 1.0840
C14 C 0.9957(3) 0.6216(3) 0.9184(3)
H17 H 1.0289 0.5495 0.9102
C15 C 0.8870(3) 0.6453(2) 0.8250(2)
H18 H 0.8491 0.5894 0.7547
C16 C 0.7858(3) 0.88309(19) 0.70271(19)
C17 C 0.9474(3) 0.8983(2) 0.7191(2)
H19 H 1.0112 0.8534 0.7583
C18 C 1.0154(4) 0.9792(2) 0.6779(2)
H20 H 1.1238 0.9876 0.6887
C19 C 0.9230(4) 1.0469(2) 0.6213(3)
H21 H 0.9688 1.1025 0.5952
C20 C 0.7623(4) 1.0321(2) 0.6032(3)
H22 H 0.6994 1.0777 0.5643
C21 C 0.6935(3) 0.9500(2) 0.6423(2)
H23 H 0.5842 0.9395 0.6279
C22 C 0.5684(3) 0.8065(2) 0.77773(19)
C23 C 0.5403(4) 0.9175(3) 0.8196(2)
H24 H 0.6030 0.9821 0.8173
C24 C 0.4181(4) 0.9322(3) 0.8653(3)
H25 H 0.3975 1.0068 0.8907
C25 C 0.3275(4) 0.8384(4) 0.8733(3)
H26 H 0.2486 0.8495 0.9064
C26 C 0.3544(3) 0.7283(3) 0.8324(3)
H27 H 0.2929 0.6642 0.8369
C27 C 0.4732(3) 0.7125(3) 0.7842(2)
H28 H 0.4895 0.6374 0.7557
loop_
_geom_bond_atom_site_label_1
_geom_bond_atom_site_label_2
_geom_bond_site_symmetry_1
_geom_bond_site_symmetry_2
S1 O1 1_555 1_555
O2 S1 1_555 1_555
O3 S1 1_555 1_555
O4 H1 1_555 1_555
C1 S1 1_555 1_555
C2 O4 1_555 1_555
C3 C2 1_555 1_555
H2 C3 1_555 1_555
C4 C3 1_555 1_555
H3 C4 1_555 1_555
C5 C4 1_555 1_555
C6 C1 1_555 1_555
H4 C6 1_555 1_555
S2 O5 1_555 1_555
C7 S2 1_555 1_555
H5 C7 1_555 1_555
H6 C7 1_555 1_555
H7 C7 1_555 1_555
C8 S2 1_555 1_555
H8 C8 1_555 1_555
H9 C8 1_555 1_555
H10 C8 1_555 1_555
N1 H11 1_555 1_555
H12 N1 1_555 1_555
H13 N1 1_555 1_555
C9 N1 1_555 1_555
C10 C9 1_555 1_555
C11 C10 1_555 1_555
H14 C11 1_555 1_555
C12 C11 1_555 1_555
H15 C12 1_555 1_555
C13 C12 1_555 1_555
H16 C13 1_555 1_555
C14 C13 1_555 1_555
H17 C14 1_555 1_555
C15 C10 1_555 1_555
H18 C15 1_555 1_555
C16 C9 1_555 1_555
C17 C16 1_555 1_555
H19 C17 1_555 1_555
C18 C17 1_555 1_555
H20 C18 1_555 1_555
C19 C18 1_555 1_555
H21 C19 1_555 1_555
C20 C19 1_555 1_555
H22 C20 1_555 1_555
C21 C16 1_555 1_555
H23 C21 1_555 1_555
C22 C9 1_555 1_555
C23 C22 1_555 1_555
H24 C23 1_555 1_555
C24 C23 1_555 1_555
H25 C24 1_555 1_555
C25 C24 1_555 1_555
H26 C25 1_555 1_555
C26 C25 1_555 1_555
H27 C26 1_555 1_555
C27 C22 1_555 1_555
H28 C27 1_555 1_555
S1A O1A 1_555 1_555
O2A S1A 1_555 1_555
O3A S1A 1_555 1_555
O4A H1A 1_555 1_555
C1A S1A 1_555 1_555
C2A O4A 1_555 1_555
C3A C2A 1_555 1_555
H2A C3A 1_555 1_555
C4A C3A 1_555 1_555
H3A C4A 1_555 1_555
C5A C5 1_555 1_555
C6A C1A 1_555 1_555
H4A C6A 1_555 1_555
C1 C2 1_555 1_555
C5 C6 1_555 1_555
C14 C15 1_555 1_555
C20 C21 1_555 1_555
C26 C27 1_555 1_555
C1A C2A 1_555 1_555
C4A C5A 1_555 1_555
C5A C6A 1_555 1_555

#END
