
#######################################################################
#
#                 Cambridge Crystallographic Data Centre
#                                CCDC 
#
#######################################################################
#
# If this CIF has been generated from an entry in the Cambridge 
# Structural Database, then it will include bibliographic, chemical, 
# crystal, experimental, refinement or atomic coordinate data resulting 
# from the CCDC's data processing and validation procedures.
#
#######################################################################

data_KOVLOY
_chemical_formula_moiety         
'2(C19 H18 N1 1+),C12 H8 O8 S2 2-,2(C3 H7 N1 O1)'
_chemical_name_systematic        
"bis(triphenylmethanaminium) 4,4'-dihydroxybiphenyl-3,3'-disulfonate N,N-dimethylformamide solvate"
_symmetry_cell_setting           triclinic
_symmetry_space_group_name_H-M   'P -1'
_symmetry_Int_Tables_number      2
_space_group_name_Hall           '-P 1'
loop_
_symmetry_equiv_pos_site_id
_symmetry_equiv_pos_as_xyz
1 x,y,z
2 -x,-y,-z
_cell_length_a                   10.6098(10)
_cell_length_b                   12.0437(9)
_cell_length_c                   12.3814(8)
_cell_angle_alpha                64.981(7)
_cell_angle_beta                 78.038(7)
_cell_angle_gamma                66.971(8)
_cell_volume                     1317.75
_exptl_crystal_colour            colorless
_exptl_crystal_description       prism
_cell_formula_units_Z            1
loop_
_atom_site_label
_atom_site_type_symbol
_atom_site_fract_x
_atom_site_fract_y
_atom_site_fract_z
S1 S 0.81188(5) 0.05659(5) 1.18216(4)
O1 O 0.87558(16) 0.09741(17) 1.24309(15)
O2 O 0.91013(13) -0.03704(14) 1.13165(13)
O3 O 0.71977(15) 0.16430(14) 1.09246(12)
O4 O 0.7565(2) -0.1885(2) 1.20216(18)
H1 H 0.813(3) -0.148(3) 1.166(3)
C1 C 0.70787(19) -0.02773(18) 1.28863(16)
C2 C 0.6924(2) -0.1349(2) 1.2842(2)
C3 C 0.6029(3) -0.1903(3) 1.3679(3)
H2 H 0.5927 -0.2636 1.3680
C4 C 0.5292(3) -0.1382(3) 1.4507(3)
H3 H 0.4694 -0.1769 1.5054
C5 C 0.5410(2) -0.0289(2) 1.45572(19)
C6 C 0.63403(19) 0.02254(19) 1.37429(16)
H4 H 0.6477 0.0931 1.3769
S1A S 0.18812(5) -0.05659(5) 1.81784(4)
O1A O 0.12442(16) -0.09741(17) 1.75691(15)
O2A O 0.08987(13) 0.03704(14) 1.86835(13)
O3A O 0.28023(15) -0.16430(14) 1.90754(12)
O4A O 0.2435(2) 0.1885(2) 1.79784(18)
H1A H 0.187(3) 0.148(3) 1.834(3)
C1A C 0.29213(19) 0.02773(18) 1.71137(16)
C2A C 0.3076(2) 0.1349(2) 1.7158(2)
C3A C 0.3971(3) 0.1903(3) 1.6321(3)
H2A H 0.4073 0.2636 1.6320
C4A C 0.4708(3) 0.1382(3) 1.5493(3)
H3A H 0.5306 0.1769 1.4946
C5A C 0.4590(2) 0.0289(2) 1.54428(19)
C6A C 0.36597(19) -0.02254(19) 1.62571(16)
H4A H 0.3523 -0.0931 1.6231
O5 O 0.6568(2) 0.01091(19) 0.8888(2)
N1 N 0.6959(2) -0.1467(2) 0.8199(2)
C7 C 0.6257(3) -0.0723(2) 0.8799(3)
H5 H 0.5444 -0.0839 0.9194
C8 C 0.8202(5) -0.1320(5) 0.7543(6)
H6 H 0.7989 -0.0525 0.6849
H7 H 0.8685 -0.2046 0.7303
H8 H 0.8766 -0.1291 0.8038
C9 C 0.6487(3) -0.2423(3) 0.8148(3)
H9 H 0.5628 -0.2393 0.8597
H10 H 0.7153 -0.3278 0.8480
H11 H 0.6367 -0.2231 0.7332
N2 N 0.79778(15) 0.17072(14) 0.86303(13)
H12 H 0.7742(17) 0.1725(19) 0.9344(11)
H13 H 0.8848(9) 0.1293(17) 0.8617(16)
H14 H 0.7570(16) 0.1244(17) 0.8556(17)
C10 C 0.75523(17) 0.30660(16) 0.76704(16)
C11 C 0.60666(18) 0.37687(17) 0.80184(15)
C12 C 0.5070(2) 0.3211(2) 0.8240(2)
H15 H 0.5301 0.2421 0.8158
C13 C 0.3734(2) 0.3815(2) 0.8581(2)
H16 H 0.3076 0.3432 0.8723
C14 C 0.3384(2) 0.4977(2) 0.8709(2)
H17 H 0.2492 0.5373 0.8953
C15 C 0.4341(2) 0.5549(2) 0.8480(2)
H18 H 0.4099 0.6343 0.8558
C16 C 0.5678(2) 0.4955(2) 0.8129(2)
H19 H 0.6322 0.5360 0.7967
C17 C 0.85241(18) 0.37359(18) 0.76632(17)
C18 C 0.9004(2) 0.3537(2) 0.8710(2)
H20 H 0.8774 0.2950 0.9430
C19 C 0.9826(2) 0.4199(2) 0.8704(2)
H21 H 1.0146 0.4048 0.9415
C20 C 1.0162(2) 0.5070(3) 0.7658(3)
H22 H 1.0719 0.5508 0.7651
C21 C 0.9676(3) 0.5294(3) 0.6620(3)
H23 H 0.9889 0.5901 0.5907
C22 C 0.8870(3) 0.4630(2) 0.6615(2)
H24 H 0.8556 0.4788 0.5899
C23 C 0.76726(18) 0.29122(18) 0.64799(16)
C24 C 0.6736(2) 0.3731(2) 0.56177(19)
H25 H 0.5982 0.4390 0.5762
C25 C 0.6890(3) 0.3597(3) 0.4540(2)
H26 H 0.6250 0.4175 0.3964
C26 C 0.7965(3) 0.2631(3) 0.4308(2)
H27 H 0.8049 0.2528 0.3590
C27 C 0.8911(3) 0.1821(2) 0.5140(2)
H28 H 0.9660 0.1166 0.4985
C28 C 0.8777(2) 0.1958(2) 0.6220(2)
H29 H 0.9442 0.1397 0.6778
loop_
_geom_bond_atom_site_label_1
_geom_bond_atom_site_label_2
_geom_bond_site_symmetry_1
_geom_bond_site_symmetry_2
S1 O1 1_555 1_555
O2 S1 1_555 1_555
O3 S1 1_555 1_555
O4 H1 1_555 1_555
C1 S1 1_555 1_555
C2 O4 1_555 1_555
C3 C2 1_555 1_555
H2 C3 1_555 1_555
C4 C3 1_555 1_555
H3 C4 1_555 1_555
C5 C4 1_555 1_555
C6 C1 1_555 1_555
H4 C6 1_555 1_555
O5 C7 1_555 1_555
N1 C7 1_555 1_555
C7 H5 1_555 1_555
C8 N1 1_555 1_555
H6 C8 1_555 1_555
H7 C8 1_555 1_555
H8 C8 1_555 1_555
C9 N1 1_555 1_555
H9 C9 1_555 1_555
H10 C9 1_555 1_555
H11 C9 1_555 1_555
N2 H12 1_555 1_555
H13 N2 1_555 1_555
H14 N2 1_555 1_555
C10 N2 1_555 1_555
C11 C10 1_555 1_555
C12 C11 1_555 1_555
H15 C12 1_555 1_555
C13 C12 1_555 1_555
H16 C13 1_555 1_555
C14 C13 1_555 1_555
H17 C14 1_555 1_555
C15 C14 1_555 1_555
H18 C15 1_555 1_555
C16 C11 1_555 1_555
H19 C16 1_555 1_555
C17 C10 1_555 1_555
C18 C17 1_555 1_555
H20 C18 1_555 1_555
C19 C18 1_555 1_555
H21 C19 1_555 1_555
C20 C19 1_555 1_555
H22 C20 1_555 1_555
C21 C20 1_555 1_555
H23 C21 1_555 1_555
C22 C17 1_555 1_555
H24 C22 1_555 1_555
C23 C10 1_555 1_555
C24 C23 1_555 1_555
H25 C24 1_555 1_555
C25 C24 1_555 1_555
H26 C25 1_555 1_555
C26 C25 1_555 1_555
H27 C26 1_555 1_555
C27 C26 1_555 1_555
H28 C27 1_555 1_555
C28 C23 1_555 1_555
H29 C28 1_555 1_555
S1A O1A 1_555 1_555
O2A S1A 1_555 1_555
O3A S1A 1_555 1_555
O4A H1A 1_555 1_555
C1A S1A 1_555 1_555
C2A O4A 1_555 1_555
C3A C2A 1_555 1_555
H2A C3A 1_555 1_555
C4A C3A 1_555 1_555
H3A C4A 1_555 1_555
C5A C5 1_555 1_555
C6A C1A 1_555 1_555
H4A C6A 1_555 1_555
C1 C2 1_555 1_555
C5 C6 1_555 1_555
C15 C16 1_555 1_555
C21 C22 1_555 1_555
C27 C28 1_555 1_555
C1A C2A 1_555 1_555
C4A C5A 1_555 1_555
C5A C6A 1_555 1_555

#END
