
#######################################################################
#
#                 Cambridge Crystallographic Data Centre
#                                CCDC 
#
#######################################################################
#
# If this CIF has been generated from an entry in the Cambridge 
# Structural Database, then it will include bibliographic, chemical, 
# crystal, experimental, refinement or atomic coordinate data resulting 
# from the CCDC's data processing and validation procedures.
#
#######################################################################

data_KOVLIS
_chemical_formula_moiety         '2(C19 H18 N1 1+),C12 H8 O8 S2 2-,2(C4 H8 O2)'
_chemical_name_systematic        
"bis(triphenylmethanaminium) 4,4'-dihydroxybiphenyl-3,3'-disulfonate 1,4-dioxane solvate"
_symmetry_cell_setting           triclinic
_symmetry_space_group_name_H-M   'P -1'
_symmetry_Int_Tables_number      2
_space_group_name_Hall           '-P 1'
loop_
_symmetry_equiv_pos_site_id
_symmetry_equiv_pos_as_xyz
1 x,y,z
2 -x,-y,-z
_cell_length_a                   9.0753(8)
_cell_length_b                   13.0083(9)
_cell_length_c                   13.1464(12)
_cell_angle_alpha                63.421(8)
_cell_angle_beta                 75.925(8)
_cell_angle_gamma                72.752(7)
_cell_volume                     1314.41
_exptl_crystal_colour            colorless
_exptl_crystal_description       prism
_cell_formula_units_Z            1
loop_
_atom_site_label
_atom_site_type_symbol
_atom_site_fract_x
_atom_site_fract_y
_atom_site_fract_z
S1 S 0.61267(8) -0.13502(5) 0.35391(6)
O1 O 0.5517(3) -0.10820(17) 0.45417(18)
O2 O 0.5711(3) -0.02951(15) 0.25101(17)
O3 O 0.7745(2) -0.19247(17) 0.3509(2)
O4 O 0.3251(3) -0.08907(18) 0.2355(2)
H1 H 0.397(4) -0.055(4) 0.225(4)
C1 C 0.5069(3) -0.2353(2) 0.3654(2)
C2 C 0.5542(3) -0.3526(2) 0.4388(2)
H2 H 0.6424 -0.3747 0.4742
C3 C 0.4737(3) -0.43770(19) 0.4609(2)
C4 C 0.3410(3) -0.3991(2) 0.4069(3)
H3 H 0.2829 -0.4532 0.4209
C5 C 0.2934(4) -0.2844(2) 0.3341(3)
H4 H 0.2043 -0.2621 0.2996
C6 C 0.3769(3) -0.2006(2) 0.3111(2)
S1A S 0.38733(8) -0.86498(5) 0.64609(6)
O1A O 0.4483(3) -0.89180(17) 0.54583(18)
O2A O 0.4289(3) -0.97049(15) 0.74899(17)
O3A O 0.2255(2) -0.80753(17) 0.6491(2)
O4A O 0.6749(3) -0.91093(18) 0.7645(2)
H1A H 0.603(4) -0.945(4) 0.775(4)
C1A C 0.4931(3) -0.7647(2) 0.6346(2)
C2A C 0.4458(3) -0.6474(2) 0.5612(2)
H2A H 0.3576 -0.6253 0.5258
C3A C 0.5263(3) -0.56230(19) 0.5391(2)
C4A C 0.6590(3) -0.6009(2) 0.5931(3)
H3A H 0.7171 -0.5468 0.5791
C5A C 0.7066(4) -0.7156(2) 0.6659(3)
H4A H 0.7957 -0.7379 0.7004
C6A C 0.6231(3) -0.7994(2) 0.6889(2)
O5 O 0.1072(2) 0.07154(19) 0.4344(2)
C7 C -0.0330(5) 0.1131(3) 0.4904(4)
H5 H -0.0671 0.1972 0.4483
H6 H -0.0186 0.0989 0.5667
C8 C 0.1527(5) -0.0517(4) 0.5015(5)
H7 H 0.1652 -0.0646 0.5778
H8 H 0.2518 -0.0836 0.4665
O5A O -0.1072(2) -0.07154(19) 0.5656(2)
C7A C 0.0330(5) -0.1131(3) 0.5096(4)
H5A H 0.0671 -0.1972 0.5517
H6A H 0.0186 -0.0989 0.4333
C8A C -0.1527(5) 0.0517(4) 0.4985(5)
H7A H -0.1652 0.0646 0.4222
H8A H -0.2518 0.0836 0.5335
O6 O 0.9429(4) 0.0889(4) 0.0363(4)
C9 C 0.8867(10) 0.0900(6) -0.0402(7)
H9 H 0.8373 0.1699 -0.0863
H10 H 0.8085 0.0426 -0.0072
C10 C 0.9870(9) -0.0417(7) 0.1127(4)
H11 H 1.0232 -0.0534 0.1814
H12 H 0.8990 -0.0785 0.1345
O6A O 1.0571(4) -0.0889(4) -0.0363(4)
C9A C 1.1133(10) -0.0900(6) 0.0402(7)
H9A H 1.1627 -0.1699 0.0863
H10A H 1.1915 -0.0426 0.0072
C10A C 1.0130(9) 0.0417(7) -0.1127(4)
H11A H 0.9768 0.0534 -0.1814
H12A H 1.1010 0.0785 -0.1345
N1 N 0.3871(2) 0.15754(17) 0.33185(18)
H13 H 0.2940(13) 0.144(2) 0.350(2)
H14 H 0.448(2) 0.1025(18) 0.313(2)
H15 H 0.413(2) 0.149(2) 0.3947(14)
C11 C 0.3913(3) 0.27673(19) 0.2315(2)
C12 C 0.3763(3) 0.2631(2) 0.1247(2)
C13 C 0.4682(4) 0.3066(3) 0.0217(3)
H16 H 0.5429 0.3458 0.0152
C14 C 0.4498(5) 0.2921(4) -0.0730(3)
H17 H 0.5130 0.3212 -0.1421
C15 C 0.3399(5) 0.2355(3) -0.0656(3)
H18 H 0.3292 0.2252 -0.1288
C16 C 0.2465(4) 0.1946(3) 0.0351(3)
H19 H 0.1708 0.1568 0.0405
C17 C 0.2633(3) 0.2087(2) 0.1295(2)
H20 H 0.1974 0.1811 0.1975
C18 C 0.5481(3) 0.3024(2) 0.2261(2)
C19 C 0.5588(3) 0.3934(3) 0.2496(3)
H21 H 0.4687 0.4415 0.2691
C20 C 0.7030(4) 0.4133(3) 0.2441(4)
H22 H 0.7088 0.4733 0.2623
C21 C 0.8367(4) 0.3458(3) 0.2124(3)
H23 H 0.9329 0.3618 0.2056
C22 C 0.8274(4) 0.2538(3) 0.1907(4)
H24 H 0.9179 0.2064 0.1705
C23 C 0.6854(3) 0.2315(3) 0.1986(3)
H25 H 0.6810 0.1680 0.1853
C24 C 0.2534(3) 0.3689(2) 0.2545(2)
C25 C 0.1748(3) 0.3534(2) 0.3620(2)
H26 H 0.2027 0.2833 0.4244
C26 C 0.0535(4) 0.4423(3) 0.3781(3)
H27 H -0.0002 0.4303 0.4510
C27 C 0.0127(4) 0.5466(3) 0.2877(4)
H28 H -0.0668 0.6062 0.2992
C28 C 0.0899(4) 0.5631(3) 0.1797(4)
H29 H 0.0621 0.6341 0.1180
C29 C 0.2083(3) 0.4753(2) 0.1620(3)
H30 H 0.2585 0.4868 0.0883
loop_
_geom_bond_atom_site_label_1
_geom_bond_atom_site_label_2
_geom_bond_site_symmetry_1
_geom_bond_site_symmetry_2
S1 O1 1_555 1_555
O2 S1 1_555 1_555
O3 S1 1_555 1_555
O4 H1 1_555 1_555
C1 S1 1_555 1_555
C2 C1 1_555 1_555
H2 C2 1_555 1_555
C3 C2 1_555 1_555
C4 C3 1_555 1_555
H3 C4 1_555 1_555
C5 C4 1_555 1_555
H4 C5 1_555 1_555
C6 O4 1_555 1_555
O5 C7 1_555 1_555
C7 H5 1_555 1_555
H6 C7 1_555 1_555
C8 O5 1_555 1_555
H7 C8 1_555 1_555
H8 C8 1_555 1_555
O6 C9 1_555 1_555
C9 H9 1_555 1_555
H10 C9 1_555 1_555
C10 O6 1_555 1_555
H11 C10 1_555 1_555
H12 C10 1_555 1_555
N1 H13 1_555 1_555
H14 N1 1_555 1_555
H15 N1 1_555 1_555
C11 N1 1_555 1_555
C12 C11 1_555 1_555
C13 C12 1_555 1_555
H16 C13 1_555 1_555
C14 C13 1_555 1_555
H17 C14 1_555 1_555
C15 C14 1_555 1_555
H18 C15 1_555 1_555
C16 C15 1_555 1_555
H19 C16 1_555 1_555
C17 C12 1_555 1_555
H20 C17 1_555 1_555
C18 C11 1_555 1_555
C19 C18 1_555 1_555
H21 C19 1_555 1_555
C20 C19 1_555 1_555
H22 C20 1_555 1_555
C21 C20 1_555 1_555
H23 C21 1_555 1_555
C22 C21 1_555 1_555
H24 C22 1_555 1_555
C23 C18 1_555 1_555
H25 C23 1_555 1_555
C24 C11 1_555 1_555
C25 C24 1_555 1_555
H26 C25 1_555 1_555
C26 C25 1_555 1_555
H27 C26 1_555 1_555
C27 C26 1_555 1_555
H28 C27 1_555 1_555
C28 C27 1_555 1_555
H29 C28 1_555 1_555
C29 C24 1_555 1_555
H30 C29 1_555 1_555
S1A O1A 1_555 1_555
O2A S1A 1_555 1_555
O3A S1A 1_555 1_555
O4A H1A 1_555 1_555
C1A S1A 1_555 1_555
C2A C1A 1_555 1_555
H2A C2A 1_555 1_555
C3A C3 1_555 1_555
C4A C3A 1_555 1_555
H3A C4A 1_555 1_555
C5A C4A 1_555 1_555
H4A C5A 1_555 1_555
C6A O4A 1_555 1_555
O5A C7A 1_555 1_555
C7A C8 1_555 1_555
H5A C7A 1_555 1_555
H6A C7A 1_555 1_555
C8A C7 1_555 1_555
H7A C8A 1_555 1_555
H8A C8A 1_555 1_555
O6A C9A 1_555 1_555
C9A C10 1_555 1_555
H9A C9A 1_555 1_555
H10A C9A 1_555 1_555
C10A C9 1_555 1_555
H11A C10A 1_555 1_555
H12A C10A 1_555 1_555
C1 C6 1_555 1_555
C5 C6 1_555 1_555
C16 C17 1_555 1_555
C22 C23 1_555 1_555
C28 C29 1_555 1_555
C1A C6A 1_555 1_555
C2A C3A 1_555 1_555
C5A C6A 1_555 1_555
O5A C8A 1_555 1_555
O6A C10A 1_555 1_555

#END
