
#######################################################################
#
#                 Cambridge Crystallographic Data Centre
#                                CCDC 
#
#######################################################################
#
# If this CIF has been generated from an entry in the Cambridge 
# Structural Database, then it will include bibliographic, chemical, 
# crystal, experimental, refinement or atomic coordinate data resulting 
# from the CCDC's data processing and validation procedures.
#
#######################################################################

data_KOVQAP
_chemical_name_common            
3,6-dipropargyloxymethyl-1,4-dioxane-2,5-dione
_chemical_formula_moiety         'C12 H12 O6'
_chemical_name_systematic        
3,6-bis((prop-2-yn-1-yloxy)methyl)-1,4-dioxane-2,5-dione
_symmetry_cell_setting           monoclinic
_symmetry_space_group_name_H-M   'P 21/c'
_symmetry_Int_Tables_number      14
_space_group_name_Hall           '-P 2ybc'
loop_
_symmetry_equiv_pos_site_id
_symmetry_equiv_pos_as_xyz
1 x,y,z
2 -x,1/2+y,1/2-z
3 -x,-y,-z
4 x,1/2-y,1/2+z
_cell_length_a                   7.6482(12)
_cell_length_b                   7.4766(11)
_cell_length_c                   10.4304(16)
_cell_angle_alpha                90
_cell_angle_beta                 102.535(6)
_cell_angle_gamma                90
_cell_volume                     582.22
_exptl_crystal_colour            colorless
_exptl_crystal_description       chunk
_cell_formula_units_Z            2
_chemical_properties_physical    'Moisture-sensitive, Heat-sensitive'
_exptl_crystal_recrystallization_method dichloromethane
loop_
_atom_site_label
_atom_site_type_symbol
_atom_site_fract_x
_atom_site_fract_y
_atom_site_fract_z
O1 O 0.87495(17) 0.12537(19) 0.43223(12)
O2 O 1.1474(2) 0.0217(2) 0.75116(13)
O3 O 0.71730(17) -0.05491(17) 0.61568(12)
C1 C 0.9375(2) 0.1422(2) 0.57268(16)
H1 H 0.9881 0.2651 0.5916
C2 C 1.0792(2) 0.0089(2) 0.63628(18)
C3 C 0.7774(2) 0.1246(2) 0.63553(16)
H2 H 0.8122 0.1518 0.7306
H3 H 0.6814 0.2083 0.5941
C4 C 0.5762(2) -0.0929(3) 0.68092(18)
H4 H 0.5269 -0.2130 0.6542
H5 H 0.4788 -0.0046 0.6533
C5 C 0.6363(2) -0.0875(3) 0.82424(18)
C6 C 0.6880(3) -0.0813(3) 0.94064(19)
H6 H 0.7291 -0.0763 1.0333
O1B O 1.12505(17) -0.12537(19) 0.56777(12)
O2B O 0.8526(2) -0.0217(2) 0.24884(13)
O3B O 1.28270(17) 0.05491(17) 0.38432(12)
C1B C 1.0625(2) -0.1422(2) 0.42732(16)
H1B H 1.0119 -0.2651 0.4084
C2B C 0.9208(2) -0.0089(2) 0.36372(18)
C3B C 1.2226(2) -0.1246(2) 0.36447(16)
H2B H 1.1878 -0.1518 0.2694
H3B H 1.3186 -0.2083 0.4059
C4B C 1.4238(2) 0.0929(3) 0.31908(18)
H4B H 1.4731 0.2130 0.3458
H5B H 1.5212 0.0046 0.3467
C5B C 1.3637(2) 0.0875(3) 0.17576(18)
C6B C 1.3120(3) 0.0813(3) 0.05936(19)
H6B H 1.2709 0.0763 -0.0333
loop_
_geom_bond_atom_site_label_1
_geom_bond_atom_site_label_2
_geom_bond_site_symmetry_1
_geom_bond_site_symmetry_2
O1 C1 1_555 1_555
O2 C2 1_555 1_555
O3 C3 1_555 1_555
C1 H1 1_555 1_555
C2 C1 1_555 1_555
C3 C1 1_555 1_555
H2 C3 1_555 1_555
H3 C3 1_555 1_555
C4 O3 1_555 1_555
H4 C4 1_555 1_555
H5 C4 1_555 1_555
C5 C4 1_555 1_555
C6 C5 1_555 1_555
H6 C6 1_555 1_555
O1B C2 1_555 1_555
O2B C2B 1_555 1_555
O3B C3B 1_555 1_555
C1B O1B 1_555 1_555
H1B C1B 1_555 1_555
C2B O1 1_555 1_555
C3B C1B 1_555 1_555
H2B C3B 1_555 1_555
H3B C3B 1_555 1_555
C4B O3B 1_555 1_555
H4B C4B 1_555 1_555
H5B C4B 1_555 1_555
C5B C4B 1_555 1_555
C6B C5B 1_555 1_555
H6B C6B 1_555 1_555
C1B C2B 1_555 1_555

#END
