
#######################################################################
#
#                 Cambridge Crystallographic Data Centre
#                                CCDC 
#
#######################################################################
#
# If this CIF has been generated from an entry in the Cambridge 
# Structural Database, then it will include bibliographic, chemical, 
# crystal, experimental, refinement or atomic coordinate data resulting 
# from the CCDC's data processing and validation procedures.
#
#######################################################################

data_KOVSEV
_chemical_formula_moiety         'C10 H18 O4,2(C5 H5 N3 O1)'
_chemical_name_systematic        'bis(pyrazine-2-carboxamide) decanedioic acid'
_symmetry_cell_setting           triclinic
_symmetry_space_group_name_H-M   'P -1'
_symmetry_Int_Tables_number      2
_space_group_name_Hall           '-P 1'
loop_
_symmetry_equiv_pos_site_id
_symmetry_equiv_pos_as_xyz
1 x,y,z
2 -x,-y,-z
_cell_length_a                   5.0909(4)
_cell_length_b                   5.4368(5)
_cell_length_c                   20.3002(17)
_cell_angle_alpha                88.781(5)
_cell_angle_beta                 83.380(5)
_cell_angle_gamma                86.981(6)
_cell_volume                     557.287
_exptl_crystal_colour            colorless
_exptl_crystal_description       needle
_cell_formula_units_Z            1
loop_
_atom_site_label
_atom_site_type_symbol
_atom_site_fract_x
_atom_site_fract_y
_atom_site_fract_z
O1 O 1.2714(3) 0.3122(2) 0.68785(6)
O2 O 1.0871(3) 0.6558(2) 0.73269(6)
C1 C 1.1087(3) 0.5097(3) 0.68882(8)
C2 C 0.9531(4) 0.5204(3) 0.63079(8)
H1 H 0.8193 0.3990 0.6379
H2 H 1.0711 0.4724 0.5917
C3 C 0.8178(4) 0.7658(3) 0.61646(8)
H3 H 0.9471 0.8917 0.6126
H4 H 0.6850 0.8079 0.6532
C4 C 0.6869(4) 0.7632(3) 0.55315(9)
H5 H 0.8185 0.7060 0.5176
H6 H 0.5506 0.6439 0.5588
C5 C 0.5637(4) 1.0048(3) 0.53172(8)
H7 H 0.6992 1.1248 0.5260
H8 H 0.4306 1.0620 0.5669
H9 H 1.358(4) 0.303(4) 0.7230(10)
O1A O -0.2714(3) 1.6878(2) 0.31215(6)
O2A O -0.0871(3) 1.3442(2) 0.26731(6)
C1A C -0.1087(3) 1.4903(3) 0.31118(8)
C2A C 0.0469(4) 1.4796(3) 0.36921(8)
H1A H 0.1807 1.6010 0.3621
H2A H -0.0711 1.5276 0.4083
C3A C 0.1822(4) 1.2342(3) 0.38354(8)
H3A H 0.0529 1.1083 0.3874
H4A H 0.3150 1.1921 0.3468
C4A C 0.3131(4) 1.2368(3) 0.44685(9)
H5A H 0.1815 1.2940 0.4824
H6A H 0.4494 1.3561 0.4412
C5A C 0.4363(4) 0.9952(3) 0.46828(8)
H7A H 0.3008 0.8752 0.4740
H8A H 0.5694 0.9380 0.4331
H9A H -0.358(4) 1.697(4) 0.2770(10)
O3 O 0.6283(2) 0.1695(2) 0.06529(6)
N1 N 0.1333(2) 0.6435(2) 0.10287(7)
N2 N 0.2392(3) 0.2421(3) 0.02349(7)
H10 H 0.089(3) 0.320(3) 0.0268(10)
H11 H 0.271(4) 0.123(3) -0.0034(9)
N3 N 0.4359(3) 0.7043(3) 0.20688(7)
C6 C 0.2307(3) 0.8573(3) 0.19718(8)
H12 H 0.1870 0.9884 0.2257
C7 C 0.0814(3) 0.8258(3) 0.14585(9)
H13 H -0.0612 0.9363 0.1410
C8 C 0.3419(3) 0.4924(3) 0.11203(7)
C9 C 0.4140(3) 0.2866(3) 0.06443(7)
C10 C 0.4905(3) 0.5219(3) 0.16381(8)
H14 H 0.6328 0.4113 0.1688
loop_
_geom_bond_atom_site_label_1
_geom_bond_atom_site_label_2
_geom_bond_site_symmetry_1
_geom_bond_site_symmetry_2
O1 C1 1_555 1_555
O2 C1 1_555 1_555
C1 C2 1_555 1_555
C2 H1 1_555 1_555
H2 C2 1_555 1_555
C3 C2 1_555 1_555
H3 C3 1_555 1_555
H4 C3 1_555 1_555
C4 C3 1_555 1_555
H5 C4 1_555 1_555
H6 C4 1_555 1_555
C5 C4 1_555 1_555
H7 C5 1_555 1_555
H8 C5 1_555 1_555
H9 O1 1_555 1_555
O3 C9 1_555 1_555
N1 C7 1_555 1_555
N2 H10 1_555 1_555
H11 N2 1_555 1_555
N3 C6 1_555 1_555
C6 H12 1_555 1_555
C7 C6 1_555 1_555
H13 C7 1_555 1_555
C8 N1 1_555 1_555
C9 N2 1_555 1_555
C10 N3 1_555 1_555
H14 C10 1_555 1_555
O1A C1A 1_555 1_555
O2A C1A 1_555 1_555
C1A C2A 1_555 1_555
C2A H1A 1_555 1_555
H2A C2A 1_555 1_555
C3A C2A 1_555 1_555
H3A C3A 1_555 1_555
H4A C3A 1_555 1_555
C4A C3A 1_555 1_555
H5A C4A 1_555 1_555
H6A C4A 1_555 1_555
C5A C5 1_555 1_555
H7A C5A 1_555 1_555
H8A C5A 1_555 1_555
H9A O1A 1_555 1_555
C8 C9 1_555 1_555
C8 C10 1_555 1_555
C4A C5A 1_555 1_555

#END
