
#######################################################################
#
#                 Cambridge Crystallographic Data Centre
#                                CCDC 
#
#######################################################################
#
# If this CIF has been generated from an entry in the Cambridge 
# Structural Database, then it will include bibliographic, chemical, 
# crystal, experimental, refinement or atomic coordinate data resulting 
# from the CCDC's data processing and validation procedures.
#
#######################################################################

data_KOVSOF
_chemical_formula_moiety         'C6 H8 O7,C5 H5 N3 O1'
_chemical_name_systematic        
'pyrazine-2-carboxamide 2-hydroxypropane-1,2,3-tricarboxylate'
_symmetry_cell_setting           triclinic
_symmetry_space_group_name_H-M   'P -1'
_symmetry_Int_Tables_number      2
_space_group_name_Hall           '-P 1'
loop_
_symmetry_equiv_pos_site_id
_symmetry_equiv_pos_as_xyz
1 x,y,z
2 -x,-y,-z
_cell_length_a                   5.4495(2)
_cell_length_b                   11.7840(3)
_cell_length_c                   12.0250(4)
_cell_angle_alpha                117.195(2)
_cell_angle_beta                 93.573(2)
_cell_angle_gamma                96.119(2)
_cell_volume                     677.528
_exptl_crystal_colour            colorless
_exptl_crystal_description       needle
_cell_formula_units_Z            2
loop_
_atom_site_label
_atom_site_type_symbol
_atom_site_fract_x
_atom_site_fract_y
_atom_site_fract_z
O1 O -0.0718(2) 1.12725(12) 0.41416(13)
N1 N 0.2307(3) 0.85191(15) 0.31208(14)
N2 N 0.3306(3) 1.11034(16) 0.45036(16)
H1 H 0.3693 1.1916 0.5009
H2 H 0.4427 1.0608 0.4349
N3 N -0.2230(3) 0.73471(14) 0.16032(14)
C1 C -0.0445(4) 0.66710(18) 0.16260(17)
H3 H -0.0718 0.5781 0.1121
C2 C 0.1801(4) 0.72506(19) 0.23760(18)
H4 H 0.2999 0.6740 0.2361
C3 C 0.0498(3) 0.91984(16) 0.31144(15)
C4 C 0.1001(3) 1.06193(17) 0.39661(16)
C5 C -0.1743(3) 0.86176(18) 0.23604(16)
H5 H -0.2951 0.9126 0.2380
O2 O 0.2689(3) 0.00102(13) 0.10532(14)
H6 H 0.132(5) -0.050(2) 0.051(2)
O3 O 1.0181(2) 0.61834(12) 0.43896(12)
H7 H 1.020(4) 0.708(2) 0.486(2)
O4 O 0.6293(2) 0.62298(12) 0.37349(13)
O5 O 0.3411(2) 0.38493(13) 0.33734(12)
H8 H 0.320(4) 0.460(2) 0.353(2)
O6 O 0.2518(2) 0.43546(11) 0.14031(11)
O7 O 0.5570(2) 0.33083(14) 0.04453(12)
H9 H 0.471(4) 0.325(2) -0.025(2)
C6 C 0.2817(3) 0.11796(17) 0.11678(17)
C7 C 0.5126(3) 0.20538(16) 0.19755(18)
H10 H 0.6520 0.1821 0.1494
H11 H 0.5425 0.1897 0.2694
C8 C 0.5083(3) 0.34951(16) 0.24631(15)
C9 C 0.7730(3) 0.41948(16) 0.30507(16)
H12 H 0.8341 0.3887 0.3623
H13 H 0.8794 0.3968 0.2387
C10 C 0.7947(3) 0.56262(17) 0.37506(16)
O8 O 0.1254(3) 0.14913(12) 0.06447(15)
C11 C 0.4210(3) 0.37765(16) 0.13913(15)
loop_
_geom_bond_atom_site_label_1
_geom_bond_atom_site_label_2
_geom_bond_site_symmetry_1
_geom_bond_site_symmetry_2
O1 C4 1_555 1_555
N1 C2 1_555 1_555
N2 H1 1_555 1_555
H2 N2 1_555 1_555
N3 C1 1_555 1_555
C1 H3 1_555 1_555
C2 C1 1_555 1_555
H4 C2 1_555 1_555
C3 N1 1_555 1_555
C4 N2 1_555 1_555
C5 N3 1_555 1_555
H5 C5 1_555 1_555
O2 H6 1_555 1_555
O3 H7 1_555 1_555
O4 C10 1_555 1_555
O5 H8 1_555 1_555
O6 C11 1_555 1_555
O7 H9 1_555 1_555
C6 O2 1_555 1_555
C7 C6 1_555 1_555
H10 C7 1_555 1_555
H11 C7 1_555 1_555
C8 O5 1_555 1_555
C9 C8 1_555 1_555
H12 C9 1_555 1_555
H13 C9 1_555 1_555
C10 O3 1_555 1_555
O8 C6 1_555 1_555
C11 O7 1_555 1_555
C3 C4 1_555 1_555
C3 C5 1_555 1_555
C7 C8 1_555 1_555
C8 C11 1_555 1_555
C9 C10 1_555 1_555

#END
