
#######################################################################
#
#                 Cambridge Crystallographic Data Centre
#                                CCDC 
#
#######################################################################
#
# If this CIF has been generated from an entry in the Cambridge 
# Structural Database, then it will include bibliographic, chemical, 
# crystal, experimental, refinement or atomic coordinate data resulting 
# from the CCDC's data processing and validation procedures.
#
#######################################################################

data_KOVSUL
_chemical_formula_moiety         'C17 H14 Cl1 N1 O3 S1'
_chemical_name_systematic        
'9-(2-chlorophenyl)-8,9-dihydro-7H-pyrido[1,2-b][1,2]benzothiazol-7-ol 5,5-dioxide'
_symmetry_cell_setting           monoclinic
_symmetry_space_group_name_H-M   'P 21'
_symmetry_Int_Tables_number      4
_space_group_name_Hall           'P 2yb'
loop_
_symmetry_equiv_pos_site_id
_symmetry_equiv_pos_as_xyz
1 x,y,z
2 -x,1/2+y,-z
_cell_length_a                   7.7401(4)
_cell_length_b                   14.0157(10)
_cell_length_c                   14.8926(10)
_cell_angle_alpha                90
_cell_angle_beta                 91.699(5)
_cell_angle_gamma                90
_cell_volume                     1614.88
_exptl_crystal_colour            yellow
_exptl_crystal_description       block
_cell_formula_units_Z            4
loop_
_atom_site_label
_atom_site_type_symbol
_atom_site_fract_x
_atom_site_fract_y
_atom_site_fract_z
Cl1 Cl 0.7914(3) 0.4965(2) 0.7031(2)
S1 S 0.04442(16) 0.16724(11) 0.62774(11)
O1 O -0.0391(5) 0.2153(4) 0.5545(3)
O2 O -0.0652(5) 0.1370(4) 0.6981(3)
O3 O 0.2265(6) 0.3768(4) 0.5869(3)
H1 H 0.1733 0.3474 0.5473
N1 N 0.2058(5) 0.2329(4) 0.6681(3)
C1 C 0.1281(9) -0.0091(6) 0.5549(5)
H2 H 0.0119 -0.0212 0.5419
C2 C 0.2519(11) -0.0744(6) 0.5328(5)
H3 H 0.2208 -0.1315 0.5049
C3 C 0.4274(10) -0.0537(5) 0.5531(4)
H4 H 0.5115 -0.0971 0.5366
C4 C 0.4774(7) 0.0290(4) 0.5967(4)
H5 H 0.5932 0.0404 0.6114
C5 C 0.3510(6) 0.0947(4) 0.6181(3)
C6 C 0.1779(7) 0.0740(5) 0.5961(4)
C7 C 0.3718(6) 0.1895(4) 0.6587(4)
C8 C 0.5153(6) 0.2379(4) 0.6801(4)
H6 H 0.6215 0.2078 0.6748
C9 C 0.5118(7) 0.3386(5) 0.7123(4)
H7 H 0.5477 0.3796 0.6629
C10 C 0.3294(7) 0.3693(5) 0.7377(5)
H8 H 0.3047 0.3442 0.7966
H9 H 0.3248 0.4384 0.7411
C11 C 0.1941(8) 0.3352(4) 0.6713(4)
H10 H 0.0793 0.3541 0.6909
C12 C 0.6400(7) 0.3528(5) 0.7904(5)
C13 C 0.7601(10) 0.4237(6) 0.7944(6)
C14 C 0.8735(10) 0.4383(7) 0.8714(8)
H11 H 0.9549 0.4872 0.8734
C15 C 0.8558(11) 0.3785(8) 0.9393(7)
H12 H 0.9294 0.3866 0.9892
C16 C 0.7360(12) 0.3045(8) 0.9422(6)
H13 H 0.7311 0.2658 0.9928
C17 C 0.6259(11) 0.2892(7) 0.8704(5)
H14 H 0.5443 0.2405 0.8712
Cl2 Cl 0.6215(4) 0.06471(19) 1.08732(14)
S2 S 0.76583(16) -0.20225(12) 0.68493(10)
O4 O 0.8857(5) -0.2618(4) 0.7363(4)
O5 O 0.8291(6) -0.1589(5) 0.6075(3)
O6 O 0.8790(9) -0.1163(6) 0.8713(5)
H15 H 0.9376 -0.1563 0.8460
N2 N 0.6831(5) -0.1212(3) 0.7510(3)
C18 C 0.5682(6) -0.2590(4) 0.6654(4)
C19 C 0.5347(7) -0.3325(5) 0.6056(4)
H16 H 0.6192 -0.3561 0.5684
C20 C 0.3685(8) -0.3693(5) 0.6042(5)
H17 H 0.3398 -0.4186 0.5647
C21 C 0.2456(7) -0.3344(6) 0.6598(5)
H18 H 0.1349 -0.3602 0.6573
C22 C 0.2836(7) -0.2621(5) 0.7188(4)
H19 H 0.1987 -0.2393 0.7562
C23 C 0.4465(6) -0.2229(4) 0.7234(3)
C24 C 0.5149(6) -0.1447(4) 0.7791(3)
C25 C 0.4436(7) -0.1025(4) 0.8480(4)
H20 H 0.3317 -0.1195 0.8624
C26 C 0.5347(7) -0.0290(5) 0.9036(4)
H21 H 0.5829 -0.0613 0.9571
C27 C 0.6868(8) 0.0120(5) 0.8531(5)
H22 H 0.6432 0.0546 0.8063
H23 H 0.7593 0.0490 0.8943
C28 C 0.7942(8) -0.0653(5) 0.8112(5)
H24 H 0.8800 -0.0337 0.7743
C29 C 0.4199(8) 0.0498(4) 0.9359(4)
C30 C 0.4479(9) 0.0956(5) 1.0186(4)
C31 C 0.3389(14) 0.1653(7) 1.0453(6)
H25 H 0.3600 0.1952 1.1003
C32 C 0.1996(14) 0.1926(7) 0.9937(8)
H26 H 0.1261 0.2400 1.0139
C33 C 0.1670(10) 0.1496(6) 0.9107(6)
H27 H 0.0734 0.1684 0.8743
C34 C 0.2772(8) 0.0784(5) 0.8839(4)
H28 H 0.2552 0.0484 0.8290
loop_
_geom_bond_atom_site_label_1
_geom_bond_atom_site_label_2
_geom_bond_site_symmetry_1
_geom_bond_site_symmetry_2
Cl1 C13 1_555 1_555
S1 O1 1_555 1_555
O2 S1 1_555 1_555
O3 H1 1_555 1_555
N1 S1 1_555 1_555
C1 H2 1_555 1_555
C2 C1 1_555 1_555
H3 C2 1_555 1_555
C3 C2 1_555 1_555
H4 C3 1_555 1_555
C4 C3 1_555 1_555
H5 C4 1_555 1_555
C5 C4 1_555 1_555
C6 S1 1_555 1_555
C7 N1 1_555 1_555
C8 C7 1_555 1_555
H6 C8 1_555 1_555
C9 C8 1_555 1_555
H7 C9 1_555 1_555
C10 C9 1_555 1_555
H8 C10 1_555 1_555
H9 C10 1_555 1_555
C11 O3 1_555 1_555
H10 C11 1_555 1_555
C12 C9 1_555 1_555
C13 C12 1_555 1_555
C14 C13 1_555 1_555
H11 C14 1_555 1_555
C15 C14 1_555 1_555
H12 C15 1_555 1_555
C16 C15 1_555 1_555
H13 C16 1_555 1_555
C17 C12 1_555 1_555
H14 C17 1_555 1_555
Cl2 C30 1_555 1_555
S2 O4 1_555 1_555
O5 S2 1_555 1_555
O6 H15 1_555 1_555
N2 S2 1_555 1_555
C18 S2 1_555 1_555
C19 C18 1_555 1_555
H16 C19 1_555 1_555
C20 C19 1_555 1_555
H17 C20 1_555 1_555
C21 C20 1_555 1_555
H18 C21 1_555 1_555
C22 C21 1_555 1_555
H19 C22 1_555 1_555
C23 C18 1_555 1_555
C24 N2 1_555 1_555
C25 C24 1_555 1_555
H20 C25 1_555 1_555
C26 C25 1_555 1_555
H21 C26 1_555 1_555
C27 C26 1_555 1_555
H22 C27 1_555 1_555
H23 C27 1_555 1_555
C28 O6 1_555 1_555
H24 C28 1_555 1_555
C29 C26 1_555 1_555
C30 C29 1_555 1_555
C31 C30 1_555 1_555
H25 C31 1_555 1_555
C32 C31 1_555 1_555
H26 C32 1_555 1_555
C33 C32 1_555 1_555
H27 C33 1_555 1_555
C34 C29 1_555 1_555
H28 C34 1_555 1_555
N1 C11 1_555 1_555
C1 C6 1_555 1_555
C5 C6 1_555 1_555
C5 C7 1_555 1_555
C10 C11 1_555 1_555
C16 C17 1_555 1_555
N2 C28 1_555 1_555
C22 C23 1_555 1_555
C23 C24 1_555 1_555
C27 C28 1_555 1_555
C33 C34 1_555 1_555

#END
