
#######################################################################
#
#                 Cambridge Crystallographic Data Centre
#                                CCDC 
#
#######################################################################
#
# If this CIF has been generated from an entry in the Cambridge 
# Structural Database, then it will include bibliographic, chemical, 
# crystal, experimental, refinement or atomic coordinate data resulting 
# from the CCDC's data processing and validation procedures.
#
#######################################################################

data_KOVSAR
_chemical_formula_moiety         'C6 H10 O4,4(C5 H5 N3 O1)'
_chemical_name_systematic        
'tetrakis(pyrazine-2-carboxamide) hexanedioic acid'
_symmetry_cell_setting           triclinic
_symmetry_space_group_name_H-M   'P -1'
_symmetry_Int_Tables_number      2
_space_group_name_Hall           '-P 1'
loop_
_symmetry_equiv_pos_site_id
_symmetry_equiv_pos_as_xyz
1 x,y,z
2 -x,-y,-z
_cell_length_a                   5.2426(8)
_cell_length_b                   11.965(2)
_cell_length_c                   12.256(2)
_cell_angle_alpha                75.126(11)
_cell_angle_beta                 87.661(10)
_cell_angle_gamma                83.717(11)
_cell_volume                     738.503
_exptl_crystal_colour            colorless
_exptl_crystal_description       needle
_cell_formula_units_Z            1
loop_
_atom_site_label
_atom_site_type_symbol
_atom_site_fract_x
_atom_site_fract_y
_atom_site_fract_z
O1 O 0.6086(3) 0.46151(12) 0.66522(11)
H1 H 0.733(4) 0.4238(19) 0.6213(18)
O2 O 0.8968(3) 0.39007(14) 0.79811(11)
C1 C 0.6932(4) 0.44280(16) 0.76896(15)
C2 C 0.5108(3) 0.49492(17) 0.84314(14)
H2 H 0.3491 0.4617 0.8461
H3 H 0.4784 0.5777 0.8091
C3 C 0.6015(3) 0.47729(17) 0.96262(14)
H4 H 0.7541 0.5169 0.9608
H5 H 0.6477 0.3950 0.9951
O1A O 0.3914(3) 0.53849(12) 1.33478(11)
H1A H 0.267(4) 0.5762(19) 1.3787(18)
O2A O 0.1032(3) 0.60993(14) 1.20189(11)
C1A C 0.3068(4) 0.55720(16) 1.23104(15)
C2A C 0.4892(3) 0.50508(17) 1.15686(14)
H2A H 0.6509 0.5383 1.1539
H3A H 0.5216 0.4223 1.1909
C3A C 0.3985(3) 0.52271(17) 1.03738(14)
H4A H 0.2459 0.4831 1.0392
H5A H 0.3523 0.6050 1.0049
N1 N -0.0117(3) 1.03953(15) 0.82285(14)
H6 H 0.002(4) 1.0370(18) 0.8934(18)
O3 O 0.1448(2) 0.96181(11) 0.68166(10)
N2 N 0.3370(3) 0.89693(13) 0.96735(12)
C4 C 0.1524(3) 0.96902(16) 0.78011(15)
C5 C 0.3559(3) 0.89856(15) 0.85796(14)
C6 C 0.5255(4) 0.83470(16) 1.03208(15)
H7 H 0.5201 0.8312 1.1088
C7 C 0.7289(4) 0.77514(16) 0.98952(15)
H8 H 0.8570 0.7335 1.0384
N3 N 0.7488(3) 0.77504(14) 0.88118(13)
C8 C 0.5586(4) 0.83760(17) 0.81673(15)
H9 H 0.5632 0.8402 0.7402
H10 H -0.169(5) 1.0842(19) 0.7740(18)
N4 N 0.6905(3) 0.09054(14) 0.54365(14)
H11 H 0.673(4) 0.0904(16) 0.4711(17)
O4 O 0.5639(2) 0.15534(12) 0.69641(10)
C9 C 0.5343(3) 0.15295(15) 0.59803(14)
C10 C 0.3108(3) 0.22477(14) 0.53469(14)
N5 N 0.2793(3) 0.22436(13) 0.42717(12)
C11 C 0.0776(4) 0.29044(17) 0.37565(15)
H12 H 0.0480 0.2918 0.3010
C12 C -0.0898(4) 0.35719(17) 0.42874(16)
H13 H -0.2273 0.4030 0.3887
N6 N -0.0600(3) 0.35783(13) 0.53562(12)
C13 C 0.1414(4) 0.29123(16) 0.58834(15)
H14 H 0.1691 0.2893 0.6633
H15 H 0.839(4) 0.0450(16) 0.5839(16)
loop_
_geom_bond_atom_site_label_1
_geom_bond_atom_site_label_2
_geom_bond_site_symmetry_1
_geom_bond_site_symmetry_2
O1 H1 1_555 1_555
O2 C1 1_555 1_555
C1 O1 1_555 1_555
C2 C1 1_555 1_555
H2 C2 1_555 1_555
H3 C2 1_555 1_555
C3 C2 1_555 1_555
H4 C3 1_555 1_555
H5 C3 1_555 1_555
N1 H6 1_555 1_555
O3 C4 1_555 1_555
N2 C5 1_555 1_555
C4 N1 1_555 1_555
C5 C4 1_555 1_555
C6 N2 1_555 1_555
H7 C6 1_555 1_555
C7 C6 1_555 1_555
H8 C7 1_555 1_555
N3 C7 1_555 1_555
C8 C5 1_555 1_555
H9 C8 1_555 1_555
H10 N1 1_555 1_555
N4 H11 1_555 1_555
O4 C9 1_555 1_555
C9 N4 1_555 1_555
C10 C9 1_555 1_555
N5 C10 1_555 1_555
C11 N5 1_555 1_555
H12 C11 1_555 1_555
C12 C11 1_555 1_555
H13 C12 1_555 1_555
N6 C12 1_555 1_555
C13 C10 1_555 1_555
H14 C13 1_555 1_555
H15 N4 1_555 1_555
O1A H1A 1_555 1_555
O2A C1A 1_555 1_555
C1A O1A 1_555 1_555
C2A C1A 1_555 1_555
H2A C2A 1_555 1_555
H3A C2A 1_555 1_555
C3A C3 1_555 1_555
H4A C3A 1_555 1_555
H5A C3A 1_555 1_555
N3 C8 1_555 1_555
N6 C13 1_555 1_555
C2A C3A 1_555 1_555

#END
