
#######################################################################
#
#                 Cambridge Crystallographic Data Centre
#                                CCDC 
#
#######################################################################
#
# If this CIF has been generated from an entry in the Cambridge 
# Structural Database, then it will include bibliographic, chemical, 
# crystal, experimental, refinement or atomic coordinate data resulting 
# from the CCDC's data processing and validation procedures.
#
#######################################################################

data_KOVTUM
_chemical_formula_moiety         '2(C19 H18 N1 1+),C12 H8 O8 S2 2-,C1 H4 O1'
_chemical_name_systematic        
"bis(triphenylmethanaminium) 4,4'-dihydroxybiphenyl-3,3'-disulfonate methanol solvate"
_symmetry_cell_setting           triclinic
_symmetry_space_group_name_H-M   'P -1'
_symmetry_Int_Tables_number      2
_space_group_name_Hall           '-P 1'
loop_
_symmetry_equiv_pos_site_id
_symmetry_equiv_pos_as_xyz
1 x,y,z
2 -x,-y,-z
_cell_length_a                   12.9200(7)
_cell_length_b                   13.9363(6)
_cell_length_c                   13.9627(6)
_cell_angle_alpha                87.493(4)
_cell_angle_beta                 85.351(4)
_cell_angle_gamma                63.093(5)
_cell_volume                     2234.47
_exptl_crystal_colour            colorless
_exptl_crystal_description       prism
_cell_formula_units_Z            2
loop_
_atom_site_label
_atom_site_type_symbol
_atom_site_fract_x
_atom_site_fract_y
_atom_site_fract_z
S1 S 0.33933(6) -0.07636(6) 0.51221(5)
S2 S 0.26477(7) 0.06974(6) 1.02596(5)
O1 O 0.3533(2) 0.01601(19) 0.53237(17)
O2 O 0.3221(2) -0.0827(2) 0.41237(14)
O3 O 0.4326(2) -0.1739(2) 0.54491(18)
O4 O 0.1644(3) -0.1553(2) 0.45943(17)
H1 H 0.204(4) -0.127(4) 0.429(3)
O5 O 0.2622(2) 0.17317(17) 1.0136(2)
O6 O 0.3688(2) -0.01543(18) 0.98433(17)
O7 O 0.2405(3) 0.0501(2) 1.12622(16)
O8 O 0.0077(2) 0.17968(18) 1.09380(16)
H2 H 0.0765(17) 0.148(3) 1.113(3)
C1 C 0.2136(2) -0.0665(2) 0.57944(18)
C2 C 0.1450(3) -0.1084(2) 0.5465(2)
C3 C 0.0507(3) -0.1034(3) 0.6064(2)
H3 H 0.0018 -0.1292 0.5848
C4 C 0.0298(3) -0.0611(3) 0.6964(2)
H4 H -0.0322 -0.0605 0.7355
C5 C 0.0981(2) -0.0189(2) 0.73141(18)
C6 C 0.1888(2) -0.0209(2) 0.67027(17)
H5 H 0.2346 0.0090 0.6905
C7 C 0.0761(2) 0.0281(2) 0.82827(18)
C8 C 0.1674(2) 0.0237(2) 0.87852(18)
H6 H 0.2434 -0.0140 0.8524
C9 C 0.1476(2) 0.0740(2) 0.96607(18)
C10 C 0.0342(3) 0.1288(2) 1.00736(19)
C11 C -0.0563(3) 0.1312(2) 0.9602(2)
H7 H -0.1319 0.1663 0.9878
C12 C -0.0357(2) 0.0817(2) 0.8721(2)
H8 H -0.0982 0.0844 0.8414
O9 O 0.52143(18) -0.13546(17) 0.27339(14)
H9 H 0.4595(18) -0.129(3) 0.304(2)
C13 C 0.5143(4) -0.0308(3) 0.2576(3)
H10 H 0.4433 0.0149 0.2285
H11 H 0.5794 -0.0360 0.2158
H12 H 0.5155 -0.0009 0.3179
N1 N 0.64325(19) -0.21237(18) 0.45228(16)
H13 H 0.5860(18) -0.211(2) 0.4901(14)
H14 H 0.623(2) -0.208(2) 0.3942(8)
H15 H 0.650(2) -0.1547(15) 0.4630(16)
C14 C 0.7561(2) -0.3125(2) 0.46645(17)
C15 C 0.8492(2) -0.29660(19) 0.40318(18)
C16 C 0.8371(3) -0.2805(2) 0.3048(2)
H16 H 0.7709 -0.2768 0.2795
C17 C 0.9205(3) -0.2700(2) 0.2441(2)
H17 H 0.9114 -0.2604 0.1785
C18 C 1.0173(3) -0.2738(2) 0.2812(3)
H18 H 1.0744 -0.2671 0.2405
C19 C 1.0302(3) -0.2873(3) 0.3774(3)
H19 H 1.0955 -0.2886 0.4022
C20 C 0.9466(2) -0.2992(2) 0.4389(2)
H20 H 0.9565 -0.3089 0.5044
C21 C 0.7768(2) -0.3195(2) 0.57399(18)
C22 C 0.7644(3) -0.2300(3) 0.6225(2)
H21 H 0.7397 -0.1642 0.5904
C23 C 0.7882(3) -0.2371(3) 0.7181(2)
H22 H 0.7789 -0.1761 0.7499
C24 C 0.8254(3) -0.3331(3) 0.7661(2)
H23 H 0.8422 -0.3379 0.8302
C25 C 0.8378(3) -0.4219(3) 0.7194(2)
H24 H 0.8624 -0.4873 0.7521
C26 C 0.8140(3) -0.4157(2) 0.6236(2)
H25 H 0.8232 -0.4771 0.5926
C27 C 0.7434(2) -0.4095(2) 0.43341(19)
C28 C 0.8395(3) -0.4961(2) 0.3925(2)
H26 H 0.9098 -0.4926 0.3822
C29 C 0.8328(4) -0.5874(3) 0.3668(3)
H27 H 0.8986 -0.6450 0.3398
C30 C 0.7317(5) -0.5938(4) 0.3805(4)
H28 H 0.7277 -0.6559 0.3639
C31 C 0.6354(5) -0.5086(4) 0.4186(4)
H29 H 0.5651 -0.5122 0.4265
C32 C 0.6408(3) -0.4156(3) 0.4464(3)
H30 H 0.5747 -0.3584 0.4734
N2 N 0.4573(2) 0.19543(17) 0.93210(16)
H31 H 0.3963(13) 0.192(2) 0.9587(15)
H32 H 0.5174(13) 0.1398(16) 0.9512(16)
H33 H 0.4563(19) 0.191(2) 0.8709(7)
C33 C 0.4606(2) 0.30045(19) 0.95375(17)
C34 C 0.3353(2) 0.3894(2) 0.96054(18)
C35 C 0.2590(3) 0.3958(3) 0.8944(3)
H34 H 0.2834 0.3435 0.8472
C36 C 0.1470(3) 0.4782(3) 0.8966(3)
H35 H 0.0969 0.4805 0.8514
C37 C 0.1095(3) 0.5562(3) 0.9644(3)
H36 H 0.0338 0.6114 0.9663
C38 C 0.1846(3) 0.5523(3) 1.0295(3)
H37 H 0.1602 0.6061 1.0752
C39 C 0.2968(3) 0.4691(2) 1.0283(2)
H38 H 0.3465 0.4671 1.0738
C40 C 0.5320(2) 0.3223(2) 0.87064(17)
C41 C 0.5021(3) 0.4260(2) 0.8388(2)
H39 H 0.4365 0.4827 0.8669
C42 C 0.5681(3) 0.4467(3) 0.7658(3)
H40 H 0.5474 0.5173 0.7460
C43 C 0.6632(3) 0.3645(3) 0.7225(2)
H41 H 0.7059 0.3785 0.6719
C44 C 0.6957(3) 0.2610(3) 0.7541(2)
H42 H 0.7614 0.2049 0.7252
C45 C 0.6319(2) 0.2395(2) 0.82818(19)
H43 H 0.6558 0.1691 0.8500
C46 C 0.5168(2) 0.28254(19) 1.04946(18)
C47 C 0.6135(2) 0.2984(2) 1.05948(19)
H44 H 0.6466 0.3204 1.0068
C48 C 0.6618(3) 0.2816(2) 1.1484(2)
H45 H 0.7275 0.2914 1.1547
C49 C 0.6119(3) 0.2507(2) 1.2264(2)
H46 H 0.6433 0.2406 1.2858
C50 C 0.5166(3) 0.2346(2) 1.2172(2)
H47 H 0.4836 0.2132 1.2703
C51 C 0.4691(3) 0.2499(2) 1.12950(19)
H48 H 0.4045 0.2383 1.1238
loop_
_geom_bond_atom_site_label_1
_geom_bond_atom_site_label_2
_geom_bond_site_symmetry_1
_geom_bond_site_symmetry_2
S1 O1 1_555 1_555
S2 O5 1_555 1_555
O2 S1 1_555 1_555
O3 S1 1_555 1_555
O4 H1 1_555 1_555
O6 S2 1_555 1_555
O7 S2 1_555 1_555
O8 H2 1_555 1_555
C1 S1 1_555 1_555
C2 O4 1_555 1_555
C3 C2 1_555 1_555
H3 C3 1_555 1_555
C4 C3 1_555 1_555
H4 C4 1_555 1_555
C5 C4 1_555 1_555
C6 C1 1_555 1_555
H5 C6 1_555 1_555
C7 C5 1_555 1_555
C8 C7 1_555 1_555
H6 C8 1_555 1_555
C9 S2 1_555 1_555
C10 O8 1_555 1_555
C11 C10 1_555 1_555
H7 C11 1_555 1_555
C12 C7 1_555 1_555
H8 C12 1_555 1_555
O9 H9 1_555 1_555
C13 O9 1_555 1_555
H10 C13 1_555 1_555
H11 C13 1_555 1_555
H12 C13 1_555 1_555
N1 H13 1_555 1_555
H14 N1 1_555 1_555
H15 N1 1_555 1_555
C14 N1 1_555 1_555
C15 C14 1_555 1_555
C16 C15 1_555 1_555
H16 C16 1_555 1_555
C17 C16 1_555 1_555
H17 C17 1_555 1_555
C18 C17 1_555 1_555
H18 C18 1_555 1_555
C19 C18 1_555 1_555
H19 C19 1_555 1_555
C20 C15 1_555 1_555
H20 C20 1_555 1_555
C21 C14 1_555 1_555
C22 C21 1_555 1_555
H21 C22 1_555 1_555
C23 C22 1_555 1_555
H22 C23 1_555 1_555
C24 C23 1_555 1_555
H23 C24 1_555 1_555
C25 C24 1_555 1_555
H24 C25 1_555 1_555
C26 C21 1_555 1_555
H25 C26 1_555 1_555
C27 C14 1_555 1_555
C28 C27 1_555 1_555
H26 C28 1_555 1_555
C29 C28 1_555 1_555
H27 C29 1_555 1_555
C30 C29 1_555 1_555
H28 C30 1_555 1_555
C31 C30 1_555 1_555
H29 C31 1_555 1_555
C32 C27 1_555 1_555
H30 C32 1_555 1_555
N2 H31 1_555 1_555
H32 N2 1_555 1_555
H33 N2 1_555 1_555
C33 N2 1_555 1_555
C34 C33 1_555 1_555
C35 C34 1_555 1_555
H34 C35 1_555 1_555
C36 C35 1_555 1_555
H35 C36 1_555 1_555
C37 C36 1_555 1_555
H36 C37 1_555 1_555
C38 C37 1_555 1_555
H37 C38 1_555 1_555
C39 C34 1_555 1_555
H38 C39 1_555 1_555
C40 C33 1_555 1_555
C41 C40 1_555 1_555
H39 C41 1_555 1_555
C42 C41 1_555 1_555
H40 C42 1_555 1_555
C43 C42 1_555 1_555
H41 C43 1_555 1_555
C44 C43 1_555 1_555
H42 C44 1_555 1_555
C45 C40 1_555 1_555
H43 C45 1_555 1_555
C46 C33 1_555 1_555
C47 C46 1_555 1_555
H44 C47 1_555 1_555
C48 C47 1_555 1_555
H45 C48 1_555 1_555
C49 C48 1_555 1_555
H46 C49 1_555 1_555
C50 C49 1_555 1_555
H47 C50 1_555 1_555
C51 C46 1_555 1_555
H48 C51 1_555 1_555
C1 C2 1_555 1_555
C5 C6 1_555 1_555
C8 C9 1_555 1_555
C9 C10 1_555 1_555
C11 C12 1_555 1_555
C19 C20 1_555 1_555
C25 C26 1_555 1_555
C31 C32 1_555 1_555
C38 C39 1_555 1_555
C44 C45 1_555 1_555
C50 C51 1_555 1_555

#END
