
#######################################################################
#
#                 Cambridge Crystallographic Data Centre
#                                CCDC 
#
#######################################################################
#
# If this CIF has been generated from an entry in the Cambridge 
# Structural Database, then it will include bibliographic, chemical, 
# crystal, experimental, refinement or atomic coordinate data resulting 
# from the CCDC's data processing and validation procedures.
#
#######################################################################

data_KOWYEC
_chemical_formula_moiety         'C13 H13 N2 1+,C6 H2 N3 O7 1-'
_chemical_name_systematic        
'4-(2-(4-aminophenyl)ethenyl)pyridinium 2,4,6-trinitrophenolate'
_symmetry_cell_setting           monoclinic
_symmetry_space_group_name_H-M   'P 21/c'
_symmetry_Int_Tables_number      14
_space_group_name_Hall           '-P 2ybc'
loop_
_symmetry_equiv_pos_site_id
_symmetry_equiv_pos_as_xyz
1 x,y,z
2 -x,1/2+y,1/2-z
3 -x,-y,-z
4 x,1/2-y,1/2+z
_cell_length_a                   7.917(5)
_cell_length_b                   12.258(5)
_cell_length_c                   20.049(5)
_cell_angle_alpha                90
_cell_angle_beta                 96.658(5)
_cell_angle_gamma                90
_cell_volume                     1932.57
_cell_formula_units_Z            4
loop_
_atom_site_label
_atom_site_type_symbol
_atom_site_fract_x
_atom_site_fract_y
_atom_site_fract_z
O1 O 1.0506(4) 0.0638(3) 0.14802(16)
C1 C 1.0799(6) 0.1732(4) 0.0512(2)
C2 C 0.9960(5) 0.0957(4) 0.0908(2)
C3 C 0.8382(6) 0.0573(4) 0.0537(2)
C4 C 0.7820(6) 0.0841(4) -0.0108(2)
H1 H 0.6829 0.0533 -0.0323
O2 O 0.6900(5) 0.1434(3) -0.14077(18)
N1 N 0.8188(6) 0.1861(4) -0.1130(2)
C5 C 0.8748(6) 0.1581(4) -0.0441(2)
C6 C 1.0216(6) 0.2042(4) -0.0124(2)
H2 H 1.0803 0.2561 -0.0345
N2 N 0.7318(5) -0.0176(4) 0.0868(2)
O3 O 0.9046(6) 0.2520(4) -0.14111(19)
N3 N 1.2379(6) 0.2230(4) 0.0795(2)
O4 O 0.6452(5) -0.0841(4) 0.0514(2)
O5 O 1.2836(6) 0.3069(4) 0.0562(3)
O6 O 0.7320(7) -0.0149(6) 0.1457(2)
O7 O 1.3263(8) 0.1766(7) 0.1220(3)
N4 N 0.3223(7) 0.0783(5) 0.2474(2)
H3 H 0.2643 0.0697 0.2088
C7 C 0.9533(7) 0.0274(5) 0.6334(3)
H4 H 1.0325 -0.0260 0.6479
C8 C 0.9217(7) 0.1110(5) 0.6767(2)
C9 C 0.4988(7) 0.1026(5) 0.3715(2)
C10 C 0.7513(8) 0.0968(6) 0.5461(3)
N5 N 1.0068(8) 0.1171(5) 0.7403(2)
H5 H 0.9852 0.1694 0.7666
H6 H 1.0816 0.0687 0.7538
C11 C 0.5244(8) 0.0146(5) 0.3312(3)
H7 H 0.6034 -0.0385 0.3465
C12 C 0.8010(8) 0.1871(5) 0.6534(3)
H8 H 0.7762 0.2442 0.6813
C13 C 0.8706(8) 0.0219(5) 0.5701(3)
H9 H 0.8963 -0.0350 0.5422
C14 C 0.4359(8) 0.0044(5) 0.2696(3)
H10 H 0.4554 -0.0551 0.2427
C15 C 0.7163(7) 0.1801(6) 0.5894(3)
H11 H 0.6343 0.2320 0.5750
C16 C 0.3821(9) 0.1793(5) 0.3448(3)
H12 H 0.3625 0.2414 0.3694
C17 C 0.5759(11) 0.1224(8) 0.4383(3)
H13 H 0.5374 0.1883 0.4539
C18 C 0.2964(8) 0.1647(6) 0.2834(4)
H14 H 0.2176 0.2168 0.2662
C19 C 0.6696(10) 0.0831(9) 0.4787(4)
H15 H 0.7073 0.0179 0.4618
loop_
_geom_bond_atom_site_label_1
_geom_bond_atom_site_label_2
_geom_bond_site_symmetry_1
_geom_bond_site_symmetry_2
O1 C2 1_555 1_555
C1 C2 1_555 1_555
C2 C3 1_555 1_555
C3 C4 1_555 1_555
C4 H1 1_555 1_555
O2 N1 1_555 1_555
N1 C5 1_555 1_555
C5 C4 1_555 1_555
C6 C1 1_555 1_555
H2 C6 1_555 1_555
N2 C3 1_555 1_555
O3 N1 1_555 1_555
N3 C1 1_555 1_555
O4 N2 1_555 1_555
O5 N3 1_555 1_555
O6 N2 1_555 1_555
O7 N3 1_555 1_555
N4 H3 1_555 1_555
C7 H4 1_555 1_555
C8 C7 1_555 1_555
C9 C11 1_555 1_555
C10 C13 1_555 1_555
N5 C8 1_555 1_555
H5 N5 1_555 1_555
H6 N5 1_555 1_555
C11 H7 1_555 1_555
C12 C8 1_555 1_555
H8 C12 1_555 1_555
C13 C7 1_555 1_555
H9 C13 1_555 1_555
C14 N4 1_555 1_555
H10 C14 1_555 1_555
C15 C10 1_555 1_555
H11 C15 1_555 1_555
C16 C9 1_555 1_555
H12 C16 1_555 1_555
C17 C9 1_555 1_555
H13 C17 1_555 1_555
C18 N4 1_555 1_555
H14 C18 1_555 1_555
C19 C10 1_555 1_555
H15 C19 1_555 1_555
C5 C6 1_555 1_555
C11 C14 1_555 1_555
C12 C15 1_555 1_555
C16 C18 1_555 1_555
C17 C19 1_555 1_555

#END
