
#######################################################################
#
#                 Cambridge Crystallographic Data Centre
#                                CCDC 
#
#######################################################################
#
# If this CIF has been generated from an entry in the Cambridge 
# Structural Database, then it will include bibliographic, chemical, 
# crystal, experimental, refinement or atomic coordinate data resulting 
# from the CCDC's data processing and validation procedures.
#
#######################################################################

data_KOXHAI
_chemical_formula_moiety         'C26 H19 N1 O2'
_chemical_name_systematic        
(1-(benzylamino)naphtho[2,1-b]furan-2-yl)(phenyl)methanone
_symmetry_cell_setting           monoclinic
_symmetry_space_group_name_H-M   'P 21/c'
_symmetry_Int_Tables_number      14
_space_group_name_Hall           '-P 2ybc'
loop_
_symmetry_equiv_pos_site_id
_symmetry_equiv_pos_as_xyz
1 x,y,z
2 -x,1/2+y,1/2-z
3 -x,-y,-z
4 x,1/2-y,1/2+z
_cell_length_a                   7.9684(8)
_cell_length_b                   5.5537(5)
_cell_length_c                   41.971(4)
_cell_angle_alpha                90
_cell_angle_beta                 93.411(3)
_cell_angle_gamma                90
_cell_volume                     1854.1
_exptl_crystal_colour            yellow
_exptl_crystal_description       parallelepiped
_cell_formula_units_Z            4
loop_
_atom_site_label
_atom_site_type_symbol
_atom_site_fract_x
_atom_site_fract_y
_atom_site_fract_z
O1 O 0.37289(12) 0.8506(2) 0.17521(2)
O2 O -0.00026(14) 0.5154(2) 0.15338(3)
N1 N 0.04612(17) 0.8870(3) 0.11277(3)
H1 H -0.014(2) 0.751(4) 0.1198(4)
C1 C 0.42281(19) 1.0478(3) 0.15901(4)
C2 C 0.5656(2) 1.1822(3) 0.16873(4)
H2 H 0.6345 1.1394 0.1871
C3 C 0.6009(2) 1.3762(3) 0.15069(4)
H3 H 0.6927 1.4770 0.1574
C4 C 0.50432(19) 1.4339(3) 0.12190(4)
C5 C 0.5494(2) 1.6298(3) 0.10294(4)
H4 H 0.6386 1.7327 0.1104
C6 C 0.4677(2) 1.6753(3) 0.07397(4)
H5 H 0.4983 1.8104 0.0617
C7 C 0.3387(2) 1.5216(3) 0.06253(4)
H6 H 0.2855 1.5485 0.0420
C8 C 0.2884(2) 1.3322(3) 0.08071(4)
H7 H 0.2010 1.2294 0.0725
C9 C 0.36419(19) 1.2875(3) 0.11132(4)
C10 C 0.31797(18) 1.0976(3) 0.13240(4)
C11 C 0.18544(19) 0.9211(3) 0.13303(4)
C12 C 0.22410(18) 0.7730(3) 0.15915(4)
C13 C 0.12820(19) 0.5752(3) 0.17004(4)
C14 C 0.17189(18) 0.4345(3) 0.19993(4)
C15 C 0.2969(2) 0.4992(3) 0.22286(4)
H8 H 0.3603 0.6418 0.2202
C16 C 0.3295(2) 0.3565(3) 0.24962(4)
H9 H 0.4149 0.4023 0.2652
C17 C 0.2385(2) 0.1483(3) 0.25374(4)
H10 H 0.2619 0.0501 0.2720
C18 C 0.1131(2) 0.0835(3) 0.23119(4)
H11 H 0.0498 -0.0590 0.2340
C19 C 0.0799(2) 0.2249(3) 0.20463(4)
H12 H -0.0068 0.1793 0.1893
C20 C -0.06174(19) 1.0823(3) 0.10067(4)
H13 H 0.0025 1.2350 0.1019
H14 H -0.1580 1.0987 0.1144
C21 C -0.12778(18) 1.0416(3) 0.06648(4)
C22 C -0.2410(2) 1.2051(3) 0.05246(4)
H15 H -0.2736 1.3416 0.0643
C23 C -0.3072(2) 1.1724(3) 0.02155(4)
H16 H -0.3851 1.2858 0.0123
C24 C -0.2606(2) 0.9764(3) 0.00414(4)
H17 H -0.3057 0.9540 -0.0171
C25 C -0.1481(2) 0.8128(3) 0.01775(4)
H18 H -0.1155 0.6770 0.0058
C26 C -0.0823(2) 0.8453(3) 0.04878(4)
H19 H -0.0050 0.7310 0.0580
loop_
_geom_bond_atom_site_label_1
_geom_bond_atom_site_label_2
_geom_bond_site_symmetry_1
_geom_bond_site_symmetry_2
O1 C1 1_555 1_555
O2 C13 1_555 1_555
N1 H1 1_555 1_555
C1 C2 1_555 1_555
C2 H2 1_555 1_555
C3 C2 1_555 1_555
H3 C3 1_555 1_555
C4 C3 1_555 1_555
C5 C4 1_555 1_555
H4 C5 1_555 1_555
C6 C5 1_555 1_555
H5 C6 1_555 1_555
C7 C6 1_555 1_555
H6 C7 1_555 1_555
C8 C7 1_555 1_555
H7 C8 1_555 1_555
C9 C4 1_555 1_555
C10 C1 1_555 1_555
C11 N1 1_555 1_555
C12 O1 1_555 1_555
C13 C12 1_555 1_555
C14 C13 1_555 1_555
C15 C14 1_555 1_555
H8 C15 1_555 1_555
C16 C15 1_555 1_555
H9 C16 1_555 1_555
C17 C16 1_555 1_555
H10 C17 1_555 1_555
C18 C17 1_555 1_555
H11 C18 1_555 1_555
C19 C14 1_555 1_555
H12 C19 1_555 1_555
C20 N1 1_555 1_555
H13 C20 1_555 1_555
H14 C20 1_555 1_555
C21 C20 1_555 1_555
C22 C21 1_555 1_555
H15 C22 1_555 1_555
C23 C22 1_555 1_555
H16 C23 1_555 1_555
C24 C23 1_555 1_555
H17 C24 1_555 1_555
C25 C24 1_555 1_555
H18 C25 1_555 1_555
C26 C21 1_555 1_555
H19 C26 1_555 1_555
C8 C9 1_555 1_555
C9 C10 1_555 1_555
C10 C11 1_555 1_555
C11 C12 1_555 1_555
C18 C19 1_555 1_555
C25 C26 1_555 1_555

#END
