
#######################################################################
#
#                 Cambridge Crystallographic Data Centre
#                                CCDC 
#
#######################################################################
#
# If this CIF has been generated from an entry in the Cambridge 
# Structural Database, then it will include bibliographic, chemical, 
# crystal, experimental, refinement or atomic coordinate data resulting 
# from the CCDC's data processing and validation procedures.
#
#######################################################################

data_KOXLIU
_chemical_formula_moiety         'C24 H22 N2 O2'
_chemical_name_systematic        
(3-(cyclohexylamino)furo[3,2-b]pyridin-2-yl)(2-naphthyl)methanone
_symmetry_cell_setting           triclinic
_symmetry_space_group_name_H-M   'P -1'
_symmetry_Int_Tables_number      2
_space_group_name_Hall           '-P 1'
loop_
_symmetry_equiv_pos_site_id
_symmetry_equiv_pos_as_xyz
1 x,y,z
2 -x,-y,-z
_cell_length_a                   7.627(2)
_cell_length_b                   9.038(2)
_cell_length_c                   14.420(4)
_cell_angle_alpha                75.084(8)
_cell_angle_beta                 75.535(9)
_cell_angle_gamma                89.981(9)
_cell_volume                     927.894
_exptl_crystal_colour            brown
_exptl_crystal_description       parallelepiped
_cell_formula_units_Z            2
loop_
_atom_site_label
_atom_site_type_symbol
_atom_site_fract_x
_atom_site_fract_y
_atom_site_fract_z
O1 O 0.9071(4) 0.5143(3) 0.8601(2)
O2 O 0.9569(6) 0.1125(3) 0.8878(2)
N1 N 0.6324(5) 0.4942(4) 1.1023(3)
N2 N 0.7637(6) 0.1759(4) 1.0644(3)
C1 C 0.8075(6) 0.5738(5) 0.9325(3)
C2 C 0.7784(6) 0.7275(5) 0.9228(3)
H1 H 0.8273 0.8034 0.8644
C3 C 0.6713(7) 0.7589(5) 1.0065(4)
H2 H 0.6444 0.8596 1.0055
C4 C 0.6028(7) 0.6422(5) 1.0925(3)
H3 H 0.5311 0.6692 1.1472
C5 C 0.7381(6) 0.4632(4) 1.0199(3)
C6 C 0.7990(6) 0.3187(4) 1.0030(3)
C7 C 0.9002(6) 0.3555(4) 0.9052(3)
C8 C 0.9722(6) 0.2534(4) 0.8466(3)
C9 C 1.0565(6) 0.3110(4) 0.7386(3)
C10 C 1.1761(6) 0.4451(5) 0.6969(3)
H4 H 1.2050 0.4998 0.7382
C11 C 1.2488(6) 0.4943(5) 0.5969(3)
H5 H 1.3297 0.5807 0.5711
C12 C 1.2039(6) 0.4167(5) 0.5314(3)
C13 C 1.2752(7) 0.4659(6) 0.4273(3)
H6 H 1.3552 0.5528 0.3996
C14 C 1.2278(8) 0.3874(7) 0.3668(4)
H7 H 1.2747 0.4218 0.2984
C15 C 1.1093(8) 0.2556(7) 0.4074(4)
H8 H 1.0781 0.2026 0.3658
C16 C 1.0398(7) 0.2050(6) 0.5071(4)
H9 H 0.9609 0.1173 0.5329
C17 C 1.0843(6) 0.2821(5) 0.5725(3)
C18 C 1.0148(6) 0.2325(5) 0.6757(3)
H10 H 0.9381 0.1436 0.7028
C19 C 0.6506(6) 0.1407(4) 1.1661(3)
H11 H 0.5601 0.2175 1.1698
C20 C 0.7605(6) 0.1462(5) 1.2402(3)
H12 H 0.8552 0.0749 1.2348
H13 H 0.8183 0.2485 1.2241
C21 C 0.6432(8) 0.1059(7) 1.3453(4)
H14 H 0.5582 0.1846 1.3529
H15 H 0.7189 0.1034 1.3906
C22 C 0.5378(8) -0.0500(7) 1.3723(4)
H16 H 0.6219 -0.1306 1.3742
H17 H 0.4550 -0.0680 1.4379
C23 C 0.4324(7) -0.0552(5) 1.2980(4)
H18 H 0.3378 0.0163 1.3026
H19 H 0.3745 -0.1574 1.3139
C24 C 0.5517(6) -0.0153(5) 1.1926(3)
H20 H 0.6393 -0.0922 1.1859
H21 H 0.4775 -0.0156 1.1469
loop_
_geom_bond_atom_site_label_1
_geom_bond_atom_site_label_2
_geom_bond_site_symmetry_1
_geom_bond_site_symmetry_2
O1 C1 1_555 1_555
O2 C8 1_555 1_555
N1 C4 1_555 1_555
N2 C6 1_555 1_555
C1 C2 1_555 1_555
C2 H1 1_555 1_555
C3 C2 1_555 1_555
H2 C3 1_555 1_555
C4 C3 1_555 1_555
H3 C4 1_555 1_555
C5 N1 1_555 1_555
C6 C5 1_555 1_555
C7 O1 1_555 1_555
C8 C7 1_555 1_555
C9 C8 1_555 1_555
C10 C9 1_555 1_555
H4 C10 1_555 1_555
C11 C10 1_555 1_555
H5 C11 1_555 1_555
C12 C11 1_555 1_555
C13 C12 1_555 1_555
H6 C13 1_555 1_555
C14 C13 1_555 1_555
H7 C14 1_555 1_555
C15 C14 1_555 1_555
H8 C15 1_555 1_555
C16 C15 1_555 1_555
H9 C16 1_555 1_555
C17 C12 1_555 1_555
C18 C9 1_555 1_555
H10 C18 1_555 1_555
C19 N2 1_555 1_555
H11 C19 1_555 1_555
C20 C19 1_555 1_555
H12 C20 1_555 1_555
H13 C20 1_555 1_555
C21 C20 1_555 1_555
H14 C21 1_555 1_555
H15 C21 1_555 1_555
C22 C21 1_555 1_555
H16 C22 1_555 1_555
H17 C22 1_555 1_555
C23 C22 1_555 1_555
H18 C23 1_555 1_555
H19 C23 1_555 1_555
C24 C19 1_555 1_555
H20 C24 1_555 1_555
H21 C24 1_555 1_555
C1 C5 1_555 1_555
C6 C7 1_555 1_555
C16 C17 1_555 1_555
C17 C18 1_555 1_555
C23 C24 1_555 1_555

#END
