
#######################################################################
#
#                 Cambridge Crystallographic Data Centre
#                                CCDC 
#
#######################################################################
#
# If this CIF has been generated from an entry in the Cambridge 
# Structural Database, then it will include bibliographic, chemical, 
# crystal, experimental, refinement or atomic coordinate data resulting 
# from the CCDC's data processing and validation procedures.
#
#######################################################################

data_KOXLOA
_chemical_formula_moiety         'C18 H18 N2 O3'
_chemical_name_systematic        
(3-(cyclohexylamino)furo[3,2-b]pyridin-2-yl)(2-furyl)methanone
_symmetry_cell_setting           triclinic
_symmetry_space_group_name_H-M   'P -1'
_symmetry_Int_Tables_number      2
_space_group_name_Hall           '-P 1'
loop_
_symmetry_equiv_pos_site_id
_symmetry_equiv_pos_as_xyz
1 x,y,z
2 -x,-y,-z
_cell_length_a                   10.3849(5)
_cell_length_b                   11.2733(8)
_cell_length_c                   15.3061(10)
_cell_angle_alpha                73.336(6)
_cell_angle_beta                 79.092(5)
_cell_angle_gamma                65.000(6)
_cell_volume                     1551.04
_exptl_crystal_colour            yellow
_exptl_crystal_description       parallelepiped
_cell_formula_units_Z            4
loop_
_atom_site_label
_atom_site_type_symbol
_atom_site_fract_x
_atom_site_fract_y
_atom_site_fract_z
O1 O 0.64599(12) 0.94801(12) 0.01055(9)
O2 O 0.69499(11) 0.68981(12) 0.09349(9)
O3 O 1.06155(11) 0.64920(11) 0.06291(8)
N1 N 1.22113(14) 0.29269(15) 0.14135(11)
N2 N 0.88328(15) 0.42009(14) 0.14439(11)
H1 H 0.795(2) 0.4742(19) 0.1382(13)
C1 C 0.6516(2) 1.06881(19) -0.03381(15)
H2 H 0.5728 1.1463 -0.0539
C2 C 0.7842(2) 1.06205(19) -0.04474(15)
H3 H 0.8148 1.1314 -0.0733
C3 C 0.86979(19) 0.92736(18) -0.00399(14)
H4 H 0.9679 0.8917 -0.0004
C4 C 0.78304(16) 0.86046(17) 0.02865(12)
C5 C 0.80069(16) 0.72137(16) 0.07150(11)
C6 C 0.93948(15) 0.61825(16) 0.08657(11)
C7 C 1.17365(16) 0.52914(17) 0.08272(11)
C8 C 1.31586(17) 0.5089(2) 0.07225(12)
H5 H 1.3467 0.5792 0.0506
C9 C 1.40841(18) 0.3765(2) 0.09638(13)
H6 H 1.5060 0.3550 0.0906
C10 C 1.35794(18) 0.2750(2) 0.12908(14)
H7 H 1.4251 0.1872 0.1437
C11 C 1.12988(16) 0.42248(17) 0.11712(11)
C12 C 0.97555(15) 0.48154(16) 0.11939(11)
C13 C 0.91943(16) 0.27630(16) 0.18125(12)
H8 H 1.0098 0.2270 0.1500
C14 C 0.80434(18) 0.24002(18) 0.16125(13)
H9 H 0.7124 0.2968 0.1851
H10 H 0.8022 0.2578 0.0956
C15 C 0.8288(2) 0.09327(19) 0.20325(14)
H11 H 0.9141 0.0364 0.1733
H12 H 0.7490 0.0768 0.1930
C16 C 0.8448(2) 0.0564(2) 0.30523(14)
H13 H 0.8661 -0.0389 0.3291
H14 H 0.7559 0.1061 0.3362
C17 C 0.9635(2) 0.0888(2) 0.32384(14)
H15 H 0.9695 0.0683 0.3893
H16 H 1.0538 0.0330 0.2974
C18 C 0.93736(19) 0.23639(18) 0.28348(13)
H17 H 0.8522 0.2918 0.3145
H18 H 1.0170 0.2530 0.2938
O4 O 1.31874(14) 0.65477(15) 0.23179(11)
O5 O 1.03227(13) 0.75064(13) 0.23385(9)
O6 O 1.07322(12) 0.43410(12) 0.39044(9)
N3 N 0.70566(15) 0.49353(15) 0.44924(11)
N4 N 0.76905(15) 0.72906(16) 0.30236(11)
H19 H 0.809(2) 0.779(2) 0.2669(14)
C19 C 1.4595(2) 0.5828(3) 0.2456(2)
H20 H 1.5318 0.6132 0.2194
C20 C 1.4791(2) 0.4637(3) 0.30142(17)
H21 H 1.5656 0.3973 0.3213
C21 C 1.34340(19) 0.4566(2) 0.32528(14)
H22 H 1.3235 0.3845 0.3631
C22 C 1.24904(18) 0.5751(2) 0.28210(13)
C23 C 1.09316(18) 0.63565(18) 0.28047(12)
C24 C 1.00909(17) 0.56350(17) 0.33476(12)
C25 C 0.96271(19) 0.40104(18) 0.43750(12)
C26 C 0.9728(2) 0.28309(19) 0.50068(13)
H23 H 1.0599 0.2146 0.5176
C27 C 0.8451(2) 0.2740(2) 0.53678(14)
H24 H 0.8439 0.1969 0.5797
C28 C 0.7169(2) 0.3792(2) 0.50970(14)
H25 H 0.6330 0.3685 0.5360
C29 C 0.83142(18) 0.50266(17) 0.41342(12)
C30 C 0.86254(17) 0.60891(17) 0.34643(11)
C31 C 0.61791(16) 0.78610(17) 0.33347(12)
H26 H 0.5818 0.7146 0.3482
C32 C 0.53544(18) 0.89681(19) 0.25703(15)
H27 H 0.5480 0.8608 0.2042
H28 H 0.5720 0.9673 0.2393
C33 C 0.3771(2) 0.9555(2) 0.28830(17)
H29 H 0.3265 1.0290 0.2398
H30 H 0.3389 0.8869 0.3003
C34 C 0.3532(2) 1.0063(3) 0.3736(2)
H31 H 0.2526 1.0375 0.3937
H32 H 0.3812 1.0820 0.3596
C35 C 0.4377(2) 0.8976(3) 0.45016(18)
H33 H 0.4007 0.8274 0.4702
H34 H 0.4264 0.9358 0.5018
C36 C 0.5960(2) 0.8363(2) 0.41914(15)
H35 H 0.6362 0.9034 0.4072
H36 H 0.6456 0.7620 0.4676
loop_
_geom_bond_atom_site_label_1
_geom_bond_atom_site_label_2
_geom_bond_site_symmetry_1
_geom_bond_site_symmetry_2
O1 C1 1_555 1_555
O2 C5 1_555 1_555
O3 C6 1_555 1_555
N1 C10 1_555 1_555
N2 H1 1_555 1_555
C1 H2 1_555 1_555
C2 C1 1_555 1_555
H3 C2 1_555 1_555
C3 C2 1_555 1_555
H4 C3 1_555 1_555
C4 O1 1_555 1_555
C5 C4 1_555 1_555
C6 C5 1_555 1_555
C7 O3 1_555 1_555
C8 C7 1_555 1_555
H5 C8 1_555 1_555
C9 C8 1_555 1_555
H6 C9 1_555 1_555
C10 C9 1_555 1_555
H7 C10 1_555 1_555
C11 N1 1_555 1_555
C12 N2 1_555 1_555
C13 N2 1_555 1_555
H8 C13 1_555 1_555
C14 C13 1_555 1_555
H9 C14 1_555 1_555
H10 C14 1_555 1_555
C15 C14 1_555 1_555
H11 C15 1_555 1_555
H12 C15 1_555 1_555
C16 C15 1_555 1_555
H13 C16 1_555 1_555
H14 C16 1_555 1_555
C17 C16 1_555 1_555
H15 C17 1_555 1_555
H16 C17 1_555 1_555
C18 C13 1_555 1_555
H17 C18 1_555 1_555
H18 C18 1_555 1_555
O4 C19 1_555 1_555
O5 C23 1_555 1_555
O6 C24 1_555 1_555
N3 C28 1_555 1_555
N4 H19 1_555 1_555
C19 H20 1_555 1_555
C20 C19 1_555 1_555
H21 C20 1_555 1_555
C21 C20 1_555 1_555
H22 C21 1_555 1_555
C22 O4 1_555 1_555
C23 C22 1_555 1_555
C24 C23 1_555 1_555
C25 O6 1_555 1_555
C26 C25 1_555 1_555
H23 C26 1_555 1_555
C27 C26 1_555 1_555
H24 C27 1_555 1_555
C28 C27 1_555 1_555
H25 C28 1_555 1_555
C29 N3 1_555 1_555
C30 N4 1_555 1_555
C31 N4 1_555 1_555
H26 C31 1_555 1_555
C32 C31 1_555 1_555
H27 C32 1_555 1_555
H28 C32 1_555 1_555
C33 C32 1_555 1_555
H29 C33 1_555 1_555
H30 C33 1_555 1_555
C34 C33 1_555 1_555
H31 C34 1_555 1_555
H32 C34 1_555 1_555
C35 C34 1_555 1_555
H33 C35 1_555 1_555
H34 C35 1_555 1_555
C36 C31 1_555 1_555
H35 C36 1_555 1_555
H36 C36 1_555 1_555
C3 C4 1_555 1_555
C6 C12 1_555 1_555
C7 C11 1_555 1_555
C11 C12 1_555 1_555
C17 C18 1_555 1_555
C21 C22 1_555 1_555
C24 C30 1_555 1_555
C25 C29 1_555 1_555
C29 C30 1_555 1_555
C35 C36 1_555 1_555

#END
