
#######################################################################
#
#                 Cambridge Crystallographic Data Centre
#                                CCDC 
#
#######################################################################
#
# If this CIF has been generated from an entry in the Cambridge 
# Structural Database, then it will include bibliographic, chemical, 
# crystal, experimental, refinement or atomic coordinate data resulting 
# from the CCDC's data processing and validation procedures.
#
#######################################################################

data_KOXLEQ
_chemical_formula_moiety         'C20 H19 F1 N2 O2'
_chemical_name_systematic        
(3-(cyclohexylamino)furo[3,2-b]pyridin-2-yl)(3-fluorophenyl)methanone
_symmetry_cell_setting           monoclinic
_symmetry_space_group_name_H-M   'P 21/c'
_symmetry_Int_Tables_number      14
_space_group_name_Hall           '-P 2ybc'
loop_
_symmetry_equiv_pos_site_id
_symmetry_equiv_pos_as_xyz
1 x,y,z
2 -x,1/2+y,1/2-z
3 -x,-y,-z
4 x,1/2-y,1/2+z
_cell_length_a                   14.3240(12)
_cell_length_b                   8.9590(7)
_cell_length_c                   13.5806(12)
_cell_angle_alpha                90
_cell_angle_beta                 101.274(3)
_cell_angle_gamma                90
_cell_volume                     1709.15
_exptl_crystal_colour            yellow
_exptl_crystal_description       parallelepiped
_cell_formula_units_Z            4
loop_
_atom_site_label
_atom_site_type_symbol
_atom_site_fract_x
_atom_site_fract_y
_atom_site_fract_z
F1 F 0.9151(2) 0.5134(5) 0.3072(3)
O1 O 0.58597(18) 0.4428(3) 0.0950(2)
O2 O 0.61017(15) 0.0494(2) 0.13551(16)
N1 N 0.36672(19) -0.0468(3) 0.1120(2)
N2 N 0.40742(19) 0.2937(3) 0.0739(2)
H1 H 0.431(3) 0.387(5) 0.050(3)
C1 C 0.7759(3) 0.4170(4) 0.2117(3)
H2 H 0.7415 0.4924 0.2353
C2 C 0.8725(3) 0.4088(6) 0.2412(3)
C3 C 0.9267(3) 0.3044(6) 0.2070(4)
H3 H 0.9925 0.3033 0.2287
C4 C 0.8827(3) 0.2003(5) 0.1397(4)
H4 H 0.9187 0.1290 0.1141
C5 C 0.7844(3) 0.2015(4) 0.1098(3)
H5 H 0.7545 0.1291 0.0655
C6 C 0.7307(2) 0.3097(4) 0.1454(3)
C7 C 0.6242(2) 0.3198(4) 0.1135(2)
C8 C 0.5674(2) 0.1898(3) 0.1096(2)
C9 C 0.5377(2) -0.0458(3) 0.1378(2)
C10 C 0.5448(2) -0.1976(4) 0.1581(2)
H6 H 0.6031 -0.2465 0.1736
C11 C 0.4603(3) -0.2702(4) 0.1539(2)
H7 H 0.4600 -0.3724 0.1657
C12 C 0.3745(3) -0.1920(4) 0.1318(3)
H8 H 0.3186 -0.2454 0.1310
C13 C 0.4495(2) 0.0255(3) 0.1152(2)
C14 C 0.4690(2) 0.1804(3) 0.0961(2)
C15 C 0.3049(2) 0.2812(4) 0.0712(3)
H9 H 0.2954 0.2044 0.1197
C16 C 0.2498(3) 0.2350(5) -0.0307(3)
H10 H 0.2585 0.3089 -0.0803
H11 H 0.2738 0.1403 -0.0498
C17 C 0.1444(3) 0.2203(6) -0.0287(4)
H12 H 0.1098 0.1946 -0.0953
H13 H 0.1354 0.1402 0.0166
C18 C 0.1051(3) 0.3632(6) 0.0051(4)
H14 H 0.0393 0.3480 0.0106
H15 H 0.1067 0.4403 -0.0447
C19 C 0.1619(3) 0.4139(5) 0.1055(4)
H16 H 0.1380 0.5098 0.1226
H17 H 0.1533 0.3429 0.1569
C20 C 0.2676(3) 0.4279(4) 0.1041(3)
H18 H 0.2774 0.5066 0.0581
H19 H 0.3023 0.4540 0.1706
loop_
_geom_bond_atom_site_label_1
_geom_bond_atom_site_label_2
_geom_bond_site_symmetry_1
_geom_bond_site_symmetry_2
F1 C2 1_555 1_555
O1 C7 1_555 1_555
O2 C8 1_555 1_555
N1 C12 1_555 1_555
N2 H1 1_555 1_555
C1 H2 1_555 1_555
C2 C1 1_555 1_555
C3 C2 1_555 1_555
H3 C3 1_555 1_555
C4 C3 1_555 1_555
H4 C4 1_555 1_555
C5 C4 1_555 1_555
H5 C5 1_555 1_555
C6 C1 1_555 1_555
C7 C6 1_555 1_555
C8 C7 1_555 1_555
C9 O2 1_555 1_555
C10 C9 1_555 1_555
H6 C10 1_555 1_555
C11 C10 1_555 1_555
H7 C11 1_555 1_555
C12 C11 1_555 1_555
H8 C12 1_555 1_555
C13 N1 1_555 1_555
C14 N2 1_555 1_555
C15 N2 1_555 1_555
H9 C15 1_555 1_555
C16 C15 1_555 1_555
H10 C16 1_555 1_555
H11 C16 1_555 1_555
C17 C16 1_555 1_555
H12 C17 1_555 1_555
H13 C17 1_555 1_555
C18 C17 1_555 1_555
H14 C18 1_555 1_555
H15 C18 1_555 1_555
C19 C18 1_555 1_555
H16 C19 1_555 1_555
H17 C19 1_555 1_555
C20 C15 1_555 1_555
H18 C20 1_555 1_555
H19 C20 1_555 1_555
C5 C6 1_555 1_555
C8 C14 1_555 1_555
C9 C13 1_555 1_555
C13 C14 1_555 1_555
C19 C20 1_555 1_555

#END
