
#######################################################################
#
#                 Cambridge Crystallographic Data Centre
#                                CCDC 
#
#######################################################################
#
# If this CIF has been generated from an entry in the Cambridge 
# Structural Database, then it will include bibliographic, chemical, 
# crystal, experimental, refinement or atomic coordinate data resulting 
# from the CCDC's data processing and validation procedures.
#
#######################################################################

data_KOXMIV
_chemical_formula_moiety         'C54 H54 S4'
_chemical_name_systematic        
6,13-bis(4-nonylphenyl)[1]benzothieno[2''',3''':4'',5'']thieno[2'',3'':4',5']pentaleno[2',1':4,5]thieno[3,2-b][1]benzothiophene
_symmetry_cell_setting           monoclinic
_symmetry_space_group_name_H-M   'P 21/n'
_symmetry_Int_Tables_number      14
_space_group_name_Hall           '-P 2yn'
loop_
_symmetry_equiv_pos_site_id
_symmetry_equiv_pos_as_xyz
1 x,y,z
2 1/2-x,1/2+y,1/2-z
3 -x,-y,-z
4 1/2+x,1/2-y,1/2+z
_cell_length_a                   15.3716(3)
_cell_length_b                   7.3070(2)
_cell_length_c                   39.5565(7)
_cell_angle_alpha                90
_cell_angle_beta                 92.696(2)
_cell_angle_gamma                90
_cell_volume                     4438.08
_exptl_crystal_colour            black
_exptl_crystal_description       prism
_cell_formula_units_Z            4
_chemical_properties_physical    'Air-sensitive, Light-sensitive'
loop_
_atom_site_label
_atom_site_type_symbol
_atom_site_fract_x
_atom_site_fract_y
_atom_site_fract_z
S1 S 0.76560(11) 0.2854(3) 0.00844(5)
S2 S 0.95887(11) 0.2116(3) -0.06094(5)
S3 S 1.23508(11) 0.2785(3) 0.08155(4)
S4 S 1.42555(11) 0.1925(3) 0.01139(5)
C1 C 0.7121(5) 0.2651(11) -0.0322(2)
C2 C 0.6252(5) 0.2777(12) -0.0391(2)
H1 H 0.5878 0.3013 -0.0218
C3 C 0.5926(5) 0.2552(13) -0.0718(3)
H2 H 0.5330 0.2597 -0.0768
C4 C 0.6499(6) 0.2259(12) -0.0970(2)
H3 H 0.6277 0.2115 -0.1191
C5 C 0.7379(6) 0.2172(11) -0.0908(2)
H4 H 0.7744 0.1978 -0.1085
C6 C 0.7733(5) 0.2377(11) -0.0574(2)
C7 C 0.8599(4) 0.2381(10) -0.04361(19)
C8 C 1.0119(4) 0.2318(10) -0.02166(18)
C9 C 1.1006(4) 0.2234(9) -0.00753(17)
C10 C 1.1842(4) 0.2141(10) -0.01544(18)
C11 C 1.2382(5) 0.2308(10) 0.01641(18)
C12 C 1.3256(4) 0.2240(9) 0.02721(18)
C13 C 1.4805(5) 0.2174(11) 0.0517(2)
C14 C 1.5683(5) 0.2065(11) 0.0583(2)
H5 H 1.6055 0.1780 0.0412
C15 C 1.6008(5) 0.2384(12) 0.0907(3)
H6 H 1.6606 0.2368 0.0954
C16 C 1.5447(6) 0.2728(11) 0.1161(2)
H7 H 1.5674 0.2902 0.1380
C17 C 1.4566(6) 0.2819(12) 0.1099(2)
H8 H 1.4203 0.3075 0.1274
C18 C 1.4216(4) 0.2534(10) 0.0777(2)
C19 C 1.3337(5) 0.2553(10) 0.06410(18)
C20 C 1.1823(4) 0.2542(10) 0.04272(18)
C21 C 1.0933(4) 0.2517(10) 0.02892(18)
C22 C 1.0084(4) 0.2734(10) 0.03632(18)
C23 C 0.9551(4) 0.2620(10) 0.00416(17)
C24 C 0.8677(4) 0.2665(9) -0.00666(19)
C25 C 0.9739(4) 0.3107(10) 0.07065(17)
C26 C 1.0186(4) 0.2433(11) 0.09928(18)
H9 H 1.0686 0.1733 0.0972
C27 C 0.9883(5) 0.2812(11) 0.13153(19)
H10 H 1.0201 0.2427 0.1508
C28 C 0.9123(5) 0.3742(12) 0.1346(2)
C29 C 0.8674(5) 0.4370(11) 0.1060(2)
H11 H 0.8161 0.5029 0.1079
C30 C 0.8981(4) 0.4025(10) 0.07438(18)
H12 H 0.8663 0.4430 0.0552
C31 C 0.8793(5) 0.4208(12) 0.16956(17)
H13 H 0.9220 0.3787 0.1867
H14 H 0.8755 0.5528 0.1715
C32 C 0.7938(5) 0.3417(12) 0.17700(18)
H15 H 0.7982 0.2093 0.1767
H16 H 0.7514 0.3774 0.1593
C33 C 0.7615(5) 0.4029(13) 0.21133(19)
H17 H 0.8043 0.3675 0.2289
H18 H 0.7575 0.5353 0.2115
C34 C 0.6760(5) 0.3262(13) 0.21968(19)
H19 H 0.6805 0.1938 0.2202
H20 H 0.6336 0.3582 0.2017
C35 C 0.6417(5) 0.3913(13) 0.25350(18)
H21 H 0.6849 0.3641 0.2715
H22 H 0.6342 0.5231 0.2527
C36 C 0.5570(5) 0.3047(13) 0.26191(19)
H23 H 0.5642 0.1728 0.2617
H24 H 0.5136 0.3357 0.2442
C37 C 0.5224(6) 0.3601(13) 0.2958(2)
H25 H 0.5668 0.3356 0.3135
H26 H 0.5114 0.4908 0.2956
C38 C 0.4394(10) 0.261(2) 0.3043(4)
H27 H 0.3921 0.3028 0.2891
H28 H 0.4470 0.1307 0.3004
C39 C 0.4151(13) 0.291(2) 0.3405(4)
H29 H 0.3606 0.2315 0.3441
H30 H 0.4096 0.4196 0.3447
H31 H 0.4595 0.2404 0.3556
C40 C 1.2202(4) 0.1991(10) -0.05019(18)
C41 C 1.1748(4) 0.0966(10) -0.0752(2)
H32 H 1.1226 0.0395 -0.0706
C42 C 1.2090(5) 0.0818(10) -0.10690(19)
H33 H 1.1790 0.0138 -0.1236
C43 C 1.2855(5) 0.1644(11) -0.11432(19)
C44 C 1.3288(4) 0.2697(11) -0.08987(18)
H34 H 1.3794 0.3318 -0.0948
C45 C 1.2959(4) 0.2823(10) -0.05771(17)
H35 H 1.3264 0.3492 -0.0410
C46 C 1.3194(5) 0.1431(12) -0.14978(17)
H36 H 1.3170 0.0142 -0.1556
H37 H 1.2796 0.2065 -0.1655
C47 C 1.4076(5) 0.2088(12) -0.15544(17)
H38 H 1.4476 0.1513 -0.1390
H39 H 1.4094 0.3396 -0.1513
C48 C 1.4397(5) 0.1723(13) -0.19088(18)
H40 H 1.4412 0.0409 -0.1943
H41 H 1.3972 0.2220 -0.2073
C49 C 1.5259(6) 0.2471(15) -0.1984(2)
H42 H 1.5683 0.2024 -0.1814
H43 H 1.5238 0.3792 -0.1963
C50 C 1.5571(5) 0.2000(15) -0.2327(2)
H44 H 1.5636 0.0682 -0.2341
H45 H 1.5123 0.2354 -0.2496
C51 C 1.6408(6) 0.2863(16) -0.2418(2)
H46 H 1.6852 0.2562 -0.2245
H47 H 1.6336 0.4182 -0.2418
C52 C 1.6737(6) 0.2266(17) -0.2769(2)
H48 H 1.6552 0.1002 -0.2795
H49 H 1.6381 0.2955 -0.2933
C53 C 1.7531(11) 0.326(4) -0.2867(5)
H50 H 1.7405 0.4564 -0.2869
H51 H 1.7989 0.3052 -0.2695
C54 C 1.7861(14) 0.275(5) -0.3201(4)
H52 H 1.8372 0.3454 -0.3243
H53 H 1.7421 0.2988 -0.3376
H54 H 1.8005 0.1470 -0.3201
C55? C 0.466(7) 0.212(12) 0.310(5)
H55? H 0.4619 0.1116 0.2941
H56? H 0.4950 0.1656 0.3308
C56? C 0.374(7) 0.27(2) 0.318(4)
H57? H 0.3385 0.1600 0.3199
H58? H 0.3502 0.3457 0.3008
H59? H 0.3756 0.3315 0.3396
C57? C 1.763(3) 0.231(19) -0.290(2)
H60? H 1.7840 0.3555 -0.2917
H61? H 1.8033 0.1605 -0.2758
C58? C 1.750(7) 0.146(16) -0.3241(17)
H62? H 1.8041 0.1417 -0.3349
H63? H 1.7087 0.2179 -0.3376
H64? H 1.7273 0.0243 -0.3218
loop_
_geom_bond_atom_site_label_1
_geom_bond_atom_site_label_2
_geom_bond_site_symmetry_1
_geom_bond_site_symmetry_2
S1 C1 1_555 1_555
S2 C7 1_555 1_555
S3 C19 1_555 1_555
S4 C12 1_555 1_555
C1 C2 1_555 1_555
C2 H1 1_555 1_555
C3 C2 1_555 1_555
H2 C3 1_555 1_555
C4 C3 1_555 1_555
H3 C4 1_555 1_555
C5 C4 1_555 1_555
H4 C5 1_555 1_555
C6 C1 1_555 1_555
C7 C6 1_555 1_555
C8 S2 1_555 1_555
C9 C8 1_555 1_555
C10 C9 1_555 1_555
C11 C10 1_555 1_555
C12 C11 1_555 1_555
C13 S4 1_555 1_555
C14 C13 1_555 1_555
H5 C14 1_555 1_555
C15 C14 1_555 1_555
H6 C15 1_555 1_555
C16 C15 1_555 1_555
H7 C16 1_555 1_555
C17 C16 1_555 1_555
H8 C17 1_555 1_555
C18 C13 1_555 1_555
C19 C12 1_555 1_555
C20 S3 1_555 1_555
C21 C9 1_555 1_555
C22 C21 1_555 1_555
C23 C8 1_555 1_555
C24 S1 1_555 1_555
C25 C22 1_555 1_555
C26 C25 1_555 1_555
H9 C26 1_555 1_555
C27 C26 1_555 1_555
H10 C27 1_555 1_555
C28 C27 1_555 1_555
C29 C28 1_555 1_555
H11 C29 1_555 1_555
C30 C25 1_555 1_555
H12 C30 1_555 1_555
C31 C28 1_555 1_555
H13 C31 1_555 1_555
H14 C31 1_555 1_555
C32 C31 1_555 1_555
H15 C32 1_555 1_555
H16 C32 1_555 1_555
C33 C32 1_555 1_555
H17 C33 1_555 1_555
H18 C33 1_555 1_555
C34 C33 1_555 1_555
H19 C34 1_555 1_555
H20 C34 1_555 1_555
C35 C34 1_555 1_555
H21 C35 1_555 1_555
H22 C35 1_555 1_555
C36 C35 1_555 1_555
H23 C36 1_555 1_555
H24 C36 1_555 1_555
C37 C36 1_555 1_555
H25 C37 1_555 1_555
H26 C37 1_555 1_555
C38 C37 1_555 1_555
H27 C38 1_555 1_555
H28 C38 1_555 1_555
C39 C38 1_555 1_555
H29 C39 1_555 1_555
H30 C39 1_555 1_555
H31 C39 1_555 1_555
C40 C10 1_555 1_555
C41 C40 1_555 1_555
H32 C41 1_555 1_555
C42 C41 1_555 1_555
H33 C42 1_555 1_555
C43 C42 1_555 1_555
C44 C43 1_555 1_555
H34 C44 1_555 1_555
C45 C40 1_555 1_555
H35 C45 1_555 1_555
C46 C43 1_555 1_555
H36 C46 1_555 1_555
H37 C46 1_555 1_555
C47 C46 1_555 1_555
H38 C47 1_555 1_555
H39 C47 1_555 1_555
C48 C47 1_555 1_555
H40 C48 1_555 1_555
H41 C48 1_555 1_555
C49 C48 1_555 1_555
H42 C49 1_555 1_555
H43 C49 1_555 1_555
C50 C49 1_555 1_555
H44 C50 1_555 1_555
H45 C50 1_555 1_555
C51 C50 1_555 1_555
H46 C51 1_555 1_555
H47 C51 1_555 1_555
C52 C51 1_555 1_555
H48 C52 1_555 1_555
H49 C52 1_555 1_555
C53 C52 1_555 1_555
H50 C53 1_555 1_555
H51 C53 1_555 1_555
C54 C53 1_555 1_555
H52 C54 1_555 1_555
H53 C54 1_555 1_555
H54 C54 1_555 1_555
C5 C6 1_555 1_555
C7 C24 1_555 1_555
C11 C20 1_555 1_555
C17 C18 1_555 1_555
C18 C19 1_555 1_555
C20 C21 1_555 1_555
C22 C23 1_555 1_555
C23 C24 1_555 1_555
C29 C30 1_555 1_555
C44 C45 1_555 1_555

#END
