
#######################################################################
#
#                 Cambridge Crystallographic Data Centre
#                                CCDC 
#
#######################################################################
#
# If this CIF has been generated from an entry in the Cambridge 
# Structural Database, then it will include bibliographic, chemical, 
# crystal, experimental, refinement or atomic coordinate data resulting 
# from the CCDC's data processing and validation procedures.
#
#######################################################################

data_KOXPHY10
_chemical_formula_moiety         'C2 O4 2-,2(K1 1+),H2 O2'
_chemical_name_systematic        'Dipotassium oxalate monoperhydrate'
_symmetry_cell_setting           monoclinic
_symmetry_space_group_name_H-M   'C 2/c'
_symmetry_Int_Tables_number      15
_space_group_name_Hall           '-C 2yn'
loop_
_symmetry_equiv_pos_site_id
_symmetry_equiv_pos_as_xyz
1 x,y,z
2 1/2+x,1/2+y,z
3 -x,y,1/2-z
4 1/2-x,1/2+y,1/2-z
5 -x,-y,-z
6 1/2-x,1/2-y,-z
7 x,-y,1/2+z
8 1/2+x,1/2-y,1/2+z
_cell_length_a                   8.969
_cell_length_b                   6.532
_cell_length_c                   10.955
_cell_angle_alpha                90
_cell_angle_beta                 108.40
_cell_angle_gamma                90
_cell_volume                     608.993
_cell_formula_units_Z            4
loop_
_atom_site_label
_atom_site_type_symbol
_atom_site_fract_x
_atom_site_fract_y
_atom_site_fract_z
C1 C 0.22850 0.31860 0.04990
O1 O 0.30420 0.47450 0.09060
O2 O 0.11520 0.25200 0.08560
C1E C 0.27150 0.18140 -0.04990
O1E O 0.19580 0.02550 -0.09060
O2E O 0.38480 0.24800 -0.08560
K1 K 0.36140 0.34140 0.36470
O3 O 0.45510 -0.00320 0.18260
O3B O 0.54490 -0.00320 0.31740
loop_
_geom_bond_atom_site_label_1
_geom_bond_atom_site_label_2
_geom_bond_site_symmetry_1
_geom_bond_site_symmetry_2
C1 O1 1_555 1_555
O2 C1 1_555 1_555
O3 O3B 1_555 1_555
C1E C1 1_555 1_555
O1E C1E 1_555 1_555
O2E C1E 1_555 1_555

#END
