
#######################################################################
#
#                 Cambridge Crystallographic Data Centre
#                                CCDC 
#
#######################################################################
#
# If this CIF has been generated from an entry in the Cambridge 
# Structural Database, then it will include bibliographic, chemical, 
# crystal, experimental, refinement or atomic coordinate data resulting 
# from the CCDC's data processing and validation procedures.
#
#######################################################################

data_KOZROI
_chemical_name_common            7-hexyl-7-monoaza[6]helicene
_chemical_formula_moiety         'C30 H27 N1'
_chemical_name_systematic        7-hexyl-7H-phenanthro[3,4-c]carbazole
_symmetry_cell_setting           monoclinic
_symmetry_space_group_name_H-M   'P 21/c'
_symmetry_Int_Tables_number      14
_space_group_name_Hall           '-P 2ybc'
loop_
_symmetry_equiv_pos_site_id
_symmetry_equiv_pos_as_xyz
1 x,y,z
2 -x,1/2+y,1/2-z
3 -x,-y,-z
4 x,1/2-y,1/2+z
_cell_length_a                   12.919(4)
_cell_length_b                   9.577(3)
_cell_length_c                   17.878(6)
_cell_angle_alpha                90
_cell_angle_beta                 93.149(5)
_cell_angle_gamma                90
_cell_volume                     2208.62
_exptl_crystal_colour            'pale yellow'
_exptl_crystal_description       plate
_cell_formula_units_Z            4
_exptl_crystal_preparation       Luminescent
loop_
_atom_site_label
_atom_site_type_symbol
_atom_site_fract_x
_atom_site_fract_y
_atom_site_fract_z
N1 N 0.45868(17) 0.5047(2) 0.12934(14)
C1 C 0.1965(5) 0.3830(6) 0.4012(3)
H1 H 0.2486 0.4540 0.4086
H2 H 0.1915 0.3307 0.4467
H3 H 0.1309 0.4259 0.3879
C2 C 0.2234(3) 0.2942(6) 0.3443(3)
H4 H 0.2505 0.2059 0.3543
C3 C 0.2063(2) 0.3479(4) 0.2654(2)
H5 H 0.2010 0.2680 0.2321
H6 H 0.1399 0.3954 0.2617
C4 C 0.2864(2) 0.4454(4) 0.2367(2)
H7 H 0.2823 0.5341 0.2626
H8 H 0.3548 0.4067 0.2483
C5 C 0.2731(2) 0.4707(4) 0.15313(19)
H9 H 0.2052 0.5112 0.1418
H10 H 0.2753 0.3816 0.1275
C6 C 0.3551(2) 0.5669(4) 0.1225(2)
H11 H 0.3372 0.5865 0.0701
H12 H 0.3556 0.6546 0.1495
C7 C 0.5301(2) 0.5251(3) 0.18702(18)
C8 C 0.61717(19) 0.4353(3) 0.17976(14)
C9 C 0.6978(2) 0.4336(3) 0.23728(14)
C10 C 0.7955(2) 0.3599(3) 0.23517(15)
C11 C 0.85075(19) 0.3349(3) 0.16745(16)
C12 C 0.9366(2) 0.2416(3) 0.1708(2)
C13 C 0.9926(2) 0.2233(4) 0.1058(3)
H13 H 1.0471 0.1598 0.1067
C14 C 0.9690(2) 0.2952(5) 0.0426(2)
H14 H 1.0070 0.2806 0.0005
C15 C 0.58996(18) 0.3510(3) 0.11536(13)
C16 C 0.4915(2) 0.3969(3) 0.08530(15)
C17 C 0.4412(2) 0.3357(3) 0.02346(16)
H15 H 0.3781 0.3703 0.0039
C18 C 0.4868(2) 0.2228(4) -0.00812(16)
H16 H 0.4549 0.1805 -0.0502
C19 C 0.5799(2) 0.1709(3) 0.02185(15)
H17 H 0.6080 0.0917 0.0007
C20 C 0.63204(19) 0.2331(3) 0.08198(14)
H18 H 0.6952 0.1971 0.1005
C21 C 0.6781(3) 0.5056(3) 0.30543(17)
C22 C 0.7397(3) 0.4786(5) 0.37008(19)
H19 H 0.7278 0.5284 0.4134
C23 C 0.8159(3) 0.3830(5) 0.37199(19)
H20 H 0.8487 0.3573 0.4175
C24 C 0.8463(2) 0.3207(4) 0.30362(18)
C25 C 0.9303(3) 0.2250(4) 0.3040(3)
H21 H 0.9581 0.1916 0.3497
C26 C 0.9704(3) 0.1816(4) 0.2411(3)
H22 H 1.0206 0.1120 0.2428
C27 C 0.82904(19) 0.4098(3) 0.10118(15)
H23 H 0.7742 0.4729 0.0985
C28 C 0.8880(2) 0.3914(4) 0.03966(18)
H24 H 0.8736 0.4433 -0.0036
C29 C 0.5908(3) 0.5962(4) 0.3077(2)
H25 H 0.5818 0.6471 0.3512
C30 C 0.5217(3) 0.6111(4) 0.2503(2)
H26 H 0.4689 0.6770 0.2519
loop_
_geom_bond_atom_site_label_1
_geom_bond_atom_site_label_2
_geom_bond_site_symmetry_1
_geom_bond_site_symmetry_2
N1 C6 1_555 1_555
C1 H1 1_555 1_555
H2 C1 1_555 1_555
H3 C1 1_555 1_555
C2 C1 1_555 1_555
H4 C2 1_555 1_555
C3 C2 1_555 1_555
H5 C3 1_555 1_555
H6 C3 1_555 1_555
C4 C3 1_555 1_555
H7 C4 1_555 1_555
H8 C4 1_555 1_555
C5 C4 1_555 1_555
H9 C5 1_555 1_555
H10 C5 1_555 1_555
C6 C5 1_555 1_555
H11 C6 1_555 1_555
H12 C6 1_555 1_555
C7 N1 1_555 1_555
C8 C7 1_555 1_555
C9 C8 1_555 1_555
C10 C9 1_555 1_555
C11 C10 1_555 1_555
C12 C11 1_555 1_555
C13 C12 1_555 1_555
H13 C13 1_555 1_555
C14 C13 1_555 1_555
H14 C14 1_555 1_555
C15 C8 1_555 1_555
C16 N1 1_555 1_555
C17 C16 1_555 1_555
H15 C17 1_555 1_555
C18 C17 1_555 1_555
H16 C18 1_555 1_555
C19 C18 1_555 1_555
H17 C19 1_555 1_555
C20 C15 1_555 1_555
H18 C20 1_555 1_555
C21 C9 1_555 1_555
C22 C21 1_555 1_555
H19 C22 1_555 1_555
C23 C22 1_555 1_555
H20 C23 1_555 1_555
C24 C10 1_555 1_555
C25 C24 1_555 1_555
H21 C25 1_555 1_555
C26 C12 1_555 1_555
H22 C26 1_555 1_555
C27 C11 1_555 1_555
H23 C27 1_555 1_555
C28 C14 1_555 1_555
H24 C28 1_555 1_555
C29 C21 1_555 1_555
H25 C29 1_555 1_555
C30 C7 1_555 1_555
H26 C30 1_555 1_555
C15 C16 1_555 1_555
C19 C20 1_555 1_555
C23 C24 1_555 1_555
C25 C26 1_555 1_555
C27 C28 1_555 1_555
C29 C30 1_555 1_555

#END
