
#######################################################################
#
#                 Cambridge Crystallographic Data Centre
#                                CCDC 
#
#######################################################################
#
# If this CIF has been generated from an entry in the Cambridge 
# Structural Database, then it will include bibliographic, chemical, 
# crystal, experimental, refinement or atomic coordinate data resulting 
# from the CCDC's data processing and validation procedures.
#
#######################################################################

data_KUBFAQ
_chemical_formula_moiety         'C26 H34 Br2 N2'
_chemical_name_systematic        
1,2-bis(4-bromophenyl)-N,N'-dicyclohexylethane-1,2-diamine
_symmetry_cell_setting           triclinic
_symmetry_space_group_name_H-M   'P -1'
_symmetry_Int_Tables_number      2
_space_group_name_Hall           '-P 1'
loop_
_symmetry_equiv_pos_site_id
_symmetry_equiv_pos_as_xyz
1 x,y,z
2 -x,-y,-z
_cell_length_a                   5.9858(5)
_cell_length_b                   10.0355(12)
_cell_length_c                   10.1711(12)
_cell_angle_alpha                93.862(10)
_cell_angle_beta                 91.455(9)
_cell_angle_gamma                96.575(9)
_cell_volume                     605.248
_exptl_crystal_colour            colorless
_exptl_crystal_description       block
_cell_formula_units_Z            1
loop_
_atom_site_label
_atom_site_type_symbol
_atom_site_fract_x
_atom_site_fract_y
_atom_site_fract_z
Br1 Br 1.03383(6) 1.25062(4) 0.00313(3)
N1 N 0.6217(4) 0.8387(2) 0.4661(2)
H1 H 0.6761 0.8292 0.5457
C1 C 0.5070(4) 0.9555(3) 0.4355(3)
H2 H 0.3512 0.9233 0.4006
C2 C 0.8700(5) 1.1655(3) 0.1384(3)
C3 C 0.6399(4) 0.7389(3) 0.3556(3)
H3 H 0.7280 0.7847 0.2858
C4 C 0.5315(5) 1.0477(3) 0.2104(3)
H4 H 0.3787 1.0119 0.1937
C5 C 0.6474(5) 1.1145(3) 0.1135(3)
H5 H 0.5751 1.1250 0.0313
C6 C 0.8580(5) 1.0873(3) 0.3546(3)
H6 H 0.9304 1.0791 0.4374
C7 C 0.4454(5) 0.5691(3) 0.1815(3)
H7 H 0.2963 0.5275 0.1460
H8 H 0.5261 0.6130 0.1093
C8 C 0.6340(4) 1.0321(2) 0.3315(3)
C9 C 0.9759(5) 1.1542(3) 0.2577(3)
H9 H 1.1280 1.1917 0.2740
C10 C 0.7725(5) 0.6297(3) 0.4043(3)
H10 H 0.6921 0.5867 0.4771
H11 H 0.9219 0.6713 0.4395
C11 C 0.4138(5) 0.6752(3) 0.2932(3)
H12 H 0.3323 0.7462 0.2580
H13 H 0.3212 0.6326 0.3617
C12 C 0.8044(6) 0.5221(3) 0.2945(3)
H14 H 0.8814 0.4502 0.3316
H15 H 0.9009 0.5628 0.2267
C13 C 0.5778(6) 0.4611(3) 0.2304(4)
H16 H 0.6042 0.3972 0.1554
H17 H 0.4890 0.4104 0.2954
Br1A Br -0.03383(6) 0.74938(4) 0.99687(3)
N1A N 0.3783(4) 1.1613(2) 0.5339(2)
H1A H 0.3239 1.1708 0.4543
C1A C 0.4930(4) 1.0445(3) 0.5645(3)
H2A H 0.6488 1.0767 0.5994
C2A C 0.1300(5) 0.8345(3) 0.8616(3)
C3A C 0.3601(4) 1.2611(3) 0.6444(3)
H3A H 0.2720 1.2153 0.7142
C4A C 0.4685(5) 0.9523(3) 0.7896(3)
H4A H 0.6213 0.9881 0.8063
C5A C 0.3526(5) 0.8855(3) 0.8865(3)
H5A H 0.4249 0.8750 0.9687
C6A C 0.1420(5) 0.9127(3) 0.6454(3)
H6A H 0.0696 0.9209 0.5626
C7A C 0.5546(5) 1.4309(3) 0.8185(3)
H7A H 0.7037 1.4725 0.8540
H8A H 0.4739 1.3870 0.8907
C8A C 0.3660(4) 0.9679(2) 0.6685(3)
C9A C 0.0241(5) 0.8458(3) 0.7423(3)
H9A H -0.1280 0.8083 0.7260
C10A C 0.2275(5) 1.3703(3) 0.5957(3)
H10A H 0.3079 1.4133 0.5229
H11A H 0.0781 1.3287 0.5605
C11A C 0.5862(5) 1.3248(3) 0.7068(3)
H12A H 0.6677 1.2538 0.7420
H13A H 0.6788 1.3674 0.6383
C12A C 0.1956(6) 1.4779(3) 0.7055(3)
H14A H 0.1186 1.5498 0.6684
H15A H 0.0991 1.4372 0.7733
C13A C 0.4222(6) 1.5389(3) 0.7696(4)
H16A H 0.3958 1.6028 0.8446
H17A H 0.5110 1.5896 0.7046
loop_
_geom_bond_atom_site_label_1
_geom_bond_atom_site_label_2
_geom_bond_site_symmetry_1
_geom_bond_site_symmetry_2
Br1 C2 1_555 1_555
N1 H1 1_555 1_555
C1 N1 1_555 1_555
H2 C1 1_555 1_555
C2 C5 1_555 1_555
C3 N1 1_555 1_555
H3 C3 1_555 1_555
C4 H4 1_555 1_555
C5 C4 1_555 1_555
H5 C5 1_555 1_555
C6 H6 1_555 1_555
C7 H7 1_555 1_555
H8 C7 1_555 1_555
C8 C1 1_555 1_555
C9 C2 1_555 1_555
H9 C9 1_555 1_555
C10 C3 1_555 1_555
H10 C10 1_555 1_555
H11 C10 1_555 1_555
C11 C3 1_555 1_555
H12 C11 1_555 1_555
H13 C11 1_555 1_555
C12 C10 1_555 1_555
H14 C12 1_555 1_555
H15 C12 1_555 1_555
C13 C7 1_555 1_555
H16 C13 1_555 1_555
H17 C13 1_555 1_555
Br1A C2A 1_555 1_555
N1A H1A 1_555 1_555
C1A C1 1_555 1_555
H2A C1A 1_555 1_555
C2A C5A 1_555 1_555
C3A N1A 1_555 1_555
H3A C3A 1_555 1_555
C4A H4A 1_555 1_555
C5A C4A 1_555 1_555
H5A C5A 1_555 1_555
C6A H6A 1_555 1_555
C7A H7A 1_555 1_555
H8A C7A 1_555 1_555
C8A C1A 1_555 1_555
C9A C2A 1_555 1_555
H9A C9A 1_555 1_555
C10A C3A 1_555 1_555
H10A C10A 1_555 1_555
H11A C10A 1_555 1_555
C11A C3A 1_555 1_555
H12A C11A 1_555 1_555
H13A C11A 1_555 1_555
C12A C10A 1_555 1_555
H14A C12A 1_555 1_555
H15A C12A 1_555 1_555
C13A C7A 1_555 1_555
H16A C13A 1_555 1_555
H17A C13A 1_555 1_555
C4 C8 1_555 1_555
C6 C8 1_555 1_555
C6 C9 1_555 1_555
C7 C11 1_555 1_555
C12 C13 1_555 1_555
N1A C1A 1_555 1_555
C4A C8A 1_555 1_555
C6A C8A 1_555 1_555
C6A C9A 1_555 1_555
C7A C11A 1_555 1_555
C12A C13A 1_555 1_555

#END
