
#######################################################################
#
#                 Cambridge Crystallographic Data Centre
#                                CCDC 
#
#######################################################################
#
# If this CIF has been generated from an entry in the Cambridge 
# Structural Database, then it will include bibliographic, chemical, 
# crystal, experimental, refinement or atomic coordinate data resulting 
# from the CCDC's data processing and validation procedures.
#
#######################################################################

data_KUBLUO
_chemical_formula_moiety         'C25 H27 O6 1+,B1 F4 1-'
_chemical_name_systematic        
'tris(2,6-Dimethoxyphenyl)methyl tetrafluoroborate'
_symmetry_cell_setting           triclinic
_symmetry_space_group_name_H-M   'P -1'
_symmetry_Int_Tables_number      2
_space_group_name_Hall           '-P 1'
loop_
_symmetry_equiv_pos_site_id
_symmetry_equiv_pos_as_xyz
1 x,y,z
2 -x,-y,-z
_cell_length_a                   7.214(5)
_cell_length_b                   12.931(4)
_cell_length_c                   13.633(3)
_cell_angle_alpha                83.13(2)
_cell_angle_beta                 77.70(3)
_cell_angle_gamma                80.56(4)
_cell_volume                     1220.99
_cell_formula_units_Z            2
loop_
_atom_site_label
_atom_site_type_symbol
_atom_site_fract_x
_atom_site_fract_y
_atom_site_fract_z
C1 C 0.8591(4) 0.7456(2) 0.7626(2)
O1 O 1.0832(3) 0.5854(1) 0.8561(1)
O2 O 0.5769(2) 0.6873(1) 0.6799(1)
O3 O 1.1496(2) 0.8571(1) 0.7706(1)
O4 O 0.5931(3) 0.7186(1) 0.9383(1)
O5 O 1.0211(3) 0.6716(1) 0.5759(1)
O6 O 0.7445(3) 0.9616(1) 0.7615(1)
C2 C 0.8308(4) 0.6359(2) 0.7670(2)
C3 C 0.9479(4) 0.5547(2) 0.8146(2)
C4 C 0.9275(4) 0.4498(2) 0.8140(2)
C5 C 0.7915(4) 0.4255(2) 0.7661(2)
C6 C 0.6695(4) 0.5030(2) 0.7206(2)
C7 C 0.6912(4) 0.6067(2) 0.7202(2)
C8 C 1.2214(4) 0.5041(2) 0.8910(2)
C9 C 0.4320(4) 0.6626(2) 0.6317(2)
C10 C 0.8765(4) 0.7837(2) 0.8565(2)
C11 C 1.0300(4) 0.8388(2) 0.8600(2)
C12 C 1.0541(4) 0.8677(2) 0.9506(2)
C13 C 0.9256(4) 0.8419(2) 1.0385(2)
C14 C 0.7716(4) 0.7910(2) 1.0382(2)
C15 C 0.7473(4) 0.7629(2) 0.9472(2)
C16 C 1.3168(4) 0.9035(2) 0.7711(2)
C17 C 0.4488(4) 0.7028(2) 1.0258(2)
C18 C 0.8656(4) 0.8113(2) 0.6719(2)
C19 C 0.9267(4) 0.7698(2) 0.5746(2)
C20 C 0.8989(4) 0.8302(2) 0.4874(2)
C21 C 0.8091(4) 0.9329(2) 0.4941(2)
C22 C 0.7575(4) 0.9808(2) 0.5838(2)
C23 C 0.7901(4) 0.9222(2) 0.6709(2)
C24 C 1.1011(4) 0.6265(2) 0.4816(2)
C25 C 0.6686(5) 1.0712(2) 0.7669(2)
H1 H 1.011 0.393 0.848
H2 H 0.782 0.350 0.764
H3 H 0.565 0.483 0.689
H4 H 1.314 0.536 0.919
H5 H 1.156 0.455 0.943
H6 H 1.296 0.464 0.832
H7 H 0.357 0.727 0.606
H8 H 0.495 0.618 0.574
H9 H 0.343 0.619 0.681
H10 H 1.163 0.907 0.952
H11 H 0.948 0.862 1.104
H12 H 0.678 0.775 1.102
H13 H 1.392 0.913 0.699
H14 H 1.282 0.973 0.798
H15 H 1.402 0.856 0.812
H16 H 0.345 0.669 1.008
H17 H 0.507 0.654 1.078
H18 H 0.392 0.771 1.053
H19 H 0.945 0.800 0.419
H20 H 0.777 0.976 0.432
H21 H 0.700 1.057 0.584
H22 H 1.170 0.553 0.494
H23 H 1.000 0.624 0.443
H24 H 1.199 0.670 0.439
H25 H 0.640 1.088 0.841
H26 H 0.760 1.117 0.727
H27 H 0.544 1.087 0.743
F1 F 0.4731(2) 0.2961(1) 0.7397(1)
F2 F 0.4924(2) 0.2215(1) 0.5947(1)
F3 F 0.2166(2) 0.2304(1) 0.7131(1)
F4 F 0.3067(3) 0.3797(1) 0.6215(1)
B1 B 0.3713(5) 0.2822(2) 0.6658(2)
loop_
_geom_bond_atom_site_label_1
_geom_bond_atom_site_label_2
_geom_bond_site_symmetry_1
_geom_bond_site_symmetry_2
C1 C2 1_555 1_555
O1 C3 1_555 1_555
O2 C7 1_555 1_555
O3 C11 1_555 1_555
O4 C15 1_555 1_555
O5 C19 1_555 1_555
O6 C23 1_555 1_555
C2 C3 1_555 1_555
C3 C4 1_555 1_555
C4 C5 1_555 1_555
C5 C6 1_555 1_555
C6 C7 1_555 1_555
C7 C2 1_555 1_555
C8 O1 1_555 1_555
C9 O2 1_555 1_555
C10 C1 1_555 1_555
C11 C10 1_555 1_555
C12 C11 1_555 1_555
C13 C12 1_555 1_555
C14 C13 1_555 1_555
C15 C10 1_555 1_555
C16 O3 1_555 1_555
C17 O4 1_555 1_555
C18 C1 1_555 1_555
C19 C18 1_555 1_555
C20 C19 1_555 1_555
C21 C20 1_555 1_555
C22 C21 1_555 1_555
C23 C18 1_555 1_555
C24 O5 1_555 1_555
C25 O6 1_555 1_555
F1 B1 1_555 1_555
F2 B1 1_555 1_555
F3 B1 1_555 1_555
F4 B1 1_555 1_555
H1 C4 1_555 1_555
H2 C5 1_555 1_555
H3 C6 1_555 1_555
H4 C8 1_555 1_555
H5 C8 1_555 1_555
H6 C8 1_555 1_555
H7 C9 1_555 1_555
H8 C9 1_555 1_555
H9 C9 1_555 1_555
H10 C12 1_555 1_555
H11 C13 1_555 1_555
H12 C14 1_555 1_555
H13 C16 1_555 1_555
H14 C16 1_555 1_555
H15 C16 1_555 1_555
H16 C17 1_555 1_555
H17 C17 1_555 1_555
H18 C17 1_555 1_555
H19 C20 1_555 1_555
H20 C21 1_555 1_555
H21 C22 1_555 1_555
H22 C24 1_555 1_555
H23 C24 1_555 1_555
H24 C24 1_555 1_555
H25 C25 1_555 1_555
H26 C25 1_555 1_555
H27 C25 1_555 1_555
C14 C15 1_555 1_555
C22 C23 1_555 1_555

#END
