
#######################################################################
#
#                 Cambridge Crystallographic Data Centre
#                                CCDC 
#
#######################################################################
#
# If this CIF has been generated from an entry in the Cambridge 
# Structural Database, then it will include bibliographic, chemical, 
# crystal, experimental, refinement or atomic coordinate data resulting 
# from the CCDC's data processing and validation procedures.
#
#######################################################################

data_KUBLOI
_chemical_formula_moiety         'C24 H27 B1 O6'
_chemical_name_systematic        tris(2,6-Dimethoxyphenyl)borane
_symmetry_cell_setting           monoclinic
_symmetry_space_group_name_H-M   'C 2/c'
_symmetry_Int_Tables_number      15
_space_group_name_Hall           '-C 2yn'
loop_
_symmetry_equiv_pos_site_id
_symmetry_equiv_pos_as_xyz
1 x,y,z
2 1/2+x,1/2+y,z
3 -x,y,1/2-z
4 1/2-x,1/2+y,1/2-z
5 -x,-y,-z
6 1/2-x,1/2-y,-z
7 x,-y,1/2+z
8 1/2+x,1/2-y,1/2+z
_cell_length_a                   11.076(5)
_cell_length_b                   20.839(8)
_cell_length_c                   9.944(4)
_cell_angle_alpha                90
_cell_angle_beta                 98.40(3)
_cell_angle_gamma                90
_cell_volume                     2270.58
_cell_formula_units_Z            4
loop_
_atom_site_label
_atom_site_type_symbol
_atom_site_fract_x
_atom_site_fract_y
_atom_site_fract_z
O1 O -0.1768(2) 0.1640(1) 0.4236(3)
O2 O -0.0679(2) 0.0783(1) 0.0287(3)
O3 O -0.0872(3) 0.2303(1) 0.0245(3)
C1 C -0.1238(3) 0.1191(2) 0.2279(3)
C2 C -0.2089(3) 0.1235(2) 0.3162(4)
C3 C -0.3181(3) 0.0887(2) 0.2971(4)
C4 C -0.3414(3) 0.0501(2) 0.1859(4)
C5 C -0.2625(3) 0.0445(2) 0.0930(4)
C6 C -0.1529(3) 0.0796(2) 0.1157(4)
C7 C -0.2448(5) 0.1633(3) 0.5329(5)
C8 C -0.1025(5) 0.0549(3) -0.1045(4)
C9 C 0.0000 0.2324(2) 0.2500
C10 C -0.0450(4) 0.2670(2) 0.1341(4)
C11 C -0.0467(4) 0.3343(2) 0.1343(5)
C12 C 0.0000 0.3652(3) 0.2500
C13 C -0.1235(5) 0.2601(3) -0.1040(5)
B1 B 0.0000 0.1573(3) 0.2500
H1 H -0.374(3) 0.089(2) 0.370(3)
H2 H -0.415(3) 0.025(2) 0.169(3)
H3 H -0.272(3) 0.017(2) 0.013(3)
H4 H -0.212 0.194 0.598
H5 H -0.328 0.173 0.502
H6 H -0.238 0.122 0.573
H7 H -0.035 0.057 -0.153
H8 H -0.129 0.012 -0.101
H9 H -0.167 0.081 -0.149
H10 H -0.076(3) 0.354(2) 0.051(3)
H11 H 0.000 0.410(3) 0.250
H12 H -0.152 0.229 -0.170
H13 H -0.187 0.290 -0.096
H14 H -0.056 0.282 -0.131
C1B C 0.1238(3) 0.1191(2) 0.2721(3)
C10B C 0.0450(4) 0.2670(2) 0.3659(4)
C11B C 0.0467(4) 0.3343(2) 0.3657(5)
C2B C 0.2089(3) 0.1235(2) 0.1838(4)
C6B C 0.1529(3) 0.0796(2) 0.3843(4)
O3B O 0.0872(3) 0.2303(1) 0.4755(3)
H10B H 0.076(3) 0.354(2) 0.449(3)
O1B O 0.1768(2) 0.1640(1) 0.0764(3)
C3B C 0.3181(3) 0.0887(2) 0.2029(4)
O2B O 0.0679(2) 0.0783(1) 0.4713(3)
C5B C 0.2625(3) 0.0445(2) 0.4070(4)
C13B C 0.1235(5) 0.2601(3) 0.6040(5)
C7B C 0.2448(5) 0.1633(3) -0.0329(5)
C4B C 0.3414(3) 0.0501(2) 0.3141(4)
H1B H 0.374(3) 0.089(2) 0.130(3)
C8B C 0.1025(5) 0.0549(3) 0.6045(4)
H3B H 0.272(3) 0.017(2) 0.487(3)
H12B H 0.152 0.229 0.670
H13B H 0.187 0.290 0.596
H14B H 0.056 0.282 0.631
H4B H 0.212 0.194 -0.098
H5B H 0.328 0.173 -0.002
H6B H 0.238 0.122 -0.073
H2B H 0.415(3) 0.025(2) 0.331(3)
H7B H 0.035 0.057 0.653
H8B H 0.129 0.012 0.601
H9B H 0.167 0.081 0.649
loop_
_geom_bond_atom_site_label_1
_geom_bond_atom_site_label_2
_geom_bond_site_symmetry_1
_geom_bond_site_symmetry_2
O1 C2 1_555 1_555
O2 C6 1_555 1_555
O3 C10 1_555 1_555
C1 C2 1_555 1_555
C2 C3 1_555 1_555
C3 C4 1_555 1_555
C4 C5 1_555 1_555
C5 C6 1_555 1_555
C6 C1 1_555 1_555
C7 O1 1_555 1_555
C8 O2 1_555 1_555
C9 C10 1_555 1_555
C10 C11 1_555 1_555
C11 C12 1_555 1_555
C12 H11 1_555 1_555
C13 O3 1_555 1_555
B1 C1 1_555 1_555
H1 C3 1_555 1_555
H2 C4 1_555 1_555
H3 C5 1_555 1_555
H4 C7 1_555 1_555
H5 C7 1_555 1_555
H6 C7 1_555 1_555
H7 C8 1_555 1_555
H8 C8 1_555 1_555
H9 C8 1_555 1_555
H10 C11 1_555 1_555
H12 C13 1_555 1_555
H13 C13 1_555 1_555
H14 C13 1_555 1_555
C1B B1 1_555 1_555
C10B C9 1_555 1_555
C11B C12 1_555 1_555
C2B C1B 1_555 1_555
C6B C1B 1_555 1_555
O3B C10B 1_555 1_555
H10B C11B 1_555 1_555
O1B C2B 1_555 1_555
C3B C2B 1_555 1_555
O2B C6B 1_555 1_555
C5B C6B 1_555 1_555
C13B O3B 1_555 1_555
C7B O1B 1_555 1_555
C4B C3B 1_555 1_555
H1B C3B 1_555 1_555
C8B O2B 1_555 1_555
H3B C5B 1_555 1_555
H12B C13B 1_555 1_555
H13B C13B 1_555 1_555
H14B C13B 1_555 1_555
H4B C7B 1_555 1_555
H5B C7B 1_555 1_555
H6B C7B 1_555 1_555
H2B C4B 1_555 1_555
H7B C8B 1_555 1_555
H8B C8B 1_555 1_555
H9B C8B 1_555 1_555
C9 B1 1_555 1_555
C10B C11B 1_555 1_555
C5B C4B 1_555 1_555

#END
