
#######################################################################
#
#                 Cambridge Crystallographic Data Centre
#                                CCDC 
#
#######################################################################
#
# If this CIF has been generated from an entry in the Cambridge 
# Structural Database, then it will include bibliographic, chemical, 
# crystal, experimental, refinement or atomic coordinate data resulting 
# from the CCDC's data processing and validation procedures.
#
#######################################################################

data_KUBTUW
_chemical_formula_moiety         'C22 H35 B2 N1 O1'
_chemical_name_systematic        
'B-(4-Methylpyridine)-bis(1,5-cyclo-octanediylboryl) oxide'
_symmetry_cell_setting           monoclinic
_symmetry_space_group_name_H-M   'P 21/n'
_symmetry_Int_Tables_number      14
_space_group_name_Hall           '-P 2yn'
loop_
_symmetry_equiv_pos_site_id
_symmetry_equiv_pos_as_xyz
1 x,y,z
2 1/2-x,1/2+y,1/2-z
3 -x,-y,-z
4 1/2+x,1/2-y,1/2+z
_cell_length_a                   7.074(1)
_cell_length_b                   16.015(2)
_cell_length_c                   17.764(2)
_cell_angle_alpha                90
_cell_angle_beta                 96.64(1)
_cell_angle_gamma                90
_cell_volume                     1998.99
_cell_formula_units_Z            4
loop_
_atom_site_label
_atom_site_type_symbol
_atom_site_fract_x
_atom_site_fract_y
_atom_site_fract_z
B1 B 0.7376(4) 0.0918(2) 0.6571(1)
B2 B 0.6663(4) 0.0718(2) 0.7943(2)
O1 O 0.6194(2) 0.0713(1) 0.7187(1)
N1 N 0.8978(3) 0.0171(1) 0.6628(1)
C1 C 0.6106(3) 0.0875(1) 0.5757(1)
C2 C 0.4449(3) 0.1491(2) 0.5777(1)
C3 C 0.4983(3) 0.2382(2) 0.6039(1)
C4 C 0.6562(3) 0.2434(1) 0.6700(1)
C5 C 0.8257(3) 0.1847(1) 0.6634(1)
C6 C 0.9342(3) 0.2087(1) 0.5957(1)
C7 C 0.8349(3) 0.1880(2) 0.5169(1)
C8 C 0.7331(4) 0.1039(2) 0.5117(1)
C9 C 0.8719(4) 0.0799(1) 0.8396(1)
C10 C 0.9162(3) -0.0066(2) 0.8758(1)
C11 C 0.7660(4) -0.0401(2) 0.9235(1)
C12 C 0.5616(4) -0.0308(2) 0.8864(1)
C13 C 0.5133(3) 0.0555(1) 0.8505(1)
C14 C 0.5177(3) 0.1277(1) 0.9080(1)
C15 C 0.7139(4) 0.1502(2) 0.9480(1)
C16 C 0.8719(3) 0.1527(2) 0.8967(1)
C17 C 0.8377(3) -0.0623(1) 0.6542(1)
C18 C 0.9582(3) -0.1290(1) 0.6648(1)
C19 C 1.1522(3) -0.1164(1) 0.6847(1)
C20 C 1.2139(3) -0.0346(1) 0.6910(1)
C21 C 1.0846(3) 0.0297(1) 0.6809(1)
C22 C 1.2883(4) -0.1880(2) 0.6985(1)
loop_
_geom_bond_atom_site_label_1
_geom_bond_atom_site_label_2
_geom_bond_site_symmetry_1
_geom_bond_site_symmetry_2
B1 O1 1_555 1_555
B2 O1 1_555 1_555
N1 B1 1_555 1_555
C1 B1 1_555 1_555
C2 C1 1_555 1_555
C3 C2 1_555 1_555
C4 C3 1_555 1_555
C5 B1 1_555 1_555
C6 C5 1_555 1_555
C7 C6 1_555 1_555
C8 C1 1_555 1_555
C9 B2 1_555 1_555
C10 C9 1_555 1_555
C11 C10 1_555 1_555
C12 C11 1_555 1_555
C13 B2 1_555 1_555
C14 C13 1_555 1_555
C15 C14 1_555 1_555
C16 C9 1_555 1_555
C17 N1 1_555 1_555
C18 C17 1_555 1_555
C19 C18 1_555 1_555
C20 C19 1_555 1_555
C21 N1 1_555 1_555
C22 C19 1_555 1_555
C4 C5 1_555 1_555
C7 C8 1_555 1_555
C12 C13 1_555 1_555
C15 C16 1_555 1_555
C20 C21 1_555 1_555

#END
