
#######################################################################
#
#                 Cambridge Crystallographic Data Centre
#                                CCDC 
#
#######################################################################
#
# If this CIF has been generated from an entry in the Cambridge 
# Structural Database, then it will include bibliographic, chemical, 
# crystal, experimental, refinement or atomic coordinate data resulting 
# from the CCDC's data processing and validation procedures.
#
#######################################################################

data_KUBVAE
_chemical_formula_moiety         'C21 H32 B2 Br1 N1 O1'
_chemical_name_systematic        
'B-(3-Bromopyridine)-bis(1,5-cyclo-octanediylboryl) oxide'
_symmetry_cell_setting           orthorhombic
_symmetry_space_group_name_H-M   'P 21 21 21'
_symmetry_Int_Tables_number      19
_space_group_name_Hall           'P 2ac 2ab'
loop_
_symmetry_equiv_pos_site_id
_symmetry_equiv_pos_as_xyz
1 x,y,z
2 1/2+x,1/2-y,-z
3 -x,1/2+y,1/2-z
4 1/2-x,-y,1/2+z
_cell_length_a                   10.874(2)
_cell_length_b                   11.116(1)
_cell_length_c                   16.547(2)
_cell_angle_alpha                90
_cell_angle_beta                 90
_cell_angle_gamma                90
_cell_volume                     2000.12
_cell_formula_units_Z            4
loop_
_atom_site_label
_atom_site_type_symbol
_atom_site_fract_x
_atom_site_fract_y
_atom_site_fract_z
Br1 Br 0.0893(1) 0.6661(1) 0.1164(1)
B1 B 0.1884(4) 0.1918(3) 0.1287(3)
B2 B 0.3130(4) 0.2390(4) 0.2588(3)
N1 N 0.0874(3) 0.3029(3) 0.1430(2)
O1 O 0.2422(2) 0.1747(3) 0.2099(2)
C1 C 0.1164(3) 0.0732(3) 0.0998(2)
C2 C 0.2136(4) -0.0276(3) 0.0940(3)
C3 C 0.3220(3) -0.0015(3) 0.0391(2)
C4 C 0.3772(3) 0.1238(3) 0.0512(2)
C5 C 0.2824(3) 0.2262(3) 0.0566(2)
C6 C 0.2130(4) 0.2473(4) -0.0233(2)
C7 C 0.1220(3) 0.1479(3) -0.0486(2)
C8 C 0.0456(4) 0.0943(4) 0.0204(3)
C9 C 0.3584(4) 0.3753(4) 0.2492(3)
C10 C 0.2793(4) 0.4460(4) 0.3111(3)
C11 C 0.2948(4) 0.4009(4) 0.3978(3)
C12 C 0.2700(4) 0.2661(4) 0.4054(3)
C13 C 0.3480(4) 0.1906(4) 0.3456(2)
C14 C 0.4882(4) 0.2029(4) 0.3619(3)
C15 C 0.5545(4) 0.2462(4) 0.2925(3)
C16 C 0.4991(4) 0.3845(4) 0.2691(3)
C17 C -0.0186(4) 0.2811(4) 0.1810(2)
C18 C -0.0987(4) 0.3706(4) 0.2018(2)
C19 C -0.0714(4) 0.4889(4) 0.1836(2)
C20 C 0.0383(4) 0.5098(3) 0.1437(2)
C21 C 0.1164(3) 0.4167(3) 0.1238(2)
loop_
_geom_bond_atom_site_label_1
_geom_bond_atom_site_label_2
_geom_bond_site_symmetry_1
_geom_bond_site_symmetry_2
Br1 C20 1_555 1_555
B1 N1 1_555 1_555
B2 O1 1_555 1_555
N1 C17 1_555 1_555
O1 B1 1_555 1_555
C1 B1 1_555 1_555
C2 C1 1_555 1_555
C3 C2 1_555 1_555
C4 C3 1_555 1_555
C5 B1 1_555 1_555
C6 C5 1_555 1_555
C7 C6 1_555 1_555
C8 C1 1_555 1_555
C9 B2 1_555 1_555
C10 C9 1_555 1_555
C11 C10 1_555 1_555
C12 C11 1_555 1_555
C13 B2 1_555 1_555
C14 C13 1_555 1_555
C15 C14 1_555 1_555
C16 C9 1_555 1_555
C17 C18 1_555 1_555
C18 C19 1_555 1_555
C19 C20 1_555 1_555
C20 C21 1_555 1_555
C21 N1 1_555 1_555
C4 C5 1_555 1_555
C7 C8 1_555 1_555
C12 C13 1_555 1_555
C15 C16 1_555 1_555

#END
