
#######################################################################
#
#                 Cambridge Crystallographic Data Centre
#                                CCDC 
#
#######################################################################
#
# If this CIF has been generated from an entry in the Cambridge 
# Structural Database, then it will include bibliographic, chemical, 
# crystal, experimental, refinement or atomic coordinate data resulting 
# from the CCDC's data processing and validation procedures.
#
#######################################################################

data_KUBYUD
_chemical_formula_moiety         'C19 H17 Br1 O2 S1'
_chemical_name_systematic        
2'-(4-Bromophenyl)-4'-hydroxy-3,4,4',5'-tetrahydro-1H-spiro[naphthalene-2,3'-thiophen]-1-one
_symmetry_cell_setting           triclinic
_symmetry_space_group_name_H-M   'P -1'
_symmetry_Int_Tables_number      2
_space_group_name_Hall           '-P 1'
loop_
_symmetry_equiv_pos_site_id
_symmetry_equiv_pos_as_xyz
1 x,y,z
2 -x,-y,-z
_cell_length_a                   7.3522(11)
_cell_length_b                   8.5754(14)
_cell_length_c                   14.397(2)
_cell_angle_alpha                88.604(10)
_cell_angle_beta                 77.154(9)
_cell_angle_gamma                74.342(9)
_cell_volume                     851.528
_exptl_crystal_colour            colorless
_exptl_crystal_description       block
_cell_formula_units_Z            2
loop_
_atom_site_label
_atom_site_type_symbol
_atom_site_fract_x
_atom_site_fract_y
_atom_site_fract_z
Br1 Br 0.09390(8) 0.12827(6) 0.87506(3)
S1 S 0.46019(12) 0.52675(11) 1.19508(6)
O1 O -0.0679(3) 0.4681(2) 1.39171(15)
C1 C 0.1287(4) 0.0464(3) 1.31887(19)
O2 O 0.3651(3) 0.3710(3) 1.45669(14)
H1 H 0.2810 0.4150 1.5030
C2 C 0.0524(4) 0.3410(3) 1.35957(17)
C3 C 0.0043(4) 0.1857(3) 1.37001(18)
C4 C 0.2410(4) 0.4541(3) 1.21975(19)
H2 H 0.1298 0.5489 1.2396
C5 C 0.2564(4) 0.3479(3) 1.30802(18)
C6 C 0.3637(5) 0.2970(4) 1.0590(2)
H3 H 0.4903 0.2944 1.0605
C7 C 0.1422(6) 0.2270(4) 0.9807(2)
C8 C -0.1702(4) 0.1786(4) 1.4308(2)
H4 H -0.2527 0.2715 1.4645
C9 C 0.3259(4) 0.4502(4) 1.3731(2)
H5 H 0.2255 0.5526 1.3915
C10 C 0.0740(6) -0.0964(4) 1.3295(2)
H6 H 0.1543 -0.1899 1.2957
C11 C 0.2119(4) 0.3770(3) 1.13247(19)
C12 C 0.0251(4) 0.3826(4) 1.1266(2)
H7 H -0.0784 0.4382 1.1742
C13 C 0.3288(5) 0.2212(4) 0.9837(2)
H8 H 0.4315 0.1666 0.9354
C14 C -0.2199(5) 0.0349(5) 1.4409(3)
H9 H -0.3350 0.0299 1.4820
C15 C 0.3161(5) 0.0522(4) 1.2531(2)
H10 H 0.2946 0.0757 1.1896
H11 H 0.4092 -0.0532 1.2498
C16 C -0.0114(5) 0.3074(5) 1.0516(2)
H12 H -0.1377 0.3111 1.0490
C17 C 0.3996(4) 0.1795(4) 1.2858(2)
H13 H 0.5097 0.1886 1.2365
H14 H 0.4470 0.1428 1.3424
C18 C -0.0987(6) -0.1014(4) 1.3899(3)
H15 H -0.1334 -0.1984 1.3961
C19 C 0.5073(5) 0.4868(5) 1.3131(2)
H16 H 0.6197 0.3950 1.3105
H17 H 0.5306 0.5806 1.3397
loop_
_geom_bond_atom_site_label_1
_geom_bond_atom_site_label_2
_geom_bond_site_symmetry_1
_geom_bond_site_symmetry_2
Br1 C7 1_555 1_555
S1 C4 1_555 1_555
O1 C2 1_555 1_555
C1 C3 1_555 1_555
O2 H1 1_555 1_555
C2 C3 1_555 1_555
C3 C8 1_555 1_555
C4 H2 1_555 1_555
C5 C2 1_555 1_555
C6 H3 1_555 1_555
C7 C13 1_555 1_555
C8 H4 1_555 1_555
C9 O2 1_555 1_555
H5 C9 1_555 1_555
C10 C1 1_555 1_555
H6 C10 1_555 1_555
C11 C4 1_555 1_555
C12 C11 1_555 1_555
H7 C12 1_555 1_555
C13 C6 1_555 1_555
H8 C13 1_555 1_555
C14 C8 1_555 1_555
H9 C14 1_555 1_555
C15 C1 1_555 1_555
H10 C15 1_555 1_555
H11 C15 1_555 1_555
C16 C7 1_555 1_555
H12 C16 1_555 1_555
C17 C5 1_555 1_555
H13 C17 1_555 1_555
H14 C17 1_555 1_555
C18 C10 1_555 1_555
H15 C18 1_555 1_555
C19 S1 1_555 1_555
H16 C19 1_555 1_555
H17 C19 1_555 1_555
C4 C5 1_555 1_555
C5 C9 1_555 1_555
C6 C11 1_555 1_555
C9 C19 1_555 1_555
C12 C16 1_555 1_555
C14 C18 1_555 1_555
C15 C17 1_555 1_555

#END
