
#######################################################################
#
#                 Cambridge Crystallographic Data Centre
#                                CCDC 
#
#######################################################################
#
# If this CIF has been generated from an entry in the Cambridge 
# Structural Database, then it will include bibliographic, chemical, 
# crystal, experimental, refinement or atomic coordinate data resulting 
# from the CCDC's data processing and validation procedures.
#
#######################################################################

data_KUBZEO
_chemical_formula_moiety         'C22 H11 F4 N3 O1'
_chemical_name_systematic        
4-((1,3-Diphenyl-1H-pyrazol-5-yl)oxy)-2,3,5,6-tetrafluorobenzonitrile
_symmetry_cell_setting           monoclinic
_symmetry_space_group_name_H-M   'P 21/c'
_symmetry_Int_Tables_number      14
_space_group_name_Hall           '-P 2ybc'
loop_
_symmetry_equiv_pos_site_id
_symmetry_equiv_pos_as_xyz
1 x,y,z
2 -x,1/2+y,1/2-z
3 -x,-y,-z
4 x,1/2-y,1/2+z
_cell_length_a                   8.2397(15)
_cell_length_b                   18.750(3)
_cell_length_c                   13.3515(19)
_cell_angle_alpha                90
_cell_angle_beta                 116.988(9)
_cell_angle_gamma                90
_cell_volume                     1838.1
_cell_formula_units_Z            4
loop_
_atom_site_label
_atom_site_type_symbol
_atom_site_fract_x
_atom_site_fract_y
_atom_site_fract_z
C1 C 0.0982(4) 0.81677(15) 0.2453(2)
H1 H 0.1434 0.7959 0.1981
C2 C -0.0111(5) 0.87736(18) 0.2102(3)
H2 H -0.0406 0.8980 0.1390
C3 C -0.0761(5) 0.90725(18) 0.2789(3)
H3 H -0.1498 0.9488 0.2554
C4 C -0.0346(5) 0.87709(19) 0.3813(3)
H4 H -0.0803 0.8980 0.4282
C5 C 0.0726(4) 0.81663(16) 0.4172(3)
H5 H 0.0993 0.7956 0.4877
C6 C 0.1405(4) 0.78728(14) 0.3488(2)
N1 N 0.2531(3) 0.72498(11) 0.38276(17)
C7 C 0.3802(4) 0.70320(15) 0.4864(2)
C8 C 0.4646(4) 0.64489(14) 0.4755(2)
H6 H 0.5583 0.6182 0.5334
C9 C 0.4223(3) 0.57482(13) 0.2980(2)
C10 C 0.3334(4) 0.57199(14) 0.1812(2)
H7 H 0.2422 0.6062 0.1402
C11 C 0.3770(5) 0.51970(17) 0.1245(3)
H8 H 0.3166 0.5183 0.0447
C12 C 0.5081(5) 0.46966(17) 0.1837(3)
H9 H 0.5391 0.4341 0.1446
C13 C 0.5938(5) 0.47093(16) 0.2987(3)
H10 H 0.6820 0.4356 0.3392
C14 C 0.5526(4) 0.52311(14) 0.3555(2)
H11 H 0.6139 0.5239 0.4354
C15 C 0.5498(4) 0.77412(14) 0.6473(2)
C16 C 0.6231(4) 0.76565(14) 0.7624(2)
C17 C 0.7630(4) 0.80927(17) 0.8330(2)
C18 C 0.8360(4) 0.86055(16) 0.7920(2)
C19 C 0.7661(4) 0.86688(16) 0.6773(2)
C20 C 0.6251(4) 0.82493(15) 0.6066(2)
C21 C 0.9743(4) 0.90851(19) 0.8665(3)
F1 F 0.5551(2) 0.71577(9) 0.80432(13)
F2 F 0.8259(2) 0.80157(11) 0.94449(12)
F3 F 0.8325(3) 0.91620(10) 0.63377(16)
F4 F 0.5527(3) 0.83524(10) 0.49514(13)
N2 N 0.2558(3) 0.68029(11) 0.30252(17)
C22 C 0.3835(3) 0.63194(13) 0.3588(2)
N3 N 1.0816(4) 0.94742(19) 0.9240(3)
O1 O 0.3928(3) 0.73703(11) 0.58190(15)
loop_
_geom_bond_atom_site_label_1
_geom_bond_atom_site_label_2
_geom_bond_site_symmetry_1
_geom_bond_site_symmetry_2
C1 H1 1_555 1_555
C2 C1 1_555 1_555
H2 C2 1_555 1_555
C3 C2 1_555 1_555
H3 C3 1_555 1_555
C4 C3 1_555 1_555
H4 C4 1_555 1_555
C5 C4 1_555 1_555
H5 C5 1_555 1_555
C6 C1 1_555 1_555
N1 C6 1_555 1_555
C7 N1 1_555 1_555
C8 C7 1_555 1_555
H6 C8 1_555 1_555
C9 C10 1_555 1_555
C10 H7 1_555 1_555
C11 C10 1_555 1_555
H8 C11 1_555 1_555
C12 C11 1_555 1_555
H9 C12 1_555 1_555
C13 C12 1_555 1_555
H10 C13 1_555 1_555
C14 C9 1_555 1_555
H11 C14 1_555 1_555
C15 C16 1_555 1_555
C16 C17 1_555 1_555
C17 C18 1_555 1_555
C18 C19 1_555 1_555
C19 C20 1_555 1_555
C20 C15 1_555 1_555
C21 C18 1_555 1_555
F1 C16 1_555 1_555
F2 C17 1_555 1_555
F3 C19 1_555 1_555
F4 C20 1_555 1_555
N2 N1 1_555 1_555
C22 C8 1_555 1_555
N3 C21 1_555 1_555
O1 C7 1_555 1_555
C5 C6 1_555 1_555
C9 C22 1_555 1_555
C13 C14 1_555 1_555
C15 O1 1_555 1_555
N2 C22 1_555 1_555

#END
