
#######################################################################
#
#                 Cambridge Crystallographic Data Centre
#                                CCDC 
#
#######################################################################
#
# If this CIF has been generated from an entry in the Cambridge 
# Structural Database, then it will include bibliographic, chemical, 
# crystal, experimental, refinement or atomic coordinate data resulting 
# from the CCDC's data processing and validation procedures.
#
#######################################################################

data_KUCBAM
_chemical_formula_moiety         'C50 H56 Br2 N4'
_chemical_name_systematic        
2,2'-(2,8-Dibromo-5,11-didodecylindeno[1,2-b]fluorene-6,12-diylidene)dimalononitrile
_symmetry_cell_setting           triclinic
_symmetry_space_group_name_H-M   'P -1'
_symmetry_Int_Tables_number      2
_space_group_name_Hall           '-P 1'
loop_
_symmetry_equiv_pos_site_id
_symmetry_equiv_pos_as_xyz
1 x,y,z
2 -x,-y,-z
_cell_length_a                   8.4993(4)
_cell_length_b                   10.0232(4)
_cell_length_c                   14.3879(6)
_cell_angle_alpha                76.650(3)
_cell_angle_beta                 80.592(3)
_cell_angle_gamma                66.240(3)
_cell_volume                     1088.08
_exptl_crystal_colour            green
_exptl_crystal_description       block
_cell_formula_units_Z            1
_exptl_crystal_recrystallization_method methanol/chloroform
loop_
_atom_site_label
_atom_site_type_symbol
_atom_site_fract_x
_atom_site_fract_y
_atom_site_fract_z
Br1 Br 0.52690(4) 0.71022(3) 1.518937(19)
N1 N 0.4041(3) 0.4455(3) 1.27395(18)
N2 N 0.3146(3) 0.6476(2) 0.97640(17)
C1 C 0.4855(4) 0.8108(3) 1.39061(19)
C2 C 0.4989(3) 0.7299(3) 1.32148(19)
H1 H 0.5194 0.6272 1.3379
C3 C 0.4813(3) 0.8046(3) 1.22772(19)
C4 C 0.4844(3) 0.7556(3) 1.13814(18)
C5 C 0.5032(3) 0.8711(3) 1.05870(19)
C6 C 0.4570(3) 1.0008(3) 1.09753(18)
C7 C 0.4479(3) 0.9584(3) 1.20285(19)
C8 C 0.4294(4) 1.0368(3) 1.2749(2)
H2 H 0.4034 1.1405 1.2599
C9 C 0.4495(4) 0.9620(3) 1.3688(2)
H3 H 0.4386 1.0143 1.4183
C10 C 0.4332(3) 0.6456(3) 1.13073(19)
C11 C 0.4155(3) 0.5360(3) 1.2116(2)
C12 C 0.3724(3) 0.6440(3) 1.0436(2)
C13 C 0.5589(3) 0.8629(3) 0.96233(19)
C14 C 0.6565(3) 0.7191(3) 0.92664(19)
H4 H 0.5957 0.7147 0.8750
H5 H 0.6607 0.6351 0.9796
C15 C 0.8411(3) 0.7051(3) 0.88817(19)
H6 H 0.8362 0.7939 0.8392
H7 H 0.9040 0.7020 0.9413
C16 C 0.9400(4) 0.5671(3) 0.8440(2)
H8 H 0.8712 0.5648 0.7955
H9 H 0.9555 0.4780 0.8946
C17 C 1.1169(4) 0.5614(4) 0.7965(2)
H10 H 1.1801 0.5748 0.8435
H11 H 1.1831 0.4617 0.7804
C18 C 1.1111(4) 0.6776(4) 0.7058(2)
H12 H 1.0295 0.7757 0.7192
H13 H 1.2267 0.6823 0.6897
C19 C 1.0570(4) 0.6483(4) 0.6188(2)
H14 H 1.1456 0.5560 0.6003
H15 H 0.9473 0.6328 0.6366
C20 C 1.0336(4) 0.7742(4) 0.5331(2)
H16 H 1.1365 0.8005 0.5220
H17 H 0.9327 0.8623 0.5484
C21 C 1.0072(4) 0.7370(4) 0.4416(2)
H18 H 1.1100 0.6511 0.4253
H19 H 0.9069 0.7072 0.4536
C22 C 0.9776(4) 0.8635(4) 0.3564(2)
H20 H 1.0774 0.8940 0.3444
H21 H 0.8740 0.9494 0.3721
C23 C 0.9530(4) 0.8229(4) 0.2656(2)
H22 H 1.0574 0.7376 0.2500
H23 H 0.8547 0.7904 0.2786
C24 C 0.9204(5) 0.9462(4) 0.1791(3)
H24 H 1.0179 0.9798 0.1656
H25 H 0.8146 1.0312 0.1933
C25 C 0.8997(4) 0.8972(4) 0.0906(3)
H26 H 1.0098 0.8231 0.0706
H27 H 0.8642 0.9831 0.0386
H28 H 0.8117 0.8538 0.1059
Br1A Br 0.47310(4) 1.28978(3) 0.481063(19)
N1A N 0.5959(3) 1.5545(3) 0.72605(18)
N2A N 0.6854(3) 1.3524(2) 1.02360(17)
C1A C 0.5145(4) 1.1892(3) 0.60939(19)
C2A C 0.5011(3) 1.2701(3) 0.67852(19)
H1A H 0.4806 1.3728 0.6621
C3A C 0.5187(3) 1.1954(3) 0.77228(19)
C4A C 0.5156(3) 1.2444(3) 0.86186(18)
C5A C 0.4968(3) 1.1289(3) 0.94130(19)
C6A C 0.5430(3) 0.9992(3) 0.90247(18)
C7A C 0.5521(3) 1.0416(3) 0.79715(19)
C8A C 0.5706(4) 0.9632(3) 0.7251(2)
H2A H 0.5966 0.8595 0.7401
C9A C 0.5505(4) 1.0380(3) 0.6312(2)
H3A H 0.5614 0.9857 0.5817
C10A C 0.5668(3) 1.3544(3) 0.86927(19)
C11A C 0.5845(3) 1.4640(3) 0.7884(2)
C12A C 0.6276(3) 1.3560(3) 0.9564(2)
C13A C 0.4411(3) 1.1371(3) 1.03767(19)
C14A C 0.3435(3) 1.2809(3) 1.07336(19)
H4A H 0.4043 1.2853 1.1250
H5A H 0.3393 1.3649 1.0204
C15A C 0.1589(3) 1.2949(3) 1.11183(19)
H6A H 0.1638 1.2061 1.1608
H7A H 0.0960 1.2980 1.0587
C16A C 0.0600(4) 1.4329(3) 1.1560(2)
H8A H 0.1288 1.4352 1.2045
H9A H 0.0445 1.5220 1.1054
C17A C -0.1169(4) 1.4386(4) 1.2035(2)
H10A H -0.1801 1.4252 1.1565
H11A H -0.1831 1.5383 1.2196
C18A C -0.1111(4) 1.3224(4) 1.2942(2)
H12A H -0.0295 1.2243 1.2808
H13A H -0.2267 1.3177 1.3103
C19A C -0.0570(4) 1.3517(4) 1.3812(2)
H14A H -0.1456 1.4440 1.3997
H15A H 0.0527 1.3672 1.3634
C20A C -0.0336(4) 1.2258(4) 1.4669(2)
H16A H -0.1365 1.1995 1.4780
H17A H 0.0673 1.1377 1.4516
C21A C -0.0072(4) 1.2630(4) 1.5584(2)
H18A H -0.1100 1.3489 1.5747
H19A H 0.0931 1.2928 1.5464
C22A C 0.0224(4) 1.1365(4) 1.6436(2)
H20A H -0.0774 1.1060 1.6556
H21A H 0.1260 1.0506 1.6279
C23A C 0.0470(4) 1.1771(4) 1.7344(2)
H22A H -0.0574 1.2624 1.7500
H23A H 0.1453 1.2096 1.7214
C24A C 0.0796(5) 1.0538(4) 1.8209(3)
H24A H -0.0179 1.0202 1.8344
H25A H 0.1854 0.9688 1.8067
C25A C 0.1003(4) 1.1028(4) 1.9094(3)
H26A H -0.0098 1.1769 1.9294
H27A H 0.1358 1.0169 1.9614
H28A H 0.1883 1.1462 1.8941
loop_
_geom_bond_atom_site_label_1
_geom_bond_atom_site_label_2
_geom_bond_site_symmetry_1
_geom_bond_site_symmetry_2
Br1 C1 1_555 1_555
N1 C11 1_555 1_555
N2 C12 1_555 1_555
C1 C2 1_555 1_555
C2 H1 1_555 1_555
C3 C2 1_555 1_555
C4 C3 1_555 1_555
C5 C4 1_555 1_555
C6 C5 1_555 1_555
C7 C3 1_555 1_555
C8 C7 1_555 1_555
H2 C8 1_555 1_555
C9 C1 1_555 1_555
H3 C9 1_555 1_555
C10 C4 1_555 1_555
C11 C10 1_555 1_555
C12 C10 1_555 1_555
C13 C5 1_555 1_555
C14 C13 1_555 1_555
H4 C14 1_555 1_555
H5 C14 1_555 1_555
C15 C14 1_555 1_555
H6 C15 1_555 1_555
H7 C15 1_555 1_555
C16 C15 1_555 1_555
H8 C16 1_555 1_555
H9 C16 1_555 1_555
C17 C16 1_555 1_555
H10 C17 1_555 1_555
H11 C17 1_555 1_555
C18 C17 1_555 1_555
H12 C18 1_555 1_555
H13 C18 1_555 1_555
C19 C18 1_555 1_555
H14 C19 1_555 1_555
H15 C19 1_555 1_555
C20 C19 1_555 1_555
H16 C20 1_555 1_555
H17 C20 1_555 1_555
C21 C20 1_555 1_555
H18 C21 1_555 1_555
H19 C21 1_555 1_555
C22 C21 1_555 1_555
H20 C22 1_555 1_555
H21 C22 1_555 1_555
C23 C22 1_555 1_555
H22 C23 1_555 1_555
H23 C23 1_555 1_555
C24 C23 1_555 1_555
H24 C24 1_555 1_555
H25 C24 1_555 1_555
C25 C24 1_555 1_555
H26 C25 1_555 1_555
H27 C25 1_555 1_555
H28 C25 1_555 1_555
Br1A C1A 1_555 1_555
N1A C11A 1_555 1_555
N2A C12A 1_555 1_555
C1A C2A 1_555 1_555
C2A H1A 1_555 1_555
C3A C2A 1_555 1_555
C4A C3A 1_555 1_555
C5A C4A 1_555 1_555
C6A C13 1_555 1_555
C7A C3A 1_555 1_555
C8A C7A 1_555 1_555
H2A C8A 1_555 1_555
C9A C1A 1_555 1_555
H3A C9A 1_555 1_555
C10A C4A 1_555 1_555
C11A C10A 1_555 1_555
C12A C10A 1_555 1_555
C13A C6 1_555 1_555
C14A C13A 1_555 1_555
H4A C14A 1_555 1_555
H5A C14A 1_555 1_555
C15A C14A 1_555 1_555
H6A C15A 1_555 1_555
H7A C15A 1_555 1_555
C16A C15A 1_555 1_555
H8A C16A 1_555 1_555
H9A C16A 1_555 1_555
C17A C16A 1_555 1_555
H10A C17A 1_555 1_555
H11A C17A 1_555 1_555
C18A C17A 1_555 1_555
H12A C18A 1_555 1_555
H13A C18A 1_555 1_555
C19A C18A 1_555 1_555
H14A C19A 1_555 1_555
H15A C19A 1_555 1_555
C20A C19A 1_555 1_555
H16A C20A 1_555 1_555
H17A C20A 1_555 1_555
C21A C20A 1_555 1_555
H18A C21A 1_555 1_555
H19A C21A 1_555 1_555
C22A C21A 1_555 1_555
H20A C22A 1_555 1_555
H21A C22A 1_555 1_555
C23A C22A 1_555 1_555
H22A C23A 1_555 1_555
H23A C23A 1_555 1_555
C24A C23A 1_555 1_555
H24A C24A 1_555 1_555
H25A C24A 1_555 1_555
C25A C24A 1_555 1_555
H26A C25A 1_555 1_555
H27A C25A 1_555 1_555
H28A C25A 1_555 1_555
C6 C7 1_555 1_555
C8 C9 1_555 1_555
C5A C6A 1_555 1_555
C5A C13A 1_555 1_555
C6A C7A 1_555 1_555
C8A C9A 1_555 1_555

#END
