
#######################################################################
#
#                 Cambridge Crystallographic Data Centre
#                                CCDC 
#
#######################################################################
#
# If this CIF has been generated from an entry in the Cambridge 
# Structural Database, then it will include bibliographic, chemical, 
# crystal, experimental, refinement or atomic coordinate data resulting 
# from the CCDC's data processing and validation procedures.
#
#######################################################################

data_KUCJUP
_chemical_formula_moiety         'C32 H29 N2 O5 P1 S2'
_chemical_name_systematic        
N,N'-((Phenylphosphoryl)bis(2,1-phenylene))bis(4-methylbenzenesulfonamide)
_symmetry_cell_setting           orthorhombic
_symmetry_space_group_name_H-M   'P 21 21 21'
_symmetry_Int_Tables_number      19
_space_group_name_Hall           'P 2ac 2ab'
loop_
_symmetry_equiv_pos_site_id
_symmetry_equiv_pos_as_xyz
1 x,y,z
2 1/2-x,-y,1/2+z
3 -x,1/2+y,1/2-z
4 1/2+x,1/2-y,-z
_cell_length_a                   12.8619(6)
_cell_length_b                   19.3373(9)
_cell_length_c                   24.5286(11)
_cell_angle_alpha                90
_cell_angle_beta                 90
_cell_angle_gamma                90
_cell_volume                     6100.62
_exptl_crystal_colour            colorless
_exptl_crystal_description       Block
_cell_formula_units_Z            8
_exptl_crystal_recrystallization_method 'dichloromethane/ethyl acetate'
loop_
_atom_site_label
_atom_site_type_symbol
_atom_site_fract_x
_atom_site_fract_y
_atom_site_fract_z
P1 P 0.02425(15) 0.51558(8) 0.08835(7)
O1 O -0.0793(3) 0.5442(2) 0.10647(14)
C1 C 0.0690(6) 0.4476(3) 0.1317(2)
C2 C 0.1732(6) 0.4357(3) 0.1422(2)
H1 H 0.2243 0.4650 0.1264
C3 C 0.2039(6) 0.3813(4) 0.1755(3)
H2 H 0.2756 0.3742 0.1831
C4 C 0.1306(7) 0.3378(4) 0.1975(3)
H3 H 0.1517 0.3001 0.2197
C5 C 0.0259(6) 0.3488(4) 0.1873(3)
H4 H -0.0248 0.3190 0.2029
C6 C -0.0053(6) 0.4042(3) 0.1539(2)
H5 H -0.0770 0.4117 0.1466
C7 C 0.1228(5) 0.5830(3) 0.0865(2)
C8 C 0.2091(5) 0.5768(3) 0.0529(2)
H6 H 0.2135 0.5383 0.0290
C9 C 0.2884(5) 0.6242(3) 0.0531(3)
H7 H 0.3482 0.6175 0.0310
C10 C 0.2801(6) 0.6805(3) 0.0850(3)
H8 H 0.3354 0.7130 0.0858
C11 C 0.1941(6) 0.6920(3) 0.1162(2)
H9 H 0.1888 0.7334 0.1369
C12 C 0.1140(5) 0.6437(3) 0.1181(2)
N1 N 0.0233(4) 0.6536(2) 0.15048(17)
H10 H -0.0379 0.6476 0.1352
S1 S 0.02809(16) 0.67541(10) 0.21479(7)
O2 O -0.0762(3) 0.6702(2) 0.23302(16)
O3 O -0.1851(4) 0.6847(2) -0.00152(17)
C13 C 0.1040(6) 0.6102(4) 0.2454(3)
C14 C 0.2068(7) 0.6231(4) 0.2590(3)
H11 H 0.2371 0.6673 0.2530
C15 C 0.2640(7) 0.5698(5) 0.2817(3)
H12 H 0.3356 0.5772 0.2892
C16 C 0.2216(7) 0.5071(4) 0.2936(3)
C17 C 0.1199(6) 0.4951(4) 0.2787(3)
H13 H 0.0898 0.4509 0.2851
C18 C 0.0613(6) 0.5464(4) 0.2545(3)
H14 H -0.0086 0.5374 0.2442
C19 C 0.2878(6) 0.4507(4) 0.3193(3)
H15 H 0.2627 0.4411 0.3562
H16 H 0.3604 0.4660 0.3210
H17 H 0.2832 0.4085 0.2972
C20 C 0.0151(5) 0.4824(3) 0.0197(2)
C21 C 0.0707(5) 0.4232(3) 0.0051(2)
H18 H 0.1134 0.4005 0.0312
C22 C 0.0634(5) 0.3976(3) -0.0479(3)
H19 H 0.1011 0.3574 -0.0581
C23 C 0.0009(5) 0.4310(4) -0.0856(3)
H20 H -0.0042 0.4138 -0.1218
C24 C -0.0533(5) 0.4884(3) -0.0707(3)
H21 H -0.0957 0.5107 -0.0970
C25 C -0.0488(5) 0.5153(3) -0.0183(3)
N2 N -0.1097(4) 0.5712(3) -0.0026(2)
H22 H -0.1334 0.5710 0.0311
S2 S -0.14134(16) 0.63682(10) -0.04010(8)
O4 O -0.2027(3) 0.6145(2) -0.08554(17)
C26 C -0.0242(6) 0.6696(3) -0.0656(3)
C27 C 0.0504(7) 0.6923(4) -0.0302(3)
H23 H 0.0381 0.6921 0.0080
C28 C 0.1440(7) 0.7155(4) -0.0508(3)
H24 H 0.1966 0.7297 -0.0261
C29 C 0.1635(6) 0.7187(4) -0.1044(3)
C30 C 0.0866(6) 0.6975(3) -0.1401(3)
H25 H 0.0983 0.7000 -0.1783
C31 C -0.0068(6) 0.6727(3) -0.1207(3)
H26 H -0.0591 0.6579 -0.1454
C32 C 0.2693(6) 0.7420(4) -0.1248(3)
H27 H 0.2719 0.7927 -0.1255
H28 H 0.2808 0.7240 -0.1617
H29 H 0.3235 0.7244 -0.1004
O5 O 0.0827(4) 0.7397(2) 0.21949(17)
O6 O 0.4226(3) 0.4434(2) 0.10442(14)
P2 P 0.52372(15) 0.47609(8) 0.08791(7)
C33 C 0.5683(5) 0.5373(3) 0.1380(2)
C34 C 0.4918(6) 0.5749(3) 0.1650(3)
H30 H 0.4204 0.5674 0.1569
C35 C 0.5201(7) 0.6222(4) 0.2027(3)
H31 H 0.4685 0.6482 0.2214
C36 C 0.6242(7) 0.6329(4) 0.2143(3)
H32 H 0.6432 0.6669 0.2404
C37 C 0.7003(6) 0.5952(4) 0.1889(3)
H33 H 0.7715 0.6022 0.1974
C38 C 0.6710(6) 0.5470(3) 0.1506(3)
H34 H 0.7225 0.5201 0.1328
C39 C 0.5118(5) 0.5247(3) 0.0250(2)
C40 C 0.5691(5) 0.5846(3) 0.0147(3)
H35 H 0.6152 0.6017 0.0418
C41 C 0.5599(6) 0.6194(4) -0.0340(3)
H36 H 0.5976 0.6611 -0.0395
C42 C 0.4987(6) 0.5952(3) -0.0736(3)
H37 H 0.4963 0.6188 -0.1075
C43 C 0.4382(5) 0.5364(3) -0.0662(2)
H38 H 0.3929 0.5206 -0.0942
C44 C 0.4455(5) 0.5010(3) -0.0164(3)
N3 N 0.3813(4) 0.4429(2) -0.00609(19)
H39 H 0.3522 0.4407 0.0263
S3 S 0.35541(15) 0.37885(9) -0.04841(7)
O7 O 0.3112(4) 0.4069(2) -0.09717(17)
O8 O 0.2986(3) 0.3297(2) -0.01558(17)
C45 C 0.4759(5) 0.3440(3) -0.0649(2)
C46 C 0.5262(5) 0.3023(3) -0.0280(2)
H40 H 0.4937 0.2911 0.0056
C47 C 0.6242(6) 0.2767(3) -0.0399(2)
H41 H 0.6577 0.2468 -0.0146
C48 C 0.6749(5) 0.2942(4) -0.0889(3)
C49 C 0.6191(6) 0.3334(4) -0.1258(3)
H42 H 0.6496 0.3435 -0.1602
C50 C 0.5214(6) 0.3583(3) -0.1148(2)
H43 H 0.4854 0.3852 -0.1411
C51 C 0.7850(5) 0.2699(3) -0.1001(2)
H44 H 0.7963 0.2672 -0.1396
H45 H 0.7953 0.2241 -0.0839
H46 H 0.8345 0.3026 -0.0841
C52 C 0.6234(5) 0.4137(3) 0.0781(2)
C53 C 0.7083(5) 0.4282(3) 0.0447(2)
H47 H 0.7094 0.4704 0.0249
C54 C 0.7911(5) 0.3831(3) 0.0394(3)
H48 H 0.8473 0.3937 0.0157
C55 C 0.7910(5) 0.3221(3) 0.0691(3)
H49 H 0.8500 0.2926 0.0681
C56 C 0.7058(5) 0.3040(3) 0.1003(2)
H50 H 0.7035 0.2603 0.1179
C57 C 0.6229(5) 0.3503(3) 0.1057(2)
N4 N 0.5327(4) 0.3302(2) 0.13577(17)
H51 H 0.4712 0.3370 0.1210
S4 S 0.53817(15) 0.29471(9) 0.19713(7)
O9 O 0.4325(3) 0.2954(2) 0.21557(16)
O10 O 0.5946(3) 0.2307(2) 0.19547(16)
C58 C 0.6105(6) 0.3539(4) 0.2357(2)
C59 C 0.5672(6) 0.4158(4) 0.2506(3)
H52 H 0.4972 0.4259 0.2412
C60 C 0.6247(7) 0.4630(4) 0.2789(3)
H53 H 0.5941 0.5061 0.2886
C61 C 0.7274(7) 0.4496(4) 0.2940(3)
C62 C 0.7690(6) 0.3881(4) 0.2797(3)
H54 H 0.8385 0.3779 0.2900
C63 C 0.7130(6) 0.3398(4) 0.2505(2)
H55 H 0.7442 0.2972 0.2405
C64 C 0.7881(6) 0.5027(4) 0.3257(3)
H56 H 0.7907 0.4891 0.3642
H57 H 0.7541 0.5478 0.3224
H58 H 0.8590 0.5056 0.3112
loop_
_geom_bond_atom_site_label_1
_geom_bond_atom_site_label_2
_geom_bond_site_symmetry_1
_geom_bond_site_symmetry_2
P1 O1 1_555 1_555
C1 P1 1_555 1_555
C2 C1 1_555 1_555
H1 C2 1_555 1_555
C3 C2 1_555 1_555
H2 C3 1_555 1_555
C4 C3 1_555 1_555
H3 C4 1_555 1_555
C5 C4 1_555 1_555
H4 C5 1_555 1_555
C6 C1 1_555 1_555
H5 C6 1_555 1_555
C7 P1 1_555 1_555
C8 C7 1_555 1_555
H6 C8 1_555 1_555
C9 C8 1_555 1_555
H7 C9 1_555 1_555
C10 C9 1_555 1_555
H8 C10 1_555 1_555
C11 C10 1_555 1_555
H9 C11 1_555 1_555
C12 C7 1_555 1_555
N1 C12 1_555 1_555
H10 N1 1_555 1_555
S1 N1 1_555 1_555
O2 S1 1_555 1_555
O3 S2 1_555 1_555
C13 S1 1_555 1_555
C14 C13 1_555 1_555
H11 C14 1_555 1_555
C15 C14 1_555 1_555
H12 C15 1_555 1_555
C16 C15 1_555 1_555
C17 C16 1_555 1_555
H13 C17 1_555 1_555
C18 C13 1_555 1_555
H14 C18 1_555 1_555
C19 C16 1_555 1_555
H15 C19 1_555 1_555
H16 C19 1_555 1_555
H17 C19 1_555 1_555
C20 P1 1_555 1_555
C21 C20 1_555 1_555
H18 C21 1_555 1_555
C22 C21 1_555 1_555
H19 C22 1_555 1_555
C23 C22 1_555 1_555
H20 C23 1_555 1_555
C24 C23 1_555 1_555
H21 C24 1_555 1_555
C25 C20 1_555 1_555
N2 C25 1_555 1_555
H22 N2 1_555 1_555
S2 N2 1_555 1_555
O4 S2 1_555 1_555
C26 S2 1_555 1_555
C27 C26 1_555 1_555
H23 C27 1_555 1_555
C28 C27 1_555 1_555
H24 C28 1_555 1_555
C29 C28 1_555 1_555
C30 C29 1_555 1_555
H25 C30 1_555 1_555
C31 C26 1_555 1_555
H26 C31 1_555 1_555
C32 C29 1_555 1_555
H27 C32 1_555 1_555
H28 C32 1_555 1_555
H29 C32 1_555 1_555
O5 S1 1_555 1_555
O6 P2 1_555 1_555
P2 C33 1_555 1_555
C33 C34 1_555 1_555
C34 H30 1_555 1_555
C35 C34 1_555 1_555
H31 C35 1_555 1_555
C36 C35 1_555 1_555
H32 C36 1_555 1_555
C37 C36 1_555 1_555
H33 C37 1_555 1_555
C38 C33 1_555 1_555
H34 C38 1_555 1_555
C39 P2 1_555 1_555
C40 C39 1_555 1_555
H35 C40 1_555 1_555
C41 C40 1_555 1_555
H36 C41 1_555 1_555
C42 C41 1_555 1_555
H37 C42 1_555 1_555
C43 C42 1_555 1_555
H38 C43 1_555 1_555
C44 C39 1_555 1_555
N3 C44 1_555 1_555
H39 N3 1_555 1_555
S3 N3 1_555 1_555
O7 S3 1_555 1_555
O8 S3 1_555 1_555
C45 S3 1_555 1_555
C46 C45 1_555 1_555
H40 C46 1_555 1_555
C47 C46 1_555 1_555
H41 C47 1_555 1_555
C48 C47 1_555 1_555
C49 C48 1_555 1_555
H42 C49 1_555 1_555
C50 C45 1_555 1_555
H43 C50 1_555 1_555
C51 C48 1_555 1_555
H44 C51 1_555 1_555
H45 C51 1_555 1_555
H46 C51 1_555 1_555
C52 P2 1_555 1_555
C53 C52 1_555 1_555
H47 C53 1_555 1_555
C54 C53 1_555 1_555
H48 C54 1_555 1_555
C55 C54 1_555 1_555
H49 C55 1_555 1_555
C56 C55 1_555 1_555
H50 C56 1_555 1_555
C57 C52 1_555 1_555
N4 C57 1_555 1_555
H51 N4 1_555 1_555
S4 N4 1_555 1_555
O9 S4 1_555 1_555
O10 S4 1_555 1_555
C58 S4 1_555 1_555
C59 C58 1_555 1_555
H52 C59 1_555 1_555
C60 C59 1_555 1_555
H53 C60 1_555 1_555
C61 C60 1_555 1_555
C62 C61 1_555 1_555
H54 C62 1_555 1_555
C63 C58 1_555 1_555
H55 C63 1_555 1_555
C64 C61 1_555 1_555
H56 C64 1_555 1_555
H57 C64 1_555 1_555
H58 C64 1_555 1_555
C5 C6 1_555 1_555
C11 C12 1_555 1_555
C17 C18 1_555 1_555
C24 C25 1_555 1_555
C30 C31 1_555 1_555
C37 C38 1_555 1_555
C43 C44 1_555 1_555
C49 C50 1_555 1_555
C56 C57 1_555 1_555
C62 C63 1_555 1_555

#END
