
#######################################################################
#
#                 Cambridge Crystallographic Data Centre
#                                CCDC 
#
#######################################################################
#
# If this CIF has been generated from an entry in the Cambridge 
# Structural Database, then it will include bibliographic, chemical, 
# crystal, experimental, refinement or atomic coordinate data resulting 
# from the CCDC's data processing and validation procedures.
#
#######################################################################

data_KUCJOJ
_chemical_formula_moiety         'C25 H22 N1 O3 P1 S1'
_chemical_name_systematic        
N-(2-(Diphenylphosphoryl)phenyl)-4-methylbenzenesulfonamide
_symmetry_cell_setting           orthorhombic
_symmetry_space_group_name_H-M   'P 21 21 21'
_symmetry_Int_Tables_number      19
_space_group_name_Hall           'P 2ac 2ab'
loop_
_symmetry_equiv_pos_site_id
_symmetry_equiv_pos_as_xyz
1 x,y,z
2 1/2-x,-y,1/2+z
3 -x,1/2+y,1/2-z
4 1/2+x,1/2-y,-z
_cell_length_a                   9.6369(3)
_cell_length_b                   11.2430(3)
_cell_length_c                   20.2147(6)
_cell_angle_alpha                90
_cell_angle_beta                 90
_cell_angle_gamma                90
_cell_volume                     2190.22
_exptl_crystal_colour            white
_exptl_crystal_description       platy
_cell_formula_units_Z            4
_exptl_crystal_recrystallization_method 'dichloromethane/ethyl acetate'
loop_
_atom_site_label
_atom_site_type_symbol
_atom_site_fract_x
_atom_site_fract_y
_atom_site_fract_z
S1 S 0.50082(4) 0.98100(3) 0.185942(17)
P1 P 0.92409(4) 1.03933(3) 0.119584(16)
O1 O 0.82407(11) 1.14099(9) 0.12639(5)
O2 O 0.42213(13) 0.87309(11) 0.18046(6)
N1 N 0.60949(13) 0.98678(11) 0.12340(6)
H1 H 0.6166 1.0527 0.1021
C1 C 1.01958(15) 1.01271(13) 0.19451(6)
O3 O 0.43296(13) 1.09422(11) 0.18491(6)
C2 C 0.83689(15) 0.90400(12) 0.09485(6)
C3 C 1.05326(15) 1.07055(12) 0.05776(6)
C4 C 0.69228(15) 0.88941(12) 0.10240(6)
C5 C 0.62984(18) 0.78205(13) 0.08354(7)
H2 H 0.5348 0.7718 0.0889
C6 C 0.63589(19) 0.86357(14) 0.28506(8)
H3 H 0.6022 0.7940 0.2661
C7 C 0.91358(17) 0.81157(13) 0.06618(7)
H4 H 1.0085 0.8212 0.0597
C8 C 0.85057(19) 0.70586(13) 0.04729(7)
H5 H 0.9029 0.6453 0.0283
C9 C 1.05514(19) 0.90045(14) 0.21878(7)
H6 H 1.0235 0.8323 0.1975
C10 C 1.18516(18) 0.99236(16) 0.30640(7)
H7 H 1.2409 0.9855 0.3438
C11 C 0.60360(15) 0.97340(14) 0.25786(7)
C12 C 1.01085(18) 1.12122(14) -0.00221(7)
H8 H 0.9168 1.1300 -0.0113
C13 C 1.19503(15) 1.05578(13) 0.07015(7)
H9 H 1.2243 1.0207 0.1094
C14 C 0.6524(2) 1.07807(14) 0.28624(9)
H10 H 0.6296 1.1514 0.2680
C15 C 0.70937(19) 0.69104(13) 0.05682(8)
H11 H 0.6675 0.6195 0.0452
C16 C 1.10886(19) 1.15835(14) -0.04818(7)
H12 H 1.0803 1.1922 -0.0879
C17 C 0.77043(18) 0.96207(17) 0.36992(7)
C18 C 1.06744(18) 1.11435(14) 0.22694(7)
H13 H 1.0438 1.1893 0.2110
C19 C 1.1382(2) 0.89080(15) 0.27501(8)
H14 H 1.1620 0.8162 0.2914
C20 C 0.71924(19) 0.85905(16) 0.34096(8)
H15 H 0.7412 0.7856 0.3594
C21 C 1.29222(17) 1.09342(14) 0.02383(7)
H16 H 1.3864 1.0840 0.0323
C22 C 1.15027(19) 1.10419(15) 0.28287(7)
H17 H 1.1821 1.1720 0.3044
C23 C 1.24925(19) 1.14498(14) -0.03499(7)
H18 H 1.3146 1.1707 -0.0657
C24 C 0.7356(2) 1.07159(16) 0.34232(9)
H19 H 0.7685 1.1412 0.3616
C25 C 0.8636(2) 0.9558(2) 0.42996(9)
H20 H 0.8770 0.8741 0.4423
H21 H 0.8214 0.9981 0.4660
H22 H 0.9518 0.9911 0.4197
loop_
_geom_bond_atom_site_label_1
_geom_bond_atom_site_label_2
_geom_bond_site_symmetry_1
_geom_bond_site_symmetry_2
S1 O2 1_555 1_555
P1 O1 1_555 1_555
N1 S1 1_555 1_555
H1 N1 1_555 1_555
C1 P1 1_555 1_555
O3 S1 1_555 1_555
C2 P1 1_555 1_555
C3 P1 1_555 1_555
C4 N1 1_555 1_555
C5 C4 1_555 1_555
H2 C5 1_555 1_555
C6 H3 1_555 1_555
C7 C2 1_555 1_555
H4 C7 1_555 1_555
C8 C7 1_555 1_555
H5 C8 1_555 1_555
C9 C1 1_555 1_555
H6 C9 1_555 1_555
C10 H7 1_555 1_555
C11 S1 1_555 1_555
C12 C3 1_555 1_555
H8 C12 1_555 1_555
C13 C3 1_555 1_555
H9 C13 1_555 1_555
C14 C11 1_555 1_555
H10 C14 1_555 1_555
C15 C5 1_555 1_555
H11 C15 1_555 1_555
C16 C12 1_555 1_555
H12 C16 1_555 1_555
C17 C20 1_555 1_555
C18 C1 1_555 1_555
H13 C18 1_555 1_555
C19 C9 1_555 1_555
H14 C19 1_555 1_555
C20 C6 1_555 1_555
H15 C20 1_555 1_555
C21 C13 1_555 1_555
H16 C21 1_555 1_555
C22 C10 1_555 1_555
H17 C22 1_555 1_555
C23 C16 1_555 1_555
H18 C23 1_555 1_555
C24 C14 1_555 1_555
H19 C24 1_555 1_555
C25 C17 1_555 1_555
H20 C25 1_555 1_555
H21 C25 1_555 1_555
H22 C25 1_555 1_555
C2 C4 1_555 1_555
C6 C11 1_555 1_555
C8 C15 1_555 1_555
C10 C19 1_555 1_555
C17 C24 1_555 1_555
C18 C22 1_555 1_555
C21 C23 1_555 1_555

#END
