
#######################################################################
#
#                 Cambridge Crystallographic Data Centre
#                                CCDC 
#
#######################################################################
#
# If this CIF has been generated from an entry in the Cambridge 
# Structural Database, then it will include bibliographic, chemical, 
# crystal, experimental, refinement or atomic coordinate data resulting 
# from the CCDC's data processing and validation procedures.
#
#######################################################################

data_KUCKAW
_chemical_formula_moiety         'C25 H28 N1 O3 P1 S1'
_chemical_name_systematic        
N-(2-(Cyclohexyl(phenyl)phosphoryl)phenyl)-4-methylbenzenesulfonamide
_symmetry_cell_setting           monoclinic
_symmetry_space_group_name_H-M   'P 21/n'
_symmetry_Int_Tables_number      14
_space_group_name_Hall           '-P 2yn'
loop_
_symmetry_equiv_pos_site_id
_symmetry_equiv_pos_as_xyz
1 x,y,z
2 1/2-x,1/2+y,1/2-z
3 -x,-y,-z
4 1/2+x,1/2-y,1/2+z
_cell_length_a                   12.538(4)
_cell_length_b                   12.009(4)
_cell_length_c                   15.454(5)
_cell_angle_alpha                90
_cell_angle_beta                 101.061(10)
_cell_angle_gamma                90
_cell_volume                     2283.67
_exptl_crystal_colour            white
_exptl_crystal_description       platy
_cell_formula_units_Z            4
_exptl_crystal_recrystallization_method dichloromethane/hexane
loop_
_atom_site_label
_atom_site_type_symbol
_atom_site_fract_x
_atom_site_fract_y
_atom_site_fract_z
P1 P 0.24046(3) 0.40179(3) 0.17244(3)
S1 S 0.56272(3) 0.55724(4) 0.25431(3)
N1 N 0.43919(11) 0.53597(11) 0.27205(9)
H1 H 0.3881 0.5854 0.2535
O1 O 0.63771(11) 0.55375(12) 0.33711(9)
O2 O 0.26765(9) 0.51421(10) 0.13982(8)
O3 O 0.55346(11) 0.65639(11) 0.20152(9)
C1 C 0.10091(13) 0.39262(14) 0.18893(11)
H2 H 0.0850 0.3134 0.2019
C2 C 0.32638(13) 0.36957(14) 0.27797(10)
C3 C 0.59199(13) 0.44459(14) 0.18999(11)
C4 C 0.25797(12) 0.29402(14) 0.09525(10)
C5 C 0.58351(14) 0.45940(16) 0.09974(12)
H3 H 0.5642 0.5301 0.0737
C6 C 0.41349(13) 0.43881(13) 0.31703(10)
C7 C 0.24458(16) 0.10523(15) 0.03932(12)
H4 H 0.2247 0.0296 0.0449
C8 C 0.30266(15) 0.27564(15) 0.32480(11)
H5 H 0.2443 0.2283 0.2993
C9 C 0.44644(16) 0.32093(16) 0.44589(11)
H6 H 0.4866 0.3051 0.5032
C10 C 0.47179(15) 0.41401(15) 0.40118(11)
H7 H 0.5294 0.4615 0.4279
C11 C 0.63044(15) 0.26619(16) 0.08442(12)
C12 C 0.62476(16) 0.34220(16) 0.22894(12)
H8 H 0.6338 0.3331 0.2910
C13 C 0.02476(14) 0.42790(16) 0.10328(12)
H9 H 0.0439 0.5041 0.0870
H10 H 0.0344 0.3769 0.0550
C14 C -0.09430(15) 0.42552(19) 0.11406(14)
H11 H -0.1415 0.4514 0.0589
H12 H -0.1153 0.3482 0.1253
C15 C 0.08355(14) 0.46547(16) 0.26693(11)
H13 H 0.1298 0.4378 0.3219
H14 H 0.1054 0.5431 0.2574
C16 C 0.64382(17) 0.25438(17) 0.17630(13)
H15 H 0.6664 0.1847 0.2027
C17 C 0.22951(15) 0.18234(15) 0.10299(12)
H16 H 0.1997 0.1590 0.1521
C18 C -0.03583(16) 0.46319(18) 0.27641(13)
H17 H -0.0462 0.5137 0.3248
H18 H -0.0556 0.3869 0.2918
C19 C -0.11058(15) 0.4997(2) 0.19002(14)
H19 H -0.1873 0.4957 0.1970
H20 H -0.0944 0.5779 0.1768
C20 C 0.36258(16) 0.25037(16) 0.40766(12)
H21 H 0.3465 0.1855 0.4379
C21 C 0.28837(16) 0.13833(17) -0.03211(13)
H22 H 0.2998 0.0851 -0.0749
C22 C 0.60338(15) 0.37057(18) 0.04790(12)
H23 H 0.5984 0.3812 -0.0137
C23 C 0.64622(19) 0.16862(19) 0.02704(14)
H24 H 0.6372 0.1931 -0.0344
H25 H 0.5923 0.1111 0.0319
H26 H 0.7194 0.1381 0.0463
C24 C 0.30059(19) 0.32615(18) 0.02192(13)
H27 H 0.3196 0.4018 0.0152
C25 C 0.3154(2) 0.2483(2) -0.04145(14)
H28 H 0.3442 0.2710 -0.0912
loop_
_geom_bond_atom_site_label_1
_geom_bond_atom_site_label_2
_geom_bond_site_symmetry_1
_geom_bond_site_symmetry_2
P1 O2 1_555 1_555
S1 N1 1_555 1_555
N1 H1 1_555 1_555
O1 S1 1_555 1_555
O3 S1 1_555 1_555
C1 P1 1_555 1_555
H2 C1 1_555 1_555
C2 P1 1_555 1_555
C3 S1 1_555 1_555
C4 P1 1_555 1_555
C5 C3 1_555 1_555
H3 C5 1_555 1_555
C6 N1 1_555 1_555
C7 H4 1_555 1_555
C8 C2 1_555 1_555
H5 C8 1_555 1_555
C9 H6 1_555 1_555
C10 C6 1_555 1_555
H7 C10 1_555 1_555
C11 C16 1_555 1_555
C12 C3 1_555 1_555
H8 C12 1_555 1_555
C13 C1 1_555 1_555
H9 C13 1_555 1_555
H10 C13 1_555 1_555
C14 C13 1_555 1_555
H11 C14 1_555 1_555
H12 C14 1_555 1_555
C15 C1 1_555 1_555
H13 C15 1_555 1_555
H14 C15 1_555 1_555
C16 C12 1_555 1_555
H15 C16 1_555 1_555
C17 C4 1_555 1_555
H16 C17 1_555 1_555
C18 C15 1_555 1_555
H17 C18 1_555 1_555
H18 C18 1_555 1_555
C19 C14 1_555 1_555
H19 C19 1_555 1_555
H20 C19 1_555 1_555
C20 C8 1_555 1_555
H21 C20 1_555 1_555
C21 C7 1_555 1_555
H22 C21 1_555 1_555
C22 C5 1_555 1_555
H23 C22 1_555 1_555
C23 C11 1_555 1_555
H24 C23 1_555 1_555
H25 C23 1_555 1_555
H26 C23 1_555 1_555
C24 C4 1_555 1_555
H27 C24 1_555 1_555
C25 C21 1_555 1_555
H28 C25 1_555 1_555
C2 C6 1_555 1_555
C7 C17 1_555 1_555
C9 C10 1_555 1_555
C9 C20 1_555 1_555
C11 C22 1_555 1_555
C18 C19 1_555 1_555
C24 C25 1_555 1_555

#END
