
#######################################################################
#
#                 Cambridge Crystallographic Data Centre
#                                CCDC 
#
#######################################################################
#
# If this CIF has been generated from an entry in the Cambridge 
# Structural Database, then it will include bibliographic, chemical, 
# crystal, experimental, refinement or atomic coordinate data resulting 
# from the CCDC's data processing and validation procedures.
#
#######################################################################

data_KUCRUX
_chemical_formula_moiety         'C27 H22 Br1 N4 3+,3(Cl1 O4 1-),1.5(H2 O1)'
_chemical_name_systematic        
'1-(4-bromobenzyl)-4-[2,6-di(pyridinium-2-yl)pyridin-4-yl]pyridinium tris(perchlorate) sesquihydrate'
_symmetry_cell_setting           monoclinic
_symmetry_space_group_name_H-M   'C 2/c'
_symmetry_Int_Tables_number      15
_space_group_name_Hall           '-C 2yn'
loop_
_symmetry_equiv_pos_site_id
_symmetry_equiv_pos_as_xyz
1 x,y,z
2 -x,y,1/2-z
3 1/2+x,1/2+y,z
4 1/2-x,1/2+y,1/2-z
5 -x,-y,-z
6 x,-y,1/2+z
7 1/2-x,1/2-y,-z
8 1/2+x,1/2-y,1/2+z
_cell_length_a                   25.816(7)
_cell_length_b                   12.486(3)
_cell_length_c                   20.898(6)
_cell_angle_alpha                90
_cell_angle_beta                 110.361(4)
_cell_angle_gamma                90
_cell_volume                     6315.35
_exptl_crystal_colour            'light green'
_exptl_crystal_description       prismatic
_cell_formula_units_Z            8
loop_
_atom_site_label
_atom_site_type_symbol
_atom_site_fract_x
_atom_site_fract_y
_atom_site_fract_z
Br1 Br -0.17545(3) 0.27380(5) 0.08656(4)
N1 N 0.0885(2) 0.0507(4) 0.1872(3)
N2 N 0.3007(2) -0.0261(4) 0.5044(3)
N3 N 0.3793(3) 0.1472(6) 0.4287(4)
H1 H 0.3547 0.1697 0.3902
N4 N 0.2005(4) -0.1942(7) 0.5481(4)
H2 H 0.1714 -0.1954 0.5104
C1 C -0.1068(3) 0.2062(5) 0.0988(4)
C2 C -0.0600(3) 0.2361(6) 0.1526(4)
H3 H -0.0623 0.2887 0.1843
C3 C -0.0096(3) 0.1883(6) 0.1598(4)
H4 H 0.0227 0.2096 0.1961
C4 C -0.0062(3) 0.1105(5) 0.1149(4)
C5 C -0.0540(3) 0.0801(5) 0.0607(3)
H5 H -0.0518 0.0265 0.0295
C6 C -0.1046(3) 0.1278(6) 0.0526(3)
H6 H -0.1370 0.1073 0.0161
C7 C 0.0483(3) 0.0609(6) 0.1176(4)
H7 H 0.0410 -0.0110 0.0964
H8 H 0.0646 0.1055 0.0903
C8 C 0.1289(3) 0.1250(5) 0.2120(4)
H9 H 0.1296 0.1858 0.1849
C9 C 0.1685(3) 0.1143(5) 0.2747(3)
H10 H 0.1964 0.1673 0.2908
C10 C 0.1683(3) 0.0260(5) 0.3155(4)
C11 C 0.1257(3) -0.0477(6) 0.2904(4)
H11 H 0.1235 -0.1079 0.3172
C12 C 0.0863(3) -0.0330(6) 0.2263(4)
H12 H 0.0572 -0.0834 0.2097
C13 C 0.2137(3) 0.0091(5) 0.3817(3)
C14 C 0.2667(3) 0.0505(5) 0.3926(4)
H13 H 0.2742 0.0908 0.3582
C15 C 0.3080(3) 0.0308(5) 0.4553(3)
C16 C 0.2499(3) -0.0662(5) 0.4942(3)
C17 C 0.2058(3) -0.0493(5) 0.4353(4)
H14 H 0.1703 -0.0767 0.4307
C18 C 0.3650(3) 0.0747(5) 0.4710(4)
C19 C 0.4034(3) 0.0421(5) 0.5290(3)
H15 H 0.3929 -0.0072 0.5568
C20 C 0.4553(3) 0.0748(6) 0.5498(4)
H16 H 0.4808 0.0512 0.5923
C21 C 0.4722(3) 0.1444(6) 0.5085(4)
H17 H 0.5098 0.1652 0.5211
C22 C 0.4336(3) 0.1820(6) 0.4497(4)
H18 H 0.4442 0.2329 0.4228
C23 C 0.2459(3) -0.1311(5) 0.5522(4)
C24 C 0.2889(3) -0.1282(5) 0.6110(3)
H19 H 0.3196 -0.0843 0.6134
C25 C 0.2908(4) -0.1844(7) 0.6669(4)
H20 H 0.3217 -0.1788 0.7080
C26 C 0.2468(4) -0.2505(6) 0.6631(4)
H21 H 0.2479 -0.2924 0.7014
C27 C 0.2017(4) -0.2558(6) 0.6045(5)
H22 H 0.1714 -0.3009 0.6021
Cl1 Cl 0.10831(8) 0.42429(14) 0.18236(10)
O1 O 0.0656(3) 0.5018(6) 0.1700(4)
O2 O 0.1589(3) 0.4742(7) 0.1888(4)
O3 O 0.0919(3) 0.3512(6) 0.1252(3)
O4 O 0.1142(3) 0.3660(5) 0.2441(3)
Cl2 Cl 0.29874(7) 0.39549(13) 0.35737(9)
O5 O 0.2788(2) 0.4060(5) 0.4129(3)
O6 O 0.2771(3) 0.4803(5) 0.3093(3)
O7 O 0.3584(2) 0.3996(5) 0.3834(3)
O8 O 0.2807(2) 0.2939(4) 0.3231(3)
Cl3 Cl 0.44571(8) 0.26570(14) 0.10231(11)
O9 O 0.3890(2) 0.2620(5) 0.0996(3)
O10 O 0.4761(3) 0.3266(6) 0.1627(4)
O11 O 0.4494(3) 0.3174(6) 0.0446(4)
O12 O 0.4665(3) 0.1600(5) 0.1072(4)
O13 O 0.0738(4) 0.6841(7) 0.2471(5)
O14 O 0.1107(2) 0.5230(4) 0.3448(3)
loop_
_geom_bond_atom_site_label_1
_geom_bond_atom_site_label_2
_geom_bond_site_symmetry_1
_geom_bond_site_symmetry_2
Br1 C1 1_555 1_555
N1 C7 1_555 1_555
N2 C15 1_555 1_555
N3 H1 1_555 1_555
N4 H2 1_555 1_555
C1 C2 1_555 1_555
C2 H3 1_555 1_555
C3 C2 1_555 1_555
H4 C3 1_555 1_555
C4 C3 1_555 1_555
C5 C4 1_555 1_555
H5 C5 1_555 1_555
C6 C1 1_555 1_555
H6 C6 1_555 1_555
C7 C4 1_555 1_555
H7 C7 1_555 1_555
H8 C7 1_555 1_555
C8 N1 1_555 1_555
H9 C8 1_555 1_555
C9 C8 1_555 1_555
H10 C9 1_555 1_555
C10 C9 1_555 1_555
C11 C10 1_555 1_555
H11 C11 1_555 1_555
C12 N1 1_555 1_555
H12 C12 1_555 1_555
C13 C10 1_555 1_555
C14 C13 1_555 1_555
H13 C14 1_555 1_555
C15 C14 1_555 1_555
C16 N2 1_555 1_555
C17 C13 1_555 1_555
H14 C17 1_555 1_555
C18 N3 1_555 1_555
C19 C18 1_555 1_555
H15 C19 1_555 1_555
C20 C19 1_555 1_555
H16 C20 1_555 1_555
C21 C20 1_555 1_555
H17 C21 1_555 1_555
C22 N3 1_555 1_555
H18 C22 1_555 1_555
C23 N4 1_555 1_555
C24 C23 1_555 1_555
H19 C24 1_555 1_555
C25 C24 1_555 1_555
H20 C25 1_555 1_555
C26 C25 1_555 1_555
H21 C26 1_555 1_555
C27 N4 1_555 1_555
H22 C27 1_555 1_555
Cl1 O1 1_555 1_555
O2 Cl1 1_555 1_555
O3 Cl1 1_555 1_555
O4 Cl1 1_555 1_555
Cl2 O5 1_555 1_555
O6 Cl2 1_555 1_555
O7 Cl2 1_555 1_555
O8 Cl2 1_555 1_555
Cl3 O9 1_555 1_555
O10 Cl3 1_555 1_555
O11 Cl3 1_555 1_555
O12 Cl3 1_555 1_555
C5 C6 1_555 1_555
C11 C12 1_555 1_555
C15 C18 1_555 1_555
C16 C17 1_555 1_555
C16 C23 1_555 1_555
C21 C22 1_555 1_555
C26 C27 1_555 1_555

#END
