
#######################################################################
#
#                 Cambridge Crystallographic Data Centre
#                                CCDC 
#
#######################################################################
#
# If this CIF has been generated from an entry in the Cambridge 
# Structural Database, then it will include bibliographic, chemical, 
# crystal, experimental, refinement or atomic coordinate data resulting 
# from the CCDC's data processing and validation procedures.
#
#######################################################################

data_KUDDIY
_chemical_formula_moiety         'C18 H16 S2'
_chemical_name_systematic        
2-t-butyl[1]benzothieno[3,2-b][1]benzothiophene
_symmetry_cell_setting           orthorhombic
_symmetry_space_group_name_H-M   'P 21 21 21'
_symmetry_Int_Tables_number      19
_space_group_name_Hall           'P 2ac 2ab'
loop_
_symmetry_equiv_pos_site_id
_symmetry_equiv_pos_as_xyz
1 x,y,z
2 1/2-x,-y,1/2+z
3 -x,1/2+y,1/2-z
4 1/2+x,1/2-y,-z
_cell_length_a                   6.0647(6)
_cell_length_b                   7.6971(6)
_cell_length_c                   30.801(3)
_cell_angle_alpha                90
_cell_angle_beta                 90
_cell_angle_gamma                90
_cell_volume                     1437.81
_exptl_crystal_colour            colorless
_exptl_crystal_description       flake
_cell_formula_units_Z            4
_exptl_crystal_recrystallization_method 'Vapour Deposition'
_exptl_crystal_preparation       'Extremely thin, possibly mis-stacked plates.'
loop_
_atom_site_label
_atom_site_type_symbol
_atom_site_fract_x
_atom_site_fract_y
_atom_site_fract_z
S1 S 1.0323(5) 0.3743(4) 0.28018(11)
S2 S 0.4653(5) 0.5895(4) 0.22329(11)
C1 C 0.8599(15) 0.4367(6) 0.3230(4)
C2 C 0.9016(18) 0.4188(9) 0.3657(5)
H1 H 1.0358 0.3681 0.3754
C3 C 0.7396(19) 0.4779(10) 0.3966(4)
H2 H 0.7647 0.4668 0.4269
C4 C 0.547(2) 0.5507(10) 0.3812(4)
H3 H 0.4412 0.5895 0.4017
C5 C 0.5021(18) 0.5698(9) 0.3393(4)
H4 H 0.3669 0.6208 0.3304
C6 C 0.6629(18) 0.5113(8) 0.3069(4)
C7 C 0.6566(19) 0.5159(8) 0.2612(4)
C8 C 0.8377(19) 0.4492(8) 0.2416(4)
C9 C 0.8433(19) 0.4495(8) 0.1955(4)
C10 C 0.6435(19) 0.5249(8) 0.1818(4)
C11 C 0.597(2) 0.5445(9) 0.1366(5)
H5 H 0.4620 0.5959 0.1279
C12 C 0.739(2) 0.4928(10) 0.1065(4)
C13 C 0.949(2) 0.4135(10) 0.1226(4)
H6 H 1.0554 0.3747 0.1022
C14 C 0.991(2) 0.3958(9) 0.1648(4)
H7 H 1.1257 0.3448 0.1738
C15 C 0.700(2) 0.5099(11) 0.0582(5)
C16 C 0.454(2) 0.4901(19) 0.0479(5)
H8 H 0.4016 0.3774 0.0586
H9 H 0.4313 0.4969 0.0164
H10 H 0.3712 0.5834 0.0622
C17 C 0.778(2) 0.6898(19) 0.0425(5)
H11 H 0.7423 0.7037 0.0117
H12 H 0.9380 0.6997 0.0465
H13 H 0.7037 0.7805 0.0593
C18 C 0.832(3) 0.3645(19) 0.0319(5)
H14 H 0.8150 0.2522 0.0464
H15 H 0.9887 0.3954 0.0307
H16 H 0.7734 0.3567 0.0023
S3? S 0.471(3) 0.5939(15) 0.2651(12)
S4? S 1.070(4) 0.398(3) 0.2170(13)
C19? C 0.617(3) 0.5147(13) 0.3100(12)
C20? C 0.550(6) 0.516(3) 0.3517(13)
H17? H 0.4106 0.5640 0.3593
C21? C 0.693(8) 0.445(3) 0.3845(14)
H18? H 0.6499 0.4444 0.4142
C22? C 0.893(8) 0.377(4) 0.3720(15)
H19? H 0.9869 0.3304 0.3938
C23? C 0.963(6) 0.374(3) 0.3312(15)
H20? H 1.1032 0.3258 0.3243
C24? C 0.823(4) 0.445(2) 0.2969(12)
C25? C 0.856(4) 0.458(2) 0.2517(13)
C26? C 0.688(4) 0.5330(19) 0.2297(12)
C27? C 0.711(5) 0.550(2) 0.1840(13)
C28? C 0.918(6) 0.479(3) 0.1733(13)
C29? C 0.992(7) 0.476(3) 0.1293(13)
H21? H 1.1319 0.4273 0.1228
C30? C 0.869(8) 0.539(4) 0.0974(14)
C31? C 0.651(8) 0.613(4) 0.1103(14)
H22? H 0.5571 0.6603 0.0885
C32? C 0.583(7) 0.616(3) 0.1514(14)
H23? H 0.4435 0.6638 0.1582
C33? C 0.934(11) 0.541(5) 0.0500(14)
C34? C 0.726(15) 0.54(2) 0.022(2)
H24? H 0.7690 0.5420 -0.0091
H25? H 0.6400 0.4357 0.0276
H26? H 0.6372 0.6435 0.0280
C35? C 1.07(3) 0.707(12) 0.040(2)
H27? H 1.1094 0.7079 0.0093
H28? H 0.9773 0.8095 0.0465
H29? H 1.2008 0.7092 0.0581
C36? C 1.08(3) 0.376(13) 0.038(3)
H30? H 1.1193 0.3818 0.0067
H31? H 1.2149 0.3757 0.0551
H32? H 0.9959 0.2701 0.0432
loop_
_geom_bond_atom_site_label_1
_geom_bond_atom_site_label_2
_geom_bond_site_symmetry_1
_geom_bond_site_symmetry_2
S1 C1 1_555 1_555
S2 C7 1_555 1_555
C1 C2 1_555 1_555
C2 H1 1_555 1_555
C3 C2 1_555 1_555
H2 C3 1_555 1_555
C4 C3 1_555 1_555
H3 C4 1_555 1_555
C5 C4 1_555 1_555
H4 C5 1_555 1_555
C6 C1 1_555 1_555
C7 C6 1_555 1_555
C8 S1 1_555 1_555
C9 C8 1_555 1_555
C10 S2 1_555 1_555
C11 C10 1_555 1_555
H5 C11 1_555 1_555
C12 C11 1_555 1_555
C13 C12 1_555 1_555
H6 C13 1_555 1_555
C14 C9 1_555 1_555
H7 C14 1_555 1_555
C15 C12 1_555 1_555
C16 C15 1_555 1_555
H8 C16 1_555 1_555
H9 C16 1_555 1_555
H10 C16 1_555 1_555
C17 C15 1_555 1_555
H11 C17 1_555 1_555
H12 C17 1_555 1_555
H13 C17 1_555 1_555
C18 C15 1_555 1_555
H14 C18 1_555 1_555
H15 C18 1_555 1_555
H16 C18 1_555 1_555
C5 C6 1_555 1_555
C7 C8 1_555 1_555
C9 C10 1_555 1_555
C13 C14 1_555 1_555

#END
