
#######################################################################
#
#                 Cambridge Crystallographic Data Centre
#                                CCDC 
#
#######################################################################
#
# If this CIF has been generated from an entry in the Cambridge 
# Structural Database, then it will include bibliographic, chemical, 
# crystal, experimental, refinement or atomic coordinate data resulting 
# from the CCDC's data processing and validation procedures.
#
#######################################################################

data_KUDDUK
_chemical_formula_moiety         'C20 H20 S2'
_chemical_name_systematic        
2,7-diisopropyl[1]benzothieno[3,2-b][1]benzothiophene
_symmetry_cell_setting           monoclinic
_symmetry_space_group_name_H-M   'P 21/c'
_symmetry_Int_Tables_number      14
_space_group_name_Hall           '-P 2ybc'
loop_
_symmetry_equiv_pos_site_id
_symmetry_equiv_pos_as_xyz
1 x,y,z
2 -x,1/2+y,1/2-z
3 -x,-y,-z
4 x,1/2-y,1/2+z
_cell_length_a                   11.5002(8)
_cell_length_b                   6.2421(4)
_cell_length_c                   11.7468(9)
_cell_angle_alpha                90
_cell_angle_beta                 94.996(5)
_cell_angle_gamma                90
_cell_volume                     840.045
_exptl_crystal_colour            colorless
_exptl_crystal_description       'Extremely thin plates'
_cell_formula_units_Z            2
_exptl_crystal_recrystallization_method 'Vapour Deposition'
loop_
_atom_site_label
_atom_site_type_symbol
_atom_site_fract_x
_atom_site_fract_y
_atom_site_fract_z
S1 S -0.03904(18) -0.2909(3) 0.07637(18)
C1 C -0.0467(8) -0.0686(13) -0.0129(7)
C2 C 0.0860(6) -0.1861(12) 0.1548(6)
C3 C 0.1474(7) -0.2803(10) 0.2477(6)
H1 H 0.1236 -0.4148 0.2755
C4 C 0.2479(8) -0.1730(17) 0.3018(7)
C5 C 0.2804(7) 0.0203(13) 0.2610(7)
H2 H 0.3467 0.0917 0.2970
C6 C 0.2194(6) 0.1124(11) 0.1695(6)
H3 H 0.2446 0.2470 0.1430
C7 C 0.1206(7) 0.0153(10) 0.1129(6)
C8 C 0.3155(18) -0.281(5) 0.4036(9)
H4 H 0.2699 -0.4077 0.4265
C9 C 0.342(4) -0.145(9) 0.504(3)
H5 H 0.3767 -0.0106 0.4813
H6 H 0.3967 -0.2200 0.5592
H7 H 0.2696 -0.1147 0.5398
C10 C 0.4338(16) -0.364(6) 0.357(2)
H8 H 0.4577 -0.2642 0.2989
H9 H 0.4213 -0.5062 0.3234
H10 H 0.4950 -0.3711 0.4205
S1B S 0.03904(18) 0.2909(3) -0.07637(18)
C1B C 0.0467(8) 0.0686(13) 0.0129(7)
C2B C -0.0860(6) 0.1861(12) -0.1548(6)
C3B C -0.1474(7) 0.2803(10) -0.2477(6)
H1B H -0.1236 0.4148 -0.2755
C4B C -0.2479(8) 0.1730(17) -0.3018(7)
C5B C -0.2804(7) -0.0203(13) -0.2610(7)
H2B H -0.3467 -0.0917 -0.2970
C6B C -0.2194(6) -0.1124(11) -0.1695(6)
H3B H -0.2446 -0.2470 -0.1430
C7B C -0.1206(7) -0.0153(10) -0.1129(6)
C8B C -0.3155(18) 0.281(5) -0.4036(9)
H4B H -0.2699 0.4077 -0.4265
C9B C -0.342(4) 0.145(9) -0.504(3)
H5B H -0.3767 0.0106 -0.4813
H6B H -0.3967 0.2200 -0.5592
H7B H -0.2696 0.1147 -0.5398
C10B C -0.4338(16) 0.364(6) -0.357(2)
H8B H -0.4577 0.2642 -0.2989
H9B H -0.4213 0.5062 -0.3234
H10B H -0.4950 0.3711 -0.4205
S2? S -0.1299(2) -0.2258(4) -0.0494(2)
C11? C -0.0083(8) -0.0987(17) 0.0170(8)
C12? C -0.1541(8) -0.0065(15) -0.1424(7)
C13? C -0.2420(9) 0.021(2) -0.2300(9)
H11? H -0.3000 -0.0850 -0.2471
C14? C -0.2416(11) 0.221(2) -0.2944(8)
C15? C -0.1588(10) 0.366(2) -0.2682(9)
H12? H -0.1603 0.4942 -0.3117
C16? C -0.0719(9) 0.3410(17) -0.1827(8)
H13? H -0.0148 0.4496 -0.1673
C17? C -0.0684(8) 0.1519(17) -0.1181(7)
C18? C -0.328(2) 0.292(6) -0.3939(11)
H14? H -0.3011 0.4340 -0.4208
C19? C -0.339(5) 0.148(11) -0.494(3)
H15? H -0.3805 0.0176 -0.4742
H16? H -0.3836 0.2206 -0.5576
H17? H -0.2615 0.1114 -0.5153
C20? C -0.452(2) 0.329(7) -0.348(3)
H18? H -0.4431 0.4132 -0.2777
H19? H -0.5027 0.4055 -0.4060
H20? H -0.4872 0.1898 -0.3326
loop_
_geom_bond_atom_site_label_1
_geom_bond_atom_site_label_2
_geom_bond_site_symmetry_1
_geom_bond_site_symmetry_2
S1 C1 1_555 1_555
C1 C1B 1_555 1_555
C2 S1 1_555 1_555
C3 C2 1_555 1_555
H1 C3 1_555 1_555
C4 C3 1_555 1_555
C5 C4 1_555 1_555
H2 C5 1_555 1_555
C6 C5 1_555 1_555
H3 C6 1_555 1_555
C7 C2 1_555 1_555
C8 C4 1_555 1_555
H4 C8 1_555 1_555
C9 C8 1_555 1_555
H5 C9 1_555 1_555
H6 C9 1_555 1_555
H7 C9 1_555 1_555
C10 C8 1_555 1_555
H8 C10 1_555 1_555
H9 C10 1_555 1_555
H10 C10 1_555 1_555
S1B C1B 1_555 1_555
C1B C7 1_555 1_555
C2B S1B 1_555 1_555
C3B C2B 1_555 1_555
H1B C3B 1_555 1_555
C4B C3B 1_555 1_555
C5B C4B 1_555 1_555
H2B C5B 1_555 1_555
C6B C5B 1_555 1_555
H3B C6B 1_555 1_555
C7B C1 1_555 1_555
C8B C4B 1_555 1_555
H4B C8B 1_555 1_555
C9B C8B 1_555 1_555
H5B C9B 1_555 1_555
H6B C9B 1_555 1_555
H7B C9B 1_555 1_555
C10B C8B 1_555 1_555
H8B C10B 1_555 1_555
H9B C10B 1_555 1_555
H10B C10B 1_555 1_555
C6 C7 1_555 1_555
C2B C7B 1_555 1_555
C6B C7B 1_555 1_555

#END
