
#######################################################################
#
#                 Cambridge Crystallographic Data Centre
#                                CCDC 
#
#######################################################################
#
# If this CIF has been generated from an entry in the Cambridge 
# Structural Database, then it will include bibliographic, chemical, 
# crystal, experimental, refinement or atomic coordinate data resulting 
# from the CCDC's data processing and validation procedures.
#
#######################################################################

data_KUDNII
_chemical_formula_moiety         'C13 H12 N2 O2 S1'
_chemical_name_systematic        'methyl (1-naphthylcarbamothioyl)carbamate'
_symmetry_cell_setting           triclinic
_symmetry_space_group_name_H-M   'P -1'
_symmetry_Int_Tables_number      2
_space_group_name_Hall           '-P 1'
loop_
_symmetry_equiv_pos_site_id
_symmetry_equiv_pos_as_xyz
1 x,y,z
2 -x,-y,-z
_cell_length_a                   10.979(5)
_cell_length_b                   11.143(5)
_cell_length_c                   11.531(5)
_cell_angle_alpha                88.635(5)
_cell_angle_beta                 79.402(5)
_cell_angle_gamma                62.252(5)
_cell_volume                     1224.07
_exptl_crystal_colour            colorless
_exptl_crystal_description       prism
_cell_formula_units_Z            4
_exptl_crystal_recrystallization_method 
'Re-crystallisation from solvent: acetone'
loop_
_atom_site_label
_atom_site_type_symbol
_atom_site_fract_x
_atom_site_fract_y
_atom_site_fract_z
S1 S 1.27587(3) 0.19352(3) 0.42978(2)
O1 O 0.82621(8) 0.38937(9) 0.36723(6)
O2 O 0.93781(8) 0.37091(8) 0.17839(6)
N1 N 1.00106(9) 0.30357(8) 0.51860(6)
H1 H 0.9147 0.3486 0.5062
N2 N 1.06555(8) 0.30743(8) 0.31700(6)
H2 H 1.1328 0.2958 0.2565
C1 C 1.01772(9) 0.27035(9) 0.63653(7)
C2 C 1.07990(11) 0.32287(10) 0.69756(8)
H3 H 1.1167 0.3791 0.6599
C3 C 1.08947(13) 0.29367(12) 0.81621(9)
H4 H 1.1340 0.3292 0.8579
C4 C 1.03466(11) 0.21420(11) 0.87175(8)
H5 H 1.0399 0.1966 0.9522
C5 C 0.97054(10) 0.15842(9) 0.81055(7)
C6 C 0.91483(11) 0.07420(10) 0.86541(8)
H6 H 0.9166 0.0581 0.9465
C7 C 0.85880(11) 0.01612(10) 0.80330(10)
H7 H 0.8230 -0.0408 0.8411
C8 C 0.85392(11) 0.04051(10) 0.68323(9)
H8 H 0.8157 -0.0009 0.6403
C9 C 0.90393(10) 0.12348(9) 0.62812(8)
H9 H 0.8989 0.1401 0.5475
C10 C 0.96300(9) 0.18466(8) 0.69015(7)
C11 C 1.10509(10) 0.27234(9) 0.42516(7)
C12 C 0.93240(10) 0.35856(9) 0.29399(7)
C13 C 0.80326(12) 0.42981(12) 0.14198(9)
H10 H 0.8152 0.4510 0.0590
H11 H 0.7378 0.5134 0.1915
H12 H 0.7659 0.3649 0.1508
S2 S 0.28349(3) 0.22957(3) 1.06092(2)
O3 O 0.70074(8) 0.17355(8) 1.13349(6)
O4 O 0.61002(8) 0.13713(8) 1.31513(6)
N3 N 0.53893(8) 0.20483(8) 0.97712(6)
H13 H 0.6211 0.1873 0.9923
N4 N 0.48933(8) 0.16901(8) 1.17411(6)
H14 H 0.4341 0.1529 1.2306
C14 C 0.51937(9) 0.23554(9) 0.85962(7)
C15 C 0.46859(11) 0.17141(10) 0.79756(8)
H15 H 0.4430 0.1070 0.8341
C16 C 0.45417(11) 0.20049(11) 0.68001(8)
H16 H 0.4168 0.1572 0.6382
C17 C 0.49378(11) 0.29111(10) 0.62536(8)
H17 H 0.4826 0.3109 0.5462
C18 C 0.55099(10) 0.35516(9) 0.68594(7)
C19 C 0.59974(11) 0.44384(10) 0.62929(9)
H18 H 0.5939 0.4606 0.5488
C20 C 0.65479(12) 0.50535(10) 0.68871(10)
H19 H 0.6872 0.5640 0.6494
C21 C 0.66362(11) 0.48196(10) 0.80836(10)
H20 H 0.7013 0.5256 0.8494
C22 C 0.61818(10) 0.39647(9) 0.86594(8)
H21 H 0.6243 0.3818 0.9466
C23 C 0.56228(9) 0.33003(8) 0.80597(7)
C24 C 0.44624(9) 0.19964(9) 1.06689(7)
C25 C 0.60952(10) 0.16107(9) 1.20170(7)
C26 C 0.72840(11) 0.13099(13) 1.35852(9)
H22 H 0.7352 0.0874 1.4336
H23 H 0.7152 0.2233 1.3709
H24 H 0.8148 0.0781 1.3004
loop_
_geom_bond_atom_site_label_1
_geom_bond_atom_site_label_2
_geom_bond_site_symmetry_1
_geom_bond_site_symmetry_2
S1 C11 1_555 1_555
O1 C12 1_555 1_555
O2 C12 1_555 1_555
N1 H1 1_555 1_555
N2 H2 1_555 1_555
C1 N1 1_555 1_555
C2 C1 1_555 1_555
H3 C2 1_555 1_555
C3 C2 1_555 1_555
H4 C3 1_555 1_555
C4 C3 1_555 1_555
H5 C4 1_555 1_555
C5 C4 1_555 1_555
C6 C5 1_555 1_555
H6 C6 1_555 1_555
C7 C6 1_555 1_555
H7 C7 1_555 1_555
C8 C7 1_555 1_555
H8 C8 1_555 1_555
C9 C8 1_555 1_555
H9 C9 1_555 1_555
C10 C1 1_555 1_555
C11 N1 1_555 1_555
C12 N2 1_555 1_555
C13 O2 1_555 1_555
H10 C13 1_555 1_555
H11 C13 1_555 1_555
H12 C13 1_555 1_555
S2 C24 1_555 1_555
O3 C25 1_555 1_555
O4 C25 1_555 1_555
N3 H13 1_555 1_555
N4 H14 1_555 1_555
C14 N3 1_555 1_555
C15 C14 1_555 1_555
H15 C15 1_555 1_555
C16 C15 1_555 1_555
H16 C16 1_555 1_555
C17 C16 1_555 1_555
H17 C17 1_555 1_555
C18 C17 1_555 1_555
C19 C18 1_555 1_555
H18 C19 1_555 1_555
C20 C19 1_555 1_555
H19 C20 1_555 1_555
C21 C20 1_555 1_555
H20 C21 1_555 1_555
C22 C21 1_555 1_555
H21 C22 1_555 1_555
C23 C14 1_555 1_555
C24 N3 1_555 1_555
C25 N4 1_555 1_555
C26 O4 1_555 1_555
H22 C26 1_555 1_555
H23 C26 1_555 1_555
H24 C26 1_555 1_555
N2 C11 1_555 1_555
C5 C10 1_555 1_555
C9 C10 1_555 1_555
N4 C24 1_555 1_555
C18 C23 1_555 1_555
C22 C23 1_555 1_555

#END
