
#######################################################################
#
#                 Cambridge Crystallographic Data Centre
#                                CCDC 
#
#######################################################################
#
# If this CIF has been generated from an entry in the Cambridge 
# Structural Database, then it will include bibliographic, chemical, 
# crystal, experimental, refinement or atomic coordinate data resulting 
# from the CCDC's data processing and validation procedures.
#
#######################################################################

data_KUDYIT
_chemical_formula_moiety         'C19 H20 F3 N1'
_chemical_name_systematic        
2-(biphenyl-4-yl)-6-methyl-3-(trifluoromethyl)piperidine
_symmetry_cell_setting           monoclinic
_symmetry_space_group_name_H-M   'P 21'
_symmetry_Int_Tables_number      4
_space_group_name_Hall           'P 2yb'
loop_
_symmetry_equiv_pos_site_id
_symmetry_equiv_pos_as_xyz
1 x,y,z
2 -x,1/2+y,-z
_cell_length_a                   10.4422(3)
_cell_length_b                   33.2582(10)
_cell_length_c                   10.4466(3)
_cell_angle_alpha                90
_cell_angle_beta                 114.770(2)
_cell_angle_gamma                90
_cell_volume                     3294.2
_exptl_crystal_colour            colorless
_cell_formula_units_Z            8
loop_
_atom_site_label
_atom_site_type_symbol
_atom_site_fract_x
_atom_site_fract_y
_atom_site_fract_z
N1 N 0.5983(4) 0.71627(11) 0.4466(3)
H1 H 0.6540 0.7313 0.5138
F1 F 0.8087(3) 0.72278(10) 0.2261(4)
F2 F 0.7961(3) 0.65968(10) 0.2062(3)
F3 F 0.8436(3) 0.68704(15) 0.4029(3)
C1 C 0.5786(6) 0.67304(17) 0.6264(5)
H2 H 0.6795 0.6740 0.6755
H3 H 0.5453 0.6474 0.6419
H4 H 0.5382 0.6940 0.6611
C2 C 0.5360(4) 0.67900(14) 0.4708(4)
H5 H 0.4330 0.6811 0.4232
C3 C 0.5837(5) 0.64396(14) 0.4073(4)
H6 H 0.6846 0.6403 0.4594
H7 H 0.5375 0.6196 0.4166
C4 C 0.5506(5) 0.65062(13) 0.2550(4)
H8 H 0.4492 0.6497 0.2005
H9 H 0.5920 0.6291 0.2222
C5 C 0.6068(4) 0.69137(13) 0.2292(4)
H10 H 0.5604 0.6961 0.1273
C6 C 0.5567(4) 0.72530(12) 0.2979(4)
H11 H 0.4534 0.7245 0.2532
C7 C 0.7622(4) 0.69045(14) 0.2674(4)
C8 C 0.5979(4) 0.76736(12) 0.2748(4)
C9 C 0.5499(5) 0.78201(14) 0.1408(4)
H12 H 0.4917 0.7660 0.0661
C10 C 0.5856(5) 0.82008(14) 0.1130(4)
H13 H 0.5502 0.8290 0.0201
C11 C 0.6724(4) 0.84526(13) 0.2196(3)
C12 C 0.7159(5) 0.83056(14) 0.3552(4)
H14 H 0.7709 0.8469 0.4306
C13 C 0.6802(5) 0.79207(13) 0.3832(4)
H15 H 0.7125 0.7832 0.4759
C14 C 0.7162(4) 0.88565(12) 0.1900(4)
C15 C 0.6880(6) 0.89703(17) 0.0543(5)
H16 H 0.6375 0.8798 -0.0199
C16 C 0.7333(8) 0.9337(2) 0.0264(6)
H17 H 0.7130 0.9407 -0.0663
C17 C 0.8069(6) 0.95955(16) 0.1319(5)
H18 H 0.8352 0.9844 0.1121
C18 C 0.8385(7) 0.94860(16) 0.2665(5)
H19 H 0.8908 0.9658 0.3401
C19 C 0.7930(6) 0.91171(15) 0.2956(5)
H20 H 0.8154 0.9047 0.3887
N2 N 0.0978(4) 0.71604(11) 0.9466(3)
H21 H 0.1536 0.7311 1.0138
F4 F 0.2964(3) 0.65972(10) 0.7067(3)
F5 F 0.3083(3) 0.72275(10) 0.7258(4)
F6 F 0.3435(3) 0.68707(15) 0.9029(3)
C20 C 0.0789(6) 0.67289(17) 1.1261(5)
H22 H 0.1794 0.6756 1.1755
H23 H 0.0513 0.6465 1.1424
H24 H 0.0336 0.6928 1.1596
C21 C 0.0358(4) 0.67877(15) 0.9705(4)
H25 H -0.0672 0.6808 0.9230
C22 C 0.0839(5) 0.64373(14) 0.9069(4)
H26 H 0.1848 0.6401 0.9593
H27 H 0.0376 0.6193 0.9160
C23 C 0.0511(5) 0.65055(14) 0.7548(4)
H28 H -0.0502 0.6495 0.7002
H29 H 0.0929 0.6291 0.7221
C24 C 0.1065(4) 0.69129(14) 0.7288(4)
H30 H 0.0603 0.6961 0.6269
C25 C 0.0560(4) 0.72503(12) 0.7987(4)
H31 H -0.0473 0.7243 0.7540
C26 C 0.2618(4) 0.69042(14) 0.7679(4)
C27 C 0.0979(4) 0.76709(13) 0.7745(4)
C28 C 0.0498(6) 0.78190(14) 0.6406(4)
H32 H -0.0087 0.7659 0.5658
C29 C 0.0852(6) 0.81990(14) 0.6127(4)
H33 H 0.0501 0.8289 0.5199
C30 C 0.1719(4) 0.84492(13) 0.7200(3)
C31 C 0.2154(5) 0.83028(14) 0.8559(4)
H34 H 0.2703 0.8466 0.9312
C32 C 0.1798(5) 0.79180(14) 0.8836(4)
H35 H 0.2115 0.7829 0.9762
C33 C 0.2153(4) 0.88509(12) 0.6888(4)
C34 C 0.1873(6) 0.89715(17) 0.5554(5)
H36 H 0.1351 0.8802 0.4809
C35 C 0.2332(7) 0.9335(2) 0.5257(6)
H37 H 0.2138 0.9403 0.4331
C36 C 0.3064(5) 0.95939(16) 0.6319(5)
H38 H 0.3343 0.9844 0.6125
C37 C 0.3383(7) 0.94825(17) 0.7667(6)
H39 H 0.3908 0.9654 0.8404
C38 C 0.2928(7) 0.91131(16) 0.7959(5)
H40 H 0.3152 0.9042 0.8890
N3 N 0.0532(3) 0.51985(11) 0.4017(3)
H41 H -0.0141 0.5049 0.3456
F7 F 0.2936(4) 0.57627(10) 0.2038(3)
F8 F 0.0980(4) 0.54890(14) 0.1568(3)
F9 F 0.2731(4) 0.51303(10) 0.1912(3)
C39 C -0.1263(5) 0.56257(16) 0.4220(5)
H42 H -0.1768 0.5589 0.3221
H43 H -0.1427 0.5892 0.4471
H44 H -0.1585 0.5433 0.4703
C40 C 0.0294(5) 0.55673(14) 0.4640(4)
H45 H 0.0773 0.5545 0.5669
C41 C 0.0943(5) 0.59181(14) 0.4168(4)
H46 H 0.0419 0.5958 0.3161
H47 H 0.0860 0.6162 0.4638
C42 C 0.2446(5) 0.58487(14) 0.4486(4)
H48 H 0.2994 0.5861 0.5499
H49 H 0.2772 0.6063 0.4066
C43 C 0.2718(4) 0.54426(13) 0.3944(4)
H50 H 0.3737 0.5395 0.4420
C44 C 0.2013(4) 0.51081(12) 0.4435(3)
H51 H 0.2457 0.5115 0.5468
C45 C 0.2348(5) 0.54513(14) 0.2385(4)
C46 C 0.2254(4) 0.46865(12) 0.4014(3)
C47 C 0.1159(4) 0.44386(14) 0.3194(4)
H52 H 0.0232 0.4528 0.2873
C48 C 0.1445(4) 0.40516(14) 0.2845(4)
H53 H 0.0695 0.3887 0.2298
C49 C 0.2802(4) 0.39072(12) 0.3284(3)
C50 C 0.3877(5) 0.41608(14) 0.4139(5)
H54 H 0.4808 0.4075 0.4469
C51 C 0.3596(5) 0.45372(15) 0.4507(5)
H55 H 0.4341 0.4695 0.5110
C52 C 0.3101(4) 0.35071(12) 0.2842(4)
C53 C 0.2038(5) 0.32437(15) 0.2095(6)
H56 H 0.1111 0.3311 0.1905
C54 C 0.2324(6) 0.28752(17) 0.1615(7)
H57 H 0.1584 0.2707 0.1071
C55 C 0.3682(6) 0.27622(17) 0.1941(5)
H58 H 0.3877 0.2513 0.1662
C56 C 0.4747(7) 0.3020(2) 0.2681(7)
H59 H 0.5676 0.2950 0.2890
C57 C 0.4451(5) 0.33851(19) 0.3120(5)
H60 H 0.5196 0.3556 0.3626
N4 N 0.5530(3) 0.51991(11) 0.9014(3)
H61 H 0.4857 0.5051 0.8446
F10 F 0.7939(4) 0.57615(10) 0.7043(3)
F11 F 0.5982(4) 0.54906(14) 0.6567(3)
F12 F 0.7726(4) 0.51307(10) 0.6909(3)
C58 C 0.3739(5) 0.56272(17) 0.9221(5)
H62 H 0.3236 0.5594 0.8219
H63 H 0.3583 0.5893 0.9481
H64 H 0.3408 0.5433 0.9693
C59 C 0.5292(5) 0.55650(14) 0.9642(4)
H65 H 0.5772 0.5542 1.0671
C60 C 0.5934(5) 0.59180(13) 0.9161(4)
H66 H 0.5414 0.5955 0.8153
H67 H 0.5843 0.6162 0.9623
C61 C 0.7449(5) 0.58499(14) 0.9492(4)
H68 H 0.7992 0.5863 1.0506
H69 H 0.7777 0.6064 0.9073
C62 C 0.7723(4) 0.54434(13) 0.8953(4)
H70 H 0.8741 0.5395 0.9429
C63 C 0.7006(4) 0.51071(12) 0.9433(3)
H71 H 0.7446 0.5113 1.0466
C64 C 0.7346(5) 0.54516(15) 0.7393(4)
C65 C 0.7252(4) 0.46875(12) 0.9015(3)
C66 C 0.6159(4) 0.44374(14) 0.8198(4)
H72 H 0.5230 0.4525 0.7883
C67 C 0.6450(4) 0.40520(14) 0.7846(4)
H73 H 0.5699 0.3888 0.7296
C68 C 0.7801(4) 0.39048(12) 0.8279(3)
C69 C 0.8879(5) 0.41611(14) 0.9139(5)
H74 H 0.9810 0.4076 0.9471
C70 C 0.8595(5) 0.45364(15) 0.9505(5)
H75 H 0.9341 0.4694 1.0107
C71 C 0.8101(4) 0.35063(12) 0.7845(3)
C72 C 0.7038(5) 0.32430(14) 0.7087(6)
H76 H 0.6109 0.3311 0.6886
C73 C 0.7326(6) 0.28749(17) 0.6612(7)
H77 H 0.6586 0.2707 0.6066
C74 C 0.8680(5) 0.27616(16) 0.6942(5)
H78 H 0.8874 0.2511 0.6671
C75 C 0.9751(6) 0.3021(2) 0.7680(6)
H79 H 1.0679 0.2953 0.7877
C76 C 0.9451(5) 0.33846(18) 0.8130(5)
H80 H 1.0196 0.3555 0.8648
loop_
_geom_bond_atom_site_label_1
_geom_bond_atom_site_label_2
_geom_bond_site_symmetry_1
_geom_bond_site_symmetry_2
N1 H1 1_555 1_555
F1 C7 1_555 1_555
F2 C7 1_555 1_555
F3 C7 1_555 1_555
C1 H2 1_555 1_555
H3 C1 1_555 1_555
H4 C1 1_555 1_555
C2 N1 1_555 1_555
H5 C2 1_555 1_555
C3 C2 1_555 1_555
H6 C3 1_555 1_555
H7 C3 1_555 1_555
C4 C3 1_555 1_555
H8 C4 1_555 1_555
H9 C4 1_555 1_555
C5 C4 1_555 1_555
H10 C5 1_555 1_555
C6 N1 1_555 1_555
H11 C6 1_555 1_555
C7 C5 1_555 1_555
C8 C6 1_555 1_555
C9 C8 1_555 1_555
H12 C9 1_555 1_555
C10 C9 1_555 1_555
H13 C10 1_555 1_555
C11 C10 1_555 1_555
C12 C11 1_555 1_555
H14 C12 1_555 1_555
C13 C8 1_555 1_555
H15 C13 1_555 1_555
C14 C11 1_555 1_555
C15 C14 1_555 1_555
H16 C15 1_555 1_555
C16 C15 1_555 1_555
H17 C16 1_555 1_555
C17 C16 1_555 1_555
H18 C17 1_555 1_555
C18 C17 1_555 1_555
H19 C18 1_555 1_555
C19 C14 1_555 1_555
H20 C19 1_555 1_555
N2 H21 1_555 1_555
F4 C26 1_555 1_555
F5 C26 1_555 1_555
F6 C26 1_555 1_555
C20 H22 1_555 1_555
H23 C20 1_555 1_555
H24 C20 1_555 1_555
C21 N2 1_555 1_555
H25 C21 1_555 1_555
C22 C21 1_555 1_555
H26 C22 1_555 1_555
H27 C22 1_555 1_555
C23 C22 1_555 1_555
H28 C23 1_555 1_555
H29 C23 1_555 1_555
C24 C23 1_555 1_555
H30 C24 1_555 1_555
C25 N2 1_555 1_555
H31 C25 1_555 1_555
C26 C24 1_555 1_555
C27 C25 1_555 1_555
C28 C27 1_555 1_555
H32 C28 1_555 1_555
C29 C28 1_555 1_555
H33 C29 1_555 1_555
C30 C29 1_555 1_555
C31 C30 1_555 1_555
H34 C31 1_555 1_555
C32 C27 1_555 1_555
H35 C32 1_555 1_555
C33 C30 1_555 1_555
C34 C33 1_555 1_555
H36 C34 1_555 1_555
C35 C34 1_555 1_555
H37 C35 1_555 1_555
C36 C35 1_555 1_555
H38 C36 1_555 1_555
C37 C36 1_555 1_555
H39 C37 1_555 1_555
C38 C33 1_555 1_555
H40 C38 1_555 1_555
N3 H41 1_555 1_555
F7 C45 1_555 1_555
F8 C45 1_555 1_555
F9 C45 1_555 1_555
C39 H42 1_555 1_555
H43 C39 1_555 1_555
H44 C39 1_555 1_555
C40 N3 1_555 1_555
H45 C40 1_555 1_555
C41 C40 1_555 1_555
H46 C41 1_555 1_555
H47 C41 1_555 1_555
C42 C41 1_555 1_555
H48 C42 1_555 1_555
H49 C42 1_555 1_555
C43 C42 1_555 1_555
H50 C43 1_555 1_555
C44 N3 1_555 1_555
H51 C44 1_555 1_555
C45 C43 1_555 1_555
C46 C44 1_555 1_555
C47 C46 1_555 1_555
H52 C47 1_555 1_555
C48 C47 1_555 1_555
H53 C48 1_555 1_555
C49 C48 1_555 1_555
C50 C49 1_555 1_555
H54 C50 1_555 1_555
C51 C46 1_555 1_555
H55 C51 1_555 1_555
C52 C49 1_555 1_555
C53 C52 1_555 1_555
H56 C53 1_555 1_555
C54 C53 1_555 1_555
H57 C54 1_555 1_555
C55 C54 1_555 1_555
H58 C55 1_555 1_555
C56 C55 1_555 1_555
H59 C56 1_555 1_555
C57 C52 1_555 1_555
H60 C57 1_555 1_555
N4 H61 1_555 1_555
F10 C64 1_555 1_555
F11 C64 1_555 1_555
F12 C64 1_555 1_555
C58 H62 1_555 1_555
H63 C58 1_555 1_555
H64 C58 1_555 1_555
C59 N4 1_555 1_555
H65 C59 1_555 1_555
C60 C59 1_555 1_555
H66 C60 1_555 1_555
H67 C60 1_555 1_555
C61 C60 1_555 1_555
H68 C61 1_555 1_555
H69 C61 1_555 1_555
C62 C61 1_555 1_555
H70 C62 1_555 1_555
C63 N4 1_555 1_555
H71 C63 1_555 1_555
C64 C62 1_555 1_555
C65 C63 1_555 1_555
C66 C65 1_555 1_555
H72 C66 1_555 1_555
C67 C66 1_555 1_555
H73 C67 1_555 1_555
C68 C67 1_555 1_555
C69 C68 1_555 1_555
H74 C69 1_555 1_555
C70 C65 1_555 1_555
H75 C70 1_555 1_555
C71 C68 1_555 1_555
C72 C71 1_555 1_555
H76 C72 1_555 1_555
C73 C72 1_555 1_555
H77 C73 1_555 1_555
C74 C73 1_555 1_555
H78 C74 1_555 1_555
C75 C74 1_555 1_555
H79 C75 1_555 1_555
C76 C71 1_555 1_555
H80 C76 1_555 1_555
C1 C2 1_555 1_555
C5 C6 1_555 1_555
C12 C13 1_555 1_555
C18 C19 1_555 1_555
C20 C21 1_555 1_555
C24 C25 1_555 1_555
C31 C32 1_555 1_555
C37 C38 1_555 1_555
C39 C40 1_555 1_555
C43 C44 1_555 1_555
C50 C51 1_555 1_555
C56 C57 1_555 1_555
C58 C59 1_555 1_555
C62 C63 1_555 1_555
C69 C70 1_555 1_555
C75 C76 1_555 1_555

#END
