
#######################################################################
#
#                 Cambridge Crystallographic Data Centre
#                                CCDC 
#
#######################################################################
#
# If this CIF has been generated from an entry in the Cambridge 
# Structural Database, then it will include bibliographic, chemical, 
# crystal, experimental, refinement or atomic coordinate data resulting 
# from the CCDC's data processing and validation procedures.
#
#######################################################################

data_KUDYEO
_chemical_formula_moiety         'C18 H14 F4 N2 O3 S1'
_chemical_name_systematic        
(R~C~,R~S~)-N-(4-Cyano-3-(trifluoromethyl)phenyl)-3-((4-fluorophenyl)sulfinyl)-2-hydroxy-2-methylpropanamide
_chemical_properties_biological  'Androgen receptor antagonist activity'
_symmetry_cell_setting           monoclinic
_symmetry_space_group_name_H-M   'P 21'
_symmetry_Int_Tables_number      4
_space_group_name_Hall           'P 2yb'
loop_
_symmetry_equiv_pos_site_id
_symmetry_equiv_pos_as_xyz
1 x,y,z
2 -x,1/2+y,-z
_cell_length_a                   11.7451(5)
_cell_length_b                   14.1880(6)
_cell_length_c                   11.8408(5)
_cell_angle_alpha                90
_cell_angle_beta                 111.776(1)
_cell_angle_gamma                90
_cell_volume                     1832.34
_exptl_crystal_colour            colorless
_exptl_crystal_description       platy
_cell_formula_units_Z            4
loop_
_atom_site_label
_atom_site_type_symbol
_atom_site_fract_x
_atom_site_fract_y
_atom_site_fract_z
F1 F 0.09607(13) 0.54293(9) 0.61337(12)
C1 C 0.12130(19) 0.45539(14) 0.66216(17)
C2 C 0.22897(19) 0.41277(16) 0.66803(18)
H1 H 0.2835 0.4435 0.6375
C3 C 0.25561(18) 0.32335(14) 0.71992(17)
H2 H 0.3290 0.2920 0.7257
C4 C 0.17338(16) 0.28100(13) 0.76287(15)
C5 C 0.06617(16) 0.32549(14) 0.75680(17)
H3 H 0.0119 0.2956 0.7883
C6 C 0.03907(17) 0.41405(15) 0.70428(17)
H4 H -0.0346 0.4454 0.6976
S1 S 0.21527(4) 0.17130(3) 0.84347(4)
O1 O 0.34197(11) 0.14949(10) 0.85082(11)
C7 C 0.10999(15) 0.09748(13) 0.72430(14)
H5 H 0.0245 0.1142 0.7127
H6 H 0.1214 0.1096 0.6468
C8 C 0.13136(15) -0.00757(13) 0.75635(14)
C9 C 0.02572(16) -0.06613(14) 0.67048(16)
H7 H 0.0379 -0.1325 0.6949
H8 H 0.0232 -0.0597 0.5872
H9 H -0.0518 -0.0438 0.6742
O2 O 0.14046(11) -0.01691(9) 0.87879(10)
H10 H 0.1527 -0.0737 0.8999
C10 C 0.25044(15) -0.03641(12) 0.73928(15)
O3 O 0.25354(11) -0.03664(10) 0.63768(11)
N1 N 0.34655(12) -0.05877(10) 0.84308(12)
H11 H 0.3307 -0.0658 0.9097
C11 C 0.46769(15) -0.07154(12) 0.85333(15)
C12 C 0.50065(15) -0.08372(13) 0.75181(15)
H12 H 0.4396 -0.0821 0.6722
C13 C 0.62195(16) -0.09811(13) 0.76783(16)
C14 C 0.71276(15) -0.10035(12) 0.88434(16)
C15 C 0.67955(15) -0.08598(14) 0.98453(16)
H13 H 0.7409 -0.0859 1.0640
C16 C 0.55851(15) -0.07184(13) 0.96951(16)
H14 H 0.5371 -0.0623 1.0385
C17 C 0.65524(16) -0.10942(14) 0.65732(17)
F2 F 0.55733(10) -0.11304(10) 0.55418(10)
F3 F 0.71886(12) -0.18822(10) 0.66193(12)
F4 F 0.72475(11) -0.03806(9) 0.64628(11)
C18 C 0.84093(17) -0.11550(14) 0.90726(17)
N2 N 0.94386(16) -0.12659(15) 0.93241(17)
F5 F 0.06589(11) 1.20344(8) 1.33832(11)
C19 C 0.13131(17) 1.13591(14) 1.30938(18)
C20 C 0.11004(17) 1.12115(14) 1.18739(17)
H15 H 0.0512 1.1578 1.1261
C21 C 0.17679(17) 1.05168(14) 1.15706(16)
H16 H 0.1643 1.0399 1.0743
C22 C 0.26226(16) 0.99946(13) 1.24947(15)
C23 C 0.28301(17) 1.01592(13) 1.37126(16)
H17 H 0.3425 0.9802 1.4331
C24 C 0.21584(17) 1.08516(14) 1.40154(17)
H18 H 0.2280 1.0972 1.4841
S2 S 0.35942(4) 0.91461(3) 1.21642(4)
O4 O 0.37536(11) 0.94480(10) 1.10225(11)
C25 C 0.24901(16) 0.81920(13) 1.17353(15)
H19 H 0.2275 0.8016 1.2440
H20 H 0.1733 0.8406 1.1073
C26 C 0.30065(16) 0.73260(13) 1.13071(15)
C27 C 0.22621(19) 0.64607(14) 1.13705(17)
H21 H 0.2567 0.5908 1.1073
H22 H 0.1397 0.6564 1.0865
H23 H 0.2344 0.6354 1.2215
O5 O 0.42734(11) 0.72088(10) 1.19875(10)
H24 H 0.4386 0.7131 1.2724
C28 C 0.28524(16) 0.74331(13) 0.99596(15)
O6 O 0.18974(11) 0.77289(10) 0.92095(11)
N3 N 0.38221(14) 0.71105(11) 0.97127(12)
H25 H 0.4472 0.6943 1.0344
C29 C 0.39101(16) 0.70129(12) 0.85712(15)
C30 C 0.29217(15) 0.71724(12) 0.74719(15)
H26 H 0.2144 0.7352 0.7476
C31 C 0.30904(16) 0.70656(12) 0.63836(15)
C32 C 0.42349(16) 0.68049(13) 0.63680(15)
C33 C 0.52071(16) 0.66486(14) 0.74619(15)
H27 H 0.5988 0.6479 0.7458
C34 C 0.50440(16) 0.67389(13) 0.85528(15)
H28 H 0.5707 0.6614 0.9295
C35 C 0.20431(16) 0.72511(14) 0.51983(15)
F6 F 0.10029(9) 0.74497(9) 0.53386(9)
F7 F 0.18281(9) 0.65059(9) 0.44435(9)
F8 F 0.22966(10) 0.79774(8) 0.45936(9)
C36 C 0.44332(15) 0.66887(14) 0.52430(15)
N4 N 0.46032(14) 0.65877(14) 0.43632(13)
loop_
_geom_bond_atom_site_label_1
_geom_bond_atom_site_label_2
_geom_bond_site_symmetry_1
_geom_bond_site_symmetry_2
F1 C1 1_555 1_555
C1 C2 1_555 1_555
C2 H1 1_555 1_555
C3 C2 1_555 1_555
H2 C3 1_555 1_555
C4 C3 1_555 1_555
C5 C4 1_555 1_555
H3 C5 1_555 1_555
C6 C1 1_555 1_555
H4 C6 1_555 1_555
S1 C4 1_555 1_555
O1 S1 1_555 1_555
C7 S1 1_555 1_555
H5 C7 1_555 1_555
H6 C7 1_555 1_555
C8 C7 1_555 1_555
C9 C8 1_555 1_555
H7 C9 1_555 1_555
H8 C9 1_555 1_555
H9 C9 1_555 1_555
O2 C8 1_555 1_555
H10 O2 1_555 1_555
C10 C8 1_555 1_555
O3 C10 1_555 1_555
N1 C10 1_555 1_555
H11 N1 1_555 1_555
C11 N1 1_555 1_555
C12 C11 1_555 1_555
H12 C12 1_555 1_555
C13 C12 1_555 1_555
C14 C13 1_555 1_555
C15 C14 1_555 1_555
H13 C15 1_555 1_555
C16 C11 1_555 1_555
H14 C16 1_555 1_555
C17 C13 1_555 1_555
F2 C17 1_555 1_555
F3 C17 1_555 1_555
F4 C17 1_555 1_555
C18 C14 1_555 1_555
N2 C18 1_555 1_555
F5 C19 1_555 1_555
C19 C20 1_555 1_555
C20 H15 1_555 1_555
C21 C20 1_555 1_555
H16 C21 1_555 1_555
C22 C21 1_555 1_555
C23 C22 1_555 1_555
H17 C23 1_555 1_555
C24 C19 1_555 1_555
H18 C24 1_555 1_555
S2 C22 1_555 1_555
O4 S2 1_555 1_555
C25 S2 1_555 1_555
H19 C25 1_555 1_555
H20 C25 1_555 1_555
C26 C25 1_555 1_555
C27 C26 1_555 1_555
H21 C27 1_555 1_555
H22 C27 1_555 1_555
H23 C27 1_555 1_555
O5 C26 1_555 1_555
H24 O5 1_555 1_555
C28 C26 1_555 1_555
O6 C28 1_555 1_555
N3 C28 1_555 1_555
H25 N3 1_555 1_555
C29 N3 1_555 1_555
C30 C29 1_555 1_555
H26 C30 1_555 1_555
C31 C30 1_555 1_555
C32 C31 1_555 1_555
C33 C32 1_555 1_555
H27 C33 1_555 1_555
C34 C29 1_555 1_555
H28 C34 1_555 1_555
C35 C31 1_555 1_555
F6 C35 1_555 1_555
F7 C35 1_555 1_555
F8 C35 1_555 1_555
C36 C32 1_555 1_555
N4 C36 1_555 1_555
C5 C6 1_555 1_555
C15 C16 1_555 1_555
C23 C24 1_555 1_555
C33 C34 1_555 1_555

#END
