
#######################################################################
#
#                 Cambridge Crystallographic Data Centre
#                                CCDC 
#
#######################################################################
#
# If this CIF has been generated from an entry in the Cambridge 
# Structural Database, then it will include bibliographic, chemical, 
# crystal, experimental, refinement or atomic coordinate data resulting 
# from the CCDC's data processing and validation procedures.
#
#######################################################################

data_KUFFEY
_chemical_formula_moiety         'C25 H24 N4'
_chemical_name_systematic        
N,N-Diethyl-4-(2,2':6',2''-terpyridin-4'-yl)aniline
_chemical_properties_biological  'Cytotoxic activity'
_symmetry_cell_setting           monoclinic
_symmetry_space_group_name_H-M   'P 21/n'
_symmetry_Int_Tables_number      14
_space_group_name_Hall           '-P 2yn'
loop_
_symmetry_equiv_pos_site_id
_symmetry_equiv_pos_as_xyz
1 x,y,z
2 1/2-x,1/2+y,1/2-z
3 -x,-y,-z
4 1/2+x,1/2-y,1/2+z
_cell_length_a                   6.2708(4)
_cell_length_b                   19.5381(11)
_cell_length_c                   16.8977(12)
_cell_angle_alpha                90
_cell_angle_beta                 96.963(6)
_cell_angle_gamma                90
_cell_volume                     2055.03
_cell_formula_units_Z            4
loop_
_atom_site_label
_atom_site_type_symbol
_atom_site_fract_x
_atom_site_fract_y
_atom_site_fract_z
N1 N 0.2753(3) 0.77829(11) 0.69459(12)
N2 N 0.2022(4) 0.92369(11) 0.81627(15)
N3 N 0.1170(4) 0.64170(12) 0.56077(13)
N4 N -0.7698(4) 0.62253(13) 0.92147(14)
C1 C 0.1996(4) 0.81224(13) 0.75453(15)
C2 C -0.0743(4) 0.72797(13) 0.76953(14)
C3 C 0.0000(4) 0.69477(13) 0.70533(15)
H1 H -0.0669 0.6548 0.6855
C4 C -0.2514(4) 0.70004(12) 0.80985(14)
C5 C 0.1720(4) 0.72051(13) 0.67071(14)
C6 C 0.3126(4) 0.87710(13) 0.77937(15)
C7 C 0.0295(4) 0.78924(13) 0.79259(15)
H2 H -0.0159 0.8148 0.8338
C8 C 0.2559(4) 0.68263(12) 0.60410(14)
C9 C -0.5970(4) 0.64667(14) 0.88702(15)
C10 C -0.3229(4) 0.73191(14) 0.87547(17)
H3 H -0.2552 0.7720 0.8947
C11 C -0.5235(5) 0.61383(14) 0.82168(16)
H4 H -0.5891 0.5734 0.8026
C12 C -0.3572(4) 0.63992(14) 0.78529(16)
H5 H -0.3135 0.6163 0.7423
C13 C 0.4685(4) 0.68804(14) 0.59145(17)
H6 H 0.5605 0.7176 0.6223
C14 C 0.5235(4) 0.88751(14) 0.76554(16)
H7 H 0.5959 0.8544 0.7396
C15 C -0.4894(5) 0.70674(15) 0.91309(18)
H8 H -0.5310 0.7301 0.9566
C16 C 0.5130(5) 0.99565(14) 0.82879(18)
H9 H 0.5778 1.0364 0.8471
C17 C 0.1907(5) 0.60547(16) 0.50268(17)
H10 H 0.0943 0.5779 0.4709
C18 C 0.4013(5) 0.60674(15) 0.48726(17)
H11 H 0.4466 0.5796 0.4472
C19 C 0.5430(5) 0.64894(16) 0.53238(17)
H12 H 0.6862 0.6512 0.5234
C20 C 0.3033(5) 0.98195(14) 0.83901(19)
H13 H 0.2271 1.0152 0.8632
C21 C 0.6247(5) 0.94786(15) 0.79097(18)
H14 H 0.7664 0.9559 0.7825
C22 C -0.8822(5) 0.56059(18) 0.89215(19)
H15 H -0.8974 0.5610 0.8343
H16 H -1.0255 0.5613 0.9083
C23 C -0.8400(5) 0.65628(18) 0.9906(2)
H17 H -0.9881 0.6437 0.9943
H18 H -0.8353 0.7054 0.9828
C24 C -0.7065(7) 0.6386(2) 1.0681(2)
H19 H -0.5586 0.6494 1.0645
H20 H -0.7200 0.5907 1.0787
H21 H -0.7557 0.6646 1.1106
C25 C -0.7738(7) 0.49533(19) 0.9210(2)
H22 H -0.8535 0.4571 0.8971
H23 H -0.7677 0.4927 0.9779
H24 H -0.6306 0.4944 0.9063
loop_
_geom_bond_atom_site_label_1
_geom_bond_atom_site_label_2
_geom_bond_site_symmetry_1
_geom_bond_site_symmetry_2
N1 C1 1_555 1_555
N2 C6 1_555 1_555
N3 C8 1_555 1_555
N4 C9 1_555 1_555
C1 C6 1_555 1_555
C2 C3 1_555 1_555
C3 H1 1_555 1_555
C4 C2 1_555 1_555
C5 N1 1_555 1_555
C6 C14 1_555 1_555
C7 C1 1_555 1_555
H2 C7 1_555 1_555
C8 C5 1_555 1_555
C9 C11 1_555 1_555
C10 C4 1_555 1_555
H3 C10 1_555 1_555
C11 H4 1_555 1_555
C12 C4 1_555 1_555
H5 C12 1_555 1_555
C13 C8 1_555 1_555
H6 C13 1_555 1_555
C14 H7 1_555 1_555
C15 C9 1_555 1_555
H8 C15 1_555 1_555
C16 H9 1_555 1_555
C17 N3 1_555 1_555
H10 C17 1_555 1_555
C18 C17 1_555 1_555
H11 C18 1_555 1_555
C19 C13 1_555 1_555
H12 C19 1_555 1_555
C20 N2 1_555 1_555
H13 C20 1_555 1_555
C21 C14 1_555 1_555
H14 C21 1_555 1_555
C22 N4 1_555 1_555
H15 C22 1_555 1_555
H16 C22 1_555 1_555
C23 N4 1_555 1_555
H17 C23 1_555 1_555
H18 C23 1_555 1_555
C24 C23 1_555 1_555
H19 C24 1_555 1_555
H20 C24 1_555 1_555
H21 C24 1_555 1_555
C25 C22 1_555 1_555
H22 C25 1_555 1_555
H23 C25 1_555 1_555
H24 C25 1_555 1_555
C2 C7 1_555 1_555
C3 C5 1_555 1_555
C10 C15 1_555 1_555
C11 C12 1_555 1_555
C16 C20 1_555 1_555
C16 C21 1_555 1_555
C18 C19 1_555 1_555

#END
