
#######################################################################
#
#                 Cambridge Crystallographic Data Centre
#                                CCDC 
#
#######################################################################
#
# If this CIF has been generated from an entry in the Cambridge 
# Structural Database, then it will include bibliographic, chemical, 
# crystal, experimental, refinement or atomic coordinate data resulting 
# from the CCDC's data processing and validation procedures.
#
#######################################################################

data_KUFNII
_chemical_formula_moiety         'C19 H21 N1 O1'
_chemical_name_systematic        2-(2-Benzoylethyl)-1-(1-phenylethyl)aziridine
_symmetry_cell_setting           monoclinic
_symmetry_space_group_name_H-M   'P 21/n'
_symmetry_Int_Tables_number      14
_space_group_name_Hall           '-P 2yn'
loop_
_symmetry_equiv_pos_site_id
_symmetry_equiv_pos_as_xyz
1 x,y,z
2 1/2-x,1/2+y,1/2-z
3 -x,-y,-z
4 1/2+x,1/2-y,1/2+z
_cell_length_a                   5.5084(4)
_cell_length_b                   12.333(1)
_cell_length_c                   23.697(1)
_cell_angle_alpha                90
_cell_angle_beta                 94.747(5)
_cell_angle_gamma                90
_cell_volume                     1604.34
_exptl_crystal_colour            colorless
_cell_formula_units_Z            4
loop_
_atom_site_label
_atom_site_type_symbol
_atom_site_fract_x
_atom_site_fract_y
_atom_site_fract_z
C1 C 0.1617(5) -0.1370(2) 0.68290(9)
N1 N 0.1993(3) -0.0631(1) 0.63647(6)
C2 C 0.2391(4) -0.0244(2) 0.69434(8)
C3 C 0.0723(4) 0.0616(2) 0.71217(8)
C4 C 0.1310(4) 0.1699(2) 0.6861(1)
C5 C -0.0430(3) 0.2596(2) 0.69631(8)
C6 C 0.0006(3) 0.3686(1) 0.67154(7)
C7 C 0.1921(3) 0.3893(2) 0.63894(8)
C8 C 0.2233(4) 0.4912(2) 0.6162(1)
C9 C 0.0652(4) 0.5732(2) 0.6268(1)
C10 C -0.1239(4) 0.5544(2) 0.6600(1)
C11 C -0.1573(4) 0.4528(2) 0.68180(9)
C12 C 0.4234(3) -0.0826(2) 0.60786(8)
C13 C 0.5112(5) 0.0229(2) 0.5845(1)
C14 C 0.3768(3) -0.1679(1) 0.56258(7)
C15 C 0.1663(4) -0.1674(2) 0.52655(9)
C16 C 0.1293(4) -0.2443(2) 0.4845(1)
C17 C 0.3024(5) -0.3223(2) 0.4772(1)
C18 C 0.5105(5) -0.3232(2) 0.5124(1)
C19 C 0.5496(4) -0.2467(2) 0.5549(1)
O1 O -0.2144(3) 0.2450(1) 0.72418(9)
H1 H 0.280(4) -0.192(2) 0.6883(8)
H2 H -0.007(5) -0.160(2) 0.686(1)
H3 H 0.397(4) -0.014(1) 0.7101(8)
H4 H 0.073(4) 0.068(2) 0.753(1)
H5 H -0.104(4) 0.042(2) 0.701(1)
H6 H 0.297(4) 0.193(2) 0.7010(9)
H7 H 0.122(4) 0.162(2) 0.648(1)
H8 H 0.306(4) 0.334(2) 0.6291(9)
H9 H 0.377(5) 0.504(2) 0.597(1)
H10 H 0.093(5) 0.644(2) 0.612(1)
H11 H -0.233(5) 0.614(2) 0.671(1)
H12 H -0.290(4) 0.435(2) 0.7041(9)
H13 H 0.554(3) -0.112(1) 0.6348(8)
H14 H 0.378(4) 0.053(2) 0.558(1)
H15 H 0.526(5) 0.079(2) 0.615(1)
H16 H 0.672(5) 0.014(2) 0.566(1)
H17 H 0.052(4) -0.118(2) 0.532(1)
H18 H -0.029(5) -0.245(2) 0.463(1)
H19 H 0.273(4) -0.379(2) 0.447(1)
H20 H 0.619(5) -0.373(2) 0.507(1)
H21 H 0.710(4) -0.246(2) 0.580(1)
loop_
_geom_bond_atom_site_label_1
_geom_bond_atom_site_label_2
_geom_bond_site_symmetry_1
_geom_bond_site_symmetry_2
C1 N1 1_555 1_555
N1 C2 1_555 1_555
C2 C1 1_555 1_555
C3 C2 1_555 1_555
C4 C3 1_555 1_555
C5 C4 1_555 1_555
C6 C5 1_555 1_555
C7 C6 1_555 1_555
C8 C7 1_555 1_555
C9 C8 1_555 1_555
C10 C9 1_555 1_555
C11 C6 1_555 1_555
C12 N1 1_555 1_555
C13 C12 1_555 1_555
C14 C12 1_555 1_555
C15 C14 1_555 1_555
C16 C15 1_555 1_555
C17 C16 1_555 1_555
C18 C17 1_555 1_555
C19 C14 1_555 1_555
O1 C5 1_555 1_555
H1 C1 1_555 1_555
H2 C1 1_555 1_555
H3 C2 1_555 1_555
H4 C3 1_555 1_555
H5 C3 1_555 1_555
H6 C4 1_555 1_555
H7 C4 1_555 1_555
H8 C7 1_555 1_555
H9 C8 1_555 1_555
H10 C9 1_555 1_555
H11 C10 1_555 1_555
H12 C11 1_555 1_555
H13 C12 1_555 1_555
H14 C13 1_555 1_555
H15 C13 1_555 1_555
H16 C13 1_555 1_555
H17 C15 1_555 1_555
H18 C16 1_555 1_555
H19 C17 1_555 1_555
H20 C18 1_555 1_555
H21 C19 1_555 1_555
C10 C11 1_555 1_555
C18 C19 1_555 1_555

#END
