
#######################################################################
#
#                 Cambridge Crystallographic Data Centre
#                                CCDC 
#
#######################################################################
#
# If this CIF has been generated from an entry in the Cambridge 
# Structural Database, then it will include bibliographic, chemical, 
# crystal, experimental, refinement or atomic coordinate data resulting 
# from the CCDC's data processing and validation procedures.
#
#######################################################################

data_KUFROT
_chemical_formula_moiety         'C16 H18 N4 O6'
_chemical_name_systematic        1-(1-Adamantylamino)-2,4,6-trinitrobenzene
_symmetry_cell_setting           tetragonal
_symmetry_space_group_name_H-M   'P 42/n'
_symmetry_Int_Tables_number      86
_space_group_name_Hall           '-P 4bc'
loop_
_symmetry_equiv_pos_site_id
_symmetry_equiv_pos_as_xyz
1 x,y,z
2 1/2-x,1/2-y,z
3 -y,1/2+x,1/2+z
4 1/2+y,-x,1/2+z
5 -x,-y,-z
6 1/2+x,1/2+y,-z
7 y,1/2-x,1/2-z
8 1/2-y,x,1/2-z
_cell_length_a                   18.409(3)
_cell_length_b                   18.409(3)
_cell_length_c                   9.432(3)
_cell_angle_alpha                90
_cell_angle_beta                 90
_cell_angle_gamma                90
_cell_volume                     3196.42
_exptl_crystal_colour            yellow
_exptl_crystal_description       block
_cell_formula_units_Z            8
loop_
_atom_site_label
_atom_site_type_symbol
_atom_site_fract_x
_atom_site_fract_y
_atom_site_fract_z
N1 N 0.2768(3) 0.5048(3) 0.2496(6)
H1 H 0.2502 0.4719 0.2975
N2 N 0.3816(4) 0.5623(3) 0.0303(7)
N3 N 0.3866(4) 0.3250(4) -0.1766(8)
N4 N 0.1969(4) 0.3751(4) 0.1563(8)
O1 O 0.3355(3) 0.6098(3) 0.0427(8)
O2 O 0.4439(3) 0.5749(3) -0.0002(5)
O3 O 0.4351(4) 0.3457(3) -0.2542(7)
O4 O 0.3606(4) 0.2655(3) -0.1895(6)
O5 O 0.1772(3) 0.3142(3) 0.1310(7)
O6 O 0.1611(3) 0.4189(3) 0.2374(6)
C1 C 0.2984(4) 0.4678(4) 0.1364(8)
C2 C 0.3583(4) 0.4877(4) 0.0458(9)
C3 C 0.3872(4) 0.4411(4) -0.0478(9)
H2 H 0.4296 0.4543 -0.0949
C4 C 0.3570(4) 0.3749(4) -0.0769(8)
C5 C 0.2930(4) 0.3558(4) -0.0041(7)
H3 H 0.2705 0.3116 -0.0232
C6 C 0.2641(4) 0.4013(4) 0.0936(8)
C7 C 0.3149(3) 0.5450(3) 0.3657(7)
C8 C 0.2919(4) 0.6257(3) 0.3653(8)
H4 H 0.3105 0.6497 0.2812
H5 H 0.2394 0.6295 0.3648
C9 C 0.3979(3) 0.5385(3) 0.3620(7)
H6 H 0.4168 0.5600 0.2756
H7 H 0.4121 0.4877 0.3642
C10 C 0.2872(4) 0.5087(4) 0.4999(6)
H8 H 0.3011 0.4579 0.4999
H9 H 0.2345 0.5113 0.5026
C11 C 0.3226(4) 0.6616(4) 0.4979(8)
H10 H 0.3085 0.7129 0.4992
C12 C 0.4066(4) 0.6559(4) 0.4917(8)
H11 H 0.4243 0.6793 0.4063
H12 H 0.4276 0.6806 0.5728
C13 C 0.4288(4) 0.5784(4) 0.4923(7)
H13 H 0.4819 0.5755 0.4902
C14 C 0.4008(4) 0.5410(4) 0.6270(8)
H14 H 0.4154 0.4904 0.6271
H15 H 0.4215 0.5642 0.7100
C15 C 0.3189(4) 0.5465(4) 0.6316(7)
H16 H 0.3009 0.5221 0.7171
C16 C 0.2962(4) 0.6249(4) 0.6349(8)
H17 H 0.3174 0.6489 0.7167
H18 H 0.2438 0.6285 0.6419
loop_
_geom_bond_atom_site_label_1
_geom_bond_atom_site_label_2
_geom_bond_site_symmetry_1
_geom_bond_site_symmetry_2
N1 H1 1_555 1_555
N2 O1 1_555 1_555
N3 O3 1_555 1_555
N4 O5 1_555 1_555
O2 N2 1_555 1_555
O4 N3 1_555 1_555
O6 N4 1_555 1_555
C1 N1 1_555 1_555
C2 N2 1_555 1_555
C3 C2 1_555 1_555
H2 C3 1_555 1_555
C4 N3 1_555 1_555
C5 C4 1_555 1_555
H3 C5 1_555 1_555
C6 N4 1_555 1_555
C7 N1 1_555 1_555
C8 C7 1_555 1_555
H4 C8 1_555 1_555
H5 C8 1_555 1_555
C9 C7 1_555 1_555
H6 C9 1_555 1_555
H7 C9 1_555 1_555
C10 C7 1_555 1_555
H8 C10 1_555 1_555
H9 C10 1_555 1_555
C11 C8 1_555 1_555
H10 C11 1_555 1_555
C12 C11 1_555 1_555
H11 C12 1_555 1_555
H12 C12 1_555 1_555
C13 C9 1_555 1_555
H13 C13 1_555 1_555
C14 C13 1_555 1_555
H14 C14 1_555 1_555
H15 C14 1_555 1_555
C15 C10 1_555 1_555
H16 C15 1_555 1_555
C16 C11 1_555 1_555
H17 C16 1_555 1_555
H18 C16 1_555 1_555
C1 C2 1_555 1_555
C1 C6 1_555 1_555
C3 C4 1_555 1_555
C5 C6 1_555 1_555
C12 C13 1_555 1_555
C14 C15 1_555 1_555
C15 C16 1_555 1_555

#END
