
#######################################################################
#
#                 Cambridge Crystallographic Data Centre
#                                CCDC 
#
#######################################################################
#
# If this CIF has been generated from an entry in the Cambridge 
# Structural Database, then it will include bibliographic, chemical, 
# crystal, experimental, refinement or atomic coordinate data resulting 
# from the CCDC's data processing and validation procedures.
#
#######################################################################

data_KUFSIO
_chemical_name_common            
4-(((1,5-Dimethyl-3-oxo-2-phenyl-2,3-dihydro-1H-pyrazol-4-yl)imino)methyl)benzonitrile
_chemical_formula_moiety         'C19 H16 N4 O1'
_chemical_name_systematic        4-(4-Cyanobenzylideneamino)antipyrine
_symmetry_cell_setting           monoclinic
_symmetry_space_group_name_H-M   'P 21/c'
_symmetry_Int_Tables_number      14
_space_group_name_Hall           '-P 2ybc'
loop_
_symmetry_equiv_pos_site_id
_symmetry_equiv_pos_as_xyz
1 x,y,z
2 -x,1/2+y,1/2-z
3 -x,-y,-z
4 x,1/2-y,1/2+z
_cell_length_a                   13.0806(7)
_cell_length_b                   6.9693(4)
_cell_length_c                   18.2115(10)
_cell_angle_alpha                90
_cell_angle_beta                 101.8690(10)
_cell_angle_gamma                90
_cell_volume                     1624.71
_exptl_crystal_colour            yellow
_exptl_crystal_description       prism
_cell_formula_units_Z            4
loop_
_atom_site_label
_atom_site_type_symbol
_atom_site_fract_x
_atom_site_fract_y
_atom_site_fract_z
O1 O 0.82540(9) 0.24769(16) 0.10638(7)
N1 N 0.77267(10) 0.51641(18) 0.16455(7)
N2 N 0.82073(10) 0.68759(18) 0.19367(7)
N3 N 1.02320(10) 0.50681(19) 0.10993(7)
N4 N 1.49472(14) 0.2187(3) -0.04398(11)
C1 C 0.69918(12) 0.4238(2) 0.20089(9)
C2 C 0.62144(13) 0.3158(3) 0.15755(11)
H1 H 0.6151 0.3105 0.1058
C3 C 0.55285(15) 0.2152(3) 0.19162(13)
H2 H 0.5012 0.1396 0.1627
C4 C 0.56042(16) 0.2260(3) 0.26805(13)
H3 H 0.5137 0.1587 0.2906
C5 C 0.63762(15) 0.3370(3) 0.31116(11)
H4 H 0.6421 0.3458 0.3627
C6 C 0.70817(13) 0.4350(2) 0.27815(9)
H5 H 0.7611 0.5076 0.3073
C7 C 0.84205(12) 0.4132(2) 0.12983(8)
C8 C 0.92919(12) 0.5391(2) 0.13237(8)
C9 C 0.91128(12) 0.7035(2) 0.16929(8)
C10 C 0.97716(15) 0.8780(3) 0.18246(11)
H6 H 0.9406 0.9835 0.1550
H7 H 1.0412 0.8558 0.1659
H8 H 0.9924 0.9077 0.2351
C11 C 0.75490(15) 0.8475(2) 0.20743(11)
H9 H 0.7911 0.9215 0.2492
H10 H 0.6911 0.7986 0.2185
H11 H 0.7392 0.9275 0.1636
C12 C 1.04094(13) 0.3489(2) 0.07913(9)
H12 H 0.9899 0.2540 0.0707
C13 C 1.14126(12) 0.3161(2) 0.05690(8)
C14 C 1.16110(13) 0.1421(2) 0.02504(9)
H13 H 1.1116 0.0446 0.0200
C15 C 1.25344(13) 0.1117(3) 0.00078(9)
H14 H 1.2661 -0.0053 -0.0202
C16 C 1.32656(13) 0.2575(2) 0.00818(9)
C17 C 1.30883(14) 0.4309(3) 0.04123(11)
H15 H 1.3589 0.5275 0.0471
C18 C 1.21715(14) 0.4589(3) 0.06518(10)
H16 H 1.2055 0.5750 0.0873
C19 C 1.42118(15) 0.2341(3) -0.02046(10)
loop_
_geom_bond_atom_site_label_1
_geom_bond_atom_site_label_2
_geom_bond_site_symmetry_1
_geom_bond_site_symmetry_2
O1 C7 1_555 1_555
N1 N2 1_555 1_555
N2 C9 1_555 1_555
N3 C8 1_555 1_555
N4 C19 1_555 1_555
C1 N1 1_555 1_555
C2 C1 1_555 1_555
H1 C2 1_555 1_555
C3 C2 1_555 1_555
H2 C3 1_555 1_555
C4 C3 1_555 1_555
H3 C4 1_555 1_555
C5 C4 1_555 1_555
H4 C5 1_555 1_555
C6 C1 1_555 1_555
H5 C6 1_555 1_555
C7 N1 1_555 1_555
C8 C7 1_555 1_555
C9 C8 1_555 1_555
C10 C9 1_555 1_555
H6 C10 1_555 1_555
H7 C10 1_555 1_555
H8 C10 1_555 1_555
C11 N2 1_555 1_555
H9 C11 1_555 1_555
H10 C11 1_555 1_555
H11 C11 1_555 1_555
C12 N3 1_555 1_555
H12 C12 1_555 1_555
C13 C12 1_555 1_555
C14 C13 1_555 1_555
H13 C14 1_555 1_555
C15 C14 1_555 1_555
H14 C15 1_555 1_555
C16 C15 1_555 1_555
C17 C16 1_555 1_555
H15 C17 1_555 1_555
C18 C13 1_555 1_555
H16 C18 1_555 1_555
C19 C16 1_555 1_555
C5 C6 1_555 1_555
C17 C18 1_555 1_555

#END
