
#######################################################################
#
#                 Cambridge Crystallographic Data Centre
#                                CCDC 
#
#######################################################################
#
# If this CIF has been generated from an entry in the Cambridge 
# Structural Database, then it will include bibliographic, chemical, 
# crystal, experimental, refinement or atomic coordinate data resulting 
# from the CCDC's data processing and validation procedures.
#
#######################################################################

data_KUFTAH
_chemical_name_common            
'1,4-Dihydro-5H-tetrazol-5-iminium 3,5-dihydroxy-2,4,6-trinitrophenolate dihydrate'
_chemical_formula_moiety         'C1 H4 N5 1+,C6 H2 N3 O9 1-,2(H2 O1)'
_chemical_name_systematic        
'5-Iminiotetrazole trinitrophloroglucinolate dihydrate'
_symmetry_cell_setting           orthorhombic
_symmetry_space_group_name_H-M   'P b c a'
_symmetry_Int_Tables_number      61
_space_group_name_Hall           '-P 2ac 2ab'
loop_
_symmetry_equiv_pos_site_id
_symmetry_equiv_pos_as_xyz
1 x,y,z
2 1/2-x,-y,1/2+z
3 -x,1/2+y,1/2-z
4 1/2+x,1/2-y,-z
5 -x,-y,-z
6 1/2+x,y,1/2-z
7 x,1/2-y,1/2+z
8 1/2-x,1/2+y,z
_cell_length_a                   6.6235(13)
_cell_length_b                   17.933(4)
_cell_length_c                   23.117(5)
_cell_angle_alpha                90
_cell_angle_beta                 90
_cell_angle_gamma                90
_cell_volume                     2745.82
_exptl_crystal_colour            yellow
_exptl_crystal_description       block
_cell_formula_units_Z            8
loop_
_atom_site_label
_atom_site_type_symbol
_atom_site_fract_x
_atom_site_fract_y
_atom_site_fract_z
O1 O 0.7410(8) -0.0144(3) 0.5148(2)
H1 H 0.7076 -0.0385 0.4863
O2 O 0.8773(7) 0.2337(2) 0.5696(2)
O3 O 0.7293(8) 0.1835(3) 0.3746(2)
H2 H 0.6923 0.1492 0.3537
O4 O 0.6431(9) 0.0518(3) 0.3489(2)
O5 O 0.6225(8) -0.0349(3) 0.4133(2)
O6 O 0.9369(8) 0.0238(3) 0.6077(2)
O7 O 0.7880(8) 0.1215(3) 0.6420(2)
O8 O 0.7717(8) 0.3347(3) 0.4880(2)
O9 O 0.9254(8) 0.2989(3) 0.4101(2)
N1 N 0.6608(9) 0.0314(3) 0.4003(3)
N2 N 0.8454(9) 0.0836(3) 0.6008(3)
N3 N 0.8358(9) 0.2853(3) 0.4552(3)
C1 C 0.7587(10) 0.0569(4) 0.5005(3)
C2 C 0.8084(11) 0.1089(4) 0.5425(3)
C3 C 0.8296(10) 0.1881(4) 0.5312(3)
C4 C 0.8035(10) 0.2082(4) 0.4716(3)
C5 C 0.7532(10) 0.1588(4) 0.4277(3)
C6 C 0.7228(10) 0.0820(4) 0.4430(3)
N4 N 0.2335(10) 0.2264(3) 0.3235(3)
N5 N 0.1941(10) 0.2354(3) 0.2665(3)
N6 N 0.1368(10) 0.1721(3) 0.2468(3)
N7 N 0.1387(10) 0.1215(3) 0.2911(3)
N8 N 0.2217(10) 0.1281(3) 0.3917(3)
C7 C 0.1991(11) 0.1560(4) 0.3393(3)
H3 H 0.258(14) 0.157(4) 0.421(3)
H4 H 0.273(13) 0.261(4) 0.349(3)
H6 H 0.097(18) 0.074(3) 0.283(5)
H7 H 0.195(15) 0.081(2) 0.400(4)
O10 O 0.7143(10) 0.8855(3) 0.3034(3)
H9 H 0.735(18) 0.844(4) 0.286(4)
H10 H 0.677(17) 0.880(6) 0.339(2)
O11 O 0.9869(9) 0.9951(3) 0.2607(2)
H5 H 0.920(15) 0.967(5) 0.284(4)
H8 H 1.064(14) 0.971(5) 0.237(4)
loop_
_geom_bond_atom_site_label_1
_geom_bond_atom_site_label_2
_geom_bond_site_symmetry_1
_geom_bond_site_symmetry_2
O1 H1 1_555 1_555
O2 C3 1_555 1_555
O3 H2 1_555 1_555
O4 N1 1_555 1_555
O5 N1 1_555 1_555
O6 N2 1_555 1_555
O7 N2 1_555 1_555
O8 N3 1_555 1_555
O9 N3 1_555 1_555
N1 C6 1_555 1_555
N2 C2 1_555 1_555
N3 C4 1_555 1_555
N4 N5 1_555 1_555
N5 N6 1_555 1_555
N6 N7 1_555 1_555
N7 C7 1_555 1_555
N8 C7 1_555 1_555
C1 O1 1_555 1_555
C2 C1 1_555 1_555
C3 C2 1_555 1_555
C4 C3 1_555 1_555
C5 O3 1_555 1_555
C6 C1 1_555 1_555
C7 N4 1_555 1_555
O10 H9 1_555 1_555
O11 H5 1_555 1_555
H3 N8 1_555 1_555
H4 N4 1_555 1_555
H6 N7 1_555 1_555
H7 N8 1_555 1_555
H8 O11 1_555 1_555
H10 O10 1_555 1_555
C4 C5 1_555 1_555
C5 C6 1_555 1_555

#END
