
#######################################################################
#
#                 Cambridge Crystallographic Data Centre
#                                CCDC 
#
#######################################################################
#
# If this CIF has been generated from an entry in the Cambridge 
# Structural Database, then it will include bibliographic, chemical, 
# crystal, experimental, refinement or atomic coordinate data resulting 
# from the CCDC's data processing and validation procedures.
#
#######################################################################

data_KUFWOX
_chemical_formula_moiety         'C22 H38 O4,C8 H12 N1 1+,Cl1 O4 1-'
_chemical_name_systematic        
"2-(6'-(6''-(3'''-Methyltetrahydrofur-2'''-yl)-3''-methyltetrahydropyran-2''-yl)-3'-methyltetrahydropyran-2'-yl)-3-methyltetrahydrofuran \a-methylbenzylammonium perchlorate"
_symmetry_cell_setting           monoclinic
_symmetry_space_group_name_H-M   'P 21'
_symmetry_Int_Tables_number      4
_space_group_name_Hall           'P 2yb'
loop_
_symmetry_equiv_pos_site_id
_symmetry_equiv_pos_as_xyz
1 x,y,z
2 -x,1/2+y,-z
_cell_length_a                   14.0392
_cell_length_b                   12.7182
_cell_length_c                   9.9302
_cell_angle_alpha                90
_cell_angle_beta                 110.64
_cell_angle_gamma                90
_cell_volume                     1659.26
_cell_formula_units_Z            2
loop_
_atom_site_label
_atom_site_type_symbol
_atom_site_fract_x
_atom_site_fract_y
_atom_site_fract_z
Cl1 Cl 0.62239 0.0000 0.32220
O1 O 0.58942 -0.00422 0.44506
O2 O 0.68130 0.09073 0.32552
O3 O 0.54038 -0.00406 0.19417
O4 O 0.69380 -0.09264 0.33426
O5 O 0.49383 -0.23999 0.68032
O6 O 0.64091 -0.12614 0.87822
O7 O 0.81873 -0.06141 0.81795
O8 O 0.96584 -0.14605 0.72801
C1 C 0.41206 -0.20367 0.55474
C2 C 0.33975 -0.14247 0.60835
C3 C 0.41355 -0.10774 0.76467
C4 C 0.47792 -0.20784 0.80703
C5 C 0.57969 -0.19063 0.93026
C6 C 0.63285 -0.30199 0.97724
C7 C 0.74001 -0.28041 1.08947
C8 C 0.79993 -0.20421 1.03253
C9 C 0.73559 -0.10354 0.98800
C10 C 0.78525 -0.01519 0.93001
C11 C 0.71677 0.07773 0.86460
C12 C 0.78078 0.16101 0.82097
C13 C 0.82862 0.10954 0.71326
C14 C 0.88406 0.00836 0.77522
C15 C 0.91432 -0.04974 0.66253
C16 C 0.99429 0.00920 0.61994
C17 C 1.06359 -0.08353 0.60967
C18 C 1.07046 -0.15544 0.72750
C19 C 0.35678 -0.07853 0.86777
C20 C 0.90774 -0.18244 1.15060
C21 C 0.67280 0.13014 0.97212
C22 C 0.94407 0.06641 0.47341
N1 N 0.66711 -0.19353 0.61119
C23 C 0.73638 -0.37363 0.64524
C24 C 0.67969 -0.44247 0.68473
C25 C 0.72091 -0.52357 0.78846
C26 C 0.83098 -0.52785 0.84717
C27 C 0.88565 -0.45372 0.81171
C28 C 0.84218 -0.37895 0.70482
C29 C 0.69084 -0.28824 0.53585
C30 C 0.59227 -0.32031 0.41030
loop_
_geom_bond_atom_site_label_1
_geom_bond_atom_site_label_2
_geom_bond_site_symmetry_1
_geom_bond_site_symmetry_2
Cl1 O1 1_555 1_555
O2 Cl1 1_555 1_555
O3 Cl1 1_555 1_555
O4 Cl1 1_555 1_555
O5 C1 1_555 1_555
O6 C5 1_555 1_555
O7 C10 1_555 1_555
O8 C15 1_555 1_555
C1 C2 1_555 1_555
C2 C3 1_555 1_555
C3 C4 1_555 1_555
C4 O5 1_555 1_555
C5 C4 1_555 1_555
C6 C5 1_555 1_555
C7 C6 1_555 1_555
C8 C7 1_555 1_555
C9 O6 1_555 1_555
C10 C9 1_555 1_555
C11 C10 1_555 1_555
C12 C11 1_555 1_555
C13 C12 1_555 1_555
C14 O7 1_555 1_555
C15 C14 1_555 1_555
C16 C15 1_555 1_555
C17 C16 1_555 1_555
C18 O8 1_555 1_555
C19 C3 1_555 1_555
C20 C8 1_555 1_555
C21 C11 1_555 1_555
C22 C16 1_555 1_555
N1 C29 1_555 1_555
C23 C24 1_555 1_555
C24 C25 1_555 1_555
C25 C26 1_555 1_555
C26 C27 1_555 1_555
C27 C28 1_555 1_555
C28 C23 1_555 1_555
C29 C23 1_555 1_555
C30 C29 1_555 1_555
C8 C9 1_555 1_555
C13 C14 1_555 1_555
C17 C18 1_555 1_555

#END
