
#######################################################################
#
#                 Cambridge Crystallographic Data Centre
#                                CCDC 
#
#######################################################################
#
# If this CIF has been generated from an entry in the Cambridge 
# Structural Database, then it will include bibliographic, chemical, 
# crystal, experimental, refinement or atomic coordinate data resulting 
# from the CCDC's data processing and validation procedures.
#
#######################################################################

data_KUGKIG
_chemical_formula_moiety         'C56 H38 O6,3(C8 H7 N1)'
_chemical_name_systematic        
'out,out-6,13,23,30,39,46-Hexaoxaoctacyclo(16.16.16.2^2,5^.2^14,17^.2^19,22^.2^31,34^.2^35,38^.2^47,50^)dohexaconta-2,4,14,16,19,21,31,33,35,37,47,49,51,53,55,57,59,61-octadecaen-8,10,25,27,41,43-hexayne tris(benzylnitrile) clathrate'
_symmetry_cell_setting           monoclinic
_symmetry_space_group_name_H-M   'P 21/n'
_symmetry_Int_Tables_number      14
_space_group_name_Hall           '-P 2yn'
loop_
_symmetry_equiv_pos_site_id
_symmetry_equiv_pos_as_xyz
1 x,y,z
2 1/2-x,1/2+y,1/2-z
3 -x,-y,-z
4 1/2+x,1/2-y,1/2+z
_cell_length_a                   12.946(3)
_cell_length_b                   17.340(5)
_cell_length_c                   27.763(6)
_cell_angle_alpha                90
_cell_angle_beta                 91.27(2)
_cell_angle_gamma                90
_cell_volume                     6230.81
_exptl_crystal_colour            colorless
_chemical_melting_point          'above 270deg.C(dec.)'
_cell_formula_units_Z            4
loop_
_atom_site_label
_atom_site_type_symbol
_atom_site_fract_x
_atom_site_fract_y
_atom_site_fract_z
C1 C 0.3084(7) 0.3130(5) 0.3439(3)
C2 C 0.2298(7) 0.2505(6) 0.3544(3)
C3 C 0.1492(8) 0.2674(6) 0.3849(3)
C4 C 0.0743(7) 0.2124(6) 0.3954(3)
C5 C 0.0793(7) 0.1396(6) 0.3745(3)
C6 C 0.1585(6) 0.1217(5) 0.3441(3)
C7 C 0.2327(7) 0.1782(6) 0.3340(3)
O1 O 0.0032(5) 0.0907(4) 0.3891(2)
C8 C 0.0107(8) 0.0120(6) 0.3730(3)
C9 C -0.0189(7) 0.0029(6) 0.3225(4)
C10 C -0.0460(7) -0.0017(6) 0.2819(4)
C11 C -0.0813(8) -0.0076(7) 0.2342(4)
C12 C -0.1115(8) -0.0132(8) 0.1943(4)
C13 C -0.1555(9) -0.0226(11) 0.1453(5)
O2 O -0.1076(7) -0.0524(8) 0.1153(3)
C14 C -0.0162(9) -0.0273(10) 0.0951(4)
C15 C 0.0305(9) -0.0798(8) 0.0667(4)
C16 C 0.1214(8) -0.0623(7) 0.0470(4)
C17 C 0.1702(7) 0.0072(7) 0.0524(3)
C18 C 0.1205(8) 0.0621(7) 0.0800(4)
C19 C 0.0247(8) 0.0455(8) 0.1026(4)
C20 C 0.2736(7) 0.0219(6) 0.0301(3)
C21 C 0.2877(7) 0.1051(5) 0.0149(3)
C22 C 0.3486(8) 0.1596(6) 0.0395(3)
C23 C 0.3604(7) 0.2331(6) 0.0212(3)
C24 C 0.3091(8) 0.2543(6) -0.0210(3)
C25 C 0.2478(7) 0.2022(6) -0.0459(4)
C26 C 0.2389(7) 0.1287(7) -0.0283(3)
O3 O 0.3141(5) 0.3267(4) -0.0422(2)
C27 C 0.3624(8) 0.3862(6) -0.0154(4)
C28 C 0.3043(8) 0.4068(6) 0.0278(4)
C29 C 0.2540(8) 0.4244(6) 0.0610(4)
C30 C 0.1929(8) 0.4489(6) 0.0993(4)
C31 C 0.1414(8) 0.4755(6) 0.1305(4)
C32 C 0.0803(8) 0.5096(6) 0.1681(4)
O4 O 0.1436(5) 0.5314(4) 0.2091(2)
C33 C 0.1843(7) 0.4729(6) 0.2378(3)
C34 C 0.1509(7) 0.3972(6) 0.2363(3)
C35 C 0.1941(7) 0.3455(6) 0.2687(3)
C36 C 0.2658(7) 0.3673(6) 0.3044(3)
C37 C 0.2990(7) 0.4434(6) 0.3037(4)
C38 C 0.2597(7) 0.4958(6) 0.2712(4)
C39 C 0.4174(7) 0.2834(5) 0.3341(3)
C40 C 0.4630(8) 0.2344(5) 0.3674(3)
C41 C 0.5641(8) 0.2094(6) 0.3625(4)
C42 C 0.6195(7) 0.2345(6) 0.3248(4)
C43 C 0.5734(8) 0.2817(7) 0.2907(4)
C44 C 0.4731(8) 0.3065(6) 0.2951(4)
O5 O 0.7238(5) 0.2187(4) 0.3183(3)
C45 C 0.7595(8) 0.1433(6) 0.3345(4)
C46 C 0.7151(8) 0.0826(7) 0.3034(4)
C47 C 0.6796(8) 0.0344(7) 0.2775(4)
C48 C 0.6442(8) -0.0241(7) 0.2481(4)
C49 C 0.6131(8) -0.0735(7) 0.2228(4)
C50 C 0.5844(8) -0.1392(5) 0.1897(3)
O6 O 0.5978(5) -0.1192(4) 0.1401(2)
C51 C 0.5179(7) -0.0806(5) 0.1161(4)
C52 C 0.4454(7) -0.0361(6) 0.1388(3)
C53 C 0.3665(7) -0.0023(5) 0.1107(3)
C54 C 0.3610(7) -0.0111(5) 0.0613(3)
C55 C 0.4366(7) -0.0569(5) 0.0401(4)
C56 C 0.5140(7) -0.0913(5) 0.0672(3)
H1 H 0.3139 0.3435 0.3727
H2 H 0.1463 0.3179 0.3988
H3 H 0.0193 0.2250 0.4166
H4 H 0.1614 0.0712 0.3300
H5 H 0.2869 0.1663 0.3121
H6 H -0.0337 -0.0198 0.3919
H7 H 0.0805 -0.0055 0.3779
H8 H -0.1709 0.0286 0.1342
H9 H -0.2199 -0.0498 0.1475
H10 H -0.0013 -0.1290 0.0611
H11 H 0.1552 -0.0999 0.0274
H12 H 0.1518 0.1117 0.0850
H13 H -0.0117 0.0831 0.1210
H14 H 0.2727 -0.0080 0.0010
H15 H 0.3834 0.1444 0.0689
H16 H 0.4033 0.2705 0.0376
H17 H 0.2119 0.2172 -0.0751
H18 H 0.1983 0.0911 -0.0457
H19 H 0.3678 0.4309 -0.0355
H20 H 0.4308 0.3700 -0.0059
H21 H 0.0292 0.4732 0.1781
H22 H 0.0453 0.5544 0.1557
H23 H 0.0996 0.3814 0.2128
H24 H 0.1739 0.2923 0.2673
H25 H 0.3516 0.4591 0.3267
H26 H 0.2832 0.5483 0.2709
H27 H 0.4237 0.2177 0.3944
H28 H 0.5960 0.1756 0.3859
H29 H 0.6130 0.2975 0.2635
H30 H 0.4408 0.3396 0.2715
H31 H 0.7370 0.1350 0.3668
H32 H 0.8336 0.1413 0.3344
H33 H 0.5138 -0.1535 0.1945
H34 H 0.6275 -0.1827 0.1974
H35 H 0.4500 -0.0284 0.1731
H36 H 0.3142 0.0276 0.1260
H37 H 0.4332 -0.0640 0.0058
H38 H 0.5649 -0.1225 0.0518
N1 N 0.1097(9) 0.1192(7) 0.5406(4)
C57 C 0.1723(11) 0.1201(8) 0.5140(5)
C58 C 0.2548(10) 0.1177(9) 0.4765(5)
C59 C 0.3477(5) 0.2269(5) 0.5111(3)
C60 C 0.4395 0.2649 0.5234
C61 C 0.5343 0.2295 0.5152
C62 C 0.5373 0.1561 0.4947
C63 C 0.4455 0.1181 0.4824
C64 C 0.3507 0.1535 0.4906
H39 H 0.2292 0.1414 0.4474
H40 H 0.2702 0.0647 0.4696
H41 H 0.2825 0.2512 0.5167
H42 H 0.4375 0.3154 0.5375
H43 H 0.5975 0.2557 0.5237
H44 H 0.6025 0.1318 0.4891
H45 H 0.4475 0.0676 0.4683
N2 N 0.7054(11) 0.1335(8) 0.0728(6)
C65 C 0.6707(12) 0.1308(9) 0.1109(6)
C66 C 0.6188(10) 0.1273(8) 0.1554(5)
C67 C 0.5223(6) 0.2479(5) 0.1354(3)
C68 C 0.4374 0.2967 0.1400
C69 C 0.3584 0.2771 0.1711
C70 C 0.3643 0.2088 0.1976
C71 C 0.4492 0.1601 0.1929
C72 C 0.5282 0.1796 0.1619
H46 H 0.6680 0.1392 0.1807
H47 H 0.5965 0.0750 0.1599
H48 H 0.5767 0.2613 0.1140
H49 H 0.4334 0.3437 0.1218
H50 H 0.3000 0.3107 0.1743
H51 H 0.3099 0.1954 0.2190
H52 H 0.4532 0.1131 0.2112
N3 N -0.1453(10) 0.4892(8) 0.0911(5)
C73 C -0.1820(11) 0.4390(10) 0.1117(5)
C74 C -0.2165(10) 0.3738(8) 0.1392(5)
C75 C -0.1620(5) 0.2712(6) 0.1961(3)
C76 C -0.0910 0.2174 0.2139
C77 C 0.0058 0.2107 0.1932
C78 C 0.0315 0.2579 0.1546
C79 C -0.0396 0.3118 0.1367
C80 C -0.1364 0.3184 0.1575
H53 H -0.2656 0.3450 0.1199
H54 H -0.2519 0.3938 0.1666
H55 H -0.2287 0.2758 0.2103
H56 H -0.1086 0.1849 0.2405
H57 H 0.0547 0.1736 0.2055
H58 H 0.0981 0.2533 0.1403
H59 H -0.0219 0.3443 0.1101
loop_
_geom_bond_atom_site_label_1
_geom_bond_atom_site_label_2
_geom_bond_site_symmetry_1
_geom_bond_site_symmetry_2
C1 C2 1_555 1_555
C2 C3 1_555 1_555
C3 C4 1_555 1_555
C4 C5 1_555 1_555
C5 C6 1_555 1_555
C6 C7 1_555 1_555
C7 C2 1_555 1_555
O1 C5 1_555 1_555
C8 O1 1_555 1_555
C9 C8 1_555 1_555
C10 C9 1_555 1_555
C11 C10 1_555 1_555
C12 C11 1_555 1_555
C13 C12 1_555 1_555
O2 C13 1_555 1_555
C14 O2 1_555 1_555
C15 C14 1_555 1_555
C16 C15 1_555 1_555
C17 C16 1_555 1_555
C18 C17 1_555 1_555
C19 C14 1_555 1_555
C20 C17 1_555 1_555
C21 C20 1_555 1_555
C22 C21 1_555 1_555
C23 C22 1_555 1_555
C24 C23 1_555 1_555
C25 C24 1_555 1_555
C26 C21 1_555 1_555
O3 C24 1_555 1_555
C27 O3 1_555 1_555
C28 C27 1_555 1_555
C29 C28 1_555 1_555
C30 C29 1_555 1_555
C31 C30 1_555 1_555
C32 C31 1_555 1_555
O4 C32 1_555 1_555
C33 O4 1_555 1_555
C34 C33 1_555 1_555
C35 C34 1_555 1_555
C36 C1 1_555 1_555
C37 C36 1_555 1_555
C38 C33 1_555 1_555
C39 C1 1_555 1_555
C40 C39 1_555 1_555
C41 C40 1_555 1_555
C42 C41 1_555 1_555
C43 C42 1_555 1_555
C44 C39 1_555 1_555
O5 C42 1_555 1_555
C45 O5 1_555 1_555
C46 C45 1_555 1_555
C47 C46 1_555 1_555
C48 C47 1_555 1_555
C49 C48 1_555 1_555
C50 C49 1_555 1_555
O6 C50 1_555 1_555
C51 O6 1_555 1_555
C52 C51 1_555 1_555
C53 C52 1_555 1_555
C54 C20 1_555 1_555
C55 C54 1_555 1_555
C56 C51 1_555 1_555
H1 C1 1_555 1_555
H2 C3 1_555 1_555
H3 C4 1_555 1_555
H4 C6 1_555 1_555
H5 C7 1_555 1_555
H6 C8 1_555 1_555
H7 C8 1_555 1_555
H8 C13 1_555 1_555
H9 C13 1_555 1_555
H10 C15 1_555 1_555
H11 C16 1_555 1_555
H12 C18 1_555 1_555
H13 C19 1_555 1_555
H14 C20 1_555 1_555
H15 C22 1_555 1_555
H16 C23 1_555 1_555
H17 C25 1_555 1_555
H18 C26 1_555 1_555
H19 C27 1_555 1_555
H20 C27 1_555 1_555
H21 C32 1_555 1_555
H22 C32 1_555 1_555
H23 C34 1_555 1_555
H24 C35 1_555 1_555
H25 C37 1_555 1_555
H26 C38 1_555 1_555
H27 C40 1_555 1_555
H28 C41 1_555 1_555
H29 C43 1_555 1_555
H30 C44 1_555 1_555
H31 C45 1_555 1_555
H32 C45 1_555 1_555
H33 C50 1_555 1_555
H34 C50 1_555 1_555
H35 C52 1_555 1_555
H36 C53 1_555 1_555
H37 C55 1_555 1_555
H38 C56 1_555 1_555
N1 C57 1_555 1_555
C57 C58 1_555 1_555
C58 C64 1_555 1_555
C59 C60 1_555 1_555
C60 C61 1_555 1_555
C61 C62 1_555 1_555
C62 C63 1_555 1_555
C63 C64 1_555 1_555
C64 C59 1_555 1_555
H39 C58 1_555 1_555
H40 C58 1_555 1_555
H41 C59 1_555 1_555
H42 C60 1_555 1_555
H43 C61 1_555 1_555
H44 C62 1_555 1_555
H45 C63 1_555 1_555
N2 C65 1_555 1_555
C65 C66 1_555 1_555
C66 C72 1_555 1_555
C67 C68 1_555 1_555
C68 C69 1_555 1_555
C69 C70 1_555 1_555
C70 C71 1_555 1_555
C71 C72 1_555 1_555
C72 C67 1_555 1_555
H46 C66 1_555 1_555
H47 C66 1_555 1_555
H48 C67 1_555 1_555
H49 C68 1_555 1_555
H50 C69 1_555 1_555
H51 C70 1_555 1_555
H52 C71 1_555 1_555
N3 C73 1_555 1_555
C73 C74 1_555 1_555
C74 C80 1_555 1_555
C75 C76 1_555 1_555
C76 C77 1_555 1_555
C77 C78 1_555 1_555
C78 C79 1_555 1_555
C79 C80 1_555 1_555
C80 C75 1_555 1_555
H53 C74 1_555 1_555
H54 C74 1_555 1_555
H55 C75 1_555 1_555
H56 C76 1_555 1_555
H57 C77 1_555 1_555
H58 C78 1_555 1_555
H59 C79 1_555 1_555
C18 C19 1_555 1_555
C25 C26 1_555 1_555
C35 C36 1_555 1_555
C37 C38 1_555 1_555
C43 C44 1_555 1_555
C53 C54 1_555 1_555
C55 C56 1_555 1_555

#END
