
#######################################################################
#
#                 Cambridge Crystallographic Data Centre
#                                CCDC 
#
#######################################################################
#
# If this CIF has been generated from an entry in the Cambridge 
# Structural Database, then it will include bibliographic, chemical, 
# crystal, experimental, refinement or atomic coordinate data resulting 
# from the CCDC's data processing and validation procedures.
#
#######################################################################

data_KUGSAI
_chemical_formula_moiety         'C28 H20 Br1 N3 O5 S1'
_chemical_name_systematic        
"ethyl 1-benzyl-7-bromo-2'-cyano-2-oxo-1,2-dihydro-9b'H-spiro[indole-3,1'-pyrrolo[1,2-b][1,2]benzothiazole]-9b'-carboxylate 5',5'-dioxide"
_symmetry_cell_setting           monoclinic
_symmetry_space_group_name_H-M   'P 21'
_symmetry_Int_Tables_number      4
_space_group_name_Hall           'P 2yb'
loop_
_symmetry_equiv_pos_site_id
_symmetry_equiv_pos_as_xyz
1 x,y,z
2 -x,1/2+y,-z
_cell_length_a                   15.744(4)
_cell_length_b                   8.114(2)
_cell_length_c                   19.995(5)
_cell_angle_alpha                90
_cell_angle_beta                 90.858(3)
_cell_angle_gamma                90
_cell_volume                     2554.01
_exptl_crystal_colour            colorless
_exptl_crystal_description       block
_cell_formula_units_Z            4
_exptl_crystal_recrystallization_method 'vapour deposition'
loop_
_atom_site_label
_atom_site_type_symbol
_atom_site_fract_x
_atom_site_fract_y
_atom_site_fract_z
Br1 Br 0.49590(3) 0.30148(7) 0.06077(3)
S1 S 1.00406(6) 0.78916(16) 0.10749(5)
O1 O 0.70290(18) 0.8741(4) 0.10726(14)
O2 O 0.93483(18) 0.3652(4) 0.08041(15)
O3 O 0.81691(18) 0.3762(4) 0.14316(14)
O4 O 1.0235(2) 0.9490(4) 0.08198(17)
O5 O 1.0717(2) 0.6748(5) 0.11833(18)
N1 N 0.6355(2) 0.6281(4) 0.08402(17)
N2 N 0.9297(2) 0.7016(5) 0.05766(17)
N3 N 0.7111(2) 0.8545(5) -0.09955(19)
C1 C 0.7779(2) 0.6538(5) 0.04897(19)
C2 C 0.8600(2) 0.6248(5) 0.0960(2)
C3 C 0.8964(3) 0.7888(6) 0.0031(2)
H1 H 0.9284 0.8565 -0.0243
C4 C 0.8134(3) 0.7634(5) -0.00499(19)
C5 C 0.7376(2) 0.4969(5) 0.02310(19)
C6 C 0.7731(3) 0.3796(6) -0.01778(19)
H2 H 0.8271 0.3946 -0.0350
C7 C 0.7264(3) 0.2381(5) -0.0328(2)
H3 H 0.7492 0.1562 -0.0596
C8 C 0.6460(3) 0.2210(6) -0.0073(2)
H4 H 0.6154 0.1254 -0.0167
C9 C 0.6090(3) 0.3428(5) 0.0320(2)
C10 C 0.6547(3) 0.4847(5) 0.0473(2)
C11 C 0.7031(3) 0.7356(5) 0.08439(19)
C12 C 0.5580(3) 0.6782(6) 0.1188(2)
H5 H 0.5109 0.6090 0.1044
H6 H 0.5442 0.7913 0.1075
C13 C 0.5704(3) 0.6628(6) 0.1938(2)
C14 C 0.5851(3) 0.8039(7) 0.2320(2)
H7 H 0.5844 0.9070 0.2117
C15 C 0.6008(3) 0.7915(7) 0.3003(2)
H8 H 0.6108 0.8860 0.3255
C16 C 0.6017(3) 0.6391(7) 0.3305(2)
H9 H 0.6126 0.6308 0.3762
C17 C 0.5865(3) 0.4975(7) 0.2931(2)
H10 H 0.5868 0.3947 0.3137
C18 C 0.5706(3) 0.5109(7) 0.2242(2)
H11 H 0.5602 0.4167 0.1989
C19 C 0.8765(3) 0.4386(5) 0.1043(2)
C20 C 0.8169(3) 0.1975(5) 0.1536(2)
H12 H 0.8739 0.1586 0.1637
H13 H 0.7960 0.1413 0.1138
C21 C 0.7599(4) 0.1654(7) 0.2110(3)
H14 H 0.7041 0.2071 0.2008
H15 H 0.7821 0.2196 0.2502
H16 H 0.7568 0.0490 0.2191
C22 C 0.8637(3) 0.7041(5) 0.1655(2)
C23 C 0.8077(3) 0.6817(5) 0.2184(2)
H17 H 0.7578 0.6220 0.2121
C24 C 0.8276(3) 0.7498(6) 0.2801(2)
H18 H 0.7905 0.7355 0.3154
C25 C 0.9022(3) 0.8392(6) 0.2903(2)
H19 H 0.9140 0.8845 0.3321
C26 C 0.9585(3) 0.8613(6) 0.2392(2)
H20 H 1.0085 0.9207 0.2457
C27 C 0.9381(3) 0.7913(6) 0.1772(2)
C28 C 0.7591(3) 0.8171(5) -0.0583(2)
Br2 Br 0.48740(3) 0.39027(6) 0.52151(2)
S2 S 1.01443(6) 0.78868(15) 0.61013(5)
O6 O 0.71485(18) 0.8486(3) 0.64422(14)
O7 O 0.94330(18) 0.3764(4) 0.56976(15)
O8 O 0.81641(18) 0.3707(4) 0.62060(14)
O9 O 1.0298(2) 0.9592(4) 0.59618(17)
O10 O 1.08402(19) 0.6764(5) 0.60878(17)
N4 N 0.6418(2) 0.6377(4) 0.59197(16)
N5 N 0.9363(2) 0.7196(4) 0.55879(17)
N6 N 0.7094(3) 0.9527(5) 0.4295(2)
C29 C 0.7828(2) 0.6825(5) 0.55722(19)
C30 C 0.8685(2) 0.6309(5) 0.59533(19)
C31 C 0.8988(2) 0.8346(5) 0.51555(19)
H21 H 0.9293 0.9128 0.4918
C32 C 0.8144(2) 0.8199(5) 0.51218(19)
C33 C 0.7404(2) 0.5489(5) 0.51638(19)
C34 C 0.7727(3) 0.4615(5) 0.4635(2)
H22 H 0.8273 0.4822 0.4484
C35 C 0.7221(3) 0.3417(5) 0.4331(2)
H23 H 0.7436 0.2766 0.3991
C36 C 0.6394(3) 0.3204(5) 0.4541(2)
H24 H 0.6058 0.2402 0.4337
C37 C 0.6052(2) 0.4155(5) 0.5049(2)
C38 C 0.6570(2) 0.5276(5) 0.53867(19)
C39 C 0.7117(2) 0.7367(5) 0.60358(19)
C40 C 0.5749(3) 0.6327(6) 0.6428(2)
H25 H 0.5219 0.5976 0.6220
H26 H 0.5666 0.7425 0.6607
C41 C 0.5977(3) 0.5164(6) 0.6993(2)
C42 C 0.6085(3) 0.5744(7) 0.7642(2)
H27 H 0.6008 0.6857 0.7735
C43 C 0.6308(4) 0.4660(10) 0.8155(3)
H28 H 0.6374 0.5051 0.8590
C44 C 0.6435(3) 0.3000(9) 0.8023(3)
H29 H 0.6590 0.2284 0.8367
C45 C 0.6329(3) 0.2417(7) 0.7380(3)
H30 H 0.6411 0.1304 0.7289
C46 C 0.6101(3) 0.3495(6) 0.6867(2)
H31 H 0.6030 0.3094 0.6434
C47 C 0.8820(2) 0.4431(5) 0.5918(2)
C48 C 0.8174(3) 0.1907(5) 0.6273(2)
H32 H 0.8534 0.1433 0.5933
H33 H 0.7604 0.1477 0.6208
C49 C 0.8504(3) 0.1437(6) 0.6951(3)
H34 H 0.8410 0.0282 0.7023
H35 H 0.8211 0.2060 0.7285
H36 H 0.9101 0.1668 0.6981
C50 C 0.8801(2) 0.6765(5) 0.6693(2)
C51 C 0.8292(3) 0.6299(5) 0.7226(2)
H37 H 0.7797 0.5696 0.7152
C52 C 0.8541(3) 0.6756(6) 0.7869(2)
H38 H 0.8199 0.6478 0.8227
C53 C 0.9288(3) 0.7620(6) 0.7988(2)
H39 H 0.9439 0.7908 0.8424
C54 C 0.9810(3) 0.8055(6) 0.7470(2)
H40 H 1.0312 0.8633 0.7548
C55 C 0.9556(3) 0.7596(5) 0.6825(2)
C56 C 0.7585(2) 0.8975(6) 0.4658(2)
loop_
_geom_bond_atom_site_label_1
_geom_bond_atom_site_label_2
_geom_bond_site_symmetry_1
_geom_bond_site_symmetry_2
Br1 C9 1_555 1_555
S1 O4 1_555 1_555
O1 C11 1_555 1_555
O2 C19 1_555 1_555
O3 C19 1_555 1_555
O5 S1 1_555 1_555
N1 C10 1_555 1_555
N2 S1 1_555 1_555
N3 C28 1_555 1_555
C1 C2 1_555 1_555
C2 N2 1_555 1_555
C3 N2 1_555 1_555
H1 C3 1_555 1_555
C4 C1 1_555 1_555
C5 C1 1_555 1_555
C6 C5 1_555 1_555
H2 C6 1_555 1_555
C7 C6 1_555 1_555
H3 C7 1_555 1_555
C8 C7 1_555 1_555
H4 C8 1_555 1_555
C9 C8 1_555 1_555
C10 C5 1_555 1_555
C11 N1 1_555 1_555
C12 N1 1_555 1_555
H5 C12 1_555 1_555
H6 C12 1_555 1_555
C13 C12 1_555 1_555
C14 C13 1_555 1_555
H7 C14 1_555 1_555
C15 C14 1_555 1_555
H8 C15 1_555 1_555
C16 C15 1_555 1_555
H9 C16 1_555 1_555
C17 C16 1_555 1_555
H10 C17 1_555 1_555
C18 C13 1_555 1_555
H11 C18 1_555 1_555
C19 C2 1_555 1_555
C20 O3 1_555 1_555
H12 C20 1_555 1_555
H13 C20 1_555 1_555
C21 C20 1_555 1_555
H14 C21 1_555 1_555
H15 C21 1_555 1_555
H16 C21 1_555 1_555
C22 C2 1_555 1_555
C23 C22 1_555 1_555
H17 C23 1_555 1_555
C24 C23 1_555 1_555
H18 C24 1_555 1_555
C25 C24 1_555 1_555
H19 C25 1_555 1_555
C26 C25 1_555 1_555
H20 C26 1_555 1_555
C27 S1 1_555 1_555
C28 C4 1_555 1_555
Br2 C37 1_555 1_555
S2 O9 1_555 1_555
O6 C39 1_555 1_555
O7 C47 1_555 1_555
O8 C47 1_555 1_555
O10 S2 1_555 1_555
N4 C38 1_555 1_555
N5 S2 1_555 1_555
N6 C56 1_555 1_555
C29 C30 1_555 1_555
C30 N5 1_555 1_555
C31 N5 1_555 1_555
H21 C31 1_555 1_555
C32 C29 1_555 1_555
C33 C29 1_555 1_555
C34 C33 1_555 1_555
H22 C34 1_555 1_555
C35 C34 1_555 1_555
H23 C35 1_555 1_555
C36 C35 1_555 1_555
H24 C36 1_555 1_555
C37 C36 1_555 1_555
C38 C33 1_555 1_555
C39 N4 1_555 1_555
C40 N4 1_555 1_555
H25 C40 1_555 1_555
H26 C40 1_555 1_555
C41 C40 1_555 1_555
C42 C41 1_555 1_555
H27 C42 1_555 1_555
C43 C42 1_555 1_555
H28 C43 1_555 1_555
C44 C43 1_555 1_555
H29 C44 1_555 1_555
C45 C44 1_555 1_555
H30 C45 1_555 1_555
C46 C41 1_555 1_555
H31 C46 1_555 1_555
C47 C30 1_555 1_555
C48 O8 1_555 1_555
H32 C48 1_555 1_555
H33 C48 1_555 1_555
C49 C48 1_555 1_555
H34 C49 1_555 1_555
H35 C49 1_555 1_555
H36 C49 1_555 1_555
C50 C30 1_555 1_555
C51 C50 1_555 1_555
H37 C51 1_555 1_555
C52 C51 1_555 1_555
H38 C52 1_555 1_555
C53 C52 1_555 1_555
H39 C53 1_555 1_555
C54 C53 1_555 1_555
H40 C54 1_555 1_555
C55 S2 1_555 1_555
C56 C32 1_555 1_555
C1 C11 1_555 1_555
C3 C4 1_555 1_555
C9 C10 1_555 1_555
C17 C18 1_555 1_555
C22 C27 1_555 1_555
C26 C27 1_555 1_555
C29 C39 1_555 1_555
C31 C32 1_555 1_555
C37 C38 1_555 1_555
C45 C46 1_555 1_555
C50 C55 1_555 1_555
C54 C55 1_555 1_555

#END
