
#######################################################################
#
#                 Cambridge Crystallographic Data Centre
#                                CCDC 
#
#######################################################################
#
# If this CIF has been generated from an entry in the Cambridge 
# Structural Database, then it will include bibliographic, chemical, 
# crystal, experimental, refinement or atomic coordinate data resulting 
# from the CCDC's data processing and validation procedures.
#
#######################################################################

data_KUGTEN
_chemical_formula_moiety         'C15 H16 F1 N1 O3'
_chemical_name_systematic        
'ethyl 2-((benzyloxy)methyl)-1-cyano-2-fluorocyclopropanecarboxylate'
_symmetry_cell_setting           triclinic
_symmetry_space_group_name_H-M   'P -1'
_symmetry_Int_Tables_number      2
_space_group_name_Hall           '-P 1'
loop_
_symmetry_equiv_pos_site_id
_symmetry_equiv_pos_as_xyz
1 x,y,z
2 -x,-y,-z
_cell_length_a                   7.9224(10)
_cell_length_b                   9.0988(10)
_cell_length_c                   10.6175(10)
_cell_angle_alpha                81.344(2)
_cell_angle_beta                 85.549(2)
_cell_angle_gamma                72.932(2)
_cell_volume                     722.861
_exptl_crystal_colour            colorless
_exptl_crystal_description       prism
_cell_formula_units_Z            2
loop_
_atom_site_label
_atom_site_type_symbol
_atom_site_fract_x
_atom_site_fract_y
_atom_site_fract_z
C1 C 0.1268(2) 0.8661(2) 0.25959(19)
H1 H 0.0296 0.9466 0.2795
C2 C 0.1304(3) 0.8018(3) 0.1497(2)
H2 H 0.0359 0.8399 0.0956
C3 C 0.2714(3) 0.6826(3) 0.11933(17)
H3 H 0.2726 0.6392 0.0452
C4 C 0.4104(3) 0.6277(3) 0.19832(18)
H4 H 0.5067 0.5464 0.1783
C5 C 0.4080(2) 0.6927(2) 0.30774(17)
H5 H 0.5039 0.6555 0.3606
C6 C 0.26619(19) 0.81189(18) 0.34006(14)
C7 C 0.2628(2) 0.8829(2) 0.45919(16)
H6 H 0.3822 0.8555 0.4889
H7 H 0.2221 0.9949 0.439
C8 C 0.2139(2) 0.67625(17) 0.60659(15)
H8 H 0.3392 0.6486 0.622
H9 H 0.1967 0.6142 0.5446
C9 C 0.1147(2) 0.64593(18) 0.72698(14)
C10 C 0.0736(2) 0.50012(19) 0.76960(15)
H10 H 0.0795 0.4622 0.86
H11 H 0.1108 0.4199 0.7143
C11 C -0.0780(2) 0.64363(17) 0.72629(13)
C12 C -0.1515(2) 0.65669(18) 0.60396(15)
C13 C -0.2024(2) 0.71887(19) 0.82720(14)
C14 C -0.4695(3) 0.9102(3) 0.86148(19)
H12 H -0.4168 0.9802 0.8938
H13 H -0.5012 0.8428 0.9333
C15 C -0.6278(3) 0.9994(3) 0.7900(2)
H14 H -0.5944 1.0625 0.7172
H15 H -0.7097 1.0646 0.8441
H16 H -0.6824 0.9292 0.7623
F1 F 0.14759(14) 0.72206(12) 0.82021(9)
N1 N -0.2085(2) 0.66588(19) 0.50748(15)
O1 O 0.15188(14) 0.83481(12) 0.55972(10)
O2 O -0.1734(2) 0.69247(18) 0.93798(11)
O3 O -0.34464(15) 0.81845(14) 0.77545(10)
loop_
_geom_bond_atom_site_label_1
_geom_bond_atom_site_label_2
_geom_bond_site_symmetry_1
_geom_bond_site_symmetry_2
C1 H1 1_555 1_555
C2 C1 1_555 1_555
H2 C2 1_555 1_555
C3 C2 1_555 1_555
H3 C3 1_555 1_555
C4 C3 1_555 1_555
H4 C4 1_555 1_555
C5 C4 1_555 1_555
H5 C5 1_555 1_555
C6 C1 1_555 1_555
C7 C6 1_555 1_555
H6 C7 1_555 1_555
H7 C7 1_555 1_555
C8 H8 1_555 1_555
H9 C8 1_555 1_555
C9 C8 1_555 1_555
C10 C9 1_555 1_555
H10 C10 1_555 1_555
H11 C10 1_555 1_555
C11 C9 1_555 1_555
C12 C11 1_555 1_555
C13 C11 1_555 1_555
C14 H12 1_555 1_555
H13 C14 1_555 1_555
C15 C14 1_555 1_555
H14 C15 1_555 1_555
H15 C15 1_555 1_555
H16 C15 1_555 1_555
F1 C9 1_555 1_555
N1 C12 1_555 1_555
O1 C7 1_555 1_555
O2 C13 1_555 1_555
O3 C13 1_555 1_555
C5 C6 1_555 1_555
C8 O1 1_555 1_555
C10 C11 1_555 1_555
C14 O3 1_555 1_555

#END
