
#######################################################################
#
#                 Cambridge Crystallographic Data Centre
#                                CCDC 
#
#######################################################################
#
# If this CIF has been generated from an entry in the Cambridge 
# Structural Database, then it will include bibliographic, chemical, 
# crystal, experimental, refinement or atomic coordinate data resulting 
# from the CCDC's data processing and validation procedures.
#
#######################################################################

data_KUHHOM
_chemical_name_common            
'meso-octakis(pentafluorophenyl)-[48]dodecaphyrin(1.1.0.1.1.0.1.1.0.1.1.0) carbon tetrachloride hexane solvate'
_chemical_formula_moiety         'C104 H28 F40 N12,2(C6 H14),7.5(C1 Cl4)'
_chemical_name_systematic        
'6,11,20,25,34,39,48,53-octakis(pentafluorophenyl)-57,58,59,60,61,62,63,64,65,66,67,68-dodecaazatridecacyclo[52.2.1.1^2,5^.1^7,10^.1^12,15^.1^16,19^.1^21,24^.1^26,29^.1^30,33^.1^35,38^.1^40,43^.1^44,47^.1^49,52^]octahexaconta-1(57),2(68),3,5,7,9,11,13,15(66),16(65),17,19,21,23,25,27,29(63),30(62),31,33,35,37,39,41,43(60),44(59),45,47,49,51,53,55-dotriacontaene carbon tetrachloride hexane solvate'
_symmetry_cell_setting           monoclinic
_symmetry_space_group_name_H-M   'P 21/c'
_symmetry_Int_Tables_number      14
_space_group_name_Hall           '-P 2ybc'
loop_
_symmetry_equiv_pos_site_id
_symmetry_equiv_pos_as_xyz
1 x,y,z
2 -x,1/2+y,1/2-z
3 -x,-y,-z
4 x,1/2-y,1/2+z
_cell_length_a                   33.495(6)
_cell_length_b                   11.5133(19)
_cell_length_c                   36.864(6)
_cell_angle_alpha                90
_cell_angle_beta                 101.678(4)
_cell_angle_gamma                90
_cell_volume                     13921.9
_exptl_crystal_colour            green
_exptl_crystal_description       Prism
_cell_formula_units_Z            4
loop_
_atom_site_label
_atom_site_type_symbol
_atom_site_fract_x
_atom_site_fract_y
_atom_site_fract_z
C1 C 0.6260(2) 0.0133(8) 0.3378(2)
N1 N 0.62964(19) 0.0702(6) 0.36955(18)
C2 C 0.5917(2) -0.0667(8) 0.3316(2)
H1 H 0.5832 -0.1162 0.3109
N2 N 0.64677(18) 0.2128(6) 0.42948(18)
H2 H 0.6535 0.2024 0.4078
C3 C 0.5745(2) -0.0558(8) 0.3614(2)
H3 H 0.5514 -0.0972 0.3660
N3 N 0.68535(19) 0.3447(6) 0.38631(18)
C4 C 0.5979(2) 0.0317(8) 0.3852(2)
N4 N 0.69382(19) 0.4035(6) 0.29193(18)
C5 C 0.5910(2) 0.0719(8) 0.4180(2)
C6 C 0.6154(2) 0.1587(8) 0.4405(2)
C7 C 0.6140(2) 0.1998(9) 0.4761(2)
H4 H 0.5949 0.1778 0.4907
C8 C 0.6459(3) 0.2787(9) 0.4859(3)
H5 H 0.6525 0.3205 0.5086
C9 C 0.6665(2) 0.2853(8) 0.4564(2)
C10 C 0.7013(2) 0.3540(8) 0.4527(2)
C11 C 0.7113(2) 0.3760(8) 0.4190(2)
C12 C 0.7470(3) 0.4356(10) 0.4109(2)
H6 H 0.7694 0.4661 0.4284
C13 C 0.7418(3) 0.4386(9) 0.3737(2)
H7 H 0.7600 0.4705 0.3597
C14 C 0.7024(2) 0.3829(8) 0.3591(2)
C15 C 0.6801(2) 0.3717(8) 0.3215(2)
C16 C 0.6385(2) 0.3264(8) 0.3124(2)
H8 H 0.6226 0.2981 0.3292
C17 C 0.6277(2) 0.3331(8) 0.2755(2)
H9 H 0.6023 0.3102 0.2607
C18 C 0.6617(2) 0.3816(8) 0.2621(2)
C19 C 0.6632(2) 0.4071(7) 0.2257(2)
C20 C 0.6974(2) 0.4545(7) 0.2140(2)
C21 C 0.7025(2) 0.4860(7) 0.1786(2)
H10 H 0.6827 0.4796 0.1563
C22 C 0.7417(2) 0.5283(7) 0.1820(2)
H11 H 0.7535 0.5573 0.1625
C23 C 0.7611(2) 0.5206(7) 0.2196(2)
N5 N 0.73343(17) 0.4748(6) 0.23802(17)
H12 H 0.7381 0.4603 0.2620
C24 C 0.8026(2) 0.5473(7) 0.2352(2)
C25 C 0.8230(2) 0.5127(7) 0.2695(2)
C26 C 0.8102(2) 0.4372(7) 0.2970(2)
H13 H 0.7844 0.4006 0.2950
C27 C 0.8418(2) 0.4297(7) 0.3256(2)
H14 H 0.8427 0.3875 0.3479
C28 C 0.8746(2) 0.4987(7) 0.3159(2)
N6 N 0.86342(18) 0.5493(6) 0.28298(17)
C29 C 0.9151(2) 0.5100(7) 0.3375(2)
C30 C 0.9468(2) 0.5900(7) 0.3318(2)
H15 H 0.9454 0.6458 0.3126
C31 C 0.9789(2) 0.5678(7) 0.3599(2)
H16 H 1.0045 0.6065 0.3643
C32 C 0.9671(2) 0.4747(7) 0.3817(2)
N7 N 0.92674(17) 0.4421(6) 0.36666(17)
C33 C 0.9895(2) 0.4205(7) 0.4123(2)
C34 C 0.9751(2) 0.3279(7) 0.4316(2)
C35 C 0.9926(2) 0.2761(7) 0.4661(2)
H17 H 1.0185 0.2936 0.4810
C36 C 0.9652(2) 0.1958(7) 0.4741(2)
H18 H 0.9684 0.1499 0.4959
C37 C 0.9317(2) 0.1939(7) 0.4441(2)
N8 N 0.93900(17) 0.2733(6) 0.41896(17)
H19 H 0.9227 0.2874 0.3975
C38 C 0.8945(2) 0.1276(7) 0.4384(2)
C39 C 0.8680(2) 0.1195(7) 0.4054(2)
C40 C 0.8292(2) 0.0581(7) 0.3969(2)
H20 H 0.8162 0.0188 0.4140
C41 C 0.8150(2) 0.0675(7) 0.3598(2)
H21 H 0.7903 0.0371 0.3458
C42 C 0.8458(2) 0.1341(7) 0.3461(2)
N9 N 0.87661(18) 0.1648(6) 0.37273(17)
C43 C 0.8483(2) 0.1567(7) 0.3082(2)
C44 C 0.8844(2) 0.2074(7) 0.2977(2)
H22 H 0.9086 0.2326 0.3139
C45 C 0.8764(2) 0.2111(7) 0.2606(2)
H23 H 0.8938 0.2395 0.2452
C46 C 0.8357(2) 0.1629(7) 0.2486(2)
N10 N 0.81956(18) 0.1325(6) 0.27920(17)
C47 C 0.8155(2) 0.1458(7) 0.2125(2)
C48 C 0.7751(2) 0.1012(7) 0.2024(2)
C49 C 0.7513(2) 0.0782(7) 0.1673(2)
H24 H 0.7590 0.0905 0.1442
C50 C 0.7140(2) 0.0339(7) 0.1726(2)
H25 H 0.6919 0.0096 0.1537
C51 C 0.7151(2) 0.0317(7) 0.2105(2)
N11 N 0.75249(17) 0.0725(6) 0.22756(17)
H26 H 0.7608 0.0793 0.2517
C52 C 0.6828(2) 0.0015(7) 0.2295(2)
C53 C 0.6808(2) 0.0283(7) 0.2648(2)
N12 N 0.64845(19) -0.0111(6) 0.28000(19)
C54 C 0.7085(2) 0.0958(7) 0.2930(2)
H27 H 0.7333 0.1317 0.2903
C55 C 0.6921(2) 0.0968(8) 0.3230(2)
H28 H 0.7029 0.1338 0.3459
C56 C 0.6547(2) 0.0308(8) 0.3141(2)
C57 C 0.5563(2) 0.0238(8) 0.4335(2)
C58 C 0.5184(3) 0.0748(10) 0.4251(3)
C59 C 0.4854(3) 0.0291(11) 0.4379(3)
C60 C 0.4909(3) -0.0664(11) 0.4600(3)
C61 C 0.5277(4) -0.1159(11) 0.4692(3)
C62 C 0.5604(3) -0.0708(10) 0.4563(3)
F1 F 0.51278(17) 0.1663(7) 0.4033(2)
F2 F 0.44900(17) 0.0763(9) 0.4269(3)
F3 F 0.45886(19) -0.1109(7) 0.47217(18)
F4 F 0.5328(3) -0.2078(9) 0.4921(3)
F5 F 0.5965(2) -0.1217(7) 0.4664(3)
C63 C 0.7261(2) 0.3996(9) 0.4876(2)
C64 C 0.7421(2) 0.3227(10) 0.5167(2)
C65 C 0.7635(3) 0.3644(12) 0.5503(3)
C66 C 0.7704(3) 0.4796(12) 0.5547(3)
C67 C 0.7571(3) 0.5559(11) 0.5264(3)
C68 C 0.7343(3) 0.5153(9) 0.4933(2)
F6 F 0.73627(17) 0.2079(5) 0.51251(15)
F7 F 0.77758(18) 0.2890(7) 0.57754(15)
F8 F 0.79151(18) 0.5179(7) 0.58734(15)
F9 F 0.7654(2) 0.6673(7) 0.53112(19)
F10 F 0.7201(2) 0.5915(5) 0.46700(16)
C69 C 0.6259(2) 0.3871(7) 0.1970(2)
C70 C 0.5921(2) 0.4593(8) 0.1934(2)
C71 C 0.5575(2) 0.4400(8) 0.1676(2)
C72 C 0.5551(2) 0.3472(8) 0.1446(2)
C73 C 0.5880(3) 0.2735(8) 0.1468(3)
C74 C 0.6227(2) 0.2957(7) 0.1723(2)
F11 F 0.59399(14) 0.5508(4) 0.21627(14)
F12 F 0.52531(14) 0.5122(5) 0.16506(15)
F13 F 0.52078(14) 0.3266(5) 0.11942(14)
F14 F 0.58554(17) 0.1813(5) 0.12418(16)
F15 F 0.65437(14) 0.2225(5) 0.17455(15)
C75 C 0.8246(2) 0.6138(7) 0.2111(2)
C76 C 0.8599(2) 0.5705(8) 0.2011(2)
C77 C 0.8810(2) 0.6348(9) 0.1794(2)
C78 C 0.8674(3) 0.7395(9) 0.1663(2)
C79 C 0.8325(2) 0.7850(8) 0.1745(2)
C80 C 0.8121(2) 0.7221(8) 0.1968(2)
F16 F 0.87338(13) 0.4647(4) 0.21194(13)
F17 F 0.91500(15) 0.5887(5) 0.17062(16)
F18 F 0.88784(16) 0.8023(6) 0.14513(15)
F19 F 0.81825(14) 0.8885(4) 0.16109(14)
F20 F 0.77821(12) 0.7712(4) 0.20508(12)
C81 C 1.0323(2) 0.4627(7) 0.4269(2)
C82 C 1.0656(2) 0.4004(7) 0.4221(2)
C83 C 1.1050(2) 0.4400(8) 0.4346(2)
C84 C 1.1109(2) 0.5457(7) 0.4514(2)
C85 C 1.0786(2) 0.6103(8) 0.4569(2)
C86 C 1.0397(2) 0.5680(7) 0.4452(2)
F21 F 1.06003(12) 0.2981(4) 0.40441(12)
F22 F 1.13678(12) 0.3747(4) 0.43018(13)
F23 F 1.14877(13) 0.5866(4) 0.46279(14)
F24 F 1.08481(13) 0.7147(4) 0.47351(14)
F25 F 1.00802(12) 0.6325(4) 0.45161(14)
C87 C 0.8848(2) 0.0659(7) 0.4714(2)
C88 C 0.8550(2) 0.1079(7) 0.4887(2)
C89 C 0.8451(2) 0.0537(8) 0.5189(2)
C90 C 0.8655(3) -0.0457(8) 0.5325(2)
C91 C 0.8949(3) -0.0910(7) 0.5152(2)
C92 C 0.9049(2) -0.0330(8) 0.4856(2)
F26 F 0.83440(14) 0.2046(4) 0.47615(13)
F27 F 0.81616(16) 0.0970(5) 0.53506(14)
F28 F 0.85641(17) -0.1019(5) 0.56171(14)
F29 F 0.91453(16) -0.1891(4) 0.52798(14)
F30 F 0.93409(14) -0.0803(5) 0.46997(14)
C93 C 0.8372(2) 0.1769(7) 0.1822(2)
C94 C 0.8705(2) 0.1146(9) 0.1766(2)
C95 C 0.8923(3) 0.1464(10) 0.1504(3)
C96 C 0.8810(3) 0.2406(10) 0.1287(3)
C97 C 0.8480(3) 0.3074(9) 0.1340(3)
C98 C 0.8264(2) 0.2728(8) 0.1605(2)
F31 F 0.88330(14) 0.0213(5) 0.19772(15)
F32 F 0.92423(16) 0.0813(6) 0.14538(18)
F33 F 0.9017(2) 0.2725(6) 0.10324(17)
F34 F 0.8384(2) 0.4042(6) 0.11423(16)
F35 F 0.79520(16) 0.3388(5) 0.16495(14)
C99 C 0.6481(2) -0.0614(7) 0.2061(2)
C100 C 0.6091(2) -0.0147(8) 0.1982(2)
C101 C 0.5770(2) -0.0720(9) 0.1765(3)
C102 C 0.5827(3) -0.1785(9) 0.1624(3)
C103 C 0.6208(3) -0.2280(8) 0.1696(2)
C104 C 0.6526(2) -0.1692(7) 0.1909(2)
F36 F 0.60211(12) 0.0907(4) 0.21116(14)
F37 F 0.53980(14) -0.0219(5) 0.16917(17)
F38 F 0.55172(15) -0.2361(5) 0.14127(16)
F39 F 0.62645(16) -0.3334(5) 0.15572(15)
F40 F 0.68966(13) -0.2210(4) 0.19769(13)
C105 C 0.5813(8) -0.443(2) 0.3865(7)
Cl1 Cl 0.5730(3) -0.5899(7) 0.3938(3)
Cl2 Cl 0.54193(19) -0.3609(5) 0.3971(2)
Cl3 Cl 0.6275(2) -0.3995(7) 0.4113(2)
Cl4 Cl 0.5816(4) -0.4263(9) 0.3401(2)
C106 C 0.3551(5) 0.3747(18) 0.4374(5)
Cl5 Cl 0.30806(15) 0.3487(6) 0.40923(16)
Cl6 Cl 0.3548(2) 0.3763(7) 0.48423(15)
Cl7 Cl 0.3721(3) 0.5057(6) 0.4241(2)
Cl8 Cl 0.38906(18) 0.2691(7) 0.43050(15)
C107 C 0.7290(9) -0.070(2) 0.4397(6)
Cl9 Cl 0.68663(18) -0.0877(6) 0.4568(3)
Cl10 Cl 0.77174(13) -0.1331(5) 0.4648(2)
Cl11 Cl 0.7365(2) 0.0768(9) 0.4304(3)
Cl12 Cl 0.7232(3) -0.1321(6) 0.39440(15)
C108 C 0.8661(2) 0.5835(9) 0.4424(3)
Cl13 Cl 0.91757(8) 0.6164(3) 0.45289(10)
Cl14 Cl 0.84164(7) 0.6417(2) 0.47660(6)
Cl15 Cl 0.86025(8) 0.4314(2) 0.44203(8)
Cl16 Cl 0.84274(10) 0.6382(3) 0.39945(7)
C109 C 0.9991(3) 0.9536(9) 0.3787(3)
Cl17 Cl 0.99653(10) 0.8415(3) 0.41021(9)
Cl18 Cl 1.03913(10) 1.0467(3) 0.39749(9)
Cl19 Cl 1.00993(9) 0.8926(3) 0.33799(8)
Cl20 Cl 0.95392(9) 1.0322(3) 0.36935(9)
C110 C 1.0000(3) 0.2972(9) 0.2715(3)
Cl21 Cl 1.00296(10) 0.2797(3) 0.31944(8)
Cl22 Cl 1.04603(8) 0.3461(4) 0.26293(10)
Cl23 Cl 0.98786(11) 0.1646(3) 0.24949(12)
Cl24 Cl 0.96089(7) 0.3975(2) 0.25499(8)
C111 C 0.4960(3) 0.7752(8) 0.2415(3)
Cl25 Cl 0.48639(11) 0.9223(3) 0.24349(11)
Cl26 Cl 0.47964(11) 0.7081(3) 0.27858(11)
Cl27 Cl 0.54792(8) 0.7473(3) 0.24526(8)
Cl28 Cl 0.46969(11) 0.7161(4) 0.20030(12)
C112 C 0.7759(6) 0.8509(17) 0.5959(5)
H29 H 0.7908 0.7980 0.5825
H30 H 0.7634 0.8063 0.6134
H31 H 0.7949 0.9081 0.6095
C113 C 0.7416(5) 0.915(2) 0.5675(5)
H32 H 0.7544 0.9573 0.5493
H33 H 0.7228 0.8568 0.5537
C114 C 0.7191(5) 0.9942(15) 0.5837(3)
H34 H 0.7353 1.0660 0.5898
H35 H 0.7144 0.9609 0.6073
C115 C 0.6764(5) 1.0272(18) 0.5587(4)
H36 H 0.6814 1.0659 0.5361
H37 H 0.6613 0.9544 0.5509
C116 C 0.6498(5) 1.104(2) 0.5761(3)
H38 H 0.6241 1.1212 0.5583
H39 H 0.6429 1.0657 0.5981
C117 C 0.6717(7) 1.208(2) 0.5867(7)
H40 H 0.6551 1.2606 0.5983
H41 H 0.6783 1.2452 0.5647
H42 H 0.6970 1.1898 0.6043
C118 C 0.6746(5) 0.6896(14) 0.2851(5)
H43 H 0.6578 0.6441 0.2988
H44 H 0.6748 0.6519 0.2614
H45 H 0.6633 0.7680 0.2807
C119 C 0.7185(7) 0.6972(16) 0.3079(5)
H46 H 0.7173 0.7326 0.3322
H47 H 0.7288 0.6169 0.3129
C120 C 0.7481(6) 0.7612(15) 0.2922(4)
H48 H 0.7383 0.8422 0.2877
H49 H 0.7495 0.7266 0.2680
C121 C 0.7922(6) 0.7639(17) 0.3169(6)
H50 H 0.7911 0.8007 0.3410
H51 H 0.8020 0.6832 0.3219
C122 C 0.8228(6) 0.8301(16) 0.2989(5)
H52 H 0.8238 0.7934 0.2748
H53 H 0.8131 0.9109 0.2940
C123 C 0.8651(5) 0.8324(19) 0.3225(5)
H54 H 0.8832 0.8763 0.3098
H55 H 0.8753 0.7528 0.3269
H56 H 0.8644 0.8697 0.3463
C124? C 0.5970(15) -0.406(6) 0.386(2)
Cl29? Cl 0.5535(4) -0.3799(10) 0.3491(3)
Cl30? Cl 0.5949(7) -0.3109(14) 0.4213(4)
Cl31? Cl 0.6398(6) -0.3813(16) 0.3688(7)
Cl32? Cl 0.5952(5) -0.5484(15) 0.4012(6)
C125? C 0.727(4) -0.092(10) 0.432(3)
Cl33? Cl 0.7581(8) -0.1254(18) 0.4823(8)
Cl34? Cl 0.7516(9) -0.1677(19) 0.4100(9)
Cl35? Cl 0.6788(5) -0.135(2) 0.4303(9)
Cl36? Cl 0.7390(10) 0.068(2) 0.4399(11)
C126? C 0.8861(9) 0.863(3) 0.2944(9)
H57? H 0.9106 0.8916 0.3113
H58? H 0.8762 0.9231 0.2758
H59? H 0.8928 0.7927 0.2819
C127? C 0.8545(11) 0.837(6) 0.3155(15)
H60? H 0.8526 0.9049 0.3315
H61? H 0.8644 0.7710 0.3320
C128? C 0.8127(10) 0.809(6) 0.2959(14)
H62? H 0.8148 0.7438 0.2787
H63? H 0.8022 0.8766 0.2804
C129? C 0.7815(10) 0.776(6) 0.3173(17)
H64? H 0.7878 0.6962 0.3269
H65? H 0.7849 0.8280 0.3391
C130? C 0.7383(10) 0.779(5) 0.2990(14)
H66? H 0.7301 0.8613 0.2965
H67? H 0.7366 0.7485 0.2736
C131? C 0.7072(13) 0.717(5) 0.3145(15)
H68? H 0.6810 0.7214 0.2970
H69? H 0.7046 0.7539 0.3379
H70? H 0.7152 0.6359 0.3190
Cl37? Cl 0.4383(9) 0.606(3) 0.4618(8)
Cl38? Cl 0.4947(7) 0.379(2) 0.4487(6)
C132? C 0.4847(9) 0.504(3) 0.4826(13)
Cl39? Cl 0.5440(6) 0.5049(17) 0.4954(5)
Cl40? Cl 0.4888(8) 0.610(2) 0.4407(8)
loop_
_geom_bond_atom_site_label_1
_geom_bond_atom_site_label_2
_geom_bond_site_symmetry_1
_geom_bond_site_symmetry_2
C1 N1 1_555 1_555
N1 C4 1_555 1_555
C2 C1 1_555 1_555
H1 C2 1_555 1_555
N2 H2 1_555 1_555
C3 C2 1_555 1_555
H3 C3 1_555 1_555
N3 C11 1_555 1_555
C4 C3 1_555 1_555
N4 C15 1_555 1_555
C5 C4 1_555 1_555
C6 N2 1_555 1_555
C7 C6 1_555 1_555
H4 C7 1_555 1_555
C8 C7 1_555 1_555
H5 C8 1_555 1_555
C9 N2 1_555 1_555
C10 C9 1_555 1_555
C11 C10 1_555 1_555
C12 C11 1_555 1_555
H6 C12 1_555 1_555
C13 C12 1_555 1_555
H7 C13 1_555 1_555
C14 N3 1_555 1_555
C15 C14 1_555 1_555
C16 C15 1_555 1_555
H8 C16 1_555 1_555
C17 C16 1_555 1_555
H9 C17 1_555 1_555
C18 N4 1_555 1_555
C19 C18 1_555 1_555
C20 C19 1_555 1_555
C21 C20 1_555 1_555
H10 C21 1_555 1_555
C22 C21 1_555 1_555
H11 C22 1_555 1_555
C23 C22 1_555 1_555
N5 C20 1_555 1_555
H12 N5 1_555 1_555
C24 C23 1_555 1_555
C25 C24 1_555 1_555
C26 C25 1_555 1_555
H13 C26 1_555 1_555
C27 C26 1_555 1_555
H14 C27 1_555 1_555
C28 C27 1_555 1_555
N6 C25 1_555 1_555
C29 C28 1_555 1_555
C30 C29 1_555 1_555
H15 C30 1_555 1_555
C31 C30 1_555 1_555
H16 C31 1_555 1_555
C32 C31 1_555 1_555
N7 C29 1_555 1_555
C33 C32 1_555 1_555
C34 C33 1_555 1_555
C35 C34 1_555 1_555
H17 C35 1_555 1_555
C36 C35 1_555 1_555
H18 C36 1_555 1_555
C37 C36 1_555 1_555
N8 C34 1_555 1_555
H19 N8 1_555 1_555
C38 C37 1_555 1_555
C39 C38 1_555 1_555
C40 C39 1_555 1_555
H20 C40 1_555 1_555
C41 C40 1_555 1_555
H21 C41 1_555 1_555
C42 C41 1_555 1_555
N9 C39 1_555 1_555
C43 C42 1_555 1_555
C44 C43 1_555 1_555
H22 C44 1_555 1_555
C45 C44 1_555 1_555
H23 C45 1_555 1_555
C46 C45 1_555 1_555
N10 C43 1_555 1_555
C47 C46 1_555 1_555
C48 C47 1_555 1_555
C49 C48 1_555 1_555
H24 C49 1_555 1_555
C50 C49 1_555 1_555
H25 C50 1_555 1_555
C51 C50 1_555 1_555
N11 C48 1_555 1_555
H26 N11 1_555 1_555
C52 C51 1_555 1_555
C53 C52 1_555 1_555
N12 C53 1_555 1_555
C54 C53 1_555 1_555
H27 C54 1_555 1_555
C55 C54 1_555 1_555
H28 C55 1_555 1_555
C56 C1 1_555 1_555
C57 C5 1_555 1_555
C58 C57 1_555 1_555
C59 C58 1_555 1_555
C60 C59 1_555 1_555
C61 C60 1_555 1_555
C62 C57 1_555 1_555
F1 C58 1_555 1_555
F2 C59 1_555 1_555
F3 C60 1_555 1_555
F4 C61 1_555 1_555
F5 C62 1_555 1_555
C63 C10 1_555 1_555
C64 C63 1_555 1_555
C65 C64 1_555 1_555
C66 C65 1_555 1_555
C67 C66 1_555 1_555
C68 C63 1_555 1_555
F6 C64 1_555 1_555
F7 C65 1_555 1_555
F8 C66 1_555 1_555
F9 C67 1_555 1_555
F10 C68 1_555 1_555
C69 C19 1_555 1_555
C70 C69 1_555 1_555
C71 C70 1_555 1_555
C72 C71 1_555 1_555
C73 C72 1_555 1_555
C74 C69 1_555 1_555
F11 C70 1_555 1_555
F12 C71 1_555 1_555
F13 C72 1_555 1_555
F14 C73 1_555 1_555
F15 C74 1_555 1_555
C75 C24 1_555 1_555
C76 C75 1_555 1_555
C77 C76 1_555 1_555
C78 C77 1_555 1_555
C79 C78 1_555 1_555
C80 C75 1_555 1_555
F16 C76 1_555 1_555
F17 C77 1_555 1_555
F18 C78 1_555 1_555
F19 C79 1_555 1_555
F20 C80 1_555 1_555
C81 C33 1_555 1_555
C82 C81 1_555 1_555
C83 C82 1_555 1_555
C84 C83 1_555 1_555
C85 C84 1_555 1_555
C86 C81 1_555 1_555
F21 C82 1_555 1_555
F22 C83 1_555 1_555
F23 C84 1_555 1_555
F24 C85 1_555 1_555
F25 C86 1_555 1_555
C87 C38 1_555 1_555
C88 C87 1_555 1_555
C89 C88 1_555 1_555
C90 C89 1_555 1_555
C91 C90 1_555 1_555
C92 C87 1_555 1_555
F26 C88 1_555 1_555
F27 C89 1_555 1_555
F28 C90 1_555 1_555
F29 C91 1_555 1_555
F30 C92 1_555 1_555
C93 C47 1_555 1_555
C94 C93 1_555 1_555
C95 C94 1_555 1_555
C96 C95 1_555 1_555
C97 C96 1_555 1_555
C98 C93 1_555 1_555
F31 C94 1_555 1_555
F32 C95 1_555 1_555
F33 C96 1_555 1_555
F34 C97 1_555 1_555
F35 C98 1_555 1_555
C99 C52 1_555 1_555
C100 C99 1_555 1_555
C101 C100 1_555 1_555
C102 C101 1_555 1_555
C103 C102 1_555 1_555
C104 C99 1_555 1_555
F36 C100 1_555 1_555
F37 C101 1_555 1_555
F38 C102 1_555 1_555
F39 C103 1_555 1_555
F40 C104 1_555 1_555
C105 Cl1 1_555 1_555
Cl2 C105 1_555 1_555
Cl3 C105 1_555 1_555
Cl4 C105 1_555 1_555
C106 Cl5 1_555 1_555
Cl6 C106 1_555 1_555
Cl7 C106 1_555 1_555
Cl8 C106 1_555 1_555
C107 Cl9 1_555 1_555
Cl10 C107 1_555 1_555
Cl11 C107 1_555 1_555
Cl12 C107 1_555 1_555
C108 Cl13 1_555 1_555
Cl14 C108 1_555 1_555
Cl15 C108 1_555 1_555
Cl16 C108 1_555 1_555
C109 Cl17 1_555 1_555
Cl18 C109 1_555 1_555
Cl19 C109 1_555 1_555
Cl20 C109 1_555 1_555
C110 Cl21 1_555 1_555
Cl22 C110 1_555 1_555
Cl23 C110 1_555 1_555
Cl24 C110 1_555 1_555
C111 Cl25 1_555 1_555
Cl26 C111 1_555 1_555
Cl27 C111 1_555 1_555
Cl28 C111 1_555 1_555
C112 H29 1_555 1_555
H30 C112 1_555 1_555
H31 C112 1_555 1_555
C113 C112 1_555 1_555
H32 C113 1_555 1_555
H33 C113 1_555 1_555
C114 C113 1_555 1_555
H34 C114 1_555 1_555
H35 C114 1_555 1_555
C115 C114 1_555 1_555
H36 C115 1_555 1_555
H37 C115 1_555 1_555
C116 C115 1_555 1_555
H38 C116 1_555 1_555
H39 C116 1_555 1_555
C117 C116 1_555 1_555
H40 C117 1_555 1_555
H41 C117 1_555 1_555
H42 C117 1_555 1_555
C118 H43 1_555 1_555
H44 C118 1_555 1_555
H45 C118 1_555 1_555
C119 C118 1_555 1_555
H46 C119 1_555 1_555
H47 C119 1_555 1_555
C120 C119 1_555 1_555
H48 C120 1_555 1_555
H49 C120 1_555 1_555
C121 C120 1_555 1_555
H50 C121 1_555 1_555
H51 C121 1_555 1_555
C122 C121 1_555 1_555
H52 C122 1_555 1_555
H53 C122 1_555 1_555
C123 C122 1_555 1_555
H54 C123 1_555 1_555
H55 C123 1_555 1_555
H56 C123 1_555 1_555
C5 C6 1_555 1_555
C8 C9 1_555 1_555
C13 C14 1_555 1_555
C17 C18 1_555 1_555
C23 N5 1_555 1_555
C28 N6 1_555 1_555
C32 N7 1_555 1_555
C37 N8 1_555 1_555
C42 N9 1_555 1_555
C46 N10 1_555 1_555
C51 N11 1_555 1_555
N12 C56 1_555 1_555
C55 C56 1_555 1_555
C61 C62 1_555 1_555
C67 C68 1_555 1_555
C73 C74 1_555 1_555
C79 C80 1_555 1_555
C85 C86 1_555 1_555
C91 C92 1_555 1_555
C97 C98 1_555 1_555
C103 C104 1_555 1_555

#END
