
#######################################################################
#
#                 Cambridge Crystallographic Data Centre
#                                CCDC 
#
#######################################################################
#
# If this CIF has been generated from an entry in the Cambridge 
# Structural Database, then it will include bibliographic, chemical, 
# crystal, experimental, refinement or atomic coordinate data resulting 
# from the CCDC's data processing and validation procedures.
#
#######################################################################

data_KUHVOY
_chemical_name_common            4-Diphenylacetoxy-1,1-dimethyl-cyclohexane
_chemical_formula_moiety         'C22 H26 O2'
_chemical_name_systematic        '4,4-Dimethylcyclohexyl diphenylacetate'
_chemical_properties_biological  'muscarine receptor activity'
_symmetry_cell_setting           orthorhombic
_symmetry_space_group_name_H-M   'P b c a'
_symmetry_Int_Tables_number      61
_space_group_name_Hall           '-P 2ac 2ab'
loop_
_symmetry_equiv_pos_site_id
_symmetry_equiv_pos_as_xyz
1 x,y,z
2 1/2-x,-y,1/2+z
3 1/2+x,1/2-y,-z
4 -x,1/2+y,1/2-z
5 -x,-y,-z
6 1/2+x,y,1/2-z
7 1/2-x,1/2+y,z
8 x,1/2-y,1/2+z
_cell_length_a                   11.448(7)
_cell_length_b                   16.999(6)
_cell_length_c                   19.073(7)
_cell_angle_alpha                90
_cell_angle_beta                 90
_cell_angle_gamma                90
_cell_volume                     3711.69
_chemical_melting_point          81-82deg.C
_cell_formula_units_Z            8
loop_
_atom_site_label
_atom_site_type_symbol
_atom_site_fract_x
_atom_site_fract_y
_atom_site_fract_z
C1 C 0.1141(13) 0.9446(8) 0.4159(7)
C2 C 0.2021(14) 0.8918(9) 0.3817(8)
C3 C 0.2581(13) 0.8370(9) 0.4344(7)
C4 C 0.1681(14) 0.7880(9) 0.4764(8)
C5 C 0.0804(13) 0.8446(9) 0.5074(7)
C6 C 0.0200(13) 0.8980(7) 0.4528(7)
O1 O 0.0543(7) 0.9899(5) 0.3613(5)
C7 C 0.1074(15) 1.0559(9) 0.3414(8)
O2 O 0.1930(10) 1.0829(6) 0.3650(6)
C8 C 0.0434(14) 1.0880(7) 0.2766(8)
C9 C 0.0811(12) 1.0460(8) 0.2099(7)
C10 C -0.0017(12) 1.0372(7) 0.1578(7)
C11 C 0.0295(14) 1.0012(8) 0.0947(8)
C12 C 0.1426(13) 0.9744(9) 0.0865(8)
C13 C 0.2242(13) 0.9840(8) 0.1374(7)
C14 C 0.1906(13) 1.0188(7) 0.2004(7)
C15 C 0.0562(13) 1.1766(8) 0.2693(7)
C16 C -0.0236(14) 1.2260(8) 0.2998(7)
C17 C -0.0153(11) 1.3074(9) 0.2924(7)
C18 C 0.0708(14) 1.3386(9) 0.2554(7)
C19 C 0.1528(14) 1.2947(10) 0.2256(8)
C20 C 0.1439(15) 1.2114(9) 0.2338(7)
C21 C 0.2314(15) 0.7443(9) 0.5367(8)
C22 C 0.1074(14) 0.7256(9) 0.4300(8)
H1 H -0.0801 1.0556 0.1649
H2 H -0.0266 0.9953 0.0577
H3 H 0.1639 0.9483 0.0438
H4 H 0.3033 0.9671 0.1302
H5 H 0.2464 1.0234 0.2378
H6 H -0.0866 1.2041 0.3267
H7 H -0.0721 1.3409 0.3144
H8 H 0.0739 1.3947 0.2498
H9 H 0.2156 1.3180 0.1995
H10 H 0.2031 1.1788 0.2132
H11 H 0.1639 0.8610 0.3462
H12 H 0.2618 0.9235 0.3604
H13 H 0.3088 0.8015 0.4097
H14 H 0.3032 0.8678 0.4667
H15 H 0.0213 0.8146 0.5311
H16 H 0.1202 0.8775 0.5405
H17 H -0.0333 0.9331 0.4759
H18 H -0.0219 0.8664 0.4195
H19 H 0.2872 0.7082 0.5174
H20 H 0.1752 0.7158 0.5641
H21 H 0.2709 0.7818 0.5659
H22 H 0.0674 0.7513 0.3921
H23 H 0.0522 0.6966 0.4576
H24 H 0.1650 0.6903 0.4113
H25 H -0.020(11) 1.0727(68) 0.3020(63)
loop_
_geom_bond_atom_site_label_1
_geom_bond_atom_site_label_2
_geom_bond_site_symmetry_1
_geom_bond_site_symmetry_2
C1 C2 1_555 1_555
C2 C3 1_555 1_555
C3 C4 1_555 1_555
C4 C5 1_555 1_555
C5 C6 1_555 1_555
C6 C1 1_555 1_555
O1 C1 1_555 1_555
C7 O1 1_555 1_555
O2 C7 1_555 1_555
C8 C7 1_555 1_555
C9 C8 1_555 1_555
C10 C9 1_555 1_555
C11 C10 1_555 1_555
C12 C11 1_555 1_555
C13 C12 1_555 1_555
C14 C9 1_555 1_555
C15 C8 1_555 1_555
C16 C15 1_555 1_555
C17 C16 1_555 1_555
C18 C17 1_555 1_555
C19 C18 1_555 1_555
C20 C15 1_555 1_555
C21 C4 1_555 1_555
C22 C4 1_555 1_555
H1 C10 1_555 1_555
H2 C11 1_555 1_555
H3 C12 1_555 1_555
H4 C13 1_555 1_555
H5 C14 1_555 1_555
H6 C16 1_555 1_555
H7 C17 1_555 1_555
H8 C18 1_555 1_555
H9 C19 1_555 1_555
H10 C20 1_555 1_555
H11 C2 1_555 1_555
H12 C2 1_555 1_555
H13 C3 1_555 1_555
H14 C3 1_555 1_555
H15 C5 1_555 1_555
H16 C5 1_555 1_555
H17 C6 1_555 1_555
H18 C6 1_555 1_555
H19 C21 1_555 1_555
H20 C21 1_555 1_555
H21 C21 1_555 1_555
H22 C22 1_555 1_555
H23 C22 1_555 1_555
H24 C22 1_555 1_555
H25 C8 1_555 1_555
C13 C14 1_555 1_555
C19 C20 1_555 1_555

#END
