
#######################################################################
#
#                 Cambridge Crystallographic Data Centre
#                                CCDC 
#
#######################################################################
#
# If this CIF has been generated from an entry in the Cambridge 
# Structural Database, then it will include bibliographic, chemical, 
# crystal, experimental, refinement or atomic coordinate data resulting 
# from the CCDC's data processing and validation procedures.
#
#######################################################################

data_KUHVAM
_chemical_formula_moiety         'C7 H11 N2 1+,C7 H5 Cl1 O2,C7 H5 O3 1-'
_chemical_name_systematic        
'4-(dimethylamino)pyridinium salicylate 4-chlorobenzoic acid'
_symmetry_cell_setting           triclinic
_symmetry_space_group_name_H-M   'P -1'
_symmetry_Int_Tables_number      2
_space_group_name_Hall           '-P 1'
loop_
_symmetry_equiv_pos_site_id
_symmetry_equiv_pos_as_xyz
1 x,y,z
2 -x,-y,-z
_cell_length_a                   8.7622(5)
_cell_length_b                   9.4261(6)
_cell_length_c                   13.4729(8)
_cell_angle_alpha                77.212(2)
_cell_angle_beta                 79.131(2)
_cell_angle_gamma                65.151(2)
_cell_volume                     978.947
_exptl_crystal_colour            colorless
_exptl_crystal_description       block
_chemical_melting_point          '420-422 K'
_cell_formula_units_Z            2
loop_
_atom_site_label
_atom_site_type_symbol
_atom_site_fract_x
_atom_site_fract_y
_atom_site_fract_z
Cl1 Cl 0.29498(4) 0.43091(4) 0.49836(3)
O1 O -0.16818(13) 0.72423(12) 0.10574(8)
O2 O -0.16340(15) 0.94816(12) 0.13190(8)
C1 C -0.03516(16) 0.71153(15) 0.24629(10)
C2 C 0.11463(19) 0.70318(17) 0.38182(11)
H1 H 0.1490 0.7542 0.4194
C3 C 0.10907(17) 0.46256(16) 0.35086(10)
H2 H 0.1390 0.3538 0.3683
C4 C 0.16172(17) 0.54063(16) 0.40363(10)
C5 C 0.01536(18) 0.78808(16) 0.30286(11)
H3 H -0.0179 0.8974 0.2875
C6 C 0.01075(16) 0.54864(16) 0.27132(10)
H4 H -0.0246 0.4973 0.2346
C7 C -0.12953(17) 0.80720(16) 0.15628(10)
H5 H -0.208(3) 0.785(3) 0.044(2)
O3 O 0.00939(13) 0.21800(13) 0.14789(8)
O4 O -0.03208(13) 0.16436(13) 0.34101(9)
O5 O 0.27016(14) 0.13077(13) 0.06509(8)
C8 C 0.41644(18) -0.01024(16) 0.24731(11)
H6 H 0.4867 -0.0213 0.1860
C9 C 0.24155(17) 0.07226(15) 0.24531(10)
C10 C 0.13699(18) 0.08701(15) 0.33846(11)
C11 C 0.20812(19) 0.02154(17) 0.43086(11)
H7 H 0.1389 0.0320 0.4926
C12 C 0.16902(18) 0.14508(16) 0.14517(11)
C13 C 0.48665(19) -0.07566(17) 0.33917(11)
H8 H 0.6031 -0.1303 0.3396
C14 C 0.38109(19) -0.05875(16) 0.43071(11)
H9 H 0.4276 -0.1021 0.4926
H10 H -0.055(4) 0.198(3) 0.266(2)
N1 N 0.52580(14) 0.44225(13) 0.22473(9)
N2 N 0.20620(15) 0.68539(16) 0.00052(9)
C15 C 0.42212(16) 0.52126(16) 0.15147(10)
C16 C 0.37376(17) 0.68659(16) 0.11811(10)
H11 H 0.4147 0.7426 0.1471
C17 C 0.35536(17) 0.44384(17) 0.10287(10)
H12 H 0.3841 0.3354 0.1212
C18 C 0.56819(19) 0.27359(17) 0.26091(11)
H13 H 0.4665 0.2567 0.2874
H14 H 0.6414 0.2375 0.3140
H15 H 0.6246 0.2157 0.2051
C19 C 0.26755(18) 0.76352(17) 0.04376(11)
H16 H 0.2370 0.8718 0.0226
C20 C 0.58994(19) 0.52553(18) 0.27470(11)
H17 H 0.6483 0.5797 0.2240
H18 H 0.6666 0.4506 0.3221
H19 H 0.4971 0.6010 0.3108
C21 C 0.24957(17) 0.52813(19) 0.02960(11)
H20 H 0.2060 0.4763 -0.0013
H21 H 0.126(3) 0.735(3) -0.0468(18)
loop_
_geom_bond_atom_site_label_1
_geom_bond_atom_site_label_2
_geom_bond_site_symmetry_1
_geom_bond_site_symmetry_2
Cl1 C4 1_555 1_555
O1 C7 1_555 1_555
O2 C7 1_555 1_555
C1 C5 1_555 1_555
C2 H1 1_555 1_555
C3 H2 1_555 1_555
C4 C2 1_555 1_555
C5 C2 1_555 1_555
H3 C5 1_555 1_555
C6 C1 1_555 1_555
H4 C6 1_555 1_555
C7 C1 1_555 1_555
H5 O1 1_555 1_555
O3 C12 1_555 1_555
O4 C10 1_555 1_555
O5 C12 1_555 1_555
C8 H6 1_555 1_555
C9 C8 1_555 1_555
C10 C9 1_555 1_555
C11 C10 1_555 1_555
H7 C11 1_555 1_555
C12 C9 1_555 1_555
C13 C8 1_555 1_555
H8 C13 1_555 1_555
C14 C11 1_555 1_555
H9 C14 1_555 1_555
H10 O4 1_555 1_555
N1 C15 1_555 1_555
N2 C19 1_555 1_555
C15 C16 1_555 1_555
C16 H11 1_555 1_555
C17 C15 1_555 1_555
H12 C17 1_555 1_555
C18 N1 1_555 1_555
H13 C18 1_555 1_555
H14 C18 1_555 1_555
H15 C18 1_555 1_555
C19 C16 1_555 1_555
H16 C19 1_555 1_555
C20 N1 1_555 1_555
H17 C20 1_555 1_555
H18 C20 1_555 1_555
H19 C20 1_555 1_555
C21 N2 1_555 1_555
H20 C21 1_555 1_555
H21 N2 1_555 1_555
C3 C4 1_555 1_555
C3 C6 1_555 1_555
C13 C14 1_555 1_555
C17 C21 1_555 1_555

#END
