
#######################################################################
#
#                 Cambridge Crystallographic Data Centre
#                                CCDC 
#
#######################################################################
#
# If this CIF has been generated from an entry in the Cambridge 
# Structural Database, then it will include bibliographic, chemical, 
# crystal, experimental, refinement or atomic coordinate data resulting 
# from the CCDC's data processing and validation procedures.
#
#######################################################################

data_KUHXOC
_chemical_formula_moiety         'C26 H22 N2 O3,C2 H6 O1 S1'
_chemical_name_systematic        
'1-Acetyl-2-phenyl-1,2,5,5a-tetrahydro[1,2]diazepino[1,7-f]phenanthridine-3-carboxylic acid dimethylsulfoxide solvate'
_symmetry_cell_setting           triclinic
_symmetry_space_group_name_H-M   'P -1'
_symmetry_Int_Tables_number      2
_space_group_name_Hall           '-P 1'
loop_
_symmetry_equiv_pos_site_id
_symmetry_equiv_pos_as_xyz
1 x,y,z
2 -x,-y,-z
_cell_length_a                   9.4629(19)
_cell_length_b                   10.003(2)
_cell_length_c                   14.426(3)
_cell_angle_alpha                97.33(3)
_cell_angle_beta                 104.20(3)
_cell_angle_gamma                110.31(3)
_cell_volume                     1207.04
_exptl_crystal_colour            colorless
_exptl_crystal_description       plate
_cell_formula_units_Z            2
loop_
_atom_site_label
_atom_site_type_symbol
_atom_site_fract_x
_atom_site_fract_y
_atom_site_fract_z
O1 O 0.65965(17) 1.52421(15) 0.85716(11)
O2 O 0.13986(17) 1.37279(16) 0.64971(11)
O3 O 0.00346(16) 1.32734(17) 0.75593(11)
H1 H -0.0585 1.3492 0.7164
N1 N 0.47234(18) 1.14958(17) 0.84883(11)
N2 N 0.50951(18) 1.28213(16) 0.82159(11)
C1 C 0.2680(2) 0.9795(2) 0.89749(13)
C2 C 0.1277(2) 0.9501(2) 0.92060(15)
H2 H 0.1125 1.0254 0.9563
C3 C 0.0100(2) 0.8097(2) 0.89095(16)
H3 H -0.0824 0.7907 0.9081
C4 C 0.0301(2) 0.6981(2) 0.83611(15)
H4 H -0.0495 0.6043 0.8154
C5 C 0.1688(2) 0.7259(2) 0.81187(14)
H5 H 0.1810 0.6506 0.7741
C6 C 0.2904(2) 0.8655(2) 0.84350(13)
C7 C 0.4395(2) 0.8989(2) 0.81866(13)
C8 C 0.5233(2) 1.0436(2) 0.81416(13)
C9 C 0.4033(2) 1.1287(2) 0.92971(13)
H6 H 0.4845 1.1274 0.9863
C10 C 0.4975(2) 0.7926(2) 0.79568(14)
H7 H 0.4456 0.6974 0.8010
C11 C 0.6306(2) 0.8263(2) 0.76518(14)
H8 H 0.6701 0.7552 0.7523
C12 C 0.7051(2) 0.9670(2) 0.75398(15)
H9 H 0.7917 0.9885 0.7305
C13 C 0.6519(2) 1.0753(2) 0.77741(14)
H10 H 0.7015 1.1689 0.7688
C14 C 0.3591(2) 1.2566(2) 0.96005(13)
H11 H 0.3156 1.2399 1.0138
H12 H 0.4553 1.3451 0.9850
C15 C 0.2420(2) 1.28298(19) 0.88057(14)
H13 H 0.1537 1.2884 0.8956
C16 C 0.2490(2) 1.29954(19) 0.79130(13)
C17 C 0.3784(2) 1.29432(19) 0.74848(13)
H14 H 0.4215 1.3876 0.7300
C18 C 0.3213(2) 1.1725(2) 0.65652(13)
C19 C 0.4111(2) 1.1880(2) 0.59237(14)
H15 H 0.5031 1.2717 0.6063
C20 C 0.3648(3) 1.0801(2) 0.50796(16)
H16 H 0.4252 1.0920 0.4652
C21 C 0.2293(3) 0.9552(2) 0.48712(16)
H17 H 0.1976 0.8828 0.4302
C22 C 0.1412(3) 0.9381(2) 0.55108(17)
H18 H 0.0502 0.8535 0.5374
C23 C 0.1868(2) 1.0460(2) 0.63573(15)
H19 H 0.1266 1.0331 0.6786
C24 C 0.1259(2) 1.3359(2) 0.72511(14)
C25 C 0.6428(2) 1.4046(2) 0.87485(15)
C26 C 0.7651(3) 1.3833(3) 0.95341(17)
H20 H 0.8651 1.4178 0.9408
H21 H 0.7326 1.2811 0.9532
H22 H 0.7756 1.4375 1.0164
S1 S -0.15342(6) 1.48679(6) 0.56551(4)
O4 O -0.19557(16) 1.40338(16) 0.64225(10)
C27 C -0.2921(3) 1.3729(3) 0.45124(16)
H23 H -0.2709 1.2870 0.4357
H24 H -0.2828 1.4259 0.4005
H25 H -0.3976 1.3445 0.4558
C28 C -0.2316(3) 1.6242(3) 0.5744(2)
H26 H -0.3378 1.5814 0.5774
H27 H -0.2328 1.6654 0.5178
H28 H -0.1666 1.7000 0.6328
loop_
_geom_bond_atom_site_label_1
_geom_bond_atom_site_label_2
_geom_bond_site_symmetry_1
_geom_bond_site_symmetry_2
O1 C25 1_555 1_555
O2 C24 1_555 1_555
O3 H1 1_555 1_555
N1 N2 1_555 1_555
N2 C17 1_555 1_555
C1 C2 1_555 1_555
C2 H2 1_555 1_555
C3 C2 1_555 1_555
H3 C3 1_555 1_555
C4 C3 1_555 1_555
H4 C4 1_555 1_555
C5 C4 1_555 1_555
H5 C5 1_555 1_555
C6 C1 1_555 1_555
C7 C6 1_555 1_555
C8 N1 1_555 1_555
C9 N1 1_555 1_555
H6 C9 1_555 1_555
C10 C7 1_555 1_555
H7 C10 1_555 1_555
C11 C10 1_555 1_555
H8 C11 1_555 1_555
C12 C11 1_555 1_555
H9 C12 1_555 1_555
C13 C8 1_555 1_555
H10 C13 1_555 1_555
C14 C9 1_555 1_555
H11 C14 1_555 1_555
H12 C14 1_555 1_555
C15 C14 1_555 1_555
H13 C15 1_555 1_555
C16 C15 1_555 1_555
C17 C16 1_555 1_555
H14 C17 1_555 1_555
C18 C17 1_555 1_555
C19 C18 1_555 1_555
H15 C19 1_555 1_555
C20 C19 1_555 1_555
H16 C20 1_555 1_555
C21 C20 1_555 1_555
H17 C21 1_555 1_555
C22 C21 1_555 1_555
H18 C22 1_555 1_555
C23 C18 1_555 1_555
H19 C23 1_555 1_555
C24 O3 1_555 1_555
C25 N2 1_555 1_555
C26 C25 1_555 1_555
H20 C26 1_555 1_555
H21 C26 1_555 1_555
H22 C26 1_555 1_555
S1 O4 1_555 1_555
C27 S1 1_555 1_555
H23 C27 1_555 1_555
H24 C27 1_555 1_555
H25 C27 1_555 1_555
C28 S1 1_555 1_555
H26 C28 1_555 1_555
H27 C28 1_555 1_555
H28 C28 1_555 1_555
C1 C9 1_555 1_555
C5 C6 1_555 1_555
C7 C8 1_555 1_555
C12 C13 1_555 1_555
C16 C24 1_555 1_555
C22 C23 1_555 1_555

#END
