
#######################################################################
#
#                 Cambridge Crystallographic Data Centre
#                                CCDC 
#
#######################################################################
#
# If this CIF has been generated from an entry in the Cambridge 
# Structural Database, then it will include bibliographic, chemical, 
# crystal, experimental, refinement or atomic coordinate data resulting 
# from the CCDC's data processing and validation procedures.
#
#######################################################################

data_KUHXAO
_chemical_formula_moiety         'C28 H26 N2 O3'
_chemical_name_systematic        
'Ethyl 1-acetyl-2-phenyl-1,2,5,5a-tetrahydro[1,2]diazepino[1,7-f]phenanthridine-3-carboxylate'
_symmetry_cell_setting           monoclinic
_symmetry_space_group_name_H-M   'P 21/c'
_symmetry_Int_Tables_number      14
_space_group_name_Hall           '-P 2ybc'
loop_
_symmetry_equiv_pos_site_id
_symmetry_equiv_pos_as_xyz
1 x,y,z
2 -x,1/2+y,1/2-z
3 -x,-y,-z
4 x,1/2-y,1/2+z
_cell_length_a                   8.5503(19)
_cell_length_b                   17.424(4)
_cell_length_c                   15.187(3)
_cell_angle_alpha                90
_cell_angle_beta                 97.211(3)
_cell_angle_gamma                90
_cell_volume                     2244.67
_exptl_crystal_colour            colorless
_exptl_crystal_description       block
_cell_formula_units_Z            4
loop_
_atom_site_label
_atom_site_type_symbol
_atom_site_fract_x
_atom_site_fract_y
_atom_site_fract_z
O1 O 1.17407(14) 0.71337(8) 0.33129(8)
O2 O 0.9361(13) 0.6384(4) 0.5575(6)
O3 O 0.6745(9) 0.5930(6) 0.5287(6)
N1 N 0.78067(15) 0.67240(8) 0.25030(9)
N2 N 0.91176(15) 0.69659(8) 0.30824(8)
C1 C 0.65140(18) 0.72823(10) 0.23663(11)
H1 H 0.6969 0.7784 0.2255
C2 C 0.5559(2) 0.73689(11) 0.31715(11)
H2 H 0.5605 0.7901 0.3359
H3 H 0.4463 0.7249 0.2973
C3 C 0.6102(2) 0.68779(10) 0.39580(11)
H4 H 0.5344 0.6595 0.4205
C4 C 0.7593(2) 0.68153(9) 0.43322(11)
C5 C 0.89334(19) 0.72386(9) 0.39868(10)
H5 H 0.9899 0.7096 0.4370
C6 C 1.05807(19) 0.69497(10) 0.28033(11)
C7 C 1.0678(2) 0.67150(12) 0.18622(12)
H6 H 1.0186 0.7099 0.1467
H7 H 1.0146 0.6234 0.1745
H8 H 1.1764 0.6662 0.1772
C8 C 0.74085(18) 0.59377(9) 0.25172(10)
C9 C 0.8278(2) 0.54041(10) 0.30561(11)
H9 H 0.9133 0.5567 0.3452
C10 C 0.7884(2) 0.46337(10) 0.30089(12)
H10 H 0.8466 0.4281 0.3375
C11 C 0.6616(2) 0.43881(11) 0.24141(13)
H11 H 0.6351 0.3870 0.2379
C12 C 0.5751(2) 0.49150(11) 0.18753(12)
H12 H 0.4901 0.4745 0.1481
C13 C 0.61194(19) 0.56955(10) 0.19065(10)
C14 C 0.52557(19) 0.62736(10) 0.13246(10)
C15 C 0.4265(2) 0.60768(12) 0.05492(11)
H13 H 0.4163 0.5565 0.0378
C16 C 0.3436(2) 0.66373(13) 0.00359(12)
H14 H 0.2775 0.6498 -0.0473
C17 C 0.3587(2) 0.73992(13) 0.02758(12)
H15 H 0.3008 0.7772 -0.0060
C18 C 0.4605(2) 0.76064(12) 0.10200(12)
H16 H 0.4728 0.8122 0.1173
C19 C 0.54478(18) 0.70507(10) 0.15411(10)
C20 C 0.8034(3) 0.63223(12) 0.51166(14)
C21 C 0.6989(9) 0.5341(5) 0.6013(5)
H17 H 0.7842 0.5500 0.6457
H18 H 0.6039 0.5294 0.6298
C22 C 0.7368(5) 0.4603(2) 0.5640(3)
H19 H 0.6566 0.4469 0.5165
H20 H 0.7422 0.4217 0.6093
H21 H 0.8367 0.4638 0.5417
C23 C 0.87877(18) 0.81114(10) 0.40377(10)
C24 C 0.8135(2) 0.84442(10) 0.47406(11)
H22 H 0.7739 0.8131 0.5157
C25 C 0.8066(2) 0.92347(10) 0.48302(12)
H23 H 0.7633 0.9447 0.5307
C26 C 0.8639(2) 0.97090(11) 0.42158(12)
H24 H 0.8590 1.0240 0.4274
C27 C 0.9282(2) 0.93870(11) 0.35158(13)
H25 H 0.9666 0.9703 0.3098
C28 C 0.9364(2) 0.85956(11) 0.34269(12)
H26 H 0.9810 0.8387 0.2953
O4? O 0.6995(16) 0.5870(10) 0.5441(11)
C29? C 0.7462(15) 0.5457(9) 0.6208(9)
H27? H 0.7341 0.5762 0.6729
H28? H 0.8556 0.5302 0.6233
C30? C 0.6432(11) 0.4786(4) 0.6161(6)
H29? H 0.6559 0.4494 0.5638
H30? H 0.5355 0.4949 0.6137
H31? H 0.6704 0.4472 0.6677
O5? O 0.928(2) 0.6128(7) 0.5398(11)
loop_
_geom_bond_atom_site_label_1
_geom_bond_atom_site_label_2
_geom_bond_site_symmetry_1
_geom_bond_site_symmetry_2
O1 C6 1_555 1_555
O2 C20 1_555 1_555
O3 C20 1_555 1_555
N1 N2 1_555 1_555
N2 C5 1_555 1_555
C1 N1 1_555 1_555
H1 C1 1_555 1_555
C2 C1 1_555 1_555
H2 C2 1_555 1_555
H3 C2 1_555 1_555
C3 C2 1_555 1_555
H4 C3 1_555 1_555
C4 C3 1_555 1_555
C5 C4 1_555 1_555
H5 C5 1_555 1_555
C6 N2 1_555 1_555
C7 C6 1_555 1_555
H6 C7 1_555 1_555
H7 C7 1_555 1_555
H8 C7 1_555 1_555
C8 N1 1_555 1_555
C9 C8 1_555 1_555
H9 C9 1_555 1_555
C10 C9 1_555 1_555
H10 C10 1_555 1_555
C11 C10 1_555 1_555
H11 C11 1_555 1_555
C12 C11 1_555 1_555
H12 C12 1_555 1_555
C13 C8 1_555 1_555
C14 C13 1_555 1_555
C15 C14 1_555 1_555
H13 C15 1_555 1_555
C16 C15 1_555 1_555
H14 C16 1_555 1_555
C17 C16 1_555 1_555
H15 C17 1_555 1_555
C18 C17 1_555 1_555
H16 C18 1_555 1_555
C19 C1 1_555 1_555
C20 C4 1_555 1_555
C21 O3 1_555 1_555
H17 C21 1_555 1_555
H18 C21 1_555 1_555
C22 C21 1_555 1_555
H19 C22 1_555 1_555
H20 C22 1_555 1_555
H21 C22 1_555 1_555
C23 C5 1_555 1_555
C24 C23 1_555 1_555
H22 C24 1_555 1_555
C25 C24 1_555 1_555
H23 C25 1_555 1_555
C26 C25 1_555 1_555
H24 C26 1_555 1_555
C27 C26 1_555 1_555
H25 C27 1_555 1_555
C28 C23 1_555 1_555
H26 C28 1_555 1_555
C12 C13 1_555 1_555
C14 C19 1_555 1_555
C18 C19 1_555 1_555
C27 C28 1_555 1_555

#END
