
#######################################################################
#
#                 Cambridge Crystallographic Data Centre
#                                CCDC 
#
#######################################################################
#
# If this CIF has been generated from an entry in the Cambridge 
# Structural Database, then it will include bibliographic, chemical, 
# crystal, experimental, refinement or atomic coordinate data resulting 
# from the CCDC's data processing and validation procedures.
#
#######################################################################

data_KUJDIE
_chemical_formula_moiety         'C7 H11 N2 1+,C7 H6 O3,C7 H5 O3 1-'
_chemical_name_systematic        
'4-(Dimethylamino)pyridinium salicylate salicylic acid'
_symmetry_cell_setting           monoclinic
_symmetry_space_group_name_H-M   'P 21/n'
_symmetry_Int_Tables_number      14
_space_group_name_Hall           '-P 2yn'
loop_
_symmetry_equiv_pos_site_id
_symmetry_equiv_pos_as_xyz
1 x,y,z
2 1/2-x,1/2+y,1/2-z
3 -x,-y,-z
4 1/2+x,1/2-y,1/2+z
_cell_length_a                   8.0785(2)
_cell_length_b                   12.8122(4)
_cell_length_c                   18.8850(5)
_cell_angle_alpha                90
_cell_angle_beta                 98.6660(10)
_cell_angle_gamma                90
_cell_volume                     1932.35
_exptl_crystal_colour            colorless
_exptl_crystal_description       block
_chemical_melting_point          '379-382 K'
_cell_formula_units_Z            4
loop_
_atom_site_label
_atom_site_type_symbol
_atom_site_fract_x
_atom_site_fract_y
_atom_site_fract_z
O4 O 0.93400(11) 0.38999(7) 0.83488(5)
O5 O 1.05203(12) 0.35248(7) 0.94655(5)
O6 O 0.99381(14) 0.17444(9) 1.00234(5)
C8 C 0.96347(15) 0.32739(10) 0.89027(7)
C9 C 0.88252(14) 0.22343(10) 0.88067(7)
C10 C 0.78831(15) 0.19309(11) 0.81564(7)
H6 H 0.7763 0.2388 0.7769
C11 C 0.71293(16) 0.09626(11) 0.80823(8)
H7 H 0.6516 0.0764 0.7646
C12 C 0.72925(15) 0.02848(11) 0.86640(8)
H8 H 0.6768 -0.0363 0.8617
C13 C 0.90098(16) 0.15337(10) 0.93845(7)
C14 C 0.82185(16) 0.05604(11) 0.93075(7)
H9 H 0.8319 0.0100 0.9692
H10 H 1.034(3) 0.243(2) 0.9980(13)
H11 H 0.993(3) 0.4579(19) 0.8475(11)
N1 N 0.44167(14) 0.23795(9) 0.95084(6)
N2 N 0.69233(13) 0.51041(9) 0.91991(6)
C15 C 0.34092(18) 0.18426(12) 0.89148(8)
H12 H 0.2544 0.2301 0.8692
H13 H 0.2911 0.1233 0.9090
H14 H 0.4108 0.1639 0.8570
C16 C 0.52023(15) 0.32818(10) 0.94089(7)
C17 C 0.62915(15) 0.37644(11) 0.99732(7)
H15 H 0.6436 0.3473 1.0429
C18 C 0.71264(15) 0.46538(11) 0.98501(7)
H16 H 0.7851 0.4956 1.0223
C19 C 0.4653(2) 0.18727(13) 1.02076(9)
H17 H 0.5819 0.1718 1.0349
H18 H 0.4019 0.1237 1.0180
H19 H 0.4278 0.2330 1.0554
C20 C 0.50047(15) 0.37910(11) 0.87359(7)
H20 H 0.4281 0.3517 0.8351
C21 C 0.58751(15) 0.46810(11) 0.86529(7)
H21 H 0.5742 0.5005 0.8207
H22 H 0.755(2) 0.5663(15) 0.9093(9)
O1 O 0.87588(11) 0.67079(7) 0.87679(5)
O2 O 1.33643(12) 0.64073(8) 0.80608(6)
O3 O 1.08019(11) 0.56627(7) 0.85056(5)
C1 C 1.01251(16) 0.65674(10) 0.85589(7)
C2 C 1.10905(15) 0.74813(10) 0.83425(6)
C3 C 1.26505(16) 0.73580(10) 0.81094(7)
C4 C 1.35223(16) 0.82299(11) 0.79218(7)
H1 H 1.4556 0.8147 0.7769
C5 C 1.28534(16) 0.92156(11) 0.79633(7)
H2 H 1.3446 0.9794 0.7841
C6 C 1.04445(16) 0.84884(10) 0.83733(7)
H3 H 0.9410 0.8579 0.8524
C7 C 1.13040(17) 0.93528(10) 0.81855(7)
H4 H 1.0852 1.0018 0.8208
H5 H 1.255(3) 0.5937(17) 0.8219(11)
loop_
_geom_bond_atom_site_label_1
_geom_bond_atom_site_label_2
_geom_bond_site_symmetry_1
_geom_bond_site_symmetry_2
O1 C1 1_555 1_555
O2 C3 1_555 1_555
O3 C1 1_555 1_555
C1 C2 1_555 1_555
C2 C3 1_555 1_555
C3 C4 1_555 1_555
C4 H1 1_555 1_555
C5 C4 1_555 1_555
H2 C5 1_555 1_555
C6 C2 1_555 1_555
H3 C6 1_555 1_555
C7 C5 1_555 1_555
H4 C7 1_555 1_555
H5 O2 1_555 1_555
O4 C8 1_555 1_555
O5 C8 1_555 1_555
O6 C13 1_555 1_555
C8 C9 1_555 1_555
C9 C10 1_555 1_555
C10 H6 1_555 1_555
C11 C10 1_555 1_555
H7 C11 1_555 1_555
C12 C11 1_555 1_555
H8 C12 1_555 1_555
C13 C9 1_555 1_555
C14 C12 1_555 1_555
H9 C14 1_555 1_555
H10 O6 1_555 1_555
H11 O4 1_555 1_555
N1 C15 1_555 1_555
N2 C18 1_555 1_555
C15 H12 1_555 1_555
H13 C15 1_555 1_555
H14 C15 1_555 1_555
C16 N1 1_555 1_555
C17 C16 1_555 1_555
H15 C17 1_555 1_555
C18 C17 1_555 1_555
H16 C18 1_555 1_555
C19 N1 1_555 1_555
H17 C19 1_555 1_555
H18 C19 1_555 1_555
H19 C19 1_555 1_555
C20 C16 1_555 1_555
H20 C20 1_555 1_555
C21 N2 1_555 1_555
H21 C21 1_555 1_555
H22 N2 1_555 1_555
C6 C7 1_555 1_555
C13 C14 1_555 1_555
C20 C21 1_555 1_555

#END
