
#######################################################################
#
#                 Cambridge Crystallographic Data Centre
#                                CCDC 
#
#######################################################################
#
# If this CIF has been generated from an entry in the Cambridge 
# Structural Database, then it will include bibliographic, chemical, 
# crystal, experimental, refinement or atomic coordinate data resulting 
# from the CCDC's data processing and validation procedures.
#
#######################################################################

data_KUJJUW
_chemical_formula_moiety         'C43 H33 N1 O5 S1'
_chemical_name_systematic        
'(1-hydroxy-3-((4-methylphenyl)sulfonyl)-1,2-diphenyl-2,3-dihydro-1H-3-benzazepine-5,6-diyl)bis(phenylmethanone) unknown solvate'
_symmetry_cell_setting           monoclinic
_symmetry_space_group_name_H-M   'C 2/c'
_symmetry_Int_Tables_number      15
_space_group_name_Hall           '-C 2yn'
loop_
_symmetry_equiv_pos_site_id
_symmetry_equiv_pos_as_xyz
1 x,y,z
2 -x,y,1/2-z
3 1/2+x,1/2+y,z
4 1/2-x,1/2+y,1/2-z
5 -x,-y,-z
6 x,-y,1/2+z
7 1/2-x,1/2-y,-z
8 1/2+x,1/2-y,1/2+z
_cell_length_a                   38.883(12)
_cell_length_b                   12.117(3)
_cell_length_c                   16.951(4)
_cell_angle_alpha                90
_cell_angle_beta                 96.496(12)
_cell_angle_gamma                90
_cell_volume                     7935.11
_exptl_crystal_colour            colorless
_exptl_crystal_description       block
_cell_formula_units_Z            8
loop_
_atom_site_label
_atom_site_type_symbol
_atom_site_fract_x
_atom_site_fract_y
_atom_site_fract_z
C1 C 0.14438(7) -0.1891(2) 0.27001(18)
H1 H 0.1613 -0.1476 0.2999
C2 C 0.15362(9) -0.2775(3) 0.2255(2)
H2 H 0.1769 -0.2960 0.2268
C3 C 0.12929(9) -0.3390(2) 0.17921(19)
C4 C 0.13988(12) -0.4318(3) 0.1288(2)
H3 H 0.1523 -0.4028 0.0876
H4 H 0.1196 -0.4701 0.1053
H5 H 0.1544 -0.4821 0.1611
C5 C 0.09484(9) -0.3119(2) 0.1813(2)
H6 H 0.0779 -0.3540 0.1520
C6 C 0.08478(8) -0.2239(2) 0.22580(19)
H7 H 0.0615 -0.2066 0.2259
C7 C 0.10989(6) -0.1629(2) 0.26968(15)
C8 C 0.07464(7) -0.0170(2) 0.09393(15)
H8 H 0.0973 0.0089 0.0997
C9 C 0.06364(8) -0.0875(2) 0.03206(16)
H9 H 0.0788 -0.1080 -0.0040
C10 C 0.03033(8) -0.1273(2) 0.02368(17)
H10 H 0.0231 -0.1753 -0.0177
C11 C 0.00772(7) -0.0965(2) 0.07597(17)
H11 H -0.0149 -0.1231 0.0699
C12 C 0.01855(6) -0.0264(2) 0.13739(15)
H12 H 0.0031 -0.0065 0.1730
C13 C 0.05200(6) 0.01552(19) 0.14764(13)
C14 C 0.06290(6) 0.08946(19) 0.21779(13)
H13 H 0.0460 0.0760 0.2555
C15 C 0.06078(6) 0.21660(19) 0.19972(14)
C16 C 0.07415(6) 0.28802(19) 0.27090(14)
C17 C 0.06404(8) 0.2668(2) 0.34516(16)
H14 H 0.0507 0.2047 0.3525
C18 C 0.07340(9) 0.3362(3) 0.40826(18)
H15 H 0.0664 0.3206 0.4577
C19 C 0.09310(9) 0.4286(2) 0.39859(18)
H16 H 0.0992 0.4760 0.4410
C20 C 0.10366(10) 0.4499(3) 0.3258(2)
H17 H 0.1174 0.5112 0.3190
C21 C 0.09395(8) 0.3804(2) 0.26250(17)
H18 H 0.1010 0.3966 0.2131
C22 C 0.07771(6) 0.24152(18) 0.12439(13)
C23 C 0.05753(7) 0.2839(2) 0.05888(15)
H19 H 0.0344 0.3000 0.0627
C24 C 0.07088(7) 0.3029(2) -0.01175(16)
H20 H 0.0570 0.3326 -0.0549
C25 C 0.10513(7) 0.2773(2) -0.01756(14)
H21 H 0.1142 0.2884 -0.0654
C26 C 0.12621(6) 0.23523(18) 0.04674(13)
C27 C 0.11277(6) 0.21790(18) 0.12023(13)
C28 C 0.16110(6) 0.1934(2) 0.03108(13)
C29 C 0.18314(6) 0.2628(2) -0.01576(14)
C30 C 0.20788(7) 0.2116(3) -0.05662(16)
H22 H 0.2102 0.1352 -0.0551
C31 C 0.22902(8) 0.2741(3) -0.09928(19)
H23 H 0.2451 0.2395 -0.1275
C32 C 0.22640(10) 0.3847(4) -0.1002(2)
H24 H 0.2409 0.4260 -0.1289
C33 C 0.20227(10) 0.4383(3) -0.0588(2)
H25 H 0.2007 0.5149 -0.0595
C34 C 0.18068(8) 0.3763(2) -0.01673(19)
H26 H 0.1645 0.4112 0.0110
C35 C 0.13596(6) 0.17438(18) 0.18841(13)
C36 C 0.12801(6) 0.10480(18) 0.24607(13)
H27 H 0.1467 0.0841 0.2821
C37 C 0.17232(6) 0.21694(19) 0.20140(13)
C38 C 0.20044(7) 0.1446(2) 0.24214(16)
C39 C 0.20233(7) 0.0335(2) 0.22450(17)
H28 H 0.1855 0.0018 0.1882
C40 C 0.22902(7) -0.0313(3) 0.26019(18)
H29 H 0.2302 -0.1059 0.2477
C41 C 0.25366(8) 0.0155(3) 0.31404(19)
H30 H 0.2714 -0.0283 0.3386
C42 C 0.25272(8) 0.1231(3) 0.33200(19)
H31 H 0.2698 0.1533 0.3685
C43 C 0.22592(7) 0.1907(3) 0.29581(17)
H32 H 0.2254 0.2656 0.3079
N1 N 0.09682(5) 0.05948(15) 0.26042(11)
O1 O 0.12599(5) -0.02590(15) 0.38416(10)
O2 O 0.06387(5) -0.06077(16) 0.34291(11)
O3 O 0.02406(4) 0.23543(15) 0.18330(10)
H33 H 0.0152 0.2864 0.2089
O4 O 0.17064(5) 0.10230(15) 0.05356(10)
O5 O 0.17942(5) 0.30895(15) 0.17956(11)
S1 S 0.098267(16) -0.04752(5) 0.32387(3)
loop_
_geom_bond_atom_site_label_1
_geom_bond_atom_site_label_2
_geom_bond_site_symmetry_1
_geom_bond_site_symmetry_2
C1 H1 1_555 1_555
C2 C1 1_555 1_555
H2 C2 1_555 1_555
C3 C2 1_555 1_555
C4 C3 1_555 1_555
H3 C4 1_555 1_555
H4 C4 1_555 1_555
H5 C4 1_555 1_555
C5 C3 1_555 1_555
H6 C5 1_555 1_555
C6 C5 1_555 1_555
H7 C6 1_555 1_555
C7 C1 1_555 1_555
C8 H8 1_555 1_555
C9 C8 1_555 1_555
H9 C9 1_555 1_555
C10 C9 1_555 1_555
H10 C10 1_555 1_555
C11 C10 1_555 1_555
H11 C11 1_555 1_555
C12 C11 1_555 1_555
H12 C12 1_555 1_555
C13 C8 1_555 1_555
C14 C13 1_555 1_555
H13 C14 1_555 1_555
C15 C14 1_555 1_555
C16 C15 1_555 1_555
C17 C16 1_555 1_555
H14 C17 1_555 1_555
C18 C17 1_555 1_555
H15 C18 1_555 1_555
C19 C18 1_555 1_555
H16 C19 1_555 1_555
C20 C19 1_555 1_555
H17 C20 1_555 1_555
C21 C16 1_555 1_555
H18 C21 1_555 1_555
C22 C15 1_555 1_555
C23 C22 1_555 1_555
H19 C23 1_555 1_555
C24 C23 1_555 1_555
H20 C24 1_555 1_555
C25 C24 1_555 1_555
H21 C25 1_555 1_555
C26 C25 1_555 1_555
C27 C22 1_555 1_555
C28 C26 1_555 1_555
C29 C28 1_555 1_555
C30 C29 1_555 1_555
H22 C30 1_555 1_555
C31 C30 1_555 1_555
H23 C31 1_555 1_555
C32 C31 1_555 1_555
H24 C32 1_555 1_555
C33 C32 1_555 1_555
H25 C33 1_555 1_555
C34 C29 1_555 1_555
H26 C34 1_555 1_555
C35 C27 1_555 1_555
C36 C35 1_555 1_555
H27 C36 1_555 1_555
C37 C35 1_555 1_555
C38 C37 1_555 1_555
C39 C38 1_555 1_555
H28 C39 1_555 1_555
C40 C39 1_555 1_555
H29 C40 1_555 1_555
C41 C40 1_555 1_555
H30 C41 1_555 1_555
C42 C41 1_555 1_555
H31 C42 1_555 1_555
C43 C38 1_555 1_555
H32 C43 1_555 1_555
N1 C14 1_555 1_555
O1 S1 1_555 1_555
O2 S1 1_555 1_555
O3 C15 1_555 1_555
H33 O3 1_555 1_555
O4 C28 1_555 1_555
O5 C37 1_555 1_555
S1 C7 1_555 1_555
C6 C7 1_555 1_555
C12 C13 1_555 1_555
C20 C21 1_555 1_555
C26 C27 1_555 1_555
C33 C34 1_555 1_555
C36 N1 1_555 1_555
C42 C43 1_555 1_555
N1 S1 1_555 1_555

#END
