
#######################################################################
#
#                 Cambridge Crystallographic Data Centre
#                                CCDC 
#
#######################################################################
#
# If this CIF has been generated from an entry in the Cambridge 
# Structural Database, then it will include bibliographic, chemical, 
# crystal, experimental, refinement or atomic coordinate data resulting 
# from the CCDC's data processing and validation procedures.
#
#######################################################################

data_KUJNEK
_chemical_formula_moiety         'C8 H7 O2 1-,C3 H10 N1 1+'
_chemical_name_systematic        'propan-2-aminium 3-methylbenzoate'
_symmetry_cell_setting           orthorhombic
_symmetry_space_group_name_H-M   'P 21 21 21'
_symmetry_Int_Tables_number      19
_space_group_name_Hall           'P 2ac 2ab'
loop_
_symmetry_equiv_pos_site_id
_symmetry_equiv_pos_as_xyz
1 x,y,z
2 1/2-x,-y,1/2+z
3 -x,1/2+y,1/2-z
4 1/2+x,1/2-y,-z
_cell_length_a                   6.4107(5)
_cell_length_b                   7.3515(6)
_cell_length_c                   24.619(2)
_cell_angle_alpha                90
_cell_angle_beta                 90
_cell_angle_gamma                90
_cell_volume                     1160.25
_exptl_crystal_colour            colorless
_exptl_crystal_description       block
_cell_formula_units_Z            4
loop_
_atom_site_label
_atom_site_type_symbol
_atom_site_fract_x
_atom_site_fract_y
_atom_site_fract_z
N1 N 0.4854(4) 0.3093(4) 0.45249(10)
H1 H 0.4637 0.3314 0.4876
H2 H 0.5967 0.2381 0.4487
H3 H 0.3742 0.2538 0.4386
C1 C 0.3244(9) 0.5937(8) 0.4268(2)
H4 H 0.2086 0.5200 0.4155
H5 H 0.3350 0.6981 0.4035
H6 H 0.3033 0.6328 0.4636
C2 C 0.5214(7) 0.4847(6) 0.42328(15)
H7 H 0.5510 0.4587 0.3850
C3 C 0.7090(8) 0.5771(7) 0.4482(2)
H8 H 0.7397 0.6864 0.4285
H9 H 0.8268 0.4967 0.4466
H10 H 0.6795 0.6068 0.4854
O1 O 0.3580(4) 0.3849(4) 0.55673(8)
O2 O 0.6651(4) 0.3734(5) 0.59545(10)
C4 C 0.4760(6) 0.3964(4) 0.59746(12)
C5 C 0.3783(5) 0.4425(4) 0.65099(12)
C6 C 0.4974(6) 0.4306(4) 0.69766(13)
H11 H 0.6362 0.3950 0.6949
C7 C 0.4164(7) 0.4700(5) 0.74847(14)
C8 C 0.2133(8) 0.5232(6) 0.75095(17)
H12 H 0.1555 0.5504 0.7846
C9 C 0.0912(6) 0.5381(6) 0.70549(18)
H13 H -0.0467 0.5762 0.7086
C10 C 0.1730(6) 0.4963(5) 0.65483(14)
H14 H 0.0904 0.5044 0.6239
C11 C 0.5497(9) 0.4537(6) 0.79881(14)
H15 H 0.4815 0.5131 0.8286
H16 H 0.6826 0.5100 0.7924
H17 H 0.5699 0.3275 0.8074
loop_
_geom_bond_atom_site_label_1
_geom_bond_atom_site_label_2
_geom_bond_site_symmetry_1
_geom_bond_site_symmetry_2
N1 H1 1_555 1_555
H2 N1 1_555 1_555
H3 N1 1_555 1_555
C1 H4 1_555 1_555
H5 C1 1_555 1_555
H6 C1 1_555 1_555
C2 N1 1_555 1_555
H7 C2 1_555 1_555
C3 C2 1_555 1_555
H8 C3 1_555 1_555
H9 C3 1_555 1_555
H10 C3 1_555 1_555
O1 C4 1_555 1_555
O2 C4 1_555 1_555
C4 C5 1_555 1_555
C5 C6 1_555 1_555
C6 H11 1_555 1_555
C7 C6 1_555 1_555
C8 C7 1_555 1_555
H12 C8 1_555 1_555
C9 C8 1_555 1_555
H13 C9 1_555 1_555
C10 C5 1_555 1_555
H14 C10 1_555 1_555
C11 C7 1_555 1_555
H15 C11 1_555 1_555
H16 C11 1_555 1_555
H17 C11 1_555 1_555
C1 C2 1_555 1_555
C9 C10 1_555 1_555

#END
