
#######################################################################
#
#                 Cambridge Crystallographic Data Centre
#                                CCDC 
#
#######################################################################
#
# If this CIF has been generated from an entry in the Cambridge 
# Structural Database, then it will include bibliographic, chemical, 
# crystal, experimental, refinement or atomic coordinate data resulting 
# from the CCDC's data processing and validation procedures.
#
#######################################################################

data_KUJNUA
_chemical_formula_moiety         'C8 H5 O4 1-,C3 H10 N1 1+'
_chemical_name_systematic        
'propan-2-aminium 1,3-benzodioxole-5-carboxylate'
_symmetry_cell_setting           triclinic
_symmetry_space_group_name_H-M   'P -1'
_symmetry_Int_Tables_number      2
_space_group_name_Hall           '-P 1'
loop_
_symmetry_equiv_pos_site_id
_symmetry_equiv_pos_as_xyz
1 x,y,z
2 -x,-y,-z
_cell_length_a                   7.268(3)
_cell_length_b                   12.874(6)
_cell_length_c                   26.169(12)
_cell_angle_alpha                104.162(6)
_cell_angle_beta                 94.063(9)
_cell_angle_gamma                90.642(6)
_cell_volume                     2367.17
_exptl_crystal_colour            colorless
_exptl_crystal_description       block
_cell_formula_units_Z            8
loop_
_atom_site_label
_atom_site_type_symbol
_atom_site_fract_x
_atom_site_fract_y
_atom_site_fract_z
N1 N 0.5806(8) 0.4330(4) 0.2966(2)
H1 H 0.5913 0.4077 0.2622
H2 H 0.5165 0.4927 0.3019
H3 H 0.5223 0.3843 0.3091
C1 C 0.8673(14) 0.5340(9) 0.2992(4)
H4 H 0.8760 0.5010 0.2624
H5 H 0.9890 0.5508 0.3163
H6 H 0.7995 0.5986 0.3028
C2 C 0.7680(12) 0.4571(7) 0.3247(3)
H7 H 0.7536 0.4937 0.3616
C3 C 0.8638(15) 0.3585(9) 0.3237(4)
H8 H 0.7900 0.3123 0.3383
H9 H 0.9800 0.3745 0.3442
H10 H 0.8847 0.3233 0.2878
N2 N 0.4350(8) 0.6325(5) 0.2043(2)
H11 H 0.4221 0.6332 0.2380
H12 H 0.4906 0.6933 0.2026
H13 H 0.5029 0.5774 0.1900
C4 C 0.1366(15) 0.7153(10) 0.1999(4)
H14 H 0.0220 0.7143 0.1791
H15 H 0.2044 0.7808 0.2018
H16 H 0.1120 0.7108 0.2349
C5 C 0.2482(12) 0.6216(8) 0.1747(3)
H17 H 0.2646 0.6248 0.1382
C6 C 0.1645(15) 0.5174(9) 0.1735(4)
H18 H 0.1697 0.5071 0.2086
H19 H 0.2305 0.4619 0.1513
H20 H 0.0381 0.5146 0.1597
N3 N 0.4249(8) 0.1556(5) 0.2083(2)
H21 H 0.4207 0.1635 0.2430
H22 H 0.4930 0.2087 0.2025
H23 H 0.4747 0.0932 0.1943
C7 C 0.2567(19) 0.1491(12) 0.1259(5)
H24 H 0.3363 0.2068 0.1226
H25 H 0.1386 0.1532 0.1077
H26 H 0.3105 0.0819 0.1107
C8 C 0.2329(13) 0.1576(9) 0.1834(3)
H27 H 0.1725 0.2240 0.1995
C9 C 0.1228(19) 0.0607(12) 0.1881(5)
H28 H 0.1815 -0.0033 0.1706
H29 H 0.0003 0.0620 0.1719
H30 H 0.1164 0.0618 0.2247
N4 N 0.5749(8) 0.9500(5) 0.2940(2)
H31 H 0.5260 0.9036 0.3098
H32 H 0.5788 0.9196 0.2597
H33 H 0.5061 1.0078 0.2982
C10 C 0.8780(18) 0.8839(11) 0.3112(5)
H34 H 1.0065 0.9045 0.3180
H35 H 0.8561 0.8409 0.2756
H36 H 0.8439 0.8433 0.3355
C11 C 0.7653(14) 0.9819(8) 0.3180(4)
H37 H 0.8204 1.0330 0.3008
C12 C 0.7529(19) 1.0312(12) 0.3740(5)
H38 H 0.6862 1.0963 0.3780
H39 H 0.8748 1.0471 0.3911
H40 H 0.6895 0.9828 0.3899
O1 O 0.6231(7) 0.3291(4) 0.19285(18)
O2 O 0.6466(8) 0.4671(4) 0.15735(19)
O3 O 0.8481(8) 0.2957(4) -0.02773(19)
O4 O 0.8854(7) 0.1155(4) -0.0337(2)
C13 C 0.6602(10) 0.3710(6) 0.1556(3)
C14 C 0.7243(9) 0.2975(5) 0.1064(2)
C15 C 0.7554(9) 0.3412(5) 0.0638(2)
H41 H 0.7405 0.4137 0.0658
C16 C 0.8085(9) 0.2730(6) 0.0193(3)
C17 C 0.8321(9) 0.1667(6) 0.0159(3)
C18 C 0.8077(10) 0.1209(6) 0.0565(3)
H42 H 0.8270 0.0486 0.0539
C19 C 0.7511(10) 0.1902(6) 0.1027(3)
H43 H 0.7311 0.1628 0.1316
C20 C 0.8748(11) 0.1940(7) -0.0634(3)
H44 H 0.7726 0.1767 -0.0902
H45 H 0.9878 0.1964 -0.0807
O5 O 0.3928(8) 0.6197(4) 0.30637(18)
O6 O 0.4100(10) 0.7955(5) 0.3299(2)
O7 O 0.2525(8) 0.5377(4) 0.48347(19)
O8 O 0.2650(8) 0.6967(4) 0.54677(17)
C21 C 0.3940(10) 0.7068(6) 0.3401(3)
C22 C 0.3651(9) 0.7066(5) 0.3962(2)
C23 C 0.3259(10) 0.6123(6) 0.4099(2)
H46 H 0.3192 0.5468 0.3849
C24 C 0.2976(10) 0.6190(6) 0.4613(3)
C25 C 0.3044(10) 0.7144(6) 0.4987(2)
C26 C 0.3447(10) 0.8081(6) 0.4873(3)
H47 H 0.3520 0.8726 0.5130
C27 C 0.3748(9) 0.8028(6) 0.4349(3)
H48 H 0.4025 0.8659 0.4253
C28 C 0.2415(13) 0.5858(7) 0.5390(3)
H49 H 0.1224 0.5688 0.5500
H50 H 0.3370 0.5587 0.5597
O9 O 0.3760(7) 0.3178(4) 0.34771(18)
O10 O 0.3935(8) 0.1452(4) 0.31060(18)
O11 O 0.1634(8) 0.3250(4) 0.53108(18)
O12 O 0.1172(7) 0.1502(4) 0.53546(19)
C29 C 0.3592(9) 0.2229(6) 0.3488(3)
C30 C 0.2885(9) 0.1967(5) 0.3974(2)
C31 C 0.2593(9) 0.2805(5) 0.4400(3)
H51 H 0.2790 0.3512 0.4386
C32 C 0.2014(9) 0.2567(6) 0.4835(3)
C33 C 0.1734(9) 0.1533(6) 0.4862(3)
C34 C 0.1977(10) 0.0664(6) 0.4447(3)
H52 H 0.1755 -0.0039 0.4463
C35 C 0.2588(10) 0.0933(6) 0.4000(3)
H53 H 0.2801 0.0383 0.3708
C36 C 0.1301(11) 0.2584(7) 0.5660(3)
H54 H 0.2302 0.2673 0.5934
H55 H 0.0161 0.2776 0.5827
O13 O 0.4038(9) 0.1788(4) 0.8071(2)
O14 O 0.4036(10) 0.0295(5) 0.8321(2)
O15 O 0.2579(9) 0.4474(4) 0.98127(19)
O16 O 0.2764(8) 0.3560(4) 1.04660(17)
C37 C 0.3966(11) 0.1282(6) 0.8415(3)
C38 C 0.3709(9) 0.1875(5) 0.8971(2)
C39 C 0.3309(10) 0.2947(6) 0.9090(2)
H56 H 0.3239 0.3327 0.8830
C40 C 0.3022(10) 0.3431(6) 0.9599(3)
C41 C 0.3162(10) 0.2895(6) 0.9989(3)
C42 C 0.3550(10) 0.1847(6) 0.9892(3)
H57 H 0.3624 0.1483 1.0158
C43 C 0.3832(10) 0.1344(6) 0.9373(3)
H58 H 0.4115 0.0623 0.9291
C44 C 0.2513(13) 0.4572(7) 1.0365(3)
H59 H 0.3475 0.5071 1.0560
H60 H 0.1330 0.4844 1.0479
loop_
_geom_bond_atom_site_label_1
_geom_bond_atom_site_label_2
_geom_bond_site_symmetry_1
_geom_bond_site_symmetry_2
N1 H1 1_555 1_555
H2 N1 1_555 1_555
H3 N1 1_555 1_555
C1 H4 1_555 1_555
H5 C1 1_555 1_555
H6 C1 1_555 1_555
C2 N1 1_555 1_555
H7 C2 1_555 1_555
C3 C2 1_555 1_555
H8 C3 1_555 1_555
H9 C3 1_555 1_555
H10 C3 1_555 1_555
N2 H11 1_555 1_555
H12 N2 1_555 1_555
H13 N2 1_555 1_555
C4 H14 1_555 1_555
H15 C4 1_555 1_555
H16 C4 1_555 1_555
C5 N2 1_555 1_555
H17 C5 1_555 1_555
C6 C5 1_555 1_555
H18 C6 1_555 1_555
H19 C6 1_555 1_555
H20 C6 1_555 1_555
N3 H21 1_555 1_555
H22 N3 1_555 1_555
H23 N3 1_555 1_555
C7 H24 1_555 1_555
H25 C7 1_555 1_555
H26 C7 1_555 1_555
C8 N3 1_555 1_555
H27 C8 1_555 1_555
C9 C8 1_555 1_555
H28 C9 1_555 1_555
H29 C9 1_555 1_555
H30 C9 1_555 1_555
N4 H31 1_555 1_555
H32 N4 1_555 1_555
H33 N4 1_555 1_555
C10 H34 1_555 1_555
H35 C10 1_555 1_555
H36 C10 1_555 1_555
C11 N4 1_555 1_555
H37 C11 1_555 1_555
C12 C11 1_555 1_555
H38 C12 1_555 1_555
H39 C12 1_555 1_555
H40 C12 1_555 1_555
O1 C13 1_555 1_555
O2 C13 1_555 1_555
O3 C16 1_555 1_555
O4 C17 1_555 1_555
C13 C14 1_555 1_555
C14 C15 1_555 1_555
C15 H41 1_555 1_555
C16 C15 1_555 1_555
C17 C16 1_555 1_555
C18 C17 1_555 1_555
H42 C18 1_555 1_555
C19 C14 1_555 1_555
H43 C19 1_555 1_555
C20 O3 1_555 1_555
H44 C20 1_555 1_555
H45 C20 1_555 1_555
O5 C21 1_555 1_555
O6 C21 1_555 1_555
O7 C24 1_555 1_555
O8 C25 1_555 1_555
C21 C22 1_555 1_555
C22 C23 1_555 1_555
C23 H46 1_555 1_555
C24 C23 1_555 1_555
C25 C24 1_555 1_555
C26 C25 1_555 1_555
H47 C26 1_555 1_555
C27 C22 1_555 1_555
H48 C27 1_555 1_555
C28 O7 1_555 1_555
H49 C28 1_555 1_555
H50 C28 1_555 1_555
O9 C29 1_555 1_555
O10 C29 1_555 1_555
O11 C32 1_555 1_555
O12 C33 1_555 1_555
C29 C30 1_555 1_555
C30 C31 1_555 1_555
C31 H51 1_555 1_555
C32 C31 1_555 1_555
C33 C32 1_555 1_555
C34 C33 1_555 1_555
H52 C34 1_555 1_555
C35 C30 1_555 1_555
H53 C35 1_555 1_555
C36 O11 1_555 1_555
H54 C36 1_555 1_555
H55 C36 1_555 1_555
O13 C37 1_555 1_555
O14 C37 1_555 1_555
O15 C40 1_555 1_555
O16 C41 1_555 1_555
C37 C38 1_555 1_555
C38 C39 1_555 1_555
C39 H56 1_555 1_555
C40 C39 1_555 1_555
C41 C40 1_555 1_555
C42 C41 1_555 1_555
H57 C42 1_555 1_555
C43 C38 1_555 1_555
H58 C43 1_555 1_555
C44 O15 1_555 1_555
H59 C44 1_555 1_555
H60 C44 1_555 1_555
C1 C2 1_555 1_555
C4 C5 1_555 1_555
C7 C8 1_555 1_555
C10 C11 1_555 1_555
O4 C20 1_555 1_555
C18 C19 1_555 1_555
O8 C28 1_555 1_555
C26 C27 1_555 1_555
O12 C36 1_555 1_555
C34 C35 1_555 1_555
O16 C44 1_555 1_555
C42 C43 1_555 1_555

#END
