
#######################################################################
#
#                 Cambridge Crystallographic Data Centre
#                                CCDC 
#
#######################################################################
#
# If this CIF has been generated from an entry in the Cambridge 
# Structural Database, then it will include bibliographic, chemical, 
# crystal, experimental, refinement or atomic coordinate data resulting 
# from the CCDC's data processing and validation procedures.
#
#######################################################################

data_KUJPEM
_chemical_formula_moiety         'C8 H6 Cl1 O3 1-,C3 H10 N1 1+'
_chemical_name_systematic        'propan-2-aminium (4-chlorophenoxy)acetate'
_symmetry_cell_setting           triclinic
_symmetry_space_group_name_H-M   'P -1'
_symmetry_Int_Tables_number      2
_space_group_name_Hall           '-P 1'
loop_
_symmetry_equiv_pos_site_id
_symmetry_equiv_pos_as_xyz
1 x,y,z
2 -x,-y,-z
_cell_length_a                   6.9240(9)
_cell_length_b                   6.9989(17)
_cell_length_c                   13.433(2)
_cell_angle_alpha                84.6720(10)
_cell_angle_beta                 88.001(2)
_cell_angle_gamma                89.1790(10)
_cell_volume                     647.721
_exptl_crystal_colour            colorless
_exptl_crystal_description       block
_cell_formula_units_Z            2
loop_
_atom_site_label
_atom_site_type_symbol
_atom_site_fract_x
_atom_site_fract_y
_atom_site_fract_z
Cl1 Cl 0.12390(12) 0.69014(11) 0.35886(5)
O1 O 0.9510(2) 0.8480(3) 0.84731(11)
O2 O 0.6517(2) 0.9163(3) 0.89775(11)
O3 O 0.5056(2) 0.8414(2) 0.72668(10)
C1 C 0.7739(3) 0.8651(3) 0.83558(16)
C2 C 0.7087(3) 0.8181(3) 0.73461(15)
H1 H 0.7736 0.9015 0.6826
H2 H 0.7449 0.6867 0.7247
C3 C 0.4276(3) 0.8023(3) 0.63807(15)
C4 C 0.2302(4) 0.8076(5) 0.63610(18)
H3 H 0.1577 0.8349 0.6927
C5 C 0.1388(4) 0.7725(5) 0.5501(2)
H4 H 0.0046 0.7751 0.5493
C6 C 0.2427(4) 0.7343(3) 0.46677(17)
C7 C 0.4385(4) 0.7305(4) 0.46698(18)
H5 H 0.5099 0.7058 0.4096
C8 C 0.5317(4) 0.7636(4) 0.55342(17)
H6 H 0.6660 0.7595 0.5540
N1 N 0.7323(3) 0.9517(3) 0.09632(12)
H7 H 0.8325 1.0236 0.1080
H8 H 0.6236 1.0064 0.1177
H9 H 0.7272 0.9411 0.0309
C9 C 0.9396(5) 0.6672(4) 0.1134(2)
H10 H 0.9322 0.6532 0.0432
H11 H 0.9575 0.5433 0.1492
H12 H 1.0466 0.7475 0.1243
C10 C 0.7549(4) 0.7575(4) 0.1504(2)
H13 H 0.7656 0.7724 0.2218
C11 C 0.5766(5) 0.6404(5) 0.1371(3)
H14 H 0.4656 0.7010 0.1660
H15 H 0.5930 0.5137 0.1698
H16 H 0.5585 0.6325 0.0671
loop_
_geom_bond_atom_site_label_1
_geom_bond_atom_site_label_2
_geom_bond_site_symmetry_1
_geom_bond_site_symmetry_2
Cl1 C6 1_555 1_555
O1 C1 1_555 1_555
O2 C1 1_555 1_555
O3 C2 1_555 1_555
C1 C2 1_555 1_555
C2 H1 1_555 1_555
H2 C2 1_555 1_555
C3 O3 1_555 1_555
C4 C3 1_555 1_555
H3 C4 1_555 1_555
C5 C4 1_555 1_555
H4 C5 1_555 1_555
C6 C5 1_555 1_555
C7 C6 1_555 1_555
H5 C7 1_555 1_555
C8 C3 1_555 1_555
H6 C8 1_555 1_555
N1 H7 1_555 1_555
H8 N1 1_555 1_555
H9 N1 1_555 1_555
C9 H10 1_555 1_555
H11 C9 1_555 1_555
H12 C9 1_555 1_555
C10 N1 1_555 1_555
H13 C10 1_555 1_555
C11 C10 1_555 1_555
H14 C11 1_555 1_555
H15 C11 1_555 1_555
H16 C11 1_555 1_555
C7 C8 1_555 1_555
C9 C10 1_555 1_555

#END
