
#######################################################################
#
#                 Cambridge Crystallographic Data Centre
#                                CCDC 
#
#######################################################################
#
# If this CIF has been generated from an entry in the Cambridge 
# Structural Database, then it will include bibliographic, chemical, 
# crystal, experimental, refinement or atomic coordinate data resulting 
# from the CCDC's data processing and validation procedures.
#
#######################################################################

data_KUJPIP
_chemical_formula_moiety         'C16 H36 N1 1+,C13 H11 O4 S2 1-'
_chemical_name_systematic        
'Tetra-n-butylammonium bis(phenylsulfonyl)methanide'
_symmetry_cell_setting           orthorhombic
_symmetry_space_group_name_H-M   'P 21 21 21'
_symmetry_Int_Tables_number      19
_space_group_name_Hall           'P 2ac 2ab'
loop_
_symmetry_equiv_pos_site_id
_symmetry_equiv_pos_as_xyz
1 x,y,z
2 1/2-x,-y,1/2+z
3 -x,1/2+y,1/2-z
4 1/2+x,1/2-y,-z
_cell_length_a                   11.811(2)
_cell_length_b                   12.038(2)
_cell_length_c                   42.498(9)
_cell_angle_alpha                90
_cell_angle_beta                 90
_cell_angle_gamma                90
_cell_volume                     6042.4
_exptl_crystal_colour            colorless
_exptl_crystal_description       cubic
_cell_formula_units_Z            8
loop_
_atom_site_label
_atom_site_type_symbol
_atom_site_fract_x
_atom_site_fract_y
_atom_site_fract_z
C1 C 0.7447(3) 0.1158(3) 0.18308(9)
H1 H 0.6979 0.0730 0.1981
H2 H 0.7017 0.1209 0.1631
C2 C 0.8514(4) 0.0508(4) 0.17683(10)
H3 H 0.8976 0.0478 0.1963
H4 H 0.8964 0.0888 0.1604
C3 C 0.8242(4) -0.0662(4) 0.16620(11)
H5 H 0.7649 -0.0633 0.1497
H6 H 0.7936 -0.1088 0.1842
C4 C 0.9276(5) -0.1260(5) 0.15323(13)
H7 H 0.9527 -0.0892 0.1339
H8 H 0.9080 -0.2034 0.1486
H9 H 0.9886 -0.1238 0.1688
C5 C 0.8386(4) 0.2977(4) 0.17513(10)
H10 H 0.8126 0.2896 0.1531
H11 H 0.9147 0.2636 0.1765
C6 C 0.8501(4) 0.4203(4) 0.18217(12)
H12 H 0.8893 0.4303 0.2026
H13 H 0.7740 0.4541 0.1839
C7 C 0.9165(5) 0.4780(5) 0.15642(17)
H14 H 0.9929 0.4905 0.1653
H15 H 0.9260 0.4218 0.1396
C8 C 0.8940(8) 0.5578(9) 0.1438(3)
H16 H 0.8381 0.5422 0.1274
H17 H 0.9622 0.5895 0.1343
H18 H 0.8621 0.6107 0.1589
C9 C 0.8115(3) 0.2277(3) 0.22926(9)
H19 H 0.8851 0.1886 0.2278
H20 H 0.8273 0.3047 0.2362
C10 C 0.7418(3) 0.1721(4) 0.25416(9)
H21 H 0.7249 0.0947 0.2478
H22 H 0.6690 0.2120 0.2567
C11 C 0.8060(4) 0.1719(4) 0.28532(10)
H23 H 0.8750 0.1258 0.2832
H24 H 0.8300 0.2487 0.2904
C12 C 0.7348(4) 0.1276(4) 0.31163(11)
H25 H 0.6691 0.1761 0.3147
H26 H 0.7798 0.1252 0.3310
H27 H 0.7089 0.0525 0.3064
C13 C 0.6439(3) 0.2890(3) 0.19824(8)
H28 H 0.5923 0.2402 0.2103
H29 H 0.6527 0.3589 0.2103
C14 C 0.5886(3) 0.3160(4) 0.16681(9)
H30 H 0.6399 0.3634 0.1542
H31 H 0.5750 0.2464 0.1550
C15 C 0.4775(4) 0.3757(4) 0.17198(9)
H32 H 0.4919 0.4464 0.1832
H33 H 0.4280 0.3294 0.1854
C16 C 0.4173(4) 0.4000(5) 0.14132(11)
H34 H 0.4616 0.4535 0.1291
H35 H 0.3423 0.4311 0.1457
H36 H 0.4090 0.3310 0.1293
N1 N 0.7593(3) 0.2325(3) 0.19600(7)
C17 C 0.2836(3) -0.0061(3) 0.18530(10)
C18 C 0.1759(3) 0.1527(3) 0.22378(9)
C19 C 0.1931(4) 0.2298(3) 0.20076(10)
H37 H 0.2284 0.2095 0.1815
C20 C 0.1579(4) 0.3390(4) 0.20593(13)
H38 H 0.1682 0.3938 0.1901
C21 C 0.1078(4) 0.3671(4) 0.23439(14)
H39 H 0.0846 0.4415 0.2381
C22 C 0.0917(4) 0.2886(4) 0.25704(12)
H40 H 0.0570 0.3089 0.2764
C23 C 0.1250(3) 0.1806(3) 0.25232(9)
H41 H 0.1136 0.1260 0.2682
C24 C 0.4994(3) -0.1060(3) 0.19259(9)
C25 C 0.5256(3) -0.1273(3) 0.22371(9)
H42 H 0.5074 -0.0746 0.2396
C26 C 0.5783(3) -0.2254(4) 0.23151(10)
H43 H 0.5953 -0.2410 0.2529
C27 C 0.6066(3) -0.3012(4) 0.20860(10)
H44 H 0.6435 -0.3684 0.2143
C28 C 0.5818(3) -0.2802(3) 0.17743(10)
H45 H 0.6005 -0.3331 0.1617
C29 C 0.5292(3) -0.1809(3) 0.16929(9)
H46 H 0.5137 -0.1646 0.1478
H93 H 0.250(3) -0.031(3) 0.1696(7)
O1 O 0.1034(2) -0.0457(2) 0.21454(7)
O2 O 0.2760(2) -0.0201(2) 0.24614(6)
O3 O 0.4521(2) 0.0390(2) 0.14981(6)
O4 O 0.4570(2) 0.0993(2) 0.20564(6)
S1 S 0.21161(8) 0.00877(8) 0.21837(2)
S2 S 0.42396(8) 0.01763(8) 0.18242(2)
C30 C 0.7768(3) 0.4371(3) 0.94127(8)
H47 H 0.7173 0.4870 0.9496
H48 H 0.7865 0.3758 0.9565
C31 C 0.7359(3) 0.3883(3) 0.91013(9)
H49 H 0.7336 0.4473 0.8939
H50 H 0.7895 0.3303 0.9030
C32 C 0.6200(3) 0.3385(3) 0.91391(9)
H51 H 0.5652 0.3985 0.9186
H52 H 0.6206 0.2868 0.9320
C33 C 0.5810(4) 0.2761(4) 0.88465(9)
H53 H 0.5729 0.3283 0.8671
H54 H 0.5079 0.2405 0.8888
H55 H 0.6370 0.2192 0.8792
C34 C 0.8784(3) 0.5983(3) 0.91637(8)
H56 H 0.8734 0.5678 0.8948
H57 H 0.9491 0.6423 0.9177
C35 C 0.7783(3) 0.6762(3) 0.92162(9)
H58 H 0.7066 0.6349 0.9187
H59 H 0.7801 0.7051 0.9434
C36 C 0.7831(3) 0.7719(3) 0.89865(10)
H60 H 0.8557 0.8117 0.9014
H61 H 0.7811 0.7422 0.8769
C37 C 0.6871(4) 0.8529(4) 0.90279(11)
H62 H 0.6150 0.8150 0.8990
H63 H 0.6957 0.9142 0.8878
H64 H 0.6880 0.8822 0.9243
C38 C 0.9142(3) 0.5492(3) 0.97177(8)
H65 H 0.9805 0.5989 0.9698
H66 H 0.8493 0.5951 0.9787
C39 C 0.9393(3) 0.4635(3) 0.99727(8)
H67 H 0.8727 0.4146 1.0002
H68 H 1.0041 0.4168 0.9908
C40 C 0.9668(3) 0.5211(3) 1.02805(8)
H69 H 0.9067 0.5759 1.0328
H70 H 1.0390 0.5621 1.0257
C41 C 0.9769(3) 0.4403(3) 1.05536(9)
H71 H 0.9030 0.4062 1.0594
H72 H 1.0021 0.4803 1.0742
H73 H 1.0320 0.3824 1.0501
C42 C 0.9792(3) 0.4243(3) 0.92816(9)
H74 H 0.9603 0.4004 0.9065
H75 H 0.9780 0.3572 0.9416
C43 C 1.0987(3) 0.4696(3) 0.92798(9)
H76 H 1.1223 0.4887 0.9497
H77 H 1.1024 0.5377 0.9150
C44 C 1.1767(3) 0.3817(3) 0.91456(10)
H78 H 1.1522 0.3635 0.8929
H79 H 1.1704 0.3133 0.9274
C45 C 1.3007(4) 0.4193(4) 0.91391(11)
H80 H 1.3085 0.4835 0.8999
H81 H 1.3483 0.3584 0.9062
H82 H 1.3245 0.4402 0.9352
N2 N 0.8871(2) 0.5016(2) 0.93937(6)
C46 C 0.6429(3) 0.5344(3) 0.06701(9)
C47 C 0.7357(3) 0.7448(3) 0.05232(9)
C48 C 0.8276(3) 0.7655(3) 0.07135(10)
H83 H 0.8264 0.7436 0.0928
C49 C 0.9212(4) 0.8179(3) 0.05911(11)
H84 H 0.9839 0.8331 0.0724
C50 C 0.9260(4) 0.8487(3) 0.02815(11)
H85 H 0.9920 0.8831 0.0199
C51 C 0.8330(4) 0.8290(3) 0.00908(11)
H86 H 0.8345 0.8514 -0.0123
C52 C 0.7378(4) 0.7767(3) 0.02108(9)
H87 H 0.6744 0.7627 0.0079
C53 C 0.4882(3) 0.4168(3) 0.02893(8)
C54 C 0.4603(4) 0.3621(3) 0.00132(9)
H88 H 0.5169 0.3499 -0.0142
C55 C 0.3522(4) 0.3256(3) -0.00391(10)
H89 H 0.3340 0.2873 -0.0228
C56 C 0.2699(4) 0.3450(3) 0.01854(10)
H90 H 0.1946 0.3203 0.0150
C57 C 0.2963(3) 0.3997(4) 0.04585(10)
H91 H 0.2393 0.4130 0.0611
C58 C 0.4057(3) 0.4356(3) 0.05116(9)
H92 H 0.4240 0.4732 0.0701
H94 H 0.671(3) 0.511(3) 0.0837(7)
O5 O 0.6107(2) 0.7051(2) 0.10074(6)
O6 O 0.5240(2) 0.6995(2) 0.04752(6)
O7 O 0.6580(2) 0.5223(2) 0.00616(6)
O8 O 0.6924(2) 0.3554(2) 0.03909(7)
S3 S 0.61743(8) 0.67172(8) 0.06800(2)
S4 S 0.63176(8) 0.45903(8) 0.03459(2)
loop_
_geom_bond_atom_site_label_1
_geom_bond_atom_site_label_2
_geom_bond_site_symmetry_1
_geom_bond_site_symmetry_2
C1 H1 1_555 1_555
H2 C1 1_555 1_555
C2 C1 1_555 1_555
H3 C2 1_555 1_555
H4 C2 1_555 1_555
C3 C2 1_555 1_555
H5 C3 1_555 1_555
H6 C3 1_555 1_555
C4 C3 1_555 1_555
H7 C4 1_555 1_555
H8 C4 1_555 1_555
H9 C4 1_555 1_555
C5 H10 1_555 1_555
H11 C5 1_555 1_555
C6 C5 1_555 1_555
H12 C6 1_555 1_555
H13 C6 1_555 1_555
C7 C6 1_555 1_555
H14 C7 1_555 1_555
H15 C7 1_555 1_555
C8 C7 1_555 1_555
H16 C8 1_555 1_555
H17 C8 1_555 1_555
H18 C8 1_555 1_555
C9 H19 1_555 1_555
H20 C9 1_555 1_555
C10 C9 1_555 1_555
H21 C10 1_555 1_555
H22 C10 1_555 1_555
C11 C10 1_555 1_555
H23 C11 1_555 1_555
H24 C11 1_555 1_555
C12 C11 1_555 1_555
H25 C12 1_555 1_555
H26 C12 1_555 1_555
H27 C12 1_555 1_555
C13 H28 1_555 1_555
H29 C13 1_555 1_555
C14 C13 1_555 1_555
H30 C14 1_555 1_555
H31 C14 1_555 1_555
C15 C14 1_555 1_555
H32 C15 1_555 1_555
H33 C15 1_555 1_555
C16 C15 1_555 1_555
H34 C16 1_555 1_555
H35 C16 1_555 1_555
H36 C16 1_555 1_555
C17 H93 1_555 1_555
C18 C19 1_555 1_555
C19 H37 1_555 1_555
C20 C19 1_555 1_555
H38 C20 1_555 1_555
C21 C20 1_555 1_555
H39 C21 1_555 1_555
C22 C21 1_555 1_555
H40 C22 1_555 1_555
C23 C18 1_555 1_555
H41 C23 1_555 1_555
C24 C25 1_555 1_555
C25 H42 1_555 1_555
C26 C25 1_555 1_555
H43 C26 1_555 1_555
C27 C26 1_555 1_555
H44 C27 1_555 1_555
C28 C27 1_555 1_555
H45 C28 1_555 1_555
C29 C24 1_555 1_555
H46 C29 1_555 1_555
C30 H47 1_555 1_555
H48 C30 1_555 1_555
C31 C30 1_555 1_555
H49 C31 1_555 1_555
H50 C31 1_555 1_555
C32 C31 1_555 1_555
H51 C32 1_555 1_555
H52 C32 1_555 1_555
C33 C32 1_555 1_555
H53 C33 1_555 1_555
H54 C33 1_555 1_555
H55 C33 1_555 1_555
C34 H56 1_555 1_555
H57 C34 1_555 1_555
C35 C34 1_555 1_555
H58 C35 1_555 1_555
H59 C35 1_555 1_555
C36 C35 1_555 1_555
H60 C36 1_555 1_555
H61 C36 1_555 1_555
C37 C36 1_555 1_555
H62 C37 1_555 1_555
H63 C37 1_555 1_555
H64 C37 1_555 1_555
C38 H65 1_555 1_555
H66 C38 1_555 1_555
C39 C38 1_555 1_555
H67 C39 1_555 1_555
H68 C39 1_555 1_555
C40 C39 1_555 1_555
H69 C40 1_555 1_555
H70 C40 1_555 1_555
C41 C40 1_555 1_555
H71 C41 1_555 1_555
H72 C41 1_555 1_555
H73 C41 1_555 1_555
C42 H74 1_555 1_555
H75 C42 1_555 1_555
C43 C42 1_555 1_555
H76 C43 1_555 1_555
H77 C43 1_555 1_555
C44 C43 1_555 1_555
H78 C44 1_555 1_555
H79 C44 1_555 1_555
C45 C44 1_555 1_555
H80 C45 1_555 1_555
H81 C45 1_555 1_555
H82 C45 1_555 1_555
C46 H94 1_555 1_555
C47 C48 1_555 1_555
C48 H83 1_555 1_555
C49 C48 1_555 1_555
H84 C49 1_555 1_555
C50 C49 1_555 1_555
H85 C50 1_555 1_555
C51 C50 1_555 1_555
H86 C51 1_555 1_555
C52 C47 1_555 1_555
H87 C52 1_555 1_555
C53 C54 1_555 1_555
C54 H88 1_555 1_555
C55 C54 1_555 1_555
H89 C55 1_555 1_555
C56 C55 1_555 1_555
H90 C56 1_555 1_555
C57 C56 1_555 1_555
H91 C57 1_555 1_555
C58 C53 1_555 1_555
H92 C58 1_555 1_555
N1 C1 1_555 1_555
N2 C30 1_555 1_555
O1 S1 1_555 1_555
O2 S1 1_555 1_555
O3 S2 1_555 1_555
O4 S2 1_555 1_555
O5 S3 1_555 1_555
O6 S3 1_555 1_555
O7 S4 1_555 1_555
O8 S4 1_555 1_555
S1 C17 1_555 1_555
S2 C17 1_555 1_555
S3 C46 1_555 1_555
S4 C46 1_555 1_555
C5 N1 1_555 1_555
C9 N1 1_555 1_555
C13 N1 1_555 1_555
C18 S1 1_555 1_555
C22 C23 1_555 1_555
C24 S2 1_555 1_555
C28 C29 1_555 1_555
C34 N2 1_555 1_555
C38 N2 1_555 1_555
C42 N2 1_555 1_555
C47 S3 1_555 1_555
C51 C52 1_555 1_555
C53 S4 1_555 1_555
C57 C58 1_555 1_555

#END
