
#######################################################################
#
#                 Cambridge Crystallographic Data Centre
#                                CCDC 
#
#######################################################################
#
# If this CIF has been generated from an entry in the Cambridge 
# Structural Database, then it will include bibliographic, chemical, 
# crystal, experimental, refinement or atomic coordinate data resulting 
# from the CCDC's data processing and validation procedures.
#
#######################################################################

data_KUJPUC
_chemical_formula_moiety         'C11 H7 O3 1-,C3 H10 N1 1+'
_chemical_name_systematic        'propan-2-aminium 1-hydroxy-2-naphthoate'
_symmetry_cell_setting           monoclinic
_symmetry_space_group_name_H-M   'P 21/c'
_symmetry_Int_Tables_number      14
_space_group_name_Hall           '-P 2ybc'
loop_
_symmetry_equiv_pos_site_id
_symmetry_equiv_pos_as_xyz
1 x,y,z
2 -x,1/2+y,1/2-z
3 -x,-y,-z
4 x,1/2-y,1/2+z
_cell_length_a                   13.6601(11)
_cell_length_b                   6.3130(5)
_cell_length_c                   19.0402(17)
_cell_angle_alpha                90
_cell_angle_beta                 118.562(2)
_cell_angle_gamma                90
_cell_volume                     1442.13
_exptl_crystal_colour            colorless
_exptl_crystal_description       block
_cell_formula_units_Z            4
loop_
_atom_site_label
_atom_site_type_symbol
_atom_site_fract_x
_atom_site_fract_y
_atom_site_fract_z
N1 N 0.4866(4) 0.4444(8) 0.1722(3)
H1 H 0.4554 0.4289 0.2036
H2 H 0.5248 0.5652 0.1841
H3 H 0.5324 0.3364 0.1797
C1 C 0.4199(12) 0.491(2) 0.0279(8)
H4 H 0.3587 0.5401 -0.0213
H5 H 0.4432 0.3543 0.0199
H6 H 0.4808 0.5893 0.0449
C2 C 0.3826(10) 0.476(3) 0.0929(7)
H7 H 0.3324 0.3553 0.0817
C3 C 0.3261(15) 0.679(3) 0.1016(11)
H8 H 0.3760 0.7972 0.1137
H9 H 0.3079 0.6609 0.1441
H10 H 0.2592 0.7063 0.0525
O1 O 0.4036(4) 0.3375(7) 0.2768(3)
O2 O 0.3794(4) 0.6189(8) 0.3384(3)
O3 O 0.2540(4) 0.5883(7) 0.4048(3)
H18 H 0.3025 0.6402 0.3964
C7 C 0.3561(5) 0.4326(11) 0.3101(4)
C8 C 0.2208(5) 0.3987(11) 0.3658(4)
C9 C 0.2658(5) 0.3141(10) 0.3198(4)
C10 C 0.2270(5) 0.1156(10) 0.2824(4)
H19 H 0.2573 0.0590 0.2520
C11 C 0.1461(5) 0.0033(10) 0.2896(4)
H20 H 0.1222 -0.1268 0.2641
C12 C 0.0986(5) 0.0876(10) 0.3366(4)
C13 C 0.1348(5) 0.2867(10) 0.3741(3)
C14 C 0.0864(5) 0.3726(11) 0.4202(4)
H21 H 0.1096 0.5034 0.4452
C15 C 0.0041(6) 0.2574(13) 0.4270(5)
H22 H -0.0282 0.3128 0.4564
C16 C -0.0303(6) 0.0593(13) 0.3902(5)
H23 H -0.0848 -0.0155 0.3957
C17 C 0.0146(5) -0.0253(11) 0.3465(4)
H24 H -0.0091 -0.1575 0.3229
C4? C 0.330(2) 0.251(5) 0.077(2)
H11? H 0.3720 0.1285 0.0782
H12? H 0.2625 0.2575 0.0271
H13? H 0.3118 0.2422 0.1201
C5? C 0.399(2) 0.449(6) 0.0876(9)
H14? H 0.4260 0.4639 0.0488
C6? C 0.294(3) 0.579(6) 0.069(2)
H15? H 0.2571 0.5184 0.0956
H16? H 0.2453 0.5777 0.0120
H17? H 0.3156 0.7220 0.0864
loop_
_geom_bond_atom_site_label_1
_geom_bond_atom_site_label_2
_geom_bond_site_symmetry_1
_geom_bond_site_symmetry_2
N1 H1 1_555 1_555
H2 N1 1_555 1_555
H3 N1 1_555 1_555
C1 H4 1_555 1_555
H5 C1 1_555 1_555
H6 C1 1_555 1_555
C2 N1 1_555 1_555
H7 C2 1_555 1_555
C3 C2 1_555 1_555
H8 C3 1_555 1_555
H9 C3 1_555 1_555
H10 C3 1_555 1_555
O1 C7 1_555 1_555
O2 C7 1_555 1_555
O3 H18 1_555 1_555
C7 C9 1_555 1_555
C8 O3 1_555 1_555
C9 C8 1_555 1_555
C10 C9 1_555 1_555
H19 C10 1_555 1_555
C11 C10 1_555 1_555
H20 C11 1_555 1_555
C12 C11 1_555 1_555
C13 C8 1_555 1_555
C14 C13 1_555 1_555
H21 C14 1_555 1_555
C15 C14 1_555 1_555
H22 C15 1_555 1_555
C16 C15 1_555 1_555
H23 C16 1_555 1_555
C17 C12 1_555 1_555
H24 C17 1_555 1_555
C1 C2 1_555 1_555
C12 C13 1_555 1_555
C16 C17 1_555 1_555

#END
