
#######################################################################
#
#                 Cambridge Crystallographic Data Centre
#                                CCDC 
#
#######################################################################
#
# If this CIF has been generated from an entry in the Cambridge 
# Structural Database, then it will include bibliographic, chemical, 
# crystal, experimental, refinement or atomic coordinate data resulting 
# from the CCDC's data processing and validation procedures.
#
#######################################################################

data_KUJPOW
_chemical_formula_moiety         'C3 H10 N1 1+,C5 H3 O3 1-'
_chemical_name_systematic        'propan-2-aminium 2-furoate'
_symmetry_cell_setting           orthorhombic
_symmetry_space_group_name_H-M   'P 21 21 21'
_symmetry_Int_Tables_number      19
_space_group_name_Hall           'P 2ac 2ab'
loop_
_symmetry_equiv_pos_site_id
_symmetry_equiv_pos_as_xyz
1 x,y,z
2 1/2-x,-y,1/2+z
3 -x,1/2+y,1/2-z
4 1/2+x,1/2-y,-z
_cell_length_a                   6.4899(6)
_cell_length_b                   7.0418(8)
_cell_length_c                   20.961(2)
_cell_angle_alpha                90
_cell_angle_beta                 90
_cell_angle_gamma                90
_cell_volume                     957.93
_exptl_crystal_colour            colorless
_exptl_crystal_description       block
_cell_formula_units_Z            4
loop_
_atom_site_label
_atom_site_type_symbol
_atom_site_fract_x
_atom_site_fract_y
_atom_site_fract_z
O1 O -0.2300(2) 0.4450(2) 0.11774(8)
O2 O 0.0545(3) 0.3375(3) 0.06950(7)
O3 O 0.2938(2) 0.4774(3) 0.16229(8)
C1 C -0.0401(4) 0.4254(3) 0.11338(11)
C2 C 0.0874(3) 0.5132(3) 0.16377(10)
C3 C 0.0462(4) 0.6312(4) 0.21207(12)
H1 H -0.0827 0.6785 0.2232
C4 C 0.2365(4) 0.6709(4) 0.24328(14)
H2 H 0.2564 0.7480 0.2787
C5 C 0.3789(4) 0.5756(5) 0.21147(14)
H3 H 0.5185 0.5757 0.2214
N1 N 0.4668(3) 0.2195(3) 0.05992(9)
H4 H 0.4874 0.2082 0.0181
H5 H 0.5648 0.2924 0.0767
H6 H 0.3442 0.2722 0.0669
C6 C 0.4735(5) 0.0268(4) 0.09032(12)
H7 H 0.4452 0.0414 0.1360
C7 C 0.3075(5) -0.0949(5) 0.06178(17)
H8 H 0.1755 -0.0383 0.0698
H9 H 0.3121 -0.2191 0.0807
H10 H 0.3288 -0.1053 0.0166
C8 C 0.6861(5) -0.0550(5) 0.08280(18)
H11 H 0.6916 -0.1776 0.1028
H12 H 0.7847 0.0278 0.1026
H13 H 0.7177 -0.0675 0.0383
loop_
_geom_bond_atom_site_label_1
_geom_bond_atom_site_label_2
_geom_bond_site_symmetry_1
_geom_bond_site_symmetry_2
O1 C1 1_555 1_555
O2 C1 1_555 1_555
O3 C2 1_555 1_555
C1 C2 1_555 1_555
C2 C3 1_555 1_555
C3 H1 1_555 1_555
C4 C3 1_555 1_555
H2 C4 1_555 1_555
C5 O3 1_555 1_555
H3 C5 1_555 1_555
N1 H4 1_555 1_555
H5 N1 1_555 1_555
H6 N1 1_555 1_555
C6 N1 1_555 1_555
H7 C6 1_555 1_555
C7 C6 1_555 1_555
H8 C7 1_555 1_555
H9 C7 1_555 1_555
H10 C7 1_555 1_555
C8 C6 1_555 1_555
H11 C8 1_555 1_555
H12 C8 1_555 1_555
H13 C8 1_555 1_555
C4 C5 1_555 1_555

#END
