
#######################################################################
#
#                 Cambridge Crystallographic Data Centre
#                                CCDC 
#
#######################################################################
#
# If this CIF has been generated from an entry in the Cambridge 
# Structural Database, then it will include bibliographic, chemical, 
# crystal, experimental, refinement or atomic coordinate data resulting 
# from the CCDC's data processing and validation procedures.
#
#######################################################################

data_KUJQAJ
_chemical_formula_moiety         'C8 H3 N1 O6 2-,2(C3 H10 N1 1+)'
_chemical_name_systematic        'bis(propan-2-aminium) 4-nitrophthalate'
_symmetry_cell_setting           triclinic
_symmetry_space_group_name_H-M   'P -1'
_symmetry_Int_Tables_number      2
_space_group_name_Hall           '-P 1'
loop_
_symmetry_equiv_pos_site_id
_symmetry_equiv_pos_as_xyz
1 x,y,z
2 -x,-y,-z
_cell_length_a                   7.2817(8)
_cell_length_b                   11.0332(11)
_cell_length_c                   11.9671(12)
_cell_angle_alpha                63.5910(10)
_cell_angle_beta                 77.3890(10)
_cell_angle_gamma                80.774(2)
_cell_volume                     838.132
_exptl_crystal_colour            colorless
_exptl_crystal_description       block
_cell_formula_units_Z            2
loop_
_atom_site_label
_atom_site_type_symbol
_atom_site_fract_x
_atom_site_fract_y
_atom_site_fract_z
N1 N 0.4785(6) 0.3681(4) 0.4003(4)
H1 H 0.5950 0.3579 0.4165
H2 H 0.4020 0.3209 0.4710
H3 H 0.4384 0.4555 0.3710
C1 C 0.6055(10) 0.3978(9) 0.1901(7)
H4 H 0.5636 0.4923 0.1607
H5 H 0.6045 0.3681 0.1261
H6 H 0.7313 0.3848 0.2080
C2 C 0.4787(8) 0.3188(6) 0.3057(5)
H7 H 0.3506 0.3317 0.2869
C3 C 0.5370(12) 0.1713(7) 0.3619(8)
H8 H 0.6542 0.1573 0.3917
H9 H 0.5525 0.1374 0.2989
H10 H 0.4418 0.1241 0.4313
N2 N 0.9488(6) 0.6030(5) 0.3019(4)
H11 H 1.0628 0.6086 0.3142
H12 H 0.9231 0.5163 0.3366
H13 H 0.8630 0.6481 0.3376
C4 C 1.0882(10) 0.5878(9) 0.1093(7)
H14 H 1.0811 0.6226 0.0211
H15 H 1.0662 0.4931 0.1504
H16 H 1.2112 0.5994 0.1184
C5 C 0.9448(8) 0.6617(6) 0.1674(6)
H17 H 0.8207 0.6503 0.1557
C6 C 0.9694(11) 0.8086(7) 0.1133(7)
H18 H 0.8690 0.8510 0.1535
H19 H 0.9668 0.8484 0.0241
H20 H 1.0882 0.8217 0.1271
N3 N 0.6469(11) -0.1974(6) 0.9170(6)
O1 O 1.1127(6) 0.2889(4) 0.5071(4)
O2 O 0.8555(6) 0.3364(4) 0.4260(4)
O3 O 0.6916(6) 0.3792(4) 0.6695(4)
O4 O 0.4338(6) 0.3081(4) 0.6659(4)
O5 O 0.5031(10) -0.1814(6) 0.9827(6)
O6 O 0.7267(8) -0.3041(5) 0.9302(5)
C7 C 0.9549(8) 0.2683(6) 0.5068(6)
C8 C 0.5986(8) 0.2935(6) 0.6735(5)
C9 C 0.8683(8) 0.1485(5) 0.6174(5)
C10 C 0.7022(7) 0.1605(5) 0.6925(5)
C11 C 0.6288(8) 0.0460(6) 0.7908(5)
H21 H 0.5150 0.0518 0.8422
C12 C 0.7251(9) -0.0755(5) 0.8113(6)
C13 C 0.8887(10) -0.0894(6) 0.7398(6)
H22 H 0.9513 -0.1745 0.7565
C14 C 0.9612(8) 0.0232(6) 0.6426(6)
H23 H 1.0753 0.0155 0.5923
loop_
_geom_bond_atom_site_label_1
_geom_bond_atom_site_label_2
_geom_bond_site_symmetry_1
_geom_bond_site_symmetry_2
N1 H1 1_555 1_555
H2 N1 1_555 1_555
H3 N1 1_555 1_555
C1 H4 1_555 1_555
H5 C1 1_555 1_555
H6 C1 1_555 1_555
C2 N1 1_555 1_555
H7 C2 1_555 1_555
C3 C2 1_555 1_555
H8 C3 1_555 1_555
H9 C3 1_555 1_555
H10 C3 1_555 1_555
N2 H11 1_555 1_555
H12 N2 1_555 1_555
H13 N2 1_555 1_555
C4 H14 1_555 1_555
H15 C4 1_555 1_555
H16 C4 1_555 1_555
C5 N2 1_555 1_555
H17 C5 1_555 1_555
C6 C5 1_555 1_555
H18 C6 1_555 1_555
H19 C6 1_555 1_555
H20 C6 1_555 1_555
N3 O5 1_555 1_555
O1 C7 1_555 1_555
O2 C7 1_555 1_555
O3 C8 1_555 1_555
O4 C8 1_555 1_555
O6 N3 1_555 1_555
C7 C9 1_555 1_555
C8 C10 1_555 1_555
C9 C10 1_555 1_555
C10 C11 1_555 1_555
C11 H21 1_555 1_555
C12 N3 1_555 1_555
C13 C12 1_555 1_555
H22 C13 1_555 1_555
C14 C9 1_555 1_555
H23 C14 1_555 1_555
C1 C2 1_555 1_555
C4 C5 1_555 1_555
C11 C12 1_555 1_555
C13 C14 1_555 1_555

#END
