
#######################################################################
#
#                 Cambridge Crystallographic Data Centre
#                                CCDC 
#
#######################################################################
#
# If this CIF has been generated from an entry in the Cambridge 
# Structural Database, then it will include bibliographic, chemical, 
# crystal, experimental, refinement or atomic coordinate data resulting 
# from the CCDC's data processing and validation procedures.
#
#######################################################################

data_KUJQIR
_chemical_formula_moiety         'C10 H6 O6 S2 2-,2(C3 H10 N1 1+)'
_chemical_name_systematic        
'bis(propan-2-aminium) naphthalene-1,5-disulfonate'
_symmetry_cell_setting           triclinic
_symmetry_space_group_name_H-M   'P -1'
_symmetry_Int_Tables_number      2
_space_group_name_Hall           '-P 1'
loop_
_symmetry_equiv_pos_site_id
_symmetry_equiv_pos_as_xyz
1 x,y,z
2 -x,-y,-z
_cell_length_a                   5.2960(4)
_cell_length_b                   9.8409(7)
_cell_length_c                   10.8561(9)
_cell_angle_alpha                108.573(2)
_cell_angle_beta                 104.0790(10)
_cell_angle_gamma                101.0650(10)
_cell_volume                     497.382
_exptl_crystal_colour            colorless
_exptl_crystal_description       block
_cell_formula_units_Z            1
loop_
_atom_site_label
_atom_site_type_symbol
_atom_site_fract_x
_atom_site_fract_y
_atom_site_fract_z
N1 N 0.5727(5) 0.4190(3) 0.1274(3)
H1 H 0.7482 0.4701 0.1567
H2 H 0.4747 0.4828 0.1433
H3 H 0.5199 0.3649 0.0375
C1 C 0.554(2) 0.1783(7) 0.1400(7)
H4 H 0.7322 0.1863 0.1324
H5 H 0.4198 0.1291 0.0500
H6 H 0.5238 0.1210 0.1948
C2 C 0.5319(11) 0.3187(5) 0.2010(4)
H7 H 0.3357 0.2972 0.1853
C3 C 0.6435(13) 0.4004(6) 0.3515(5)
H8 H 0.6100 0.3318 0.3958
H9 H 0.5571 0.4771 0.3785
H10 H 0.8361 0.4455 0.3781
O1 O 1.0313(5) 0.3077(3) 0.9258(2)
O2 O 0.5552(4) 0.2918(3) 0.8476(2)
O3 O 0.8648(5) 0.4091(3) 0.7584(3)
S1 S 0.80550(15) 0.29529(9) 0.81432(8)
C4 C 0.9135(6) 0.0365(4) 0.6962(3)
H11 H 1.0570 0.0706 0.7782
C5 C 0.7405(6) 0.1196(3) 0.6781(3)
C6 C 0.5184(5) 0.0704(3) 0.5526(3)
C7 C 0.3341(6) 0.1531(3) 0.5293(3)
H12 H 0.3564 0.2447 0.5974
C8 C 0.1249(7) 0.1011(4) 0.4092(4)
H13 H 0.0054 0.1572 0.3965
O1A O -0.0313(5) -0.3077(3) 0.0742(2)
O2A O 0.4448(4) -0.2918(3) 0.1524(2)
O3A O 0.1352(5) -0.4091(3) 0.2416(3)
S1A S 0.19450(15) -0.29529(9) 0.18568(8)
C4A C 0.0865(6) -0.0365(4) 0.3038(3)
H11A H -0.0570 -0.0706 0.2218
C5A C 0.2595(6) -0.1196(3) 0.3219(3)
C6A C 0.4816(5) -0.0704(3) 0.4474(3)
C7A C 0.6659(6) -0.1531(3) 0.4707(3)
H12A H 0.6436 -0.2447 0.4026
C8A C 0.8751(7) -0.1011(4) 0.5908(4)
H13A H 0.9946 -0.1572 0.6035
loop_
_geom_bond_atom_site_label_1
_geom_bond_atom_site_label_2
_geom_bond_site_symmetry_1
_geom_bond_site_symmetry_2
N1 H1 1_555 1_555
H2 N1 1_555 1_555
H3 N1 1_555 1_555
C1 H4 1_555 1_555
H5 C1 1_555 1_555
H6 C1 1_555 1_555
C2 N1 1_555 1_555
H7 C2 1_555 1_555
C3 C2 1_555 1_555
H8 C3 1_555 1_555
H9 C3 1_555 1_555
H10 C3 1_555 1_555
O1 S1 1_555 1_555
O2 S1 1_555 1_555
O3 S1 1_555 1_555
S1 C5 1_555 1_555
C4 H11 1_555 1_555
C5 C4 1_555 1_555
C6 C5 1_555 1_555
C7 C6 1_555 1_555
H12 C7 1_555 1_555
C8 C7 1_555 1_555
H13 C8 1_555 1_555
O1A S1A 1_555 1_555
O2A S1A 1_555 1_555
O3A S1A 1_555 1_555
S1A C5A 1_555 1_555
C4A C8 1_555 1_555
H11A C4A 1_555 1_555
C5A C4A 1_555 1_555
C6A C6 1_555 1_555
C7A C6A 1_555 1_555
H12A C7A 1_555 1_555
C8A C4 1_555 1_555
H13A C8A 1_555 1_555
C1 C2 1_555 1_555
C5A C6A 1_555 1_555
C7A C8A 1_555 1_555

#END
