
#######################################################################
#
#                 Cambridge Crystallographic Data Centre
#                                CCDC 
#
#######################################################################
#
# If this CIF has been generated from an entry in the Cambridge 
# Structural Database, then it will include bibliographic, chemical, 
# crystal, experimental, refinement or atomic coordinate data resulting 
# from the CCDC's data processing and validation procedures.
#
#######################################################################

data_KUJXIX
_chemical_formula_moiety         'C14 H11 Br1 N2 O3'
_chemical_name_systematic        
'(R)-Methyl 6-amino-4-(4-bromophenyl)-5-cyano-4H-pyran-2-carboxylate'
_symmetry_cell_setting           triclinic
_symmetry_space_group_name_H-M   'P -1'
_symmetry_Int_Tables_number      2
_space_group_name_Hall           '-P 1'
loop_
_symmetry_equiv_pos_site_id
_symmetry_equiv_pos_as_xyz
1 x,y,z
2 -x,-y,-z
_cell_length_a                   5.6583(10)
_cell_length_b                   8.8424(15)
_cell_length_c                   14.328(2)
_cell_angle_alpha                84.467(2)
_cell_angle_beta                 89.688(2)
_cell_angle_gamma                87.341(2)
_cell_volume                     712.764
_exptl_crystal_colour            colorless
_exptl_crystal_description       prism
_chemical_melting_point          172-174deg.C
_cell_formula_units_Z            2
loop_
_atom_site_label
_atom_site_type_symbol
_atom_site_fract_x
_atom_site_fract_y
_atom_site_fract_z
Br1 Br 0.78596(12) 0.78721(6) -0.05908(4)
O1 O 0.4204(5) 0.1885(3) 0.40223(18)
O2 O -0.0775(5) 0.1350(3) 0.26471(19)
O3 O 0.1575(6) -0.0288(3) 0.3534(2)
C1 C 0.2407(6) 0.2324(4) 0.3381(2)
C2 C 0.5561(7) 0.4398(4) 0.3802(2)
C3 C 0.5737(7) 0.2959(5) 0.4205(2)
C4 C 0.3610(6) 0.4989(4) 0.3115(2)
H1 H 0.2644 0.5772 0.3399
C5 C 0.4586(6) 0.5688(4) 0.2184(2)
C6 C 0.2081(7) 0.3698(4) 0.2968(3)
H2 H 0.0816 0.3886 0.2555
C7 C 0.1050(7) 0.0986(5) 0.3219(3)
C8 C 0.6206(7) 0.4895(4) 0.1683(3)
H3 H 0.6681 0.3907 0.1908
C9 C 0.7232(7) 0.5442(5) 0.4050(3)
C10 C 0.7151(8) 0.5522(5) 0.0855(3)
H4 H 0.8240 0.4961 0.0523
C11 C 0.3896(8) 0.7134(5) 0.1829(3)
H5 H 0.2789 0.7693 0.2154
C12 C 0.6475(8) 0.6967(5) 0.0528(3)
C13 C 0.4822(9) 0.7778(5) 0.0992(3)
H6 H 0.4320 0.8754 0.0751
C14 C -0.2200(8) 0.0105(5) 0.2446(4)
H7 H -0.1272 -0.0592 0.2104
H8 H -0.3546 0.0494 0.2078
H9 H -0.2729 -0.0414 0.3024
N1 N 0.7397(6) 0.2351(4) 0.4813(2)
H10 H 0.8503 0.2900 0.4984
H11 H 0.7356 0.1412 0.5032
N2 N 0.8573(7) 0.6294(4) 0.4243(3)
loop_
_geom_bond_atom_site_label_1
_geom_bond_atom_site_label_2
_geom_bond_site_symmetry_1
_geom_bond_site_symmetry_2
Br1 C12 1_555 1_555
O1 C1 1_555 1_555
O2 C7 1_555 1_555
O3 C7 1_555 1_555
C1 C6 1_555 1_555
C2 C3 1_555 1_555
C3 O1 1_555 1_555
C4 C2 1_555 1_555
H1 C4 1_555 1_555
C5 C4 1_555 1_555
C6 C4 1_555 1_555
H2 C6 1_555 1_555
C7 C1 1_555 1_555
C8 C5 1_555 1_555
H3 C8 1_555 1_555
C9 C2 1_555 1_555
C10 C8 1_555 1_555
H4 C10 1_555 1_555
C11 C5 1_555 1_555
H5 C11 1_555 1_555
C12 C10 1_555 1_555
C13 C11 1_555 1_555
H6 C13 1_555 1_555
C14 O2 1_555 1_555
H7 C14 1_555 1_555
H8 C14 1_555 1_555
H9 C14 1_555 1_555
N1 C3 1_555 1_555
H10 N1 1_555 1_555
H11 N1 1_555 1_555
N2 C9 1_555 1_555
C12 C13 1_555 1_555

#END
