
#######################################################################
#
#                 Cambridge Crystallographic Data Centre
#                                CCDC 
#
#######################################################################
#
# If this CIF has been generated from an entry in the Cambridge 
# Structural Database, then it will include bibliographic, chemical, 
# crystal, experimental, refinement or atomic coordinate data resulting 
# from the CCDC's data processing and validation procedures.
#
#######################################################################

data_KUJYUL
_chemical_compound_source        
'the marine microorganism Streptomyces griseus (RSH0407), derived from the plant Salicornia sp., Chenopodiaceae'
_chemical_name_common            
(+)-(2R,3R,6S,8S)-Homononactyl-(10S,11S,14R,16R)-nonactate
_chemical_formula_moiety         'C21 H36 O7'
_chemical_name_systematic        
'2-(5-(2-((2-(5-(2-Hydroxybutyl)tetrahydrofuran-2-yl)propanoyl)oxy)propyl)tetrahydrofuran-2-yl)propanoic acid'
_symmetry_cell_setting           orthorhombic
_symmetry_space_group_name_H-M   'P 21 21 21'
_symmetry_Int_Tables_number      19
_space_group_name_Hall           'P 2ac 2ab'
loop_
_symmetry_equiv_pos_site_id
_symmetry_equiv_pos_as_xyz
1 x,y,z
2 1/2-x,-y,1/2+z
3 -x,1/2+y,1/2-z
4 1/2+x,1/2-y,-z
_cell_length_a                   5.7628(3)
_cell_length_b                   13.7031(7)
_cell_length_c                   28.3139(15)
_cell_angle_alpha                90
_cell_angle_beta                 90
_cell_angle_gamma                90
_cell_volume                     2235.9
_exptl_crystal_colour            colorless
_exptl_crystal_description       block
_cell_formula_units_Z            4
_exptl_crystal_recrystallization_method chloroform/methanol
loop_
_atom_site_label
_atom_site_type_symbol
_atom_site_fract_x
_atom_site_fract_y
_atom_site_fract_z
C1 C 0.2198(6) 0.3632(2) 0.57001(13)
C2 C 0.3452(6) 0.2677(2) 0.57646(14)
H1 H 0.5151 0.2791 0.5719
C3 C 0.3056(6) 0.2298(2) 0.62706(14)
H2 H 0.1504 0.1973 0.6291
C4 C 0.4946(7) 0.1583(2) 0.64303(14)
H3 H 0.4332 0.1107 0.6661
H4 H 0.5617 0.1227 0.6158
C5 C 0.6734(6) 0.2259(3) 0.66575(14)
H5 H 0.7699 0.1907 0.6891
H6 H 0.7754 0.2562 0.6417
C6 C 0.5185(6) 0.3014(2) 0.68945(13)
H7 H 0.4707 0.2765 0.7212
C7 C 0.6256(6) 0.4017(2) 0.69518(13)
H8 H 0.6668 0.4274 0.6636
H9 H 0.7707 0.3956 0.7136
C8 C 0.4664(6) 0.4743(2) 0.71970(13)
H10 H 0.3143 0.4773 0.7027
C9 C 0.2347(6) 0.4607(2) 0.79022(13)
C10 C 0.2194(6) 0.4069(2) 0.83669(13)
H11 H 0.3744 0.4123 0.8523
C11 C 0.1751(6) 0.2972(2) 0.82695(14)
H12 H 0.2840 0.2743 0.8018
C12 C -0.0769(7) 0.2717(3) 0.81241(15)
H13 H -0.1648 0.3311 0.8037
H14 H -0.0789 0.2257 0.7854
C13 C -0.1769(6) 0.2245(3) 0.85646(16)
H15 H -0.2973 0.1758 0.8484
H16 H -0.2439 0.2739 0.8780
C14 C 0.0358(6) 0.1764(2) 0.87796(13)
H17 H 0.0691 0.1142 0.8608
C15 C 0.0230(6) 0.1561(2) 0.93049(13)
H18 H -0.1115 0.1130 0.9367
H19 H -0.0045 0.2184 0.9473
C16 C 0.2393(7) 0.1086(2) 0.95047(14)
H20 H 0.3775 0.1466 0.9396
C17 C 0.2402(8) 0.1060(3) 1.00432(15)
H21 H 0.3684 0.0630 1.0147
H22 H 0.2744 0.1725 1.0161
C18 C 0.0169(9) 0.0709(3) 1.02743(15)
H23 H -0.0339 0.0102 1.0123
H24 H -0.1037 0.1208 1.0237
H25 H 0.0444 0.0592 1.0611
C19 C 0.2637(9) 0.1932(3) 0.53998(16)
H26 H 0.2908 0.2189 0.5081
H27 H 0.0976 0.1807 0.5443
H28 H 0.3502 0.1323 0.5441
C20 C 0.5701(6) 0.5754(2) 0.72276(14)
H29 H 0.7173 0.5725 0.7400
H30 H 0.4624 0.6188 0.7394
H31 H 0.5977 0.6006 0.6908
C21 C 0.0422(7) 0.4533(3) 0.86958(15)
H32 H -0.1109 0.4526 0.8545
H33 H 0.0875 0.5208 0.8762
H34 H 0.0358 0.4164 0.8992
O1 O -0.0080(3) 0.35559(15) 0.57481(10)
H35 H -0.0496 0.4128 0.5684
O2 O 0.3118(5) 0.44018(19) 0.56033(13)
O3 O 0.3147(4) 0.30894(17) 0.65955(10)
O4 O 0.4313(4) 0.43547(16) 0.76731(9)
O5 O 0.0921(5) 0.51627(17) 0.77486(10)
O6 O 0.2190(4) 0.24446(16) 0.86922(9)
O7 O 0.2534(3) 0.01204(15) 0.93109(10)
H36 H 0.3857 -0.0116 0.9360
loop_
_geom_bond_atom_site_label_1
_geom_bond_atom_site_label_2
_geom_bond_site_symmetry_1
_geom_bond_site_symmetry_2
C1 C2 1_555 1_555
C2 H1 1_555 1_555
C3 C2 1_555 1_555
H2 C3 1_555 1_555
C4 C3 1_555 1_555
H3 C4 1_555 1_555
H4 C4 1_555 1_555
C5 C4 1_555 1_555
H5 C5 1_555 1_555
H6 C5 1_555 1_555
C6 C5 1_555 1_555
H7 C6 1_555 1_555
C7 C6 1_555 1_555
H8 C7 1_555 1_555
H9 C7 1_555 1_555
C8 C7 1_555 1_555
H10 C8 1_555 1_555
C9 C10 1_555 1_555
C10 H11 1_555 1_555
C11 C10 1_555 1_555
H12 C11 1_555 1_555
C12 C11 1_555 1_555
H13 C12 1_555 1_555
H14 C12 1_555 1_555
C13 C12 1_555 1_555
H15 C13 1_555 1_555
H16 C13 1_555 1_555
C14 C13 1_555 1_555
H17 C14 1_555 1_555
C15 C14 1_555 1_555
H18 C15 1_555 1_555
H19 C15 1_555 1_555
C16 C15 1_555 1_555
H20 C16 1_555 1_555
C17 C16 1_555 1_555
H21 C17 1_555 1_555
H22 C17 1_555 1_555
C18 C17 1_555 1_555
H23 C18 1_555 1_555
H24 C18 1_555 1_555
H25 C18 1_555 1_555
C19 C2 1_555 1_555
H26 C19 1_555 1_555
H27 C19 1_555 1_555
H28 C19 1_555 1_555
C20 C8 1_555 1_555
H29 C20 1_555 1_555
H30 C20 1_555 1_555
H31 C20 1_555 1_555
C21 C10 1_555 1_555
H32 C21 1_555 1_555
H33 C21 1_555 1_555
H34 C21 1_555 1_555
O1 C1 1_555 1_555
H35 O1 1_555 1_555
O2 C1 1_555 1_555
O3 C3 1_555 1_555
O4 C8 1_555 1_555
O5 C9 1_555 1_555
O6 C11 1_555 1_555
O7 C16 1_555 1_555
H36 O7 1_555 1_555
C6 O3 1_555 1_555
C9 O4 1_555 1_555
C14 O6 1_555 1_555

#END
