
#######################################################################
#
#                 Cambridge Crystallographic Data Centre
#                                CCDC 
#
#######################################################################
#
# If this CIF has been generated from an entry in the Cambridge 
# Structural Database, then it will include bibliographic, chemical, 
# crystal, experimental, refinement or atomic coordinate data resulting 
# from the CCDC's data processing and validation procedures.
#
#######################################################################

data_KUJYAR
_chemical_formula_moiety         'C52 H44 N4 O3'
_chemical_name_systematic        
2-(((3,3-Diphenyl-3H-benzo[f]chromen-8-yl)methylene)amino)-3',6'-bis(ethylamino)-2',7'-dimethylspiro[isoindole-1,9'-xanthen]-3(2H)-one
_symmetry_cell_setting           triclinic
_symmetry_space_group_name_H-M   'P -1'
_symmetry_Int_Tables_number      2
_space_group_name_Hall           '-P 1'
loop_
_symmetry_equiv_pos_site_id
_symmetry_equiv_pos_as_xyz
1 x,y,z
2 -x,-y,-z
_cell_length_a                   9.610(2)
_cell_length_b                   11.439(3)
_cell_length_c                   19.603(5)
_cell_angle_alpha                84.558(5)
_cell_angle_beta                 76.700(5)
_cell_angle_gamma                78.204(5)
_cell_volume                     2050.26
_cell_formula_units_Z            2
loop_
_atom_site_label
_atom_site_type_symbol
_atom_site_fract_x
_atom_site_fract_y
_atom_site_fract_z
C1 C 0.4016(5) 0.0890(4) 0.1564(2)
C2 C 0.5299(5) 0.0390(4) 0.1143(3)
C3 C 0.3609(6) 0.0300(5) 0.2209(3)
H1 H 0.2733 0.0616 0.2504
C4 C 0.4426(7) -0.0718(5) 0.2433(3)
C5 C 0.5720(7) -0.1204(5) 0.1997(3)
C6 C 0.6152(6) -0.0642(5) 0.1353(3)
H2 H 0.7026 -0.0960 0.1058
C7 C 0.5137(5) 0.1956(4) 0.0279(2)
C8 C 0.3846(5) 0.2556(4) 0.0655(2)
C9 C 0.3050(5) 0.1992(4) 0.1321(2)
C10 C 0.3925(6) 0.4164(5) -0.0251(3)
C11 C 0.5828(6) 0.2445(5) -0.0357(3)
H3 H 0.6697 0.2019 -0.0607
C12 C 0.5244(6) 0.3549(5) -0.0620(3)
C13 C 0.3269(5) 0.3665(4) 0.0365(2)
H4 H 0.2388 0.4083 0.0608
C14 C 0.3908(8) -0.1300(7) 0.3149(3)
H5 H 0.2996 -0.0839 0.3376
H6 H 0.4617 -0.1335 0.3428
H7 H 0.3784 -0.2095 0.3095
C15 C 0.3234(7) 0.5362(5) -0.0537(3)
H8 H 0.3845 0.5575 -0.0972
H9 H 0.3121 0.5959 -0.0205
H10 H 0.2297 0.5313 -0.0614
C16 C 0.7635(10) 0.3538(7) -0.1545(5)
H11 H 0.8133 0.4168 -0.1783
H12 H 0.8124 0.3143 -0.1181
C17 C 0.8141(12) -0.2645(8) 0.1858(6)
H13 H 0.8595 -0.1970 0.1660
H14 H 0.8677 -0.3093 0.2192
C18 C 0.8117(13) -0.3342(8) 0.1353(5)
H15 H 0.9094 -0.3627 0.1103
H16 H 0.7563 -0.2890 0.1034
H17 H 0.7676 -0.4010 0.1559
C19 C 0.1612(5) 0.1761(4) 0.1223(2)
C20 C 0.1368(6) 0.0941(5) 0.0810(3)
H18 H 0.2133 0.0414 0.0552
C21 C -0.0069(7) 0.0937(6) 0.0798(3)
H19 H -0.0261 0.0391 0.0525
C22 C -0.1222(6) 0.1708(6) 0.1171(3)
H20 H -0.2171 0.1696 0.1142
C23 C -0.0949(5) 0.2492(5) 0.1587(3)
H21 H -0.1711 0.3015 0.1851
C24 C 0.0469(5) 0.2495(4) 0.1609(2)
C25 C 0.1007(5) 0.3238(4) 0.2020(2)
C26 C 0.3097(5) 0.3784(4) 0.2719(2)
H22 H 0.2135 0.3818 0.2958
C27 C 0.9603(12) 0.7828(12) 0.5998(4)
H23 H 0.9369 0.7573 0.6468
C28 C 1.0607(11) 0.8332(8) 0.5816(5)
H24 H 1.1066 0.8545 0.6142
C29 C 0.6047(8) 1.0517(6) 0.3805(5)
H25 H 0.5230 1.1078 0.3988
C30 C 1.1096(7) 0.8605(7) 0.5068(5)
H26 H 1.1925 0.8934 0.4897
C31 C 1.0265(7) 0.8351(6) 0.4613(3)
H27 H 1.0544 0.8513 0.4132
C32 C 0.6807(13) 1.0693(8) 0.3157(5)
H28 H 0.6483 1.1350 0.2879
C33 C 0.8018(12) 0.9941(8) 0.2907(4)
H29 H 0.8588 1.0095 0.2468
C34 C 0.8755(10) 0.7594(8) 0.5557(4)
H30 H 0.7960 0.7234 0.5753
C35 C 0.6471(7) 0.9498(5) 0.4208(3)
H31 H 0.5924 0.9377 0.4657
C36 C 0.8424(8) 0.8928(6) 0.3305(3)
H32 H 0.9259 0.8388 0.3116
C37 C 0.9009(5) 0.6534(4) 0.3936(3)
H33 H 1.0021 0.6407 0.3825
C38 C 0.8170(5) 0.7557(4) 0.4384(3)
C39 C 0.7676(5) 0.8675(4) 0.3955(3)
C40 C 0.8332(5) 0.5816(5) 0.3700(3)
H34 H 0.8854 0.5232 0.3391
C41 C 0.9017(6) 0.7854(4) 0.4884(3)
C42 C 0.4062(5) 0.4289(4) 0.3029(2)
C43 C 0.5555(5) 0.4182(4) 0.2736(3)
H35 H 0.5949 0.3758 0.2332
C44 C 0.6448(5) 0.4679(4) 0.3025(2)
H36 H 0.7438 0.4568 0.2822
C45 C 0.5897(5) 0.5357(4) 0.3627(2)
C46 C 0.6780(5) 0.5948(4) 0.3926(2)
C47 C 0.6103(5) 0.6610(4) 0.4500(2)
C48 C 0.4654(5) 0.6692(4) 0.4817(2)
H37 H 0.4260 0.7127 0.5217
C49 C 0.3798(5) 0.6130(4) 0.4542(2)
H38 H 0.2818 0.6183 0.4755
C50 C 0.4393(5) 0.5470(4) 0.3938(2)
C51 C 0.3513(5) 0.4912(4) 0.3632(2)
H39 H 0.2533 0.4967 0.3846
C52 C 0.7552(15) 0.2760(10) -0.1996(5)
H40 H 0.8516 0.2380 -0.2217
H41 H 0.7056 0.3176 -0.2346
H42 H 0.7024 0.2166 -0.1747
N1 N 0.5936(6) 0.4046(5) -0.1232(3)
H43 H 0.5468 0.4628 -0.1450
N2 N 0.6583(7) -0.2230(5) 0.2206(4)
H44 H 0.6203 -0.2656 0.2557
N3 N 0.2492(4) 0.2859(3) 0.18904(18)
N4 N 0.3514(4) 0.3307(3) 0.2141(2)
O1 O 0.5845(4) 0.0868(3) 0.04872(18)
O2 O 0.0305(4) 0.4014(3) 0.24166(18)
O3 O 0.6889(3) 0.7181(3) 0.48258(16)
loop_
_geom_bond_atom_site_label_1
_geom_bond_atom_site_label_2
_geom_bond_site_symmetry_1
_geom_bond_site_symmetry_2
C1 C2 1_555 1_555
C2 C6 1_555 1_555
C3 C1 1_555 1_555
H1 C3 1_555 1_555
C4 C3 1_555 1_555
C5 C4 1_555 1_555
C6 C5 1_555 1_555
H2 C6 1_555 1_555
C7 C8 1_555 1_555
C8 C9 1_555 1_555
C9 C1 1_555 1_555
C10 C12 1_555 1_555
C11 C7 1_555 1_555
H3 C11 1_555 1_555
C12 C11 1_555 1_555
C13 C8 1_555 1_555
H4 C13 1_555 1_555
C14 C4 1_555 1_555
H5 C14 1_555 1_555
H6 C14 1_555 1_555
H7 C14 1_555 1_555
C15 C10 1_555 1_555
H8 C15 1_555 1_555
H9 C15 1_555 1_555
H10 C15 1_555 1_555
C16 H11 1_555 1_555
H12 C16 1_555 1_555
C17 H13 1_555 1_555
H14 C17 1_555 1_555
C18 C17 1_555 1_555
H15 C18 1_555 1_555
H16 C18 1_555 1_555
H17 C18 1_555 1_555
C19 C9 1_555 1_555
C20 C19 1_555 1_555
H18 C20 1_555 1_555
C21 C20 1_555 1_555
H19 C21 1_555 1_555
C22 C21 1_555 1_555
H20 C22 1_555 1_555
C23 C22 1_555 1_555
H21 C23 1_555 1_555
C24 C19 1_555 1_555
C25 C24 1_555 1_555
C26 H22 1_555 1_555
C27 H23 1_555 1_555
C28 C27 1_555 1_555
H24 C28 1_555 1_555
C29 H25 1_555 1_555
C30 C28 1_555 1_555
H26 C30 1_555 1_555
C31 C30 1_555 1_555
H27 C31 1_555 1_555
C32 C29 1_555 1_555
H28 C32 1_555 1_555
C33 C32 1_555 1_555
H29 C33 1_555 1_555
C34 C27 1_555 1_555
H30 C34 1_555 1_555
C35 C29 1_555 1_555
H31 C35 1_555 1_555
C36 C33 1_555 1_555
H32 C36 1_555 1_555
C37 H33 1_555 1_555
C38 C37 1_555 1_555
C39 C35 1_555 1_555
C40 C37 1_555 1_555
H34 C40 1_555 1_555
C41 C31 1_555 1_555
C42 C26 1_555 1_555
C43 C42 1_555 1_555
H35 C43 1_555 1_555
C44 C43 1_555 1_555
H36 C44 1_555 1_555
C45 C44 1_555 1_555
C46 C40 1_555 1_555
C47 C46 1_555 1_555
C48 C47 1_555 1_555
H37 C48 1_555 1_555
C49 C48 1_555 1_555
H38 C49 1_555 1_555
C50 C45 1_555 1_555
C51 C42 1_555 1_555
H39 C51 1_555 1_555
C52 C16 1_555 1_555
H40 C52 1_555 1_555
H41 C52 1_555 1_555
H42 C52 1_555 1_555
N1 C12 1_555 1_555
H43 N1 1_555 1_555
N2 C5 1_555 1_555
H44 N2 1_555 1_555
N3 C9 1_555 1_555
N4 C26 1_555 1_555
O1 C2 1_555 1_555
O2 C25 1_555 1_555
O3 C38 1_555 1_555
C7 O1 1_555 1_555
C10 C13 1_555 1_555
C16 N1 1_555 1_555
C17 N2 1_555 1_555
C23 C24 1_555 1_555
C25 N3 1_555 1_555
C34 C41 1_555 1_555
C36 C39 1_555 1_555
C38 C39 1_555 1_555
C38 C41 1_555 1_555
C45 C46 1_555 1_555
C47 O3 1_555 1_555
C49 C50 1_555 1_555
C50 C51 1_555 1_555
N3 N4 1_555 1_555

#END
