
#######################################################################
#
#                 Cambridge Crystallographic Data Centre
#                                CCDC 
#
#######################################################################
#
# If this CIF has been generated from an entry in the Cambridge 
# Structural Database, then it will include bibliographic, chemical, 
# crystal, experimental, refinement or atomic coordinate data resulting 
# from the CCDC's data processing and validation procedures.
#
#######################################################################

data_KUKDAX
_chemical_formula_moiety         'C30 H26 N2 O4'
_chemical_name_systematic        
2,2'-((4-(2-(3,4-Dimethoxyphenyl)vinyl)-1,3-phenylene)bis(nitrilomethylylidene))diphenol
_symmetry_cell_setting           monoclinic
_symmetry_space_group_name_H-M   'P 21/c'
_symmetry_Int_Tables_number      14
_space_group_name_Hall           '-P 2ybc'
loop_
_symmetry_equiv_pos_site_id
_symmetry_equiv_pos_as_xyz
1 x,y,z
2 -x,1/2+y,1/2-z
3 -x,-y,-z
4 x,1/2-y,1/2+z
_cell_length_a                   16.2631(17)
_cell_length_b                   5.6437(6)
_cell_length_c                   30.745(3)
_cell_angle_alpha                90
_cell_angle_beta                 119.369(2)
_cell_angle_gamma                90
_cell_volume                     2459.23
_cell_formula_units_Z            4
loop_
_atom_site_label
_atom_site_type_symbol
_atom_site_fract_x
_atom_site_fract_y
_atom_site_fract_z
N1 N 0.2669(3) 0.4821(8) 0.36178(16)
N2 N 0.5442(3) 0.7784(8) 0.35879(18)
O1 O 0.8799(3) 1.5797(9) 0.45048(17)
O2 O 0.9132(3) 1.9078(8) 0.51530(17)
O3 O 0.1912(3) 0.0893(7) 0.31542(15)
H1 H 0.2327 0.1885 0.3298
O4 O 0.7102(15) 0.940(3) 0.3726(8)
H2 H 0.6693 0.9156 0.3803
C1 C 0.3427(4) 0.6452(9) 0.38109(18)
C2 C 0.4055(4) 0.6276(9) 0.36248(19)
H3 H 0.3961 0.5112 0.3391
C3 C 0.4808(4) 0.7796(9) 0.3782(2)
C4 C 0.4963(3) 0.9619(9) 0.41369(18)
C5 C 0.4341(4) 0.9693(10) 0.4322(2)
H4 H 0.4440 1.0824 0.4563
C6 C 0.3591(4) 0.8203(10) 0.4172(2)
H5 H 0.3190 0.8339 0.4306
C7 C 0.5773(4) 1.1181(10) 0.4307(2)
H6 H 0.6214 1.0759 0.4211
C8 C 0.5968(4) 1.3135(9) 0.45822(19)
H7 H 0.5539 1.3583 0.4685
C9 C 0.6796(4) 1.4638(10) 0.47377(19)
C10 C 0.7402(4) 1.4448(11) 0.4538(2)
H8 H 0.7282 1.3297 0.4297
C11 C 0.8173(4) 1.5918(11) 0.4686(2)
C12 C 0.8360(4) 1.7738(10) 0.5039(2)
C13 C 0.7764(4) 1.7900(10) 0.5236(2)
H9 H 0.7883 1.9044 0.5478
C14 C 0.6996(4) 1.6424(10) 0.5088(2)
H10 H 0.6602 1.6627 0.5225
C15 C 0.8727(5) 1.3861(14) 0.4198(3)
H11 H 0.8747 1.2409 0.4366
H12 H 0.9242 1.3901 0.4130
H13 H 0.8141 1.3956 0.3890
C16 C 0.9379(5) 2.0904(12) 0.5519(3)
H14 H 0.8836 2.1874 0.5435
H15 H 0.9873 2.1863 0.5526
H16 H 0.9593 2.0201 0.5841
C17 C 0.1910(4) 0.5243(10) 0.36321(19)
H17 H 0.1871 0.6626 0.3785
C18 C 0.1107(4) 0.3641(9) 0.34175(19)
C19 C 0.1129(4) 0.1536(10) 0.3179(2)
C20 C 0.0349(5) 0.0073(10) 0.2958(2)
H18 H 0.0367 -0.1325 0.2803
C21 C -0.0460(4) 0.0716(12) 0.2971(2)
H19 H -0.0992 -0.0246 0.2818
C22 C -0.0488(5) 0.2746(11) 0.3206(2)
H20 H -0.1032 0.3141 0.3218
C23 C 0.0280(4) 0.4186(11) 0.3422(2)
H21 H 0.0250 0.5573 0.3578
C24 C 0.5480(4) 0.6236(12) 0.3316(2)
H22 H 0.5092 0.4913 0.3235
C25 C 0.62(3) 0.65(7) 0.311(13)
C26 C 0.694(2) 0.802(7) 0.3329(10)
C27 C 0.756(2) 0.819(4) 0.3149(10)
H23 H 0.8084 0.9158 0.3313
C28 C 0.742(5) 0.695(15) 0.274(3)
H24 H 0.7829 0.7153 0.2607
C29 C 0.667(3) 0.539(7) 0.2512(15)
H25 H 0.6591 0.4460 0.2243
C30 C 0.604(2) 0.522(6) 0.2692(11)
H26 H 0.5523 0.4227 0.2531
O5? O 0.6453(15) 1.027(2) 0.3352(9)
H27? H 0.6107 0.9981 0.3469
C31? C 0.60(3) 0.63(7) 0.310(13)
C32? C 0.652(2) 0.830(7) 0.3111(11)
C33? C 0.7069(19) 0.832(5) 0.2881(11)
H28? H 0.7381 0.9696 0.2879
C34? C 0.715(4) 0.629(13) 0.265(3)
H29? H 0.7536 0.6318 0.2506
C35? C 0.669(3) 0.425(7) 0.2640(12)
H30? H 0.6742 0.2906 0.2480
C36? C 0.614(2) 0.421(7) 0.2869(10)
H31? H 0.5828 0.2823 0.2872
loop_
_geom_bond_atom_site_label_1
_geom_bond_atom_site_label_2
_geom_bond_site_symmetry_1
_geom_bond_site_symmetry_2
N1 C1 1_555 1_555
N2 C3 1_555 1_555
O1 C11 1_555 1_555
O2 C12 1_555 1_555
O3 H1 1_555 1_555
O4 H2 1_555 1_555
C1 C2 1_555 1_555
C2 H3 1_555 1_555
C3 C2 1_555 1_555
C4 C3 1_555 1_555
C5 C4 1_555 1_555
H4 C5 1_555 1_555
C6 C1 1_555 1_555
H5 C6 1_555 1_555
C7 C4 1_555 1_555
H6 C7 1_555 1_555
C8 C7 1_555 1_555
H7 C8 1_555 1_555
C9 C8 1_555 1_555
C10 C9 1_555 1_555
H8 C10 1_555 1_555
C11 C10 1_555 1_555
C12 C11 1_555 1_555
C13 C12 1_555 1_555
H9 C13 1_555 1_555
C14 C9 1_555 1_555
H10 C14 1_555 1_555
C15 O1 1_555 1_555
H11 C15 1_555 1_555
H12 C15 1_555 1_555
H13 C15 1_555 1_555
C16 O2 1_555 1_555
H14 C16 1_555 1_555
H15 C16 1_555 1_555
H16 C16 1_555 1_555
C17 N1 1_555 1_555
H17 C17 1_555 1_555
C18 C17 1_555 1_555
C19 O3 1_555 1_555
C20 C19 1_555 1_555
H18 C20 1_555 1_555
C21 C20 1_555 1_555
H19 C21 1_555 1_555
C22 C21 1_555 1_555
H20 C22 1_555 1_555
C23 C18 1_555 1_555
H21 C23 1_555 1_555
C24 N2 1_555 1_555
H22 C24 1_555 1_555
C25 C24 1_555 1_555
C26 O4 1_555 1_555
C27 C26 1_555 1_555
H23 C27 1_555 1_555
C28 C27 1_555 1_555
H24 C28 1_555 1_555
C29 C28 1_555 1_555
H25 C29 1_555 1_555
C30 C25 1_555 1_555
H26 C30 1_555 1_555
C5 C6 1_555 1_555
C13 C14 1_555 1_555
C18 C19 1_555 1_555
C22 C23 1_555 1_555
C25 C26 1_555 1_555
C29 C30 1_555 1_555

#END
