
#######################################################################
#
#                 Cambridge Crystallographic Data Centre
#                                CCDC 
#
#######################################################################
#
# If this CIF has been generated from an entry in the Cambridge 
# Structural Database, then it will include bibliographic, chemical, 
# crystal, experimental, refinement or atomic coordinate data resulting 
# from the CCDC's data processing and validation procedures.
#
#######################################################################

data_KUKLOS
_chemical_formula_moiety         'C26 H33 N1 O2 S1'
_chemical_name_systematic        
4,8-Di-n-butyl-2-(p-tosyl)-1,2,3,5-tetrahydrocyclopenta[f]isoindole
_symmetry_cell_setting           triclinic
_symmetry_space_group_name_H-M   'P -1'
_symmetry_Int_Tables_number      2
_space_group_name_Hall           '-P 1'
loop_
_symmetry_equiv_pos_site_id
_symmetry_equiv_pos_as_xyz
1 x,y,z
2 -x,-y,-z
_cell_length_a                   10.1379(6)
_cell_length_b                   11.5843(6)
_cell_length_c                   12.3793(6)
_cell_angle_alpha                107.067(3)
_cell_angle_beta                 100.121(3)
_cell_angle_gamma                114.434(3)
_cell_volume                     1189.31
_cell_formula_units_Z            2
loop_
_atom_site_label
_atom_site_type_symbol
_atom_site_fract_x
_atom_site_fract_y
_atom_site_fract_z
C1 C 0.2844(6) 0.7756(7) 0.7527(4)
H1 H 0.2875 0.7702 0.8266
C2 C 0.3232(5) 0.9000(6) 0.7342(3)
H2 H 0.4304 0.9690 0.7802
H3 H 0.2590 0.9384 0.7584
C3 C 0.2951(4) 0.8587(5) 0.6026(3)
C4 C 0.3102(4) 0.9367(4) 0.5345(3)
C5 C 0.2684(3) 0.8623(3) 0.4109(3)
C6 C 0.2689(4) 0.9176(3) 0.3159(3)
H4 H 0.1900 0.9441 0.3049
H5 H 0.3685 0.9969 0.3348
C7 C 0.1783(4) 0.6673(3) 0.2275(3)
H6 H 0.2313 0.6173 0.2009
H7 H 0.0682 0.6072 0.1857
C8 C 0.2165(3) 0.7204(3) 0.3616(3)
C9 C 0.2037(4) 0.6406(4) 0.4281(3)
C10 C 0.2433(4) 0.7137(5) 0.5511(3)
C11 C 0.2427(5) 0.6668(6) 0.6495(4)
H8 H 0.2177 0.5773 0.6419
C12 C -0.0122(3) 0.7745(3) 0.0540(2)
C13 C -0.0268(4) 0.8922(3) 0.0786(3)
H9 H 0.0603 0.9794 0.1079
C14 C -0.1707(4) 0.8796(3) 0.0596(3)
H10 H -0.1800 0.9590 0.0765
C15 C -0.3021(4) 0.7512(4) 0.0158(3)
C16 C -0.2846(4) 0.6349(4) -0.0075(3)
H11 H -0.3717 0.5478 -0.0364
C17 C -0.1418(4) 0.6446(3) 0.0110(3)
H12 H -0.1325 0.5652 -0.0052
C18 C -0.4596(5) 0.7388(5) -0.0059(5)
H13 H -0.5323 0.6563 -0.0766
H14 H -0.4556 0.8186 -0.0170
H15 H -0.4910 0.7334 0.0620
C19 C 0.1513(4) 0.4890(4) 0.3719(3)
H16 H 0.0796 0.4495 0.2909
H17 H 0.0962 0.4441 0.4173
C20 C 0.2818(4) 0.4576(4) 0.3662(4)
H18 H 0.3495 0.4915 0.4476
H19 H 0.3414 0.5082 0.3259
C21 C 0.2283(5) 0.3033(4) 0.3009(4)
H20 H 0.1657 0.2519 0.3392
H21 H 0.1644 0.2700 0.2184
C22 C 0.3603(6) 0.2753(5) 0.3013(5)
H22 H 0.4295 0.3343 0.2723
H23 H 0.3215 0.1798 0.2500
H24 H 0.4143 0.2940 0.3817
C23 C 0.3632(4) 1.0896(4) 0.5886(3)
H25 H 0.4137 1.1322 0.5400
H26 H 0.4385 1.1317 0.6684
C24 C 0.2320(4) 1.1200(4) 0.5974(4)
H27 H 0.1600 1.0831 0.5171
H28 H 0.1773 1.0724 0.6416
C25 C 0.2864(5) 1.2736(4) 0.6590(4)
H29 H 0.3600 1.3112 0.7387
H30 H 0.3388 1.3211 0.6138
C26 C 0.1553(6) 1.3016(5) 0.6695(5)
H31 H 0.0883 1.2742 0.5907
H32 H 0.1959 1.3989 0.7155
H33 H 0.0984 1.2493 0.7090
N1 N 0.2351(3) 0.7974(3) 0.2088(2)
O1 O 0.1546(3) 0.6646(2) -0.00752(18)
O2 O 0.2720(3) 0.9212(2) 0.0769(2)
S1 S 0.17252(9) 0.79012(8) 0.07561(6)
loop_
_geom_bond_atom_site_label_1
_geom_bond_atom_site_label_2
_geom_bond_site_symmetry_1
_geom_bond_site_symmetry_2
C1 H1 1_555 1_555
C2 C1 1_555 1_555
H2 C2 1_555 1_555
H3 C2 1_555 1_555
C3 C2 1_555 1_555
C4 C3 1_555 1_555
C5 C4 1_555 1_555
C6 C5 1_555 1_555
H4 C6 1_555 1_555
H5 C6 1_555 1_555
C7 H6 1_555 1_555
H7 C7 1_555 1_555
C8 C5 1_555 1_555
C9 C8 1_555 1_555
C10 C3 1_555 1_555
C11 C1 1_555 1_555
H8 C11 1_555 1_555
C12 C13 1_555 1_555
C13 H9 1_555 1_555
C14 C13 1_555 1_555
H10 C14 1_555 1_555
C15 C14 1_555 1_555
C16 C15 1_555 1_555
H11 C16 1_555 1_555
C17 C12 1_555 1_555
H12 C17 1_555 1_555
C18 C15 1_555 1_555
H13 C18 1_555 1_555
H14 C18 1_555 1_555
H15 C18 1_555 1_555
C19 C9 1_555 1_555
H16 C19 1_555 1_555
H17 C19 1_555 1_555
C20 C19 1_555 1_555
H18 C20 1_555 1_555
H19 C20 1_555 1_555
C21 C20 1_555 1_555
H20 C21 1_555 1_555
H21 C21 1_555 1_555
C22 C21 1_555 1_555
H22 C22 1_555 1_555
H23 C22 1_555 1_555
H24 C22 1_555 1_555
C23 C4 1_555 1_555
H25 C23 1_555 1_555
H26 C23 1_555 1_555
C24 C23 1_555 1_555
H27 C24 1_555 1_555
H28 C24 1_555 1_555
C25 C24 1_555 1_555
H29 C25 1_555 1_555
H30 C25 1_555 1_555
C26 C25 1_555 1_555
H31 C26 1_555 1_555
H32 C26 1_555 1_555
H33 C26 1_555 1_555
N1 C6 1_555 1_555
O1 S1 1_555 1_555
O2 S1 1_555 1_555
S1 C12 1_555 1_555
C7 C8 1_555 1_555
C7 N1 1_555 1_555
C9 C10 1_555 1_555
C10 C11 1_555 1_555
C16 C17 1_555 1_555
N1 S1 1_555 1_555

#END
