
#######################################################################
#
#                 Cambridge Crystallographic Data Centre
#                                CCDC 
#
#######################################################################
#
# If this CIF has been generated from an entry in the Cambridge 
# Structural Database, then it will include bibliographic, chemical, 
# crystal, experimental, refinement or atomic coordinate data resulting 
# from the CCDC's data processing and validation procedures.
#
#######################################################################

data_KUKSOA
_chemical_formula_moiety         'C27 H18 N2,C1 H1 Cl3'
_chemical_name_systematic        
"5,6-diphenylnaphtho[1',2':4,5]imidazo[1,2-a]pyridine chloroform solvate"
_symmetry_cell_setting           triclinic
_symmetry_space_group_name_H-M   'P -1'
_symmetry_Int_Tables_number      2
_space_group_name_Hall           '-P 1'
loop_
_symmetry_equiv_pos_site_id
_symmetry_equiv_pos_as_xyz
1 x,y,z
2 -x,-y,-z
_cell_length_a                   9.043(2)
_cell_length_b                   10.807(2)
_cell_length_c                   13.279(3)
_cell_angle_alpha                106.641(5)
_cell_angle_beta                 90.549(5)
_cell_angle_gamma                107.250(5)
_cell_volume                     1181.1
_exptl_crystal_colour            colorless
_exptl_crystal_description       block
_cell_formula_units_Z            2
loop_
_atom_site_label
_atom_site_type_symbol
_atom_site_fract_x
_atom_site_fract_y
_atom_site_fract_z
C1 C 0.6506(4) 0.1094(4) 0.2586(3)
H1 H 0.6713 0.0670 0.3065
C2 C 0.6900(5) 0.0712(5) 0.1560(4)
H2 H 0.7387 0.0045 0.1358
C3 C 0.6573(6) 0.1314(6) 0.0843(3)
H3 H 0.6792 0.1027 0.0147
C4 C 0.5916(5) 0.2352(5) 0.1158(3)
H4 H 0.5739 0.2797 0.0687
C5 C 0.5529(4) 0.2716(4) 0.2173(3)
H5 H 0.5066 0.3399 0.2376
C6 C 0.5804(3) 0.2103(3) 0.2901(2)
C7 C 0.5292(3) 0.2438(3) 0.3987(2)
C8 C 0.6093(3) 0.3652(3) 0.4798(2)
C9 C 0.8308(3) 0.5055(3) 0.4047(2)
H6 H 0.8083 0.4476 0.3357
C10 C 0.9519(4) 0.6198(3) 0.4291(3)
H7 H 1.0131 0.6413 0.3769
C11 C 0.9873(4) 0.7082(3) 0.5343(3)
H8 H 1.0716 0.7874 0.5508
C12 C 0.8993(4) 0.6777(3) 0.6102(3)
H9 H 0.9244 0.7353 0.6792
C13 C 0.7705(3) 0.5605(3) 0.5864(2)
C14 C 0.5678(3) 0.3925(3) 0.5829(2)
C15 C 0.4359(3) 0.3027(3) 0.6100(2)
C16 C 0.3863(4) 0.3279(3) 0.7124(2)
H10 H 0.4423 0.4055 0.7659
C17 C 0.2572(4) 0.2395(4) 0.7335(3)
H11 H 0.2257 0.2567 0.8012
C18 C 0.1721(4) 0.1234(4) 0.6538(3)
H12 H 0.0834 0.0635 0.6682
C19 C 0.2187(3) 0.0974(3) 0.5547(2)
H13 H 0.1592 0.0201 0.5022
C20 C 0.3532(3) 0.1828(3) 0.5288(2)
C21 C 0.4035(3) 0.1545(3) 0.4238(2)
C22 C 0.3167(3) 0.0256(3) 0.3427(2)
C23 C 0.3244(4) -0.0991(3) 0.3468(3)
H14 H 0.3824 -0.1026 0.4035
C24 C 0.2481(4) -0.2183(3) 0.2685(3)
H15 H 0.2543 -0.3010 0.2729
C25 C 0.1625(4) -0.2136(3) 0.1837(3)
H16 H 0.1103 -0.2934 0.1308
C26 C 0.1544(4) -0.0924(4) 0.1774(2)
H17 H 0.0969 -0.0899 0.1200
C27 C 0.2310(3) 0.0277(3) 0.2556(2)
H18 H 0.2253 0.1100 0.2499
N1 N 0.6689(3) 0.5130(2) 0.64847(19)
N2 N 0.7399(3) 0.4740(2) 0.48163(18)
C28 C 0.1884(5) 0.3744(4) 0.1089(3)
H19 H 0.2466 0.4084 0.1791
Cl1 Cl 0.2926(2) 0.46468(17) 0.02964(11)
Cl2 Cl 0.1606(2) 0.20210(14) 0.06040(11)
Cl3 Cl 0.00829(14) 0.40400(14) 0.12222(12)
loop_
_geom_bond_atom_site_label_1
_geom_bond_atom_site_label_2
_geom_bond_site_symmetry_1
_geom_bond_site_symmetry_2
C1 H1 1_555 1_555
C2 C1 1_555 1_555
H2 C2 1_555 1_555
C3 C2 1_555 1_555
H3 C3 1_555 1_555
C4 C3 1_555 1_555
H4 C4 1_555 1_555
C5 C4 1_555 1_555
H5 C5 1_555 1_555
C6 C1 1_555 1_555
C7 C6 1_555 1_555
C8 C7 1_555 1_555
C9 H6 1_555 1_555
C10 C9 1_555 1_555
H7 C10 1_555 1_555
C11 C10 1_555 1_555
H8 C11 1_555 1_555
C12 C11 1_555 1_555
H9 C12 1_555 1_555
C13 C12 1_555 1_555
C14 C8 1_555 1_555
C15 C14 1_555 1_555
C16 C15 1_555 1_555
H10 C16 1_555 1_555
C17 C16 1_555 1_555
H11 C17 1_555 1_555
C18 C17 1_555 1_555
H12 C18 1_555 1_555
C19 C18 1_555 1_555
H13 C19 1_555 1_555
C20 C15 1_555 1_555
C21 C7 1_555 1_555
C22 C21 1_555 1_555
C23 C22 1_555 1_555
H14 C23 1_555 1_555
C24 C23 1_555 1_555
H15 C24 1_555 1_555
C25 C24 1_555 1_555
H16 C25 1_555 1_555
C26 C25 1_555 1_555
H17 C26 1_555 1_555
C27 C22 1_555 1_555
H18 C27 1_555 1_555
N1 C13 1_555 1_555
N2 C8 1_555 1_555
C28 H19 1_555 1_555
Cl1 C28 1_555 1_555
Cl2 C28 1_555 1_555
Cl3 C28 1_555 1_555
C5 C6 1_555 1_555
C9 N2 1_555 1_555
C13 N2 1_555 1_555
C14 N1 1_555 1_555
C19 C20 1_555 1_555
C20 C21 1_555 1_555
C26 C27 1_555 1_555

#END
