
#######################################################################
#
#                 Cambridge Crystallographic Data Centre
#                                CCDC 
#
#######################################################################
#
# If this CIF has been generated from an entry in the Cambridge 
# Structural Database, then it will include bibliographic, chemical, 
# crystal, experimental, refinement or atomic coordinate data resulting 
# from the CCDC's data processing and validation procedures.
#
#######################################################################

data_KUKXEV
_chemical_compound_source        'endophytic fungus Dothideomycete sp. CRI7'
_chemical_name_common            'Dothideomynone A'
_chemical_formula_moiety         'C12 H14 O6'
_chemical_name_systematic        
3,6,8-Trihydroxy-3-(hydroxymethyl)-4,5-dimethyl-3,4-dihydro-1H-isochromen-1-one
_chemical_properties_biological  
'Tested for cytotoxic activity, radical scavenging activity and inhibition of aromatase'
_symmetry_cell_setting           monoclinic
_symmetry_space_group_name_H-M   'P 21'
_symmetry_Int_Tables_number      4
_space_group_name_Hall           'P 2yb'
loop_
_symmetry_equiv_pos_site_id
_symmetry_equiv_pos_as_xyz
1 x,y,z
2 -x,1/2+y,-z
_cell_length_a                   12.1041(4)
_cell_length_b                   7.0450(2)
_cell_length_c                   13.2133(4)
_cell_angle_alpha                90
_cell_angle_beta                 98.301(1)
_cell_angle_gamma                90
_cell_volume                     1114.94
_exptl_crystal_colour            'yellow brown'
_exptl_crystal_description       Block
_cell_formula_units_Z            4
loop_
_atom_site_label
_atom_site_type_symbol
_atom_site_fract_x
_atom_site_fract_y
_atom_site_fract_z
C1 C 0.04692(19) 0.9121(4) 0.39647(17)
C2 C 0.17240(19) 0.9963(4) 0.54913(18)
C3 C 0.26428(17) 0.8838(4) 0.50954(17)
H1 H 0.3362 0.9408 0.5373
C4 C 0.25168(19) 0.8942(3) 0.39383(17)
C5 C 0.34275(18) 0.8817(4) 0.34130(19)
C6 C 0.3196(2) 0.8738(4) 0.23463(19)
C7 C 0.2128(2) 0.8761(4) 0.18101(18)
H2 H 0.2014 0.8683 0.1100
C8 C 0.1236(2) 0.8901(4) 0.23443(19)
C9 C 0.14161(19) 0.8989(4) 0.34123(18)
C10 C 0.1622(2) 0.9592(4) 0.66137(17)
H3 H 0.1096 1.0483 0.6836
H4 H 0.1335 0.8321 0.6684
C11 C 0.2663(2) 0.6749(4) 0.5418(2)
H5 H 0.1946 0.6189 0.5199
H6 H 0.2836 0.6662 0.6149
H7 H 0.3222 0.6085 0.5109
C12 C 0.4618(2) 0.8728(6) 0.3934(2)
H8 H 0.4994 0.9886 0.3810
H9 H 0.4990 0.7677 0.3667
H10 H 0.4628 0.8564 0.4656
O1 O 0.06180(13) 0.9386(3) 0.49749(12)
O2 O -0.05129(14) 0.8953(3) 0.35517(14)
O3 O 0.18766(14) 1.1880(3) 0.52855(13)
H11 H 0.1518 1.2529 0.5637
O4 O 0.40962(16) 0.8603(3) 0.18175(15)
H12 H 0.3875 0.8337 0.1218
O5 O 0.02015(16) 0.8926(4) 0.17929(14)
H13 H -0.0268 0.8955 0.2182
O6 O 0.26564(15) 0.9778(3) 0.72375(13)
H14 H 0.2765 1.0897 0.7391
C13 C 0.44825(19) 0.4247(3) 0.08500(18)
C14 C 0.31124(19) 0.5229(4) -0.05524(18)
C15 C 0.22313(18) 0.4083(4) -0.01124(17)
H15 H 0.1509 0.4709 -0.0309
C16 C 0.24747(19) 0.4058(3) 0.10439(17)
C17 C 0.16261(18) 0.3886(4) 0.16424(19)
C18 C 0.1949(2) 0.3687(4) 0.2699(2)
C19 C 0.3052(2) 0.3649(4) 0.31518(19)
H16 H 0.3230 0.3494 0.3855
C20 C 0.3887(2) 0.3843(4) 0.25486(19)
C21 C 0.36096(19) 0.4052(4) 0.14850(18)
C22 C 0.3059(2) 0.5146(4) -0.17213(18)
H17 H 0.2293 0.5363 -0.2031
H18 H 0.3507 0.6174 -0.1933
C23 C 0.2125(2) 0.2032(4) -0.04920(19)
H19 H 0.2841 0.1424 -0.0364
H20 H 0.1861 0.2022 -0.1213
H21 H 0.1605 0.1364 -0.0137
C24 C 0.0404(2) 0.3871(5) 0.1205(2)
H22 H 0.0100 0.5122 0.1250
H23 H 0.0014 0.3000 0.1585
H24 H 0.0321 0.3483 0.0502
O7 O 0.42333(14) 0.4550(3) -0.01535(13)
O8 O 0.54853(14) 0.4116(3) 0.11879(14)
O9 O 0.30232(16) 0.7111(3) -0.02521(14)
H25 H 0.3424 0.7780 -0.0554
O10 O 0.11021(16) 0.3524(3) 0.32805(15)
H26 H 0.1366 0.3294 0.3875
O11 O 0.49509(15) 0.3820(4) 0.30417(14)
H27 H 0.5386 0.3915 0.2623
O12 O 0.34268(15) 0.3435(4) -0.21052(14)
H28 H 0.4111 0.3400 -0.2005
loop_
_geom_bond_atom_site_label_1
_geom_bond_atom_site_label_2
_geom_bond_site_symmetry_1
_geom_bond_site_symmetry_2
C1 C9 1_555 1_555
C2 C3 1_555 1_555
C3 H1 1_555 1_555
C4 C3 1_555 1_555
C5 C4 1_555 1_555
C6 C5 1_555 1_555
C7 C6 1_555 1_555
H2 C7 1_555 1_555
C8 C7 1_555 1_555
C9 C4 1_555 1_555
C10 C2 1_555 1_555
H3 C10 1_555 1_555
H4 C10 1_555 1_555
C11 C3 1_555 1_555
H5 C11 1_555 1_555
H6 C11 1_555 1_555
H7 C11 1_555 1_555
C12 C5 1_555 1_555
H8 C12 1_555 1_555
H9 C12 1_555 1_555
H10 C12 1_555 1_555
O1 C1 1_555 1_555
O2 C1 1_555 1_555
O3 C2 1_555 1_555
H11 O3 1_555 1_555
O4 C6 1_555 1_555
H12 O4 1_555 1_555
O5 C8 1_555 1_555
H13 O5 1_555 1_555
O6 C10 1_555 1_555
H14 O6 1_555 1_555
C13 C21 1_555 1_555
C14 C15 1_555 1_555
C15 H15 1_555 1_555
C16 C15 1_555 1_555
C17 C16 1_555 1_555
C18 C17 1_555 1_555
C19 C18 1_555 1_555
H16 C19 1_555 1_555
C20 C19 1_555 1_555
C21 C16 1_555 1_555
C22 C14 1_555 1_555
H17 C22 1_555 1_555
H18 C22 1_555 1_555
C23 C15 1_555 1_555
H19 C23 1_555 1_555
H20 C23 1_555 1_555
H21 C23 1_555 1_555
C24 C17 1_555 1_555
H22 C24 1_555 1_555
H23 C24 1_555 1_555
H24 C24 1_555 1_555
O7 C13 1_555 1_555
O8 C13 1_555 1_555
O9 C14 1_555 1_555
H25 O9 1_555 1_555
O10 C18 1_555 1_555
H26 O10 1_555 1_555
O11 C20 1_555 1_555
H27 O11 1_555 1_555
O12 C22 1_555 1_555
H28 O12 1_555 1_555
C2 O1 1_555 1_555
C8 C9 1_555 1_555
C14 O7 1_555 1_555
C20 C21 1_555 1_555

#END
