
#######################################################################
#
#                 Cambridge Crystallographic Data Centre
#                                CCDC 
#
#######################################################################
#
# If this CIF has been generated from an entry in the Cambridge 
# Structural Database, then it will include bibliographic, chemical, 
# crystal, experimental, refinement or atomic coordinate data resulting 
# from the CCDC's data processing and validation procedures.
#
#######################################################################

data_KUKZIZ
_chemical_formula_moiety         'C15 H27 N1 O1'
_chemical_name_systematic        N-Neopentylmethyl-perhydroisoquinolin-1-one
_symmetry_cell_setting           monoclinic
_symmetry_space_group_name_H-M   'P 21/n'
_symmetry_Int_Tables_number      14
_space_group_name_Hall           '-P 2yn'
loop_
_symmetry_equiv_pos_site_id
_symmetry_equiv_pos_as_xyz
1 x,y,z
2 1/2-x,1/2+y,1/2-z
3 -x,-y,-z
4 1/2+x,1/2-y,1/2+z
_cell_length_a                   6.001(6)
_cell_length_b                   9.4868(17)
_cell_length_c                   26.197(3)
_cell_angle_alpha                90
_cell_angle_beta                 94.54(3)
_cell_angle_gamma                90
_cell_volume                     1486.72
_cell_formula_units_Z            4
loop_
_atom_site_label
_atom_site_type_symbol
_atom_site_fract_x
_atom_site_fract_y
_atom_site_fract_z
O1 O 0.3047(8) 0.6293(6) 0.21901(18)
N1 N -0.0163(9) 0.7335(6) 0.18875(18)
C1 C 0.1381(11) 0.6987(7) 0.22664(22)
C2 C -0.2259(11) 0.8070(8) 0.1941(3)
C3 C -0.2315(13) 0.8822(8) 0.2458(3)
C4 C -0.1387(11) 0.7856(7) 0.28794(24)
C5 C 0.1049(11) 0.7559(7) 0.28048(21)
C6 C 0.2114(13) 0.6563(8) 0.32165(25)
C7 C 0.1927(17) 0.7229(9) 0.3745(3)
C8 C -0.0479(19) 0.7552(10) 0.3829(3)
C9 C -0.1579(15) 0.8519(9) 0.3411(3)
C10 C 0.0172(12) 0.6810(8) 0.13605(22)
C11 C 0.1438(12) 0.7934(8) 0.10735(24)
C12 C 0.1968(12) 0.7503(8) 0.05291(24)
C13 C 0.3384(15) 0.6197(9) 0.0534(3)
C14 C 0.3275(18) 0.8716(10) 0.0317(3)
C15 C -0.0159(16) 0.7275(13) 0.0197(3)
H1 H -0.258 0.881 0.162
H2 H -0.365 0.730 0.191
H3 H -0.400 0.920 0.252
H4 H -0.125 0.979 0.245
H5 H -0.237 0.687 0.285
H6 H 0.194 0.856 0.285
H7 H 0.125 0.557 0.318
H8 H 0.386 0.641 0.314
H9 H 0.289 0.819 0.378
H10 H 0.259 0.649 0.404
H11 H -0.141 0.658 0.383
H12 H -0.053 0.804 0.421
H13 H -0.328 0.876 0.348
H14 H -0.065 0.955 0.342
H15 H 0.111 0.583 0.139
H16 H -0.145 0.660 0.115
H17 H 0.300 0.819 0.130
H18 H 0.044 0.891 0.104
H19 H 0.493 0.640 0.082
H20 H 0.259 0.530 0.068
H21 H 0.404 0.599 0.018
H22 H 0.480 0.894 0.059
H23 H 0.384 0.850 -0.005
H24 H 0.230 0.968 0.031
H25 H -0.117 0.645 0.036
H26 H -0.113 0.823 0.016
H27 H 0.020 0.693 -0.018
loop_
_geom_bond_atom_site_label_1
_geom_bond_atom_site_label_2
_geom_bond_site_symmetry_1
_geom_bond_site_symmetry_2
O1 C1 1_555 1_555
N1 C1 1_555 1_555
C1 C5 1_555 1_555
C2 N1 1_555 1_555
C3 C2 1_555 1_555
C4 C3 1_555 1_555
C5 C4 1_555 1_555
C6 C5 1_555 1_555
C7 C6 1_555 1_555
C8 C7 1_555 1_555
C9 C4 1_555 1_555
C10 N1 1_555 1_555
C11 C10 1_555 1_555
C12 C11 1_555 1_555
C13 C12 1_555 1_555
C14 C12 1_555 1_555
C15 C12 1_555 1_555
H1 C2 1_555 1_555
H2 C2 1_555 1_555
H3 C3 1_555 1_555
H4 C3 1_555 1_555
H5 C4 1_555 1_555
H6 C5 1_555 1_555
H7 C6 1_555 1_555
H8 C6 1_555 1_555
H9 C7 1_555 1_555
H10 C7 1_555 1_555
H11 C8 1_555 1_555
H12 C8 1_555 1_555
H13 C9 1_555 1_555
H14 C9 1_555 1_555
H15 C10 1_555 1_555
H16 C10 1_555 1_555
H17 C11 1_555 1_555
H18 C11 1_555 1_555
H19 C13 1_555 1_555
H20 C13 1_555 1_555
H21 C13 1_555 1_555
H22 C14 1_555 1_555
H23 C14 1_555 1_555
H24 C14 1_555 1_555
H25 C15 1_555 1_555
H26 C15 1_555 1_555
H27 C15 1_555 1_555
C8 C9 1_555 1_555

#END
