
#######################################################################
#
#                 Cambridge Crystallographic Data Centre
#                                CCDC 
#
#######################################################################
#
# If this CIF has been generated from an entry in the Cambridge 
# Structural Database, then it will include bibliographic, chemical, 
# crystal, experimental, refinement or atomic coordinate data resulting 
# from the CCDC's data processing and validation procedures.
#
#######################################################################

data_KUKZUM
_chemical_name_common            'AMG 221'
_chemical_formula_moiety         'C14 H22 N2 O1 S1'
_chemical_name_systematic        
2-(Bicyclo[2.2.1]hept-2-ylamino)-5-isopropyl-5-methyl-1,3-thiazol-4(5H)-one
_chemical_properties_biological  
'inhibitory activity against 11beta-hydroxysteroid dehydrogenase type 1'
_symmetry_cell_setting           monoclinic
_symmetry_space_group_name_H-M   'C 2'
_symmetry_Int_Tables_number      5
_space_group_name_Hall           'C 2y'
loop_
_symmetry_equiv_pos_site_id
_symmetry_equiv_pos_as_xyz
1 x,y,z
2 -x,y,-z
3 1/2+x,1/2+y,z
4 1/2-x,1/2+y,-z
_cell_length_a                   12.5603(11)
_cell_length_b                   18.4561(11)
_cell_length_c                   12.4825(9)
_cell_angle_alpha                90
_cell_angle_beta                 90.00
_cell_angle_gamma                90
_cell_volume                     2893.62
_exptl_crystal_colour            colorless
_exptl_crystal_description       chunk
_cell_formula_units_Z            8
loop_
_atom_site_label
_atom_site_type_symbol
_atom_site_fract_x
_atom_site_fract_y
_atom_site_fract_z
S1 S 0.88828(4) 0.33807(3) 0.32427(5)
O1 O 1.12275(13) 0.31843(9) 0.12963(14)
N1 N 1.01347(14) 0.24385(9) 0.22596(14)
N2 N 0.88374(15) 0.19433(12) 0.33670(15)
H1 H 0.9052(16) 0.1516(14) 0.3154(17)
C1 C 0.9928(3) 0.50068(18) 0.3117(4)
H2 H 0.959(2) 0.5244(18) 0.250(2)
H3 H 0.939(2) 0.4843(17) 0.367(2)
C2 C 1.1195(2) 0.40386(18) 0.3706(3)
H4 H 1.076(2) 0.3929(14) 0.431(2)
H5 H 1.1588(19) 0.3573(15) 0.346(2)
H6 H 1.168(2) 0.4391(15) 0.390(2)
C3 C 1.0539(2) 0.43341(12) 0.2783(2)
H7 H 1.1000(17) 0.4442(13) 0.2209(17)
C4 C 0.9202(3) 0.40493(19) 0.1305(2)
H8 H 0.864(2) 0.4352(13) 0.1557(18)
H9 H 0.970(2) 0.4295(17) 0.082(2)
H10 H 0.886(2) 0.3638(16) 0.094(2)
C5 C 0.98170(18) 0.37590(13) 0.22773(18)
C6 C 1.0479(2) 0.30981(13) 0.18944(19)
C7 C 0.93249(17) 0.25038(12) 0.29358(17)
C8 C 0.79566(17) 0.20026(13) 0.41245(18)
H11 H 0.7543(15) 0.2418(11) 0.3965(15)
C9 C 0.83174(18) 0.20248(13) 0.53005(18)
H12 H 0.8981(17) 0.2316(11) 0.5379(16)
C10 C 0.7354(2) 0.22578(15) 0.5968(2)
H13 H 0.702(2) 0.2671(17) 0.571(2)
H14 H 0.7586(17) 0.2354(11) 0.6725(19)
C11 C 0.6628(3) 0.15746(18) 0.5955(2)
H15 H 0.590(2) 0.1705(13) 0.5655(18)
H16 H 0.657(2) 0.1395(16) 0.666(2)
C12 C 0.7253(2) 0.10517(15) 0.52513(19)
H17 H 0.705(2) 0.0538(15) 0.534(2)
C13 C 0.72251(19) 0.13228(13) 0.40960(19)
H18 H 0.6491(16) 0.1453(12) 0.3882(15)
H19 H 0.7558(17) 0.0913(13) 0.3596(17)
C14 C 0.8397(2) 0.12193(15) 0.5562(2)
H20 H 0.8588(18) 0.1151(12) 0.624(2)
H21 H 0.8951(18) 0.0950(13) 0.5121(19)
H44 H 1.035(2) 0.5325(16) 0.349(2)
S2 S 0.42886(5) 0.46106(3) 0.86244(4)
O2 O 0.63910(14) 0.48392(9) 0.64219(14)
N3 N 0.53658(14) 0.55690(9) 0.74857(15)
N4 N 0.41903(14) 0.60605(12) 0.87121(14)
H22 H 0.4363(18) 0.6505(16) 0.8464(18)
C15 C 0.4389(3) 0.30278(17) 0.7427(3)
H23 H 0.373(2) 0.3141(16) 0.788(2)
H24 H 0.493(2) 0.2811(19) 0.783(2)
H25 H 0.417(2) 0.2717(17) 0.687(2)
C16 C 0.4828(2) 0.37100(13) 0.6905(2)
H26 H 0.5422(17) 0.3616(12) 0.6426(17)
C17 C 0.3983(3) 0.40664(18) 0.6189(2)
H27 H 0.336(2) 0.4201(13) 0.655(2)
H28 H 0.378(2) 0.3708(16) 0.559(2)
H29 H 0.4259(18) 0.4472(15) 0.5823(19)
C18 C 0.6206(2) 0.39011(16) 0.8370(3)
H30 H 0.679(2) 0.3746(15) 0.782(2)
H31 H 0.652(2) 0.4262(14) 0.8833(19)
H32 H 0.5938(18) 0.3525(14) 0.8862(19)
C19 C 0.52998(18) 0.42426(12) 0.77232(18)
C20 C 0.57397(19) 0.49110(13) 0.7136(2)
C21 C 0.46413(17) 0.54986(11) 0.82415(18)
C22 C 0.34219(17) 0.60063(13) 0.95995(17)
H33 H 0.3581(15) 0.5574(11) 1.0034(16)
C23 C 0.22729(18) 0.59390(13) 0.92192(19)
H34 H 0.2254(17) 0.5605(13) 0.8600(19)
C24 C 0.1607(2) 0.57051(17) 1.0198(3)
H35 H 0.187(2) 0.5297(19) 1.062(2)
H36 H 0.089(2) 0.5557(14) 0.995(2)
C25 C 0.1575(3) 0.64060(18) 1.0884(3)
H37 H 0.086(2) 0.6582(15) 1.094(2)
H38 H 0.1866(19) 0.6342(14) 1.157(2)
C26 C 0.2230(2) 0.69367(15) 1.0228(2)
H39 H 0.2171(17) 0.7420(13) 1.0394(18)
C27 C 0.33957(19) 0.67078(14) 1.0272(2)
H40 H 0.3650(17) 0.6642(12) 1.0970(19)
H41 H 0.3865(17) 0.7076(13) 0.9959(17)
C28 C 0.1950(2) 0.67287(16) 0.9087(2)
H42 H 0.1229(19) 0.6777(11) 0.8877(17)
H43 H 0.2365(18) 0.6996(13) 0.8562(18)
loop_
_geom_bond_atom_site_label_1
_geom_bond_atom_site_label_2
_geom_bond_site_symmetry_1
_geom_bond_site_symmetry_2
S1 C5 1_555 1_555
O1 C6 1_555 1_555
N1 C6 1_555 1_555
N2 H1 1_555 1_555
C1 H2 1_555 1_555
H3 C1 1_555 1_555
C2 H4 1_555 1_555
H5 C2 1_555 1_555
H6 C2 1_555 1_555
C3 C1 1_555 1_555
H7 C3 1_555 1_555
C4 H8 1_555 1_555
H9 C4 1_555 1_555
H10 C4 1_555 1_555
C5 C3 1_555 1_555
C6 C5 1_555 1_555
C7 S1 1_555 1_555
C8 N2 1_555 1_555
H11 C8 1_555 1_555
C9 C8 1_555 1_555
H12 C9 1_555 1_555
C10 C9 1_555 1_555
H13 C10 1_555 1_555
H14 C10 1_555 1_555
C11 C10 1_555 1_555
H15 C11 1_555 1_555
H16 C11 1_555 1_555
C12 C11 1_555 1_555
H17 C12 1_555 1_555
C13 C8 1_555 1_555
H18 C13 1_555 1_555
H19 C13 1_555 1_555
C14 C9 1_555 1_555
H20 C14 1_555 1_555
H21 C14 1_555 1_555
S2 C19 1_555 1_555
O2 C20 1_555 1_555
N3 C20 1_555 1_555
N4 H22 1_555 1_555
C15 H23 1_555 1_555
H24 C15 1_555 1_555
H25 C15 1_555 1_555
C16 C15 1_555 1_555
H26 C16 1_555 1_555
C17 C16 1_555 1_555
H27 C17 1_555 1_555
H28 C17 1_555 1_555
H29 C17 1_555 1_555
C18 H30 1_555 1_555
H31 C18 1_555 1_555
H32 C18 1_555 1_555
C19 C16 1_555 1_555
C20 C19 1_555 1_555
C21 S2 1_555 1_555
C22 N4 1_555 1_555
H33 C22 1_555 1_555
C23 C22 1_555 1_555
H34 C23 1_555 1_555
C24 C23 1_555 1_555
H35 C24 1_555 1_555
H36 C24 1_555 1_555
C25 C24 1_555 1_555
H37 C25 1_555 1_555
H38 C25 1_555 1_555
C26 C25 1_555 1_555
H39 C26 1_555 1_555
C27 C22 1_555 1_555
H40 C27 1_555 1_555
H41 C27 1_555 1_555
C28 C23 1_555 1_555
H42 C28 1_555 1_555
H43 C28 1_555 1_555
H44 C1 1_555 1_555
N1 C7 1_555 1_555
N2 C7 1_555 1_555
C2 C3 1_555 1_555
C4 C5 1_555 1_555
C12 C13 1_555 1_555
C12 C14 1_555 1_555
N3 C21 1_555 1_555
N4 C21 1_555 1_555
C18 C19 1_555 1_555
C26 C27 1_555 1_555
C26 C28 1_555 1_555

#END
