
#######################################################################
#
#                 Cambridge Crystallographic Data Centre
#                                CCDC 
#
#######################################################################
#
# If this CIF has been generated from an entry in the Cambridge 
# Structural Database, then it will include bibliographic, chemical, 
# crystal, experimental, refinement or atomic coordinate data resulting 
# from the CCDC's data processing and validation procedures.
#
#######################################################################

data_KULGIJ
_chemical_formula_moiety         'C15 H23 N1 O5 S1'
_chemical_name_systematic        
'2-Methoxy-6-(1-(methylsulfonyl)ethyl)phenyl diethylcarbamate'
_symmetry_cell_setting           monoclinic
_symmetry_space_group_name_H-M   'C 2'
_symmetry_Int_Tables_number      5
_space_group_name_Hall           'C 2y'
loop_
_symmetry_equiv_pos_site_id
_symmetry_equiv_pos_as_xyz
1 x,y,z
2 -x,y,-z
3 1/2+x,1/2+y,z
4 1/2-x,1/2+y,-z
_cell_length_a                   20.529(18)
_cell_length_b                   6.669(6)
_cell_length_c                   12.889(11)
_cell_angle_alpha                90
_cell_angle_beta                 95.761(13)
_cell_angle_gamma                90
_cell_volume                     1755.69
_exptl_crystal_colour            colorless
_exptl_crystal_description       plate
_cell_formula_units_Z            4
loop_
_atom_site_label
_atom_site_type_symbol
_atom_site_fract_x
_atom_site_fract_y
_atom_site_fract_z
N1 N 0.90759(12) 0.5228(4) 0.27997(18)
S1 S 0.65328(4) 0.78570(12) 0.45053(6)
O1 O 0.83786(10) 0.9423(3) 0.10856(15)
O2 O 0.58423(9) 0.7784(4) 0.41709(16)
O3 O 0.68208(10) 0.9798(3) 0.47475(15)
O4 O 0.82306(8) 0.7401(3) 0.28194(13)
O5 O 0.81618(9) 0.4814(3) 0.16609(16)
C1 C 0.84699(16) 1.0495(5) 0.0148(2)
H1 H 0.8919 1.0393 0.0008
H2 H 0.8358 1.1880 0.0231
H3 H 0.8193 0.9931 -0.0423
C2 C 0.77614(16) 0.9418(4) 0.1401(2)
C3 C 0.72253(17) 1.0418(5) 0.0893(2)
H4 H 0.7274 1.1193 0.0305
C4 C 0.66177(16) 1.0246(5) 0.1272(2)
H5 H 0.6260 1.0925 0.0940
C5 C 0.65397(15) 0.9086(5) 0.2129(2)
H6 H 0.6128 0.8982 0.2369
C6 C 0.70702(14) 0.8059(5) 0.26493(19)
C7 C 0.76716(13) 0.8281(4) 0.2279(2)
C8 C 0.69933(14) 0.6671(4) 0.3559(2)
H7 H 0.7432 0.6388 0.3900
C9 C 0.66853(16) 0.4663(5) 0.3188(2)
H8 H 0.6942 0.4069 0.2685
H9 H 0.6247 0.4889 0.2874
H10 H 0.6675 0.3777 0.3773
C10 C 0.66805(15) 0.6342(5) 0.5631(2)
H11 H 0.6450 0.6882 0.6180
H12 H 0.7141 0.6319 0.5850
H13 H 0.6530 0.5002 0.5473
C11 C 0.84748(15) 0.5714(5) 0.2357(2)
C12 C 0.94145(16) 0.3547(5) 0.2342(2)
H14 H 0.9105 0.2463 0.2187
H15 H 0.9757 0.3058 0.2852
C13 C 0.97129(16) 0.4113(7) 0.1358(3)
H16 H 0.9925 0.2963 0.1095
H17 H 1.0028 0.5162 0.1509
H18 H 0.9375 0.4572 0.0844
C14 C 0.94296(15) 0.6394(5) 0.3652(3)
H19 H 0.9705 0.5488 0.4091
H20 H 0.9113 0.6973 0.4075
C15 C 0.98419(18) 0.8019(7) 0.3292(3)
H21 H 1.0056 0.8710 0.3884
H22 H 0.9572 0.8944 0.2870
H23 H 1.0165 0.7457 0.2887
loop_
_geom_bond_atom_site_label_1
_geom_bond_atom_site_label_2
_geom_bond_site_symmetry_1
_geom_bond_site_symmetry_2
N1 C11 1_555 1_555
S1 O2 1_555 1_555
O1 C1 1_555 1_555
O3 S1 1_555 1_555
O4 C7 1_555 1_555
O5 C11 1_555 1_555
C1 H1 1_555 1_555
H2 C1 1_555 1_555
H3 C1 1_555 1_555
C2 O1 1_555 1_555
C3 C2 1_555 1_555
H4 C3 1_555 1_555
C4 C3 1_555 1_555
H5 C4 1_555 1_555
C5 C4 1_555 1_555
H6 C5 1_555 1_555
C6 C5 1_555 1_555
C7 C2 1_555 1_555
C8 S1 1_555 1_555
H7 C8 1_555 1_555
C9 C8 1_555 1_555
H8 C9 1_555 1_555
H9 C9 1_555 1_555
H10 C9 1_555 1_555
C10 S1 1_555 1_555
H11 C10 1_555 1_555
H12 C10 1_555 1_555
H13 C10 1_555 1_555
C11 O4 1_555 1_555
C12 N1 1_555 1_555
H14 C12 1_555 1_555
H15 C12 1_555 1_555
C13 C12 1_555 1_555
H16 C13 1_555 1_555
H17 C13 1_555 1_555
H18 C13 1_555 1_555
C14 N1 1_555 1_555
H19 C14 1_555 1_555
H20 C14 1_555 1_555
C15 C14 1_555 1_555
H21 C15 1_555 1_555
H22 C15 1_555 1_555
H23 C15 1_555 1_555
C6 C7 1_555 1_555
C6 C8 1_555 1_555

#END
