
#######################################################################
#
#                 Cambridge Crystallographic Data Centre
#                                CCDC 
#
#######################################################################
#
# If this CIF has been generated from an entry in the Cambridge 
# Structural Database, then it will include bibliographic, chemical, 
# crystal, experimental, refinement or atomic coordinate data resulting 
# from the CCDC's data processing and validation procedures.
#
#######################################################################

data_KULMUA
_chemical_formula_moiety         'C2 H5 N1 O2,1.5(H2 O2)'
_chemical_name_systematic        'Glycine sesquikis(hydrogen peroxide)'
_symmetry_cell_setting           triclinic
_symmetry_space_group_name_H-M   'P -1'
_symmetry_Int_Tables_number      2
_space_group_name_Hall           '-P 1'
loop_
_symmetry_equiv_pos_site_id
_symmetry_equiv_pos_as_xyz
1 x,y,z
2 -x,-y,-z
_cell_length_a                   7.2854(4)
_cell_length_b                   8.0045(5)
_cell_length_c                   9.6698(6)
_cell_angle_alpha                79.485(1)
_cell_angle_beta                 72.238(1)
_cell_angle_gamma                87.275(1)
_cell_volume                     527.986
_exptl_crystal_colour            colorless
_exptl_crystal_description       block
_chemical_melting_point          '56-60 deg.C'
_cell_formula_units_Z            4
loop_
_atom_site_label
_atom_site_type_symbol
_atom_site_fract_x
_atom_site_fract_y
_atom_site_fract_z
N1 N 0.42992(13) 0.37457(10) 0.84045(10)
C1 C 0.31051(14) 0.23349(11) 0.94539(10)
C2 C 0.36527(13) 0.06423(11) 0.89402(10)
O1 O 0.46957(10) 0.06565(8) 0.76509(7)
O2 O 0.29675(10) -0.06600(8) 0.98847(7)
H1 H 0.326(2) 0.2310(17) 1.0410(16)
H4 H 0.177(2) 0.2542(18) 0.9508(16)
H5 H 0.546(2) 0.3846(19) 0.8586(17)
H6 H 0.367(2) 0.476(2) 0.8502(18)
H7 H 0.457(2) 0.359(2) 0.744(2)
N2 N 0.23946(13) 0.85815(10) 0.52496(9)
C3 C 0.10950(14) 0.72080(12) 0.62464(11)
C4 C 0.17579(13) 0.54768(11) 0.58598(10)
O3 O 0.29915(12) 0.54065(9) 0.46605(8)
O4 O 0.09907(12) 0.42217(9) 0.68275(9)
H2 H 0.104(2) 0.7230(18) 0.7284(17)
H3 H -0.021(2) 0.7394(17) 0.6196(15)
H8 H 0.362(2) 0.8292(18) 0.5212(16)
H12 H 0.209(2) 0.956(2) 0.5650(17)
H14 H 0.228(2) 0.8753(18) 0.4334(17)
O5 O 0.61594(11) 0.77971(9) 0.55983(8)
O6 O 0.51095(13) 0.74552(10) 0.71801(8)
H10 H 0.503(2) 0.846(2) 0.7342(19)
H15 H 0.649(2) 0.672(2) 0.5504(18)
O7 O -0.08139(10) 0.91647(9) 0.27792(8)
O8 O 0.11985(11) 0.93957(10) 0.26946(8)
H11 H 0.174(2) 0.943(2) 0.1778(19)
H16 H -0.097(3) 0.801(2) 0.3053(19)
O9 O 0.22459(11) 0.54767(9) 0.10524(8)
O10 O 0.18010(11) 0.63367(9) -0.02805(8)
H9 H 0.123(2) 0.5575(18) 0.1683(18)
H13 H 0.226(2) 0.735(2) -0.0361(18)
loop_
_geom_bond_atom_site_label_1
_geom_bond_atom_site_label_2
_geom_bond_site_symmetry_1
_geom_bond_site_symmetry_2
N1 C1 1_555 1_555
C1 C2 1_555 1_555
C2 O1 1_555 1_555
O2 C2 1_555 1_555
N2 C3 1_555 1_555
C3 C4 1_555 1_555
C4 O3 1_555 1_555
O4 C4 1_555 1_555
O5 O6 1_555 1_555
O6 H10 1_555 1_555
O7 O8 1_555 1_555
O8 H11 1_555 1_555
O9 O10 1_555 1_555
O10 H13 1_555 1_555
H1 C1 1_555 1_555
H2 C3 1_555 1_555
H3 C3 1_555 1_555
H4 C1 1_555 1_555
H5 N1 1_555 1_555
H6 N1 1_555 1_555
H7 N1 1_555 1_555
H8 N2 1_555 1_555
H9 O9 1_555 1_555
H12 N2 1_555 1_555
H14 N2 1_555 1_555
H15 O5 1_555 1_555
H16 O7 1_555 1_555

#END
