
#######################################################################
#
#                 Cambridge Crystallographic Data Centre
#                                CCDC 
#
#######################################################################
#
# If this CIF has been generated from an entry in the Cambridge 
# Structural Database, then it will include bibliographic, chemical, 
# crystal, experimental, refinement or atomic coordinate data resulting 
# from the CCDC's data processing and validation procedures.
#
#######################################################################

data_KULNUB
_chemical_formula_moiety         'C10 H9 Cl4 N1 O3 S1'
_chemical_name_systematic        
'(R)-2,2,2-Trichloroethyl 2-(4-chlorophenyl)aziridine-1-sulfonate'
_symmetry_cell_setting           monoclinic
_symmetry_space_group_name_H-M   'P 21'
_symmetry_Int_Tables_number      4
_space_group_name_Hall           'P 2yb'
loop_
_symmetry_equiv_pos_site_id
_symmetry_equiv_pos_as_xyz
1 x,y,z
2 -x,1/2+y,-z
_cell_length_a                   10.4908(6)
_cell_length_b                   6.0700(4)
_cell_length_c                   12.0008(7)
_cell_angle_alpha                90
_cell_angle_beta                 104.370(3)
_cell_angle_gamma                90
_cell_volume                     740.291
_exptl_crystal_colour            colorless
_exptl_crystal_description       rod
_cell_formula_units_Z            2
loop_
_atom_site_label
_atom_site_type_symbol
_atom_site_fract_x
_atom_site_fract_y
_atom_site_fract_z
S1 S 0.42192(7) 0.56239(14) 0.29962(6)
Cl1 Cl 1.09715(8) -0.1027(2) 0.29579(9)
Cl2 Cl 0.13672(10) 0.3693(2) 0.01526(11)
C1 C 0.9792(3) 0.0779(7) 0.3224(3)
C2 C 0.7848(3) 0.3575(6) 0.3566(3)
C3 C 0.9001(3) 0.0121(7) 0.3934(3)
H1 H 0.9122 -0.1243 0.4298
C4 C 0.6820(3) 0.5162(6) 0.3710(3)
H2 H 0.6802 0.6560 0.3297
C5 C 0.6304(3) 0.5256(7) 0.4741(3)
H3 H 0.6014 0.6675 0.4957
H4 H 0.6708 0.4307 0.5382
C6 C 0.3667(4) 0.2404(6) 0.1559(3)
H5 H 0.3181 0.1923 0.2105
H6 H 0.4448 0.1497 0.1658
C7 C 0.8022(4) 0.1555(7) 0.4088(3)
H7 H 0.7476 0.1130 0.4554
C8 C 0.2823(3) 0.2188(6) 0.0347(3)
C9 C 0.9659(4) 0.2817(8) 0.2720(3)
H8 H 1.0215 0.3256 0.2266
C10 C 0.8688(3) 0.4211(7) 0.2896(3)
H9 H 0.8595 0.5601 0.2560
Cl3 Cl 0.24525(15) -0.0643(2) 0.01394(10)
Cl4 Cl 0.36710(15) 0.3087(3) -0.06643(10)
N1 N 0.5511(2) 0.4204(5) 0.3685(2)
O1 O 0.4030(2) 0.4691(4) 0.17501(18)
O2 O 0.4471(3) 0.7888(4) 0.2899(2)
O3 O 0.3157(2) 0.4951(5) 0.3459(2)
loop_
_geom_bond_atom_site_label_1
_geom_bond_atom_site_label_2
_geom_bond_site_symmetry_1
_geom_bond_site_symmetry_2
S1 N1 1_555 1_555
Cl1 C1 1_555 1_555
Cl2 C8 1_555 1_555
C1 C3 1_555 1_555
C2 C4 1_555 1_555
C3 H1 1_555 1_555
C4 H2 1_555 1_555
C5 C4 1_555 1_555
H3 C5 1_555 1_555
H4 C5 1_555 1_555
C6 H5 1_555 1_555
H6 C6 1_555 1_555
C7 C2 1_555 1_555
H7 C7 1_555 1_555
C8 C6 1_555 1_555
C9 C1 1_555 1_555
H8 C9 1_555 1_555
C10 C2 1_555 1_555
H9 C10 1_555 1_555
Cl3 C8 1_555 1_555
Cl4 C8 1_555 1_555
N1 C4 1_555 1_555
O1 S1 1_555 1_555
O2 S1 1_555 1_555
O3 S1 1_555 1_555
C3 C7 1_555 1_555
C5 N1 1_555 1_555
C6 O1 1_555 1_555
C9 C10 1_555 1_555

#END
