
#######################################################################
#
#                 Cambridge Crystallographic Data Centre
#                                CCDC 
#
#######################################################################
#
# If this CIF has been generated from an entry in the Cambridge 
# Structural Database, then it will include bibliographic, chemical, 
# crystal, experimental, refinement or atomic coordinate data resulting 
# from the CCDC's data processing and validation procedures.
#
#######################################################################

data_KULRUG
_chemical_formula_moiety         'C12 H9 N1 O3'
_chemical_name_systematic        6-(3-nitrophenyl)hexa-3,5-diyn-1-ol
_symmetry_cell_setting           triclinic
_symmetry_space_group_name_H-M   'P -1'
_symmetry_Int_Tables_number      2
_space_group_name_Hall           '-P 1'
loop_
_symmetry_equiv_pos_site_id
_symmetry_equiv_pos_as_xyz
1 x,y,z
2 -x,-y,-z
_cell_length_a                   4.9159(5)
_cell_length_b                   9.8984(11)
_cell_length_c                   11.3114(13)
_cell_angle_alpha                88.785(9)
_cell_angle_beta                 78.349(9)
_cell_angle_gamma                82.913(9)
_cell_volume                     534.945
_exptl_crystal_colour            pink
_exptl_crystal_description       Prism
_cell_formula_units_Z            2
loop_
_atom_site_label
_atom_site_type_symbol
_atom_site_fract_x
_atom_site_fract_y
_atom_site_fract_z
O1 O 0.6351(8) 0.5384(3) 0.8468(3)
O2 O -0.0772(7) 0.3273(3) -0.0147(3)
O3 O -0.3792(7) 0.1973(3) -0.0391(3)
N1 N -0.2072(7) 0.2296(3) 0.0150(3)
C1 C 0.5081(10) 0.4715(5) 0.7664(4)
H1 H 0.3858 0.5379 0.7311
H2 H 0.3947 0.4064 0.8110
C2 C 0.7231(9) 0.3988(5) 0.6677(4)
H3 H 0.8403 0.4635 0.6249
H4 H 0.8417 0.3306 0.7030
C3 C 0.5930(8) 0.3328(4) 0.5818(3)
C4 C 0.4756(8) 0.2826(4) 0.5153(3)
C5 C 0.3360(8) 0.2262(4) 0.4383(3)
C6 C 0.2139(8) 0.1790(4) 0.3717(3)
C7 C 0.0591(7) 0.1258(4) 0.2921(3)
C8 C 0.0084(7) 0.2013(4) 0.1916(3)
H5 H 0.0804 0.2836 0.1736
C9 C -0.1516(7) 0.1506(4) 0.1199(3)
C10 C -0.2568(8) 0.0280(4) 0.1415(3)
H6 H -0.3635 -0.0036 0.0912
C11 C -0.2003(9) -0.0465(4) 0.2393(4)
H7 H -0.2686 -0.1299 0.2554
C12 C -0.0436(9) 0.0010(4) 0.3138(3)
H8 H -0.0061 -0.0510 0.3795
H9 H 0.709(12) 0.455(6) 0.897(5)
loop_
_geom_bond_atom_site_label_1
_geom_bond_atom_site_label_2
_geom_bond_site_symmetry_1
_geom_bond_site_symmetry_2
O1 C1 1_555 1_555
O2 N1 1_555 1_555
O3 N1 1_555 1_555
N1 C9 1_555 1_555
C1 H1 1_555 1_555
H2 C1 1_555 1_555
C2 C1 1_555 1_555
H3 C2 1_555 1_555
H4 C2 1_555 1_555
C3 C2 1_555 1_555
C4 C3 1_555 1_555
C5 C4 1_555 1_555
C6 C5 1_555 1_555
C7 C6 1_555 1_555
C8 C7 1_555 1_555
H5 C8 1_555 1_555
C9 C8 1_555 1_555
C10 C9 1_555 1_555
H6 C10 1_555 1_555
C11 C10 1_555 1_555
H7 C11 1_555 1_555
C12 C7 1_555 1_555
H8 C12 1_555 1_555
H9 O1 1_555 1_555
C11 C12 1_555 1_555

#END
