
#######################################################################
#
#                 Cambridge Crystallographic Data Centre
#                                CCDC 
#
#######################################################################
#
# If this CIF has been generated from an entry in the Cambridge 
# Structural Database, then it will include bibliographic, chemical, 
# crystal, experimental, refinement or atomic coordinate data resulting 
# from the CCDC's data processing and validation procedures.
#
#######################################################################

data_KULTIU
_chemical_formula_moiety         'C25 H22 N4 P2 S2'
_chemical_name_systematic        
1,5-Methano-2,4,6,8-tri-aza-3,7-diphospha-1,5-dithiacyclo-octane
_symmetry_cell_setting           triclinic
_symmetry_space_group_name_H-M   'P -1'
_symmetry_Int_Tables_number      2
_space_group_name_Hall           '-P 1'
loop_
_symmetry_equiv_pos_site_id
_symmetry_equiv_pos_as_xyz
1 x,y,z
2 -x,-y,-z
_cell_length_a                   10.340(1)
_cell_length_b                   12.964(2)
_cell_length_c                   10.175(2)
_cell_angle_alpha                109.96(1)
_cell_angle_beta                 108.24(1)
_cell_angle_gamma                73.89(1)
_cell_volume                     1195.14
_cell_formula_units_Z            2
loop_
_atom_site_label
_atom_site_type_symbol
_atom_site_fract_x
_atom_site_fract_y
_atom_site_fract_z
S1 S 0.4664(1) 0.22483(9) 0.3086(1)
S2 S 0.6348(1) 0.04764(9) 0.4601(1)
P1 P 0.5715(1) 0.2767(1) 0.6109(1)
P2 P 0.7452(1) 0.1203(1) 0.2925(1)
N1 N 0.4697(4) 0.3073(3) 0.4664(4)
N2 N 0.6298(4) 0.1468(3) 0.6047(4)
N3 N 0.7538(4) 0.0389(3) 0.3855(4)
N4 N 0.6014(4) 0.2039(3) 0.2517(4)
C1 C 0.4769(5) 0.0897(4) 0.3341(5)
C2 C 0.7126(4) 0.3520(3) 0.6774(4)
C3 C 0.8384(5) 0.3118(4) 0.7616(5)
C4 C 0.9449(5) 0.3718(4) 0.8156(6)
C5 C 0.9260(5) 0.4712(4) 0.7877(5)
C6 C 0.8025(5) 0.5125(4) 0.7039(5)
C7 C 0.6963(5) 0.4526(4) 0.6490(5)
C8 C 0.4738(4) 0.3335(4) 0.7465(4)
C9 C 0.4697(5) 0.2686(4) 0.8279(5)
C10 C 0.3934(6) 0.3152(5) 0.9350(6)
C11 C 0.3258(6) 0.4233(4) 0.9572(6)
C12 C 0.3297(5) 0.4886(4) 0.8780(5)
C13 C 0.4040(5) 0.4432(4) 0.7719(5)
C14 C 0.7889(4) 0.0305(3) 0.1261(4)
C15 C 0.7796(5) 0.0783(4) 0.0190(5)
C16 C 0.8171(5) 0.0121(4) -0.1079(5)
C17 C 0.8632(5) -0.1002(4) -0.1276(5)
C18 C 0.8715(6) -0.1486(5) -0.0245(6)
C19 C 0.8340(5) -0.0831(4) 0.1039(5)
C20 C 0.8824(4) 0.1991(3) 0.3761(4)
C21 C 0.8672(5) 0.3000(4) 0.3483(5)
C22 C 0.9769(5) 0.3571(4) 0.4032(5)
C23 C 1.0986(5) 0.3162(4) 0.4881(5)
C24 C 1.1137(5) 0.2179(4) 0.5195(5)
C25 C 1.0053(5) 0.1586(4) 0.4631(5)
H1 H 0.4728 0.0345 0.2435
H2 H 0.3999 0.0942 0.3693
H3 H 0.8515 0.2428 0.7822
H4 H 1.0312 0.3436 0.8723
H5 H 0.9931 0.5124 0.8263
H6 H 0.7902 0.5816 0.6840
H7 H 0.6109 0.4808 0.5908
H8 H 0.5176 0.1930 0.8118
H9 H 0.3898 0.2712 0.9913
H10 H 0.2745 0.4541 1.0292
H11 H 0.2821 0.5643 0.8954
H12 H 0.4065 0.4881 0.7161
H13 H 0.7474 0.1566 0.0330
H14 H 0.8107 0.0448 -0.1808
H15 H 0.8900 -0.1453 -0.2140
H16 H 0.9026 -0.2271 -0.0400
H17 H 0.8394 -0.1168 0.1755
H18 H 0.7818 0.3301 0.2918
H19 H 0.9673 0.4250 0.3815
H20 H 1.1728 0.3561 0.5256
H21 H 1.1980 0.1902 0.5794
H22 H 1.0158 0.0904 0.4845
loop_
_geom_bond_atom_site_label_1
_geom_bond_atom_site_label_2
_geom_bond_site_symmetry_1
_geom_bond_site_symmetry_2
S1 N1 1_555 1_555
S2 N2 1_555 1_555
P1 N1 1_555 1_555
P2 N3 1_555 1_555
N2 P1 1_555 1_555
N3 S2 1_555 1_555
N4 S1 1_555 1_555
C1 S1 1_555 1_555
C2 P1 1_555 1_555
C3 C2 1_555 1_555
C4 C3 1_555 1_555
C5 C4 1_555 1_555
C6 C5 1_555 1_555
C7 C2 1_555 1_555
C8 P1 1_555 1_555
C9 C8 1_555 1_555
C10 C9 1_555 1_555
C11 C10 1_555 1_555
C12 C11 1_555 1_555
C13 C8 1_555 1_555
C14 P2 1_555 1_555
C15 C14 1_555 1_555
C16 C15 1_555 1_555
C17 C16 1_555 1_555
C18 C17 1_555 1_555
C19 C14 1_555 1_555
C20 P2 1_555 1_555
C21 C20 1_555 1_555
C22 C21 1_555 1_555
C23 C22 1_555 1_555
C24 C23 1_555 1_555
C25 C20 1_555 1_555
H1 C1 1_555 1_555
H2 C1 1_555 1_555
H3 C3 1_555 1_555
H4 C4 1_555 1_555
H5 C5 1_555 1_555
H6 C6 1_555 1_555
H7 C7 1_555 1_555
H8 C9 1_555 1_555
H9 C10 1_555 1_555
H10 C11 1_555 1_555
H11 C12 1_555 1_555
H12 C13 1_555 1_555
H13 C15 1_555 1_555
H14 C16 1_555 1_555
H15 C17 1_555 1_555
H16 C18 1_555 1_555
H17 C19 1_555 1_555
H18 C21 1_555 1_555
H19 C22 1_555 1_555
H20 C23 1_555 1_555
H21 C24 1_555 1_555
H22 C25 1_555 1_555
S2 C1 1_555 1_555
P2 N4 1_555 1_555
C6 C7 1_555 1_555
C12 C13 1_555 1_555
C18 C19 1_555 1_555
C24 C25 1_555 1_555

#END
