
#######################################################################
#
#                 Cambridge Crystallographic Data Centre
#                                CCDC 
#
#######################################################################
#
# If this CIF has been generated from an entry in the Cambridge 
# Structural Database, then it will include bibliographic, chemical, 
# crystal, experimental, refinement or atomic coordinate data resulting 
# from the CCDC's data processing and validation procedures.
#
#######################################################################

data_KUMBEA
_chemical_compound_source        
'endophytic fungal strain Botryosphaeria sp. MHF of Maytenus hookeri'
_chemical_name_common            
'rel-(3aS,5aR,6S,9aS,9bR)-3a-(Hydroxymethyl)-6,9a-dimethyl-2-oxo-1,2,3a,5a,6,7,8,9,9a,9b-decahydronaphtho[2,1-b]furan-6-carboxylic acid'
_chemical_formula_moiety         'C16 H22 O5'
_chemical_name_systematic        'Botryosphaerin B'
_chemical_properties_biological  
'tested for inhibitory activity against several pathogenic bacterial and fungal strains'
_symmetry_cell_setting           tetragonal
_symmetry_space_group_name_H-M   'P 41 21 2'
_symmetry_Int_Tables_number      92
_space_group_name_Hall           'P 4abw 2nw'
loop_
_symmetry_equiv_pos_site_id
_symmetry_equiv_pos_as_xyz
1 x,y,z
2 -x,-y,1/2+z
3 1/2-y,1/2+x,1/4+z
4 1/2+y,1/2-x,3/4+z
5 1/2-x,1/2+y,1/4-z
6 1/2+x,1/2-y,3/4-z
7 y,x,-z
8 -y,-x,1/2-z
_cell_length_a                   7.5979(5)
_cell_length_b                   7.5979(5)
_cell_length_c                   53.725(5)
_cell_angle_alpha                90
_cell_angle_beta                 90
_cell_angle_gamma                90
_cell_volume                     3101.44
_exptl_crystal_colour            colorless
_exptl_crystal_description       prismatic
_chemical_melting_point          '217-218 deg.C'
_cell_formula_units_Z            8
loop_
_atom_site_label
_atom_site_type_symbol
_atom_site_fract_x
_atom_site_fract_y
_atom_site_fract_z
O1 O -0.1185(6) -0.1028(6) 0.09884(10)
O2 O 0.0802(5) 0.1063(5) 0.10319(7)
O3 O -0.0662(6) 0.2398(6) 0.14564(8)
O4 O 0.2151(7) 0.5547(6) -0.00108(7)
O5 O 0.3719(5) 0.4353(6) 0.02915(7)
C1 C -0.1996(8) 0.5048(8) 0.05270(9)
H1 H -0.2908 0.4165 0.0507
H2 H -0.2427 0.5930 0.0642
C2 C -0.1652(8) 0.5908(10) 0.02773(11)
H3 H -0.2717 0.6483 0.0220
H4 H -0.1336 0.5013 0.0157
C3 C -0.0176(9) 0.7255(9) 0.02951(10)
H5 H -0.0569 0.8227 0.0398
H6 H 0.0058 0.7717 0.0130
C4 C 0.1553(8) 0.6521(7) 0.04038(9)
C5 C 0.1140(6) 0.5560(6) 0.06528(8)
H7 H 0.0680 0.6483 0.0762
C6 C 0.2709(6) 0.4842(7) 0.07880(8)
H8 H 0.3825 0.5243 0.0745
C7 C 0.2556(6) 0.3658(7) 0.09665(9)
H9 H 0.3579 0.3215 0.1038
C8 C 0.0846(6) 0.2997(6) 0.10587(9)
C9 C -0.0776(6) 0.3626(7) 0.09099(9)
H10 H -0.1302 0.4631 0.0997
C10 C -0.0364(6) 0.4183(7) 0.06367(8)
C11 C -0.2021(7) 0.2042(8) 0.09334(11)
H11 H -0.2857 0.2217 0.1068
H12 H -0.2663 0.1851 0.0780
C12 C -0.0831(8) 0.0532(7) 0.09878(11)
C13 C 0.0707(7) 0.3325(8) 0.13394(10)
H13 H 0.1813 0.2996 0.1417
H14 H 0.0534 0.4574 0.1367
C14 C 0.2840(10) 0.8076(7) 0.04557(11)
H15 H 0.3927 0.7624 0.0521
H16 H 0.2321 0.8861 0.0575
H17 H 0.3063 0.8700 0.0304
C15 C 0.2566(8) 0.5362(7) 0.02195(8)
C16 C 0.0172(7) 0.2560(7) 0.04796(10)
H18 H -0.0745 0.1692 0.0487
H19 H 0.1242 0.2071 0.0544
H20 H 0.0350 0.2912 0.0310
H21 H -0.161(9) 0.291(9) 0.1505(11)
H22 H 0.282(13) 0.494(12) -0.0104(17)
loop_
_geom_bond_atom_site_label_1
_geom_bond_atom_site_label_2
_geom_bond_site_symmetry_1
_geom_bond_site_symmetry_2
O1 C12 1_555 1_555
O2 C8 1_555 1_555
O3 C13 1_555 1_555
O4 C15 1_555 1_555
O5 C15 1_555 1_555
C1 H1 1_555 1_555
H2 C1 1_555 1_555
C2 C1 1_555 1_555
H3 C2 1_555 1_555
H4 C2 1_555 1_555
C3 C2 1_555 1_555
H5 C3 1_555 1_555
H6 C3 1_555 1_555
C4 C3 1_555 1_555
C5 C4 1_555 1_555
H7 C5 1_555 1_555
C6 C5 1_555 1_555
H8 C6 1_555 1_555
C7 C6 1_555 1_555
H9 C7 1_555 1_555
C8 C7 1_555 1_555
C9 C8 1_555 1_555
H10 C9 1_555 1_555
C10 C1 1_555 1_555
C11 C9 1_555 1_555
H11 C11 1_555 1_555
H12 C11 1_555 1_555
C12 O2 1_555 1_555
C13 C8 1_555 1_555
H13 C13 1_555 1_555
H14 C13 1_555 1_555
C14 C4 1_555 1_555
H15 C14 1_555 1_555
H16 C14 1_555 1_555
H17 C14 1_555 1_555
C15 C4 1_555 1_555
C16 C10 1_555 1_555
H18 C16 1_555 1_555
H19 C16 1_555 1_555
H20 C16 1_555 1_555
H21 O3 1_555 1_555
H22 O4 1_555 1_555
C5 C10 1_555 1_555
C9 C10 1_555 1_555
C11 C12 1_555 1_555

#END
