
#######################################################################
#
#                 Cambridge Crystallographic Data Centre
#                                CCDC 
#
#######################################################################
#
# If this CIF has been generated from an entry in the Cambridge 
# Structural Database, then it will include bibliographic, chemical, 
# crystal, experimental, refinement or atomic coordinate data resulting 
# from the CCDC's data processing and validation procedures.
#
#######################################################################

data_KUMCEB
_chemical_name_common            Sulfoaildenafil
_chemical_formula_moiety         'C23 H33 N6 O3 S2 1+,C1 H3 O3 S1 1-'
_chemical_name_systematic        
'4-((4-Ethoxy-3-(1-methyl-3-propyl-7-thioxo-6,7-dihydro-1H-pyrazolo[4,3-d]pyrimidin-5-yl)phenyl)sulfonyl)-2,6-dimethylpiperazin-1-ium methanesulfonate'
_chemical_properties_biological  
'Phosphodiesterase type 5 (PDE-5) inhibitor, with possible use in the treatment of erectile dysfunction'
_symmetry_cell_setting           monoclinic
_symmetry_space_group_name_H-M   'P 21/c'
_symmetry_Int_Tables_number      14
_space_group_name_Hall           '-P 2ybc'
loop_
_symmetry_equiv_pos_site_id
_symmetry_equiv_pos_as_xyz
1 x,y,z
2 -x,1/2+y,1/2-z
3 -x,-y,-z
4 x,1/2-y,1/2+z
_cell_length_a                   11.672(2)
_cell_length_b                   8.8661(19)
_cell_length_c                   28.251(6)
_cell_angle_alpha                90
_cell_angle_beta                 91.953(4)
_cell_angle_gamma                90
_cell_volume                     2921.86
_exptl_crystal_colour            yellow
_exptl_crystal_description       plate
_cell_formula_units_Z            4
_exptl_crystal_recrystallization_method 'diethyl ether/dimethylformamide'
loop_
_atom_site_label
_atom_site_type_symbol
_atom_site_fract_x
_atom_site_fract_y
_atom_site_fract_z
C1 C -0.0369(2) 0.7126(3) 0.17872(10)
C2 C -0.1248(2) 0.6264(3) 0.19650(10)
H1 H -0.1343 0.6200 0.2297
C3 C -0.1983(3) 0.5501(4) 0.16567(10)
H2 H -0.2576 0.4894 0.1777
C4 C -0.1860(2) 0.5617(4) 0.11674(10)
C5 C -0.0968(2) 0.6470(3) 0.09840(10)
C6 C -0.0231(2) 0.7223(3) 0.13026(10)
H3 H 0.0376 0.7814 0.1186
C7 C -0.0735(3) 0.6688(4) 0.04745(10)
C8 C -0.1345(3) 0.6072(4) -0.03458(10)
C9 C -0.0418(3) 0.7011(4) -0.04655(11)
C10 C 0.0264(3) 0.7701(3) -0.01100(11)
C11 C 0.1099(3) 0.8542(4) -0.03475(11)
C12 C 0.2027(3) 0.9493(4) -0.01256(12)
H4 H 0.2528 0.8840 0.0077
H5 H 0.1672 1.0244 0.0083
C13 C 0.2766(3) 1.0322(4) -0.04704(12)
H6 H 0.2271 1.0958 -0.0680
H7 H 0.3156 0.9578 -0.0671
C14 C 0.3670(3) 1.1320(5) -0.02188(15)
H8 H 0.3288 1.2077 -0.0027
H9 H 0.4130 1.1826 -0.0455
H10 H 0.4169 1.0693 -0.0014
C15 C -0.0355(3) 0.7091(4) -0.13691(11)
H11 H -0.1084 0.6543 -0.1367
H12 H 0.0225 0.6463 -0.1517
H13 H -0.0456 0.8029 -0.1549
C16 C -0.3471(3) 0.3931(4) 0.10092(12)
H14 H -0.3917 0.4428 0.1257
H15 H -0.3126 0.2997 0.1143
C17 C -0.4235(3) 0.3567(5) 0.05824(14)
H16 H -0.4586 0.4498 0.0459
H17 H -0.4837 0.2866 0.0674
H18 H -0.3778 0.3102 0.0337
C18 C 0.2517(2) 0.7019(4) 0.18814(10)
H19 H 0.2473 0.7888 0.1661
H20 H 0.2292 0.6099 0.1702
C19 C 0.3722(2) 0.6853(4) 0.20808(11)
H21 H 0.3958 0.7818 0.2239
C20 C 0.4554(3) 0.6500(4) 0.16977(13)
H22 H 0.5325 0.6372 0.1840
H23 H 0.4558 0.7332 0.1469
H24 H 0.4319 0.5568 0.1535
C21 C 0.1750(2) 0.6013(3) 0.26078(11)
H25 H 0.1535 0.5062 0.2444
H26 H 0.1189 0.6205 0.2856
C22 C 0.2939(2) 0.5878(3) 0.28293(10)
H27 H 0.3144 0.6848 0.2991
C23 C 0.3039(3) 0.4604(4) 0.31869(12)
H28 H 0.2882 0.3641 0.3027
H29 H 0.2485 0.4760 0.3435
H30 H 0.3817 0.4589 0.3329
S1 S -0.22954(8) 0.51568(11) -0.06933(3)
N1 N -0.1415(2) 0.5956(3) 0.01402(8)
H34 H -0.1949 0.5355 0.0246
N2 N 0.0104(2) 0.7568(3) 0.03650(8)
N3 N 0.0938(2) 0.8371(3) -0.08127(9)
N4 N 0.0019(2) 0.7443(3) -0.08834(9)
N5 N 0.1733(2) 0.7255(3) 0.22698(9)
N6 N 0.3752(2) 0.5612(3) 0.24416(9)
H35 H 0.3572 0.4714 0.2294
H36 H 0.4484 0.5530 0.2570
O1 O -0.25910(18) 0.4927(3) 0.08486(7)
O2 O 0.08628(18) 0.9509(2) 0.19095(7)
O3 O 0.00158(17) 0.8308(3) 0.26091(7)
S2 S 0.05486(6) 0.81819(9) 0.21645(3)
C24 C 0.6799(3) 0.6142(4) 0.36494(12)
H31 H 0.6951 0.6977 0.3870
H32 H 0.7520 0.5626 0.3585
H33 H 0.6267 0.5428 0.3790
O4 O 0.5135(2) 0.7601(3) 0.32319(10)
O5 O 0.59918(19) 0.5539(2) 0.28121(9)
O6 O 0.70280(19) 0.7877(2) 0.29311(9)
S3 S 0.61894(6) 0.68474(9) 0.31182(3)
loop_
_geom_bond_atom_site_label_1
_geom_bond_atom_site_label_2
_geom_bond_site_symmetry_1
_geom_bond_site_symmetry_2
C1 C2 1_555 1_555
C2 H1 1_555 1_555
C3 C2 1_555 1_555
H2 C3 1_555 1_555
C4 C3 1_555 1_555
C5 C4 1_555 1_555
C6 C1 1_555 1_555
H3 C6 1_555 1_555
C7 C5 1_555 1_555
C8 C9 1_555 1_555
C9 C10 1_555 1_555
C10 C11 1_555 1_555
C11 C12 1_555 1_555
C12 H4 1_555 1_555
H5 C12 1_555 1_555
C13 C12 1_555 1_555
H6 C13 1_555 1_555
H7 C13 1_555 1_555
C14 C13 1_555 1_555
H8 C14 1_555 1_555
H9 C14 1_555 1_555
H10 C14 1_555 1_555
C15 H11 1_555 1_555
H12 C15 1_555 1_555
H13 C15 1_555 1_555
C16 H14 1_555 1_555
H15 C16 1_555 1_555
C17 C16 1_555 1_555
H16 C17 1_555 1_555
H17 C17 1_555 1_555
H18 C17 1_555 1_555
C18 H19 1_555 1_555
H20 C18 1_555 1_555
C19 C18 1_555 1_555
H21 C19 1_555 1_555
C20 C19 1_555 1_555
H22 C20 1_555 1_555
H23 C20 1_555 1_555
H24 C20 1_555 1_555
C21 H25 1_555 1_555
H26 C21 1_555 1_555
C22 C21 1_555 1_555
H27 C22 1_555 1_555
C23 C22 1_555 1_555
H28 C23 1_555 1_555
H29 C23 1_555 1_555
H30 C23 1_555 1_555
C24 H31 1_555 1_555
H32 C24 1_555 1_555
H33 C24 1_555 1_555
S1 C8 1_555 1_555
N1 C7 1_555 1_555
H34 N1 1_555 1_555
N2 C7 1_555 1_555
N3 C11 1_555 1_555
N4 C9 1_555 1_555
N5 C18 1_555 1_555
N6 C19 1_555 1_555
H35 N6 1_555 1_555
H36 N6 1_555 1_555
O1 C4 1_555 1_555
O2 S2 1_555 1_555
O3 S2 1_555 1_555
O4 S3 1_555 1_555
O5 S3 1_555 1_555
O6 S3 1_555 1_555
S2 C1 1_555 1_555
S3 C24 1_555 1_555
C5 C6 1_555 1_555
C8 N1 1_555 1_555
C10 N2 1_555 1_555
C15 N4 1_555 1_555
C16 O1 1_555 1_555
C21 N5 1_555 1_555
C22 N6 1_555 1_555
N3 N4 1_555 1_555
N5 S2 1_555 1_555

#END
