
#######################################################################
#
#                 Cambridge Crystallographic Data Centre
#                                CCDC 
#
#######################################################################
#
# If this CIF has been generated from an entry in the Cambridge 
# Structural Database, then it will include bibliographic, chemical, 
# crystal, experimental, refinement or atomic coordinate data resulting 
# from the CCDC's data processing and validation procedures.
#
#######################################################################

data_KUMJEJ
_chemical_formula_moiety         'C27 H30 N2 O7'
_chemical_name_systematic        
't-butyl 3-(3-(ethoxycarbonyl)-5-nitro-4-phenylpentan-2-ylidene)-2-oxoindoline-1-carboxylate'
_symmetry_cell_setting           orthorhombic
_symmetry_space_group_name_H-M   'P 21 21 21'
_symmetry_Int_Tables_number      19
_space_group_name_Hall           'P 2ac 2ab'
loop_
_symmetry_equiv_pos_site_id
_symmetry_equiv_pos_as_xyz
1 x,y,z
2 1/2-x,-y,1/2+z
3 -x,1/2+y,1/2-z
4 1/2+x,1/2-y,-z
_cell_length_a                   9.3361(6)
_cell_length_b                   10.8334(7)
_cell_length_c                   25.4105(16)
_cell_angle_alpha                90
_cell_angle_beta                 90
_cell_angle_gamma                90
_cell_volume                     2570.06
_exptl_crystal_colour            colorless
_exptl_crystal_description       block
_cell_formula_units_Z            4
loop_
_atom_site_label
_atom_site_type_symbol
_atom_site_fract_x
_atom_site_fract_y
_atom_site_fract_z
N1 N 0.5194(4) 1.0881(3) 0.07250(14)
N2 N 0.2183(5) 0.8557(6) 0.33364(19)
O1 O 0.5092(5) 1.0982(3) 0.16340(14)
O2 O 0.5557(4) 1.2413(3) 0.01490(13)
O3 O 0.4871(6) 1.2899(4) 0.09742(15)
O4 O 0.6590(4) 0.8762(4) 0.27318(16)
O5 O 0.6439(4) 0.6993(4) 0.23040(18)
O6 O 0.1741(6) 0.7508(6) 0.3375(2)
O7 O 0.1677(6) 0.9387(7) 0.3596(2)
C1 C 0.5040(5) 1.0384(4) 0.12334(17)
C2 C 0.4827(5) 0.9011(4) 0.11691(17)
C3 C 0.4929(6) 0.8802(5) 0.06006(18)
C4 C 0.4802(11) 0.7745(6) 0.0294(2)
H1 H 0.4585 0.6985 0.0454
C5 C 0.4994(12) 0.7803(6) -0.0245(2)
H2 H 0.4955 0.7075 -0.0446
C6 C 0.5240(8) 0.8915(6) -0.0489(2)
H3 H 0.5339 0.8943 -0.0857
C7 C 0.5344(6) 0.9990(5) -0.01999(19)
H4 H 0.5536 1.0747 -0.0366
C8 C 0.5160(4) 0.9930(4) 0.03400(16)
C9 C 0.4313(7) 0.6862(5) 0.1450(2)
H5 H 0.3479 0.6790 0.1225
H6 H 0.4138 0.6432 0.1779
H7 H 0.5136 0.6500 0.1275
C10 C 0.4608(5) 0.8219(4) 0.15618(18)
C11 C 0.4664(4) 0.8593(4) 0.21393(16)
H8 H 0.4740 0.9503 0.2160
C12 C 0.3326(5) 0.8175(4) 0.24632(17)
H9 H 0.3373 0.7271 0.2518
C13 C 0.3432(5) 0.8818(5) 0.29954(18)
H10 H 0.4307 0.8545 0.3174
H11 H 0.3505 0.9711 0.2940
C14 C 0.5188(5) 1.2179(4) 0.06365(17)
C15 C 0.5529(6) 1.3707(4) -0.0053(2)
C16 C 0.4042(7) 1.4196(7) -0.0046(3)
H12 H 0.3412 1.3625 -0.0227
H13 H 0.4016 1.4991 -0.0221
H14 H 0.3727 1.4291 0.0315
C17 C 0.6568(7) 1.4490(7) 0.0264(3)
H15 H 0.6168 1.4649 0.0610
H16 H 0.6731 1.5267 0.0084
H17 H 0.7470 1.4053 0.0301
C18 C 0.6130(10) 1.3551(7) -0.0609(3)
H18 H 0.7081 1.3195 -0.0590
H19 H 0.6180 1.4350 -0.0780
H20 H 0.5509 1.3009 -0.0810
C19 C 0.5999(5) 0.8032(5) 0.23865(19)
C20 C 0.7762(6) 0.8232(7) 0.3049(3)
H21 H 0.7452 0.7455 0.3211
H22 H 0.8595 0.8063 0.2826
C21 C 0.8129(8) 0.9108(8) 0.3448(3)
H23 H 0.8497 0.9852 0.3284
H24 H 0.8855 0.8759 0.3676
H25 H 0.7284 0.9307 0.3653
C22 C 0.1941(4) 0.8489(5) 0.21851(18)
C23 C 0.1557(5) 0.9698(6) 0.2086(2)
H26 H 0.2182 1.0337 0.2184
C24 C 0.0265(6) 0.9989(8) 0.1843(3)
H27 H 0.0009 1.0816 0.1783
C25 C -0.0641(7) 0.9039(11) 0.1691(3)
H28 H -0.1510 0.9224 0.1521
C26 C -0.0278(6) 0.7831(9) 0.1785(3)
H29 H -0.0896 0.7193 0.1679
C27 C 0.1005(5) 0.7552(6) 0.2037(2)
H30 H 0.1241 0.6725 0.2108
loop_
_geom_bond_atom_site_label_1
_geom_bond_atom_site_label_2
_geom_bond_site_symmetry_1
_geom_bond_site_symmetry_2
N1 C1 1_555 1_555
N2 O6 1_555 1_555
O1 C1 1_555 1_555
O2 C14 1_555 1_555
O3 C14 1_555 1_555
O4 C19 1_555 1_555
O5 C19 1_555 1_555
O7 N2 1_555 1_555
C1 C2 1_555 1_555
C2 C3 1_555 1_555
C3 C4 1_555 1_555
C4 H1 1_555 1_555
C5 C4 1_555 1_555
H2 C5 1_555 1_555
C6 C5 1_555 1_555
H3 C6 1_555 1_555
C7 C6 1_555 1_555
H4 C7 1_555 1_555
C8 N1 1_555 1_555
C9 H5 1_555 1_555
H6 C9 1_555 1_555
H7 C9 1_555 1_555
C10 C2 1_555 1_555
C11 C10 1_555 1_555
H8 C11 1_555 1_555
C12 C11 1_555 1_555
H9 C12 1_555 1_555
C13 N2 1_555 1_555
H10 C13 1_555 1_555
H11 C13 1_555 1_555
C14 N1 1_555 1_555
C15 O2 1_555 1_555
C16 C15 1_555 1_555
H12 C16 1_555 1_555
H13 C16 1_555 1_555
H14 C16 1_555 1_555
C17 C15 1_555 1_555
H15 C17 1_555 1_555
H16 C17 1_555 1_555
H17 C17 1_555 1_555
C18 C15 1_555 1_555
H18 C18 1_555 1_555
H19 C18 1_555 1_555
H20 C18 1_555 1_555
C19 C11 1_555 1_555
C20 O4 1_555 1_555
H21 C20 1_555 1_555
H22 C20 1_555 1_555
C21 C20 1_555 1_555
H23 C21 1_555 1_555
H24 C21 1_555 1_555
H25 C21 1_555 1_555
C22 C12 1_555 1_555
C23 C22 1_555 1_555
H26 C23 1_555 1_555
C24 C23 1_555 1_555
H27 C24 1_555 1_555
C25 C24 1_555 1_555
H28 C25 1_555 1_555
C26 C25 1_555 1_555
H29 C26 1_555 1_555
C27 C22 1_555 1_555
H30 C27 1_555 1_555
C3 C8 1_555 1_555
C7 C8 1_555 1_555
C9 C10 1_555 1_555
C12 C13 1_555 1_555
C26 C27 1_555 1_555

#END
