
#######################################################################
#
#                 Cambridge Crystallographic Data Centre
#                                CCDC 
#
#######################################################################
#
# If this CIF has been generated from an entry in the Cambridge 
# Structural Database, then it will include bibliographic, chemical, 
# crystal, experimental, refinement or atomic coordinate data resulting 
# from the CCDC's data processing and validation procedures.
#
#######################################################################

data_KUMJAF
_chemical_formula_moiety         'C22 H25 Cl1 N2 O2'
_chemical_name_systematic        
1-(4-chlorophenyl)-3-methyl-4-(4-nitrophenyl)decahydroquinoline
_symmetry_cell_setting           orthorhombic
_symmetry_space_group_name_H-M   'P 21 21 21'
_symmetry_Int_Tables_number      19
_space_group_name_Hall           'P 2ac 2ab'
loop_
_symmetry_equiv_pos_site_id
_symmetry_equiv_pos_as_xyz
1 x,y,z
2 1/2-x,-y,1/2+z
3 1/2+x,1/2-y,-z
4 -x,1/2+y,1/2-z
_cell_length_a                   5.4832(3)
_cell_length_b                   15.7037(9)
_cell_length_c                   22.5368(12)
_cell_angle_alpha                90
_cell_angle_beta                 90
_cell_angle_gamma                90
_cell_volume                     1940.57
_cell_formula_units_Z            4
loop_
_atom_site_label
_atom_site_type_symbol
_atom_site_fract_x
_atom_site_fract_y
_atom_site_fract_z
Cl1 Cl 0.5793(3) 0.90662(9) 0.08599(5)
O1 O 0.0609(7) 0.8452(3) -0.57113(15)
O2 O 0.3847(7) 0.9212(3) -0.55957(15)
N1 N 0.3799(6) 0.8636(2) -0.17187(15)
N2 N 0.2118(8) 0.8794(3) -0.53945(19)
C1 C 0.1587(7) 0.9117(3) -0.18780(19)
H1 H 0.1632 0.9681 -0.1683
H2 H 0.0134 0.8809 -0.1730
C2 C 0.1372(8) 0.9236(3) -0.25410(19)
H3 H 0.2799 0.9582 -0.2677
C3 C 0.1447(7) 0.8380(3) -0.28674(19)
H4 H -0.0107 0.8074 -0.2775
C4 C 0.3571(8) 0.7818(3) -0.26413(19)
H5 H 0.5125 0.8087 -0.2778
C5 C 0.3670(8) 0.7768(3) -0.19629(18)
H6 H 0.2147 0.7488 -0.1816
C6 C 0.5862(8) 0.7238(3) -0.17700(19)
H7 H 0.7380 0.7533 -0.1889
H8 H 0.5864 0.7186 -0.1332
C7 C 0.5817(8) 0.6351(3) -0.20450(19)
H9 H 0.7326 0.6044 -0.1933
H10 H 0.4414 0.6030 -0.1883
C8 C 0.5620(8) 0.6381(3) -0.2716(2)
H11 H 0.5412 0.5796 -0.2871
H12 H 0.7145 0.6617 -0.2884
C9 C 0.3462(8) 0.6930(3) -0.29094(19)
H13 H 0.3455 0.6976 -0.3348
H14 H 0.1924 0.6650 -0.2787
C10 C 0.1562(7) 0.8492(3) -0.3530(2)
C11 C -0.0177(8) 0.8153(3) -0.3910(2)
H15 H -0.1509 0.7844 -0.3747
C12 C -0.0027(8) 0.8252(3) -0.4517(2)
H16 H -0.1237 0.8015 -0.4769
C13 C 0.1913(9) 0.8704(3) -0.4753(2)
C14 C 0.3676(8) 0.9054(3) -0.4388(2)
H17 H 0.4998 0.9365 -0.4554
C15 C 0.3497(8) 0.8949(3) -0.37868(19)
H18 H 0.4709 0.9191 -0.3537
C16 C 0.4223(8) 0.8705(3) -0.10933(18)
C17 C 0.2993(9) 0.8238(3) -0.0665(2)
H19 H 0.1800 0.7835 -0.0788
C18 C 0.3447(10) 0.8339(3) -0.0071(2)
H20 H 0.2593 0.8009 0.0215
C19 C 0.5165(9) 0.8930(3) 0.0105(2)
C20 C 0.6412(9) 0.9404(3) -0.0306(2)
H21 H 0.7599 0.9807 -0.0182
C21 C 0.5935(8) 0.9292(3) -0.0901(2)
H22 H 0.6795 0.9624 -0.1184
C22 C -0.0939(8) 0.9733(3) -0.26844(19)
H23 H -0.2357 0.9428 -0.2526
H24 H -0.1102 0.9791 -0.3116
H25 H -0.0846 1.0300 -0.2503
loop_
_geom_bond_atom_site_label_1
_geom_bond_atom_site_label_2
_geom_bond_site_symmetry_1
_geom_bond_site_symmetry_2
Cl1 C19 1_555 1_555
O1 N2 1_555 1_555
O2 N2 1_555 1_555
N1 C1 1_555 1_555
N2 C13 1_555 1_555
C1 H1 1_555 1_555
H2 C1 1_555 1_555
C2 C1 1_555 1_555
H3 C2 1_555 1_555
C3 C2 1_555 1_555
H4 C3 1_555 1_555
C4 C3 1_555 1_555
H5 C4 1_555 1_555
C5 N1 1_555 1_555
H6 C5 1_555 1_555
C6 C5 1_555 1_555
H7 C6 1_555 1_555
H8 C6 1_555 1_555
C7 C6 1_555 1_555
H9 C7 1_555 1_555
H10 C7 1_555 1_555
C8 C7 1_555 1_555
H11 C8 1_555 1_555
H12 C8 1_555 1_555
C9 C4 1_555 1_555
H13 C9 1_555 1_555
H14 C9 1_555 1_555
C10 C3 1_555 1_555
C11 C10 1_555 1_555
H15 C11 1_555 1_555
C12 C11 1_555 1_555
H16 C12 1_555 1_555
C13 C12 1_555 1_555
C14 C13 1_555 1_555
H17 C14 1_555 1_555
C15 C10 1_555 1_555
H18 C15 1_555 1_555
C16 N1 1_555 1_555
C17 C16 1_555 1_555
H19 C17 1_555 1_555
C18 C17 1_555 1_555
H20 C18 1_555 1_555
C19 C18 1_555 1_555
C20 C19 1_555 1_555
H21 C20 1_555 1_555
C21 C16 1_555 1_555
H22 C21 1_555 1_555
C22 C2 1_555 1_555
H23 C22 1_555 1_555
H24 C22 1_555 1_555
H25 C22 1_555 1_555
C4 C5 1_555 1_555
C8 C9 1_555 1_555
C14 C15 1_555 1_555
C20 C21 1_555 1_555

#END
