
#######################################################################
#
#                 Cambridge Crystallographic Data Centre
#                                CCDC 
#
#######################################################################
#
# If this CIF has been generated from an entry in the Cambridge 
# Structural Database, then it will include bibliographic, chemical, 
# crystal, experimental, refinement or atomic coordinate data resulting 
# from the CCDC's data processing and validation procedures.
#
#######################################################################

data_KUMQIU
_chemical_formula_moiety         'C34 H34 Br2'
_chemical_name_systematic        
1,1'-(1,2-bis(4-t-Butylphenyl)ethene-1,2-diyl)bis(4-bromobenzene)
_symmetry_cell_setting           triclinic
_symmetry_space_group_name_H-M   'P -1'
_symmetry_Int_Tables_number      2
_space_group_name_Hall           '-P 1'
loop_
_symmetry_equiv_pos_site_id
_symmetry_equiv_pos_as_xyz
1 x,y,z
2 -x,-y,-z
_cell_length_a                   10.245(16)
_cell_length_b                   11.054(17)
_cell_length_c                   13.64(2)
_cell_angle_alpha                86.50(3)
_cell_angle_beta                 79.29(3)
_cell_angle_gamma                89.76(3)
_cell_volume                     1514.93
_exptl_crystal_colour            colorless
_exptl_crystal_description       rod
_cell_formula_units_Z            2
loop_
_atom_site_label
_atom_site_type_symbol
_atom_site_fract_x
_atom_site_fract_y
_atom_site_fract_z
Br1 Br -0.49396(14) 0.97993(15) 0.26425(13)
Br2 Br 0.2363(2) 0.6319(2) 0.02559(12)
C1 C -0.3637(12) 0.9167(11) 0.3369(9)
C2 C -0.4014(11) 0.8567(11) 0.4271(10)
H1 H -0.4912 0.8442 0.4532
C3 C -0.3068(10) 0.8141(10) 0.4806(8)
H2 H -0.3338 0.7738 0.5429
C4 C -0.1732(9) 0.8303(8) 0.4429(7)
C5 C -0.1362(10) 0.8961(9) 0.3522(8)
H3 H -0.0467 0.9116 0.3271
C6 C -0.2307(12) 0.9391(9) 0.2983(9)
H4 H -0.2051 0.9823 0.2371
C7 C -0.0727(9) 0.7846(9) 0.5047(8)
C8 C 0.0453(10) 0.7336(8) 0.4652(8)
C9 C 0.0874(10) 0.7103(8) 0.3566(8)
C10 C 0.0074(11) 0.6493(10) 0.3030(8)
H5 H -0.0774 0.6232 0.3339
C11 C 0.0540(16) 0.6277(11) 0.2049(10)
H6 H 0.0009 0.5869 0.1691
C12 C 0.1766(16) 0.6657(12) 0.1599(9)
C13 C 0.2577(13) 0.7246(11) 0.2110(11)
H7 H 0.3427 0.7487 0.1791
C14 C 0.2138(10) 0.7480(10) 0.3093(9)
H8 H 0.2682 0.7889 0.3440
C15 C 0.1442(9) 0.6940(10) 0.5280(7)
C16 C 0.1885(10) 0.5728(9) 0.5259(7)
H9 H 0.1570 0.5188 0.4859
C17 C 0.2821(10) 0.5351(9) 0.5859(8)
H10 H 0.3133 0.4561 0.5827
C18 C 0.3285(10) 0.6100(10) 0.6486(7)
C19 C 0.2862(11) 0.7321(11) 0.6459(9)
H11 H 0.3199 0.7876 0.6835
C20 C 0.1948(11) 0.7687(10) 0.5873(9)
H12 H 0.1665 0.8487 0.5885
C21 C 0.4214(11) 0.5611(11) 0.7179(8)
C22 C 0.5431(12) 0.5067(14) 0.6538(10)
H13 H 0.5152 0.4446 0.6158
H14 H 0.6004 0.4723 0.6962
H15 H 0.5901 0.5691 0.6090
C23 C 0.4679(14) 0.6579(13) 0.7783(10)
H16 H 0.5261 0.6223 0.8195
H17 H 0.3925 0.6920 0.8198
H18 H 0.5147 0.7205 0.7337
C24 C 0.3504(16) 0.4675(16) 0.7922(12)
H19 H 0.3186 0.4039 0.7576
H20 H 0.2766 0.5041 0.8338
H21 H 0.4103 0.4343 0.8331
C25 C -0.1136(9) 0.7954(9) 0.6127(7)
C26 C -0.1457(9) 0.9083(9) 0.6500(7)
H22 H -0.1443 0.9755 0.6053
C27 C -0.1795(10) 0.9237(10) 0.7507(8)
H23 H -0.2027 1.0004 0.7722
C28 C -0.1799(10) 0.8282(11) 0.8205(8)
C29 C -0.1506(11) 0.7122(10) 0.7834(8)
H24 H -0.1539 0.6446 0.8278
C30 C -0.1173(11) 0.6987(10) 0.6820(9)
H25 H -0.0966 0.6219 0.6597
C31 C -0.2155(13) 0.8424(12) 0.9312(9)
C32 C -0.126(2) 0.780(2) 0.9873(18)
H26 H -0.0378 0.8109 0.9647
H27 H -0.1284 0.6949 0.9776
H28 H -0.1540 0.7932 1.0571
C33 C -0.353(3) 0.788(2) 0.9740(18)
H29 H -0.3736 0.7963 1.0448
H30 H -0.3538 0.7033 0.9611
H31 H -0.4189 0.8293 0.9429
C34 C -0.237(2) 0.971(2) 0.9644(17)
H32 H -0.1571 1.0175 0.9417
H33 H -0.2589 0.9687 1.0361
H34 H -0.3083 1.0071 0.9366
loop_
_geom_bond_atom_site_label_1
_geom_bond_atom_site_label_2
_geom_bond_site_symmetry_1
_geom_bond_site_symmetry_2
Br1 C1 1_555 1_555
Br2 C12 1_555 1_555
C1 C2 1_555 1_555
C2 H1 1_555 1_555
C3 C2 1_555 1_555
H2 C3 1_555 1_555
C4 C3 1_555 1_555
C5 C4 1_555 1_555
H3 C5 1_555 1_555
C6 C1 1_555 1_555
H4 C6 1_555 1_555
C7 C4 1_555 1_555
C8 C7 1_555 1_555
C9 C8 1_555 1_555
C10 C9 1_555 1_555
H5 C10 1_555 1_555
C11 C10 1_555 1_555
H6 C11 1_555 1_555
C12 C11 1_555 1_555
C13 C12 1_555 1_555
H7 C13 1_555 1_555
C14 C9 1_555 1_555
H8 C14 1_555 1_555
C15 C8 1_555 1_555
C16 C15 1_555 1_555
H9 C16 1_555 1_555
C17 C16 1_555 1_555
H10 C17 1_555 1_555
C18 C17 1_555 1_555
C19 C18 1_555 1_555
H11 C19 1_555 1_555
C20 C15 1_555 1_555
H12 C20 1_555 1_555
C21 C18 1_555 1_555
C22 C21 1_555 1_555
H13 C22 1_555 1_555
H14 C22 1_555 1_555
H15 C22 1_555 1_555
C23 C21 1_555 1_555
H16 C23 1_555 1_555
H17 C23 1_555 1_555
H18 C23 1_555 1_555
C24 C21 1_555 1_555
H19 C24 1_555 1_555
H20 C24 1_555 1_555
H21 C24 1_555 1_555
C25 C7 1_555 1_555
C26 C25 1_555 1_555
H22 C26 1_555 1_555
C27 C26 1_555 1_555
H23 C27 1_555 1_555
C28 C27 1_555 1_555
C29 C28 1_555 1_555
H24 C29 1_555 1_555
C30 C25 1_555 1_555
H25 C30 1_555 1_555
C31 C28 1_555 1_555
C32 C31 1_555 1_555
H26 C32 1_555 1_555
H27 C32 1_555 1_555
H28 C32 1_555 1_555
C33 C31 1_555 1_555
H29 C33 1_555 1_555
H30 C33 1_555 1_555
H31 C33 1_555 1_555
C34 C31 1_555 1_555
H32 C34 1_555 1_555
H33 C34 1_555 1_555
H34 C34 1_555 1_555
C5 C6 1_555 1_555
C13 C14 1_555 1_555
C19 C20 1_555 1_555
C29 C30 1_555 1_555

#END
