
#######################################################################
#
#                 Cambridge Crystallographic Data Centre
#                                CCDC 
#
#######################################################################
#
# If this CIF has been generated from an entry in the Cambridge 
# Structural Database, then it will include bibliographic, chemical, 
# crystal, experimental, refinement or atomic coordinate data resulting 
# from the CCDC's data processing and validation procedures.
#
#######################################################################

data_KUNMOV
_chemical_compound_source        'leaves of Kopsia fruticosa'
_chemical_name_common            Kopsine
_chemical_formula_moiety         'C22 H24 N2 O4'
_chemical_name_systematic        'Methyl 3-hydroxy-22-oxokopsan-1-carboxylate'
_symmetry_cell_setting           orthorhombic
_symmetry_space_group_name_H-M   'P 21 21 21'
_symmetry_Int_Tables_number      19
_space_group_name_Hall           'P 2ac 2ab'
loop_
_symmetry_equiv_pos_site_id
_symmetry_equiv_pos_as_xyz
1 x,y,z
2 1/2+x,1/2-y,-z
3 -x,1/2+y,1/2-z
4 1/2-x,-y,1/2+z
_cell_length_a                   10.193(3)
_cell_length_b                   11.966(1)
_cell_length_c                   14.802(3)
_cell_angle_alpha                90
_cell_angle_beta                 90
_cell_angle_gamma                90
_cell_volume                     1805.39
_chemical_melting_point          487-489K
_cell_formula_units_Z            4
loop_
_atom_site_label
_atom_site_type_symbol
_atom_site_fract_x
_atom_site_fract_y
_atom_site_fract_z
C1 C -0.7144(4) -0.2750(3) -0.7167(2)
N1 N -0.8026(3) -0.2595(2) -0.7970(2)
C2 C -0.7707(4) -0.1927(3) -0.8683(2)
O1 O -0.6634(3) -0.1515(2) -0.8814(2)
O2 O -0.8718(3) -0.1789(2) -0.9256(2)
C3 C -0.8381(4) -0.1217(4) -1.0093(2)
C4 C -0.5729(4) -0.3196(3) -0.7328(2)
O3 O -0.4842(3) -0.2575(2) -0.7851(2)
C5 C -0.5120(4) -0.3311(3) -0.6351(2)
C6 C -0.6129(4) -0.3135(3) -0.5580(2)
C7 C -0.5527(4) -0.3416(3) -0.4655(2)
C8 C -0.5334(4) -0.4674(3) -0.4523(2)
C9 C -0.6643(4) -0.5289(3) -0.4669(2)
N2 N -0.7282(3) -0.5037(2) -0.5536(2)
C10 C -0.6677(4) -0.5581(3) -0.6325(2)
C11 C -0.7111(4) -0.4848(3) -0.7132(2)
C12 C -0.7783(4) -0.3786(3) -0.6710(2)
C13 C -0.9195(4) -0.3693(3) -0.6966(2)
C14 C -1.0250(4) -0.4225(3) -0.6591(2)
C15 C -1.1479(4) -0.4039(3) -0.6970(2)
C16 C -1.1618(4) -0.3321(3) -0.7698(2)
C17 C -1.0543(4) -0.2794(3) -0.8094(2)
C18 C -0.9306(4) -0.2998(3) -0.7717(2)
C19 C -0.7373(4) -0.3841(3) -0.5716(2)
C20 C -0.6525(4) -0.1907(3) -0.5646(2)
C21 C -0.7166(4) -0.1688(3) -0.6585(2)
C22 C -0.5970(4) -0.4377(3) -0.7671(2)
O4 O -0.5373(3) -0.4843(2) -0.8266(2)
H1 H -0.519 -0.251 -0.848
H2 H -0.474 -0.407 -0.628
H3 H -0.440 -0.274 -0.627
H4 H -0.465 -0.303 -0.460
H5 H -0.612 -0.312 -0.417
H6 H -0.468 -0.495 -0.496
H7 H -0.502 -0.481 -0.389
H8 H -0.646 -0.611 -0.464
H9 H -0.725 -0.507 -0.416
H10 H -0.570 -0.558 -0.626
H11 H -0.700 -0.636 -0.639
H12 H -0.773 -0.525 -0.753
H13 H -1.014 -0.472 -0.605
H14 H -1.227 -0.442 -0.671
H15 H -1.251 -0.317 -0.794
H16 H -1.064 -0.228 -0.862
H17 H -0.808 -0.352 -0.533
H18 H -0.717 -0.173 -0.515
H19 H -0.573 -0.141 -0.557
H20 H -0.666 -0.108 -0.690
H21 H -0.809 -0.145 -0.649
H22 H -0.918 -0.114 -1.047
H23 H -0.803 -0.045 -0.994
H24 H -0.769 -0.165 -1.042
loop_
_geom_bond_atom_site_label_1
_geom_bond_atom_site_label_2
_geom_bond_site_symmetry_1
_geom_bond_site_symmetry_2
C1 N1 1_555 1_555
N1 C2 1_555 1_555
C2 O1 1_555 1_555
O2 C2 1_555 1_555
C3 O2 1_555 1_555
C4 C1 1_555 1_555
O3 C4 1_555 1_555
C5 C4 1_555 1_555
C6 C5 1_555 1_555
C7 C6 1_555 1_555
C8 C7 1_555 1_555
C9 C8 1_555 1_555
N2 C9 1_555 1_555
C10 N2 1_555 1_555
C11 C10 1_555 1_555
C12 C1 1_555 1_555
C13 C12 1_555 1_555
C14 C13 1_555 1_555
C15 C14 1_555 1_555
C16 C15 1_555 1_555
C17 C16 1_555 1_555
C18 N1 1_555 1_555
C19 C6 1_555 1_555
C20 C6 1_555 1_555
C21 C1 1_555 1_555
C22 C4 1_555 1_555
O4 C22 1_555 1_555
H1 O3 1_555 1_555
H2 C5 1_555 1_555
H3 C5 1_555 1_555
H4 C7 1_555 1_555
H5 C7 1_555 1_555
H6 C8 1_555 1_555
H7 C8 1_555 1_555
H8 C9 1_555 1_555
H9 C9 1_555 1_555
H10 C10 1_555 1_555
H11 C10 1_555 1_555
H12 C11 1_555 1_555
H13 C14 1_555 1_555
H14 C15 1_555 1_555
H15 C16 1_555 1_555
H16 C17 1_555 1_555
H17 C19 1_555 1_555
H18 C20 1_555 1_555
H19 C20 1_555 1_555
H20 C21 1_555 1_555
H21 C21 1_555 1_555
H22 C3 1_555 1_555
H23 C3 1_555 1_555
H24 C3 1_555 1_555
N2 C19 1_555 1_555
C11 C12 1_555 1_555
C11 C22 1_555 1_555
C12 C19 1_555 1_555
C13 C18 1_555 1_555
C17 C18 1_555 1_555
C20 C21 1_555 1_555

#END
