
#######################################################################
#
#                 Cambridge Crystallographic Data Centre
#                                CCDC 
#
#######################################################################
#
# If this CIF has been generated from an entry in the Cambridge 
# Structural Database, then it will include bibliographic, chemical, 
# crystal, experimental, refinement or atomic coordinate data resulting 
# from the CCDC's data processing and validation procedures.
#
#######################################################################

data_KUNPAM
_chemical_name_common            'Icariin monohydrate'
_chemical_formula_moiety         'C33 H40 O15,H2 O1'
_chemical_name_systematic        
'5-hydroxy-2-(4-methoxyphenyl)-8-(3-methylbut-2-en-1-yl)-7-((3,4,5-trihydroxy-6-(hydroxymethyl)tetrahydro-2H-pyran-2-yl)oxy)-3-((3,4,5-trihydroxy-6-methyltetrahydro-2H-pyran-2-yl)oxy)-4H-chromen-4-one monohydrate'
_symmetry_cell_setting           orthorhombic
_symmetry_space_group_name_H-M   'P 21 21 21'
_symmetry_Int_Tables_number      19
_space_group_name_Hall           'P 2ac 2ab'
loop_
_symmetry_equiv_pos_site_id
_symmetry_equiv_pos_as_xyz
1 x,y,z
2 1/2+x,1/2-y,-z
3 -x,1/2+y,1/2-z
4 1/2-x,-y,1/2+z
_cell_length_a                   9.6738(2)
_cell_length_b                   22.7931(5)
_cell_length_c                   30.9469(6)
_cell_angle_alpha                90
_cell_angle_beta                 90
_cell_angle_gamma                90
_cell_volume                     6823.66
_exptl_crystal_colour            yellow
_exptl_crystal_description       prism
_cell_formula_units_Z            8
loop_
_atom_site_label
_atom_site_type_symbol
_atom_site_fract_x
_atom_site_fract_y
_atom_site_fract_z
O1 O 0.2862(3) 0.47436(11) 1.01185(7)
H1 H 0.3255 0.4581 1.0320
O2 O 0.5458(2) 0.44586(9) 0.92743(7)
O3 O 0.3913(2) 0.44502(9) 0.86864(6)
O4 O 0.4542(2) 0.31492(9) 0.80333(6)
O5 O 0.7093(2) 0.27506(9) 0.67774(6)
O6 O 1.0477(3) 0.30415(10) 0.53723(7)
H2 H 1.108(4) 0.3268(17) 0.5484(12)
O7 O 0.5603(3) 0.48794(9) 0.80291(7)
O8 O 0.0768(3) 0.22104(10) 0.95078(7)
O9 O 0.7815(2) 0.33022(9) 0.62002(6)
O10 O 0.9884(3) 0.18823(10) 0.57023(7)
H3 H 1.014(4) 0.1961(16) 0.5459(12)
O11 O 0.8910(3) 0.18431(10) 0.65528(7)
O12 O 0.7365(3) 0.38398(10) 0.53903(7)
H4 H 0.752(4) 0.4083(17) 0.5151(13)
O13 O 0.7216(3) 0.46831(10) 0.73768(8)
O14 O 0.5244(2) 0.57231(10) 0.92210(7)
H5 H 0.492(4) 0.6129(16) 0.9273(11)
O15 O 0.2528(3) 0.57466(10) 0.95737(7)
H6 H 0.189(4) 0.5840(17) 0.9382(12)
C1 C 0.3853(4) 0.49047(14) 0.97996(9)
H7 H 0.4551 0.5165 0.9926
C2 C 0.4540(4) 0.43397(14) 0.96334(10)
H8 H 0.3825 0.4061 0.9542
C3 C 0.4916(4) 0.47824(14) 0.89292(9)
H9 H 0.5676 0.4891 0.8736
C4 C 0.4441(3) 0.40881(13) 0.83675(9)
C5 C 0.4072(3) 0.35129(14) 0.83582(9)
C6 C 0.5427(3) 0.33515(13) 0.77189(9)
C7 C 0.5847(3) 0.29426(13) 0.74094(9)
C8 C 0.6747(3) 0.31595(14) 0.70930(9)
C9 C 0.8223(3) 0.28704(14) 0.65007(9)
H10 H 0.9033 0.2999 0.6666
C10 C 0.8518(3) 0.23006(13) 0.62621(9)
H11 H 0.7689 0.2180 0.6103
C11 C 0.9679(3) 0.24076(13) 0.59460(9)
H12 H 1.0526 0.2494 0.6108
C12 C 0.9348(3) 0.29284(13) 0.56546(9)
H13 H 0.8547 0.2823 0.5477
C13 C 0.5435(4) 0.40607(16) 0.99762(10)
H14 H 0.5838 0.3707 0.9864
H15 H 0.4881 0.3969 1.0225
H16 H 0.6156 0.4328 1.0058
C14 C 0.5316(4) 0.43402(14) 0.80382(9)
C15 C 0.5841(3) 0.39390(13) 0.77172(9)
C16 C 0.3203(3) 0.31868(14) 0.86624(9)
C17 C 0.2218(3) 0.34691(15) 0.89187(9)
H17 H 0.2112 0.3873 0.8896
C18 C 0.1397(3) 0.31621(14) 0.92057(9)
H18 H 0.0753 0.3359 0.9375
C19 C 0.1537(4) 0.25577(15) 0.92405(10)
C20 C -0.0259(4) 0.24962(16) 0.97701(11)
H19 H 0.0188 0.2755 0.9971
H20 H -0.0779 0.2206 0.9926
H21 H -0.0870 0.2718 0.9588
C21 C 0.2513(4) 0.22698(16) 0.89891(10)
H22 H 0.2620 0.1866 0.9015
C22 C 0.3325(4) 0.25765(14) 0.87025(10)
H23 H 0.3963 0.2376 0.8533
C23 C 0.5467(3) 0.22986(13) 0.74277(9)
H24 H 0.4655 0.2248 0.7608
H25 H 0.5246 0.2160 0.7139
C24 C 0.6644(4) 0.19433(14) 0.76091(10)
H26 H 0.7114 0.2112 0.7840
C25 C 0.7104(4) 0.14170(14) 0.74819(10)
C26 C 0.8284(4) 0.11286(16) 0.77164(12)
H27 H 0.8680 0.1401 0.7918
H28 H 0.8975 0.1010 0.7512
H29 H 0.7950 0.0791 0.7869
C27 C 0.6483(4) 0.10626(15) 0.71223(10)
H30 H 0.5931 0.0753 0.7242
H31 H 0.7208 0.0898 0.6949
H32 H 0.5913 0.1311 0.6946
C28 C 0.8958(4) 0.34594(14) 0.59245(9)
H33 H 0.9748 0.3570 0.6105
C29 C 0.8512(4) 0.39875(14) 0.56599(10)
H34 H 0.8254 0.4306 0.5852
H35 H 0.9277 0.4120 0.5482
C30 C 0.7210(4) 0.37326(13) 0.70802(10)
H36 H 0.7815 0.3855 0.6865
C31 C 0.6761(4) 0.41198(14) 0.73928(10)
C32 C 0.4176(3) 0.53404(14) 0.90727(9)
H37 H 0.3700 0.5518 0.8826
C33 C 0.3144(3) 0.52042(14) 0.94263(9)
H38 H 0.2421 0.4947 0.9311
H39 H 0.668(5) 0.487(2) 0.7586(15)
H40 H 0.835(4) 0.1823(16) 0.6718(11)
O16 O 0.2305(3) 0.39326(12) 0.53949(8)
H41 H 0.237(5) 0.3997(19) 0.5150(14)
O17 O 0.3109(2) 0.32784(9) 0.61016(6)
O18 O 0.2559(2) 0.26931(9) 0.66751(6)
O19 O -0.0858(2) 0.44380(9) 0.85068(6)
O20 O 0.0162(2) 0.45831(9) 0.91788(6)
O21 O -0.2520(2) 0.54842(10) 0.96974(7)
H42 H -0.329(4) 0.5528(16) 0.9506(12)
O22 O 0.5381(3) 0.30824(10) 0.51608(7)
H43 H 0.614(4) 0.3255(16) 0.5297(12)
O23 O 0.2719(3) 0.46384(10) 0.72674(7)
H44 H 0.223(4) 0.4820(16) 0.7545(12)
O24 O 0.0958(3) 0.48527(9) 0.78797(7)
O25 O -0.1869(2) 0.61778(9) 0.89356(7)
H45 H -0.121(4) 0.6380(16) 0.9085(11)
O26 O 0.0906(2) 0.57567(10) 0.88472(7)
H46 H 0.083(4) 0.6136(16) 0.8726(11)
O27 O -0.0059(2) 0.31225(9) 0.78942(6)
O28 O -0.3968(3) 0.21065(11) 0.92782(8)
O29 O 0.4288(2) 0.18029(9) 0.63599(7)
H47 H 0.364(4) 0.1541(16) 0.6315(11)
O30 O 0.4950(3) 0.18847(10) 0.54871(7)
H48 H 0.528(4) 0.1957(16) 0.5228(13)
C34 C 0.3628(4) 0.40129(15) 0.55879(10)
H49 H 0.3570 0.4317 0.5806
H50 H 0.4282 0.4140 0.5370
C35 C 0.4138(4) 0.34498(13) 0.57934(9)
H51 H 0.5002 0.3532 0.5947
C36 C 0.3601(3) 0.28225(13) 0.63721(9)
H52 H 0.4462 0.2937 0.6516
C37 C 0.2227(3) 0.31043(14) 0.69836(9)
C38 C 0.1308(3) 0.29019(13) 0.72973(9)
C39 C 0.0854(3) 0.33187(13) 0.75942(9)
C40 C 0.1268(4) 0.39060(13) 0.75879(9)
C41 C 0.0661(4) 0.43130(14) 0.78903(10)
C42 C -0.0269(4) 0.40644(14) 0.82059(9)
C43 C 0.0134(4) 0.47811(13) 0.87495(9)
H53 H 0.1051 0.4724 0.8622
C44 C -0.1042(4) 0.47085(14) 0.94388(9)
H54 H -0.1841 0.4497 0.9321
C45 C -0.1333(3) 0.53648(14) 0.94331(9)
H55 H -0.0535 0.5570 0.9555
C46 C 0.4380(3) 0.29401(13) 0.54824(9)
H56 H 0.3504 0.2848 0.5338
C47 C 0.2719(4) 0.36805(14) 0.69727(10)
H57 H 0.3355 0.3797 0.6764
C48 C 0.2240(4) 0.40754(14) 0.72781(9)
C49 C -0.1541(3) 0.55719(13) 0.89701(9)
H58 H -0.2318 0.5350 0.8849
C50 C -0.0262(3) 0.54206(13) 0.87061(10)
H59 H -0.0443 0.5508 0.8401
C51 C -0.0713(4) 0.44764(16) 0.98817(10)
H60 H -0.0661 0.4056 0.9872
H61 H -0.1425 0.4593 1.0080
H62 H 0.0158 0.4632 0.9976
C52 C -0.0579(3) 0.34827(14) 0.82080(9)
C53 C 0.0865(3) 0.22689(13) 0.73347(9)
H63 H -0.0108 0.2253 0.7410
H64 H 0.0978 0.2078 0.7057
C54 C 0.1683(3) 0.19438(14) 0.76679(10)
H65 H 0.1765 0.2123 0.7937
C55 C 0.2305(4) 0.14278(14) 0.76231(10)
C56 C 0.2253(4) 0.10640(15) 0.72191(10)
H66 H 0.1664 0.0731 0.7265
H67 H 0.3168 0.0932 0.7148
H68 H 0.1895 0.1296 0.6986
C57 C 0.3113(4) 0.11529(15) 0.79881(11)
H69 H 0.3060 0.1400 0.8239
H70 H 0.4061 0.1109 0.7903
H71 H 0.2730 0.0775 0.8055
C58 C -0.1435(3) 0.31381(14) 0.85046(9)
C59 C -0.2518(4) 0.33796(15) 0.87516(9)
H72 H -0.2689 0.3781 0.8741
C60 C -0.3319(4) 0.30259(15) 0.90066(10)
H73 H -0.4024 0.3190 0.9171
C61 C -0.3092(4) 0.24234(16) 0.90223(10)
C62 C -0.3814(6) 0.14780(18) 0.92729(16)
H74 H -0.3863 0.1339 0.8980
H75 H -0.4541 0.1302 0.9440
H76 H -0.2936 0.1374 0.9395
C63 C -0.2016(4) 0.21771(15) 0.87878(10)
H77 H -0.1842 0.1776 0.8802
C64 C -0.1202(4) 0.25383(14) 0.85317(10)
H78 H -0.0481 0.2374 0.8374
C65 C 0.3806(3) 0.22728(13) 0.61002(9)
H79 H 0.2919 0.2162 0.5971
C66 C 0.4831(4) 0.24055(13) 0.57428(9)
H80 H 0.5732 0.2489 0.5874
O31 O 0.980(3) 0.5039(6) 0.1376(6)
O33 O 0.4559(19) 0.4768(8) 0.1203(6)
O32? O 1.1315(9) 0.4907(3) 0.1473(2)
O34? O 0.3417(10) 0.4585(4) 0.0977(2)
loop_
_geom_bond_atom_site_label_1
_geom_bond_atom_site_label_2
_geom_bond_site_symmetry_1
_geom_bond_site_symmetry_2
O1 H1 1_555 1_555
O2 C2 1_555 1_555
O3 C3 1_555 1_555
O4 C5 1_555 1_555
O5 C8 1_555 1_555
O6 H2 1_555 1_555
O7 C14 1_555 1_555
O8 C19 1_555 1_555
O9 C9 1_555 1_555
O10 H3 1_555 1_555
O11 C10 1_555 1_555
O12 H4 1_555 1_555
O13 C31 1_555 1_555
O14 H5 1_555 1_555
O15 H6 1_555 1_555
C1 O1 1_555 1_555
H7 C1 1_555 1_555
C2 C1 1_555 1_555
H8 C2 1_555 1_555
C3 O2 1_555 1_555
H9 C3 1_555 1_555
C4 O3 1_555 1_555
C5 C4 1_555 1_555
C6 O4 1_555 1_555
C7 C6 1_555 1_555
C8 C7 1_555 1_555
C9 O5 1_555 1_555
H10 C9 1_555 1_555
C10 C9 1_555 1_555
H11 C10 1_555 1_555
C11 O10 1_555 1_555
H12 C11 1_555 1_555
C12 O6 1_555 1_555
H13 C12 1_555 1_555
C13 C2 1_555 1_555
H14 C13 1_555 1_555
H15 C13 1_555 1_555
H16 C13 1_555 1_555
C14 C4 1_555 1_555
C15 C6 1_555 1_555
C16 C5 1_555 1_555
C17 C16 1_555 1_555
H17 C17 1_555 1_555
C18 C17 1_555 1_555
H18 C18 1_555 1_555
C19 C18 1_555 1_555
C20 O8 1_555 1_555
H19 C20 1_555 1_555
H20 C20 1_555 1_555
H21 C20 1_555 1_555
C21 C19 1_555 1_555
H22 C21 1_555 1_555
C22 C16 1_555 1_555
H23 C22 1_555 1_555
C23 C7 1_555 1_555
H24 C23 1_555 1_555
H25 C23 1_555 1_555
C24 C23 1_555 1_555
H26 C24 1_555 1_555
C25 C24 1_555 1_555
C26 C25 1_555 1_555
H27 C26 1_555 1_555
H28 C26 1_555 1_555
H29 C26 1_555 1_555
C27 C25 1_555 1_555
H30 C27 1_555 1_555
H31 C27 1_555 1_555
H32 C27 1_555 1_555
C28 O9 1_555 1_555
H33 C28 1_555 1_555
C29 O12 1_555 1_555
H34 C29 1_555 1_555
H35 C29 1_555 1_555
C30 C8 1_555 1_555
H36 C30 1_555 1_555
C31 C15 1_555 1_555
C32 O14 1_555 1_555
H37 C32 1_555 1_555
C33 O15 1_555 1_555
H38 C33 1_555 1_555
H39 O13 1_555 1_555
H40 O11 1_555 1_555
O16 H41 1_555 1_555
O17 C35 1_555 1_555
O18 C36 1_555 1_555
O19 C42 1_555 1_555
O20 C43 1_555 1_555
O21 H42 1_555 1_555
O22 H43 1_555 1_555
O23 H44 1_555 1_555
O24 C41 1_555 1_555
O25 H45 1_555 1_555
O26 H46 1_555 1_555
O27 C39 1_555 1_555
O28 C61 1_555 1_555
O29 H47 1_555 1_555
O30 H48 1_555 1_555
C34 O16 1_555 1_555
H49 C34 1_555 1_555
H50 C34 1_555 1_555
C35 C34 1_555 1_555
H51 C35 1_555 1_555
C36 O17 1_555 1_555
H52 C36 1_555 1_555
C37 O18 1_555 1_555
C38 C37 1_555 1_555
C39 C38 1_555 1_555
C40 C39 1_555 1_555
C41 C40 1_555 1_555
C42 C41 1_555 1_555
C43 O19 1_555 1_555
H53 C43 1_555 1_555
C44 O20 1_555 1_555
H54 C44 1_555 1_555
C45 O21 1_555 1_555
H55 C45 1_555 1_555
C46 O22 1_555 1_555
H56 C46 1_555 1_555
C47 C37 1_555 1_555
H57 C47 1_555 1_555
C48 O23 1_555 1_555
C49 O25 1_555 1_555
H58 C49 1_555 1_555
C50 O26 1_555 1_555
H59 C50 1_555 1_555
C51 C44 1_555 1_555
H60 C51 1_555 1_555
H61 C51 1_555 1_555
H62 C51 1_555 1_555
C52 O27 1_555 1_555
C53 C38 1_555 1_555
H63 C53 1_555 1_555
H64 C53 1_555 1_555
C54 C53 1_555 1_555
H65 C54 1_555 1_555
C55 C54 1_555 1_555
C56 C55 1_555 1_555
H66 C56 1_555 1_555
H67 C56 1_555 1_555
H68 C56 1_555 1_555
C57 C55 1_555 1_555
H69 C57 1_555 1_555
H70 C57 1_555 1_555
H71 C57 1_555 1_555
C58 C52 1_555 1_555
C59 C58 1_555 1_555
H72 C59 1_555 1_555
C60 C59 1_555 1_555
H73 C60 1_555 1_555
C61 C60 1_555 1_555
C62 O28 1_555 1_555
H74 C62 1_555 1_555
H75 C62 1_555 1_555
H76 C62 1_555 1_555
C63 C61 1_555 1_555
H77 C63 1_555 1_555
C64 C58 1_555 1_555
H78 C64 1_555 1_555
C65 O29 1_555 1_555
H79 C65 1_555 1_555
C66 O30 1_555 1_555
H80 C66 1_555 1_555
C1 C33 1_555 1_555
C3 C32 1_555 1_555
C10 C11 1_555 1_555
C11 C12 1_555 1_555
C12 C28 1_555 1_555
C14 C15 1_555 1_555
C21 C22 1_555 1_555
C28 C29 1_555 1_555
C30 C31 1_555 1_555
C32 C33 1_555 1_555
C35 C46 1_555 1_555
C36 C65 1_555 1_555
C40 C48 1_555 1_555
C42 C52 1_555 1_555
C43 C50 1_555 1_555
C44 C45 1_555 1_555
C45 C49 1_555 1_555
C46 C66 1_555 1_555
C47 C48 1_555 1_555
C49 C50 1_555 1_555
C63 C64 1_555 1_555
C65 C66 1_555 1_555

#END
