
#######################################################################
#
#                 Cambridge Crystallographic Data Centre
#                                CCDC 
#
#######################################################################
#
# If this CIF has been generated from an entry in the Cambridge 
# Structural Database, then it will include bibliographic, chemical, 
# crystal, experimental, refinement or atomic coordinate data resulting 
# from the CCDC's data processing and validation procedures.
#
#######################################################################

data_KUNYID
_chemical_formula_moiety         'C15 H12 N4 O2,C2 H6 O1 S1'
_chemical_name_systematic        
'N-(4-methylphenyl)-6-nitroquinazolin-4-amine dimethyl sulfoxide solvate'
_symmetry_cell_setting           triclinic
_symmetry_space_group_name_H-M   'P -1'
_symmetry_Int_Tables_number      2
_space_group_name_Hall           '-P 1'
loop_
_symmetry_equiv_pos_site_id
_symmetry_equiv_pos_as_xyz
1 x,y,z
2 -x,-y,-z
_cell_length_a                   10.0722(17)
_cell_length_b                   11.0062(17)
_cell_length_c                   17.689(3)
_cell_angle_alpha                73.763(4)
_cell_angle_beta                 78.295(4)
_cell_angle_gamma                69.771(3)
_cell_volume                     1754.28
_exptl_crystal_colour            colorless
_exptl_crystal_description       block
_cell_formula_units_Z            4
loop_
_atom_site_label
_atom_site_type_symbol
_atom_site_fract_x
_atom_site_fract_y
_atom_site_fract_z
C1 C 0.4571(3) 0.6159(3) 0.33781(17)
C2 C 0.3280(4) 0.7014(3) 0.36335(19)
H1 H 0.2694 0.6703 0.4068
C3 C 0.2890(4) 0.8312(3) 0.32371(19)
H2 H 0.2022 0.8890 0.3397
C4 C 0.3782(3) 0.8785(3) 0.25922(17)
C5 C 0.5064(3) 0.7897(3) 0.23289(15)
C6 C 0.5456(3) 0.6557(3) 0.27446(17)
H3 H 0.6308 0.5955 0.2587
C7 C 0.4262(4) 1.0486(3) 0.16507(19)
H4 H 0.4010 1.1394 0.1426
C8 C 0.5912(3) 0.8459(3) 0.16498(16)
C9 C 0.8053(3) 0.8121(3) 0.06565(17)
C10 C 0.9497(3) 0.7486(3) 0.06427(19)
H5 H 0.9843 0.6792 0.1065
C11 C 1.0437(4) 0.7863(4) 0.0012(2)
H6 H 1.1407 0.7417 0.0015
C12 C 0.9967(4) 0.8895(3) -0.0629(2)
C13 C 0.8522(4) 0.9490(3) -0.06129(19)
H7 H 0.8182 1.0173 -0.1041
C14 C 0.7536(3) 0.9129(3) 0.00081(18)
C15 C 1.0999(4) 0.9335(4) -0.1298(2)
H8 H 1.1314 0.8732 -0.1645
H9 H 1.1805 0.9341 -0.1089
H10 H 1.0541 1.0213 -0.1588
N1 N 0.4990(4) 0.4777(3) 0.38294(17)
N2 N 0.3368(3) 1.0116(2) 0.22354(15)
N3 N 0.5492(3) 0.9758(2) 0.13226(15)
N4 N 0.7138(3) 0.7694(2) 0.13235(14)
H11 H 0.7389 0.6859 0.1544
O1 O 0.4164(4) 0.4445(3) 0.4381(2)
O2 O 0.6122(3) 0.4013(2) 0.36225(16)
C16 C 0.2243(3) 0.0509(3) 0.48508(17)
C17 C 0.3095(3) -0.0818(3) 0.50843(18)
H12 H 0.2770 -0.1408 0.5508
C18 C 0.4399(4) -0.1213(3) 0.46760(18)
H13 H 0.4975 -0.2087 0.4822
C19 C 0.4901(3) -0.0329(3) 0.40365(16)
C20 C 0.4031(3) 0.1006(3) 0.38149(16)
C21 C 0.2678(3) 0.1410(3) 0.42381(17)
H14 H 0.2087 0.2281 0.4103
C22 C 0.6625(4) 0.0082(3) 0.3068(2)
H15 H 0.7526 -0.0226 0.2801
C23 C 0.4629(3) 0.1844(3) 0.31445(17)
C24 C 0.4209(3) 0.4065(3) 0.21926(17)
C25 C 0.5490(4) 0.3901(3) 0.1727(2)
H16 H 0.6231 0.3115 0.1844
C26 C 0.5691(4) 0.4906(4) 0.1079(2)
H17 H 0.6568 0.4769 0.0766
C27 C 0.4638(4) 0.6097(3) 0.08823(19)
C28 C 0.3374(4) 0.6249(3) 0.1365(2)
H18 H 0.2642 0.7044 0.1253
C29 C 0.3146(4) 0.5270(3) 0.2009(2)
H19 H 0.2273 0.5417 0.2325
C30 C 0.4883(4) 0.7167(4) 0.0163(2)
H20 H 0.4026 0.7908 0.0108
H21 H 0.5137 0.6815 -0.0303
H22 H 0.5639 0.7457 0.0230
N5 N 0.0847(3) 0.0944(3) 0.52953(18)
N6 N 0.6232(3) -0.0801(2) 0.36516(15)
N7 N 0.5919(3) 0.1369(2) 0.27954(16)
N8 N 0.3859(3) 0.3121(2) 0.28660(14)
H23 H 0.3046 0.3398 0.3134
O3 O 0.0500(3) 0.0165(3) 0.58739(17)
O4 O 0.0076(3) 0.2059(3) 0.50831(19)
C31 C -0.0304(6) 0.2551(4) 0.2742(3)
H24 H -0.1160 0.2501 0.3088
H25 H 0.0261 0.2847 0.2986
H26 H 0.0230 0.1688 0.2645
C32 C 0.0978(4) 0.3570(5) 0.1354(3)
H27 H 0.0924 0.4142 0.0833
H28 H 0.1471 0.2668 0.1312
H29 H 0.1484 0.3836 0.1652
O5 O -0.1333(3) 0.5030(2) 0.20342(15)
S1 S -0.07475(11) 0.36845(9) 0.18367(6)
C33 C 0.8390(4) 0.5264(5) 0.4113(3)
H36 H 0.8164 0.5158 0.3638
H37 H 0.7662 0.5998 0.4286
H38 H 0.8442 0.4466 0.4520
C34 C 0.9598(5) 0.6967(3) 0.3126(2)
H39 H 1.0420 0.7258 0.2909
H40 H 0.8845 0.7672 0.3313
H41 H 0.9291 0.6730 0.2723
O6 O 1.1060(3) 0.4472(2) 0.35725(16)
S3 S 1.00370(11) 0.55721(10) 0.39217(6)
H30? H -0.0816 0.2652 0.3253
H31? H 0.0571 0.1835 0.2809
H32? H -0.0873 0.2358 0.2445
H33? H 0.1258 0.4301 0.1001
H34? H 0.0364 0.3336 0.1107
H35? H 0.1809 0.2820 0.1470
S2? S 0.0080(9) 0.4025(8) 0.2231(5)
loop_
_geom_bond_atom_site_label_1
_geom_bond_atom_site_label_2
_geom_bond_site_symmetry_1
_geom_bond_site_symmetry_2
C1 C2 1_555 1_555
C2 H1 1_555 1_555
C3 C2 1_555 1_555
H2 C3 1_555 1_555
C4 C3 1_555 1_555
C5 C4 1_555 1_555
C6 C1 1_555 1_555
H3 C6 1_555 1_555
C7 H4 1_555 1_555
C8 C5 1_555 1_555
C9 C10 1_555 1_555
C10 H5 1_555 1_555
C11 C10 1_555 1_555
H6 C11 1_555 1_555
C12 C11 1_555 1_555
C13 C12 1_555 1_555
H7 C13 1_555 1_555
C14 C9 1_555 1_555
C15 C12 1_555 1_555
H8 C15 1_555 1_555
H9 C15 1_555 1_555
H10 C15 1_555 1_555
N1 C1 1_555 1_555
N2 C4 1_555 1_555
N3 C7 1_555 1_555
N4 C8 1_555 1_555
H11 N4 1_555 1_555
O1 N1 1_555 1_555
O2 N1 1_555 1_555
C16 C17 1_555 1_555
C17 H12 1_555 1_555
C18 C17 1_555 1_555
H13 C18 1_555 1_555
C19 C18 1_555 1_555
C20 C19 1_555 1_555
C21 C16 1_555 1_555
H14 C21 1_555 1_555
C22 H15 1_555 1_555
C23 C20 1_555 1_555
C24 C25 1_555 1_555
C25 H16 1_555 1_555
C26 C25 1_555 1_555
H17 C26 1_555 1_555
C27 C26 1_555 1_555
C28 C27 1_555 1_555
H18 C28 1_555 1_555
C29 C24 1_555 1_555
H19 C29 1_555 1_555
C30 C27 1_555 1_555
H20 C30 1_555 1_555
H21 C30 1_555 1_555
H22 C30 1_555 1_555
N5 C16 1_555 1_555
N6 C19 1_555 1_555
N7 C22 1_555 1_555
N8 C23 1_555 1_555
H23 N8 1_555 1_555
O3 N5 1_555 1_555
O4 N5 1_555 1_555
C31 H24 1_555 1_555
H25 C31 1_555 1_555
H26 C31 1_555 1_555
C32 H27 1_555 1_555
H28 C32 1_555 1_555
H29 C32 1_555 1_555
O5 S1 1_555 1_555
S1 C31 1_555 1_555
C33 H36 1_555 1_555
H37 C33 1_555 1_555
H38 C33 1_555 1_555
C34 H39 1_555 1_555
H40 C34 1_555 1_555
H41 C34 1_555 1_555
O6 S3 1_555 1_555
S3 C33 1_555 1_555
C5 C6 1_555 1_555
C7 N2 1_555 1_555
C8 N3 1_555 1_555
C9 N4 1_555 1_555
C13 C14 1_555 1_555
C20 C21 1_555 1_555
C22 N6 1_555 1_555
C23 N7 1_555 1_555
C24 N8 1_555 1_555
C28 C29 1_555 1_555
C32 S1 1_555 1_555
C34 S3 1_555 1_555

#END
