
#######################################################################
#
#                 Cambridge Crystallographic Data Centre
#                                CCDC 
#
#######################################################################
#
# If this CIF has been generated from an entry in the Cambridge 
# Structural Database, then it will include bibliographic, chemical, 
# crystal, experimental, refinement or atomic coordinate data resulting 
# from the CCDC's data processing and validation procedures.
#
#######################################################################

data_KUPDOQ
_chemical_formula_moiety         'C60 H58,2(C1 H2 Cl2)'
_chemical_name_systematic        
"7,16-bis(3,5-di-t-butylphenyl)anthra[2',3':4,5]pentaleno[1,2-b]anthracene dichloromethane solvate"
_symmetry_cell_setting           triclinic
_symmetry_space_group_name_H-M   'P -1'
_symmetry_Int_Tables_number      2
_space_group_name_Hall           '-P 1'
loop_
_symmetry_equiv_pos_site_id
_symmetry_equiv_pos_as_xyz
1 x,y,z
2 -x,-y,-z
_cell_length_a                   8.9853(16)
_cell_length_b                   10.0645(18)
_cell_length_c                   14.804(2)
_cell_angle_alpha                73.778(11)
_cell_angle_beta                 82.350(12)
_cell_angle_gamma                89.662(13)
_cell_volume                     1273.33
_exptl_crystal_colour            red
_exptl_crystal_description       plate
_cell_formula_units_Z            1
loop_
_atom_site_label
_atom_site_type_symbol
_atom_site_fract_x
_atom_site_fract_y
_atom_site_fract_z
Cl1 Cl 0.33420(15) 0.82088(13) 0.91649(9)
Cl2 Cl 0.40238(17) 1.11169(15) 0.90112(11)
C1 C 0.4504(5) 0.9700(5) 0.8576(4)
H1 H 0.5563 0.9479 0.8652
H2 H 0.4421 0.9955 0.7889
C2 C 0.5326(4) 1.0106(5) 0.5383(3)
C3 C 0.6200(4) 0.9191(5) 0.5827(3)
C4 C 0.6295(5) 0.8121(4) 0.5267(3)
C5 C 0.5341(5) 0.8507(4) 0.4527(3)
C6 C 0.5214(4) 0.7668(4) 0.3913(3)
H3 H 0.4576 0.7916 0.3434
C7 C 0.6075(4) 0.6430(4) 0.4032(3)
C8 C 0.7048(4) 0.6123(4) 0.4762(2)
C9 C 0.7093(4) 0.7011(4) 0.5370(3)
H4 H 0.7717 0.6785 0.5858
C10 C 0.7924(4) 0.4960(4) 0.4871(2)
H5 H 0.8566 0.4768 0.5350
C11 C 0.7893(4) 0.4067(4) 0.4304(3)
C12 C 0.6932(4) 0.4370(4) 0.3569(3)
C13 C 0.8796(4) 0.2870(4) 0.4400(3)
H6 H 0.9465 0.2663 0.4863
C14 C 0.6047(4) 0.5542(4) 0.3462(3)
H7 H 0.5406 0.5737 0.2984
C15 C 0.8698(6) 0.2012(4) 0.3821(4)
H8 H 0.9283 0.1209 0.3897
C16 C 0.7725(6) 0.2333(5) 0.3114(4)
H9 H 0.7659 0.1736 0.2724
C17 C 0.6907(5) 0.3456(5) 0.2992(3)
H10 H 0.6284 0.3655 0.2503
C18 C 0.6972(4) 0.9129(5) 0.6678(3)
C19 C 0.6971(4) 0.7854(5) 0.7332(3)
H11 H 0.6437 0.7099 0.7243
C20 C 0.7733(4) 0.7630(4) 0.8125(3)
C21 C 0.8513(4) 0.8775(4) 0.8233(2)
H12 H 0.9049 0.8636 0.8762
C22 C 0.8543(4) 1.0097(4) 0.7608(2)
C23 C 0.7753(4) 1.0260(5) 0.6821(3)
H13 H 0.7744 1.1148 0.6378
C24 C 0.7765(4) 0.6191(4) 0.8831(3)
C25 C 0.6680(5) 0.5127(5) 0.8660(4)
H14 H 0.5644 0.5420 0.8760
H15 H 0.6786 0.4216 0.9105
H16 H 0.6922 0.5069 0.8007
C26 C 0.9367(4) 0.5652(4) 0.8726(3)
H17 H 0.9679 0.5663 0.8064
H18 H 0.9384 0.4702 0.9137
H19 H 1.0059 0.6246 0.8911
C27 C 0.7328(5) 0.6287(5) 0.9854(3)
H20 H 0.8022 0.6938 0.9983
H21 H 0.7384 0.5371 1.0303
H22 H 0.6301 0.6613 0.9926
C28 C 0.9404(4) 1.1301(4) 0.7773(2)
C29 C 0.9066(13) 1.1430(10) 0.8785(5)
H23 H 0.9333 1.0576 0.9235
H24 H 0.7993 1.1585 0.8928
H25 H 0.9655 1.2213 0.8841
C30 C 0.9297(12) 1.2779(7) 0.7072(6)
H26 H 0.9965 1.3432 0.7220
H27 H 0.8261 1.3083 0.7140
H28 H 0.9599 1.2745 0.6418
C31 C 1.1181(8) 1.1028(9) 0.7624(8)
H29 H 1.1460 1.0854 0.7006
H30 H 1.1412 1.0222 0.8129
H31 H 1.1748 1.1844 0.7648
C2A C 0.4674(4) 0.9894(5) 0.4617(3)
C3A C 0.3800(4) 1.0809(5) 0.4173(3)
C4A C 0.3705(5) 1.1879(4) 0.4733(3)
C5A C 0.4659(5) 1.1493(4) 0.5473(3)
C6A C 0.4786(4) 1.2332(4) 0.6087(3)
H3A H 0.5424 1.2084 0.6566
C7A C 0.3925(4) 1.3570(4) 0.5968(3)
C8A C 0.2952(4) 1.3877(4) 0.5238(2)
C9A C 0.2907(4) 1.2989(4) 0.4630(3)
H4A H 0.2283 1.3215 0.4142
C10A C 0.2076(4) 1.5040(4) 0.5129(2)
H5A H 0.1434 1.5232 0.4650
C11A C 0.2107(4) 1.5933(4) 0.5696(3)
C12A C 0.3068(4) 1.5630(4) 0.6431(3)
C13A C 0.1204(4) 1.7130(4) 0.5600(3)
H6A H 0.0535 1.7337 0.5137
C14A C 0.3953(4) 1.4458(4) 0.6538(3)
H7A H 0.4594 1.4263 0.7016
C15A C 0.1302(6) 1.7988(4) 0.6179(4)
H8A H 0.0717 1.8791 0.6103
C16A C 0.2275(6) 1.7667(5) 0.6886(4)
H9A H 0.2341 1.8264 0.7276
C17A C 0.3093(5) 1.6544(5) 0.7008(3)
H10A H 0.3716 1.6345 0.7497
C18A C 0.3028(4) 1.0871(5) 0.3322(3)
C19A C 0.3029(4) 1.2146(5) 0.2668(3)
H11A H 0.3563 1.2901 0.2757
C20A C 0.2267(4) 1.2370(4) 0.1875(3)
C21A C 0.1487(4) 1.1225(4) 0.1767(2)
H12A H 0.0951 1.1364 0.1238
C22A C 0.1457(4) 0.9903(4) 0.2392(2)
C23A C 0.2247(4) 0.9740(5) 0.3179(3)
H13A H 0.2256 0.8852 0.3622
C24A C 0.2235(4) 1.3809(4) 0.1169(3)
C25A C 0.3320(5) 1.4873(5) 0.1340(4)
H14A H 0.4356 1.4580 0.1240
H15A H 0.3214 1.5784 0.0895
H16A H 0.3078 1.4931 0.1993
C26A C 0.0633(4) 1.4348(4) 0.1274(3)
H17A H 0.0321 1.4337 0.1936
H18A H 0.0616 1.5298 0.0863
H19A H -0.0059 1.3754 0.1089
C27A C 0.2672(5) 1.3713(5) 0.0146(3)
H20A H 0.1978 1.3062 0.0017
H21A H 0.2616 1.4629 -0.0303
H22A H 0.3699 1.3387 0.0074
C28A C 0.0596(4) 0.8699(4) 0.2227(2)
C29A C 0.0934(13) 0.8570(10) 0.1215(5)
H23A H 0.0667 0.9424 0.0765
H24A H 0.2007 0.8415 0.1072
H25A H 0.0345 0.7787 0.1159
C30A C 0.0703(12) 0.7221(7) 0.2928(6)
H26A H 0.0035 0.6568 0.2780
H27A H 0.1739 0.6917 0.2860
H28A H 0.0401 0.7255 0.3582
C31A C -0.1181(8) 0.8972(9) 0.2376(8)
H29A H -0.1460 0.9146 0.2994
H30A H -0.1412 0.9778 0.1871
H31A H -0.1748 0.8156 0.2352
C32? C 0.9666(10) 1.0984(11) 0.8817(4)
H32? H 1.0388 1.0245 0.8955
H33? H 0.8712 1.0686 0.9232
H34? H 1.0063 1.1819 0.8931
C33? C 0.8299(10) 1.2512(9) 0.7580(8)
H35? H 0.8793 1.3360 0.7612
H36? H 0.7405 1.2285 0.8059
H37? H 0.8002 1.2655 0.6947
C34? C 1.0787(9) 1.1579(11) 0.7104(6)
H38? H 1.1544 1.0922 0.7352
H39? H 1.1159 1.2526 0.7020
H40? H 1.0588 1.1477 0.6492
loop_
_geom_bond_atom_site_label_1
_geom_bond_atom_site_label_2
_geom_bond_site_symmetry_1
_geom_bond_site_symmetry_2
Cl1 C1 1_555 1_555
Cl2 C1 1_555 1_555
C1 H1 1_555 1_555
H2 C1 1_555 1_555
C2 C3 1_555 1_555
C3 C4 1_555 1_555
C4 C5 1_555 1_555
C5 C6 1_555 1_555
C6 H3 1_555 1_555
C7 C6 1_555 1_555
C8 C7 1_555 1_555
C9 C4 1_555 1_555
H4 C9 1_555 1_555
C10 C8 1_555 1_555
H5 C10 1_555 1_555
C11 C10 1_555 1_555
C12 C11 1_555 1_555
C13 C11 1_555 1_555
H6 C13 1_555 1_555
C14 C7 1_555 1_555
H7 C14 1_555 1_555
C15 C13 1_555 1_555
H8 C15 1_555 1_555
C16 C15 1_555 1_555
H9 C16 1_555 1_555
C17 C12 1_555 1_555
H10 C17 1_555 1_555
C18 C3 1_555 1_555
C19 C18 1_555 1_555
H11 C19 1_555 1_555
C20 C19 1_555 1_555
C21 C20 1_555 1_555
H12 C21 1_555 1_555
C22 C21 1_555 1_555
C23 C18 1_555 1_555
H13 C23 1_555 1_555
C24 C20 1_555 1_555
C25 C24 1_555 1_555
H14 C25 1_555 1_555
H15 C25 1_555 1_555
H16 C25 1_555 1_555
C26 C24 1_555 1_555
H17 C26 1_555 1_555
H18 C26 1_555 1_555
H19 C26 1_555 1_555
C27 C24 1_555 1_555
H20 C27 1_555 1_555
H21 C27 1_555 1_555
H22 C27 1_555 1_555
C28 C22 1_555 1_555
C29 C28 1_555 1_555
H23 C29 1_555 1_555
H24 C29 1_555 1_555
H25 C29 1_555 1_555
C30 C28 1_555 1_555
H26 C30 1_555 1_555
H27 C30 1_555 1_555
H28 C30 1_555 1_555
C31 C28 1_555 1_555
H29 C31 1_555 1_555
H30 C31 1_555 1_555
H31 C31 1_555 1_555
C2A C2 1_555 1_555
C3A C2A 1_555 1_555
C4A C3A 1_555 1_555
C5A C2 1_555 1_555
C6A C5A 1_555 1_555
H3A C6A 1_555 1_555
C7A C6A 1_555 1_555
C8A C7A 1_555 1_555
C9A C4A 1_555 1_555
H4A C9A 1_555 1_555
C10A C8A 1_555 1_555
H5A C10A 1_555 1_555
C11A C10A 1_555 1_555
C12A C11A 1_555 1_555
C13A C11A 1_555 1_555
H6A C13A 1_555 1_555
C14A C7A 1_555 1_555
H7A C14A 1_555 1_555
C15A C13A 1_555 1_555
H8A C15A 1_555 1_555
C16A C15A 1_555 1_555
H9A C16A 1_555 1_555
C17A C12A 1_555 1_555
H10A C17A 1_555 1_555
C18A C3A 1_555 1_555
C19A C18A 1_555 1_555
H11A C19A 1_555 1_555
C20A C19A 1_555 1_555
C21A C20A 1_555 1_555
H12A C21A 1_555 1_555
C22A C21A 1_555 1_555
C23A C18A 1_555 1_555
H13A C23A 1_555 1_555
C24A C20A 1_555 1_555
C25A C24A 1_555 1_555
H14A C25A 1_555 1_555
H15A C25A 1_555 1_555
H16A C25A 1_555 1_555
C26A C24A 1_555 1_555
H17A C26A 1_555 1_555
H18A C26A 1_555 1_555
H19A C26A 1_555 1_555
C27A C24A 1_555 1_555
H20A C27A 1_555 1_555
H21A C27A 1_555 1_555
H22A C27A 1_555 1_555
C28A C22A 1_555 1_555
C29A C28A 1_555 1_555
H23A C29A 1_555 1_555
H24A C29A 1_555 1_555
H25A C29A 1_555 1_555
C30A C28A 1_555 1_555
H26A C30A 1_555 1_555
H27A C30A 1_555 1_555
H28A C30A 1_555 1_555
C31A C28A 1_555 1_555
H29A C31A 1_555 1_555
H30A C31A 1_555 1_555
H31A C31A 1_555 1_555
C5 C2A 1_555 1_555
C8 C9 1_555 1_555
C12 C14 1_555 1_555
C16 C17 1_555 1_555
C22 C23 1_555 1_555
C4A C5A 1_555 1_555
C8A C9A 1_555 1_555
C12A C14A 1_555 1_555
C16A C17A 1_555 1_555
C22A C23A 1_555 1_555

#END
