
#######################################################################
#
#                 Cambridge Crystallographic Data Centre
#                                CCDC 
#
#######################################################################
#
# If this CIF has been generated from an entry in the Cambridge 
# Structural Database, then it will include bibliographic, chemical, 
# crystal, experimental, refinement or atomic coordinate data resulting 
# from the CCDC's data processing and validation procedures.
#
#######################################################################

data_KUPDEG
_chemical_formula_moiety         'C52 H54,2(C1 H1 Cl3)'
_chemical_name_systematic        
"6,13-bis(3,5-di-t-butylphenyl)naphtho[2',3':4,5]pentaleno[1,2-b]naphthalene chloroform solvate"
_symmetry_cell_setting           monoclinic
_symmetry_space_group_name_H-M   'C 2/c'
_symmetry_Int_Tables_number      15
_space_group_name_Hall           '-C 2yn'
loop_
_symmetry_equiv_pos_site_id
_symmetry_equiv_pos_as_xyz
1 x,y,z
2 -x,y,1/2-z
3 1/2+x,1/2+y,z
4 1/2-x,1/2+y,1/2-z
5 -x,-y,-z
6 x,-y,1/2+z
7 1/2-x,1/2-y,-z
8 1/2+x,1/2-y,1/2+z
_cell_length_a                   29.046(10)
_cell_length_b                   8.556(3)
_cell_length_c                   19.651(7)
_cell_angle_alpha                90
_cell_angle_beta                 96.660(6)
_cell_angle_gamma                90
_cell_volume                     4850.66
_exptl_crystal_colour            orange
_exptl_crystal_description       plate
_cell_formula_units_Z            4
loop_
_atom_site_label
_atom_site_type_symbol
_atom_site_fract_x
_atom_site_fract_y
_atom_site_fract_z
Cl1 Cl 0.06162(5) 0.93390(16) 0.54740(6)
Cl2 Cl 0.02855(5) 0.6700(2) 0.46500(10)
Cl3 Cl 0.12566(4) 0.73944(15) 0.48415(8)
C1 C 0.07045(14) 0.8204(5) 0.4759(2)
H1 H 0.0668 0.8873 0.4352
C2 C 0.25033(10) 0.1927(3) 0.47276(14)
C3 C 0.20197(10) 0.1688(3) 0.44329(15)
C4 C 0.18119(10) 0.0795(3) 0.39057(15)
H2 H 0.1990 0.0143 0.3662
C5 C 0.13225(10) 0.0868(3) 0.37312(14)
C6 C 0.10901(11) -0.0040(3) 0.31979(15)
H3 H 0.1261 -0.0702 0.2947
C7 C 0.06183(11) 0.0034(4) 0.30420(16)
H4 H 0.0473 -0.0592 0.2694
C8 C 0.03533(11) 0.1045(4) 0.34026(17)
H5 H 0.0034 0.1100 0.3291
C9 C 0.05693(11) 0.1954(4) 0.39215(15)
H6 H 0.0393 0.2627 0.4158
C10 C 0.10529(10) 0.1885(3) 0.41022(14)
C11 C 0.12763(10) 0.2805(3) 0.46532(15)
H7 H 0.1103 0.3473 0.4897
C12 C 0.17433(10) 0.2697(3) 0.48179(14)
C13 C 0.20562(10) 0.3532(3) 0.53459(14)
C14 C 0.19035(10) 0.4648(3) 0.58427(14)
C15 C 0.15296(10) 0.4283(3) 0.61948(14)
H8 H 0.1376 0.3337 0.6110
C16 C 0.13820(10) 0.5314(3) 0.66720(14)
C17 C 0.16191(10) 0.6723(3) 0.67849(14)
H9 H 0.1522 0.7418 0.7103
C18 C 0.19979(10) 0.7142(3) 0.64404(14)
C19 C 0.21362(10) 0.6075(3) 0.59678(14)
H10 H 0.2387 0.6313 0.5732
C20 C 0.09716(11) 0.4941(4) 0.70667(16)
C21 C 0.07346(13) 0.3386(4) 0.6845(2)
H11 H 0.0625 0.3426 0.6366
H12 H 0.0477 0.3215 0.7102
H13 H 0.0953 0.2547 0.6930
C22 C 0.06074(13) 0.6247(5) 0.6933(2)
H14 H 0.0744 0.7231 0.7080
H15 H 0.0350 0.6032 0.7185
H16 H 0.0501 0.6293 0.6453
C23 C 0.11373(14) 0.4857(5) 0.78373(18)
H17 H 0.1358 0.4025 0.7923
H18 H 0.0877 0.4664 0.8085
H19 H 0.1280 0.5830 0.7986
C24 C 0.22422(11) 0.8711(3) 0.65872(15)
C25 C 0.18867(14) 1.0049(4) 0.6500(2)
H20 H 0.1734 1.0046 0.6040
H21 H 0.2043 1.1029 0.6591
H22 H 0.1661 0.9906 0.6816
C26 C 0.24859(14) 0.8689(4) 0.73225(17)
H23 H 0.2262 0.8493 0.7636
H24 H 0.2632 0.9681 0.7426
H25 H 0.2716 0.7879 0.7366
C27 C 0.26106(14) 0.9019(4) 0.61039(19)
H26 H 0.2846 0.8229 0.6170
H27 H 0.2747 1.0028 0.6201
H28 H 0.2469 0.8993 0.5638
C2F C 0.24967(10) 0.3073(3) 0.52724(14)
C3F C 0.29803(10) 0.3312(3) 0.55671(15)
C4F C 0.31881(10) 0.4205(3) 0.60943(15)
H2F H 0.3010 0.4857 0.6338
C5F C 0.36775(10) 0.4132(3) 0.62688(14)
C6F C 0.39099(11) 0.5040(3) 0.68021(15)
H3F H 0.3739 0.5702 0.7053
C7F C 0.43817(11) 0.4966(4) 0.69580(16)
H4F H 0.4527 0.5592 0.7306
C8F C 0.46467(11) 0.3955(4) 0.65974(17)
H5F H 0.4966 0.3900 0.6709
C9F C 0.44307(11) 0.3046(4) 0.60785(15)
H6F H 0.4607 0.2373 0.5842
C10F C 0.39471(10) 0.3115(3) 0.58978(14)
C11F C 0.37237(10) 0.2195(3) 0.53468(15)
H7F H 0.3897 0.1527 0.5103
C12F C 0.32567(10) 0.2303(3) 0.51821(14)
C13F C 0.29438(10) 0.1468(3) 0.46541(14)
C14F C 0.30965(10) 0.0352(3) 0.41573(14)
C15F C 0.34704(10) 0.0717(3) 0.38052(14)
H8F H 0.3624 0.1663 0.3890
C16F C 0.36180(10) -0.0314(3) 0.33280(14)
C17F C 0.33809(10) -0.1723(3) 0.32151(14)
H9F H 0.3478 -0.2418 0.2897
C18F C 0.30021(10) -0.2142(3) 0.35596(14)
C19F C 0.28638(10) -0.1075(3) 0.40322(14)
H10F H 0.2613 -0.1313 0.4268
C20F C 0.40284(11) 0.0059(4) 0.29333(16)
C21F C 0.42654(13) 0.1614(4) 0.3155(2)
H11F H 0.4375 0.1574 0.3634
H12F H 0.4523 0.1785 0.2898
H13F H 0.4047 0.2453 0.3070
C22F C 0.43926(13) -0.1247(5) 0.3067(2)
H14F H 0.4256 -0.2231 0.2920
H15F H 0.4650 -0.1032 0.2815
H16F H 0.4499 -0.1293 0.3547
C23F C 0.38627(14) 0.0143(5) 0.21627(18)
H17F H 0.3642 0.0975 0.2077
H18F H 0.4123 0.0336 0.1915
H19F H 0.3720 -0.0830 0.2014
C24F C 0.27578(11) -0.3711(3) 0.34128(15)
C25F C 0.31133(14) -0.5049(4) 0.3500(2)
H20F H 0.3266 -0.5046 0.3960
H21F H 0.2957 -0.6029 0.3409
H22F H 0.3339 -0.4906 0.3184
C26F C 0.25141(14) -0.3689(4) 0.26775(17)
H23F H 0.2738 -0.3493 0.2364
H24F H 0.2368 -0.4681 0.2574
H25F H 0.2284 -0.2879 0.2634
C27F C 0.23894(14) -0.4019(4) 0.38961(19)
H26F H 0.2154 -0.3229 0.3830
H27F H 0.2253 -0.5028 0.3799
H28F H 0.2531 -0.3993 0.4362
loop_
_geom_bond_atom_site_label_1
_geom_bond_atom_site_label_2
_geom_bond_site_symmetry_1
_geom_bond_site_symmetry_2
Cl1 C1 1_555 1_555
Cl2 C1 1_555 1_555
Cl3 C1 1_555 1_555
C1 H1 1_555 1_555
C2 C3 1_555 1_555
C3 C4 1_555 1_555
C4 H2 1_555 1_555
C5 C4 1_555 1_555
C6 C5 1_555 1_555
H3 C6 1_555 1_555
C7 C6 1_555 1_555
H4 C7 1_555 1_555
C8 C7 1_555 1_555
H5 C8 1_555 1_555
C9 C8 1_555 1_555
H6 C9 1_555 1_555
C10 C5 1_555 1_555
C11 C10 1_555 1_555
H7 C11 1_555 1_555
C12 C3 1_555 1_555
C13 C12 1_555 1_555
C14 C13 1_555 1_555
C15 C14 1_555 1_555
H8 C15 1_555 1_555
C16 C15 1_555 1_555
C17 C16 1_555 1_555
H9 C17 1_555 1_555
C18 C17 1_555 1_555
C19 C14 1_555 1_555
H10 C19 1_555 1_555
C20 C16 1_555 1_555
C21 C20 1_555 1_555
H11 C21 1_555 1_555
H12 C21 1_555 1_555
H13 C21 1_555 1_555
C22 C20 1_555 1_555
H14 C22 1_555 1_555
H15 C22 1_555 1_555
H16 C22 1_555 1_555
C23 C20 1_555 1_555
H17 C23 1_555 1_555
H18 C23 1_555 1_555
H19 C23 1_555 1_555
C24 C18 1_555 1_555
C25 C24 1_555 1_555
H20 C25 1_555 1_555
H21 C25 1_555 1_555
H22 C25 1_555 1_555
C26 C24 1_555 1_555
H23 C26 1_555 1_555
H24 C26 1_555 1_555
H25 C26 1_555 1_555
C27 C24 1_555 1_555
H26 C27 1_555 1_555
H27 C27 1_555 1_555
H28 C27 1_555 1_555
C2F C2 1_555 1_555
C3F C2F 1_555 1_555
C4F C3F 1_555 1_555
H2F C4F 1_555 1_555
C5F C4F 1_555 1_555
C6F C5F 1_555 1_555
H3F C6F 1_555 1_555
C7F C6F 1_555 1_555
H4F C7F 1_555 1_555
C8F C7F 1_555 1_555
H5F C8F 1_555 1_555
C9F C8F 1_555 1_555
H6F C9F 1_555 1_555
C10F C5F 1_555 1_555
C11F C10F 1_555 1_555
H7F C11F 1_555 1_555
C12F C3F 1_555 1_555
C13F C2 1_555 1_555
C14F C13F 1_555 1_555
C15F C14F 1_555 1_555
H8F C15F 1_555 1_555
C16F C15F 1_555 1_555
C17F C16F 1_555 1_555
H9F C17F 1_555 1_555
C18F C17F 1_555 1_555
C19F C14F 1_555 1_555
H10F C19F 1_555 1_555
C20F C16F 1_555 1_555
C21F C20F 1_555 1_555
H11F C21F 1_555 1_555
H12F C21F 1_555 1_555
H13F C21F 1_555 1_555
C22F C20F 1_555 1_555
H14F C22F 1_555 1_555
H15F C22F 1_555 1_555
H16F C22F 1_555 1_555
C23F C20F 1_555 1_555
H17F C23F 1_555 1_555
H18F C23F 1_555 1_555
H19F C23F 1_555 1_555
C24F C18F 1_555 1_555
C25F C24F 1_555 1_555
H20F C25F 1_555 1_555
H21F C25F 1_555 1_555
H22F C25F 1_555 1_555
C26F C24F 1_555 1_555
H23F C26F 1_555 1_555
H24F C26F 1_555 1_555
H25F C26F 1_555 1_555
C27F C24F 1_555 1_555
H26F C27F 1_555 1_555
H27F C27F 1_555 1_555
H28F C27F 1_555 1_555
C9 C10 1_555 1_555
C11 C12 1_555 1_555
C13 C2F 1_555 1_555
C18 C19 1_555 1_555
C9F C10F 1_555 1_555
C11F C12F 1_555 1_555
C12F C13F 1_555 1_555
C18F C19F 1_555 1_555

#END
