
#######################################################################
#
#                 Cambridge Crystallographic Data Centre
#                                CCDC 
#
#######################################################################
#
# If this CIF has been generated from an entry in the Cambridge 
# Structural Database, then it will include bibliographic, chemical, 
# crystal, experimental, refinement or atomic coordinate data resulting 
# from the CCDC's data processing and validation procedures.
#
#######################################################################

data_KUPGIN
_chemical_formula_moiety         'C21 H16 O4'
_chemical_name_systematic        
'Propane-2,2-diyldi-4,1-phenylene bis(prop-2-ynoate)'
_symmetry_cell_setting           monoclinic
_symmetry_space_group_name_H-M   'P 21/n'
_symmetry_Int_Tables_number      14
_space_group_name_Hall           '-P 2yn'
loop_
_symmetry_equiv_pos_site_id
_symmetry_equiv_pos_as_xyz
1 x,y,z
2 1/2-x,1/2+y,1/2-z
3 -x,-y,-z
4 1/2+x,1/2-y,1/2+z
_cell_length_a                   12.0066(14)
_cell_length_b                   11.9882(14)
_cell_length_c                   12.0112(14)
_cell_angle_alpha                90
_cell_angle_beta                 99.6130(10)
_cell_angle_gamma                90
_cell_volume                     1704.59
_exptl_crystal_colour            colorless
_exptl_crystal_description       block
_cell_formula_units_Z            4
loop_
_atom_site_label
_atom_site_type_symbol
_atom_site_fract_x
_atom_site_fract_y
_atom_site_fract_z
O1 O 0.34253(8) 0.91271(8) 0.59832(9)
O2 O 0.40766(9) 1.06071(9) 0.70585(10)
O3 O 0.76489(8) 0.32629(8) 0.36207(9)
O4 O 0.92619(9) 0.25056(9) 0.45515(9)
C1 C 0.74574(12) 0.65304(12) 0.70561(12)
C2 C 0.75246(14) 0.58437(14) 0.81477(13)
H1 H 0.6896 0.5313 0.8067
H2 H 0.7479 0.6345 0.8783
H3 H 0.8242 0.5436 0.8288
C3 C 0.84576(13) 0.73520(13) 0.72188(14)
H4 H 0.8435 0.7802 0.6534
H5 H 0.9169 0.6934 0.7366
H6 H 0.8406 0.7843 0.7860
C4 C 0.63710(12) 0.72248(12) 0.68030(12)
C5 C 0.56752(13) 0.74091(13) 0.75955(13)
H7 H 0.5859 0.7077 0.8321
C6 C 0.47115(13) 0.80704(13) 0.73510(13)
H8 H 0.4240 0.8189 0.7901
C7 C 0.44558(12) 0.85459(12) 0.63058(13)
C8 C 0.51312(12) 0.84016(11) 0.54953(13)
H9 H 0.4945 0.8748 0.4777
C9 C 0.60882(12) 0.77403(12) 0.57496(13)
H10 H 0.6560 0.7636 0.5197
C10 C 0.33451(12) 1.01528(12) 0.64220(13)
C11 C 0.22445(13) 1.06292(12) 0.59889(13)
C12 C 0.13641(14) 1.10335(14) 0.56158(15)
H11 H 0.0656 1.1359 0.5316
C13 C 0.75147(12) 0.57041(12) 0.60940(12)
C14 C 0.66472(12) 0.49249(12) 0.58093(13)
H12 H 0.6004 0.4960 0.6174
C15 C 0.67021(12) 0.41005(12) 0.50071(13)
H13 H 0.6110 0.3572 0.4828
C16 C 0.76348(12) 0.40666(11) 0.44769(12)
C17 C 0.84859(12) 0.48470(12) 0.46987(13)
H14 H 0.9107 0.4831 0.4302
C18 C 0.84193(12) 0.56592(12) 0.55129(13)
H15 H 0.9007 0.6195 0.5674
C19 C 0.85388(12) 0.25635(12) 0.37337(13)
C20 C 0.85172(13) 0.18894(12) 0.27327(13)
C21 C 0.85793(14) 0.13296(13) 0.19356(15)
H16 H 0.8629 0.0880 0.1295
loop_
_geom_bond_atom_site_label_1
_geom_bond_atom_site_label_2
_geom_bond_site_symmetry_1
_geom_bond_site_symmetry_2
O1 C7 1_555 1_555
O2 C10 1_555 1_555
O3 C16 1_555 1_555
O4 C19 1_555 1_555
C1 C2 1_555 1_555
C2 H1 1_555 1_555
H2 C2 1_555 1_555
H3 C2 1_555 1_555
C3 C1 1_555 1_555
H4 C3 1_555 1_555
H5 C3 1_555 1_555
H6 C3 1_555 1_555
C4 C1 1_555 1_555
C5 C4 1_555 1_555
H7 C5 1_555 1_555
C6 C5 1_555 1_555
H8 C6 1_555 1_555
C7 C6 1_555 1_555
C8 C7 1_555 1_555
H9 C8 1_555 1_555
C9 C4 1_555 1_555
H10 C9 1_555 1_555
C10 O1 1_555 1_555
C11 C10 1_555 1_555
C12 C11 1_555 1_555
H11 C12 1_555 1_555
C13 C1 1_555 1_555
C14 C13 1_555 1_555
H12 C14 1_555 1_555
C15 C14 1_555 1_555
H13 C15 1_555 1_555
C16 C15 1_555 1_555
C17 C16 1_555 1_555
H14 C17 1_555 1_555
C18 C13 1_555 1_555
H15 C18 1_555 1_555
C19 O3 1_555 1_555
C20 C19 1_555 1_555
C21 C20 1_555 1_555
H16 C21 1_555 1_555
C8 C9 1_555 1_555
C17 C18 1_555 1_555

#END
