
#######################################################################
#
#                 Cambridge Crystallographic Data Centre
#                                CCDC 
#
#######################################################################
#
# If this CIF has been generated from an entry in the Cambridge 
# Structural Database, then it will include bibliographic, chemical, 
# crystal, experimental, refinement or atomic coordinate data resulting 
# from the CCDC's data processing and validation procedures.
#
#######################################################################

data_KUPHIN
_chemical_formula_moiety         'C14 H33 N4 O6 P2 1+,Cl1 1-,4(H2 O1)'
_chemical_name_systematic        
'(hydrogen 1,8-bis(methylenephosphonato)-4,11-dimethylene-4,11-diaza-1,8-diazoniacyclotetradecane)-copper chloride tetrahydrate'
_symmetry_cell_setting           monoclinic
_symmetry_space_group_name_H-M   'C 2'
_symmetry_Int_Tables_number      5
_space_group_name_Hall           'C 2y'
loop_
_symmetry_equiv_pos_site_id
_symmetry_equiv_pos_as_xyz
1 x,y,z
2 -x,y,-z
3 1/2+x,1/2+y,z
4 1/2-x,1/2+y,-z
_cell_length_a                   11.5219(16)
_cell_length_b                   11.7468(16)
_cell_length_c                   9.6554(13)
_cell_angle_alpha                90
_cell_angle_beta                 115.254(3)
_cell_angle_gamma                90
_cell_volume                     1181.92
_exptl_crystal_colour            colorless
_exptl_crystal_description       block
_cell_formula_units_Z            2
_exptl_crystal_recrystallization_method acetone/water
loop_
_atom_site_label
_atom_site_type_symbol
_atom_site_fract_x
_atom_site_fract_y
_atom_site_fract_z
C1 C 1.1834(2) -0.03071(17) 1.2041(2)
H1 H 1.2701 -0.0487 1.2840
H2 H 1.1834 -0.0471 1.1035
C2 C 1.1655(2) 0.13036(18) 1.3656(2)
H3 H 1.2562 0.1419 1.4386
H4 H 1.1297 0.0692 1.4064
C3 C 1.0911(2) 0.23959(19) 1.3524(3)
H5 H 1.1278 0.3007 1.3126
H6 H 1.1013 0.2626 1.4556
C4 C 0.9478(2) 0.22787(19) 1.2470(2)
H7 H 0.9138 0.1597 1.2775
H8 H 0.9018 0.2952 1.2604
C5 C 1.21036(19) 0.17500(18) 1.0021(2)
H9 H 1.2703 0.2275 0.9851
H10 H 1.2175 0.0997 0.9602
C6 C 1.2515(2) 0.16315(19) 1.1736(2)
H11 H 1.3370 0.1265 1.2205
H12 H 1.2598 0.2400 1.2190
C7 C 0.9423(2) 0.32810(18) 1.0212(2)
H13 H 0.9558 0.3883 1.0983
H14 H 0.8636 0.3475 0.9288
N1 N 1.15898(17) 0.09427(15) 1.21205(19)
N2 N 0.92170(17) 0.21778(16) 1.08323(19)
O1 O 1.12561(15) -0.16814(15) 1.39654(18)
O2 O 1.06605(15) -0.23213(13) 1.13759(16)
O3 O 0.94366(14) -0.06245(13) 1.17783(16)
P1 P 1.06764(5) -0.12504(4) 1.22920(5)
H15 H 1.078(3) 0.115(2) 1.142(3)
H16 H 1.128(3) -0.123(3) 1.459(3)
C1A C 0.8166(2) -0.03071(17) 0.7959(2)
H1A H 0.7299 -0.0487 0.7160
H2A H 0.8166 -0.0471 0.8965
C2A C 0.8345(2) 0.13036(18) 0.6344(2)
H3A H 0.7438 0.1419 0.5614
H4A H 0.8703 0.0692 0.5936
C3A C 0.9089(2) 0.23959(19) 0.6476(3)
H5A H 0.8722 0.3007 0.6874
H6A H 0.8987 0.2626 0.5444
C4A C 1.0522(2) 0.22787(19) 0.7530(2)
H7A H 1.0862 0.1597 0.7225
H8A H 1.0982 0.2952 0.7396
C5A C 0.78964(19) 0.17500(18) 0.9979(2)
H9A H 0.7297 0.2275 1.0149
H10A H 0.7825 0.0997 1.0398
C6A C 0.7485(2) 0.16315(19) 0.8264(2)
H11A H 0.6630 0.1265 0.7795
H12A H 0.7402 0.2400 0.7810
C7A C 1.0577(2) 0.32810(18) 0.9788(2)
H13A H 1.0442 0.3883 0.9017
H14A H 1.1364 0.3475 1.0712
N1A N 0.84102(17) 0.09427(15) 0.78795(19)
N2A N 1.07830(17) 0.21778(16) 0.91677(19)
O1A O 0.87439(15) -0.16814(15) 0.60346(18)
O2A O 0.93395(15) -0.23213(13) 0.86241(16)
O3A O 1.05634(14) -0.06245(13) 0.82217(16)
P1A P 0.93236(5) -0.12504(4) 0.77080(5)
H15A H 0.922(3) 0.115(2) 0.858(3)
H16A H 0.872(3) -0.123(3) 0.541(3)
Cl1 Cl 1.0000 0.50004(6) 0.5000
O4 O 0.89708(17) 0.54654(14) 0.7451(2)
H17 H 0.910(4) 0.610(2) 0.781(4)
H18 H 0.926(2) 0.539(2) 0.681(3)
O5 O 0.66604(18) 0.45094(17) 0.62830(19)
H19 H 0.626(3) 0.440(4) 0.681(4)
H20 H 0.7401(18) 0.475(2) 0.685(3)
H21? H 1.0143 -0.2229 1.0455
loop_
_geom_bond_atom_site_label_1
_geom_bond_atom_site_label_2
_geom_bond_site_symmetry_1
_geom_bond_site_symmetry_2
C1 H1 1_555 1_555
H2 C1 1_555 1_555
C2 H3 1_555 1_555
H4 C2 1_555 1_555
C3 C2 1_555 1_555
H5 C3 1_555 1_555
H6 C3 1_555 1_555
C4 C3 1_555 1_555
H7 C4 1_555 1_555
H8 C4 1_555 1_555
C5 H9 1_555 1_555
H10 C5 1_555 1_555
C6 C5 1_555 1_555
H11 C6 1_555 1_555
H12 C6 1_555 1_555
C7 H13 1_555 1_555
H14 C7 1_555 1_555
N1 C1 1_555 1_555
N2 C4 1_555 1_555
O1 P1 1_555 1_555
O2 P1 1_555 1_555
O3 P1 1_555 1_555
P1 C1 1_555 1_555
H15 N1 1_555 1_555
H16 O1 1_555 1_555
O4 H17 1_555 1_555
H18 O4 1_555 1_555
O5 H19 1_555 1_555
H20 O5 1_555 1_555
C1A H1A 1_555 1_555
H2A C1A 1_555 1_555
C2A H3A 1_555 1_555
H4A C2A 1_555 1_555
C3A C2A 1_555 1_555
H5A C3A 1_555 1_555
H6A C3A 1_555 1_555
C4A C3A 1_555 1_555
H7A C4A 1_555 1_555
H8A C4A 1_555 1_555
C5A N2 1_555 1_555
H9A C5A 1_555 1_555
H10A C5A 1_555 1_555
C6A C5A 1_555 1_555
H11A C6A 1_555 1_555
H12A C6A 1_555 1_555
C7A C7 1_555 1_555
H13A C7A 1_555 1_555
H14A C7A 1_555 1_555
N1A C1A 1_555 1_555
N2A C5 1_555 1_555
O1A P1A 1_555 1_555
O2A P1A 1_555 1_555
O3A P1A 1_555 1_555
P1A C1A 1_555 1_555
H15A N1A 1_555 1_555
H16A O1A 1_555 1_555
C2 N1 1_555 1_555
C6 N1 1_555 1_555
C7 N2 1_555 1_555
C2A N1A 1_555 1_555
C4A N2A 1_555 1_555
C6A N1A 1_555 1_555
C7A N2A 1_555 1_555

#END
