
#######################################################################
#
#                 Cambridge Crystallographic Data Centre
#                                CCDC 
#
#######################################################################
#
# If this CIF has been generated from an entry in the Cambridge 
# Structural Database, then it will include bibliographic, chemical, 
# crystal, experimental, refinement or atomic coordinate data resulting 
# from the CCDC's data processing and validation procedures.
#
#######################################################################

data_KUPLAI
_chemical_formula_moiety         'C26 H56 Si4'
_chemical_name_systematic        Octa-isopropyl-tetrasilacyclohexyne
_symmetry_cell_setting           orthorhombic
_symmetry_space_group_name_H-M   'P b c a'
_symmetry_Int_Tables_number      61
_space_group_name_Hall           '-P 2ac 2ab'
loop_
_symmetry_equiv_pos_site_id
_symmetry_equiv_pos_as_xyz
1 x,y,z
2 1/2-x,1/2+y,z
3 x,1/2-y,1/2+z
4 1/2-x,-y,1/2+z
5 -x,-y,-z
6 1/2+x,1/2-y,-z
7 -x,1/2+y,1/2-z
8 1/2+x,y,1/2-z
_cell_length_a                   21.574(5)
_cell_length_b                   17.697(5)
_cell_length_c                   16.398(1)
_cell_angle_alpha                90
_cell_angle_beta                 90
_cell_angle_gamma                90
_cell_volume                     6260.68
_cell_formula_units_Z            8
loop_
_atom_site_label
_atom_site_type_symbol
_atom_site_fract_x
_atom_site_fract_y
_atom_site_fract_z
Si1 Si 0.10629(3) 0.17130(5) 0.60147(5)
Si2 Si 0.15458(3) 0.10515(4) 0.71308(5)
Si3 Si 0.25289(4) 0.05093(4) 0.66911(4)
Si4 Si 0.30506(4) 0.13717(4) 0.57837(5)
C1 C 0.1786(1) 0.1871(2) 0.5443(2)
C2 C 0.2332(1) 0.1774(2) 0.5357(2)
C3 C 0.0753(1) 0.2677(2) 0.6312(2)
C4 C 0.0225(2) 0.2675(2) 0.6931(3)
C5 C 0.0577(2) 0.3159(2) 0.5570(3)
C6 C 0.0517(2) 0.1145(2) 0.5337(2)
C7 C -0.0157(2) 0.1125(2) 0.5627(3)
C8 C 0.0547(2) 0.1388(3) 0.4441(3)
C9 C 0.1686(2) 0.1776(2) 0.7976(2)
C10 C 0.1854(2) 0.1428(2) 0.8798(2)
C11 C 0.2156(2) 0.2381(2) 0.7760(2)
C12 C 0.1010(1) 0.0312(2) 0.7613(2)
C13 C 0.0438(2) 0.0692(2) 0.8013(2)
C14 C 0.0790(2) -0.0319(2) 0.7051(3)
C15 C 0.2340(1) -0.0395(2) 0.6106(2)
C16 C 0.1968(2) -0.0243(2) 0.5322(2)
C17 C 0.2893(2) -0.0900(2) 0.5918(2)
C18 C 0.3008(1) 0.0244(2) 0.7633(2)
C19 C 0.2707(2) -0.0398(2) 0.8114(2)
C20 C 0.3692(2) 0.0059(2) 0.7474(2)
C21 C 0.3452(2) 0.2203(2) 0.6279(2)
C22 C 0.3881(2) 0.2057(3) 0.6960(3)
C23 C 0.3718(2) 0.2764(2) 0.5673(3)
C24 C 0.3509(1) 0.0909(2) 0.4930(2)
C25 C 0.4139(2) 0.0594(2) 0.5198(3)
C26 C 0.3587(2) 0.1418(2) 0.4180(2)
H1 H 0.1095 0.2906 0.6594
H2 H 0.0665 0.0630 0.5397
H3 H 0.1301 0.2033 0.8015
H4 H 0.1277 0.0062 0.8008
H5 H 0.2064 -0.0662 0.6473
H6 H 0.3004 0.0692 0.7966
H7 H 0.3093 0.2446 0.6537
H8 H 0.3263 0.0474 0.4768
H9 H 0.0387 0.2587 0.7457
H10 H 0.0022 0.3152 0.6919
H11 H -0.0060 0.2287 0.6792
H12 H 0.0166 0.3048 0.5412
H13 H 0.0855 0.3045 0.5135
H14 H 0.0613 0.3677 0.5706
H15 H -0.0171 0.0945 0.6183
H16 H -0.0327 0.1622 0.5619
H17 H -0.0394 0.0801 0.5297
H18 H 0.0963 0.1371 0.4260
H19 H 0.0387 0.1884 0.4389
H20 H 0.0303 0.1048 0.4124
H21 H 0.1915 0.1812 0.9195
H22 H 0.1525 0.1101 0.8979
H23 H 0.2224 0.1137 0.8754
H24 H 0.2034 0.2620 0.7271
H25 H 0.2169 0.2743 0.8189
H26 H 0.2553 0.2156 0.7697
H27 H 0.0560 0.0184 0.8098
H28 H 0.0174 0.0853 0.8437
H29 H 0.0231 0.0731 0.7502
H30 H 0.0519 -0.0650 0.7344
H31 H 0.0568 -0.0108 0.6602
H32 H 0.1134 -0.0595 0.6854
H33 H 0.1595 0.0017 0.5452
H34 H 0.1863 -0.0714 0.5069
H35 H 0.2206 0.0050 0.4957
H36 H 0.2752 -0.1352 0.5668
H37 H 0.3101 -0.1024 0.6414
H38 H 0.3168 -0.0645 0.5563
H39 H 0.2961 -0.0531 0.8561
H40 H 0.2311 -0.0247 0.8298
H41 H 0.2660 -0.0828 0.7762
H42 H 0.3912 0.0068 0.7979
H43 H 0.3726 -0.0433 0.7244
H44 H 0.3865 0.0419 0.7115
H45 H 0.4122 0.1599 0.6855
H46 H 0.3669 0.1984 0.7458
H47 H 0.4174 0.2461 0.7024
H48 H 0.3423 0.2851 0.5267
H49 H 0.3816 0.3210 0.5958
H50 H 0.4084 0.2549 0.5450
H51 H 0.4384 0.0989 0.5420
H52 H 0.4347 0.0381 0.4743
H53 H 0.4077 0.0213 0.5602
H54 H 0.3859 0.1823 0.4311
H55 H 0.3747 0.1134 0.3741
H56 H 0.3191 0.1621 0.4033
loop_
_geom_bond_atom_site_label_1
_geom_bond_atom_site_label_2
_geom_bond_site_symmetry_1
_geom_bond_site_symmetry_2
Si1 Si2 1_555 1_555
Si2 Si3 1_555 1_555
Si3 Si4 1_555 1_555
Si4 C2 1_555 1_555
C1 Si1 1_555 1_555
C2 C1 1_555 1_555
C3 Si1 1_555 1_555
C4 C3 1_555 1_555
C5 C3 1_555 1_555
C6 Si1 1_555 1_555
C7 C6 1_555 1_555
C8 C6 1_555 1_555
C9 Si2 1_555 1_555
C10 C9 1_555 1_555
C11 C9 1_555 1_555
C12 Si2 1_555 1_555
C13 C12 1_555 1_555
C14 C12 1_555 1_555
C15 Si3 1_555 1_555
C16 C15 1_555 1_555
C17 C15 1_555 1_555
C18 Si3 1_555 1_555
C19 C18 1_555 1_555
C20 C18 1_555 1_555
C21 Si4 1_555 1_555
C22 C21 1_555 1_555
C23 C21 1_555 1_555
C24 Si4 1_555 1_555
C25 C24 1_555 1_555
C26 C24 1_555 1_555
H1 C3 1_555 1_555
H2 C6 1_555 1_555
H3 C9 1_555 1_555
H4 C12 1_555 1_555
H5 C15 1_555 1_555
H6 C18 1_555 1_555
H7 C21 1_555 1_555
H8 C24 1_555 1_555
H9 C4 1_555 1_555
H10 C4 1_555 1_555
H11 C4 1_555 1_555
H12 C5 1_555 1_555
H13 C5 1_555 1_555
H14 C5 1_555 1_555
H15 C7 1_555 1_555
H16 C7 1_555 1_555
H17 C7 1_555 1_555
H18 C8 1_555 1_555
H19 C8 1_555 1_555
H20 C8 1_555 1_555
H21 C10 1_555 1_555
H22 C10 1_555 1_555
H23 C10 1_555 1_555
H24 C11 1_555 1_555
H25 C11 1_555 1_555
H26 C11 1_555 1_555
H27 C13 1_555 1_555
H28 C13 1_555 1_555
H29 C13 1_555 1_555
H30 C14 1_555 1_555
H31 C14 1_555 1_555
H32 C14 1_555 1_555
H33 C16 1_555 1_555
H34 C16 1_555 1_555
H35 C16 1_555 1_555
H36 C17 1_555 1_555
H37 C17 1_555 1_555
H38 C17 1_555 1_555
H39 C19 1_555 1_555
H40 C19 1_555 1_555
H41 C19 1_555 1_555
H42 C20 1_555 1_555
H43 C20 1_555 1_555
H44 C20 1_555 1_555
H45 C22 1_555 1_555
H46 C22 1_555 1_555
H47 C22 1_555 1_555
H48 C23 1_555 1_555
H49 C23 1_555 1_555
H50 C23 1_555 1_555
H51 C25 1_555 1_555
H52 C25 1_555 1_555
H53 C25 1_555 1_555
H54 C26 1_555 1_555
H55 C26 1_555 1_555
H56 C26 1_555 1_555

#END
