
#######################################################################
#
#                 Cambridge Crystallographic Data Centre
#                                CCDC 
#
#######################################################################
#
# If this CIF has been generated from an entry in the Cambridge 
# Structural Database, then it will include bibliographic, chemical, 
# crystal, experimental, refinement or atomic coordinate data resulting 
# from the CCDC's data processing and validation procedures.
#
#######################################################################

data_KUPTUL
_chemical_formula_moiety         'C28 H22 O4'
_chemical_name_systematic        
1,12-bis(4-(Methoxycarbonyl)phenyl)dodeca-1,3,9,11-tetrayne
_symmetry_cell_setting           triclinic
_symmetry_space_group_name_H-M   'P -1'
_symmetry_Int_Tables_number      2
_space_group_name_Hall           '-P 1'
loop_
_symmetry_equiv_pos_site_id
_symmetry_equiv_pos_as_xyz
1 x,y,z
2 -x,-y,-z
_cell_length_a                   5.2122(3)
_cell_length_b                   9.6467(5)
_cell_length_c                   11.5659(5)
_cell_angle_alpha                72.603(18)
_cell_angle_beta                 77.652(18)
_cell_angle_gamma                75.178(18)
_cell_volume                     530.492
_exptl_crystal_colour            'pale yellow'
_exptl_crystal_description       'irregular plate'
_cell_formula_units_Z            1
loop_
_atom_site_label
_atom_site_type_symbol
_atom_site_fract_x
_atom_site_fract_y
_atom_site_fract_z
O1 O 1.2669(2) 0.41307(13) 0.33873(11)
O2 O 1.1783(3) 0.63018(14) 0.38885(12)
C1 C 0.9525(3) 0.60856(18) 0.23811(15)
C2 C 0.8198(4) 0.7562(2) 0.21376(17)
H1 H 0.853(4) 0.822(2) 0.2582(17)
C3 C 0.6397(4) 0.8103(2) 0.13082(16)
H2 H 0.544(4) 0.917(2) 0.1168(18)
C4 C 0.5892(3) 0.71599(19) 0.07050(15)
C5 C 0.7225(4) 0.5677(2) 0.09582(17)
H3 H 0.684(4) 0.500(2) 0.0551(18)
C6 C 0.9039(4) 0.5146(2) 0.17814(17)
H4 H 0.996(4) 0.414(2) 0.1936(17)
C7 C 1.1420(3) 0.5554(2) 0.32949(16)
C8 C 1.4532(4) 0.3525(2) 0.4259(2)
H5 H 1.546(4) 0.253(2) 0.4079(17)
H6 H 1.360(4) 0.340(2) 0.508(2)
H7 H 1.576(4) 0.416(2) 0.4134(19)
C9 C 0.4057(4) 0.77153(19) -0.01733(16)
C10 C 0.2533(4) 0.81692(18) -0.09112(16)
C11 C 0.0807(3) 0.87088(19) -0.17707(16)
C12 C -0.0672(3) 0.91851(18) -0.25264(16)
C13 C -0.2474(4) 0.9768(2) -0.34575(17)
H8 H -0.406(4) 0.925(2) -0.3163(18)
H9 H -0.315(4) 1.087(2) -0.3516(17)
C14 C -0.1083(4) 0.9556(2) -0.47218(16)
H10 H -0.236(3) 0.9863(18) -0.5246(16)
H11 H -0.033(3) 0.853(2) -0.4678(15)
O1A O -1.2669(2) 1.58693(13) -1.33873(11)
O2A O -1.1783(3) 1.36982(14) -1.38885(12)
C1A C -0.9525(3) 1.39144(18) -1.23811(15)
C2A C -0.8198(4) 1.2438(2) -1.21376(17)
H1A H -0.853(4) 1.178(2) -1.2582(17)
C3A C -0.6397(4) 1.1897(2) -1.13082(16)
H2A H -0.544(4) 1.083(2) -1.1168(18)
C4A C -0.5892(3) 1.28401(19) -1.07050(15)
C5A C -0.7225(4) 1.4323(2) -1.09582(17)
H3A H -0.684(4) 1.500(2) -1.0551(18)
C6A C -0.9039(4) 1.4854(2) -1.17814(17)
H4A H -0.996(4) 1.586(2) -1.1936(17)
C7A C -1.1420(3) 1.4446(2) -1.32949(16)
C8A C -1.4532(4) 1.6475(2) -1.4259(2)
H5A H -1.546(4) 1.747(2) -1.4079(17)
H6A H -1.360(4) 1.660(2) -1.508(2)
H7A H -1.576(4) 1.584(2) -1.4134(19)
C9A C -0.4057(4) 1.22847(19) -0.98267(16)
C10A C -0.2533(4) 1.18308(18) -0.90888(16)
C11A C -0.0807(3) 1.12912(19) -0.82293(16)
C12A C 0.0672(3) 1.08149(18) -0.74736(16)
C13A C 0.2474(4) 1.0232(2) -0.65425(17)
H8A H 0.406(4) 1.075(2) -0.6837(18)
H9A H 0.315(4) 0.913(2) -0.6484(17)
C14A C 0.1083(4) 1.0444(2) -0.52782(16)
H10A H 0.236(3) 1.0137(18) -0.4754(16)
H11A H 0.033(3) 1.147(2) -0.5322(15)
loop_
_geom_bond_atom_site_label_1
_geom_bond_atom_site_label_2
_geom_bond_site_symmetry_1
_geom_bond_site_symmetry_2
O1 C7 1_555 1_555
O2 C7 1_555 1_555
C1 C2 1_555 1_555
C2 H1 1_555 1_555
C3 C2 1_555 1_555
H2 C3 1_555 1_555
C4 C3 1_555 1_555
C5 C4 1_555 1_555
H3 C5 1_555 1_555
C6 C1 1_555 1_555
H4 C6 1_555 1_555
C7 C1 1_555 1_555
C8 O1 1_555 1_555
H5 C8 1_555 1_555
H6 C8 1_555 1_555
H7 C8 1_555 1_555
C9 C4 1_555 1_555
C10 C9 1_555 1_555
C11 C10 1_555 1_555
C12 C11 1_555 1_555
C13 C12 1_555 1_555
H8 C13 1_555 1_555
H9 C13 1_555 1_555
C14 C13 1_555 1_555
H10 C14 1_555 1_555
H11 C14 1_555 1_555
O1A C7A 1_555 1_555
O2A C7A 1_555 1_555
C1A C2A 1_555 1_555
C2A H1A 1_555 1_555
C3A C2A 1_555 1_555
H2A C3A 1_555 1_555
C4A C3A 1_555 1_555
C5A C4A 1_555 1_555
H3A C5A 1_555 1_555
C6A C1A 1_555 1_555
H4A C6A 1_555 1_555
C7A C1A 1_555 1_555
C8A O1A 1_555 1_555
H5A C8A 1_555 1_555
H6A C8A 1_555 1_555
H7A C8A 1_555 1_555
C9A C4A 1_555 1_555
C10A C9A 1_555 1_555
C11A C10A 1_555 1_555
C12A C11A 1_555 1_555
C13A C12A 1_555 1_555
H8A C13A 1_555 1_555
H9A C13A 1_555 1_555
C14A C14 1_555 1_555
H10A C14A 1_555 1_555
H11A C14A 1_555 1_555
C5 C6 1_555 1_555
C5A C6A 1_555 1_555
C13A C14A 1_555 1_555

#END
