
#######################################################################
#
#                 Cambridge Crystallographic Data Centre
#                                CCDC 
#
#######################################################################
#
# If this CIF has been generated from an entry in the Cambridge 
# Structural Database, then it will include bibliographic, chemical, 
# crystal, experimental, refinement or atomic coordinate data resulting 
# from the CCDC's data processing and validation procedures.
#
#######################################################################

data_KUPVOG
_chemical_formula_moiety         'C9 H12 N2 O5'
_chemical_name_systematic        
(-)-(2R,4R)-1-(2-(Hydroxymethyl)-1,3-dioxolan-4-yl)thymine
_chemical_properties_biological  'potential antiHIV activity'
_symmetry_cell_setting           monoclinic
_symmetry_space_group_name_H-M   'P 21'
_symmetry_Int_Tables_number      4
_space_group_name_Hall           'P 2yb'
loop_
_symmetry_equiv_pos_site_id
_symmetry_equiv_pos_as_xyz
1 x,y,z
2 -x,1/2+y,-z
_cell_length_a                   10.017(2)
_cell_length_b                   5.507(3)
_cell_length_c                   18.440(6)
_cell_angle_alpha                90
_cell_angle_beta                 100.93(8)
_cell_angle_gamma                90
_cell_volume                     998.764
_exptl_crystal_colour            colorless
_chemical_melting_point          174-175deg.C
_cell_formula_units_Z            4
loop_
_atom_site_label
_atom_site_type_symbol
_atom_site_fract_x
_atom_site_fract_y
_atom_site_fract_z
C1 C 0.2701(5) 0.8425(12) 0.1686(3)
C2 C 0.4837(5) 0.7175(14) 0.2501(3)
C3 C 0.4917(5) 0.5154(13) 0.1998(3)
C4 C 0.3941(5) 0.4911(12) 0.1398(3)
C5 C 0.6100(7) 0.3421(15) 0.2187(4)
C6 C 0.1731(5) 0.6109(13) 0.0579(3)
C7 C 0.1693(6) 0.8090(13) 0.0000(3)
C8 C 0.2263(5) 0.4649(13) -0.0514(2)
C9 C 0.3417(6) 0.3273(13) -0.0709(3)
N1 N 0.2851(4) 0.6484(11) 0.1221(2)
N2 N 0.3698(4) 0.8655 0.2287(2)
O1 O 0.1718(3) 0.9774(11) 0.1548(2)
O2 O 0.5655(4) 0.7591(13) 0.3065(2)
O3 O 0.2571(3) 0.7128(11) -0.0454(2)
O4 O 0.1991(4) 0.3969(11) 0.0206(2)
O5 O 0.4662(3) 0.3882(12) -0.0254(2)
H2 H 0.359(8) 0.959(20) 0.266(5)
H3 H 0.385(5) 0.355(11) 0.098(3)
H4 H 0.710(7) 0.403(16) 0.230(4)
H5 H 0.607(9) 0.223(23) 0.185(5)
H6 H 0.615(7) 0.298(16) 0.274(4)
H7 H 0.081(4) 0.591(9) 0.075(2)
H8 H 0.081(5) 0.807(10) -0.031(3)
H9 H 0.199(6) 0.980(16) 0.022(4)
H10 H 0.138(4) 0.432(9) -0.089(2)
H11 H 0.318(6) 0.156(13) -0.070(3)
H12 H 0.335(5) 0.363(11) -0.118(3)
C10 C 0.2257(5) 1.3910(13) 0.3137(2)
C11 C 0.0188(5) 1.5496(13) 0.2324(2)
C12 C 0.0115(5) 1.7337(13) 0.2882(3)
C13 C 0.1050(5) 1.7322(14) 0.3500(3)
C14 C -0.1012(6) 1.9181(15) 0.2730(4)
C15 C 0.3122(7) 1.5764(15) 0.4330(3)
C16 C 0.3998(6) 1.8072(15) 0.4383(3)
C17 C 0.2906(7) 1.8142(18) 0.5336(3)
C18 C 0.1797(8) 1.9468(27) 0.5629(4)
N3 N 0.2103(4) 1.5641(12) 0.3642(2)
N4 N 0.1280(4) 1.3895(11) 0.2508(2)
O6 O 0.3221(4) 1.2484(11) 0.3231(2)
O7 O -0.0592(4) 1.5272(12) 0.1742(2)
O8 O 0.3353(4) 1.9633(12) 0.4822(2)
O9 O 0.2466(5) 1.5957(14) 0.4938(2)
O10 O 0.0637(5) 1.9921(24) 0.5090(3)
H1 H 0.112(5) 1.852(13) 0.390(3)
H13 H -0.100(6) 2.027(15) 0.214(3)
H14 H -0.085(8) 2.041(24) 0.311(5)
H15 H -0.179(5) 1.876(10) 0.256(2)
H16 H 0.362(9) 1.473(21) 0.435(5)
H17 H 0.501(5) 1.783(10) 0.465(3)
H18 H 0.401(7) 1.898(19) 0.373(4)
H19 H 0.358(6) 1.748(12) 0.569(3)
H20 H 0.206(6) 1.760(14) 0.593(4)
H21 H 0.201(14) 1.939(38) 0.600(8)
H22 H 0.139(6) 1.261(14) 0.211(3)
loop_
_geom_bond_atom_site_label_1
_geom_bond_atom_site_label_2
_geom_bond_site_symmetry_1
_geom_bond_site_symmetry_2
C1 N1 1_555 1_555
C2 C3 1_555 1_555
C3 C4 1_555 1_555
C4 N1 1_555 1_555
C5 C3 1_555 1_555
C6 C7 1_555 1_555
C7 O3 1_555 1_555
C8 C9 1_555 1_555
C9 O5 1_555 1_555
N1 C6 1_555 1_555
N2 C1 1_555 1_555
O1 C1 1_555 1_555
O2 C2 1_555 1_555
O3 C8 1_555 1_555
O4 C6 1_555 1_555
C10 N3 1_555 1_555
C11 C12 1_555 1_555
C12 C13 1_555 1_555
C13 N3 1_555 1_555
C14 C12 1_555 1_555
C15 C16 1_555 1_555
C16 O8 1_555 1_555
C17 C18 1_555 1_555
C18 O10 1_555 1_555
N3 C15 1_555 1_555
N4 C10 1_555 1_555
O6 C10 1_555 1_555
O7 C11 1_555 1_555
O8 C17 1_555 1_555
O9 C15 1_555 1_555
H1 C13 1_555 1_555
H2 N2 1_555 1_555
H3 C4 1_555 1_555
H4 C5 1_555 1_555
H5 C5 1_555 1_555
H6 C5 1_555 1_555
H7 C6 1_555 1_555
H8 C7 1_555 1_555
H9 C7 1_555 1_555
H10 C8 1_555 1_555
H11 C9 1_555 1_555
H12 C9 1_555 1_555
H13 C14 1_555 1_555
H14 C14 1_555 1_555
H15 C14 1_555 1_555
H16 C15 1_555 1_555
H17 C16 1_555 1_555
H18 C16 1_555 1_555
H19 C17 1_555 1_555
H20 C18 1_555 1_555
H21 C18 1_555 1_555
H22 N4 1_555 1_555
C2 N2 1_555 1_555
C8 O4 1_555 1_555
C11 N4 1_555 1_555
C17 O9 1_555 1_555

#END
