
#######################################################################
#
#                 Cambridge Crystallographic Data Centre
#                                CCDC 
#
#######################################################################
#
# If this CIF has been generated from an entry in the Cambridge 
# Structural Database, then it will include bibliographic, chemical, 
# crystal, experimental, refinement or atomic coordinate data resulting 
# from the CCDC's data processing and validation procedures.
#
#######################################################################

data_KUPXAW
_chemical_formula_moiety         'C35 H54 O2'
_chemical_name_systematic        3-((4-Methoxybenzyl)oxy)cholest-5-ene
_symmetry_cell_setting           monoclinic
_symmetry_space_group_name_H-M   'P 21'
_symmetry_Int_Tables_number      4
_space_group_name_Hall           'P 2yb'
loop_
_symmetry_equiv_pos_site_id
_symmetry_equiv_pos_as_xyz
1 x,y,z
2 -x,1/2+y,-z
_cell_length_a                   12.0622(3)
_cell_length_b                   9.18339(18)
_cell_length_c                   13.6306(3)
_cell_angle_alpha                90
_cell_angle_beta                 94.300(2)
_cell_angle_gamma                90
_cell_volume                     1505.64
_exptl_crystal_colour            colorless
_exptl_crystal_description       needle
_cell_formula_units_Z            2
loop_
_atom_site_label
_atom_site_type_symbol
_atom_site_fract_x
_atom_site_fract_y
_atom_site_fract_z
O1 O 0.15138(15) 0.6687(2) 0.85103(14)
O2 O -0.28036(13) 0.73219(18) 1.08263(11)
C1 C 0.44906(19) 0.6824(2) 0.79109(16)
H1 H 0.5181 0.6728 0.8346
H2 H 0.4483 0.7815 0.7625
C2 C 0.3493(2) 0.6672(3) 0.85373(17)
H3 H 0.3537 0.5731 0.8892
H4 H 0.3508 0.7464 0.9031
C3 C 0.2437(2) 0.6744(3) 0.78970(18)
H5 H 0.2411 0.7688 0.7530
C4 C 0.23910(18) 0.5489(3) 0.71572(17)
H6 H 0.2414 0.4548 0.7512
H7 H 0.1687 0.5536 0.6736
C5 C 0.33774(17) 0.5590(2) 0.65182(16)
C6 C 0.32186(17) 0.5567(2) 0.55454(16)
H8 H 0.2474 0.5486 0.5270
C7 C 0.41161(16) 0.5659(2) 0.48433(15)
H9 H 0.4078 0.6623 0.4517
H10 H 0.3983 0.4906 0.4328
C8 C 0.52802(16) 0.5448(2) 0.53509(14)
H11 H 0.5408 0.4384 0.5465
C9 C 0.53878(16) 0.6236(2) 0.63485(14)
H12 H 0.5205 0.7281 0.6206
C10 C 0.45251(16) 0.5701(2) 0.70647(15)
C11 C 0.65896(16) 0.6219(2) 0.68078(14)
H13 H 0.6783 0.5213 0.7019
H14 H 0.6638 0.6843 0.7402
C12 C 0.74463(16) 0.6753(2) 0.61023(14)
H15 H 0.7312 0.7796 0.5951
H16 H 0.8204 0.6659 0.6428
C13 C 0.73710(16) 0.5876(2) 0.51407(14)
C14 C 0.61569(15) 0.6017(2) 0.46995(14)
H17 H 0.6012 0.7084 0.4619
C15 C 0.61848(17) 0.5401(2) 0.36620(15)
H18 H 0.5565 0.5792 0.3222
H19 H 0.6140 0.4325 0.3666
C16 C 0.73226(16) 0.5922(2) 0.33374(15)
H20 H 0.7216 0.6705 0.2840
H21 H 0.7721 0.5105 0.3046
C17 C 0.79987(15) 0.6500(2) 0.42780(14)
H22 H 0.7908 0.7583 0.4287
C18 C 0.48370(18) 0.4197(2) 0.75083(16)
H23 H 0.4235 0.3848 0.7893
H24 H 0.5523 0.4281 0.7937
H25 H 0.4950 0.3506 0.6977
C19 C 0.77013(17) 0.4285(2) 0.53364(16)
H26 H 0.7183 0.3840 0.5769
H27 H 0.8457 0.4245 0.5654
H28 H 0.7675 0.3753 0.4712
C20 C 0.92489(16) 0.6181(2) 0.42640(15)
H29 H 0.9344 0.5100 0.4238
C21 C 0.99072(17) 0.6734(3) 0.51905(16)
H30 H 0.9710 0.7752 0.5306
H31 H 1.0705 0.6665 0.5104
H32 H 0.9729 0.6141 0.5755
C22 C 0.97224(17) 0.6832(2) 0.33412(15)
H33 H 0.9208 0.6603 0.2761
H34 H 0.9753 0.7904 0.3410
C23 C 1.08824(16) 0.6274(2) 0.31539(15)
H35 H 1.1416 0.6595 0.3698
H36 H 1.0874 0.5196 0.3152
C24 C 1.12777(17) 0.6814(2) 0.21795(15)
H37 H 1.1147 0.7877 0.2133
H38 H 1.0818 0.6348 0.1635
C25 C 1.25067(17) 0.6519(2) 0.20317(15)
H39 H 1.2964 0.7049 0.2560
C26 C 1.28038(19) 0.4916(3) 0.21129(17)
H40 H 1.2344 0.4364 0.1620
H41 H 1.2670 0.4563 0.2772
H42 H 1.3590 0.4786 0.1999
C27 C 1.2804(2) 0.7119(3) 0.10465(18)
H43 H 1.3591 0.6934 0.0964
H44 H 1.2664 0.8170 0.1025
H45 H 1.2347 0.6641 0.0516
C28 C 0.0659(2) 0.7560(4) 0.8225(2)
H46 H 0.0362 0.7282 0.7554
H47 H 0.0924 0.8578 0.8201
C29 C -0.0261(2) 0.7460(3) 0.89199(19)
C30 C -0.0316(2) 0.8429(3) 0.97016(19)
H48 H 0.0245 0.9148 0.9810
C31 C -0.1169(2) 0.8369(3) 1.03229(17)
H49 H -0.1197 0.9047 1.0846
C32 C -0.19850(18) 0.7306(2) 1.01752(15)
C33 C -0.19483(19) 0.6330(2) 0.94052(16)
H50 H -0.2506 0.5605 0.9300
C34 C -0.1080(2) 0.6423(3) 0.87840(18)
H51 H -0.1055 0.5754 0.8255
C35 C -0.3614(2) 0.6195(3) 1.07284(19)
H52 H -0.4016 0.6256 1.0078
H53 H -0.4139 0.6306 1.1238
H54 H -0.3244 0.5246 1.0802
loop_
_geom_bond_atom_site_label_1
_geom_bond_atom_site_label_2
_geom_bond_site_symmetry_1
_geom_bond_site_symmetry_2
O1 C3 1_555 1_555
O2 C32 1_555 1_555
C1 H1 1_555 1_555
H2 C1 1_555 1_555
C2 C1 1_555 1_555
H3 C2 1_555 1_555
H4 C2 1_555 1_555
C3 C2 1_555 1_555
H5 C3 1_555 1_555
C4 C3 1_555 1_555
H6 C4 1_555 1_555
H7 C4 1_555 1_555
C5 C4 1_555 1_555
C6 C5 1_555 1_555
H8 C6 1_555 1_555
C7 C6 1_555 1_555
H9 C7 1_555 1_555
H10 C7 1_555 1_555
C8 C7 1_555 1_555
H11 C8 1_555 1_555
C9 C8 1_555 1_555
H12 C9 1_555 1_555
C10 C1 1_555 1_555
C11 C9 1_555 1_555
H13 C11 1_555 1_555
H14 C11 1_555 1_555
C12 C11 1_555 1_555
H15 C12 1_555 1_555
H16 C12 1_555 1_555
C13 C12 1_555 1_555
C14 C8 1_555 1_555
H17 C14 1_555 1_555
C15 C14 1_555 1_555
H18 C15 1_555 1_555
H19 C15 1_555 1_555
C16 C15 1_555 1_555
H20 C16 1_555 1_555
H21 C16 1_555 1_555
C17 C13 1_555 1_555
H22 C17 1_555 1_555
C18 C10 1_555 1_555
H23 C18 1_555 1_555
H24 C18 1_555 1_555
H25 C18 1_555 1_555
C19 C13 1_555 1_555
H26 C19 1_555 1_555
H27 C19 1_555 1_555
H28 C19 1_555 1_555
C20 C17 1_555 1_555
H29 C20 1_555 1_555
C21 C20 1_555 1_555
H30 C21 1_555 1_555
H31 C21 1_555 1_555
H32 C21 1_555 1_555
C22 C20 1_555 1_555
H33 C22 1_555 1_555
H34 C22 1_555 1_555
C23 C22 1_555 1_555
H35 C23 1_555 1_555
H36 C23 1_555 1_555
C24 C23 1_555 1_555
H37 C24 1_555 1_555
H38 C24 1_555 1_555
C25 C24 1_555 1_555
H39 C25 1_555 1_555
C26 C25 1_555 1_555
H40 C26 1_555 1_555
H41 C26 1_555 1_555
H42 C26 1_555 1_555
C27 C25 1_555 1_555
H43 C27 1_555 1_555
H44 C27 1_555 1_555
H45 C27 1_555 1_555
C28 O1 1_555 1_555
H46 C28 1_555 1_555
H47 C28 1_555 1_555
C29 C28 1_555 1_555
C30 C29 1_555 1_555
H48 C30 1_555 1_555
C31 C30 1_555 1_555
H49 C31 1_555 1_555
C32 C31 1_555 1_555
C33 C32 1_555 1_555
H50 C33 1_555 1_555
C34 C29 1_555 1_555
H51 C34 1_555 1_555
C35 O2 1_555 1_555
H52 C35 1_555 1_555
H53 C35 1_555 1_555
H54 C35 1_555 1_555
C5 C10 1_555 1_555
C9 C10 1_555 1_555
C13 C14 1_555 1_555
C16 C17 1_555 1_555
C33 C34 1_555 1_555

#END
