
#######################################################################
#
#                 Cambridge Crystallographic Data Centre
#                                CCDC 
#
#######################################################################
#
# If this CIF has been generated from an entry in the Cambridge 
# Structural Database, then it will include bibliographic, chemical, 
# crystal, experimental, refinement or atomic coordinate data resulting 
# from the CCDC's data processing and validation procedures.
#
#######################################################################

data_KUQGIO
_chemical_formula_moiety         'C16 H22 O6'
_chemical_name_systematic        
5-(((4-methoxybenzyl)oxy)methyl)-2,2-dimethyltetrahydrofuro[2,3-d][1,3]dioxol-6-ol
_symmetry_cell_setting           monoclinic
_symmetry_space_group_name_H-M   'P 21'
_symmetry_Int_Tables_number      4
_space_group_name_Hall           'P 2yb'
loop_
_symmetry_equiv_pos_site_id
_symmetry_equiv_pos_as_xyz
1 x,y,z
2 -x,1/2+y,-z
_cell_length_a                   9.64383(15)
_cell_length_b                   5.51183(7)
_cell_length_c                   14.44803(18)
_cell_angle_alpha                90
_cell_angle_beta                 95.6537(13)
_cell_angle_gamma                90
_cell_volume                     764.251
_exptl_crystal_colour            colorless
_exptl_crystal_description       block
_cell_formula_units_Z            2
loop_
_atom_site_label
_atom_site_type_symbol
_atom_site_fract_x
_atom_site_fract_y
_atom_site_fract_z
O1 O 0.07905(9) 0.26138(16) 0.21069(6)
O2 O 0.05624(10) 0.76647(18) 0.24883(6)
H1 H 0.065(2) 0.907(5) 0.2396(14)
O3 O 0.28186(9) 0.50325(16) 0.08754(6)
O4 O 0.12603(9) 0.19425(17) 0.05707(6)
O5 O 0.20039(9) 0.15836(17) 0.40270(6)
O6 O 0.46455(9) 0.8043(2) 0.73755(6)
C1 C 0.18619(13) 0.3993(2) 0.26657(8)
H2 H 0.2798 0.3273 0.2596
C2 C 0.17697(13) 0.6497(2) 0.22241(8)
H3 H 0.2634 0.7477 0.2380
C3 C 0.15412(12) 0.5853(2) 0.11933(8)
H4 H 0.1085 0.7181 0.0802
C4 C 0.06678(13) 0.3531(2) 0.11820(8)
H5 H -0.0328 0.3875 0.0961
C5 C 0.15816(14) 0.3908(2) 0.36728(9)
H6 H 0.2113 0.5199 0.4028
H7 H 0.0577 0.4162 0.3729
C6 C 0.25219(12) 0.2984(2) 0.02857(8)
C7 C 0.36906(14) 0.1167(2) 0.04572(9)
H8 H 0.4528 0.1797 0.0208
H9 H 0.3416 -0.0366 0.0148
H10 H 0.3886 0.0890 0.1127
C8 C 0.22494(14) 0.3784(3) -0.07226(8)
H11 H 0.1502 0.4995 -0.0779
H12 H 0.1971 0.2378 -0.1113
H13 H 0.3100 0.4494 -0.0926
C9 C 0.17238(14) 0.1227(3) 0.49734(8)
H14 H 0.2003 -0.0441 0.5166
H15 H 0.0708 0.1377 0.5013
C10 C 0.24772(13) 0.3011(3) 0.56423(8)
C11 C 0.17501(14) 0.4492(3) 0.61972(9)
H16 H 0.0766 0.4340 0.6171
C12 C 0.24237(13) 0.6204(3) 0.67957(8)
H17 H 0.1907 0.7205 0.7172
C13 C 0.38624(13) 0.6416(3) 0.68305(8)
C14 C 0.46168(13) 0.4904(3) 0.62886(9)
H18 H 0.5603 0.5032 0.6324
C15 C 0.39299(14) 0.3223(3) 0.57008(8)
H19 H 0.4448 0.2200 0.5333
C16 C 0.39151(15) 0.9744(3) 0.78887(9)
H20 H 0.3293 1.0717 0.7459
H21 H 0.4585 1.0812 0.8243
H22 H 0.3365 0.8873 0.8318
loop_
_geom_bond_atom_site_label_1
_geom_bond_atom_site_label_2
_geom_bond_site_symmetry_1
_geom_bond_site_symmetry_2
O1 C1 1_555 1_555
O2 H1 1_555 1_555
O3 C3 1_555 1_555
O4 C4 1_555 1_555
O5 C5 1_555 1_555
O6 C13 1_555 1_555
C1 H2 1_555 1_555
C2 O2 1_555 1_555
H3 C2 1_555 1_555
C3 C2 1_555 1_555
H4 C3 1_555 1_555
C4 O1 1_555 1_555
H5 C4 1_555 1_555
C5 C1 1_555 1_555
H6 C5 1_555 1_555
H7 C5 1_555 1_555
C6 O3 1_555 1_555
C7 C6 1_555 1_555
H8 C7 1_555 1_555
H9 C7 1_555 1_555
H10 C7 1_555 1_555
C8 C6 1_555 1_555
H11 C8 1_555 1_555
H12 C8 1_555 1_555
H13 C8 1_555 1_555
C9 O5 1_555 1_555
H14 C9 1_555 1_555
H15 C9 1_555 1_555
C10 C9 1_555 1_555
C11 C10 1_555 1_555
H16 C11 1_555 1_555
C12 C11 1_555 1_555
H17 C12 1_555 1_555
C13 C12 1_555 1_555
C14 C13 1_555 1_555
H18 C14 1_555 1_555
C15 C10 1_555 1_555
H19 C15 1_555 1_555
C16 O6 1_555 1_555
H20 C16 1_555 1_555
H21 C16 1_555 1_555
H22 C16 1_555 1_555
O4 C6 1_555 1_555
C1 C2 1_555 1_555
C3 C4 1_555 1_555
C14 C15 1_555 1_555

#END
