
#######################################################################
#
#                 Cambridge Crystallographic Data Centre
#                                CCDC 
#
#######################################################################
#
# If this CIF has been generated from an entry in the Cambridge 
# Structural Database, then it will include bibliographic, chemical, 
# crystal, experimental, refinement or atomic coordinate data resulting 
# from the CCDC's data processing and validation procedures.
#
#######################################################################

data_KUQREV
_chemical_formula_moiety         'C24 H23 Br1 N2 S2'
_chemical_name_systematic        
2-(4-bromophenyl)-1-heptyl-1H-bisthieno[2,3-e:3',2'-g]benzimidazole
_symmetry_cell_setting           triclinic
_symmetry_space_group_name_H-M   'P -1'
_symmetry_Int_Tables_number      2
_space_group_name_Hall           '-P 1'
loop_
_symmetry_equiv_pos_site_id
_symmetry_equiv_pos_as_xyz
1 x,y,z
2 -x,-y,-z
_cell_length_a                   5.3489(14)
_cell_length_b                   16.754(4)
_cell_length_c                   24.034(6)
_cell_angle_alpha                89.741(8)
_cell_angle_beta                 89.969(9)
_cell_angle_gamma                89.739(9)
_cell_volume                     2153.77
_exptl_crystal_colour            yellow
_exptl_crystal_description       needle
_cell_formula_units_Z            4
_exptl_crystal_recrystallization_method layering
_exptl_crystal_preparation       Luminescent
loop_
_atom_site_label
_atom_site_type_symbol
_atom_site_fract_x
_atom_site_fract_y
_atom_site_fract_z
Br1 Br 0.26957(13) 0.91396(4) 0.06338(3)
S1 S -0.2926(3) 0.56982(9) -0.25988(6)
S2 S -0.8923(3) 0.88894(9) -0.26887(6)
N1 N -0.4316(9) 0.8491(3) -0.17789(19)
N2 N -0.2032(8) 0.7365(3) -0.17560(18)
C1 C -0.5054(10) 0.7981(3) -0.2207(2)
C2 C -0.4221(10) 0.6636(3) -0.2562(2)
C3 C -0.6972(10) 0.8082(3) -0.2603(2)
C4 C -0.7545(10) 0.7458(3) -0.2976(2)
C5 C -0.3691(10) 0.7275(3) -0.2192(2)
C6 C -0.4983(11) 0.5419(3) -0.3116(2)
H1 H -0.4990 0.4904 -0.3280
C7 C -0.2516(10) 0.8098(3) -0.1526(2)
C8 C -0.9609(10) 0.7674(4) -0.3326(2)
H2 H -1.0276 0.7337 -0.3605
C9 C -1.0497(11) 0.8410(4) -0.3213(2)
H3 H -1.1869 0.8643 -0.3407
C10 C 0.0121(10) 0.6858(3) -0.1637(2)
H4 H 0.1461 0.7195 -0.1480
H5 H 0.0747 0.6637 -0.1992
C11 C 0.2010(11) 0.5654(4) -0.1187(2)
H6 H 0.2402 0.5426 -0.1557
H7 H 0.3422 0.6001 -0.1080
C12 C -0.6573(11) 0.6007(3) -0.3261(2)
H8 H -0.7822 0.5956 -0.3539
C13 C -0.6162(10) 0.6731(3) -0.2943(2)
C14 C -0.1240(10) 0.8378(3) -0.1012(2)
C15 C -0.0352(10) 0.6167(3) -0.1237(2)
H9 H -0.1751 0.5839 -0.1376
H10 H -0.0821 0.6377 -0.0867
C16 C 0.4024(11) 0.4430(4) -0.0779(3)
H11 H 0.5558 0.4750 -0.0727
H12 H 0.4127 0.4178 -0.1150
C17 C 0.1816(11) 0.4982(4) -0.0772(2)
H13 H 0.1639 0.5209 -0.0394
H14 H 0.0288 0.4671 -0.0851
C18 C 0.1855(15) 0.9149(5) -0.0533(3)
H15 H 0.3181 0.9524 -0.0546
C19 C 0.0711(13) 0.8908(4) -0.1023(3)
H16 H 0.1285 0.9111 -0.1370
C20 C 0.3984(11) 0.3778(4) -0.0341(3)
H17 H 0.3960 0.4026 0.0032
H18 H 0.2428 0.3466 -0.0382
C21 C -0.1977(13) 0.8087(5) -0.0512(3)
H19 H -0.3299 0.7711 -0.0498
C22 C -0.0853(14) 0.8325(5) -0.0023(3)
H20 H -0.1428 0.8121 0.0323
C23 C 0.6197(12) 0.3219(4) -0.0378(3)
H21 H 0.6040 0.2887 -0.0711
H22 H 0.6248 0.2876 -0.0047
H23 H 0.7741 0.3530 -0.0401
C24 C 0.1079(11) 0.8850(4) -0.0038(2)
Br2 Br 0.26951(13) 0.41393(4) 0.43666(3)
S3 S -0.2921(3) 0.06995(9) 0.75986(6)
S4 S -0.8929(3) 0.38904(9) 0.76882(6)
N3 N -0.4309(8) 0.3488(3) 0.67796(18)
C25 C -0.5055(10) 0.2984(3) 0.7205(2)
N4 N -0.2047(8) 0.2364(3) 0.67549(18)
C26 C -0.4230(9) 0.1632(3) 0.7562(2)
C27 C -0.6977(10) 0.3074(3) 0.7604(2)
C28 C -0.6572(11) 0.1012(3) 0.8255(2)
H24 H -0.7847 0.0956 0.8528
C29 C 0.1999(10) 0.0668(3) 0.6190(2)
H25 H 0.2412 0.0446 0.6561
H26 H 0.3395 0.1017 0.6074
C30 C -0.7554(10) 0.2462(3) 0.7973(2)
C31 C 0.1790(10) -0.0024(4) 0.5774(2)
H27 H 0.0280 -0.0340 0.5863
H28 H 0.1578 0.0199 0.5394
C32 C 0.0115(9) 0.1856(3) 0.6639(2)
H29 H 0.0728 0.1631 0.6995
H30 H 0.1462 0.2194 0.6483
C33 C -0.3704(10) 0.2276(3) 0.7196(2)
C34 C -0.2508(10) 0.3093(3) 0.6526(2)
C35 C -0.1237(10) 0.3377(3) 0.6008(2)
C36 C -0.4957(11) 0.0414(4) 0.8122(2)
H31 H -0.4948 -0.0097 0.8295
C37 C -1.0498(11) 0.3402(4) 0.8216(2)
H32 H -1.1865 0.3632 0.8411
C38 C -0.6184(10) 0.1727(3) 0.7952(2)
C39 C -0.0358(10) 0.1168(3) 0.6237(2)
H33 H -0.1750 0.0835 0.6376
H34 H -0.0827 0.1382 0.5866
C40 C 0.4043(10) -0.0570(3) 0.5780(2)
H35 H 0.4172 -0.0823 0.6152
H36 H 0.5562 -0.0245 0.5723
C41 C 0.1060(11) 0.3861(4) 0.5041(2)
C42 C -0.9622(10) 0.2674(3) 0.8325(2)
H37 H -1.0289 0.2332 0.8604
C43 C -0.2000(15) 0.3092(5) 0.5509(3)
H38 H -0.3349 0.2726 0.5494
C44 C 0.0697(13) 0.3903(4) 0.6031(3)
H39 H 0.1258 0.4099 0.6379
C45 C 0.3993(11) -0.1225(4) 0.5342(3)
H40 H 0.2446 -0.1541 0.5389
H41 H 0.3942 -0.0975 0.4968
C46 C 0.6209(12) -0.1778(4) 0.5373(3)
H42 H 0.7752 -0.1468 0.5343
H43 H 0.6131 -0.2162 0.5068
H44 H 0.6188 -0.2065 0.5729
C47 C 0.1853(14) 0.4152(5) 0.5536(3)
H45 H 0.3187 0.4524 0.5548
C48 C -0.0852(14) 0.3326(5) 0.5023(3)
H46 H -0.1387 0.3115 0.4677
loop_
_geom_bond_atom_site_label_1
_geom_bond_atom_site_label_2
_geom_bond_site_symmetry_1
_geom_bond_site_symmetry_2
Br1 C24 1_555 1_555
S1 C2 1_555 1_555
S2 C3 1_555 1_555
N1 C1 1_555 1_555
N2 C5 1_555 1_555
C1 C3 1_555 1_555
C2 C5 1_555 1_555
C3 C4 1_555 1_555
C4 C8 1_555 1_555
C5 C1 1_555 1_555
C6 S1 1_555 1_555
H1 C6 1_555 1_555
C7 N1 1_555 1_555
C8 H2 1_555 1_555
C9 S2 1_555 1_555
H3 C9 1_555 1_555
C10 N2 1_555 1_555
H4 C10 1_555 1_555
H5 C10 1_555 1_555
C11 H6 1_555 1_555
H7 C11 1_555 1_555
C12 C6 1_555 1_555
H8 C12 1_555 1_555
C13 C2 1_555 1_555
C14 C7 1_555 1_555
C15 C10 1_555 1_555
H9 C15 1_555 1_555
H10 C15 1_555 1_555
C16 H11 1_555 1_555
H12 C16 1_555 1_555
C17 C11 1_555 1_555
H13 C17 1_555 1_555
H14 C17 1_555 1_555
C18 H15 1_555 1_555
C19 C14 1_555 1_555
H16 C19 1_555 1_555
C20 C16 1_555 1_555
H17 C20 1_555 1_555
H18 C20 1_555 1_555
C21 C14 1_555 1_555
H19 C21 1_555 1_555
C22 C21 1_555 1_555
H20 C22 1_555 1_555
C23 C20 1_555 1_555
H21 C23 1_555 1_555
H22 C23 1_555 1_555
H23 C23 1_555 1_555
C24 C18 1_555 1_555
Br2 C41 1_555 1_555
S3 C26 1_555 1_555
S4 C27 1_555 1_555
N3 C25 1_555 1_555
C25 C27 1_555 1_555
N4 C32 1_555 1_555
C26 C33 1_555 1_555
C27 C30 1_555 1_555
C28 H24 1_555 1_555
C29 H25 1_555 1_555
H26 C29 1_555 1_555
C30 C38 1_555 1_555
C31 C29 1_555 1_555
H27 C31 1_555 1_555
H28 C31 1_555 1_555
C32 H29 1_555 1_555
H30 C32 1_555 1_555
C33 C25 1_555 1_555
C34 N3 1_555 1_555
C35 C34 1_555 1_555
C36 S3 1_555 1_555
H31 C36 1_555 1_555
C37 S4 1_555 1_555
H32 C37 1_555 1_555
C38 C26 1_555 1_555
C39 C29 1_555 1_555
H33 C39 1_555 1_555
H34 C39 1_555 1_555
C40 C31 1_555 1_555
H35 C40 1_555 1_555
H36 C40 1_555 1_555
C41 C47 1_555 1_555
C42 C30 1_555 1_555
H37 C42 1_555 1_555
C43 C35 1_555 1_555
H38 C43 1_555 1_555
C44 C35 1_555 1_555
H39 C44 1_555 1_555
C45 C40 1_555 1_555
H40 C45 1_555 1_555
H41 C45 1_555 1_555
C46 C45 1_555 1_555
H42 C46 1_555 1_555
H43 C46 1_555 1_555
H44 C46 1_555 1_555
C47 C44 1_555 1_555
H45 C47 1_555 1_555
C48 C41 1_555 1_555
H46 C48 1_555 1_555
N2 C7 1_555 1_555
C4 C13 1_555 1_555
C8 C9 1_555 1_555
C11 C15 1_555 1_555
C12 C13 1_555 1_555
C16 C17 1_555 1_555
C18 C19 1_555 1_555
C22 C24 1_555 1_555
N4 C33 1_555 1_555
N4 C34 1_555 1_555
C28 C36 1_555 1_555
C28 C38 1_555 1_555
C32 C39 1_555 1_555
C37 C42 1_555 1_555
C43 C48 1_555 1_555

#END
