
#######################################################################
#
#                 Cambridge Crystallographic Data Centre
#                                CCDC 
#
#######################################################################
#
# If this CIF has been generated from an entry in the Cambridge 
# Structural Database, then it will include bibliographic, chemical, 
# crystal, experimental, refinement or atomic coordinate data resulting 
# from the CCDC's data processing and validation procedures.
#
#######################################################################

data_KUQTIB
_chemical_formula_moiety         'C19 H20 O6'
_chemical_name_systematic        'Pentane-1,5-diyl bis(3-(2-furyl)acrylate)'
_symmetry_cell_setting           orthorhombic
_symmetry_space_group_name_H-M   'P n a 21'
_symmetry_Int_Tables_number      33
_space_group_name_Hall           'P 2c -2n'
loop_
_symmetry_equiv_pos_site_id
_symmetry_equiv_pos_as_xyz
1 x,y,z
2 -x,-y,1/2+z
3 1/2-x,1/2+y,1/2+z
4 1/2+x,1/2-y,z
_cell_length_a                   23.0884(7)
_cell_length_b                   10.4956(4)
_cell_length_c                   7.3329(2)
_cell_angle_alpha                90
_cell_angle_beta                 90
_cell_angle_gamma                90
_cell_volume                     1776.96
_exptl_crystal_colour            colorless
_exptl_crystal_description       plate
_cell_formula_units_Z            4
loop_
_atom_site_label
_atom_site_type_symbol
_atom_site_fract_x
_atom_site_fract_y
_atom_site_fract_z
O1 O 0.98017(6) 0.28031(16) 0.9279(2)
O2 O 0.77643(6) 0.16527(16) 0.6993(2)
O3 O 0.47334(6) 0.25136(16) 0.4251(2)
O4 O 0.40980(7) 0.08963(17) 0.4103(3)
O5 O 0.28772(7) 0.47073(17) 0.2092(2)
O6 O 0.81885(7) -0.02579(18) 0.7321(3)
C1 C 1.03544(10) 0.3006(3) 0.9891(4)
H1 H 1.0527 0.3821 1.0042
C2 C 0.97255(10) 0.1504(2) 0.9250(3)
C3 C 0.91852(10) 0.0994(3) 0.8624(3)
H2 H 0.9155 0.0091 0.8634
C4 C 0.87203(10) 0.1622(2) 0.8029(3)
H3 H 0.8717 0.2526 0.7997
C5 C 0.82132(10) 0.0891(2) 0.7423(3)
C6 C 0.72393(9) 0.1000(2) 0.6434(3)
H4 H 0.7119 0.0386 0.7387
H5 H 0.7308 0.0524 0.5289
C7 C 0.67726(9) 0.1987(3) 0.6149(3)
H6 H 0.6889 0.2578 0.5163
H7 H 0.6720 0.2489 0.7280
C8 C 0.62030(9) 0.1336(3) 0.5641(3)
H8 H 0.6268 0.0776 0.4574
H9 H 0.6076 0.0793 0.6670
C9 C 0.57237(9) 0.2286(2) 0.5188(3)
H10 H 0.5668 0.2878 0.6225
H11 H 0.5835 0.2793 0.4106
C10 C 0.51663(9) 0.1587(2) 0.4810(3)
H12 H 0.5226 0.0950 0.3831
H13 H 0.5035 0.1134 0.5921
C11 C 0.42085(10) 0.2020(2) 0.3904(3)
C12 C 0.37956(10) 0.2981(2) 0.3261(3)
H14 H 0.3902 0.3855 0.3230
C13 C 0.32699(10) 0.2621(3) 0.2721(3)
H15 H 0.3192 0.1733 0.2766
C14 C 0.28072(10) 0.3410(2) 0.2080(3)
C15 C 0.22675(10) 0.3111(3) 0.1489(3)
H16 H 0.2111 0.2280 0.1351
C16 C 0.19828(10) 0.4278(3) 0.1118(3)
H17 H 0.1598 0.4383 0.0683
C17 C 1.06198(10) 0.1888(3) 1.0252(3)
H18 H 1.1004 0.1773 1.0689
C18 C 1.02128(9) 0.0920(3) 0.9848(3)
H19 H 1.0271 0.0028 0.9973
C19 C 0.23628(10) 0.5206(3) 0.1500(4)
H20 H 0.2285 0.6091 0.1376
loop_
_geom_bond_atom_site_label_1
_geom_bond_atom_site_label_2
_geom_bond_site_symmetry_1
_geom_bond_site_symmetry_2
O1 C1 1_555 1_555
O2 C5 1_555 1_555
O3 C10 1_555 1_555
O4 C11 1_555 1_555
O5 C14 1_555 1_555
O6 C5 1_555 1_555
C1 H1 1_555 1_555
C2 O1 1_555 1_555
C3 C2 1_555 1_555
H2 C3 1_555 1_555
C4 C3 1_555 1_555
H3 C4 1_555 1_555
C5 C4 1_555 1_555
C6 O2 1_555 1_555
H4 C6 1_555 1_555
H5 C6 1_555 1_555
C7 C6 1_555 1_555
H6 C7 1_555 1_555
H7 C7 1_555 1_555
C8 C7 1_555 1_555
H8 C8 1_555 1_555
H9 C8 1_555 1_555
C9 C8 1_555 1_555
H10 C9 1_555 1_555
H11 C9 1_555 1_555
C10 C9 1_555 1_555
H12 C10 1_555 1_555
H13 C10 1_555 1_555
C11 O3 1_555 1_555
C12 C11 1_555 1_555
H14 C12 1_555 1_555
C13 C12 1_555 1_555
H15 C13 1_555 1_555
C14 C13 1_555 1_555
C15 C14 1_555 1_555
H16 C15 1_555 1_555
C16 C15 1_555 1_555
H17 C16 1_555 1_555
C17 C1 1_555 1_555
H18 C17 1_555 1_555
C18 C2 1_555 1_555
H19 C18 1_555 1_555
C19 O5 1_555 1_555
H20 C19 1_555 1_555
C16 C19 1_555 1_555
C17 C18 1_555 1_555

#END
