
#######################################################################
#
#                 Cambridge Crystallographic Data Centre
#                                CCDC 
#
#######################################################################
#
# If this CIF has been generated from an entry in the Cambridge 
# Structural Database, then it will include bibliographic, chemical, 
# crystal, experimental, refinement or atomic coordinate data resulting 
# from the CCDC's data processing and validation procedures.
#
#######################################################################

data_KUQVID02
_chemical_formula_moiety         'C38 H28 N10 O7,C1 H2 Cl2,2(H2 O1)'
_chemical_name_systematic        
'Methyl 6-(((6-(((6-(((6-(((6-(benzoylamino)pyridin-2-yl)carbonyl)amino)pyridin-2-yl)carbonyl)amino)pyridin-2-yl)carbonyl)amino)pyridin-2-yl)carbonyl)amino)pyridine-2-carboxylate dichloromethane solvate dihydrate'
_symmetry_cell_setting           monoclinic
_symmetry_space_group_name_H-M   'P 21'
_symmetry_Int_Tables_number      4
_space_group_name_Hall           'P 2yb'
loop_
_symmetry_equiv_pos_site_id
_symmetry_equiv_pos_as_xyz
1 x,y,z
2 -x,1/2+y,-z
_cell_length_a                   13.5062(16)
_cell_length_b                   10.3752(12)
_cell_length_c                   13.7885(16)
_cell_angle_alpha                90
_cell_angle_beta                 95.675(3)
_cell_angle_gamma                90
_cell_volume                     1922.71
_exptl_crystal_colour            colorless
_exptl_crystal_description       Block
_cell_formula_units_Z            2
loop_
_atom_site_label
_atom_site_type_symbol
_atom_site_fract_x
_atom_site_fract_y
_atom_site_fract_z
C1 C 0.9892(18) 0.198(3) 1.0002(15)
H1 H 0.9806 0.2882 0.9781
H2 H 1.0562 0.1908 1.0361
Cl1 Cl 0.8995(3) 0.1656(7) 1.0834(2)
Cl2 Cl 0.9862(4) 0.0979(10) 0.8954(5)
O1 O 0.5188(2) 0.6131(3) 0.5234(2)
H3 H 0.548(3) 0.683(2) 0.523(3)
H4 H 0.4656(17) 0.614(4) 0.490(3)
O2 O 0.49451(18) 0.3612(3) 0.56637(19)
H5 H 0.536(2) 0.334(3) 0.609(2)
H6 H 0.511(3) 0.433(2) 0.547(3)
O3 O 0.87673(17) 0.8043(3) 0.40184(18)
O4 O 0.60536(18) 0.8666(2) 0.84906(16)
O5 O 0.08732(17) 0.9720(2) 0.60580(18)
O6 O 0.24383(16) 1.0199(3) 0.09386(16)
O7 O 0.79134(16) 1.1146(2) 0.25340(16)
O8 O 0.60523(17) 1.1884(3) 0.70339(17)
O9 O 0.75489(18) 1.1929(3) 0.78954(16)
N1 N 0.72359(19) 0.8150(3) 0.4559(2)
H7 H 0.6598(16) 0.826(3) 0.4361(19)
N2 N 0.67064(19) 0.8370(3) 0.60715(19)
N3 N 0.5096(2) 0.8802(3) 0.70293(19)
H8 H 0.518(3) 0.883(4) 0.6378(15)
N4 N 0.3461(2) 0.9268(2) 0.66035(19)
N5 N 0.2166(2) 0.9887(3) 0.5110(2)
H9 H 0.2819(15) 0.997(4) 0.517(3)
N6 N 0.23269(19) 1.0115(3) 0.34935(19)
N7 N 0.36361(19) 1.0378(3) 0.22267(19)
H10 H 0.370(3) 1.052(4) 0.2853(15)
N8 N 0.53085(18) 1.0695(2) 0.24009(18)
N9 N 0.68251(19) 1.1167(3) 0.37040(18)
H11 H 0.6188(15) 1.109(4) 0.376(3)
C2 C 0.7400(2) 0.7784(3) 0.2832(2)
N10 N 0.69693(19) 1.1525(2) 0.53497(18)
C3 C 0.6405(2) 0.7440(3) 0.2594(3)
H12 H 0.5980 0.7324 0.3096
C4 C 0.6037(3) 0.7268(3) 0.1633(3)
H13 H 0.5361 0.7030 0.1479
C5 C 0.6644(3) 0.7440(3) 0.0892(3)
H14 H 0.6383 0.7340 0.0230
C6 C 0.7642(3) 0.7761(4) 0.1125(3)
H15 H 0.8065 0.7870 0.0620
C7 C 0.8013(3) 0.7919(3) 0.2080(3)
H16 H 0.8697 0.8123 0.2231
C8 C 0.7867(2) 0.8006(3) 0.3851(2)
C9 C 0.7492(2) 0.8298(3) 0.5559(2)
C10 C 0.8470(2) 0.8398(3) 0.5994(3)
H17 H 0.9018 0.8369 0.5612
C11 C 0.8617(2) 0.8541(3) 0.6995(3)
H18 H 0.9274 0.8592 0.7312
C12 C 0.7812(2) 0.8608(3) 0.7535(3)
H19 H 0.7900 0.8708 0.8223
C13 C 0.6868(2) 0.8525(3) 0.7037(2)
C14 C 0.5981(2) 0.8661(3) 0.7601(2)
C15 C 0.4149(2) 0.8990(3) 0.7332(2)
C16 C 0.3933(3) 0.8872(3) 0.8294(2)
H20 H 0.4434 0.8653 0.8799
C17 C 0.2958(3) 0.9084(4) 0.8489(2)
H21 H 0.2788 0.9034 0.9140
C18 C 0.2236(3) 0.9367(3) 0.7743(3)
H22 H 0.1565 0.9508 0.7866
C19 C 0.2519(2) 0.9439(3) 0.6809(2)
C20 C 0.1756(2) 0.9703(3) 0.5965(2)
C21 C 0.1702(2) 1.0030(3) 0.4173(2)
C22 C 0.0667(2) 1.0026(3) 0.3954(3)
H23 H 0.0234 0.9961 0.4454
C23 C 0.0299(2) 1.0119(3) 0.2990(3)
H24 H -0.0399 1.0127 0.2820
C24 C 0.0936(2) 1.0200(3) 0.2266(2)
H25 H 0.0690 1.0256 0.1597
C25 C 0.1943(2) 1.0195(3) 0.2557(2)
C26 C 0.2684(2) 1.0263(3) 0.1820(2)
C27 C 0.4521(2) 1.0449(3) 0.1773(2)
C28 C 0.4575(2) 1.0268(3) 0.0783(2)
H26 H 0.3993 1.0107 0.0355
C29 C 0.5503(2) 1.0331(3) 0.0438(2)
H27 H 0.5566 1.0197 -0.0235
C30 C 0.6338(2) 1.0590(3) 0.1076(2)
H28 H 0.6981 1.0650 0.0855
C31 C 0.6197(2) 1.0759(3) 0.2054(2)
C32 C 0.7073(2) 1.1047(3) 0.2785(2)
C33 C 0.7448(2) 1.1435(3) 0.4556(2)
C34 C 0.8480(2) 1.1586(3) 0.4567(2)
H29 H 0.8795 1.1528 0.3982
C35 C 0.9027(2) 1.1821(3) 0.5445(2)
H30 H 0.9727 1.1933 0.5473
C36 C 0.8553(2) 1.1893(3) 0.6284(2)
H31 H 0.8917 1.2031 0.6901
C37 C 0.7525(2) 1.1758(3) 0.6200(2)
C38 C 0.6952(2) 1.1859(3) 0.7071(2)
C39 C 0.7060(3) 1.1938(4) 0.8787(2)
H32 H 0.6578 1.2646 0.8764
H33 H 0.7558 1.2055 0.9347
H34 H 0.6713 1.1117 0.8852
C40? C 0.9435(11) 0.5339(16) 1.056(2)
H35? H 0.9252 0.5556 1.1217
H36? H 0.9181 0.6004 1.0082
Cl3? Cl 1.0706(6) 0.5039(11) 1.0538(9)
Cl4? Cl 0.9089(6) 0.3791(14) 1.0198(7)
loop_
_geom_bond_atom_site_label_1
_geom_bond_atom_site_label_2
_geom_bond_site_symmetry_1
_geom_bond_site_symmetry_2
C1 H1 1_555 1_555
H2 C1 1_555 1_555
Cl1 C1 1_555 1_555
Cl2 C1 1_555 1_555
O1 H3 1_555 1_555
H4 O1 1_555 1_555
O2 H5 1_555 1_555
H6 O2 1_555 1_555
O3 C8 1_555 1_555
O4 C14 1_555 1_555
O5 C20 1_555 1_555
O6 C26 1_555 1_555
O7 C32 1_555 1_555
O8 C38 1_555 1_555
O9 C38 1_555 1_555
N1 H7 1_555 1_555
N2 C9 1_555 1_555
N3 H8 1_555 1_555
N4 C15 1_555 1_555
N5 H9 1_555 1_555
N6 C21 1_555 1_555
N7 H10 1_555 1_555
N8 C27 1_555 1_555
N9 H11 1_555 1_555
C2 C3 1_555 1_555
N10 C33 1_555 1_555
C3 H12 1_555 1_555
C4 C3 1_555 1_555
H13 C4 1_555 1_555
C5 C4 1_555 1_555
H14 C5 1_555 1_555
C6 C5 1_555 1_555
H15 C6 1_555 1_555
C7 C2 1_555 1_555
H16 C7 1_555 1_555
C8 N1 1_555 1_555
C9 N1 1_555 1_555
C10 C9 1_555 1_555
H17 C10 1_555 1_555
C11 C10 1_555 1_555
H18 C11 1_555 1_555
C12 C11 1_555 1_555
H19 C12 1_555 1_555
C13 N2 1_555 1_555
C14 N3 1_555 1_555
C15 N3 1_555 1_555
C16 C15 1_555 1_555
H20 C16 1_555 1_555
C17 C16 1_555 1_555
H21 C17 1_555 1_555
C18 C17 1_555 1_555
H22 C18 1_555 1_555
C19 N4 1_555 1_555
C20 N5 1_555 1_555
C21 N5 1_555 1_555
C22 C21 1_555 1_555
H23 C22 1_555 1_555
C23 C22 1_555 1_555
H24 C23 1_555 1_555
C24 C23 1_555 1_555
H25 C24 1_555 1_555
C25 N6 1_555 1_555
C26 N7 1_555 1_555
C27 N7 1_555 1_555
C28 C27 1_555 1_555
H26 C28 1_555 1_555
C29 C28 1_555 1_555
H27 C29 1_555 1_555
C30 C29 1_555 1_555
H28 C30 1_555 1_555
C31 N8 1_555 1_555
C32 N9 1_555 1_555
C33 N9 1_555 1_555
C34 C33 1_555 1_555
H29 C34 1_555 1_555
C35 C34 1_555 1_555
H30 C35 1_555 1_555
C36 C35 1_555 1_555
H31 C36 1_555 1_555
C37 N10 1_555 1_555
C38 C37 1_555 1_555
C39 O9 1_555 1_555
H32 C39 1_555 1_555
H33 C39 1_555 1_555
H34 C39 1_555 1_555
C2 C8 1_555 1_555
C6 C7 1_555 1_555
C12 C13 1_555 1_555
C13 C14 1_555 1_555
C18 C19 1_555 1_555
C19 C20 1_555 1_555
C24 C25 1_555 1_555
C25 C26 1_555 1_555
C30 C31 1_555 1_555
C31 C32 1_555 1_555
C36 C37 1_555 1_555

#END
