
#######################################################################
#
#                 Cambridge Crystallographic Data Centre
#                                CCDC 
#
#######################################################################
#
# If this CIF has been generated from an entry in the Cambridge 
# Structural Database, then it will include bibliographic, chemical, 
# crystal, experimental, refinement or atomic coordinate data resulting 
# from the CCDC's data processing and validation procedures.
#
#######################################################################

data_KURGIN
_chemical_formula_moiety         'C18 H20 B1 Cl2 N1 O2'
_chemical_name_systematic        
'bis(m-Chlorophenyl)borinic 2-aminoisovaleric acid anhydride'
_chemical_properties_biological  'anticarcinoma activity in vitro'
_symmetry_cell_setting           monoclinic
_symmetry_space_group_name_H-M   'P 21'
_symmetry_Int_Tables_number      4
_space_group_name_Hall           'P 2yb'
loop_
_symmetry_equiv_pos_site_id
_symmetry_equiv_pos_as_xyz
1 x,y,z
2 -x,1/2+y,-z
_cell_length_a                   12.360(1)
_cell_length_b                   16.060(2)
_cell_length_c                   9.584(1)
_cell_angle_alpha                90
_cell_angle_beta                 99.12(1)
_cell_angle_gamma                90
_cell_volume                     1878.39
_exptl_crystal_colour            yellowish
_cell_formula_units_Z            4
loop_
_atom_site_label
_atom_site_type_symbol
_atom_site_fract_x
_atom_site_fract_y
_atom_site_fract_z
Cl1 Cl 0.6100(5) 0.2847(4) -0.0382(4)
Cl2 Cl 0.3229(4) 0.4648(3) 0.6654(5)
O1 O 0.6969(6) 0.2161(6) 0.5210(8)
O2 O 0.8024(7) 0.1289(7) 0.6400(10)
N1 N 0.5240(7) 0.1519(7) 0.576(1)
C1 C 0.5307(14) 0.2506(12) 0.087(2)
C2 C 0.4243(14) 0.2288(13) 0.038(2)
C3 C 0.3634(12) 0.2067(12) 0.139(2)
C4 C 0.4079(11) 0.2052(10) 0.280(1)
C5 C 0.5129(9) 0.2229(9) 0.326(1)
C6 C 0.5755(12) 0.2469(11) 0.225(1)
C7 C 0.5617(9) 0.3124(8) 0.568(1)
C8 C 0.4579(11) 0.3464(9) 0.585(1)
C9 C 0.4526(12) 0.4248(10) 0.652(2)
C10 C 0.5426(13) 0.4698(10) 0.699(2)
C11 C 0.6374(13) 0.4366(12) 0.680(2)
C12 C 0.6469(11) 0.3626(11) 0.612(2)
C13 C 0.7120(10) 0.1564(9) 0.616(1)
C14 C 0.6178(10) 0.1270(9) 0.685(1)
C15 C 0.6186(13) 0.0355(11) 0.718(2)
C16 C 0.5557(19) -0.0023(18) 0.830(3)
C17 C 0.4359(19) -0.0007(17) 0.772(3)
C18 C 0.5826(25) 0.0476(22) 0.965(3)
B1 B 0.570(1) 0.228(1) 0.490(2)
Cl3 Cl 0.1944(3) 0.3431(3) 0.3264(5)
Cl4 Cl -0.1064(4) 0.5520(4) 1.0157(4)
O3 O -0.1921(6) 0.5947(7) 0.4576(10)
O4 O -0.3069(6) 0.6926(6) 0.3654(10)
N2 N -0.0295(7) 0.6457(7) 0.374(1)
C19 C 0.0652(11) 0.3777(9) 0.346(1)
C20 C -0.0190(14) 0.3294(12) 0.297(2)
C21 C -0.1219(14) 0.3526(12) 0.314(3)
C22 C -0.1391(12) 0.4308(11) 0.366(2)
C23 C -0.0486(10) 0.4773 0.417(1)
C24 C 0.0518(10) 0.4531(9) 0.402(1)
C25 C -0.0145(10) 0.5873(9) 0.638(2)
C26 C -0.0730(10) 0.5735(9) 0.748(1)
C27 C -0.0270(11) 0.5770(10) 0.887(1)
C28 C 0.0827(14) 0.5976(12) 0.929(1)
C29 C 0.1408(12) 0.6123(10) 0.817(2)
C30 C 0.0991(11) 0.6054(11) 0.680(2)
C31 C -0.2170(10) 0.6658(8) 0.393(1)
C32 C -0.1159(9) 0.7085(8) 0.360(1)
C33 C -0.1316(11) 0.7588(9) 0.225(1)
C34 C -0.0387(15) 0.8026(12) 0.172(2)
C35 C -0.0900(23) 0.8712(18) 0.075(3)
C36 C 0.0504(24) 0.8388(22) 0.279(3)
B2 B -0.066(1) 0.574(1) 0.478(2)
loop_
_geom_bond_atom_site_label_1
_geom_bond_atom_site_label_2
_geom_bond_site_symmetry_1
_geom_bond_site_symmetry_2
Cl1 C1 1_555 1_555
Cl2 C9 1_555 1_555
O1 C13 1_555 1_555
O2 C13 1_555 1_555
N1 C14 1_555 1_555
C1 C2 1_555 1_555
C2 C3 1_555 1_555
C3 C4 1_555 1_555
C4 C5 1_555 1_555
C5 C6 1_555 1_555
C6 C1 1_555 1_555
C7 C8 1_555 1_555
C8 C9 1_555 1_555
C9 C10 1_555 1_555
C10 C11 1_555 1_555
C11 C12 1_555 1_555
C12 C7 1_555 1_555
C13 C14 1_555 1_555
C14 C15 1_555 1_555
C15 C16 1_555 1_555
C16 C17 1_555 1_555
C18 C16 1_555 1_555
B1 O1 1_555 1_555
Cl3 C19 1_555 1_555
Cl4 C27 1_555 1_555
O3 C31 1_555 1_555
O4 C31 1_555 1_555
N2 C32 1_555 1_555
C19 C20 1_555 1_555
C20 C21 1_555 1_555
C21 C22 1_555 1_555
C22 C23 1_555 1_555
C23 C24 1_555 1_555
C24 C19 1_555 1_555
C25 C26 1_555 1_555
C26 C27 1_555 1_555
C27 C28 1_555 1_555
C28 C29 1_555 1_555
C29 C30 1_555 1_555
C30 C25 1_555 1_555
C31 C32 1_555 1_555
C32 C33 1_555 1_555
C33 C34 1_555 1_555
C34 C35 1_555 1_555
C36 C34 1_555 1_555
B2 O3 1_555 1_555
N1 B1 1_555 1_555
C5 B1 1_555 1_555
C7 B1 1_555 1_555
N2 B2 1_555 1_555
C23 B2 1_555 1_555
C25 B2 1_555 1_555

#END
