
#######################################################################
#
#                 Cambridge Crystallographic Data Centre
#                                CCDC 
#
#######################################################################
#
# If this CIF has been generated from an entry in the Cambridge 
# Structural Database, then it will include bibliographic, chemical, 
# crystal, experimental, refinement or atomic coordinate data resulting 
# from the CCDC's data processing and validation procedures.
#
#######################################################################

data_KURKEP
_chemical_name_common            
26,28-dihydroxy-25,27-dipropoxy-5,17-diformyl-2,8,14,20-tetrathiacalix(4)arene
_chemical_formula_moiety         'C32 H28 O6 S4'
_chemical_name_systematic        
26,28-dihydroxy-25,27-dipropoxy-2,8,14,20-tetrathiapentacyclo[19.3.1.1^3,7^.1^9,13^.1^15,19^]octacosa-1(25),3(28),4,6,9(27),10,12,15(26),16,18,21,23-dodecaene-5,17-dicarbaldehyde
_symmetry_cell_setting           rhombohedral
_symmetry_space_group_name_H-M   'R -3'
_symmetry_Int_Tables_number      148
_space_group_name_Hall           '-R 3'
loop_
_symmetry_equiv_pos_site_id
_symmetry_equiv_pos_as_xyz
1 x,y,z
2 -y,x-y,z
3 -x+y,-x,z
4 2/3+x,1/3+y,1/3+z
5 2/3-y,1/3+x-y,1/3+z
6 2/3-x+y,1/3-x,1/3+z
7 1/3+x,2/3+y,2/3+z
8 1/3-y,2/3+x-y,2/3+z
9 1/3-x+y,2/3-x,2/3+z
10 -x,-y,-z
11 y,-x+y,-z
12 x-y,x,-z
13 1/3-x,2/3-y,2/3-z
14 1/3+y,2/3-x+y,2/3-z
15 1/3+x-y,2/3+x,2/3-z
16 2/3-x,1/3-y,1/3-z
17 2/3+y,1/3-x+y,1/3-z
18 2/3+x-y,1/3+x,1/3-z
_cell_length_a                   36.0289(13)
_cell_length_b                   36.0289(13)
_cell_length_c                   12.2533(13)
_cell_angle_alpha                90
_cell_angle_beta                 90
_cell_angle_gamma                120
_cell_volume                     13774.8
_exptl_crystal_colour            colorless
_exptl_crystal_description       block
_cell_formula_units_Z            18
loop_
_atom_site_label
_atom_site_type_symbol
_atom_site_fract_x
_atom_site_fract_y
_atom_site_fract_z
C1 C 0.93166(9) 0.17903(9) 0.4630(3)
C2 C 0.95788(9) 0.18592(9) 0.5534(3)
C3 C 0.99346(9) 0.22744(10) 0.5725(3)
C4 C 1.00169(9) 0.26013(10) 0.5007(3)
H1 H 1.0252 0.2880 0.5144
C5 C 0.97643(9) 0.25328(9) 0.4090(3)
C6 C 0.94128(9) 0.21249(9) 0.3909(3)
H2 H 0.9237 0.2075 0.3286
C7 C 0.98617(10) 0.28770(10) 0.3302(3)
H3 H 0.9692 0.2806 0.2660
C8 C 1.00253(9) 0.22664(10) 0.7994(3)
C9 C 0.98863(9) 0.18877(10) 0.8586(3)
C10 C 0.96892(9) 0.18388(10) 0.9588(3)
C11 C 0.96300(9) 0.21671(10) 0.9988(3)
H4 H 0.9503 0.2137 1.0686
C12 C 0.97520(10) 0.25348(10) 0.9390(3)
H5 H 0.9699 0.2751 0.9660
C13 C 0.99514(9) 0.25852(10) 0.8396(3)
H6 H 1.0039 0.2839 0.7984
C14 C 0.89341(9) 0.11673(9) 1.0193(3)
C15 C 0.87205(10) 0.09508(10) 0.9233(3)
C16 C 0.82748(9) 0.07873(9) 0.9132(3)
C17 C 0.80564(10) 0.08489(9) 0.9968(3)
H7 H 0.7757 0.0742 0.9894
C18 C 0.82641(10) 0.10660(9) 1.0925(3)
C19 C 0.87039(10) 0.12192(9) 1.1025(3)
H8 H 0.8848 0.1362 1.1676
C20 C 0.80298(11) 0.11301(9) 1.1799(3)
H9 H 0.8180 0.1254 1.2457
C21 C 0.80974(9) 0.08224(9) 0.6915(3)
C22 C 0.84235(9) 0.09031(9) 0.6171(3)
C23 C 0.84981(9) 0.11717(9) 0.5281(3)
C24 C 0.82385(10) 0.13518(9) 0.5139(3)
H10 H 0.8285 0.1534 0.4531
C25 C 0.79123(10) 0.12707(10) 0.5869(3)
H11 H 0.7738 0.1397 0.5764
C26 C 0.78431(9) 0.10058(9) 0.6747(3)
H12 H 0.7618 0.0948 0.7244
C27 C 0.85316(10) 0.03050(9) 0.5905(3)
H13 H 0.8534 0.0319 0.5098
H14 H 0.8234 0.0109 0.6147
C28 C 0.88173(13) 0.01406(13) 0.6282(4)
H15 H 0.8834 0.0155 0.7088
H16 H 0.8689 -0.0164 0.6067
C29 C 0.92558(14) 0.03837(15) 0.5827(5)
H17 H 0.9431 0.0268 0.6120
H18 H 0.9384 0.0686 0.6031
H19 H 0.9243 0.0358 0.5030
O1 O 0.94914(7) 0.15231(7) 0.6168(2)
H20 H 0.9660(9) 0.1562(10) 0.664(2)
O2 O 1.01444(7) 0.32459(7) 0.3418(2)
O3 O 0.99111(6) 0.15547(7) 0.8100(2)
O4 O 0.89586(7) 0.09102(8) 0.8452(2)
H21 H 0.8813(9) 0.0802(10) 0.791(2)
O5 O 0.76589(7) 0.10375(7) 1.1753(2)
O6 O 0.86841(6) 0.07299(6) 0.63610(19)
S1 S 0.88986(2) 0.12638(2) 0.42852(8)
S2 S 1.03139(2) 0.23516(3) 0.67500(8)
S3 S 0.94902(3) 0.13573(3) 1.03643(9)
S4 S 0.79817(2) 0.04530(2) 0.80105(8)
C30 C 1.0287(2) 0.1529(2) 0.8383(10)
H22 H 1.0317 0.1533 0.9187
H23 H 1.0546 0.1779 0.8080
C31 C 1.0247(2) 0.11264(19) 0.7935(8)
H24 H 1.0526 0.1137 0.8000
H25 H 1.0173 0.1104 0.7150
C32 C 0.9906(2) 0.07325(19) 0.8526(7)
H26 H 0.9881 0.0474 0.8187
H27 H 0.9631 0.0724 0.8478
H28 H 0.9987 0.0744 0.9294
C33? C 1.0220(13) 0.1452(11) 0.845(5)
H29? H 1.0227 0.1441 0.9253
H30? H 1.0508 0.1669 0.8184
C34? C 1.0089(13) 0.1005(10) 0.796(4)
H31? H 0.9778 0.0807 0.8054
H32? H 1.0156 0.1031 0.7166
C35? C 1.0346(8) 0.0840(7) 0.856(3)
H33? H 1.0315 0.0586 0.8189
H34? H 1.0239 0.0765 0.9310
H35? H 1.0649 0.1063 0.8575
loop_
_geom_bond_atom_site_label_1
_geom_bond_atom_site_label_2
_geom_bond_site_symmetry_1
_geom_bond_site_symmetry_2
C1 C2 1_555 1_555
C2 C3 1_555 1_555
C3 C4 1_555 1_555
C4 H1 1_555 1_555
C5 C4 1_555 1_555
C6 C1 1_555 1_555
H2 C6 1_555 1_555
C7 C5 1_555 1_555
H3 C7 1_555 1_555
C8 C9 1_555 1_555
C9 C10 1_555 1_555
C10 C11 1_555 1_555
C11 H4 1_555 1_555
C12 C11 1_555 1_555
H5 C12 1_555 1_555
C13 C8 1_555 1_555
H6 C13 1_555 1_555
C14 C15 1_555 1_555
C15 C16 1_555 1_555
C16 C17 1_555 1_555
C17 H7 1_555 1_555
C18 C17 1_555 1_555
C19 C14 1_555 1_555
H8 C19 1_555 1_555
C20 C18 1_555 1_555
H9 C20 1_555 1_555
C21 C22 1_555 1_555
C22 C23 1_555 1_555
C23 C24 1_555 1_555
C24 H10 1_555 1_555
C25 C24 1_555 1_555
H11 C25 1_555 1_555
C26 C21 1_555 1_555
H12 C26 1_555 1_555
C27 H13 1_555 1_555
H14 C27 1_555 1_555
C28 C27 1_555 1_555
H15 C28 1_555 1_555
H16 C28 1_555 1_555
C29 C28 1_555 1_555
H17 C29 1_555 1_555
H18 C29 1_555 1_555
H19 C29 1_555 1_555
O1 C2 1_555 1_555
H20 O1 1_555 1_555
O2 C7 1_555 1_555
O3 C9 1_555 1_555
O4 C15 1_555 1_555
H21 O4 1_555 1_555
O5 C20 1_555 1_555
O6 C22 1_555 1_555
S1 C1 1_555 1_555
S2 C3 1_555 1_555
S3 C10 1_555 1_555
S4 C16 1_555 1_555
C30 O3 1_555 1_555
H22 C30 1_555 1_555
H23 C30 1_555 1_555
C31 C30 1_555 1_555
H24 C31 1_555 1_555
H25 C31 1_555 1_555
C32 C31 1_555 1_555
H26 C32 1_555 1_555
H27 C32 1_555 1_555
H28 C32 1_555 1_555
C5 C6 1_555 1_555
C8 S2 1_555 1_555
C12 C13 1_555 1_555
C14 S3 1_555 1_555
C18 C19 1_555 1_555
C21 S4 1_555 1_555
C23 S1 1_555 1_555
C25 C26 1_555 1_555
C27 O6 1_555 1_555

#END
