
#######################################################################
#
#                 Cambridge Crystallographic Data Centre
#                                CCDC 
#
#######################################################################
#
# If this CIF has been generated from an entry in the Cambridge 
# Structural Database, then it will include bibliographic, chemical, 
# crystal, experimental, refinement or atomic coordinate data resulting 
# from the CCDC's data processing and validation procedures.
#
#######################################################################

data_KURWOK
_chemical_formula_moiety         'H12 Mg1 O6 2+,2(C16 H16 N1 O5 S1 1-)'
_chemical_name_systematic        
'Hexa-aqua-magnesium(ii) bis(4-(3-ethoxy-2-hydroxybenzylideneamino)-3-methylbenzenesulfonate)'
_symmetry_cell_setting           monoclinic
_symmetry_space_group_name_H-M   'C 2/c'
_symmetry_Int_Tables_number      15
_space_group_name_Hall           '-C 2yn'
loop_
_symmetry_equiv_pos_site_id
_symmetry_equiv_pos_as_xyz
1 x,y,z
2 -x,y,1/2-z
3 1/2+x,1/2+y,z
4 1/2-x,1/2+y,1/2-z
5 -x,-y,-z
6 x,-y,1/2+z
7 1/2-x,1/2-y,-z
8 1/2+x,1/2-y,1/2+z
_cell_length_a                   38.710(11)
_cell_length_b                   7.531(2)
_cell_length_c                   13.087(3)
_cell_angle_alpha                90
_cell_angle_beta                 104.986(4)
_cell_angle_gamma                90
_cell_volume                     3685.43
_exptl_crystal_colour            colorless
_exptl_crystal_description       block
_cell_formula_units_Z            4
_exptl_crystal_recrystallization_method methanol
loop_
_atom_site_label
_atom_site_type_symbol
_atom_site_fract_x
_atom_site_fract_y
_atom_site_fract_z
Mg1 Mg 0.0000 0.76200(8) 0.7500
O1 O -0.03010(3) 0.76330(14) 0.85798(9)
H1 H -0.0333 0.8568 0.8908
H2 H -0.0320 0.6714 0.8938
O2 O -0.03189(3) 0.56722(15) 0.66233(8)
H3 H -0.0329 0.5509 0.5974
H4 H -0.0353 0.4662 0.6870
O3 O -0.03191(3) 0.95651(15) 0.66277(8)
H5 H -0.0368 1.0546 0.6880
H6 H -0.0359 0.9680 0.5961
O1A O 0.03010(3) 0.76330(14) 0.64202(9)
H1A H 0.0333 0.8568 0.6092
H2A H 0.0320 0.6714 0.6062
O2A O 0.03189(3) 0.56722(15) 0.83767(8)
H3A H 0.0329 0.5509 0.9026
H4A H 0.0353 0.4662 0.8130
O3A O 0.03191(3) 0.95651(15) 0.83723(8)
H5A H 0.0368 1.0546 0.8120
H6A H 0.0359 0.9680 0.9039
S1 S 0.053241(9) 0.73171(5) 0.12108(3)
N1 N 0.21154(3) 0.64726(18) 0.21861(10)
O4 O 0.03738(3) 0.57836(14) 0.05783(8)
O5 O 0.04508(3) 0.89760(14) 0.06222(8)
O6 O 0.04451(3) 0.73756(14) 0.22300(8)
O7 O 0.27591(3) 0.69109(17) 0.34589(8)
H7 H 0.2540 0.6876 0.3293
O8 O 0.34554(3) 0.68788(17) 0.37345(9)
C1 C 0.10021(4) 0.70263(19) 0.14849(11)
C2 C 0.11930(4) 0.63608(19) 0.24591(11)
H8 H 0.1071 0.6055 0.2960
C3 C 0.15615(4) 0.6144(2) 0.26994(11)
C4 C 0.17378(4) 0.6597(2) 0.19257(12)
C5 C 0.15439(4) 0.7242(2) 0.09457(12)
H9 H 0.1663 0.7536 0.0437
C6 C 0.11778(4) 0.7452(2) 0.07202(12)
H10 H 0.1051 0.7875 0.0063
C7 C 0.17670(4) 0.5461(2) 0.37649(12)
H11 H 0.1902 0.4432 0.3672
H12 H 0.1603 0.5148 0.4174
H13 H 0.1927 0.6367 0.4127
C8 C 0.22688(4) 0.5956(2) 0.14795(13)
H14 H 0.2127 0.5609 0.0823
C9 C 0.26537(4) 0.5886(2) 0.16581(12)
C10 C 0.28823(4) 0.6380(2) 0.26306(12)
C11 C 0.32543(4) 0.6332(2) 0.27646(12)
C12 C 0.33903(4) 0.5734(2) 0.19455(13)
H15 H 0.3636 0.5698 0.2035
C13 C 0.31630(5) 0.5186(2) 0.09917(13)
H16 H 0.3258 0.4756 0.0455
C14 C 0.27993(5) 0.5279(2) 0.08417(13)
H17 H 0.2648 0.4939 0.0197
C15 C 0.38322(4) 0.7012(2) 0.38726(13)
H18 H 0.3885 0.7889 0.3392
H19 H 0.3929 0.5878 0.3729
C16 C 0.39945(5) 0.7556(2) 0.49975(15)
H20 H 0.3908 0.8712 0.5118
H21 H 0.4250 0.7590 0.5129
H22 H 0.3929 0.6714 0.5466
loop_
_geom_bond_atom_site_label_1
_geom_bond_atom_site_label_2
_geom_bond_site_symmetry_1
_geom_bond_site_symmetry_2
Mg1 O1 1_555 1_555
O1 H1 1_555 1_555
H2 O1 1_555 1_555
O2 Mg1 1_555 1_555
H3 O2 1_555 1_555
H4 O2 1_555 1_555
O3 Mg1 1_555 1_555
H5 O3 1_555 1_555
H6 O3 1_555 1_555
S1 O4 1_555 1_555
N1 C4 1_555 1_555
O5 S1 1_555 1_555
O6 S1 1_555 1_555
O7 H7 1_555 1_555
O8 C11 1_555 1_555
C1 S1 1_555 1_555
C2 C1 1_555 1_555
H8 C2 1_555 1_555
C3 C2 1_555 1_555
C4 C3 1_555 1_555
C5 C4 1_555 1_555
H9 C5 1_555 1_555
C6 C1 1_555 1_555
H10 C6 1_555 1_555
C7 C3 1_555 1_555
H11 C7 1_555 1_555
H12 C7 1_555 1_555
H13 C7 1_555 1_555
C8 N1 1_555 1_555
H14 C8 1_555 1_555
C9 C8 1_555 1_555
C10 O7 1_555 1_555
C11 C10 1_555 1_555
C12 C11 1_555 1_555
H15 C12 1_555 1_555
C13 C12 1_555 1_555
H16 C13 1_555 1_555
C14 C9 1_555 1_555
H17 C14 1_555 1_555
C15 O8 1_555 1_555
H18 C15 1_555 1_555
H19 C15 1_555 1_555
C16 C15 1_555 1_555
H20 C16 1_555 1_555
H21 C16 1_555 1_555
H22 C16 1_555 1_555
O1A Mg1 1_555 1_555
H1A O1A 1_555 1_555
H2A O1A 1_555 1_555
O2A Mg1 1_555 1_555
H3A O2A 1_555 1_555
H4A O2A 1_555 1_555
O3A Mg1 1_555 1_555
H5A O3A 1_555 1_555
H6A O3A 1_555 1_555
C5 C6 1_555 1_555
C9 C10 1_555 1_555
C13 C14 1_555 1_555

#END
