
#######################################################################
#
#                 Cambridge Crystallographic Data Centre
#                                CCDC 
#
#######################################################################
#
# If this CIF has been generated from an entry in the Cambridge 
# Structural Database, then it will include bibliographic, chemical, 
# crystal, experimental, refinement or atomic coordinate data resulting 
# from the CCDC's data processing and validation procedures.
#
#######################################################################

data_KURZUS
_chemical_formula_moiety         'C28 H38 N4 O8 S1'
_chemical_name_systematic        
"2,2'-Sulfonyl-bis(3-(benzylamino)-(E,E)-N-(2,2-dimethoxyethyl) propenamide)"
_symmetry_cell_setting           triclinic
_symmetry_space_group_name_H-M   'P -1'
_symmetry_Int_Tables_number      2
_space_group_name_Hall           '-P 1'
loop_
_symmetry_equiv_pos_site_id
_symmetry_equiv_pos_as_xyz
1 x,y,z
2 -x,-y,-z
_cell_length_a                   10.536(3)
_cell_length_b                   10.875(3)
_cell_length_c                   14.197(4)
_cell_angle_alpha                82.19(2)
_cell_angle_beta                 86.59(2)
_cell_angle_gamma                87.84(2)
_cell_volume                     1608.01
_exptl_crystal_colour            colorless
_chemical_melting_point          86-88deg.C
_cell_formula_units_Z            2
loop_
_atom_site_label
_atom_site_type_symbol
_atom_site_fract_x
_atom_site_fract_y
_atom_site_fract_z
S1 S 0.0434(1) 0.2514(1) 0.4839(1)
O1 O -0.0282(2) 0.1382(2) 0.4934(2)
O2 O -0.0210(2) 0.3596(2) 0.5138(2)
C1 C 0.0967(3) 0.2887(3) 0.3659(3)
C2 C 0.1421(4) 0.1940(4) 0.3051(3)
O3 O 0.1866(3) 0.2271(3) 0.2230(2)
N1 N 0.1326(3) 0.0733(3) 0.3394(2)
C3 C 0.1702(4) -0.0246(4) 0.2822(3)
C4 C 0.3118(4) -0.0481(4) 0.2684(3)
O4 O 0.3830(3) -0.0483(3) 0.3468(2)
C5 C 0.3506(6) -0.1425(7) 0.4242(4)
O5 O 0.3245(3) -0.1570(3) 0.2280(2)
C6 C 0.4528(6) -0.1892(6) 0.1988(5)
C7 C 0.1774(3) 0.2180(3) 0.5494(2)
C8 C 0.2651(4) 0.3151(3) 0.5640(3)
O6 O 0.3727(3) 0.2859(3) 0.5927(2)
N2 N 0.2276(3) 0.4347(3) 0.5472(2)
C9 C 0.3115(4) 0.5330(4) 0.5602(3)
C10 C 0.3193(4) 0.5527(4) 0.6634(3)
O7 O 0.4100(3) 0.6429(3) 0.6714(3)
C11 C 0.5369(5) 0.5971(7) 0.6736(5)
O8 O 0.2013(3) 0.6006(3) 0.6931(2)
C12 C 0.1851(5) 0.6033(5) 0.7919(4)
C13 C 0.1001(4) 0.4131(3) 0.3320(3)
N3 N 0.1452(3) 0.4638(3) 0.2471(2)
C14 C 0.1473(5) 0.5982(4) 0.2183(4)
C15 C 0.0357(5) 0.6494(4) 0.1630(3)
C16 C 0.0326(6) 0.6375(5) 0.0668(3)
C17 C -0.0744(9) 0.6888(7) 0.0173(5)
C18 C -0.1742(8) 0.7449(6) 0.0681(9)
C19 C -0.1663(8) 0.7531(7) 0.1582(7)
C20 C -0.0655(6) 0.7063(5) 0.2070(4)
C21 C 0.2020(4) 0.0951(3) 0.5828(3)
N4 N 0.3025(4) 0.0489(3) 0.6281(3)
C22 C 0.3145(5) -0.0794(4) 0.6734(3)
C23 C 0.2885(6) -0.0884(4) 0.7796(4)
C24 C 0.3837(7) -0.1125(7) 0.8387(5)
C25 C 0.3573(13) -0.1193(11) 0.9380(7)
C26 C 0.2402(19) -0.1023(10) 0.9736(7)
C27 C 0.1476(13) -0.0793(7) 0.9137(8)
C28 C 0.1682(8) -0.0729(6) 0.8189(6)
H1 H 0.1357 -0.0028 0.2209
H2 H 0.1329 -0.1008 0.3110
H3 H 0.3433 0.0170 0.2212
H4 H 0.4035 -0.1374 0.4762
H5 H 0.2630 -0.1317 0.4449
H6 H 0.3636 -0.2223 0.4028
H7 H 0.4539 -0.2660 0.1724
H8 H 0.4872 -0.1253 0.1519
H9 H 0.5033 -0.1990 0.2535
H10 H 0.2822 0.6094 0.5251
H11 H 0.3951 0.5132 0.5346
H12 H 0.3404 0.4758 0.7017
H13 H 0.5920 0.6642 0.6779
H14 H 0.5455 0.5350 0.7278
H15 H 0.5596 0.5614 0.6164
H16 H 0.1024 0.6378 0.8071
H17 H 0.1932 0.5205 0.8248
H18 H 0.2491 0.6537 0.8113
H19 H 0.0680 0.4697 0.3747
H20 H 0.1739 0.4131 0.2049
H21 H 0.2240 0.6181 0.1803
H22 H 0.1486 0.6378 0.2747
H23 H 0.1018 0.5968 0.0350
H24 H -0.0782 0.6831 -0.0494
H25 H -0.2463 0.7797 0.0344
H26 H -0.2365 0.7915 0.1908
H27 H -0.0632 0.7130 0.2736
H28 H 0.1393 0.0368 0.5732
H29 H 0.3990 -0.1116 0.6607
H30 H 0.2556 -0.1288 0.6469
H31 H 0.4691 -0.1265 0.8141
H32 H 0.4236 -0.1338 0.9822
H33 H 0.2204 -0.1065 1.0408
H34 H 0.0620 -0.0660 0.9380
H35 H 0.0990 -0.0593 0.7773
H36 H 0.1486 0.4581 0.5329
H37 H 0.0869 0.0528 0.4022
H38 H 0.3689 0.1094 0.6426
loop_
_geom_bond_atom_site_label_1
_geom_bond_atom_site_label_2
_geom_bond_site_symmetry_1
_geom_bond_site_symmetry_2
S1 O1 1_555 1_555
O2 S1 1_555 1_555
C1 S1 1_555 1_555
C2 C1 1_555 1_555
O3 C2 1_555 1_555
N1 C2 1_555 1_555
C3 N1 1_555 1_555
C4 C3 1_555 1_555
O4 C4 1_555 1_555
C5 O4 1_555 1_555
O5 C4 1_555 1_555
C6 O5 1_555 1_555
C7 S1 1_555 1_555
C8 C7 1_555 1_555
O6 C8 1_555 1_555
N2 C8 1_555 1_555
C9 N2 1_555 1_555
C10 C9 1_555 1_555
O7 C10 1_555 1_555
C11 O7 1_555 1_555
O8 C10 1_555 1_555
C12 O8 1_555 1_555
C13 C1 1_555 1_555
N3 C13 1_555 1_555
C14 N3 1_555 1_555
C15 C14 1_555 1_555
C16 C15 1_555 1_555
C17 C16 1_555 1_555
C18 C17 1_555 1_555
C19 C18 1_555 1_555
C20 C15 1_555 1_555
C21 C7 1_555 1_555
N4 C21 1_555 1_555
C22 N4 1_555 1_555
C23 C22 1_555 1_555
C24 C23 1_555 1_555
C25 C24 1_555 1_555
C26 C25 1_555 1_555
C27 C26 1_555 1_555
C28 C23 1_555 1_555
H1 C3 1_555 1_555
H2 C3 1_555 1_555
H3 C4 1_555 1_555
H4 C5 1_555 1_555
H5 C5 1_555 1_555
H6 C5 1_555 1_555
H7 C6 1_555 1_555
H8 C6 1_555 1_555
H9 C6 1_555 1_555
H10 C9 1_555 1_555
H11 C9 1_555 1_555
H12 C10 1_555 1_555
H13 C11 1_555 1_555
H14 C11 1_555 1_555
H15 C11 1_555 1_555
H16 C12 1_555 1_555
H17 C12 1_555 1_555
H18 C12 1_555 1_555
H19 C13 1_555 1_555
H20 N3 1_555 1_555
H21 C14 1_555 1_555
H22 C14 1_555 1_555
H23 C16 1_555 1_555
H24 C17 1_555 1_555
H25 C18 1_555 1_555
H26 C19 1_555 1_555
H27 C20 1_555 1_555
H28 C21 1_555 1_555
H29 C22 1_555 1_555
H30 C22 1_555 1_555
H31 C24 1_555 1_555
H32 C25 1_555 1_555
H33 C26 1_555 1_555
H34 C27 1_555 1_555
H35 C28 1_555 1_555
H36 N2 1_555 1_555
H37 N1 1_555 1_555
H38 N4 1_555 1_555
C19 C20 1_555 1_555
C27 C28 1_555 1_555

#END
