
#######################################################################
#
#                 Cambridge Crystallographic Data Centre
#                                CCDC 
#
#######################################################################
#
# If this CIF has been generated from an entry in the Cambridge 
# Structural Database, then it will include bibliographic, chemical, 
# crystal, experimental, refinement or atomic coordinate data resulting 
# from the CCDC's data processing and validation procedures.
#
#######################################################################

data_KUSHUC
_chemical_formula_moiety         'C16 H16 N2 O4'
_chemical_name_systematic        
4-((2,4-Dimethyl-1,3-oxazol-5-yl)methyl)-4-hydroxy-2-methylisoquinoline-1,3(2H,4H)-dione
_symmetry_cell_setting           triclinic
_symmetry_space_group_name_H-M   'P -1'
_symmetry_Int_Tables_number      2
_space_group_name_Hall           '-P 1'
loop_
_symmetry_equiv_pos_site_id
_symmetry_equiv_pos_as_xyz
1 x,y,z
2 -x,-y,-z
_cell_length_a                   8.3866(5)
_cell_length_b                   8.8044(5)
_cell_length_c                   10.6734(7)
_cell_angle_alpha                103.997(3)
_cell_angle_beta                 90.025(3)
_cell_angle_gamma                112.663(2)
_cell_volume                     701.798
_exptl_crystal_colour            colorless
_exptl_crystal_description       block
_chemical_melting_point          '434-436 K'
_cell_formula_units_Z            2
_exptl_crystal_recrystallization_method chloroform
loop_
_atom_site_label
_atom_site_type_symbol
_atom_site_fract_x
_atom_site_fract_y
_atom_site_fract_z
O1 O 1.23014(16) 0.40877(16) 0.32581(13)
O2 O 0.76462(17) 0.27268(17) 0.04028(14)
O3 O 1.13932(17) 0.07862(17) 0.33591(13)
O4 O 0.78937(15) 0.36205(15) 0.40053(12)
N1 N 0.99911(18) 0.34315(18) 0.18332(15)
N2 N 0.50707(18) 0.22071(19) 0.33559(15)
C1 C 1.0928(2) 0.3023(2) 0.26656(17)
C2 C 0.8503(2) 0.2243(2) 0.10092(18)
C3 C 0.8116(2) 0.0419(2) 0.08846(17)
C4 C 0.6900(2) -0.0817(2) -0.01212(19)
C5 C 0.6559(2) -0.2517(3) -0.0275(2)
C6 C 0.7436(3) -0.3003(2) 0.0555(2)
C7 C 0.8637(2) -0.1782(2) 0.15593(19)
C8 C 0.8972(2) -0.0063(2) 0.17380(17)
C9 C 1.0118(2) 0.1260(2) 0.29105(18)
C10 C 0.8979(2) 0.1419(3) 0.40732(18)
C11 C 0.7513(2) 0.1891(2) 0.38373(17)
C12 C 0.5796(2) 0.1033(2) 0.34423(17)
C13 C 0.6360(2) 0.3692(2) 0.36869(17)
C14 C 1.0594(3) 0.5246(2) 0.1865(2)
C15 C 0.4717(3) -0.0836(2) 0.3101(2)
C16 C 0.6387(2) 0.5395(2) 0.3724(2)
H1 H 1.243(4) 0.142(3) 0.321(3)
H2 H 0.637(3) -0.043(3) -0.065(2)
H3 H 0.574(3) -0.336(3) -0.097(2)
H4 H 0.722(3) -0.420(3) 0.045(2)
H5 H 0.924(3) -0.208(2) 0.217(2)
H6 H 0.855(3) 0.032(3) 0.430(2)
H7 H 0.979(3) 0.226(3) 0.484(2)
H8 H 1.064(3) 0.595(3) 0.277(3)
H9 H 0.985(3) 0.538(3) 0.127(3)
H10 H 1.175(4) 0.565(3) 0.154(3)
H11 H 0.436(3) -0.124(3) 0.215(3)
H12 H 0.530(3) -0.148(3) 0.337(2)
H13 H 0.360(3) -0.114(3) 0.349(3)
H14 H 0.526(3) 0.529(3) 0.344(2)
H15 H 0.682(3) 0.622(3) 0.461(3)
H16 H 0.718(4) 0.594(3) 0.314(3)
loop_
_geom_bond_atom_site_label_1
_geom_bond_atom_site_label_2
_geom_bond_site_symmetry_1
_geom_bond_site_symmetry_2
O1 C1 1_555 1_555
O2 C2 1_555 1_555
O3 C9 1_555 1_555
O4 C11 1_555 1_555
N1 C1 1_555 1_555
N2 C12 1_555 1_555
C1 C9 1_555 1_555
C2 N1 1_555 1_555
C3 C2 1_555 1_555
C4 C3 1_555 1_555
C5 C4 1_555 1_555
C6 C5 1_555 1_555
C7 C6 1_555 1_555
C8 C3 1_555 1_555
C9 C8 1_555 1_555
C10 C9 1_555 1_555
C11 C10 1_555 1_555
C12 C11 1_555 1_555
C13 O4 1_555 1_555
C14 N1 1_555 1_555
C15 C12 1_555 1_555
C16 C13 1_555 1_555
H1 O3 1_555 1_555
H2 C4 1_555 1_555
H3 C5 1_555 1_555
H4 C6 1_555 1_555
H5 C7 1_555 1_555
H6 C10 1_555 1_555
H7 C10 1_555 1_555
H8 C14 1_555 1_555
H9 C14 1_555 1_555
H10 C14 1_555 1_555
H11 C15 1_555 1_555
H12 C15 1_555 1_555
H13 C15 1_555 1_555
H14 C16 1_555 1_555
H15 C16 1_555 1_555
H16 C16 1_555 1_555
N2 C13 1_555 1_555
C7 C8 1_555 1_555

#END
