
#######################################################################
#
#                 Cambridge Crystallographic Data Centre
#                                CCDC 
#
#######################################################################
#
# If this CIF has been generated from an entry in the Cambridge 
# Structural Database, then it will include bibliographic, chemical, 
# crystal, experimental, refinement or atomic coordinate data resulting 
# from the CCDC's data processing and validation procedures.
#
#######################################################################

data_KUSJEO
_chemical_formula_moiety         'C19 H13 F2 N1'
_chemical_name_systematic        N-(bis(4-Fluorophenyl)methylene)aniline
_symmetry_cell_setting           orthorhombic
_symmetry_space_group_name_H-M   'P b c a'
_symmetry_Int_Tables_number      61
_space_group_name_Hall           '-P 2ac 2ab'
loop_
_symmetry_equiv_pos_site_id
_symmetry_equiv_pos_as_xyz
1 x,y,z
2 1/2-x,-y,1/2+z
3 -x,1/2+y,1/2-z
4 1/2+x,1/2-y,-z
5 -x,-y,-z
6 1/2+x,y,1/2-z
7 x,1/2-y,1/2+z
8 1/2-x,1/2+y,z
_cell_length_a                   18.104(6)
_cell_length_b                   8.612(3)
_cell_length_c                   18.985(6)
_cell_angle_alpha                90
_cell_angle_beta                 90
_cell_angle_gamma                90
_cell_volume                     2959.98
_exptl_crystal_colour            yellow
_exptl_crystal_description       plate
_cell_formula_units_Z            8
loop_
_atom_site_label
_atom_site_type_symbol
_atom_site_fract_x
_atom_site_fract_y
_atom_site_fract_z
C1 C 0.20644(7) 0.24801(15) 0.27677(8)
C2 C 0.26143(8) 0.25396(15) 0.33496(8)
C3 C 0.33329(8) 0.20396(17) 0.32292(9)
H1 H 0.3463 0.1672 0.2786
C4 C 0.38557(10) 0.20799(19) 0.37563(10)
H2 H 0.4335 0.1733 0.3675
C5 C 0.36536(9) 0.2642(2) 0.44019(9)
C6 C 0.29542(9) 0.3134(2) 0.45459(9)
H3 H 0.2831 0.3498 0.4992
C7 C 0.24335(9) 0.30831(19) 0.40158(8)
H4 H 0.1954 0.3418 0.4106
C8 C 0.12682(7) 0.23425(15) 0.29640(7)
C9 C 0.07420(8) 0.33442(17) 0.26868(8)
H5 H 0.0887 0.4115 0.2373
C10 C 0.00099(8) 0.32128(18) 0.28699(8)
H6 H -0.0340 0.3894 0.2688
C11 C -0.01927(8) 0.20545(17) 0.33273(8)
C12 C 0.03040(8) 0.10401(17) 0.36102(8)
H7 H 0.0151 0.0259 0.3916
C13 C 0.10393(8) 0.12022(16) 0.34313(8)
H8 H 0.1387 0.0535 0.3628
C14 C 0.18353(8) 0.22899(17) 0.15481(8)
C15 C 0.16862(9) 0.35005(19) 0.10865(8)
H9 H 0.1886 0.4479 0.1168
C16 C 0.12419(10) 0.3250(2) 0.05081(9)
H10 H 0.1133 0.4069 0.0207
C17 C 0.09587(10) 0.1799(2) 0.03724(9)
H11 H 0.0659 0.1638 -0.0018
C18 C 0.11214(10) 0.0590(2) 0.08170(9)
H12 H 0.0936 -0.0395 0.0722
C19 C 0.15577(9) 0.08234(19) 0.14032(9)
H13 H 0.1666 -0.0003 0.1701
F1 F 0.41742(6) 0.27364(14) 0.49157(6)
F2 F -0.09151(5) 0.19054(12) 0.34959(5)
N1 N 0.23085(7) 0.25324(14) 0.21332(7)
loop_
_geom_bond_atom_site_label_1
_geom_bond_atom_site_label_2
_geom_bond_site_symmetry_1
_geom_bond_site_symmetry_2
C1 C2 1_555 1_555
C2 C3 1_555 1_555
C3 H1 1_555 1_555
C4 C3 1_555 1_555
H2 C4 1_555 1_555
C5 C4 1_555 1_555
C6 C5 1_555 1_555
H3 C6 1_555 1_555
C7 C2 1_555 1_555
H4 C7 1_555 1_555
C8 C1 1_555 1_555
C9 C8 1_555 1_555
H5 C9 1_555 1_555
C10 C9 1_555 1_555
H6 C10 1_555 1_555
C11 C10 1_555 1_555
C12 C11 1_555 1_555
H7 C12 1_555 1_555
C13 C8 1_555 1_555
H8 C13 1_555 1_555
C14 C15 1_555 1_555
C15 H9 1_555 1_555
C16 C15 1_555 1_555
H10 C16 1_555 1_555
C17 C16 1_555 1_555
H11 C17 1_555 1_555
C18 C17 1_555 1_555
H12 C18 1_555 1_555
C19 C14 1_555 1_555
H13 C19 1_555 1_555
F1 C5 1_555 1_555
F2 C11 1_555 1_555
N1 C1 1_555 1_555
C6 C7 1_555 1_555
C12 C13 1_555 1_555
C14 N1 1_555 1_555
C18 C19 1_555 1_555

#END
