
#######################################################################
#
#                 Cambridge Crystallographic Data Centre
#                                CCDC 
#
#######################################################################
#
# If this CIF has been generated from an entry in the Cambridge 
# Structural Database, then it will include bibliographic, chemical, 
# crystal, experimental, refinement or atomic coordinate data resulting 
# from the CCDC's data processing and validation procedures.
#
#######################################################################

data_KUSLUG
_chemical_formula_moiety         'C7 H5 Cl1 N4'
_chemical_name_systematic        5-(4-Chlorophenyl)-1H-tetrazole
_symmetry_cell_setting           monoclinic
_symmetry_space_group_name_H-M   'P 2/c'
_symmetry_Int_Tables_number      13
_space_group_name_Hall           '-P 2yc'
loop_
_symmetry_equiv_pos_site_id
_symmetry_equiv_pos_as_xyz
1 x,y,z
2 -x,y,1/2-z
3 -x,-y,-z
4 x,-y,1/2+z
_cell_length_a                   9.4596(19)
_cell_length_b                   11.437(2)
_cell_length_c                   7.2988(15)
_cell_angle_alpha                90
_cell_angle_beta                 107.91(3)
_cell_angle_gamma                90
_cell_volume                     751.387
_exptl_crystal_colour            colorless
_exptl_crystal_description       block
_cell_formula_units_Z            4
_exptl_crystal_recrystallization_method ethanol
loop_
_atom_site_label
_atom_site_type_symbol
_atom_site_fract_x
_atom_site_fract_y
_atom_site_fract_z
C1 C 0.0000 0.7724(3) 0.2500
C2 C 0.1238(2) 0.7123(2) 0.3612(3)
H1 H 0.2067 0.7530 0.4358
C3 C 0.1235(2) 0.59197(19) 0.3606(3)
H2 H 0.2068 0.5518 0.4350
C4 C 0.0000 0.5293(3) 0.2500
C5 C 0.0000 0.4029(3) 0.2500
Cl1 Cl 0.0000 0.92391(7) 0.2500
N1 N 0.1109(2) 0.33285(16) 0.3488(2)
N2 N 0.0660(2) 0.22079(17) 0.3089(3)
C2A C -0.1238(2) 0.7123(2) 0.1388(3)
H1A H -0.2067 0.7530 0.0642
C3A C -0.1235(2) 0.59197(19) 0.1394(3)
H2A H -0.2068 0.5518 0.0650
N1A N -0.1109(2) 0.33285(16) 0.1512(2)
N2A N -0.0660(2) 0.22079(17) 0.1911(3)
C6 C 0.5000 -0.0727(3) 0.7500
C7 C 0.3680(2) -0.0135(2) 0.6704(3)
H3 H 0.2797 -0.0544 0.6188
C8 C 0.3688(2) 0.1065(2) 0.6683(3)
H4 H 0.2809 0.1471 0.6119
C9 C 0.5000 0.1681(2) 0.7500
C10 C 0.5000 0.2975(3) 0.7500
Cl2 Cl 0.5000 -0.22534(7) 0.7500
N3 N 0.3941(2) 0.36603(16) 0.6406(3)
N4 N 0.4364(2) 0.47685(17) 0.6842(3)
C7A C 0.6320(2) -0.0135(2) 0.8296(3)
H3A H 0.7203 -0.0544 0.8812
C8A C 0.6312(2) 0.1065(2) 0.8317(3)
H4A H 0.7191 0.1471 0.8881
N3A N 0.6059(2) 0.36603(16) 0.8594(3)
N4A N 0.5636(2) 0.47685(17) 0.8158(3)
H5? H 0.1934 0.3493 0.4318
H6? H 0.322(5) 0.352(4) 0.545(6)
loop_
_geom_bond_atom_site_label_1
_geom_bond_atom_site_label_2
_geom_bond_site_symmetry_1
_geom_bond_site_symmetry_2
C1 C2 1_555 1_555
C2 H1 1_555 1_555
C3 C2 1_555 1_555
H2 C3 1_555 1_555
C4 C3 1_555 1_555
C5 C4 1_555 1_555
Cl1 C1 1_555 1_555
N1 C5 1_555 1_555
N2 N1 1_555 1_555
C6 C7 1_555 1_555
C7 H3 1_555 1_555
C8 C7 1_555 1_555
H4 C8 1_555 1_555
C9 C8 1_555 1_555
C10 C9 1_555 1_555
Cl2 C6 1_555 1_555
N3 C10 1_555 1_555
N4 N3 1_555 1_555
C2A C1 1_555 1_555
H1A C2A 1_555 1_555
C3A C4 1_555 1_555
H2A C3A 1_555 1_555
N1A C5 1_555 1_555
N2A N2 1_555 1_555
C7A C6 1_555 1_555
H3A C7A 1_555 1_555
C8A C9 1_555 1_555
H4A C8A 1_555 1_555
N3A C10 1_555 1_555
N4A N4 1_555 1_555
C2A C3A 1_555 1_555
N1A N2A 1_555 1_555
C7A C8A 1_555 1_555
N3A N4A 1_555 1_555

#END
