
#######################################################################
#
#                 Cambridge Crystallographic Data Centre
#                                CCDC 
#
#######################################################################
#
# If this CIF has been generated from an entry in the Cambridge 
# Structural Database, then it will include bibliographic, chemical, 
# crystal, experimental, refinement or atomic coordinate data resulting 
# from the CCDC's data processing and validation procedures.
#
#######################################################################

data_KUSLAM
_chemical_formula_moiety         'C16 H18 N2 O6'
_chemical_name_systematic        
'Methyl 2-acetamido-2-(1-acetyl-3-hydroxy-2-oxoindolin-3-yl)propanoate'
_symmetry_cell_setting           monoclinic
_symmetry_space_group_name_H-M   'C 2/c'
_symmetry_Int_Tables_number      15
_space_group_name_Hall           '-C 2yn'
loop_
_symmetry_equiv_pos_site_id
_symmetry_equiv_pos_as_xyz
1 x,y,z
2 -x,y,1/2-z
3 1/2+x,1/2+y,z
4 1/2-x,1/2+y,1/2-z
5 -x,-y,-z
6 x,-y,1/2+z
7 1/2-x,1/2-y,-z
8 1/2+x,1/2-y,1/2+z
_cell_length_a                   28.4345(6)
_cell_length_b                   8.3396(2)
_cell_length_c                   14.3779(3)
_cell_angle_alpha                90
_cell_angle_beta                 114.351(2)
_cell_angle_gamma                90
_cell_volume                     3106.15
_exptl_crystal_colour            colorless
_exptl_crystal_description       block
_cell_formula_units_Z            8
loop_
_atom_site_label
_atom_site_type_symbol
_atom_site_fract_x
_atom_site_fract_y
_atom_site_fract_z
O1 O 0.18064(3) 0.48686(8) -0.01504(5)
O2 O 0.07223(3) 0.53296(9) -0.06871(6)
O3 O 0.16093(3) 0.21913(9) 0.24294(6)
O4 O 0.08943(3) 0.35325(9) 0.14131(6)
O5 O 0.15655(4) 0.58921(10) 0.29251(6)
N1 N 0.07133(3) 0.25274(11) -0.07079(8)
N2 N 0.15337(3) 0.59960(9) 0.13473(6)
C1 C 0.11099(4) 0.13422(11) -0.04580(7)
C2 C 0.10601(4) -0.02706(11) -0.07223(7)
H1 H 0.0737 -0.0746 -0.1052
C3 C 0.15133(4) -0.11480(11) -0.04742(7)
H2 H 0.1492 -0.2230 -0.0643
C4 C 0.19967(4) -0.04441(11) 0.00189(8)
H3 H 0.2293 -0.1054 0.0169
C5 C 0.20390(4) 0.11744(11) 0.02897(7)
H4 H 0.2361 0.1650 0.0621
C6 C 0.15917(3) 0.20604(10) 0.00553(6)
C7 C 0.15271(3) 0.38261(10) 0.02069(6)
C8 C 0.09386(4) 0.40548(11) -0.04325(7)
O6 O 0.0031(3) 0.0870(9) -0.1455(7)
C9 C 0.01989(9) 0.2274(3) -0.1348(3)
C10 C -0.01576(8) 0.3669(3) -0.17624(17)
H5 H -0.0488 0.3293 -0.2242
H6 H -0.0016 0.4393 -0.2099
H7 H -0.0198 0.4216 -0.1212
C11 C 0.16854(3) 0.43179(10) 0.13503(6)
C12 C 0.14032(4) 0.32345(11) 0.18209(7)
C13 C 0.05969(6) 0.25468(15) 0.18069(14)
H8 H 0.0236 0.2769 0.1434
H9 H 0.0696 0.2785 0.2516
H10 H 0.0661 0.1435 0.1731
C14 C 0.15038(3) 0.66917(11) 0.21616(7)
C15 C 0.13850(4) 0.84545(11) 0.20910(8)
H11 H 0.1577 0.8950 0.2741
H12 H 0.1022 0.8606 0.1901
H13 H 0.1480 0.8934 0.1586
C16 C 0.22685(4) 0.41480(12) 0.19614(7)
H14 H 0.2363 0.4557 0.2639
H15 H 0.2446 0.4743 0.1632
H16 H 0.2363 0.3037 0.1997
H17 H 0.1751(7) 0.467(2) -0.0785(13)
H18 H 0.1491(6) 0.658(2) 0.0803(13)
C17? C -0.01742(8) 0.3377(3) -0.0815(2)
C18? C 0.01733(9) 0.2087(3) -0.0877(3)
H19? H -0.0347 0.3870 -0.1473
H20? H 0.0026 0.4169 -0.0328
H21? H -0.0425 0.2924 -0.0605
O7? O 0.0045(3) 0.0780(10) -0.1114(8)
loop_
_geom_bond_atom_site_label_1
_geom_bond_atom_site_label_2
_geom_bond_site_symmetry_1
_geom_bond_site_symmetry_2
O1 C7 1_555 1_555
O2 C8 1_555 1_555
O3 C12 1_555 1_555
O4 C12 1_555 1_555
O5 C14 1_555 1_555
N1 C1 1_555 1_555
N2 C11 1_555 1_555
C1 C2 1_555 1_555
C2 H1 1_555 1_555
C3 C2 1_555 1_555
H2 C3 1_555 1_555
C4 C3 1_555 1_555
H3 C4 1_555 1_555
C5 C4 1_555 1_555
H4 C5 1_555 1_555
C6 C1 1_555 1_555
C7 C6 1_555 1_555
C8 N1 1_555 1_555
O6 C9 1_555 1_555
C9 N1 1_555 1_555
C10 C9 1_555 1_555
H5 C10 1_555 1_555
H6 C10 1_555 1_555
H7 C10 1_555 1_555
C11 C7 1_555 1_555
C12 C11 1_555 1_555
C13 O4 1_555 1_555
H8 C13 1_555 1_555
H9 C13 1_555 1_555
H10 C13 1_555 1_555
C14 N2 1_555 1_555
C15 C14 1_555 1_555
H11 C15 1_555 1_555
H12 C15 1_555 1_555
H13 C15 1_555 1_555
C16 C11 1_555 1_555
H14 C16 1_555 1_555
H15 C16 1_555 1_555
H16 C16 1_555 1_555
H17 O1 1_555 1_555
H18 N2 1_555 1_555
C5 C6 1_555 1_555
C7 C8 1_555 1_555

#END
