
#######################################################################
#
#                 Cambridge Crystallographic Data Centre
#                                CCDC 
#
#######################################################################
#
# If this CIF has been generated from an entry in the Cambridge 
# Structural Database, then it will include bibliographic, chemical, 
# crystal, experimental, refinement or atomic coordinate data resulting 
# from the CCDC's data processing and validation procedures.
#
#######################################################################

data_KUSLIU
_chemical_formula_moiety         'C16 H8 N4 O4'
_chemical_name_systematic        
3-Carboxypyrazino[2,3-f][1,10]phenanthrolin-9-ium-2-carboxylate
_symmetry_cell_setting           triclinic
_symmetry_space_group_name_H-M   'P -1'
_symmetry_Int_Tables_number      2
_space_group_name_Hall           '-P 1'
loop_
_symmetry_equiv_pos_site_id
_symmetry_equiv_pos_as_xyz
1 x,y,z
2 -x,-y,-z
_cell_length_a                   7.302(2)
_cell_length_b                   9.662(3)
_cell_length_c                   10.726(3)
_cell_angle_alpha                63.564(3)
_cell_angle_beta                 71.386(3)
_cell_angle_gamma                78.283(4)
_cell_volume                     640.504
_exptl_crystal_colour            colorless
_exptl_crystal_description       prism
_cell_formula_units_Z            2
loop_
_atom_site_label
_atom_site_type_symbol
_atom_site_fract_x
_atom_site_fract_y
_atom_site_fract_z
O1 O 0.1681(4) -0.2077(3) 0.4832(3)
O2 O 0.2929(4) -0.0009(3) 0.2840(3)
O3 O 0.0845(4) 0.3107(4) 0.2623(3)
H1 H 0.0010 0.2742 0.3381
O4 O 0.4003(5) 0.3285(4) 0.1966(3)
N1 N 0.2349(4) -0.0766(4) 0.6468(3)
N2 N 0.2887(5) 0.2420(4) 0.5116(3)
N3 N 0.2403(5) -0.0825(4) 1.0943(3)
N4 N 0.3104(4) 0.2237(4) 0.9626(3)
C1 C 0.2334(5) -0.0835(4) 0.8748(4)
C2 C 0.2928(5) 0.1575(4) 0.8803(4)
C3 C 0.2812(5) 0.1585(4) 0.6532(4)
C4 C 0.2689(5) 0.1654(5) 0.4411(4)
C5 C 0.1733(5) -0.3119(4) 1.0965(4)
H2 H 0.1440 -0.4150 1.1477
C6 C 0.2571(5) -0.0055(4) 0.9502(4)
C7 C 0.2339(5) -0.0776(5) 0.4193(4)
C8 C 0.2491(5) 0.0009(4) 0.7207(4)
C9 C 0.3009(5) 0.2401(4) 0.7332(4)
C10 C 0.3264(6) 0.3985(5) 0.6710(4)
H3 H 0.3301 0.4574 0.5742
C11 C 0.2011(5) -0.2294(5) 1.1653(4)
H4 H 0.1920 -0.2783 1.2637
C12 C 0.3366(6) 0.3728(5) 0.8992(4)
H5 H 0.3499 0.4194 0.9550
C13 C 0.1900(5) -0.2382(4) 0.9509(4)
H6 H 0.1722 -0.2920 0.9027
C14 C 0.2468(5) 0.0059(5) 0.5071(4)
C15 C 0.3458(6) 0.4662(5) 0.7535(4)
H7 H 0.3647 0.5712 0.7141
C16 C 0.2599(7) 0.2711(5) 0.2886(5)
H8 H 0.250(7) -0.035(5) 1.138(4)
loop_
_geom_bond_atom_site_label_1
_geom_bond_atom_site_label_2
_geom_bond_site_symmetry_1
_geom_bond_site_symmetry_2
O1 C7 1_555 1_555
O2 C7 1_555 1_555
O3 H1 1_555 1_555
O4 C16 1_555 1_555
N1 C8 1_555 1_555
N2 C3 1_555 1_555
N3 C6 1_555 1_555
N4 C2 1_555 1_555
C1 C6 1_555 1_555
C2 C6 1_555 1_555
C3 C8 1_555 1_555
C4 N2 1_555 1_555
C5 H2 1_555 1_555
C7 C14 1_555 1_555
C8 C1 1_555 1_555
C9 C2 1_555 1_555
C10 C9 1_555 1_555
H3 C10 1_555 1_555
C11 N3 1_555 1_555
H4 C11 1_555 1_555
C12 N4 1_555 1_555
H5 C12 1_555 1_555
C13 C1 1_555 1_555
H6 C13 1_555 1_555
C14 N1 1_555 1_555
C15 C10 1_555 1_555
H7 C15 1_555 1_555
C16 O3 1_555 1_555
H8 N3 1_555 1_555
C3 C9 1_555 1_555
C4 C14 1_555 1_555
C4 C16 1_555 1_555
C5 C11 1_555 1_555
C5 C13 1_555 1_555
C12 C15 1_555 1_555

#END
