
#######################################################################
#
#                 Cambridge Crystallographic Data Centre
#                                CCDC 
#
#######################################################################
#
# If this CIF has been generated from an entry in the Cambridge 
# Structural Database, then it will include bibliographic, chemical, 
# crystal, experimental, refinement or atomic coordinate data resulting 
# from the CCDC's data processing and validation procedures.
#
#######################################################################

data_KUSVAX
_chemical_formula_moiety         'C17 H27 N1 O3'
_chemical_name_systematic        
'methyl (4-methyl-11-oxo-7-azatricyclo[5.4.3.0^1,6^]tetradec-2-yl)acetate'
_symmetry_cell_setting           monoclinic
_symmetry_space_group_name_H-M   'C c'
_symmetry_Int_Tables_number      9
_space_group_name_Hall           'C -2yc'
loop_
_symmetry_equiv_pos_site_id
_symmetry_equiv_pos_as_xyz
1 x,y,z
2 x,-y,1/2+z
3 1/2+x,1/2+y,z
4 1/2+x,1/2-y,1/2+z
_cell_length_a                   9.1958(7)
_cell_length_b                   13.9189(11)
_cell_length_c                   12.6004(10)
_cell_angle_alpha                90
_cell_angle_beta                 104.126(1)
_cell_angle_gamma                90
_cell_volume                     1564.02
_exptl_crystal_colour            colorless
_exptl_crystal_description       prism
_cell_formula_units_Z            4
loop_
_atom_site_label
_atom_site_type_symbol
_atom_site_fract_x
_atom_site_fract_y
_atom_site_fract_z
O1 O 0.50009(17) 0.08466(12) 0.50007(13)
O2 O 1.0870(2) 0.02610(18) 0.61424(17)
O3 O 0.99075(18) 0.00454(13) 0.43641(14)
N1 N 0.57041(17) 0.23026(13) 0.80463(12)
C1 C 0.5283(3) 0.14101(17) 0.85056(18)
H1 H 0.4366 0.1523 0.8737
H2 H 0.6060 0.1250 0.9153
C2 C 0.5043(3) 0.05498(16) 0.77412(18)
H3 H 0.4127 0.0639 0.7174
H4 H 0.4928 -0.0025 0.8149
C3 C 0.6357(2) 0.04177(14) 0.72141(17)
H5 H 0.6130 -0.0098 0.6682
H6 H 0.7243 0.0237 0.7771
C4 C 0.66829(19) 0.13504(12) 0.66406(14)
C5 C 0.5335(2) 0.14946(14) 0.56563(15)
C6 C 0.4369(3) 0.23866(17) 0.54866(17)
H7 H 0.3653 0.2341 0.4782
H8 H 0.5001 0.2940 0.5464
C7 C 0.3509(2) 0.25534(18) 0.63716(18)
H9 H 0.2724 0.3021 0.6101
H10 H 0.3028 0.1956 0.6490
C8 C 0.4460(2) 0.29043(16) 0.74703(19)
H11 H 0.4867 0.3528 0.7353
H12 H 0.3798 0.3002 0.7953
C9 C 0.69531(19) 0.21507(13) 0.75315(14)
H13 H 0.7763 0.1898 0.8122
C10 C 0.7565(2) 0.30961(13) 0.72128(18)
H14 H 0.7807 0.3514 0.7848
H15 H 0.6792 0.3409 0.6658
C11 C 0.8962(2) 0.29657(14) 0.67739(18)
H16 H 0.9146 0.3575 0.6440
C12 C 0.8656(2) 0.22039(14) 0.58721(17)
H17 H 0.7875 0.2433 0.5261
H18 H 0.9557 0.2107 0.5614
C13 C 0.8173(2) 0.12477(12) 0.62652(15)
H19 H 0.8948 0.1077 0.6922
C14 C 1.0353(2) 0.2736(2) 0.7680(2)
H20 H 1.0596 0.3277 0.8163
H21 H 1.1179 0.2601 0.7362
H22 H 1.0159 0.2186 0.8084
C15 C 0.8209(2) 0.04614(15) 0.54225(18)
H23 H 0.7754 -0.0120 0.5619
H24 H 0.7635 0.0666 0.4707
C16 C 0.9806(2) 0.02566(13) 0.53794(18)
C17 C 1.1402(3) -0.0133(2) 0.4228(3)
H25 H 1.2022 0.0418 0.4468
H26 H 1.1353 -0.0254 0.3470
H27 H 1.1821 -0.0683 0.4655
loop_
_geom_bond_atom_site_label_1
_geom_bond_atom_site_label_2
_geom_bond_site_symmetry_1
_geom_bond_site_symmetry_2
O1 C5 1_555 1_555
O2 C16 1_555 1_555
O3 C16 1_555 1_555
N1 C1 1_555 1_555
C1 H1 1_555 1_555
H2 C1 1_555 1_555
C2 C1 1_555 1_555
H3 C2 1_555 1_555
H4 C2 1_555 1_555
C3 C2 1_555 1_555
H5 C3 1_555 1_555
H6 C3 1_555 1_555
C4 C3 1_555 1_555
C5 C4 1_555 1_555
C6 C5 1_555 1_555
H7 C6 1_555 1_555
H8 C6 1_555 1_555
C7 C6 1_555 1_555
H9 C7 1_555 1_555
H10 C7 1_555 1_555
C8 N1 1_555 1_555
H11 C8 1_555 1_555
H12 C8 1_555 1_555
C9 N1 1_555 1_555
H13 C9 1_555 1_555
C10 C9 1_555 1_555
H14 C10 1_555 1_555
H15 C10 1_555 1_555
C11 C10 1_555 1_555
H16 C11 1_555 1_555
C12 C11 1_555 1_555
H17 C12 1_555 1_555
H18 C12 1_555 1_555
C13 C4 1_555 1_555
H19 C13 1_555 1_555
C14 C11 1_555 1_555
H20 C14 1_555 1_555
H21 C14 1_555 1_555
H22 C14 1_555 1_555
C15 C13 1_555 1_555
H23 C15 1_555 1_555
H24 C15 1_555 1_555
C16 C15 1_555 1_555
C17 O3 1_555 1_555
H25 C17 1_555 1_555
H26 C17 1_555 1_555
H27 C17 1_555 1_555
C4 C9 1_555 1_555
C7 C8 1_555 1_555
C12 C13 1_555 1_555

#END
