
#######################################################################
#
#                 Cambridge Crystallographic Data Centre
#                                CCDC 
#
#######################################################################
#
# If this CIF has been generated from an entry in the Cambridge 
# Structural Database, then it will include bibliographic, chemical, 
# crystal, experimental, refinement or atomic coordinate data resulting 
# from the CCDC's data processing and validation procedures.
#
#######################################################################

data_KUSVAW01
_chemical_formula_moiety         'C6 H9 N2 1+,C2 F3 O2 1-'
_chemical_name_systematic        '2-Amino-4-methylpyridinium trifluoroacetate'
_symmetry_cell_setting           monoclinic
_symmetry_space_group_name_H-M   'P 21/c'
_symmetry_Int_Tables_number      14
_space_group_name_Hall           '-P 2ybc'
loop_
_symmetry_equiv_pos_site_id
_symmetry_equiv_pos_as_xyz
1 x,y,z
2 -x,1/2+y,1/2-z
3 -x,-y,-z
4 x,1/2-y,1/2+z
_cell_length_a                   8.5315(7)
_cell_length_b                   11.4901(9)
_cell_length_c                   9.7206(8)
_cell_angle_alpha                90
_cell_angle_beta                 90.8200(10)
_cell_angle_gamma                90
_cell_volume                     952.791
_exptl_crystal_colour            colorless
_exptl_crystal_description       block
_cell_formula_units_Z            4
loop_
_atom_site_label
_atom_site_type_symbol
_atom_site_fract_x
_atom_site_fract_y
_atom_site_fract_z
F1 F 0.16929(11) 0.27679(7) 1.06142(10)
F2 F 0.08357(10) 0.40806(8) 0.92121(10)
F3 F 0.25375(10) 0.45302(7) 1.07851(9)
O1 O 0.36035(11) 0.23798(8) 0.85540(11)
O2 O 0.41240(11) 0.42938(8) 0.83832(10)
C1 C 0.34308(14) 0.34184(11) 0.88424(14)
C2 C 0.21258(15) 0.36940(11) 0.98849(15)
N1 N 0.61429(13) 0.37742(9) 0.62595(12)
H1 H 0.544(2) 0.3930(17) 0.699(2)
N2 N 0.56684(13) 0.18015(10) 0.63958(12)
H2 H 0.504(2) 0.1964(16) 0.711(2)
H3 H 0.588(2) 0.1040(16) 0.6158(18)
C3 C 0.68436(16) 0.47274(12) 0.56989(15)
H4 H 0.6618 0.5480 0.6049
C4 C 0.78596(16) 0.46100(12) 0.46475(15)
H5 H 0.8341 0.5277 0.4261
C5 C 0.81986(15) 0.34848(12) 0.41287(14)
C6 C 0.74763(14) 0.25417(11) 0.47012(13)
H6 H 0.7689 0.1784 0.4359
C7 C 0.64122(14) 0.26797(11) 0.58005(14)
C8 C 0.93335(16) 0.33574(13) 0.29694(15)
H7 H 0.9287 0.2560 0.2612
H8 H 1.0398 0.3523 0.3307
H9 H 0.9055 0.3905 0.2233
loop_
_geom_bond_atom_site_label_1
_geom_bond_atom_site_label_2
_geom_bond_site_symmetry_1
_geom_bond_site_symmetry_2
F1 C2 1_555 1_555
F2 C2 1_555 1_555
F3 C2 1_555 1_555
O1 C1 1_555 1_555
O2 C1 1_555 1_555
C1 C2 1_555 1_555
N1 H1 1_555 1_555
N2 H2 1_555 1_555
H3 N2 1_555 1_555
C3 N1 1_555 1_555
H4 C3 1_555 1_555
C4 C3 1_555 1_555
H5 C4 1_555 1_555
C5 C4 1_555 1_555
C6 C5 1_555 1_555
H6 C6 1_555 1_555
C7 N1 1_555 1_555
C8 C5 1_555 1_555
H7 C8 1_555 1_555
H8 C8 1_555 1_555
H9 C8 1_555 1_555
N2 C7 1_555 1_555
C6 C7 1_555 1_555

#END
