
#######################################################################
#
#                 Cambridge Crystallographic Data Centre
#                                CCDC 
#
#######################################################################
#
# If this CIF has been generated from an entry in the Cambridge 
# Structural Database, then it will include bibliographic, chemical, 
# crystal, experimental, refinement or atomic coordinate data resulting 
# from the CCDC's data processing and validation procedures.
#
#######################################################################

data_KUSWIG
_chemical_formula_moiety         'C20 H25 N3 O2'
_chemical_name_systematic        
'ethyl 5-(1,1-bis(1H-pyrrol-2-yl)ethyl)-3-ethyl-4-methyl-1H-pyrrole-2-carboxylate'
_symmetry_cell_setting           monoclinic
_symmetry_space_group_name_H-M   'C 2/c'
_symmetry_Int_Tables_number      15
_space_group_name_Hall           '-C 2yn'
loop_
_symmetry_equiv_pos_site_id
_symmetry_equiv_pos_as_xyz
1 x,y,z
2 -x,y,1/2-z
3 1/2+x,1/2+y,z
4 1/2-x,1/2+y,1/2-z
5 -x,-y,-z
6 x,-y,1/2+z
7 1/2-x,1/2-y,-z
8 1/2+x,1/2-y,1/2+z
_cell_length_a                   32.6975(7)
_cell_length_b                   10.0081(3)
_cell_length_c                   24.9344(8)
_cell_angle_alpha                90
_cell_angle_beta                 114.622(2)
_cell_angle_gamma                90
_cell_volume                     7417.63
_exptl_crystal_colour            colorless
_exptl_crystal_description       prisms
_cell_formula_units_Z            16
loop_
_atom_site_label
_atom_site_type_symbol
_atom_site_fract_x
_atom_site_fract_y
_atom_site_fract_z
O1 O 0.44905(4) 0.90206(13) 0.70019(6)
O2 O 0.41450(4) 0.71685(14) 0.71215(6)
N1 N 0.49867(5) 0.75808(15) 0.65547(6)
H1 H 0.5026 0.8449 0.6547
N2 N 0.60347(5) 0.90583(16) 0.64999(7)
H2 H 0.6277 0.8605 0.6721
N3 N 0.61751(5) 0.61521(17) 0.70434(7)
H3 H 0.6065 0.6485 0.7283
C1 C 0.46961(6) 0.69700(19) 0.67497(8)
C2 C 0.47337(6) 0.56023(19) 0.66942(8)
C3 C 0.50556(6) 0.53980(19) 0.64597(8)
C4 C 0.52053(6) 0.66426(18) 0.63754(8)
C5 C 0.55404(6) 0.70098(19) 0.61196(8)
C6 C 0.56239(6) 0.85038(19) 0.61578(8)
C7 C 0.53412(7) 0.9547(2) 0.58880(9)
H4 H 0.5033 0.9474 0.5622
C8 C 0.55859(8) 1.0747(2) 0.60734(10)
H5 H 0.5472 1.1624 0.5957
C9 C 0.60115(8) 1.0423(2) 0.64461(10)
H6 H 0.6252 1.1032 0.6637
C10 C 0.59784(6) 0.62566(19) 0.64414(8)
C11 C 0.62554(7) 0.5620(2) 0.62357(9)
H7 H 0.6206 0.5535 0.5834
C12 C 0.66251(7) 0.5116(2) 0.67237(10)
H8 H 0.6870 0.4628 0.6712
C13 C 0.65682(7) 0.5451(2) 0.72159(10)
H9 H 0.6767 0.5236 0.7610
C14 C 0.44204(6) 0.7692(2) 0.69733(8)
C15 C 0.42109(7) 0.9788(2) 0.72168(10)
H10 H 0.4198 0.9336 0.7563
H11 H 0.3901 0.9855 0.6905
C16 C 0.44055(8) 1.1134(2) 0.73841(10)
H12 H 0.4203 1.1689 0.7489
H13 H 0.4445 1.1541 0.7051
H14 H 0.4698 1.1068 0.7723
C17 C 0.44768(7) 0.4538(2) 0.68458(10)
H15 H 0.4452 0.4789 0.7215
H16 H 0.4646 0.3688 0.6918
C18 C 0.40070(7) 0.4322(2) 0.63626(11)
H17 H 0.3859 0.3595 0.6477
H18 H 0.4029 0.4088 0.5994
H19 H 0.3831 0.5144 0.6306
C19 C 0.52056(8) 0.4058(2) 0.63365(10)
H20 H 0.5242 0.3441 0.6659
H21 H 0.5493 0.4155 0.6305
H22 H 0.4979 0.3704 0.5965
C20 C 0.53393(7) 0.6605(2) 0.54623(9)
H23 H 0.5266 0.5651 0.5426
H24 H 0.5559 0.6784 0.5298
H25 H 0.5066 0.7125 0.5246
O3 O 0.64850(4) 0.39582(13) 0.49896(6)
O4 O 0.70284(4) 0.25062(13) 0.55247(6)
N4 N 0.69875(5) 0.60951(14) 0.55027(6)
H26 H 0.6719 0.6280 0.5228
N5 N 0.63433(5) 0.88244(17) 0.53902(7)
H27 H 0.6353 0.8805 0.5748
N6 N 0.72137(5) 1.04610(15) 0.63963(7)
H28 H 0.7218 1.1059 0.6140
C21 C 0.71597(6) 0.48306(17) 0.56529(8)
C22 C 0.75890(6) 0.49525(18) 0.61008(8)
C23 C 0.76708(6) 0.63351(18) 0.62187(8)
C24 C 0.72888(6) 0.70187(18) 0.58367(8)
C25 C 0.71794(6) 0.85055(18) 0.57436(8)
C26 C 0.67090(6) 0.87104(18) 0.52645(8)
C27 C 0.65500(8) 0.8777(2) 0.46640(9)
H29 H 0.6726 0.8719 0.4443
C28 C 0.60798(8) 0.8945(2) 0.44298(9)
H30 H 0.5882 0.9024 0.4024
C29 C 0.59612(7) 0.8972(2) 0.48863(10)
H31 H 0.5665 0.9076 0.4861
C30 C 0.72045(6) 0.91037(18) 0.63168(8)
C31 C 0.71961(6) 0.8526(2) 0.68109(8)
H32 H 0.7187 0.7596 0.6881
C32 C 0.72043(7) 0.9576(2) 0.71970(9)
H33 H 0.7203 0.9476 0.7575
C33 C 0.72142(7) 1.0744(2) 0.69306(9)
H34 H 0.7220 1.1611 0.7089
C34 C 0.68996(6) 0.36511(19) 0.53962(8)
C35 C 0.61734(7) 0.2849(2) 0.47506(9)
H35 H 0.6341 0.2040 0.4731
H36 H 0.5953 0.3067 0.4346
C36 C 0.59348(9) 0.2585(3) 0.51263(15)
H37 H 0.5719 0.1856 0.4955
H38 H 0.5774 0.3392 0.5151
H39 H 0.6152 0.2331 0.5522
C37 C 0.79063(6) 0.38181(19) 0.63938(8)
H40 H 0.7744 0.3128 0.6513
H41 H 0.8155 0.4155 0.6756
C38 C 0.81046(7) 0.3174(2) 0.59977(9)
H42 H 0.8305 0.2441 0.6211
H43 H 0.8275 0.3844 0.5888
H44 H 0.7861 0.2824 0.5640
C39 C 0.80907(6) 0.6934(2) 0.66828(8)
H45 H 0.8034 0.7867 0.6750
H46 H 0.8334 0.6896 0.6550
H47 H 0.8179 0.6429 0.7051
C40 C 0.75187(7) 0.91931(19) 0.55470(9)
H48 H 0.7448 1.0147 0.5483
H49 H 0.7498 0.8786 0.5179
H50 H 0.7824 0.9081 0.5854
loop_
_geom_bond_atom_site_label_1
_geom_bond_atom_site_label_2
_geom_bond_site_symmetry_1
_geom_bond_site_symmetry_2
O1 C14 1_555 1_555
O2 C14 1_555 1_555
N1 H1 1_555 1_555
N2 H2 1_555 1_555
N3 H3 1_555 1_555
C1 N1 1_555 1_555
C2 C1 1_555 1_555
C3 C2 1_555 1_555
C4 N1 1_555 1_555
C5 C4 1_555 1_555
C6 N2 1_555 1_555
C7 C6 1_555 1_555
H4 C7 1_555 1_555
C8 C7 1_555 1_555
H5 C8 1_555 1_555
C9 N2 1_555 1_555
H6 C9 1_555 1_555
C10 N3 1_555 1_555
C11 C10 1_555 1_555
H7 C11 1_555 1_555
C12 C11 1_555 1_555
H8 C12 1_555 1_555
C13 N3 1_555 1_555
H9 C13 1_555 1_555
C14 C1 1_555 1_555
C15 O1 1_555 1_555
H10 C15 1_555 1_555
H11 C15 1_555 1_555
C16 C15 1_555 1_555
H12 C16 1_555 1_555
H13 C16 1_555 1_555
H14 C16 1_555 1_555
C17 C2 1_555 1_555
H15 C17 1_555 1_555
H16 C17 1_555 1_555
C18 C17 1_555 1_555
H17 C18 1_555 1_555
H18 C18 1_555 1_555
H19 C18 1_555 1_555
C19 C3 1_555 1_555
H20 C19 1_555 1_555
H21 C19 1_555 1_555
H22 C19 1_555 1_555
C20 C5 1_555 1_555
H23 C20 1_555 1_555
H24 C20 1_555 1_555
H25 C20 1_555 1_555
O3 C34 1_555 1_555
O4 C34 1_555 1_555
N4 H26 1_555 1_555
N5 H27 1_555 1_555
N6 H28 1_555 1_555
C21 N4 1_555 1_555
C22 C21 1_555 1_555
C23 C22 1_555 1_555
C24 N4 1_555 1_555
C25 C24 1_555 1_555
C26 N5 1_555 1_555
C27 C26 1_555 1_555
H29 C27 1_555 1_555
C28 C27 1_555 1_555
H30 C28 1_555 1_555
C29 N5 1_555 1_555
H31 C29 1_555 1_555
C30 N6 1_555 1_555
C31 C30 1_555 1_555
H32 C31 1_555 1_555
C32 C31 1_555 1_555
H33 C32 1_555 1_555
C33 N6 1_555 1_555
H34 C33 1_555 1_555
C34 C21 1_555 1_555
C35 O3 1_555 1_555
H35 C35 1_555 1_555
H36 C35 1_555 1_555
C36 C35 1_555 1_555
H37 C36 1_555 1_555
H38 C36 1_555 1_555
H39 C36 1_555 1_555
C37 C22 1_555 1_555
H40 C37 1_555 1_555
H41 C37 1_555 1_555
C38 C37 1_555 1_555
H42 C38 1_555 1_555
H43 C38 1_555 1_555
H44 C38 1_555 1_555
C39 C23 1_555 1_555
H45 C39 1_555 1_555
H46 C39 1_555 1_555
H47 C39 1_555 1_555
C40 C25 1_555 1_555
H48 C40 1_555 1_555
H49 C40 1_555 1_555
H50 C40 1_555 1_555
C3 C4 1_555 1_555
C5 C6 1_555 1_555
C5 C10 1_555 1_555
C8 C9 1_555 1_555
C12 C13 1_555 1_555
C23 C24 1_555 1_555
C25 C26 1_555 1_555
C25 C30 1_555 1_555
C28 C29 1_555 1_555
C32 C33 1_555 1_555

#END
