
#######################################################################
#
#                 Cambridge Crystallographic Data Centre
#                                CCDC 
#
#######################################################################
#
# If this CIF has been generated from an entry in the Cambridge 
# Structural Database, then it will include bibliographic, chemical, 
# crystal, experimental, refinement or atomic coordinate data resulting 
# from the CCDC's data processing and validation procedures.
#
#######################################################################

data_KUSXOM
_chemical_formula_moiety         'C25 H18 N2 O4'
_chemical_name_systematic        
2'-Methyl-1,3-diphenyl-1'H-spiro[2,7-dioxa-4-azabicyclo[3.2.0]hept-3-ene-6,4'-isoquinoline]-1',3'(2'H)-dione
_symmetry_cell_setting           monoclinic
_symmetry_space_group_name_H-M   'P 21/c'
_symmetry_Int_Tables_number      14
_space_group_name_Hall           '-P 2ybc'
loop_
_symmetry_equiv_pos_site_id
_symmetry_equiv_pos_as_xyz
1 x,y,z
2 -x,1/2+y,1/2-z
3 -x,-y,-z
4 x,1/2-y,1/2+z
_cell_length_a                   13.3142(3)
_cell_length_b                   8.0366(2)
_cell_length_c                   19.1913(5)
_cell_angle_alpha                90
_cell_angle_beta                 109.8820(10)
_cell_angle_gamma                90
_cell_volume                     1931.09
_exptl_crystal_colour            colorless
_exptl_crystal_description       block
_cell_formula_units_Z            4
loop_
_atom_site_label
_atom_site_type_symbol
_atom_site_fract_x
_atom_site_fract_y
_atom_site_fract_z
O1 O 0.67405(9) 0.09357(15) 0.23596(6)
O2 O 0.98657(9) 0.36419(16) 0.27093(6)
O3 O 0.62301(8) 0.07638(12) 0.08429(5)
O4 O 0.65067(8) -0.12787(13) 0.00309(5)
N1 N 0.83241(10) 0.22292(16) 0.25592(7)
N2 N 0.82562(9) -0.07527(14) 0.06914(6)
C1 C 0.73931(12) 0.14769(18) 0.21089(8)
C2 C 0.90196(12) 0.31220(19) 0.22920(8)
C3 C 0.86313(11) 0.34634(18) 0.14836(8)
C4 C 0.91327(12) 0.4707(2) 0.12193(9)
C5 C 0.87765(13) 0.5082(2) 0.04699(9)
C6 C 0.79084(13) 0.42300(19) -0.00134(9)
C7 C 0.74074(12) 0.29813(19) 0.02473(8)
C8 C 0.77731(11) 0.25907(18) 0.09976(8)
C9 C 0.73081(11) 0.11985(18) 0.13037(8)
C10 C 0.76955(11) -0.06240(18) 0.12152(8)
C11 C 0.65008(12) -0.09381(18) 0.07673(8)
C12 C 0.75508(11) -0.10798(17) 0.00665(8)
C13 C 0.58169(11) -0.21713(18) 0.09854(8)
C14 C 0.59034(13) -0.3863(2) 0.08529(9)
C15 C 0.53327(13) -0.5023(2) 0.11064(9)
C16 C 0.46778(12) -0.4499(2) 0.14951(9)
C17 C 0.45793(12) -0.2815(2) 0.16149(8)
C18 C 0.51465(11) -0.1653(2) 0.13609(8)
C19 C 0.77737(12) -0.12908(17) -0.06280(8)
C20 C 0.88379(12) -0.12115(18) -0.05944(9)
C21 C 0.90942(13) -0.13662(19) -0.12331(9)
C22 C 0.82889(14) -0.1618(2) -0.19087(9)
C23 C 0.72301(13) -0.1716(2) -0.19467(9)
C24 C 0.69684(12) -0.15463(18) -0.13063(8)
C25 C 0.85260(14) 0.2178(2) 0.33612(8)
H1 H 0.9730(17) 0.530(3) 0.1601(11)
H2 H 0.9128(16) 0.594(3) 0.0298(11)
H3 H 0.7619(14) 0.453(2) -0.0564(10)
H4 H 0.6790(15) 0.241(2) -0.0100(10)
H5 H 0.8042(13) -0.122(2) 0.1680(10)
H6 H 0.6366(16) -0.421(3) 0.0580(11)
H7 H 0.5374(16) -0.622(3) 0.0998(11)
H8 H 0.4261(15) -0.531(3) 0.1681(10)
H9 H 0.4124(15) -0.243(2) 0.1881(10)
H10 H 0.5091(14) -0.049(3) 0.1448(10)
H11 H 0.9383(15) -0.105(2) -0.0121(10)
H12 H 0.9834(15) -0.124(2) -0.1203(9)
H13 H 0.8479(17) -0.174(3) -0.2372(12)
H14 H 0.6682(16) -0.191(3) -0.2414(11)
H15 H 0.6219(16) -0.159(2) -0.1330(10)
H16 H 0.7977(15) 0.286(2) 0.3470(10)
H17 H 0.8482(14) 0.103(3) 0.3493(10)
H18 H 0.9243(16) 0.267(2) 0.3603(11)
loop_
_geom_bond_atom_site_label_1
_geom_bond_atom_site_label_2
_geom_bond_site_symmetry_1
_geom_bond_site_symmetry_2
O1 C1 1_555 1_555
O2 C2 1_555 1_555
O3 C9 1_555 1_555
O4 C11 1_555 1_555
N1 C1 1_555 1_555
N2 C10 1_555 1_555
C1 C9 1_555 1_555
C2 N1 1_555 1_555
C3 C2 1_555 1_555
C4 C3 1_555 1_555
C5 C4 1_555 1_555
C6 C5 1_555 1_555
C7 C6 1_555 1_555
C8 C3 1_555 1_555
C9 C8 1_555 1_555
C10 C9 1_555 1_555
C11 O3 1_555 1_555
C12 O4 1_555 1_555
C13 C11 1_555 1_555
C14 C13 1_555 1_555
C15 C14 1_555 1_555
C16 C15 1_555 1_555
C17 C16 1_555 1_555
C18 C13 1_555 1_555
C19 C12 1_555 1_555
C20 C19 1_555 1_555
C21 C20 1_555 1_555
C22 C21 1_555 1_555
C23 C22 1_555 1_555
C24 C19 1_555 1_555
C25 N1 1_555 1_555
H1 C4 1_555 1_555
H2 C5 1_555 1_555
H3 C6 1_555 1_555
H4 C7 1_555 1_555
H5 C10 1_555 1_555
H6 C14 1_555 1_555
H7 C15 1_555 1_555
H8 C16 1_555 1_555
H9 C17 1_555 1_555
H10 C18 1_555 1_555
H11 C20 1_555 1_555
H12 C21 1_555 1_555
H13 C22 1_555 1_555
H14 C23 1_555 1_555
H15 C24 1_555 1_555
H16 C25 1_555 1_555
H17 C25 1_555 1_555
H18 C25 1_555 1_555
N2 C12 1_555 1_555
C7 C8 1_555 1_555
C10 C11 1_555 1_555
C17 C18 1_555 1_555
C23 C24 1_555 1_555

#END
