
#######################################################################
#
#                 Cambridge Crystallographic Data Centre
#                                CCDC 
#
#######################################################################
#
# If this CIF has been generated from an entry in the Cambridge 
# Structural Database, then it will include bibliographic, chemical, 
# crystal, experimental, refinement or atomic coordinate data resulting 
# from the CCDC's data processing and validation procedures.
#
#######################################################################

data_KUSZUT01
_chemical_formula_moiety         'C6 H8 N1 1+,C2 F3 O2 1-'
_chemical_name_systematic        '4-Methylpyridinium trifluoroacetate'
_symmetry_cell_setting           monoclinic
_symmetry_space_group_name_H-M   'P 21/n'
_symmetry_Int_Tables_number      14
_space_group_name_Hall           '-P 2yn'
loop_
_symmetry_equiv_pos_site_id
_symmetry_equiv_pos_as_xyz
1 x,y,z
2 1/2-x,1/2+y,1/2-z
3 -x,-y,-z
4 1/2+x,1/2-y,1/2+z
_cell_length_a                   6.334(2)
_cell_length_b                   8.853(3)
_cell_length_c                   16.364(6)
_cell_angle_alpha                90
_cell_angle_beta                 99.969(14)
_cell_angle_gamma                90
_cell_volume                     903.755
_exptl_crystal_colour            colorless
_exptl_crystal_description       plate
_cell_formula_units_Z            4
loop_
_atom_site_label
_atom_site_type_symbol
_atom_site_fract_x
_atom_site_fract_y
_atom_site_fract_z
F1 F 0.13709(14) 0.42774(12) 0.38426(6)
F2 F 0.37380(17) 0.57498(12) 0.35120(8)
F3 F 0.29968(19) 0.36634(15) 0.28564(6)
O1 O 0.44301(16) 0.21841(13) 0.44205(7)
O2 O 0.67670(16) 0.40822(12) 0.44076(7)
C1 C 0.4997(2) 0.34323(17) 0.42154(9)
C2 C 0.3281(2) 0.43033(18) 0.36074(10)
N1 N 0.92908(19) 0.22108(14) 0.54441(8)
H1 H 0.845(3) 0.289(2) 0.5074(10)
C3 C 0.8401(2) 0.09200(17) 0.56454(9)
H2 H 0.6951 0.0698 0.5417
C4 C 0.9572(2) -0.00790(17) 0.61792(9)
H3 H 0.8929 -0.0987 0.6324
C5 C 1.1703(2) 0.02306(17) 0.65107(8)
C6 C 1.2576(2) 0.15665(17) 0.62754(9)
H4 H 1.4033 0.1802 0.6484
C7 C 1.1346(2) 0.25509(17) 0.57426(9)
H5 H 1.1948 0.3467 0.5586
C8 C 1.2987(3) -0.0828(2) 0.71169(11)
H6 H 1.2890 -0.0514 0.7683
H7 H 1.4489 -0.0807 0.7043
H8 H 1.2423 -0.1855 0.7021
loop_
_geom_bond_atom_site_label_1
_geom_bond_atom_site_label_2
_geom_bond_site_symmetry_1
_geom_bond_site_symmetry_2
F1 C2 1_555 1_555
F2 C2 1_555 1_555
F3 C2 1_555 1_555
O1 C1 1_555 1_555
O2 C1 1_555 1_555
C1 C2 1_555 1_555
N1 H1 1_555 1_555
C3 N1 1_555 1_555
H2 C3 1_555 1_555
C4 C3 1_555 1_555
H3 C4 1_555 1_555
C5 C4 1_555 1_555
C6 C5 1_555 1_555
H4 C6 1_555 1_555
C7 N1 1_555 1_555
H5 C7 1_555 1_555
C8 C5 1_555 1_555
H6 C8 1_555 1_555
H7 C8 1_555 1_555
H8 C8 1_555 1_555
C6 C7 1_555 1_555

#END
