
#######################################################################
#
#                 Cambridge Crystallographic Data Centre
#                                CCDC 
#
#######################################################################
#
# If this CIF has been generated from an entry in the Cambridge 
# Structural Database, then it will include bibliographic, chemical, 
# crystal, experimental, refinement or atomic coordinate data resulting 
# from the CCDC's data processing and validation procedures.
#
#######################################################################

data_KUTCIM
_chemical_formula_moiety         'C23 H18 F1 N3 O2'
_chemical_name_systematic        
5-Fluoro-N'-[(E)-4-methoxybenzylidene]-3-phenyl-1H-indole-2-carbohydrazide
_symmetry_cell_setting           monoclinic
_symmetry_space_group_name_H-M   'P 21/c'
_symmetry_Int_Tables_number      14
_space_group_name_Hall           '-P 2ybc'
loop_
_symmetry_equiv_pos_site_id
_symmetry_equiv_pos_as_xyz
1 x,y,z
2 -x,1/2+y,1/2-z
3 -x,-y,-z
4 x,1/2-y,1/2+z
_cell_length_a                   19.5709(11)
_cell_length_b                   5.1546(2)
_cell_length_c                   24.3584(14)
_cell_angle_alpha                90
_cell_angle_beta                 127.686(3)
_cell_angle_gamma                90
_cell_volume                     1944.62
_exptl_crystal_colour            colorless
_exptl_crystal_description       plate
_cell_formula_units_Z            4
loop_
_atom_site_label
_atom_site_type_symbol
_atom_site_fract_x
_atom_site_fract_y
_atom_site_fract_z
F1 F 0.96473(6) 0.3955(3) 0.67120(6)
O1 O 0.46022(6) 0.08712(18) 0.41796(5)
O2 O -0.00747(7) 0.7292(3) 0.05087(6)
N1 N 0.62743(7) 0.1715(2) 0.53758(5)
N2 N 0.45250(7) 0.5105(2) 0.38898(6)
N3 N 0.36665(7) 0.4917(2) 0.33221(6)
C1 C 0.71455(9) 0.2113(3) 0.57970(7)
C2 C 0.77885(11) 0.0917(3) 0.64212(8)
C3 C 0.86269(11) 0.1589(4) 0.67208(8)
C4 C 0.87981(9) 0.3381(4) 0.63954(8)
C5 C 0.81907(9) 0.4567(3) 0.57871(7)
C6 C 0.73246(8) 0.3953(3) 0.54742(6)
C7 C 0.65172(8) 0.4668(2) 0.48304(6)
C8 C 0.58921(8) 0.3256(2) 0.47996(6)
C9 C 0.64238(8) 0.6238(2) 0.42835(6)
C10 C 0.69245(9) 0.8454(2) 0.44513(8)
C11 C 0.68968(10) 0.9792(3) 0.39482(10)
C12 C 0.63650(11) 0.8975(3) 0.32699(10)
C13 C 0.58566(10) 0.6816(3) 0.30908(8)
C14 C 0.58882(8) 0.5452(3) 0.35932(7)
C15 C 0.49563(8) 0.2983(3) 0.42673(6)
C16 C 0.33397(9) 0.6934(3) 0.29425(7)
C17 C 0.24446(8) 0.6999(3) 0.23225(7)
C18 C 0.21612(10) 0.8892(3) 0.18233(9)
C19 C 0.13225(11) 0.8934(3) 0.12238(9)
C20 C 0.07431(9) 0.7099(3) 0.11180(8)
C21 C 0.10054(10) 0.5219(3) 0.16103(8)
C22 C 0.18461(9) 0.5177(3) 0.22030(8)
C23 C -0.06706(11) 0.5297(4) 0.03519(11)
H1 H 0.60070 0.06620 0.54590
H2 H 0.76550 -0.02890 0.66270
H3 H 0.47840 0.65790 0.40020
H4 H 0.90770 0.08460 0.71400
H5 H 0.83390 0.57360 0.55850
H6 H 0.72810 0.90370 0.49080
H7 H 0.72400 1.12550 0.40680
H8 H 0.63490 0.98820 0.29320
H9 H 0.54910 0.62740 0.26310
H10 H 0.55460 0.39840 0.34680
H11 H 0.36820 0.84010 0.30650
H12 H 0.25450 1.01630 0.18940
H13 H 0.11480 1.02040 0.08910
H14 H 0.06150 0.39790 0.15420
H15 H 0.20180 0.38940 0.25320
H16 H -0.04400 0.36500 0.03540
H17 H -0.12070 0.56020 -0.00980
H18 H -0.07670 0.52920 0.06940
loop_
_geom_bond_atom_site_label_1
_geom_bond_atom_site_label_2
_geom_bond_site_symmetry_1
_geom_bond_site_symmetry_2
F1 C4 1_555 1_555
O1 C15 1_555 1_555
O2 C20 1_555 1_555
N1 C1 1_555 1_555
N2 N3 1_555 1_555
N3 C16 1_555 1_555
C1 C2 1_555 1_555
C2 C3 1_555 1_555
C3 C4 1_555 1_555
C4 C5 1_555 1_555
C5 C6 1_555 1_555
C6 C1 1_555 1_555
C7 C6 1_555 1_555
C8 N1 1_555 1_555
C9 C7 1_555 1_555
C10 C9 1_555 1_555
C11 C10 1_555 1_555
C12 C11 1_555 1_555
C13 C12 1_555 1_555
C14 C9 1_555 1_555
C15 N2 1_555 1_555
C16 C17 1_555 1_555
C17 C18 1_555 1_555
C18 C19 1_555 1_555
C19 C20 1_555 1_555
C20 C21 1_555 1_555
C21 C22 1_555 1_555
C22 C17 1_555 1_555
C23 O2 1_555 1_555
H1 N1 1_555 1_555
H2 C2 1_555 1_555
H3 N2 1_555 1_555
H4 C3 1_555 1_555
H5 C5 1_555 1_555
H6 C10 1_555 1_555
H7 C11 1_555 1_555
H8 C12 1_555 1_555
H9 C13 1_555 1_555
H10 C14 1_555 1_555
H11 C16 1_555 1_555
H12 C18 1_555 1_555
H13 C19 1_555 1_555
H14 C21 1_555 1_555
H15 C22 1_555 1_555
H16 C23 1_555 1_555
H17 C23 1_555 1_555
H18 C23 1_555 1_555
C7 C8 1_555 1_555
C8 C15 1_555 1_555
C13 C14 1_555 1_555

#END
