
#######################################################################
#
#                 Cambridge Crystallographic Data Centre
#                                CCDC 
#
#######################################################################
#
# If this CIF has been generated from an entry in the Cambridge 
# Structural Database, then it will include bibliographic, chemical, 
# crystal, experimental, refinement or atomic coordinate data resulting 
# from the CCDC's data processing and validation procedures.
#
#######################################################################

data_KUTHIR
_chemical_compound_source        
'dried fruits of Brucea javanica (L.) Merr. Simaroubaceae'
_chemical_name_common            
'Methyl 3,11,12-trihydroxy-15-((3-methylbutanoyl)oxy)-2,16-dioxo-13,20-epoxypicras-3-en-21-oate'
_chemical_formula_moiety         'C26 H34 O11'
_chemical_name_systematic        'Bruceine A'
_chemical_properties_biological  
'shown to exhibit insecticidal, antifeedant and growth inhibitory effects; also may exhibit a wide spectrum of additional potential properties such as antibabesial, antitrypanosomal, antimalarial activity and cytotoxicity'
_symmetry_cell_setting           orthorhombic
_symmetry_space_group_name_H-M   'P 21 21 21'
_symmetry_Int_Tables_number      19
_space_group_name_Hall           'P 2ac 2ab'
loop_
_symmetry_equiv_pos_site_id
_symmetry_equiv_pos_as_xyz
1 x,y,z
2 1/2-x,-y,1/2+z
3 1/2+x,1/2-y,-z
4 -x,1/2+y,1/2-z
_cell_length_a                   9.0337(12)
_cell_length_b                   10.167(3)
_cell_length_c                   26.9122(11)
_cell_angle_alpha                90
_cell_angle_beta                 90
_cell_angle_gamma                90
_cell_volume                     2471.77
_exptl_crystal_colour            colorless
_exptl_crystal_description       plate
_cell_formula_units_Z            4
_exptl_crystal_recrystallization_method acetone
loop_
_atom_site_label
_atom_site_type_symbol
_atom_site_fract_x
_atom_site_fract_y
_atom_site_fract_z
O1 O 0.7087(2) 0.7346(2) 0.58066(7)
O2 O 0.4645(2) 0.6705(2) 0.63450(7)
H1 H 0.5479 0.6962 0.6444
O3 O 0.1686(2) 0.4600(2) 0.42513(6)
O4 O 0.0274(2) 0.5360(2) 0.36490(7)
O5 O 0.5773(2) 0.64791(18) 0.32956(6)
H2 H 0.5610 0.6436 0.2989
O6 O 0.7799(2) 0.4626(2) 0.42098(7)
H3 H 0.8595 0.4779 0.4060
O7 O 0.6075(2) 0.29438(18) 0.35876(6)
O8 O 0.2473(2) 0.51955(19) 0.29566(6)
O9 O 0.1862(2) 0.73521(19) 0.29790(7)
O10 O 0.4926(2) 0.26506(19) 0.26475(6)
O11 O 0.5696(2) 0.47209(19) 0.24965(6)
C1 C 0.6047(4) 0.6833(3) 0.55833(10)
C2 C 0.4716(3) 0.6417(3) 0.58506(10)
C3 C 0.3604(3) 0.5767(3) 0.56249(10)
C4 C 0.3724(3) 0.5357(3) 0.50844(9)
H4 H 0.3181 0.6035 0.4886
C5 C 0.5338(3) 0.5333(3) 0.48864(9)
C6 C 0.6068(3) 0.6646(3) 0.50295(9)
H5 H 0.7104 0.6658 0.4909
H6 H 0.5532 0.7380 0.4868
C7 C 0.2220(3) 0.5461(3) 0.59057(10)
H7 H 0.2139 0.6051 0.6192
H8 H 0.2251 0.4547 0.6021
H9 H 0.1362 0.5585 0.5688
C8 C 0.6234(3) 0.4226(3) 0.51357(10)
H10 H 0.6182 0.4324 0.5498
H11 H 0.7269 0.4278 0.5028
H12 H 0.5821 0.3371 0.5040
C9 C 0.2980(3) 0.4027(3) 0.49735(9)
H13 H 0.3539 0.3314 0.5139
H14 H 0.1961 0.4029 0.5108
C10 C 0.2930(3) 0.3772(3) 0.44191(9)
H15 H 0.2640 0.2832 0.4369
C11 C 0.4358(3) 0.4013(3) 0.41255(9)
C12 C 0.5213(3) 0.5248(3) 0.43077(8)
H16 H 0.4572 0.6009 0.4212
C13 C 0.1512(3) 0.5072(3) 0.37875(10)
C14 C 0.2882(3) 0.5266(3) 0.34730(9)
H17 H 0.3358 0.6131 0.3549
C15 C 0.3934(3) 0.4154(3) 0.35733(9)
H18 H 0.3408 0.3326 0.3478
C16 C 0.5477(3) 0.4080(3) 0.33405(9)
C17 C 0.6442(3) 0.5287(3) 0.34586(9)
H19 H 0.7428 0.5185 0.3294
C18 C 0.6665(3) 0.5457(3) 0.40194(9)
H20 H 0.6984 0.6387 0.4077
C19 C 0.5370(3) 0.2805(3) 0.40671(9)
H21 H 0.6121 0.2782 0.4335
H22 H 0.4783 0.1983 0.4080
C20 C 0.1948(3) 0.6338(3) 0.27507(10)
C21 C 0.1545(3) 0.6143(3) 0.22154(10)
H23 H 0.1314 0.5203 0.2158
H24 H 0.2403 0.6377 0.2004
C22 C 0.0221(3) 0.6972(3) 0.20635(10)
H25 H 0.0442 0.7913 0.2143
C23 C -0.1148(4) 0.6563(5) 0.23499(13)
H26 H -0.0980 0.6696 0.2706
H27 H -0.1356 0.5632 0.2286
H28 H -0.1992 0.7097 0.2242
C24 C -0.0041(4) 0.6853(3) 0.15038(10)
H29 H 0.0846 0.7142 0.1325
H30 H -0.0882 0.7407 0.1408
H31 H -0.0255 0.5935 0.1420
C25 C 0.5346(3) 0.3717(3) 0.27880(9)
C26 C 0.5432(4) 0.4542(3) 0.19654(9)
H32 H 0.5425 0.5402 0.1800
H33 H 0.4474 0.4109 0.1916
H34 H 0.6220 0.3996 0.1823
loop_
_geom_bond_atom_site_label_1
_geom_bond_atom_site_label_2
_geom_bond_site_symmetry_1
_geom_bond_site_symmetry_2
O1 C1 1_555 1_555
O2 H1 1_555 1_555
O3 C10 1_555 1_555
O4 C13 1_555 1_555
O5 H2 1_555 1_555
O6 H3 1_555 1_555
O7 C16 1_555 1_555
O8 C14 1_555 1_555
O9 C20 1_555 1_555
O10 C25 1_555 1_555
O11 C25 1_555 1_555
C1 C2 1_555 1_555
C2 O2 1_555 1_555
C3 C2 1_555 1_555
C4 C3 1_555 1_555
H4 C4 1_555 1_555
C5 C4 1_555 1_555
C6 C1 1_555 1_555
H5 C6 1_555 1_555
H6 C6 1_555 1_555
C7 C3 1_555 1_555
H7 C7 1_555 1_555
H8 C7 1_555 1_555
H9 C7 1_555 1_555
C8 C5 1_555 1_555
H10 C8 1_555 1_555
H11 C8 1_555 1_555
H12 C8 1_555 1_555
C9 C4 1_555 1_555
H13 C9 1_555 1_555
H14 C9 1_555 1_555
C10 C9 1_555 1_555
H15 C10 1_555 1_555
C11 C10 1_555 1_555
C12 C5 1_555 1_555
H16 C12 1_555 1_555
C13 O3 1_555 1_555
C14 C13 1_555 1_555
H17 C14 1_555 1_555
C15 C11 1_555 1_555
H18 C15 1_555 1_555
C16 C15 1_555 1_555
C17 O5 1_555 1_555
H19 C17 1_555 1_555
C18 O6 1_555 1_555
H20 C18 1_555 1_555
C19 O7 1_555 1_555
H21 C19 1_555 1_555
H22 C19 1_555 1_555
C20 O8 1_555 1_555
C21 C20 1_555 1_555
H23 C21 1_555 1_555
H24 C21 1_555 1_555
C22 C21 1_555 1_555
H25 C22 1_555 1_555
C23 C22 1_555 1_555
H26 C23 1_555 1_555
H27 C23 1_555 1_555
H28 C23 1_555 1_555
C24 C22 1_555 1_555
H29 C24 1_555 1_555
H30 C24 1_555 1_555
H31 C24 1_555 1_555
C25 C16 1_555 1_555
C26 O11 1_555 1_555
H32 C26 1_555 1_555
H33 C26 1_555 1_555
H34 C26 1_555 1_555
C5 C6 1_555 1_555
C11 C12 1_555 1_555
C11 C19 1_555 1_555
C12 C18 1_555 1_555
C14 C15 1_555 1_555
C16 C17 1_555 1_555
C17 C18 1_555 1_555

#END
