
#######################################################################
#
#                 Cambridge Crystallographic Data Centre
#                                CCDC 
#
#######################################################################
#
# If this CIF has been generated from an entry in the Cambridge 
# Structural Database, then it will include bibliographic, chemical, 
# crystal, experimental, refinement or atomic coordinate data resulting 
# from the CCDC's data processing and validation procedures.
#
#######################################################################

data_KUTKAM01
_chemical_formula_moiety         'C23 H31 O2 P1'
_chemical_name_systematic        
'(S~P~)-2-isopropyl-5-methylcyclohexyl benzyl(phenyl)phosphinate'
_symmetry_cell_setting           orthorhombic
_symmetry_space_group_name_H-M   'P 21 21 21'
_symmetry_Int_Tables_number      19
_space_group_name_Hall           'P 2ac 2ab'
loop_
_symmetry_equiv_pos_site_id
_symmetry_equiv_pos_as_xyz
1 x,y,z
2 1/2-x,-y,1/2+z
3 -x,1/2+y,1/2-z
4 1/2+x,1/2-y,-z
_cell_length_a                   5.7278(6)
_cell_length_b                   17.5633(19)
_cell_length_c                   21.791(2)
_cell_angle_alpha                90
_cell_angle_beta                 90
_cell_angle_gamma                90
_cell_volume                     2192.15
_exptl_crystal_colour            white
_exptl_crystal_description       block
_cell_formula_units_Z            4
loop_
_atom_site_label
_atom_site_type_symbol
_atom_site_fract_x
_atom_site_fract_y
_atom_site_fract_z
P1 P 0.5101(2) 0.88212(6) 0.03209(5)
O1 O 0.5819(5) 0.96954(14) 0.02642(14)
O2 O 0.2609(5) 0.86655(15) 0.01950(15)
C1 C 0.2426(13) 1.1072(3) -0.0743(2)
H1 H 0.0853 1.0870 -0.0675
C2 C 0.4183(10) 1.0466(3) -0.0547(2)
H2 H 0.3907 1.0007 -0.0783
H3 H 0.5745 1.0644 -0.0641
C3 C 0.4058(9) 1.0276(2) 0.0120(2)
H4 H 0.2504 1.0073 0.0213
C4 C 0.4509(9) 1.0976(2) 0.0523(2)
H5 H 0.6029 1.1182 0.0401
C5 C 0.2673(11) 1.1570(3) 0.0346(3)
H6 H 0.1134 1.1374 0.0443
H7 H 0.2918 1.2027 0.0587
C6 C 0.2758(13) 1.1771(3) -0.0322(3)
H8 H 0.4252 1.2006 -0.0412
H9 H 0.1546 1.2141 -0.0410
C7 C 0.2651(18) 1.1275(4) -0.1411(3)
H10 H 0.4122 1.1523 -0.1479
H11 H 0.1404 1.1611 -0.1525
H12 H 0.2571 1.0820 -0.1654
C8 C 0.4665(12) 1.0799(3) 0.1213(2)
H13 H 0.5899 1.0418 0.1264
C9 C 0.5430(15) 1.1508(3) 0.1573(2)
H14 H 0.4128 1.1847 0.1617
H15 H 0.6663 1.1761 0.1355
H16 H 0.5979 1.1358 0.1971
C10 C 0.2474(16) 1.0463(4) 0.1478(3)
H17 H 0.2657 1.0400 0.1913
H18 H 0.2183 0.9976 0.1293
H19 H 0.1183 1.0797 0.1398
C11 C 0.5917(9) 0.8564(2) 0.1089(2)
C12 C 0.7992(10) 0.8805(3) 0.1354(3)
H20 H 0.9034 0.9097 0.1126
C13 C 0.8522(12) 0.8617(4) 0.1950(3)
H21 H 0.9907 0.8787 0.2126
C14 C 0.7011(14) 0.8179(4) 0.2286(3)
H22 H 0.7367 0.8054 0.2690
C15 C 0.4973(15) 0.7924(3) 0.2026(3)
H23 H 0.3963 0.7617 0.2251
C16 C 0.4425(10) 0.8121(3) 0.1434(2)
H24 H 0.3029 0.7953 0.1263
C17 C 0.7100(9) 0.8351(2) -0.0192(2)
H25 H 0.8685 0.8432 -0.0049
H26 H 0.6797 0.7808 -0.0186
C18 C 0.6881(9) 0.8640(3) -0.0837(2)
C19 C 0.8537(10) 0.9113(3) -0.1088(3)
H27 H 0.9852 0.9238 -0.0858
C20 C 0.8295(13) 0.9408(4) -0.1671(3)
H28 H 0.9433 0.9730 -0.1831
C21 C 0.6371(15) 0.9225(4) -0.2014(3)
H29 H 0.6183 0.9432 -0.2403
C22 C 0.4727(13) 0.8737(4) -0.1785(3)
H30 H 0.3441 0.8606 -0.2023
C23 C 0.4962(11) 0.8441(3) -0.1204(2)
H31 H 0.3842 0.8106 -0.1053
loop_
_geom_bond_atom_site_label_1
_geom_bond_atom_site_label_2
_geom_bond_site_symmetry_1
_geom_bond_site_symmetry_2
P1 O1 1_555 1_555
O1 C3 1_555 1_555
O2 P1 1_555 1_555
C1 H1 1_555 1_555
C2 C1 1_555 1_555
H2 C2 1_555 1_555
H3 C2 1_555 1_555
C3 C2 1_555 1_555
H4 C3 1_555 1_555
C4 C3 1_555 1_555
H5 C4 1_555 1_555
C5 C4 1_555 1_555
H6 C5 1_555 1_555
H7 C5 1_555 1_555
C6 C1 1_555 1_555
H8 C6 1_555 1_555
H9 C6 1_555 1_555
C7 C1 1_555 1_555
H10 C7 1_555 1_555
H11 C7 1_555 1_555
H12 C7 1_555 1_555
C8 C4 1_555 1_555
H13 C8 1_555 1_555
C9 C8 1_555 1_555
H14 C9 1_555 1_555
H15 C9 1_555 1_555
H16 C9 1_555 1_555
C10 C8 1_555 1_555
H17 C10 1_555 1_555
H18 C10 1_555 1_555
H19 C10 1_555 1_555
C11 P1 1_555 1_555
C12 C11 1_555 1_555
H20 C12 1_555 1_555
C13 C12 1_555 1_555
H21 C13 1_555 1_555
C14 C13 1_555 1_555
H22 C14 1_555 1_555
C15 C14 1_555 1_555
H23 C15 1_555 1_555
C16 C11 1_555 1_555
H24 C16 1_555 1_555
C17 P1 1_555 1_555
H25 C17 1_555 1_555
H26 C17 1_555 1_555
C18 C17 1_555 1_555
C19 C18 1_555 1_555
H27 C19 1_555 1_555
C20 C19 1_555 1_555
H28 C20 1_555 1_555
C21 C20 1_555 1_555
H29 C21 1_555 1_555
C22 C21 1_555 1_555
H30 C22 1_555 1_555
C23 C18 1_555 1_555
H31 C23 1_555 1_555
C5 C6 1_555 1_555
C15 C16 1_555 1_555
C22 C23 1_555 1_555

#END
