
#######################################################################
#
#                 Cambridge Crystallographic Data Centre
#                                CCDC 
#
#######################################################################
#
# If this CIF has been generated from an entry in the Cambridge 
# Structural Database, then it will include bibliographic, chemical, 
# crystal, experimental, refinement or atomic coordinate data resulting 
# from the CCDC's data processing and validation procedures.
#
#######################################################################

data_KUTMAO
_chemical_formula_moiety         'C13 H18 Cl1 N1 O3'
_chemical_name_systematic        
3-Chloro-N-(4-hydroxy-3-methoxybenzyl)-2,2-dimethylpropanamide
_chemical_properties_biological  'anti-proliferative activity'
_symmetry_cell_setting           monoclinic
_symmetry_space_group_name_H-M   'P 21/c'
_symmetry_Int_Tables_number      14
_space_group_name_Hall           '-P 2ybc'
loop_
_symmetry_equiv_pos_site_id
_symmetry_equiv_pos_as_xyz
1 x,y,z
2 -x,1/2+y,1/2-z
3 -x,-y,-z
4 x,1/2-y,1/2+z
_cell_length_a                   9.3074(10)
_cell_length_b                   11.5585(13)
_cell_length_c                   13.0652(14)
_cell_angle_alpha                90
_cell_angle_beta                 90.378(4)
_cell_angle_gamma                90
_cell_volume                     1405.52
_exptl_crystal_colour            colorless
_exptl_crystal_description       prism
_chemical_melting_point          '108-110 deg.C'
_cell_formula_units_Z            4
_exptl_crystal_recrystallization_method 'ethyl acetate'
loop_
_atom_site_label
_atom_site_type_symbol
_atom_site_fract_x
_atom_site_fract_y
_atom_site_fract_z
Cl1 Cl 0.85692(18) 0.09530(8) 0.35770(8)
N1 N 0.7804(2) 0.39529(17) 0.22613(15)
H1 H 0.7416 0.4356 0.2801
O1 O 0.18986(18) 0.14975(16) 0.13257(15)
H2 H 0.1120 0.1961 0.1482
O2 O 0.43484(18) 0.03920(15) 0.14718(15)
O3 O 0.95555(18) 0.27805(16) 0.17024(13)
C1 C 0.3123(2) 0.2148(2) 0.12573(18)
C2 C 0.4447(2) 0.1577(2) 0.13548(18)
C3 C 0.5709(2) 0.2199(2) 0.13426(18)
H3 H 0.6581 0.1815 0.1422
C4 C 0.5700(2) 0.3402(2) 0.12130(17)
C5 C 0.4394(3) 0.3947(2) 0.10673(19)
H4 H 0.4371 0.4741 0.0953
C6 C 0.3112(2) 0.3327(2) 0.10891(19)
H5 H 0.2243 0.3710 0.0990
C7 C 0.5646(3) -0.0248(2) 0.1367(2)
H6 H 0.6070 -0.0079 0.0715
H7 H 0.5441 -0.1061 0.1409
H8 H 0.6303 -0.0036 0.1904
C8 C 0.7093(3) 0.4073(2) 0.12661(18)
H9 H 0.7732 0.3799 0.0735
H10 H 0.6898 0.4885 0.1138
C9 C 0.8956(2) 0.32899(19) 0.24198(17)
C10 C 0.9530(2) 0.3193(2) 0.35204(17)
C11 C 1.0014(4) 0.1958(3) 0.3707(2)
H11 H 1.0419 0.1898 0.4391
H12 H 1.0761 0.1761 0.3223
C12 C 0.8444(3) 0.3548(3) 0.4336(2)
H13 H 0.7575 0.3111 0.4245
H14 H 0.8236 0.4358 0.4270
H15 H 0.8838 0.3398 0.5003
C13 C 1.0859(4) 0.3961(3) 0.3605(2)
H16 H 1.1292 0.3865 0.4268
H17 H 1.0586 0.4755 0.3513
H18 H 1.1535 0.3746 0.3086
loop_
_geom_bond_atom_site_label_1
_geom_bond_atom_site_label_2
_geom_bond_site_symmetry_1
_geom_bond_site_symmetry_2
Cl1 C11 1_555 1_555
N1 H1 1_555 1_555
O1 H2 1_555 1_555
O2 C2 1_555 1_555
O3 C9 1_555 1_555
C1 O1 1_555 1_555
C2 C1 1_555 1_555
C3 C2 1_555 1_555
H3 C3 1_555 1_555
C4 C3 1_555 1_555
C5 C4 1_555 1_555
H4 C5 1_555 1_555
C6 C1 1_555 1_555
H5 C6 1_555 1_555
C7 O2 1_555 1_555
H6 C7 1_555 1_555
H7 C7 1_555 1_555
H8 C7 1_555 1_555
C8 N1 1_555 1_555
H9 C8 1_555 1_555
H10 C8 1_555 1_555
C9 N1 1_555 1_555
C10 C9 1_555 1_555
C11 C10 1_555 1_555
H11 C11 1_555 1_555
H12 C11 1_555 1_555
C12 C10 1_555 1_555
H13 C12 1_555 1_555
H14 C12 1_555 1_555
H15 C12 1_555 1_555
C13 C10 1_555 1_555
H16 C13 1_555 1_555
H17 C13 1_555 1_555
H18 C13 1_555 1_555
C4 C8 1_555 1_555
C5 C6 1_555 1_555

#END
