
#######################################################################
#
#                 Cambridge Crystallographic Data Centre
#                                CCDC 
#
#######################################################################
#
# If this CIF has been generated from an entry in the Cambridge 
# Structural Database, then it will include bibliographic, chemical, 
# crystal, experimental, refinement or atomic coordinate data resulting 
# from the CCDC's data processing and validation procedures.
#
#######################################################################

data_KUTPOF
_chemical_formula_moiety         'C14 H13 N3 O3'
_chemical_name_systematic        
N'-(2-Hydroxy-4-methoxybenzylidene)isonicotinohydrazide
_symmetry_cell_setting           monoclinic
_symmetry_space_group_name_H-M   'P 21/n'
_symmetry_Int_Tables_number      14
_space_group_name_Hall           '-P 2yn'
loop_
_symmetry_equiv_pos_site_id
_symmetry_equiv_pos_as_xyz
1 x,y,z
2 1/2-x,1/2+y,1/2-z
3 -x,-y,-z
4 1/2+x,1/2-y,1/2+z
_cell_length_a                   8.4704(11)
_cell_length_b                   10.6866(15)
_cell_length_c                   14.848(2)
_cell_angle_alpha                90
_cell_angle_beta                 104.929(5)
_cell_angle_gamma                90
_cell_volume                     1298.67
_exptl_crystal_colour            colorless
_exptl_crystal_description       block
_cell_formula_units_Z            4
loop_
_atom_site_label
_atom_site_type_symbol
_atom_site_fract_x
_atom_site_fract_y
_atom_site_fract_z
N1 N 0.10385(14) 0.87232(11) 0.12848(8)
N2 N 0.01859(14) 0.78408(11) 0.16392(8)
N3 N -0.26459(16) 0.40486(11) 0.24523(9)
O1 O 0.28189(15) 0.93517(9) 0.01927(8)
H1 H 0.2284 0.8881 0.0436
O2 O 0.12526(15) 0.62775(10) 0.09488(9)
O3 O 0.40498(14) 1.36738(9) 0.00218(8)
C1 C 0.17894(16) 1.08276(12) 0.11284(10)
C2 C 0.26792(16) 1.05413(12) 0.04800(9)
C3 C 0.34625(17) 1.14692(12) 0.01077(10)
H2 H 0.4072 1.1263 -0.0310
C4 C 0.33345(17) 1.27035(12) 0.03599(10)
C5 C 0.24469(19) 1.30187(14) 0.09935(12)
H3 H 0.2356 1.3850 0.1159
C6 C 0.17066(19) 1.20882(14) 0.13711(11)
H4 H 0.1129 1.2301 0.1803
C7 C 0.09706(17) 0.98671(13) 0.15257(10)
H5 H 0.0393 1.0082 0.1958
C8 C 0.03539(16) 0.66264(13) 0.14180(9)
C9 C -0.06727(16) 0.57305(12) 0.17959(9)
C10 C -0.12509(18) 0.46540(13) 0.13050(10)
H6 H -0.0990 0.4472 0.0748
C11 C -0.22227(19) 0.38542(14) 0.16569(11)
H7 H -0.2607 0.3135 0.1319
C12 C -0.20463(18) 0.50811(13) 0.29267(10)
H8 H -0.2304 0.5231 0.3489
C13 C -0.10710(17) 0.59344(12) 0.26321(9)
H9 H -0.0684 0.6638 0.2989
C14 C 0.4899(2) 1.34231(15) -0.06713(12)
H10 H 0.5817 1.2890 -0.0415
H11 H 0.5276 1.4196 -0.0873
H12 H 0.4177 1.3015 -0.1193
H13 H -0.0540(19) 0.8096(18) 0.1945(12)
loop_
_geom_bond_atom_site_label_1
_geom_bond_atom_site_label_2
_geom_bond_site_symmetry_1
_geom_bond_site_symmetry_2
N1 N2 1_555 1_555
N2 C8 1_555 1_555
N3 C11 1_555 1_555
O1 H1 1_555 1_555
O2 C8 1_555 1_555
O3 C4 1_555 1_555
C1 C2 1_555 1_555
C2 O1 1_555 1_555
C3 C2 1_555 1_555
H2 C3 1_555 1_555
C4 C3 1_555 1_555
C5 C4 1_555 1_555
H3 C5 1_555 1_555
C6 C1 1_555 1_555
H4 C6 1_555 1_555
C7 N1 1_555 1_555
H5 C7 1_555 1_555
C8 C9 1_555 1_555
C9 C10 1_555 1_555
C10 H6 1_555 1_555
C11 C10 1_555 1_555
H7 C11 1_555 1_555
C12 N3 1_555 1_555
H8 C12 1_555 1_555
C13 C9 1_555 1_555
H9 C13 1_555 1_555
C14 O3 1_555 1_555
H10 C14 1_555 1_555
H11 C14 1_555 1_555
H12 C14 1_555 1_555
H13 N2 1_555 1_555
C1 C7 1_555 1_555
C5 C6 1_555 1_555
C12 C13 1_555 1_555

#END
