
#######################################################################
#
#                 Cambridge Crystallographic Data Centre
#                                CCDC 
#
#######################################################################
#
# If this CIF has been generated from an entry in the Cambridge 
# Structural Database, then it will include bibliographic, chemical, 
# crystal, experimental, refinement or atomic coordinate data resulting 
# from the CCDC's data processing and validation procedures.
#
#######################################################################

data_KUTPOG
_chemical_formula_moiety         'C24 H30 N1 O3 1+,C7 H7 O3 S1 1-'
_chemical_name_systematic        
'1-benzyl-4-((5,6-dimethoxy-1-oxo-2,3-dihydro-1H-inden-2-yl)methyl)piperidinium 4-methylbenzenesulfonate'
_symmetry_cell_setting           monoclinic
_symmetry_space_group_name_H-M   'P 21/n'
_symmetry_Int_Tables_number      14
_space_group_name_Hall           '-P 2yn'
loop_
_symmetry_equiv_pos_site_id
_symmetry_equiv_pos_as_xyz
1 x,y,z
2 1/2-x,1/2+y,1/2-z
3 -x,-y,-z
4 1/2+x,1/2-y,1/2+z
_cell_length_a                   8.4004(13)
_cell_length_b                   12.2217(18)
_cell_length_c                   27.844(4)
_cell_angle_alpha                90
_cell_angle_beta                 92.110(3)
_cell_angle_gamma                90
_cell_volume                     2856.73
_exptl_crystal_colour            colorless
_exptl_crystal_description       block
_cell_formula_units_Z            4
loop_
_atom_site_label
_atom_site_type_symbol
_atom_site_fract_x
_atom_site_fract_y
_atom_site_fract_z
S1 S 0.40362(9) 0.78684(7) 0.21946(3)
O1 O 0.5012(2) 0.68982(17) 0.22816(8)
O2 O 0.4975(3) 0.87458(19) 0.19957(9)
O3 O 0.2575(2) 0.76413(19) 0.19247(8)
C1 C 0.3477(3) 0.8320(2) 0.27660(12)
C2 C 0.3698(3) 0.7674(3) 0.31700(14)
H1 H 0.4150 0.6984 0.3141
C3 C 0.3267(4) 0.8029(3) 0.36128(15)
H2 H 0.3448 0.7582 0.3879
C4 C 0.2565(4) 0.9044(3) 0.36709(15)
C5 C 0.2317(4) 0.9682(3) 0.32659(17)
H3 H 0.1829 1.0360 0.3295
C6 C 0.2770(4) 0.9343(3) 0.28193(15)
H4 H 0.2605 0.9796 0.2554
C7 C 0.2122(5) 0.9426(4) 0.41606(16)
H5 H 0.3068 0.9629 0.4343
H6 H 0.1589 0.8846 0.4323
H7 H 0.1426 1.0047 0.4129
N1 N 0.8227(3) 0.75300(18) 0.22165(9)
H8 H 0.703(4) 0.745(3) 0.2203(11)
C8 C 0.8969(3) 0.6545(2) 0.24476(11)
H9 H 1.0120 0.6608 0.2444
H10 H 0.8657 0.5898 0.2266
C9 C 0.8466(3) 0.6419(2) 0.29606(10)
H11 H 0.8991 0.5784 0.3103
H12 H 0.7326 0.6295 0.2962
C10 C 0.8878(3) 0.7426(2) 0.32645(11)
H13 H 1.0040 0.7505 0.3278
C11 C 0.8175(4) 0.8436(2) 0.30159(12)
H14 H 0.7023 0.8405 0.3025
H15 H 0.8529 0.9083 0.3191
C12 C 0.8646(4) 0.8535(2) 0.25024(12)
H16 H 0.8112 0.9162 0.2356
H17 H 0.9785 0.8659 0.2494
C13 C 0.8703(3) 0.7692(3) 0.17046(11)
H18 H 0.8308 0.8398 0.1594
H19 H 0.9856 0.7714 0.1700
C14 C 0.8110(3) 0.6830(3) 0.13574(11)
C15 C 0.6680(4) 0.6971(3) 0.11009(12)
H20 H 0.6045 0.7575 0.1163
C16 C 0.6191(4) 0.6230(3) 0.07560(14)
H21 H 0.5244 0.6344 0.0580
C17 C 0.7101(5) 0.5315(3) 0.06698(13)
H22 H 0.6764 0.4807 0.0439
C18 C 0.8499(5) 0.5161(3) 0.09260(13)
H23 H 0.9104 0.4538 0.0874
C19 C 0.9019(4) 0.5920(3) 0.12599(12)
H24 H 0.9995 0.5820 0.1422
C20 C 0.8325(4) 0.7371(2) 0.37794(11)
H25 H 0.8615 0.8053 0.3938
H26 H 0.7171 0.7326 0.3768
C21 C 0.8971(4) 0.6436(2) 0.40869(11)
H27 H 1.0095 0.6329 0.4017
C22 C 0.8103(4) 0.5332(2) 0.40232(11)
H28 H 0.7157 0.5413 0.3816
H29 H 0.8796 0.4793 0.3884
C23 C 0.7667(4) 0.4994(2) 0.45179(11)
C24 C 0.6831(4) 0.4068(2) 0.46528(11)
H30 H 0.6519 0.3545 0.4426
C25 C 0.6474(4) 0.3938(2) 0.51252(11)
C26 C 0.6955(4) 0.4720(3) 0.54757(11)
C27 C 0.7792(4) 0.5623(3) 0.53415(11)
H31 H 0.8134 0.6138 0.5569
C28 C 0.8122(4) 0.5758(2) 0.48590(11)
C29 C 0.8855(4) 0.6694(3) 0.46246(12)
O4 O 0.5629(3) 0.30742(18) 0.52991(8)
C30 C 0.5090(5) 0.2254(3) 0.49658(13)
H32 H 0.4515 0.1700 0.5132
H33 H 0.5990 0.1928 0.4818
H34 H 0.4402 0.2580 0.4723
O5 O 0.6506(3) 0.44864(18) 0.59296(8)
C31 C 0.6892(5) 0.5273(3) 0.62929(12)
H35 H 0.6540 0.5014 0.6597
H36 H 0.6371 0.5953 0.6215
H37 H 0.8024 0.5383 0.6312
O6 O 0.9259(4) 0.7559(2) 0.48121(9)
loop_
_geom_bond_atom_site_label_1
_geom_bond_atom_site_label_2
_geom_bond_site_symmetry_1
_geom_bond_site_symmetry_2
S1 O1 1_555 1_555
O2 S1 1_555 1_555
O3 S1 1_555 1_555
C1 S1 1_555 1_555
C2 C1 1_555 1_555
H1 C2 1_555 1_555
C3 C2 1_555 1_555
H2 C3 1_555 1_555
C4 C3 1_555 1_555
C5 C4 1_555 1_555
H3 C5 1_555 1_555
C6 C1 1_555 1_555
H4 C6 1_555 1_555
C7 C4 1_555 1_555
H5 C7 1_555 1_555
H6 C7 1_555 1_555
H7 C7 1_555 1_555
N1 H8 1_555 1_555
C8 N1 1_555 1_555
H9 C8 1_555 1_555
H10 C8 1_555 1_555
C9 C8 1_555 1_555
H11 C9 1_555 1_555
H12 C9 1_555 1_555
C10 C9 1_555 1_555
H13 C10 1_555 1_555
C11 C10 1_555 1_555
H14 C11 1_555 1_555
H15 C11 1_555 1_555
C12 N1 1_555 1_555
H16 C12 1_555 1_555
H17 C12 1_555 1_555
C13 N1 1_555 1_555
H18 C13 1_555 1_555
H19 C13 1_555 1_555
C14 C13 1_555 1_555
C15 C14 1_555 1_555
H20 C15 1_555 1_555
C16 C15 1_555 1_555
H21 C16 1_555 1_555
C17 C16 1_555 1_555
H22 C17 1_555 1_555
C18 C17 1_555 1_555
H23 C18 1_555 1_555
C19 C14 1_555 1_555
H24 C19 1_555 1_555
C20 C10 1_555 1_555
H25 C20 1_555 1_555
H26 C20 1_555 1_555
C21 C20 1_555 1_555
H27 C21 1_555 1_555
C22 C21 1_555 1_555
H28 C22 1_555 1_555
H29 C22 1_555 1_555
C23 C22 1_555 1_555
C24 C23 1_555 1_555
H30 C24 1_555 1_555
C25 C24 1_555 1_555
C26 C25 1_555 1_555
C27 C26 1_555 1_555
H31 C27 1_555 1_555
C28 C23 1_555 1_555
C29 C21 1_555 1_555
O4 C25 1_555 1_555
C30 O4 1_555 1_555
H32 C30 1_555 1_555
H33 C30 1_555 1_555
H34 C30 1_555 1_555
O5 C26 1_555 1_555
C31 O5 1_555 1_555
H35 C31 1_555 1_555
H36 C31 1_555 1_555
H37 C31 1_555 1_555
O6 C29 1_555 1_555
C5 C6 1_555 1_555
C11 C12 1_555 1_555
C18 C19 1_555 1_555
C27 C28 1_555 1_555
C28 C29 1_555 1_555

#END
