
#######################################################################
#
#                 Cambridge Crystallographic Data Centre
#                                CCDC 
#
#######################################################################
#
# If this CIF has been generated from an entry in the Cambridge 
# Structural Database, then it will include bibliographic, chemical, 
# crystal, experimental, refinement or atomic coordinate data resulting 
# from the CCDC's data processing and validation procedures.
#
#######################################################################

data_KUTPUL
_chemical_formula_moiety         'C25 H25 N1 O4'
_chemical_name_systematic        
'Methyl 3-(4-methoxyphenyl)-1-methyl-1,2,3,3a,4,11c-hexahydrobenzo[f]chromeno[4,3-b]pyrrole-3a-carboxylate'
_symmetry_cell_setting           triclinic
_symmetry_space_group_name_H-M   'P -1'
_symmetry_Int_Tables_number      2
_space_group_name_Hall           '-P 1'
loop_
_symmetry_equiv_pos_site_id
_symmetry_equiv_pos_as_xyz
1 x,y,z
2 -x,-y,-z
_cell_length_a                   7.9287(5)
_cell_length_b                   10.8707(6)
_cell_length_c                   11.6884(7)
_cell_angle_alpha                95.662(3)
_cell_angle_beta                 92.332(4)
_cell_angle_gamma                91.797(4)
_cell_volume                     1001.05
_exptl_crystal_colour            colorless
_exptl_crystal_description       block
_cell_formula_units_Z            2
_exptl_crystal_recrystallization_method methanol
loop_
_atom_site_label
_atom_site_type_symbol
_atom_site_fract_x
_atom_site_fract_y
_atom_site_fract_z
C1 C 0.28588(16) 0.64583(12) 0.75782(11)
C2 C 0.3939(2) 0.54431(14) 0.75627(13)
H1 H 0.4605 0.5336 0.8216
C3 C 0.4023(2) 0.46191(16) 0.66078(15)
H2 H 0.4730 0.3954 0.6628
C4 C 0.3065(3) 0.47564(17) 0.56016(15)
H3 H 0.3152 0.4200 0.4951
C5 C 0.2008(2) 0.57083(16) 0.55850(14)
H4 H 0.1366 0.5797 0.4917
C6 C 0.18576(18) 0.65693(13) 0.65573(12)
C7 C 0.0693(2) 0.75203(15) 0.65447(13)
H5 H 0.0030 0.7590 0.5881
C8 C 0.05266(19) 0.83293(15) 0.74783(13)
H6 H -0.0254 0.8948 0.7458
C9 C 0.15365(17) 0.82395(13) 0.84889(12)
C10 C 0.27031(16) 0.73371(12) 0.85626(11)
C11 C 0.36725(15) 0.72609(11) 0.96946(11)
H7 H 0.3837 0.6393 0.9817
C12 C 0.57832(17) 0.81208(16) 1.10401(12)
H8 H 0.6351 0.8921 1.1238
H9 H 0.6540 0.7484 1.1240
C13 C 0.41479(16) 0.80366(13) 1.16870(11)
H10 H 0.4151 0.7246 1.2024
C14 C 0.27455(15) 0.79025(12) 1.07047(11)
C15 C 0.22197(17) 0.91646(12) 1.03958(12)
H11 H 0.1609 0.9565 1.1023
H12 H 0.3224 0.9673 1.0304
C16 C 0.12443(17) 0.71790(14) 1.10765(12)
C17 C 0.0270(3) 0.52672(19) 1.1624(2)
H13 H 0.0029 0.5627 1.2381
H14 H 0.0641 0.4440 1.1666
H15 H -0.0732 0.5248 1.1132
C18 C 0.66502(17) 0.73843(15) 0.91570(13)
H16 H 0.7666 0.7891 0.9293
H17 H 0.6331 0.7310 0.8351
H18 H 0.6842 0.6578 0.9396
C19 C 0.38660(16) 0.90191(13) 1.26574(11)
C20 C 0.43808(19) 1.02529(14) 1.26490(12)
H19 H 0.4962 1.0494 1.2028
C21 C 0.4050(2) 1.11255(14) 1.35383(13)
H20 H 0.4418 1.1943 1.3516
C22 C 0.31722(18) 1.07914(14) 1.44666(12)
C23 C 0.26739(18) 0.95725(15) 1.45086(12)
H21 H 0.2102 0.9334 1.5135
C24 C 0.30326(18) 0.87017(14) 1.36077(12)
H22 H 0.2701 0.7879 1.3645
C25 C 0.1930(2) 1.1439(2) 1.62332(14)
H23 H 0.0839 1.1100 1.5958
H24 H 0.1796 1.2175 1.6741
H25 H 0.2513 1.0843 1.6641
N1 N 0.53080(13) 0.79497(11) 0.98078(9)
O1 O 0.11812(13) 0.90921(10) 0.93631(9)
O2 O -0.00673(14) 0.76045(13) 1.13242(13)
O3 O 0.15812(16) 0.59997(11) 1.11635(13)
O4 O 0.28770(16) 1.17310(11) 1.52900(10)
loop_
_geom_bond_atom_site_label_1
_geom_bond_atom_site_label_2
_geom_bond_site_symmetry_1
_geom_bond_site_symmetry_2
C1 C2 1_555 1_555
C2 H1 1_555 1_555
C3 C2 1_555 1_555
H2 C3 1_555 1_555
C4 C3 1_555 1_555
H3 C4 1_555 1_555
C5 C4 1_555 1_555
H4 C5 1_555 1_555
C6 C1 1_555 1_555
C7 C6 1_555 1_555
H5 C7 1_555 1_555
C8 C7 1_555 1_555
H6 C8 1_555 1_555
C9 C8 1_555 1_555
C10 C1 1_555 1_555
C11 C10 1_555 1_555
H7 C11 1_555 1_555
C12 H8 1_555 1_555
H9 C12 1_555 1_555
C13 C12 1_555 1_555
H10 C13 1_555 1_555
C14 C11 1_555 1_555
C15 C14 1_555 1_555
H11 C15 1_555 1_555
H12 C15 1_555 1_555
C16 C14 1_555 1_555
C17 H13 1_555 1_555
H14 C17 1_555 1_555
H15 C17 1_555 1_555
C18 H16 1_555 1_555
H17 C18 1_555 1_555
H18 C18 1_555 1_555
C19 C13 1_555 1_555
C20 C19 1_555 1_555
H19 C20 1_555 1_555
C21 C20 1_555 1_555
H20 C21 1_555 1_555
C22 C21 1_555 1_555
C23 C22 1_555 1_555
H21 C23 1_555 1_555
C24 C19 1_555 1_555
H22 C24 1_555 1_555
C25 H23 1_555 1_555
H24 C25 1_555 1_555
H25 C25 1_555 1_555
N1 C11 1_555 1_555
O1 C9 1_555 1_555
O2 C16 1_555 1_555
O3 C16 1_555 1_555
O4 C22 1_555 1_555
C5 C6 1_555 1_555
C9 C10 1_555 1_555
C12 N1 1_555 1_555
C13 C14 1_555 1_555
C15 O1 1_555 1_555
C17 O3 1_555 1_555
C18 N1 1_555 1_555
C23 C24 1_555 1_555
C25 O4 1_555 1_555

#END
