
#######################################################################
#
#                 Cambridge Crystallographic Data Centre
#                                CCDC 
#
#######################################################################
#
# If this CIF has been generated from an entry in the Cambridge 
# Structural Database, then it will include bibliographic, chemical, 
# crystal, experimental, refinement or atomic coordinate data resulting 
# from the CCDC's data processing and validation procedures.
#
#######################################################################

data_KUTQAS
_chemical_name_common            
3-(1,3-Benzodioxol-5-yl)naphtho[2,3-c]furan-1(3H)-one
_chemical_formula_moiety         'C19 H12 O4'
_chemical_name_systematic        
3-(1,3-Benzodioxol-5-yl)-3H-benzo[f]isobenzofuran-1-one
_symmetry_cell_setting           monoclinic
_symmetry_space_group_name_H-M   'P 21/c'
_symmetry_Int_Tables_number      14
_space_group_name_Hall           '-P 2ybc'
loop_
_symmetry_equiv_pos_site_id
_symmetry_equiv_pos_as_xyz
1 x,y,z
2 -x,1/2+y,1/2-z
3 -x,-y,-z
4 x,1/2-y,1/2+z
_cell_length_a                   7.8617(3)
_cell_length_b                   12.0417(4)
_cell_length_c                   15.0214(5)
_cell_angle_alpha                90
_cell_angle_beta                 95.848(2)
_cell_angle_gamma                90
_cell_volume                     1414.65
_exptl_crystal_colour            colorless
_exptl_crystal_description       block
_cell_formula_units_Z            4
loop_
_atom_site_label
_atom_site_type_symbol
_atom_site_fract_x
_atom_site_fract_y
_atom_site_fract_z
O1 O 0.50740(15) 1.28238(9) 0.19129(8)
O2 O 0.58783(11) 1.12957(8) 0.26946(6)
O3 O 1.20824(14) 1.15928(9) 0.41662(8)
O4 O 1.29651(13) 0.98350(9) 0.46223(8)
C1 C 0.70723(14) 1.07497(10) -0.02366(7)
C2 C 0.71799(18) 1.09700(12) -0.11570(9)
H1 H 0.6798 1.1648 -0.1397
C3 C 0.7832(2) 1.02046(14) -0.16932(9)
H2 H 0.7902 1.0364 -0.2294
C4 C 0.84016(19) 0.91727(13) -0.13420(9)
H3 H 0.8842 0.8652 -0.1714
C5 C 0.83164(17) 0.89258(11) -0.04622(9)
H4 H 0.8700 0.8239 -0.0241
C6 C 0.76513(14) 0.97022(9) 0.01198(7)
C7 C 0.75593(14) 0.94554(9) 0.10366(7)
H5 H 0.7938 0.8775 0.1274
C8 C 0.69034(13) 1.02365(9) 0.15634(7)
C9 C 0.63280(14) 1.12596(9) 0.12091(8)
C10 C 0.64042(16) 1.15336(10) 0.03305(8)
H6 H 0.6023 1.2222 0.0112
C11 C 0.56804(15) 1.19097(11) 0.19281(9)
C12 C 0.66602(15) 1.02200(10) 0.25451(7)
H7 H 0.5871 0.9622 0.2667
C13 C 0.83094(15) 1.00982(10) 0.31446(7)
C14 C 0.88263(17) 0.90475(10) 0.34263(9)
H8 H 0.8110 0.8446 0.3280
C15 C 1.04087(17) 0.88686(11) 0.39288(9)
H9 H 1.0765 0.8161 0.4114
C16 C 1.13967(16) 0.97803(11) 0.41324(8)
C17 C 1.08753(16) 1.08282(10) 0.38590(8)
C18 C 0.93465(15) 1.10207(10) 0.33622(8)
H10 H 0.9013 1.1732 0.3178
C19 C 1.34790(18) 1.09710(13) 0.45929(10)
H11 H 1.3783 1.1248 0.5195
H12 H 1.4468 1.1041 0.4260
loop_
_geom_bond_atom_site_label_1
_geom_bond_atom_site_label_2
_geom_bond_site_symmetry_1
_geom_bond_site_symmetry_2
O1 C11 1_555 1_555
O2 C11 1_555 1_555
O3 C17 1_555 1_555
O4 C16 1_555 1_555
C1 C2 1_555 1_555
C2 H1 1_555 1_555
C3 C2 1_555 1_555
H2 C3 1_555 1_555
C4 C3 1_555 1_555
H3 C4 1_555 1_555
C5 C4 1_555 1_555
H4 C5 1_555 1_555
C6 C1 1_555 1_555
C7 C6 1_555 1_555
H5 C7 1_555 1_555
C8 C7 1_555 1_555
C9 C8 1_555 1_555
C10 C1 1_555 1_555
H6 C10 1_555 1_555
C11 C9 1_555 1_555
C12 O2 1_555 1_555
H7 C12 1_555 1_555
C13 C12 1_555 1_555
C14 C13 1_555 1_555
H8 C14 1_555 1_555
C15 C14 1_555 1_555
H9 C15 1_555 1_555
C16 C15 1_555 1_555
C17 C16 1_555 1_555
C18 C13 1_555 1_555
H10 C18 1_555 1_555
C19 O3 1_555 1_555
H11 C19 1_555 1_555
H12 C19 1_555 1_555
O4 C19 1_555 1_555
C5 C6 1_555 1_555
C8 C12 1_555 1_555
C9 C10 1_555 1_555
C17 C18 1_555 1_555

#END
