
#######################################################################
#
#                 Cambridge Crystallographic Data Centre
#                                CCDC 
#
#######################################################################
#
# If this CIF has been generated from an entry in the Cambridge 
# Structural Database, then it will include bibliographic, chemical, 
# crystal, experimental, refinement or atomic coordinate data resulting 
# from the CCDC's data processing and validation procedures.
#
#######################################################################

data_KUTQIB
_chemical_formula_moiety         'C22 H16 O6 S2 2-,2(C1 H6 N3 1+)'
_chemical_name_systematic        
"bis(diaminomethaniminium) 2,2'-(1,4-phenylenediethene-2,1-diyl)dibenzenesulfonate"
_symmetry_cell_setting           monoclinic
_symmetry_space_group_name_H-M   'P 21/n'
_symmetry_Int_Tables_number      14
_space_group_name_Hall           '-P 2yn'
loop_
_symmetry_equiv_pos_site_id
_symmetry_equiv_pos_as_xyz
1 x,y,z
2 1/2-x,1/2+y,1/2-z
3 -x,-y,-z
4 1/2+x,1/2-y,1/2+z
_cell_length_a                   19.603(3)
_cell_length_b                   7.6017(10)
_cell_length_c                   19.639(3)
_cell_angle_alpha                90
_cell_angle_beta                 112.7510(17)
_cell_angle_gamma                90
_cell_volume                     2698.83
_exptl_crystal_colour            colorless
_exptl_crystal_description       plate
_cell_formula_units_Z            4
loop_
_atom_site_label
_atom_site_type_symbol
_atom_site_fract_x
_atom_site_fract_y
_atom_site_fract_z
S1 S 0.43376(5) 1.29849(13) 0.28742(5)
O1 O 0.50419(15) 1.2883(4) 0.35069(15)
O2 O 0.42049(15) 1.1438(4) 0.23924(16)
O3 O 0.42678(15) 1.4624(4) 0.24530(14)
C1 C 0.3597(2) 1.3020(5) 0.3191(2)
C2 C 0.3567(2) 1.4280(4) 0.37088(19)
C3 C 0.2947(2) 1.4211(5) 0.3898(2)
H1 H 0.2917 1.5015 0.4255
C4 C 0.2377(2) 1.3015(5) 0.3583(2)
H2 H 0.1962 1.3014 0.3721
C5 C 0.2417(2) 1.1810(5) 0.3061(2)
H3 H 0.2027 1.0996 0.2836
C6 C 0.3026(2) 1.1813(5) 0.2878(2)
H4 H 0.3059 1.0978 0.2532
C7 C 0.4137(2) 1.5632(4) 0.40522(19)
H5 H 0.4636 1.5369 0.4132
C8 C 0.3980(3) 1.7218(6) 0.4256(3)
H6 H 0.3474 1.7464 0.4148
C9 C 0.4515(2) 1.8614(5) 0.4631(2)
C10 C 0.4240(2) 2.0259(5) 0.4725(2)
H7 H 0.3721 2.0448 0.4540
C11 C 0.4717(2) 2.1612(5) 0.5084(2)
H8 H 0.4518 2.2718 0.5138
S1B S 0.56624(5) 2.70151(13) 0.71258(5)
O1B O 0.49581(15) 2.7117(4) 0.64931(15)
O2B O 0.57951(15) 2.8562(4) 0.76076(16)
O3B O 0.57322(15) 2.5376(4) 0.75470(14)
C1B C 0.6403(2) 2.6980(5) 0.6809(2)
C2B C 0.6433(2) 2.5720(4) 0.62912(19)
C3B C 0.7053(2) 2.5789(5) 0.6102(2)
H1B H 0.7083 2.4985 0.5745
C4B C 0.7623(2) 2.6985(5) 0.6417(2)
H2B H 0.8038 2.6986 0.6279
C5B C 0.7583(2) 2.8190(5) 0.6939(2)
H3B H 0.7973 2.9004 0.7164
C6B C 0.6974(2) 2.8187(5) 0.7122(2)
H4B H 0.6941 2.9022 0.7468
C7B C 0.5863(2) 2.4368(4) 0.59478(19)
H5B H 0.5364 2.4631 0.5868
C8B C 0.6020(3) 2.2782(6) 0.5744(3)
H6B H 0.6526 2.2536 0.5852
C9B C 0.5485(2) 2.1386(5) 0.5369(2)
C10B C 0.5760(2) 1.9741(5) 0.5275(2)
H7B H 0.6279 1.9552 0.5460
C11B C 0.5283(2) 1.8388(5) 0.4916(2)
H8B H 0.5482 1.7282 0.4862
C12 C 0.5477(3) 0.7966(8) 0.3324(3)
N1 N 0.47589(18) 0.8061(4) 0.2917(2)
H9 H 0.4504 0.7095 0.2744
H10 H 0.4537 0.9092 0.2820
N2 N 0.5819(3) 0.6406(5) 0.3474(2)
H11 H 0.5566 0.5435 0.3302
H12 H 0.6296 0.6351 0.3745
N3 N 0.5863(2) 0.9449(5) 0.35761(19)
H13 H 0.5638 1.0475 0.3471
H14 H 0.6340 0.9397 0.3847
S2 S 0.21478(6) 0.31162(12) 0.56387(5)
O4 O 0.15274(15) 0.3168(3) 0.49298(14)
O5 O 0.26027(15) 0.1567(3) 0.57220(15)
O6 O 0.25945(15) 0.4722(3) 0.57801(14)
C13 C 0.1797(2) 0.2999(4) 0.6350(2)
C14 C 0.1271(2) 0.4201(4) 0.63982(19)
C15 C 0.1055(2) 0.4003(5) 0.6993(2)
H15 H 0.0697 0.4781 0.7041
C16 C 0.1354(3) 0.2687(5) 0.7520(2)
H16 H 0.1195 0.2579 0.7917
C17 C 0.1878(2) 0.1543(5) 0.7471(2)
H17 H 0.2087 0.0663 0.7836
C18 C 0.2095(2) 0.1696(5) 0.6880(2)
H18 H 0.2450 0.0903 0.6836
C19 C 0.0930(2) 0.5602(4) 0.5846(2)
H19 H 0.0872 0.5387 0.5350
C20 C 0.0698(2) 0.7161(5) 0.6002(2)
H20 H 0.0772 0.7360 0.6503
C21 C 0.0342(2) 0.8584(4) 0.5482(2)
C22 C 0.0220(2) 1.0201(5) 0.5747(2)
H21 H 0.0369 1.0353 0.6265
C23 C -0.0111(2) 1.1593(4) 0.5284(2)
H22 H -0.0182 1.2678 0.5487
S2B S -0.21478(6) 1.68838(12) 0.43613(5)
O4B O -0.15274(15) 1.6832(3) 0.50702(14)
O5B O -0.26027(15) 1.8433(3) 0.42780(15)
O6B O -0.25945(15) 1.5278(3) 0.42199(14)
C13B C -0.1797(2) 1.7001(4) 0.3650(2)
C14B C -0.1271(2) 1.5799(4) 0.36018(19)
C15B C -0.1055(2) 1.5997(5) 0.3007(2)
H15B H -0.0697 1.5219 0.2959
C16B C -0.1354(3) 1.7313(5) 0.2480(2)
H16B H -0.1195 1.7421 0.2083
C17B C -0.1878(2) 1.8457(5) 0.2529(2)
H17B H -0.2087 1.9337 0.2164
C18B C -0.2095(2) 1.8304(5) 0.3120(2)
H18B H -0.2450 1.9097 0.3164
C19B C -0.0930(2) 1.4398(4) 0.4154(2)
H19B H -0.0872 1.4613 0.4650
C20B C -0.0698(2) 1.2839(5) 0.3998(2)
H20B H -0.0772 1.2640 0.3497
C21B C -0.0342(2) 1.1416(4) 0.4518(2)
C22B C -0.0220(2) 0.9799(5) 0.4253(2)
H21B H -0.0369 0.9647 0.3735
C23B C 0.0111(2) 0.8407(4) 0.4716(2)
H22B H 0.0182 0.7322 0.4513
C24 C 0.1696(2) 0.8107(5) 0.4518(2)
N4 N 0.15196(19) 0.9607(4) 0.41492(18)
H23 H 0.1277 0.9597 0.3667
H24 H 0.1645 1.0614 0.4386
N5 N 0.15135(19) 0.6594(4) 0.41736(18)
H25 H 0.1271 0.6568 0.3692
H26 H 0.1634 0.5604 0.4425
N6 N 0.20730(19) 0.8131(4) 0.52470(17)
H27 H 0.2198 0.7137 0.5494
H28 H 0.2197 0.9141 0.5481
S3? S 0.4338(6) 1.1786(15) 0.2824(7)
O7? O 0.4207(14) 1.023(4) 0.2402(14)
O8? O 0.5087(17) 1.195(4) 0.3509(16)
O9? O 0.4253(16) 1.367(4) 0.2354(17)
C25? C 0.3660(12) 1.202(3) 0.3224(14)
C26? C 0.3583(12) 1.084(3) 0.3730(13)
C27? C 0.2971(14) 1.094(3) 0.3920(14)
H29? H 0.2919 1.0133 0.4266
C28? C 0.2435(12) 1.222(3) 0.3604(16)
H30? H 0.2017 1.2289 0.3733
C29? C 0.2512(13) 1.340(3) 0.3098(15)
H31? H 0.2145 1.4278 0.2882
C30? C 0.3124(15) 1.330(3) 0.2907(13)
H32? H 0.3176 1.4110 0.2562
C31? C 0.4130(15) 0.940(3) 0.4032(18)
H33? H 0.4632 0.9711 0.4150
C32? C 0.4011(19) 0.769(4) 0.416(3)
H34? H 0.3524 0.7268 0.3892
C33? C 0.4528(10) 0.638(2) 0.4663(18)
C34? C 0.4241(6) 0.483(3) 0.4818(19)
H35? H 0.3730 0.4735 0.4726
C35? C 0.4711(12) 0.341(2) 0.5110(19)
H36? H 0.4513 0.2293 0.5154
C36? C 0.555(3) 1.699(10) 0.338(3)
N7? N 0.4762(18) 1.685(5) 0.2906(19)
H37? H 0.4496 1.7801 0.2738
H38? H 0.4555 1.5802 0.2792
N8? N 0.588(2) 1.527(5) 0.354(2)
H39? H 0.6356 1.5160 0.3791
H40? H 0.5597 1.4332 0.3396
N9? N 0.578(3) 1.862(7) 0.350(3)
H41? H 0.6248 1.8854 0.3740
H42? H 0.5456 1.9485 0.3330
loop_
_geom_bond_atom_site_label_1
_geom_bond_atom_site_label_2
_geom_bond_site_symmetry_1
_geom_bond_site_symmetry_2
S1 O1 1_555 1_555
O2 S1 1_555 1_555
O3 S1 1_555 1_555
C1 S1 1_555 1_555
C2 C1 1_555 1_555
C3 C2 1_555 1_555
H1 C3 1_555 1_555
C4 C3 1_555 1_555
H2 C4 1_555 1_555
C5 C4 1_555 1_555
H3 C5 1_555 1_555
C6 C1 1_555 1_555
H4 C6 1_555 1_555
C7 C2 1_555 1_555
H5 C7 1_555 1_555
C8 C7 1_555 1_555
H6 C8 1_555 1_555
C9 C8 1_555 1_555
C10 C9 1_555 1_555
H7 C10 1_555 1_555
C11 C10 1_555 1_555
H8 C11 1_555 1_555
C12 N1 1_555 1_555
N1 H9 1_555 1_555
H10 N1 1_555 1_555
N2 C12 1_555 1_555
H11 N2 1_555 1_555
H12 N2 1_555 1_555
N3 C12 1_555 1_555
H13 N3 1_555 1_555
H14 N3 1_555 1_555
S2 O4 1_555 1_555
O5 S2 1_555 1_555
O6 S2 1_555 1_555
C13 S2 1_555 1_555
C14 C13 1_555 1_555
C15 C14 1_555 1_555
H15 C15 1_555 1_555
C16 C15 1_555 1_555
H16 C16 1_555 1_555
C17 C16 1_555 1_555
H17 C17 1_555 1_555
C18 C13 1_555 1_555
H18 C18 1_555 1_555
C19 C14 1_555 1_555
H19 C19 1_555 1_555
C20 C19 1_555 1_555
H20 C20 1_555 1_555
C21 C20 1_555 1_555
C22 C21 1_555 1_555
H21 C22 1_555 1_555
C23 C22 1_555 1_555
H22 C23 1_555 1_555
C24 N4 1_555 1_555
N4 H23 1_555 1_555
H24 N4 1_555 1_555
N5 C24 1_555 1_555
H25 N5 1_555 1_555
H26 N5 1_555 1_555
N6 C24 1_555 1_555
H27 N6 1_555 1_555
H28 N6 1_555 1_555
S1B O1B 1_555 1_555
O2B S1B 1_555 1_555
O3B S1B 1_555 1_555
C1B S1B 1_555 1_555
C2B C1B 1_555 1_555
C3B C2B 1_555 1_555
H1B C3B 1_555 1_555
C4B C3B 1_555 1_555
H2B C4B 1_555 1_555
C5B C4B 1_555 1_555
H3B C5B 1_555 1_555
C6B C1B 1_555 1_555
H4B C6B 1_555 1_555
C7B C2B 1_555 1_555
H5B C7B 1_555 1_555
C8B C7B 1_555 1_555
H6B C8B 1_555 1_555
C9B C11 1_555 1_555
C10B C9B 1_555 1_555
H7B C10B 1_555 1_555
C11B C9 1_555 1_555
H8B C11B 1_555 1_555
S2B O4B 1_555 1_555
O5B S2B 1_555 1_555
O6B S2B 1_555 1_555
C13B S2B 1_555 1_555
C14B C13B 1_555 1_555
C15B C14B 1_555 1_555
H15B C15B 1_555 1_555
C16B C15B 1_555 1_555
H16B C16B 1_555 1_555
C17B C16B 1_555 1_555
H17B C17B 1_555 1_555
C18B C13B 1_555 1_555
H18B C18B 1_555 1_555
C19B C14B 1_555 1_555
H19B C19B 1_555 1_555
C20B C19B 1_555 1_555
H20B C20B 1_555 1_555
C21B C23 1_555 1_555
C22B C21B 1_555 1_555
H21B C22B 1_555 1_555
C23B C21 1_555 1_555
H22B C23B 1_555 1_555
C5 C6 1_555 1_555
C17 C18 1_555 1_555
C5B C6B 1_555 1_555
C8B C9B 1_555 1_555
C10B C11B 1_555 1_555
C17B C18B 1_555 1_555
C20B C21B 1_555 1_555
C22B C23B 1_555 1_555

#END
