
#######################################################################
#
#                 Cambridge Crystallographic Data Centre
#                                CCDC 
#
#######################################################################
#
# If this CIF has been generated from an entry in the Cambridge 
# Structural Database, then it will include bibliographic, chemical, 
# crystal, experimental, refinement or atomic coordinate data resulting 
# from the CCDC's data processing and validation procedures.
#
#######################################################################

data_KUTQEX
_chemical_formula_moiety         'C28 H20 O6 S2 2-,2(C1 H6 N3 1+)'
_chemical_name_systematic        
"bis(diaminomethaniminium) 2,2'-(biphenyl-4,4'-diyldiethene-2,1-diyl)dibenzenesulfonate"
_symmetry_cell_setting           monoclinic
_symmetry_space_group_name_H-M   'P 21/c'
_symmetry_Int_Tables_number      14
_space_group_name_Hall           '-P 2ybc'
loop_
_symmetry_equiv_pos_site_id
_symmetry_equiv_pos_as_xyz
1 x,y,z
2 -x,1/2+y,1/2-z
3 -x,-y,-z
4 x,1/2-y,1/2+z
_cell_length_a                   21.1455(19)
_cell_length_b                   12.7188(12)
_cell_length_c                   17.8085(16)
_cell_angle_alpha                90
_cell_angle_beta                 105.0780(16)
_cell_angle_gamma                90
_cell_volume                     4624.62
_exptl_crystal_colour            yellow
_exptl_crystal_description       plate
_cell_formula_units_Z            6
loop_
_atom_site_label
_atom_site_type_symbol
_atom_site_fract_x
_atom_site_fract_y
_atom_site_fract_z
S1 S 1.10536(4) 0.78483(7) 0.28780(5)
S2 S 0.56924(4) 0.23051(7) 0.69543(5)
O1 O 1.13673(11) 0.83247(17) 0.23205(12)
O2 O 1.09926(11) 0.67086(17) 0.27735(13)
O3 O 1.04297(11) 0.83473(17) 0.28623(12)
O4 O 0.63409(11) 0.18224(18) 0.71408(13)
O5 O 0.57248(11) 0.34556(17) 0.69868(13)
O6 O 0.52922(12) 0.18833(18) 0.74412(13)
C1 C 1.15875(17) 0.8099(3) 0.38124(19)
C2 C 1.21653(17) 0.8634(3) 0.3837(2)
H1 H 1.2269 0.8819 0.3366
C3 C 1.25925(19) 0.8901(3) 0.4546(2)
H2 H 1.2987 0.9270 0.4563
C4 C 1.24369(19) 0.8625(3) 0.5225(2)
H3 H 1.2723 0.8812 0.5712
C5 C 1.18679(19) 0.8077(3) 0.5201(2)
H4 H 1.1777 0.7878 0.5676
C6 C 1.14223(17) 0.7805(3) 0.45030(19)
C7 C 1.08202(17) 0.7230(3) 0.4498(2)
H5 H 1.0625 0.6830 0.4047
C8 C 1.05219(18) 0.7220(3) 0.5074(2)
H6 H 1.0714 0.7628 0.5523
C9 C 0.99264(18) 0.6637(3) 0.50752(19)
C10 C 0.96177(18) 0.6753(3) 0.5671(2)
H7 H 0.9808 0.7207 0.6093
C11 C 0.90449(18) 0.6234(3) 0.5672(2)
H8 H 0.8851 0.6332 0.6092
C12 C 0.87488(17) 0.5568(3) 0.50606(19)
C13 C 0.90635(19) 0.5431(3) 0.44695(19)
H9 H 0.8877 0.4969 0.4051
C14 C 0.96345(19) 0.5946(3) 0.4479(2)
H10 H 0.9837 0.5828 0.4068
C15 C 0.81219(18) 0.5013(3) 0.50154(19)
C16 C 0.79359(18) 0.4721(3) 0.5694(2)
H11 H 0.8212 0.4900 0.6189
C17 C 0.73660(18) 0.4186(3) 0.5651(2)
H12 H 0.7260 0.3996 0.6119
C18 C 0.69343(18) 0.3911(3) 0.4941(2)
C19 C 0.71143(19) 0.4213(3) 0.4271(2)
H13 H 0.6834 0.4046 0.3776
C20 C 0.76891(19) 0.4750(3) 0.4311(2)
H14 H 0.7792 0.4946 0.3842
C21 C 0.63296(18) 0.3325(3) 0.4872(2)
H15 H 0.6048 0.3260 0.4363
C22 C 0.61279(17) 0.2872(3) 0.5441(2)
H16 H 0.6394 0.2966 0.5956
C23 C 0.55330(18) 0.2241(3) 0.5346(2)
C24 C 0.52928(17) 0.1935(3) 0.5984(2)
C25 C 0.47273(18) 0.1339(3) 0.5879(2)
H17 H 0.4575 0.1149 0.6317
C26 C 0.43812(19) 0.1016(3) 0.5142(2)
H18 H 0.3994 0.0606 0.5070
C27 C 0.4615(2) 0.1307(3) 0.4517(2)
H19 H 0.4384 0.1095 0.4008
C28 C 0.5174(2) 0.1897(3) 0.4616(2)
H20 H 0.5321 0.2077 0.4172
S3 S 0.26370(4) 0.22240(7) 0.79479(5)
O7 O 0.29825(11) 0.18096(18) 0.74019(13)
O8 O 0.25896(11) 0.33717(17) 0.79011(13)
O9 O 0.20005(11) 0.17279(18) 0.78493(13)
C29 C 0.31257(17) 0.1900(3) 0.8893(2)
C30 C 0.36847(18) 0.1306(3) 0.8935(2)
H21 H 0.3797 0.1115 0.8470
C31 C 0.40781(19) 0.0992(3) 0.9643(2)
H22 H 0.4458 0.0580 0.9668
C32 C 0.39170(19) 0.1279(3) 1.0315(2)
H23 H 0.4187 0.1066 1.0805
C33 C 0.33641(19) 0.1876(3) 1.0278(2)
H24 H 0.3263 0.2067 1.0750
C34 C 0.29478(17) 0.2211(3) 0.9576(2)
C35 C 0.23683(17) 0.2859(3) 0.9558(2)
H25 H 0.2163 0.3188 0.9077
C36 C 0.21025(18) 0.3030(3) 1.0146(2)
H26 H 0.2315 0.2719 1.0632
C37 C 0.15169(18) 0.3648(3) 1.01171(19)
C38 C 0.11911(19) 0.3566(3) 1.0707(2)
H27 H 0.1375 0.3141 1.1149
C39 C 0.06131(19) 0.4084(3) 1.0662(2)
H28 H 0.0407 0.4003 1.1073
C40 C 0.03171(17) 0.4724(3) 1.00342(19)
C41 C 0.06611(19) 0.4833(3) 0.9464(2)
H29 H 0.0489 0.5284 0.9035
C42 C 0.12334(19) 0.4314(3) 0.9502(2)
H30 H 0.1444 0.4411 0.9097
S3B S -0.26370(4) 0.77760(7) 1.20521(5)
O7B O -0.29825(11) 0.81904(18) 1.25981(13)
O8B O -0.25896(11) 0.66283(17) 1.20989(13)
O9B O -0.20005(11) 0.82721(18) 1.21507(13)
C29B C -0.31257(17) 0.8100(3) 1.1107(2)
C30B C -0.36847(18) 0.8694(3) 1.1065(2)
H21B H -0.3797 0.8885 1.1530
C31B C -0.40781(19) 0.9008(3) 1.0357(2)
H22B H -0.4458 0.9420 1.0332
C32B C -0.39170(19) 0.8721(3) 0.9685(2)
H23B H -0.4187 0.8934 0.9195
C33B C -0.33641(19) 0.8124(3) 0.9722(2)
H24B H -0.3263 0.7933 0.9250
C34B C -0.29478(17) 0.7789(3) 1.0424(2)
C35B C -0.23683(17) 0.7141(3) 1.0442(2)
H25B H -0.2163 0.6812 1.0923
C36B C -0.21025(18) 0.6970(3) 0.9854(2)
H26B H -0.2315 0.7281 0.9368
C37B C -0.15169(18) 0.6352(3) 0.98829(19)
C38B C -0.11911(19) 0.6434(3) 0.9293(2)
H27B H -0.1375 0.6859 0.8851
C39B C -0.06131(19) 0.5916(3) 0.9338(2)
H28B H -0.0407 0.5997 0.8927
C40B C -0.03171(17) 0.5276(3) 0.99658(19)
C41B C -0.06611(19) 0.5167(3) 1.0536(2)
H29B H -0.0489 0.4716 1.0965
C42B C -0.12334(19) 0.5686(3) 1.0498(2)
H30B H -0.1444 0.5589 1.0903
N1 N 0.80934(14) 0.4537(2) 0.78554(16)
H31 H 0.8462 0.4192 0.7905
H32 H 0.8096 0.5228 0.7876
N2 N 0.69813(14) 0.4541(2) 0.76947(16)
H33 H 0.6985 0.5231 0.7727
H34 H 0.6610 0.4195 0.7625
N3 N 0.75250(14) 0.2983(2) 0.77188(16)
H35 H 0.7891 0.2629 0.7768
H36 H 0.7151 0.2645 0.7649
C43 C 0.75370(17) 0.4019(3) 0.77508(18)
N4 N 0.46540(14) 0.4613(2) 0.73767(16)
H37 H 0.4995 0.4277 0.7299
H38 H 0.4661 0.5303 0.7417
N5 N 0.36158(14) 0.4591(2) 0.75519(15)
H39 H 0.3267 0.4239 0.7590
H40 H 0.3624 0.5281 0.7592
N6 N 0.41157(14) 0.3048(2) 0.73750(16)
H41 H 0.4455 0.2708 0.7297
H42 H 0.3766 0.2699 0.7414
C44 C 0.41302(18) 0.4080(3) 0.74340(19)
N7 N 0.13305(14) 0.4404(2) 0.75491(15)
H43 H 0.1334 0.5095 0.7530
H44 H 0.1698 0.4050 0.7611
N8 N 0.02175(14) 0.4431(2) 0.73914(15)
H45 H 0.0222 0.5122 0.7372
H46 H -0.0154 0.4095 0.7349
N9 N 0.07665(14) 0.2850(2) 0.75118(16)
H47 H 0.0396 0.2511 0.7468
H48 H 0.1135 0.2498 0.7574
C45 C 0.07702(18) 0.3895(3) 0.74847(19)
loop_
_geom_bond_atom_site_label_1
_geom_bond_atom_site_label_2
_geom_bond_site_symmetry_1
_geom_bond_site_symmetry_2
S1 O1 1_555 1_555
S2 O4 1_555 1_555
O2 S1 1_555 1_555
O3 S1 1_555 1_555
O5 S2 1_555 1_555
O6 S2 1_555 1_555
C1 S1 1_555 1_555
C2 C1 1_555 1_555
H1 C2 1_555 1_555
C3 C2 1_555 1_555
H2 C3 1_555 1_555
C4 C3 1_555 1_555
H3 C4 1_555 1_555
C5 C4 1_555 1_555
H4 C5 1_555 1_555
C6 C1 1_555 1_555
C7 C6 1_555 1_555
H5 C7 1_555 1_555
C8 C7 1_555 1_555
H6 C8 1_555 1_555
C9 C8 1_555 1_555
C10 C9 1_555 1_555
H7 C10 1_555 1_555
C11 C10 1_555 1_555
H8 C11 1_555 1_555
C12 C11 1_555 1_555
C13 C12 1_555 1_555
H9 C13 1_555 1_555
C14 C9 1_555 1_555
H10 C14 1_555 1_555
C15 C12 1_555 1_555
C16 C15 1_555 1_555
H11 C16 1_555 1_555
C17 C16 1_555 1_555
H12 C17 1_555 1_555
C18 C17 1_555 1_555
C19 C18 1_555 1_555
H13 C19 1_555 1_555
C20 C15 1_555 1_555
H14 C20 1_555 1_555
C21 C18 1_555 1_555
H15 C21 1_555 1_555
C22 C21 1_555 1_555
H16 C22 1_555 1_555
C23 C22 1_555 1_555
C24 S2 1_555 1_555
C25 C24 1_555 1_555
H17 C25 1_555 1_555
C26 C25 1_555 1_555
H18 C26 1_555 1_555
C27 C26 1_555 1_555
H19 C27 1_555 1_555
C28 C23 1_555 1_555
H20 C28 1_555 1_555
S3 O7 1_555 1_555
O8 S3 1_555 1_555
O9 S3 1_555 1_555
C29 S3 1_555 1_555
C30 C29 1_555 1_555
H21 C30 1_555 1_555
C31 C30 1_555 1_555
H22 C31 1_555 1_555
C32 C31 1_555 1_555
H23 C32 1_555 1_555
C33 C32 1_555 1_555
H24 C33 1_555 1_555
C34 C29 1_555 1_555
C35 C34 1_555 1_555
H25 C35 1_555 1_555
C36 C35 1_555 1_555
H26 C36 1_555 1_555
C37 C36 1_555 1_555
C38 C37 1_555 1_555
H27 C38 1_555 1_555
C39 C38 1_555 1_555
H28 C39 1_555 1_555
C40 C39 1_555 1_555
C41 C40 1_555 1_555
H29 C41 1_555 1_555
C42 C37 1_555 1_555
H30 C42 1_555 1_555
N1 H31 1_555 1_555
H32 N1 1_555 1_555
N2 H33 1_555 1_555
H34 N2 1_555 1_555
N3 H35 1_555 1_555
H36 N3 1_555 1_555
C43 N1 1_555 1_555
N4 H37 1_555 1_555
H38 N4 1_555 1_555
N5 H39 1_555 1_555
H40 N5 1_555 1_555
N6 H41 1_555 1_555
H42 N6 1_555 1_555
C44 N4 1_555 1_555
N7 H43 1_555 1_555
H44 N7 1_555 1_555
N8 H45 1_555 1_555
H46 N8 1_555 1_555
N9 H47 1_555 1_555
H48 N9 1_555 1_555
C45 N7 1_555 1_555
S3B O7B 1_555 1_555
O8B S3B 1_555 1_555
O9B S3B 1_555 1_555
C29B S3B 1_555 1_555
C30B C29B 1_555 1_555
H21B C30B 1_555 1_555
C31B C30B 1_555 1_555
H22B C31B 1_555 1_555
C32B C31B 1_555 1_555
H23B C32B 1_555 1_555
C33B C32B 1_555 1_555
H24B C33B 1_555 1_555
C34B C29B 1_555 1_555
C35B C34B 1_555 1_555
H25B C35B 1_555 1_555
C36B C35B 1_555 1_555
H26B C36B 1_555 1_555
C37B C36B 1_555 1_555
C38B C37B 1_555 1_555
H27B C38B 1_555 1_555
C39B C38B 1_555 1_555
H28B C39B 1_555 1_555
C40B C40 1_555 1_555
C41B C40B 1_555 1_555
H29B C41B 1_555 1_555
C42B C37B 1_555 1_555
H30B C42B 1_555 1_555
C5 C6 1_555 1_555
C13 C14 1_555 1_555
C19 C20 1_555 1_555
C23 C24 1_555 1_555
C27 C28 1_555 1_555
C33 C34 1_555 1_555
C41 C42 1_555 1_555
N2 C43 1_555 1_555
N3 C43 1_555 1_555
N5 C44 1_555 1_555
N6 C44 1_555 1_555
N8 C45 1_555 1_555
N9 C45 1_555 1_555
C33B C34B 1_555 1_555
C39B C40B 1_555 1_555
C41B C42B 1_555 1_555

#END
