
#######################################################################
#
#                 Cambridge Crystallographic Data Centre
#                                CCDC 
#
#######################################################################
#
# If this CIF has been generated from an entry in the Cambridge 
# Structural Database, then it will include bibliographic, chemical, 
# crystal, experimental, refinement or atomic coordinate data resulting 
# from the CCDC's data processing and validation procedures.
#
#######################################################################

data_KUTRUN
_chemical_formula_moiety         'C16 H10 N2 O5 S1'
_chemical_name_systematic        
"5'-Amino-1,3-dioxo-2',3'-dihydro-7'H-spiro[indane-2,7'-thieno[3,2-b]pyran]-6'-carbonitrile 1',1'-dioxide"
_symmetry_cell_setting           monoclinic
_symmetry_space_group_name_H-M   'P 21/c'
_symmetry_Int_Tables_number      14
_space_group_name_Hall           '-P 2ybc'
loop_
_symmetry_equiv_pos_site_id
_symmetry_equiv_pos_as_xyz
1 x,y,z
2 -x,1/2+y,1/2-z
3 -x,-y,-z
4 x,1/2-y,1/2+z
_cell_length_a                   9.436(3)
_cell_length_b                   10.602(3)
_cell_length_c                   14.777(4)
_cell_angle_alpha                90
_cell_angle_beta                 99.137(4)
_cell_angle_gamma                90
_cell_volume                     1459.54
_exptl_crystal_colour            colorless
_exptl_crystal_description       prism
_cell_formula_units_Z            4
loop_
_atom_site_label
_atom_site_type_symbol
_atom_site_fract_x
_atom_site_fract_y
_atom_site_fract_z
S1 S 0.97876(6) 0.43469(5) 0.18224(4)
O1 O 0.95541(18) 0.55710(13) 0.14090(11)
O2 O 0.95173(17) 0.32826(14) 0.12109(11)
O3 O 0.68230(16) 0.65052(13) 0.24233(10)
O4 O 0.68085(16) 0.20574(13) 0.21541(10)
O5 O 0.93203(15) 0.34731(13) 0.42896(10)
N1 N 0.7756(2) 0.36526(18) 0.52595(13)
N2 N 0.4414(2) 0.46284(18) 0.40031(13)
C1 C 1.1509(2) 0.42085(19) 0.25136(15)
H1 H 1.2145 0.3705 0.2204
H2 H 1.1936 0.5034 0.2644
C2 C 1.1251(2) 0.35644(19) 0.33972(15)
H3 H 1.1471 0.2672 0.3379
H4 H 1.1854 0.3937 0.3922
C3 C 0.9718(2) 0.37524(18) 0.34620(14)
C4 C 0.8818(2) 0.41635(18) 0.27348(14)
C5 C 0.7227(2) 0.42359(18) 0.26815(15)
C6 C 0.6933(2) 0.41396(18) 0.36651(15)
C7 C 0.7939(2) 0.37715(18) 0.43869(14)
C8 C 0.5539(2) 0.43993(18) 0.38449(15)
C9 C 0.6480(2) 0.54337(19) 0.22236(15)
C10 C 0.5243(2) 0.50111(19) 0.15446(14)
C11 C 0.4185(2) 0.5739(2) 0.10321(15)
H5 H 0.4207 0.6615 0.1074
C12 C 0.3101(2) 0.5133(2) 0.04602(15)
H6 H 0.2375 0.5604 0.0118
C13 C 0.3079(3) 0.3814(2) 0.03878(15)
H7 H 0.2340 0.3425 -0.0005
C14 C 0.4129(2) 0.3084(2) 0.08852(14)
H8 H 0.4117 0.2210 0.0831
C15 C 0.5215(2) 0.36997(18) 0.14740(14)
C16 C 0.6443(2) 0.31490(19) 0.20917(14)
H9 H 0.6992(18) 0.394(2) 0.5484(15)
H10 H 0.841(2) 0.325(2) 0.5651(14)
loop_
_geom_bond_atom_site_label_1
_geom_bond_atom_site_label_2
_geom_bond_site_symmetry_1
_geom_bond_site_symmetry_2
S1 O1 1_555 1_555
O2 S1 1_555 1_555
O3 C9 1_555 1_555
O4 C16 1_555 1_555
O5 C3 1_555 1_555
N1 C7 1_555 1_555
N2 C8 1_555 1_555
C1 S1 1_555 1_555
H1 C1 1_555 1_555
H2 C1 1_555 1_555
C2 C1 1_555 1_555
H3 C2 1_555 1_555
H4 C2 1_555 1_555
C3 C2 1_555 1_555
C4 S1 1_555 1_555
C5 C4 1_555 1_555
C6 C5 1_555 1_555
C7 O5 1_555 1_555
C8 C6 1_555 1_555
C9 C5 1_555 1_555
C10 C9 1_555 1_555
C11 C10 1_555 1_555
H5 C11 1_555 1_555
C12 C11 1_555 1_555
H6 C12 1_555 1_555
C13 C12 1_555 1_555
H7 C13 1_555 1_555
C14 C13 1_555 1_555
H8 C14 1_555 1_555
C15 C10 1_555 1_555
C16 C5 1_555 1_555
H9 N1 1_555 1_555
H10 N1 1_555 1_555
C3 C4 1_555 1_555
C6 C7 1_555 1_555
C14 C15 1_555 1_555
C15 C16 1_555 1_555

#END
