
#######################################################################
#
#                 Cambridge Crystallographic Data Centre
#                                CCDC 
#
#######################################################################
#
# If this CIF has been generated from an entry in the Cambridge 
# Structural Database, then it will include bibliographic, chemical, 
# crystal, experimental, refinement or atomic coordinate data resulting 
# from the CCDC's data processing and validation procedures.
#
#######################################################################

data_KUTWAY
_chemical_formula_moiety         'C15 H18 N2 O4 S1'
_chemical_name_systematic        
'Ethyl 2-((t-butoxycarbonyl)amino)-1,3-benzothiazole-6-carboxylate'
_symmetry_cell_setting           triclinic
_symmetry_space_group_name_H-M   'P -1'
_symmetry_Int_Tables_number      2
_space_group_name_Hall           '-P 1'
loop_
_symmetry_equiv_pos_site_id
_symmetry_equiv_pos_as_xyz
1 x,y,z
2 -x,-y,-z
_cell_length_a                   6.3026(13)
_cell_length_b                   10.791(2)
_cell_length_c                   11.909(2)
_cell_angle_alpha                80.58(3)
_cell_angle_beta                 86.61(3)
_cell_angle_gamma                81.57(3)
_cell_volume                     789.88
_exptl_crystal_colour            colorless
_exptl_crystal_description       needle
_cell_formula_units_Z            2
loop_
_atom_site_label
_atom_site_type_symbol
_atom_site_fract_x
_atom_site_fract_y
_atom_site_fract_z
S1 S -0.00627(16) 0.75048(10) 0.94306(9)
O1 O -0.5534(4) 0.6760(2) 1.1764(2)
N1 N -0.4017(5) 0.8086(3) 1.0445(3)
H1 H -0.5187 0.8593 1.0515
O2 O 0.6440(4) 0.9028(3) 0.6602(2)
N2 N -0.2502(5) 0.9692(3) 0.9263(2)
O3 O -0.2352(5) 0.6079(3) 1.0923(3)
O4 O 0.5621(5) 1.1131(3) 0.6102(3)
C1 C -0.6011(11) 0.4579(5) 1.1729(5)
H2 H -0.6143 0.3772 1.2185
H3 H -0.4776 0.4496 1.1221
H4 H -0.7275 0.4866 1.1295
C2 C -0.3890(9) 0.5131(6) 1.3253(5)
H5 H -0.4042 0.4330 1.3717
H6 H -0.3848 0.5759 1.3733
H7 H -0.2583 0.5050 1.2798
C3 C -0.7806(8) 0.5823(5) 1.3176(5)
H8 H -0.8094 0.5075 1.3685
H9 H -0.8973 0.6104 1.2671
H10 H -0.7654 0.6480 1.3608
C4 C -0.5758(7) 0.5525(4) 1.2490(4)
C5 C -0.3848(6) 0.6882(4) 1.1045(3)
C6 C -0.2382(6) 0.8519(4) 0.9732(3)
C7 C -0.0652(5) 0.9890(3) 0.8612(3)
C8 C -0.0223(6) 1.1047(4) 0.7995(3)
H11 H -0.1213 1.1775 0.8004
C9 C 0.1687(6) 1.1096(4) 0.7373(3)
H12 H 0.1980 1.1866 0.6962
C10 C 0.3196(5) 1.0007(4) 0.7350(3)
C11 C 0.2781(6) 0.8856(4) 0.7956(3)
H13 H 0.3769 0.8129 0.7938
C12 C 0.0869(6) 0.8803(3) 0.8590(3)
C13 C 0.5180(6) 1.0144(4) 0.6628(3)
C14 C 0.8351(6) 0.9081(4) 0.5871(3)
H14 H 0.9345 0.9534 0.6178
H15 H 0.7982 0.9520 0.5116
C15 C 0.9356(9) 0.7748(5) 0.5812(5)
H16 H 1.0624 0.7757 0.5324
H17 H 0.8357 0.7307 0.5512
H18 H 0.9734 0.7326 0.6561
loop_
_geom_bond_atom_site_label_1
_geom_bond_atom_site_label_2
_geom_bond_site_symmetry_1
_geom_bond_site_symmetry_2
S1 C6 1_555 1_555
O1 C4 1_555 1_555
N1 H1 1_555 1_555
O2 C13 1_555 1_555
N2 C6 1_555 1_555
O3 C5 1_555 1_555
O4 C13 1_555 1_555
C1 H2 1_555 1_555
H3 C1 1_555 1_555
H4 C1 1_555 1_555
C2 H5 1_555 1_555
H6 C2 1_555 1_555
H7 C2 1_555 1_555
C3 H8 1_555 1_555
H9 C3 1_555 1_555
H10 C3 1_555 1_555
C4 C1 1_555 1_555
C5 O1 1_555 1_555
C6 N1 1_555 1_555
C7 N2 1_555 1_555
C8 C7 1_555 1_555
H11 C8 1_555 1_555
C9 C8 1_555 1_555
H12 C9 1_555 1_555
C10 C9 1_555 1_555
C11 C10 1_555 1_555
H13 C11 1_555 1_555
C12 S1 1_555 1_555
C13 C10 1_555 1_555
C14 O2 1_555 1_555
H14 C14 1_555 1_555
H15 C14 1_555 1_555
C15 C14 1_555 1_555
H16 C15 1_555 1_555
H17 C15 1_555 1_555
H18 C15 1_555 1_555
N1 C5 1_555 1_555
C2 C4 1_555 1_555
C3 C4 1_555 1_555
C7 C12 1_555 1_555
C11 C12 1_555 1_555

#END
