
#######################################################################
#
#                 Cambridge Crystallographic Data Centre
#                                CCDC 
#
#######################################################################
#
# If this CIF has been generated from an entry in the Cambridge 
# Structural Database, then it will include bibliographic, chemical, 
# crystal, experimental, refinement or atomic coordinate data resulting 
# from the CCDC's data processing and validation procedures.
#
#######################################################################

data_KUVCOU
_chemical_formula_moiety         'C16 H13 Cl1 N2 O1'
_chemical_name_systematic        
1-((2-Chloro-6-methylquinolin-3-yl)methyl)pyridin-2(1H)-one
_symmetry_cell_setting           monoclinic
_symmetry_space_group_name_H-M   'C 2/c'
_symmetry_Int_Tables_number      15
_space_group_name_Hall           '-C 2yn'
loop_
_symmetry_equiv_pos_site_id
_symmetry_equiv_pos_as_xyz
1 x,y,z
2 -x,y,1/2-z
3 1/2+x,1/2+y,z
4 1/2-x,1/2+y,1/2-z
5 -x,-y,-z
6 x,-y,1/2+z
7 1/2-x,1/2-y,-z
8 1/2+x,1/2-y,1/2+z
_cell_length_a                   11.8934(3)
_cell_length_b                   11.1092(3)
_cell_length_c                   21.2858(6)
_cell_angle_alpha                90
_cell_angle_beta                 102.413(3)
_cell_angle_gamma                90
_cell_volume                     2746.67
_exptl_crystal_colour            colorless
_exptl_crystal_description       block
_cell_formula_units_Z            8
_exptl_crystal_recrystallization_method 'diethyl ether'
loop_
_atom_site_label
_atom_site_type_symbol
_atom_site_fract_x
_atom_site_fract_y
_atom_site_fract_z
Cl1 Cl 1.09208(3) 0.30078(4) 0.05639(2)
O1 O 0.85807(10) 0.41006(11) 0.21457(5)
N1 N 0.89822(11) 0.31396(11) -0.02677(6)
N2 N 0.92375(10) 0.56671(11) 0.16368(5)
C1 C 0.95261(12) 0.35624(13) 0.02798(7)
C2 C 0.91154(12) 0.44280(13) 0.06637(7)
C3 C 0.80426(12) 0.48690(13) 0.04162(7)
C4 C 0.62855(14) 0.49071(14) -0.04533(8)
C5 C 0.56786(14) 0.44843(16) -0.10296(8)
C6 C 0.61864(16) 0.35797(17) -0.13404(8)
C7 C 0.72499(15) 0.31365(15) -0.10943(7)
C8 C 0.78938(13) 0.35771(14) -0.05035(7)
C9 C 0.73932(12) 0.44607(13) -0.01767(7)
C10 C 0.98427(13) 0.48243(15) 0.13024(7)
C11 C 0.92446(14) 0.68655(15) 0.14990(8)
C12 C 0.86613(16) 0.76605(17) 0.17753(9)
C13 C 0.80463(15) 0.72478(18) 0.22262(8)
C14 C 0.80364(13) 0.60698(17) 0.23677(8)
C15 C 0.86079(13) 0.51932(16) 0.20637(7)
C16 C 0.44951(15) 0.49594(19) -0.13245(9)
H1 H 0.77340 0.54520 0.06440
H2 H 0.59630 0.55000 -0.02390
H3 H 0.57750 0.32750 -0.17290
H4 H 0.75570 0.25410 -0.13150
H5 H 1.00650 0.41230 0.15720
H6 H 1.05400 0.52020 0.12310
H7 H 0.96660 0.71350 0.12060
H8 H 0.86630 0.84730 0.16710
H9 H 0.76440 0.77910 0.24280
H10 H 0.76400 0.58190 0.26770
H11 H 0.43010 0.55940 -0.10600
H12 H 0.39420 0.43210 -0.13540
H13 H 0.44880 0.52660 -0.17470
loop_
_geom_bond_atom_site_label_1
_geom_bond_atom_site_label_2
_geom_bond_site_symmetry_1
_geom_bond_site_symmetry_2
Cl1 C1 1_555 1_555
O1 C15 1_555 1_555
N1 C1 1_555 1_555
N2 C10 1_555 1_555
C1 C2 1_555 1_555
C2 C3 1_555 1_555
C3 C9 1_555 1_555
C4 C5 1_555 1_555
C5 C6 1_555 1_555
C6 C7 1_555 1_555
C7 C8 1_555 1_555
C8 N1 1_555 1_555
C9 C4 1_555 1_555
C10 C2 1_555 1_555
C11 N2 1_555 1_555
C12 C11 1_555 1_555
C13 C12 1_555 1_555
C14 C13 1_555 1_555
C15 N2 1_555 1_555
C16 C5 1_555 1_555
H1 C3 1_555 1_555
H2 C4 1_555 1_555
H3 C6 1_555 1_555
H4 C7 1_555 1_555
H5 C10 1_555 1_555
H6 C10 1_555 1_555
H7 C11 1_555 1_555
H8 C12 1_555 1_555
H9 C13 1_555 1_555
H10 C14 1_555 1_555
H11 C16 1_555 1_555
H12 C16 1_555 1_555
H13 C16 1_555 1_555
C8 C9 1_555 1_555
C14 C15 1_555 1_555

#END
