
#######################################################################
#
#                 Cambridge Crystallographic Data Centre
#                                CCDC 
#
#######################################################################
#
# If this CIF has been generated from an entry in the Cambridge 
# Structural Database, then it will include bibliographic, chemical, 
# crystal, experimental, refinement or atomic coordinate data resulting 
# from the CCDC's data processing and validation procedures.
#
#######################################################################

data_KUVDAH
_chemical_formula_moiety         'C16 H16 N2 O3 S1'
_chemical_name_systematic        
4-((2,5-Dimethyl-1,3-thiazol-4-yl)methyl)-4-hydroxy-2-methylisoquinoline-1,3(2H,4H)-dione
_symmetry_cell_setting           monoclinic
_symmetry_space_group_name_H-M   'P 21/c'
_symmetry_Int_Tables_number      14
_space_group_name_Hall           '-P 2ybc'
loop_
_symmetry_equiv_pos_site_id
_symmetry_equiv_pos_as_xyz
1 x,y,z
2 -x,1/2+y,1/2-z
3 -x,-y,-z
4 x,1/2-y,1/2+z
_cell_length_a                   8.5793(2)
_cell_length_b                   10.4438(2)
_cell_length_c                   17.5496(3)
_cell_angle_alpha                90
_cell_angle_beta                 114.3040(10)
_cell_angle_gamma                90
_cell_volume                     1433.09
_exptl_crystal_colour            colorless
_exptl_crystal_description       block
_cell_formula_units_Z            4
_exptl_crystal_recrystallization_method 'acetone/petroleum ether'
loop_
_atom_site_label
_atom_site_type_symbol
_atom_site_fract_x
_atom_site_fract_y
_atom_site_fract_z
S1 S 1.09845(5) 0.83482(4) 1.10440(3)
O1 O 0.38500(16) 0.80117(12) 1.02541(8)
O2 O 0.82233(18) 0.52224(13) 1.07705(8)
O3 O 0.33049(17) 0.82715(12) 0.86199(8)
N1 N 0.6048(2) 0.66140(13) 1.05324(10)
N2 N 0.80660(19) 0.91667(14) 1.08986(9)
C1 C 0.4850(2) 0.74898(16) 1.00286(11)
C2 C 0.7103(2) 0.58819(16) 1.02692(11)
C3 C 0.6699(2) 0.58984(16) 0.93626(11)
C4 C 0.7471(2) 0.49838(17) 0.90499(12)
C5 C 0.7076(2) 0.49498(17) 0.82010(12)
C6 C 0.5912(3) 0.58198(18) 0.76658(12)
C7 C 0.5162(2) 0.67391(17) 0.79782(12)
C8 C 0.5556(2) 0.67879(16) 0.88301(12)
C9 C 0.4934(2) 0.78679(17) 0.92028(11)
C10 C 0.6204(2) 0.90246(16) 0.93867(11)
C11 C 0.7918(2) 0.88586(16) 1.00992(11)
C12 C 0.9358(2) 0.84040(15) 1.00461(12)
C13 C 0.9603(2) 0.89292(17) 1.14552(11)
C14 C 0.6343(3) 0.65094(18) 1.14136(12)
C15 C 0.9659(3) 0.8009(2) 0.92990(12)
C16 C 1.0194(3) 0.9151(2) 1.23738(12)
H1 H 0.824(3) 0.439(2) 0.9426(14)
H2 H 0.762(3) 0.433(2) 0.7991(15)
H3 H 0.563(3) 0.581(2) 0.7073(15)
H4 H 0.439(3) 0.736(2) 0.7631(15)
H5 H 0.564(3) 0.975(2) 0.9491(13)
H6 H 0.633(3) 0.9172(19) 0.8877(14)
H7 H 0.541(4) 0.692(3) 1.1484(17)
H8 H 0.634(3) 0.561(2) 1.1555(14)
H9 H 0.729(4) 0.693(3) 1.1756(17)
H10 H 0.988(3) 0.711(3) 0.9309(17)
H11 H 1.058(3) 0.850(2) 0.9259(16)
H12 H 0.869(4) 0.820(3) 0.8790(19)
H13 H 1.029(4) 1.003(3) 1.2454(19)
H14 H 0.939(4) 0.885(3) 1.2568(18)
H15 H 1.133(4) 0.878(3) 1.270(2)
H16 H 0.297(4) 0.889(3) 0.8823(19)
loop_
_geom_bond_atom_site_label_1
_geom_bond_atom_site_label_2
_geom_bond_site_symmetry_1
_geom_bond_site_symmetry_2
S1 C12 1_555 1_555
O1 C1 1_555 1_555
O2 C2 1_555 1_555
O3 C9 1_555 1_555
N1 C1 1_555 1_555
N2 C11 1_555 1_555
C1 C9 1_555 1_555
C2 N1 1_555 1_555
C3 C2 1_555 1_555
C4 C3 1_555 1_555
C5 C4 1_555 1_555
C6 C5 1_555 1_555
C7 C6 1_555 1_555
C8 C3 1_555 1_555
C9 C8 1_555 1_555
C10 C9 1_555 1_555
C11 C10 1_555 1_555
C12 C11 1_555 1_555
C13 S1 1_555 1_555
C14 N1 1_555 1_555
C15 C12 1_555 1_555
C16 C13 1_555 1_555
H1 C4 1_555 1_555
H2 C5 1_555 1_555
H3 C6 1_555 1_555
H4 C7 1_555 1_555
H5 C10 1_555 1_555
H6 C10 1_555 1_555
H7 C14 1_555 1_555
H8 C14 1_555 1_555
H9 C14 1_555 1_555
H10 C15 1_555 1_555
H11 C15 1_555 1_555
H12 C15 1_555 1_555
H13 C16 1_555 1_555
H14 C16 1_555 1_555
H15 C16 1_555 1_555
H16 O3 1_555 1_555
N2 C13 1_555 1_555
C7 C8 1_555 1_555

#END
