
#######################################################################
#
#                 Cambridge Crystallographic Data Centre
#                                CCDC 
#
#######################################################################
#
# If this CIF has been generated from an entry in the Cambridge 
# Structural Database, then it will include bibliographic, chemical, 
# crystal, experimental, refinement or atomic coordinate data resulting 
# from the CCDC's data processing and validation procedures.
#
#######################################################################

data_KUVFAJ
_chemical_name_common            1,4-bis[4-(dimethylsilyl)phenyl]benzene
_chemical_formula_moiety         'C22 H26 Si2'
_chemical_name_systematic        
1,1':4',1''-Terphenyl-4,4''-diylbis(dimethylsilane)
_symmetry_cell_setting           monoclinic
_symmetry_space_group_name_H-M   'P 21/c'
_symmetry_Int_Tables_number      14
_space_group_name_Hall           '-P 2ybc'
loop_
_symmetry_equiv_pos_site_id
_symmetry_equiv_pos_as_xyz
1 x,y,z
2 -x,1/2+y,1/2-z
3 -x,-y,-z
4 x,1/2-y,1/2+z
_cell_length_a                   15.143(3)
_cell_length_b                   7.7263(15)
_cell_length_c                   9.1285(18)
_cell_angle_alpha                90
_cell_angle_beta                 107.52(3)
_cell_angle_gamma                90
_cell_volume                     1018.48
_exptl_crystal_colour            colorless
_exptl_crystal_description       plate
_cell_formula_units_Z            2
_exptl_crystal_recrystallization_method ethanol
loop_
_atom_site_label
_atom_site_type_symbol
_atom_site_fract_x
_atom_site_fract_y
_atom_site_fract_z
Si1 Si 0.35065(5) 0.48948(10) 0.54899(8)
C1 C 0.26293(17) 0.4896(3) 0.6572(3)
C2 C 0.17225(18) 0.4309(3) 0.5939(3)
H1 H 0.1533 0.3895 0.4911
C3 C 0.10866(17) 0.4313(3) 0.6768(3)
H2 H 0.0474 0.3906 0.6299
C4 C 0.13394(16) 0.4907(3) 0.8282(3)
C5 C 0.22485(18) 0.5474(4) 0.8935(3)
H3 H 0.2441 0.5869 0.9968
C6 C 0.28736(18) 0.5469(4) 0.8098(3)
H4 H 0.3487 0.5866 0.8572
C7 C 0.4368(2) 0.3127(5) 0.6203(4)
H5 H 0.4832 0.3164 0.5651
H6 H 0.4051 0.2006 0.6028
H7 H 0.4674 0.3283 0.7305
C8 C 0.2933(2) 0.4691(4) 0.3401(3)
H8 H 0.2475 0.5617 0.3060
H9 H 0.2624 0.3565 0.3182
H10 H 0.3398 0.4785 0.2854
C9 C 0.06529(16) 0.4952(3) 0.9166(3)
C10 C 0.07421(17) 0.6139(3) 1.0364(3)
H11 H 0.1249 0.6924 1.0622
C11 C 0.01023(17) 0.6186(3) 1.1179(3)
H12 H 0.0178 0.7004 1.1985
H13 H 0.3948(17) 0.649(3) 0.578(3)
Si1B Si -0.35065(5) 0.51052(10) 1.45101(8)
C1B C -0.26293(17) 0.5104(3) 1.3428(3)
C2B C -0.17225(18) 0.5691(3) 1.4061(3)
H1B H -0.1533 0.6105 1.5089
C3B C -0.10866(17) 0.5687(3) 1.3232(3)
H2B H -0.0474 0.6094 1.3701
C4B C -0.13394(16) 0.5093(3) 1.1718(3)
C5B C -0.22485(18) 0.4526(4) 1.1065(3)
H3B H -0.2441 0.4131 1.0032
C6B C -0.28736(18) 0.4531(4) 1.1902(3)
H4B H -0.3487 0.4134 1.1428
C7B C -0.4368(2) 0.6873(5) 1.3797(4)
H5B H -0.4832 0.6836 1.4349
H6B H -0.4051 0.7994 1.3972
H7B H -0.4674 0.6717 1.2695
C8B C -0.2933(2) 0.5309(4) 1.6599(3)
H8B H -0.2475 0.4383 1.6940
H9B H -0.2624 0.6435 1.6818
H10B H -0.3398 0.5215 1.7146
C9B C -0.06529(16) 0.5048(3) 1.0834(3)
C10B C -0.07421(17) 0.3861(3) 0.9636(3)
H11B H -0.1249 0.3076 0.9378
C11B C -0.01023(17) 0.3814(3) 0.8821(3)
H12B H -0.0178 0.2996 0.8015
H13B H -0.3948(17) 0.351(3) 1.422(3)
loop_
_geom_bond_atom_site_label_1
_geom_bond_atom_site_label_2
_geom_bond_site_symmetry_1
_geom_bond_site_symmetry_2
Si1 C1 1_555 1_555
C1 C2 1_555 1_555
C2 H1 1_555 1_555
C3 C2 1_555 1_555
H2 C3 1_555 1_555
C4 C3 1_555 1_555
C5 C4 1_555 1_555
H3 C5 1_555 1_555
C6 C1 1_555 1_555
H4 C6 1_555 1_555
C7 Si1 1_555 1_555
H5 C7 1_555 1_555
H6 C7 1_555 1_555
H7 C7 1_555 1_555
C8 Si1 1_555 1_555
H8 C8 1_555 1_555
H9 C8 1_555 1_555
H10 C8 1_555 1_555
C9 C4 1_555 1_555
C10 C9 1_555 1_555
H11 C10 1_555 1_555
C11 C10 1_555 1_555
H12 C11 1_555 1_555
H13 Si1 1_555 1_555
Si1B C1B 1_555 1_555
C1B C2B 1_555 1_555
C2B H1B 1_555 1_555
C3B C2B 1_555 1_555
H2B C3B 1_555 1_555
C4B C3B 1_555 1_555
C5B C4B 1_555 1_555
H3B C5B 1_555 1_555
C6B C1B 1_555 1_555
H4B C6B 1_555 1_555
C7B Si1B 1_555 1_555
H5B C7B 1_555 1_555
H6B C7B 1_555 1_555
H7B C7B 1_555 1_555
C8B Si1B 1_555 1_555
H8B C8B 1_555 1_555
H9B C8B 1_555 1_555
H10B C8B 1_555 1_555
C9B C11 1_555 1_555
C10B C9B 1_555 1_555
H11B C10B 1_555 1_555
C11B C9 1_555 1_555
H12B C11B 1_555 1_555
H13B Si1B 1_555 1_555
C5 C6 1_555 1_555
C4B C9B 1_555 1_555
C5B C6B 1_555 1_555
C10B C11B 1_555 1_555

#END
