
#######################################################################
#
#                 Cambridge Crystallographic Data Centre
#                                CCDC 
#
#######################################################################
#
# If this CIF has been generated from an entry in the Cambridge 
# Structural Database, then it will include bibliographic, chemical, 
# crystal, experimental, refinement or atomic coordinate data resulting 
# from the CCDC's data processing and validation procedures.
#
#######################################################################

data_KUVHIT
_chemical_formula_moiety         'C16 H15 Br1 O3'
_chemical_name_systematic        
4-((3-(Bromomethyl)benzyl)oxy)-3-methoxybenzaldehyde
_symmetry_cell_setting           monoclinic
_symmetry_space_group_name_H-M   'P 21/c'
_symmetry_Int_Tables_number      14
_space_group_name_Hall           '-P 2ybc'
loop_
_symmetry_equiv_pos_site_id
_symmetry_equiv_pos_as_xyz
1 x,y,z
2 -x,1/2+y,1/2-z
3 -x,-y,-z
4 x,1/2-y,1/2+z
_cell_length_a                   14.275(3)
_cell_length_b                   11.791(2)
_cell_length_c                   8.7315(17)
_cell_angle_alpha                90
_cell_angle_beta                 95.671(3)
_cell_angle_gamma                90
_cell_volume                     1462.46
_exptl_crystal_colour            colorless
_exptl_crystal_description       block
_cell_formula_units_Z            4
loop_
_atom_site_label
_atom_site_type_symbol
_atom_site_fract_x
_atom_site_fract_y
_atom_site_fract_z
Br1 Br 0.58913(3) 0.68699(4) 1.13810(7)
C1 C -0.0081(3) 1.0150(5) 0.1918(5)
H1 H -0.0372 0.9491 0.1526
C2 C 0.0624(3) 1.0028(4) 0.3238(5)
C3 C 0.1048(3) 1.0973(3) 0.3971(5)
H2 H 0.0915 1.1693 0.3572
C4 C 0.1657(3) 1.0851(3) 0.5270(4)
C5 C 0.1854(3) 0.9748(3) 0.5878(5)
C6 C 0.1453(3) 0.8818(4) 0.5123(5)
H3 H 0.1598 0.8093 0.5493
C7 C 0.0832(3) 0.8959(4) 0.3805(5)
H4 H 0.0556 0.8328 0.3305
C8 C 0.1941(3) 1.2830(4) 0.5499(6)
H5 H 0.2168 1.2873 0.4502
H6 H 0.2278 1.3363 0.6180
H7 H 0.1282 1.3007 0.5412
C9 C 0.2625(3) 0.8629(3) 0.7868(5)
H8 H 0.2991 0.8176 0.7216
H9 H 0.2040 0.8234 0.7983
C10 C 0.3167(3) 0.8807(3) 0.9420(5)
C11 C 0.4120(3) 0.8598(3) 0.9632(5)
H10 H 0.4430 0.8359 0.8802
C12 C 0.4628(3) 0.8737(3) 1.1059(5)
C13 C 0.4153(4) 0.9079(3) 1.2281(5)
H11 H 0.4481 0.9167 1.3247
C14 C 0.3197(3) 0.9293(4) 1.2093(6)
H12 H 0.2886 0.9527 1.2925
C15 C 0.2709(3) 0.9158(3) 1.0667(6)
H13 H 0.2065 0.9303 1.0537
C16 C 0.5658(3) 0.8494(4) 1.1234(7)
H14 H 0.5948 0.8865 1.2153
H15 H 0.5942 0.8798 1.0356
O1 O -0.0319(2) 1.1038(3) 0.1288(4)
O2 O 0.2083(2) 1.1717(2) 0.6096(3)
O3 O 0.2435(2) 0.9726(2) 0.7192(3)
loop_
_geom_bond_atom_site_label_1
_geom_bond_atom_site_label_2
_geom_bond_site_symmetry_1
_geom_bond_site_symmetry_2
Br1 C16 1_555 1_555
C1 H1 1_555 1_555
C2 C1 1_555 1_555
C3 C2 1_555 1_555
H2 C3 1_555 1_555
C4 C3 1_555 1_555
C5 C4 1_555 1_555
C6 C5 1_555 1_555
H3 C6 1_555 1_555
C7 C2 1_555 1_555
H4 C7 1_555 1_555
C8 H5 1_555 1_555
H6 C8 1_555 1_555
H7 C8 1_555 1_555
C9 H8 1_555 1_555
H9 C9 1_555 1_555
C10 C9 1_555 1_555
C11 C10 1_555 1_555
H10 C11 1_555 1_555
C12 C11 1_555 1_555
C13 C12 1_555 1_555
H11 C13 1_555 1_555
C14 C13 1_555 1_555
H12 C14 1_555 1_555
C15 C10 1_555 1_555
H13 C15 1_555 1_555
C16 C12 1_555 1_555
H14 C16 1_555 1_555
H15 C16 1_555 1_555
O1 C1 1_555 1_555
O2 C4 1_555 1_555
O3 C5 1_555 1_555
C6 C7 1_555 1_555
C8 O2 1_555 1_555
C9 O3 1_555 1_555
C14 C15 1_555 1_555

#END
