
#######################################################################
#
#                 Cambridge Crystallographic Data Centre
#                                CCDC 
#
#######################################################################
#
# If this CIF has been generated from an entry in the Cambridge 
# Structural Database, then it will include bibliographic, chemical, 
# crystal, experimental, refinement or atomic coordinate data resulting 
# from the CCDC's data processing and validation procedures.
#
#######################################################################

data_KUVLOD
_chemical_name_common            
'Benzyl (3-hydroxy-1-(2-(2-methoxybenzylidene)hydrazino)-1-oxopropan-2-yl)carbamate'
_chemical_formula_moiety         'C19 H21 N3 O5'
_chemical_name_systematic        
"Benzyl N-((S)-2-hydroxy-1-(N'-[(E)-2-methoxybenzylidene]hydrazinecarbonyl)ethyl)carbamate"
_symmetry_cell_setting           orthorhombic
_symmetry_space_group_name_H-M   'P 21 21 21'
_symmetry_Int_Tables_number      19
_space_group_name_Hall           'P 2ac 2ab'
loop_
_symmetry_equiv_pos_site_id
_symmetry_equiv_pos_as_xyz
1 x,y,z
2 1/2-x,-y,1/2+z
3 -x,1/2+y,1/2-z
4 1/2+x,1/2-y,-z
_cell_length_a                   6.002(6)
_cell_length_b                   14.053(14)
_cell_length_c                   21.09(2)
_cell_angle_alpha                90
_cell_angle_beta                 90
_cell_angle_gamma                90
_cell_volume                     1778.86
_exptl_crystal_colour            colorless
_exptl_crystal_description       needle
_cell_formula_units_Z            4
loop_
_atom_site_label
_atom_site_type_symbol
_atom_site_fract_x
_atom_site_fract_y
_atom_site_fract_z
O1 O 0.8873(4) -0.04357(14) 0.54989(10)
O2 O 0.8048(4) 0.11402(14) 0.55153(10)
O3 O 1.4014(4) 0.06852(18) 0.39880(12)
H1 H 1.531(3) 0.068(3) 0.3838(18)
O4 O 0.8614(4) 0.09631(14) 0.39964(10)
O5 O 0.8039(4) 0.54912(16) 0.29894(11)
N1 N 1.1190(5) 0.05803(18) 0.50353(12)
H2 H 1.161(6) 0.0066(16) 0.4822(15)
N2 N 0.9615(5) 0.25280(17) 0.39885(12)
H3 H 1.059(5) 0.294(2) 0.4132(18)
N3 N 0.7903(5) 0.27845(18) 0.35818(12)
C1 C 0.6559(6) -0.1678(2) 0.59051(15)
C2 C 0.8207(7) -0.2227(2) 0.61849(16)
H4 H 0.9550 -0.1935 0.6322
C3 C 0.7916(7) -0.3195(2) 0.62669(17)
H5 H 0.9057 -0.3568 0.6456
C4 C 0.5939(7) -0.3618(2) 0.60700(16)
H6 H 0.5718 -0.4281 0.6132
C5 C 0.4302(8) -0.3084(3) 0.57863(18)
H7 H 0.2961 -0.3378 0.5649
C6 C 0.4612(7) -0.2106(2) 0.57000(17)
H8 H 0.3487 -0.1735 0.5501
C7 C 0.6851(6) -0.0622(2) 0.58501(16)
H9 H 0.5558 -0.0340 0.5627
H10 H 0.6949 -0.0333 0.6277
C8 C 0.9259(6) 0.0482(2) 0.53586(14)
C9 C 1.1576(5) 0.1469(2) 0.46987(14)
H11 H 1.1481 0.2004 0.5010
C10 C 1.3898(6) 0.1464(2) 0.44118(14)
H12 H 1.4175 0.2067 0.4182
H13 H 1.5034 0.1397 0.4749
C11 C 0.9775(5) 0.1615(2) 0.41900(14)
C12 C 0.7823(6) 0.3673(2) 0.34522(14)
H14 H 0.8937 0.4088 0.3614
C13 C 0.6034(6) 0.4056(2) 0.30579(14)
C14 C 0.6157(6) 0.4991(2) 0.28244(14)
C15 C 0.4450(6) 0.5358(2) 0.24549(15)
H15 H 0.4531 0.5995 0.2304
C16 C 0.2632(7) 0.4798(2) 0.23060(15)
H16 H 0.1477 0.5046 0.2046
C17 C 0.2486(6) 0.3872(2) 0.25348(15)
H17 H 0.1230 0.3490 0.2434
C18 C 0.4166(6) 0.3511(2) 0.29081(15)
H18 H 0.4050 0.2880 0.3066
C19 C 0.8395(7) 0.6391(2) 0.26835(16)
H19 H 0.7233 0.6839 0.2815
H20 H 0.8337 0.6306 0.2223
H21 H 0.9858 0.6641 0.2804
loop_
_geom_bond_atom_site_label_1
_geom_bond_atom_site_label_2
_geom_bond_site_symmetry_1
_geom_bond_site_symmetry_2
O1 C7 1_555 1_555
O2 C8 1_555 1_555
O3 H1 1_555 1_555
O4 C11 1_555 1_555
O5 C14 1_555 1_555
N1 H2 1_555 1_555
N2 H3 1_555 1_555
N3 N2 1_555 1_555
C1 C2 1_555 1_555
C2 H4 1_555 1_555
C3 C2 1_555 1_555
H5 C3 1_555 1_555
C4 C3 1_555 1_555
H6 C4 1_555 1_555
C5 C4 1_555 1_555
H7 C5 1_555 1_555
C6 C1 1_555 1_555
H8 C6 1_555 1_555
C7 C1 1_555 1_555
H9 C7 1_555 1_555
H10 C7 1_555 1_555
C8 O1 1_555 1_555
C9 N1 1_555 1_555
H11 C9 1_555 1_555
C10 O3 1_555 1_555
H12 C10 1_555 1_555
H13 C10 1_555 1_555
C11 N2 1_555 1_555
C12 N3 1_555 1_555
H14 C12 1_555 1_555
C13 C12 1_555 1_555
C14 C13 1_555 1_555
C15 C14 1_555 1_555
H15 C15 1_555 1_555
C16 C15 1_555 1_555
H16 C16 1_555 1_555
C17 C16 1_555 1_555
H17 C17 1_555 1_555
C18 C13 1_555 1_555
H18 C18 1_555 1_555
C19 O5 1_555 1_555
H19 C19 1_555 1_555
H20 C19 1_555 1_555
H21 C19 1_555 1_555
N1 C8 1_555 1_555
C5 C6 1_555 1_555
C9 C10 1_555 1_555
C9 C11 1_555 1_555
C17 C18 1_555 1_555

#END
