
#######################################################################
#
#                 Cambridge Crystallographic Data Centre
#                                CCDC 
#
#######################################################################
#
# If this CIF has been generated from an entry in the Cambridge 
# Structural Database, then it will include bibliographic, chemical, 
# crystal, experimental, refinement or atomic coordinate data resulting 
# from the CCDC's data processing and validation procedures.
#
#######################################################################

data_KUVLES
_chemical_name_common            'Heptasulfur imide'
_chemical_formula_moiety         'H1 N1 S7'
_chemical_name_systematic        Cycloazaheptathiane
_symmetry_cell_setting           orthorhombic
_symmetry_space_group_name_H-M   'P n m a'
_symmetry_Int_Tables_number      62
_space_group_name_Hall           '-P 2ac 2n'
loop_
_symmetry_equiv_pos_site_id
_symmetry_equiv_pos_as_xyz
1 x,y,z
2 1/2-x,-y,1/2+z
3 1/2+x,1/2-y,1/2-z
4 -x,1/2+y,-z
5 -x,-y,-z
6 1/2+x,y,1/2-z
7 1/2-x,1/2+y,1/2+z
8 x,1/2-y,z
_cell_length_a                   7.842(2)
_cell_length_b                   13.115(2)
_cell_length_c                   7.6219(7)
_cell_angle_alpha                90
_cell_angle_beta                 90
_cell_angle_gamma                90
_cell_volume                     783.896
_cell_formula_units_Z            4
loop_
_atom_site_label
_atom_site_type_symbol
_atom_site_fract_x
_atom_site_fract_y
_atom_site_fract_z
S1 S 0.16326(4) 0.36330(2) 0.25445(3)
S2 S 0.22402(3) 0.41870(2) 0.00978(3)
S3 S 0.03297(4) 0.37609(2) -0.16295(3)
S4 S 0.12034(5) 0.2500 -0.29543(5)
N1 N 0.26102 0.2500 0.2877(2)
H1 H 0.4008 0.2500 0.285(6)
S3G S 0.03297(4) 0.12391(2) -0.16295(3)
S1G S 0.16326(4) 0.13670(2) 0.25445(3)
S2G S 0.22402(3) 0.08130(2) 0.00978(3)
loop_
_geom_bond_atom_site_label_1
_geom_bond_atom_site_label_2
_geom_bond_site_symmetry_1
_geom_bond_site_symmetry_2
S1 S2 1_555 1_555
S2 S3 1_555 1_555
S3 S4 1_555 1_555
S4 S3G 1_555 1_555
N1 S1 1_555 1_555
H1 N1 1_555 1_555
S3G S2G 1_555 1_555
S1G N1 1_555 1_555
S2G S1G 1_555 1_555

#END
