
#######################################################################
#
#                 Cambridge Crystallographic Data Centre
#                                CCDC 
#
#######################################################################
#
# If this CIF has been generated from an entry in the Cambridge 
# Structural Database, then it will include bibliographic, chemical, 
# crystal, experimental, refinement or atomic coordinate data resulting 
# from the CCDC's data processing and validation procedures.
#
#######################################################################

data_KUVMIY
_chemical_formula_moiety         '2(C2 H10 N2 2+),H6 B14 O26 4-'
_chemical_name_systematic        'bis(ethylenediammonium) tetradecaborate'
_symmetry_cell_setting           triclinic
_symmetry_space_group_name_H-M   'P -1'
_symmetry_Int_Tables_number      2
_space_group_name_Hall           '-P 1'
loop_
_symmetry_equiv_pos_site_id
_symmetry_equiv_pos_as_xyz
1 x,y,z
2 -x,-y,-z
_cell_length_a                   8.4849(3)
_cell_length_b                   8.8387(3)
_cell_length_c                   10.0406(2)
_cell_angle_alpha                95.085(2)
_cell_angle_beta                 96.942(3)
_cell_angle_gamma                116.856(4)
_cell_volume                     658.08
_exptl_crystal_colour            colorless
_exptl_crystal_description       prism
_cell_formula_units_Z            1
loop_
_atom_site_label
_atom_site_type_symbol
_atom_site_fract_x
_atom_site_fract_y
_atom_site_fract_z
B1 B -0.5849(3) -0.5170(3) 0.8129(2)
B2 B -0.4605(3) -0.2456(3) 0.9547(2)
B3 B -0.2914(3) -0.2948(3) 0.7854(2)
B4 B -0.2007(3) -0.1473(3) 0.5881(2)
B5 B 0.0303(3) -0.1771(3) 0.7443(2)
B6 B 0.3485(3) 0.0104(3) 0.8520(2)
B7 B 0.2775(3) -0.2278(3) 0.6835(2)
O1 O -0.73216(19) -0.67207(18) 0.76829(15)
H1 H -0.7172 -0.7203 0.7011
O2 O -0.42739(18) -0.47558(17) 0.77218(13)
O3 O -0.60553(17) -0.40525(18) 0.90605(14)
O4 O -0.48111(18) -0.15100(18) 1.06075(14)
O5 O -0.31106(17) -0.18999(17) 0.90041(13)
O6 O -0.11436(17) -0.27927(17) 0.80925(13)
O7 O -0.32891(17) -0.23425(18) 0.65880(13)
O8 O -0.25158(18) -0.10364(18) 0.46895(14)
H2 H -0.1620 -0.0404 0.4401
O9 O -0.02594(18) -0.10073(19) 0.63517(14)
O10 O 0.10144(17) -0.28587(18) 0.68168(14)
O11 O 0.17413(17) -0.03462(17) 0.84417(13)
O12 O 0.40563(17) -0.08058(18) 0.76988(14)
O13 O 0.33259(18) -0.31501(19) 0.59850(14)
H3 H 0.4399 -0.2832 0.6234
B1A B 0.5849(3) 0.5170(3) 1.1871(2)
B2A B 0.4605(3) 0.2456(3) 1.0453(2)
B3A B 0.2914(3) 0.2948(3) 1.2146(2)
B4A B 0.2007(3) 0.1473(3) 1.4119(2)
B5A B -0.0303(3) 0.1771(3) 1.2557(2)
B6A B -0.3485(3) -0.0104(3) 1.1480(2)
B7A B -0.2775(3) 0.2278(3) 1.3165(2)
O1A O 0.73216(19) 0.67207(18) 1.23171(15)
H1A H 0.7172 0.7203 1.2989
O2A O 0.42739(18) 0.47558(17) 1.22782(13)
O3A O 0.60553(17) 0.40525(18) 1.09395(14)
O4A O 0.48111(18) 0.15100(18) 0.93925(14)
O5A O 0.31106(17) 0.18999(17) 1.09959(13)
O6A O 0.11436(17) 0.27927(17) 1.19075(13)
O7A O 0.32891(17) 0.23425(18) 1.34120(13)
O8A O 0.25158(18) 0.10364(18) 1.53105(14)
H2A H 0.1620 0.0404 1.5599
O9A O 0.02594(18) 0.10073(19) 1.36483(14)
O10A O -0.10144(17) 0.28587(18) 1.31832(14)
O11A O -0.17413(17) 0.03462(17) 1.15583(13)
O12A O -0.40563(17) 0.08058(18) 1.23012(14)
O13A O -0.33259(18) 0.31501(19) 1.40150(14)
H3A H -0.4399 0.2832 1.3766
C1 C 0.8308(3) 0.2448(3) 0.7230(2)
H4 H 0.9116 0.2282 0.6699
H5 H 0.7200 0.1376 0.7087
C2 C 0.9149(3) 0.2927(3) 0.8712(2)
H6 H 1.0184 0.4058 0.8868
H7 H 0.8291 0.2977 0.9248
N1 N 0.7928(3) 0.3808(2) 0.67745(18)
H8 H 0.7433 0.3510 0.5897
H9 H 0.8947 0.4789 0.6897
H10 H 0.7173 0.3948 0.7254
N2 N 0.9717(2) 0.1666(2) 0.91544(17)
H11 H 1.0208 0.1977 1.0033
H12 H 1.0518 0.1633 0.8673
H13 H 0.8765 0.0631 0.9024
loop_
_geom_bond_atom_site_label_1
_geom_bond_atom_site_label_2
_geom_bond_site_symmetry_1
_geom_bond_site_symmetry_2
B1 O1 1_555 1_555
B2 O3 1_555 1_555
B3 O2 1_555 1_555
B4 O7 1_555 1_555
B5 O6 1_555 1_555
B6 O11 1_555 1_555
B7 O10 1_555 1_555
O1 H1 1_555 1_555
O2 B1 1_555 1_555
O3 B1 1_555 1_555
O4 B2 1_555 1_555
O5 B2 1_555 1_555
O6 B3 1_555 1_555
O7 B3 1_555 1_555
O8 B4 1_555 1_555
H2 O8 1_555 1_555
O9 B4 1_555 1_555
O10 B5 1_555 1_555
O11 B5 1_555 1_555
O12 B6 1_555 1_555
O13 B7 1_555 1_555
H3 O13 1_555 1_555
C1 H4 1_555 1_555
H5 C1 1_555 1_555
C2 C1 1_555 1_555
H6 C2 1_555 1_555
H7 C2 1_555 1_555
N1 C1 1_555 1_555
H8 N1 1_555 1_555
H9 N1 1_555 1_555
H10 N1 1_555 1_555
N2 C2 1_555 1_555
H11 N2 1_555 1_555
H12 N2 1_555 1_555
H13 N2 1_555 1_555
B1A O1A 1_555 1_555
B2A O3A 1_555 1_555
B3A O2A 1_555 1_555
B4A O7A 1_555 1_555
B5A O6A 1_555 1_555
B6A O4 1_555 1_555
B7A O10A 1_555 1_555
O1A H1A 1_555 1_555
O2A B1A 1_555 1_555
O3A B1A 1_555 1_555
O4A B6 1_555 1_555
O5A B2A 1_555 1_555
O6A B3A 1_555 1_555
O7A B3A 1_555 1_555
O8A B4A 1_555 1_555
H2A O8A 1_555 1_555
O9A B4A 1_555 1_555
O10A B5A 1_555 1_555
O11A B5A 1_555 1_555
O12A B6A 1_555 1_555
O13A B7A 1_555 1_555
H3A O13A 1_555 1_555
B3 O5 1_555 1_555
B5 O9 1_555 1_555
B7 O12 1_555 1_555
B2A O4A 1_555 1_555
B3A O5A 1_555 1_555
B5A O9A 1_555 1_555
B6A O11A 1_555 1_555
B7A O12A 1_555 1_555

#END
