
#######################################################################
#
#                 Cambridge Crystallographic Data Centre
#                                CCDC 
#
#######################################################################
#
# If this CIF has been generated from an entry in the Cambridge 
# Structural Database, then it will include bibliographic, chemical, 
# crystal, experimental, refinement or atomic coordinate data resulting 
# from the CCDC's data processing and validation procedures.
#
#######################################################################

data_KUVTIG
_chemical_formula_moiety         'C24 H22 N2 O2 S1'
_chemical_name_systematic        
4-methyl-N-(1'-methyl-2-phenylspiro[cyclopropane-1,3'-indol]-2'(1'H)-ylidene)benzenesulfonamide
_symmetry_cell_setting           monoclinic
_symmetry_space_group_name_H-M   'P 21/c'
_symmetry_Int_Tables_number      14
_space_group_name_Hall           '-P 2ybc'
loop_
_symmetry_equiv_pos_site_id
_symmetry_equiv_pos_as_xyz
1 x,y,z
2 -x,1/2+y,1/2-z
3 -x,-y,-z
4 x,1/2-y,1/2+z
_cell_length_a                   8.6482(4)
_cell_length_b                   22.5718(12)
_cell_length_c                   11.0285(7)
_cell_angle_alpha                90
_cell_angle_beta                 104.935(6)
_cell_angle_gamma                90
_cell_volume                     2080.1
_exptl_crystal_colour            colorless
_exptl_crystal_description       block
_cell_formula_units_Z            4
loop_
_atom_site_label
_atom_site_type_symbol
_atom_site_fract_x
_atom_site_fract_y
_atom_site_fract_z
S1 S 0.33964(5) 0.55368(2) 0.68141(5)
O1 O 0.43093(16) 0.50548(7) 0.64949(15)
N1 N -0.04584(17) 0.49776(7) 0.74989(15)
O2 O 0.41558(17) 0.58514(7) 0.79483(13)
N2 N 0.15974(18) 0.53629(7) 0.67918(16)
C1 C 0.3037(2) 0.60446(9) 0.55609(18)
C2 C 0.3675(2) 0.45103(9) 0.90882(19)
H1 H 0.4325 0.4853 0.8953
H2 H 0.3988 0.4344 0.9947
C3 C -0.0759(2) 0.45892(9) 0.84122(18)
C4 C 0.3132(2) 0.40890(9) 0.80339(19)
H3 H 0.3421 0.4213 0.7250
C5 C 0.0683(2) 0.39258(10) 0.9999(2)
H4 H 0.1644 0.3732 1.0427
C6 C 0.1122(2) 0.49846(8) 0.75229(18)
C7 C 0.1913(2) 0.45161(8) 0.84234(18)
C8 C -0.2173(2) 0.45055(10) 0.8757(2)
H5 H -0.3132 0.4702 0.8335
C9 C 0.3056(2) 0.34354(9) 0.8181(2)
C10 C 0.0657(2) 0.43036(9) 0.90094(18)
C11 C 0.1996(3) 0.65142(10) 0.5525(2)
H6 H 0.1425 0.6552 0.6150
C12 C -0.1639(2) 0.53711(10) 0.6718(2)
H7 H -0.2717 0.5231 0.6700
H8 H -0.1502 0.5374 0.5863
H9 H -0.1493 0.5773 0.7065
C13 C 0.3872(2) 0.59924(9) 0.4656(2)
H10 H 0.4598 0.5673 0.4687
C14 C 0.1795(3) 0.69268(11) 0.4574(2)
H11 H 0.1085 0.7250 0.4554
C15 C 0.3645(3) 0.64074(10) 0.3703(2)
H12 H 0.4213 0.6367 0.3076
C16 C 0.2611(3) 0.68786(10) 0.3644(2)
C17 C -0.2127(3) 0.41213(10) 0.9748(2)
H13 H -0.3074 0.4054 1.0012
C18 C -0.0732(3) 0.38356(10) 1.0358(2)
H14 H -0.0736 0.3574 1.1032
C19 C 0.2312(3) 0.31009(11) 0.7149(3)
H15 H 0.1801 0.3293 0.6384
C20 C 0.3793(3) 0.31463(11) 0.9286(3)
H16 H 0.4317 0.3368 1.0007
C21 C 0.2300(4) 0.24887(13) 0.7214(4)
H17 H 0.1783 0.2264 0.6495
C22 C 0.3033(4) 0.22053(12) 0.8315(4)
H18 H 0.3027 0.1785 0.8359
C23 C 0.3767(3) 0.25301(12) 0.9341(3)
H19 H 0.4267 0.2334 1.0104
C24 C 0.2382(4) 0.73295(13) 0.2604(3)
H20 H 0.1247 0.7349 0.2155
H21 H 0.3011 0.7213 0.2019
H22 H 0.2741 0.7719 0.2961
loop_
_geom_bond_atom_site_label_1
_geom_bond_atom_site_label_2
_geom_bond_site_symmetry_1
_geom_bond_site_symmetry_2
S1 O1 1_555 1_555
N1 C3 1_555 1_555
O2 S1 1_555 1_555
N2 S1 1_555 1_555
C1 S1 1_555 1_555
C2 H1 1_555 1_555
H2 C2 1_555 1_555
C3 C8 1_555 1_555
C4 C2 1_555 1_555
H3 C4 1_555 1_555
C5 H4 1_555 1_555
C6 N1 1_555 1_555
C7 C2 1_555 1_555
C8 H5 1_555 1_555
C9 C4 1_555 1_555
C10 C3 1_555 1_555
C11 C1 1_555 1_555
H6 C11 1_555 1_555
C12 N1 1_555 1_555
H7 C12 1_555 1_555
H8 C12 1_555 1_555
H9 C12 1_555 1_555
C13 C1 1_555 1_555
H10 C13 1_555 1_555
C14 C11 1_555 1_555
H11 C14 1_555 1_555
C15 C13 1_555 1_555
H12 C15 1_555 1_555
C16 C14 1_555 1_555
C17 C8 1_555 1_555
H13 C17 1_555 1_555
C18 C5 1_555 1_555
H14 C18 1_555 1_555
C19 C9 1_555 1_555
H15 C19 1_555 1_555
C20 C9 1_555 1_555
H16 C20 1_555 1_555
C21 C19 1_555 1_555
H17 C21 1_555 1_555
C22 C21 1_555 1_555
H18 C22 1_555 1_555
C23 C20 1_555 1_555
H19 C23 1_555 1_555
C24 C16 1_555 1_555
H20 C24 1_555 1_555
H21 C24 1_555 1_555
H22 C24 1_555 1_555
N2 C6 1_555 1_555
C4 C7 1_555 1_555
C5 C10 1_555 1_555
C6 C7 1_555 1_555
C7 C10 1_555 1_555
C15 C16 1_555 1_555
C17 C18 1_555 1_555
C22 C23 1_555 1_555

#END
