
#######################################################################
#
#                 Cambridge Crystallographic Data Centre
#                                CCDC 
#
#######################################################################
#
# If this CIF has been generated from an entry in the Cambridge 
# Structural Database, then it will include bibliographic, chemical, 
# crystal, experimental, refinement or atomic coordinate data resulting 
# from the CCDC's data processing and validation procedures.
#
#######################################################################

data_KUVVAA
_chemical_formula_moiety         'C10 H12 O1'
_chemical_name_systematic        
2-methyl-5-(2-methylprop-2-en-1-ylidene)cyclopent-2-en-1-one
_symmetry_cell_setting           triclinic
_symmetry_space_group_name_H-M   'P -1'
_symmetry_Int_Tables_number      2
_space_group_name_Hall           '-P 1'
loop_
_symmetry_equiv_pos_site_id
_symmetry_equiv_pos_as_xyz
1 x,y,z
2 -x,-y,-z
_cell_length_a                   6.4700(12)
_cell_length_b                   7.714(3)
_cell_length_c                   9.5819(17)
_cell_angle_alpha                94.92(2)
_cell_angle_beta                 98.689(15)
_cell_angle_gamma                110.41(2)
_cell_volume                     438.087
_exptl_crystal_colour            'light colorless'
_exptl_crystal_description       block
_cell_formula_units_Z            2
loop_
_atom_site_label
_atom_site_type_symbol
_atom_site_fract_x
_atom_site_fract_y
_atom_site_fract_z
O1 O 0.4411(3) 0.8448(3) 0.6597(2)
C1 C 0.2423(4) 0.7751(3) 0.6660(2)
C2 C 0.1546(4) 0.6990(3) 0.7890(2)
C3 C -0.0674(4) 0.6342(4) 0.7559(3)
H1 H -0.1579 0.5794 0.8190
C4 C -0.1604(4) 0.6562(4) 0.6094(3)
H2 H -0.258(4) 0.730(3) 0.612(2)
H3 H -0.263(4) 0.528(4) 0.554(3)
C5 C 0.0474(3) 0.7506(3) 0.5514(2)
C6 C 0.0778(4) 0.8106(3) 0.4265(2)
H4 H 0.2272 0.8659 0.4182
C7 C -0.0854(4) 0.8032(3) 0.3019(2)
C8 C -0.0103(6) 0.8738(4) 0.1894(3)
H5 H -0.110(5) 0.874(4) 0.103(3)
H6 H 0.148(5) 0.930(4) 0.189(3)
C9 C -0.3325(4) 0.7189(4) 0.3025(3)
H7 H -0.3712 0.5911 0.3182
H8 H -0.4166 0.7236 0.2122
H9 H -0.3678 0.7882 0.3774
C10 C 0.3067(5) 0.7027(5) 0.9246(3)
H10 H 0.3906 0.6249 0.9066
H11 H 0.2183 0.6567 0.9949
H12 H 0.4086 0.8287 0.9593
loop_
_geom_bond_atom_site_label_1
_geom_bond_atom_site_label_2
_geom_bond_site_symmetry_1
_geom_bond_site_symmetry_2
O1 C1 1_555 1_555
C1 C2 1_555 1_555
C2 C3 1_555 1_555
C3 H1 1_555 1_555
C4 C3 1_555 1_555
H2 C4 1_555 1_555
H3 C4 1_555 1_555
C5 C1 1_555 1_555
C6 C5 1_555 1_555
H4 C6 1_555 1_555
C7 C6 1_555 1_555
C8 C7 1_555 1_555
H5 C8 1_555 1_555
H6 C8 1_555 1_555
C9 C7 1_555 1_555
H7 C9 1_555 1_555
H8 C9 1_555 1_555
H9 C9 1_555 1_555
C10 C2 1_555 1_555
H10 C10 1_555 1_555
H11 C10 1_555 1_555
H12 C10 1_555 1_555
C4 C5 1_555 1_555

#END
