
#######################################################################
#
#                 Cambridge Crystallographic Data Centre
#                                CCDC 
#
#######################################################################
#
# If this CIF has been generated from an entry in the Cambridge 
# Structural Database, then it will include bibliographic, chemical, 
# crystal, experimental, refinement or atomic coordinate data resulting 
# from the CCDC's data processing and validation procedures.
#
#######################################################################

data_KUVVII
_chemical_formula_moiety         'C22 H18 N2 2+,2(B1 F4 1-)'
_chemical_name_systematic        
'1,6-dimethyldibenzo[a,k][3,8]phenanthrolinediium bis(tetrafluoroborate)'
_symmetry_cell_setting           orthorhombic
_symmetry_space_group_name_H-M   'P b c n'
_symmetry_Int_Tables_number      60
_space_group_name_Hall           '-P 2n 2ab'
loop_
_symmetry_equiv_pos_site_id
_symmetry_equiv_pos_as_xyz
1 x,y,z
2 1/2-x,1/2-y,1/2+z
3 -x,y,1/2-z
4 1/2+x,1/2-y,-z
5 -x,-y,-z
6 1/2+x,1/2+y,1/2-z
7 x,-y,1/2+z
8 1/2-x,1/2+y,z
_cell_length_a                   22.1736(5)
_cell_length_b                   8.6842(2)
_cell_length_c                   10.5294(2)
_cell_angle_alpha                90
_cell_angle_beta                 90
_cell_angle_gamma                90
_cell_volume                     2027.54
_exptl_crystal_colour            yellow
_exptl_crystal_description       rectangular
_cell_formula_units_Z            4
loop_
_atom_site_label
_atom_site_type_symbol
_atom_site_fract_x
_atom_site_fract_y
_atom_site_fract_z
C1 C 0.47304(4) 0.34093(10) 0.38201(9)
H1 H 0.5174(7) 0.3348(18) 0.3702(15)
C2 C 0.44347(5) 0.22535(10) 0.44600(10)
H2 H 0.4675(7) 0.1387(18) 0.4784(15)
C3 C 0.38114(5) 0.23446(11) 0.46853(10)
H3 H 0.3610(7) 0.1512(18) 0.5128(14)
C4 C 0.34893(4) 0.36144(11) 0.43030(10)
H4 H 0.3079(7) 0.3704(18) 0.4490(15)
C5 C 0.37896(4) 0.48078(9) 0.36609(8)
C6 C 0.44101(4) 0.47090(9) 0.33728(8)
N1 N 0.34753(3) 0.61390(9) 0.33176(8)
C7 C 0.37634(4) 0.73957(10) 0.29821(9)
H5 H 0.3507(6) 0.8344(17) 0.2851(14)
C8 C 0.43939(4) 0.74129(9) 0.27766(8)
C9 C 0.47012(3) 0.59984(9) 0.27643(8)
C10 C 0.46950(4) 0.88411(9) 0.25747(9)
H6 H 0.4461(7) 0.9807(17) 0.2566(14)
C11 C 0.28093(4) 0.61410(12) 0.33534(12)
H7 H 0.2663(7) 0.6025(17) 0.4259(16)
H8 H 0.2663(7) 0.533(2) 0.2854(17)
H9 H 0.2683(7) 0.7110(19) 0.2973(16)
C1B C 0.52696(4) 0.34093(10) 0.11799(9)
H1B H 0.4826(7) 0.3348(18) 0.1298(15)
C2B C 0.55653(5) 0.22535(10) 0.05400(10)
H2B H 0.5325(7) 0.1387(18) 0.0216(15)
C3B C 0.61886(5) 0.23446(11) 0.03147(10)
H3B H 0.6390(7) 0.1512(18) -0.0128(14)
C4B C 0.65107(4) 0.36144(11) 0.06970(10)
H4B H 0.6921(7) 0.3704(18) 0.0510(15)
C5B C 0.62104(4) 0.48078(9) 0.13391(8)
C6B C 0.55899(4) 0.47090(9) 0.16272(8)
N1B N 0.65247(3) 0.61390(9) 0.16824(8)
C7B C 0.62366(4) 0.73957(10) 0.20179(9)
H5B H 0.6493(6) 0.8344(17) 0.2149(14)
C8B C 0.56061(4) 0.74129(9) 0.22234(8)
C9B C 0.52988(3) 0.59984(9) 0.22357(8)
C10B C 0.53050(4) 0.88411(9) 0.24253(9)
H6B H 0.5539(7) 0.9807(17) 0.2434(14)
C11B C 0.71907(4) 0.61410(12) 0.16466(12)
H7B H 0.7337(7) 0.6025(17) 0.0741(16)
H8B H 0.7337(7) 0.533(2) 0.2146(17)
H9B H 0.7317(7) 0.7110(19) 0.2027(16)
B1 B 0.34156(5) 0.83491(12) 0.60355(11)
F1 F 0.32195(7) 0.68978(10) 0.63492(9)
F2 F 0.40000(4) 0.83065(16) 0.55750(9)
F3 F 0.30441(3) 0.89423(8) 0.50934(8)
F4 F 0.34032(3) 0.92990(8) 0.70959(7)
loop_
_geom_bond_atom_site_label_1
_geom_bond_atom_site_label_2
_geom_bond_site_symmetry_1
_geom_bond_site_symmetry_2
C1 H1 1_555 1_555
C2 C1 1_555 1_555
H2 C2 1_555 1_555
C3 C2 1_555 1_555
H3 C3 1_555 1_555
C4 C3 1_555 1_555
H4 C4 1_555 1_555
C5 C4 1_555 1_555
C6 C1 1_555 1_555
N1 C5 1_555 1_555
C7 N1 1_555 1_555
H5 C7 1_555 1_555
C8 C7 1_555 1_555
C9 C6 1_555 1_555
C10 C8 1_555 1_555
H6 C10 1_555 1_555
C11 N1 1_555 1_555
H7 C11 1_555 1_555
H8 C11 1_555 1_555
H9 C11 1_555 1_555
B1 F1 1_555 1_555
F2 B1 1_555 1_555
F3 B1 1_555 1_555
F4 B1 1_555 1_555
C1B H1B 1_555 1_555
C2B C1B 1_555 1_555
H2B C2B 1_555 1_555
C3B C2B 1_555 1_555
H3B C3B 1_555 1_555
C4B C3B 1_555 1_555
H4B C4B 1_555 1_555
C5B C4B 1_555 1_555
C6B C1B 1_555 1_555
N1B C5B 1_555 1_555
C7B N1B 1_555 1_555
H5B C7B 1_555 1_555
C8B C7B 1_555 1_555
C9B C9 1_555 1_555
C10B C10 1_555 1_555
H6B C10B 1_555 1_555
C11B N1B 1_555 1_555
H7B C11B 1_555 1_555
H8B C11B 1_555 1_555
H9B C11B 1_555 1_555
C5 C6 1_555 1_555
C8 C9 1_555 1_555
C5B C6B 1_555 1_555
C6B C9B 1_555 1_555
C8B C9B 1_555 1_555
C8B C10B 1_555 1_555

#END
