
#######################################################################
#
#                 Cambridge Crystallographic Data Centre
#                                CCDC 
#
#######################################################################
#
# If this CIF has been generated from an entry in the Cambridge 
# Structural Database, then it will include bibliographic, chemical, 
# crystal, experimental, refinement or atomic coordinate data resulting 
# from the CCDC's data processing and validation procedures.
#
#######################################################################

data_KUVZIM
_chemical_formula_moiety         'C18 H17 N1 O5 S1'
_chemical_name_systematic        
'Methyl 5-methyl-2-(1-((4-methylphenyl)sulfonyl)-1H-pyrrol-3-yl)-3-furoate'
_symmetry_cell_setting           triclinic
_symmetry_space_group_name_H-M   'P -1'
_symmetry_Int_Tables_number      2
_space_group_name_Hall           '-P 1'
loop_
_symmetry_equiv_pos_site_id
_symmetry_equiv_pos_as_xyz
1 x,y,z
2 -x,-y,-z
_cell_length_a                   8.6539(17)
_cell_length_b                   8.7824(18)
_cell_length_c                   12.894(3)
_cell_angle_alpha                100.90(3)
_cell_angle_beta                 90.99(3)
_cell_angle_gamma                107.77(3)
_cell_volume                     913.427
_exptl_crystal_colour            colorless
_exptl_crystal_description       Prism
_cell_formula_units_Z            2
loop_
_atom_site_label
_atom_site_type_symbol
_atom_site_fract_x
_atom_site_fract_y
_atom_site_fract_z
S1 S 0.27689(19) 0.20988(18) 0.36261(13)
O1 O 0.1759(6) 0.0581(5) 0.3866(3)
O2 O 0.4295(6) 0.3013(6) 0.4248(4)
O3 O 0.6705(5) 0.4374(5) 0.0679(4)
O4 O 0.4783(7) 0.1568(7) -0.2746(5)
O5 O 0.3118(8) 0.0439(8) -0.1662(4)
N1 N 0.3246(6) 0.1611(6) 0.2389(4)
C1 C -0.1311(8) 0.6636(8) 0.3399(5)
H1 H -0.1665 0.6561 0.2675
H2 H -0.0678 0.7743 0.3702
H3 H -0.2243 0.6308 0.3794
C2 C -0.0286(7) 0.5532(7) 0.3438(4)
C3 C 0.1264(8) 0.6109(7) 0.3988(5)
H4 H 0.1664 0.7201 0.4328
C4 C 0.2230(7) 0.5098(7) 0.4045(5)
H5 H 0.3256 0.5516 0.4409
C5 C 0.1618(6) 0.3429(6) 0.3538(4)
C6 C 0.0067(7) 0.2823(7) 0.2983(5)
H6 H -0.0341 0.1730 0.2646
C7 C -0.0847(7) 0.3856(7) 0.2943(5)
H7 H -0.1871 0.3436 0.2577
C8 C 0.2351(8) 0.0247(7) 0.1608(5)
H8 H 0.1507 -0.0639 0.1726
C9 C 0.2943(9) 0.0456(8) 0.0640(6)
H9 H 0.2595 -0.0256 -0.0011
C10 C 0.4222(7) 0.2020(8) 0.0852(6)
C11 C 0.4391(7) 0.2704(8) 0.1903(6)
H10 H 0.5124 0.3703 0.2235
C12 C 0.5281(9) 0.2838(9) 0.0083(7)
C13 C 0.5467(8) 0.2773(8) -0.0947(4)
C14 C 0.6842(10) 0.4032(11) -0.1117(8)
H11 H 0.7231 0.4180 -0.1770
C15 C 0.7482(10) 0.4966(10) -0.0188(6)
C16 C 0.8964(9) 0.6552(9) 0.0165(6)
H12 H 0.9457 0.6889 -0.0450
H13 H 0.9748 0.6338 0.0605
H14 H 0.8597 0.7403 0.0557
C17 C 0.4271(10) 0.1407(10) -0.1787(7)
C18 C 0.3823(9) 0.0423(9) -0.3650(5)
H15 H 0.3834 -0.0657 -0.3618
H16 H 0.4271 0.0710 -0.4288
H17 H 0.2723 0.0452 -0.3645
loop_
_geom_bond_atom_site_label_1
_geom_bond_atom_site_label_2
_geom_bond_site_symmetry_1
_geom_bond_site_symmetry_2
S1 O1 1_555 1_555
O2 S1 1_555 1_555
O3 C12 1_555 1_555
O4 C17 1_555 1_555
O5 C17 1_555 1_555
N1 S1 1_555 1_555
C1 H1 1_555 1_555
H2 C1 1_555 1_555
H3 C1 1_555 1_555
C2 C1 1_555 1_555
C3 C2 1_555 1_555
H4 C3 1_555 1_555
C4 C3 1_555 1_555
H5 C4 1_555 1_555
C5 S1 1_555 1_555
C6 C5 1_555 1_555
H6 C6 1_555 1_555
C7 C2 1_555 1_555
H7 C7 1_555 1_555
C8 N1 1_555 1_555
H8 C8 1_555 1_555
C9 C8 1_555 1_555
H9 C9 1_555 1_555
C10 C9 1_555 1_555
C11 N1 1_555 1_555
H10 C11 1_555 1_555
C12 C10 1_555 1_555
C13 C12 1_555 1_555
C14 C13 1_555 1_555
H11 C14 1_555 1_555
C15 O3 1_555 1_555
C16 C15 1_555 1_555
H12 C16 1_555 1_555
H13 C16 1_555 1_555
H14 C16 1_555 1_555
C17 C13 1_555 1_555
C18 O4 1_555 1_555
H15 C18 1_555 1_555
H16 C18 1_555 1_555
H17 C18 1_555 1_555
C4 C5 1_555 1_555
C6 C7 1_555 1_555
C10 C11 1_555 1_555
C14 C15 1_555 1_555

#END
