
#######################################################################
#
#                 Cambridge Crystallographic Data Centre
#                                CCDC 
#
#######################################################################
#
# If this CIF has been generated from an entry in the Cambridge 
# Structural Database, then it will include bibliographic, chemical, 
# crystal, experimental, refinement or atomic coordinate data resulting 
# from the CCDC's data processing and validation procedures.
#
#######################################################################

data_KUWWOQ
_chemical_name_common            
"N,N'-bis(n-butyl)-1,6-bis(trifluoromethyl)perylene-3,4:9,10-tetracarboxylic acid  diimide dichloromethane solvate"
_chemical_formula_moiety         'C34 H24 F6 N2 O4,0.5(C1 H2 Cl2)'
_chemical_name_systematic        
"2,9-dibutyl-5,13-bis(trifluoromethyl)isoquinolino[4',5',6':6,5,10]anthra[2,1,9-def]isoquinoline-1,3,8,10(2H,9H)-tetrone dichloromethane solvate"
_symmetry_cell_setting           triclinic
_symmetry_space_group_name_H-M   'P -1'
_symmetry_Int_Tables_number      2
_space_group_name_Hall           '-P 1'
loop_
_symmetry_equiv_pos_site_id
_symmetry_equiv_pos_as_xyz
1 x,y,z
2 -x,-y,-z
_cell_length_a                   12.3437(3)
_cell_length_b                   15.8240(5)
_cell_length_c                   17.2377(5)
_cell_angle_alpha                96.556(2)
_cell_angle_beta                 109.2850(10)
_cell_angle_gamma                109.9170(10)
_cell_volume                     2888.84
_exptl_crystal_colour            orange
_exptl_crystal_description       rhombohedral
_cell_formula_units_Z            4
_exptl_crystal_recrystallization_method dichloromethane
loop_
_atom_site_label
_atom_site_type_symbol
_atom_site_fract_x
_atom_site_fract_y
_atom_site_fract_z
C1 C 0.67953(16) 0.59275(13) 0.14745(12)
C2 C 0.74411(17) 0.59642(13) 0.09324(12)
H1 H 0.8135 0.5793 0.1077
C3 C 0.70805(17) 0.62445(13) 0.01971(12)
C4 C 0.56186(17) 0.67119(13) -0.08083(12)
C5 C 0.46355(18) 0.69807(13) -0.10115(12)
H2 H 0.4437 0.7224 -0.1494
C6 C 0.20722(17) 0.60062(13) 0.03021(12)
H3 H 0.1658 0.5915 -0.0292
C7 C 0.13702(17) 0.58775(13) 0.08052(12)
H4 H 0.0488 0.5694 0.0550
C8 C 0.19532(17) 0.60153(13) 0.16652(12)
C9 C 0.38588(17) 0.63850(13) 0.29298(12)
C10 C 0.51241(17) 0.65887(13) 0.32864(12)
H5 H 0.5552 0.6754 0.3887
C11 C 0.57806(17) 0.65532(13) 0.27684(12)
H6 H 0.6645 0.6670 0.3024
C12 C 0.52009(17) 0.63517(12) 0.18875(12)
C13 C 0.57968(16) 0.62119(12) 0.12983(12)
C14 C 0.53233(17) 0.63976(12) 0.04832(12)
C15 C 0.41771(17) 0.65343(13) 0.01894(11)
C16 C 0.33607(17) 0.62638(13) 0.06539(12)
C17 C 0.39427(16) 0.62772(12) 0.15220(12)
C18 C 0.32486(16) 0.62194(12) 0.20398(12)
C19 C 0.39187(17) 0.69020(13) -0.05176(12)
C20 C 0.60063(16) 0.64491(12) -0.00440(12)
C21 C 0.31498(17) 0.63717(13) 0.34793(12)
C22 C 0.12134(17) 0.59207(13) 0.21974(13)
C23 C 0.78111(17) 0.63141(13) -0.03459(12)
C24 C 0.62841(17) 0.67310(13) -0.13879(12)
C25 C 0.11052(18) 0.60022(14) 0.35936(13)
H7 H 0.0501 0.6289 0.3387
H8 H 0.1668 0.6347 0.4190
C26 C 0.03911(19) 0.49914(15) 0.35608(14)
H9 H -0.0180 0.4972 0.3855
H10 H -0.0136 0.4648 0.2959
C27 C 0.1199(2) 0.44850(15) 0.39546(14)
H11 H 0.0661 0.3813 0.3799
H12 H 0.1835 0.4563 0.3708
C28 C 0.1865(2) 0.48205(18) 0.49157(15)
H13 H 0.2394 0.5487 0.5078
H14 H 0.2388 0.4481 0.5121
H15 H 0.1242 0.4710 0.5169
C29 C 0.8030(2) 0.65793(16) -0.16799(13)
H16 H 0.7427 0.6263 -0.2275
H17 H 0.8594 0.6252 -0.1515
C30 C 0.8823(2) 0.76103(19) -0.16244(15)
H18 H 0.8253 0.7923 -0.1835
H19 H 0.9377 0.7941 -0.1023
C31 C 0.9604(2) 0.7669(2) -0.21359(18)
H20 H 0.9052 0.7335 -0.2737
H21 H 1.0182 0.7363 -0.1922
C32 C 1.0364(3) 0.8679(3) -0.2083(2)
H22 H 0.9792 0.8975 -0.2317
H23 H 1.0883 0.8699 -0.2411
H24 H 1.0904 0.9012 -0.1488
C33 C 0.29026(18) 0.72676(14) -0.08066(12)
C34 C 0.72216(17) 0.55199(13) 0.22150(12)
F1 F 0.77085(10) 0.49272(8) 0.20242(8)
F2 F 0.81304(10) 0.61711(8) 0.29237(7)
F3 F 0.62954(10) 0.50379(8) 0.24349(7)
F4 F 0.26504(11) 0.76236(8) -0.01781(7)
F5 F 0.18102(11) 0.66134(9) -0.13874(7)
F6 F 0.32480(12) 0.79560(9) -0.11775(8)
O1 O 0.87723(12) 0.61883(10) -0.01302(9)
O2 O 0.59276(13) 0.69135(11) -0.20690(9)
O3 O 0.00847(13) 0.56965(11) 0.18920(9)
O4 O 0.36728(13) 0.65901(10) 0.42512(9)
N1 N 0.73370(15) 0.65193(11) -0.11204(10)
N2 N 0.18570(14) 0.60848(11) 0.30702(10)
C35 C 0.98538(17) 0.82817(13) 0.41570(12)
C36 C 1.04540(17) 0.81489(13) 0.36170(12)
H25 H 1.1139 0.7971 0.3812
C37 C 1.00624(17) 0.82727(13) 0.28126(12)
C38 C 0.85960(17) 0.85879(13) 0.16668(12)
C39 C 0.76357(17) 0.88720(13) 0.13836(12)
H26 H 0.7389 0.8967 0.0828
C40 C 0.70081(17) 0.90264(13) 0.18969(12)
C41 C 0.52857(17) 0.86432(12) 0.28957(12)
H27 H 0.4852 0.8516 0.2298
C42 C 0.46288(17) 0.86556(13) 0.34225(12)
H28 H 0.3756 0.8513 0.3178
C43 C 0.52460(17) 0.88738(12) 0.42896(12)
C44 C 0.71745(17) 0.92761(12) 0.55413(12)
C45 C 0.84157(18) 0.94201(13) 0.58884(12)
H29 H 0.8875 0.9645 0.6486
C46 C 0.90061(17) 0.92348(13) 0.53614(12)
H30 H 0.9860 0.9322 0.5611
C47 C 0.83743(16) 0.89282(12) 0.44861(12)
C48 C 0.88946(16) 0.86071(12) 0.39119(11)
C49 C 0.83969(16) 0.86503(12) 0.30423(12)
C50 C 0.72997(16) 0.88437(12) 0.27033(11)
C51 C 0.65499(17) 0.88116(12) 0.32237(12)
C52 C 0.71581(17) 0.89271(12) 0.41133(12)
C53 C 0.65261(17) 0.90304(12) 0.46514(12)
C54 C 0.90144(16) 0.84993(12) 0.25058(11)
C55 C 0.92340(17) 0.84404(13) 0.11004(12)
C56 C 1.07307(17) 0.81374(13) 0.22685(12)
C57 C 0.65207(18) 0.93556(13) 0.61129(13)
C58 C 0.45547(17) 0.88927(13) 0.48489(12)
C59 C 1.10223(18) 0.81805(14) 0.09324(13)
H31 H 1.0476 0.8033 0.0324
H32 H 1.1278 0.7659 0.1024
C60 C 1.21876(18) 0.90702(14) 0.11537(13)
H33 H 1.2687 0.9245 0.1774
H34 H 1.2707 0.8941 0.0864
C61 C 1.1914(2) 0.98934(15) 0.09092(14)
H35 H 1.1369 0.9713 0.0296
H36 H 1.1453 1.0060 0.1232
C62 C 1.3110(2) 1.07362(16) 0.10889(16)
H37 H 1.3625 1.0943 0.1701
H38 H 1.2894 1.1240 0.0898
H39 H 1.3581 1.0568 0.0784
C63 C 0.45147(18) 0.90125(13) 0.62694(13)
H40 H 0.3816 0.9206 0.6035
H41 H 0.5068 0.9420 0.6848
C64 C 0.39961(19) 0.80031(14) 0.63115(13)
H42 H 0.3443 0.7603 0.5730
H43 H 0.4701 0.7812 0.6532
C65 C 0.32598(19) 0.78502(14) 0.68758(13)
H44 H 0.2653 0.8143 0.6724
H45 H 0.3843 0.8153 0.7477
C66 C 0.2558(2) 0.68191(15) 0.67783(14)
H46 H 0.1947 0.6525 0.6191
H47 H 0.2119 0.6744 0.7164
H48 H 0.3156 0.6525 0.6918
C67 C 0.60845(18) 0.94472(14) 0.15203(12)
C68 C 1.03010(19) 0.80071(14) 0.49797(13)
F7 F 0.93938(12) 0.76364(9) 0.52569(8)
F8 F 1.12455(11) 0.87259(9) 0.56214(7)
F9 F 1.07598(13) 0.73635(9) 0.48872(8)
F10 F 0.60124(11) 1.00360(8) 0.21020(7)
F11 F 0.49110(10) 0.87973(9) 0.10625(7)
F12 F 0.64007(12) 0.99284(9) 0.09828(8)
O5 O 0.34383(13) 0.87239(11) 0.45624(9)
O6 O 0.70672(14) 0.95944(11) 0.68810(9)
O7 O 1.16106(12) 0.79099(10) 0.25105(9)
O8 O 0.88391(13) 0.84692(10) 0.03622(9)
N3 N 1.03048(14) 0.82699(11) 0.14546(10)
N4 N 0.52314(15) 0.91078(11) 0.57225(10)
C69 C 0.5507(2) 0.63633(16) 0.59488(14)
H49 H 0.5496 0.6719 0.6455
H50 H 0.4731 0.6249 0.5457
Cl1 Cl 0.55288(6) 0.52920(4) 0.61147(4)
Cl2 Cl 0.68236(7) 0.70279(5) 0.57575(5)
loop_
_geom_bond_atom_site_label_1
_geom_bond_atom_site_label_2
_geom_bond_site_symmetry_1
_geom_bond_site_symmetry_2
C1 C2 1_555 1_555
C2 H1 1_555 1_555
C3 C2 1_555 1_555
C4 C5 1_555 1_555
C5 H2 1_555 1_555
C6 H3 1_555 1_555
C7 C6 1_555 1_555
H4 C7 1_555 1_555
C8 C7 1_555 1_555
C9 C10 1_555 1_555
C10 H5 1_555 1_555
C11 C10 1_555 1_555
H6 C11 1_555 1_555
C12 C11 1_555 1_555
C13 C1 1_555 1_555
C14 C13 1_555 1_555
C15 C14 1_555 1_555
C16 C6 1_555 1_555
C17 C12 1_555 1_555
C18 C8 1_555 1_555
C19 C5 1_555 1_555
C20 C3 1_555 1_555
C21 C9 1_555 1_555
C22 C8 1_555 1_555
C23 C3 1_555 1_555
C24 C4 1_555 1_555
C25 H7 1_555 1_555
H8 C25 1_555 1_555
C26 C25 1_555 1_555
H9 C26 1_555 1_555
H10 C26 1_555 1_555
C27 C26 1_555 1_555
H11 C27 1_555 1_555
H12 C27 1_555 1_555
C28 C27 1_555 1_555
H13 C28 1_555 1_555
H14 C28 1_555 1_555
H15 C28 1_555 1_555
C29 H16 1_555 1_555
H17 C29 1_555 1_555
C30 C29 1_555 1_555
H18 C30 1_555 1_555
H19 C30 1_555 1_555
C31 C30 1_555 1_555
H20 C31 1_555 1_555
H21 C31 1_555 1_555
C32 C31 1_555 1_555
H22 C32 1_555 1_555
H23 C32 1_555 1_555
H24 C32 1_555 1_555
C33 C19 1_555 1_555
C34 C1 1_555 1_555
F1 C34 1_555 1_555
F2 C34 1_555 1_555
F3 C34 1_555 1_555
F4 C33 1_555 1_555
F5 C33 1_555 1_555
F6 C33 1_555 1_555
O1 C23 1_555 1_555
O2 C24 1_555 1_555
O3 C22 1_555 1_555
O4 C21 1_555 1_555
N1 C23 1_555 1_555
N2 C21 1_555 1_555
C35 C36 1_555 1_555
C36 H25 1_555 1_555
C37 C36 1_555 1_555
C38 C39 1_555 1_555
C39 H26 1_555 1_555
C40 C39 1_555 1_555
C41 H27 1_555 1_555
C42 C41 1_555 1_555
H28 C42 1_555 1_555
C43 C42 1_555 1_555
C44 C45 1_555 1_555
C45 H29 1_555 1_555
C46 C45 1_555 1_555
H30 C46 1_555 1_555
C47 C46 1_555 1_555
C48 C35 1_555 1_555
C49 C48 1_555 1_555
C50 C40 1_555 1_555
C51 C41 1_555 1_555
C52 C47 1_555 1_555
C53 C43 1_555 1_555
C54 C37 1_555 1_555
C55 C38 1_555 1_555
C56 C37 1_555 1_555
C57 C44 1_555 1_555
C58 C43 1_555 1_555
C59 H31 1_555 1_555
H32 C59 1_555 1_555
C60 C59 1_555 1_555
H33 C60 1_555 1_555
H34 C60 1_555 1_555
C61 C60 1_555 1_555
H35 C61 1_555 1_555
H36 C61 1_555 1_555
C62 C61 1_555 1_555
H37 C62 1_555 1_555
H38 C62 1_555 1_555
H39 C62 1_555 1_555
C63 H40 1_555 1_555
H41 C63 1_555 1_555
C64 C63 1_555 1_555
H42 C64 1_555 1_555
H43 C64 1_555 1_555
C65 C64 1_555 1_555
H44 C65 1_555 1_555
H45 C65 1_555 1_555
C66 C65 1_555 1_555
H46 C66 1_555 1_555
H47 C66 1_555 1_555
H48 C66 1_555 1_555
C67 C40 1_555 1_555
C68 C35 1_555 1_555
F7 C68 1_555 1_555
F8 C68 1_555 1_555
F9 C68 1_555 1_555
F10 C67 1_555 1_555
F11 C67 1_555 1_555
F12 C67 1_555 1_555
O5 C58 1_555 1_555
O6 C57 1_555 1_555
O7 C56 1_555 1_555
O8 C55 1_555 1_555
N3 C55 1_555 1_555
N4 C57 1_555 1_555
C69 H49 1_555 1_555
H50 C69 1_555 1_555
Cl1 C69 1_555 1_555
Cl2 C69 1_555 1_555
C4 C20 1_555 1_555
C9 C18 1_555 1_555
C12 C13 1_555 1_555
C14 C20 1_555 1_555
C15 C16 1_555 1_555
C15 C19 1_555 1_555
C16 C17 1_555 1_555
C17 C18 1_555 1_555
C22 N2 1_555 1_555
C24 N1 1_555 1_555
C25 N2 1_555 1_555
C29 N1 1_555 1_555
C38 C54 1_555 1_555
C44 C53 1_555 1_555
C47 C48 1_555 1_555
C49 C50 1_555 1_555
C49 C54 1_555 1_555
C50 C51 1_555 1_555
C51 C52 1_555 1_555
C52 C53 1_555 1_555
C56 N3 1_555 1_555
C58 N4 1_555 1_555
C59 N3 1_555 1_555
C63 N4 1_555 1_555

#END
