
#######################################################################
#
#                 Cambridge Crystallographic Data Centre
#                                CCDC 
#
#######################################################################
#
# If this CIF has been generated from an entry in the Cambridge 
# Structural Database, then it will include bibliographic, chemical, 
# crystal, experimental, refinement or atomic coordinate data resulting 
# from the CCDC's data processing and validation procedures.
#
#######################################################################

data_KUWWEG
_chemical_name_common            
"N,N'-bis(n-butyl)-1,7-bis(trifluoromethyl)-5-cyanoperylene-3,4:9,10- tetracarboxylic acid diimide toluene solvate"
_chemical_formula_moiety         'C35 H23 F6 N3 O4,0.5(C7 H8)'
_chemical_name_systematic        
"2,9-dibutyl-1,3,8,10-tetraoxo-6,13-bis(trifluoromethyl)-1,2,3,8,9,10-hexahydroisoquinolino[4',5',6':6,5,10]anthra[2,1,9-def]isoquinoline-4-carbonitrile toluene solvate"
_symmetry_cell_setting           triclinic
_symmetry_space_group_name_H-M   'P -1'
_symmetry_Int_Tables_number      2
_space_group_name_Hall           '-P 1'
loop_
_symmetry_equiv_pos_site_id
_symmetry_equiv_pos_as_xyz
1 x,y,z
2 -x,-y,-z
_cell_length_a                   11.2630(3)
_cell_length_b                   11.4003(3)
_cell_length_c                   14.3874(4)
_cell_angle_alpha                107.9800(10)
_cell_angle_beta                 94.3410(10)
_cell_angle_gamma                114.4940(10)
_cell_volume                     1554.11
_exptl_crystal_colour            orange
_exptl_crystal_description       rhombohedral
_cell_formula_units_Z            2
_exptl_crystal_recrystallization_method toluene
loop_
_atom_site_label
_atom_site_type_symbol
_atom_site_fract_x
_atom_site_fract_y
_atom_site_fract_z
F1 F 0.40083(10) 0.16419(11) 0.35363(8)
F2 F 0.46066(10) 0.32588(11) 0.49874(7)
F3 F 0.57615(11) 0.35801(10) 0.38721(8)
F4 F 0.70291(10) 0.10460(10) 0.83851(7)
F5 F 0.89247(10) 0.24264(11) 0.94635(8)
F6 F 0.71035(11) 0.24008(11) 0.98292(8)
O1 O 0.54979(13) -0.17103(13) 0.25561(9)
O2 O 0.86726(14) -0.17504(14) 0.46729(10)
O3 O 0.84289(13) 0.72461(13) 1.08277(9)
O4 O 0.80701(13) 0.89438(13) 0.83967(10)
N1 N 0.71235(15) -0.17093(15) 0.36006(11)
N2 N 0.82822(14) 0.81174(14) 0.96187(11)
N3 N 1.03632(16) -0.03827(17) 0.68889(12)
C1 C 0.77430(17) 0.23253(19) 0.90790(13)
C2 C 0.59179(17) 0.20537(17) 0.46360(13)
C3 C 0.57474(17) 0.07823(18) 0.39363(13)
H1 H 0.5133 0.0372 0.3302
C4 C 0.64508(17) 0.01271(17) 0.41532(12)
C5 C 0.80011(17) -0.00160(17) 0.53424(13)
C6 C 0.87651(16) 0.05008(17) 0.63155(13)
C7 C 0.87085(17) 0.15821(17) 0.70864(13)
H2 H 0.9198 0.1884 0.7754
C8 C 0.79038(16) 0.34664(17) 0.86953(13)
C9 C 0.80400(16) 0.46975(18) 0.94163(13)
H3 H 0.8107 0.4792 1.0100
C10 C 0.80787(16) 0.57712(17) 0.91490(13)
C11 C 0.78254(16) 0.66563(17) 0.78392(13)
C12 C 0.75966(17) 0.64567(18) 0.68361(13)
H4 H 0.7659 0.7202 0.6644
C13 C 0.50867(18) 0.26419(18) 0.42677(13)
C14 C 0.72722(17) 0.51647(18) 0.60952(13)
H5 H 0.7090 0.5042 0.5407
C15 C 0.72113(16) 0.40586(17) 0.63437(12)
C16 C 0.67748(16) 0.26515(17) 0.55950(12)
C17 C 0.73266(16) 0.18440(17) 0.58737(12)
C18 C 0.79521(16) 0.22152(17) 0.68910(12)
C19 C 0.78154(16) 0.33035(17) 0.76816(12)
C20 C 0.76286(16) 0.43091(17) 0.73815(12)
C21 C 0.78453(16) 0.55814(17) 0.81244(13)
C22 C 0.72622(16) 0.06513(17) 0.51247(12)
C23 C 0.62983(18) -0.11606(18) 0.33668(13)
C24 C 0.79784(18) -0.12130(18) 0.45331(13)
C25 C 0.82778(16) 0.70824(18) 0.99393(13)
C26 C 0.80626(17) 0.79900(18) 0.86123(14)
C27 C 0.70927(19) -0.29027(18) 0.27840(13)
H6 H 0.7988 -0.2869 0.2875
H7 H 0.6887 -0.2832 0.2128
C28 C 0.6048(2) -0.42777(19) 0.27780(14)
H8 H 0.5161 -0.4291 0.2716
H9 H 0.6276 -0.4359 0.3426
C29 C 0.5958(2) -0.5525(2) 0.19172(15)
H10 H 0.6858 -0.5482 0.1961
H11 H 0.5348 -0.6390 0.1999
C30 C 0.5462(2) -0.5593(2) 0.08957(14)
H12 H 0.5358 -0.6451 0.0383
H13 H 0.6111 -0.4789 0.0779
H14 H 0.4594 -0.5584 0.0857
C31 C 0.84879(17) 0.94360(18) 1.03931(13)
H15 H 0.9003 1.0216 1.0185
H16 H 0.9027 0.9588 1.1035
C32 C 0.71754(17) 0.94428(18) 1.05615(14)
H17 H 0.6650 0.8658 1.0762
H18 H 0.6642 0.9315 0.9926
C33 C 0.74305(18) 1.08058(18) 1.13766(13)
H19 H 0.7878 1.0880 1.2027
H20 H 0.8046 1.1592 1.1212
C34 C 0.61456(19) 1.0918(2) 1.14860(14)
H21 H 0.5741 1.0932 1.0865
H22 H 0.6353 1.1777 1.2048
H23 H 0.5515 1.0117 1.1616
C35 C 0.96306(18) -0.00443(18) 0.65967(13)
C36 C 0.9101(13) 0.4487(16) 0.3353(9)
H24 H 0.9595 0.4110 0.2925
H25 H 0.9167 0.5325 0.3259
H26 H 0.8155 0.3791 0.3169
C37 C 0.9671(4) 0.4834(5) 0.4400(4)
C38 C 1.0045(13) 0.6176(13) 0.5103(9)
H27 H 0.9904 0.6839 0.4905
C39 C 1.0604(5) 0.6488(5) 0.6059(4)
H28 H 1.0875 0.7406 0.6517
C40 C 1.0826(11) 0.5602(13) 0.6443(11)
H29 H 1.1198 0.5883 0.7137
C41 C 1.0481(6) 0.4313(7) 0.5773(6)
H30 H 1.0644 0.3676 0.5991
C42 C 0.9880(17) 0.3907(16) 0.4753(10)
H31 H 0.9614 0.2987 0.4300
C36A C 1.0899(13) 0.5513(16) 0.6647(9)
H24A H 1.0405 0.5890 0.7075
H25A H 1.0833 0.4675 0.6741
H26A H 1.1845 0.6209 0.6831
C37A C 1.0329(4) 0.5166(5) 0.5600(4)
C38A C 0.9955(13) 0.3824(13) 0.4897(9)
H27A H 1.0096 0.3161 0.5095
C39A C 0.9396(5) 0.3512(5) 0.3941(4)
H28A H 0.9125 0.2594 0.3483
C40A C 0.9174(11) 0.4398(13) 0.3557(11)
H29A H 0.8802 0.4117 0.2863
C41A C 0.9519(6) 0.5687(7) 0.4227(6)
H30A H 0.9356 0.6324 0.4009
C42A C 1.0120(17) 0.6093(16) 0.5247(10)
H31A H 1.0386 0.7013 0.5700
loop_
_geom_bond_atom_site_label_1
_geom_bond_atom_site_label_2
_geom_bond_site_symmetry_1
_geom_bond_site_symmetry_2
F1 C13 1_555 1_555
F2 C13 1_555 1_555
F3 C13 1_555 1_555
F4 C1 1_555 1_555
F5 C1 1_555 1_555
F6 C1 1_555 1_555
O1 C23 1_555 1_555
O2 C24 1_555 1_555
O3 C25 1_555 1_555
O4 C26 1_555 1_555
N1 C23 1_555 1_555
N2 C25 1_555 1_555
N3 C35 1_555 1_555
C1 C8 1_555 1_555
C2 C3 1_555 1_555
C3 H1 1_555 1_555
C4 C3 1_555 1_555
C5 C6 1_555 1_555
C6 C7 1_555 1_555
C7 H2 1_555 1_555
C8 C9 1_555 1_555
C9 H3 1_555 1_555
C10 C9 1_555 1_555
C11 C12 1_555 1_555
C12 H4 1_555 1_555
C13 C2 1_555 1_555
C14 C12 1_555 1_555
H5 C14 1_555 1_555
C15 C14 1_555 1_555
C16 C2 1_555 1_555
C17 C16 1_555 1_555
C18 C7 1_555 1_555
C19 C8 1_555 1_555
C20 C15 1_555 1_555
C21 C10 1_555 1_555
C22 C4 1_555 1_555
C23 C4 1_555 1_555
C24 N1 1_555 1_555
C25 C10 1_555 1_555
C26 N2 1_555 1_555
C27 N1 1_555 1_555
H6 C27 1_555 1_555
H7 C27 1_555 1_555
C28 C27 1_555 1_555
H8 C28 1_555 1_555
H9 C28 1_555 1_555
C29 C28 1_555 1_555
H10 C29 1_555 1_555
H11 C29 1_555 1_555
C30 C29 1_555 1_555
H12 C30 1_555 1_555
H13 C30 1_555 1_555
H14 C30 1_555 1_555
C31 N2 1_555 1_555
H15 C31 1_555 1_555
H16 C31 1_555 1_555
C32 C31 1_555 1_555
H17 C32 1_555 1_555
H18 C32 1_555 1_555
C33 C32 1_555 1_555
H19 C33 1_555 1_555
H20 C33 1_555 1_555
C34 C33 1_555 1_555
H21 C34 1_555 1_555
H22 C34 1_555 1_555
H23 C34 1_555 1_555
C35 C6 1_555 1_555
C36 H24 1_555 1_555
H25 C36 1_555 1_555
H26 C36 1_555 1_555
C37 C36 1_555 1_555
C38 C37 1_555 1_555
H27 C38 1_555 1_555
C39 C38 1_555 1_555
H28 C39 1_555 1_555
C40 C39 1_555 1_555
H29 C40 1_555 1_555
C41 C40 1_555 1_555
H30 C41 1_555 1_555
C42 C37 1_555 1_555
H31 C42 1_555 1_555
C36A H24A 1_555 1_555
H25A C36A 1_555 1_555
H26A C36A 1_555 1_555
C37A C36A 1_555 1_555
C38A C37A 1_555 1_555
H27A C38A 1_555 1_555
C39A C38A 1_555 1_555
H28A C39A 1_555 1_555
C40A C39A 1_555 1_555
H29A C40A 1_555 1_555
C41A C40A 1_555 1_555
H30A C41A 1_555 1_555
C42A C37A 1_555 1_555
H31A C42A 1_555 1_555
C5 C22 1_555 1_555
C5 C24 1_555 1_555
C11 C21 1_555 1_555
C11 C26 1_555 1_555
C15 C16 1_555 1_555
C17 C18 1_555 1_555
C17 C22 1_555 1_555
C18 C19 1_555 1_555
C19 C20 1_555 1_555
C20 C21 1_555 1_555
C41 C42 1_555 1_555
C41A C42A 1_555 1_555

#END
