
#######################################################################
#
#                 Cambridge Crystallographic Data Centre
#                                CCDC 
#
#######################################################################
#
# If this CIF has been generated from an entry in the Cambridge 
# Structural Database, then it will include bibliographic, chemical, 
# crystal, experimental, refinement or atomic coordinate data resulting 
# from the CCDC's data processing and validation procedures.
#
#######################################################################

data_KUWXOR
_chemical_name_common            
"N,N'-bis(heptafluorobutyl)-1,5,7-tris(trifluoromethyl)perylene-3,4:9,10- tetracarboxylic acid diimide"
_chemical_formula_moiety         'C35 H9 F23 N2 O4'
_chemical_name_systematic        
2,9-bis(2,2,3,3,4,4,4-heptafluorobutyl)-4,6,13-tris(trifluoromethyl)isoquinolino[4',5',6':6,5,10]anthra[2,1,9-def]isoquinoline-1,3,8,10(2H,9H)-tetrone
_symmetry_cell_setting           monoclinic
_symmetry_space_group_name_H-M   'P 21/n'
_symmetry_Int_Tables_number      14
_space_group_name_Hall           '-P 2yn'
loop_
_symmetry_equiv_pos_site_id
_symmetry_equiv_pos_as_xyz
1 x,y,z
2 1/2-x,1/2+y,1/2-z
3 -x,-y,-z
4 1/2+x,1/2-y,1/2+z
_cell_length_a                   12.3786(5)
_cell_length_b                   15.6968(7)
_cell_length_c                   18.1259(8)
_cell_angle_alpha                90
_cell_angle_beta                 97.0251(10)
_cell_angle_gamma                90
_cell_volume                     3495.5
_exptl_crystal_colour            orange
_exptl_crystal_description       rhombohedral
_cell_formula_units_Z            4
_exptl_crystal_recrystallization_method toluene
loop_
_atom_site_label
_atom_site_type_symbol
_atom_site_fract_x
_atom_site_fract_y
_atom_site_fract_z
F1 F 0.45809(13) 0.81938(11) 0.39997(11)
F2 F 0.62814(13) 0.80122(11) 0.43295(10)
F3 F 0.52909(15) 0.86358(12) 0.50747(11)
F4 F 0.64616(15) 1.34472(12) 0.24398(11)
F5 F 0.80456(15) 1.30072(13) 0.22606(12)
F6 F 0.66842(15) 1.27297(12) 0.14461(10)
F7 F 0.88556(14) 1.05906(12) 0.18267(10)
F8 F 1.05489(15) 1.02639(12) 0.19615(10)
F9 F 1.00513(14) 1.14581(11) 0.23779(10)
F10 F 1.13698(18) 0.65597(14) 0.48789(15)
F11 F 1.25877(19) 0.68686(14) 0.41541(11)
F12 F 1.2951(2) 0.54263(15) 0.49813(16)
F13 F 1.2900(2) 0.61724(16) 0.59950(14)
F14 F 1.45790(19) 0.70848(15) 0.57052(19)
F15 F 1.4666(2) 0.6439(2) 0.4672(2)
F16 F 1.4891(2) 0.57047(16) 0.56702(16)
F17 F 0.28988(15) 1.26469(12) 0.38380(10)
F18 F 0.35546(16) 1.35846(13) 0.31343(12)
F19 F 0.1459(2) 1.37646(17) 0.23742(13)
F20 F 0.08778(16) 1.29022(15) 0.31696(14)
F21 F 0.1710(2) 1.40002(18) 0.42822(14)
F22 F 0.2177(3) 1.48536(16) 0.3455(2)
F23 F 0.0511(2) 1.45222(18) 0.34640(16)
O1 O 0.28527(16) 1.08623(13) 0.33159(12)
O2 O 0.46857(17) 1.26214(15) 0.19354(13)
O3 O 1.24160(17) 0.88136(14) 0.39776(13)
O4 O 1.06697(16) 0.78660(14) 0.58855(12)
N1 N 0.38129(19) 1.18318(16) 0.27274(14)
N2 N 1.15151(19) 0.82894(16) 0.48985(14)
C1 C 0.5649(2) 0.94255(18) 0.40100(16)
C2 C 0.4700(2) 0.98650(18) 0.37274(16)
H1 H 0.4011 0.9639 0.3805
C3 C 0.4747(2) 1.06120(18) 0.33428(16)
C4 C 0.5790(2) 1.16623(18) 0.27163(16)
C5 C 0.6809(2) 1.19610(18) 0.25803(16)
C6 C 0.7754(2) 1.14954(18) 0.28170(16)
H2 H 0.8436 1.1712 0.2713
C7 C 0.9663(2) 1.01996(17) 0.30345(16)
C8 C 1.0583(2) 0.97379(18) 0.33371(16)
H3 H 1.1217 0.9747 0.3090
C9 C 1.0592(2) 0.92741(17) 0.39802(16)
C10 C 0.9640(2) 0.87396(18) 0.49945(16)
C11 C 0.8732(2) 0.87233(18) 0.53584(16)
H4 H 0.8758 0.8458 0.5831
C12 C 0.7766(2) 0.91000(18) 0.50289(16)
H5 H 0.7138 0.9084 0.5282
C13 C 0.7709(2) 0.94954(17) 0.43405(16)
C14 C 0.6672(2) 0.97715(18) 0.39304(16)
C15 C 0.6723(2) 1.04696(17) 0.34303(15)
C16 C 0.7731(2) 1.07296(18) 0.31978(16)
C17 C 0.8710(2) 1.01948(17) 0.33917(16)
C18 C 0.8690(2) 0.96472(17) 0.40168(16)
C19 C 0.9645(2) 0.92179(17) 0.43326(16)
C20 C 0.5756(2) 1.09190(18) 0.31583(16)
C21 C 0.3727(2) 1.10877(18) 0.31407(16)
C22 C 0.4751(2) 1.20869(19) 0.24157(17)
C23 C 1.1580(2) 0.87911(18) 0.42675(17)
C24 C 1.0622(2) 0.82643(19) 0.53089(16)
C25 C 0.2817(2) 1.23388(18) 0.25489(16)
H6 H 0.2171 1.1963 0.2518
H7 H 0.2825 1.2621 0.2061
C26 C 0.2756(2) 1.30051(19) 0.31506(17)
C27 C 0.1649(3) 1.3472(2) 0.30665(19)
C28 C 0.1521(3) 1.4227(3) 0.3589(2)
C29 C 1.2468(2) 0.7780(2) 0.51847(18)
H8 H 1.2526 0.7756 0.5734
H9 H 1.3135 0.8056 0.5047
C30 C 1.2385(3) 0.6876(2) 0.48710(19)
C31 C 1.3131(3) 0.6208(2) 0.5293(2)
C32 C 1.4340(4) 0.6362(3) 0.5337(3)
C33 C 0.5467(2) 0.85675(19) 0.43534(18)
C34 C 0.6982(2) 1.2789(2) 0.21773(19)
C35 C 0.9771(2) 1.06315(19) 0.23006(17)
loop_
_geom_bond_atom_site_label_1
_geom_bond_atom_site_label_2
_geom_bond_site_symmetry_1
_geom_bond_site_symmetry_2
F1 C33 1_555 1_555
F2 C33 1_555 1_555
F3 C33 1_555 1_555
F4 C34 1_555 1_555
F5 C34 1_555 1_555
F6 C34 1_555 1_555
F7 C35 1_555 1_555
F8 C35 1_555 1_555
F9 C35 1_555 1_555
F10 C30 1_555 1_555
F11 C30 1_555 1_555
F12 C31 1_555 1_555
F13 C31 1_555 1_555
F14 C32 1_555 1_555
F15 C32 1_555 1_555
F16 C32 1_555 1_555
F17 C26 1_555 1_555
F18 C26 1_555 1_555
F19 C27 1_555 1_555
F20 C27 1_555 1_555
F21 C28 1_555 1_555
F22 C28 1_555 1_555
F23 C28 1_555 1_555
O1 C21 1_555 1_555
O2 C22 1_555 1_555
O3 C23 1_555 1_555
O4 C24 1_555 1_555
N1 C21 1_555 1_555
N2 C23 1_555 1_555
C1 C2 1_555 1_555
C2 H1 1_555 1_555
C3 C2 1_555 1_555
C4 C5 1_555 1_555
C5 C6 1_555 1_555
C6 H2 1_555 1_555
C7 C8 1_555 1_555
C8 H3 1_555 1_555
C9 C8 1_555 1_555
C10 C11 1_555 1_555
C11 H4 1_555 1_555
C12 C11 1_555 1_555
H5 C12 1_555 1_555
C13 C12 1_555 1_555
C14 C1 1_555 1_555
C15 C14 1_555 1_555
C16 C6 1_555 1_555
C17 C7 1_555 1_555
C18 C13 1_555 1_555
C19 C9 1_555 1_555
C20 C3 1_555 1_555
C21 C3 1_555 1_555
C22 N1 1_555 1_555
C23 C9 1_555 1_555
C24 N2 1_555 1_555
C25 N1 1_555 1_555
H6 C25 1_555 1_555
H7 C25 1_555 1_555
C26 C25 1_555 1_555
C27 C26 1_555 1_555
C28 C27 1_555 1_555
C29 N2 1_555 1_555
H8 C29 1_555 1_555
H9 C29 1_555 1_555
C30 C29 1_555 1_555
C31 C30 1_555 1_555
C32 C31 1_555 1_555
C33 C1 1_555 1_555
C34 C5 1_555 1_555
C35 C7 1_555 1_555
C4 C20 1_555 1_555
C4 C22 1_555 1_555
C10 C19 1_555 1_555
C10 C24 1_555 1_555
C13 C14 1_555 1_555
C15 C16 1_555 1_555
C15 C20 1_555 1_555
C16 C17 1_555 1_555
C17 C18 1_555 1_555
C18 C19 1_555 1_555

#END
