
#######################################################################
#
#                 Cambridge Crystallographic Data Centre
#                                CCDC 
#
#######################################################################
#
# If this CIF has been generated from an entry in the Cambridge 
# Structural Database, then it will include bibliographic, chemical, 
# crystal, experimental, refinement or atomic coordinate data resulting 
# from the CCDC's data processing and validation procedures.
#
#######################################################################

data_KUWXEH
_chemical_name_common            
"N,N'-bis(heptafluorobutyl)-1,7-bis(trifluoromethyl)perylene-3,4:9,10- tetracarboxylic acid diimide"
_chemical_formula_moiety         'C34 H10 F20 N2 O4'
_chemical_name_systematic        
2,9-bis(2,2,3,3,4,4,4-heptafluorobutyl)-5,12-bis(trifluoromethyl)isoquinolino[4',5',6':6,5,10]anthra[2,1,9-def]isoquinoline-1,3,8,10(2H,9H)-tetrone
_symmetry_cell_setting           triclinic
_symmetry_space_group_name_H-M   'P -1'
_symmetry_Int_Tables_number      2
_space_group_name_Hall           '-P 1'
loop_
_symmetry_equiv_pos_site_id
_symmetry_equiv_pos_as_xyz
1 x,y,z
2 -x,-y,-z
_cell_length_a                   10.4925(9)
_cell_length_b                   12.5528(11)
_cell_length_c                   13.2123(11)
_cell_angle_alpha                108.438(5)
_cell_angle_beta                 96.582(5)
_cell_angle_gamma                107.634(5)
_cell_volume                     1530.08
_exptl_crystal_colour            orange
_exptl_crystal_description       rhombohedral
_cell_formula_units_Z            2
_exptl_crystal_recrystallization_method dichloromethane
loop_
_atom_site_label
_atom_site_type_symbol
_atom_site_fract_x
_atom_site_fract_y
_atom_site_fract_z
F1 F 0.55041(18) 1.05762(16) 0.12147(15)
F2 F 0.4951(2) 1.02599(16) 0.26278(15)
F3 F 0.59061(18) 0.91690(16) 0.16163(15)
F4 F 0.78085(18) 0.48591(16) 0.37692(15)
F5 F 0.7170(2) 0.30272(18) 0.26053(15)
F6 F 0.77491(19) 0.42384(17) 0.54521(14)
F7 F 0.64889(19) 0.23663(16) 0.44942(15)
F8 F 0.9736(2) 0.38066(18) 0.41668(16)
F9 F 0.8467(2) 0.19328(18) 0.36376(18)
F10 F 0.9309(2) 0.29874(19) 0.53606(18)
F11 F 0.1896(2) 0.36477(17) -0.25370(15)
F12 F 0.2497(2) 0.22955(17) -0.21858(15)
F13 F 0.0506(2) 0.23714(16) -0.20220(15)
F14 F 0.01670(18) 0.98141(16) -0.31319(14)
F15 F -0.12759(19) 0.79764(16) -0.39903(14)
F16 F -0.21271(19) 1.05354(16) -0.29036(15)
F17 F -0.34363(18) 0.86738(16) -0.39308(15)
F18 F -0.0858(2) 1.07190(18) -0.45303(17)
F19 F -0.2028(2) 0.88592(19) -0.55378(16)
F20 F -0.3066(2) 1.0114(2) -0.50313(18)
O1 O 0.5625(2) 0.58868(19) 0.42791(18)
O2 O 0.4282(2) 0.2420(2) 0.12989(18)
O3 O 0.1144(2) 1.02914(19) -0.06624(18)
O4 O -0.2070(2) 0.65784(19) -0.26441(17)
N1 N 0.5082(3) 0.4187(2) 0.2765(2)
N2 N -0.0414(3) 0.8428(2) -0.1731(2)
C1 C 0.3583(3) 0.8845(3) 0.0858(2)
C2 C 0.2833(3) 0.9349(3) 0.0318(2)
H1 H 0.3179 1.0190 0.0474
C3 C 0.1605(3) 0.8632(3) -0.0434(2)
C4 C -0.0078(3) 0.6633(3) -0.1547(2)
C5 C -0.0502(3) 0.5409(3) -0.1864(2)
H2 H -0.1351 0.4913 -0.2380
C6 C 0.0309(3) 0.4886(3) -0.1432(2)
H3 H 0.0006 0.4033 -0.1676
C7 C 0.2472(3) 0.3882(3) -0.0668(2)
C8 C 0.3155(3) 0.3404(3) -0.0049(2)
H4 H 0.3157 0.2614 -0.0385
C9 C 0.3812(3) 0.4051(3) 0.1020(3)
C10 C 0.4582(3) 0.5927(3) 0.2623(2)
C11 C 0.4637(3) 0.7083(3) 0.3101(3)
H5 H 0.5005 0.7508 0.3867
C12 C 0.4149(3) 0.7639(3) 0.2458(3)
H6 H 0.4228 0.8453 0.2793
C13 C 0.3558(3) 0.7037(3) 0.1354(2)
C14 C 0.3073(3) 0.7617(3) 0.0656(2)
C15 C 0.1927(3) 0.6851(3) -0.0252(2)
C16 C 0.1546(3) 0.5567(3) -0.0656(2)
C17 C 0.2450(3) 0.5042(3) -0.0201(2)
C18 C 0.3312(3) 0.5781(3) 0.0872(2)
C19 C 0.3922(3) 0.5262(3) 0.1504(2)
C20 C 0.1146(3) 0.7369(3) -0.0751(2)
C21 C 0.0805(3) 0.9212(3) -0.0930(3)
C22 C -0.0948(3) 0.7169(3) -0.2034(2)
C23 C 0.4393(3) 0.3468(3) 0.1678(3)
C24 C 0.5135(3) 0.5365(3) 0.3305(3)
C25 C 0.5499(3) 0.3593(3) 0.3465(3)
H7 H 0.4914 0.2728 0.3158
H8 H 0.5354 0.3950 0.4206
C26 C 0.6989(3) 0.3717(3) 0.3558(3)
C27 C 0.7504(3) 0.3339(3) 0.4484(3)
C28 C 0.8792(4) 0.3011(3) 0.4404(3)
C29 C 0.4979(3) 0.9700(3) 0.1584(3)
C30 C -0.1301(3) 0.8974(3) -0.2141(3)
H9 H -0.1098 0.9792 -0.1598
H10 H -0.2273 0.8491 -0.2217
C31 C -0.1115(3) 0.9057(3) -0.3232(3)
C32 C 0.1838(4) 0.3060(3) -0.1846(3)
C33 C -0.2166(3) 0.9515(3) -0.3696(3)
C34 C -0.2006(4) 0.9810(3) -0.4724(3)
loop_
_geom_bond_atom_site_label_1
_geom_bond_atom_site_label_2
_geom_bond_site_symmetry_1
_geom_bond_site_symmetry_2
F1 C29 1_555 1_555
F2 C29 1_555 1_555
F3 C29 1_555 1_555
F4 C26 1_555 1_555
F5 C26 1_555 1_555
F6 C27 1_555 1_555
F7 C27 1_555 1_555
F8 C28 1_555 1_555
F9 C28 1_555 1_555
F10 C28 1_555 1_555
F11 C32 1_555 1_555
F12 C32 1_555 1_555
F13 C32 1_555 1_555
F14 C31 1_555 1_555
F15 C31 1_555 1_555
F16 C33 1_555 1_555
F17 C33 1_555 1_555
F18 C34 1_555 1_555
F19 C34 1_555 1_555
F20 C34 1_555 1_555
O1 C24 1_555 1_555
O2 C23 1_555 1_555
O3 C21 1_555 1_555
O4 C22 1_555 1_555
N1 C23 1_555 1_555
N2 C21 1_555 1_555
C1 C2 1_555 1_555
C2 H1 1_555 1_555
C3 C2 1_555 1_555
C4 C5 1_555 1_555
C5 H2 1_555 1_555
C6 C5 1_555 1_555
H3 C6 1_555 1_555
C7 C8 1_555 1_555
C8 H4 1_555 1_555
C9 C8 1_555 1_555
C10 C11 1_555 1_555
C11 H5 1_555 1_555
C12 C11 1_555 1_555
H6 C12 1_555 1_555
C13 C12 1_555 1_555
C14 C1 1_555 1_555
C15 C14 1_555 1_555
C16 C6 1_555 1_555
C17 C7 1_555 1_555
C18 C13 1_555 1_555
C19 C9 1_555 1_555
C20 C3 1_555 1_555
C21 C3 1_555 1_555
C22 N2 1_555 1_555
C23 C9 1_555 1_555
C24 N1 1_555 1_555
C25 N1 1_555 1_555
H7 C25 1_555 1_555
H8 C25 1_555 1_555
C26 C25 1_555 1_555
C27 C26 1_555 1_555
C28 C27 1_555 1_555
C29 C1 1_555 1_555
C30 N2 1_555 1_555
H9 C30 1_555 1_555
H10 C30 1_555 1_555
C31 C30 1_555 1_555
C32 C7 1_555 1_555
C33 C31 1_555 1_555
C34 C33 1_555 1_555
C4 C20 1_555 1_555
C4 C22 1_555 1_555
C10 C19 1_555 1_555
C10 C24 1_555 1_555
C13 C14 1_555 1_555
C15 C16 1_555 1_555
C15 C20 1_555 1_555
C16 C17 1_555 1_555
C17 C18 1_555 1_555
C18 C19 1_555 1_555

#END
