
#######################################################################
#
#                 Cambridge Crystallographic Data Centre
#                                CCDC 
#
#######################################################################
#
# If this CIF has been generated from an entry in the Cambridge 
# Structural Database, then it will include bibliographic, chemical, 
# crystal, experimental, refinement or atomic coordinate data resulting 
# from the CCDC's data processing and validation procedures.
#
#######################################################################

data_KUWXOQ
_chemical_formula_moiety         'C12 H12 F3 N1 O2'
_chemical_name_systematic        
1-(4-Methoxyphenyl)-5-(trifluoromethyl)pyrrolidin-2-one
_symmetry_cell_setting           monoclinic
_symmetry_space_group_name_H-M   'P 21/c'
_symmetry_Int_Tables_number      14
_space_group_name_Hall           '-P 2ybc'
loop_
_symmetry_equiv_pos_site_id
_symmetry_equiv_pos_as_xyz
1 x,y,z
2 -x,1/2+y,1/2-z
3 -x,-y,-z
4 x,1/2-y,1/2+z
_cell_length_a                   14.646(4)
_cell_length_b                   6.0678(18)
_cell_length_c                   13.787(4)
_cell_angle_alpha                90
_cell_angle_beta                 97.550(4)
_cell_angle_gamma                90
_cell_volume                     1214.61
_exptl_crystal_colour            colorless
_exptl_crystal_description       plate
_cell_formula_units_Z            4
loop_
_atom_site_label
_atom_site_type_symbol
_atom_site_fract_x
_atom_site_fract_y
_atom_site_fract_z
C1 C 0.7681(3) -0.0435(7) 0.5227(3)
C2 C 0.8280(3) 0.0110(9) 0.4468(3)
H1 H 0.7937 -0.0052 0.3829
H2 H 0.8805 -0.0849 0.4524
C3 C 0.8573(4) 0.2411(9) 0.4643(3)
H3 H 0.8272 0.3361 0.4132
H4 H 0.9234 0.2543 0.4654
C4 C 0.8288(3) 0.3056(7) 0.5651(3)
H5 H 0.7937 0.4435 0.5592
C5 C 0.9091(5) 0.3283(16) 0.6407(5)
C6 C 0.7164(2) 0.1285(5) 0.6665(2)
C7 C 0.6584(3) 0.2999(6) 0.6776(3)
H6 H 0.6534 0.4153 0.6328
C8 C 0.6068(3) 0.3032(7) 0.7554(3)
H7 H 0.5683 0.4216 0.7638
C9 C 0.6135(3) 0.1278(7) 0.8200(3)
C10 C 0.6705(3) -0.0438(7) 0.8081(3)
H8 H 0.6743 -0.1617 0.8516
C11 C 0.7226(3) -0.0441(6) 0.7319(2)
H9 H 0.7622 -0.1611 0.7246
C12 C 0.5116(4) 0.2859(9) 0.9206(4)
H10 H 0.5486 0.4166 0.9303
H11 H 0.4848 0.2544 0.9789
H12 H 0.4636 0.3084 0.8671
F1 F 0.9607(3) 0.1556(13) 0.6486(3)
F2 F 0.9616(4) 0.4950(11) 0.6160(3)
F3 F 0.8862(3) 0.3779(9) 0.7269(3)
N1 N 0.76988(19) 0.1258(4) 0.58648(19)
O1 O 0.7224(3) -0.2101(5) 0.5276(2)
O2 O 0.5660(2) 0.1110(5) 0.8997(2)
loop_
_geom_bond_atom_site_label_1
_geom_bond_atom_site_label_2
_geom_bond_site_symmetry_1
_geom_bond_site_symmetry_2
C1 C2 1_555 1_555
C2 H1 1_555 1_555
H2 C2 1_555 1_555
C3 C2 1_555 1_555
H3 C3 1_555 1_555
H4 C3 1_555 1_555
C4 C3 1_555 1_555
H5 C4 1_555 1_555
C5 C4 1_555 1_555
C6 C7 1_555 1_555
C7 H6 1_555 1_555
C8 C7 1_555 1_555
H7 C8 1_555 1_555
C9 C8 1_555 1_555
C10 C9 1_555 1_555
H8 C10 1_555 1_555
C11 C6 1_555 1_555
H9 C11 1_555 1_555
C12 H10 1_555 1_555
H11 C12 1_555 1_555
H12 C12 1_555 1_555
F1 C5 1_555 1_555
F2 C5 1_555 1_555
F3 C5 1_555 1_555
N1 C1 1_555 1_555
O1 C1 1_555 1_555
O2 C9 1_555 1_555
C4 N1 1_555 1_555
C6 N1 1_555 1_555
C10 C11 1_555 1_555
C12 O2 1_555 1_555

#END
