
#######################################################################
#
#                 Cambridge Crystallographic Data Centre
#                                CCDC 
#
#######################################################################
#
# If this CIF has been generated from an entry in the Cambridge 
# Structural Database, then it will include bibliographic, chemical, 
# crystal, experimental, refinement or atomic coordinate data resulting 
# from the CCDC's data processing and validation procedures.
#
#######################################################################

data_KUWYAE
_chemical_name_common            
"N,N'-bis(heptafluorobutyl)-1,5,7,11-tetrakis(trifluoromethyl)perylene- 3,4:9,10-tetracarboxylic acid diimide toluene solvate"
_chemical_formula_moiety         'C36 H8 F26 N2 O4,2(C7 H8)'
_chemical_name_systematic        
"2,9-bis(2,2,3,3,4,4,4-heptafluorobutyl)-4,6,11,13-tetrakis(trifluoromethyl)isoquinolino[4',5',6':6,5,10]anthra[2,1,9-def]isoquinoline-1,3,8,10(2H,9H)-tetrone toluene solvate"
_symmetry_cell_setting           triclinic
_symmetry_space_group_name_H-M   'P -1'
_symmetry_Int_Tables_number      2
_space_group_name_Hall           '-P 1'
loop_
_symmetry_equiv_pos_site_id
_symmetry_equiv_pos_as_xyz
1 x,y,z
2 -x,-y,-z
_cell_length_a                   7.7312(9)
_cell_length_b                   14.0811(17)
_cell_length_c                   21.717(3)
_cell_angle_alpha                80.887(2)
_cell_angle_beta                 84.589(3)
_cell_angle_gamma                83.839(3)
_cell_volume                     2313.66
_exptl_crystal_colour            orange
_exptl_crystal_description       rod
_cell_formula_units_Z            2
_exptl_crystal_recrystallization_method toluene
loop_
_atom_site_label
_atom_site_type_symbol
_atom_site_fract_x
_atom_site_fract_y
_atom_site_fract_z
F1 F 0.4470(3) 0.11149(13) 0.45002(9)
F2 F 0.6989(3) 0.14492(13) 0.40422(9)
F3 F 0.5808(3) 0.22170(14) 0.47785(9)
F4 F 0.0119(3) 0.60108(15) 0.16620(9)
F5 F 0.2393(3) 0.68150(13) 0.15146(10)
F6 F 0.2151(3) 0.57115(14) 0.09619(9)
F7 F 0.7389(3) 0.47296(12) 0.13117(9)
F8 F 0.6253(3) 0.44392(13) 0.04960(9)
F9 F 0.8959(3) 0.39935(13) 0.06331(10)
F10 F 0.4380(3) -0.08407(14) 0.36687(10)
F11 F 0.6949(3) -0.14146(13) 0.33874(9)
F12 F 0.4798(3) -0.14609(13) 0.28265(10)
F13 F 0.6029(3) -0.19012(14) 0.11539(9)
F14 F 0.6215(3) -0.08266(14) 0.03220(10)
F15 F 0.8898(3) -0.29824(16) 0.05562(12)
F16 F 0.8490(3) -0.19463(17) -0.02709(10)
F17 F 0.6908(3) -0.34806(17) -0.03019(11)
F18 F 0.4989(4) -0.2331(2) -0.01121(17)
F19 F 0.5657(4) -0.34687(18) 0.06124(13)
F20 F 0.2425(3) 0.70547(13) 0.42611(10)
F21 F 0.0888(3) 0.80140(13) 0.35922(9)
F22 F -0.2017(2) 0.76787(13) 0.45794(9)
F23 F 0.0114(3) 0.71696(13) 0.51755(9)
F24 F -0.0672(3) 0.89593(15) 0.52568(10)
F25 F -0.0951(3) 0.93851(14) 0.42730(11)
F26 F 0.1598(3) 0.89497(13) 0.46032(10)
O1 O 0.0845(3) 0.66540(16) 0.26819(11)
O2 O 0.1712(3) 0.48968(16) 0.45835(11)
O3 O 0.7903(3) -0.13884(15) 0.21680(11)
O4 O 0.8607(3) 0.07114(16) 0.03709(11)
N1 N 0.1216(3) 0.57556(17) 0.36275(12)
N2 N 0.8044(4) -0.03603(17) 0.12518(12)
C1 C 0.4590(4) 0.2616(2) 0.38141(15)
C2 C 0.3689(4) 0.3400(2) 0.40693(15)
H1 H 0.3595 0.3382 0.4510
C3 C 0.2942(4) 0.4190(2) 0.37042(14)
C4 C 0.2467(4) 0.5121(2) 0.26624(15)
C5 C 0.2739(4) 0.5168(2) 0.20122(15)
C6 C 0.3887(4) 0.4460(2) 0.17589(15)
H2 H 0.4124 0.4526 0.1318
C7 C 0.6931(4) 0.3093(2) 0.12800(15)
C8 C 0.7666(4) 0.2303(2) 0.09969(15)
H3 H 0.8292 0.2413 0.0598
C9 C 0.7504(4) 0.1371(2) 0.12819(15)
C10 C 0.6687(4) 0.0224(2) 0.22171(14)
C11 C 0.5831(4) 0.0077(2) 0.28109(15)
C12 C 0.5184(4) 0.0863(2) 0.31111(15)
H4 H 0.4620 0.0744 0.3520
C13 C 0.5334(4) 0.1817(2) 0.28315(14)
C14 C 0.4742(4) 0.2636(2) 0.31638(14)
C15 C 0.4213(4) 0.3527(2) 0.27783(14)
C16 C 0.4688(4) 0.3671(2) 0.21255(14)
C17 C 0.5926(4) 0.2950(2) 0.18521(15)
C18 C 0.6004(4) 0.1985(2) 0.21946(14)
C19 C 0.6734(4) 0.1195(2) 0.19013(15)
C20 C 0.3206(4) 0.4284(2) 0.30432(14)
C21 C 0.1447(4) 0.5908(2) 0.29693(15)
C22 C 0.1932(4) 0.4954(2) 0.40181(15)
C23 C 0.7581(4) -0.0578(2) 0.18991(15)
C24 C 0.8099(4) 0.0580(2) 0.09188(15)
C25 C -0.0024(4) 0.6435(2) 0.39262(16)
H5 H -0.0575 0.6085 0.4314
H6 H -0.0957 0.6679 0.3643
C26 C 0.0790(4) 0.7299(2) 0.40902(15)
C27 C -0.0298(4) 0.7720(2) 0.46341(15)
C28 C -0.0072(4) 0.8785(2) 0.46868(16)
C29 C 0.8671(4) -0.1167(2) 0.09159(15)
H7 H 0.9280 -0.1689 0.1200
H8 H 0.9511 -0.0949 0.0562
C30 C 0.7143(4) -0.1544(2) 0.06728(16)
C31 C 0.7712(5) -0.2350(2) 0.02756(16)
C32 C 0.6271(5) -0.2915(3) 0.01086(18)
C33 C 0.5464(5) 0.1846(2) 0.42756(15)
C34 C 0.1844(5) 0.5933(2) 0.15454(16)
C35 C 0.7366(5) 0.4070(2) 0.09299(16)
C36 C 0.5509(5) -0.0920(2) 0.31717(16)
C37 C 0.6315(5) 0.6412(2) 0.23524(17)
H9 H 0.5131 0.6740 0.2361
H10 H 0.6486 0.6023 0.2012
H11 H 0.7165 0.6895 0.2285
C38 C 0.6565(4) 0.5765(2) 0.29673(16)
C39 C 0.5781(4) 0.6047(2) 0.35230(16)
H12 H 0.5047 0.6634 0.3510
C40 C 0.6060(5) 0.5479(2) 0.40952(17)
H13 H 0.5519 0.5682 0.4470
C41 C 0.7121(5) 0.4617(2) 0.41231(18)
H14 H 0.7321 0.4232 0.4515
C42 C 0.7888(5) 0.4324(2) 0.35730(17)
H15 H 0.8604 0.3730 0.3588
C43 C 0.7621(5) 0.4890(2) 0.29990(17)
H16 H 0.8158 0.4681 0.2626
C44 C 0.2712(9) 0.0058(6) 0.1460(3)
H17 H 0.3020 -0.0604 0.1663
H18 H 0.3771 0.0339 0.1261
H19 H 0.1900 0.0048 0.1141
C45 C 0.1870(9) 0.0651(6) 0.1937(4)
C46 C 0.1799(11) 0.1652(7) 0.1807(3)
H20 H 0.2313 0.1951 0.1420
C47 C 0.0977(9) 0.2224(5) 0.2241(4)
H21 H 0.0907 0.2908 0.2143
C48 C 0.0276(9) 0.1798(6) 0.2805(4)
H22 H -0.0256 0.2186 0.3104
C49 C 0.0340(12) 0.0802(6) 0.2941(4)
H23 H -0.0145 0.0507 0.3334
C50 C 0.1109(18) 0.0232(7) 0.2506(5)
H24 H 0.1116 -0.0451 0.2598
C51? C 0.222(2) -0.0675(12) 0.1789(9)
H25? H 0.3484 -0.0834 0.1807
H26? H 0.1931 -0.0589 0.1353
H27? H 0.1606 -0.1201 0.2033
C52? C 0.168(3) 0.0245(11) 0.2056(8)
C53? C 0.094(4) 0.0274(16) 0.2660(10)
H28? H 0.0782 -0.0317 0.2929
C54? C 0.041(3) 0.1153(15) 0.2888(9)
H29? H -0.0113 0.1155 0.3303
C55? C 0.065(3) 0.2009(12) 0.2499(10)
H30? H 0.0288 0.2611 0.2637
C56? C 0.143(3) 0.1972(13) 0.1910(11)
H31? H 0.1573 0.2563 0.1639
C57? C 0.202(2) 0.1111(15) 0.1688(8)
H32? H 0.2644 0.1118 0.1289
loop_
_geom_bond_atom_site_label_1
_geom_bond_atom_site_label_2
_geom_bond_site_symmetry_1
_geom_bond_site_symmetry_2
F1 C33 1_555 1_555
F2 C33 1_555 1_555
F3 C33 1_555 1_555
F4 C34 1_555 1_555
F5 C34 1_555 1_555
F6 C34 1_555 1_555
F7 C35 1_555 1_555
F8 C35 1_555 1_555
F9 C35 1_555 1_555
F10 C36 1_555 1_555
F11 C36 1_555 1_555
F12 C36 1_555 1_555
F13 C30 1_555 1_555
F14 C30 1_555 1_555
F15 C31 1_555 1_555
F16 C31 1_555 1_555
F17 C32 1_555 1_555
F18 C32 1_555 1_555
F19 C32 1_555 1_555
F20 C26 1_555 1_555
F21 C26 1_555 1_555
F22 C27 1_555 1_555
F23 C27 1_555 1_555
F24 C28 1_555 1_555
F25 C28 1_555 1_555
F26 C28 1_555 1_555
O1 C21 1_555 1_555
O2 C22 1_555 1_555
O3 C23 1_555 1_555
O4 C24 1_555 1_555
N1 C21 1_555 1_555
N2 C23 1_555 1_555
C1 C2 1_555 1_555
C2 H1 1_555 1_555
C3 C2 1_555 1_555
C4 C5 1_555 1_555
C5 C6 1_555 1_555
C6 H2 1_555 1_555
C7 C8 1_555 1_555
C8 H3 1_555 1_555
C9 C8 1_555 1_555
C10 C11 1_555 1_555
C11 C12 1_555 1_555
C12 H4 1_555 1_555
C13 C12 1_555 1_555
C14 C1 1_555 1_555
C15 C14 1_555 1_555
C16 C6 1_555 1_555
C17 C7 1_555 1_555
C18 C13 1_555 1_555
C19 C9 1_555 1_555
C20 C3 1_555 1_555
C21 C4 1_555 1_555
C22 N1 1_555 1_555
C23 C10 1_555 1_555
C24 N2 1_555 1_555
C25 N1 1_555 1_555
H5 C25 1_555 1_555
H6 C25 1_555 1_555
C26 C25 1_555 1_555
C27 C26 1_555 1_555
C28 C27 1_555 1_555
C29 N2 1_555 1_555
H7 C29 1_555 1_555
H8 C29 1_555 1_555
C30 C29 1_555 1_555
C31 C30 1_555 1_555
C32 C31 1_555 1_555
C33 C1 1_555 1_555
C34 C5 1_555 1_555
C35 C7 1_555 1_555
C36 C11 1_555 1_555
C37 H9 1_555 1_555
H10 C37 1_555 1_555
H11 C37 1_555 1_555
C38 C37 1_555 1_555
C39 C38 1_555 1_555
H12 C39 1_555 1_555
C40 C39 1_555 1_555
H13 C40 1_555 1_555
C41 C40 1_555 1_555
H14 C41 1_555 1_555
C42 C41 1_555 1_555
H15 C42 1_555 1_555
C43 C38 1_555 1_555
H16 C43 1_555 1_555
C44 H17 1_555 1_555
H18 C44 1_555 1_555
H19 C44 1_555 1_555
C45 C44 1_555 1_555
C46 C45 1_555 1_555
H20 C46 1_555 1_555
C47 C46 1_555 1_555
H21 C47 1_555 1_555
C48 C47 1_555 1_555
H22 C48 1_555 1_555
C49 C48 1_555 1_555
H23 C49 1_555 1_555
C50 C45 1_555 1_555
H24 C50 1_555 1_555
C3 C22 1_555 1_555
C4 C20 1_555 1_555
C9 C24 1_555 1_555
C10 C19 1_555 1_555
C13 C14 1_555 1_555
C15 C16 1_555 1_555
C15 C20 1_555 1_555
C16 C17 1_555 1_555
C17 C18 1_555 1_555
C18 C19 1_555 1_555
C42 C43 1_555 1_555
C49 C50 1_555 1_555

#END
