
#######################################################################
#
#                 Cambridge Crystallographic Data Centre
#                                CCDC 
#
#######################################################################
#
# If this CIF has been generated from an entry in the Cambridge 
# Structural Database, then it will include bibliographic, chemical, 
# crystal, experimental, refinement or atomic coordinate data resulting 
# from the CCDC's data processing and validation procedures.
#
#######################################################################

data_KUWZEI
_chemical_formula_moiety         'C32 H38 O10,0.5(C12 H14 N2 2+),F6 P1 1-'
_chemical_name_systematic        
"4,7,10,13,19,22,25,28,32,39-Decaoxatetracyclo[14.14.10.1^3,29^.1^14,18^]dotetraconta-1,3(41),14(42),15,17,29-hexaene-34,36-diyne hemikis(1,1'-dimethyl-4,4'-bipyridinium) hexafluorophosphate"
_symmetry_cell_setting           monoclinic
_symmetry_space_group_name_H-M   'P 21/n'
_symmetry_Int_Tables_number      14
_space_group_name_Hall           '-P 2yn'
loop_
_symmetry_equiv_pos_site_id
_symmetry_equiv_pos_as_xyz
1 x,y,z
2 1/2-x,1/2+y,1/2-z
3 -x,-y,-z
4 1/2+x,1/2-y,1/2+z
_cell_length_a                   14.2288(16)
_cell_length_b                   16.2978(19)
_cell_length_c                   18.093(2)
_cell_angle_alpha                90
_cell_angle_beta                 109.937(2)
_cell_angle_gamma                90
_cell_volume                     3944.27
_exptl_crystal_colour            colorless
_exptl_crystal_description       block
_cell_formula_units_Z            4
loop_
_atom_site_label
_atom_site_type_symbol
_atom_site_fract_x
_atom_site_fract_y
_atom_site_fract_z
P1 P 0.30644(10) 0.83160(8) 0.82369(8)
F1 F 0.3029(4) 0.8252(3) 0.7377(2)
F2 F 0.3026(4) 0.8355(3) 0.9078(2)
F3 F 0.3496(4) 0.7433(2) 0.8364(3)
F4 F 0.2597(4) 0.9181(2) 0.8080(3)
F5 F 0.1986(3) 0.7947(3) 0.7983(3)
F6 F 0.4087(3) 0.8682(4) 0.8479(4)
C1 C 0.5075(4) 0.4432(3) 0.2744(3)
C2 C 0.3502(4) 0.5114(3) 0.2185(3)
C3 C 0.4116(3) 0.4586(3) 0.2730(3)
H1 H 0.3882 0.4331 0.3093
C4 C 0.5493(4) 0.7442(3) 0.5422(3)
H2 H 0.5195 0.7092 0.5682
C5 C 0.6481(4) 0.7330(3) 0.5491(3)
C6 C 0.3829(4) 0.5494(3) 0.1632(3)
H3 H 0.3415 0.5853 0.1264
C7 C 0.5406(4) 0.4797(3) 0.2186(3)
H4 H 0.6044 0.4686 0.2179
C8 C 0.5403(4) 0.8612(3) 0.4594(3)
H5 H 0.5045 0.9050 0.4301
C9 C 0.6935(4) 0.7854(3) 0.5113(3)
H6 H 0.7601 0.7779 0.5159
C10 C 0.4952(4) 0.8070(3) 0.4968(3)
C11 C 0.6391(4) 0.8485(3) 0.4668(3)
C12 C 0.4781(4) 0.5327(4) 0.1639(3)
O1 O 0.5642(2) 0.3934(2) 0.33273(19)
O2 O 0.2583(3) 0.5246(2) 0.22526(19)
O3 O 0.6934(3) 0.6652(2) 0.5929(2)
O4 O 0.3972(3) 0.8092(2) 0.4907(2)
C13 C 0.6907(5) 0.9003(4) 0.4227(4)
H7 H 0.7503 0.9248 0.4597
H8 H 0.7109 0.8657 0.3871
C14 C 0.5241(5) 0.5768(5) 0.1097(4)
H9 H 0.5787 0.6117 0.1404
H10 H 0.5505 0.5370 0.0820
O5 O 0.6273(4) 0.9617(3) 0.3802(3)
C15 C 0.3342(5) 0.8725(4) 0.4463(4)
H11 H 0.3479 0.8827 0.3981
H12 H 0.3446 0.9230 0.4764
C16 C 0.6454(6) 0.9839(6) 0.3094(6)
H13 H 0.7159 0.9960 0.3220
H14 H 0.6081 1.0333 0.2879
C17 C 0.2281(5) 0.8421(5) 0.4280(5)
H15 H 0.2214 0.8144 0.4734
H16 H 0.1817 0.8878 0.4143
C18 C 0.8263(4) 0.5711(4) 0.6352(3)
H17 H 0.8970 0.5666 0.6654
H18 H 0.7884 0.5532 0.6678
C19 C 0.8003(4) 0.6571(4) 0.6091(4)
H19 H 0.8370 0.6952 0.6499
H20 H 0.8163 0.6683 0.5621
O6 O 0.8024(3) 0.5235(3) 0.5672(3)
O7 O 0.2076(3) 0.7872(3) 0.3642(3)
C20 C 0.6164(7) 0.9185(8) 0.2497(7)
C21 C 0.5886(6) 0.8691(7) 0.2012(7)
C22 C 0.8735(4) 0.4722(5) 0.5595(4)
H21 H 0.8951 0.4361 0.6048
H22 H 0.9308 0.5046 0.5598
C23 C 0.5264(6) 0.7614(8) 0.0943(6)
C24 C 0.5565(6) 0.8108(8) 0.1462(7)
C25 C 0.0832(5) 0.7164(5) 0.2658(5)
H23 H 0.0131 0.7014 0.2494
H24 H 0.0917 0.7533 0.2264
C26 C 0.8417(5) 0.4227(5) 0.4891(5)
H25 H 0.8419 0.4567 0.4452
H26 H 0.8904 0.3794 0.4948
C27 C 0.1096(5) 0.7592(5) 0.3395(5)
H27 H 0.0648 0.8054 0.3341
H28 H 0.1010 0.7226 0.3790
O8 O 0.1388(3) 0.6471(3) 0.2686(3)
O9 O 0.7505(3) 0.3882(3) 0.4714(3)
C28 C 0.6637(4) 0.3732(3) 0.3340(3)
H29 H 0.6984 0.4226 0.3282
H30 H 0.6599 0.3365 0.2908
C29 C 0.7179(4) 0.3335(4) 0.4089(4)
H31 H 0.6748 0.2929 0.4201
H32 H 0.7754 0.3048 0.4041
C30 C 0.1084(4) 0.5972(4) 0.2026(4)
H33 H 0.0538 0.6234 0.1617
H34 H 0.0839 0.5456 0.2157
C31 C 0.1910(4) 0.5810(4) 0.1729(3)
H35 H 0.1652 0.5578 0.1204
H36 H 0.2255 0.6317 0.1704
O10 O 0.4483(3) 0.6254(4) 0.0543(3)
C32 C 0.4909(6) 0.7005(6) 0.0324(5)
H37 H 0.5462 0.6848 0.0155
H38 H 0.4403 0.7256 -0.0122
N1 N 0.9653(3) 0.8456(2) 0.8591(2)
C33 C 0.9928(3) 0.9678(2) 0.9703(2)
C34 C 1.0696(3) 0.9445(3) 0.9426(2)
H39 H 1.1316 0.9701 0.9617
C35 C 1.0528(4) 0.8843(3) 0.8877(3)
H40 H 1.1041 0.8695 0.8695
C36 C 0.9026(3) 0.9256(3) 0.9402(3)
H41 H 0.8500 0.9386 0.9575
C37 C 0.8910(4) 0.8650(3) 0.8852(3)
H42 H 0.8305 0.8371 0.8659
C38 C 0.9509(5) 0.7809(3) 0.7988(3)
H43 H 0.9411 0.8059 0.7487
H44 H 0.8932 0.7487 0.7958
H45 H 1.0088 0.7463 0.8129
N1B N 1.0347(3) 1.1544(2) 1.1409(2)
C33B C 1.0072(3) 1.0322(2) 1.0297(2)
C34B C 0.9304(3) 1.0555(3) 1.0574(2)
H39B H 0.8684 1.0299 1.0383
C35B C 0.9472(4) 1.1157(3) 1.1123(3)
H40B H 0.8959 1.1305 1.1305
C36B C 1.0974(3) 1.0744(3) 1.0598(3)
H41B H 1.1500 1.0614 1.0425
C37B C 1.1090(4) 1.1350(3) 1.1148(3)
H42B H 1.1695 1.1629 1.1341
C38B C 1.0491(5) 1.2191(3) 1.2012(3)
H43B H 1.0589 1.1941 1.2513
H44B H 1.1068 1.2513 1.2042
H45B H 0.9912 1.2537 1.1871
loop_
_geom_bond_atom_site_label_1
_geom_bond_atom_site_label_2
_geom_bond_site_symmetry_1
_geom_bond_site_symmetry_2
P1 F1 1_555 1_555
F2 P1 1_555 1_555
F3 P1 1_555 1_555
F4 P1 1_555 1_555
F5 P1 1_555 1_555
F6 P1 1_555 1_555
C1 C3 1_555 1_555
C2 C3 1_555 1_555
C3 H1 1_555 1_555
C4 H2 1_555 1_555
C5 C4 1_555 1_555
C6 C2 1_555 1_555
H3 C6 1_555 1_555
C7 C1 1_555 1_555
H4 C7 1_555 1_555
C8 H5 1_555 1_555
C9 C5 1_555 1_555
H6 C9 1_555 1_555
C10 C4 1_555 1_555
C11 C8 1_555 1_555
C12 C6 1_555 1_555
O1 C1 1_555 1_555
O2 C2 1_555 1_555
O3 C5 1_555 1_555
O4 C10 1_555 1_555
C13 C11 1_555 1_555
H7 C13 1_555 1_555
H8 C13 1_555 1_555
C14 C12 1_555 1_555
H9 C14 1_555 1_555
H10 C14 1_555 1_555
O5 C13 1_555 1_555
C15 O4 1_555 1_555
H11 C15 1_555 1_555
H12 C15 1_555 1_555
C16 O5 1_555 1_555
H13 C16 1_555 1_555
H14 C16 1_555 1_555
C17 C15 1_555 1_555
H15 C17 1_555 1_555
H16 C17 1_555 1_555
C18 H17 1_555 1_555
H18 C18 1_555 1_555
C19 O3 1_555 1_555
H19 C19 1_555 1_555
H20 C19 1_555 1_555
O6 C18 1_555 1_555
O7 C17 1_555 1_555
C20 C16 1_555 1_555
C21 C20 1_555 1_555
C22 O6 1_555 1_555
H21 C22 1_555 1_555
H22 C22 1_555 1_555
C23 C24 1_555 1_555
C24 C21 1_555 1_555
C25 H23 1_555 1_555
H24 C25 1_555 1_555
C26 C22 1_555 1_555
H25 C26 1_555 1_555
H26 C26 1_555 1_555
C27 O7 1_555 1_555
H27 C27 1_555 1_555
H28 C27 1_555 1_555
O8 C25 1_555 1_555
O9 C26 1_555 1_555
C28 O1 1_555 1_555
H29 C28 1_555 1_555
H30 C28 1_555 1_555
C29 O9 1_555 1_555
H31 C29 1_555 1_555
H32 C29 1_555 1_555
C30 O8 1_555 1_555
H33 C30 1_555 1_555
H34 C30 1_555 1_555
C31 O2 1_555 1_555
H35 C31 1_555 1_555
H36 C31 1_555 1_555
O10 C14 1_555 1_555
C32 C23 1_555 1_555
H37 C32 1_555 1_555
H38 C32 1_555 1_555
N1 C35 1_555 1_555
C33 C34 1_555 1_555
C34 H39 1_555 1_555
C35 C34 1_555 1_555
H40 C35 1_555 1_555
C36 C33 1_555 1_555
H41 C36 1_555 1_555
C37 N1 1_555 1_555
H42 C37 1_555 1_555
C38 N1 1_555 1_555
H43 C38 1_555 1_555
H44 C38 1_555 1_555
H45 C38 1_555 1_555
N1B C35B 1_555 1_555
C33B C33 1_555 1_555
C34B C33B 1_555 1_555
H39B C34B 1_555 1_555
C35B C34B 1_555 1_555
H40B C35B 1_555 1_555
C36B C33B 1_555 1_555
H41B C36B 1_555 1_555
C37B N1B 1_555 1_555
H42B C37B 1_555 1_555
C38B N1B 1_555 1_555
H43B C38B 1_555 1_555
H44B C38B 1_555 1_555
H45B C38B 1_555 1_555
C7 C12 1_555 1_555
C8 C10 1_555 1_555
C9 C11 1_555 1_555
C18 C19 1_555 1_555
C25 C27 1_555 1_555
C28 C29 1_555 1_555
C30 C31 1_555 1_555
O10 C32 1_555 1_555
C36 C37 1_555 1_555
C36B C37B 1_555 1_555

#END
