
#######################################################################
#
#                 Cambridge Crystallographic Data Centre
#                                CCDC 
#
#######################################################################
#
# If this CIF has been generated from an entry in the Cambridge 
# Structural Database, then it will include bibliographic, chemical, 
# crystal, experimental, refinement or atomic coordinate data resulting 
# from the CCDC's data processing and validation procedures.
#
#######################################################################

data_KUXBAH
_chemical_formula_moiety         'C32 H46 O10'
_chemical_name_systematic        
4,7,10,13,19,22,25,28,32,39-Decaoxatetracyclo[14.14.10.1^3,29^.1^14,18^]dotetraconta-1,3(41),14(42),15,17,29-hexaene
_symmetry_cell_setting           triclinic
_symmetry_space_group_name_H-M   'P -1'
_symmetry_Int_Tables_number      2
_space_group_name_Hall           '-P 1'
loop_
_symmetry_equiv_pos_site_id
_symmetry_equiv_pos_as_xyz
1 x,y,z
2 -x,-y,-z
_cell_length_a                   8.710(4)
_cell_length_b                   13.054(6)
_cell_length_c                   14.916(7)
_cell_angle_alpha                93.947(7)
_cell_angle_beta                 105.663(7)
_cell_angle_gamma                102.229(7)
_cell_volume                     1581.55
_exptl_crystal_colour            colorless
_exptl_crystal_description       block
_cell_formula_units_Z            2
loop_
_atom_site_label
_atom_site_type_symbol
_atom_site_fract_x
_atom_site_fract_y
_atom_site_fract_z
O1 O 0.9821(7) 0.9515(4) 0.7095(3)
O2 O 0.7106(7) 0.8593(4) 0.3833(3)
C1 C 0.9199(8) 0.8717(5) 0.6333(5)
C2 C 0.8711(9) 0.6986(5) 0.5545(5)
C3 C 0.7848(9) 0.8362(6) 0.4703(5)
C4 C 0.6247(8) 0.7057(5) 0.8384(5)
O3 O 0.4086(8) 0.8788(5) 0.2599(4)
C5 C 0.8472(9) 0.9063(6) 0.5499(4)
H1 H 0.8414 0.9765 0.5488
C6 C 0.9341(9) 0.7712(5) 0.6377(5)
H2 H 0.9843 0.7501 0.6944
C7 C 0.7988(9) 0.7320(6) 0.4725(5)
H3 H 0.7583 0.6847 0.4173
C8 C 1.0768(9) 0.9286(6) 0.7957(5)
H4 H 1.1697 0.9036 0.7871
H5 H 1.0106 0.8747 0.8204
O4 O 0.3109(7) 0.7105(6) 0.6183(4)
C9 C 0.5261(9) 0.6479(5) 0.8848(5)
H6 H 0.5716 0.6324 0.9447
O5 O 0.3081(9) 0.8383(5) 0.4257(4)
C10 C 0.5565(9) 0.7299(6) 0.7486(5)
H7 H 0.6225 0.7694 0.7175
C11 C 0.3564(9) 0.6128(6) 0.8408(5)
C12 C 0.3916(10) 0.6946(7) 0.7075(5)
C13 C 0.6669(10) 0.9584(6) 0.3789(5)
H8 H 0.7645 1.0158 0.3929
H9 H 0.6076 0.9688 0.4240
C14 C 0.1967(12) 0.8348(7) 0.3358(6)
H10 H 0.0970 0.8526 0.3419
H11 H 0.1680 0.7647 0.3007
C15 C 0.2899(10) 0.6366(7) 0.7523(5)
H12 H 0.1776 0.6138 0.7230
C16 C 0.3975(12) 0.7638(7) 0.5624(5)
H13 H 0.4764 0.7267 0.5498
H14 H 0.4548 0.8352 0.5922
C17 C 0.2833(11) 0.9144(7) 0.2871(6)
H15 H 0.2046 0.9274 0.2319
H16 H 0.3309 0.9805 0.3289
C18 C 0.5602(12) 0.9551(8) 0.2807(6)
H17 H 0.5387 1.0243 0.2726
H18 H 0.6185 0.9389 0.2367
C19 C 0.2635(14) 0.7649(8) 0.4720(6)
H19 H 0.2354 0.6972 0.4330
H20 H 0.1660 0.7744 0.4878
O6 O 0.7917(6) 0.7408(4) 0.8730(3)
O7 O 1.0924(6) 0.8612(4) 0.9943(3)
O8 O 1.2944(6) 1.0425(4) 0.9245(3)
C20 C 1.1351(9) 1.0320(6) 0.8622(5)
H21 H 1.1363 1.0908 0.8257
H22 H 1.0584 1.0349 0.8984
C21 C 0.8651(9) 0.7141(6) 0.9636(5)
H23 H 0.8322 0.6383 0.9639
H24 H 0.8298 0.7494 1.0110
C22 C 1.0474(9) 0.7487(7) 0.9842(6)
H25 H 1.1010 0.7240 1.0416
H26 H 1.0814 0.7193 0.9333
C23 C 1.2666(9) 0.9024(7) 1.0216(6)
H27 H 1.3140 0.8678 0.9799
H28 H 1.3147 0.8891 1.0851
C24 C 1.3024(10) 1.0175(7) 1.0171(5)
H29 H 1.2243 1.0473 1.0395
H30 H 1.4113 1.0502 1.0587
O9 O 0.8876(6) 0.5424(4) 0.6382(4)
O10 O 0.3042(7) 0.4484(4) 0.9057(3)
C25 C 0.7300(10) 0.4680(6) 0.7370(6)
H31 H 0.7783 0.5245 0.7892
H32 H 0.7991 0.4180 0.7444
C26 C 0.7274(9) 0.5138(6) 0.6464(6)
H33 H 0.6581 0.4620 0.5935
H34 H 0.6819 0.5755 0.6455
C27 C 0.8953(11) 0.5872(6) 0.5555(6)
H35 H 0.8122 0.5420 0.5025
H36 H 1.0015 0.5874 0.5463
C28 C 0.2538(10) 0.5426(7) 0.8904(6)
H37 H 0.2621 0.5807 0.9504
H38 H 0.1396 0.5257 0.8530
C29 C 0.5555(11) 0.3721(6) 0.8315(5)
H39 H 0.5925 0.4316 0.8811
H40 H 0.6318 0.3270 0.8462
C30 C 0.2606(12) 0.3734(8) 0.8218(6)
H41 H 0.2557 0.4106 0.7674
H42 H 0.1534 0.3270 0.8132
C31 C 0.5611(10) 0.4128(6) 0.7405(5)
H43 H 0.4904 0.4616 0.7282
H44 H 0.5163 0.3537 0.6903
C32 C 0.3863(13) 0.3101(7) 0.8311(6)
H45 H 0.3473 0.2526 0.7796
H46 H 0.3967 0.2789 0.8890
loop_
_geom_bond_atom_site_label_1
_geom_bond_atom_site_label_2
_geom_bond_site_symmetry_1
_geom_bond_site_symmetry_2
O1 C1 1_555 1_555
O2 C3 1_555 1_555
C1 C5 1_555 1_555
C2 C6 1_555 1_555
C3 C5 1_555 1_555
C4 C9 1_555 1_555
O3 C17 1_555 1_555
C5 H1 1_555 1_555
C6 C1 1_555 1_555
H2 C6 1_555 1_555
C7 C2 1_555 1_555
H3 C7 1_555 1_555
C8 O1 1_555 1_555
H4 C8 1_555 1_555
H5 C8 1_555 1_555
O4 C12 1_555 1_555
C9 H6 1_555 1_555
O5 C14 1_555 1_555
C10 C4 1_555 1_555
H7 C10 1_555 1_555
C11 C9 1_555 1_555
C12 C10 1_555 1_555
C13 O2 1_555 1_555
H8 C13 1_555 1_555
H9 C13 1_555 1_555
C14 H10 1_555 1_555
H11 C14 1_555 1_555
C15 C11 1_555 1_555
H12 C15 1_555 1_555
C16 O4 1_555 1_555
H13 C16 1_555 1_555
H14 C16 1_555 1_555
C17 C14 1_555 1_555
H15 C17 1_555 1_555
H16 C17 1_555 1_555
C18 O3 1_555 1_555
H17 C18 1_555 1_555
H18 C18 1_555 1_555
C19 O5 1_555 1_555
H19 C19 1_555 1_555
H20 C19 1_555 1_555
O6 C4 1_555 1_555
O7 C22 1_555 1_555
O8 C20 1_555 1_555
C20 C8 1_555 1_555
H21 C20 1_555 1_555
H22 C20 1_555 1_555
C21 O6 1_555 1_555
H23 C21 1_555 1_555
H24 C21 1_555 1_555
C22 C21 1_555 1_555
H25 C22 1_555 1_555
H26 C22 1_555 1_555
C23 O7 1_555 1_555
H27 C23 1_555 1_555
H28 C23 1_555 1_555
C24 O8 1_555 1_555
H29 C24 1_555 1_555
H30 C24 1_555 1_555
O9 C26 1_555 1_555
O10 C28 1_555 1_555
C25 H31 1_555 1_555
H32 C25 1_555 1_555
C26 C25 1_555 1_555
H33 C26 1_555 1_555
H34 C26 1_555 1_555
C27 C2 1_555 1_555
H35 C27 1_555 1_555
H36 C27 1_555 1_555
C28 C11 1_555 1_555
H37 C28 1_555 1_555
H38 C28 1_555 1_555
C29 H39 1_555 1_555
H40 C29 1_555 1_555
C30 O10 1_555 1_555
H41 C30 1_555 1_555
H42 C30 1_555 1_555
C31 C25 1_555 1_555
H43 C31 1_555 1_555
H44 C31 1_555 1_555
C32 C29 1_555 1_555
H45 C32 1_555 1_555
H46 C32 1_555 1_555
C3 C7 1_555 1_555
C12 C15 1_555 1_555
C13 C18 1_555 1_555
C16 C19 1_555 1_555
C23 C24 1_555 1_555
O9 C27 1_555 1_555
C29 C31 1_555 1_555
C30 C32 1_555 1_555

#END
