
#######################################################################
#
#                 Cambridge Crystallographic Data Centre
#                                CCDC 
#
#######################################################################
#
# If this CIF has been generated from an entry in the Cambridge 
# Structural Database, then it will include bibliographic, chemical, 
# crystal, experimental, refinement or atomic coordinate data resulting 
# from the CCDC's data processing and validation procedures.
#
#######################################################################

data_KUXPIE
_chemical_formula_moiety         'C21 H18 N6 S2'
_chemical_name_systematic        
2,2'-(propane-1,3-diyldisulfanediyl)bis(4-(pyridin-2-yl)pyrimidine)
_symmetry_cell_setting           triclinic
_symmetry_space_group_name_H-M   'P -1'
_symmetry_Int_Tables_number      2
_space_group_name_Hall           '-P 1'
loop_
_symmetry_equiv_pos_site_id
_symmetry_equiv_pos_as_xyz
1 x,y,z
2 -x,-y,-z
_cell_length_a                   5.843(3)
_cell_length_b                   9.831(7)
_cell_length_c                   18.202(7)
_cell_angle_alpha                97.66(3)
_cell_angle_beta                 97.68(3)
_cell_angle_gamma                104.67(4)
_cell_volume                     987.06
_exptl_crystal_colour            colorless
_exptl_crystal_description       plate
_cell_formula_units_Z            2
loop_
_atom_site_label
_atom_site_type_symbol
_atom_site_fract_x
_atom_site_fract_y
_atom_site_fract_z
S1 S 0.37290(15) 0.77716(9) 0.27405(5)
S2 S 0.17506(16) 1.18404(9) 0.17902(5)
N1 N 0.7901(5) 0.7656(3) 0.34829(14)
N2 N 0.4386(4) 0.5779(3) 0.34732(14)
N3 N 0.5765(5) 0.3094(3) 0.44719(17)
N4 N 0.3705(4) 1.4207(2) 0.13573(14)
N5 N 0.6332(5) 1.3371(3) 0.21940(14)
N6 N 0.6925(5) 1.7309(3) 0.07100(16)
C1 C 0.5575(6) 0.7000(3) 0.32910(17)
C2 C 0.9166(6) 0.6972(4) 0.38972(18)
H1 H 1.0814 0.7375 0.4042
C3 C 0.8154(6) 0.5715(3) 0.41163(17)
H2 H 0.9072 0.5269 0.4407
C4 C 0.5708(6) 0.5134(3) 0.38891(16)
C5 C 0.4400(6) 0.3753(3) 0.40859(16)
C6 C 0.1966(6) 0.3203(3) 0.38672(18)
H3 H 0.1073 0.3694 0.3599
C7 C 0.4654(8) 0.1842(4) 0.4633(2)
H4 H 0.5582 0.1368 0.4899
C8 C 0.2249(8) 0.1206(4) 0.4436(2)
H5 H 0.1566 0.0322 0.4558
C9 C 0.0860(7) 0.1910(4) 0.40507(19)
H6 H -0.0794 0.1521 0.3916
C10 C 0.5859(6) 0.9167(3) 0.24377(18)
H7 H 0.6841 0.9839 0.2873
H8 H 0.6909 0.8758 0.2164
C11 C 0.4537(6) 0.9936(3) 0.19366(17)
H9 H 0.3472 0.9243 0.1523
H10 H 0.5695 1.0594 0.1724
C12 C 0.3075(6) 1.0758(3) 0.23475(18)
H11 H 0.4105 1.1370 0.2794
H12 H 0.1804 1.0084 0.2511
C13 C 0.4226(5) 1.3293(3) 0.17891(17)
C14 C 0.8128(6) 1.4499(3) 0.21433(18)
H13 H 0.9656 1.4601 0.2407
C15 C 0.7794(6) 1.5506(3) 0.17167(18)
H14 H 0.9055 1.6290 0.1697
C16 C 0.5529(5) 1.5317(3) 0.13189(16)
C17 C 0.5008(6) 1.6321(3) 0.08174(16)
C18 C 0.2713(6) 1.6213(3) 0.04765(18)
H15 H 0.1422 1.5529 0.0575
C19 C 0.6504(8) 1.8175(4) 0.0233(2)
H16 H 0.7813 1.8867 0.0150
C20 C 0.4274(8) 1.8111(3) -0.01438(19)
H17 H 0.4091 1.8726 -0.0480
C21 C 0.2325(7) 1.7125(3) -0.00137(18)
H18 H 0.0780 1.7068 -0.0248
loop_
_geom_bond_atom_site_label_1
_geom_bond_atom_site_label_2
_geom_bond_site_symmetry_1
_geom_bond_site_symmetry_2
S1 C1 1_555 1_555
S2 C12 1_555 1_555
N1 C1 1_555 1_555
N2 C1 1_555 1_555
N3 C5 1_555 1_555
N4 C13 1_555 1_555
N5 C13 1_555 1_555
N6 C17 1_555 1_555
C2 N1 1_555 1_555
H1 C2 1_555 1_555
C3 C2 1_555 1_555
H2 C3 1_555 1_555
C4 N2 1_555 1_555
C5 C4 1_555 1_555
C6 C5 1_555 1_555
H3 C6 1_555 1_555
C7 N3 1_555 1_555
H4 C7 1_555 1_555
C8 C7 1_555 1_555
H5 C8 1_555 1_555
C9 C6 1_555 1_555
H6 C9 1_555 1_555
C10 S1 1_555 1_555
H7 C10 1_555 1_555
H8 C10 1_555 1_555
C11 C10 1_555 1_555
H9 C11 1_555 1_555
H10 C11 1_555 1_555
C12 C11 1_555 1_555
H11 C12 1_555 1_555
H12 C12 1_555 1_555
C13 S2 1_555 1_555
C14 N5 1_555 1_555
H13 C14 1_555 1_555
C15 C14 1_555 1_555
H14 C15 1_555 1_555
C16 N4 1_555 1_555
C17 C16 1_555 1_555
C18 C17 1_555 1_555
H15 C18 1_555 1_555
C19 N6 1_555 1_555
H16 C19 1_555 1_555
C20 C19 1_555 1_555
H17 C20 1_555 1_555
C21 C18 1_555 1_555
H18 C21 1_555 1_555
C3 C4 1_555 1_555
C8 C9 1_555 1_555
C15 C16 1_555 1_555
C20 C21 1_555 1_555

#END
