
#######################################################################
#
#                 Cambridge Crystallographic Data Centre
#                                CCDC 
#
#######################################################################
#
# If this CIF has been generated from an entry in the Cambridge 
# Structural Database, then it will include bibliographic, chemical, 
# crystal, experimental, refinement or atomic coordinate data resulting 
# from the CCDC's data processing and validation procedures.
#
#######################################################################

data_KUXPUP01
_chemical_formula_moiety         'C6 H5 N1 O3'
_chemical_name_systematic        '4-oxo-1,4-dihydropyridine-3-carboxylic acid'
_symmetry_cell_setting           orthorhombic
_symmetry_space_group_name_H-M   'P n a 21'
_symmetry_Int_Tables_number      33
_space_group_name_Hall           'P 2c -2n'
loop_
_symmetry_equiv_pos_site_id
_symmetry_equiv_pos_as_xyz
1 x,y,z
2 -x,-y,1/2+z
3 1/2-x,1/2+y,1/2+z
4 1/2+x,1/2-y,z
_cell_length_a                   13.4233(1)
_cell_length_b                   3.8097(5)
_cell_length_c                   11.6150(5)
_cell_angle_alpha                90
_cell_angle_beta                 90
_cell_angle_gamma                90
_cell_volume                     593.977
_exptl_crystal_colour            colorless
_exptl_crystal_description       block
_cell_formula_units_Z            4
loop_
_atom_site_label
_atom_site_type_symbol
_atom_site_fract_x
_atom_site_fract_y
_atom_site_fract_z
O1 O 0.29680(13) 0.4653(4) 0.19638(17)
C1 C 0.4115(2) 0.7464(7) 0.3197(2)
O2 O 0.44395(14) 0.7534(5) 0.12030(15)
H1 H 0.3909 0.6386 0.1277
C2 C 0.32143(18) 0.5560(6) 0.2993(2)
O3 O 0.54874(13) 1.0444(5) 0.23500(17)
C3 C 0.2618(2) 0.4719(6) 0.3966(2)
H2 H 0.2004 0.3516 0.3866
C4 C 0.29271(19) 0.5636(6) 0.5037(2)
H3 H 0.2528 0.5035 0.5683
N1 N 0.37935(16) 0.7392(5) 0.5204(2)
H4 H 0.3978 0.7942 0.5908
C5 C 0.43747(19) 0.8306(7) 0.4309(2)
H5 H 0.4975 0.9555 0.4448
C6 C 0.47470(18) 0.8582(6) 0.2218(2)
loop_
_geom_bond_atom_site_label_1
_geom_bond_atom_site_label_2
_geom_bond_site_symmetry_1
_geom_bond_site_symmetry_2
O1 C2 1_555 1_555
C1 C2 1_555 1_555
O2 H1 1_555 1_555
C2 C3 1_555 1_555
O3 C6 1_555 1_555
C3 H2 1_555 1_555
C4 C3 1_555 1_555
H3 C4 1_555 1_555
N1 C4 1_555 1_555
H4 N1 1_555 1_555
C5 C1 1_555 1_555
H5 C5 1_555 1_555
C6 C1 1_555 1_555
O2 C6 1_555 1_555
N1 C5 1_555 1_555

#END
