
#######################################################################
#
#                 Cambridge Crystallographic Data Centre
#                                CCDC 
#
#######################################################################
#
# If this CIF has been generated from an entry in the Cambridge 
# Structural Database, then it will include bibliographic, chemical, 
# crystal, experimental, refinement or atomic coordinate data resulting 
# from the CCDC's data processing and validation procedures.
#
#######################################################################

data_KUXTAA
_chemical_formula_moiety         'C26 H24 N8'
_chemical_name_systematic        
5,11,17,23-tetramethyl-5,11,17,23,27,28,29,30-octaazahexacyclo[13.9.2.1^4,24^.1^6,10^.1^12,16^.1^18,22^]triaconta-1,3,6(30),7,9,12(29),13,15,18(28),19,21,24(27),25-tridecaene
_symmetry_cell_setting           monoclinic
_symmetry_space_group_name_H-M   'P 21/c'
_symmetry_Int_Tables_number      14
_space_group_name_Hall           '-P 2ybc'
loop_
_symmetry_equiv_pos_site_id
_symmetry_equiv_pos_as_xyz
1 x,y,z
2 -x,1/2+y,1/2-z
3 -x,-y,-z
4 x,1/2-y,1/2+z
_cell_length_a                   17.774(5)
_cell_length_b                   11.314(3)
_cell_length_c                   11.548(3)
_cell_angle_alpha                90
_cell_angle_beta                 106.667(4)
_cell_angle_gamma                90
_cell_volume                     2224.68
_exptl_crystal_colour            pink
_exptl_crystal_description       plate
_cell_formula_units_Z            4
loop_
_atom_site_label
_atom_site_type_symbol
_atom_site_fract_x
_atom_site_fract_y
_atom_site_fract_z
N1 N 0.39414(12) 0.65294(19) 0.77125(18)
N2 N 0.34520(13) 0.46616(19) 0.79839(18)
N3 N 0.21522(12) 0.51294(18) 0.72976(17)
N4 N 0.09021(13) 0.5639(2) 0.6271(2)
N5 N 0.12545(12) 0.7600(2) 0.60463(18)
N6 N 0.17322(15) 0.9557(2) 0.6096(2)
N7 N 0.30604(13) 0.91128(18) 0.68219(18)
N8 N 0.43499(13) 0.8493(2) 0.7552(2)
C1 C 0.40779(15) 0.7392(2) 0.7003(2)
C2 C 0.39325(16) 0.7266(3) 0.5768(2)
H1 H 0.4101 0.7830 0.5313
C3 C 0.35281(15) 0.6274(2) 0.5232(2)
H2 H 0.3424 0.6165 0.4402
C4 C 0.32737(15) 0.5433(2) 0.5919(2)
C5 C 0.35525(15) 0.5570(2) 0.7186(2)
C6 C 0.4109(2) 0.4451(3) 0.9067(3)
H3 H 0.4593 0.4658 0.8906
H4 H 0.4121 0.3630 0.9285
H5 H 0.4043 0.4925 0.9721
C7 C 0.26926(18) 0.4461(2) 0.8042(2)
C8 C 0.2502(2) 0.3637(3) 0.8812(3)
H6 H 0.2887 0.3217 0.9379
C9 C 0.1716(2) 0.3480(3) 0.8689(3)
H7 H 0.1568 0.2938 0.9188
C10 C 0.1141(2) 0.4093(3) 0.7857(3)
H8 H 0.0611 0.3955 0.7762
C11 C 0.13934(16) 0.4941(2) 0.7155(2)
C12 C 0.01373(18) 0.5971(3) 0.6389(3)
H9 H -0.0154 0.5271 0.6451
H10 H -0.0144 0.6417 0.5693
H11 H 0.0205 0.6443 0.7103
C13 C 0.12842(14) 0.6485(2) 0.5698(2)
C14 C 0.16700(15) 0.6114(2) 0.4852(2)
C15 C 0.19133(16) 0.7012(2) 0.4222(2)
H12 H 0.2091 0.6828 0.3560
C16 C 0.18932(16) 0.8178(3) 0.4572(2)
H13 H 0.2059 0.8785 0.4161
C17 C 0.16174(15) 0.8411(2) 0.5556(2)
C18 C 0.10658(19) 1.0173(3) 0.6297(3)
H14 H 0.0892 1.0775 0.5693
H15 H 0.1217 1.0530 0.7084
H16 H 0.0647 0.9622 0.6246
C19 C 0.24966(18) 0.9940(2) 0.6623(2)
C20 C 0.2669(2) 1.1118(3) 0.6963(3)
H17 H 0.2274 1.1684 0.6832
C21 C 0.3438(2) 1.1410(3) 0.7494(3)
H18 H 0.3567 1.2189 0.7722
C22 C 0.4025(2) 1.0576(3) 0.7698(3)
H19 H 0.4548 1.0776 0.8056
C23 C 0.38039(17) 0.9415(2) 0.7346(2)
C24 C 0.50466(17) 0.8507(3) 0.8592(3)
H20 H 0.5236 0.7714 0.8777
H21 H 0.4916 0.8838 0.9275
H22 H 0.5447 0.8978 0.8409
C25 C 0.26749(16) 0.4560(2) 0.5293(2)
H23 H 0.2821 0.3774 0.5259
C26 C 0.19310(16) 0.4874(2) 0.4777(2)
H24 H 0.1571 0.4312 0.4365
loop_
_geom_bond_atom_site_label_1
_geom_bond_atom_site_label_2
_geom_bond_site_symmetry_1
_geom_bond_site_symmetry_2
N1 C1 1_555 1_555
N2 C5 1_555 1_555
N3 C7 1_555 1_555
N4 C11 1_555 1_555
N5 C13 1_555 1_555
N6 C17 1_555 1_555
N7 C19 1_555 1_555
N8 C1 1_555 1_555
C1 C2 1_555 1_555
C2 H1 1_555 1_555
C3 C2 1_555 1_555
H2 C3 1_555 1_555
C4 C3 1_555 1_555
C5 N1 1_555 1_555
C6 N2 1_555 1_555
H3 C6 1_555 1_555
H4 C6 1_555 1_555
H5 C6 1_555 1_555
C7 N2 1_555 1_555
C8 C7 1_555 1_555
H6 C8 1_555 1_555
C9 C8 1_555 1_555
H7 C9 1_555 1_555
C10 C9 1_555 1_555
H8 C10 1_555 1_555
C11 N3 1_555 1_555
C12 N4 1_555 1_555
H9 C12 1_555 1_555
H10 C12 1_555 1_555
H11 C12 1_555 1_555
C13 N4 1_555 1_555
C14 C13 1_555 1_555
C15 C14 1_555 1_555
H12 C15 1_555 1_555
C16 C15 1_555 1_555
H13 C16 1_555 1_555
C17 N5 1_555 1_555
C18 N6 1_555 1_555
H14 C18 1_555 1_555
H15 C18 1_555 1_555
H16 C18 1_555 1_555
C19 N6 1_555 1_555
C20 C19 1_555 1_555
H17 C20 1_555 1_555
C21 C20 1_555 1_555
H18 C21 1_555 1_555
C22 C21 1_555 1_555
H19 C22 1_555 1_555
C23 N7 1_555 1_555
C24 N8 1_555 1_555
H20 C24 1_555 1_555
H21 C24 1_555 1_555
H22 C24 1_555 1_555
C25 C4 1_555 1_555
H23 C25 1_555 1_555
C26 C14 1_555 1_555
H24 C26 1_555 1_555
N8 C23 1_555 1_555
C4 C5 1_555 1_555
C10 C11 1_555 1_555
C16 C17 1_555 1_555
C22 C23 1_555 1_555
C25 C26 1_555 1_555

#END
