
#######################################################################
#
#                 Cambridge Crystallographic Data Centre
#                                CCDC 
#
#######################################################################
#
# If this CIF has been generated from an entry in the Cambridge 
# Structural Database, then it will include bibliographic, chemical, 
# crystal, experimental, refinement or atomic coordinate data resulting 
# from the CCDC's data processing and validation procedures.
#
#######################################################################

data_KUXTEE
_chemical_formula_moiety         'C30 H26 N6,0.5(C1 H1 Cl3)'
_chemical_name_systematic        
'2,8,12,18-tetramethyl-2,8,10,12,18,29-hexaazaheptacyclo[17.9.1.1^3,7^.1^13,17^.1^20,28^.0^9,25^.0^11,23^]dotriaconta-1(29),3(32),4,6,9(25),10,13(31),14,16,19,21,23,26,28(30)-tetradecaene chloroform'
_symmetry_cell_setting           tetragonal
_symmetry_space_group_name_H-M   'P 42 n m'
_symmetry_Int_Tables_number      102
_space_group_name_Hall           'P 4n -2n'
loop_
_symmetry_equiv_pos_site_id
_symmetry_equiv_pos_as_xyz
1 x,y,z
2 1/2-y,1/2+x,1/2+z
3 -x,-y,z
4 1/2+y,1/2-x,1/2+z
5 1/2-x,1/2+y,1/2+z
6 -y,-x,z
7 1/2+x,1/2-y,1/2+z
8 y,x,z
_cell_length_a                   19.890(3)
_cell_length_b                   19.890(3)
_cell_length_c                   6.3216(13)
_cell_angle_alpha                90
_cell_angle_beta                 90
_cell_angle_gamma                90
_cell_volume                     2500.9
_exptl_crystal_colour            'light yellow'
_exptl_crystal_description       plate
_cell_formula_units_Z            4
loop_
_atom_site_label
_atom_site_type_symbol
_atom_site_fract_x
_atom_site_fract_y
_atom_site_fract_z
N1 N 0.04873(13) 0.21455(15) 0.3342(5)
N2 N 0.12508(13) 0.12508(13) 0.3683(7)
N3 N 0.21897(16) 0.38360(13) 0.3497(5)
N4 N 0.30724(13) 0.30724(13) 0.3916(7)
C2 C 0.06599(17) 0.28117(17) 0.2770(6)
C3 C 0.01831(19) 0.3293(2) 0.2193(7)
H2 H -0.0264 0.3174 0.1986
C4 C 0.0392(2) 0.3954(2) 0.1934(8)
H3 H 0.0082 0.4271 0.1468
C5 C 0.1045(2) 0.41583(18) 0.2346(7)
H4 H 0.1164 0.4610 0.2272
C6 C 0.15185(17) 0.36722(16) 0.2873(5)
C7 C 0.13291(16) 0.30052(16) 0.2883(5)
H5 H 0.1660 0.2675 0.2967
C8 C 0.09779(15) 0.17983(17) 0.4556(5)
C9 C 0.11835(15) 0.20528(16) 0.6536(5)
C10 C 0.16736(15) 0.16736(15) 0.7560(7)
H6 H 0.1751 0.1751 0.8990
C11 C 0.10468(17) 0.27437(17) 0.7337(5)
H7 H 0.0617 0.2847 0.7812
C12 C 0.15251(18) 0.32251(17) 0.7399(6)
H8 H 0.1413 0.3647 0.7923
C13 C 0.22308(16) 0.31022(16) 0.6650(5)
C14 C 0.25981(15) 0.25981(15) 0.7649(8)
H9 H 0.2502 0.2502 0.9057
C15 C 0.25097(17) 0.33368(15) 0.4743(5)
C16 C 0.00899(19) 0.1755(2) 0.1843(7)
H10 H -0.0283 0.2020 0.1361
H11 H -0.0074 0.1356 0.2523
H12 H 0.0365 0.1632 0.0657
C17 C 0.2600(2) 0.41560(17) 0.1851(7)
H13 H 0.2713 0.3830 0.0791
H14 H 0.3004 0.4332 0.2471
H15 H 0.2350 0.4516 0.1214
N1G N 0.21455(15) 0.04873(13) 0.3342(5)
N3G N 0.38360(13) 0.21897(16) 0.3497(5)
C2G C 0.28117(17) 0.06599(17) 0.2770(6)
C3G C 0.3293(2) 0.01831(19) 0.2193(7)
H2G H 0.3174 -0.0264 0.1986
C4G C 0.3954(2) 0.0392(2) 0.1934(8)
H3G H 0.4271 0.0082 0.1468
C5G C 0.41583(18) 0.1045(2) 0.2346(7)
H4G H 0.4610 0.1164 0.2272
C6G C 0.36722(16) 0.15185(17) 0.2873(5)
C7G C 0.30052(16) 0.13291(16) 0.2883(5)
H5G H 0.2675 0.1660 0.2967
C8G C 0.17983(17) 0.09779(15) 0.4556(5)
C9G C 0.20528(16) 0.11835(15) 0.6536(5)
C11G C 0.27437(17) 0.10468(17) 0.7337(5)
H7G H 0.2847 0.0617 0.7812
C12G C 0.32251(17) 0.15251(18) 0.7399(6)
H8G H 0.3647 0.1413 0.7923
C13G C 0.31022(16) 0.22308(16) 0.6650(5)
C15G C 0.33368(15) 0.25097(17) 0.4743(5)
C16G C 0.1755(2) 0.00899(19) 0.1843(7)
H10G H 0.2020 -0.0283 0.1361
H11G H 0.1356 -0.0074 0.2523
H12G H 0.1632 0.0365 0.0657
C17G C 0.41560(17) 0.2600(2) 0.1851(7)
H13G H 0.3830 0.2713 0.0791
H14G H 0.4332 0.3004 0.2471
H15G H 0.4516 0.2350 0.1214
Cl1 Cl 0.44983(12) 0.44983(12) 0.1154(9)
Cl2 Cl 0.5000 0.5000 0.5015(7)
C1 C 0.5200(4) 0.4800(4) 0.240(3)
H1 H 0.5542 0.4458 0.2387
Cl1B Cl 0.55017(12) 0.55017(12) 0.1154(9)
C1B C 0.4800(4) 0.5200(4) 0.240(3)
H1B H 0.4458 0.5542 0.2387
loop_
_geom_bond_atom_site_label_1
_geom_bond_atom_site_label_2
_geom_bond_site_symmetry_1
_geom_bond_site_symmetry_2
Cl1 C1 1_555 1_555
Cl2 C1 1_555 1_555
C1 H1 1_555 1_555
N1 C2 1_555 1_555
N2 C8 1_555 1_555
N3 C6 1_555 1_555
N4 C15 1_555 1_555
C2 C3 1_555 1_555
C3 H2 1_555 1_555
C4 C3 1_555 1_555
H3 C4 1_555 1_555
C5 C4 1_555 1_555
H4 C5 1_555 1_555
C6 C5 1_555 1_555
C7 C2 1_555 1_555
H5 C7 1_555 1_555
C8 N1 1_555 1_555
C9 C8 1_555 1_555
C10 C9 1_555 1_555
H6 C10 1_555 1_555
C11 C9 1_555 1_555
H7 C11 1_555 1_555
C12 C11 1_555 1_555
H8 C12 1_555 1_555
C13 C12 1_555 1_555
C14 C13 1_555 1_555
H9 C14 1_555 1_555
C15 N3 1_555 1_555
C16 N1 1_555 1_555
H10 C16 1_555 1_555
H11 C16 1_555 1_555
H12 C16 1_555 1_555
C17 N3 1_555 1_555
H13 C17 1_555 1_555
H14 C17 1_555 1_555
H15 C17 1_555 1_555
Cl1B C1 1_555 1_555
C1B Cl1 1_555 1_555
H1B C1B 1_555 1_555
N1G C2G 1_555 1_555
N3G C6G 1_555 1_555
C2G C3G 1_555 1_555
C3G H2G 1_555 1_555
C4G C3G 1_555 1_555
H3G C4G 1_555 1_555
C5G C4G 1_555 1_555
H4G C5G 1_555 1_555
C6G C5G 1_555 1_555
C7G C2G 1_555 1_555
H5G C7G 1_555 1_555
C8G N2 1_555 1_555
C9G C10 1_555 1_555
C11G C9G 1_555 1_555
H7G C11G 1_555 1_555
C12G C11G 1_555 1_555
H8G C12G 1_555 1_555
C13G C14 1_555 1_555
C15G N4 1_555 1_555
C16G N1G 1_555 1_555
H10G C16G 1_555 1_555
H11G C16G 1_555 1_555
H12G C16G 1_555 1_555
C17G N3G 1_555 1_555
H13G C17G 1_555 1_555
H14G C17G 1_555 1_555
H15G C17G 1_555 1_555
Cl2 C1B 1_555 1_555
C1 C1B 1_555 1_555
C6 C7 1_555 1_555
C13 C15 1_555 1_555
Cl1B C1B 1_555 1_555
N1G C8G 1_555 1_555
N3G C15G 1_555 1_555
C6G C7G 1_555 1_555
C8G C9G 1_555 1_555
C12G C13G 1_555 1_555
C13G C15G 1_555 1_555

#END
