
#######################################################################
#
#                 Cambridge Crystallographic Data Centre
#                                CCDC 
#
#######################################################################
#
# If this CIF has been generated from an entry in the Cambridge 
# Structural Database, then it will include bibliographic, chemical, 
# crystal, experimental, refinement or atomic coordinate data resulting 
# from the CCDC's data processing and validation procedures.
#
#######################################################################

data_KUXVIK
_chemical_formula_moiety         'C62 H60 N4 O4 P1 1+,Cl1 1-'
_chemical_name_systematic        
"2,2,2',2'-tetramethyl-4,4,4',4',8,8,8',8'-octaphenyl-3a',4,4',5,7,7',8,8',8a,8a'-decahydro-3aH-spiro[1,3-dioxolo[4,5-e][1,3,2]diazaphosphepine-6,6'-[1,3]dioxolo[4,5-e][1,3,2]diazaphosphepin[5]ium] chloride unknown solvate"
_symmetry_cell_setting           monoclinic
_symmetry_space_group_name_H-M   'P 21'
_symmetry_Int_Tables_number      4
_space_group_name_Hall           'P 2yb'
loop_
_symmetry_equiv_pos_site_id
_symmetry_equiv_pos_as_xyz
1 x,y,z
2 -x,1/2+y,-z
_cell_length_a                   13.9954(19)
_cell_length_b                   19.389(3)
_cell_length_c                   14.020(2)
_cell_angle_alpha                90
_cell_angle_beta                 115.309(2)
_cell_angle_gamma                90
_cell_volume                     3439.26
_exptl_crystal_colour            colorless
_exptl_crystal_description       block
_cell_formula_units_Z            2
loop_
_atom_site_label
_atom_site_type_symbol
_atom_site_fract_x
_atom_site_fract_y
_atom_site_fract_z
P1 P 0.75893(11) 0.67611(7) 0.23904(10)
N1 N 0.7656(3) 0.7295(2) 0.3311(3)
H1 H 0.7237 0.7224 0.3624
N2 N 0.8674(3) 0.6317(2) 0.2671(3)
H2 H 0.8575 0.5869 0.2590
N3 N 0.6747(4) 0.6171(3) 0.2324(4)
H3 H 0.6497 0.6201 0.2802
N4 N 0.7252(4) 0.7195(2) 0.1326(4)
H4 H 0.7275 0.7643 0.1428
C1 C 0.8409(4) 0.7916(3) 0.3667(4)
C2 C 0.9529(4) 0.7646(3) 0.4021(5)
H5 H 0.9681 0.7295 0.4590
C3 C 0.9892(4) 0.7351(2) 0.3160(5)
H6 H 0.9466 0.7572 0.2461
C4 C 0.9797(4) 0.6537(3) 0.3040(4)
C5 C 1.1228(7) 0.8048(4) 0.4411(6)
C6 C 1.1994(9) 0.7639(6) 0.5402(8)
H7 H 1.2400 0.7964 0.5967
H8 H 1.2479 0.7364 0.5220
H9 H 1.1584 0.7333 0.5643
C7 C 1.1681(7) 0.8703(5) 0.4052(8)
H10 H 1.1613 0.8630 0.3334
H11 H 1.2427 0.8766 0.4534
H12 H 1.1281 0.9114 0.4067
C8 C 0.7958(6) 0.8467(4) 0.2833(5)
C9 C 0.6894(6) 0.8608(4) 0.2285(5)
H13 H 0.6426 0.8350 0.2476
C10 C 0.6460(8) 0.9068(5) 0.1520(7)
H14 H 0.5713 0.9106 0.1149
C11 C 0.7134(8) 0.9504(4) 0.1267(6)
H15 H 0.6863 0.9849 0.0738
C12 C 0.8137(10) 0.9404(4) 0.1796(8)
H16 H 0.8584 0.9710 0.1646
C13 C 0.8655(7) 0.8895(3) 0.2572(4)
H17 H 0.9401 0.8840 0.2895
C14 C 0.8325(5) 0.8178(3) 0.4688(4)
C15 C 0.8364(6) 0.8892(3) 0.4896(6)
H18 H 0.8305 0.9231 0.4384
C16 C 0.8493(8) 0.9057(6) 0.5874(7)
H19 H 0.8707 0.9514 0.6116
C17 C 0.8331(7) 0.8600(4) 0.6554(5)
H20 H 0.8389 0.8751 0.7221
C18 C 0.8112(10) 0.7998(8) 0.6279(8)
H21 H 0.7853 0.7719 0.6673
C19 C 0.8223(8) 0.7684(4) 0.5395(6)
H22 H 0.8227 0.7199 0.5295
C20 C 1.0424(4) 0.6186(3) 0.4131(4)
C21 C 1.0028(5) 0.5967(3) 0.4774(5)
H23 H 0.9296 0.6038 0.4578
C22 C 1.0618(5) 0.5639(4) 0.5717(5)
H24 H 1.0289 0.5461 0.6133
C23 C 1.1740(5) 0.5573(4) 0.6061(5)
H25 H 1.2171 0.5372 0.6725
C24 C 1.2171(6) 0.5802(4) 0.5419(5)
H26 H 1.2910 0.5756 0.5632
C25 C 1.1535(6) 0.6111(4) 0.4437(5)
H27 H 1.1839 0.6266 0.3986
C26 C 1.0154(5) 0.6279(3) 0.2212(4)
C27 C 1.0587(4) 0.6681(3) 0.1700(5)
H28 H 1.0640 0.7165 0.1813
C28 C 1.0950(5) 0.6386(4) 0.1014(6)
H29 H 1.1334 0.6651 0.0725
C29 C 1.0748(6) 0.5728(3) 0.0776(5)
H30 H 1.0903 0.5554 0.0225
C30 C 1.0360(7) 0.5299(4) 0.1219(7)
H31 H 1.0301 0.4819 0.1066
C31 C 1.0022(6) 0.5601(3) 0.1963(5)
H32 H 0.9697 0.5315 0.2289
C32 C 0.6342(5) 0.5598(3) 0.1591(5)
C33 C 0.6010(4) 0.5909(3) 0.0452(4)
H33 H 0.5444 0.6260 0.0317
C34 C 0.6854(4) 0.6223(3) 0.0169(5)
H34 H 0.7561 0.6015 0.0608
C35 C 0.6915(4) 0.7007(3) 0.0219(4)
C36 C 0.5589(5) 0.5552(4) -0.1218(5)
C37 C 0.4532(6) 0.5869(4) -0.1937(6)
H35 H 0.4510 0.6349 -0.1730
H36 H 0.3960 0.5609 -0.1877
H37 H 0.4444 0.5854 -0.2669
C38 C 0.5710(9) 0.4939(6) -0.1710(9)
H38 H 0.5977 0.5055 -0.2232
H39 H 0.5024 0.4708 -0.2063
H40 H 0.6211 0.4631 -0.1176
C39 C 0.5305(5) 0.5335(4) 0.1592(5)
C40 C 0.4648(6) 0.5793(4) 0.1789(6)
H41 H 0.4836 0.6265 0.1930
C41 C 0.3676(6) 0.5538(3) 0.1775(7)
H42 H 0.3190 0.5836 0.1877
C42 C 0.3469(8) 0.4795(6) 0.1596(7)
H43 H 0.2825 0.4615 0.1566
C43 C 0.4101(7) 0.4396(4) 0.1483(7)
H44 H 0.3991 0.3912 0.1459
C44 C 0.4992(6) 0.4675(4) 0.1390(7)
H45 H 0.5396 0.4375 0.1171
C45 C 0.7193(3) 0.50291(17) 0.1908(3)
C46 C 0.7702(4) 0.4887(2) 0.2982(3)
H46 H 0.7524 0.5139 0.3464
C47 C 0.8471(4) 0.4375(3) 0.3349(4)
H47 H 0.8819 0.4278 0.4083
C48 C 0.8731(4) 0.4007(2) 0.2643(5)
H48 H 0.9256 0.3657 0.2894
C49 C 0.8222(4) 0.4149(2) 0.1569(5)
H49 H 0.8400 0.3897 0.1087
C50 C 0.7453(4) 0.4660(2) 0.1202(3)
H50 H 0.7105 0.4758 0.0468
C51 C 0.7779(4) 0.7294(3) -0.0131(4)
C52 C 0.8285(5) 0.6904(3) -0.0596(5)
H51 H 0.8092 0.6433 -0.0749
C53 C 0.9042(6) 0.7165(4) -0.0842(6)
H52 H 0.9431 0.6868 -0.1084
C54 C 0.9268(6) 0.7902(4) -0.0740(6)
H53 H 0.9741 0.8111 -0.0978
C55 C 0.8725(6) 0.8283(3) -0.0256(8)
H54 H 0.8887 0.8758 -0.0116
C56 C 0.7979(7) 0.7999(3) 0.0020(6)
H55 H 0.7609 0.8277 0.0308
C57 C 0.5864(5) 0.7365(3) -0.0475(4)
C58 C 0.5574(5) 0.7501(3) -0.1535(4)
H56 H 0.6046 0.7411 -0.1846
C59 C 0.4581(7) 0.7770(5) -0.2124(6)
H57 H 0.4359 0.7838 -0.2859
C60 C 0.3915(6) 0.7941(4) -0.1700(6)
H58 H 0.3236 0.8122 -0.2135
C61 C 0.4208(6) 0.7857(4) -0.0668(6)
H59 H 0.3744 0.8004 -0.0373
C62 C 0.5158(5) 0.7564(3) -0.0020(5)
H60 H 0.5345 0.7495 0.0709
O1 O 1.0252(4) 0.8216(2) 0.4429(3)
O2 O 1.0933(3) 0.7554(2) 0.3525(4)
O3 O 0.5564(3) 0.5337(2) -0.0265(3)
O4 O 0.6466(3) 0.5999(2) -0.0930(3)
Cl1 Cl 0.5362(3) 0.7522(3) 0.2911(4)
loop_
_geom_bond_atom_site_label_1
_geom_bond_atom_site_label_2
_geom_bond_site_symmetry_1
_geom_bond_site_symmetry_2
P1 N1 1_555 1_555
N1 H1 1_555 1_555
N2 P1 1_555 1_555
H2 N2 1_555 1_555
N3 P1 1_555 1_555
H3 N3 1_555 1_555
N4 P1 1_555 1_555
H4 N4 1_555 1_555
C1 N1 1_555 1_555
C2 C1 1_555 1_555
H5 C2 1_555 1_555
C3 C2 1_555 1_555
H6 C3 1_555 1_555
C4 N2 1_555 1_555
C5 C6 1_555 1_555
C6 H7 1_555 1_555
H8 C6 1_555 1_555
H9 C6 1_555 1_555
C7 C5 1_555 1_555
H10 C7 1_555 1_555
H11 C7 1_555 1_555
H12 C7 1_555 1_555
C8 C1 1_555 1_555
C9 C8 1_555 1_555
H13 C9 1_555 1_555
C10 C9 1_555 1_555
H14 C10 1_555 1_555
C11 C10 1_555 1_555
H15 C11 1_555 1_555
C12 C11 1_555 1_555
H16 C12 1_555 1_555
C13 C8 1_555 1_555
H17 C13 1_555 1_555
C14 C1 1_555 1_555
C15 C14 1_555 1_555
H18 C15 1_555 1_555
C16 C15 1_555 1_555
H19 C16 1_555 1_555
C17 C16 1_555 1_555
H20 C17 1_555 1_555
C18 C17 1_555 1_555
H21 C18 1_555 1_555
C19 C14 1_555 1_555
H22 C19 1_555 1_555
C20 C4 1_555 1_555
C21 C20 1_555 1_555
H23 C21 1_555 1_555
C22 C21 1_555 1_555
H24 C22 1_555 1_555
C23 C22 1_555 1_555
H25 C23 1_555 1_555
C24 C23 1_555 1_555
H26 C24 1_555 1_555
C25 C20 1_555 1_555
H27 C25 1_555 1_555
C26 C4 1_555 1_555
C27 C26 1_555 1_555
H28 C27 1_555 1_555
C28 C27 1_555 1_555
H29 C28 1_555 1_555
C29 C28 1_555 1_555
H30 C29 1_555 1_555
C30 C29 1_555 1_555
H31 C30 1_555 1_555
C31 C26 1_555 1_555
H32 C31 1_555 1_555
C32 N3 1_555 1_555
C33 C32 1_555 1_555
H33 C33 1_555 1_555
C34 C33 1_555 1_555
H34 C34 1_555 1_555
C35 N4 1_555 1_555
C36 C37 1_555 1_555
C37 H35 1_555 1_555
H36 C37 1_555 1_555
H37 C37 1_555 1_555
C38 C36 1_555 1_555
H38 C38 1_555 1_555
H39 C38 1_555 1_555
H40 C38 1_555 1_555
C39 C32 1_555 1_555
C40 C39 1_555 1_555
H41 C40 1_555 1_555
C41 C40 1_555 1_555
H42 C41 1_555 1_555
C42 C41 1_555 1_555
H43 C42 1_555 1_555
C43 C42 1_555 1_555
H44 C43 1_555 1_555
C44 C39 1_555 1_555
H45 C44 1_555 1_555
C45 C32 1_555 1_555
C46 C45 1_555 1_555
H46 C46 1_555 1_555
C47 C46 1_555 1_555
H47 C47 1_555 1_555
C48 C47 1_555 1_555
H48 C48 1_555 1_555
C49 C48 1_555 1_555
H49 C49 1_555 1_555
C50 C45 1_555 1_555
H50 C50 1_555 1_555
C51 C35 1_555 1_555
C52 C51 1_555 1_555
H51 C52 1_555 1_555
C53 C52 1_555 1_555
H52 C53 1_555 1_555
C54 C53 1_555 1_555
H53 C54 1_555 1_555
C55 C54 1_555 1_555
H54 C55 1_555 1_555
C56 C51 1_555 1_555
H55 C56 1_555 1_555
C57 C35 1_555 1_555
C58 C57 1_555 1_555
H56 C58 1_555 1_555
C59 C58 1_555 1_555
H57 C59 1_555 1_555
C60 C59 1_555 1_555
H58 C60 1_555 1_555
C61 C60 1_555 1_555
H59 C61 1_555 1_555
C62 C57 1_555 1_555
H60 C62 1_555 1_555
O1 C2 1_555 1_555
O2 C3 1_555 1_555
O3 C33 1_555 1_555
O4 C34 1_555 1_555
C3 C4 1_555 1_555
C5 O1 1_555 1_555
C5 O2 1_555 1_555
C12 C13 1_555 1_555
C18 C19 1_555 1_555
C24 C25 1_555 1_555
C30 C31 1_555 1_555
C34 C35 1_555 1_555
C36 O3 1_555 1_555
C36 O4 1_555 1_555
C43 C44 1_555 1_555
C49 C50 1_555 1_555
C55 C56 1_555 1_555
C61 C62 1_555 1_555

#END
