
#######################################################################
#
#                 Cambridge Crystallographic Data Centre
#                                CCDC 
#
#######################################################################
#
# If this CIF has been generated from an entry in the Cambridge 
# Structural Database, then it will include bibliographic, chemical, 
# crystal, experimental, refinement or atomic coordinate data resulting 
# from the CCDC's data processing and validation procedures.
#
#######################################################################

data_KUYDEN
_chemical_formula_moiety         'C21 H24 O2 S2'
_chemical_name_systematic        
4,4-Dimethoxy-10,10-epithiopropanoepithio(2.2)metacyclophane
_symmetry_cell_setting           orthorhombic
_symmetry_space_group_name_H-M   'P 21 21 21'
_symmetry_Int_Tables_number      19
_space_group_name_Hall           'P 2ac 2ab'
loop_
_symmetry_equiv_pos_site_id
_symmetry_equiv_pos_as_xyz
1 x,y,z
2 1/2+x,1/2-y,-z
3 -x,1/2+y,1/2-z
4 1/2-x,-y,1/2+z
_cell_length_a                   8.765(1)
_cell_length_b                   10.155(1)
_cell_length_c                   21.491(1)
_cell_angle_alpha                90
_cell_angle_beta                 90
_cell_angle_gamma                90
_cell_volume                     1912.88
_exptl_crystal_colour            colorless
_cell_formula_units_Z            4
loop_
_atom_site_label
_atom_site_type_symbol
_atom_site_fract_x
_atom_site_fract_y
_atom_site_fract_z
C1 C 0.05133(28) 0.13247(24) 0.13422(12)
C2 C 0.10575(36) 0.16955(26) 0.06725(13)
H1 H 0.11465(36) 0.26358(26) 0.06437(13)
H2 H 0.02988(36) 0.14165(26) 0.03785(13)
C3 C 0.25503(33) 0.10805(25) 0.05012(11)
C4 C 0.39405(38) 0.17040(28) 0.06012(14)
H3 H 0.39578(38) 0.26184(28) 0.07143(14)
C5 C 0.52938(36) 0.10226(29) 0.05563(14)
H4 H 0.62427(36) 0.14906(29) 0.05859(14)
C6 C 0.52752(31) -0.03207(30) 0.04648(12)
H5 H 0.62192(31) -0.08001(30) 0.04625(12)
C7 C 0.39080(30) -0.09816(25) 0.03787(11)
C8 C 0.25833(33) -0.02457(27) 0.03349(11)
H6 H 0.16621(33) -0.06571(27) 0.01914(11)
C9 C 0.37989(32) -0.24542(26) 0.04629(12)
H7 H 0.47728(32) -0.28391(26) 0.03698(12)
H8 H 0.30687(32) -0.28059(26) 0.01744(12)
C10 C 0.33233(28) -0.28437(23) 0.11450(11)
C11 C 0.17863(25) -0.22252(23) 0.12959(10)
C12 C 0.04161(27) -0.28519(24) 0.11465(11)
H9 H 0.04182(27) -0.37637(24) 0.10286(11)
C13 C -0.09436(29) -0.21706(27) 0.11537(12)
H10 H -0.18889(29) -0.26304(27) 0.10928(12)
C14 C -0.09605(29) -0.08177(26) 0.12587(11)
H11 H -0.18983(29) -0.03331(26) 0.12302(11)
C15 C 0.03843(26) -0.01748(24) 0.13994(10)
C16 C 0.17157(27) -0.08955(23) 0.14631(10)
H12 H 0.26053(27) -0.04692(23) 0.16284(10)
O1 O 0.16011(21) 0.18591(16) 0.17464(8)
C17 C 0.12570(36) 0.16895(29) 0.23891(12)
H13 H 0.20402(36) 0.20681(29) 0.26451(12)
H14 H 0.03043(36) 0.21222(29) 0.24712(12)
H15 H 0.11628(36) 0.07681(29) 0.24814(12)
O2 O -0.09610(22) 0.18384(18) 0.14564(9)
C18 C -0.11401(43) 0.32246(30) 0.13817(19)
H16 H -0.21670(43) 0.34956(30) 0.14697(19)
H17 H -0.04501(43) 0.36746(30) 0.16558(19)
H18 H -0.08938(43) 0.34367(30) 0.09581(19)
S1 S 0.48496(6) -0.22868(6) 0.16587(3)
C19 C 0.42186(36) -0.29970(30) 0.23827(14)
H19 H 0.32343(36) -0.26433(30) 0.24849(14)
H20 H 0.49172(36) -0.27319(30) 0.27031(14)
C20 C 0.29351(39) -0.50005(30) 0.19369(20)
H21 H 0.19710(39) -0.46168(30) 0.20467(20)
H22 H 0.28463(39) -0.59366(30) 0.19875(20)
C21 C 0.41200(41) -0.44856(34) 0.23767(19)
H23 H 0.38898(41) -0.47914(34) 0.27888(19)
H24 H 0.50934(41) -0.48416(34) 0.22600(19)
S2 S 0.32873(9) -0.46387(7) 0.11246(4)
loop_
_geom_bond_atom_site_label_1
_geom_bond_atom_site_label_2
_geom_bond_site_symmetry_1
_geom_bond_site_symmetry_2
C1 C2 1_555 1_555
C2 H1 1_555 1_555
H2 C2 1_555 1_555
C3 C2 1_555 1_555
C4 C3 1_555 1_555
H3 C4 1_555 1_555
C5 C4 1_555 1_555
H4 C5 1_555 1_555
C6 C5 1_555 1_555
H5 C6 1_555 1_555
C7 C6 1_555 1_555
C8 C3 1_555 1_555
H6 C8 1_555 1_555
C9 C7 1_555 1_555
H7 C9 1_555 1_555
H8 C9 1_555 1_555
C10 C9 1_555 1_555
C11 C10 1_555 1_555
C12 C11 1_555 1_555
H9 C12 1_555 1_555
C13 C12 1_555 1_555
H10 C13 1_555 1_555
C14 C13 1_555 1_555
H11 C14 1_555 1_555
C15 C1 1_555 1_555
C16 C11 1_555 1_555
H12 C16 1_555 1_555
O1 C1 1_555 1_555
C17 O1 1_555 1_555
H13 C17 1_555 1_555
H14 C17 1_555 1_555
H15 C17 1_555 1_555
O2 C1 1_555 1_555
C18 O2 1_555 1_555
H16 C18 1_555 1_555
H17 C18 1_555 1_555
H18 C18 1_555 1_555
S1 C10 1_555 1_555
C19 S1 1_555 1_555
H19 C19 1_555 1_555
H20 C19 1_555 1_555
C20 H21 1_555 1_555
H22 C20 1_555 1_555
C21 C19 1_555 1_555
H23 C21 1_555 1_555
H24 C21 1_555 1_555
S2 C10 1_555 1_555
C7 C8 1_555 1_555
C14 C15 1_555 1_555
C15 C16 1_555 1_555
C20 C21 1_555 1_555
C20 S2 1_555 1_555

#END
