
#######################################################################
#
#                 Cambridge Crystallographic Data Centre
#                                CCDC 
#
#######################################################################
#
# If this CIF has been generated from an entry in the Cambridge 
# Structural Database, then it will include bibliographic, chemical, 
# crystal, experimental, refinement or atomic coordinate data resulting 
# from the CCDC's data processing and validation procedures.
#
#######################################################################

data_KUYDOX
_chemical_formula_moiety         'C19 H20 S2'
_chemical_name_systematic        
10,10-Epithiopropanoepithio(2.2)metacyclophane
_symmetry_cell_setting           orthorhombic
_symmetry_space_group_name_H-M   'P 21 21 21'
_symmetry_Int_Tables_number      19
_space_group_name_Hall           'P 2ac 2ab'
loop_
_symmetry_equiv_pos_site_id
_symmetry_equiv_pos_as_xyz
1 x,y,z
2 1/2+x,1/2-y,-z
3 -x,1/2+y,1/2-z
4 1/2-x,-y,1/2+z
_cell_length_a                   6.323(1)
_cell_length_b                   9.188(2)
_cell_length_c                   27.015(7)
_cell_angle_alpha                90
_cell_angle_beta                 90
_cell_angle_gamma                90
_cell_volume                     1569.46
_exptl_crystal_colour            colorless
_cell_formula_units_Z            4
loop_
_atom_site_label
_atom_site_type_symbol
_atom_site_fract_x
_atom_site_fract_y
_atom_site_fract_z
S1 S 0.41470(15) 0.48956(13) 0.03330(4)
S2 S -0.01712(15) 0.36225(10) 0.04262(3)
C1 C 0.18428(55) 0.47175(42) 0.07328(12)
C2 C 0.26643(66) 0.37529(45) 0.11753(14)
H1 H 0.38332(66) 0.42301(45) 0.13337(14)
H2 H 0.31602(66) 0.28401(45) 0.10472(14)
C3 C 0.09751(69) 0.34645(44) 0.15545(13)
C4 C -0.03698(84) 0.22836(43) 0.15129(15)
H3 H 0.00039(84) 0.14845(43) 0.13013(15)
C5 C -0.22378(92) 0.22277(56) 0.17811(18)
H4 H -0.31555(92) 0.13977(56) 0.17596(18)
C6 C -0.28030(86) 0.33881(56) 0.20747(17)
H5 H -0.41140(86) 0.33613(56) 0.22537(17)
C7 C -0.14963(74) 0.45802(52) 0.21260(13)
C8 C 0.04691(65) 0.45489(44) 0.18931(12)
H6 H 0.14932(65) 0.52882(44) 0.19679(12)
C9 C -0.22972(85) 0.60154(55) 0.23202(15)
H7 H -0.11701(85) 0.65120(55) 0.24880(15)
H8 H -0.34097(85) 0.58391(55) 0.25545(15)
C10 C -0.31358(79) 0.69829(54) 0.18892(16)
H9 H -0.36489(79) 0.78892(54) 0.20190(16)
H10 H -0.42925(79) 0.64968(54) 0.17290(16)
C11 C -0.14323(66) 0.72680(44) 0.15193(14)
C12 C -0.00403(82) 0.84117(40) 0.15826(14)
H11 H -0.03640(82) 0.91635(40) 0.18175(14)
C13 C 0.18059(81) 0.84690(46) 0.13122(16)
H12 H 0.26989(81) 0.93105(46) 0.13384(16)
C14 C 0.23775(69) 0.73316(44) 0.10042(14)
H13 H 0.37166(69) 0.73533(44) 0.08369(14)
C15 C 0.10425(60) 0.61636(38) 0.09368(11)
C16 C -0.09386(58) 0.62059(40) 0.11630(12)
H14 H -0.19721(58) 0.54813(40) 0.10791(12)
C17 C 0.29956(76) 0.57481(54) -0.02002(17)
H15 H 0.40972(76) 0.59474(54) -0.04352(17)
H16 H 0.23969(76) 0.66631(54) -0.01012(17)
C18 C 0.12814(67) 0.48528(51) -0.04538(14)
H17 H 0.18318(67) 0.39048(51) -0.05295(14)
H18 H 0.08854(67) 0.53109(51) -0.07594(14)
C19 C -0.06363(60) 0.46751(47) -0.01288(13)
H19 H -0.11089(60) 0.56271(47) -0.00328(13)
H20 H -0.17498(60) 0.42278(47) -0.03165(13)
loop_
_geom_bond_atom_site_label_1
_geom_bond_atom_site_label_2
_geom_bond_site_symmetry_1
_geom_bond_site_symmetry_2
S1 C1 1_555 1_555
S2 C1 1_555 1_555
C1 C2 1_555 1_555
C2 H1 1_555 1_555
H2 C2 1_555 1_555
C3 C2 1_555 1_555
C4 C3 1_555 1_555
H3 C4 1_555 1_555
C5 C4 1_555 1_555
H4 C5 1_555 1_555
C6 C5 1_555 1_555
H5 C6 1_555 1_555
C7 C6 1_555 1_555
C8 C3 1_555 1_555
H6 C8 1_555 1_555
C9 C7 1_555 1_555
H7 C9 1_555 1_555
H8 C9 1_555 1_555
C10 C9 1_555 1_555
H9 C10 1_555 1_555
H10 C10 1_555 1_555
C11 C10 1_555 1_555
C12 C11 1_555 1_555
H11 C12 1_555 1_555
C13 C12 1_555 1_555
H12 C13 1_555 1_555
C14 C13 1_555 1_555
H13 C14 1_555 1_555
C15 C1 1_555 1_555
C16 C11 1_555 1_555
H14 C16 1_555 1_555
C17 S1 1_555 1_555
H15 C17 1_555 1_555
H16 C17 1_555 1_555
C18 C17 1_555 1_555
H17 C18 1_555 1_555
H18 C18 1_555 1_555
C19 S2 1_555 1_555
H19 C19 1_555 1_555
H20 C19 1_555 1_555
C7 C8 1_555 1_555
C14 C15 1_555 1_555
C15 C16 1_555 1_555
C18 C19 1_555 1_555

#END
