
#######################################################################
#
#                 Cambridge Crystallographic Data Centre
#                                CCDC 
#
#######################################################################
#
# If this CIF has been generated from an entry in the Cambridge 
# Structural Database, then it will include bibliographic, chemical, 
# crystal, experimental, refinement or atomic coordinate data resulting 
# from the CCDC's data processing and validation procedures.
#
#######################################################################

data_KUYGES
_chemical_formula_moiety         'C11 H15 Cl1 O3'
_chemical_name_systematic        
'6-(3-chloroprop-1-en-2-yl)-4-hydroxy-3-methylcyclohex-2-en-1-yl formate'
_symmetry_cell_setting           tetragonal
_symmetry_space_group_name_H-M   'I 41'
_symmetry_Int_Tables_number      80
_space_group_name_Hall           'I 4bw'
loop_
_symmetry_equiv_pos_site_id
_symmetry_equiv_pos_as_xyz
1 x,y,z
2 1/2-y,x,3/4+z
3 1/2+y,-x,3/4+z
4 -x,-y,z
5 1/2+x,1/2+y,1/2+z
6 -y,1/2+x,1/4+z
7 y,1/2-x,1/4+z
8 1/2-x,1/2-y,1/2+z
_cell_length_a                   18.2294(4)
_cell_length_b                   18.2294(4)
_cell_length_c                   7.0465(3)
_cell_angle_alpha                90
_cell_angle_beta                 90
_cell_angle_gamma                90
_cell_volume                     2341.63
_exptl_crystal_colour            colorless
_exptl_crystal_description       plate
_cell_formula_units_Z            8
loop_
_atom_site_label
_atom_site_type_symbol
_atom_site_fract_x
_atom_site_fract_y
_atom_site_fract_z
Cl1 Cl 0.98377(4) 1.10593(4) 1.11908(12)
O1 O 0.81849(12) 1.04046(12) 0.5265(3)
O2 O 0.86569(15) 1.15455(14) 0.5138(4)
O3 O 0.78936(12) 0.81906(12) 0.8158(3)
H1 H 0.7994 0.7861 0.8951
C1 C 0.8927(3) 0.8003(2) 0.5123(7)
H2 H 0.9106 0.8086 0.3829
H3 H 0.8467 0.7726 0.5077
H4 H 0.9294 0.7724 0.5840
C2 C 0.87964(18) 0.87338(18) 0.6084(6)
C3 C 0.89572(18) 0.93579(19) 0.5233(6)
H5 H 0.9148 0.9336 0.3980
C4 C 0.88580(17) 1.01024(17) 0.6116(5)
H6 H 0.9286 1.0423 0.5802
C5 C 0.87664(16) 1.00482(17) 0.8280(5)
H7 H 0.9251 0.9887 0.8796
C6 C 0.86051(19) 1.07870(18) 0.9165(4)
C7 C 0.92371(19) 1.1309(2) 0.9252(5)
H8 H 0.9053 1.1815 0.9442
H9 H 0.9512 1.1295 0.8041
C8 C 0.79585(19) 1.0978(2) 0.9850(5)
H10 H 0.7893 1.1450 1.0401
H11 H 0.7559 1.0645 0.9791
C9 C 0.8175(2) 1.11221(19) 0.4839(5)
H12 H 0.7746 1.1308 0.4247
C10 C 0.84878(17) 0.87080(18) 0.8070(5)
H13 H 0.8884 0.8536 0.8945
C11 C 0.82228(17) 0.94450(16) 0.8760(5)
H14 H 0.8151 0.9426 1.0152
H15 H 0.7744 0.9558 0.8168
loop_
_geom_bond_atom_site_label_1
_geom_bond_atom_site_label_2
_geom_bond_site_symmetry_1
_geom_bond_site_symmetry_2
Cl1 C7 1_555 1_555
O1 C4 1_555 1_555
O2 C9 1_555 1_555
O3 H1 1_555 1_555
C1 H2 1_555 1_555
H3 C1 1_555 1_555
H4 C1 1_555 1_555
C2 C1 1_555 1_555
C3 C2 1_555 1_555
H5 C3 1_555 1_555
C4 C3 1_555 1_555
H6 C4 1_555 1_555
C5 C4 1_555 1_555
H7 C5 1_555 1_555
C6 C5 1_555 1_555
C7 C6 1_555 1_555
H8 C7 1_555 1_555
H9 C7 1_555 1_555
C8 C6 1_555 1_555
H10 C8 1_555 1_555
H11 C8 1_555 1_555
C9 O1 1_555 1_555
H12 C9 1_555 1_555
C10 O3 1_555 1_555
H13 C10 1_555 1_555
C11 C5 1_555 1_555
H14 C11 1_555 1_555
H15 C11 1_555 1_555
C2 C10 1_555 1_555
C10 C11 1_555 1_555

#END
