
#######################################################################
#
#                 Cambridge Crystallographic Data Centre
#                                CCDC 
#
#######################################################################
#
# If this CIF has been generated from an entry in the Cambridge 
# Structural Database, then it will include bibliographic, chemical, 
# crystal, experimental, refinement or atomic coordinate data resulting 
# from the CCDC's data processing and validation procedures.
#
#######################################################################

data_KUYHIV
_chemical_compound_source        'Rabdosin Rubdesens Hemsl'
_chemical_formula_moiety         'C20 H28 O6'
_chemical_name_systematic        Oridonin
_symmetry_cell_setting           orthorhombic
_symmetry_space_group_name_H-M   'P 21 21 21'
_symmetry_Int_Tables_number      19
_space_group_name_Hall           'P 2ac 2ab'
loop_
_symmetry_equiv_pos_site_id
_symmetry_equiv_pos_as_xyz
1 x,y,z
2 1/2+x,1/2-y,-z
3 -x,1/2+y,1/2-z
4 1/2-x,-y,1/2+z
_cell_length_a                   13.316(9)
_cell_length_b                   21.302(2)
_cell_length_c                   13.015(1)
_cell_angle_alpha                90
_cell_angle_beta                 90
_cell_angle_gamma                90
_cell_volume                     3691.8
_cell_formula_units_Z            8
loop_
_atom_site_label
_atom_site_type_symbol
_atom_site_fract_x
_atom_site_fract_y
_atom_site_fract_z
O1 O 0.2411(5) 0.4626(4) 1.0224(6)
O2 O 0.0056(6) 0.4882(4) 0.8854(6)
O3 O 0.1737(6) 0.4029(4) 0.8972(6)
O4 O -0.0602(6) 0.3804(5) 0.9677(7)
O5 O 0.2024(5) 0.3090(4) 1.0211(7)
O6 O 0.1728(5) 0.5295(4) 1.3158(5)
C1 C 0.1056(7) 0.5495(6) 1.2343(9)
C2 C 0.126(1) 0.6190(6) 1.216(1)
C3 C 0.059(1) 0.6412(5) 1.130(1)
C4 C 0.0830(8) 0.6096(6) 1.027(1)
C5 C 0.0666(7) 0.5380(6) 1.044(1)
C6 C 0.0918(7) 0.4983(6) 0.9491(7)
C7 C 0.1464(8) 0.4401(6) 0.979(1)
C8 C 0.0965(7) 0.3987(5) 1.0625(8)
C9 C 0.0682(7) 0.4412(5) 1.1552(8)
C10 C 0.1193(7) 0.5094(5) 1.1415(8)
C11 C 0.0910(9) 0.4110(5) 1.259(1)
C12 C 0.059(1) 0.3421(6) 1.260(1)
C13 C 0.089(1) 0.3075(6) 1.164(1)
C14 C 0.1631(8) 0.3459(5) 1.103(1)
C15 C 0.003(1) 0.3633(6) 1.029(1)
C16 C 0.0019(8) 0.3054(7) 1.091(1)
C17 C -0.067(1) 0.2609(6) 1.073(1)
C18 C 0.186(1) 0.6293(6) 0.988(1)
C19 C 0.004(1) 0.6310(6) 0.949(1)
C20 C 0.2308(6) 0.4936(5) 1.1174(8)
O7 O 0.2092(4) 0.0336(3) 1.0419(5)
O8 O -0.0577(5) 0.0063(4) 0.9993(5)
O9 O 0.0748(5) 0.0883(3) 1.0974(5)
O10 O -0.0578(6) 0.1111(4) 0.8852(7)
O11 O 0.1637(6) 0.1837(4) 1.0263(6)
O12 O 0.3414(5) -0.0314(4) 0.7761(6)
C21 C 0.2369(8) -0.0515(5) 0.7850(8)
C22 C 0.2322(8) -0.1198(6) 0.8015(9)
C23 C 0.1262(9) -0.1416(6) 0.819(1)
C24 C 0.0794(7) -0.1123(6) 0.9158(9)
C25 C 0.0858(7) -0.0402(5) 0.9059(7)
C26 C 0.0492(7) -0.0043(5) 0.9999(9)
C27 C 0.1106(7) 0.0547(5) 1.0131(8)
C28 C 0.1218(7) 0.0966(5) 0.9205(8)
C29 C 0.1592(7) 0.0567(5) 0.8274(8)
C30 C 0.1875(7) -0.0095(5) 0.8676(8)
C31 C 0.2432(8) 0.0877(6) 0.7629(8)
C32 C 0.2200(8) 0.1574(6) 0.7449(9)
C33 C 0.174(1) 0.1891(7) 0.838(1)
C34 C 0.1940(8) 0.1528(6) 0.9359(9)
C35 C 0.0293(8) 0.1315(6) 0.8790(9)
C36 C 0.062(1) 0.1902(7) 0.837(1)
C37 C 0.000(1) 0.2348(9) 0.808(1)
C38 C -0.0301(8) -0.1318(6) 0.921(1)
C39 C 0.1332(9) -0.1379(6) 1.012(1)
C40 C 0.2567(7) -0.0020(5) 0.9593(7)
loop_
_geom_bond_atom_site_label_1
_geom_bond_atom_site_label_2
_geom_bond_site_symmetry_1
_geom_bond_site_symmetry_2
O1 C7 1_555 1_555
O2 C6 1_555 1_555
O3 C7 1_555 1_555
O4 C15 1_555 1_555
O5 C14 1_555 1_555
O6 C1 1_555 1_555
O7 C27 1_555 1_555
O8 C26 1_555 1_555
O9 C27 1_555 1_555
O10 C35 1_555 1_555
O11 C34 1_555 1_555
O12 C21 1_555 1_555
C1 C2 1_555 1_555
C2 C3 1_555 1_555
C3 C4 1_555 1_555
C4 C5 1_555 1_555
C5 C6 1_555 1_555
C6 C7 1_555 1_555
C7 C8 1_555 1_555
C8 C9 1_555 1_555
C9 C10 1_555 1_555
C10 C1 1_555 1_555
C11 C9 1_555 1_555
C12 C11 1_555 1_555
C13 C12 1_555 1_555
C14 C8 1_555 1_555
C15 C8 1_555 1_555
C16 C13 1_555 1_555
C17 C16 1_555 1_555
C18 C4 1_555 1_555
C19 C4 1_555 1_555
C20 O1 1_555 1_555
C21 C22 1_555 1_555
C22 C23 1_555 1_555
C23 C24 1_555 1_555
C24 C25 1_555 1_555
C25 C26 1_555 1_555
C26 C27 1_555 1_555
C27 C28 1_555 1_555
C28 C29 1_555 1_555
C29 C30 1_555 1_555
C30 C21 1_555 1_555
C31 C29 1_555 1_555
C32 C31 1_555 1_555
C33 C32 1_555 1_555
C34 C28 1_555 1_555
C35 C28 1_555 1_555
C36 C33 1_555 1_555
C37 C36 1_555 1_555
C38 C24 1_555 1_555
C39 C24 1_555 1_555
C40 O7 1_555 1_555
C5 C10 1_555 1_555
C10 C20 1_555 1_555
C13 C14 1_555 1_555
C15 C16 1_555 1_555
C25 C30 1_555 1_555
C30 C40 1_555 1_555
C33 C34 1_555 1_555
C35 C36 1_555 1_555

#END
