
#######################################################################
#
#                 Cambridge Crystallographic Data Centre
#                                CCDC 
#
#######################################################################
#
# If this CIF has been generated from an entry in the Cambridge 
# Structural Database, then it will include bibliographic, chemical, 
# crystal, experimental, refinement or atomic coordinate data resulting 
# from the CCDC's data processing and validation procedures.
#
#######################################################################

data_KUYJUL
_chemical_formula_moiety         'C20 H29 N1 O2 S1 Si1'
_chemical_name_systematic        
N-((t-butyl(dimethyl)silyl)(phenyl)methyl)-4-methylbenzenesulfonamide
_symmetry_cell_setting           orthorhombic
_symmetry_space_group_name_H-M   'P 21 21 21'
_symmetry_Int_Tables_number      19
_space_group_name_Hall           'P 2ac 2ab'
loop_
_symmetry_equiv_pos_site_id
_symmetry_equiv_pos_as_xyz
1 x,y,z
2 1/2-x,-y,1/2+z
3 -x,1/2+y,1/2-z
4 1/2+x,1/2-y,-z
_cell_length_a                   9.5140(3)
_cell_length_b                   12.5279(3)
_cell_length_c                   17.8046(5)
_cell_angle_alpha                90
_cell_angle_beta                 90
_cell_angle_gamma                90
_cell_volume                     2122.14
_exptl_crystal_colour            colorless
_exptl_crystal_description       block
_cell_formula_units_Z            4
loop_
_atom_site_label
_atom_site_type_symbol
_atom_site_fract_x
_atom_site_fract_y
_atom_site_fract_z
C1 C 0.2077(3) 0.3780(2) 0.68830(14)
H1 H 0.1851 0.4499 0.7063
H2 H 0.3049 0.3605 0.7017
H3 H 0.1439 0.3263 0.7116
C2 C 0.2302(3) 0.2609(2) 0.57582(17)
H4 H 0.1691 0.2085 0.6004
H5 H 0.3284 0.2461 0.5888
H6 H 0.2182 0.2562 0.5213
C3 C 0.0363(3) 0.3952(2) 0.58193(17)
H7 H -0.0239 0.3422 0.6065
H8 H 0.0246 0.3903 0.5274
H9 H 0.0097 0.4669 0.5988
C4 C 0.1908(2) 0.37371(18) 0.60253(14)
C5 C 0.4965(2) 0.4544(2) 0.58535(17)
H10 H 0.5300 0.3837 0.5700
H11 H 0.5006 0.4602 0.6402
H12 H 0.5562 0.5095 0.5628
C6 C 0.2999(3) 0.4519(2) 0.44943(14)
H13 H 0.3394 0.5140 0.4234
H14 H 0.2014 0.4428 0.4348
H15 H 0.3532 0.3879 0.4357
C7 C 0.25531(19) 0.61843(16) 0.57044(11)
H16 H 0.1552 0.6249 0.5539
C8 C 0.2617(2) 0.65665(16) 0.65131(11)
C9 C 0.1401(2) 0.65621(18) 0.69527(12)
H17 H 0.0540 0.6319 0.6743
C10 C 0.1438(2) 0.69092(19) 0.76923(12)
H18 H 0.0610 0.6882 0.7990
C11 C 0.2676(2) 0.72960(18) 0.79997(12)
H19 H 0.2695 0.7553 0.8502
C12 C 0.3889(2) 0.73042(18) 0.75657(12)
H20 H 0.4743 0.7563 0.7774
C13 C 0.3863(2) 0.69369(18) 0.68316(11)
H21 H 0.4702 0.6938 0.6543
C14 C 0.2702(2) 0.88615(16) 0.56457(11)
C15 C 0.3901(2) 0.93894(18) 0.58895(13)
H22 H 0.4756 0.9328 0.5617
C16 C 0.3838(2) 1.00070(17) 0.65346(13)
H23 H 0.4654 1.0373 0.6701
C17 C 0.2592(2) 1.00986(17) 0.69421(12)
C18 C 0.1405(2) 0.95685(18) 0.66842(12)
H24 H 0.0548 0.9634 0.6954
C19 C 0.1445(2) 0.89459(18) 0.60415(12)
H25 H 0.0627 0.8582 0.5873
C20 C 0.2526(2) 1.0746(2) 0.76556(13)
H26 H 0.1884 1.1350 0.7585
H27 H 0.3467 1.1014 0.7778
H28 H 0.2185 1.0296 0.8067
N1 N 0.34079(16) 0.68434(14) 0.51820(9)
H29 H 0.4240 0.6614 0.5038
O1 O 0.38891(15) 0.83762(12) 0.43725(8)
O2 O 0.14246(14) 0.77995(12) 0.45948(8)
S1 S 0.28282(5) 0.79798(4) 0.48741(3)
Si1 Si 0.31101(6) 0.47290(5) 0.55315(3)
loop_
_geom_bond_atom_site_label_1
_geom_bond_atom_site_label_2
_geom_bond_site_symmetry_1
_geom_bond_site_symmetry_2
C1 H1 1_555 1_555
H2 C1 1_555 1_555
H3 C1 1_555 1_555
C2 H4 1_555 1_555
H5 C2 1_555 1_555
H6 C2 1_555 1_555
C3 H7 1_555 1_555
H8 C3 1_555 1_555
H9 C3 1_555 1_555
C4 C1 1_555 1_555
C5 H10 1_555 1_555
H11 C5 1_555 1_555
H12 C5 1_555 1_555
C6 H13 1_555 1_555
H14 C6 1_555 1_555
H15 C6 1_555 1_555
C7 H16 1_555 1_555
C8 C7 1_555 1_555
C9 C8 1_555 1_555
H17 C9 1_555 1_555
C10 C9 1_555 1_555
H18 C10 1_555 1_555
C11 C10 1_555 1_555
H19 C11 1_555 1_555
C12 C11 1_555 1_555
H20 C12 1_555 1_555
C13 C8 1_555 1_555
H21 C13 1_555 1_555
C14 C15 1_555 1_555
C15 H22 1_555 1_555
C16 C15 1_555 1_555
H23 C16 1_555 1_555
C17 C16 1_555 1_555
C18 C17 1_555 1_555
H24 C18 1_555 1_555
C19 C14 1_555 1_555
H25 C19 1_555 1_555
C20 C17 1_555 1_555
H26 C20 1_555 1_555
H27 C20 1_555 1_555
H28 C20 1_555 1_555
N1 C7 1_555 1_555
H29 N1 1_555 1_555
O1 S1 1_555 1_555
O2 S1 1_555 1_555
S1 C14 1_555 1_555
Si1 C4 1_555 1_555
C2 C4 1_555 1_555
C3 C4 1_555 1_555
C5 Si1 1_555 1_555
C6 Si1 1_555 1_555
C7 Si1 1_555 1_555
C12 C13 1_555 1_555
C18 C19 1_555 1_555
N1 S1 1_555 1_555

#END
