
#######################################################################
#
#                 Cambridge Crystallographic Data Centre
#                                CCDC 
#
#######################################################################
#
# If this CIF has been generated from an entry in the Cambridge 
# Structural Database, then it will include bibliographic, chemical, 
# crystal, experimental, refinement or atomic coordinate data resulting 
# from the CCDC's data processing and validation procedures.
#
#######################################################################

data_KUYKEW
_chemical_formula_moiety         'C18 H14 N4 O2 S1'
_chemical_name_systematic        
7-((2-nitrophenyl)sulfanyl)-1-(pyrimidin-2-yl)indoline
_symmetry_cell_setting           triclinic
_symmetry_space_group_name_H-M   'P -1'
_symmetry_Int_Tables_number      2
_space_group_name_Hall           '-P 1'
loop_
_symmetry_equiv_pos_site_id
_symmetry_equiv_pos_as_xyz
1 x,y,z
2 -x,-y,-z
_cell_length_a                   7.6059(18)
_cell_length_b                   8.2702(18)
_cell_length_c                   13.411(3)
_cell_angle_alpha                92.066(2)
_cell_angle_beta                 102.639(5)
_cell_angle_gamma                101.285(4)
_cell_volume                     804.48
_exptl_crystal_colour            colorless
_exptl_crystal_description       Prism
_cell_formula_units_Z            2
loop_
_atom_site_label
_atom_site_type_symbol
_atom_site_fract_x
_atom_site_fract_y
_atom_site_fract_z
S1 S 0.19120(4) 0.91664(4) 0.66435(2)
O1 O 0.13668(13) 0.81134(13) 0.46007(7)
O2 O -0.06285(17) 0.58627(15) 0.39578(9)
N1 N -0.00934(15) 0.71290(14) 0.45454(8)
N2 N 0.31668(14) 1.16845(12) 0.87617(8)
N3 N 0.51255(13) 1.14787(12) 0.76720(7)
N4 N 0.49679(16) 1.41030(13) 0.84369(8)
C1 C -0.04857(15) 0.83586(13) 0.61770(8)
C2 C -0.12605(16) 0.74842(14) 0.52187(9)
C3 C -0.31488(18) 0.69245(16) 0.48521(10)
H1 H -0.3620 0.6314 0.4203
C4 C -0.43323(17) 0.72636(17) 0.54390(11)
H2 H -0.5627 0.6913 0.5191
C5 C -0.36114(17) 0.81241(16) 0.63968(10)
H3 H -0.4420 0.8355 0.6806
C6 C -0.17293(16) 0.86470(15) 0.67592(9)
H4 H -0.1267 0.9217 0.7421
C7 C 0.20780(15) 0.87381(14) 0.79489(9)
C8 C 0.16120(17) 0.70865(15) 0.81719(9)
H5 H 0.1361 0.6229 0.7638
C9 C 0.15094(18) 0.66791(15) 0.91537(10)
H6 H 0.1188 0.5551 0.9286
C10 C 0.18774(17) 0.79211(16) 0.99500(9)
H7 H 0.1762 0.7651 1.0618
C11 C 0.24124(15) 0.95493(15) 0.97496(9)
C12 C 0.28800(17) 1.11099(15) 1.04603(9)
H8 H 0.4084 1.1204 1.0950
H9 H 0.1918 1.1141 1.0849
C13 C 0.29527(19) 1.24866(15) 0.97226(10)
H10 H 0.1804 1.2916 0.9601
H11 H 0.4010 1.3413 1.0002
C14 C 0.25773(15) 0.99565(14) 0.87638(9)
C15 C 0.44697(15) 1.24468(14) 0.82643(9)
C16 C 0.62622(19) 1.48219(15) 0.79769(10)
H12 H 0.6679 1.5988 0.8092
C17 C 0.70369(17) 1.39664(16) 0.73399(9)
H13 H 0.7953 1.4509 0.7014
C18 C 0.63906(16) 1.22688(15) 0.72086(9)
H14 H 0.6870 1.1636 0.6768
loop_
_geom_bond_atom_site_label_1
_geom_bond_atom_site_label_2
_geom_bond_site_symmetry_1
_geom_bond_site_symmetry_2
S1 C1 1_555 1_555
O1 N1 1_555 1_555
O2 N1 1_555 1_555
N1 C2 1_555 1_555
N2 C13 1_555 1_555
N3 C15 1_555 1_555
N4 C15 1_555 1_555
C1 C2 1_555 1_555
C2 C3 1_555 1_555
C3 H1 1_555 1_555
C4 C3 1_555 1_555
H2 C4 1_555 1_555
C5 C4 1_555 1_555
H3 C5 1_555 1_555
C6 C1 1_555 1_555
H4 C6 1_555 1_555
C7 S1 1_555 1_555
C8 C7 1_555 1_555
H5 C8 1_555 1_555
C9 C8 1_555 1_555
H6 C9 1_555 1_555
C10 C9 1_555 1_555
H7 C10 1_555 1_555
C11 C10 1_555 1_555
C12 C11 1_555 1_555
H8 C12 1_555 1_555
H9 C12 1_555 1_555
C13 C12 1_555 1_555
H10 C13 1_555 1_555
H11 C13 1_555 1_555
C14 N2 1_555 1_555
C15 N2 1_555 1_555
C16 N4 1_555 1_555
H12 C16 1_555 1_555
C17 C16 1_555 1_555
H13 C17 1_555 1_555
C18 N3 1_555 1_555
H14 C18 1_555 1_555
C5 C6 1_555 1_555
C7 C14 1_555 1_555
C11 C14 1_555 1_555
C17 C18 1_555 1_555

#END
