
#######################################################################
#
#                 Cambridge Crystallographic Data Centre
#                                CCDC 
#
#######################################################################
#
# If this CIF has been generated from an entry in the Cambridge 
# Structural Database, then it will include bibliographic, chemical, 
# crystal, experimental, refinement or atomic coordinate data resulting 
# from the CCDC's data processing and validation procedures.
#
#######################################################################

data_KUYKUM
_chemical_formula_moiety         'C10 H17 Br1 O4'
_chemical_name_systematic        
'2-bromo-2-(dimethoxymethyl)-1-ethyl-3-methylcyclopropanecarboxylic acid'
_symmetry_cell_setting           orthorhombic
_symmetry_space_group_name_H-M   'P 21 21 21'
_symmetry_Int_Tables_number      19
_space_group_name_Hall           'P 2ac 2ab'
loop_
_symmetry_equiv_pos_site_id
_symmetry_equiv_pos_as_xyz
1 x,y,z
2 1/2-x,-y,1/2+z
3 -x,1/2+y,1/2-z
4 1/2+x,1/2-y,-z
_cell_length_a                   8.8043(13)
_cell_length_b                   11.5507(16)
_cell_length_c                   24.957(3)
_cell_angle_alpha                90
_cell_angle_beta                 90
_cell_angle_gamma                90
_cell_volume                     2538.02
_exptl_crystal_colour            colorless
_exptl_crystal_description       Block
_cell_formula_units_Z            8
loop_
_atom_site_label
_atom_site_type_symbol
_atom_site_fract_x
_atom_site_fract_y
_atom_site_fract_z
C1 C 0.3955(3) 1.0002(2) 0.70880(11)
C2 C 0.2347(3) 0.9583(3) 0.71925(11)
Br1 Br 0.07340(4) 1.04521(3) 0.686225(15)
C3 C 0.3233(3) 1.0159(2) 0.76338(11)
H1 H 0.3622 0.9592 0.7898
C4 C 0.4132(3) 1.1027(2) 0.67286(11)
O1 O 0.4230(3) 1.20215(16) 0.68798(8)
O2 O 0.4212(4) 1.07364(17) 0.62220(8)
H2 H 0.4456 1.1311 0.6041
C5 C 0.5230(3) 0.9129(3) 0.70238(13)
H3 H 0.5025 0.8460 0.7254
H4 H 0.5250 0.8857 0.6652
C6 C 0.6750(4) 0.9621(4) 0.71637(18)
H5 H 0.6951 1.0293 0.6941
H6 H 0.7528 0.9041 0.7102
H7 H 0.6757 0.9848 0.7538
C7 C 0.1953(4) 0.8311(2) 0.72175(12)
H8 H 0.2724 0.7899 0.7434
O3 O 0.0492(3) 0.81187(19) 0.74397(9)
C8 C 0.0385(6) 0.8396(3) 0.79879(15)
H9 H 0.1184 0.8001 0.8184
H10 H -0.0596 0.8153 0.8124
H11 H 0.0494 0.9226 0.8034
O4 O 0.1947(3) 0.78727(16) 0.67061(8)
C9 C 0.1927(5) 0.6626(3) 0.66803(15)
H12 H 0.2877 0.6324 0.6819
H13 H 0.1801 0.6383 0.6311
H14 H 0.1090 0.6333 0.6893
C10 C 0.2785(4) 1.1280(3) 0.78928(13)
H15 H 0.2302 1.1776 0.7630
H16 H 0.3683 1.1661 0.8033
H17 H 0.2082 1.1128 0.8183
C11 C 1.0155(3) 1.0412(3) 0.45982(10)
C12 C 0.8920(3) 0.9779(2) 0.49056(11)
Br2 Br 0.68688(4) 1.03286(3) 0.482754(16)
C13 C 1.0038(4) 1.0529(3) 0.52017(11)
H18 H 1.0819 1.0069 0.5391
C14 C 0.9702(4) 1.1411(2) 0.42498(12)
O5 O 0.9602(3) 1.24030(18) 0.43975(8)
O6 O 0.9470(4) 1.11078(18) 0.37509(8)
H19 H 0.9284 1.1692 0.3569
C15 C 1.1461(3) 0.9726(3) 0.43551(12)
H20 H 1.1664 0.9045 0.4578
H21 H 1.1167 0.9456 0.3998
C16 C 1.2897(4) 1.0448(4) 0.43115(17)
H22 H 1.2724 1.1088 0.4067
H23 H 1.3718 0.9970 0.4177
H24 H 1.3164 1.0747 0.4662
C17 C 0.8976(3) 0.8476(2) 0.49677(11)
H25 H 1.0030 0.8236 0.5050
O7 O 0.8524(3) 0.79794(17) 0.44851(8)
C18 C 0.8876(4) 0.6777(3) 0.44502(14)
H26 H 0.9959 0.6667 0.4501
H27 H 0.8583 0.6487 0.4100
H28 H 0.8326 0.6359 0.4726
O8 O 0.7997(3) 0.80659(18) 0.53724(8)
C19 C 0.8539(6) 0.8263(4) 0.58926(14)
H29 H 0.9595 0.8030 0.5914
H30 H 0.7944 0.7816 0.6146
H31 H 0.8452 0.9080 0.5977
C20 C 0.9609(6) 1.1604(3) 0.55043(14)
H32 H 0.8784 1.1993 0.5320
H33 H 1.0479 1.2118 0.5524
H34 H 0.9289 1.1397 0.5863
loop_
_geom_bond_atom_site_label_1
_geom_bond_atom_site_label_2
_geom_bond_site_symmetry_1
_geom_bond_site_symmetry_2
C1 C2 1_555 1_555
C2 Br1 1_555 1_555
C3 C1 1_555 1_555
H1 C3 1_555 1_555
C4 C1 1_555 1_555
O1 C4 1_555 1_555
O2 C4 1_555 1_555
H2 O2 1_555 1_555
C5 C1 1_555 1_555
H3 C5 1_555 1_555
H4 C5 1_555 1_555
C6 C5 1_555 1_555
H5 C6 1_555 1_555
H6 C6 1_555 1_555
H7 C6 1_555 1_555
C7 C2 1_555 1_555
H8 C7 1_555 1_555
O3 C7 1_555 1_555
C8 O3 1_555 1_555
H9 C8 1_555 1_555
H10 C8 1_555 1_555
H11 C8 1_555 1_555
O4 C7 1_555 1_555
C9 O4 1_555 1_555
H12 C9 1_555 1_555
H13 C9 1_555 1_555
H14 C9 1_555 1_555
C10 C3 1_555 1_555
H15 C10 1_555 1_555
H16 C10 1_555 1_555
H17 C10 1_555 1_555
C11 C12 1_555 1_555
C12 Br2 1_555 1_555
C13 C11 1_555 1_555
H18 C13 1_555 1_555
C14 C11 1_555 1_555
O5 C14 1_555 1_555
O6 C14 1_555 1_555
H19 O6 1_555 1_555
C15 C11 1_555 1_555
H20 C15 1_555 1_555
H21 C15 1_555 1_555
C16 C15 1_555 1_555
H22 C16 1_555 1_555
H23 C16 1_555 1_555
H24 C16 1_555 1_555
C17 C12 1_555 1_555
H25 C17 1_555 1_555
O7 C17 1_555 1_555
C18 O7 1_555 1_555
H26 C18 1_555 1_555
H27 C18 1_555 1_555
H28 C18 1_555 1_555
O8 C17 1_555 1_555
C19 O8 1_555 1_555
H29 C19 1_555 1_555
H30 C19 1_555 1_555
H31 C19 1_555 1_555
C20 C13 1_555 1_555
H32 C20 1_555 1_555
H33 C20 1_555 1_555
H34 C20 1_555 1_555
C2 C3 1_555 1_555
C12 C13 1_555 1_555

#END
