
#######################################################################
#
#                 Cambridge Crystallographic Data Centre
#                                CCDC 
#
#######################################################################
#
# If this CIF has been generated from an entry in the Cambridge 
# Structural Database, then it will include bibliographic, chemical, 
# crystal, experimental, refinement or atomic coordinate data resulting 
# from the CCDC's data processing and validation procedures.
#
#######################################################################

data_KUYVOQ
_chemical_name_common            Flutolanil
_chemical_formula_moiety         'C17 H16 F3 N1 O2'
_chemical_name_systematic        
N-(3-Isopropoxyphenyl)-2-(trifluoromethyl)benzamide
_symmetry_cell_setting           triclinic
_symmetry_space_group_name_H-M   'P -1'
_symmetry_Int_Tables_number      2
_space_group_name_Hall           '-P 1'
loop_
_symmetry_equiv_pos_site_id
_symmetry_equiv_pos_as_xyz
1 x,y,z
2 -x,-y,-z
_cell_length_a                   9.3264(3)
_cell_length_b                   11.9326(3)
_cell_length_c                   15.2208(3)
_cell_angle_alpha                71.125(2)
_cell_angle_beta                 87.493(2)
_cell_angle_gamma                79.495(2)
_cell_volume                     1575.73
_exptl_crystal_colour            colorless
_exptl_crystal_description       block
_cell_formula_units_Z            4
loop_
_atom_site_label
_atom_site_type_symbol
_atom_site_fract_x
_atom_site_fract_y
_atom_site_fract_z
F1 F 0.72396(12) -0.13855(11) 0.10482(7)
F2 F 0.93326(12) -0.10004(10) 0.06050(6)
F3 F 0.88346(16) -0.27044(10) 0.06979(7)
O1 O 1.05303(11) 0.01411(10) 0.20277(8)
O2 O 0.44736(11) 0.40242(8) 0.14189(7)
N1 N 0.80616(12) 0.03637(10) 0.19997(8)
H1 H 0.7330 -0.0033 0.2141
C1 C 0.86575(18) -0.18719(15) 0.11217(10)
C2 C 0.92024(15) -0.23796(13) 0.21080(9)
C3 C 0.94306(18) -0.36147(14) 0.25362(11)
H2 H 0.9202 -0.4119 0.2211
C4 C 0.9986(2) -0.41184(15) 0.34305(11)
H3 H 1.0137 -0.4966 0.3719
C5 C 1.03223(19) -0.33923(15) 0.39034(11)
H4 H 1.0710 -0.3738 0.4518
C6 C 1.00960(17) -0.21587(15) 0.34832(10)
H5 H 1.0336 -0.1662 0.3813
C7 C 0.95242(14) -0.16344(13) 0.25875(9)
C8 C 0.94110(15) -0.02947(13) 0.21688(9)
C9 C 0.76977(15) 0.16387(12) 0.16153(9)
C10 C 0.86874(16) 0.23390(14) 0.11281(10)
H6 H 0.9651 0.1980 0.1030
C11 C 0.82379(18) 0.35794(15) 0.07864(10)
H7 H 0.8917 0.4069 0.0468
C12 C 0.68377(17) 0.41177(13) 0.08955(10)
H8 H 0.6556 0.4968 0.0655
C13 C 0.58392(15) 0.34064(12) 0.13603(9)
C14 C 0.62674(15) 0.21664(12) 0.17305(9)
H9 H 0.5591 0.1681 0.2060
C15 C 0.32963(16) 0.33676(12) 0.17713(10)
H10 H 0.3616 0.2710 0.2365
C16 C 0.20828(19) 0.42797(15) 0.19619(12)
H11 H 0.2392 0.4548 0.2456
H12 H 0.1215 0.3912 0.2157
H13 H 0.1853 0.4972 0.1396
C17 C 0.28423(18) 0.28361(15) 0.10776(11)
H14 H 0.2418 0.3486 0.0525
H15 H 0.2117 0.2329 0.1355
H16 H 0.3697 0.2347 0.0901
F4 F 0.41964(12) -0.27986(8) 0.40792(6)
F5 F 0.63192(12) -0.34713(11) 0.36852(7)
F6 F 0.46092(15) -0.44715(9) 0.37974(8)
O3 O 0.56201(10) -0.06249(9) 0.29773(7)
O4 O -0.01982(11) 0.27137(9) 0.40762(7)
N2 N 0.31422(12) -0.00838(10) 0.29585(7)
H17 H 0.2346 -0.0189 0.2729
C18 C 0.49043(19) -0.33559(14) 0.35097(11)
C19 C 0.44895(16) -0.27094(13) 0.25121(10)
C20 C 0.4374(2) -0.33761(15) 0.19284(12)
H18 H 0.4584 -0.4230 0.2162
C21 C 0.3958(2) -0.28018(18) 0.10115(13)
H19 H 0.3891 -0.3262 0.0614
C22 C 0.3637(2) -0.15650(18) 0.06703(12)
H20 H 0.3335 -0.1173 0.0040
C23 C 0.37535(18) -0.08950(15) 0.12429(10)
H21 H 0.3528 -0.0042 0.1004
C24 C 0.41967(14) -0.14543(12) 0.21644(9)
C25 C 0.44013(15) -0.06876(12) 0.27467(9)
C26 C 0.29226(14) 0.06987(11) 0.35002(8)
C27 C 0.14916(15) 0.12932(11) 0.35161(9)
H22 H 0.0743 0.1161 0.3177
C28 C 0.11661(15) 0.20774(12) 0.40283(9)
C29 C 0.22679(16) 0.22750(13) 0.45182(9)
H23 H 0.2054 0.2817 0.4865
C30 C 0.36701(17) 0.16775(13) 0.44951(10)
H24 H 0.4417 0.1813 0.4833
C31 C 0.40278(15) 0.08807(12) 0.39927(9)
H25 H 0.5001 0.0472 0.3987
C32 C -0.14292(15) 0.24713(13) 0.36633(9)
H26 H -0.1172 0.2439 0.3026
C33 C -0.18436(19) 0.12950(15) 0.42444(12)
H27 H -0.1006 0.0643 0.4307
H28 H -0.2658 0.1138 0.3943
H29 H -0.2136 0.1338 0.4861
C34 C -0.26441(18) 0.35293(15) 0.35933(11)
H30 H -0.2836 0.3607 0.4211
H31 H -0.3529 0.3398 0.3346
H32 H -0.2354 0.4267 0.3178
loop_
_geom_bond_atom_site_label_1
_geom_bond_atom_site_label_2
_geom_bond_site_symmetry_1
_geom_bond_site_symmetry_2
F1 C1 1_555 1_555
F2 C1 1_555 1_555
F3 C1 1_555 1_555
O1 C8 1_555 1_555
O2 C13 1_555 1_555
N1 H1 1_555 1_555
C1 C2 1_555 1_555
C2 C3 1_555 1_555
C3 H2 1_555 1_555
C4 C3 1_555 1_555
H3 C4 1_555 1_555
C5 C4 1_555 1_555
H4 C5 1_555 1_555
C6 C5 1_555 1_555
H5 C6 1_555 1_555
C7 C2 1_555 1_555
C8 N1 1_555 1_555
C9 N1 1_555 1_555
C10 C9 1_555 1_555
H6 C10 1_555 1_555
C11 C10 1_555 1_555
H7 C11 1_555 1_555
C12 C11 1_555 1_555
H8 C12 1_555 1_555
C13 C12 1_555 1_555
C14 C9 1_555 1_555
H9 C14 1_555 1_555
C15 O2 1_555 1_555
H10 C15 1_555 1_555
C16 C15 1_555 1_555
H11 C16 1_555 1_555
H12 C16 1_555 1_555
H13 C16 1_555 1_555
C17 C15 1_555 1_555
H14 C17 1_555 1_555
H15 C17 1_555 1_555
H16 C17 1_555 1_555
F4 C18 1_555 1_555
F5 C18 1_555 1_555
F6 C18 1_555 1_555
O3 C25 1_555 1_555
O4 C28 1_555 1_555
N2 H17 1_555 1_555
C18 C19 1_555 1_555
C19 C20 1_555 1_555
C20 H18 1_555 1_555
C21 C20 1_555 1_555
H19 C21 1_555 1_555
C22 C21 1_555 1_555
H20 C22 1_555 1_555
C23 C22 1_555 1_555
H21 C23 1_555 1_555
C24 C19 1_555 1_555
C25 N2 1_555 1_555
C26 N2 1_555 1_555
C27 C26 1_555 1_555
H22 C27 1_555 1_555
C28 C27 1_555 1_555
C29 C28 1_555 1_555
H23 C29 1_555 1_555
C30 C29 1_555 1_555
H24 C30 1_555 1_555
C31 C26 1_555 1_555
H25 C31 1_555 1_555
C32 O4 1_555 1_555
H26 C32 1_555 1_555
C33 C32 1_555 1_555
H27 C33 1_555 1_555
H28 C33 1_555 1_555
H29 C33 1_555 1_555
C34 C32 1_555 1_555
H30 C34 1_555 1_555
H31 C34 1_555 1_555
H32 C34 1_555 1_555
C6 C7 1_555 1_555
C7 C8 1_555 1_555
C13 C14 1_555 1_555
C23 C24 1_555 1_555
C24 C25 1_555 1_555
C30 C31 1_555 1_555

#END
