
#######################################################################
#
#                 Cambridge Crystallographic Data Centre
#                                CCDC 
#
#######################################################################
#
# If this CIF has been generated from an entry in the Cambridge 
# Structural Database, then it will include bibliographic, chemical, 
# crystal, experimental, refinement or atomic coordinate data resulting 
# from the CCDC's data processing and validation procedures.
#
#######################################################################

data_KUYXUY
_chemical_formula_moiety         'C14 H15 Cl1 N2 O1'
_chemical_name_systematic        
5-(4-Chlorophenyl)-6-isopropyl-5,6-dihydro-4H-pyrrolo[3,4-c][1,2]oxazole
_symmetry_cell_setting           monoclinic
_symmetry_space_group_name_H-M   'P 21/c'
_symmetry_Int_Tables_number      14
_space_group_name_Hall           '-P 2ybc'
loop_
_symmetry_equiv_pos_site_id
_symmetry_equiv_pos_as_xyz
1 x,y,z
2 -x,1/2+y,1/2-z
3 -x,-y,-z
4 x,1/2-y,1/2+z
_cell_length_a                   15.0037(9)
_cell_length_b                   6.2364(4)
_cell_length_c                   15.5801(9)
_cell_angle_alpha                90
_cell_angle_beta                 117.2380(10)
_cell_angle_gamma                90
_cell_volume                     1296.16
_exptl_crystal_colour            'pale yellow'
_exptl_crystal_description       stick
_cell_formula_units_Z            4
loop_
_atom_site_label
_atom_site_type_symbol
_atom_site_fract_x
_atom_site_fract_y
_atom_site_fract_z
Cl1 Cl 0.53029(5) 0.72970(11) 0.07428(5)
O1 O 0.17957(13) 1.1528(3) 0.45555(12)
N1 N 0.25711(13) 0.8986(3) 0.24578(13)
N2 N 0.17208(15) 1.2612(3) 0.37156(14)
C1 C 0.31613(16) 0.8552(4) 0.20076(15)
C2 C 0.32447(17) 1.0003(4) 0.13595(16)
H1 H 0.2857 1.1280 0.1193
C3 C 0.38835(17) 0.9599(4) 0.09593(16)
H2 H 0.3940 1.0608 0.0530
C4 C 0.44355(17) 0.7739(4) 0.11838(16)
C5 C 0.43342(16) 0.6228(4) 0.17806(16)
H3 H 0.4696 0.4918 0.1911
C6 C 0.37017(16) 0.6630(4) 0.21896(16)
H4 H 0.3634 0.5586 0.2600
C7 C 0.27190(18) 0.7731(4) 0.33222(17)
H5 H 0.3437 0.7411 0.3738
H6 H 0.2335 0.6372 0.3140
C8 C 0.23192(17) 0.9227(4) 0.38036(16)
C9 C 0.21539(18) 0.9522(4) 0.45747(17)
H7 H 0.2271 0.8481 0.5060
C10 C 0.20329(16) 1.1175(4) 0.33080(16)
C11 C 0.21313(16) 1.1144(4) 0.23924(15)
H8 H 0.2625 1.2261 0.2426
C12 C 0.11400(17) 1.1478(4) 0.14745(16)
H9 H 0.1255 1.1103 0.0909
C13 C 0.0833(2) 1.3827(4) 0.13769(19)
H10 H 0.0713 1.4239 0.1922
H11 H 0.0218 1.4036 0.0772
H12 H 0.1369 1.4716 0.1373
C14 C 0.03096(18) 1.0035(4) 0.14450(19)
H13 H 0.0132 1.0470 0.1951
H14 H 0.0542 0.8544 0.1551
H15 H -0.0280 1.0161 0.0813
loop_
_geom_bond_atom_site_label_1
_geom_bond_atom_site_label_2
_geom_bond_site_symmetry_1
_geom_bond_site_symmetry_2
Cl1 C4 1_555 1_555
O1 N2 1_555 1_555
N1 C1 1_555 1_555
N2 C10 1_555 1_555
C1 C2 1_555 1_555
C2 H1 1_555 1_555
C3 C2 1_555 1_555
H2 C3 1_555 1_555
C4 C3 1_555 1_555
C5 C4 1_555 1_555
H3 C5 1_555 1_555
C6 C1 1_555 1_555
H4 C6 1_555 1_555
C7 N1 1_555 1_555
H5 C7 1_555 1_555
H6 C7 1_555 1_555
C8 C7 1_555 1_555
C9 O1 1_555 1_555
H7 C9 1_555 1_555
C10 C8 1_555 1_555
C11 N1 1_555 1_555
H8 C11 1_555 1_555
C12 C11 1_555 1_555
H9 C12 1_555 1_555
C13 C12 1_555 1_555
H10 C13 1_555 1_555
H11 C13 1_555 1_555
H12 C13 1_555 1_555
C14 C12 1_555 1_555
H13 C14 1_555 1_555
H14 C14 1_555 1_555
H15 C14 1_555 1_555
C5 C6 1_555 1_555
C8 C9 1_555 1_555
C10 C11 1_555 1_555

#END
