
#######################################################################
#
#                 Cambridge Crystallographic Data Centre
#                                CCDC 
#
#######################################################################
#
# If this CIF has been generated from an entry in the Cambridge 
# Structural Database, then it will include bibliographic, chemical, 
# crystal, experimental, refinement or atomic coordinate data resulting 
# from the CCDC's data processing and validation procedures.
#
#######################################################################

data_KUYXOR
_chemical_formula_moiety         'C31 H24 O4,H2 O1'
_chemical_name_systematic        
'3,9-Bi(9-fluorenylidenyl)-1,5,7,11-tetraoxa-5,5-undecane monohydrate'
_symmetry_cell_setting           monoclinic
_symmetry_space_group_name_H-M   'P 21/c'
_symmetry_Int_Tables_number      14
_space_group_name_Hall           '-P 2ybc'
loop_
_symmetry_equiv_pos_site_id
_symmetry_equiv_pos_as_xyz
1 x,y,z
2 -x,1/2+y,1/2-z
3 -x,-y,-z
4 x,1/2-y,1/2+z
_cell_length_a                   15.244(4)
_cell_length_b                   15.293(3)
_cell_length_c                   10.772(3)
_cell_angle_alpha                90
_cell_angle_beta                 99.45(2)
_cell_angle_gamma                90
_cell_volume                     2477.16
_exptl_crystal_colour            colorless
_chemical_melting_point          212-213deg.C
_cell_formula_units_Z            4
loop_
_atom_site_label
_atom_site_type_symbol
_atom_site_fract_x
_atom_site_fract_y
_atom_site_fract_z
O1 O 0.4814(2) 0.3034(2) 0.1796(2)
O2 O 0.4521(2) 0.2018(2) 0.3249(2)
C1 C 0.2653(3) 0.2404(3) 0.1365(4)
C2 C 0.1806(4) 0.2278(4) 0.0705(5)
C3 C 0.1113(4) 0.2814(4) 0.0878(5)
C4 C 0.1246(3) 0.3508(4) 0.1708(5)
C5 C 0.2008(4) 0.4980(3) 0.3836(5)
C6 C 0.2487(4) 0.5463(3) 0.4819(5)
C7 C 0.3348(4) 0.5257(3) 0.5300(5)
C8 C 0.3781(3) 0.4573(3) 0.4801(4)
C9 C 0.3644(3) 0.3359(2) 0.3072(4)
C10 C 0.2800(3) 0.3087(3) 0.2208(4)
C11 C 0.2098(3) 0.3645(3) 0.2375(4)
C12 C 0.2429(3) 0.4290(3) 0.3343(4)
C13 C 0.3312(3) 0.4103(3) 0.3801(4)
C14 C 0.4345(3) 0.3719(3) 0.2331(5)
C15 C 0.4059(3) 0.2632(3) 0.3936(4)
C16 C 0.5168(3) 0.2422(3) 0.2673(4)
O3 O 0.5548(1) 0.1796(1) 0.2007(2)
O4 O 0.5803(1) 0.2846(1) 0.3555(2)
C17 C 0.6501(3) 0.0312(2) 0.5574(4)
C18 C 0.6914(4) -0.0336(3) 0.6353(4)
C19 C 0.7799(4) -0.0505(3) 0.6390(4)
C20 C 0.8302(4) -0.0033(3) 0.5665(4)
C21 C 0.9089(3) 0.1337(3) 0.3745(4)
C22 C 0.9234(3) 0.1982(4) 0.2908(5)
C23 C 0.8549(3) 0.2512(3) 0.2354(4)
C24 C 0.7694(3) 0.2418(3) 0.2620(3)
C25 C 0.6682(2) 0.1505(2) 0.3890(3)
C26 C 0.6988(2) 0.0785(2) 0.4828(3)
C27 C 0.7888(2) 0.0621(2) 0.4874(3)
C28 C 0.8237(2) 0.1230(2) 0.4017(3)
C29 C 0.7537(2) 0.1765(2) 0.3453(3)
C30 C 0.5996(2) 0.1128(2) 0.2828(3)
C31 C 0.6246(3) 0.2260(2) 0.4500(3)
O5 O 0.0215(7) -0.0798(8) 0.0601(19)
loop_
_geom_bond_atom_site_label_1
_geom_bond_atom_site_label_2
_geom_bond_site_symmetry_1
_geom_bond_site_symmetry_2
O1 C14 1_555 1_555
O2 C15 1_555 1_555
C1 C2 1_555 1_555
C2 C3 1_555 1_555
C3 C4 1_555 1_555
C4 C11 1_555 1_555
C5 C6 1_555 1_555
C6 C7 1_555 1_555
C7 C8 1_555 1_555
C8 C13 1_555 1_555
C9 C10 1_555 1_555
C10 C1 1_555 1_555
C11 C10 1_555 1_555
C12 C5 1_555 1_555
C13 C9 1_555 1_555
C14 C9 1_555 1_555
C15 C9 1_555 1_555
C16 O1 1_555 1_555
O3 C16 1_555 1_555
O4 C16 1_555 1_555
C17 C18 1_555 1_555
C18 C19 1_555 1_555
C19 C20 1_555 1_555
C20 C27 1_555 1_555
C21 C22 1_555 1_555
C22 C23 1_555 1_555
C23 C24 1_555 1_555
C24 C29 1_555 1_555
C25 C26 1_555 1_555
C26 C17 1_555 1_555
C27 C26 1_555 1_555
C28 C21 1_555 1_555
C29 C25 1_555 1_555
C30 O3 1_555 1_555
C31 O4 1_555 1_555
O2 C16 1_555 1_555
C11 C12 1_555 1_555
C12 C13 1_555 1_555
C25 C30 1_555 1_555
C25 C31 1_555 1_555
C27 C28 1_555 1_555
C28 C29 1_555 1_555

#END
