
#######################################################################
#
#                 Cambridge Crystallographic Data Centre
#                                CCDC 
#
#######################################################################
#
# If this CIF has been generated from an entry in the Cambridge 
# Structural Database, then it will include bibliographic, chemical, 
# crystal, experimental, refinement or atomic coordinate data resulting 
# from the CCDC's data processing and validation procedures.
#
#######################################################################

data_KUYXIL
_chemical_formula_moiety         'C37 H32 O4,C1 H2 Cl2'
_chemical_name_systematic        
'3,4,10,11-Bi(9,10-dihydro-9,10-ethanoanthracenyl)-1,6,8,13-tetraoxa-6,6-tridecane dichloromethane solvate'
_symmetry_cell_setting           monoclinic
_symmetry_space_group_name_H-M   'P 21/c'
_symmetry_Int_Tables_number      14
_space_group_name_Hall           '-P 2ybc'
loop_
_symmetry_equiv_pos_site_id
_symmetry_equiv_pos_as_xyz
1 x,y,z
2 -x,1/2+y,1/2-z
3 -x,-y,-z
4 x,1/2-y,1/2+z
_cell_length_a                   16.898(1)
_cell_length_b                   9.299(1)
_cell_length_c                   24.359(2)
_cell_angle_alpha                90
_cell_angle_beta                 123.73(7)
_cell_angle_gamma                90
_cell_volume                     3183.31
_exptl_crystal_colour            colorless
_chemical_melting_point          301-302deg.C
_cell_formula_units_Z            4
_chemical_properties_physical    Air-sensitive
loop_
_atom_site_label
_atom_site_type_symbol
_atom_site_fract_x
_atom_site_fract_y
_atom_site_fract_z
O1 O 0.0903(2) 0.3596(3) 0.3240(1)
O2 O 0.2535(2) 0.3194(3) 0.3855(1)
C1 C 0.1639(3) 0.2686(5) 0.3646(2)
C2 C 0.0740(4) 0.3952(6) 0.2613(2)
C3 C 0.1302(3) 0.5263(5) 0.2664(2)
C4 C 0.2398(3) 0.5022(5) 0.3081(2)
C5 C 0.2705(4) 0.3489(6) 0.3348(2)
C6 C 0.0986(4) 0.5820(5) 0.1965(2)
C7 C 0.2800(3) 0.5453(6) 0.2663(2)
C8 C 0.1535(4) 0.7208(5) 0.2089(2)
C9 C 0.2516(3) 0.6998(5) 0.2466(2)
C10 C 0.3123(5) 0.8173(6) 0.2634(3)
C11 C 0.2732(5) 0.9523(7) 0.2418(3)
C12 C 0.1764(5) 0.9736(7) 0.2051(3)
C13 C 0.1155(5) 0.8566(6) 0.1888(2)
C14 C 0.1323(3) 0.4739(5) 0.1673(2)
C15 C 0.2293(3) 0.4546(5) 0.2053(2)
C16 C 0.2708(4) 0.3565(6) 0.1859(3)
C17 C 0.2130(5) 0.2790(7) 0.1280(3)
C18 C 0.1182(5) 0.2994(7) 0.0909(3)
C19 C 0.0755(4) 0.3974(6) 0.1098(2)
O3 O 0.1605(2) 0.2609(3) 0.4197(1)
O4 O 0.1439(2) 0.1369(3) 0.3309(1)
C20 C 0.2299(4) 0.1798(6) 0.4748(2)
C21 C 0.1950(3) 0.0277(5) 0.4698(2)
C22 C 0.1796(3) -0.0592(5) 0.4094(2)
C23 C 0.2068(4) 0.0189(6) 0.3677(2)
C24 C 0.2621(3) -0.0601(5) 0.5345(2)
C25 C 0.2347(3) -0.2036(5) 0.4351(2)
C26 C 0.2125(3) -0.2013(5) 0.5248(2)
C27 C 0.1978(3) -0.2778(5) 0.4710(2)
C28 C 0.1497(4) -0.4082(6) 0.4532(2)
C29 C 0.1163(4) -0.4602(7) 0.4904(3)
C30 C 0.1317(4) -0.3865(7) 0.5437(3)
C31 C 0.1779(4) -0.2580(7) 0.5606(3)
C32 C 0.3524(3) -0.0908(5) 0.5388(2)
C33 C 0.3390(3) -0.1700(5) 0.4855(2)
C34 C 0.4142(4) -0.2073(6) 0.4818(3)
C35 C 0.5055(4) -0.1696(7) 0.5329(2)
C36 C 0.5200(4) -0.0922(7) 0.5858(3)
C37 C 0.4450(4) -0.0514(7) 0.5892(3)
Cl1 Cl 0.4454(3) -0.0117(9) 0.1842(2)
Cl2 Cl 0.4475(2) 0.0885(5) 0.0816(2)
C38 C 0.4059(7) -0.0382(11) 0.1045(5)
loop_
_geom_bond_atom_site_label_1
_geom_bond_atom_site_label_2
_geom_bond_site_symmetry_1
_geom_bond_site_symmetry_2
O1 C1 1_555 1_555
O2 C1 1_555 1_555
C1 O3 1_555 1_555
C2 O1 1_555 1_555
C3 C2 1_555 1_555
C4 C3 1_555 1_555
C5 O2 1_555 1_555
C6 C3 1_555 1_555
C7 C4 1_555 1_555
C8 C6 1_555 1_555
C9 C7 1_555 1_555
C10 C9 1_555 1_555
C11 C10 1_555 1_555
C12 C11 1_555 1_555
C13 C8 1_555 1_555
C14 C6 1_555 1_555
C15 C7 1_555 1_555
C16 C15 1_555 1_555
C17 C16 1_555 1_555
C18 C17 1_555 1_555
C19 C14 1_555 1_555
O3 C20 1_555 1_555
O4 C1 1_555 1_555
C20 C21 1_555 1_555
C21 C22 1_555 1_555
C22 C23 1_555 1_555
C23 O4 1_555 1_555
C24 C21 1_555 1_555
C25 C22 1_555 1_555
C26 C24 1_555 1_555
C27 C25 1_555 1_555
C28 C27 1_555 1_555
C29 C28 1_555 1_555
C30 C29 1_555 1_555
C31 C26 1_555 1_555
C32 C24 1_555 1_555
C33 C25 1_555 1_555
C34 C33 1_555 1_555
C35 C34 1_555 1_555
C36 C35 1_555 1_555
C37 C32 1_555 1_555
Cl1 C38 1_555 1_555
Cl2 C38 1_555 1_555
C4 C5 1_555 1_555
C8 C9 1_555 1_555
C12 C13 1_555 1_555
C14 C15 1_555 1_555
C18 C19 1_555 1_555
C26 C27 1_555 1_555
C30 C31 1_555 1_555
C32 C33 1_555 1_555
C36 C37 1_555 1_555

#END
