
#######################################################################
#
#                 Cambridge Crystallographic Data Centre
#                                CCDC 
#
#######################################################################
#
# If this CIF has been generated from an entry in the Cambridge 
# Structural Database, then it will include bibliographic, chemical, 
# crystal, experimental, refinement or atomic coordinate data resulting 
# from the CCDC's data processing and validation procedures.
#
#######################################################################

data_KUYYOT
_chemical_formula_moiety         'C10 H14 N2 O2 S1'
_chemical_name_systematic        
1-(2-Hydroxyethyl)-3-(3-methoxyphenyl)thiourea
_symmetry_cell_setting           monoclinic
_symmetry_space_group_name_H-M   'P 21/n'
_symmetry_Int_Tables_number      14
_space_group_name_Hall           '-P 2yn'
loop_
_symmetry_equiv_pos_site_id
_symmetry_equiv_pos_as_xyz
1 x,y,z
2 1/2-x,1/2+y,1/2-z
3 -x,-y,-z
4 1/2+x,1/2-y,1/2+z
_cell_length_a                   10.9894(3)
_cell_length_b                   8.0759(2)
_cell_length_c                   12.8067(4)
_cell_angle_alpha                90
_cell_angle_beta                 102.9200(10)
_cell_angle_gamma                90
_cell_volume                     1107.81
_exptl_crystal_colour            colorless
_exptl_crystal_description       block
_cell_formula_units_Z            4
loop_
_atom_site_label
_atom_site_type_symbol
_atom_site_fract_x
_atom_site_fract_y
_atom_site_fract_z
C1 C 0.47197(11) 0.63459(15) 0.77190(10)
C2 C 0.46149(11) 0.49103(15) 0.83014(10)
H1 H 0.5124 0.4001 0.8268
C3 C 0.37377(11) 0.48652(16) 0.89296(10)
C4 C 0.29844(13) 0.62354(19) 0.89796(13)
H2 H 0.2409 0.621 0.9413
C5 C 0.30915(14) 0.7629(2) 0.83859(14)
H3 H 0.2576 0.8534 0.8412
C6 C 0.39582(13) 0.76975(19) 0.77507(13)
H4 H 0.4027 0.864 0.7351
N1 N 0.55784(11) 0.64047(14) 0.70312(10)
H5 H 0.5267(16) 0.658(2) 0.6393(16)
C7 C 0.68277(12) 0.62256(14) 0.73143(11)
S1 S 0.76633(4) 0.61967(5) 0.63478(3)
N2 N 0.73496(11) 0.60801(14) 0.83569(10)
H6 H 0.6920(16) 0.6201(17) 0.8796(14)
C8 C 0.86769(12) 0.57980(18) 0.87843(13)
H7 H 0.9014 0.5185 0.8262
H8 H 0.8782 0.5124 0.9425
C9 C 0.94037(12) 0.73800(18) 0.90533(12)
H9 H 1.0289 0.7127 0.9243
H10 H 0.9253 0.8091 0.8427
O1 O 0.90658(11) 0.82309(17) 0.99133(9)
H11 H 0.865(2) 0.906(3) 0.973(2)
O2 O 0.35374(10) 0.35339(12) 0.95322(9)
C10 C 0.40934(16) 0.1998(2) 0.93648(14)
H12 H 0.3879 0.1178 0.9836
H13 H 0.4984 0.2123 0.9511
H14 H 0.3793 0.1655 0.8635
loop_
_geom_bond_atom_site_label_1
_geom_bond_atom_site_label_2
_geom_bond_site_symmetry_1
_geom_bond_site_symmetry_2
C1 C2 1_555 1_555
C2 H1 1_555 1_555
C3 C2 1_555 1_555
C4 C3 1_555 1_555
H2 C4 1_555 1_555
C5 C4 1_555 1_555
H3 C5 1_555 1_555
C6 C1 1_555 1_555
H4 C6 1_555 1_555
N1 C1 1_555 1_555
H5 N1 1_555 1_555
C7 N1 1_555 1_555
S1 C7 1_555 1_555
N2 C7 1_555 1_555
H6 N2 1_555 1_555
C8 N2 1_555 1_555
H7 C8 1_555 1_555
H8 C8 1_555 1_555
C9 C8 1_555 1_555
H9 C9 1_555 1_555
H10 C9 1_555 1_555
O1 C9 1_555 1_555
H11 O1 1_555 1_555
O2 C3 1_555 1_555
C10 O2 1_555 1_555
H12 C10 1_555 1_555
H13 C10 1_555 1_555
H14 C10 1_555 1_555
C5 C6 1_555 1_555

#END
