
#######################################################################
#
#                 Cambridge Crystallographic Data Centre
#                                CCDC 
#
#######################################################################
#
# If this CIF has been generated from an entry in the Cambridge 
# Structural Database, then it will include bibliographic, chemical, 
# crystal, experimental, refinement or atomic coordinate data resulting 
# from the CCDC's data processing and validation procedures.
#
#######################################################################

data_KUYYAH
_chemical_formula_moiety         'C9 H8 N3 O7 1-,H4 N1 1+'
_chemical_name_systematic        
'Ammonium 2-(2,4-dinitrophenylamino)-3-hydroxypropanoate'
_symmetry_cell_setting           monoclinic
_symmetry_space_group_name_H-M   'P 21'
_symmetry_Int_Tables_number      4
_space_group_name_Hall           'P 2yb'
loop_
_symmetry_equiv_pos_site_id
_symmetry_equiv_pos_as_xyz
1 x,y,z
2 -x,1/2+y,-z
_cell_length_a                   4.790(1)
_cell_length_b                   6.503(1)
_cell_length_c                   19.655(6)
_cell_angle_alpha                90
_cell_angle_beta                 90.88(1)
_cell_angle_gamma                90
_cell_volume                     612.169
_exptl_crystal_colour            yellow
_cell_formula_units_Z            2
loop_
_atom_site_label
_atom_site_type_symbol
_atom_site_fract_x
_atom_site_fract_y
_atom_site_fract_z
O1 O 0.816(2) 0.614 0.7132(4)
O2 O 1.052(3) 0.688(2) 0.8008(5)
O3 O 0.964(2) 0.331(2) 1.0110(4)
O4 O 0.602(2) 0.138(2) 1.0229(4)
O5 O 0.510(2) -0.022(2) 0.5980(4)
O6 O -0.069(2) 0.222(2) 0.5851(4)
O7 O 0.272(2) 0.449(2) 0.5982(4)
N1 N 0.873(2) 0.586(2) 0.7728(5)
N2 N 0.760(2) 0.241(2) 0.9890(5)
N3 N 0.468(2) 0.299(2) 0.7116(5)
C1 C 0.546(3) 0.287(2) 0.7793(6)
C2 C 0.741(2) 0.419(2) 0.8087(6)
C3 C 0.816(3) 0.402(2) 0.8800(6)
C4 C 0.698(3) 0.248(2) 0.9161(5)
C5 C 0.504(3) 0.117(3) 0.8869(6)
C6 C 0.432(3) 0.131(2) 0.8219(6)
C7 C 0.250(3) 0.178(2) 0.6797(6)
C8 C 0.345(3) -0.035(2) 0.6568(7)
C9 C 0.148(2) 0.297(2) 0.6170(5)
N4 N 0.749(2) 0.623(2) 0.5381(5)
loop_
_geom_bond_atom_site_label_1
_geom_bond_atom_site_label_2
_geom_bond_site_symmetry_1
_geom_bond_site_symmetry_2
O1 N1 1_555 1_555
O2 N1 1_555 1_555
O3 N2 1_555 1_555
O4 N2 1_555 1_555
O5 C8 1_555 1_555
O6 C9 1_555 1_555
O7 C9 1_555 1_555
N1 C2 1_555 1_555
N2 C4 1_555 1_555
N3 C1 1_555 1_555
C1 C2 1_555 1_555
C2 C3 1_555 1_555
C3 C4 1_555 1_555
C4 C5 1_555 1_555
C5 C6 1_555 1_555
C6 C1 1_555 1_555
C7 N3 1_555 1_555
C8 C7 1_555 1_555
C9 C7 1_555 1_555

#END
