
#######################################################################
#
#                 Cambridge Crystallographic Data Centre
#                                CCDC 
#
#######################################################################
#
# If this CIF has been generated from an entry in the Cambridge 
# Structural Database, then it will include bibliographic, chemical, 
# crystal, experimental, refinement or atomic coordinate data resulting 
# from the CCDC's data processing and validation procedures.
#
#######################################################################

data_KUZGIW
_chemical_formula_moiety         'C20 H15 N3 O2,C18 H15 O1 P1'
_chemical_name_systematic        
'2-Anilino-3-(2-hydroxyphenyl)quinazolin-4(3H)-one triphenylphosphine oxide'
_symmetry_cell_setting           monoclinic
_symmetry_space_group_name_H-M   'P 21/c'
_symmetry_Int_Tables_number      14
_space_group_name_Hall           '-P 2ybc'
loop_
_symmetry_equiv_pos_site_id
_symmetry_equiv_pos_as_xyz
1 x,y,z
2 -x,1/2+y,1/2-z
3 -x,-y,-z
4 x,1/2-y,1/2+z
_cell_length_a                   18.9139(3)
_cell_length_b                   10.3201(2)
_cell_length_c                   18.2145(3)
_cell_angle_alpha                90
_cell_angle_beta                 117.7710(10)
_cell_angle_gamma                90
_cell_volume                     3145.83
_exptl_crystal_colour            colorless
_exptl_crystal_description       block
_cell_formula_units_Z            4
_exptl_crystal_recrystallization_method ethanol
loop_
_atom_site_label
_atom_site_type_symbol
_atom_site_fract_x
_atom_site_fract_y
_atom_site_fract_z
C1 C 0.32962(8) 0.72741(14) 0.53651(9)
C2 C 0.40582(9) 0.67312(16) 0.56734(10)
H1 H 0.4466 0.7194 0.5644
C3 C 0.42037(10) 0.55219(17) 0.60173(12)
H2 H 0.4710 0.5160 0.6219
C4 C 0.35995(10) 0.48339(18) 0.60672(12)
H3 H 0.3703 0.4012 0.6303
C5 C 0.28496(10) 0.53564(16) 0.57706(11)
H4 H 0.2450 0.4891 0.5815
C6 C 0.26804(8) 0.65830(13) 0.54015(9)
C7 C 0.31351(8) 0.85644(13) 0.50056(9)
C8 C 0.17650(8) 0.81807(13) 0.47432(9)
C9 C 0.03094(8) 0.81895(13) 0.43622(9)
C10 C -0.03180(9) 0.90485(15) 0.41509(11)
H5 H -0.0256 0.9911 0.4044
C11 C -0.10340(9) 0.86384(17) 0.40972(12)
H6 H -0.1451 0.9225 0.3953
C12 C -0.11359(9) 0.73755(17) 0.42540(11)
H7 H -0.1614 0.7104 0.4233
C13 C -0.05256(9) 0.65174(16) 0.44417(11)
H8 H -0.0599 0.5653 0.4534
C14 C 0.01986(9) 0.69020(14) 0.44979(10)
H9 H 0.0607 0.6303 0.4625
C15 C 0.21124(8) 1.01666(14) 0.42224(9)
C16 C 0.22674(8) 1.13421(14) 0.46389(9)
C17 C 0.20183(10) 1.24752(16) 0.41711(11)
H10 H 0.2115 1.3273 0.4439
C18 C 0.16332(11) 1.2428(2) 0.33218(12)
H11 H 0.1467 1.3194 0.3020
C19 C 0.14897(11) 1.1270(2) 0.29119(11)
H12 H 0.1229 1.1247 0.2335
C20 C 0.17354(10) 1.01345(18) 0.33622(10)
H13 H 0.1648 0.9345 0.3087
N1 N 0.23328(6) 0.89554(11) 0.46688(7)
N2 N 0.19109(7) 0.70555(11) 0.50893(7)
H29 H 0.2741(11) 1.0768(17) 0.5709(11)
N3 N 0.10191(7) 0.87046(12) 0.44097(9)
H30 H 0.0993(10) 0.9481(17) 0.4256(10)
O1 O 0.36237(6) 0.92844(10) 0.49659(7)
O2 O 0.26529(7) 1.14642(10) 0.54705(7)
C21 C 0.33743(8) 0.43284(13) 0.30104(9)
C22 C 0.32238(9) 0.31200(15) 0.26340(11)
H14 H 0.2973 0.3058 0.2058
C23 C 0.34463(11) 0.20058(16) 0.31131(13)
H15 H 0.3350 0.1199 0.2858
C24 C 0.38093(11) 0.20870(18) 0.39657(13)
H16 H 0.3944 0.1337 0.4285
C25 C 0.39715(11) 0.32773(18) 0.43414(11)
H17 H 0.4224 0.3332 0.4917
C26 C 0.37629(10) 0.43949(16) 0.38725(10)
H18 H 0.3883 0.5198 0.4134
C27 C 0.37978(8) 0.69513(13) 0.28300(8)
C28 C 0.43786(9) 0.70114(15) 0.25692(10)
H19 H 0.4348 0.6466 0.2149
C29 C 0.50034(10) 0.78835(18) 0.29339(11)
H20 H 0.5388 0.7929 0.2753
C30 C 0.50577(10) 0.86780(17) 0.35592(12)
H21 H 0.5483 0.9253 0.3807
C31 C 0.44867(11) 0.86288(16) 0.38213(11)
H22 H 0.4525 0.9170 0.4246
C32 C 0.38546(10) 0.77778(15) 0.34559(10)
H23 H 0.3464 0.7758 0.3630
C33 C 0.21504(8) 0.63051(13) 0.24196(9)
C34 C 0.19543(10) 0.59243(16) 0.30366(10)
H24 H 0.2309 0.5414 0.3475
C35 C 0.12366(11) 0.62987(19) 0.30023(12)
H25 H 0.1111 0.6040 0.3417
C36 C 0.07094(11) 0.70508(19) 0.23571(13)
H26 H 0.0225 0.7292 0.2331
C37 C 0.08972(11) 0.74456(19) 0.17519(12)
H27 H 0.0541 0.7962 0.1319
C38 C 0.16126(10) 0.70831(16) 0.17799(10)
H28 H 0.1735 0.7362 0.1367
O3 O 0.28491(6) 0.54813(10) 0.14922(6)
P1 P 0.30304(2) 0.57484(3) 0.23650(2)
loop_
_geom_bond_atom_site_label_1
_geom_bond_atom_site_label_2
_geom_bond_site_symmetry_1
_geom_bond_site_symmetry_2
C1 C2 1_555 1_555
C2 H1 1_555 1_555
C3 C2 1_555 1_555
H2 C3 1_555 1_555
C4 C3 1_555 1_555
H3 C4 1_555 1_555
C5 C4 1_555 1_555
H4 C5 1_555 1_555
C6 C1 1_555 1_555
C7 C1 1_555 1_555
C8 N1 1_555 1_555
C9 C10 1_555 1_555
C10 H5 1_555 1_555
C11 C10 1_555 1_555
H6 C11 1_555 1_555
C12 C11 1_555 1_555
H7 C12 1_555 1_555
C13 C12 1_555 1_555
H8 C13 1_555 1_555
C14 C9 1_555 1_555
H9 C14 1_555 1_555
C15 C16 1_555 1_555
C16 C17 1_555 1_555
C17 H10 1_555 1_555
C18 C17 1_555 1_555
H11 C18 1_555 1_555
C19 C18 1_555 1_555
H12 C19 1_555 1_555
C20 C15 1_555 1_555
H13 C20 1_555 1_555
C21 C22 1_555 1_555
C22 H14 1_555 1_555
C23 C22 1_555 1_555
H15 C23 1_555 1_555
C24 C23 1_555 1_555
H16 C24 1_555 1_555
C25 C24 1_555 1_555
H17 C25 1_555 1_555
C26 C21 1_555 1_555
H18 C26 1_555 1_555
C27 C28 1_555 1_555
C28 H19 1_555 1_555
C29 C28 1_555 1_555
H20 C29 1_555 1_555
C30 C29 1_555 1_555
H21 C30 1_555 1_555
C31 C30 1_555 1_555
H22 C31 1_555 1_555
C32 C27 1_555 1_555
H23 C32 1_555 1_555
C33 C34 1_555 1_555
C34 H24 1_555 1_555
C35 C34 1_555 1_555
H25 C35 1_555 1_555
C36 C35 1_555 1_555
H26 C36 1_555 1_555
C37 C36 1_555 1_555
H27 C37 1_555 1_555
C38 C33 1_555 1_555
H28 C38 1_555 1_555
N1 C7 1_555 1_555
N2 C6 1_555 1_555
H29 O2 1_555 1_555
N3 C8 1_555 1_555
H30 N3 1_555 1_555
O1 C7 1_555 1_555
O2 C16 1_555 1_555
O3 P1 1_555 1_555
P1 C21 1_555 1_555
C5 C6 1_555 1_555
C8 N2 1_555 1_555
C9 N3 1_555 1_555
C13 C14 1_555 1_555
C15 N1 1_555 1_555
C19 C20 1_555 1_555
C25 C26 1_555 1_555
C27 P1 1_555 1_555
C31 C32 1_555 1_555
C33 P1 1_555 1_555
C37 C38 1_555 1_555

#END
