
#######################################################################
#
#                 Cambridge Crystallographic Data Centre
#                                CCDC 
#
#######################################################################
#
# If this CIF has been generated from an entry in the Cambridge 
# Structural Database, then it will include bibliographic, chemical, 
# crystal, experimental, refinement or atomic coordinate data resulting 
# from the CCDC's data processing and validation procedures.
#
#######################################################################

data_KUZGUI
_chemical_name_common            
N-(bis(benzyl(methyl)amino)phosphoryl)-2,6-difluorobenzamide
_chemical_formula_moiety         'C23 H24 F2 N3 O2 P1'
_chemical_name_systematic        
"N,N'-Dibenzyl-N''-(2,6-difluorobenzoyl)-N,N'-dimethylphosphoric triamide"
_symmetry_cell_setting           triclinic
_symmetry_space_group_name_H-M   'P -1'
_symmetry_Int_Tables_number      2
_space_group_name_Hall           '-P 1'
loop_
_symmetry_equiv_pos_site_id
_symmetry_equiv_pos_as_xyz
1 x,y,z
2 -x,-y,-z
_cell_length_a                   9.9370(11)
_cell_length_b                   11.1093(15)
_cell_length_c                   11.5902(14)
_cell_angle_alpha                89.101(4)
_cell_angle_beta                 67.826(4)
_cell_angle_gamma                71.664(4)
_cell_volume                     1116.94
_exptl_crystal_colour            colorless
_exptl_crystal_description       block
_cell_formula_units_Z            2
_exptl_crystal_recrystallization_method methanol/heptane
loop_
_atom_site_label
_atom_site_type_symbol
_atom_site_fract_x
_atom_site_fract_y
_atom_site_fract_z
P1 P 0.66485(5) 0.42270(4) 0.29906(4)
F1 F 0.41237(17) 0.18210(16) 0.50507(15)
F2 F 0.16095(14) 0.43844(12) 0.27352(13)
O1 O 0.50833(16) 0.27969(15) 0.19272(13)
O2 O 0.68882(13) 0.46617(12) 0.40757(12)
N1 N 0.48905(16) 0.40601(15) 0.35526(15)
N2 N 0.79630(15) 0.28474(13) 0.22927(13)
N3 N 0.66719(17) 0.52094(15) 0.19333(15)
C1 C 0.2810(2) 0.2390(2) 0.4858(2)
C2 C 0.1464(3) 0.2189(3) 0.5632(2)
H1 H 0.1443 0.1678 0.6299
C3 C 0.0152(3) 0.2755(3) 0.5402(2)
H2 H -0.0785 0.2634 0.5924
C4 C 0.0174(2) 0.3490(2) 0.4434(2)
H3 H -0.0733 0.3880 0.4282
C5 C 0.1560(2) 0.3646(2) 0.36861(19)
C6 C 0.2916(2) 0.31110(18) 0.38644(17)
C7 C 0.4403(2) 0.32953(18) 0.30107(17)
C8 C 0.86123(19) 0.24379(17) 0.09447(16)
H4 H 0.8268 0.3173 0.0509
H5 H 0.8212 0.1771 0.0792
C9 C 1.03733(19) 0.19106(16) 0.03916(16)
C10 C 1.1236(2) 0.22336(17) 0.09620(17)
H6 H 1.0727 0.2797 0.1720
C11 C 1.2842(2) 0.17395(19) 0.04339(18)
H7 H 1.3419 0.1964 0.0836
C12 C 1.3599(2) 0.09219(18) -0.06744(19)
H8 H 1.4693 0.0584 -0.1033
C13 C 1.2756(2) 0.06030(19) -0.12524(19)
H9 H 1.3270 0.0049 -0.2017
C14 C 1.1147(2) 0.10908(18) -0.07202(18)
H10 H 1.0575 0.0859 -0.1123
C15 C 0.8149(2) 0.18153(18) 0.30902(18)
H11 H 0.9229 0.1261 0.2767
H12 H 0.7497 0.1313 0.3084
H13 H 0.7842 0.2184 0.3951
C16 C 0.5493(2) 0.56887(19) 0.14191(18)
H14 H 0.4917 0.5083 0.1535
H15 H 0.6010 0.5705 0.0506
C17 C 0.4345(2) 0.70157(17) 0.20021(17)
C18 C 0.3442(2) 0.76890(19) 0.13718(19)
H16 H 0.3538 0.7308 0.0604
C19 C 0.2409(2) 0.8908(2) 0.1858(2)
H17 H 0.1796 0.9355 0.1426
C20 C 0.2266(2) 0.9478(2) 0.2971(2)
H18 H 0.1568 1.0319 0.3297
C21 C 0.3144(2) 0.88166(19) 0.36020(18)
H19 H 0.3047 0.9202 0.4368
C22 C 0.4176(2) 0.75831(18) 0.31215(18)
H20 H 0.4767 0.7130 0.3569
C23 C 0.7939(3) 0.5743(2) 0.1510(3)
H21 H 0.8498 0.5537 0.0599
H22 H 0.8646 0.5376 0.1925
H23 H 0.7516 0.6673 0.1724
H24 H 0.429(2) 0.442(2) 0.427(2)
loop_
_geom_bond_atom_site_label_1
_geom_bond_atom_site_label_2
_geom_bond_site_symmetry_1
_geom_bond_site_symmetry_2
P1 O2 1_555 1_555
F1 C1 1_555 1_555
F2 C5 1_555 1_555
O1 C7 1_555 1_555
N1 P1 1_555 1_555
N2 P1 1_555 1_555
N3 P1 1_555 1_555
C1 C2 1_555 1_555
C2 H1 1_555 1_555
C3 C2 1_555 1_555
H2 C3 1_555 1_555
C4 C3 1_555 1_555
H3 C4 1_555 1_555
C5 C4 1_555 1_555
C6 C1 1_555 1_555
C7 N1 1_555 1_555
C8 N2 1_555 1_555
H4 C8 1_555 1_555
H5 C8 1_555 1_555
C9 C8 1_555 1_555
C10 C9 1_555 1_555
H6 C10 1_555 1_555
C11 C10 1_555 1_555
H7 C11 1_555 1_555
C12 C11 1_555 1_555
H8 C12 1_555 1_555
C13 C12 1_555 1_555
H9 C13 1_555 1_555
C14 C9 1_555 1_555
H10 C14 1_555 1_555
C15 N2 1_555 1_555
H11 C15 1_555 1_555
H12 C15 1_555 1_555
H13 C15 1_555 1_555
C16 N3 1_555 1_555
H14 C16 1_555 1_555
H15 C16 1_555 1_555
C17 C16 1_555 1_555
C18 C17 1_555 1_555
H16 C18 1_555 1_555
C19 C18 1_555 1_555
H17 C19 1_555 1_555
C20 C19 1_555 1_555
H18 C20 1_555 1_555
C21 C20 1_555 1_555
H19 C21 1_555 1_555
C22 C17 1_555 1_555
H20 C22 1_555 1_555
C23 N3 1_555 1_555
H21 C23 1_555 1_555
H22 C23 1_555 1_555
H23 C23 1_555 1_555
H24 N1 1_555 1_555
C5 C6 1_555 1_555
C6 C7 1_555 1_555
C13 C14 1_555 1_555
C21 C22 1_555 1_555

#END
