
#######################################################################
#
#                 Cambridge Crystallographic Data Centre
#                                CCDC 
#
#######################################################################
#
# If this CIF has been generated from an entry in the Cambridge 
# Structural Database, then it will include bibliographic, chemical, 
# crystal, experimental, refinement or atomic coordinate data resulting 
# from the CCDC's data processing and validation procedures.
#
#######################################################################

data_KUZHUK
_chemical_formula_moiety         'C27 H24 Cl1 N1 O4 S1'
_chemical_name_systematic        
N-(6-chloro-3-(2-(methylsulfanyl)ethyl)-2-oxo-4-(2-oxo-2-phenylethyl)-3,4-dihydro-2H-chromen-3-yl)benzamide
_symmetry_cell_setting           monoclinic
_symmetry_space_group_name_H-M   'P 21'
_symmetry_Int_Tables_number      4
_space_group_name_Hall           'P 2yb'
loop_
_symmetry_equiv_pos_site_id
_symmetry_equiv_pos_as_xyz
1 x,y,z
2 -x,1/2+y,-z
_cell_length_a                   9.7824(17)
_cell_length_b                   10.9381(19)
_cell_length_c                   11.376(2)
_cell_angle_alpha                90
_cell_angle_beta                 100.247(5)
_cell_angle_gamma                90
_cell_volume                     1197.83
_exptl_crystal_colour            colorless
_exptl_crystal_description       block
_cell_formula_units_Z            2
loop_
_atom_site_label
_atom_site_type_symbol
_atom_site_fract_x
_atom_site_fract_y
_atom_site_fract_z
Cl1 Cl -0.14118(8) 0.68176(7) 0.30825(7)
S1 S 0.89354(8) 0.49701(8) 0.65715(8)
O1 O 0.2964(2) 0.32752(17) 0.49152(18)
O2 O 0.5055(2) 0.28900(18) 0.59086(18)
O3 O 0.1959(2) 0.71189(18) 0.70349(19)
O4 O 0.4920(3) 0.34085(19) 0.3295(2)
N1 N 0.4673(2) 0.5321(2) 0.40010(19)
C1 C 0.4657(3) 0.4968(3) 0.5248(2)
C2 C 0.4287(3) 0.3616(2) 0.5347(2)
C3 C 0.1943(3) 0.4144(2) 0.4489(2)
C4 C 0.0731(3) 0.3725(3) 0.3801(3)
H1 H 0.0617 0.2881 0.3611
C5 C -0.0314(3) 0.4547(3) 0.3391(2)
H2 H -0.1162 0.4275 0.2924
C6 C -0.0113(3) 0.5775(3) 0.3667(2)
C7 C 0.1086(3) 0.6195(3) 0.4396(2)
H3 H 0.1194 0.7038 0.4592
C8 C 0.2128(3) 0.5362(3) 0.4835(2)
C9 C 0.3455(3) 0.5686(3) 0.5669(2)
H4 H 0.3629 0.6584 0.5621
C10 C 0.3337(3) 0.5344(3) 0.6961(2)
H5 H 0.3013 0.4487 0.6973
H6 H 0.4272 0.5388 0.7464
C11 C 0.2367(3) 0.6148(3) 0.7498(3)
C12 C 0.1940(3) 0.5759(3) 0.8641(3)
C13 C 0.2404(3) 0.4668(3) 0.9215(3)
H7 H 0.3009 0.4146 0.8878
C14 C 0.1984(4) 0.4343(4) 1.0278(3)
H8 H 0.2309 0.3606 1.0674
C15 C 0.1094(4) 0.5094(5) 1.0754(3)
H9 H 0.0807 0.4870 1.1479
C16 C 0.0615(4) 0.6161(4) 1.0194(3)
H10 H -0.0005 0.6666 1.0531
C17 C 0.1035(4) 0.6508(3) 0.9134(3)
H11 H 0.0707 0.7250 0.8750
C18 C 0.4923(3) 0.4524(3) 0.3155(3)
C19 C 0.5238(3) 0.5089(3) 0.2028(2)
C20 C 0.4786(4) 0.6241(3) 0.1629(3)
H12 H 0.4215 0.6704 0.2058
C21 C 0.5167(4) 0.6721(3) 0.0598(3)
H13 H 0.4844 0.7506 0.0317
C22 C 0.6012(4) 0.6056(4) -0.0013(3)
H14 H 0.6275 0.6389 -0.0711
C23 C 0.6477(4) 0.4920(4) 0.0379(3)
H15 H 0.7069 0.4470 -0.0040
C24 C 0.6079(3) 0.4429(3) 0.1390(3)
H16 H 0.6383 0.3633 0.1649
C25 C 0.6063(3) 0.5261(3) 0.6032(3)
H17 H 0.6151 0.6159 0.6126
H18 H 0.6081 0.4905 0.6835
C26 C 0.7317(3) 0.4779(3) 0.5535(3)
H19 H 0.7377 0.5216 0.4784
H20 H 0.7176 0.3900 0.5343
C27 C 0.8665(4) 0.3914(4) 0.7723(3)
H21 H 0.7852 0.4168 0.8056
H22 H 0.9487 0.3908 0.8357
H23 H 0.8510 0.3092 0.7383
loop_
_geom_bond_atom_site_label_1
_geom_bond_atom_site_label_2
_geom_bond_site_symmetry_1
_geom_bond_site_symmetry_2
Cl1 C6 1_555 1_555
S1 C26 1_555 1_555
O1 C2 1_555 1_555
O2 C2 1_555 1_555
O3 C11 1_555 1_555
O4 C18 1_555 1_555
N1 C1 1_555 1_555
C1 C2 1_555 1_555
C3 O1 1_555 1_555
C4 C3 1_555 1_555
H1 C4 1_555 1_555
C5 C4 1_555 1_555
H2 C5 1_555 1_555
C6 C5 1_555 1_555
C7 C6 1_555 1_555
H3 C7 1_555 1_555
C8 C3 1_555 1_555
C9 C1 1_555 1_555
H4 C9 1_555 1_555
C10 C9 1_555 1_555
H5 C10 1_555 1_555
H6 C10 1_555 1_555
C11 C10 1_555 1_555
C12 C11 1_555 1_555
C13 C12 1_555 1_555
H7 C13 1_555 1_555
C14 C13 1_555 1_555
H8 C14 1_555 1_555
C15 C14 1_555 1_555
H9 C15 1_555 1_555
C16 C15 1_555 1_555
H10 C16 1_555 1_555
C17 C12 1_555 1_555
H11 C17 1_555 1_555
C18 N1 1_555 1_555
C19 C18 1_555 1_555
C20 C19 1_555 1_555
H12 C20 1_555 1_555
C21 C20 1_555 1_555
H13 C21 1_555 1_555
C22 C21 1_555 1_555
H14 C22 1_555 1_555
C23 C22 1_555 1_555
H15 C23 1_555 1_555
C24 C19 1_555 1_555
H16 C24 1_555 1_555
C25 C1 1_555 1_555
H17 C25 1_555 1_555
H18 C25 1_555 1_555
C26 C25 1_555 1_555
H19 C26 1_555 1_555
H20 C26 1_555 1_555
C27 S1 1_555 1_555
H21 C27 1_555 1_555
H22 C27 1_555 1_555
H23 C27 1_555 1_555
C7 C8 1_555 1_555
C8 C9 1_555 1_555
C16 C17 1_555 1_555
C23 C24 1_555 1_555

#END
