
#######################################################################
#
#                 Cambridge Crystallographic Data Centre
#                                CCDC 
#
#######################################################################
#
# If this CIF has been generated from an entry in the Cambridge 
# Structural Database, then it will include bibliographic, chemical, 
# crystal, experimental, refinement or atomic coordinate data resulting 
# from the CCDC's data processing and validation procedures.
#
#######################################################################

data_KUZJUM
_chemical_formula_moiety         'C15 H10 O3,C3 H7 N1 O1'
_chemical_name_systematic        
'7-hydroxy-3-phenyl-4H-chromen-4-one N,N-dimethylformamide solvate'
_symmetry_cell_setting           monoclinic
_symmetry_space_group_name_H-M   'P 21/n'
_symmetry_Int_Tables_number      14
_space_group_name_Hall           '-P 2yn'
loop_
_symmetry_equiv_pos_site_id
_symmetry_equiv_pos_as_xyz
1 x,y,z
2 1/2-x,1/2+y,1/2-z
3 -x,-y,-z
4 1/2+x,1/2-y,1/2+z
_cell_length_a                   6.221(3)
_cell_length_b                   22.0680(10)
_cell_length_c                   11.516(6)
_cell_angle_alpha                90
_cell_angle_beta                 101.094(16)
_cell_angle_gamma                90
_cell_volume                     1551.43
_exptl_crystal_colour            colorless
_exptl_crystal_description       column
_cell_formula_units_Z            4
loop_
_atom_site_label
_atom_site_type_symbol
_atom_site_fract_x
_atom_site_fract_y
_atom_site_fract_z
O1 O 0.6982(2) 0.06064(6) 0.49457(11)
O2 O 1.2748(2) 0.15389(7) 0.53262(12)
O3 O 0.8228(3) -0.03348(7) 0.14424(13)
H1 H 0.7026 -0.0482 0.1465
C1 C 0.7599(3) 0.10113(8) 0.58236(15)
H2 H 0.6674 0.1060 0.6362
C2 C 0.9426(3) 0.13510(7) 0.59925(14)
C3 C 1.0984(3) 0.12652(8) 0.52066(15)
C4 C 1.1568(3) 0.07150(8) 0.33894(17)
H3 H 1.2922 0.0904 0.3449
C5 C 1.0865(3) 0.03258(9) 0.24753(18)
H4 H 1.1734 0.0253 0.1917
C6 C 0.8836(3) 0.00369(8) 0.23768(16)
C7 C 0.7558(3) 0.01350(8) 0.32113(16)
H5 H 0.6220 -0.0061 0.3158
C8 C 0.8308(3) 0.05321(7) 0.41318(14)
C9 C 1.0290(3) 0.08364(7) 0.42424(14)
C10 C 0.9791(3) 0.18142(8) 0.69392(14)
C11 C 0.8057(3) 0.21748(8) 0.71397(15)
H6 H 0.6670 0.2121 0.6677
C12 C 0.8372(4) 0.26108(9) 0.80151(17)
H7 H 0.7197 0.2844 0.8145
C13 C 1.0422(4) 0.27014(10) 0.86978(17)
H8 H 1.0634 0.2999 0.9281
C14 C 1.2151(3) 0.23510(10) 0.85145(16)
H9 H 1.3534 0.2413 0.8976
C15 C 1.1854(3) 0.19065(9) 0.76476(15)
H10 H 1.3033 0.1669 0.7537
O4 O 0.0858(3) 0.42804(8) 0.36452(14)
N1 N 0.1837(3) 0.36926(7) 0.52692(13)
C16 C -0.0129(4) 0.38135(13) 0.5727(2)
H11 H -0.0418 0.4241 0.5696
H12 H 0.0070 0.3677 0.6532
H13 H -0.1342 0.3603 0.5257
C17 C 0.3445(5) 0.32785(11) 0.5923(2)
H14 H 0.4703 0.3261 0.5554
H15 H 0.2814 0.2882 0.5924
H16 H 0.3881 0.3419 0.6723
C18 C 0.2155(4) 0.39474(10) 0.42871(18)
H17 H 0.3481 0.3869 0.4056
loop_
_geom_bond_atom_site_label_1
_geom_bond_atom_site_label_2
_geom_bond_site_symmetry_1
_geom_bond_site_symmetry_2
O1 C1 1_555 1_555
O2 C3 1_555 1_555
O3 H1 1_555 1_555
C1 H2 1_555 1_555
C2 C1 1_555 1_555
C3 C2 1_555 1_555
C4 H3 1_555 1_555
C5 C4 1_555 1_555
H4 C5 1_555 1_555
C6 O3 1_555 1_555
C7 C6 1_555 1_555
H5 C7 1_555 1_555
C8 O1 1_555 1_555
C9 C3 1_555 1_555
C10 C2 1_555 1_555
C11 C10 1_555 1_555
H6 C11 1_555 1_555
C12 C11 1_555 1_555
H7 C12 1_555 1_555
C13 C12 1_555 1_555
H8 C13 1_555 1_555
C14 C13 1_555 1_555
H9 C14 1_555 1_555
C15 C10 1_555 1_555
H10 C15 1_555 1_555
O4 C18 1_555 1_555
N1 C16 1_555 1_555
C16 H11 1_555 1_555
H12 C16 1_555 1_555
H13 C16 1_555 1_555
C17 N1 1_555 1_555
H14 C17 1_555 1_555
H15 C17 1_555 1_555
H16 C17 1_555 1_555
C18 N1 1_555 1_555
H17 C18 1_555 1_555
C4 C9 1_555 1_555
C5 C6 1_555 1_555
C7 C8 1_555 1_555
C8 C9 1_555 1_555
C14 C15 1_555 1_555

#END
