
#######################################################################
#
#                 Cambridge Crystallographic Data Centre
#                                CCDC 
#
#######################################################################
#
# If this CIF has been generated from an entry in the Cambridge 
# Structural Database, then it will include bibliographic, chemical, 
# crystal, experimental, refinement or atomic coordinate data resulting 
# from the CCDC's data processing and validation procedures.
#
#######################################################################

data_KUZJEW
_chemical_formula_moiety         'C15 H10 O3,C4 H10 O1'
_chemical_name_systematic        
'7-hydroxy-3-phenyl-4H-chromen-4-one 2-methylpropan-2-ol solvate'
_symmetry_cell_setting           monoclinic
_symmetry_space_group_name_H-M   'P 21/c'
_symmetry_Int_Tables_number      14
_space_group_name_Hall           '-P 2ybc'
loop_
_symmetry_equiv_pos_site_id
_symmetry_equiv_pos_as_xyz
1 x,y,z
2 -x,1/2+y,1/2-z
3 -x,-y,-z
4 x,1/2-y,1/2+z
_cell_length_a                   5.990(5)
_cell_length_b                   16.091(7)
_cell_length_c                   17.305(8)
_cell_angle_alpha                90
_cell_angle_beta                 94.852(12)
_cell_angle_gamma                90
_cell_volume                     1661.97
_exptl_crystal_colour            colorless
_exptl_crystal_description       block
_cell_formula_units_Z            4
loop_
_atom_site_label
_atom_site_type_symbol
_atom_site_fract_x
_atom_site_fract_y
_atom_site_fract_z
O1 O 0.82804(18) 0.07368(8) 0.54886(6)
O2 O 0.27074(19) 0.18676(8) 0.62049(6)
O3 O 0.5578(2) 0.08624(10) 0.28755(7)
H1 H 0.4567 0.1073 0.2592
C1 C 0.8074(3) 0.09203(11) 0.62415(9)
H2 H 0.9264 0.0775 0.6596
C2 C 0.6311(2) 0.12925(9) 0.65254(8)
C3 C 0.4391(3) 0.15184(9) 0.59930(9)
C4 C 0.2924(3) 0.15040(11) 0.45975(10)
H3 H 0.1590 0.1738 0.4731
C5 C 0.3200(3) 0.13493(11) 0.38339(9)
H4 H 0.2058 0.1477 0.3455
C6 C 0.5206(3) 0.09984(10) 0.36227(9)
C7 C 0.6869(3) 0.07835(10) 0.41860(9)
H5 H 0.8181 0.0532 0.4052
C8 C 0.6553(2) 0.09474(10) 0.49538(9)
C9 C 0.4613(2) 0.13173(9) 0.51835(9)
C10 C 0.6346(3) 0.14779(10) 0.73667(9)
C11 C 0.8196(3) 0.18580(11) 0.77575(10)
H6 H 0.9409 0.2012 0.7488
C12 C 0.8239(4) 0.20080(13) 0.85459(11)
H7 H 0.9491 0.2257 0.8804
C13 C 0.6455(4) 0.17934(13) 0.89493(11)
H8 H 0.6489 0.1902 0.9478
C14 C 0.4623(3) 0.14193(14) 0.85727(11)
H9 H 0.3414 0.1271 0.8847
C15 C 0.4559(3) 0.12602(12) 0.77870(10)
H10 H 0.3307 0.1005 0.7537
O4 O 0.2332(2) 0.34298(8) 0.69123(7)
H11 H 0.2567 0.2964 0.6744
C16 C 0.0983(3) 0.38944(11) 0.63373(10)
C17 C -0.1151(4) 0.34179(16) 0.61254(16)
H12 H -0.0805 0.2910 0.5870
H13 H -0.2138 0.3748 0.5784
H14 H -0.1867 0.3293 0.6587
C18 C 0.0442(4) 0.46995(15) 0.67353(16)
H15 H 0.1800 0.5003 0.6867
H16 H -0.0270 0.4578 0.7199
H17 H -0.0548 0.5027 0.6393
C19 C 0.2298(6) 0.4036(2) 0.56493(17)
H18 H 0.2609 0.3512 0.5416
H19 H 0.3683 0.4309 0.5813
H20 H 0.1445 0.4378 0.5278
loop_
_geom_bond_atom_site_label_1
_geom_bond_atom_site_label_2
_geom_bond_site_symmetry_1
_geom_bond_site_symmetry_2
O1 C1 1_555 1_555
O2 C3 1_555 1_555
O3 H1 1_555 1_555
C1 H2 1_555 1_555
C2 C1 1_555 1_555
C3 C2 1_555 1_555
C4 H3 1_555 1_555
C5 C4 1_555 1_555
H4 C5 1_555 1_555
C6 O3 1_555 1_555
C7 C6 1_555 1_555
H5 C7 1_555 1_555
C8 O1 1_555 1_555
C9 C3 1_555 1_555
C10 C2 1_555 1_555
C11 C10 1_555 1_555
H6 C11 1_555 1_555
C12 C11 1_555 1_555
H7 C12 1_555 1_555
C13 C12 1_555 1_555
H8 C13 1_555 1_555
C14 C13 1_555 1_555
H9 C14 1_555 1_555
C15 C10 1_555 1_555
H10 C15 1_555 1_555
O4 H11 1_555 1_555
C16 O4 1_555 1_555
C17 C16 1_555 1_555
H12 C17 1_555 1_555
H13 C17 1_555 1_555
H14 C17 1_555 1_555
C18 C16 1_555 1_555
H15 C18 1_555 1_555
H16 C18 1_555 1_555
H17 C18 1_555 1_555
C19 C16 1_555 1_555
H18 C19 1_555 1_555
H19 C19 1_555 1_555
H20 C19 1_555 1_555
C4 C9 1_555 1_555
C5 C6 1_555 1_555
C7 C8 1_555 1_555
C8 C9 1_555 1_555
C14 C15 1_555 1_555

#END
