
#######################################################################
#
#                 Cambridge Crystallographic Data Centre
#                                CCDC 
#
#######################################################################
#
# If this CIF has been generated from an entry in the Cambridge 
# Structural Database, then it will include bibliographic, chemical, 
# crystal, experimental, refinement or atomic coordinate data resulting 
# from the CCDC's data processing and validation procedures.
#
#######################################################################

data_KUZKOH
_chemical_formula_moiety         'C22 H22 N4 S3 Si2'
_chemical_name_systematic        
4,7-bis(5-(trimethylsilyl)-2-thienyl)-2,1,3-benzothiadiazole-5,6-dicarbonitrile
_symmetry_cell_setting           triclinic
_symmetry_space_group_name_H-M   'P -1'
_symmetry_Int_Tables_number      2
_space_group_name_Hall           '-P 1'
loop_
_symmetry_equiv_pos_site_id
_symmetry_equiv_pos_as_xyz
1 x,y,z
2 -x,-y,-z
_cell_length_a                   7.123(2)
_cell_length_b                   10.302(3)
_cell_length_c                   17.193(5)
_cell_angle_alpha                88.540(4)
_cell_angle_beta                 79.136(3)
_cell_angle_gamma                76.363(4)
_cell_volume                     1203.86
_exptl_crystal_colour            colorless
_exptl_crystal_description       prism
_cell_formula_units_Z            2
_exptl_crystal_recrystallization_method 
'Re-crystallisation from solvent: chloroform layered with methanol'
loop_
_atom_site_label
_atom_site_type_symbol
_atom_site_fract_x
_atom_site_fract_y
_atom_site_fract_z
S1 S 0.77333(11) 1.03323(8) 0.16419(4)
S2 S 0.74553(11) 0.96155(7) -0.19496(4)
S3 S 0.86928(11) 0.60229(8) 0.23472(4)
Si1 Si 0.75390(13) 1.16493(9) -0.33180(5)
Si2 Si 0.85725(13) 0.39644(9) 0.37302(5)
N1 N 0.7632(4) 1.0491(3) 0.07184(15)
N2 N 0.7705(4) 0.8786(3) 0.17650(15)
N3 N 0.6851(5) 0.6703(3) -0.17576(17)
N4 N 0.7625(5) 0.4287(3) -0.03253(18)
C1 C 0.7572(4) 0.9289(3) 0.04534(17)
C2 C 0.7435(4) 0.8978(3) -0.03469(17)
C3 C 0.7358(4) 0.7661(3) -0.04576(17)
C4 C 0.7453(4) 0.6677(3) 0.01504(17)
C5 C 0.7561(4) 0.6955(3) 0.09196(17)
C6 C 0.7624(4) 0.8301(3) 0.10588(17)
C7 C 0.7406(4) 0.9976(3) -0.09580(17)
C8 C 0.7384(4) 1.1317(3) -0.08893(18)
H1 H 0.7355 1.1738 -0.0400
C9 C 0.7410(4) 1.1999(3) -0.16093(18)
H2 H 0.7396 1.2922 -0.1649
C10 C 0.7456(4) 1.1213(3) -0.22500(19)
C11 C 0.5665(6) 1.0963(4) -0.3687(2)
H3 H 0.5694 1.1177 -0.4247
H4 H 0.4357 1.1359 -0.3380
H5 H 0.5960 0.9991 -0.3629
C12 C 0.7013(5) 1.3491(3) -0.3381(2)
H6 H 0.7137 1.3747 -0.3938
H7 H 0.7952 1.3826 -0.3138
H8 H 0.5673 1.3877 -0.3099
C13 C 1.0022(6) 1.0893(4) -0.3888(2)
H9 H 1.0117 1.1189 -0.4437
H10 H 1.0250 0.9917 -0.3878
H11 H 1.1014 1.1173 -0.3650
C14 C 0.7098(5) 0.7172(3) -0.11999(19)
C15 C 0.7530(5) 0.5338(3) -0.00995(18)
C16 C 0.7594(4) 0.5956(3) 0.15413(17)
C17 C 0.6782(5) 0.4867(3) 0.15910(19)
H12 H 0.6087 0.4655 0.1210
C18 C 0.7086(5) 0.4097(3) 0.22646(19)
H13 H 0.6606 0.3315 0.2384
C19 C 0.8136(4) 0.4580(3) 0.27316(18)
C20 C 0.7914(5) 0.5454(4) 0.4407(2)
H14 H 0.8786 0.6051 0.4222
H15 H 0.8061 0.5166 0.4944
H16 H 0.6547 0.5929 0.4410
C21 C 1.1172(5) 0.3049(3) 0.3696(2)
H17 H 1.2041 0.3653 0.3526
H18 H 1.1505 0.2293 0.3320
H19 H 1.1339 0.2718 0.4224
C22 C 0.6886(6) 0.2833(4) 0.4049(2)
H20 H 0.5520 0.3336 0.4083
H21 H 0.7074 0.2473 0.4570
H22 H 0.7178 0.2096 0.3663
loop_
_geom_bond_atom_site_label_1
_geom_bond_atom_site_label_2
_geom_bond_site_symmetry_1
_geom_bond_site_symmetry_2
S1 N1 1_555 1_555
S2 C7 1_555 1_555
S3 C16 1_555 1_555
Si1 C10 1_555 1_555
Si2 C19 1_555 1_555
N1 C1 1_555 1_555
N2 S1 1_555 1_555
N3 C14 1_555 1_555
N4 C15 1_555 1_555
C1 C2 1_555 1_555
C2 C3 1_555 1_555
C3 C4 1_555 1_555
C4 C5 1_555 1_555
C5 C6 1_555 1_555
C6 N2 1_555 1_555
C7 C2 1_555 1_555
C8 C7 1_555 1_555
H1 C8 1_555 1_555
C9 C8 1_555 1_555
H2 C9 1_555 1_555
C10 S2 1_555 1_555
C11 Si1 1_555 1_555
H3 C11 1_555 1_555
H4 C11 1_555 1_555
H5 C11 1_555 1_555
C12 Si1 1_555 1_555
H6 C12 1_555 1_555
H7 C12 1_555 1_555
H8 C12 1_555 1_555
C13 Si1 1_555 1_555
H9 C13 1_555 1_555
H10 C13 1_555 1_555
H11 C13 1_555 1_555
C14 C3 1_555 1_555
C15 C4 1_555 1_555
C16 C5 1_555 1_555
C17 C16 1_555 1_555
H12 C17 1_555 1_555
C18 C17 1_555 1_555
H13 C18 1_555 1_555
C19 S3 1_555 1_555
C20 Si2 1_555 1_555
H14 C20 1_555 1_555
H15 C20 1_555 1_555
H16 C20 1_555 1_555
C21 Si2 1_555 1_555
H17 C21 1_555 1_555
H18 C21 1_555 1_555
H19 C21 1_555 1_555
C22 Si2 1_555 1_555
H20 C22 1_555 1_555
H21 C22 1_555 1_555
H22 C22 1_555 1_555
C1 C6 1_555 1_555
C9 C10 1_555 1_555
C18 C19 1_555 1_555

#END
