
#######################################################################
#
#                 Cambridge Crystallographic Data Centre
#                                CCDC 
#
#######################################################################
#
# If this CIF has been generated from an entry in the Cambridge 
# Structural Database, then it will include bibliographic, chemical, 
# crystal, experimental, refinement or atomic coordinate data resulting 
# from the CCDC's data processing and validation procedures.
#
#######################################################################

data_KUZNEA
_chemical_formula_moiety         'C31 H23 Br1 F1 N1 O4,C1 H1 Cl3'
_chemical_name_systematic        
'N-(3-benzyl-4-(2-(4-bromophenyl)-2-oxoethyl)-2-oxo-3,4-dihydro-2H-chromen-3-yl)-4-fluorobenzamide chloroform solvate'
_symmetry_cell_setting           monoclinic
_symmetry_space_group_name_H-M   'P 21'
_symmetry_Int_Tables_number      4
_space_group_name_Hall           'P 2yb'
loop_
_symmetry_equiv_pos_site_id
_symmetry_equiv_pos_as_xyz
1 x,y,z
2 -x,1/2+y,-z
_cell_length_a                   6.1403(11)
_cell_length_b                   19.305(3)
_cell_length_c                   13.140(2)
_cell_angle_alpha                90
_cell_angle_beta                 102.483(5)
_cell_angle_gamma                90
_cell_volume                     1520.77
_exptl_crystal_colour            colorless
_exptl_crystal_description       block
_cell_formula_units_Z            2
loop_
_atom_site_label
_atom_site_type_symbol
_atom_site_fract_x
_atom_site_fract_y
_atom_site_fract_z
Br1 Br 0.60832(11) -0.40203(4) 0.24689(5)
F1 F -0.5381(11) 0.3433(4) -0.0670(4)
O1 O 0.3822(7) 0.0614(2) 0.1186(4)
O2 O 0.6232(6) 0.0832(2) 0.2649(3)
O3 O -0.0561(7) -0.1248(3) 0.2751(4)
O4 O 0.3208(7) 0.2066(2) 0.2046(4)
N1 N 0.0700(7) 0.1271(3) 0.2306(4)
H1 H -0.064(12) 0.119(3) 0.220(5)
C1 C 0.2356(8) 0.0746(3) 0.2771(4)
C2 C 0.1216(8) 0.0041(3) 0.2490(4)
H2 H -0.0101 0.0010 0.2821
C3 C 0.0388(9) 0.0032(3) 0.1311(4)
C4 C -0.1635(11) -0.0235(3) 0.0789(5)
H3 H -0.2611 -0.0441 0.1174
C5 C -0.2246(11) -0.0208(4) -0.0269(6)
H4 H -0.3655 -0.0386 -0.0613
C6 C -0.0840(14) 0.0078(4) -0.0852(6)
H5 H -0.1263 0.0075 -0.1592
C7 C 0.1175(12) 0.0366(4) -0.0362(5)
H6 H 0.2136 0.0575 -0.0751
C8 C 0.1740(9) 0.0339(3) 0.0708(5)
C9 C 0.4297(8) 0.0760(3) 0.2223(5)
C10 C 0.3223(8) 0.0866(3) 0.3925(4)
H7 H 0.4417 0.0525 0.4183
H8 H 0.3905 0.1333 0.4022
C11 C 0.1499(9) 0.0814(3) 0.4589(4)
C12 C 0.0314(12) 0.1406(4) 0.4763(5)
H9 H 0.0611 0.1838 0.4475
C13 C -0.1267(11) 0.1360(4) 0.5346(6)
H10 H -0.2066 0.1764 0.5463
C14 C -0.1722(12) 0.0736(4) 0.5769(6)
H11 H -0.2816 0.0712 0.6180
C15 C -0.0593(11) 0.0149(4) 0.5596(5)
H12 H -0.0899 -0.0283 0.5882
C16 C 0.0990(12) 0.0197(4) 0.4998(5)
H13 H 0.1753 -0.0210 0.4866
C17 C 0.2716(9) -0.0584(3) 0.2831(5)
H14 H 0.3832 -0.0618 0.2390
H15 H 0.3531 -0.0519 0.3561
C18 C 0.1402(10) -0.1250(3) 0.2748(5)
C19 C 0.2617(9) -0.1914(3) 0.2667(4)
C20 C 0.4860(11) -0.1979(3) 0.3030(6)
H16 H 0.5716 -0.1586 0.3305
C21 C 0.5908(10) -0.2612(3) 0.3004(5)
H17 H 0.7450 -0.2672 0.3302
C22 C 0.4599(11) -0.3153(3) 0.2523(5)
C23 C 0.2397(10) -0.3102(3) 0.2123(5)
H18 H 0.1577 -0.3485 0.1784
C24 C 0.1354(10) -0.2478(3) 0.2215(5)
H19 H -0.0213 -0.2434 0.1972
C25 C 0.1232(9) 0.1876(3) 0.1906(5)
C26 C -0.0586(12) 0.2283(3) 0.1255(5)
C27 C -0.0171(17) 0.2942(4) 0.0981(7)
H20 H 0.1256 0.3143 0.1237
C28 C -0.183(2) 0.3325(4) 0.0326(8)
H21 H -0.1548 0.3785 0.0134
C29 C -0.3801(15) 0.3039(5) -0.0024(5)
C30 C -0.4313(12) 0.2385(5) 0.0188(7)
H22 H -0.5743 0.2194 -0.0091
C31 C -0.2637(11) 0.1997(4) 0.0842(6)
H23 H -0.2927 0.1531 0.1002
Cl1 Cl 0.5099(8) 0.40167(19) 0.2767(3)
Cl2 Cl 0.4931(8) 0.3071(2) 0.4421(3)
Cl3 Cl 0.8916(5) 0.32313(17) 0.3688(3)
C32 C 0.6007(16) 0.3229(5) 0.3330(7)
H24 H 0.5516 0.2852 0.2809
loop_
_geom_bond_atom_site_label_1
_geom_bond_atom_site_label_2
_geom_bond_site_symmetry_1
_geom_bond_site_symmetry_2
Br1 C22 1_555 1_555
F1 C29 1_555 1_555
O1 C8 1_555 1_555
O2 C9 1_555 1_555
O3 C18 1_555 1_555
O4 C25 1_555 1_555
N1 H1 1_555 1_555
C1 N1 1_555 1_555
C2 C1 1_555 1_555
H2 C2 1_555 1_555
C3 C2 1_555 1_555
C4 C3 1_555 1_555
H3 C4 1_555 1_555
C5 C4 1_555 1_555
H4 C5 1_555 1_555
C6 C5 1_555 1_555
H5 C6 1_555 1_555
C7 C6 1_555 1_555
H6 C7 1_555 1_555
C8 C3 1_555 1_555
C9 O1 1_555 1_555
C10 C1 1_555 1_555
H7 C10 1_555 1_555
H8 C10 1_555 1_555
C11 C10 1_555 1_555
C12 C11 1_555 1_555
H9 C12 1_555 1_555
C13 C12 1_555 1_555
H10 C13 1_555 1_555
C14 C13 1_555 1_555
H11 C14 1_555 1_555
C15 C14 1_555 1_555
H12 C15 1_555 1_555
C16 C11 1_555 1_555
H13 C16 1_555 1_555
C17 C2 1_555 1_555
H14 C17 1_555 1_555
H15 C17 1_555 1_555
C18 C17 1_555 1_555
C19 C18 1_555 1_555
C20 C19 1_555 1_555
H16 C20 1_555 1_555
C21 C20 1_555 1_555
H17 C21 1_555 1_555
C22 C21 1_555 1_555
C23 C22 1_555 1_555
H18 C23 1_555 1_555
C24 C19 1_555 1_555
H19 C24 1_555 1_555
C25 N1 1_555 1_555
C26 C25 1_555 1_555
C27 C26 1_555 1_555
H20 C27 1_555 1_555
C28 C27 1_555 1_555
H21 C28 1_555 1_555
C29 C28 1_555 1_555
C30 C29 1_555 1_555
H22 C30 1_555 1_555
C31 C26 1_555 1_555
H23 C31 1_555 1_555
Cl1 C32 1_555 1_555
Cl2 C32 1_555 1_555
Cl3 C32 1_555 1_555
C32 H24 1_555 1_555
C1 C9 1_555 1_555
C7 C8 1_555 1_555
C15 C16 1_555 1_555
C23 C24 1_555 1_555
C30 C31 1_555 1_555

#END
