
#######################################################################
#
#                 Cambridge Crystallographic Data Centre
#                                CCDC 
#
#######################################################################
#
# If this CIF has been generated from an entry in the Cambridge 
# Structural Database, then it will include bibliographic, chemical, 
# crystal, experimental, refinement or atomic coordinate data resulting 
# from the CCDC's data processing and validation procedures.
#
#######################################################################

data_KUZREC
_chemical_formula_moiety         'C22 H30 O4'
_chemical_name_systematic        
r-4-t-Butyl-c-1-(4,4-dimethyl-3,5-dioxa-2,6-dioxocyclohexyl)-t-1-phenylcyclohexane
_symmetry_cell_setting           monoclinic
_symmetry_space_group_name_H-M   'P 21/a'
_symmetry_Int_Tables_number      14
_space_group_name_Hall           '-P 2yab'
loop_
_symmetry_equiv_pos_site_id
_symmetry_equiv_pos_as_xyz
1 x,y,z
2 1/2-x,1/2+y,-z
3 -x,-y,-z
4 1/2+x,1/2-y,z
_cell_length_a                   13.203(3)
_cell_length_b                   12.389(4)
_cell_length_c                   13.441(3)
_cell_angle_alpha                90
_cell_angle_beta                 111.6
_cell_angle_gamma                90
_cell_volume                     2044.18
_exptl_crystal_colour            white
_cell_formula_units_Z            4
loop_
_atom_site_label
_atom_site_type_symbol
_atom_site_fract_x
_atom_site_fract_y
_atom_site_fract_z
O1 O 0.6188(2) -0.2155(3) 0.9903(2)
O2 O 0.7290(2) -0.1861(2) 0.8864(2)
O3 O 0.4761(2) -0.1233(2) 0.9705(1)
O4 O 0.7104(2) -0.0354(2) 0.7975(2)
C1 C 0.4677(2) -0.1189(2) 0.7330(2)
C2 C 0.4793(2) -0.0507(2) 0.6418(2)
C3 C 0.4535(2) 0.0696(2) 0.6457(2)
C4 C 0.3395(2) 0.0878(2) 0.6469(2)
C5 C 0.3293(2) 0.0249(2) 0.7407(2)
C6 C 0.3541(2) -0.0948(2) 0.7349(2)
C7 C 0.4784(2) -0.2397(2) 0.7123(2)
C8 C 0.5440(2) -0.2760(2) 0.6582(2)
C9 C 0.5501(2) -0.3843(2) 0.6360(2)
C10 C 0.4908(3) -0.4592(3) 0.6672(3)
C11 C 0.4268(3) -0.4250(2) 0.7217(3)
C12 C 0.4204(2) -0.3168(2) 0.7442(3)
C13 C 0.3065(2) 0.2092(2) 0.6436(2)
C14 C 0.1867(3) 0.2163(3) 0.6317(3)
C15 C 0.3185(3) 0.2642(3) 0.5469(2)
C16 C 0.3771(3) 0.2691(2) 0.7447(2)
C17 C 0.5601(2) -0.0853(2) 0.8449(2)
C18 C 0.5473(2) -0.1413(2) 0.9388(2)
C19 C 0.7156(3) -0.2440(4) 0.9718(2)
C20 C 0.6719(2) -0.0970(3) 0.8414(2)
C21 C 0.7067(3) -0.3608(4) 0.9441(3)
C22 C 0.8107(3) -0.2195(4) 1.0711(3)
H1 H 0.424 -0.083 0.567
H2 H 0.562 -0.058 0.646
H3 H 0.459 0.109 0.576
H4 H 0.513 0.104 0.717
H5 H 0.281 0.057 0.573
H6 H 0.247 0.033 0.739
H7 H 0.386 0.058 0.815
H8 H 0.348 -0.134 0.804
H9 H 0.294 -0.128 0.663
H10 H 0.591 -0.218 0.633
H11 H 0.602 -0.410 0.594
H12 H 0.494 -0.544 0.649
H13 H 0.381 -0.483 0.747
H14 H 0.369 -0.292 0.787
H15 H 0.176 0.178 0.699
H16 H 0.137 0.176 0.559
H17 H 0.163 0.300 0.628
H18 H 0.402 0.260 0.554
H19 H 0.294 0.348 0.544
H20 H 0.268 0.224 0.475
H21 H 0.370 0.231 0.814
H22 H 0.351 0.352 0.740
H23 H 0.461 0.267 0.751
H24 H 0.549 -0.001 0.857
H25 H 0.778 -0.386 0.929
H26 H 0.635 -0.374 0.873
H27 H 0.700 -0.407 1.010
H28 H 0.803 -0.263 1.138
H29 H 0.814 -0.134 1.087
H30 H 0.885 -0.244 1.061
loop_
_geom_bond_atom_site_label_1
_geom_bond_atom_site_label_2
_geom_bond_site_symmetry_1
_geom_bond_site_symmetry_2
O1 C18 1_555 1_555
O2 C19 1_555 1_555
O3 C18 1_555 1_555
O4 C20 1_555 1_555
C1 C2 1_555 1_555
C2 C3 1_555 1_555
C3 C4 1_555 1_555
C4 C5 1_555 1_555
C5 C6 1_555 1_555
C6 C1 1_555 1_555
C7 C1 1_555 1_555
C8 C7 1_555 1_555
C9 C8 1_555 1_555
C10 C9 1_555 1_555
C11 C10 1_555 1_555
C12 C7 1_555 1_555
C13 C4 1_555 1_555
C14 C13 1_555 1_555
C15 C13 1_555 1_555
C16 C13 1_555 1_555
C17 C1 1_555 1_555
C18 C17 1_555 1_555
C19 O1 1_555 1_555
C20 O2 1_555 1_555
C21 C19 1_555 1_555
C22 C19 1_555 1_555
H1 C2 1_555 1_555
H2 C2 1_555 1_555
H3 C3 1_555 1_555
H4 C3 1_555 1_555
H5 C4 1_555 1_555
H6 C5 1_555 1_555
H7 C5 1_555 1_555
H8 C6 1_555 1_555
H9 C6 1_555 1_555
H10 C8 1_555 1_555
H11 C9 1_555 1_555
H12 C10 1_555 1_555
H13 C11 1_555 1_555
H14 C12 1_555 1_555
H15 C14 1_555 1_555
H16 C14 1_555 1_555
H17 C14 1_555 1_555
H18 C15 1_555 1_555
H19 C15 1_555 1_555
H20 C15 1_555 1_555
H21 C16 1_555 1_555
H22 C16 1_555 1_555
H23 C16 1_555 1_555
H24 C17 1_555 1_555
H25 C21 1_555 1_555
H26 C21 1_555 1_555
H27 C21 1_555 1_555
H28 C22 1_555 1_555
H29 C22 1_555 1_555
H30 C22 1_555 1_555
C11 C12 1_555 1_555
C17 C20 1_555 1_555

#END
