
#######################################################################
#
#                 Cambridge Crystallographic Data Centre
#                                CCDC 
#
#######################################################################
#
# If this CIF has been generated from an entry in the Cambridge 
# Structural Database, then it will include bibliographic, chemical, 
# crystal, experimental, refinement or atomic coordinate data resulting 
# from the CCDC's data processing and validation procedures.
#
#######################################################################

data_KUZTOP
_chemical_name_common            3-Chloro-2-hydrazinopyridine
_chemical_formula_moiety         'C5 H6 Cl1 N3'
_chemical_name_systematic        1-(3-Chloropyridin-2-yl)hydrazine
_symmetry_cell_setting           monoclinic
_symmetry_space_group_name_H-M   'P 21/c'
_symmetry_Int_Tables_number      14
_space_group_name_Hall           '-P 2ybc'
loop_
_symmetry_equiv_pos_site_id
_symmetry_equiv_pos_as_xyz
1 x,y,z
2 -x,1/2+y,1/2-z
3 -x,-y,-z
4 x,1/2-y,1/2+z
_cell_length_a                   11.637(2)
_cell_length_b                   3.9060(8)
_cell_length_c                   13.946(3)
_cell_angle_alpha                90
_cell_angle_beta                 103.46(3)
_cell_angle_gamma                90
_cell_volume                     616.492
_exptl_crystal_colour            yellow
_exptl_crystal_description       block
_cell_formula_units_Z            4
_exptl_crystal_recrystallization_method ethanol
loop_
_atom_site_label
_atom_site_type_symbol
_atom_site_fract_x
_atom_site_fract_y
_atom_site_fract_z
Cl1 Cl 0.18715(4) 0.20164(13) 0.95683(4)
N1 N 0.33408(13) 0.6634(4) 1.20853(11)
N2 N 0.41097(14) 0.4864(5) 1.07771(12)
H1 H 0.4020(19) 0.408(6) 1.0174(17)
N3 N 0.51985(14) 0.6524(5) 1.11726(13)
H2 H 0.509(2) 0.874(7) 1.1298(17)
H3 H 0.554(2) 0.586(6) 1.1821(16)
C1 C 0.11354(17) 0.4002(5) 1.11712(14)
H4 H 0.0399 0.3118 1.0866
C2 C 0.13219(17) 0.5562(5) 1.21092(14)
H5 H 0.0716 0.5732 1.2439
C3 C 0.24223(18) 0.6808(5) 1.25120(15)
H6 H 0.2545 0.7854 1.3127
C4 C 0.31800(15) 0.5159(4) 1.12028(13)
C5 C 0.20482(16) 0.3823(5) 1.07282(13)
loop_
_geom_bond_atom_site_label_1
_geom_bond_atom_site_label_2
_geom_bond_site_symmetry_1
_geom_bond_site_symmetry_2
Cl1 C5 1_555 1_555
N1 C3 1_555 1_555
N2 H1 1_555 1_555
N3 N2 1_555 1_555
H2 N3 1_555 1_555
H3 N3 1_555 1_555
C1 H4 1_555 1_555
C2 C1 1_555 1_555
H5 C2 1_555 1_555
C3 C2 1_555 1_555
H6 C3 1_555 1_555
C4 N1 1_555 1_555
C5 C1 1_555 1_555
N2 C4 1_555 1_555
C4 C5 1_555 1_555

#END
