
#######################################################################
#
#                 Cambridge Crystallographic Data Centre
#                                CCDC 
#
#######################################################################
#
# If this CIF has been generated from an entry in the Cambridge 
# Structural Database, then it will include bibliographic, chemical, 
# crystal, experimental, refinement or atomic coordinate data resulting 
# from the CCDC's data processing and validation procedures.
#
#######################################################################

data_LABDEA
_chemical_name_common            
N-(4-((5-(hydroxy(phenyl)methyl)pyrrolidin-2-yl)methyl)phenyl)-4-oxo-4,6,7,8-tetrahydropyrrolo[1,2-a]pyrimidine-6-carboxamide
_chemical_formula_moiety         'C26 H28 N4 O3'
_chemical_name_systematic        
(6S)-4,6,7,8-Tetrahydro-N-[4-[[(2S,5R)-5-[(R)-hydroxyphenylmethyl]-2-pyrrolidinyl]methyl]phenyl]-4-oxopyrrolo[1,2-a]pyrimidine-6-carboxamide
_chemical_properties_biological  '3-AR agonists'
_symmetry_cell_setting           monoclinic
_symmetry_space_group_name_H-M   'P 21'
_symmetry_Int_Tables_number      4
_space_group_name_Hall           'P 2yb'
loop_
_symmetry_equiv_pos_site_id
_symmetry_equiv_pos_as_xyz
1 x,y,z
2 -x,1/2+y,-z
_cell_length_a                   11.832(8)
_cell_length_b                   6.3650(19)
_cell_length_c                   15.531(4)
_cell_angle_alpha                90
_cell_angle_beta                 95.35(3)
_cell_angle_gamma                90
_cell_volume                     1164.55
_exptl_crystal_colour            colorless
_exptl_crystal_description       'prismatic needle'
_cell_formula_units_Z            2
_exptl_crystal_recrystallization_method 'acetonitrile / water'
loop_
_atom_site_label
_atom_site_type_symbol
_atom_site_fract_x
_atom_site_fract_y
_atom_site_fract_z
C1 C 0.42008(11) 0.1086(3) 0.57784(10)
H1 H 0.4592 0.1329 0.5243
C2 C 0.41141(14) 0.3149(3) 0.62840(12)
H2 H 0.4521 0.3020 0.6868
H3 H 0.4456 0.4319 0.5977
C3 C 0.28774(16) 0.3558(4) 0.63493(17)
H4 H 0.2711 0.3588 0.6962
H5 H 0.2651 0.4922 0.6079
C4 C 0.22586(14) 0.1798(3) 0.58810(11)
C5 C 0.08203(13) -0.0248(3) 0.53274(13)
H6 H 0.0030 -0.0544 0.5260
C6 C 0.15084(13) -0.1586(3) 0.49658(11)
H7 H 0.1198 -0.2748 0.4640
C7 C 0.27146(12) -0.1270(3) 0.50691(10)
C8 C 0.47938(12) -0.0678(3) 0.63266(9)
C9 C 0.67287(11) -0.2169(3) 0.66593(9)
C10 C 0.64601(12) -0.3823(3) 0.71799(9)
H8 H 0.5708 -0.3970 0.7339
C11 C 0.72906(13) -0.5273(3) 0.74719(10)
H9 H 0.7091 -0.6410 0.7824
C12 C 0.84003(13) -0.5104(3) 0.72632(10)
C13 C 0.86687(13) -0.3386(3) 0.67647(11)
H10 H 0.9429 -0.3203 0.6629
C14 C 0.78521(12) -0.1940(3) 0.64636(10)
H11 H 0.8056 -0.0785 0.6122
C15 C 0.92633(13) -0.6786(3) 0.75557(10)
H12 H 0.9414 -0.7647 0.7048
H13 H 0.8926 -0.7721 0.7972
C16 C 1.03874(12) -0.5957(3) 0.79756(9)
H14 H 1.0768 -0.5105 0.7545
C17 C 1.12009(13) -0.7681(3) 0.83438(10)
H15 H 1.1715 -0.8127 0.7911
H16 H 1.0774 -0.8920 0.8523
C18 C 1.18774(12) -0.6644(3) 0.91344(10)
H17 H 1.1747 -0.7398 0.9674
H18 H 1.2701 -0.6645 0.9066
C19 C 1.14211(12) -0.4399(3) 0.91514(10)
H19 H 1.1856 -0.3489 0.8774
C20 C 1.14347(12) -0.3400(3) 1.00428(9)
H20 H 1.0970 -0.4271 1.0413
C21 C 1.26516(12) -0.3257(3) 1.04665(9)
C22 C 1.30952(13) -0.4838(3) 1.10157(10)
H21 H 1.2631 -0.5992 1.1144
C23 C 1.42179(13) -0.4742(3) 1.13807(10)
H22 H 1.4518 -0.5836 1.1750
C24 C 1.48891(13) -0.3054(3) 1.12025(10)
H23 H 1.5652 -0.2984 1.1454
C25 C 1.44569(13) -0.1457(3) 1.06581(11)
H24 H 1.4920 -0.0294 1.0538
C26 C 1.33396(13) -0.1572(3) 1.02886(10)
H25 H 1.3045 -0.0488 0.9911
N1 N 0.30130(10) 0.0497(2) 0.55544(8)
N2 N 0.11611(12) 0.1517(3) 0.57871(11)
N3 N 0.59313(10) -0.0693(2) 0.62801(8)
H26 H 0.6208 0.0329 0.5981
N4 N 1.02501(10) -0.4666(2) 0.87436(8)
H27 H 0.9902 -0.3359 0.8634
O1 O 0.34555(9) -0.2368(2) 0.47876(8)
O2 O 0.42603(8) -0.18410(19) 0.67589(7)
O3 O 1.09221(9) -0.13921(19) 0.99107(7)
H28 H 1.0631 -0.1024 1.0360
loop_
_geom_bond_atom_site_label_1
_geom_bond_atom_site_label_2
_geom_bond_site_symmetry_1
_geom_bond_site_symmetry_2
C1 H1 1_555 1_555
C2 C1 1_555 1_555
H2 C2 1_555 1_555
H3 C2 1_555 1_555
C3 C2 1_555 1_555
H4 C3 1_555 1_555
H5 C3 1_555 1_555
C4 C3 1_555 1_555
C5 H6 1_555 1_555
C6 C5 1_555 1_555
H7 C6 1_555 1_555
C7 C6 1_555 1_555
C8 C1 1_555 1_555
C9 C10 1_555 1_555
C10 H8 1_555 1_555
C11 C10 1_555 1_555
H9 C11 1_555 1_555
C12 C11 1_555 1_555
C13 C12 1_555 1_555
H10 C13 1_555 1_555
C14 C9 1_555 1_555
H11 C14 1_555 1_555
C15 C12 1_555 1_555
H12 C15 1_555 1_555
H13 C15 1_555 1_555
C16 C15 1_555 1_555
H14 C16 1_555 1_555
C17 C16 1_555 1_555
H15 C17 1_555 1_555
H16 C17 1_555 1_555
C18 C17 1_555 1_555
H17 C18 1_555 1_555
H18 C18 1_555 1_555
C19 C18 1_555 1_555
H19 C19 1_555 1_555
C20 C19 1_555 1_555
H20 C20 1_555 1_555
C21 C20 1_555 1_555
C22 C21 1_555 1_555
H21 C22 1_555 1_555
C23 C22 1_555 1_555
H22 C23 1_555 1_555
C24 C23 1_555 1_555
H23 C24 1_555 1_555
C25 C24 1_555 1_555
H24 C25 1_555 1_555
C26 C21 1_555 1_555
H25 C26 1_555 1_555
N1 C1 1_555 1_555
N2 C4 1_555 1_555
N3 C8 1_555 1_555
H26 N3 1_555 1_555
N4 C16 1_555 1_555
H27 N4 1_555 1_555
O1 C7 1_555 1_555
O2 C8 1_555 1_555
O3 C20 1_555 1_555
H28 O3 1_555 1_555
C4 N1 1_555 1_555
C5 N2 1_555 1_555
C7 N1 1_555 1_555
C9 N3 1_555 1_555
C13 C14 1_555 1_555
C19 N4 1_555 1_555
C25 C26 1_555 1_555

#END
