
#######################################################################
#
#                 Cambridge Crystallographic Data Centre
#                                CCDC 
#
#######################################################################
#
# If this CIF has been generated from an entry in the Cambridge 
# Structural Database, then it will include bibliographic, chemical, 
# crystal, experimental, refinement or atomic coordinate data resulting 
# from the CCDC's data processing and validation procedures.
#
#######################################################################

data_LABFEB
_chemical_formula_moiety         'C19 H31 N2 1+,0.5(H2 O1),I1 1-'
_chemical_name_systematic        
'1,3-Dihexyl-1H-3,1-benzimidazol-3-ium iodide hemihydrate'
_symmetry_cell_setting           triclinic
_symmetry_space_group_name_H-M   'P -1'
_symmetry_Int_Tables_number      2
_space_group_name_Hall           '-P 1'
loop_
_symmetry_equiv_pos_site_id
_symmetry_equiv_pos_as_xyz
1 x,y,z
2 -x,-y,-z
_cell_length_a                   9.288(7)
_cell_length_b                   13.7946(13)
_cell_length_c                   18.739(3)
_cell_angle_alpha                69.402(14)
_cell_angle_beta                 76.16(3)
_cell_angle_gamma                86.15(3)
_cell_volume                     2181.8
_exptl_crystal_colour            colorless
_exptl_crystal_description       plate
_cell_formula_units_Z            4
loop_
_atom_site_label
_atom_site_type_symbol
_atom_site_fract_x
_atom_site_fract_y
_atom_site_fract_z
O1 O 0.8006(6) -0.1292(4) 0.2399(4)
H1 H 0.8555 -0.1739 0.2254
H2 H 0.7430 -0.1817 0.2556
I1 I 0.51453(4) 0.67713(3) 0.33193(2)
N1 N 0.2404(4) 0.3634(3) 0.4882(2)
N2 N 0.0275(5) 0.3052(3) 0.5693(2)
C1 C 0.1738(6) 0.3048(3) 0.5597(3)
H3 H 0.2232 0.2679 0.5985
C2 C -0.0055(5) 0.3696(3) 0.4993(2)
C3 C -0.1413(6) 0.4000(3) 0.4781(3)
H4 H -0.2315 0.3755 0.5130
C4 C -0.1340(7) 0.4679(4) 0.4029(3)
H5 H -0.2211 0.4896 0.3862
C5 C 0.0032(7) 0.5046(4) 0.3513(3)
H6 H 0.0042 0.5505 0.3011
C6 C 0.1371(6) 0.4755(3) 0.3720(3)
H7 H 0.2271 0.5007 0.3371
C7 C 0.1304(6) 0.4069(3) 0.4472(3)
C8 C -0.0823(7) 0.2460(4) 0.6401(3)
H8 H -0.1671 0.2891 0.6484
H9 H -0.0388 0.2277 0.6852
C9 C -0.1333(7) 0.1496(4) 0.6336(3)
H10 H -0.1728 0.1683 0.5871
H11 H -0.2132 0.1175 0.6786
C10 C -0.0126(7) 0.0719(4) 0.6290(4)
H12 H 0.0301 0.0557 0.6742
H13 H 0.0651 0.1030 0.5825
C11 C -0.0660(8) -0.0283(5) 0.6261(4)
H14 H -0.1433 -0.0591 0.6728
H15 H -0.1102 -0.0115 0.5814
C12 C 0.0478(10) -0.1054(5) 0.6208(5)
H16 H 0.0926 -0.1222 0.6653
H17 H 0.1247 -0.0752 0.5738
C13 C -0.0089(12) -0.2042(6) 0.6188(6)
H18 H 0.0717 -0.2508 0.6151
H19 H -0.0515 -0.1887 0.5742
H20 H -0.0831 -0.2359 0.6659
C14 C 0.4013(6) 0.3818(4) 0.4579(3)
H21 H 0.4498 0.3571 0.5014
H22 H 0.4212 0.4557 0.4327
C15 C 0.4657(8) 0.3279(5) 0.3998(4)
H23 H 0.4160 0.3535 0.3568
H24 H 0.5695 0.3482 0.3784
C16 C 0.4559(9) 0.2169(6) 0.4287(5)
H25 H 0.3531 0.1961 0.4537
H26 H 0.5125 0.1907 0.4686
C17 C 0.5118(10) 0.1638(7) 0.3664(5)
H27 H 0.4593 0.1941 0.3250
H28 H 0.6158 0.1826 0.3435
C18 C 0.4992(13) 0.0564(8) 0.3889(6)
H29 H 0.3958 0.0369 0.4130
H30 H 0.5545 0.0256 0.4291
C19 C 0.5485(12) 0.0103(8) 0.3291(7)
H31 H 0.5373 -0.0636 0.3526
H32 H 0.6509 0.0284 0.3045
H33 H 0.4900 0.0356 0.2907
I2 I 0.06931(4) 0.74853(3) 0.13744(2)
N3 N -0.1937(4) 0.8946(3) -0.0354(2)
N4 N -0.3908(4) 0.8045(3) 0.0421(2)
C20 C -0.2459(6) 0.8169(4) 0.0311(3)
H34 H -0.1887 0.7770 0.0650
C21 C -0.4370(5) 0.8777(3) -0.0200(2)
C22 C -0.5794(5) 0.8991(4) -0.0366(3)
H35 H -0.6631 0.8603 -0.0037
C23 C -0.5870(6) 0.9809(4) -0.1045(3)
H36 H -0.6782 0.9980 -0.1177
C24 C -0.4600(7) 1.0383(4) -0.1536(3)
H37 H -0.4694 1.0922 -0.1990
C25 C -0.3234(6) 1.0183(4) -0.1376(3)
H38 H -0.2404 1.0580 -0.1703
C26 C -0.3137(5) 0.9349(3) -0.0694(2)
C27 C -0.4833(6) 0.7213(4) 0.1075(3)
H39 H -0.5797 0.7485 0.1239
H40 H -0.4368 0.6985 0.1516
C28 C -0.5032(7) 0.6307(4) 0.0839(3)
H41 H -0.4064 0.6069 0.0640
H42 H -0.5554 0.6529 0.0419
C29 C -0.5882(8) 0.5424(4) 0.1508(4)
H43 H -0.6876 0.5643 0.1686
H44 H -0.5396 0.5224 0.1942
C30 C -0.5967(11) 0.4470(6) 0.1242(5)
H45 H -0.6481 0.4680 0.0819
H46 H -0.4965 0.4294 0.1032
C31 C -0.6672(12) 0.3580(6) 0.1822(5)
H47 H -0.7701 0.3736 0.2002
H48 H -0.6211 0.3397 0.2264
C32 C -0.6626(11) 0.2665(5) 0.1564(5)
H49 H -0.7134 0.2086 0.1991
H50 H -0.5612 0.2490 0.1400
H51 H -0.7101 0.2832 0.1134
C33 C -0.0362(5) 0.9252(4) -0.0697(3)
H52 H 0.0180 0.9041 -0.0286
H53 H -0.0277 1.0000 -0.0939
C34 C 0.0309(6) 0.8764(5) -0.1302(3)
H54 H 0.1271 0.9087 -0.1589
H55 H -0.0316 0.8904 -0.1673
C35 C 0.0501(8) 0.7591(5) -0.0958(4)
H56 H 0.1130 0.7455 -0.0589
H57 H -0.0461 0.7272 -0.0667
C36 C 0.1158(9) 0.7081(6) -0.1547(5)
H58 H 0.2166 0.7343 -0.1794
H59 H 0.0599 0.7287 -0.1951
C37 C 0.1192(12) 0.5913(7) -0.1227(6)
H60 H 0.0201 0.5646 -0.0939
H61 H 0.1835 0.5701 -0.0863
C38 C 0.1732(14) 0.5436(9) -0.1860(8)
H62 H 0.1752 0.4697 -0.1622
H63 H 0.2712 0.5697 -0.2149
H64 H 0.1073 0.5615 -0.2209
loop_
_geom_bond_atom_site_label_1
_geom_bond_atom_site_label_2
_geom_bond_site_symmetry_1
_geom_bond_site_symmetry_2
O1 H1 1_555 1_555
H2 O1 1_555 1_555
N1 C1 1_555 1_555
N2 C1 1_555 1_555
C1 H3 1_555 1_555
C2 N2 1_555 1_555
C3 C2 1_555 1_555
H4 C3 1_555 1_555
C4 C3 1_555 1_555
H5 C4 1_555 1_555
C5 C4 1_555 1_555
H6 C5 1_555 1_555
C6 C5 1_555 1_555
H7 C6 1_555 1_555
C7 N1 1_555 1_555
C8 N2 1_555 1_555
H8 C8 1_555 1_555
H9 C8 1_555 1_555
C9 C8 1_555 1_555
H10 C9 1_555 1_555
H11 C9 1_555 1_555
C10 C9 1_555 1_555
H12 C10 1_555 1_555
H13 C10 1_555 1_555
C11 C10 1_555 1_555
H14 C11 1_555 1_555
H15 C11 1_555 1_555
C12 C11 1_555 1_555
H16 C12 1_555 1_555
H17 C12 1_555 1_555
C13 C12 1_555 1_555
H18 C13 1_555 1_555
H19 C13 1_555 1_555
H20 C13 1_555 1_555
C14 N1 1_555 1_555
H21 C14 1_555 1_555
H22 C14 1_555 1_555
C15 C14 1_555 1_555
H23 C15 1_555 1_555
H24 C15 1_555 1_555
C16 C15 1_555 1_555
H25 C16 1_555 1_555
H26 C16 1_555 1_555
C17 C16 1_555 1_555
H27 C17 1_555 1_555
H28 C17 1_555 1_555
C18 C17 1_555 1_555
H29 C18 1_555 1_555
H30 C18 1_555 1_555
C19 C18 1_555 1_555
H31 C19 1_555 1_555
H32 C19 1_555 1_555
H33 C19 1_555 1_555
N3 C20 1_555 1_555
N4 C20 1_555 1_555
C20 H34 1_555 1_555
C21 N4 1_555 1_555
C22 C21 1_555 1_555
H35 C22 1_555 1_555
C23 C22 1_555 1_555
H36 C23 1_555 1_555
C24 C23 1_555 1_555
H37 C24 1_555 1_555
C25 C24 1_555 1_555
H38 C25 1_555 1_555
C26 N3 1_555 1_555
C27 N4 1_555 1_555
H39 C27 1_555 1_555
H40 C27 1_555 1_555
C28 C27 1_555 1_555
H41 C28 1_555 1_555
H42 C28 1_555 1_555
C29 C28 1_555 1_555
H43 C29 1_555 1_555
H44 C29 1_555 1_555
C30 C29 1_555 1_555
H45 C30 1_555 1_555
H46 C30 1_555 1_555
C31 C30 1_555 1_555
H47 C31 1_555 1_555
H48 C31 1_555 1_555
C32 C31 1_555 1_555
H49 C32 1_555 1_555
H50 C32 1_555 1_555
H51 C32 1_555 1_555
C33 N3 1_555 1_555
H52 C33 1_555 1_555
H53 C33 1_555 1_555
C34 C33 1_555 1_555
H54 C34 1_555 1_555
H55 C34 1_555 1_555
C35 C34 1_555 1_555
H56 C35 1_555 1_555
H57 C35 1_555 1_555
C36 C35 1_555 1_555
H58 C36 1_555 1_555
H59 C36 1_555 1_555
C37 C36 1_555 1_555
H60 C37 1_555 1_555
H61 C37 1_555 1_555
C38 C37 1_555 1_555
H62 C38 1_555 1_555
H63 C38 1_555 1_555
H64 C38 1_555 1_555
C2 C7 1_555 1_555
C6 C7 1_555 1_555
C21 C26 1_555 1_555
C25 C26 1_555 1_555

#END
