
#######################################################################
#
#                 Cambridge Crystallographic Data Centre
#                                CCDC 
#
#######################################################################
#
# If this CIF has been generated from an entry in the Cambridge 
# Structural Database, then it will include bibliographic, chemical, 
# crystal, experimental, refinement or atomic coordinate data resulting 
# from the CCDC's data processing and validation procedures.
#
#######################################################################

data_LABFUP03
_chemical_formula_moiety         'C14 H20 B10'
_chemical_name_systematic        1,2-Diphenyl-1,2-dicarba-closo-dodecaborane
_symmetry_cell_setting           monoclinic
_symmetry_space_group_name_H-M   'P 21/n'
_symmetry_Int_Tables_number      14
_space_group_name_Hall           '-P 2yn'
loop_
_symmetry_equiv_pos_site_id
_symmetry_equiv_pos_as_xyz
1 x,y,z
2 1/2-x,1/2+y,1/2-z
3 -x,-y,-z
4 1/2+x,1/2-y,1/2+z
_cell_length_a                   10.888(5)
_cell_length_b                   25.015(12)
_cell_length_c                   13.956(7)
_cell_angle_alpha                90
_cell_angle_beta                 111.938(9)
_cell_angle_gamma                90
_cell_volume                     3525.86
_exptl_crystal_colour            colorless
_exptl_crystal_description       block
_cell_formula_units_Z            8
loop_
_atom_site_label
_atom_site_type_symbol
_atom_site_fract_x
_atom_site_fract_y
_atom_site_fract_z
C1 C 0.4356(3) 0.27123(12) 0.52503(17)
C2 C 0.4045(3) 0.33182(12) 0.57290(16)
C3 C 0.5759(3) 0.25863(12) 0.53682(18)
C4 C 0.6300(4) 0.27828(16) 0.4695(3)
H1 H 0.5795 0.3003 0.4153
C5 C 0.7586(4) 0.26583(19) 0.4811(4)
H2 H 0.7936 0.2795 0.4347
C6 C 0.8348(4) 0.23365(18) 0.5602(3)
H3 H 0.9220 0.2260 0.5692
C7 C 0.7801(4) 0.2130(2) 0.6257(3)
H4 H 0.8300 0.1902 0.6786
C8 C 0.6530(4) 0.22532(17) 0.6148(2)
H5 H 0.6181 0.2110 0.6607
C9 C 0.5178(3) 0.36952(13) 0.62201(19)
C10 C 0.5993(4) 0.36378(18) 0.7248(2)
H6 H 0.5851 0.3355 0.7628
C11 C 0.7009(5) 0.3991(2) 0.7719(3)
H7 H 0.7553 0.3946 0.8409
C12 C 0.7215(5) 0.4411(2) 0.7161(4)
H8 H 0.7896 0.4653 0.7477
C13 C 0.6430(5) 0.44746(18) 0.6157(4)
H9 H 0.6581 0.4758 0.5784
C14 C 0.5401(4) 0.41219(15) 0.5675(3)
H10 H 0.4861 0.4172 0.4985
B1 B 0.3512(3) 0.32152(14) 0.44065(19)
H11 H 0.3927 0.3429 0.3908
B2 B 0.3005(4) 0.25361(15) 0.4185(2)
H12 H 0.3075 0.2308 0.3533
B3 B 0.3313(4) 0.22315(17) 0.5404(2)
H13 H 0.3585 0.1807 0.5548
B4 B 0.3991(4) 0.27269(15) 0.6361(2)
H14 H 0.4722 0.2624 0.7128
B5 B 0.2808(3) 0.32423(16) 0.6197(2)
H15 H 0.2756 0.3473 0.6852
B6 B 0.2505(3) 0.35439(16) 0.4978(2)
H16 H 0.2250 0.3970 0.4840
B7 B 0.1821(4) 0.30472(16) 0.4005(2)
H17 H 0.1114 0.3152 0.3229
B8 B 0.1684(4) 0.24430(18) 0.4625(3)
H18 H 0.0883 0.2155 0.4256
B9 B 0.2305(4) 0.25595(17) 0.5981(2)
H19 H 0.1918 0.2346 0.6498
B10 B 0.1367(4) 0.30607(17) 0.5114(3)
H20 H 0.0366 0.3172 0.5062
C15 C 0.2623(3) 0.00085(13) 0.74466(18)
C16 C 0.3061(3) 0.06124(12) 0.70361(17)
C17 C 0.3368(3) -0.04962(13) 0.7417(2)
C18 C 0.2919(5) -0.08310(16) 0.6562(3)
H21 H 0.2173 -0.0737 0.5992
C19 C 0.3573(6) -0.13036(18) 0.6551(3)
H22 H 0.3270 -0.1523 0.5972
C20 C 0.4668(5) -0.1449(2) 0.7391(4)
H23 H 0.5110 -0.1766 0.7378
C21 C 0.5101(4) -0.11360(18) 0.8234(3)
H24 H 0.5832 -0.1240 0.8807
C22 C 0.4464(4) -0.06579(16) 0.8253(3)
H25 H 0.4781 -0.0443 0.8838
C23 C 0.4195(3) 0.06248(12) 0.66607(19)
C24 C 0.5477(3) 0.07160(15) 0.7331(2)
H26 H 0.5666 0.0743 0.8037
C25 C 0.6491(4) 0.07676(17) 0.6953(3)
H27 H 0.7354 0.0824 0.7413
C26 C 0.6244(4) 0.07374(17) 0.5936(3)
H28 H 0.6926 0.0778 0.5694
C27 C 0.4967(5) 0.06461(19) 0.5259(3)
H29 H 0.4791 0.0622 0.4555
C28 C 0.3944(4) 0.05906(16) 0.5611(2)
H30 H 0.3086 0.0530 0.5144
B11 B 0.1612(3) 0.02953(17) 0.6300(2)
H31 H 0.1458 0.0113 0.5547
B12 B 0.0942(4) 0.00056(18) 0.7156(3)
H32 H 0.0332 -0.0359 0.6958
B13 B 0.2081(4) 0.01300(18) 0.8435(3)
H33 H 0.2214 -0.0152 0.9072
B14 B 0.3417(4) 0.04951(16) 0.8334(2)
H34 H 0.4432 0.0444 0.8900
B15 B 0.2836(4) 0.11292(16) 0.7750(2)
H35 H 0.3460 0.1490 0.7943
B16 B 0.1684(4) 0.10006(16) 0.6474(2)
H36 H 0.1552 0.1279 0.5834
B17 B 0.0343(4) 0.06329(19) 0.6560(3)
H37 H -0.0662 0.0675 0.5973
B18 B 0.0626(4) 0.05337(19) 0.7884(3)
H38 H -0.0194 0.0514 0.8163
B19 B 0.2176(4) 0.08319(18) 0.8624(3)
H39 H 0.2371 0.1005 0.9391
B20 B 0.1089(4) 0.11489(19) 0.7472(3)
H40 H 0.0576 0.1525 0.7489
loop_
_geom_bond_atom_site_label_1
_geom_bond_atom_site_label_2
_geom_bond_site_symmetry_1
_geom_bond_site_symmetry_2
C1 C2 1_555 1_555
C2 C9 1_555 1_555
C3 C1 1_555 1_555
C4 C3 1_555 1_555
H1 C4 1_555 1_555
C5 C4 1_555 1_555
H2 C5 1_555 1_555
C6 C5 1_555 1_555
H3 C6 1_555 1_555
C7 C6 1_555 1_555
H4 C7 1_555 1_555
C8 C3 1_555 1_555
H5 C8 1_555 1_555
C9 C10 1_555 1_555
C10 H6 1_555 1_555
C11 C10 1_555 1_555
H7 C11 1_555 1_555
C12 C11 1_555 1_555
H8 C12 1_555 1_555
C13 C12 1_555 1_555
H9 C13 1_555 1_555
C14 C9 1_555 1_555
H10 C14 1_555 1_555
B1 C1 1_555 1_555
H11 B1 1_555 1_555
B2 C1 1_555 1_555
H12 B2 1_555 1_555
B3 C1 1_555 1_555
H13 B3 1_555 1_555
B4 C1 1_555 1_555
H14 B4 1_555 1_555
B5 C2 1_555 1_555
H15 B5 1_555 1_555
B6 C2 1_555 1_555
H16 B6 1_555 1_555
B7 B1 1_555 1_555
H17 B7 1_555 1_555
B8 B2 1_555 1_555
H18 B8 1_555 1_555
B9 B3 1_555 1_555
H19 B9 1_555 1_555
B10 B5 1_555 1_555
H20 B10 1_555 1_555
C15 C16 1_555 1_555
C16 C23 1_555 1_555
C17 C15 1_555 1_555
C18 C17 1_555 1_555
H21 C18 1_555 1_555
C19 C18 1_555 1_555
H22 C19 1_555 1_555
C20 C19 1_555 1_555
H23 C20 1_555 1_555
C21 C20 1_555 1_555
H24 C21 1_555 1_555
C22 C17 1_555 1_555
H25 C22 1_555 1_555
C23 C24 1_555 1_555
C24 H26 1_555 1_555
C25 C24 1_555 1_555
H27 C25 1_555 1_555
C26 C25 1_555 1_555
H28 C26 1_555 1_555
C27 C26 1_555 1_555
H29 C27 1_555 1_555
C28 C23 1_555 1_555
H30 C28 1_555 1_555
B11 C15 1_555 1_555
H31 B11 1_555 1_555
B12 C15 1_555 1_555
H32 B12 1_555 1_555
B13 C15 1_555 1_555
H33 B13 1_555 1_555
B14 C15 1_555 1_555
H34 B14 1_555 1_555
B15 C16 1_555 1_555
H35 B15 1_555 1_555
B16 C16 1_555 1_555
H36 B16 1_555 1_555
B17 B11 1_555 1_555
H37 B17 1_555 1_555
B18 B12 1_555 1_555
H38 B18 1_555 1_555
B19 B13 1_555 1_555
H39 B19 1_555 1_555
B20 B15 1_555 1_555
H40 B20 1_555 1_555
C2 B1 1_555 1_555
C2 B4 1_555 1_555
C7 C8 1_555 1_555
C13 C14 1_555 1_555
B1 B2 1_555 1_555
B1 B6 1_555 1_555
B2 B3 1_555 1_555
B2 B7 1_555 1_555
B3 B4 1_555 1_555
B3 B8 1_555 1_555
B4 B5 1_555 1_555
B4 B9 1_555 1_555
B5 B6 1_555 1_555
B5 B9 1_555 1_555
B6 B7 1_555 1_555
B6 B10 1_555 1_555
B7 B8 1_555 1_555
B7 B10 1_555 1_555
B8 B9 1_555 1_555
B8 B10 1_555 1_555
B9 B10 1_555 1_555
C16 B11 1_555 1_555
C16 B14 1_555 1_555
C21 C22 1_555 1_555
C27 C28 1_555 1_555
B11 B12 1_555 1_555
B11 B16 1_555 1_555
B12 B13 1_555 1_555
B12 B17 1_555 1_555
B13 B14 1_555 1_555
B13 B18 1_555 1_555
B14 B15 1_555 1_555
B14 B19 1_555 1_555
B15 B16 1_555 1_555
B15 B19 1_555 1_555
B16 B17 1_555 1_555
B16 B20 1_555 1_555
B17 B18 1_555 1_555
B17 B20 1_555 1_555
B18 B19 1_555 1_555
B18 B20 1_555 1_555
B19 B20 1_555 1_555

#END
