
#######################################################################
#
#                 Cambridge Crystallographic Data Centre
#                                CCDC 
#
#######################################################################
#
# If this CIF has been generated from an entry in the Cambridge 
# Structural Database, then it will include bibliographic, chemical, 
# crystal, experimental, refinement or atomic coordinate data resulting 
# from the CCDC's data processing and validation procedures.
#
#######################################################################

data_LABFUP01
_chemical_formula_moiety         'C14 H20 B10'
_chemical_name_systematic        1,2-Diphenyl-1,2-dicarba-closo-dodecaborane
_symmetry_cell_setting           monoclinic
_symmetry_space_group_name_H-M   'P 21/c'
_symmetry_Int_Tables_number      14
_space_group_name_Hall           '-P 2ybc'
loop_
_symmetry_equiv_pos_site_id
_symmetry_equiv_pos_as_xyz
1 x,y,z
2 -x,1/2+y,1/2-z
3 -x,-y,-z
4 x,1/2-y,1/2+z
_cell_length_a                   10.783(2)
_cell_length_b                   24.676(5)
_cell_length_c                   14.062(3)
_cell_angle_alpha                90
_cell_angle_beta                 113.99(3)
_cell_angle_gamma                90
_cell_volume                     3418.42
_exptl_crystal_colour            colorless
_exptl_crystal_description       block
_cell_formula_units_Z            8
loop_
_atom_site_label
_atom_site_type_symbol
_atom_site_fract_x
_atom_site_fract_y
_atom_site_fract_z
C1 C 0.89697(15) 0.06067(6) 0.20168(11)
C2 C 0.98390(15) 0.00053(6) 0.24573(12)
B1 B 0.96955(18) 0.02793(7) 0.12857(14)
H1 H 0.9084 0.0086 0.0516
B2 B 0.97884(18) 0.09938(7) 0.14387(14)
H2 H 0.9259 0.1274 0.0769
B3 B 0.99220(18) 0.11393(7) 0.27178(14)
H3 H 0.9481 0.1517 0.2896
B4 B 0.99080(18) 0.05092(7) 0.33302(14)
H4 H 0.9437 0.0467 0.3905
B5 B 1.12411(18) -0.00090(8) 0.21774(15)
H5 H 1.1669 -0.0389 0.1995
B6 B 1.12445(19) 0.06171(8) 0.15531(15)
H6 H 1.1684 0.0651 0.0958
B7 B 1.13940(19) 0.11500(8) 0.24504(15)
H7 H 1.1938 0.1537 0.2455
B8 B 1.14578(19) 0.08491(8) 0.36222(15)
H8 H 1.2038 0.1037 0.4403
B9 B 1.13753(18) 0.01346(8) 0.34541(15)
H9 H 1.1894 -0.0150 0.4119
B10 B 1.22888(19) 0.05324(8) 0.29019(16)
H10 H 1.3422 0.0514 0.3202
C3 C 0.74463(15) 0.06203(6) 0.16139(12)
C4 C 0.66495(16) 0.05936(7) 0.05513(13)
H11 H 0.7065 0.0535 0.0080
C5 C 0.52512(17) 0.06518(8) 0.01745(15)
H12 H 0.4715 0.0636 -0.0554
C6 C 0.46352(17) 0.07331(7) 0.08530(15)
H13 H 0.3677 0.0771 0.0593
C7 C 0.54164(18) 0.07588(7) 0.19090(15)
H14 H 0.4994 0.0813 0.2377
C8 C 0.68173(17) 0.07064(7) 0.22921(14)
H15 H 0.7349 0.0729 0.3020
C9 C 0.90547(15) -0.05046(6) 0.24336(13)
C10 C 0.86431(18) -0.08494(7) 0.15763(14)
H16 H 0.8829 -0.0756 0.0992
C11 C 0.7963(2) -0.13279(8) 0.15692(16)
H17 H 0.7674 -0.1557 0.0975
C12 C 0.77063(18) -0.14729(8) 0.24165(16)
H18 H 0.7244 -0.1802 0.2409
C13 C 0.81229(18) -0.11391(7) 0.32750(16)
H19 H 0.7949 -0.1239 0.3862
C14 C 0.87960(17) -0.06575(7) 0.32878(14)
H20 H 0.9082 -0.0431 0.3885
C15 C 0.59208(15) 0.22938(6) 0.52006(11)
C16 C 0.67068(14) 0.16861(6) 0.56905(11)
B11 B 0.59067(18) 0.17813(7) 0.43616(13)
H21 H 0.4962 0.1559 0.3855
B12 B 0.61881(19) 0.24684(7) 0.41202(14)
H22 H 0.5442 0.2701 0.3447
B13 B 0.71202(18) 0.27776(7) 0.53472(15)
H23 H 0.6988 0.3217 0.5485
B14 B 0.74020(17) 0.22827(7) 0.63257(14)
H24 H 0.7439 0.2392 0.7110
B15 B 0.74987(18) 0.14506(7) 0.49402(14)
H25 H 0.7615 0.1010 0.4805
B16 B 0.72122(19) 0.19422(8) 0.39531(14)
H26 H 0.7145 0.1828 0.3163
B17 B 0.79754(19) 0.25605(8) 0.45696(15)
H27 H 0.8419 0.2856 0.4189
B18 B 0.87237(18) 0.24479(8) 0.59413(15)
H28 H 0.9657 0.2669 0.6469
B19 B 0.84329(18) 0.17589(7) 0.61695(14)
H29 H 0.9164 0.1524 0.6847
B20 B 0.87829(19) 0.19315(8) 0.50719(15)
H30 H 0.9756 0.1812 0.5022
C17 C 0.46249(15) 0.24258(6) 0.53138(12)
C18 C 0.33852(17) 0.22096(7) 0.46487(15)
H31 H 0.3343 0.1976 0.4100
C19 C 0.22061(18) 0.23326(8) 0.47794(17)
H32 H 0.1365 0.2181 0.4321
C20 C 0.22501(19) 0.26724(8) 0.55687(16)
H33 H 0.1446 0.2750 0.5665
C21 C 0.34670(19) 0.28981(8) 0.62160(16)
H34 H 0.3499 0.3138 0.6754
C22 C 0.46486(17) 0.27781(8) 0.60908(14)
H35 H 0.5482 0.2939 0.6541
C23 C 0.60589(15) 0.13073(6) 0.61937(12)
C24 C 0.52986(18) 0.08679(7) 0.56438(14)
H36 H 0.5164 0.0812 0.4940
C25 C 0.47342(19) 0.05104(7) 0.61211(17)
H37 H 0.4221 0.0209 0.5743
C26 C 0.4915(2) 0.05905(8) 0.71385(17)
H38 H 0.4517 0.0348 0.7459
C27 C 0.5673(2) 0.10224(8) 0.76870(16)
H39 H 0.5803 0.1077 0.8390
C28 C 0.62516(18) 0.13794(7) 0.72223(14)
H40 H 0.6782 0.1675 0.7610
loop_
_geom_bond_atom_site_label_1
_geom_bond_atom_site_label_2
_geom_bond_site_symmetry_1
_geom_bond_site_symmetry_2
C1 C2 1_555 1_555
C2 B1 1_555 1_555
B1 C1 1_555 1_555
H1 B1 1_555 1_555
B2 C1 1_555 1_555
H2 B2 1_555 1_555
B3 C1 1_555 1_555
H3 B3 1_555 1_555
B4 C1 1_555 1_555
H4 B4 1_555 1_555
B5 C2 1_555 1_555
H5 B5 1_555 1_555
B6 B1 1_555 1_555
H6 B6 1_555 1_555
B7 B2 1_555 1_555
H7 B7 1_555 1_555
B8 B3 1_555 1_555
H8 B8 1_555 1_555
B9 C2 1_555 1_555
H9 B9 1_555 1_555
B10 B5 1_555 1_555
H10 B10 1_555 1_555
C3 C1 1_555 1_555
C4 C3 1_555 1_555
H11 C4 1_555 1_555
C5 C4 1_555 1_555
H12 C5 1_555 1_555
C6 C5 1_555 1_555
H13 C6 1_555 1_555
C7 C6 1_555 1_555
H14 C7 1_555 1_555
C8 C3 1_555 1_555
H15 C8 1_555 1_555
C9 C2 1_555 1_555
C10 C9 1_555 1_555
H16 C10 1_555 1_555
C11 C10 1_555 1_555
H17 C11 1_555 1_555
C12 C11 1_555 1_555
H18 C12 1_555 1_555
C13 C12 1_555 1_555
H19 C13 1_555 1_555
C14 C9 1_555 1_555
H20 C14 1_555 1_555
C15 C16 1_555 1_555
C16 B11 1_555 1_555
B11 C15 1_555 1_555
H21 B11 1_555 1_555
B12 C15 1_555 1_555
H22 B12 1_555 1_555
B13 C15 1_555 1_555
H23 B13 1_555 1_555
B14 C15 1_555 1_555
H24 B14 1_555 1_555
B15 C16 1_555 1_555
H25 B15 1_555 1_555
B16 B11 1_555 1_555
H26 B16 1_555 1_555
B17 B12 1_555 1_555
H27 B17 1_555 1_555
B18 B13 1_555 1_555
H28 B18 1_555 1_555
B19 C16 1_555 1_555
H29 B19 1_555 1_555
B20 B15 1_555 1_555
H30 B20 1_555 1_555
C17 C15 1_555 1_555
C18 C17 1_555 1_555
H31 C18 1_555 1_555
C19 C18 1_555 1_555
H32 C19 1_555 1_555
C20 C19 1_555 1_555
H33 C20 1_555 1_555
C21 C20 1_555 1_555
H34 C21 1_555 1_555
C22 C17 1_555 1_555
H35 C22 1_555 1_555
C23 C16 1_555 1_555
C24 C23 1_555 1_555
H36 C24 1_555 1_555
C25 C24 1_555 1_555
H37 C25 1_555 1_555
C26 C25 1_555 1_555
H38 C26 1_555 1_555
C27 C26 1_555 1_555
H39 C27 1_555 1_555
C28 C23 1_555 1_555
H40 C28 1_555 1_555
C2 B4 1_555 1_555
B1 B2 1_555 1_555
B1 B5 1_555 1_555
B2 B3 1_555 1_555
B2 B6 1_555 1_555
B3 B4 1_555 1_555
B3 B7 1_555 1_555
B4 B8 1_555 1_555
B4 B9 1_555 1_555
B5 B6 1_555 1_555
B5 B9 1_555 1_555
B6 B7 1_555 1_555
B6 B10 1_555 1_555
B7 B8 1_555 1_555
B7 B10 1_555 1_555
B8 B9 1_555 1_555
B8 B10 1_555 1_555
B9 B10 1_555 1_555
C7 C8 1_555 1_555
C13 C14 1_555 1_555
C16 B14 1_555 1_555
B11 B12 1_555 1_555
B11 B15 1_555 1_555
B12 B13 1_555 1_555
B12 B16 1_555 1_555
B13 B14 1_555 1_555
B13 B17 1_555 1_555
B14 B18 1_555 1_555
B14 B19 1_555 1_555
B15 B16 1_555 1_555
B15 B19 1_555 1_555
B16 B17 1_555 1_555
B16 B20 1_555 1_555
B17 B18 1_555 1_555
B17 B20 1_555 1_555
B18 B19 1_555 1_555
B18 B20 1_555 1_555
B19 B20 1_555 1_555
C21 C22 1_555 1_555
C27 C28 1_555 1_555

#END
