
#######################################################################
#
#                 Cambridge Crystallographic Data Centre
#                                CCDC 
#
#######################################################################
#
# If this CIF has been generated from an entry in the Cambridge 
# Structural Database, then it will include bibliographic, chemical, 
# crystal, experimental, refinement or atomic coordinate data resulting 
# from the CCDC's data processing and validation procedures.
#
#######################################################################

data_LABFAX
_chemical_formula_moiety         'C19 H31 N2 1+,H2 O1,Br1 1-'
_chemical_name_systematic        
'1,3-Dihexyl-1H-3,1-benzimidazol-3-ium bromide monohydrate'
_symmetry_cell_setting           triclinic
_symmetry_space_group_name_H-M   'P -1'
_symmetry_Int_Tables_number      2
_space_group_name_Hall           '-P 1'
loop_
_symmetry_equiv_pos_site_id
_symmetry_equiv_pos_as_xyz
1 x,y,z
2 -x,-y,-z
_cell_length_a                   9.096(10)
_cell_length_b                   9.1414(14)
_cell_length_c                   13.805(3)
_cell_angle_alpha                71.505(15)
_cell_angle_beta                 78.19(5)
_cell_angle_gamma                76.70(3)
_cell_volume                     1048.56
_exptl_crystal_colour            colorless
_exptl_crystal_description       plate
_cell_formula_units_Z            2
loop_
_atom_site_label
_atom_site_type_symbol
_atom_site_fract_x
_atom_site_fract_y
_atom_site_fract_z
Br1 Br 0.16932(8) 0.62313(8) 0.07499(6)
O1 O -0.0432(8) 0.3427(8) 0.1357(5)
H1 H 0.0311 0.3895 0.1275
H2 H -0.1059 0.4271 0.1159
N1 N 0.6161(5) -0.2636(5) 0.1330(3)
N2 N 0.7521(5) -0.0990(5) 0.1378(3)
C1 C 0.7537(7) -0.2436(7) 0.1362(4)
H3 H 0.8407 -0.3208 0.1373
C2 C 0.6025(6) -0.0192(6) 0.1365(4)
C3 C 0.5376(7) 0.1338(6) 0.1346(4)
H4 H 0.5955 0.2049 0.1355
C4 C 0.3845(8) 0.1753(7) 0.1313(5)
H5 H 0.3366 0.2769 0.1310
C5 C 0.2972(7) 0.0692(7) 0.1283(5)
H6 H 0.1930 0.1025 0.1261
C6 C 0.3602(7) -0.0803(7) 0.1285(4)
H7 H 0.3021 -0.1500 0.1258
C7 C 0.5160(6) -0.1243(6) 0.1329(4)
C8 C 0.5728(7) -0.4102(6) 0.1332(5)
H8 H 0.6623 -0.4768 0.1085
H9 H 0.4989 -0.3851 0.0860
C9 C 0.5054(8) -0.4986(7) 0.2391(5)
H10 H 0.4224 -0.4281 0.2663
H11 H 0.4629 -0.5826 0.2327
C10 C 0.6180(8) -0.5671(8) 0.3144(5)
H12 H 0.6505 -0.4826 0.3282
H13 H 0.7072 -0.6272 0.2838
C11 C 0.5513(10) -0.6736(9) 0.4167(6)
H14 H 0.4613 -0.6131 0.4462
H15 H 0.5191 -0.7576 0.4023
C12 C 0.6559(11) -0.7429(11) 0.4936(7)
H16 H 0.6868 -0.6596 0.5098
H17 H 0.7467 -0.8031 0.4646
C13 C 0.5844(13) -0.8489(12) 0.5923(7)
H18 H 0.6563 -0.8900 0.6408
H19 H 0.5571 -0.9338 0.5771
H20 H 0.4946 -0.7897 0.6215
C14 C 0.8831(7) -0.0366(7) 0.1471(5)
H21 H 0.8834 0.0671 0.0989
H22 H 0.9773 -0.1038 0.1292
C15 C 0.8762(8) -0.0269(8) 0.2561(5)
H23 H 0.9530 0.0316 0.2556
H24 H 0.7773 0.0320 0.2757
C16 C 0.9000(10) -0.1804(9) 0.3363(6)
H25 H 0.9998 -0.2389 0.3184
H26 H 0.8242 -0.2401 0.3370
C17 C 0.8885(11) -0.1624(11) 0.4454(6)
H27 H 0.9666 -0.1050 0.4441
H28 H 0.7904 -0.0990 0.4608
C18 C 0.9044(12) -0.3042(13) 0.5274(8)
H29 H 1.0036 -0.3666 0.5130
H30 H 0.8277 -0.3628 0.5280
C19 C 0.8896(14) -0.2841(14) 0.6322(7)
H31 H 0.9003 -0.3851 0.6823
H32 H 0.7911 -0.2240 0.6481
H33 H 0.9677 -0.2303 0.6337
loop_
_geom_bond_atom_site_label_1
_geom_bond_atom_site_label_2
_geom_bond_site_symmetry_1
_geom_bond_site_symmetry_2
O1 H1 1_555 1_555
H2 O1 1_555 1_555
N1 C1 1_555 1_555
N2 C1 1_555 1_555
C1 H3 1_555 1_555
C2 N2 1_555 1_555
C3 C2 1_555 1_555
H4 C3 1_555 1_555
C4 C3 1_555 1_555
H5 C4 1_555 1_555
C5 C4 1_555 1_555
H6 C5 1_555 1_555
C6 C5 1_555 1_555
H7 C6 1_555 1_555
C7 N1 1_555 1_555
C8 N1 1_555 1_555
H8 C8 1_555 1_555
H9 C8 1_555 1_555
C9 C8 1_555 1_555
H10 C9 1_555 1_555
H11 C9 1_555 1_555
C10 C9 1_555 1_555
H12 C10 1_555 1_555
H13 C10 1_555 1_555
C11 C10 1_555 1_555
H14 C11 1_555 1_555
H15 C11 1_555 1_555
C12 C11 1_555 1_555
H16 C12 1_555 1_555
H17 C12 1_555 1_555
C13 C12 1_555 1_555
H18 C13 1_555 1_555
H19 C13 1_555 1_555
H20 C13 1_555 1_555
C14 N2 1_555 1_555
H21 C14 1_555 1_555
H22 C14 1_555 1_555
C15 C14 1_555 1_555
H23 C15 1_555 1_555
H24 C15 1_555 1_555
C16 C15 1_555 1_555
H25 C16 1_555 1_555
H26 C16 1_555 1_555
C17 C16 1_555 1_555
H27 C17 1_555 1_555
H28 C17 1_555 1_555
C18 C17 1_555 1_555
H29 C18 1_555 1_555
H30 C18 1_555 1_555
C19 C18 1_555 1_555
H31 C19 1_555 1_555
H32 C19 1_555 1_555
H33 C19 1_555 1_555
C2 C7 1_555 1_555
C6 C7 1_555 1_555

#END
