
#######################################################################
#
#                 Cambridge Crystallographic Data Centre
#                                CCDC 
#
#######################################################################
#
# If this CIF has been generated from an entry in the Cambridge 
# Structural Database, then it will include bibliographic, chemical, 
# crystal, experimental, refinement or atomic coordinate data resulting 
# from the CCDC's data processing and validation procedures.
#
#######################################################################

data_LABROY
_chemical_formula_moiety         'C23 H29 N1 O4 S1'
_chemical_name_systematic        
(1R,2S,3R,4S)-2-Hydroxy-1,7,7-trimethyl-3-(2-(phenylsulfonyloxy)benzylamino)bicyclo[2.2.1]heptane
_symmetry_cell_setting           orthorhombic
_symmetry_space_group_name_H-M   'P 21 21 21'
_symmetry_Int_Tables_number      19
_space_group_name_Hall           'P 2ac 2ab'
loop_
_symmetry_equiv_pos_site_id
_symmetry_equiv_pos_as_xyz
1 x,y,z
2 1/2-x,-y,1/2+z
3 -x,1/2+y,1/2-z
4 1/2+x,1/2-y,-z
_cell_length_a                   12.6397(2)
_cell_length_b                   12.8525(2)
_cell_length_c                   13.3980(2)
_cell_angle_alpha                90
_cell_angle_beta                 90
_cell_angle_gamma                90
_cell_volume                     2176.53
_exptl_crystal_colour            colorless
_exptl_crystal_description       crystal
_chemical_melting_point          '335-337 K'
_cell_formula_units_Z            4
_exptl_crystal_recrystallization_method dichloromethane/hexane
loop_
_atom_site_label
_atom_site_type_symbol
_atom_site_fract_x
_atom_site_fract_y
_atom_site_fract_z
S1 S 0.33655(3) 0.45611(3) 0.07073(3)
N1 N 0.18165(13) 0.32683(11) 0.33899(13)
H1 H 0.1711(18) 0.3515(16) 0.3965(17)
O1 O 0.30396(11) 0.21210(10) 0.22295(10)
H2 H 0.2852 0.2732 0.2245
O2 O 0.30395(10) 0.45883(9) 0.18600(9)
O3 O 0.41849(10) 0.38079(10) 0.06814(11)
O4 O 0.35669(11) 0.56006(10) 0.03772(10)
C1 C 0.22931(15) 0.15013(14) 0.27452(14)
H3 H 0.1841 0.1148 0.2257
C2 C 0.27987(16) 0.06790(14) 0.34365(14)
C3 C 0.18694(19) -0.00338(16) 0.37387(19)
H4 H 0.1439 -0.0210 0.3164
H5 H 0.2126 -0.0670 0.4043
C4 C 0.12311(19) 0.06218(17) 0.44981(19)
H6 H 0.0504 0.0712 0.4283
H7 H 0.1238 0.0305 0.5155
C5 C 0.18307(16) 0.16603(15) 0.44957(15)
H8 H 0.1679 0.2110 0.5068
C6 C 0.15788(15) 0.21517(13) 0.34696(14)
H9 H 0.0833 0.2033 0.3306
C7 C 0.37287(18) 0.01165(16) 0.29717(17)
H10 H 0.3503 -0.0228 0.2373
H11 H 0.3999 -0.0388 0.3434
H12 H 0.4274 0.0609 0.2813
C8 C 0.29954(16) 0.12953(15) 0.44223(14)
C9 C 0.38167(17) 0.21713(16) 0.43745(18)
H13 H 0.3874 0.2496 0.5017
H14 H 0.3600 0.2678 0.3890
H15 H 0.4491 0.1888 0.4187
C10 C 0.3351(2) 0.05927(17) 0.52929(16)
H16 H 0.3459 0.1009 0.5879
H17 H 0.4000 0.0250 0.5118
H18 H 0.2815 0.0081 0.5424
C11 C 0.11252(15) 0.38056(14) 0.26751(15)
H19 H 0.0392 0.3709 0.2869
H20 H 0.1220 0.3506 0.2016
C12 C 0.13742(15) 0.49524(14) 0.26397(14)
C13 C 0.07011(16) 0.56780(15) 0.30806(15)
H21 H 0.0072 0.5453 0.3368
C14 C 0.09492(19) 0.67272(17) 0.30993(17)
H22 H 0.0491 0.7198 0.3402
C15 C 0.18700(19) 0.70724(15) 0.26715(16)
H23 H 0.2030 0.7779 0.2678
C16 C 0.25641(17) 0.63768(14) 0.22287(15)
H24 H 0.3192 0.6607 0.1943
C17 C 0.23007(14) 0.53346(14) 0.22226(13)
C18 C 0.22311(14) 0.40834(14) 0.01023(13)
C19 C 0.15813(15) 0.47658(14) -0.04049(14)
H25 H 0.1759(16) 0.5449(12) -0.0457(15)
C20 C 0.06945(15) 0.43729(16) -0.08894(14)
H26 H 0.0257 0.4818 -0.1250
C21 C 0.04607(16) 0.33265(17) -0.08377(16)
H27 H -0.0141 0.3071 -0.1153
C22 C 0.11150(17) 0.26546(16) -0.03205(16)
H28 H 0.0948 0.1951 -0.0287
C23 C 0.20177(15) 0.30224(15) 0.01487(15)
H29 H 0.2469 0.2572 0.0486
loop_
_geom_bond_atom_site_label_1
_geom_bond_atom_site_label_2
_geom_bond_site_symmetry_1
_geom_bond_site_symmetry_2
S1 O2 1_555 1_555
N1 H1 1_555 1_555
O1 H2 1_555 1_555
O2 C17 1_555 1_555
O3 S1 1_555 1_555
O4 S1 1_555 1_555
C1 O1 1_555 1_555
H3 C1 1_555 1_555
C2 C1 1_555 1_555
C3 C2 1_555 1_555
H4 C3 1_555 1_555
H5 C3 1_555 1_555
C4 C3 1_555 1_555
H6 C4 1_555 1_555
H7 C4 1_555 1_555
C5 C4 1_555 1_555
H8 C5 1_555 1_555
C6 N1 1_555 1_555
H9 C6 1_555 1_555
C7 C2 1_555 1_555
H10 C7 1_555 1_555
H11 C7 1_555 1_555
H12 C7 1_555 1_555
C8 C2 1_555 1_555
C9 C8 1_555 1_555
H13 C9 1_555 1_555
H14 C9 1_555 1_555
H15 C9 1_555 1_555
C10 C8 1_555 1_555
H16 C10 1_555 1_555
H17 C10 1_555 1_555
H18 C10 1_555 1_555
C11 N1 1_555 1_555
H19 C11 1_555 1_555
H20 C11 1_555 1_555
C12 C11 1_555 1_555
C13 C12 1_555 1_555
H21 C13 1_555 1_555
C14 C13 1_555 1_555
H22 C14 1_555 1_555
C15 C14 1_555 1_555
H23 C15 1_555 1_555
C16 C15 1_555 1_555
H24 C16 1_555 1_555
C17 C12 1_555 1_555
C18 S1 1_555 1_555
C19 C18 1_555 1_555
H25 C19 1_555 1_555
C20 C19 1_555 1_555
H26 C20 1_555 1_555
C21 C20 1_555 1_555
H27 C21 1_555 1_555
C22 C21 1_555 1_555
H28 C22 1_555 1_555
C23 C18 1_555 1_555
H29 C23 1_555 1_555
C1 C6 1_555 1_555
C5 C6 1_555 1_555
C5 C8 1_555 1_555
C16 C17 1_555 1_555
C22 C23 1_555 1_555

#END
