
#######################################################################
#
#                 Cambridge Crystallographic Data Centre
#                                CCDC 
#
#######################################################################
#
# If this CIF has been generated from an entry in the Cambridge 
# Structural Database, then it will include bibliographic, chemical, 
# crystal, experimental, refinement or atomic coordinate data resulting 
# from the CCDC's data processing and validation procedures.
#
#######################################################################

data_LABVAO
_chemical_formula_moiety         'C18 H12 O4'
_chemical_name_systematic        
(E)-3-(3-(2-Hydroxyphenyl)-3-oxoprop-1-en-1-yl)-4H-chromen-4-one
_chemical_properties_biological  'antiradical activity'
_symmetry_cell_setting           orthorhombic
_symmetry_space_group_name_H-M   'P n a 21'
_symmetry_Int_Tables_number      33
_space_group_name_Hall           'P 2c -2n'
loop_
_symmetry_equiv_pos_site_id
_symmetry_equiv_pos_as_xyz
1 x,y,z
2 -x,-y,1/2+z
3 1/2+x,1/2-y,z
4 1/2-x,1/2+y,1/2+z
_cell_length_a                   23.420(3)
_cell_length_b                   4.9710(5)
_cell_length_c                   11.6351(13)
_cell_angle_alpha                90
_cell_angle_beta                 90
_cell_angle_gamma                90
_cell_volume                     1354.57
_exptl_crystal_colour            yellow
_exptl_crystal_description       Plate
_chemical_melting_point          '177 deg.C'
_cell_formula_units_Z            4
_exptl_crystal_recrystallization_method 'dichloromethane/light petroleum'
loop_
_atom_site_label
_atom_site_type_symbol
_atom_site_fract_x
_atom_site_fract_y
_atom_site_fract_z
O1 O 0.44440(11) 1.3868(4) 0.5985(2)
H1 H 0.4149 1.3372 0.6335
O2 O 0.36234(10) 1.0716(4) 0.6480(2)
O3 O 0.26371(8) 0.2986(4) 0.40259(19)
O4 O 0.16996(9) 0.2205(4) 0.69826(19)
C1 C 0.45116(13) 1.2354(6) 0.5024(3)
C2 C 0.49562(14) 1.3054(7) 0.4274(4)
H2 H 0.5196 1.4544 0.4443
C3 C 0.50445(14) 1.1565(7) 0.3285(3)
H3 H 0.5343 1.2063 0.2775
C4 C 0.47068(14) 0.9362(7) 0.3027(3)
H4 H 0.4778 0.8324 0.2356
C5 C 0.42636(13) 0.8698(6) 0.3761(3)
H5 H 0.4027 0.7206 0.3579
C6 C 0.41550(13) 1.0160(6) 0.4763(3)
C7 C 0.36806(13) 0.9446(6) 0.5557(3)
C8 C 0.32784(12) 0.7274(6) 0.5266(3)
H6 H 0.3303 0.6390 0.4543
C9 C 0.28747(12) 0.6551(6) 0.6033(3)
H7 H 0.2871 0.7548 0.6730
C10 C 0.24440(12) 0.4445(6) 0.5936(3)
C11 C 0.23503(13) 0.2783(6) 0.4911(3)
C12 C 0.18817(13) 0.0805(6) 0.5026(3)
C13 C 0.15789(12) 0.0579(6) 0.6058(3)
C14 C 0.11480(13) -0.1298(6) 0.6212(3)
H8 H 0.0953 -0.1420 0.6926
C15 C 0.10074(13) -0.2981(6) 0.5317(3)
H9 H 0.0713 -0.4278 0.5413
C16 C 0.12964(13) -0.2789(6) 0.4265(3)
H10 H 0.1195 -0.3942 0.3647
C17 C 0.17260(12) -0.0934(6) 0.4129(3)
H11 H 0.1921 -0.0826 0.3415
C18 C 0.21097(12) 0.4062(6) 0.6878(3)
H12 H 0.2173 0.5213 0.7517
loop_
_geom_bond_atom_site_label_1
_geom_bond_atom_site_label_2
_geom_bond_site_symmetry_1
_geom_bond_site_symmetry_2
O1 H1 1_555 1_555
O2 C7 1_555 1_555
O3 C11 1_555 1_555
O4 C13 1_555 1_555
C1 O1 1_555 1_555
C2 C1 1_555 1_555
H2 C2 1_555 1_555
C3 C2 1_555 1_555
H3 C3 1_555 1_555
C4 C3 1_555 1_555
H4 C4 1_555 1_555
C5 C4 1_555 1_555
H5 C5 1_555 1_555
C6 C1 1_555 1_555
C7 C6 1_555 1_555
C8 C7 1_555 1_555
H6 C8 1_555 1_555
C9 C8 1_555 1_555
H7 C9 1_555 1_555
C10 C9 1_555 1_555
C11 C10 1_555 1_555
C12 C11 1_555 1_555
C13 C12 1_555 1_555
C14 C13 1_555 1_555
H8 C14 1_555 1_555
C15 C14 1_555 1_555
H9 C15 1_555 1_555
C16 C15 1_555 1_555
H10 C16 1_555 1_555
C17 C12 1_555 1_555
H11 C17 1_555 1_555
C18 O4 1_555 1_555
H12 C18 1_555 1_555
C5 C6 1_555 1_555
C10 C18 1_555 1_555
C16 C17 1_555 1_555

#END
