
#######################################################################
#
#                 Cambridge Crystallographic Data Centre
#                                CCDC 
#
#######################################################################
#
# If this CIF has been generated from an entry in the Cambridge 
# Structural Database, then it will include bibliographic, chemical, 
# crystal, experimental, refinement or atomic coordinate data resulting 
# from the CCDC's data processing and validation procedures.
#
#######################################################################

data_LABZUL
_chemical_formula_moiety         'C12 H17 N2 1+,B1 F4 1-'
_chemical_name_systematic        
'3-butyl-2-methyl-1H-benzimidazol-3-ium tetrafluoroborate'
_symmetry_cell_setting           orthorhombic
_symmetry_space_group_name_H-M   'P n a 21'
_symmetry_Int_Tables_number      33
_space_group_name_Hall           'P 2c -2n'
loop_
_symmetry_equiv_pos_site_id
_symmetry_equiv_pos_as_xyz
1 x,y,z
2 -x,-y,1/2+z
3 1/2+x,1/2-y,z
4 1/2-x,1/2+y,1/2+z
_cell_length_a                   13.566(4)
_cell_length_b                   15.593(4)
_cell_length_c                   6.8193(17)
_cell_angle_alpha                90
_cell_angle_beta                 90
_cell_angle_gamma                90
_cell_volume                     1442.52
_exptl_crystal_colour            colorless
_exptl_crystal_description       columnar
_cell_formula_units_Z            4
loop_
_atom_site_label
_atom_site_type_symbol
_atom_site_fract_x
_atom_site_fract_y
_atom_site_fract_z
B1 B 0.2638(7) 0.6957(6) 0.573(2)
F1 F 0.2529(4) 0.7353(3) 0.4024(9)
F2 F 0.2428(3) 0.6086(3) 0.5619(8)
F3 F 0.2085(6) 0.7269(4) 0.7096(11)
F4 F 0.3616(4) 0.6944(4) 0.6276(9)
N1 N 0.5368(3) 0.6326(2) 0.0488(9)
N2 N 0.5947(3) 0.5034(3) 0.0694(11)
H1 H 0.6361 0.4617 0.0762
C1 C 0.4549(4) 0.5780(3) 0.0556(10)
C2 C 0.3548(4) 0.5932(4) 0.0496(11)
H2 H 0.3294 0.6485 0.0406
C3 C 0.2950(5) 0.5230(5) 0.0577(12)
H3 H 0.2271 0.5311 0.0559
C4 C 0.3316(5) 0.4393(4) 0.0685(13)
H4 H 0.2878 0.3934 0.0724
C5 C 0.4311(5) 0.4238(3) 0.0734(11)
H5 H 0.4564 0.3685 0.0800
C6 C 0.4916(4) 0.4950(3) 0.0679(9)
C7 C 0.6181(4) 0.5862(4) 0.0585(11)
C8 C 0.7216(4) 0.6193(4) 0.0609(12)
H6 H 0.7301 0.6601 -0.0431
H7 H 0.7666 0.5724 0.0429
H8 H 0.7345 0.6465 0.1845
C9 C 0.5300(5) 0.7260(3) 0.0307(12)
H9 H 0.4774 0.7400 -0.0603
H10 H 0.5911 0.7475 -0.0244
C10 C 0.5108(5) 0.7711(4) 0.2222(12)
H11 H 0.5636 0.7579 0.3131
H12 H 0.4498 0.7496 0.2780
C11 C 0.5033(6) 0.8675(4) 0.1997(17)
H13 H 0.5652 0.8892 0.1485
H14 H 0.4522 0.8806 0.1046
C12 C 0.4806(7) 0.9122(5) 0.385(2)
H15 H 0.4194 0.8910 0.4368
H16 H 0.4751 0.9726 0.3609
H17 H 0.5325 0.9019 0.4778
loop_
_geom_bond_atom_site_label_1
_geom_bond_atom_site_label_2
_geom_bond_site_symmetry_1
_geom_bond_site_symmetry_2
B1 F1 1_555 1_555
F2 B1 1_555 1_555
F3 B1 1_555 1_555
F4 B1 1_555 1_555
N1 C1 1_555 1_555
N2 H1 1_555 1_555
C1 C2 1_555 1_555
C2 H2 1_555 1_555
C3 C2 1_555 1_555
H3 C3 1_555 1_555
C4 C3 1_555 1_555
H4 C4 1_555 1_555
C5 C4 1_555 1_555
H5 C5 1_555 1_555
C6 N2 1_555 1_555
C7 N1 1_555 1_555
C8 C7 1_555 1_555
H6 C8 1_555 1_555
H7 C8 1_555 1_555
H8 C8 1_555 1_555
C9 N1 1_555 1_555
H9 C9 1_555 1_555
H10 C9 1_555 1_555
C10 C9 1_555 1_555
H11 C10 1_555 1_555
H12 C10 1_555 1_555
C11 C10 1_555 1_555
H13 C11 1_555 1_555
H14 C11 1_555 1_555
C12 C11 1_555 1_555
H15 C12 1_555 1_555
H16 C12 1_555 1_555
H17 C12 1_555 1_555
N2 C7 1_555 1_555
C1 C6 1_555 1_555
C5 C6 1_555 1_555

#END
