
#######################################################################
#
#                 Cambridge Crystallographic Data Centre
#                                CCDC 
#
#######################################################################
#
# If this CIF has been generated from an entry in the Cambridge 
# Structural Database, then it will include bibliographic, chemical, 
# crystal, experimental, refinement or atomic coordinate data resulting 
# from the CCDC's data processing and validation procedures.
#
#######################################################################

data_LACQOY
_chemical_formula_moiety         'C21 H18 Br1 N3 O3'
_chemical_name_systematic        
4-(2-bromo-6-methylphenyl)-1-(2-methoxy-1-naphthyl)-2-methyl-1,2,4-triazolidine-3,5-dione
_symmetry_cell_setting           orthorhombic
_symmetry_space_group_name_H-M   'P 21 21 21'
_symmetry_Int_Tables_number      19
_space_group_name_Hall           'P 2ac 2ab'
loop_
_symmetry_equiv_pos_site_id
_symmetry_equiv_pos_as_xyz
1 x,y,z
2 1/2-x,-y,1/2+z
3 -x,1/2+y,1/2-z
4 1/2+x,1/2-y,-z
_cell_length_a                   7.6250(6)
_cell_length_b                   11.3589(8)
_cell_length_c                   22.3194(19)
_cell_angle_alpha                90
_cell_angle_beta                 90
_cell_angle_gamma                90
_cell_volume                     1933.12
_exptl_crystal_colour            colorless
_exptl_crystal_description       block
_cell_formula_units_Z            4
loop_
_atom_site_label
_atom_site_type_symbol
_atom_site_fract_x
_atom_site_fract_y
_atom_site_fract_z
Br1 Br 0.28902(4) 0.59892(2) 0.822126(14)
O1 O 0.6104(2) 0.86428(19) 0.77552(8)
O2 O 0.1902(2) 0.69981(15) 0.65422(7)
O3 O 0.5250(3) 0.90420(16) 0.56898(8)
N1 N 0.3645(2) 0.78870(18) 0.72704(8)
N2 N 0.6161(2) 0.78531(19) 0.68039(10)
N3 N 0.4914(2) 0.72214(18) 0.64623(8)
C1 C 0.5412(3) 0.8184(2) 0.73292(10)
C2 C 0.3312(3) 0.73273(18) 0.67283(10)
C3 C 0.8016(3) 0.7666(2) 0.67097(12)
H1 H 0.8657 0.7954 0.7050
H2 H 0.8384 0.8080 0.6357
H3 H 0.8239 0.6840 0.6660
C4 C 0.2316(3) 0.82245(19) 0.76883(10)
C5 C 0.1833(3) 0.7478(2) 0.81465(11)
C6 C 0.0564(4) 0.7813(3) 0.85527(12)
H4 H 0.0257 0.7317 0.8867
C7 C -0.0248(4) 0.8899(3) 0.84868(13)
H5 H -0.1123 0.9127 0.8753
C8 C 0.0240(3) 0.9638(2) 0.80289(13)
H6 H -0.0310 1.0365 0.7990
C9 C 0.1529(3) 0.9321(2) 0.76262(11)
C10 C 0.2088(4) 1.0150(2) 0.71152(13)
H7 H 0.1472 1.0883 0.7151
H8 H 0.1814 0.9792 0.6737
H9 H 0.3328 1.0290 0.7139
C11 C 0.5208(3) 0.7012(2) 0.58419(9)
C12 C 0.5412(3) 0.7944(2) 0.54510(10)
C13 C 0.5780(3) 0.7721(2) 0.48412(10)
H10 H 0.5958 0.8345 0.4579
C14 C 0.5875(3) 0.6605(2) 0.46401(10)
H11 H 0.6114 0.6473 0.4237
C15 C 0.5623(3) 0.5629(2) 0.50207(10)
C16 C 0.5281(3) 0.5837(2) 0.56383(9)
C17 C 0.5028(4) 0.4850(2) 0.60219(11)
H12 H 0.4827 0.4968 0.6428
C18 C 0.5076(5) 0.3735(2) 0.57988(13)
H13 H 0.4868 0.3099 0.6051
C19 C 0.5442(6) 0.3537(2) 0.51867(14)
H14 H 0.5507 0.2770 0.5042
C20 C 0.5699(5) 0.4454(2) 0.48073(13)
H15 H 0.5926 0.4311 0.4404
C21 C 0.5467(5) 1.0019(2) 0.52943(15)
H16 H 0.6647 1.0028 0.5144
H17 H 0.5238 1.0737 0.5507
H18 H 0.4662 0.9948 0.4966
loop_
_geom_bond_atom_site_label_1
_geom_bond_atom_site_label_2
_geom_bond_site_symmetry_1
_geom_bond_site_symmetry_2
Br1 C5 1_555 1_555
O1 C1 1_555 1_555
O2 C2 1_555 1_555
O3 C12 1_555 1_555
N1 C1 1_555 1_555
N2 N3 1_555 1_555
N3 C2 1_555 1_555
C1 N2 1_555 1_555
C2 N1 1_555 1_555
C3 N2 1_555 1_555
H1 C3 1_555 1_555
H2 C3 1_555 1_555
H3 C3 1_555 1_555
C4 N1 1_555 1_555
C5 C4 1_555 1_555
C6 C5 1_555 1_555
H4 C6 1_555 1_555
C7 C6 1_555 1_555
H5 C7 1_555 1_555
C8 C7 1_555 1_555
H6 C8 1_555 1_555
C9 C4 1_555 1_555
C10 C9 1_555 1_555
H7 C10 1_555 1_555
H8 C10 1_555 1_555
H9 C10 1_555 1_555
C11 N3 1_555 1_555
C12 C11 1_555 1_555
C13 C12 1_555 1_555
H10 C13 1_555 1_555
C14 C13 1_555 1_555
H11 C14 1_555 1_555
C15 C14 1_555 1_555
C16 C11 1_555 1_555
C17 C16 1_555 1_555
H12 C17 1_555 1_555
C18 C17 1_555 1_555
H13 C18 1_555 1_555
C19 C18 1_555 1_555
H14 C19 1_555 1_555
C20 C15 1_555 1_555
H15 C20 1_555 1_555
C21 O3 1_555 1_555
H16 C21 1_555 1_555
H17 C21 1_555 1_555
H18 C21 1_555 1_555
C8 C9 1_555 1_555
C15 C16 1_555 1_555
C19 C20 1_555 1_555

#END
