
#######################################################################
#
#                 Cambridge Crystallographic Data Centre
#                                CCDC 
#
#######################################################################
#
# If this CIF has been generated from an entry in the Cambridge 
# Structural Database, then it will include bibliographic, chemical, 
# crystal, experimental, refinement or atomic coordinate data resulting 
# from the CCDC's data processing and validation procedures.
#
#######################################################################

data_LACXAQ
_chemical_formula_moiety         'C29 H26 N4'
_chemical_name_systematic        
9-Butyl-2-methyl-4-phenyl-7H-benzo[de]isoquinolino[3,4-b][1,8]naphthyridin-5-amine
_symmetry_cell_setting           monoclinic
_symmetry_space_group_name_H-M   'P 21/n'
_symmetry_Int_Tables_number      14
_space_group_name_Hall           '-P 2yn'
loop_
_symmetry_equiv_pos_site_id
_symmetry_equiv_pos_as_xyz
1 x,y,z
2 1/2-x,1/2+y,1/2-z
3 -x,-y,-z
4 1/2+x,1/2-y,1/2+z
_cell_length_a                   11.0761(2)
_cell_length_b                   17.9270(4)
_cell_length_c                   22.0523(5)
_cell_angle_alpha                90
_cell_angle_beta                 96.6320(11)
_cell_angle_gamma                90
_cell_volume                     4349.43
_exptl_crystal_colour            red
_exptl_crystal_description       prism
_cell_formula_units_Z            8
loop_
_atom_site_label
_atom_site_type_symbol
_atom_site_fract_x
_atom_site_fract_y
_atom_site_fract_z
N1 N 0.62022(10) 0.62854(7) -0.07945(6)
N2 N 0.73921(11) 0.68681(8) -0.00187(6)
H1 H 0.7068(17) 0.7278(12) -0.0185(9)
N3 N 0.85391(11) 0.75697(7) 0.07098(6)
N4 N 0.96466(13) 0.83063(8) 0.14246(7)
H2 H 0.9462(19) 0.8724(13) 0.1171(10)
H3 H 1.030(2) 0.8348(13) 0.1668(10)
C1 C 0.57139(12) 0.56888(9) -0.10712(7)
C2 C 0.58759(13) 0.49669(9) -0.08063(7)
C3 C 0.51934(14) 0.43468(10) -0.10487(8)
H4 H 0.4601(16) 0.4436(10) -0.1420(9)
C4 C 0.52750(16) 0.36714(10) -0.07627(8)
H5 H 0.4764(18) 0.3242(12) -0.0912(10)
C5 C 0.60598(15) 0.35841(10) -0.02215(8)
H6 H 0.6060(16) 0.3122(11) -0.0002(9)
C6 C 0.67685(14) 0.41684(9) 0.00143(8)
H7 H 0.7312(16) 0.4080(10) 0.0401(8)
C7 C 0.67125(13) 0.48774(9) -0.02703(7)
C8 C 0.73798(12) 0.55217(9) -0.00291(7)
C9 C 0.84435(12) 0.55241(9) 0.04320(7)
C10 C 0.91630(13) 0.49066(9) 0.06012(7)
H8 H 0.9031(15) 0.4422(11) 0.0397(8)
C11 C 1.01803(13) 0.49574(9) 0.10434(7)
C12 C 1.04886(13) 0.56268(9) 0.13210(7)
H9 H 1.1177(17) 0.5672(11) 0.1629(9)
C13 C 0.98332(12) 0.62864(9) 0.11521(7)
C14 C 1.01336(12) 0.69958(9) 0.14041(7)
C15 C 0.94503(13) 0.76076(9) 0.11824(7)
C16 C 0.82548(12) 0.69010(9) 0.04815(7)
C17 C 0.88235(12) 0.62273(9) 0.06922(7)
C18 C 0.69774(12) 0.62044(9) -0.02743(7)
C19 C 0.49445(13) 0.58215(9) -0.16733(7)
H10 H 0.5061 0.5399 -0.1950
H11 H 0.5237 0.6279 -0.1862
C20 C 0.35869(13) 0.59064(10) -0.16227(7)
H12 H 0.3281 0.5441 -0.1452
H13 H 0.3467 0.6317 -0.1335
C21 C 0.28507(14) 0.60695(12) -0.22347(8)
H14 H 0.3140 0.6541 -0.2402
H15 H 0.2977 0.5664 -0.2525
C22 C 0.15025(15) 0.61359(12) -0.21712(9)
H16 H 0.1202 0.5659 -0.2032
H17 H 0.1059 0.6266 -0.2568
H18 H 0.1378 0.6526 -0.1873
C23 C 1.09164(14) 0.42659(10) 0.12051(9)
H19 H 1.1686(18) 0.4393(11) 0.1360(9)
H20 H 1.0988(17) 0.3968(12) 0.0833(9)
H21 H 1.0570(17) 0.3955(12) 0.1503(9)
C24 C 1.11893(13) 0.71075(9) 0.18811(7)
C25 C 1.10227(14) 0.72565(10) 0.24815(8)
H22 H 1.0164(18) 0.7246(11) 0.2604(9)
C26 C 1.20063(15) 0.73987(10) 0.29194(8)
H23 H 1.1852(18) 0.7527(12) 0.3323(10)
C27 C 1.31697(14) 0.73911(10) 0.27547(8)
H24 H 1.3849(18) 0.7513(12) 0.3057(9)
C28 C 1.33533(15) 0.72222(12) 0.21606(9)
H25 H 1.4156(19) 0.7221(11) 0.2023(9)
C29 C 1.23699(14) 0.70815(11) 0.17244(8)
H26 H 1.2508(16) 0.6934(11) 0.1296(9)
N5 N 0.91658(11) 0.96420(8) 0.06269(6)
N6 N 0.75595(10) 0.90715(7) 0.00751(6)
H27 H 0.7916(16) 0.8643(12) 0.0232(8)
N7 N 0.61399(10) 0.83532(7) -0.05005(6)
N8 N 0.47163(12) 0.76039(8) -0.10425(7)
H28 H 0.5237(17) 0.7229(11) -0.0950(9)
H29 H 0.4189(18) 0.7560(11) -0.1373(10)
C30 C 0.98363(13) 1.02280(9) 0.07964(7)
C31 C 0.95138(13) 1.09574(9) 0.05833(7)
C32 C 1.02534(14) 1.15802(10) 0.07635(8)
H30 H 1.0934(16) 1.1485(11) 0.1070(9)
C33 C 0.99914(14) 1.22672(10) 0.05273(8)
H31 H 1.0463(17) 1.2691(11) 0.0654(9)
C34 C 0.90121(15) 1.23556(10) 0.00679(8)
H32 H 0.8885(16) 1.2828(11) -0.0111(9)
C35 C 0.82675(13) 1.17659(9) -0.01122(8)
H33 H 0.7628(16) 1.1861(10) -0.0438(8)
C36 C 0.84422(12) 1.10536(9) 0.01595(7)
C37 C 0.76689(12) 1.04181(9) 0.00183(7)
C38 C 0.64917(12) 1.04142(8) -0.03650(7)
C39 C 0.57959(12) 1.10383(9) -0.05355(7)
H34 H 0.5994(14) 1.1522(10) -0.0367(8)
C40 C 0.47267(12) 1.09908(9) -0.09477(7)
C41 C 0.43304(13) 1.03155(9) -0.11809(7)
H35 H 0.3604(17) 1.0294(10) -0.1457(9)
C42 C 0.49470(12) 0.96478(8) -0.09917(7)
C43 C 0.45276(12) 0.89318(8) -0.11825(7)
C44 C 0.51251(12) 0.83125(8) -0.09152(7)
C45 C 0.65547(12) 0.90283(9) -0.03458(7)
C46 C 0.60180(11) 0.97073(8) -0.05700(7)
C47 C 0.81245(12) 0.97365(9) 0.02443(7)
C48 C 1.09889(13) 1.00783(10) 0.12104(8)
H36 H 1.1635 1.0411 0.1091
H37 H 1.1245 0.9558 0.1148
C49 C 1.08777(14) 1.01930(10) 0.18857(8)
H38 H 1.0333 0.9806 0.2024
H39 H 1.0505 1.0686 0.1944
C50 C 1.21040(16) 1.01524(13) 0.22742(9)
H40 H 1.2588 1.0594 0.2183
H41 H 1.1967 1.0183 0.2709
C51 C 1.2834(2) 0.94694(15) 0.21872(11)
H42 H 1.2375 0.9027 0.2286
H43 H 1.3601 0.9491 0.2457
H44 H 1.3005 0.9441 0.1762
C52 C 0.40434(14) 1.16977(9) -0.11269(9)
H45 H 0.4470(18) 1.2008(12) -0.1407(10)
H46 H 0.3952(15) 1.1997(11) -0.0774(9)
H47 H 0.3256(17) 1.1603(11) -0.1357(9)
C53 C 0.35172(12) 0.88280(8) -0.16845(7)
C54 C 0.24716(13) 0.84269(9) -0.15942(8)
H48 H 0.2366(15) 0.8255(10) -0.1181(9)
C55 C 0.15905(14) 0.82787(10) -0.20812(9)
H49 H 0.0859(18) 0.7982(11) -0.2009(9)
C56 C 0.17406(15) 0.85285(10) -0.26584(8)
H50 H 0.1142(19) 0.8403(12) -0.2998(10)
C57 C 0.27572(15) 0.89432(10) -0.27520(8)
H51 H 0.2832(16) 0.9139(11) -0.3154(9)
C58 C 0.36397(14) 0.90887(10) -0.22662(8)
H52 H 0.4334(16) 0.9351(10) -0.2351(8)
loop_
_geom_bond_atom_site_label_1
_geom_bond_atom_site_label_2
_geom_bond_site_symmetry_1
_geom_bond_site_symmetry_2
N1 C1 1_555 1_555
N2 H1 1_555 1_555
N3 C15 1_555 1_555
N4 H2 1_555 1_555
H3 N4 1_555 1_555
C1 C2 1_555 1_555
C2 C3 1_555 1_555
C3 H4 1_555 1_555
C4 C3 1_555 1_555
H5 C4 1_555 1_555
C5 C4 1_555 1_555
H6 C5 1_555 1_555
C6 C5 1_555 1_555
H7 C6 1_555 1_555
C7 C2 1_555 1_555
C8 C7 1_555 1_555
C9 C8 1_555 1_555
C10 C9 1_555 1_555
H8 C10 1_555 1_555
C11 C10 1_555 1_555
C12 C11 1_555 1_555
H9 C12 1_555 1_555
C13 C12 1_555 1_555
C14 C13 1_555 1_555
C15 N4 1_555 1_555
C16 N2 1_555 1_555
C17 C9 1_555 1_555
C18 N1 1_555 1_555
C19 C1 1_555 1_555
H10 C19 1_555 1_555
H11 C19 1_555 1_555
C20 C19 1_555 1_555
H12 C20 1_555 1_555
H13 C20 1_555 1_555
C21 C20 1_555 1_555
H14 C21 1_555 1_555
H15 C21 1_555 1_555
C22 C21 1_555 1_555
H16 C22 1_555 1_555
H17 C22 1_555 1_555
H18 C22 1_555 1_555
C23 C11 1_555 1_555
H19 C23 1_555 1_555
H20 C23 1_555 1_555
H21 C23 1_555 1_555
C24 C14 1_555 1_555
C25 C24 1_555 1_555
H22 C25 1_555 1_555
C26 C25 1_555 1_555
H23 C26 1_555 1_555
C27 C26 1_555 1_555
H24 C27 1_555 1_555
C28 C27 1_555 1_555
H25 C28 1_555 1_555
C29 C24 1_555 1_555
H26 C29 1_555 1_555
N5 C30 1_555 1_555
N6 H27 1_555 1_555
N7 C44 1_555 1_555
N8 H28 1_555 1_555
H29 N8 1_555 1_555
C30 C31 1_555 1_555
C31 C32 1_555 1_555
C32 H30 1_555 1_555
C33 C32 1_555 1_555
H31 C33 1_555 1_555
C34 C33 1_555 1_555
H32 C34 1_555 1_555
C35 C34 1_555 1_555
H33 C35 1_555 1_555
C36 C31 1_555 1_555
C37 C36 1_555 1_555
C38 C37 1_555 1_555
C39 C38 1_555 1_555
H34 C39 1_555 1_555
C40 C39 1_555 1_555
C41 C40 1_555 1_555
H35 C41 1_555 1_555
C42 C41 1_555 1_555
C43 C42 1_555 1_555
C44 N8 1_555 1_555
C45 N6 1_555 1_555
C46 C38 1_555 1_555
C47 N5 1_555 1_555
C48 C30 1_555 1_555
H36 C48 1_555 1_555
H37 C48 1_555 1_555
C49 C48 1_555 1_555
H38 C49 1_555 1_555
H39 C49 1_555 1_555
C50 C49 1_555 1_555
H40 C50 1_555 1_555
H41 C50 1_555 1_555
C51 C50 1_555 1_555
H42 C51 1_555 1_555
H43 C51 1_555 1_555
H44 C51 1_555 1_555
C52 C40 1_555 1_555
H45 C52 1_555 1_555
H46 C52 1_555 1_555
H47 C52 1_555 1_555
C53 C43 1_555 1_555
C54 C53 1_555 1_555
H48 C54 1_555 1_555
C55 C54 1_555 1_555
H49 C55 1_555 1_555
C56 C55 1_555 1_555
H50 C56 1_555 1_555
C57 C56 1_555 1_555
H51 C57 1_555 1_555
C58 C53 1_555 1_555
H52 C58 1_555 1_555
N2 C18 1_555 1_555
N3 C16 1_555 1_555
C6 C7 1_555 1_555
C8 C18 1_555 1_555
C13 C17 1_555 1_555
C14 C15 1_555 1_555
C16 C17 1_555 1_555
C28 C29 1_555 1_555
N6 C47 1_555 1_555
N7 C45 1_555 1_555
C35 C36 1_555 1_555
C37 C47 1_555 1_555
C42 C46 1_555 1_555
C43 C44 1_555 1_555
C45 C46 1_555 1_555
C57 C58 1_555 1_555

#END
