
#######################################################################
#
#                 Cambridge Crystallographic Data Centre
#                                CCDC 
#
#######################################################################
#
# If this CIF has been generated from an entry in the Cambridge 
# Structural Database, then it will include bibliographic, chemical, 
# crystal, experimental, refinement or atomic coordinate data resulting 
# from the CCDC's data processing and validation procedures.
#
#######################################################################

data_LADSOY
_chemical_formula_moiety         'C18 H20 S2'
_chemical_name_systematic        3,12-Dithia(4.4)metaparacyclophane
_symmetry_cell_setting           orthorhombic
_symmetry_space_group_name_H-M   'P n a 21'
_symmetry_Int_Tables_number      33
_space_group_name_Hall           'P 2c -2n'
loop_
_symmetry_equiv_pos_site_id
_symmetry_equiv_pos_as_xyz
1 x,y,z
2 1/2-x,1/2+y,1/2+z
3 1/2+x,1/2-y,z
4 -x,-y,1/2+z
_cell_length_a                   15.843(2)
_cell_length_b                   17.070(2)
_cell_length_c                   5.7024(4)
_cell_angle_alpha                90
_cell_angle_beta                 90
_cell_angle_gamma                90
_cell_volume                     1542.16
_cell_formula_units_Z            4
loop_
_atom_site_label
_atom_site_type_symbol
_atom_site_fract_x
_atom_site_fract_y
_atom_site_fract_z
S1 S 0.8637(1) 0.4274(1) 0.0120(5)
S2 S 0.8457(1) 0.0394(1) -0.035
C1 C 1.0157(4) 0.3964(4) -0.223(2)
C2 C 0.9374(4) 0.4493(4) -0.221(2)
C3 C 0.7881(4) 0.3628(4) -0.128(1)
C4 C 0.7568(4) 0.2988(4) 0.028(1)
C5 C 0.7156(4) 0.3160(4) 0.238(1)
C6 C 0.6824(4) 0.2566(4) 0.377(1)
C7 C 0.6936(4) 0.1797(4) 0.308(2)
C8 C 0.7340(4) 0.1599(4) 0.097(1)
C9 C 0.7678(4) 0.2213(3) -0.034(2)
C10 C 0.7404(4) 0.0757(4) 0.024(2)
C11 C 0.8560(5) 0.0466(4) -0.350(1)
C12 C 0.9447(4) 0.0679(4) -0.423(1)
C13 C 0.9662(4) 0.1526(4) -0.373(1)
C14 C 1.0072(4) 0.1743(4) -0.171(1)
C15 C 1.0230(4) 0.2533(4) -0.119(1)
C16 C 0.9972(4) 0.3102(4) -0.275(1)
C17 C 0.9600(4) 0.2887(4) -0.487(2)
C18 C 0.9429(4) 0.2101(4) -0.533(1)
loop_
_geom_bond_atom_site_label_1
_geom_bond_atom_site_label_2
_geom_bond_site_symmetry_1
_geom_bond_site_symmetry_2
S1 C2 1_555 1_555
S2 C10 1_555 1_555
C1 C2 1_555 1_555
C3 S1 1_555 1_555
C4 C3 1_555 1_555
C5 C4 1_555 1_555
C6 C5 1_555 1_555
C7 C6 1_555 1_555
C8 C7 1_555 1_555
C9 C4 1_555 1_555
C10 C8 1_555 1_555
C11 S2 1_555 1_555
C12 C11 1_555 1_555
C13 C12 1_555 1_555
C14 C13 1_555 1_555
C15 C14 1_555 1_555
C16 C1 1_555 1_555
C17 C16 1_555 1_555
C18 C13 1_555 1_555
C8 C9 1_555 1_555
C15 C16 1_555 1_555
C17 C18 1_555 1_555

#END
