
#######################################################################
#
#                 Cambridge Crystallographic Data Centre
#                                CCDC 
#
#######################################################################
#
# If this CIF has been generated from an entry in the Cambridge 
# Structural Database, then it will include bibliographic, chemical, 
# crystal, experimental, refinement or atomic coordinate data resulting 
# from the CCDC's data processing and validation procedures.
#
#######################################################################

data_LADSUE
_chemical_formula_moiety         'C19 H22 S2'
_chemical_name_systematic        19-Methyl-3,12-dithia(4,4)metaparacyclophane
_symmetry_cell_setting           triclinic
_symmetry_space_group_name_H-M   'P -1'
_symmetry_Int_Tables_number      2
_space_group_name_Hall           '-P 1'
loop_
_symmetry_equiv_pos_site_id
_symmetry_equiv_pos_as_xyz
1 x,y,z
2 -x,-y,-z
_cell_length_a                   7.817(2)
_cell_length_b                   15.035(3)
_cell_length_c                   15.622(4)
_cell_angle_alpha                78.69(2)
_cell_angle_beta                 75.77(2)
_cell_angle_gamma                75.02(3)
_cell_volume                     1701.9
_cell_formula_units_Z            4
loop_
_atom_site_label
_atom_site_type_symbol
_atom_site_fract_x
_atom_site_fract_y
_atom_site_fract_z
S1 S 0.1253(3) 0.8809(2) 1.3983(1)
S3 S 0.8169(3) 0.5597(1) 1.3981(1)
C1 C 0.327(1) 0.9595(5) 1.2464(4)
C3 C 0.2399(9) 0.9736(5) 1.3432(5)
C5 C 0.1747(9) 0.8589(6) 1.5083(5)
C7 C 0.3730(9) 0.8178(4) 1.5135(4)
C9 C 0.471(1) 0.8748(4) 1.5306(5)
C11 C 0.6471(9) 0.8423(5) 1.5399(4)
C13 C 0.7304(9) 0.7501(5) 1.5321(4)
C15 C 0.6373(9) 0.6916(4) 1.5154(4)
C17 C 0.4583(8) 0.7246(4) 1.5042(4)
C19 C 0.735(1) 0.5907(5) 1.5105(5)
C21 C 0.984(1) 0.6286(5) 1.3521(5)
C23 C 0.982(1) 0.6671(5) 1.2530(5)
C25 C 0.8145(9) 0.7453(5) 1.2443(4)
C27 C 0.8089(9) 0.8332(5) 1.2590(5)
C29 C 0.653(1) 0.9028(5) 1.2571(5)
C31 C 0.4995(9) 0.8850(4) 1.2410(4)
C33 C 0.506(1) 0.7967(5) 1.2248(4)
C35 C 0.665(1) 0.7273(5) 1.2263(4)
C37 C 0.360(1) 0.6593(5) 1.4845(6)
S2 S 0.2693(3) 0.5162(1) 0.8437(1)
S4 S 0.1957(3) 0.8410(2) 1.0623(1)
C2 C 0.619(1) 0.5357(6) 0.7762(6)
C4 C 0.442(1) 0.5389(5) 0.7482(5)
C6 C 0.0773(9) 0.6084(5) 0.8213(5)
C8 C 0.0880(8) 0.7052(4) 0.8312(4)
C10 C 0.118(1) 0.7686(5) 0.7539(4)
C12 C 0.119(1) 0.8590(5) 0.7578(5)
C14 C 0.0811(9) 0.8892(5) 0.8390(5)
C16 C 0.0537(8) 0.8268(4) 0.9181(4)
C18 C 0.0596(8) 0.7339(4) 0.9149(4)
C20 C 0.0094(9) 0.8651(5) 1.0047(5)
C22 C 0.357(1) 0.9013(5) 0.9853(5)
C24 C 0.5485(9) 0.8407(5) 0.9722(5)
C26 C 0.5710(8) 0.7604(5) 0.9220(4)
C28 C 0.571(1) 0.7765(5) 0.8312(5)
C30 C 0.5893(9) 0.7052(5) 0.7844(4)
C32 C 0.6041(9) 0.6140(5) 0.8275(5)
C34 C 0.6023(9) 0.5973(5) 0.9174(5)
C36 C 0.5858(9) 0.6702(5) 0.9644(5)
C38 C 0.039(1) 0.6662(5) 0.9978(5)
loop_
_geom_bond_atom_site_label_1
_geom_bond_atom_site_label_2
_geom_bond_site_symmetry_1
_geom_bond_site_symmetry_2
S1 C3 1_555 1_555
S2 C4 1_555 1_555
S3 C19 1_555 1_555
S4 C20 1_555 1_555
C1 C3 1_555 1_555
C2 C4 1_555 1_555
C5 S1 1_555 1_555
C6 S2 1_555 1_555
C7 C5 1_555 1_555
C8 C6 1_555 1_555
C9 C7 1_555 1_555
C10 C8 1_555 1_555
C11 C9 1_555 1_555
C12 C10 1_555 1_555
C13 C11 1_555 1_555
C14 C12 1_555 1_555
C15 C13 1_555 1_555
C16 C14 1_555 1_555
C17 C7 1_555 1_555
C18 C8 1_555 1_555
C19 C15 1_555 1_555
C20 C16 1_555 1_555
C21 S3 1_555 1_555
C22 S4 1_555 1_555
C23 C21 1_555 1_555
C24 C22 1_555 1_555
C25 C23 1_555 1_555
C26 C24 1_555 1_555
C27 C25 1_555 1_555
C28 C26 1_555 1_555
C29 C27 1_555 1_555
C30 C28 1_555 1_555
C31 C1 1_555 1_555
C32 C2 1_555 1_555
C33 C31 1_555 1_555
C34 C32 1_555 1_555
C35 C25 1_555 1_555
C36 C26 1_555 1_555
C37 C17 1_555 1_555
C38 C18 1_555 1_555
C15 C17 1_555 1_555
C16 C18 1_555 1_555
C29 C31 1_555 1_555
C30 C32 1_555 1_555
C33 C35 1_555 1_555
C34 C36 1_555 1_555

#END
