
#######################################################################
#
#                 Cambridge Crystallographic Data Centre
#                                CCDC 
#
#######################################################################
#
# If this CIF has been generated from an entry in the Cambridge 
# Structural Database, then it will include bibliographic, chemical, 
# crystal, experimental, refinement or atomic coordinate data resulting 
# from the CCDC's data processing and validation procedures.
#
#######################################################################

data_LADTAL
_chemical_formula_moiety         'C17 H19 N1 S2'
_chemical_name_systematic        19-Aza-3,12-dithia(4,4)metaparacyclophane
_symmetry_cell_setting           monoclinic
_symmetry_space_group_name_H-M   'P 21/c'
_symmetry_Int_Tables_number      14
_space_group_name_Hall           '-P 2ybc'
loop_
_symmetry_equiv_pos_site_id
_symmetry_equiv_pos_as_xyz
1 x,y,z
2 -x,1/2+y,1/2-z
3 -x,-y,-z
4 x,1/2-y,1/2+z
_cell_length_a                   16.037(8)
_cell_length_b                   7.6574(9)
_cell_length_c                   25.21(1)
_cell_angle_alpha                90
_cell_angle_beta                 90.18(3)
_cell_angle_gamma                90
_cell_volume                     3095.82
_cell_formula_units_Z            8
loop_
_atom_site_label
_atom_site_type_symbol
_atom_site_fract_x
_atom_site_fract_y
_atom_site_fract_z
S1 S 0.8796(1) -0.2970(3) 0.55452(6)
S4 S 0.5531(1) 0.0474(2) 0.74731(7)
N1 N 0.7216(3) -0.2311(6) 0.6716(2)
C1 C 0.9068(5) 0.065(1) 0.5572(3)
C3 C 0.9435(4) -0.113(1) 0.5700(3)
C5 C 0.8298(4) -0.3500(9) 0.6162(3)
C7 C 0.7417(4) -0.2912(7) 0.6238(2)
C9 C 0.6825(4) -0.3110(8) 0.5842(2)
C12 C 0.6010(4) -0.2637(9) 0.5944(2)
C14 C 0.5811(4) -0.1991(9) 0.6431(2)
C16 C 0.6425(3) -0.1854(7) 0.6812(2)
C17 C 0.6240(4) -0.1313(8) 0.7367(2)
C19 C 0.6184(4) 0.2335(9) 0.7432(2)
C21 C 0.6331(4) 0.3141(9) 0.6887(3)
C23 C 0.7027(4) 0.2370(7) 0.6559(2)
C26 C 0.6908(4) 0.1967(8) 0.6031(3)
C28 C 0.7557(4) 0.1400(9) 0.5717(2)
C30 C 0.8355(4) 0.1208(8) 0.5912(2)
C31 C 0.8467(4) 0.1591(9) 0.6444(3)
C34 C 0.7816(4) 0.2152(8) 0.6755(2)
S2 S 0.0509(1) 0.2492(2) 0.73918(7)
S3 S 0.3845(1) 0.5564(3) 0.54564(6)
N2 N 0.2198(3) 0.5184(6) 0.6604(2)
C2 C 0.1323(4) -0.0271(9) 0.6858(3)
C4 C 0.1167(4) 0.0606(9) 0.7387(2)
C6 C 0.1217(4) 0.4265(8) 0.7257(2)
C8 C 0.1412(4) 0.4700(7) 0.6696(2)
C10 C 0.0810(4) 0.4704(9) 0.6300(2)
C11 C 0.1033(4) 0.5189(9) 0.5794(3)
C13 C 0.1844(4) 0.5670(9) 0.5697(2)
C15 C 0.2411(4) 0.5664(8) 0.6110(2)
C18 C 0.3283(4) 0.6281(9) 0.6036(3)
C20 C 0.4486(4) 0.380(1) 0.5692(3)
C22 C 0.4153(4) 0.1975(9) 0.5594(2)
C24 C 0.3414(4) 0.1444(8) 0.5919(2)
C25 C 0.2629(4) 0.1343(8) 0.5696(2)
C27 C 0.1953(4) 0.0832(8) 0.6001(2)
C29 C 0.2040(4) 0.0404(8) 0.6530(2)
C32 C 0.2823(4) 0.0563(8) 0.6744(2)
C33 C 0.3505(4) 0.1067(8) 0.6448(2)
loop_
_geom_bond_atom_site_label_1
_geom_bond_atom_site_label_2
_geom_bond_site_symmetry_1
_geom_bond_site_symmetry_2
S1 C3 1_555 1_555
S2 C4 1_555 1_555
S3 C18 1_555 1_555
S4 C17 1_555 1_555
N1 C7 1_555 1_555
N2 C8 1_555 1_555
C1 C3 1_555 1_555
C2 C4 1_555 1_555
C5 S1 1_555 1_555
C6 S2 1_555 1_555
C7 C5 1_555 1_555
C8 C6 1_555 1_555
C9 C7 1_555 1_555
C10 C8 1_555 1_555
C11 C10 1_555 1_555
C12 C9 1_555 1_555
C13 C11 1_555 1_555
C14 C12 1_555 1_555
C15 N2 1_555 1_555
C16 N1 1_555 1_555
C17 C16 1_555 1_555
C18 C15 1_555 1_555
C19 S4 1_555 1_555
C20 S3 1_555 1_555
C21 C19 1_555 1_555
C22 C20 1_555 1_555
C23 C21 1_555 1_555
C24 C22 1_555 1_555
C25 C24 1_555 1_555
C26 C23 1_555 1_555
C27 C25 1_555 1_555
C28 C26 1_555 1_555
C29 C2 1_555 1_555
C30 C1 1_555 1_555
C31 C30 1_555 1_555
C32 C29 1_555 1_555
C33 C24 1_555 1_555
C34 C23 1_555 1_555
C13 C15 1_555 1_555
C14 C16 1_555 1_555
C27 C29 1_555 1_555
C28 C30 1_555 1_555
C31 C34 1_555 1_555
C32 C33 1_555 1_555

#END
