
#######################################################################
#
#                 Cambridge Crystallographic Data Centre
#                                CCDC 
#
#######################################################################
#
# If this CIF has been generated from an entry in the Cambridge 
# Structural Database, then it will include bibliographic, chemical, 
# crystal, experimental, refinement or atomic coordinate data resulting 
# from the CCDC's data processing and validation procedures.
#
#######################################################################

data_LADZIC
_chemical_formula_moiety         
'C39 H43 N3 O3 P1 1+,C27 H29 N3 O5,F6 P1 1-,3(C1 H2 Cl2)'
_chemical_name_systematic        
'(2)-(((3,5-Dimethylphenyl)-N-(4-(((4-(4-(diphenylphosphoryl)butoxy)phenyl)carbamoyl)amino)benzyl)methanaminium)-(18,21,24-trioxa-3,11,33-triazatetracyclo[24.2.2.2^13,16^.1^5,9^]tritriaconta-1(28),5(33),6,8,13,15,26,29,31-nonaene-4,10-dione)) rotaxane hexafluorophosphate dichloromethane solvate'
_symmetry_cell_setting           monoclinic
_symmetry_space_group_name_H-M   'P 21/c'
_symmetry_Int_Tables_number      14
_space_group_name_Hall           '-P 2ybc'
loop_
_symmetry_equiv_pos_site_id
_symmetry_equiv_pos_as_xyz
1 x,y,z
2 -x,1/2+y,1/2-z
3 -x,-y,-z
4 x,1/2-y,1/2+z
_cell_length_a                   18.176(2)
_cell_length_b                   18.441(3)
_cell_length_c                   22.702(3)
_cell_angle_alpha                90
_cell_angle_beta                 96.057(2)
_cell_angle_gamma                90
_cell_volume                     7566.86
_exptl_crystal_colour            yellow
_exptl_crystal_description       block
_cell_formula_units_Z            4
loop_
_atom_site_label
_atom_site_type_symbol
_atom_site_fract_x
_atom_site_fract_y
_atom_site_fract_z
C1 C 0.4722(2) 0.1734(3) 0.3739(2)
H1 H 0.4426 0.2069 0.3519
C2 C 0.5492(3) 0.1680(3) 0.3668(3)
H2 H 0.5702 0.1974 0.3398
C3 C 0.5899(3) 0.1206(4) 0.3993(3)
H3 H 0.6405 0.1185 0.3963
C4 C 0.5611(3) 0.0763(4) 0.4359(3)
H4 H 0.5907 0.0418 0.4567
C5 C 0.4877(3) 0.0811(4) 0.4433(3)
H5 H 0.4683 0.0501 0.4700
C6 C 0.4423(2) 0.1293(3) 0.41308(18)
C7 C 0.3811(3) 0.1583(3) 0.54047(19)
H6 H 0.4147 0.1921 0.5288
C8 C 0.3738(3) 0.1480(3) 0.6004(2)
H7 H 0.4032 0.1744 0.6287
C9 C 0.3251(3) 0.1007(4) 0.6174(2)
H8 H 0.3201 0.0951 0.6575
C10 C 0.2830(3) 0.0609(3) 0.5771(2)
H9 H 0.2496 0.0275 0.5897
C11 C 0.2890(2) 0.0693(3) 0.51763(18)
H10 H 0.2595 0.0417 0.4902
C12 C 0.3383(2) 0.1182(2) 0.49853(17)
C13 C 0.2992(2) 0.0634(2) 0.38108(15)
H11 H 0.3221 0.0178 0.3940
H12 H 0.2479 0.0620 0.3893
C14 C 0.3022(2) 0.0719(2) 0.31408(15)
H13 H 0.2912 0.1218 0.3027
H14 H 0.3516 0.0608 0.3044
C15 C 0.2476(3) 0.0224(2) 0.28001(17)
H15 H 0.1984 0.0335 0.2904
H16 H 0.2588 -0.0272 0.2918
C16 C 0.2476(3) 0.0286(2) 0.21344(16)
H17 H 0.2964 0.0179 0.2020
H18 H 0.2125 -0.0052 0.1935
C17 C 0.2270(2) 0.1205(2) 0.13949(16)
C18 C 0.2245(2) 0.1935(2) 0.12816(17)
H19 H 0.2237 0.2264 0.1591
C19 C 0.2232(2) 0.2180(2) 0.07050(17)
H20 H 0.2211 0.2676 0.0628
C20 C 0.2249(2) 0.1696(2) 0.02401(16)
C21 C 0.2266(2) 0.0970(2) 0.03576(17)
H21 H 0.2269 0.0640 0.0048
C22 C 0.2278(2) 0.0717(2) 0.09405(15)
H22 H 0.2291 0.0222 0.1018
C23 C 0.1620(2) 0.1911(2) -0.07324(16)
C24 C 0.1085(2) 0.2446(2) -0.16896(15)
C25 C 0.1247(2) 0.2854(2) -0.21711(15)
H23 H 0.1722 0.3037 -0.2183
C26 C 0.0707(2) 0.2993(2) -0.26361(16)
H24 H 0.0826 0.3264 -0.2959
C27 C -0.0007(2) 0.27355(19) -0.26268(15)
C28 C -0.0153(2) 0.2329(2) -0.21397(16)
H25 H -0.0630 0.2151 -0.2124
C29 C 0.0372(2) 0.2180(2) -0.16825(16)
H26 H 0.0253 0.1899 -0.1366
C30 C -0.0598(2) 0.2874(2) -0.31288(16)
H27 H -0.0375 0.2867 -0.3499
H28 H -0.0958 0.2485 -0.3143
C31 C -0.1615(2) 0.3656(2) -0.35476(16)
H29 H -0.1960 0.3262 -0.3509
H30 H -0.1428 0.3608 -0.3930
C32 C -0.2026(2) 0.4356(2) -0.35362(16)
C33 C -0.1879(2) 0.4878(2) -0.31141(18)
H31 H -0.1494 0.4809 -0.2816
C34 C -0.2296(3) 0.5513(3) -0.3119(2)
C35 C -0.2863(3) 0.5595(3) -0.3572(2)
H32 H -0.3144 0.6018 -0.3584
C36 C -0.3029(2) 0.5080(3) -0.4004(2)
C37 C -0.2606(2) 0.4460(3) -0.39804(19)
H33 H -0.2709 0.4103 -0.4267
C38 C -0.3670(3) 0.5177(4) -0.4489(3)
H34 H -0.3590 0.4878 -0.4822
H35 H -0.3698 0.5676 -0.4611
H36 H -0.4124 0.5040 -0.4339
C39 C -0.2127(3) 0.6070(3) -0.2637(2)
H37 H -0.1655 0.6288 -0.2675
H38 H -0.2116 0.5839 -0.2257
H39 H -0.2504 0.6437 -0.2671
N1 N 0.22380(17) 0.19659(18) -0.03424(13)
H40 H 0.2628 0.2168 -0.0452
N2 N 0.16549(16) 0.23264(16) -0.12396(12)
H41 H 0.2072 0.2531 -0.1280
N3 N -0.09868(16) 0.35798(16) -0.30767(12)
H42 H -0.0665 0.3946 -0.3105
H43 H -0.1157 0.3608 -0.2719
O1 O 0.31447(14) 0.20790(15) 0.40243(11)
O2 O 0.10957(15) 0.15289(17) -0.06591(12)
O3 O 0.22717(15) 0.10143(14) 0.19805(11)
P1 P 0.34528(6) 0.13575(6) 0.42201(5)
C40 C 1.0184(3) 0.5067(2) 0.62711(18)
H44 H 1.0703 0.5155 0.6231
H45 H 0.9926 0.5528 0.6236
C41 C 0.9867(2) 0.4564(2) 0.57929(18)
C42 C 0.9235(2) 0.4747(2) 0.54412(16)
H46 H 0.9006 0.5190 0.5494
C43 C 0.8941(2) 0.4279(2) 0.50144(16)
H47 H 0.8514 0.4411 0.4778
C44 C 0.9261(2) 0.3613(2) 0.49232(16)
C45 C 0.9907(2) 0.3442(2) 0.52710(19)
H48 H 1.0139 0.3002 0.5216
C46 C 1.0212(2) 0.3915(2) 0.56979(19)
H49 H 1.0652 0.3796 0.5923
C47 C 0.8933(2) 0.3095(2) 0.44514(18)
H50 H 0.9063 0.3254 0.4069
H51 H 0.9142 0.2616 0.4528
C48 C 0.7680(3) 0.3434(2) 0.40615(18)
C49 C 0.6879(3) 0.3401(2) 0.4153(2)
C50 C 0.6365(3) 0.3725(3) 0.3755(2)
H52 H 0.6505 0.3954 0.3419
C51 C 0.5645(4) 0.3702(3) 0.3865(3)
H53 H 0.5286 0.3902 0.3590
C52 C 0.5436(3) 0.3396(3) 0.4365(3)
H54 H 0.4947 0.3403 0.4449
C53 C 0.5993(3) 0.3069(3) 0.4748(2)
N4 N 0.6708(2) 0.30692(19) 0.46455(15)
C54 C 0.5801(3) 0.2699(3) 0.5301(2)
C55 C 0.6267(3) 0.1979(3) 0.6158(2)
H55 H 0.6482 0.1499 0.6140
H56 H 0.5745 0.1920 0.6201
C56 C 0.6638(2) 0.2377(3) 0.6701(2)
C57 C 0.7167(3) 0.2041(3) 0.7079(2)
H57 H 0.7298 0.1565 0.7007
C58 C 0.7511(3) 0.2403(3) 0.7571(2)
H58 H 0.7861 0.2162 0.7829
C59 C 0.7339(2) 0.3108(3) 0.7678(2)
C60 C 0.6805(3) 0.3445(3) 0.7297(2)
H59 H 0.6675 0.3922 0.7366
C61 C 0.6466(3) 0.3086(3) 0.6818(2)
H60 H 0.6111 0.3325 0.6565
C62 C 0.7708(3) 0.3509(3) 0.8192(2)
H61 H 0.7458 0.3967 0.8235
H62 H 0.7680 0.3229 0.8550
C63 C 0.8827(3) 0.4060(3) 0.85769(19)
H63 H 0.8573 0.4520 0.8601
H64 H 0.8807 0.3807 0.8950
C64 C 0.9601(3) 0.4192(3) 0.84822(19)
H65 H 0.9849 0.4458 0.8815
H66 H 0.9857 0.3735 0.8447
C65 C 1.0324(3) 0.4857(3) 0.78788(19)
H67 H 1.0666 0.4452 0.7881
H68 H 1.0495 0.5178 0.8203
C66 C 1.0306(3) 0.5251(2) 0.73105(19)
H69 H 0.9946 0.5640 0.7300
H70 H 1.0787 0.5461 0.7271
N5 N 0.6343(2) 0.2353(2) 0.56085(17)
H71 H 0.6769 0.2348 0.5475
N6 N 0.81325(19) 0.30515(18) 0.44323(14)
H72 H 0.7946 0.2763 0.4674
O4 O 0.7879(2) 0.38078(17) 0.36591(13)
O5 O 0.51735(19) 0.2741(2) 0.54428(19)
O6 O 0.84616(16) 0.36371(17) 0.81078(12)
O7 O 0.96128(17) 0.46001(16) 0.79548(12)
O8 O 1.01096(15) 0.47552(14) 0.68313(11)
C67 C 0.5103(3) 0.5093(4) 0.7793(3)
H73 H 0.5314 0.4959 0.8188
H74 H 0.4842 0.4674 0.7617
Cl1 Cl 0.44957(13) 0.57752(14) 0.78424(11)
Cl2 Cl 0.58026(11) 0.53229(14) 0.73769(9)
C68 C 0.5799(4) 0.6454(4) 0.3729(3)
H75 H 0.6319 0.6479 0.3879
H76 H 0.5528 0.6782 0.3961
Cl3 Cl 0.56891(15) 0.6720(2) 0.29914(12)
Cl4 Cl 0.54970(19) 0.56230(17) 0.37999(18)
C69 C 0.0682(3) 0.4177(4) 0.0288(2)
H77 H 0.0170 0.4331 0.0219
H78 H 0.1002 0.4593 0.0255
Cl5 Cl 0.08736(13) 0.34918(13) -0.01979(10)
Cl6 Cl 0.08876(12) 0.36980(15) 0.10591(11)
F1 F 0.19986(18) 0.79246(16) 0.43725(16)
F2 F 0.1296(4) 0.8655(2) 0.3875(2)
F3 F 0.1408(3) 0.9489(2) 0.4492(3)
F4 F 0.1075(2) 0.8394(3) 0.4754(3)
F5 F 0.2399(2) 0.9042(2) 0.4274(2)
F6 F 0.2099(4) 0.8716(3) 0.50645(19)
P2 P 0.17025(9) 0.87199(8) 0.44526(7)
loop_
_geom_bond_atom_site_label_1
_geom_bond_atom_site_label_2
_geom_bond_site_symmetry_1
_geom_bond_site_symmetry_2
C1 H1 1_555 1_555
C2 C1 1_555 1_555
H2 C2 1_555 1_555
C3 C2 1_555 1_555
H3 C3 1_555 1_555
C4 C3 1_555 1_555
H4 C4 1_555 1_555
C5 C4 1_555 1_555
H5 C5 1_555 1_555
C6 C1 1_555 1_555
C7 H6 1_555 1_555
C8 C7 1_555 1_555
H7 C8 1_555 1_555
C9 C8 1_555 1_555
H8 C9 1_555 1_555
C10 C9 1_555 1_555
H9 C10 1_555 1_555
C11 C10 1_555 1_555
H10 C11 1_555 1_555
C12 C7 1_555 1_555
C13 H11 1_555 1_555
H12 C13 1_555 1_555
C14 C13 1_555 1_555
H13 C14 1_555 1_555
H14 C14 1_555 1_555
C15 C14 1_555 1_555
H15 C15 1_555 1_555
H16 C15 1_555 1_555
C16 C15 1_555 1_555
H17 C16 1_555 1_555
H18 C16 1_555 1_555
C17 C18 1_555 1_555
C18 H19 1_555 1_555
C19 C18 1_555 1_555
H20 C19 1_555 1_555
C20 C19 1_555 1_555
C21 C20 1_555 1_555
H21 C21 1_555 1_555
C22 C17 1_555 1_555
H22 C22 1_555 1_555
C23 N1 1_555 1_555
C24 C25 1_555 1_555
C25 H23 1_555 1_555
C26 C25 1_555 1_555
H24 C26 1_555 1_555
C27 C26 1_555 1_555
C28 C27 1_555 1_555
H25 C28 1_555 1_555
C29 C24 1_555 1_555
H26 C29 1_555 1_555
C30 C27 1_555 1_555
H27 C30 1_555 1_555
H28 C30 1_555 1_555
C31 H29 1_555 1_555
H30 C31 1_555 1_555
C32 C31 1_555 1_555
C33 C32 1_555 1_555
H31 C33 1_555 1_555
C34 C33 1_555 1_555
C35 C34 1_555 1_555
H32 C35 1_555 1_555
C36 C35 1_555 1_555
C37 C32 1_555 1_555
H33 C37 1_555 1_555
C38 C36 1_555 1_555
H34 C38 1_555 1_555
H35 C38 1_555 1_555
H36 C38 1_555 1_555
C39 C34 1_555 1_555
H37 C39 1_555 1_555
H38 C39 1_555 1_555
H39 C39 1_555 1_555
N1 C20 1_555 1_555
H40 N1 1_555 1_555
N2 C23 1_555 1_555
H41 N2 1_555 1_555
N3 C30 1_555 1_555
H42 N3 1_555 1_555
H43 N3 1_555 1_555
O1 P1 1_555 1_555
O2 C23 1_555 1_555
O3 C16 1_555 1_555
P1 C6 1_555 1_555
C40 H44 1_555 1_555
H45 C40 1_555 1_555
C41 C40 1_555 1_555
C42 C41 1_555 1_555
H46 C42 1_555 1_555
C43 C42 1_555 1_555
H47 C43 1_555 1_555
C44 C43 1_555 1_555
C45 C44 1_555 1_555
H48 C45 1_555 1_555
C46 C41 1_555 1_555
H49 C46 1_555 1_555
C47 C44 1_555 1_555
H50 C47 1_555 1_555
H51 C47 1_555 1_555
C48 C49 1_555 1_555
C49 C50 1_555 1_555
C50 H52 1_555 1_555
C51 C50 1_555 1_555
H53 C51 1_555 1_555
C52 C51 1_555 1_555
H54 C52 1_555 1_555
C53 C52 1_555 1_555
N4 C49 1_555 1_555
C54 C53 1_555 1_555
C55 H55 1_555 1_555
H56 C55 1_555 1_555
C56 C55 1_555 1_555
C57 C56 1_555 1_555
H57 C57 1_555 1_555
C58 C57 1_555 1_555
H58 C58 1_555 1_555
C59 C58 1_555 1_555
C60 C59 1_555 1_555
H59 C60 1_555 1_555
C61 C56 1_555 1_555
H60 C61 1_555 1_555
C62 C59 1_555 1_555
H61 C62 1_555 1_555
H62 C62 1_555 1_555
C63 H63 1_555 1_555
H64 C63 1_555 1_555
C64 C63 1_555 1_555
H65 C64 1_555 1_555
H66 C64 1_555 1_555
C65 H67 1_555 1_555
H68 C65 1_555 1_555
C66 C65 1_555 1_555
H69 C66 1_555 1_555
H70 C66 1_555 1_555
N5 C54 1_555 1_555
H71 N5 1_555 1_555
N6 C47 1_555 1_555
H72 N6 1_555 1_555
O4 C48 1_555 1_555
O5 C54 1_555 1_555
O6 C62 1_555 1_555
O7 C64 1_555 1_555
O8 C40 1_555 1_555
C67 H73 1_555 1_555
H74 C67 1_555 1_555
Cl1 C67 1_555 1_555
Cl2 C67 1_555 1_555
C68 H75 1_555 1_555
H76 C68 1_555 1_555
Cl3 C68 1_555 1_555
Cl4 C68 1_555 1_555
C69 H77 1_555 1_555
H78 C69 1_555 1_555
Cl5 C69 1_555 1_555
Cl6 C69 1_555 1_555
F1 P2 1_555 1_555
F2 P2 1_555 1_555
F3 P2 1_555 1_555
F4 P2 1_555 1_555
F5 P2 1_555 1_555
F6 P2 1_555 1_555
C5 C6 1_555 1_555
C11 C12 1_555 1_555
C12 P1 1_555 1_555
C13 P1 1_555 1_555
C17 O3 1_555 1_555
C21 C22 1_555 1_555
C24 N2 1_555 1_555
C28 C29 1_555 1_555
C31 N3 1_555 1_555
C36 C37 1_555 1_555
C45 C46 1_555 1_555
C48 N6 1_555 1_555
C53 N4 1_555 1_555
C55 N5 1_555 1_555
C60 C61 1_555 1_555
C63 O6 1_555 1_555
C65 O7 1_555 1_555
C66 O8 1_555 1_555

#END
