
#######################################################################
#
#                 Cambridge Crystallographic Data Centre
#                                CCDC 
#
#######################################################################
#
# If this CIF has been generated from an entry in the Cambridge 
# Structural Database, then it will include bibliographic, chemical, 
# crystal, experimental, refinement or atomic coordinate data resulting 
# from the CCDC's data processing and validation procedures.
#
#######################################################################

data_LAFJOT
_chemical_formula_moiety         'C26 H29 N2 O1 P1 S1'
_chemical_name_systematic        
2-(bis(2-Phenylethyl)thiophosphorylhydroxymethyl)-1-ethylbenzimidazole
_symmetry_cell_setting           triclinic
_symmetry_space_group_name_H-M   'P -1'
_symmetry_Int_Tables_number      2
_space_group_name_Hall           '-P 1'
loop_
_symmetry_equiv_pos_site_id
_symmetry_equiv_pos_as_xyz
1 x,y,z
2 -x,-y,-z
_cell_length_a                   10.325(2)
_cell_length_b                   11.1426(4)
_cell_length_c                   12.113(3)
_cell_angle_alpha                66.00(6)
_cell_angle_beta                 74.33(6)
_cell_angle_gamma                86.38(7)
_cell_volume                     1224.04
_exptl_crystal_colour            colorless
_exptl_crystal_description       needle
_cell_formula_units_Z            2
_exptl_crystal_recrystallization_method acetone
loop_
_atom_site_label
_atom_site_type_symbol
_atom_site_fract_x
_atom_site_fract_y
_atom_site_fract_z
P1 P 0.0094(1) -0.0731(1) 0.3135(1)
S1 S -0.0784(1) -0.2181(1) 0.4708(1)
O1 O 0.1661(1) 0.0207(1) 0.0792(1)
H1 H 0.108(2) 0.019(2) 0.034(2)
N1 N -0.0519(2) -0.1773(1) 0.0854(1)
N2 N 0.0165(2) -0.3518(1) 0.2270(1)
C1 C 0.0203(2) -0.2181(1) 0.1664(1)
C2 C -0.0649(2) -0.4008(2) 0.1793(2)
C3 C -0.1025(3) -0.5291(2) 0.2043(2)
C4 C -0.1858(3) -0.5429(2) 0.1379(3)
C5 C -0.2308(3) -0.4348(2) 0.0524(2)
C6 C -0.1943(2) -0.3077(2) 0.0274(2)
C7 C -0.1079(2) -0.2912(2) 0.0920(2)
C8 C 0.1028(2) -0.1290(2) 0.1890(1)
C9 C -0.1043(2) 0.0507(2) 0.2486(2)
C10 C -0.2409(2) -0.0022(2) 0.2591(3)
C11 C -0.3403(2) 0.1050(2) 0.2318(2)
C12 C -0.3561(2) 0.1697(2) 0.1133(2)
C13 C -0.4486(3) 0.2655(3) 0.0887(2)
C14 C -0.5242(3) 0.2984(3) 0.1822(3)
C15 C -0.5088(3) 0.2357(3) 0.3012(3)
C16 C -0.4173(2) 0.1392(3) 0.3263(2)
C17 C 0.1387(2) 0.0215(2) 0.3250(2)
C18 C 0.2268(3) -0.0582(3) 0.4099(2)
C19 C 0.3216(2) -0.1483(3) 0.3650(2)
C20 C 0.4120(2) -0.1015(3) 0.2483(3)
C21 C 0.5016(3) -0.1841(4) 0.2104(4)
C22 C 0.5009(4) -0.3126(5) 0.2872(5)
C23 C 0.4092(5) -0.3630(4) 0.4027(5)
C24 C 0.3206(3) -0.2791(4) 0.4413(3)
C25 C 0.0886(2) -0.4329(2) 0.3172(2)
C26 C 0.2131(3) -0.4836(3) 0.2561(3)
loop_
_geom_bond_atom_site_label_1
_geom_bond_atom_site_label_2
_geom_bond_site_symmetry_1
_geom_bond_site_symmetry_2
P1 S1 1_555 1_555
O1 H1 1_555 1_555
N1 C1 1_555 1_555
N2 C1 1_555 1_555
C1 C8 1_555 1_555
C2 N2 1_555 1_555
C3 C2 1_555 1_555
C4 C3 1_555 1_555
C5 C4 1_555 1_555
C6 C5 1_555 1_555
C7 N1 1_555 1_555
C8 P1 1_555 1_555
C9 P1 1_555 1_555
C10 C9 1_555 1_555
C11 C10 1_555 1_555
C12 C11 1_555 1_555
C13 C12 1_555 1_555
C14 C13 1_555 1_555
C15 C14 1_555 1_555
C16 C11 1_555 1_555
C17 P1 1_555 1_555
C18 C17 1_555 1_555
C19 C18 1_555 1_555
C20 C19 1_555 1_555
C21 C20 1_555 1_555
C22 C21 1_555 1_555
C23 C22 1_555 1_555
C24 C19 1_555 1_555
C25 N2 1_555 1_555
C26 C25 1_555 1_555
O1 C8 1_555 1_555
C2 C7 1_555 1_555
C6 C7 1_555 1_555
C15 C16 1_555 1_555
C23 C24 1_555 1_555

#END
