
#######################################################################
#
#                 Cambridge Crystallographic Data Centre
#                                CCDC 
#
#######################################################################
#
# If this CIF has been generated from an entry in the Cambridge 
# Structural Database, then it will include bibliographic, chemical, 
# crystal, experimental, refinement or atomic coordinate data resulting 
# from the CCDC's data processing and validation procedures.
#
#######################################################################

data_LAFQIT
_chemical_formula_moiety         'C40 H30 N4 S4'
_chemical_name_systematic        
5,10,15,20-tetrakis(5'-Methylthien-2'-yl)porphyrin
_symmetry_cell_setting           triclinic
_symmetry_space_group_name_H-M   'P -1'
_symmetry_Int_Tables_number      2
_space_group_name_Hall           '-P 1'
loop_
_symmetry_equiv_pos_site_id
_symmetry_equiv_pos_as_xyz
1 x,y,z
2 -x,-y,-z
_cell_length_a                   6.5126(7)
_cell_length_b                   10.4988(12)
_cell_length_c                   12.6350(14)
_cell_angle_alpha                87.818(2)
_cell_angle_beta                 79.141(2)
_cell_angle_gamma                86.737(2)
_cell_volume                     846.737
_exptl_crystal_colour            purple
_exptl_crystal_description       plate
_cell_formula_units_Z            1
_exptl_crystal_recrystallization_method dichloromethane
loop_
_atom_site_label
_atom_site_type_symbol
_atom_site_fract_x
_atom_site_fract_y
_atom_site_fract_z
N1 N 0.7583(2) 0.50403(16) 0.63731(13)
H1 H 0.8444 0.4886 0.5761
C1 C 0.7774(3) 0.44982(19) 0.73536(15)
C2 C 0.6036(3) 0.4986(2) 0.81316(16)
H2 H 0.5753 0.4765 0.8879
C3 C 0.4867(3) 0.5819(2) 0.76084(16)
H3 H 0.3628 0.6288 0.7926
C4 C 0.5845(3) 0.58606(19) 0.64891(15)
C5 C 0.5211(3) 0.66479(19) 0.56754(16)
N2 N 0.8250(2) 0.62252(16) 0.42074(13)
C6 C 0.6311(3) 0.67603(18) 0.46057(15)
C7 C 0.5492(3) 0.7489(2) 0.37663(16)
H4 H 0.4168 0.7939 0.3836
C8 C 0.6977(3) 0.7406(2) 0.28668(16)
H5 H 0.6904 0.7791 0.2181
C9 C 0.8705(3) 0.66167(19) 0.31456(15)
C10 C 0.9433(3) 0.3698(2) 0.75829(15)
S1 S 0.30761(13) 0.90513(8) 0.58753(9)
C11 C 0.3254(3) 0.7435(2) 0.59842(17)
C12 C 0.1259(6) 0.6955(4) 0.6393(4)
H6 H 0.0995 0.6074 0.6498
C13 C -0.0306(4) 0.7971(3) 0.6627(2)
H7 H -0.1730 0.7832 0.6926
C14 C 0.0436(4) 0.9155(3) 0.6383(2)
C15 C -0.0754(5) 1.0421(3) 0.6520(3)
H8 H -0.2232 1.0287 0.6814
H9 H -0.0634 1.0871 0.5818
H10 H -0.0175 1.0932 0.7016
S2 S 0.73553(13) 0.20046(7) 0.91042(5)
C16 C 0.9200(3) 0.3131(2) 0.86871(16)
C17 C 1.0315(4) 0.3297(3) 0.94773(18)
H11 H 1.1400 0.3879 0.9413
C18 C 0.9684(5) 0.2507(3) 1.04099(19)
H12 H 1.0304 0.2518 1.1032
C19 C 0.8138(6) 0.1748(3) 1.0332(2)
C20 C 0.7092(8) 0.0766(4) 1.1120(3)
H13 H 0.7694 0.0745 1.1775
H14 H 0.5587 0.0988 1.1302
H15 H 0.7313 -0.0076 1.0795
C10A C 1.0567(3) 0.6302(2) 0.24171(15)
C1A C 1.2226(3) 0.55018(19) 0.26464(15)
N1A N 1.2417(2) 0.49597(16) 0.36269(13)
H1A H 1.1556 0.5114 0.4239
C4A C 1.4155(3) 0.41394(19) 0.35109(15)
C3A C 1.5133(3) 0.4181(2) 0.23916(16)
C2A C 1.3964(3) 0.5014(2) 0.18684(16)
H2A H 1.4247 0.5235 0.1121
H3A H 1.6372 0.3712 0.2074
C5A C 1.4789(3) 0.33521(19) 0.43246(16)
C6A C 1.3689(3) 0.32397(18) 0.53943(15)
N2A N 1.1750(2) 0.37748(16) 0.57926(13)
C9A C 1.1295(3) 0.33833(19) 0.68544(15)
C8A C 1.3023(3) 0.2594(2) 0.71332(16)
C7A C 1.4508(3) 0.2511(2) 0.62337(16)
H4A H 1.5832 0.2061 0.6164
H5A H 1.3096 0.2209 0.7819
C11A C 1.6746(3) 0.2565(2) 0.40158(17)
S1A S 1.69239(13) 0.09487(8) 0.41247(9)
C14A C 1.9564(4) 0.0845(3) 0.3617(2)
C13A C 2.0306(4) 0.2029(3) 0.3373(2)
C12A C 1.8741(6) 0.3045(4) 0.3607(4)
H6A H 1.9005 0.3926 0.3502
H7A H 2.1730 0.2168 0.3074
C15A C 2.0754(5) -0.0421(3) 0.3480(3)
H8A H 2.2232 -0.0287 0.3186
H9A H 2.0634 -0.0871 0.4182
H10A H 2.0175 -0.0932 0.2984
C16A C 1.0800(3) 0.6869(2) 0.13129(16)
S2A S 1.26447(13) 0.79954(7) 0.08958(5)
C19A C 1.1862(6) 0.8252(3) -0.0332(2)
C18A C 1.0316(5) 0.7493(3) -0.04099(19)
C17A C 0.9685(4) 0.6703(3) 0.05227(18)
H11A H 0.8600 0.6121 0.0587
H12A H 0.9696 0.7482 -0.1032
C20A C 1.2908(8) 0.9234(4) -0.1120(3)
H13A H 1.2306 0.9255 -0.1775
H14A H 1.4413 0.9012 -0.1302
H15A H 1.2687 1.0076 -0.0795
S3? S 0.1022(8) 0.7179(4) 0.6460(4)
C21? C 0.3254(3) 0.7435(2) 0.59842(17)
C22? C 0.3540(18) 0.8863(11) 0.5952(13)
H16? H 0.4836 0.9259 0.5741
C23? C 0.1568(14) 0.9512(8) 0.6288(7)
H17? H 0.1375 1.0416 0.6307
C24? C -0.0010(15) 0.8711(10) 0.6577(8)
C25? C -0.2244(15) 0.9023(9) 0.7002(8)
H18? H -0.2989 0.8232 0.7158
H19? H -0.2847 0.9542 0.6464
H20? H -0.2380 0.9501 0.7665
loop_
_geom_bond_atom_site_label_1
_geom_bond_atom_site_label_2
_geom_bond_site_symmetry_1
_geom_bond_site_symmetry_2
N1 H1 1_555 1_555
C1 N1 1_555 1_555
C2 C1 1_555 1_555
H2 C2 1_555 1_555
C3 C2 1_555 1_555
H3 C3 1_555 1_555
C4 N1 1_555 1_555
C5 C4 1_555 1_555
N2 C6 1_555 1_555
C6 C5 1_555 1_555
C7 C6 1_555 1_555
H4 C7 1_555 1_555
C8 C7 1_555 1_555
H5 C8 1_555 1_555
C9 N2 1_555 1_555
C10 C1 1_555 1_555
S1 C11 1_555 1_555
C11 C5 1_555 1_555
C12 C11 1_555 1_555
H6 C12 1_555 1_555
C13 C12 1_555 1_555
H7 C13 1_555 1_555
C14 S1 1_555 1_555
C15 C14 1_555 1_555
H8 C15 1_555 1_555
H9 C15 1_555 1_555
H10 C15 1_555 1_555
S2 C16 1_555 1_555
C16 C10 1_555 1_555
C17 C16 1_555 1_555
H11 C17 1_555 1_555
C18 C17 1_555 1_555
H12 C18 1_555 1_555
C19 S2 1_555 1_555
C20 C19 1_555 1_555
H13 C20 1_555 1_555
H14 C20 1_555 1_555
H15 C20 1_555 1_555
C10A C9 1_555 1_555
C1A C10A 1_555 1_555
N1A C1A 1_555 1_555
H1A N1A 1_555 1_555
C4A N1A 1_555 1_555
C3A C4A 1_555 1_555
C2A C1A 1_555 1_555
H2A C2A 1_555 1_555
H3A C3A 1_555 1_555
C5A C4A 1_555 1_555
C6A C5A 1_555 1_555
N2A C6A 1_555 1_555
C9A C10 1_555 1_555
C8A C9A 1_555 1_555
C7A C6A 1_555 1_555
H4A C7A 1_555 1_555
H5A C8A 1_555 1_555
C11A C5A 1_555 1_555
S1A C11A 1_555 1_555
C14A S1A 1_555 1_555
C13A C14A 1_555 1_555
C12A C11A 1_555 1_555
H6A C12A 1_555 1_555
H7A C13A 1_555 1_555
C15A C14A 1_555 1_555
H8A C15A 1_555 1_555
H9A C15A 1_555 1_555
H10A C15A 1_555 1_555
C16A C10A 1_555 1_555
S2A C16A 1_555 1_555
C19A S2A 1_555 1_555
C18A C19A 1_555 1_555
C17A C16A 1_555 1_555
H11A C17A 1_555 1_555
H12A C18A 1_555 1_555
C20A C19A 1_555 1_555
H13A C20A 1_555 1_555
H14A C20A 1_555 1_555
H15A C20A 1_555 1_555
C3 C4 1_555 1_555
C8 C9 1_555 1_555
C13 C14 1_555 1_555
C18 C19 1_555 1_555
C3A C2A 1_555 1_555
N2A C9A 1_555 1_555
C8A C7A 1_555 1_555
C13A C12A 1_555 1_555
C18A C17A 1_555 1_555

#END
