
#######################################################################
#
#                 Cambridge Crystallographic Data Centre
#                                CCDC 
#
#######################################################################
#
# If this CIF has been generated from an entry in the Cambridge 
# Structural Database, then it will include bibliographic, chemical, 
# crystal, experimental, refinement or atomic coordinate data resulting 
# from the CCDC's data processing and validation procedures.
#
#######################################################################

data_LAFTUK
_chemical_formula_moiety         'C23 H17 F1 O4'
_chemical_name_systematic        
3-fluoro-11,12,13-trimethoxybenzo[b]phenanthro[9,10-d]furan
_symmetry_cell_setting           monoclinic
_symmetry_space_group_name_H-M   'P 21/n'
_symmetry_Int_Tables_number      14
_space_group_name_Hall           '-P 2yn'
loop_
_symmetry_equiv_pos_site_id
_symmetry_equiv_pos_as_xyz
1 x,y,z
2 1/2-x,1/2+y,1/2-z
3 -x,-y,-z
4 1/2+x,1/2-y,1/2+z
_cell_length_a                   4.3936(2)
_cell_length_b                   25.2310(12)
_cell_length_c                   15.8224(7)
_cell_angle_alpha                90
_cell_angle_beta                 95.871(2)
_cell_angle_gamma                90
_cell_volume                     1744.79
_exptl_crystal_colour            colorless
_cell_formula_units_Z            4
loop_
_atom_site_label
_atom_site_type_symbol
_atom_site_fract_x
_atom_site_fract_y
_atom_site_fract_z
F1 F 0.9709(4) 0.05787(6) 0.41874(10)
O1 O -0.0068(3) 0.37499(6) 0.51763(9)
O2 O 0.0700(3) 0.20611(6) 0.73368(9)
O3 O 0.2866(3) 0.28357(7) 0.47605(9)
O4 O -0.2061(4) 0.38800(6) 0.66916(9)
C1 C 0.2396(6) 0.41126(13) 0.51860(19)
H1 H 0.2549 0.4312 0.5706
H2 H 0.2044 0.4351 0.4713
H3 H 0.4266 0.3922 0.5146
C2 C 0.0304(5) 0.33370(9) 0.57510(13)
C3 C 0.1664(4) 0.28692(9) 0.55275(13)
C4 C 0.1854(4) 0.24403(8) 0.60944(12)
C5 C 0.3019(4) 0.18963(9) 0.61340(12)
C6 C 0.2215(5) 0.16970(9) 0.68852(13)
C7 C 0.2766(5) 0.11754(9) 0.71971(13)
C8 C 0.1787(5) 0.09957(10) 0.79655(15)
H4 H 0.0725 0.1223 0.8293
C9 C 0.2392(6) 0.04846(10) 0.82353(16)
H5 H 0.1729 0.0365 0.8741
C10 C 0.3999(6) 0.01499(10) 0.77455(17)
H6 H 0.4432 -0.0194 0.7932
C11 C 0.8035(5) 0.09025(10) 0.46627(15)
C12 C 0.7093(5) 0.07065(10) 0.53889(15)
H7 H 0.7566 0.0360 0.5553
C13 C 0.5390(5) 0.10301(9) 0.58975(13)
C14 C 0.4727(4) 0.15591(9) 0.56156(12)
C15 C 0.5791(5) 0.17317(10) 0.48571(13)
H8 H 0.5362 0.2076 0.4672
C16 C 0.7439(5) 0.14085(10) 0.43827(15)
H9 H 0.8138 0.1529 0.3882
C17 C 0.0519(5) 0.25126(8) 0.68480(13)
C18 C 0.0693(6) 0.28549(12) 0.40218(14)
H10 H -0.0064 0.2504 0.3890
H11 H 0.1665 0.2991 0.3551
H12 H -0.0978 0.3082 0.4130
C19 C -0.0904(5) 0.33925(9) 0.65356(13)
C20 C -0.3512(6) 0.39423(11) 0.74478(15)
H13 H -0.5150 0.3691 0.7452
H14 H -0.4317 0.4295 0.7471
H15 H -0.2049 0.3883 0.7932
C21 C -0.0828(5) 0.29719(9) 0.70995(13)
H16 H -0.1639 0.2998 0.7618
C22 C 0.4384(5) 0.08355(9) 0.66902(14)
C23 C 0.4962(6) 0.03170(10) 0.69915(16)
H17 H 0.6017 0.0083 0.6673
loop_
_geom_bond_atom_site_label_1
_geom_bond_atom_site_label_2
_geom_bond_site_symmetry_1
_geom_bond_site_symmetry_2
F1 C11 1_555 1_555
O1 C1 1_555 1_555
O2 C6 1_555 1_555
O3 C3 1_555 1_555
O4 C19 1_555 1_555
C1 H1 1_555 1_555
H2 C1 1_555 1_555
H3 C1 1_555 1_555
C2 O1 1_555 1_555
C3 C2 1_555 1_555
C4 C3 1_555 1_555
C5 C4 1_555 1_555
C6 C5 1_555 1_555
C7 C6 1_555 1_555
C8 C7 1_555 1_555
H4 C8 1_555 1_555
C9 C8 1_555 1_555
H5 C9 1_555 1_555
C10 C9 1_555 1_555
H6 C10 1_555 1_555
C11 C12 1_555 1_555
C12 H7 1_555 1_555
C13 C12 1_555 1_555
C14 C5 1_555 1_555
C15 C14 1_555 1_555
H8 C15 1_555 1_555
C16 C11 1_555 1_555
H9 C16 1_555 1_555
C17 O2 1_555 1_555
C18 O3 1_555 1_555
H10 C18 1_555 1_555
H11 C18 1_555 1_555
H12 C18 1_555 1_555
C19 C2 1_555 1_555
C20 O4 1_555 1_555
H13 C20 1_555 1_555
H14 C20 1_555 1_555
H15 C20 1_555 1_555
C21 C17 1_555 1_555
H16 C21 1_555 1_555
C22 C7 1_555 1_555
C23 C10 1_555 1_555
H17 C23 1_555 1_555
C4 C17 1_555 1_555
C13 C14 1_555 1_555
C13 C22 1_555 1_555
C15 C16 1_555 1_555
C19 C21 1_555 1_555
C22 C23 1_555 1_555

#END
