
#######################################################################
#
#                 Cambridge Crystallographic Data Centre
#                                CCDC 
#
#######################################################################
#
# If this CIF has been generated from an entry in the Cambridge 
# Structural Database, then it will include bibliographic, chemical, 
# crystal, experimental, refinement or atomic coordinate data resulting 
# from the CCDC's data processing and validation procedures.
#
#######################################################################

data_LAFTOE
_chemical_formula_moiety         'C21 H14 O3'
_chemical_name_systematic        6,7-diphenylfuro[2,3-f][1,3]benzodioxole
_symmetry_cell_setting           monoclinic
_symmetry_space_group_name_H-M   'P 21/c'
_symmetry_Int_Tables_number      14
_space_group_name_Hall           '-P 2ybc'
loop_
_symmetry_equiv_pos_site_id
_symmetry_equiv_pos_as_xyz
1 x,y,z
2 -x,1/2+y,1/2-z
3 -x,-y,-z
4 x,1/2-y,1/2+z
_cell_length_a                   11.1460(14)
_cell_length_b                   6.0896(6)
_cell_length_c                   22.939(3)
_cell_angle_alpha                90
_cell_angle_beta                 101.950(4)
_cell_angle_gamma                90
_cell_volume                     1523.24
_exptl_crystal_colour            colorless
_cell_formula_units_Z            4
loop_
_atom_site_label
_atom_site_type_symbol
_atom_site_fract_x
_atom_site_fract_y
_atom_site_fract_z
O1 O 0.37419(11) 1.1307(2) 0.91428(6)
O2 O 0.57808(10) 0.53748(17) 0.83080(5)
O3 O 0.56078(11) 1.2621(2) 0.96555(6)
C1 C 0.43341(17) 1.3050(3) 0.95062(9)
H1 H 0.4185 1.4431 0.9293
H2 H 0.4009 1.3162 0.9866
C2 C 0.46727(15) 1.0001(3) 0.90291(8)
C3 C 0.45485(15) 0.8179(3) 0.86739(8)
H3 H 0.3795 0.7656 0.8468
C4 C 0.56594(15) 0.7186(3) 0.86518(7)
C5 C 0.70321(15) 0.5010(3) 0.83783(7)
C6 C 0.73629(15) 0.3266(3) 0.79992(7)
C7 C 0.66260(16) 0.1427(3) 0.78483(7)
H4 H 0.5901 0.1296 0.7986
C8 C 0.69585(18) -0.0203(3) 0.74962(8)
H5 H 0.6468 -0.1443 0.7406
C9 C 0.8013(2) -0.0007(3) 0.72769(9)
H6 H 0.8240 -0.1115 0.7043
C10 C 0.76852(15) 0.6482(3) 0.87638(7)
C11 C 0.67993(14) 0.7920(3) 0.89457(7)
C12 C 0.68863(15) 0.9795(3) 0.93103(7)
H7 H 0.7634 1.0328 0.9520
C13 C 0.57966(16) 1.0777(3) 0.93344(7)
C14 C 0.90287(15) 0.6672(3) 0.89532(7)
C15 C 0.96020(17) 0.8635(3) 0.88817(9)
H8 H 0.9133 0.9827 0.8714
C16 C 1.08547(19) 0.8861(4) 0.90544(10)
H9 H 1.1223 1.0194 0.8999
C17 C 1.15611(18) 0.7133(4) 0.93071(9)
H10 H 1.2406 0.7289 0.9427
C18 C 1.10101(19) 0.5172(4) 0.93819(10)
H11 H 1.1485 0.3991 0.9552
C19 C 0.97523(18) 0.4934(3) 0.92067(9)
H12 H 0.9390 0.3593 0.9260
C20 C 0.84131(17) 0.3448(3) 0.77661(8)
H13 H 0.8912 0.4678 0.7855
C21 C 0.87248(19) 0.1833(3) 0.74064(9)
H14 H 0.9425 0.1991 0.7249
loop_
_geom_bond_atom_site_label_1
_geom_bond_atom_site_label_2
_geom_bond_site_symmetry_1
_geom_bond_site_symmetry_2
O1 C1 1_555 1_555
O2 C4 1_555 1_555
O3 C1 1_555 1_555
C1 H1 1_555 1_555
H2 C1 1_555 1_555
C2 O1 1_555 1_555
C3 C2 1_555 1_555
H3 C3 1_555 1_555
C4 C3 1_555 1_555
C5 O2 1_555 1_555
C6 C5 1_555 1_555
C7 C6 1_555 1_555
H4 C7 1_555 1_555
C8 C7 1_555 1_555
H5 C8 1_555 1_555
C9 C8 1_555 1_555
H6 C9 1_555 1_555
C10 C5 1_555 1_555
C11 C4 1_555 1_555
C12 C11 1_555 1_555
H7 C12 1_555 1_555
C13 O3 1_555 1_555
C14 C10 1_555 1_555
C15 C14 1_555 1_555
H8 C15 1_555 1_555
C16 C15 1_555 1_555
H9 C16 1_555 1_555
C17 C16 1_555 1_555
H10 C17 1_555 1_555
C18 C17 1_555 1_555
H11 C18 1_555 1_555
C19 C14 1_555 1_555
H12 C19 1_555 1_555
C20 C6 1_555 1_555
H13 C20 1_555 1_555
C21 C9 1_555 1_555
H14 C21 1_555 1_555
C2 C13 1_555 1_555
C10 C11 1_555 1_555
C12 C13 1_555 1_555
C18 C19 1_555 1_555
C20 C21 1_555 1_555

#END
