
#######################################################################
#
#                 Cambridge Crystallographic Data Centre
#                                CCDC 
#
#######################################################################
#
# If this CIF has been generated from an entry in the Cambridge 
# Structural Database, then it will include bibliographic, chemical, 
# crystal, experimental, refinement or atomic coordinate data resulting 
# from the CCDC's data processing and validation procedures.
#
#######################################################################

data_LAGFUX
_chemical_formula_moiety         'C31 H38 N4 O2'
_chemical_name_systematic        
2-(3-aminopropyl)-3',6'-bis(diethylamino)spiro[isoindole-1,9'-xanthen]-3(2H)-one
_symmetry_cell_setting           triclinic
_symmetry_space_group_name_H-M   'P -1'
_symmetry_Int_Tables_number      2
_space_group_name_Hall           '-P 1'
loop_
_symmetry_equiv_pos_site_id
_symmetry_equiv_pos_as_xyz
1 x,y,z
2 -x,-y,-z
_cell_length_a                   12.3903(3)
_cell_length_b                   12.4794(3)
_cell_length_c                   19.4065(6)
_cell_angle_alpha                71.4500(10)
_cell_angle_beta                 75.695(2)
_cell_angle_gamma                84.6490(10)
_cell_volume                     2756.25
_cell_formula_units_Z            4
loop_
_atom_site_label
_atom_site_type_symbol
_atom_site_fract_x
_atom_site_fract_y
_atom_site_fract_z
O1 O 0.04298(13) 0.46988(14) 0.41657(11)
C1 C 0.12433(19) 0.28423(19) 0.42074(13)
C2 C 0.03430(19) 0.35945(19) 0.41952(13)
C3 C 0.14758(19) 0.51174(19) 0.40248(13)
C4 C 0.24398(19) 0.44517(19) 0.39847(13)
C5 C 0.1013(2) 0.1752(2) 0.42398(14)
H1 H 0.1591 0.1219 0.4248
C6 C 0.1488(2) 0.6268(2) 0.39260(14)
H2 H 0.0820 0.6677 0.3958
N1 N 0.26468(16) 0.26431(16) 0.49506(11)
C7 C -0.0939(2) 0.2201(2) 0.42561(14)
C8 C 0.2487(2) 0.6819(2) 0.37789(14)
C9 C 0.23887(18) 0.31799(19) 0.41998(13)
C10 C -0.0025(2) 0.1428(2) 0.42599(15)
H3 H -0.0131 0.0692 0.4276
C11 C 0.3430(2) 0.5018(2) 0.38101(16)
H4 H 0.4094 0.4605 0.3763
C12 C 0.3498(2) 0.1873(2) 0.49475(15)
N2 N 0.2497(2) 0.79417(18) 0.37322(14)
N3 N -0.1992(2) 0.1877(2) 0.43093(16)
C13 C 0.33017(19) 0.2640(2) 0.37279(15)
C14 C 0.39035(19) 0.1861(2) 0.41737(15)
C15 C 0.2004(2) 0.2892(3) 0.56184(16)
H5 H 0.1989 0.2218 0.6043
H6 H 0.1243 0.3072 0.5568
C16 C 0.3481(2) 0.6161(2) 0.37021(17)
H7 H 0.4168 0.6501 0.3579
C17 C 0.4748(2) 0.1199(2) 0.38750(19)
H8 H 0.5145 0.0665 0.4178
C18 C 0.3522(2) 0.2794(3) 0.29694(17)
H9 H 0.3118 0.3317 0.2666
C19 C -0.2188(3) 0.0805(3) 0.4216(2)
H10 H -0.2972 0.0631 0.4417
H11 H -0.1769 0.0217 0.4509
C20 C 0.3545(3) 0.8539(3) 0.35412(18)
H12 H 0.4076 0.8033 0.3784
H13 H 0.3412 0.9175 0.3738
C21 C -0.2951(3) 0.2653(3) 0.4369(3)
H14 H -0.3623 0.2218 0.4615
H15 H -0.2864 0.3105 0.4675
C22 C 0.4972(3) 0.1363(3) 0.3120(2)
H16 H 0.5539 0.0944 0.2906
C23 C 0.4370(3) 0.2140(3) 0.2674(2)
H17 H 0.4534 0.2230 0.2165
C24 C 0.2447(3) 0.3864(3) 0.57799(19)
H18 H 0.2444 0.4542 0.5361
H19 H 0.1943 0.3998 0.6215
C25 C -0.1877(4) 0.0773(3) 0.3426(2)
H20 H -0.2342 0.1296 0.3142
H21 H -0.1979 0.0023 0.3420
H22 H -0.1112 0.0978 0.3212
C26 C 0.3616(4) 0.3672(4) 0.5918(3)
H23 H 0.4116 0.3542 0.5480
H24 H 0.3846 0.4361 0.5967
N4 N 0.3756(4) 0.2770(4) 0.6550(2)
H25 H 0.3197 0.2363 0.6832
H26 H 0.4401 0.2626 0.6652
C27 C -0.3069(4) 0.3401(4) 0.3640(3)
H27 H -0.2385 0.3794 0.3380
H28 H -0.3660 0.3940 0.3707
H29 H -0.3240 0.2963 0.3355
O2 O 0.38404(17) 0.13003(16) 0.54996(12)
C28 C 0.1467(3) 0.8615(2) 0.37658(18)
H30 H 0.1587 0.9294 0.3876
H31 H 0.0894 0.8186 0.4174
C29 C 0.1052(4) 0.8952(3) 0.3057(2)
H32 H 0.1580 0.9442 0.2660
H33 H 0.0347 0.9339 0.3131
H34 H 0.0966 0.8287 0.2929
C30 C 0.4049(4) 0.8964(4) 0.2721(2)
H35 H 0.4128 0.8351 0.2512
H36 H 0.4768 0.9270 0.2641
H37 H 0.3575 0.9542 0.2484
C31 C -0.0722(2) 0.3299(2) 0.42184(15)
O3 O 0.42266(14) -0.00584(15) 0.08668(11)
C32 C 0.2857(2) -0.1389(2) 0.11718(16)
H38 H 0.3417 -0.1937 0.1235
C33 C 0.2615(2) 0.1831(2) 0.06534(14)
C34 C 0.3815(2) 0.1939(2) 0.06690(13)
C35 C 0.3116(2) -0.0261(2) 0.09661(14)
C36 C 0.2330(2) 0.0606(2) 0.08673(14)
C37 C 0.5643(2) 0.1109(2) 0.07704(15)
H39 H 0.6098 0.0465 0.0839
C38 C 0.4536(2) 0.1018(2) 0.07662(14)
C39 C 0.1814(2) 0.2447(2) 0.11426(15)
N5 N 0.23965(19) 0.24574(19) -0.00952(12)
O4 O 0.1221(2) 0.3849(2) -0.06088(13)
C40 C 0.4258(2) 0.2972(2) 0.05863(16)
H40 H 0.3795 0.3610 0.0525
C41 C 0.1576(2) 0.3264(2) -0.00690(16)
C42 C 0.5347(2) 0.3089(3) 0.05909(17)
H41 H 0.5601 0.3795 0.0539
C43 C 0.1767(2) -0.1716(2) 0.12857(18)
C44 C 0.0410(2) 0.3932(2) 0.10285(18)
H42 H 0.0012 0.4486 0.0738
C45 C 0.1220(2) 0.3267(2) 0.07119(15)
C46 C 0.0963(2) -0.0842(3) 0.11620(19)
H43 H 0.0229 -0.1022 0.1216
C47 C 0.6082(2) 0.2152(3) 0.06734(15)
C48 C 0.1635(2) 0.2269(2) 0.18952(16)
H44 H 0.2045 0.1724 0.2182
C49 C 0.1247(2) 0.0264(3) 0.09643(18)
H45 H 0.0692 0.0816 0.0891
C50 C 0.0220(3) 0.3739(3) 0.17885(19)
H46 H -0.0323 0.4164 0.2016
N6 N 0.7192(2) 0.2254(3) 0.06494(17)
N7 N 0.1487(2) -0.2835(2) 0.1520(2)
C51 C 0.0823(3) 0.2923(3) 0.22192(18)
H47 H 0.0684 0.2812 0.2730
C52 C 0.7933(3) 0.1268(4) 0.0724(2)
H48 H 0.8693 0.1528 0.0509
H49 H 0.7771 0.0829 0.0431
C53 C 0.0378(3) -0.3168(3) 0.1530(3)
H50 H 0.0201 -0.3286 0.1121
C54 C 0.7614(3) 0.3306(4) 0.0670(2)
H51 H 0.7289 0.3943 0.0345
H52 H 0.8414 0.3325 0.0473
C55 C 0.2839(3) 0.2085(3) -0.07423(18)
H53 H 0.2328 0.2332 -0.1071
H54 H 0.2853 0.1265 -0.0580
N8 N 0.3349(6) 0.4093(4) -0.2101(3)
H55 H 0.2965 0.3614 -0.2171
H56 H 0.3325 0.4798 -0.2350
C56 C 0.4048(5) 0.3708(6) -0.1552(3)
H57 H 0.4817 0.3902 -0.1802
H58 H 0.3812 0.4094 -0.1177
C57 C 0.3974(4) 0.2479(5) -0.1186(2)
H59 H 0.4584 0.1990 -0.1228
C58 C 0.7374(4) 0.3439(4) 0.1421(3)
H60 H 0.6583 0.3423 0.1622
H61 H 0.7656 0.4148 0.1389
H62 H 0.7725 0.2833 0.1741
C59 C 0.7873(5) 0.0508(5) 0.1497(3)
H63 H 0.8193 0.0874 0.1765
H64 H 0.8278 -0.0181 0.1480
H65 H 0.7108 0.0339 0.1747
C60 C -0.0433(4) -0.3298(5) 0.2251(3)
H66 H -0.0171 -0.3874 0.2638
H67 H -0.1140 -0.3510 0.2219
H68 H -0.0515 -0.2595 0.2363
C61 C 0.2256(3) -0.3771(3) 0.1887(2)
H69 H 0.2742 -0.3454 0.2092
H70 H 0.1812 -0.4349 0.2292
C62 C 0.2932(5) -0.4276(4) 0.1322(3)
H71 H 0.2452 -0.4489 0.1069
H72 H 0.3323 -0.4933 0.1563
H73 H 0.3458 -0.3734 0.0966
loop_
_geom_bond_atom_site_label_1
_geom_bond_atom_site_label_2
_geom_bond_site_symmetry_1
_geom_bond_site_symmetry_2
O1 C2 1_555 1_555
C1 C2 1_555 1_555
C2 C31 1_555 1_555
C3 O1 1_555 1_555
C4 C3 1_555 1_555
C5 C1 1_555 1_555
H1 C5 1_555 1_555
C6 C3 1_555 1_555
H2 C6 1_555 1_555
N1 C9 1_555 1_555
C7 C10 1_555 1_555
C8 C6 1_555 1_555
C9 C1 1_555 1_555
C10 C5 1_555 1_555
H3 C10 1_555 1_555
C11 C4 1_555 1_555
H4 C11 1_555 1_555
C12 N1 1_555 1_555
N2 C8 1_555 1_555
N3 C7 1_555 1_555
C13 C9 1_555 1_555
C14 C12 1_555 1_555
C15 N1 1_555 1_555
H5 C15 1_555 1_555
H6 C15 1_555 1_555
C16 C8 1_555 1_555
H7 C16 1_555 1_555
C17 C14 1_555 1_555
H8 C17 1_555 1_555
C18 C13 1_555 1_555
H9 C18 1_555 1_555
C19 N3 1_555 1_555
H10 C19 1_555 1_555
H11 C19 1_555 1_555
C20 N2 1_555 1_555
H12 C20 1_555 1_555
H13 C20 1_555 1_555
C21 N3 1_555 1_555
H14 C21 1_555 1_555
H15 C21 1_555 1_555
C22 C17 1_555 1_555
H16 C22 1_555 1_555
C23 C18 1_555 1_555
H17 C23 1_555 1_555
C24 C15 1_555 1_555
H18 C24 1_555 1_555
H19 C24 1_555 1_555
C25 C19 1_555 1_555
H20 C25 1_555 1_555
H21 C25 1_555 1_555
H22 C25 1_555 1_555
C26 C24 1_555 1_555
H23 C26 1_555 1_555
H24 C26 1_555 1_555
N4 C26 1_555 1_555
H25 N4 1_555 1_555
H26 N4 1_555 1_555
C27 C21 1_555 1_555
H27 C27 1_555 1_555
H28 C27 1_555 1_555
H29 C27 1_555 1_555
O2 C12 1_555 1_555
C28 N2 1_555 1_555
H30 C28 1_555 1_555
H31 C28 1_555 1_555
C29 C28 1_555 1_555
H32 C29 1_555 1_555
H33 C29 1_555 1_555
H34 C29 1_555 1_555
C30 C20 1_555 1_555
H35 C30 1_555 1_555
H36 C30 1_555 1_555
H37 C30 1_555 1_555
C31 C7 1_555 1_555
O3 C35 1_555 1_555
C32 H38 1_555 1_555
C33 C34 1_555 1_555
C34 C38 1_555 1_555
C35 C32 1_555 1_555
C36 C33 1_555 1_555
C37 H39 1_555 1_555
C38 O3 1_555 1_555
C39 C33 1_555 1_555
N5 C33 1_555 1_555
O4 C41 1_555 1_555
C40 C34 1_555 1_555
H40 C40 1_555 1_555
C41 N5 1_555 1_555
C42 C40 1_555 1_555
H41 C42 1_555 1_555
C43 C32 1_555 1_555
C44 H42 1_555 1_555
C45 C39 1_555 1_555
C46 C43 1_555 1_555
H43 C46 1_555 1_555
C47 C37 1_555 1_555
C48 C39 1_555 1_555
H44 C48 1_555 1_555
C49 C36 1_555 1_555
H45 C49 1_555 1_555
C50 C44 1_555 1_555
H46 C50 1_555 1_555
N6 C47 1_555 1_555
N7 C43 1_555 1_555
C51 C48 1_555 1_555
H47 C51 1_555 1_555
C52 N6 1_555 1_555
H48 C52 1_555 1_555
H49 C52 1_555 1_555
C53 N7 1_555 1_555
H50 C53 1_555 1_555
C54 N6 1_555 1_555
H51 C54 1_555 1_555
H52 C54 1_555 1_555
C55 N5 1_555 1_555
H53 C55 1_555 1_555
H54 C55 1_555 1_555
N8 H55 1_555 1_555
H56 N8 1_555 1_555
C56 N8 1_555 1_555
H57 C56 1_555 1_555
H58 C56 1_555 1_555
C57 C55 1_555 1_555
H59 C57 1_555 1_555
C58 C54 1_555 1_555
H60 C58 1_555 1_555
H61 C58 1_555 1_555
H62 C58 1_555 1_555
C59 C52 1_555 1_555
H63 C59 1_555 1_555
H64 C59 1_555 1_555
H65 C59 1_555 1_555
C60 C53 1_555 1_555
H66 C60 1_555 1_555
H67 C60 1_555 1_555
H68 C60 1_555 1_555
C61 N7 1_555 1_555
H69 C61 1_555 1_555
H70 C61 1_555 1_555
C62 C61 1_555 1_555
H71 C62 1_555 1_555
H72 C62 1_555 1_555
H73 C62 1_555 1_555
C4 C9 1_555 1_555
C11 C16 1_555 1_555
C13 C14 1_555 1_555
C22 C23 1_555 1_555
C35 C36 1_555 1_555
C37 C38 1_555 1_555
C41 C45 1_555 1_555
C42 C47 1_555 1_555
C44 C45 1_555 1_555
C46 C49 1_555 1_555
C50 C51 1_555 1_555
C56 C57 1_555 1_555

#END
