
#######################################################################
#
#                 Cambridge Crystallographic Data Centre
#                                CCDC 
#
#######################################################################
#
# If this CIF has been generated from an entry in the Cambridge 
# Structural Database, then it will include bibliographic, chemical, 
# crystal, experimental, refinement or atomic coordinate data resulting 
# from the CCDC's data processing and validation procedures.
#
#######################################################################

data_LAGGAE
_chemical_formula_moiety         'C13 H10 N2 O3'
_chemical_name_systematic        2-(((4-nitrophenyl)imino)methyl)phenol
_symmetry_cell_setting           monoclinic
_symmetry_space_group_name_H-M   'P 21/c'
_symmetry_Int_Tables_number      14
_space_group_name_Hall           '-P 2ybc'
loop_
_symmetry_equiv_pos_site_id
_symmetry_equiv_pos_as_xyz
1 x,y,z
2 -x,1/2+y,1/2-z
3 -x,-y,-z
4 x,1/2-y,1/2+z
_cell_length_a                   12.3375(3)
_cell_length_b                   5.77500(10)
_cell_length_c                   15.9003(4)
_cell_angle_alpha                90
_cell_angle_beta                 97.8880(10)
_cell_angle_gamma                90
_cell_volume                     1122.16
_cell_formula_units_Z            4
loop_
_atom_site_label
_atom_site_type_symbol
_atom_site_fract_x
_atom_site_fract_y
_atom_site_fract_z
N1 N 0.61742(12) 0.0886(3) 0.44577(9)
C1 C 0.56110(14) -0.0484(3) 0.39457(11)
H1 H 0.5879 -0.1965 0.3872
C2 C 0.45653(14) 0.0174(3) 0.34715(11)
O1 O 0.45447(12) 0.3860(3) 0.41665(9)
H2 H 0.4067 0.4537 0.4382
C3 C 0.72036(15) 0.0222(3) 0.48946(11)
C4 C 0.30879(15) 0.2869(3) 0.31042(12)
H3 H 0.2759 0.4290 0.3179
C5 C 0.91820(14) -0.0849(4) 0.58279(12)
C6 C 0.40761(15) 0.2317(3) 0.35880(11)
C7 C 0.40457(15) -0.1356(3) 0.28688(12)
H4 H 0.4366 -0.2784 0.2790
C8 C 0.25909(16) 0.1329(4) 0.25140(12)
H5 H 0.1926 0.1719 0.2196
C9 C 0.87359(17) -0.2357(4) 0.52165(13)
H6 H 0.9099 -0.3720 0.5118
C10 C 0.76900(16) 0.1739(4) 0.55053(12)
H7 H 0.7345 0.3133 0.5593
C11 C 0.86798(17) 0.1223(4) 0.59893(14)
H8 H 0.8998 0.2230 0.6409
C12 C 0.30631(16) -0.0790(4) 0.23855(12)
H9 H 0.2726 -0.1817 0.1981
C13 C 0.77413(17) -0.1843(4) 0.47458(13)
H10 H 0.7428 -0.2866 0.4330
N2 N 1.02123(15) -0.1479(4) 0.63515(13)
O2 O 1.05719(17) -0.0225(4) 0.69352(14)
O3 O 1.06581(16) -0.3269(4) 0.61773(14)
loop_
_geom_bond_atom_site_label_1
_geom_bond_atom_site_label_2
_geom_bond_site_symmetry_1
_geom_bond_site_symmetry_2
N1 C1 1_555 1_555
C1 H1 1_555 1_555
C2 C1 1_555 1_555
O1 H2 1_555 1_555
C3 N1 1_555 1_555
C4 H3 1_555 1_555
C5 C9 1_555 1_555
C6 C2 1_555 1_555
C7 C2 1_555 1_555
H4 C7 1_555 1_555
C8 C4 1_555 1_555
H5 C8 1_555 1_555
C9 H6 1_555 1_555
C10 C3 1_555 1_555
H7 C10 1_555 1_555
C11 C5 1_555 1_555
H8 C11 1_555 1_555
C12 C7 1_555 1_555
H9 C12 1_555 1_555
C13 C3 1_555 1_555
H10 C13 1_555 1_555
N2 C5 1_555 1_555
O2 N2 1_555 1_555
O3 N2 1_555 1_555
O1 C6 1_555 1_555
C4 C6 1_555 1_555
C8 C12 1_555 1_555
C9 C13 1_555 1_555
C10 C11 1_555 1_555

#END
