
#######################################################################
#
#                 Cambridge Crystallographic Data Centre
#                                CCDC 
#
#######################################################################
#
# If this CIF has been generated from an entry in the Cambridge 
# Structural Database, then it will include bibliographic, chemical, 
# crystal, experimental, refinement or atomic coordinate data resulting 
# from the CCDC's data processing and validation procedures.
#
#######################################################################

data_LAGKOV
_chemical_formula_moiety         'C8 H4 F5 N2 O4 S1 1-,C6 H16 N1 1+'
_chemical_name_systematic        
'triethylammonium (((pentafluorophenyl)carbamoyl)amino)methanesulfonate'
_symmetry_cell_setting           monoclinic
_symmetry_space_group_name_H-M   'C 2/c'
_symmetry_Int_Tables_number      15
_space_group_name_Hall           '-C 2yn'
loop_
_symmetry_equiv_pos_site_id
_symmetry_equiv_pos_as_xyz
1 x,y,z
2 -x,y,1/2-z
3 1/2+x,1/2+y,z
4 1/2-x,1/2+y,1/2-z
5 -x,-y,-z
6 x,-y,1/2+z
7 1/2-x,1/2-y,-z
8 1/2+x,1/2-y,1/2+z
_cell_length_a                   24.165(4)
_cell_length_b                   8.6828(12)
_cell_length_c                   17.293(3)
_cell_angle_alpha                90
_cell_angle_beta                 98.451(16)
_cell_angle_gamma                90
_cell_volume                     3589.02
_exptl_crystal_colour            colorless
_exptl_crystal_description       block
_cell_formula_units_Z            8
loop_
_atom_site_label
_atom_site_type_symbol
_atom_site_fract_x
_atom_site_fract_y
_atom_site_fract_z
S1 S 0.36507(2) 0.46646(6) 0.14734(3)
F1 F 0.11314(6) 0.48970(17) 0.22387(7)
F2 F 0.03849(5) 0.39835(17) 0.31582(8)
F3 F 0.06322(6) 0.41955(18) 0.47329(8)
F4 F 0.16412(7) 0.5314(2) 0.53907(8)
F5 F 0.23960(6) 0.61968(19) 0.44744(8)
O1 O 0.22421(6) 0.37954(16) 0.22062(9)
O2 O 0.37656(7) 0.38169(19) 0.07939(9)
O3 O 0.36788(6) 0.36983(17) 0.21731(8)
O4 O 0.39660(7) 0.60769(19) 0.16207(10)
N1 N 0.21879(8) 0.6031(2) 0.28735(11)
N2 N 0.27102(8) 0.5930(2) 0.18816(11)
C1 C 0.17966(9) 0.5488(2) 0.33335(12)
C2 C 0.12756(9) 0.4937(2) 0.30171(12)
C3 C 0.08870(9) 0.4488(3) 0.34789(13)
C4 C 0.10149(10) 0.4612(3) 0.42819(13)
C5 C 0.15205(10) 0.5166(3) 0.46115(13)
C6 C 0.19086(9) 0.5595(3) 0.41391(13)
C7 C 0.23741(9) 0.5162(2) 0.23090(12)
C8 C 0.29309(9) 0.5213(3) 0.12407(12)
H1 H 0.2282(10) 0.702(3) 0.2919(14)
H2 H 0.2800(10) 0.681(3) 0.2016(14)
H3 H 0.28910 0.59350 0.07930
H4 H 0.27060 0.42850 0.10760
N3 N 0.08063(8) 0.9771(2) 0.14019(12)
C9 C 0.02008(10) 0.9313(3) 0.13443(16)
C10 C 0.01192(13) 0.7629(4) 0.14722(18)
C11 C 0.08808(12) 1.1480(3) 0.14639(14)
C12 C 0.05869(12) 1.2374(3) 0.07751(15)
C13 C 0.10749(12) 0.9037(3) 0.07624(15)
C14 C 0.16560(15) 0.8682(7) 0.0978(2)
H5 H 0.0987(11) 0.941(3) 0.1850(16)
H6 H 0.00270 0.99010 0.17370
H7 H 0.00050 0.95980 0.08200
H8 H 0.02420 0.70440 0.10430
H9 H -0.02780 0.74230 0.14880
H10 H 0.03400 0.73170 0.19690
H11 H 0.12860 1.17160 0.15240
H12 H 0.07400 1.18390 0.19430
H13 H 0.07250 1.20380 0.02970
H14 H 0.06620 1.34760 0.08560
H15 H 0.01830 1.21900 0.07240
H16 H 0.08710 0.80750 0.05970
H17 H 0.10340 0.97390 0.03070
H18 H 0.18640 0.96320 0.11260
H19 H 0.18000 0.82030 0.05350
H20 H 0.17020 0.79690 0.14230
loop_
_geom_bond_atom_site_label_1
_geom_bond_atom_site_label_2
_geom_bond_site_symmetry_1
_geom_bond_site_symmetry_2
S1 O2 1_555 1_555
F1 C2 1_555 1_555
F2 C3 1_555 1_555
F3 C4 1_555 1_555
F4 C5 1_555 1_555
F5 C6 1_555 1_555
O1 C7 1_555 1_555
O3 S1 1_555 1_555
O4 S1 1_555 1_555
N1 C1 1_555 1_555
N2 C7 1_555 1_555
C1 C2 1_555 1_555
C2 C3 1_555 1_555
C3 C4 1_555 1_555
C4 C5 1_555 1_555
C5 C6 1_555 1_555
C6 C1 1_555 1_555
C7 N1 1_555 1_555
C8 S1 1_555 1_555
N3 C9 1_555 1_555
C9 C10 1_555 1_555
C10 H8 1_555 1_555
C11 N3 1_555 1_555
C12 C11 1_555 1_555
C13 N3 1_555 1_555
C14 C13 1_555 1_555
H1 N1 1_555 1_555
H2 N2 1_555 1_555
H3 C8 1_555 1_555
H4 C8 1_555 1_555
H5 N3 1_555 1_555
H6 C9 1_555 1_555
H7 C9 1_555 1_555
H9 C10 1_555 1_555
H10 C10 1_555 1_555
H11 C11 1_555 1_555
H12 C11 1_555 1_555
H13 C12 1_555 1_555
H14 C12 1_555 1_555
H15 C12 1_555 1_555
H16 C13 1_555 1_555
H17 C13 1_555 1_555
H18 C14 1_555 1_555
H19 C14 1_555 1_555
H20 C14 1_555 1_555
N2 C8 1_555 1_555

#END
