
#######################################################################
#
#                 Cambridge Crystallographic Data Centre
#                                CCDC 
#
#######################################################################
#
# If this CIF has been generated from an entry in the Cambridge 
# Structural Database, then it will include bibliographic, chemical, 
# crystal, experimental, refinement or atomic coordinate data resulting 
# from the CCDC's data processing and validation procedures.
#
#######################################################################

data_LAGMUB
_chemical_formula_moiety         'C16 H18 Cl2 N2 O2'
_chemical_name_systematic        2,3-Dicyano-5,6-dichloro-4-octyloxyphenol
_symmetry_cell_setting           orthorhombic
_symmetry_space_group_name_H-M   'P b c a'
_symmetry_Int_Tables_number      61
_space_group_name_Hall           '-P 2ac 2ab'
loop_
_symmetry_equiv_pos_site_id
_symmetry_equiv_pos_as_xyz
1 x,y,z
2 1/2-x,-y,1/2+z
3 1/2+x,1/2-y,-z
4 -x,1/2+y,1/2-z
5 -x,-y,-z
6 1/2+x,y,1/2-z
7 1/2-x,1/2+y,z
8 x,1/2-y,1/2+z
_cell_length_a                   47.023(3)
_cell_length_b                   9.424(1)
_cell_length_c                   7.607(2)
_cell_angle_alpha                90
_cell_angle_beta                 90
_cell_angle_gamma                90
_cell_volume                     3371
_chemical_melting_point          115deg.C
_cell_formula_units_Z            8
loop_
_atom_site_label
_atom_site_type_symbol
_atom_site_fract_x
_atom_site_fract_y
_atom_site_fract_z
Cl1 Cl 0.0919(1) 0.1003(1) 0.0334(1)
Cl2 Cl 0.0308(1) 0.1254(1) -0.1330(1)
O1 O 0.0122(1) 0.4260(2) -0.1834(3)
O2 O 0.1184(1) 0.3740(2) 0.1177(2)
N1 N 0.0288(1) 0.7643(3) -0.1413(4)
N2 N 0.1032(1) 0.7466(3) 0.1330(4)
C1 C 0.0770(1) 0.2640(3) -0.0038(3)
C2 C 0.0500(1) 0.2737(3) -0.0780(3)
C3 C 0.0379(1) 0.4061(3) -0.1099(3)
C4 C 0.0527(1) 0.5281(3) -0.0616(3)
C5 C 0.0795(1) 0.5176(3) 0.0184(3)
C6 C 0.0920(1) 0.3859(3) 0.0430(3)
C7 C 0.0400(1) 0.6619(3) -0.1023(4)
C8 C 0.0933(1) 0.6445(3) 0.0805(4)
C9 C 0.1415(1) 0.3982(5) -0.0024(5)
C10 C 0.1685(1) 0.3545(4) 0.0802(5)
C11 C 0.1948(1) 0.3968(4) -0.0179(5)
C12 C 0.2225(1) 0.3497(4) 0.0619(6)
C13 C 0.2489(1) 0.3992(4) -0.0276(6)
C14 C 0.2768(1) 0.3530(4) 0.0510(6)
C15 C 0.3029(1) 0.4058(5) -0.0377(7)
C16 C 0.3309(1) 0.3622(7) 0.0387(10)
H1 H 0.005(1) 0.353(3) -0.214(5)
H2 H 0.142(1) 0.496(5) -0.024(6)
H3 H 0.137(1) 0.354(5) -0.112(6)
H4 H 0.169(1) 0.254(4) 0.094(6)
H5 H 0.168(1) 0.388(3) 0.200(5)
H6 H 0.196(1) 0.507(4) -0.011(5)
H7 H 0.192(1) 0.369(3) -0.145(5)
H8 H 0.222(1) 0.238(5) 0.050(5)
H9 H 0.223(1) 0.365(3) 0.189(5)
H10 H 0.248(1) 0.514(5) -0.012(5)
H11 H 0.249(1) 0.383(4) -0.152(6)
H12 H 0.277(1) 0.239(5) 0.025(5)
H13 H 0.277(1) 0.369(4) 0.175(5)
H14 H 0.302(1) 0.511(6) -0.012(6)
H15 H 0.302(1) 0.385(4) -0.163(6)
H16 H 0.347(1) 0.398(4) -0.021(5)
H17 H 0.334(1) 0.373(6) 0.160(8)
H18 H 0.333(1) 0.262(7) 0.032(9)
loop_
_geom_bond_atom_site_label_1
_geom_bond_atom_site_label_2
_geom_bond_site_symmetry_1
_geom_bond_site_symmetry_2
Cl1 C1 1_555 1_555
Cl2 C2 1_555 1_555
O1 C3 1_555 1_555
O2 C6 1_555 1_555
N1 C7 1_555 1_555
N2 C8 1_555 1_555
C1 C2 1_555 1_555
C2 C3 1_555 1_555
C3 C4 1_555 1_555
C4 C5 1_555 1_555
C5 C6 1_555 1_555
C6 C1 1_555 1_555
C7 C4 1_555 1_555
C8 C5 1_555 1_555
C9 O2 1_555 1_555
C10 C9 1_555 1_555
C11 C10 1_555 1_555
C12 C11 1_555 1_555
C13 C12 1_555 1_555
C14 C13 1_555 1_555
C15 C14 1_555 1_555
C16 C15 1_555 1_555
H1 O1 1_555 1_555
H2 C9 1_555 1_555
H3 C9 1_555 1_555
H4 C10 1_555 1_555
H5 C10 1_555 1_555
H6 C11 1_555 1_555
H7 C11 1_555 1_555
H8 C12 1_555 1_555
H9 C12 1_555 1_555
H10 C13 1_555 1_555
H11 C13 1_555 1_555
H12 C14 1_555 1_555
H13 C14 1_555 1_555
H14 C15 1_555 1_555
H15 C15 1_555 1_555
H16 C16 1_555 1_555
H17 C16 1_555 1_555
H18 C16 1_555 1_555

#END
