
#######################################################################
#
#                 Cambridge Crystallographic Data Centre
#                                CCDC 
#
#######################################################################
#
# If this CIF has been generated from an entry in the Cambridge 
# Structural Database, then it will include bibliographic, chemical, 
# crystal, experimental, refinement or atomic coordinate data resulting 
# from the CCDC's data processing and validation procedures.
#
#######################################################################

data_LAGROA
_chemical_compound_source        'seeds of Trichosanthes kirilowii Maxim'
_chemical_formula_moiety         'C34 H50 O4'
_chemical_name_systematic        '5-Dehydrokarounidiol diacetate'
_chemical_properties_biological  'pharmaceutical activity'
_symmetry_cell_setting           monoclinic
_symmetry_space_group_name_H-M   'P 21'
_symmetry_Int_Tables_number      4
_space_group_name_Hall           'P 2yb'
loop_
_symmetry_equiv_pos_site_id
_symmetry_equiv_pos_as_xyz
1 x,y,z
2 -x,1/2+y,-z
_cell_length_a                   14.589(6)
_cell_length_b                   7.409(4)
_cell_length_c                   15.336(7)
_cell_angle_alpha                90
_cell_angle_beta                 111.07(3)
_cell_angle_gamma                90
_cell_volume                     1546.84
_exptl_crystal_colour            colorless
_chemical_melting_point          164-166deg.C
_cell_formula_units_Z            2
loop_
_atom_site_label
_atom_site_type_symbol
_atom_site_fract_x
_atom_site_fract_y
_atom_site_fract_z
O1 O -0.3191(2) 0.9383(6) 0.1166(2)
O2 O 0.2331(3) 1.2538(8) 0.1127(3)
O3 O 0.1319(4) 1.117(2) -0.0160(3)
O4 O -0.4692(3) 1.0574(8) 0.0671(3)
C1 C -0.1851(3) 1.0502(7) 0.2949(3)
C2 C -0.2932(3) 1.0145(8) 0.2751(3)
C3 C -0.3314(3) 0.8727(7) 0.2014(3)
C4 C -0.2778(3) 0.6901(7) 0.2266(3)
C5 C -0.1660(3) 0.7153(6) 0.2680(3)
C6 C -0.1058(3) 0.5871(7) 0.2607(3)
C7 C -0.0004(3) 0.5998(6) 0.3016(3)
C8 C 0.0449(3) 0.7569(6) 0.3343(3)
C9 C -0.0164(3) 0.9139(6) 0.3286(2)
C10 C -0.1206(3) 0.8816(6) 0.3283(3)
C11 C 0.0215(3) 1.0808(6) 0.3291(3)
C12 C 0.1248(3) 1.1138(6) 0.3360(3)
C13 C 0.1787(3) 0.9476(6) 0.3197(3)
C14 C 0.1555(3) 0.7866(6) 0.3735(3)
C15 C 0.2136(3) 0.6213(7) 0.3633(4)
C16 C 0.3237(3) 0.6510(7) 0.4085(4)
C17 C 0.3628(3) 0.8240(7) 0.3726(4)
C18 C 0.2912(3) 0.9878(6) 0.3568(3)
C19 C 0.3248(3) 1.1438(6) 0.3079(3)
C20 C 0.3715(3) 1.1093(8) 0.2325(3)
C21 C 0.4312(3) 0.9352(8) 0.2520(4)
C22 C 0.3824(3) 0.7787(7) 0.2833(4)
C23 C -0.3147(3) 0.5985(9) 0.2992(3)
C24 C -0.3087(3) 0.5662(9) 0.1408(4)
C25 C -0.1063(3) 0.8402(8) 0.4321(3)
C26 C 0.1829(3) 0.8297(8) 0.4791(3)
C27 C 0.1351(3) 0.9109(7) 0.2137(3)
C28 C 0.4614(4) 0.8727(8) 0.4512(5)
C29 C 0.2948(3) 1.097(1) 0.1333(3)
C30 C 0.4385(3) 1.2688(9) 0.2338(4)
C31 C 0.1514(5) 1.240(2) 0.0324(4)
C32 C 0.0928(7) 1.423(2) 0.0227(8)
C33 C -0.3928(4) 1.0339(9) 0.0575(3)
C34 C -0.3668(5) 1.105(1) -0.0206(4)
H1 H -0.404 0.834 0.187
H2 H -0.156 0.500 0.209
H3 H 0.035 0.500 0.293
H4 H -0.016 1.209 0.334
H5 H 0.297 1.043 0.416
H6 H -0.299 0.959 0.332
H7 H -0.334 1.125 0.250
H8 H -0.158 1.125 0.354
H9 H -0.158 1.125 0.250
H10 H 0.121 1.209 0.270
H11 H 0.159 1.163 0.400
H12 H 0.193 0.584 0.293
H13 H 0.176 0.543 0.396
H14 H 0.352 0.625 0.480
H15 H 0.357 0.555 0.384
H16 H 0.262 1.209 0.270
H17 H 0.377 1.203 0.363
H18 H 0.508 0.959 0.291
H19 H 0.437 0.918 0.187
H20 H 0.437 0.709 0.291
H21 H 0.316 0.709 0.250
H22 H -0.268 0.489 0.316
H23 H -0.314 0.668 0.355
H24 H -0.385 0.584 0.271
H25 H -0.382 0.553 0.113
H26 H -0.278 0.446 0.156
H27 H -0.287 0.622 0.090
H28 H -0.053 0.750 0.457
H29 H -0.158 0.834 0.457
H30 H -0.070 0.959 0.479
H31 H 0.121 0.918 0.479
H32 H 0.156 0.709 0.500
H33 H 0.252 0.874 0.518
H34 H 0.176 0.791 0.209
H35 H 0.068 0.875 0.187
H36 H 0.174 1.000 0.187
H37 H 0.527 0.793 0.480
H38 H 0.490 1.000 0.438
H39 H 0.430 0.865 0.501
H40 H 0.254 0.986 0.126
H41 H 0.329 1.090 0.086
H42 H 0.508 1.293 0.291
H43 H 0.404 1.375 0.230
H44 H 0.462 1.233 0.181
H45 H 0.034 1.439 -0.035
H46 H 0.140 1.535 0.018
H47 H 0.078 1.458 0.079
H48 H -0.420 1.180 -0.066
H49 H -0.347 1.007 -0.057
H50 H -0.305 1.190 0.004
loop_
_geom_bond_atom_site_label_1
_geom_bond_atom_site_label_2
_geom_bond_site_symmetry_1
_geom_bond_site_symmetry_2
O1 C3 1_555 1_555
O2 C29 1_555 1_555
O3 C31 1_555 1_555
O4 C33 1_555 1_555
C1 C2 1_555 1_555
C2 C3 1_555 1_555
C3 C4 1_555 1_555
C4 C5 1_555 1_555
C5 C6 1_555 1_555
C6 C7 1_555 1_555
C7 C8 1_555 1_555
C8 C9 1_555 1_555
C9 C10 1_555 1_555
C10 C1 1_555 1_555
C11 C9 1_555 1_555
C12 C11 1_555 1_555
C13 C12 1_555 1_555
C14 C8 1_555 1_555
C15 C14 1_555 1_555
C16 C15 1_555 1_555
C17 C16 1_555 1_555
C18 C13 1_555 1_555
C19 C18 1_555 1_555
C20 C19 1_555 1_555
C21 C20 1_555 1_555
C22 C17 1_555 1_555
C23 C4 1_555 1_555
C24 C4 1_555 1_555
C25 C10 1_555 1_555
C26 C14 1_555 1_555
C27 C13 1_555 1_555
C28 C17 1_555 1_555
C29 C20 1_555 1_555
C30 C20 1_555 1_555
C31 O2 1_555 1_555
C32 C31 1_555 1_555
C33 O1 1_555 1_555
C34 C33 1_555 1_555
H1 C3 1_555 1_555
H2 C6 1_555 1_555
H3 C7 1_555 1_555
H4 C11 1_555 1_555
H5 C18 1_555 1_555
H6 C2 1_555 1_555
H7 C2 1_555 1_555
H8 C1 1_555 1_555
H9 C1 1_555 1_555
H10 C12 1_555 1_555
H11 C12 1_555 1_555
H12 C15 1_555 1_555
H13 C15 1_555 1_555
H14 C16 1_555 1_555
H15 C16 1_555 1_555
H16 C19 1_555 1_555
H17 C19 1_555 1_555
H18 C21 1_555 1_555
H19 C21 1_555 1_555
H20 C22 1_555 1_555
H21 C22 1_555 1_555
H22 C23 1_555 1_555
H23 C23 1_555 1_555
H24 C23 1_555 1_555
H25 C24 1_555 1_555
H26 C24 1_555 1_555
H27 C24 1_555 1_555
H28 C25 1_555 1_555
H29 C25 1_555 1_555
H30 C25 1_555 1_555
H31 C26 1_555 1_555
H32 C26 1_555 1_555
H33 C26 1_555 1_555
H34 C27 1_555 1_555
H35 C27 1_555 1_555
H36 C27 1_555 1_555
H37 C28 1_555 1_555
H38 C28 1_555 1_555
H39 C28 1_555 1_555
H40 C29 1_555 1_555
H41 C29 1_555 1_555
H42 C30 1_555 1_555
H43 C30 1_555 1_555
H44 C30 1_555 1_555
H45 C32 1_555 1_555
H46 C32 1_555 1_555
H47 C32 1_555 1_555
H48 C34 1_555 1_555
H49 C34 1_555 1_555
H50 C34 1_555 1_555
C5 C10 1_555 1_555
C13 C14 1_555 1_555
C17 C18 1_555 1_555
C21 C22 1_555 1_555

#END
