
#######################################################################
#
#                 Cambridge Crystallographic Data Centre
#                                CCDC 
#
#######################################################################
#
# If this CIF has been generated from an entry in the Cambridge 
# Structural Database, then it will include bibliographic, chemical, 
# crystal, experimental, refinement or atomic coordinate data resulting 
# from the CCDC's data processing and validation procedures.
#
#######################################################################

data_LAGVEV
_chemical_formula_moiety         'C18 H21 N1 O4'
_chemical_name_systematic        
'Ethyl 5-acetyl-8-methoxy-3a,4,5,9b-tetrahydro-3H-cyclopenta(c)quinoline-4-carboxylate'
_symmetry_cell_setting           triclinic
_symmetry_space_group_name_H-M   'P -1'
_symmetry_Int_Tables_number      2
_space_group_name_Hall           '-P 1'
loop_
_symmetry_equiv_pos_site_id
_symmetry_equiv_pos_as_xyz
1 x,y,z
2 -x,-y,-z
_cell_length_a                   9.2885(4)
_cell_length_b                   9.7175(4)
_cell_length_c                   10.1841(5)
_cell_angle_alpha                67.610(2)
_cell_angle_beta                 83.860(2)
_cell_angle_gamma                66.887(2)
_cell_volume                     780.727
_exptl_crystal_colour            'pale orange'
_exptl_crystal_description       needle
_chemical_melting_point          109deg.C
_cell_formula_units_Z            2
loop_
_atom_site_label
_atom_site_type_symbol
_atom_site_fract_x
_atom_site_fract_y
_atom_site_fract_z
O1 O 0.49036(12) 0.32942(13) 1.18180(11)
O2 O 0.84164(13) 0.25104(12) 0.72193(11)
O3 O 0.88362(13) 0.18649(12) 0.52777(11)
N1 N 0.83279(14) -0.05876(13) 0.87924(12)
O4 O 0.99646(14) -0.29090(12) 0.85594(12)
C1 C 0.74131(16) 0.03551(16) 0.96011(14)
C2 C 0.50021(16) 0.23851(16) 0.98694(15)
H1 H 0.3947 0.3089 0.9562
C3 C 0.58766(16) 0.13960(16) 0.91270(14)
C4 C 0.72074(16) 0.13111(17) 1.15057(15)
H2 H 0.7661 0.1274 1.2318
C5 C 0.80797(16) 0.03386(16) 1.07781(15)
H3 H 0.9141 -0.0347 1.1079
C6 C 0.62530(17) 0.05033(17) 0.69778(15)
H4 H 0.6129 -0.0551 0.7294
C7 C 0.56631(16) 0.23470(16) 1.10518(15)
C8 C 0.51458(16) 0.15168(16) 0.78077(15)
H5 H 0.4249 0.1158 0.8102
C9 C 0.84167(16) 0.16581(17) 0.66185(14)
C10 C 0.79834(17) 0.01844(16) 0.72490(14)
H6 H 0.8652 -0.0610 0.6816
C11 C 0.92295(16) -0.22098(16) 0.93431(15)
C12 C 0.92833(17) -0.31237(17) 1.09219(15)
H7 H 0.9971 -0.4257 1.1146
H8 H 0.8225 -0.3048 1.1220
H9 H 0.9689 -0.2660 1.1427
C13 C 0.56537(19) 0.14836(18) 0.54054(16)
H13 H 0.6535 0.1423 0.4762
H14 H 0.4938 0.1096 0.5129
C14 C 0.45277(18) 0.31933(17) 0.66714(16)
H15 H 0.4006 0.4149 0.6866
C15 C 0.9271(2) 0.32499(19) 0.45252(16)
H16 H 0.8579 0.4168 0.4792
H17 H 0.9114 0.3572 0.3488
C16 C 0.33243(18) 0.43996(18) 1.13710(18)
H18 H 0.2922 0.4999 1.2006
H19 H 0.2672 0.3803 1.1405
H20 H 0.3297 0.5155 1.0396
C17 C 0.47994(19) 0.31707(18) 0.53788(16)
H21 H 0.4493 0.4107 0.4533
C18 C 1.0949(2) 0.2873(2) 0.4870(2)
H22 H 1.1201 0.3824 0.4349
H23 H 1.1637 0.1977 0.4591
H24 H 1.1102 0.2573 0.5894
H10? H 0.8619 -0.2386 1.1382
H11? H 1.0365 -0.3596 1.1309
H12? H 0.8900 -0.3983 1.1102
loop_
_geom_bond_atom_site_label_1
_geom_bond_atom_site_label_2
_geom_bond_site_symmetry_1
_geom_bond_site_symmetry_2
O1 C7 1_555 1_555
O2 C9 1_555 1_555
O3 C9 1_555 1_555
N1 C1 1_555 1_555
O4 C11 1_555 1_555
C1 C3 1_555 1_555
C2 H1 1_555 1_555
C3 C2 1_555 1_555
C4 H2 1_555 1_555
C5 C1 1_555 1_555
H3 C5 1_555 1_555
C6 H4 1_555 1_555
C7 C2 1_555 1_555
C8 C3 1_555 1_555
H5 C8 1_555 1_555
C9 C10 1_555 1_555
C10 N1 1_555 1_555
H6 C10 1_555 1_555
C11 N1 1_555 1_555
C12 C11 1_555 1_555
H7 C12 1_555 1_555
H8 C12 1_555 1_555
H9 C12 1_555 1_555
C13 C6 1_555 1_555
H13 C13 1_555 1_555
H14 C13 1_555 1_555
C14 C8 1_555 1_555
H15 C14 1_555 1_555
C15 O3 1_555 1_555
H16 C15 1_555 1_555
H17 C15 1_555 1_555
C16 O1 1_555 1_555
H18 C16 1_555 1_555
H19 C16 1_555 1_555
H20 C16 1_555 1_555
C17 C13 1_555 1_555
H21 C17 1_555 1_555
C18 C15 1_555 1_555
H22 C18 1_555 1_555
H23 C18 1_555 1_555
H24 C18 1_555 1_555
C4 C5 1_555 1_555
C4 C7 1_555 1_555
C6 C10 1_555 1_555
C6 C8 1_555 1_555
C14 C17 1_555 1_555

#END
