
#######################################################################
#
#                 Cambridge Crystallographic Data Centre
#                                CCDC 
#
#######################################################################
#
# If this CIF has been generated from an entry in the Cambridge 
# Structural Database, then it will include bibliographic, chemical, 
# crystal, experimental, refinement or atomic coordinate data resulting 
# from the CCDC's data processing and validation procedures.
#
#######################################################################

data_LAGVIZ
_chemical_formula_moiety         'C17 H19 N1 O5'
_chemical_name_systematic        
'Ethyl 4-(2-(acetyloxy)ethyl)-6-methoxyquinoline-2-carboxylate'
_symmetry_cell_setting           monoclinic
_symmetry_space_group_name_H-M   'P 21/n'
_symmetry_Int_Tables_number      14
_space_group_name_Hall           '-P 2yn'
loop_
_symmetry_equiv_pos_site_id
_symmetry_equiv_pos_as_xyz
1 x,y,z
2 1/2-x,1/2+y,1/2-z
3 -x,-y,-z
4 1/2+x,1/2-y,1/2+z
_cell_length_a                   7.959(14)
_cell_length_b                   16.440(14)
_cell_length_c                   12.342(13)
_cell_angle_alpha                90
_cell_angle_beta                 90.010(10)
_cell_angle_gamma                90
_cell_volume                     1614.9
_exptl_crystal_colour            colorless
_exptl_crystal_description       prism
_chemical_melting_point          110-112deg.C
_cell_formula_units_Z            4
loop_
_atom_site_label
_atom_site_type_symbol
_atom_site_fract_x
_atom_site_fract_y
_atom_site_fract_z
O1 O 0.95267(18) 0.62775(9) 0.53294(15)
O2 O 0.75015(15) 0.71542(7) 0.57406(10)
O3 O 0.7437(4) 0.21979(16) 0.5541(2)
O4 O 0.5528(2) 0.17631(10) 0.67435(14)
O5 O 0.11818(16) 0.36479(8) 0.79734(12)
N1 N 0.55891(18) 0.59644(9) 0.65006(13)
C1 C 0.6997(2) 0.57556(11) 0.60325(16)
C2 C 0.7645(5) 0.4968(3) 0.6110(4)
H1 H 0.8759 0.4875 0.5918
C3 C 0.6696(5) 0.4340(2) 0.6456(3)
C4 C 0.3804(2) 0.39290(11) 0.70831(17)
H2 H 0.405 0.3379 0.7004
C5 C 0.2355(2) 0.41592(11) 0.75615(16)
C6 C 0.1960(3) 0.49825(13) 0.7659(2)
H3 H 0.0938 0.5133 0.7964
C7 C 0.3030(2) 0.55638(12) 0.73194(18)
H4 H 0.2753 0.6109 0.741
C8 C 0.4559(2) 0.53524(11) 0.68304(14)
C9 C 0.4945(2) 0.45193(11) 0.67025(17)
C10 C 0.8145(2) 0.64122(12) 0.56698(17)
C11 C 0.8589(3) 0.78137(12) 0.54304(18)
H5 H 0.9068 0.7707 0.4722
H6 H 0.9502 0.7864 0.5947
C12 C 0.7607(3) 0.85753(13) 0.5401(2)
H7 H 0.8328 0.9018 0.5199
H8 H 0.7139 0.8678 0.6105
H9 H 0.6717 0.8525 0.4881
C13 C 0.7388(5) 0.3457(3) 0.6484(4)
H10 H 0.8607 0.3462 0.6467
H11 H 0.7026 0.3183 0.714
C14 C 0.6725(6) 0.3041(3) 0.5529(4)
H12 H 0.7059 0.3324 0.4874
H13 H 0.5507 0.3021 0.5556
C15 C 0.6755(3) 0.16238(12) 0.62172(19)
C16 C 0.7381(3) 0.08150(14) 0.5893(2)
H14 H 0.8391 0.0877 0.5476
H15 H 0.6545 0.0544 0.5465
H16 H 0.7616 0.0498 0.6529
C17 C 0.1497(3) 0.27952(12) 0.79038(19)
H17 H 0.1672 0.2647 0.716
H18 H 0.0551 0.2502 0.8186
H19 H 0.2481 0.2663 0.8318
H20? H 0.6643 0.0403 0.6171
H21? H 0.8489 0.0735 0.6182
H22? H 0.7418 0.0781 0.5117
O6? O 0.8006(3) 0.21903(15) 0.6156(2)
C18? C 0.7300(5) 0.4935(3) 0.5641(3)
H23? H 0.8215 0.4831 0.5193
C19? C 0.6251(5) 0.4318(2) 0.5926(3)
C20? C 0.6644(5) 0.3474(2) 0.5614(3)
H24? H 0.7312 0.3483 0.4957
H25? H 0.5602 0.3194 0.545
C21? C 0.7606(5) 0.2984(2) 0.6489(3)
H26? H 0.8636 0.327 0.6669
H27? H 0.6925 0.2957 0.714
loop_
_geom_bond_atom_site_label_1
_geom_bond_atom_site_label_2
_geom_bond_site_symmetry_1
_geom_bond_site_symmetry_2
O1 C10 1_555 1_555
O2 C10 1_555 1_555
O3 C14 1_555 1_555
O4 C15 1_555 1_555
O5 C5 1_555 1_555
N1 C1 1_555 1_555
C1 C2 1_555 1_555
C2 H1 1_555 1_555
C3 C2 1_555 1_555
C4 H2 1_555 1_555
C5 C4 1_555 1_555
C6 C5 1_555 1_555
H3 C6 1_555 1_555
C7 C6 1_555 1_555
H4 C7 1_555 1_555
C8 N1 1_555 1_555
C9 C3 1_555 1_555
C10 C1 1_555 1_555
C11 O2 1_555 1_555
H5 C11 1_555 1_555
H6 C11 1_555 1_555
C12 C11 1_555 1_555
H7 C12 1_555 1_555
H8 C12 1_555 1_555
H9 C12 1_555 1_555
C13 C3 1_555 1_555
H10 C13 1_555 1_555
H11 C13 1_555 1_555
C14 C13 1_555 1_555
H12 C14 1_555 1_555
H13 C14 1_555 1_555
C15 O3 1_555 1_555
C16 C15 1_555 1_555
H14 C16 1_555 1_555
H15 C16 1_555 1_555
H16 C16 1_555 1_555
C17 O5 1_555 1_555
H17 C17 1_555 1_555
H18 C17 1_555 1_555
H19 C17 1_555 1_555
C4 C9 1_555 1_555
C7 C8 1_555 1_555
C8 C9 1_555 1_555

#END
