
#######################################################################
#
#                 Cambridge Crystallographic Data Centre
#                                CCDC 
#
#######################################################################
#
# If this CIF has been generated from an entry in the Cambridge 
# Structural Database, then it will include bibliographic, chemical, 
# crystal, experimental, refinement or atomic coordinate data resulting 
# from the CCDC's data processing and validation procedures.
#
#######################################################################

data_LAHBAY
_chemical_formula_moiety         'C20 H8 F4 N2'
_chemical_name_systematic        1,4-bis(4-Pyridylethynyl)tetrafluorobenzene
_symmetry_cell_setting           monoclinic
_symmetry_space_group_name_H-M   'P 21/n'
_symmetry_Int_Tables_number      14
_space_group_name_Hall           '-P 2yn'
loop_
_symmetry_equiv_pos_site_id
_symmetry_equiv_pos_as_xyz
1 x,y,z
2 1/2+x,1/2-y,1/2+z
3 -x,-y,-z
4 1/2-x,1/2+y,1/2-z
_cell_length_a                   5.7867(10)
_cell_length_b                   10.5564(12)
_cell_length_c                   13.1116(11)
_cell_angle_alpha                90
_cell_angle_beta                 102.577(11)
_cell_angle_gamma                90
_cell_volume                     781.725
_exptl_crystal_colour            colorless
_exptl_crystal_description       'hexagonal prism'
_chemical_melting_point          '508 K'
_cell_formula_units_Z            2
_exptl_crystal_recrystallization_method toluene
_exptl_crystal_preparation       luminuescent
loop_
_atom_site_label
_atom_site_type_symbol
_atom_site_fract_x
_atom_site_fract_y
_atom_site_fract_z
N1 N 0.3131(2) 0.59750(12) 0.71580(10)
C1 C 0.4914(3) 0.61723(14) 0.66784(12)
H1 H 0.5295(33) 0.7058(22) 0.6612(14)
C2 C 0.6131(3) 0.52105(14) 0.63028(12)
H2 H 0.7339(36) 0.5416(19) 0.5978(16)
C3 C 0.5483(2) 0.39593(13) 0.64346(11)
C4 C 0.3631(3) 0.37339(13) 0.69362(12)
H3 H 0.3156(32) 0.2928(19) 0.7044(14)
C5 C 0.2531(3) 0.4766(2) 0.72768(12)
H4 H 0.1273(35) 0.4606(19) 0.7626(16)
C6 C 0.6668(2) 0.29264(13) 0.60519(11)
C7 C 0.7634(2) 0.20631(13) 0.57301(11)
C8 C 0.8806(2) 0.10318(13) 0.53579(10)
C9 C 1.0614(2) 0.12262(12) 0.48216(11)
C10 C 0.8234(2) -0.02263(13) 0.55237(11)
F1 F 1.1228(2) 0.24097(7) 0.46267(7)
F2 F 0.65212(14) -0.04691(8) 0.60416(7)
C10B C 1.1766(2) 0.02263(13) 0.44763(11)
C8B C 1.1194(2) -0.10318(13) 0.46421(10)
C7B C 1.2366(2) -0.20631(13) 0.42699(11)
C6B C 1.3332(2) -0.29264(13) 0.39481(11)
C3B C 1.4517(2) -0.39593(13) 0.35654(11)
C2B C 1.3869(3) -0.52105(14) 0.36972(12)
C1B C 1.5086(3) -0.61723(14) 0.33216(12)
N1B N 1.6869(2) -0.59750(12) 0.28420(10)
C5B C 1.7469(3) -0.4766(2) 0.27232(12)
C4B C 1.6369(3) -0.37339(13) 0.30638(12)
H3B H 1.6844(32) -0.2928(19) 0.2956(14)
H4B H 1.8727(35) -0.4606(19) 0.2374(16)
H1B H 1.4705(33) -0.7058(22) 0.3388(14)
H2B H 1.2661(36) -0.5416(19) 0.4022(16)
C9B C 0.9386(2) -0.12262(12) 0.51784(11)
F1B F 0.8772(2) -0.24097(7) 0.53733(7)
F2B F 1.34788(14) 0.04691(8) 0.39584(7)
loop_
_geom_bond_atom_site_label_1
_geom_bond_atom_site_label_2
_geom_bond_site_symmetry_1
_geom_bond_site_symmetry_2
N1 C1 1_555 1_555
C1 H1 1_555 1_555
C2 C1 1_555 1_555
H2 C2 1_555 1_555
C3 C2 1_555 1_555
C4 C3 1_555 1_555
H3 C4 1_555 1_555
C5 N1 1_555 1_555
H4 C5 1_555 1_555
C6 C3 1_555 1_555
C7 C6 1_555 1_555
C8 C7 1_555 1_555
C9 C8 1_555 1_555
C10 C8 1_555 1_555
F1 C9 1_555 1_555
F2 C10 1_555 1_555
C10B C9 1_555 1_555
C8B C10B 1_555 1_555
C7B C8B 1_555 1_555
C6B C7B 1_555 1_555
C3B C6B 1_555 1_555
C2B C3B 1_555 1_555
C1B C2B 1_555 1_555
N1B C1B 1_555 1_555
C5B N1B 1_555 1_555
C4B C3B 1_555 1_555
H3B C4B 1_555 1_555
H4B C5B 1_555 1_555
H1B C1B 1_555 1_555
H2B C2B 1_555 1_555
C9B C10 1_555 1_555
F1B C9B 1_555 1_555
F2B C10B 1_555 1_555
C4 C5 1_555 1_555
C8B C9B 1_555 1_555
C5B C4B 1_555 1_555

#END
