
#######################################################################
#
#                 Cambridge Crystallographic Data Centre
#                                CCDC 
#
#######################################################################
#
# If this CIF has been generated from an entry in the Cambridge 
# Structural Database, then it will include bibliographic, chemical, 
# crystal, experimental, refinement or atomic coordinate data resulting 
# from the CCDC's data processing and validation procedures.
#
#######################################################################

data_LAHBIG
_chemical_formula_moiety         'C28 H16 N2'
_chemical_name_systematic        9,10-bis(4-Pyridylethynyl)anthracene
_symmetry_cell_setting           monoclinic
_symmetry_space_group_name_H-M   'C 2/c'
_symmetry_Int_Tables_number      15
_space_group_name_Hall           '-C 2yn'
loop_
_symmetry_equiv_pos_site_id
_symmetry_equiv_pos_as_xyz
1 x,y,z
2 1/2+x,1/2+y,z
3 x,-y,1/2+z
4 1/2+x,1/2-y,1/2+z
5 -x,-y,-z
6 1/2-x,1/2-y,-z
7 -x,y,1/2-z
8 1/2-x,1/2+y,1/2-z
_cell_length_a                   11.0445(13)
_cell_length_b                   23.945(3)
_cell_length_c                   7.2480(9)
_cell_angle_alpha                90
_cell_angle_beta                 96.940(3)
_cell_angle_gamma                90
_cell_volume                     1902.77
_exptl_crystal_colour            orange
_exptl_crystal_description       Block
_chemical_melting_point          '506 K'
_cell_formula_units_Z            4
_exptl_crystal_recrystallization_method 'ethyl acetate/hexane'
_exptl_crystal_preparation       luminescent
loop_
_atom_site_label
_atom_site_type_symbol
_atom_site_fract_x
_atom_site_fract_y
_atom_site_fract_z
N1 N 0.5000 0.71826(6) 0.2500
C1 C 0.59271(14) 0.68876(5) 0.20095(18)
H1 H 0.6599 0.7088 0.1634
C2 C 0.59888(11) 0.63111(5) 0.20045(16)
H2 H 0.6690 0.6125 0.1671
C3 C 0.5000 0.60101(6) 0.2500
C4 C 0.5000 0.54129(6) 0.2500
C5 C 0.5000 0.49121(6) 0.2500
C6 C 0.5000 0.43156(6) 0.2500
C7 C 0.60549(9) 0.40236(4) 0.21230(14)
C8 C 0.71331(10) 0.43065(4) 0.17431(15)
H3 H 0.7149 0.4703 0.1744
C9 C 0.81407(10) 0.40188(5) 0.13785(17)
H4 H 0.8850 0.4216 0.1133
C10 C 0.81369(10) 0.34248(5) 0.13623(17)
H5 H 0.8844 0.3227 0.1110
C11 C 0.71236(10) 0.31408(4) 0.17066(15)
H6 H 0.7129 0.2744 0.1677
C12 C 0.60530(9) 0.34251(4) 0.21109(14)
C13 C 0.5000 0.31343(5) 0.2500
C14 C 0.5000 0.25363(6) 0.2500
C15 C 0.5000 0.20364(6) 0.2500
C16 C 0.5000 0.14371(6) 0.2500
C17 C 0.42273(10) 0.11354(4) 0.11953(16)
H7 H 0.3684 0.1323 0.0284
C18 C 0.42685(11) 0.05569(4) 0.12543(17)
H8 H 0.3743 0.0357 0.0352
N2 N 0.5000 0.02625(5) 0.2500
C2F C 0.40112(11) 0.63111(5) 0.29955(16)
C1F C 0.40729(14) 0.68876(5) 0.29905(18)
H1F H 0.3401 0.7088 0.3366
H2F H 0.3310 0.6125 0.3329
C12F C 0.39470(9) 0.34251(4) 0.28891(14)
C7F C 0.39451(9) 0.40236(4) 0.28770(14)
C8F C 0.28669(10) 0.43065(4) 0.32569(15)
H3F H 0.2851 0.4703 0.3256
C9F C 0.18593(10) 0.40188(5) 0.36215(17)
H4F H 0.1150 0.4216 0.3867
C10F C 0.18631(10) 0.34248(5) 0.36377(17)
H5F H 0.1156 0.3227 0.3890
C11F C 0.28764(10) 0.31408(4) 0.32934(15)
H6F H 0.2871 0.2744 0.3323
C18F C 0.57315(11) 0.05569(4) 0.37457(17)
C17F C 0.57727(10) 0.11354(4) 0.38047(16)
H7F H 0.6316 0.1323 0.4716
H8F H 0.6257 0.0357 0.4648
loop_
_geom_bond_atom_site_label_1
_geom_bond_atom_site_label_2
_geom_bond_site_symmetry_1
_geom_bond_site_symmetry_2
N1 C1 1_555 1_555
C1 H1 1_555 1_555
C2 C1 1_555 1_555
H2 C2 1_555 1_555
C3 C2 1_555 1_555
C4 C3 1_555 1_555
C5 C4 1_555 1_555
C6 C5 1_555 1_555
C7 C6 1_555 1_555
C8 C7 1_555 1_555
H3 C8 1_555 1_555
C9 C8 1_555 1_555
H4 C9 1_555 1_555
C10 C9 1_555 1_555
H5 C10 1_555 1_555
C11 C10 1_555 1_555
H6 C11 1_555 1_555
C12 C7 1_555 1_555
C13 C12 1_555 1_555
C14 C13 1_555 1_555
C15 C14 1_555 1_555
C16 C15 1_555 1_555
C17 C16 1_555 1_555
H7 C17 1_555 1_555
C18 C17 1_555 1_555
H8 C18 1_555 1_555
N2 C18 1_555 1_555
C2F C3 1_555 1_555
C1F N1 1_555 1_555
H1F C1F 1_555 1_555
H2F C2F 1_555 1_555
C12F C13 1_555 1_555
C7F C6 1_555 1_555
C8F C7F 1_555 1_555
H3F C8F 1_555 1_555
C9F C8F 1_555 1_555
H4F C9F 1_555 1_555
C10F C9F 1_555 1_555
H5F C10F 1_555 1_555
C11F C12F 1_555 1_555
H6F C11F 1_555 1_555
C18F N2 1_555 1_555
C17F C16 1_555 1_555
H7F C17F 1_555 1_555
H8F C18F 1_555 1_555
C11 C12 1_555 1_555
C2F C1F 1_555 1_555
C12F C7F 1_555 1_555
C10F C11F 1_555 1_555
C18F C17F 1_555 1_555

#END
