
#######################################################################
#
#                 Cambridge Crystallographic Data Centre
#                                CCDC 
#
#######################################################################
#
# If this CIF has been generated from an entry in the Cambridge 
# Structural Database, then it will include bibliographic, chemical, 
# crystal, experimental, refinement or atomic coordinate data resulting 
# from the CCDC's data processing and validation procedures.
#
#######################################################################

data_LAHCIJ01
_chemical_name_common            
1,4-diketo-2,5-bis(tetradecyl)-3,6-bis-(4-chlorophenyl)pyrrolo[3,4-c]pyrrole
_chemical_formula_moiety         'C46 H66 Cl2 N2 O2'
_chemical_name_systematic        
3,6-bis(4-chlorophenyl)-2,5-ditetradecyl-2,5-dihydropyrrolo[3,4-c]pyrrole-1,4-dione
_symmetry_cell_setting           monoclinic
_symmetry_space_group_name_H-M   'P 21/c'
_symmetry_Int_Tables_number      14
_space_group_name_Hall           '-P 2ybc'
loop_
_symmetry_equiv_pos_site_id
_symmetry_equiv_pos_as_xyz
1 x,y,z
2 -x,1/2+y,1/2-z
3 -x,-y,-z
4 x,1/2-y,1/2+z
_cell_length_a                   21.085(4)
_cell_length_b                   4.8864(8)
_cell_length_c                   21.502(4)
_cell_angle_alpha                90
_cell_angle_beta                 113.73(2)
_cell_angle_gamma                90
_cell_volume                     2028.04
_exptl_crystal_colour            red
_exptl_crystal_description       needle
_cell_formula_units_Z            2
loop_
_atom_site_label
_atom_site_type_symbol
_atom_site_fract_x
_atom_site_fract_y
_atom_site_fract_z
C1 C -0.08960(11) 0.8596(5) 0.13587(11)
C2 C -0.02298(11) 0.7785(5) 0.17676(11)
H1 H 0.0004 0.8593 0.2202
C3 C -0.12482(11) 0.7403(5) 0.07282(10)
H2 H -0.1712 0.7920 0.0456
C4 C 0.00959(11) 0.5800(5) 0.15444(10)
H3 H 0.0550 0.5224 0.1834
C5 C -0.09173(11) 0.5451(5) 0.04996(10)
H4 H -0.1158 0.4655 0.0064
C6 C -0.02341(11) 0.4612(5) 0.08933(10)
C7 C 0.00824(10) 0.2553(5) 0.06098(10)
C8 C -0.02425(10) 0.0895(5) 0.00467(10)
C9 C 0.09157(10) -0.0266(5) 0.04836(10)
C10 C 0.13912(10) 0.3110(5) 0.14036(10)
H5 H 0.1271 0.5001 0.1482
H6 H 0.1771 0.3223 0.1245
C11 C 0.16495(10) 0.1560(5) 0.20737(10)
H7 H 0.1708 -0.0398 0.1991
H8 H 0.1302 0.1691 0.2274
C12 C 0.23385(10) 0.2721(5) 0.25722(10)
H9 H 0.2281 0.4701 0.2633
H10 H 0.2687 0.2522 0.2375
C13 C 0.26105(11) 0.1330(5) 0.32667(10)
H11 H 0.2258 0.1484 0.3460
H12 H 0.2683 -0.0639 0.3209
C14 C 0.32865(11) 0.2569(5) 0.37625(10)
H13 H 0.3223 0.4565 0.3791
H14 H 0.3648 0.2289 0.3585
C15 C 0.35376(11) 0.1340(5) 0.44769(10)
H15 H 0.3181 0.1659 0.4659
H16 H 0.3590 -0.0662 0.4446
C16 C 0.42217(11) 0.2530(5) 0.49692(10)
H17 H 0.4174 0.4540 0.4989
H18 H 0.4583 0.2158 0.4796
C17 C 0.44558(11) 0.1355(5) 0.56859(10)
H19 H 0.4089 0.1690 0.5853
H20 H 0.4511 -0.0651 0.5665
C18 C 0.51332(11) 0.2559(5) 0.61920(10)
H21 H 0.5082 0.4567 0.6211
H22 H 0.5504 0.2199 0.6031
C19 C 0.53494(11) 0.1380(5) 0.69044(10)
H23 H 0.4972 0.1702 0.7059
H24 H 0.5408 -0.0624 0.6884
C20 C 0.60172(11) 0.2586(5) 0.74251(10)
H25 H 0.5964 0.4595 0.7442
H26 H 0.6398 0.2227 0.7278
C21 C 0.62138(11) 0.1411(5) 0.81372(10)
H27 H 0.5822 0.1688 0.8273
H28 H 0.6288 -0.0584 0.8123
C22 C 0.68620(11) 0.2689(5) 0.86731(11)
H29 H 0.6791 0.4686 0.8689
H30 H 0.7257 0.2402 0.8542
C23 C 0.70410(11) 0.1478(6) 0.93788(11)
H31 H 0.6647 0.1711 0.9506
H32 H 0.7447 0.2421 0.9710
H33 H 0.7144 -0.0476 0.9374
Cl1 Cl -0.13030(3) 1.11357(12) 0.16399(3)
N1 N 0.07843(8) 0.1849(4) 0.08675(8)
O1 O 0.14981(7) -0.1194(3) 0.06329(7)
C1B C 0.08960(11) -0.8596(5) -0.13587(11)
C2B C 0.02298(11) -0.7785(5) -0.17676(11)
H1B H -0.0004 -0.8593 -0.2202
C3B C 0.12482(11) -0.7403(5) -0.07282(10)
H2B H 0.1712 -0.7920 -0.0456
C4B C -0.00959(11) -0.5800(5) -0.15444(10)
H3B H -0.0550 -0.5224 -0.1834
C5B C 0.09173(11) -0.5451(5) -0.04996(10)
H4B H 0.1158 -0.4655 -0.0064
C6B C 0.02341(11) -0.4612(5) -0.08933(10)
C7B C -0.00824(10) -0.2553(5) -0.06098(10)
C8B C 0.02425(10) -0.0895(5) -0.00467(10)
C9B C -0.09157(10) 0.0266(5) -0.04836(10)
C10B C -0.13912(10) -0.3110(5) -0.14036(10)
H5B H -0.1271 -0.5001 -0.1482
H6B H -0.1771 -0.3223 -0.1245
C11B C -0.16495(10) -0.1560(5) -0.20737(10)
H7B H -0.1708 0.0398 -0.1991
H8B H -0.1302 -0.1691 -0.2274
C12B C -0.23385(10) -0.2721(5) -0.25722(10)
H9B H -0.2281 -0.4701 -0.2633
H10B H -0.2687 -0.2522 -0.2375
C13B C -0.26105(11) -0.1330(5) -0.32667(10)
H11B H -0.2258 -0.1484 -0.3460
H12B H -0.2683 0.0639 -0.3209
C14B C -0.32865(11) -0.2569(5) -0.37625(10)
H13B H -0.3223 -0.4565 -0.3791
H14B H -0.3648 -0.2289 -0.3585
C15B C -0.35376(11) -0.1340(5) -0.44769(10)
H15B H -0.3181 -0.1659 -0.4659
H16B H -0.3590 0.0662 -0.4446
C16B C -0.42217(11) -0.2530(5) -0.49692(10)
H17B H -0.4174 -0.4540 -0.4989
H18B H -0.4583 -0.2158 -0.4796
C17B C -0.44558(11) -0.1355(5) -0.56859(10)
H19B H -0.4089 -0.1690 -0.5853
H20B H -0.4511 0.0651 -0.5665
C18B C -0.51332(11) -0.2559(5) -0.61920(10)
H21B H -0.5082 -0.4567 -0.6211
H22B H -0.5504 -0.2199 -0.6031
C19B C -0.53494(11) -0.1380(5) -0.69044(10)
H23B H -0.4972 -0.1702 -0.7059
H24B H -0.5408 0.0624 -0.6884
C20B C -0.60172(11) -0.2586(5) -0.74251(10)
H25B H -0.5964 -0.4595 -0.7442
H26B H -0.6398 -0.2227 -0.7278
C21B C -0.62138(11) -0.1411(5) -0.81372(10)
H27B H -0.5822 -0.1688 -0.8273
H28B H -0.6288 0.0584 -0.8123
C22B C -0.68620(11) -0.2689(5) -0.86731(11)
H29B H -0.6791 -0.4686 -0.8689
H30B H -0.7257 -0.2402 -0.8542
C23B C -0.70410(11) -0.1478(6) -0.93788(11)
H31B H -0.6647 -0.1711 -0.9506
H32B H -0.7447 -0.2421 -0.9710
H33B H -0.7144 0.0476 -0.9374
Cl1B Cl 0.13030(3) -1.11357(12) -0.16399(3)
N1B N -0.07843(8) -0.1849(4) -0.08675(8)
O1B O -0.14981(7) 0.1194(3) -0.06329(7)
loop_
_geom_bond_atom_site_label_1
_geom_bond_atom_site_label_2
_geom_bond_site_symmetry_1
_geom_bond_site_symmetry_2
C1 C2 1_555 1_555
C2 H1 1_555 1_555
C3 C1 1_555 1_555
H2 C3 1_555 1_555
C4 C2 1_555 1_555
H3 C4 1_555 1_555
C5 C3 1_555 1_555
H4 C5 1_555 1_555
C6 C4 1_555 1_555
C7 C6 1_555 1_555
C8 C7 1_555 1_555
C9 N1 1_555 1_555
C10 H5 1_555 1_555
H6 C10 1_555 1_555
C11 C10 1_555 1_555
H7 C11 1_555 1_555
H8 C11 1_555 1_555
C12 C11 1_555 1_555
H9 C12 1_555 1_555
H10 C12 1_555 1_555
C13 C12 1_555 1_555
H11 C13 1_555 1_555
H12 C13 1_555 1_555
C14 C13 1_555 1_555
H13 C14 1_555 1_555
H14 C14 1_555 1_555
C15 C14 1_555 1_555
H15 C15 1_555 1_555
H16 C15 1_555 1_555
C16 C15 1_555 1_555
H17 C16 1_555 1_555
H18 C16 1_555 1_555
C17 C16 1_555 1_555
H19 C17 1_555 1_555
H20 C17 1_555 1_555
C18 C17 1_555 1_555
H21 C18 1_555 1_555
H22 C18 1_555 1_555
C19 C18 1_555 1_555
H23 C19 1_555 1_555
H24 C19 1_555 1_555
C20 C19 1_555 1_555
H25 C20 1_555 1_555
H26 C20 1_555 1_555
C21 C20 1_555 1_555
H27 C21 1_555 1_555
H28 C21 1_555 1_555
C22 C21 1_555 1_555
H29 C22 1_555 1_555
H30 C22 1_555 1_555
C23 C22 1_555 1_555
H31 C23 1_555 1_555
H32 C23 1_555 1_555
H33 C23 1_555 1_555
Cl1 C1 1_555 1_555
N1 C7 1_555 1_555
O1 C9 1_555 1_555
C1B C2B 1_555 1_555
C2B H1B 1_555 1_555
C3B C1B 1_555 1_555
H2B C3B 1_555 1_555
C4B C2B 1_555 1_555
H3B C4B 1_555 1_555
C5B C3B 1_555 1_555
H4B C5B 1_555 1_555
C6B C4B 1_555 1_555
C7B C6B 1_555 1_555
C8B C8 1_555 1_555
C9B C8 1_555 1_555
C10B H5B 1_555 1_555
H6B C10B 1_555 1_555
C11B C10B 1_555 1_555
H7B C11B 1_555 1_555
H8B C11B 1_555 1_555
C12B C11B 1_555 1_555
H9B C12B 1_555 1_555
H10B C12B 1_555 1_555
C13B C12B 1_555 1_555
H11B C13B 1_555 1_555
H12B C13B 1_555 1_555
C14B C13B 1_555 1_555
H13B C14B 1_555 1_555
H14B C14B 1_555 1_555
C15B C14B 1_555 1_555
H15B C15B 1_555 1_555
H16B C15B 1_555 1_555
C16B C15B 1_555 1_555
H17B C16B 1_555 1_555
H18B C16B 1_555 1_555
C17B C16B 1_555 1_555
H19B C17B 1_555 1_555
H20B C17B 1_555 1_555
C18B C17B 1_555 1_555
H21B C18B 1_555 1_555
H22B C18B 1_555 1_555
C19B C18B 1_555 1_555
H23B C19B 1_555 1_555
H24B C19B 1_555 1_555
C20B C19B 1_555 1_555
H25B C20B 1_555 1_555
H26B C20B 1_555 1_555
C21B C20B 1_555 1_555
H27B C21B 1_555 1_555
H28B C21B 1_555 1_555
C22B C21B 1_555 1_555
H29B C22B 1_555 1_555
H30B C22B 1_555 1_555
C23B C22B 1_555 1_555
H31B C23B 1_555 1_555
H32B C23B 1_555 1_555
H33B C23B 1_555 1_555
Cl1B C1B 1_555 1_555
N1B C7B 1_555 1_555
O1B C9B 1_555 1_555
C5 C6 1_555 1_555
C9 C8B 1_555 1_555
C10 N1 1_555 1_555
C5B C6B 1_555 1_555
C7B C8B 1_555 1_555
C9B N1B 1_555 1_555
C10B N1B 1_555 1_555

#END
