
#######################################################################
#
#                 Cambridge Crystallographic Data Centre
#                                CCDC 
#
#######################################################################
#
# If this CIF has been generated from an entry in the Cambridge 
# Structural Database, then it will include bibliographic, chemical, 
# crystal, experimental, refinement or atomic coordinate data resulting 
# from the CCDC's data processing and validation procedures.
#
#######################################################################

data_LAHCON
_chemical_formula_moiety         'C40 H36 N2,C1 H2 Cl2'
_chemical_name_systematic        
"N,N,N',N'-tetrakis(4-Methylphenyl)-(1,1'-biphenyl)-4,4'-diamine dichloromethane solvate"
_symmetry_cell_setting           monoclinic
_symmetry_space_group_name_H-M   'C 2/c'
_symmetry_Int_Tables_number      15
_space_group_name_Hall           '-C 2yn'
loop_
_symmetry_equiv_pos_site_id
_symmetry_equiv_pos_as_xyz
1 x,y,z
2 1/2+x,1/2+y,z
3 x,-y,1/2+z
4 1/2+x,1/2-y,1/2+z
5 -x,-y,-z
6 1/2-x,1/2-y,-z
7 -x,y,1/2-z
8 1/2-x,1/2+y,1/2-z
_cell_length_a                   18.5659(3)
_cell_length_b                   13.6399(2)
_cell_length_c                   14.6862(2)
_cell_angle_alpha                90
_cell_angle_beta                 116.78(1)
_cell_angle_gamma                90
_cell_volume                     3320.19
_exptl_crystal_colour            colorless
_chemical_melting_point          '203-205 deg.C'
_cell_formula_units_Z            4
loop_
_atom_site_label
_atom_site_type_symbol
_atom_site_fract_x
_atom_site_fract_y
_atom_site_fract_z
N1 N 0.26024(6) 0.48846(7) 0.06632(7)
C1 C 0.03869(7) 0.46391(8) -0.20283(8)
C2 C 0.11198(7) 0.44139(9) -0.20329(9)
C3 C 0.18507(7) 0.44803(9) -0.11548(9)
C4 C 0.18706(7) 0.47756(8) -0.02332(8)
C5 C 0.11381(7) 0.49717(8) -0.02115(9)
C6 C 0.04151(7) 0.49093(8) -0.10900(9)
C7 C 0.27167(7) 0.57174(8) 0.13012(8)
C8 C 0.31718(7) 0.56198(9) 0.23531(9)
C9 C 0.33408(7) 0.64374(9) 0.29861(9)
C10 C 0.30573(7) 0.73647(9) 0.25867(10)
C11 C 0.25772(8) 0.74431(9) 0.15361(10)
C12 C 0.24080(7) 0.66363(9) 0.08962(9)
C13 C 0.32807(10) 0.82604(11) 0.32562(12)
C14 C 0.33159(7) 0.44063(8) 0.07518(8)
C15 C 0.33794(8) 0.33890(9) 0.08190(9)
C16 C 0.40869(8) 0.29334(9) 0.09413(10)
C17 C 0.47464(8) 0.34723(10) 0.10101(9)
C18 C 0.46693(8) 0.44885(10) 0.09264(10)
C19 C 0.39630(7) 0.49522(9) 0.07908(9)
C20 C 0.55247(10) 0.29757(14) 0.11870(13)
H1 H 0.1123(9) 0.4221(12) -0.2667(12)
H2 H 0.2337(9) 0.4357(11) -0.1178(11)
H3 H 0.1145(10) 0.5179(12) 0.0427(13)
H4 H -0.0072(10) 0.5072(11) -0.1063(12)
H5 H 0.3366(10) 0.4966(12) 0.2620(13)
H6 H 0.3653(10) 0.6352(12) 0.3691(13)
H7 H 0.2377(10) 0.8089(12) 0.1242(12)
H8 H 0.2096(9) 0.6719(11) 0.0174(12)
H9 H 0.3490(15) 0.8098(19) 0.395(2)
H10 H 0.3613(15) 0.8699(17) 0.3100(19)
H11 H 0.2821(15) 0.8667(18) 0.3156(19)
H12 H 0.2934(10) 0.3008(12) 0.0795(13)
H13 H 0.4117(11) 0.2198(14) 0.0961(14)
H14 H 0.5090(12) 0.4874(13) 0.0946(14)
H15 H 0.3902(10) 0.5672(13) 0.0719(13)
H16 H 0.5443(15) 0.2302(19) 0.0941(19)
H17 H 0.5808(15) 0.3313(19) 0.0873(19)
H18 H 0.5896(16) 0.284(2) 0.191(2)
C1F C -0.03869(7) 0.46391(8) -0.29717(8)
C2F C -0.11198(7) 0.44139(9) -0.29671(9)
C3F C -0.18507(7) 0.44803(9) -0.38452(9)
C4F C -0.18706(7) 0.47756(8) -0.47668(8)
N1F N -0.26024(6) 0.48846(7) -0.56632(7)
C7F C -0.27167(7) 0.57174(8) -0.63012(8)
C8F C -0.31718(7) 0.56198(9) -0.73531(9)
C9F C -0.33408(7) 0.64374(9) -0.79861(9)
C10F C -0.30573(7) 0.73647(9) -0.75867(10)
C11F C -0.25772(8) 0.74431(9) -0.65361(10)
C12F C -0.24080(7) 0.66363(9) -0.58962(9)
H8F H -0.2096(9) 0.6719(11) -0.5174(12)
H7F H -0.2377(10) 0.8089(12) -0.6242(12)
C13F C -0.32807(10) 0.82604(11) -0.82562(12)
H9F H -0.3490(15) 0.8098(19) -0.895(2)
H10F H -0.3613(15) 0.8699(17) -0.8100(19)
H11F H -0.2821(15) 0.8667(18) -0.8156(19)
H6F H -0.3653(10) 0.6352(12) -0.8691(13)
H5F H -0.3366(10) 0.4966(12) -0.7620(13)
C14F C -0.33159(7) 0.44063(8) -0.57518(8)
C15F C -0.33794(8) 0.33890(9) -0.58190(9)
C16F C -0.40869(8) 0.29334(9) -0.59413(10)
C17F C -0.47464(8) 0.34723(10) -0.60101(9)
C18F C -0.46693(8) 0.44885(10) -0.59264(10)
C19F C -0.39630(7) 0.49522(9) -0.57908(9)
H15F H -0.3902(10) 0.5672(13) -0.5719(13)
H14F H -0.5090(12) 0.4874(13) -0.5946(14)
C20F C -0.55247(10) 0.29757(14) -0.61870(13)
H16F H -0.5443(15) 0.2302(19) -0.5941(19)
H17F H -0.5808(15) 0.3313(19) -0.5873(19)
H18F H -0.5896(16) 0.284(2) -0.691(2)
H13F H -0.4117(11) 0.2198(14) -0.5961(14)
H12F H -0.2934(10) 0.3008(12) -0.5795(13)
C5F C -0.11381(7) 0.49717(8) -0.47885(9)
C6F C -0.04151(7) 0.49093(8) -0.39100(9)
H4F H 0.0072(10) 0.5072(11) -0.3937(12)
H3F H -0.1145(10) 0.5179(12) -0.5427(13)
H2F H -0.2337(9) 0.4357(11) -0.3822(11)
H1F H -0.1123(9) 0.4221(12) -0.2333(12)
Cl1 Cl 0.46247(3) 0.76033(3) 0.13896(4)
C21 C 0.5000 0.68881(14) 0.2500
H19 H 0.4558(11) 0.6505(15) 0.2475(15)
Cl1F Cl 0.53753(3) 0.76033(3) 0.36104(4)
H19F H 0.5442(11) 0.6505(15) 0.2525(15)
loop_
_geom_bond_atom_site_label_1
_geom_bond_atom_site_label_2
_geom_bond_site_symmetry_1
_geom_bond_site_symmetry_2
N1 C4 1_555 1_555
C1 C2 1_555 1_555
C2 C3 1_555 1_555
C3 C4 1_555 1_555
C4 C5 1_555 1_555
C5 C6 1_555 1_555
C6 C1 1_555 1_555
C7 N1 1_555 1_555
C8 C7 1_555 1_555
C9 C8 1_555 1_555
C10 C9 1_555 1_555
C11 C10 1_555 1_555
C12 C7 1_555 1_555
C13 C10 1_555 1_555
C14 N1 1_555 1_555
C15 C14 1_555 1_555
C16 C15 1_555 1_555
C17 C16 1_555 1_555
C18 C17 1_555 1_555
C19 C14 1_555 1_555
C20 C17 1_555 1_555
Cl1 C21 1_555 1_555
C21 H19 1_555 1_555
H1 C2 1_555 1_555
H2 C3 1_555 1_555
H3 C5 1_555 1_555
H4 C6 1_555 1_555
H5 C8 1_555 1_555
H6 C9 1_555 1_555
H7 C11 1_555 1_555
H8 C12 1_555 1_555
H9 C13 1_555 1_555
H10 C13 1_555 1_555
H11 C13 1_555 1_555
H12 C15 1_555 1_555
H13 C16 1_555 1_555
H14 C18 1_555 1_555
H15 C19 1_555 1_555
H16 C20 1_555 1_555
H17 C20 1_555 1_555
H18 C20 1_555 1_555
C1F C1 1_555 1_555
C2F C1F 1_555 1_555
C3F C2F 1_555 1_555
C4F C3F 1_555 1_555
N1F C4F 1_555 1_555
C7F N1F 1_555 1_555
C8F C7F 1_555 1_555
C9F C8F 1_555 1_555
C10F C9F 1_555 1_555
C11F C10F 1_555 1_555
C12F C7F 1_555 1_555
H8F C12F 1_555 1_555
H7F C11F 1_555 1_555
C13F C10F 1_555 1_555
H9F C13F 1_555 1_555
H10F C13F 1_555 1_555
H11F C13F 1_555 1_555
H6F C9F 1_555 1_555
H5F C8F 1_555 1_555
C14F N1F 1_555 1_555
C15F C14F 1_555 1_555
C16F C15F 1_555 1_555
C17F C16F 1_555 1_555
C18F C17F 1_555 1_555
C19F C14F 1_555 1_555
H15F C19F 1_555 1_555
H14F C18F 1_555 1_555
C20F C17F 1_555 1_555
H16F C20F 1_555 1_555
H17F C20F 1_555 1_555
H18F C20F 1_555 1_555
H13F C16F 1_555 1_555
H12F C15F 1_555 1_555
C5F C4F 1_555 1_555
C6F C1F 1_555 1_555
H4F C6F 1_555 1_555
H3F C5F 1_555 1_555
H2F C3F 1_555 1_555
H1F C2F 1_555 1_555
Cl1F C21 1_555 1_555
H19F C21 1_555 1_555
C11 C12 1_555 1_555
C18 C19 1_555 1_555
C11F C12F 1_555 1_555
C18F C19F 1_555 1_555
C5F C6F 1_555 1_555

#END
