
#######################################################################
#
#                 Cambridge Crystallographic Data Centre
#                                CCDC 
#
#######################################################################
#
# If this CIF has been generated from an entry in the Cambridge 
# Structural Database, then it will include bibliographic, chemical, 
# crystal, experimental, refinement or atomic coordinate data resulting 
# from the CCDC's data processing and validation procedures.
#
#######################################################################

data_LAHLOW01
_chemical_formula_moiety         'C15 H15 N1 O2'
_chemical_name_systematic        '2-[(2,6-dimethylphenyl)amino]benzoic acid'
_chemical_properties_biological  
'non-steroidal anti-inflammatory and thyroid drug'
_symmetry_cell_setting           triclinic
_symmetry_space_group_name_H-M   'P -1'
_symmetry_Int_Tables_number      2
_space_group_name_Hall           '-P 1'
loop_
_symmetry_equiv_pos_site_id
_symmetry_equiv_pos_as_xyz
1 x,y,z
2 -x,-y,-z
_cell_length_a                   7.4127(1)
_cell_length_b                   8.0298(1)
_cell_length_c                   10.9583(2)
_cell_angle_alpha                73.3544(8)
_cell_angle_beta                 83.3366(8)
_cell_angle_gamma                73.6078(8)
_cell_volume                     599.09
_exptl_crystal_colour            colorless
_exptl_crystal_description       block
_cell_formula_units_Z            2
loop_
_atom_site_label
_atom_site_type_symbol
_atom_site_fract_x
_atom_site_fract_y
_atom_site_fract_z
C1 C 0.89376(17) 0.50765(16) 0.19707(11)
C2 C 0.89827(16) 0.66923(16) 0.10211(11)
C3 C 1.07183(18) 0.69758(17) 0.04779(12)
H1 H 1.0736 0.8065 -0.0154
C4 C 1.23983(17) 0.57162(18) 0.08359(12)
H2 H 1.3561 0.5934 0.0464
C5 C 1.23506(18) 0.41145(18) 0.17579(12)
H3 H 1.3495 0.3228 0.2007
C6 C 1.06682(18) 0.37982(16) 0.23142(12)
H4 H 1.0676 0.2698 0.2941
N1 N 0.72925(14) 0.47052(14) 0.25545(10)
H5 H 0.6222 0.5234 0.2168
C7 C 0.73234(16) 0.34527(16) 0.37969(11)
C8 C 0.74339(17) 0.40487(16) 0.48644(12)
C9 C 0.74712(17) 0.28478(17) 0.60703(12)
H6 H 0.7552 0.3229 0.6802
C10 C 0.73911(18) 0.10896(17) 0.62088(12)
H7 H 0.7404 0.0281 0.7035
C11 C 0.72932(17) 0.05196(16) 0.51471(12)
H8 H 0.7236 -0.0681 0.5254
C12 C 0.72763(16) 0.16801(16) 0.39177(12)
C13 C 0.72515(17) 0.81033(16) 0.05941(11)
O1 O 0.56576(12) 0.79984(12) 0.10276(9)
O2 O 0.75187(12) 0.95254(12) -0.03021(9)
H9 H 0.6474 1.0262 -0.0508
C14 C 0.75090(18) 0.59544(17) 0.47099(13)
H10 H 0.7620 0.6122 0.5547
H11 H 0.6355 0.6794 0.4323
H12 H 0.8600 0.6187 0.4160
C15 C 0.72769(19) 0.09830(17) 0.27785(12)
H13 H 0.6921 0.2001 0.2026
H14 H 0.6372 0.0252 0.2940
H15 H 0.8538 0.0243 0.2630
loop_
_geom_bond_atom_site_label_1
_geom_bond_atom_site_label_2
_geom_bond_site_symmetry_1
_geom_bond_site_symmetry_2
C1 C2 1_555 1_555
C2 C3 1_555 1_555
C3 H1 1_555 1_555
C4 C3 1_555 1_555
H2 C4 1_555 1_555
C5 C4 1_555 1_555
H3 C5 1_555 1_555
C6 C1 1_555 1_555
H4 C6 1_555 1_555
N1 C1 1_555 1_555
H5 N1 1_555 1_555
C7 N1 1_555 1_555
C8 C7 1_555 1_555
C9 C8 1_555 1_555
H6 C9 1_555 1_555
C10 C9 1_555 1_555
H7 C10 1_555 1_555
C11 C10 1_555 1_555
H8 C11 1_555 1_555
C12 C7 1_555 1_555
C13 C2 1_555 1_555
O1 C13 1_555 1_555
O2 C13 1_555 1_555
H9 O2 1_555 1_555
C14 C8 1_555 1_555
H10 C14 1_555 1_555
H11 C14 1_555 1_555
H12 C14 1_555 1_555
C15 C12 1_555 1_555
H13 C15 1_555 1_555
H14 C15 1_555 1_555
H15 C15 1_555 1_555
C5 C6 1_555 1_555
C11 C12 1_555 1_555

#END
