
#######################################################################
#
#                 Cambridge Crystallographic Data Centre
#                                CCDC 
#
#######################################################################
#
# If this CIF has been generated from an entry in the Cambridge 
# Structural Database, then it will include bibliographic, chemical, 
# crystal, experimental, refinement or atomic coordinate data resulting 
# from the CCDC's data processing and validation procedures.
#
#######################################################################

data_LAHLOW02
_chemical_formula_moiety         'C15 H15 N1 O2'
_chemical_name_systematic        '2-[(2,6-dimethylphenyl)amino]benzoic acid'
_chemical_properties_biological  
'non-steroidal anti-inflammatory and thyroid drug'
_symmetry_cell_setting           triclinic
_symmetry_space_group_name_H-M   'P -1'
_symmetry_Int_Tables_number      2
_space_group_name_Hall           '-P 1'
loop_
_symmetry_equiv_pos_site_id
_symmetry_equiv_pos_as_xyz
1 x,y,z
2 -x,-y,-z
_cell_length_a                   7.524(2)
_cell_length_b                   8.103(2)
_cell_length_c                   11.191(3)
_cell_angle_alpha                72.582(4)
_cell_angle_beta                 83.740(4)
_cell_angle_gamma                73.854(4)
_cell_volume                     625.071
_exptl_crystal_colour            colorless
_exptl_crystal_description       block
_cell_formula_units_Z            2
loop_
_atom_site_label
_atom_site_type_symbol
_atom_site_fract_x
_atom_site_fract_y
_atom_site_fract_z
C1 C 0.39469(18) 1.17222(17) 0.10256(12)
C2 C 0.5642(2) 1.2003(2) 0.04776(14)
H1 H 0.565185 1.305626 -0.014918
C3 C 0.7294(2) 1.0759(2) 0.08429(15)
H2 H 0.840876 1.096812 0.047370
C4 C 0.7262(2) 0.9187(2) 0.17720(16)
H3 H 0.836984 0.833285 0.201887
C5 C 0.5631(2) 0.88673(19) 0.23345(14)
H4 H 0.565402 0.780213 0.295694
C6 C 0.39228(18) 1.01199(16) 0.19877(12)
N1 N 0.23161(17) 0.97457(15) 0.25687(11)
H5 H 0.132(3) 1.066(2) 0.2383(16)
C7 C 0.23438(18) 0.84981(17) 0.37980(12)
C8 C 0.24285(19) 0.90747(18) 0.48458(14)
C9 C 0.2459(2) 0.7859(2) 0.60330(15)
H6 H 0.251796 0.821951 0.673895
C10 C 0.2402(2) 0.6118(2) 0.61679(14)
H7 H 0.241493 0.531934 0.696331
C11 C 0.2327(2) 0.55680(18) 0.51314(14)
H8 H 0.228527 0.439644 0.523647
C12 C 0.23112(19) 0.67304(17) 0.39217(13)
C13 C 0.22345(19) 1.31128(17) 0.05973(12)
O1 O 0.06841(14) 1.30138(14) 0.10310(11)
O2 O 0.24769(16) 1.45199(15) -0.03085(11)
H9 H 0.127(3) 1.539(3) -0.0530(16)
C14 C 0.2477(2) 1.0971(2) 0.47042(17)
H10 H 0.355273 1.120908 0.421235
H11 H 0.252411 1.112644 0.551649
H12 H 0.138428 1.178568 0.429351
C15 C 0.2304(3) 0.6066(2) 0.27996(15)
H13 H 0.192056 0.706856 0.207929
H14 H 0.146002 0.532221 0.296020
H15 H 0.352673 0.538340 0.264522
loop_
_geom_bond_atom_site_label_1
_geom_bond_atom_site_label_2
_geom_bond_site_symmetry_1
_geom_bond_site_symmetry_2
C1 C2 1_555 1_555
C2 H1 1_555 1_555
C3 C2 1_555 1_555
H2 C3 1_555 1_555
C4 C3 1_555 1_555
H3 C4 1_555 1_555
C5 C4 1_555 1_555
H4 C5 1_555 1_555
C6 C1 1_555 1_555
N1 C6 1_555 1_555
H5 N1 1_555 1_555
C7 N1 1_555 1_555
C8 C7 1_555 1_555
C9 C8 1_555 1_555
H6 C9 1_555 1_555
C10 C9 1_555 1_555
H7 C10 1_555 1_555
C11 C10 1_555 1_555
H8 C11 1_555 1_555
C12 C7 1_555 1_555
C13 C1 1_555 1_555
O1 C13 1_555 1_555
O2 C13 1_555 1_555
H9 O2 1_555 1_555
C14 C8 1_555 1_555
H10 C14 1_555 1_555
H11 C14 1_555 1_555
H12 C14 1_555 1_555
C15 C12 1_555 1_555
H13 C15 1_555 1_555
H14 C15 1_555 1_555
H15 C15 1_555 1_555
C5 C6 1_555 1_555
C11 C12 1_555 1_555

#END
