
#######################################################################
#
#                 Cambridge Crystallographic Data Centre
#                                CCDC 
#
#######################################################################
#
# If this CIF has been generated from an entry in the Cambridge 
# Structural Database, then it will include bibliographic, chemical, 
# crystal, experimental, refinement or atomic coordinate data resulting 
# from the CCDC's data processing and validation procedures.
#
#######################################################################

data_LAHPIU
_chemical_formula_moiety         'C57 H52 Cl8 O8,C3 H6 O1'
_chemical_name_systematic        
'(1\b,4\b,4a\a,5\b,7\b,7a\a,8\b,8a\a,9\b,11\b,11a\a,12\b,15\b,15a\a,16\b,18\b,18a\a,19\b,19a\a,20\b,22\b,22a\a)-1,2,3,4,12,13,14,15-Octachloro-6,10,17,21-tetramethoxy-1,4,4a,5,7,7a,8,8a,9,11,11a,12,15,15a,16,18,18a,19,19a,20,22,22a-docosahydro-1,4:12,15-bis(dimethoxymethano)-5,22:7,20:9,18:11,16-tetraetheno-8,19-methanononacene acetone solvate'
_symmetry_cell_setting           monoclinic
_symmetry_space_group_name_H-M   'P 21/c'
_symmetry_Int_Tables_number      14
_space_group_name_Hall           '-P 2ybc'
loop_
_symmetry_equiv_pos_site_id
_symmetry_equiv_pos_as_xyz
1 x,y,z
2 x,1/2-y,1/2+z
3 -x,-y,-z
4 -x,1/2+y,1/2-z
_cell_length_a                   23.4623(12)
_cell_length_b                   15.7897(8)
_cell_length_c                   15.7747(8)
_cell_angle_alpha                90
_cell_angle_beta                 99.1340(10)
_cell_angle_gamma                90
_cell_volume                     5769.84
_exptl_crystal_colour            colorless
_exptl_crystal_description       cubic
_chemical_melting_point          170-171deg.C
_cell_formula_units_Z            4
_exptl_crystal_recrystallization_method acetone/dichloromethane
loop_
_atom_site_label
_atom_site_type_symbol
_atom_site_fract_x
_atom_site_fract_y
_atom_site_fract_z
C1 C 0.05025(12) -0.0863(2) 0.6577(2)
H1 H 0.0520 -0.1209 0.6066
C2 C 0.08435(12) -0.0009(2) 0.65607(19)
H2 H 0.1255 -0.0142 0.6599
C3 C 0.06783(12) 0.0632(2) 0.5820(2)
H3 H 0.0597 0.0380 0.5246
C4 C 0.11773(13) 0.1293(2) 0.59439(19)
H4 H 0.1542 0.0992 0.6121
C5 C 0.12567(14) 0.1907(2) 0.5201(2)
H5 H 0.1352 0.1604 0.4699
C6 C 0.17432(13) 0.2498(2) 0.55970(19)
C7 C 0.22868(13) 0.2568(2) 0.53672(19)
C8 C 0.26912(13) 0.3112(2) 0.58248(19)
C9 C 0.32979(13) 0.3289(2) 0.56585(19)
H6 H 0.3381 0.3010 0.5137
C10 C 0.36860(12) 0.2954(2) 0.64800(18)
H7 H 0.3601 0.2351 0.6537
C11 C 0.43511(13) 0.3058(2) 0.6591(2)
C12 C 0.45223(14) 0.3968(2) 0.6542(2)
C13 C 0.43926(14) 0.4353(2) 0.7226(2)
C14 C 0.41267(14) 0.3703(2) 0.7750(2)
C15 C 0.35281(13) 0.34181(19) 0.72770(19)
H8 H 0.3370 0.3001 0.7637
C16 C 0.30527(13) 0.4084(2) 0.6975(2)
H9 H 0.2948 0.4411 0.7455
C17 C 0.25527(13) 0.3559(2) 0.65285(19)
C18 C 0.20072(13) 0.3490(2) 0.67501(19)
C19 C 0.16004(13) 0.2963(2) 0.6281(2)
C20 C 0.09998(13) 0.2782(2) 0.6464(2)
H10 H 0.0896 0.3142 0.6922
C21 C 0.10427(13) 0.1827(2) 0.6721(2)
H11 H 0.1366 0.1760 0.7194
C22 C 0.05152(13) 0.1369(2) 0.6972(2)
H12 H 0.0295 0.1699 0.7336
C23 C 0.07611(12) 0.0521(2) 0.73649(19)
H13 H 0.1144 0.0633 0.7694
C24 C 0.04128(13) -0.0006(2) 0.7944(2)
H14 H 0.0360 0.0298 0.8467
C25 C 0.07624(13) -0.0810(2) 0.8133(2)
C26 C 0.10463(14) -0.1075(2) 0.89287(19)
C27 C 0.13453(13) -0.1830(2) 0.89890(19)
C28 C 0.16539(13) -0.2242(2) 0.98129(19)
H15 H 0.1603 -0.1923 1.0328
C29 C 0.22948(13) -0.2273(2) 0.96704(18)
H16 H 0.2419 -0.1693 0.9574
C30 C 0.27548(13) -0.2687(2) 1.03557(19)
C31 C 0.25986(13) -0.3583(2) 1.0539(2)
C32 C 0.26458(13) -0.4044(2) 0.9841(2)
C33 C 0.28286(13) -0.3451(2) 0.91894(19)
C34 C 0.23426(12) -0.27999(19) 0.88573(18)
H17 H 0.2485 -0.2428 0.8440
C35 C 0.17284(12) -0.31214(19) 0.84542(19)
H18 H 0.1736 -0.3464 0.7938
C36 C 0.13850(12) -0.23064(19) 0.82633(18)
C37 C 0.11133(12) -0.20360(19) 0.74568(19)
C38 C 0.08029(12) -0.1289(2) 0.73967(19)
C39 C -0.01133(13) -0.0703(2) 0.6715(2)
H19 H -0.0433 -0.0895 0.6338
C40 C -0.01571(14) -0.0270(2) 0.7414(2)
H20 H -0.0511 -0.0134 0.7571
C41 C 0.07255(15) 0.2455(2) 0.4977(3)
H21 H 0.0512 0.2479 0.4427
C42 C 0.05904(15) 0.2893(2) 0.5622(3)
H22 H 0.0269 0.3245 0.5570
C43 C 0.33508(14) 0.4238(2) 0.5614(2)
H23 H 0.3461 0.4513 0.5144
C44 C 0.32297(14) 0.4646(2) 0.6287(2)
H24 H 0.3251 0.5233 0.6337
C45 C 0.14544(12) -0.3580(2) 0.9121(2)
H25 H 0.1322 -0.4134 0.9050
C46 C 0.14173(13) -0.3130(2) 0.9816(2)
H26 H 0.1257 -0.3345 1.0273
C47 C 0.01732(13) 0.1102(2) 0.6100(2)
H27 H -0.0150 0.0733 0.6154
H28 H 0.0045 0.1580 0.5732
C48 C 0.45122(14) 0.2927(2) 0.7592(2)
C49 C 0.32463(13) -0.2866(2) 0.9809(2)
C50 C 0.41519(15) -0.3612(3) 0.9957(3)
H29 H 0.4056 -0.4192 0.9818
H30 H 0.4509 -0.3588 1.0348
H31 H 0.4191 -0.3309 0.9442
C51 C 0.37754(19) -0.1565(3) 0.9787(3)
H32 H 0.3557 -0.1245 1.0142
H33 H 0.3914 -0.1193 0.9383
H34 H 0.4098 -0.1829 1.0141
C52 C 0.4433(2) 0.1876(3) 0.8672(2)
H35 H 0.4822 0.2019 0.8917
H36 H 0.4379 0.1276 0.8711
H37 H 0.4169 0.2164 0.8981
C53 C 0.55353(17) 0.2650(3) 0.7729(3)
H38 H 0.5455 0.2054 0.7738
H39 H 0.5884 0.2770 0.8117
H40 H 0.5580 0.2817 0.7158
C54 C 0.2320(2) 0.2528(3) 0.3885(2)
H41 H 0.1912 0.2630 0.3740
H42 H 0.2447 0.2187 0.3447
H43 H 0.2522 0.3059 0.3927
C55 C 0.17285(17) 0.4782(2) 0.7300(3)
H44 H 0.2040 0.5063 0.7088
H45 H 0.1663 0.5047 0.7824
H46 H 0.1385 0.4821 0.6880
C56 C 0.07282(15) -0.3131(2) 0.6543(2)
H47 H 0.0757 -0.3527 0.7010
H48 H 0.0778 -0.3425 0.6027
H49 H 0.0355 -0.2866 0.6465
C57 C 0.1440(3) 0.0038(3) 0.9817(3)
H50 H 0.1815 -0.0221 0.9888
H51 H 0.1396 0.0341 1.0331
H52 H 0.1401 0.0424 0.9342
Cl1 Cl 0.46594(4) 0.23463(7) 0.59243(6)
Cl2 Cl 0.47804(5) 0.44100(8) 0.57011(8)
Cl3 Cl 0.44500(5) 0.53971(7) 0.74693(10)
Cl4 Cl 0.41257(4) 0.39882(7) 0.88340(6)
Cl5 Cl 0.29327(4) -0.20658(6) 1.12982(5)
Cl6 Cl 0.23457(4) -0.38976(7) 1.14396(6)
Cl7 Cl 0.24801(4) -0.50851(6) 0.96780(6)
Cl8 Cl 0.31154(4) -0.39400(6) 0.83446(6)
O1 O 0.24356(10) 0.20961(15) 0.46889(14)
O2 O 0.18713(9) 0.39240(14) 0.74575(14)
O3 O 0.43263(10) 0.21315(15) 0.77855(14)
O4 O 0.50753(9) 0.31021(16) 0.79856(15)
O5 O 0.11631(8) -0.25060(13) 0.67296(12)
O6 O 0.10096(12) -0.05981(17) 0.96573(14)
O7 O 0.34134(9) -0.22052(15) 0.93326(14)
O8 O 0.37030(9) -0.32361(15) 1.03489(14)
C58 C 0.3364(6) 0.0382(7) 0.7572(7)
C59 C 0.2865(3) 0.0993(4) 0.7223(4)
H53 H 0.2530 0.0854 0.7476
H54 H 0.2775 0.0937 0.6610
H55 H 0.2979 0.1565 0.7367
C60 C 0.3847(5) 0.0013(9) 0.7082(12)
H56 H 0.4214 0.0257 0.7313
H57 H 0.3755 0.0148 0.6482
H58 H 0.3866 -0.0591 0.7152
O9 O 0.3395(6) 0.0168(7) 0.8284(6)
loop_
_geom_bond_atom_site_label_1
_geom_bond_atom_site_label_2
_geom_bond_site_symmetry_1
_geom_bond_site_symmetry_2
C1 H1 1_555 1_555
C2 C1 1_555 1_555
H2 C2 1_555 1_555
C3 C2 1_555 1_555
H3 C3 1_555 1_555
C4 C3 1_555 1_555
H4 C4 1_555 1_555
C5 C4 1_555 1_555
H5 C5 1_555 1_555
C6 C5 1_555 1_555
C7 C6 1_555 1_555
C8 C7 1_555 1_555
C9 C8 1_555 1_555
H6 C9 1_555 1_555
C10 C9 1_555 1_555
H7 C10 1_555 1_555
C11 C10 1_555 1_555
C12 C11 1_555 1_555
C13 C12 1_555 1_555
C14 C13 1_555 1_555
C15 C10 1_555 1_555
H8 C15 1_555 1_555
C16 C15 1_555 1_555
H9 C16 1_555 1_555
C17 C8 1_555 1_555
C18 C17 1_555 1_555
C19 C6 1_555 1_555
C20 C19 1_555 1_555
H10 C20 1_555 1_555
C21 C4 1_555 1_555
H11 C21 1_555 1_555
C22 C21 1_555 1_555
H12 C22 1_555 1_555
C23 C2 1_555 1_555
H13 C23 1_555 1_555
C24 C23 1_555 1_555
H14 C24 1_555 1_555
C25 C24 1_555 1_555
C26 C25 1_555 1_555
C27 C26 1_555 1_555
C28 C27 1_555 1_555
H15 C28 1_555 1_555
C29 C28 1_555 1_555
H16 C29 1_555 1_555
C30 C29 1_555 1_555
C31 C30 1_555 1_555
C32 C31 1_555 1_555
C33 C32 1_555 1_555
C34 C29 1_555 1_555
H17 C34 1_555 1_555
C35 C34 1_555 1_555
H18 C35 1_555 1_555
C36 C27 1_555 1_555
C37 C36 1_555 1_555
C38 C1 1_555 1_555
C39 C1 1_555 1_555
H19 C39 1_555 1_555
C40 C24 1_555 1_555
H20 C40 1_555 1_555
C41 C5 1_555 1_555
H21 C41 1_555 1_555
C42 C20 1_555 1_555
H22 C42 1_555 1_555
C43 C9 1_555 1_555
H23 C43 1_555 1_555
C44 C16 1_555 1_555
H24 C44 1_555 1_555
C45 C35 1_555 1_555
H25 C45 1_555 1_555
C46 C28 1_555 1_555
H26 C46 1_555 1_555
C47 C3 1_555 1_555
H27 C47 1_555 1_555
H28 C47 1_555 1_555
C48 C11 1_555 1_555
C49 C30 1_555 1_555
C50 H29 1_555 1_555
H30 C50 1_555 1_555
H31 C50 1_555 1_555
C51 H32 1_555 1_555
H33 C51 1_555 1_555
H34 C51 1_555 1_555
C52 H35 1_555 1_555
H36 C52 1_555 1_555
H37 C52 1_555 1_555
C53 H38 1_555 1_555
H39 C53 1_555 1_555
H40 C53 1_555 1_555
C54 H41 1_555 1_555
H42 C54 1_555 1_555
H43 C54 1_555 1_555
C55 H44 1_555 1_555
H45 C55 1_555 1_555
H46 C55 1_555 1_555
C56 H47 1_555 1_555
H48 C56 1_555 1_555
H49 C56 1_555 1_555
C57 H50 1_555 1_555
H51 C57 1_555 1_555
H52 C57 1_555 1_555
C58 C59 1_555 1_555
C59 H53 1_555 1_555
H54 C59 1_555 1_555
H55 C59 1_555 1_555
C60 C58 1_555 1_555
H56 C60 1_555 1_555
H57 C60 1_555 1_555
H58 C60 1_555 1_555
Cl1 C11 1_555 1_555
Cl2 C12 1_555 1_555
Cl3 C13 1_555 1_555
Cl4 C14 1_555 1_555
Cl5 C30 1_555 1_555
Cl6 C31 1_555 1_555
Cl7 C32 1_555 1_555
Cl8 C33 1_555 1_555
O1 C7 1_555 1_555
O2 C18 1_555 1_555
O3 C48 1_555 1_555
O4 C48 1_555 1_555
O5 C37 1_555 1_555
O6 C26 1_555 1_555
O7 C49 1_555 1_555
O8 C49 1_555 1_555
O9 C58 1_555 1_555
C14 C15 1_555 1_555
C14 C48 1_555 1_555
C16 C17 1_555 1_555
C18 C19 1_555 1_555
C20 C21 1_555 1_555
C22 C23 1_555 1_555
C22 C47 1_555 1_555
C25 C38 1_555 1_555
C33 C34 1_555 1_555
C33 C49 1_555 1_555
C35 C36 1_555 1_555
C37 C38 1_555 1_555
C39 C40 1_555 1_555
C41 C42 1_555 1_555
C43 C44 1_555 1_555
C45 C46 1_555 1_555
C50 O8 1_555 1_555
C51 O7 1_555 1_555
C52 O3 1_555 1_555
C53 O4 1_555 1_555
C54 O1 1_555 1_555
C55 O2 1_555 1_555
C56 O5 1_555 1_555
C57 O6 1_555 1_555

#END
