
#######################################################################
#
#                 Cambridge Crystallographic Data Centre
#                                CCDC 
#
#######################################################################
#
# If this CIF has been generated from an entry in the Cambridge 
# Structural Database, then it will include bibliographic, chemical, 
# crystal, experimental, refinement or atomic coordinate data resulting 
# from the CCDC's data processing and validation procedures.
#
#######################################################################

data_LAHQES
_chemical_name_common            
'Methyl 4-acetyl-5-amino-1-(dimethylsulfamoyl)-2-(methylamino)-1H-benzimidazole-6-carboxylate'
_chemical_formula_moiety         'C14 H19 N5 O5 S1'
_chemical_name_systematic        
'methyl 4-acetyl-5-amino-1-[(dimethylamino)sulfonyl]-2-(methylamino)-1H-benzimidazole-6-carboxylate'
_symmetry_cell_setting           triclinic
_symmetry_space_group_name_H-M   'P -1'
_symmetry_Int_Tables_number      2
_space_group_name_Hall           '-P 1'
loop_
_symmetry_equiv_pos_site_id
_symmetry_equiv_pos_as_xyz
1 x,y,z
2 -x,-y,-z
_cell_length_a                   9.0993(2)
_cell_length_b                   9.4350(3)
_cell_length_c                   11.1714(4)
_cell_angle_alpha                100.4521(11)
_cell_angle_beta                 110.4650(12)
_cell_angle_gamma                106.758(2)
_cell_volume                     816.707
_exptl_crystal_colour            colorless
_exptl_crystal_description       cube
_cell_formula_units_Z            2
loop_
_atom_site_label
_atom_site_type_symbol
_atom_site_fract_x
_atom_site_fract_y
_atom_site_fract_z
S1 S 0.85417(5) 0.13486(5) 0.16250(4)
O1 O 0.88608(17) 0.04395(16) 0.06605(13)
O2 O 0.81103(17) 0.07625(16) 0.25958(13)
O3 O 0.80686(18) 0.08611(17) -0.34089(13)
O4 O 0.6737(2) 0.20120(19) -0.47464(14)
O5 O 0.25629(18) 0.38833(18) -0.32274(14)
N1 N 0.68559(18) 0.17155(18) 0.07281(14)
N2 N 0.47749(18) 0.26761(17) 0.03066(15)
N3 N 1.01607(19) 0.29769(19) 0.24230(16)
N4 N 0.4725(2) 0.3184(2) -0.40054(16)
N5 N 0.5611(2) 0.2034(2) 0.22926(16)
C1 C 0.6521(2) 0.1992(2) -0.05418(17)
C2 C 0.7123(2) 0.1687(2) -0.14774(17)
C3 C 0.6480(2) 0.2048(2) -0.26746(17)
C4 C 0.5235(2) 0.27336(19) -0.28913(17)
C5 C 0.4536(2) 0.29521(19) -0.19372(17)
C6 C 0.5214(2) 0.25693(19) -0.07553(16)
C7 C 0.5739(2) 0.2167(2) 0.11640(17)
C8 C 1.0182(3) 0.4028(3) 0.3587(2)
C9 C 1.0851(3) 0.3760(3) 0.1601(3)
C10 C 0.7078(2) 0.1667(2) -0.37049(17)
C11 C 0.8747(3) 0.0482(3) -0.4361(2)
C12 C 0.3101(2) 0.3474(2) -0.22224(18)
C13 C 0.2198(2) 0.3454(3) -0.1321(2)
C14 C 0.4281(3) 0.2381(3) 0.2584(2)
H1 H 0.798(3) 0.128(3) -0.136(2)
H2 H 0.934(4) 0.458(3) 0.330(3)
H3 H 0.990(4) 0.343(3) 0.411(3)
H4 H 1.128(4) 0.483(3) 0.398(3)
H5 H 1.017(4) 0.441(4) 0.119(3)
H6 H 1.200(3) 0.458(3) 0.216(3)
H7 H 1.082(4) 0.308(3) 0.086(3)
H8 H 0.943(3) 0.140(3) -0.443(2)
H9 H 0.786(3) -0.014(3) -0.520(3)
H10 H 0.926(3) -0.017(3) -0.406(3)
H11 H 0.503(3) 0.287(3) -0.456(3)
H12 H 0.390(4) 0.350(3) -0.412(3)
H13 H 0.179(3) 0.244(3) -0.129(3)
H14 H 0.294(3) 0.424(3) -0.041(3)
H15 H 0.123(3) 0.375(3) -0.173(3)
H16 H 0.616(3) 0.160(3) 0.274(2)
H17 H 0.394(3) 0.177(3) 0.316(2)
H18 H 0.318(4) 0.204(3) 0.174(3)
H19 H 0.470(4) 0.348(3) 0.301(3)
loop_
_geom_bond_atom_site_label_1
_geom_bond_atom_site_label_2
_geom_bond_site_symmetry_1
_geom_bond_site_symmetry_2
S1 O1 1_555 1_555
O2 S1 1_555 1_555
O3 C10 1_555 1_555
O4 C10 1_555 1_555
O5 C12 1_555 1_555
N1 S1 1_555 1_555
N2 C6 1_555 1_555
N3 S1 1_555 1_555
N4 C4 1_555 1_555
N5 C7 1_555 1_555
C1 N1 1_555 1_555
C2 C1 1_555 1_555
C3 C2 1_555 1_555
C4 C3 1_555 1_555
C5 C4 1_555 1_555
C6 C1 1_555 1_555
C7 N1 1_555 1_555
C8 N3 1_555 1_555
C9 N3 1_555 1_555
C10 C3 1_555 1_555
C11 O3 1_555 1_555
C12 C5 1_555 1_555
C13 C12 1_555 1_555
C14 N5 1_555 1_555
H1 C2 1_555 1_555
H2 C8 1_555 1_555
H3 C8 1_555 1_555
H4 C8 1_555 1_555
H5 C9 1_555 1_555
H6 C9 1_555 1_555
H7 C9 1_555 1_555
H8 C11 1_555 1_555
H9 C11 1_555 1_555
H10 C11 1_555 1_555
H11 N4 1_555 1_555
H12 N4 1_555 1_555
H13 C13 1_555 1_555
H14 C13 1_555 1_555
H15 C13 1_555 1_555
H16 N5 1_555 1_555
H17 C14 1_555 1_555
H18 C14 1_555 1_555
H19 C14 1_555 1_555
N2 C7 1_555 1_555
C5 C6 1_555 1_555

#END
