
#######################################################################
#
#                 Cambridge Crystallographic Data Centre
#                                CCDC 
#
#######################################################################
#
# If this CIF has been generated from an entry in the Cambridge 
# Structural Database, then it will include bibliographic, chemical, 
# crystal, experimental, refinement or atomic coordinate data resulting 
# from the CCDC's data processing and validation procedures.
#
#######################################################################

data_LAHTOF
_chemical_formula_moiety         'C15 H12 N4 O1 S1,0.67(H2 O1)'
_chemical_name_systematic        
'4-Hydroxybenzaldehyde 2-phenyl-1,3,4-thiadiazol-5-ylhydrazone hydrate'
_symmetry_cell_setting           monoclinic
_symmetry_space_group_name_H-M   'C 2/c'
_symmetry_Int_Tables_number      15
_space_group_name_Hall           '-C 2yn'
loop_
_symmetry_equiv_pos_site_id
_symmetry_equiv_pos_as_xyz
1 x,y,z
2 -x,y,1/2-z
3 1/2+x,1/2+y,z
4 1/2-x,1/2+y,1/2-z
5 -x,-y,-z
6 x,-y,1/2+z
7 1/2-x,1/2-y,-z
8 1/2+x,1/2-y,1/2+z
_cell_length_a                   52.016(12)
_cell_length_b                   4.4898(10)
_cell_length_c                   38.419(9)
_cell_angle_alpha                90
_cell_angle_beta                 104.774(2)
_cell_angle_gamma                90
_cell_volume                     8675.79
_exptl_crystal_colour            colorless
_exptl_crystal_description       needle
_cell_formula_units_Z            24
loop_
_atom_site_label
_atom_site_type_symbol
_atom_site_fract_x
_atom_site_fract_y
_atom_site_fract_z
S1 S 0.63130(3) 0.3968(3) 0.18015(3)
C1 C 0.61110(10) 0.3812(12) 0.13627(12)
N1 N 0.59000(8) 0.5464(10) 0.13083(9)
N2 N 0.58816(7) 0.7067(10) 0.16103(9)
C2 C 0.60842(9) 0.6442(11) 0.18830(12)
C3 C 0.61839(10) 0.1908(12) 0.10878(12)
C4 C 0.60121(12) 0.1477(14) 0.07585(14)
H1 H 0.5841 0.2380 0.0706
C5 C 0.60818(13) -0.0247(15) 0.04991(15)
H2 H 0.5961 -0.0473 0.0269
C6 C 0.63184(13) -0.1599(14) 0.05695(15)
H3 H 0.6366 -0.2785 0.0391
C7 C 0.64887(14) -0.127(2) 0.08953(17)
H4 H 0.6656 -0.2258 0.0948
C8 C 0.64213(13) 0.0523(18) 0.11556(15)
H5 H 0.6544 0.0769 0.1383
N3 N 0.61130(7) 0.7687(10) 0.22109(9)
H6 H 0.5999 0.9021 0.2249
N4 N 0.63275(7) 0.6797(10) 0.24859(10)
C9 C 0.63255(9) 0.7826(12) 0.27968(12)
H7 H 0.6185 0.9101 0.2818
C10 C 0.65321(9) 0.7093(11) 0.31155(11)
C11 C 0.65256(10) 0.8424(12) 0.34392(12)
H8 H 0.6387 0.9785 0.3445
C12 C 0.67183(9) 0.7802(12) 0.37557(11)
H9 H 0.6713 0.8757 0.3975
C13 C 0.69152(9) 0.5798(12) 0.37478(11)
C14 C 0.69223(10) 0.4405(13) 0.34285(12)
H10 H 0.7058 0.2994 0.3425
C15 C 0.67351(9) 0.5059(12) 0.31192(12)
H11 H 0.6743 0.4108 0.2901
O1 O 0.71063(6) 0.5080(9) 0.40531(8)
H12 H 0.7080 0.6040 0.4228
S2 S 0.53443(2) 0.5295(3) 0.22273(3)
C16 C 0.55809(9) 0.5088(12) 0.26454(11)
N5 N 0.57721(8) 0.3281(10) 0.26455(9)
N6 N 0.57517(8) 0.1879(10) 0.23176(9)
C17 C 0.55395(9) 0.2724(11) 0.20773(11)
C18 C 0.55588(9) 0.6760(11) 0.29626(11)
C19 C 0.57548(10) 0.6451(11) 0.32838(11)
H13 H 0.5904 0.5213 0.3293
C20 C 0.57324(11) 0.7938(12) 0.35893(13)
H14 H 0.5867 0.7715 0.3807
C21 C 0.55164(11) 0.9745(12) 0.35816(13)
H15 H 0.5501 1.0736 0.3794
C22 C 0.53234(10) 1.0100(13) 0.32637(13)
H16 H 0.5176 1.1369 0.3254
C23 C 0.53461(9) 0.8602(12) 0.29596(12)
H17 H 0.5211 0.8845 0.2742
N7 N 0.54789(7) 0.1606(9) 0.17384(9)
H18 H 0.5573 0.0150 0.1679
N8 N 0.52641(7) 0.2831(9) 0.14885(9)
C24 C 0.52336(10) 0.1806(12) 0.11697(12)
H19 H 0.5354 0.0343 0.1127
C25 C 0.50191(9) 0.2827(12) 0.08707(12)
C26 C 0.50068(13) 0.1767(17) 0.05278(13)
H20 H 0.5135 0.0357 0.0496
C27 C 0.48133(12) 0.2700(16) 0.02304(13)
H21 H 0.4813 0.1954 -0.0001
C28 C 0.46267(9) 0.4644(12) 0.02654(11)
C29 C 0.46357(10) 0.5738(15) 0.06055(13)
H22 H 0.4507 0.7148 0.0635
C30 C 0.48289(10) 0.4802(13) 0.08998(12)
H23 H 0.4829 0.5563 0.1131
O2 O 0.44338(6) 0.5660(9) -0.00182(8)
H24 H 0.4453 0.4893 -0.0209
S3 S 0.69055(3) 0.9082(3) 0.52591(3)
C31 C 0.68399(10) 0.7415(13) 0.48356(12)
N9 N 0.70224(8) 0.7911(10) 0.46674(10)
N10 N 0.72277(8) 0.9730(11) 0.48533(10)
C32 C 0.71895(9) 1.0473(13) 0.51670(12)
C33 C 0.65899(10) 0.5793(11) 0.46898(11)
C34 C 0.65657(11) 0.3785(12) 0.44079(13)
H25 H 0.6715 0.3329 0.4318
C35 C 0.63220(12) 0.2454(13) 0.42590(14)
H26 H 0.6305 0.1100 0.4064
C36 C 0.61041(12) 0.3068(13) 0.43898(13)
H27 H 0.5938 0.2142 0.4286
C37 C 0.61297(11) 0.5050(13) 0.46736(12)
H28 H 0.5981 0.5484 0.4766
C38 C 0.63681(11) 0.6369(13) 0.48187(13)
H29 H 0.6384 0.7719 0.5013
N11 N 0.73521(8) 1.2274(12) 0.54116(10)
H30 H 0.7496 1.3095 0.5373
N12 N 0.72750(8) 1.2718(12) 0.57246(10)
C39 C 0.74125(12) 1.4474(14) 0.59595(14)
H31 H 0.7562 1.5472 0.5914
C40 C 0.73415(12) 1.4958(15) 0.62988(14)
C41 C 0.72053(14) 1.5689(16) 0.69474(16)
C42 C 0.7484(5) 1.692(3) 0.6547(5)
H32 H 0.7627 1.8033 0.6501
C43 C 0.7411(4) 1.723(5) 0.6874(8)
H33 H 0.7510 1.8562 0.7050
C44 C 0.7089(2) 1.328(3) 0.6734(3)
H34 H 0.6968 1.1973 0.6804
C45 C 0.71598(18) 1.292(3) 0.6414(3)
H35 H 0.7088 1.1280 0.6264
O3 O 0.71428(10) 1.6065(11) 0.72769(11)
H36 H 0.7001 1.5148 0.7274
O4 O 0.44823(8) 0.3341(12) -0.06585(9)
O5 O 0.68512(13) 0.1481(16) 0.73400(18)
C46? C 0.7517(11) 0.582(6) 0.6606(9)
C47? C 0.7461(5) 0.630(9) 0.6935(16)
C48? C 0.7032(4) 0.503(5) 0.6635(5)
C49? C 0.7093(3) 0.468(5) 0.6314(6)
H37? H 0.7695 0.6134 0.6595
H38? H 0.7591 0.7001 0.7138
H39? H 0.6851 0.4785 0.6638
H40? H 0.6957 0.4236 0.6103
O6? O 0.7862(4) 0.561(5) 0.7316(6)
loop_
_geom_bond_atom_site_label_1
_geom_bond_atom_site_label_2
_geom_bond_site_symmetry_1
_geom_bond_site_symmetry_2
S1 C1 1_555 1_555
C1 N1 1_555 1_555
N1 N2 1_555 1_555
N2 C2 1_555 1_555
C2 S1 1_555 1_555
C3 C1 1_555 1_555
C4 C3 1_555 1_555
H1 C4 1_555 1_555
C5 C4 1_555 1_555
H2 C5 1_555 1_555
C6 C5 1_555 1_555
H3 C6 1_555 1_555
C7 C6 1_555 1_555
H4 C7 1_555 1_555
C8 C3 1_555 1_555
H5 C8 1_555 1_555
N3 C2 1_555 1_555
H6 N3 1_555 1_555
N4 N3 1_555 1_555
C9 N4 1_555 1_555
H7 C9 1_555 1_555
C10 C9 1_555 1_555
C11 C10 1_555 1_555
H8 C11 1_555 1_555
C12 C11 1_555 1_555
H9 C12 1_555 1_555
C13 C12 1_555 1_555
C14 C13 1_555 1_555
H10 C14 1_555 1_555
C15 C10 1_555 1_555
H11 C15 1_555 1_555
O1 C13 1_555 1_555
H12 O1 1_555 1_555
S2 C16 1_555 1_555
C16 N5 1_555 1_555
N5 N6 1_555 1_555
N6 C17 1_555 1_555
C17 S2 1_555 1_555
C18 C16 1_555 1_555
C19 C18 1_555 1_555
H13 C19 1_555 1_555
C20 C19 1_555 1_555
H14 C20 1_555 1_555
C21 C20 1_555 1_555
H15 C21 1_555 1_555
C22 C21 1_555 1_555
H16 C22 1_555 1_555
C23 C18 1_555 1_555
H17 C23 1_555 1_555
N7 C17 1_555 1_555
H18 N7 1_555 1_555
N8 N7 1_555 1_555
C24 N8 1_555 1_555
H19 C24 1_555 1_555
C25 C24 1_555 1_555
C26 C25 1_555 1_555
H20 C26 1_555 1_555
C27 C26 1_555 1_555
H21 C27 1_555 1_555
C28 C27 1_555 1_555
C29 C28 1_555 1_555
H22 C29 1_555 1_555
C30 C25 1_555 1_555
H23 C30 1_555 1_555
O2 C28 1_555 1_555
H24 O2 1_555 1_555
S3 C31 1_555 1_555
C31 N9 1_555 1_555
N9 N10 1_555 1_555
N10 C32 1_555 1_555
C32 S3 1_555 1_555
C33 C31 1_555 1_555
C34 C33 1_555 1_555
H25 C34 1_555 1_555
C35 C34 1_555 1_555
H26 C35 1_555 1_555
C36 C35 1_555 1_555
H27 C36 1_555 1_555
C37 C36 1_555 1_555
H28 C37 1_555 1_555
C38 C33 1_555 1_555
H29 C38 1_555 1_555
N11 C32 1_555 1_555
H30 N11 1_555 1_555
N12 N11 1_555 1_555
C39 N12 1_555 1_555
H31 C39 1_555 1_555
C40 C39 1_555 1_555
C41 C43 1_555 1_555
C42 C40 1_555 1_555
H32 C42 1_555 1_555
C43 C42 1_555 1_555
H33 C43 1_555 1_555
C44 C41 1_555 1_555
H34 C44 1_555 1_555
C45 C40 1_555 1_555
H35 C45 1_555 1_555
O3 C41 1_555 1_555
H36 O3 1_555 1_555
C7 C8 1_555 1_555
C14 C15 1_555 1_555
C22 C23 1_555 1_555
C29 C30 1_555 1_555
C37 C38 1_555 1_555
C44 C45 1_555 1_555

#END
