
#######################################################################
#
#                 Cambridge Crystallographic Data Centre
#                                CCDC 
#
#######################################################################
#
# If this CIF has been generated from an entry in the Cambridge 
# Structural Database, then it will include bibliographic, chemical, 
# crystal, experimental, refinement or atomic coordinate data resulting 
# from the CCDC's data processing and validation procedures.
#
#######################################################################

data_LAHTOF01
_chemical_name_common            
'4-Hydroxybenzaldehyde (5-phenyl-1,3,4-thiadiazol-2-yl)hydrazone hydrate'
_chemical_formula_moiety         'C15 H12 N4 O1 S1,0.67(H2 O1)'
_chemical_name_systematic        
'4-((5-Phenyl-1,3,4-thiadiazol-2-yl)carbonohydrazonoyl)phenol hydrate'
_symmetry_cell_setting           monoclinic
_symmetry_space_group_name_H-M   'C 2/c'
_symmetry_Int_Tables_number      15
_space_group_name_Hall           '-C 2yn'
loop_
_symmetry_equiv_pos_site_id
_symmetry_equiv_pos_as_xyz
1 x,y,z
2 -x,y,1/2-z
3 1/2+x,1/2+y,z
4 1/2-x,1/2+y,1/2-z
5 -x,-y,-z
6 x,-y,1/2+z
7 1/2-x,1/2-y,-z
8 1/2+x,1/2-y,1/2+z
_cell_length_a                   52.016(12)
_cell_length_b                   4.4898(10)
_cell_length_c                   38.419(9)
_cell_angle_alpha                90
_cell_angle_beta                 104.774(2)
_cell_angle_gamma                90
_cell_volume                     8675.79
_exptl_crystal_colour            colorless
_exptl_crystal_description       rod
_chemical_melting_point          '298-300 deg.C'
_cell_formula_units_Z            24
loop_
_atom_site_label
_atom_site_type_symbol
_atom_site_fract_x
_atom_site_fract_y
_atom_site_fract_z
C1 C 0.13173(14) -0.1606(15) 0.05707(16)
H1 H 0.1366 -0.2788 0.0392
C2 C 0.10797(14) -0.0251(16) 0.04980(16)
H2 H 0.0959 -0.0480 0.0268
C3 C 0.10102(13) 0.1483(15) 0.07588(15)
H3 H 0.0839 0.2383 0.0708
C4 C 0.11840(11) 0.1920(13) 0.10887(13)
C5 C 0.14214(13) 0.051(2) 0.11563(16)
H4 H 0.1545 0.0748 0.1384
C6 C 0.14862(16) -0.128(2) 0.08966(18)
H5 H 0.1652 -0.2291 0.0950
C7 C 0.11118(10) 0.3814(12) 0.13629(12)
C8 C 0.10851(9) 0.6443(12) 0.18836(12)
C9 C 0.13254(10) 0.7835(13) 0.27952(13)
H6 H 0.1185 0.9126 0.2816
C10 C 0.15316(9) 0.7090(12) 0.31155(12)
C11 C 0.17346(10) 0.5051(13) 0.31189(13)
H7 H 0.1743 0.4090 0.2902
C12 C 0.19214(10) 0.4418(14) 0.34295(13)
H8 H 0.2058 0.3017 0.3426
C13 C 0.19149(9) 0.5793(12) 0.37490(12)
C14 C 0.17167(10) 0.7786(12) 0.37557(12)
H9 H 0.1710 0.8725 0.3975
C15 C 0.15257(11) 0.8422(13) 0.34396(13)
H10 H 0.1388 0.9797 0.3445
N1 N 0.09013(8) 0.5460(10) 0.13092(10)
N2 N 0.08812(8) 0.7070(10) 0.16098(10)
N3 N 0.11132(8) 0.7688(10) 0.22111(10)
H11 H 0.0999 0.9020 0.2249
N4 N 0.13269(8) 0.6802(10) 0.24853(10)
O1 O 0.21062(7) 0.5083(10) 0.40525(9)
H12 H 0.2081 0.6056 0.4228
S1 S 0.13129(3) 0.3970(3) 0.18010(3)
C16 C 0.05175(12) 1.9743(13) 0.35811(14)
H13 H 0.0502 2.0741 0.3793
C17 C 0.07311(12) 1.7949(13) 0.35895(13)
H14 H 0.0865 1.7725 0.3808
C18 C 0.07547(10) 1.6446(12) 0.32825(12)
H15 H 0.0904 1.5206 0.3291
C19 C 0.05583(9) 1.6768(12) 0.29620(12)
C20 C 0.03455(10) 1.8606(13) 0.29588(13)
H16 H 0.0211 1.8850 0.2742
C21 C 0.03240(10) 2.0098(13) 0.32635(13)
H17 H 0.0176 2.1367 0.3255
C22 C 0.05825(10) 1.5076(12) 0.26468(12)
C23 C 0.05408(9) 1.2734(12) 0.20775(12)
C24 C 0.02329(11) 1.1802(13) 0.11701(13)
H18 H 0.0352 1.0327 0.1128
C25 C 0.00186(10) 1.2828(12) 0.08705(12)
C26 C -0.01714(10) 1.4794(14) 0.09010(12)
H19 H -0.0171 1.5547 0.1132
C27 C -0.03651(11) 1.5733(16) 0.06055(14)
H20 H -0.0494 1.7143 0.0636
C28 C -0.03752(9) 1.4656(13) 0.02646(12)
C29 C -0.01849(13) 1.2708(16) 0.02296(14)
H21 H -0.0183 1.1979 -0.0002
C30 C 0.00066(14) 1.1777(18) 0.05277(14)
H22 H 0.0135 1.0364 0.0497
N5 N 0.07734(8) 1.3279(10) 0.26464(9)
N6 N 0.07527(8) 1.1872(10) 0.23175(10)
N7 N 0.04802(8) 1.1608(10) 0.17390(10)
H23 H 0.0574 1.0151 0.1680
N8 N 0.02647(8) 1.2832(10) 0.14883(10)
O2 O -0.05663(7) 1.5654(9) -0.00180(9)
H24 H -0.0546 1.4877 -0.0208
S2 S 0.03444(3) 1.5295(3) 0.22275(3)
C31 C 0.11047(12) 0.6937(13) -0.06096(14)
H25 H 0.0939 0.7878 -0.0712
C32 C 0.13219(13) 0.7546(13) -0.07424(15)
H26 H 0.1304 0.8889 -0.0938
C33 C 0.15625(12) 0.6228(12) -0.05939(14)
H27 H 0.1712 0.6687 -0.0684
C34 C 0.15891(11) 0.4212(12) -0.03102(12)
C35 C 0.13677(12) 0.3635(14) -0.01813(13)
H28 H 0.1383 0.2289 0.0014
C36 C 0.11285(12) 0.4955(13) -0.03278(13)
H29 H 0.0979 0.4515 -0.0237
C37 C 0.18400(11) 0.2583(13) -0.01635(13)
C38 C 0.21905(10) -0.0487(14) 0.01674(13)
C39 C 0.24124(13) -0.4473(15) 0.09581(15)
H30 H 0.2560 -0.5496 0.0912
C40 C 0.23420(13) -0.4923(17) 0.12976(15)
C41 C 0.2120(3) -0.452(4) 0.1319(4)
H31 H 0.1986 -0.4063 0.1106
C42 C 0.2051(3) -0.470(4) 0.1650(4)
H32 H 0.1878 -0.4059 0.1654
C43 C 0.22050(15) -0.5678(17) 0.19491(17)
C44 C 0.2470(2) -0.660(2) 0.1923(3)
H33 H 0.2593 -0.7424 0.2126
C45 C 0.2541(2) -0.627(2) 0.1593(3)
H34 H 0.2709 -0.6893 0.1566
N9 N 0.20226(9) 0.2090(11) -0.03312(10)
N10 N 0.22288(8) 0.0266(11) -0.01464(10)
N11 N 0.23524(9) -0.2278(12) 0.04117(11)
H35 H 0.2496 -0.3103 0.0373
N12 N 0.22762(9) -0.2713(13) 0.07241(11)
O3 O 0.21427(10) -0.6001(12) 0.22775(11)
H36 H 0.2054 -0.7687 0.2300
S3 S 0.19054(3) 0.0914(4) 0.02591(3)
O4 O 0.05164(8) 0.6658(12) 0.06585(9)
O5 O 0.18589(14) -0.1443(17) 0.2350(2)
C46? C 0.21520(19) -0.270(3) 0.1430(3)
H37? H 0.2078 -0.1058 0.1282
C47? C 0.2092(2) -0.309(3) 0.1747(3)
H38? H 0.1982 -0.1737 0.1833
C48? C 0.2322(4) -0.791(5) 0.1818(5)
H39? H 0.2358 -0.9775 0.1938
C49? C 0.2389(4) -0.735(4) 0.1492(4)
H40? H 0.2479 -0.8902 0.1403
loop_
_geom_bond_atom_site_label_1
_geom_bond_atom_site_label_2
_geom_bond_site_symmetry_1
_geom_bond_site_symmetry_2
C1 H1 1_555 1_555
C2 C1 1_555 1_555
H2 C2 1_555 1_555
C3 C2 1_555 1_555
H3 C3 1_555 1_555
C4 C3 1_555 1_555
C5 C4 1_555 1_555
H4 C5 1_555 1_555
C6 C1 1_555 1_555
H5 C6 1_555 1_555
C7 C4 1_555 1_555
C8 N2 1_555 1_555
C9 H6 1_555 1_555
C10 C9 1_555 1_555
C11 C10 1_555 1_555
H7 C11 1_555 1_555
C12 C11 1_555 1_555
H8 C12 1_555 1_555
C13 C12 1_555 1_555
C14 C13 1_555 1_555
H9 C14 1_555 1_555
C15 C10 1_555 1_555
H10 C15 1_555 1_555
N1 C7 1_555 1_555
N2 N1 1_555 1_555
N3 C8 1_555 1_555
H11 N3 1_555 1_555
N4 C9 1_555 1_555
O1 C13 1_555 1_555
H12 O1 1_555 1_555
S1 C7 1_555 1_555
C16 H13 1_555 1_555
C17 C16 1_555 1_555
H14 C17 1_555 1_555
C18 C17 1_555 1_555
H15 C18 1_555 1_555
C19 C18 1_555 1_555
C20 C19 1_555 1_555
H16 C20 1_555 1_555
C21 C16 1_555 1_555
H17 C21 1_555 1_555
C22 C19 1_555 1_555
C23 N6 1_555 1_555
C24 H18 1_555 1_555
C25 C24 1_555 1_555
C26 C25 1_555 1_555
H19 C26 1_555 1_555
C27 C26 1_555 1_555
H20 C27 1_555 1_555
C28 C27 1_555 1_555
C29 C28 1_555 1_555
H21 C29 1_555 1_555
C30 C25 1_555 1_555
H22 C30 1_555 1_555
N5 C22 1_555 1_555
N6 N5 1_555 1_555
N7 C23 1_555 1_555
H23 N7 1_555 1_555
N8 C24 1_555 1_555
O2 C28 1_555 1_555
H24 O2 1_555 1_555
S2 C22 1_555 1_555
C31 H25 1_555 1_555
C32 C31 1_555 1_555
H26 C32 1_555 1_555
C33 C32 1_555 1_555
H27 C33 1_555 1_555
C34 C33 1_555 1_555
C35 C34 1_555 1_555
H28 C35 1_555 1_555
C36 C31 1_555 1_555
H29 C36 1_555 1_555
C37 C34 1_555 1_555
C38 N10 1_555 1_555
C39 H30 1_555 1_555
C40 C39 1_555 1_555
C41 C40 1_555 1_555
H31 C41 1_555 1_555
C42 C41 1_555 1_555
H32 C42 1_555 1_555
C43 C42 1_555 1_555
C44 C43 1_555 1_555
H33 C44 1_555 1_555
C45 C40 1_555 1_555
H34 C45 1_555 1_555
N9 C37 1_555 1_555
N10 N9 1_555 1_555
N11 C38 1_555 1_555
H35 N11 1_555 1_555
N12 C39 1_555 1_555
O3 C43 1_555 1_555
H36 O3 1_555 1_555
S3 C37 1_555 1_555
C5 C6 1_555 1_555
C8 S1 1_555 1_555
C14 C15 1_555 1_555
N3 N4 1_555 1_555
C20 C21 1_555 1_555
C23 S2 1_555 1_555
C29 C30 1_555 1_555
N7 N8 1_555 1_555
C35 C36 1_555 1_555
C38 S3 1_555 1_555
C44 C45 1_555 1_555
N11 N12 1_555 1_555

#END
