
#######################################################################
#
#                 Cambridge Crystallographic Data Centre
#                                CCDC 
#
#######################################################################
#
# If this CIF has been generated from an entry in the Cambridge 
# Structural Database, then it will include bibliographic, chemical, 
# crystal, experimental, refinement or atomic coordinate data resulting 
# from the CCDC's data processing and validation procedures.
#
#######################################################################

data_LAHZEC
_chemical_formula_moiety         'C38 H31 Br1 N2 O4'
_chemical_name_systematic        
"ethyl 1'-benzyl-5'-bromo-1-(3,4-dimethylphenyl)-2-methyl-2',5-dioxo-1,1',2',5-tetrahydrospiro[indeno[1,2-b]pyridine-4,3'-indole]-3-carboxylate"
_symmetry_cell_setting           triclinic
_symmetry_space_group_name_H-M   'P -1'
_symmetry_Int_Tables_number      2
_space_group_name_Hall           '-P 1'
loop_
_symmetry_equiv_pos_site_id
_symmetry_equiv_pos_as_xyz
1 x,y,z
2 -x,-y,-z
_cell_length_a                   10.419(10)
_cell_length_b                   11.724(11)
_cell_length_c                   14.423(13)
_cell_angle_alpha                99.484(9)
_cell_angle_beta                 94.044(9)
_cell_angle_gamma                111.147(9)
_cell_volume                     1604.44
_exptl_crystal_colour            red
_exptl_crystal_description       block
_cell_formula_units_Z            2
loop_
_atom_site_label
_atom_site_type_symbol
_atom_site_fract_x
_atom_site_fract_y
_atom_site_fract_z
Br1 Br 0.54172(8) -0.18919(8) 0.55817(6)
O1 O 0.9625(5) 0.2119(4) 0.8643(3)
O2 O 1.1655(5) 0.4355(4) 0.6947(3)
O3 O 0.9780(5) 0.2746(5) 0.4886(3)
O4 O 0.7970(5) 0.3151(5) 0.4342(3)
C1 C 0.6353(13) 0.8926(10) 0.8476(6)
H1 H 0.6696 0.9521 0.8080
H2 H 0.6754 0.9308 0.9125
H3 H 0.5360 0.8652 0.8422
N1 N 0.7833(5) 0.4691(5) 0.7223(4)
C2 C 0.6751(15) 0.7810(10) 0.8162(6)
C3 C 0.5720(11) 0.6658(10) 0.7787(6)
H4 H 0.4796 0.6579 0.7737
C4 C 0.6036(9) 0.5589(8) 0.7473(5)
H5 H 0.5333 0.4810 0.7240
C5 C 0.7407(8) 0.5739(6) 0.7526(4)
C6 C 0.8222(6) 0.4139(6) 0.7899(4)
C7 C 0.8840(6) 0.3303(5) 0.7687(4)
C8 C 0.9182(6) 0.2917(5) 0.6723(4)
C9 C 1.0782(7) 0.3274(7) 0.6776(4)
N2 N 1.1087(5) 0.2226(5) 0.6629(3)
C10 C 1.2466(7) 0.2252(7) 0.6556(4)
H6 H 1.3039 0.3068 0.6454
H7 H 1.2419 0.1642 0.5999
C11 C 1.3175(7) 0.1996(6) 0.7391(5)
C12 C 1.4400(7) 0.1801(7) 0.7317(5)
H8 H 1.4758 0.1816 0.6744
C13 C 1.5097(8) 0.1586(7) 0.8070(7)
H9 H 1.5906 0.1438 0.7994
C14 C 1.4621(9) 0.1585(8) 0.8934(6)
H10 H 1.5115 0.1468 0.9448
C15 C 0.8020(7) 0.4301(6) 0.8925(4)
C16 C 0.8551(6) 0.3528(6) 0.9315(4)
C17 C 0.9080(6) 0.2872(6) 0.8546(4)
C18 C 0.9843(7) 0.1159(6) 0.6408(4)
C19 C 0.9705(7) -0.0075(6) 0.6188(4)
H11 H 1.0483 -0.0289 0.6197
C20 C 0.8364(8) -0.0995(7) 0.5952(4)
H12 H 0.8233 -0.1835 0.5805
C21 C 0.7248(7) -0.0644(6) 0.5940(4)
C22 C 0.7374(6) 0.0606(6) 0.6183(4)
H13 H 0.6598 0.0821 0.6184
C23 C 0.8693(6) 0.1491(6) 0.6418(4)
C24 C 1.3398(9) 0.1762(9) 0.9023(6)
H14 H 1.3048 0.1743 0.9599
C25 C 1.2675(8) 0.1970(7) 0.8253(5)
H15 H 1.1850 0.2092 0.8323
C26 C 0.8614(6) 0.3512(6) 0.6024(4)
C27 C 0.8000(7) 0.4359(6) 0.6262(4)
C28 C 0.7501(8) 0.5003(7) 0.5594(4)
H16 H 0.7808 0.4845 0.4991
H17 H 0.7870 0.5886 0.5848
H18 H 0.6504 0.4694 0.5513
C29 C 0.8853(8) 0.3109(6) 0.5026(5)
C30 C 0.8226(9) 0.2882(7) 0.3367(5)
H19 H 0.7924 0.3387 0.3001
H20 H 0.9217 0.3108 0.3358
C31 C 0.7511(10) 0.1589(9) 0.2933(6)
H21 H 0.7557 0.1084 0.3385
H22 H 0.7941 0.1382 0.2397
H23 H 0.6557 0.1433 0.2725
C32 C 0.8525(7) 0.3424(7) 1.0240(5)
H24 H 0.8885 0.2895 1.0478
C33 C 0.7954(8) 0.4118(8) 1.0820(5)
H25 H 0.7929 0.4064 1.1455
C34 C 0.7434(9) 0.4875(7) 1.0454(5)
H26 H 0.7060 0.5345 1.0851
C35 C 0.7433(8) 0.4985(7) 0.9502(5)
H27 H 0.7050 0.5501 0.9265
C36 C 0.8440(8) 0.6879(6) 0.7909(4)
H28 H 0.9363 0.6953 0.7953
C37 C 0.8136(12) 0.7923(7) 0.8231(5)
C38 C 0.9234(12) 0.9134(8) 0.8661(7)
H29 H 1.0099 0.9028 0.8777
H30 H 0.9001 0.9466 0.9250
H31 H 0.9322 0.9701 0.8237
loop_
_geom_bond_atom_site_label_1
_geom_bond_atom_site_label_2
_geom_bond_site_symmetry_1
_geom_bond_site_symmetry_2
Br1 C21 1_555 1_555
O1 C17 1_555 1_555
O2 C9 1_555 1_555
O3 C29 1_555 1_555
O4 C29 1_555 1_555
C1 H1 1_555 1_555
H2 C1 1_555 1_555
H3 C1 1_555 1_555
N1 C5 1_555 1_555
C2 C1 1_555 1_555
C3 C2 1_555 1_555
H4 C3 1_555 1_555
C4 C3 1_555 1_555
H5 C4 1_555 1_555
C5 C4 1_555 1_555
C6 N1 1_555 1_555
C7 C6 1_555 1_555
C8 C7 1_555 1_555
C9 C8 1_555 1_555
N2 C9 1_555 1_555
C10 N2 1_555 1_555
H6 C10 1_555 1_555
H7 C10 1_555 1_555
C11 C10 1_555 1_555
C12 C11 1_555 1_555
H8 C12 1_555 1_555
C13 C12 1_555 1_555
H9 C13 1_555 1_555
C14 C13 1_555 1_555
H10 C14 1_555 1_555
C15 C6 1_555 1_555
C16 C15 1_555 1_555
C17 C7 1_555 1_555
C18 N2 1_555 1_555
C19 C18 1_555 1_555
H11 C19 1_555 1_555
C20 C19 1_555 1_555
H12 C20 1_555 1_555
C21 C20 1_555 1_555
C22 C21 1_555 1_555
H13 C22 1_555 1_555
C23 C8 1_555 1_555
C24 C14 1_555 1_555
H14 C24 1_555 1_555
C25 C11 1_555 1_555
H15 C25 1_555 1_555
C26 C8 1_555 1_555
C27 N1 1_555 1_555
C28 C27 1_555 1_555
H16 C28 1_555 1_555
H17 C28 1_555 1_555
H18 C28 1_555 1_555
C29 C26 1_555 1_555
C30 O4 1_555 1_555
H19 C30 1_555 1_555
H20 C30 1_555 1_555
C31 C30 1_555 1_555
H21 C31 1_555 1_555
H22 C31 1_555 1_555
H23 C31 1_555 1_555
C32 C16 1_555 1_555
H24 C32 1_555 1_555
C33 C32 1_555 1_555
H25 C33 1_555 1_555
C34 C33 1_555 1_555
H26 C34 1_555 1_555
C35 C15 1_555 1_555
H27 C35 1_555 1_555
C36 C5 1_555 1_555
H28 C36 1_555 1_555
C37 C2 1_555 1_555
C38 C37 1_555 1_555
H29 C38 1_555 1_555
H30 C38 1_555 1_555
H31 C38 1_555 1_555
C16 C17 1_555 1_555
C18 C23 1_555 1_555
C22 C23 1_555 1_555
C24 C25 1_555 1_555
C26 C27 1_555 1_555
C34 C35 1_555 1_555
C36 C37 1_555 1_555

#END
