
#######################################################################
#
#                 Cambridge Crystallographic Data Centre
#                                CCDC 
#
#######################################################################
#
# If this CIF has been generated from an entry in the Cambridge 
# Structural Database, then it will include bibliographic, chemical, 
# crystal, experimental, refinement or atomic coordinate data resulting 
# from the CCDC's data processing and validation procedures.
#
#######################################################################

data_LAJNOC
_chemical_formula_moiety         'C28 H27 N3 O2'
_chemical_name_systematic        
4-ethoxy-N-(4-ethoxyphenyl)-N-(4-((pyridin-2-ylmethylene)amino)phenyl)aniline
_symmetry_cell_setting           orthorhombic
_symmetry_space_group_name_H-M   'P 21 21 21'
_symmetry_Int_Tables_number      19
_space_group_name_Hall           'P 2ac 2ab'
loop_
_symmetry_equiv_pos_site_id
_symmetry_equiv_pos_as_xyz
1 x,y,z
2 1/2-x,-y,1/2+z
3 -x,1/2+y,1/2-z
4 1/2+x,1/2-y,-z
_cell_length_a                   9.8761(15)
_cell_length_b                   12.7433(19)
_cell_length_c                   19.430(3)
_cell_angle_alpha                90
_cell_angle_beta                 90
_cell_angle_gamma                90
_cell_volume                     2445.35
_exptl_crystal_colour            yellow
_exptl_crystal_description       block
_cell_formula_units_Z            4
loop_
_atom_site_label
_atom_site_type_symbol
_atom_site_fract_x
_atom_site_fract_y
_atom_site_fract_z
N1 N 1.0072(4) 0.3643(3) 1.02354(17)
C1 C 0.9867(4) 0.3652(3) 0.9529(2)
C2 C 0.9444(4) 0.0946(3) 1.1454(2)
O1 O 0.9332(3) 0.0095(2) 1.18689(16)
O2 O 1.0917(4) 0.7231(2) 1.18261(18)
C3 C 0.9869(4) 0.2728(4) 0.9159(2)
H1 H 0.9980 0.2094 0.9390
C4 C 1.0691(4) 0.1436(3) 1.1432(2)
H2 H 1.1399 0.1178 1.1698
C5 C 0.8601(4) 0.2221(3) 1.0662(2)
H3 H 0.7882 0.2495 1.0410
C6 C 0.9866(4) 0.2706(3) 1.0628(2)
C7 C 1.0319(4) 0.4594(3) 1.0617(2)
C8 C 0.9564(4) 0.3638(5) 0.8097(2)
C9 C 0.8401(4) 0.1345(3) 1.1059(2)
H4 H 0.7559 0.1019 1.1063
C10 C 0.9299(5) 0.5041(3) 1.0997(2)
H5 H 0.8437 0.4747 1.0987
C11 C 1.0897(4) 0.2291(3) 1.1025(2)
H6 H 1.1749 0.2602 1.1013
C12 C 1.0794(5) 0.6352(3) 1.1424(2)
C13 C 1.1589(4) 0.5042(4) 1.0640(3)
H7 H 1.2300 0.4728 1.0403
C14 C 0.9706(5) 0.4582(4) 0.9168(2)
H8 H 0.9704 0.5220 0.9401
C15 C 0.9547(5) 0.4559(5) 0.8455(3)
H9 H 0.9426 0.5187 0.8218
C16 C 0.9710(4) 0.2724(4) 0.8461(3)
H10 H 0.9702 0.2087 0.8227
C17 C 1.1823(3) 0.5965(3) 1.1017(2)
H11 H 1.2653 0.6307 1.0993
N2 N 0.9429(3) 0.3355(3) 0.7383(2)
C18 C 0.9488(3) 0.4183(3) 0.6934(2)
H12 H 0.9594 0.4865 0.7095
C19 C 0.8125(7) -0.1220(4) 1.2450(3)
H13 H 0.8768 -0.1742 1.2307
H14 H 0.7251 -0.1539 1.2504
H15 H 0.8407 -0.0922 1.2881
C20 C 0.9535(5) 0.5915(4) 1.1390(3)
H16 H 0.8827 0.6214 1.1637
C21 C 0.8049(5) -0.0403(4) 1.1935(3)
H17 H 0.7783 -0.0703 1.1497
H18 H 0.7372 0.0110 1.2068
C22 C 0.9380(5) 0.3971(5) 0.6201(3)
N3 N 0.9417(5) 0.4861(5) 0.5846(2)
C23 C 0.9369(7) 0.4768(6) 0.5165(3)
H19 H 0.9380 0.5387 0.4912
C24 C 1.2056(6) 0.8465(4) 1.2520(3)
H20 H 1.1559 0.9036 1.2320
H21 H 1.2941 0.8705 1.2652
H22 H 1.1584 0.8212 1.2919
C25 C 1.2191(5) 0.7585(4) 1.1998(3)
H23 H 1.2653 0.7839 1.1591
H24 H 1.2720 0.7016 1.2192
C26 C 0.9305(10) 0.3876(7) 0.4812(3)
H25 H 0.9268 0.3870 0.4334
C27 C 0.9297(11) 0.2948(7) 0.5197(4)
H26 H 0.9272 0.2300 0.4977
C28 C 0.9327(9) 0.3003(7) 0.5905(3)
H27 H 0.9310 0.2398 0.6172
N4? N 0.9472(3) 0.4034(3) 0.7384(2)
C29? C 0.9532(3) 0.3395(3) 0.6820(2)
H28? H 0.9657 0.2672 0.6840
loop_
_geom_bond_atom_site_label_1
_geom_bond_atom_site_label_2
_geom_bond_site_symmetry_1
_geom_bond_site_symmetry_2
N1 C1 1_555 1_555
C1 C3 1_555 1_555
C2 O1 1_555 1_555
O1 C21 1_555 1_555
O2 C12 1_555 1_555
C3 H1 1_555 1_555
C4 C2 1_555 1_555
H2 C4 1_555 1_555
C5 H3 1_555 1_555
C6 N1 1_555 1_555
C7 N1 1_555 1_555
C8 C15 1_555 1_555
C9 C2 1_555 1_555
H4 C9 1_555 1_555
C10 C7 1_555 1_555
H5 C10 1_555 1_555
C11 C4 1_555 1_555
H6 C11 1_555 1_555
C12 C17 1_555 1_555
C13 C7 1_555 1_555
H7 C13 1_555 1_555
C14 C1 1_555 1_555
H8 C14 1_555 1_555
C15 C14 1_555 1_555
H9 C15 1_555 1_555
C16 C3 1_555 1_555
H10 C16 1_555 1_555
C17 C13 1_555 1_555
H11 C17 1_555 1_555
N2 C8 1_555 1_555
C18 N2 1_555 1_555
H12 C18 1_555 1_555
C19 H13 1_555 1_555
H14 C19 1_555 1_555
H15 C19 1_555 1_555
C20 C10 1_555 1_555
H16 C20 1_555 1_555
C21 C19 1_555 1_555
H17 C21 1_555 1_555
H18 C21 1_555 1_555
C22 C18 1_555 1_555
N3 C22 1_555 1_555
C23 N3 1_555 1_555
H19 C23 1_555 1_555
C24 H20 1_555 1_555
H21 C24 1_555 1_555
H22 C24 1_555 1_555
C25 O2 1_555 1_555
H23 C25 1_555 1_555
H24 C25 1_555 1_555
C26 C23 1_555 1_555
H25 C26 1_555 1_555
C27 C26 1_555 1_555
H26 C27 1_555 1_555
C28 C22 1_555 1_555
H27 C28 1_555 1_555
C5 C6 1_555 1_555
C5 C9 1_555 1_555
C6 C11 1_555 1_555
C8 C16 1_555 1_555
C12 C20 1_555 1_555
C24 C25 1_555 1_555
C27 C28 1_555 1_555

#END
