
#######################################################################
#
#                 Cambridge Crystallographic Data Centre
#                                CCDC 
#
#######################################################################
#
# If this CIF has been generated from an entry in the Cambridge 
# Structural Database, then it will include bibliographic, chemical, 
# crystal, experimental, refinement or atomic coordinate data resulting 
# from the CCDC's data processing and validation procedures.
#
#######################################################################

data_LAJQAO
_chemical_formula_moiety         'C56 H104 Li4 N4 Si4'
_chemical_name_systematic        
tetrakis((\m~3~-1-(3-(Trimethylsilyl)cyclohex-2-enylidene)-2,2-dimethylpropylamido)-lithium)
_symmetry_cell_setting           monoclinic
_symmetry_space_group_name_H-M   'C 2/c'
_symmetry_Int_Tables_number      15
_space_group_name_Hall           '-C 2yn'
loop_
_symmetry_equiv_pos_site_id
_symmetry_equiv_pos_as_xyz
1 x,y,z
2 -x,y,1/2-z
3 1/2+x,1/2+y,z
4 1/2-x,1/2+y,1/2-z
5 -x,-y,-z
6 x,-y,1/2+z
7 1/2-x,1/2-y,-z
8 1/2+x,1/2-y,1/2+z
_cell_length_a                   29.080(1)
_cell_length_b                   11.314(1)
_cell_length_c                   24.570(1)
_cell_angle_alpha                90
_cell_angle_beta                 122.56(1)
_cell_angle_gamma                90
_cell_volume                     6813.26
_exptl_crystal_colour            yellow
_exptl_crystal_description       prism
_cell_formula_units_Z            4
_exptl_crystal_recrystallization_method hexane
loop_
_atom_site_label
_atom_site_type_symbol
_atom_site_fract_x
_atom_site_fract_y
_atom_site_fract_z
Li1 Li -0.0304(2) 0.7444(5) -0.2281(2)
Li2 Li 0.0414(2) 0.5804(5) -0.1936(2)
N1 N 0.0503(1) 0.7583(2) -0.1789(1)
C1 C 0.0868(1) 0.8200(3) -0.1331(1)
C2 C 0.1471(1) 0.7766(3) -0.0916(1)
C3 C 0.1499(1) 0.6763(3) -0.0498(1)
C4 C 0.1780(1) 0.5759(3) -0.0375(1)
C5 C 0.2123(1) 0.5570(4) -0.0661(2)
C6 C 0.2204(1) 0.6676(4) -0.0942(1)
C7 C 0.1685(1) 0.7370(4) -0.1328(1)
Si1 Si 0.1764(1) 0.4605(1) 0.0158(1)
C8 C 0.1261(2) 0.3489(4) -0.0326(2)
C9 C 0.1517(2) 0.5277(5) 0.0664(2)
C10 C 0.2448(2) 0.4046(5) 0.0741(2)
C11 C 0.0755(1) 0.9418(3) -0.1145(2)
C12 C 0.1048(2) 1.0330(4) -0.1315(2)
C13 C 0.0139(1) 0.9669(4) -0.1546(2)
C14 C 0.0954(2) 0.9456(4) -0.0436(2)
N2 N -0.0387(1) 0.5687(2) -0.2232(1)
C15 C -0.0613(1) 0.5124(3) -0.2003(1)
C16 C -0.0656(1) 0.5637(3) -0.1442(1)
C17 C -0.1062(1) 0.6603(3) -0.1678(1)
C18 C -0.1053(1) 0.7575(4) -0.1392(1)
C19 C -0.0562(1) 0.7815(3) -0.0718(2)
C20 C -0.0192(1) 0.6752(4) -0.0398(1)
C21 C -0.0116(1) 0.6085(4) -0.0887(1)
Si2 Si -0.1618(1) 0.8687(1) -0.1781(1)
C22 C -0.2241(2) 0.8001(5) -0.2526(2)
C23 C -0.1441(2) 0.9902(5) -0.2095(3)
C24 C -0.1865(1) 0.8995(5) -0.1248(2)
C25 C -0.0847(1) 0.3881(3) -0.2215(1)
C26 C -0.0835(1) 0.3504(4) -0.2795(2)
C27 C -0.1441(1) 0.3829(4) -0.2392(2)
C28 C -0.0479(2) 0.3001(3) -0.1659(2)
H1 H 0.1699 0.8415 -0.0637
H2 H 0.1300 0.6850 -0.0306
H3 H 0.2477 0.5268 -0.0327
H4 H 0.1949 0.4976 -0.0997
H5 H 0.2479 0.7166 -0.0595
H6 H 0.2335 0.6462 -0.1217
H7 H 0.1412 0.6886 -0.1681
H8 H 0.1752 0.8058 -0.1512
H9 H 0.1360 0.3106 -0.0597
H10 H 0.0910 0.3854 -0.0589
H11 H 0.1247 0.2915 -0.0047
H12 H 0.1156 0.5585 0.0385
H13 H 0.1759 0.5904 0.0924
H14 H 0.1513 0.4681 0.0939
H15 H 0.2599 0.3697 0.0514
H16 H 0.2428 0.3461 0.1010
H17 H 0.2677 0.4686 0.1004
H18 H 0.0902 1.0302 -0.1770
H19 H 0.1431 1.0154 -0.1081
H20 H 0.0994 1.1106 -0.1200
H21 H 0.0012 0.9679 -0.1997
H22 H 0.0069 1.0422 -0.1425
H23 H -0.0050 0.9063 -0.1468
H24 H 0.1341 0.9333 -0.0181
H25 H 0.0777 0.8847 -0.0342
H26 H 0.0870 1.0213 -0.0333
H27 H -0.0780 0.5003 -0.1280
H28 H -0.1369 0.6498 -0.2091
H29 H -0.0691 0.8083 -0.0448
H30 H -0.0350 0.8450 -0.0743
H31 H -0.0350 0.6228 -0.0229
H32 H 0.0161 0.7014 -0.0039
H33 H 0.0047 0.6608 -0.1051
H34 H 0.0130 0.5424 -0.0675
H35 H -0.2382 0.7372 -0.2394
H36 H -0.2137 0.7692 -0.2808
H37 H -0.2517 0.8594 -0.2749
H38 H -0.1126 1.0295 -0.1748
H39 H -0.1740 1.0447 -0.2302
H40 H -0.1360 0.9618 -0.2403
H41 H -0.1579 0.9358 -0.0858
H42 H -0.1974 0.8269 -0.1146
H43 H -0.2173 0.9520 -0.1462
H44 H -0.1059 0.4026 -0.3150
H45 H -0.0971 0.2711 -0.2912
H46 H -0.0466 0.3535 -0.2693
H47 H -0.1660 0.4372 -0.2738
H48 H -0.1454 0.4042 -0.2022
H49 H -0.1580 0.3042 -0.2526
H50 H -0.0111 0.3054 -0.1555
H51 H -0.0612 0.2211 -0.1794
H52 H -0.0488 0.3197 -0.1284
Li1A Li 0.0304(2) 0.7444(5) -0.2719(2)
N1A N -0.0503(1) 0.7583(2) -0.3211(1)
N2A N 0.0387(1) 0.5687(2) -0.2768(1)
Li2A Li -0.0414(2) 0.5804(5) -0.3064(2)
C1A C -0.0868(1) 0.8200(3) -0.3669(1)
C2A C -0.1471(1) 0.7766(3) -0.4084(1)
C3A C -0.1499(1) 0.6763(3) -0.4502(1)
C4A C -0.1780(1) 0.5759(3) -0.4625(1)
C5A C -0.2123(1) 0.5570(4) -0.4339(2)
C6A C -0.2204(1) 0.6676(4) -0.4058(1)
C7A C -0.1685(1) 0.7370(4) -0.3672(1)
H1A H -0.1699 0.8415 -0.4363
H7A H -0.1412 0.6886 -0.3319
H8A H -0.1752 0.8058 -0.3488
H5A H -0.2479 0.7166 -0.4405
H6A H -0.2335 0.6462 -0.3783
H3A H -0.2477 0.5268 -0.4673
H4A H -0.1949 0.4976 -0.4003
Si1A Si -0.1764(1) 0.4605(1) -0.5158(1)
C8A C -0.1261(2) 0.3489(4) -0.4674(2)
H9A H -0.1360 0.3106 -0.4403
H10A H -0.0910 0.3854 -0.4411
H11A H -0.1247 0.2915 -0.4953
C9A C -0.1517(2) 0.5277(5) -0.5664(2)
H12A H -0.1156 0.5585 -0.5385
H13A H -0.1759 0.5904 -0.5924
H14A H -0.1513 0.4681 -0.5939
C10A C -0.2448(2) 0.4046(5) -0.5741(2)
H15A H -0.2599 0.3697 -0.5514
H16A H -0.2428 0.3461 -0.6010
H17A H -0.2677 0.4686 -0.6004
H2A H -0.1300 0.6850 -0.4694
C11A C -0.0755(1) 0.9418(3) -0.3855(2)
C12A C -0.1048(2) 1.0330(4) -0.3685(2)
H18A H -0.0902 1.0302 -0.3230
H19A H -0.1431 1.0154 -0.3919
H20A H -0.0994 1.1106 -0.3800
C13A C -0.0139(1) 0.9669(4) -0.3454(2)
H21A H -0.0012 0.9679 -0.3003
H22A H -0.0069 1.0422 -0.3575
H23A H 0.0050 0.9063 -0.3532
C14A C -0.0954(2) 0.9456(4) -0.4564(2)
H24A H -0.1341 0.9333 -0.4819
H25A H -0.0777 0.8847 -0.4658
H26A H -0.0870 1.0213 -0.4667
C15A C 0.0613(1) 0.5124(3) -0.2997(1)
C16A C 0.0656(1) 0.5637(3) -0.3558(1)
C17A C 0.1062(1) 0.6603(3) -0.3322(1)
C18A C 0.1053(1) 0.7575(4) -0.3608(1)
C19A C 0.0562(1) 0.7815(3) -0.4282(2)
C20A C 0.0192(1) 0.6752(4) -0.4602(1)
C21A C 0.0116(1) 0.6085(4) -0.4113(1)
H27A H 0.0780 0.5003 -0.3720
H33A H -0.0047 0.6608 -0.3949
H34A H -0.0130 0.5424 -0.4325
H31A H 0.0350 0.6228 -0.4771
H32A H -0.0161 0.7014 -0.4961
H29A H 0.0691 0.8083 -0.4552
H30A H 0.0350 0.8450 -0.4257
Si2A Si 0.1618(1) 0.8687(1) -0.3219(1)
C22A C 0.2241(2) 0.8001(5) -0.2474(2)
H35A H 0.2382 0.7372 -0.2606
H36A H 0.2137 0.7692 -0.2192
H37A H 0.2517 0.8594 -0.2251
C23A C 0.1441(2) 0.9902(5) -0.2905(3)
H38A H 0.1126 1.0295 -0.3252
H39A H 0.1740 1.0447 -0.2698
H40A H 0.1360 0.9618 -0.2597
C24A C 0.1865(1) 0.8995(5) -0.3752(2)
H41A H 0.1579 0.9358 -0.4142
H42A H 0.1974 0.8269 -0.3854
H43A H 0.2173 0.9520 -0.3538
H28A H 0.1369 0.6498 -0.2909
C25A C 0.0847(1) 0.3881(3) -0.2785(1)
C26A C 0.0835(1) 0.3504(4) -0.2205(2)
H44A H 0.1059 0.4026 -0.1850
H45A H 0.0971 0.2711 -0.2088
H46A H 0.0466 0.3535 -0.2307
C27A C 0.1441(1) 0.3829(4) -0.2608(2)
H47A H 0.1660 0.4372 -0.2262
H48A H 0.1454 0.4042 -0.2978
H49A H 0.1580 0.3042 -0.2474
C28A C 0.0479(2) 0.3001(3) -0.3341(2)
H50A H 0.0111 0.3054 -0.3445
H51A H 0.0612 0.2211 -0.3206
H52A H 0.0488 0.3197 -0.3716
loop_
_geom_bond_atom_site_label_1
_geom_bond_atom_site_label_2
_geom_bond_site_symmetry_1
_geom_bond_site_symmetry_2
Li1 N1 1_555 1_555
Li2 N1 1_555 1_555
N1 C1 1_555 1_555
C1 C2 1_555 1_555
C2 C3 1_555 1_555
C3 C4 1_555 1_555
C4 C5 1_555 1_555
C5 C6 1_555 1_555
C6 C7 1_555 1_555
C7 C2 1_555 1_555
Si1 C4 1_555 1_555
C8 Si1 1_555 1_555
C9 Si1 1_555 1_555
C10 Si1 1_555 1_555
C11 C1 1_555 1_555
C12 C11 1_555 1_555
C13 C11 1_555 1_555
C14 C11 1_555 1_555
N2 Li1 1_555 1_555
C15 N2 1_555 1_555
C16 C15 1_555 1_555
C17 C16 1_555 1_555
C18 C17 1_555 1_555
C19 C18 1_555 1_555
C20 C19 1_555 1_555
C21 C16 1_555 1_555
Si2 C18 1_555 1_555
C22 Si2 1_555 1_555
C23 Si2 1_555 1_555
C24 Si2 1_555 1_555
C25 C15 1_555 1_555
C26 C25 1_555 1_555
C27 C25 1_555 1_555
C28 C25 1_555 1_555
H1 C2 1_555 1_555
H2 C3 1_555 1_555
H3 C5 1_555 1_555
H4 C5 1_555 1_555
H5 C6 1_555 1_555
H6 C6 1_555 1_555
H7 C7 1_555 1_555
H8 C7 1_555 1_555
H9 C8 1_555 1_555
H10 C8 1_555 1_555
H11 C8 1_555 1_555
H12 C9 1_555 1_555
H13 C9 1_555 1_555
H14 C9 1_555 1_555
H15 C10 1_555 1_555
H16 C10 1_555 1_555
H17 C10 1_555 1_555
H18 C12 1_555 1_555
H19 C12 1_555 1_555
H20 C12 1_555 1_555
H21 C13 1_555 1_555
H22 C13 1_555 1_555
H23 C13 1_555 1_555
H24 C14 1_555 1_555
H25 C14 1_555 1_555
H26 C14 1_555 1_555
H27 C16 1_555 1_555
H28 C17 1_555 1_555
H29 C19 1_555 1_555
H30 C19 1_555 1_555
H31 C20 1_555 1_555
H32 C20 1_555 1_555
H33 C21 1_555 1_555
H34 C21 1_555 1_555
H35 C22 1_555 1_555
H36 C22 1_555 1_555
H37 C22 1_555 1_555
H38 C23 1_555 1_555
H39 C23 1_555 1_555
H40 C23 1_555 1_555
H41 C24 1_555 1_555
H42 C24 1_555 1_555
H43 C24 1_555 1_555
H44 C26 1_555 1_555
H45 C26 1_555 1_555
H46 C26 1_555 1_555
H47 C27 1_555 1_555
H48 C27 1_555 1_555
H49 C27 1_555 1_555
H50 C28 1_555 1_555
H51 C28 1_555 1_555
H52 C28 1_555 1_555
Li1A N1 1_555 1_555
N1A Li1 1_555 1_555
N2A Li2 1_555 1_555
Li2A N2 1_555 1_555
C1A N1A 1_555 1_555
C2A C1A 1_555 1_555
C3A C2A 1_555 1_555
C4A C3A 1_555 1_555
C5A C4A 1_555 1_555
C6A C5A 1_555 1_555
C7A C2A 1_555 1_555
H1A C2A 1_555 1_555
H7A C7A 1_555 1_555
H8A C7A 1_555 1_555
H5A C6A 1_555 1_555
H6A C6A 1_555 1_555
H3A C5A 1_555 1_555
H4A C5A 1_555 1_555
Si1A C4A 1_555 1_555
C8A Si1A 1_555 1_555
H9A C8A 1_555 1_555
H10A C8A 1_555 1_555
H11A C8A 1_555 1_555
C9A Si1A 1_555 1_555
H12A C9A 1_555 1_555
H13A C9A 1_555 1_555
H14A C9A 1_555 1_555
C10A Si1A 1_555 1_555
H15A C10A 1_555 1_555
H16A C10A 1_555 1_555
H17A C10A 1_555 1_555
H2A C3A 1_555 1_555
C11A C1A 1_555 1_555
C12A C11A 1_555 1_555
H18A C12A 1_555 1_555
H19A C12A 1_555 1_555
H20A C12A 1_555 1_555
C13A C11A 1_555 1_555
H21A C13A 1_555 1_555
H22A C13A 1_555 1_555
H23A C13A 1_555 1_555
C14A C11A 1_555 1_555
H24A C14A 1_555 1_555
H25A C14A 1_555 1_555
H26A C14A 1_555 1_555
C15A N2A 1_555 1_555
C16A C15A 1_555 1_555
C17A C16A 1_555 1_555
C18A C17A 1_555 1_555
C19A C18A 1_555 1_555
C20A C19A 1_555 1_555
C21A C16A 1_555 1_555
H27A C16A 1_555 1_555
H33A C21A 1_555 1_555
H34A C21A 1_555 1_555
H31A C20A 1_555 1_555
H32A C20A 1_555 1_555
H29A C19A 1_555 1_555
H30A C19A 1_555 1_555
Si2A C18A 1_555 1_555
C22A Si2A 1_555 1_555
H35A C22A 1_555 1_555
H36A C22A 1_555 1_555
H37A C22A 1_555 1_555
C23A Si2A 1_555 1_555
H38A C23A 1_555 1_555
H39A C23A 1_555 1_555
H40A C23A 1_555 1_555
C24A Si2A 1_555 1_555
H41A C24A 1_555 1_555
H42A C24A 1_555 1_555
H43A C24A 1_555 1_555
H28A C17A 1_555 1_555
C25A C15A 1_555 1_555
C26A C25A 1_555 1_555
H44A C26A 1_555 1_555
H45A C26A 1_555 1_555
H46A C26A 1_555 1_555
C27A C25A 1_555 1_555
H47A C27A 1_555 1_555
H48A C27A 1_555 1_555
H49A C27A 1_555 1_555
C28A C25A 1_555 1_555
H50A C28A 1_555 1_555
H51A C28A 1_555 1_555
H52A C28A 1_555 1_555
Li2 N2 1_555 1_555
C20 C21 1_555 1_555
Li1A N1A 1_555 1_555
Li1A N2A 1_555 1_555
N1A Li2A 1_555 1_555
N2A Li2A 1_555 1_555
C6A C7A 1_555 1_555
C20A C21A 1_555 1_555

#END
