
#######################################################################
#
#                 Cambridge Crystallographic Data Centre
#                                CCDC 
#
#######################################################################
#
# If this CIF has been generated from an entry in the Cambridge 
# Structural Database, then it will include bibliographic, chemical, 
# crystal, experimental, refinement or atomic coordinate data resulting 
# from the CCDC's data processing and validation procedures.
#
#######################################################################

data_LAJVUP
_chemical_name_common            
N'-(2,4-Difluorobenzylidene)pyrazine-2-carbohydrazide
_chemical_formula_moiety         'C12 H8 F2 N4 O1'
_chemical_name_systematic        
'2,4-Difluorobenzaldehyde (pyrazin-2-ylcarbonyl)hydrazone'
_symmetry_cell_setting           triclinic
_symmetry_space_group_name_H-M   'P -1'
_symmetry_Int_Tables_number      2
_space_group_name_Hall           '-P 1'
loop_
_symmetry_equiv_pos_site_id
_symmetry_equiv_pos_as_xyz
1 x,y,z
2 -x,-y,-z
_cell_length_a                   5.499(3)
_cell_length_b                   7.446(4)
_cell_length_c                   14.657(10)
_cell_angle_alpha                99.487(7)
_cell_angle_beta                 96.762(7)
_cell_angle_gamma                111.334(5)
_cell_volume                     540.956
_exptl_crystal_colour            colorless
_exptl_crystal_description       plate
_cell_formula_units_Z            2
loop_
_atom_site_label
_atom_site_type_symbol
_atom_site_fract_x
_atom_site_fract_y
_atom_site_fract_z
F1 F -0.22485(17) 0.18080(13) 0.09806(6)
F2 F -0.22497(19) -0.45628(13) 0.02977(8)
O1 O 1.0452(2) 0.62847(15) 0.33029(8)
N1 N 1.3305(2) 1.22694(18) 0.45233(9)
N2 N 0.8032(2) 1.01297(17) 0.35445(9)
N3 N 0.6208(2) 0.61271(17) 0.29556(9)
H1 H 0.5148 0.6769 0.3000
N4 N 0.5195(2) 0.41439(17) 0.25319(8)
C1 C 0.9742(3) 0.9256(2) 0.36924(9)
C2 C 1.2348(3) 1.0314(2) 0.41742(10)
H2 H 1.3486 0.9629 0.4259
C3 C 1.1615(3) 1.3143(2) 0.43595(10)
H3 H 1.2218 1.4535 0.4581
C4 C 0.9007(3) 1.2091(2) 0.38771(10)
H4 H 0.7883 1.2783 0.3781
C5 C 0.8855(3) 0.7081(2) 0.33034(10)
C6 C 0.2723(3) 0.3397(2) 0.21499(10)
H5 H 0.1720 0.4202 0.2166
C7 C 0.1451(3) 0.1296(2) 0.16878(10)
C8 C -0.1059(3) 0.0539(2) 0.11091(10)
C9 C -0.2368(3) -0.1409(2) 0.06368(10)
H6 H -0.4079 -0.1877 0.0247
C10 C -0.1059(3) -0.2648(2) 0.07604(11)
C11 C 0.1424(3) -0.2012(2) 0.13250(11)
H7 H 0.2262 -0.2908 0.1394
C12 C 0.2660(3) -0.0047(2) 0.17861(10)
H8 H 0.4365 0.0408 0.2179
loop_
_geom_bond_atom_site_label_1
_geom_bond_atom_site_label_2
_geom_bond_site_symmetry_1
_geom_bond_site_symmetry_2
F1 C8 1_555 1_555
F2 C10 1_555 1_555
O1 C5 1_555 1_555
N1 C2 1_555 1_555
N2 C1 1_555 1_555
N3 H1 1_555 1_555
N4 N3 1_555 1_555
C1 C2 1_555 1_555
C2 H2 1_555 1_555
C3 N1 1_555 1_555
H3 C3 1_555 1_555
C4 N2 1_555 1_555
H4 C4 1_555 1_555
C5 N3 1_555 1_555
C6 N4 1_555 1_555
H5 C6 1_555 1_555
C7 C6 1_555 1_555
C8 C7 1_555 1_555
C9 C8 1_555 1_555
H6 C9 1_555 1_555
C10 C9 1_555 1_555
C11 C10 1_555 1_555
H7 C11 1_555 1_555
C12 C7 1_555 1_555
H8 C12 1_555 1_555
C1 C5 1_555 1_555
C3 C4 1_555 1_555
C11 C12 1_555 1_555

#END
