
#######################################################################
#
#                 Cambridge Crystallographic Data Centre
#                                CCDC 
#
#######################################################################
#
# If this CIF has been generated from an entry in the Cambridge 
# Structural Database, then it will include bibliographic, chemical, 
# crystal, experimental, refinement or atomic coordinate data resulting 
# from the CCDC's data processing and validation procedures.
#
#######################################################################

data_LAJWIE
_chemical_name_common            
N'-(4-Hydroxy-3-methoxybenzylidene)pyrazine-2-carbohydrazide
_chemical_formula_moiety         'C13 H12 N4 O3'
_chemical_name_systematic        
'3-Methoxy-4-hydroxybenzaldehyde (pyrazin-2-ylcarbonyl)hydrazone'
_symmetry_cell_setting           monoclinic
_symmetry_space_group_name_H-M   'P n'
_symmetry_Int_Tables_number      7
_space_group_name_Hall           'P -2yn'
loop_
_symmetry_equiv_pos_site_id
_symmetry_equiv_pos_as_xyz
1 x,y,z
2 1/2+x,1/2-y,1/2+z
_cell_length_a                   7.1517(3)
_cell_length_b                   12.4022(5)
_cell_length_c                   7.6924(3)
_cell_angle_alpha                90
_cell_angle_beta                 116.527(2)
_cell_angle_gamma                90
_cell_volume                     610.462
_exptl_crystal_colour            colorless
_exptl_crystal_description       plate
_cell_formula_units_Z            2
loop_
_atom_site_label
_atom_site_type_symbol
_atom_site_fract_x
_atom_site_fract_y
_atom_site_fract_z
O1 O 0.5162(3) 0.38184(16) 0.2690(3)
O2 O 0.6175(4) -0.30613(15) 0.0811(3)
O3 O 0.6286(3) -0.24367(17) -0.2492(3)
H1 H 0.6278 -0.3055 -0.2048
N1 N 0.6734(4) 0.5320(2) 0.8050(4)
N2 N 0.6685(4) 0.3071(2) 0.7572(4)
N3 N 0.6731(4) 0.2271(2) 0.4318(3)
H2 H 0.7393 0.1963 0.5464
N4 N 0.6402(4) 0.1697(2) 0.2654(3)
C1 C 0.6430(4) 0.3759(2) 0.6135(4)
C2 C 0.6439(4) 0.4868(2) 0.6363(4)
H3 H 0.6232 0.5320 0.5295
C3 C 0.6965(5) 0.4635(3) 0.9478(4)
H4 H 0.7151 0.4919 1.0691
C4 C 0.6942(5) 0.3524(2) 0.9248(4)
H5 H 0.7113 0.3072 1.0306
C5 C 0.6054(4) 0.3288(2) 0.4201(4)
C6 C 0.6676(5) 0.0682(2) 0.2954(4)
H6 H 0.7034 0.0419 0.4223
C7 C 0.6469(4) -0.0095(2) 0.1450(4)
C8 C 0.6423(5) -0.1195(2) 0.1886(4)
H7 H 0.6471 -0.1400 0.3096
C9 C 0.6309(4) -0.1977(2) 0.0569(4)
C10 C 0.6321(4) -0.1680(2) -0.1197(4)
C11 C 0.6336(5) -0.0598(2) -0.1627(4)
H8 H 0.6315 -0.0397 -0.2827
C12 C 0.6381(4) 0.0200(3) -0.0341(4)
H9 H 0.6353 0.0939 -0.0674
C13 C 0.5788(5) -0.3383(3) 0.2409(4)
H10 H 0.4568 -0.2995 0.2351
H11 H 0.7012 -0.3215 0.3634
H12 H 0.5518 -0.4161 0.2336
loop_
_geom_bond_atom_site_label_1
_geom_bond_atom_site_label_2
_geom_bond_site_symmetry_1
_geom_bond_site_symmetry_2
O1 C5 1_555 1_555
O2 C9 1_555 1_555
O3 H1 1_555 1_555
N1 C2 1_555 1_555
N2 C1 1_555 1_555
N3 H2 1_555 1_555
N4 N3 1_555 1_555
C1 C2 1_555 1_555
C2 H3 1_555 1_555
C3 N1 1_555 1_555
H4 C3 1_555 1_555
C4 N2 1_555 1_555
H5 C4 1_555 1_555
C5 N3 1_555 1_555
C6 N4 1_555 1_555
H6 C6 1_555 1_555
C7 C6 1_555 1_555
C8 C7 1_555 1_555
H7 C8 1_555 1_555
C9 C8 1_555 1_555
C10 O3 1_555 1_555
C11 C10 1_555 1_555
H8 C11 1_555 1_555
C12 C7 1_555 1_555
H9 C12 1_555 1_555
C13 O2 1_555 1_555
H10 C13 1_555 1_555
H11 C13 1_555 1_555
H12 C13 1_555 1_555
C1 C5 1_555 1_555
C3 C4 1_555 1_555
C9 C10 1_555 1_555
C11 C12 1_555 1_555

#END
