
#######################################################################
#
#                 Cambridge Crystallographic Data Centre
#                                CCDC 
#
#######################################################################
#
# If this CIF has been generated from an entry in the Cambridge 
# Structural Database, then it will include bibliographic, chemical, 
# crystal, experimental, refinement or atomic coordinate data resulting 
# from the CCDC's data processing and validation procedures.
#
#######################################################################

data_LAJXIG
_chemical_name_common            
'5,11,17,23-tetrakis((cyclohexylammonium)methyl)-2,8,14,20-tetramethyl-4,6,10,12,16,18,22,24-octahydroxycalix(4)arene tetrakis(chloride) methanol chloroform solvate'
_chemical_formula_moiety         
'C64 H96 N4 O8 4+,C1 H4 O1,4(Cl1 1-),0.5(C1 H1 Cl3)'
_chemical_name_systematic        
'5,11,17,23-tetrakis((cyclohexylammonium)methyl)-2,8,14,20-tetramethylcalix(4)resorcinarene tetrakis(chloride) methanol chloroform solvate'
_symmetry_cell_setting           orthorhombic
_symmetry_space_group_name_H-M   'P b c a'
_symmetry_Int_Tables_number      61
_space_group_name_Hall           '-P 2ac 2ab'
loop_
_symmetry_equiv_pos_site_id
_symmetry_equiv_pos_as_xyz
1 x,y,z
2 1/2-x,-y,1/2+z
3 1/2+x,1/2-y,-z
4 -x,1/2+y,1/2-z
5 -x,-y,-z
6 1/2+x,y,1/2-z
7 1/2-x,1/2+y,z
8 x,1/2-y,1/2+z
_cell_length_a                   22.5072(9)
_cell_length_b                   23.4929(8)
_cell_length_c                   26.1194(8)
_cell_angle_alpha                90
_cell_angle_beta                 90
_cell_angle_gamma                90
_cell_volume                     13810.9
_exptl_crystal_colour            colorless
_exptl_crystal_description       plate
_cell_formula_units_Z            8
loop_
_atom_site_label
_atom_site_type_symbol
_atom_site_fract_x
_atom_site_fract_y
_atom_site_fract_z
Cl1 Cl 0.63955(11) 0.41343(11) 0.82570(9)
Cl2 Cl 0.49133(11) 0.55435(10) 0.81822(10)
Cl3 Cl 0.67009(11) 0.79211(12) 0.81409(10)
Cl4 Cl 0.7732(2) 0.6033(2) 0.83652(17)
O1 O 0.5829(3) 0.7562(2) 0.7119(2)
H1 H 0.6182 0.7633 0.7076
O2 O 0.6989(3) 0.7861(2) 0.7015(2)
H2 H 0.7018 0.7924 0.7323
O3 O 0.7108(3) 0.3884(2) 0.7332(2)
H3 H 0.6878 0.3976 0.7588
O4 O 0.8615(2) 0.6607(2) 0.7291(2)
H4 H 0.8623 0.6271 0.7376
O5 O 0.8454(3) 0.5461(2) 0.7453(3)
H5 H 0.8309 0.5558 0.7728
O6 O 0.6039(3) 0.3464(2) 0.7020(2)
H6 H 0.6373 0.3513 0.7137
O7 O 0.4607(3) 0.5926(2) 0.7137(2)
H7 H 0.4738 0.5783 0.7400
O8 O 0.4465(3) 0.4786(2) 0.6988(3)
H8 H 0.4441 0.5131 0.7032
N1 N 0.5489(3) 0.6962(3) 0.8044(3)
H9 H 0.5667 0.6623 0.8043
H10 H 0.5761 0.7219 0.7956
C1 C 0.5701(3) 0.7057(3) 0.6893(3)
N2 N 0.5025(3) 0.4162(3) 0.7910(3)
H11 H 0.4918 0.4522 0.7860
H12 H 0.5408 0.4160 0.7995
C2 C 0.5961(3) 0.6865(3) 0.6441(3)
C3 C 0.5737(3) 0.6365(3) 0.6221(3)
H13 H 0.5901 0.6236 0.5916
C4 C 0.7066(3) 0.7029(3) 0.6503(3)
C5 C 0.5264(4) 0.4144(3) 0.6982(3)
C6 C 0.6150(4) 0.4305(4) 0.6483(3)
C7 C 0.6490(4) 0.7193(3) 0.6219(3)
H14 H 0.6419 0.7596 0.6292
C8 C 0.7900(3) 0.6371(3) 0.6622(3)
C9 C 0.7806(3) 0.7213(3) 0.7165(3)
C10 C 0.7288(4) 0.7367(3) 0.6898(3)
C11 C 0.7375(3) 0.6536(3) 0.6384(3)
H15 H 0.7223 0.6302 0.6129
N3 N 0.7937(3) 0.7307(3) 0.8102(3)
H16 H 0.7996 0.6932 0.8088
H17 H 0.7556 0.7365 0.8176
C12 C 0.5015(3) 0.4654(3) 0.6800(3)
C13 C 0.5275(4) 0.6053(3) 0.6445(3)
C14 C 0.5250(3) 0.6740(3) 0.7137(3)
C15 C 0.5319(4) 0.4972(3) 0.6438(3)
N4 N 0.7678(4) 0.4669(4) 0.8355(3)
H18 H 0.7301 0.4572 0.8299
H19 H 0.7692 0.5046 0.8329
C16 C 0.5040(4) 0.5515(3) 0.6199(3)
H20 H 0.4616 0.5500 0.6284
C17 C 0.8103(4) 0.6713(4) 0.7020(3)
C18 C 0.5883(3) 0.4800(3) 0.6296(3)
H21 H 0.6095 0.5025 0.6066
C19 C 0.7518(4) 0.4972(3) 0.6413(3)
H22 H 0.7438 0.5067 0.6074
C20 C 0.5041(3) 0.6244(3) 0.6907(3)
C21 C 0.7780(4) 0.4665(3) 0.7417(3)
C22 C 0.5824(4) 0.3975(3) 0.6819(3)
C23 C 0.6791(4) 0.4148(3) 0.6318(3)
H23 H 0.6853 0.3752 0.6424
C24 C 0.8319(4) 0.7556(4) 0.8529(3)
H24 H 0.8360 0.7965 0.8467
C25 C 0.8066(4) 0.7557(3) 0.7589(3)
H25 H 0.7906 0.7940 0.7574
H26 H 0.8493 0.7581 0.7542
C26 C 0.4951(4) 0.3841(4) 0.7415(3)
H27 H 0.4531 0.3806 0.7336
H28 H 0.5113 0.3461 0.7453
C27 C 0.5011(4) 0.6957(3) 0.7631(3)
H29 H 0.4683 0.6718 0.7741
H30 H 0.4860 0.7340 0.7583
C28 C 0.8232(4) 0.5824(4) 0.6465(3)
H31 H 0.8626 0.5841 0.6625
C29 C 0.7239(4) 0.4505(3) 0.6620(3)
C30 C 0.8333(5) 0.5799(4) 0.5886(4)
H32 H 0.8510 0.5435 0.5798
H33 H 0.7952 0.5823 0.5713
C31 C 0.8040(4) 0.5153(3) 0.7188(3)
C32 C 0.6550(4) 0.7140(4) 0.5633(3)
H34 H 0.6641 0.6748 0.5547
H35 H 0.6173 0.7235 0.5476
C33 C 0.5074(4) 0.5491(4) 0.5610(3)
H36 H 0.5486 0.5525 0.5504
H37 H 0.4928 0.5125 0.5493
C34 C 0.7919(4) 0.5313(4) 0.6688(4)
C35 C 0.4021(4) 0.4093(4) 0.8308(4)
H38 H 0.3853 0.3925 0.8002
H39 H 0.3993 0.4503 0.8277
C36 C 0.4667(4) 0.3922(3) 0.8355(4)
H40 H 0.4685 0.3506 0.8333
C37 C 0.5298(5) 0.7083(4) 0.8569(3)
H41 H 0.4966 0.6826 0.8640
C38 C 0.7372(4) 0.4365(3) 0.7124(3)
C39 C 0.4953(4) 0.4094(5) 0.8849(3)
H42 H 0.4973 0.4505 0.8871
H43 H 0.5355 0.3945 0.8864
C40 C 0.8011(4) 0.4451(4) 0.7910(4)
H44 H 0.7993 0.4038 0.7910
H45 H 0.8424 0.4560 0.7944
C41 C 0.9025(4) 0.7518(5) 0.9465(4)
H46 H 0.9012 0.7122 0.9570
H47 H 0.9258 0.7725 0.9716
C42 C 0.6884(5) 0.4162(4) 0.5749(4)
H48 H 0.6744 0.4523 0.5617
H49 H 0.7306 0.4136 0.5678
C43 C 0.4588(5) 0.3858(5) 0.9301(4)
H50 H 0.4604 0.3446 0.9298
H51 H 0.4760 0.3989 0.9621
C44 C 0.4714(5) 0.5962(4) 0.5363(4)
H52 H 0.4720 0.5916 0.4998
H53 H 0.4881 0.6324 0.5453
H54 H 0.4311 0.5942 0.5483
C45 C 0.8400(5) 0.7755(5) 0.9456(4)
H55 H 0.8417 0.8163 0.9398
H56 H 0.8214 0.7692 0.9786
C46 C 0.8023(5) 0.7480(6) 0.9038(4)
H57 H 0.7975 0.7077 0.9110
H58 H 0.7632 0.7653 0.9032
C47 C 0.5772(5) 0.6946(5) 0.8957(4)
H59 H 0.6122 0.7174 0.8886
H60 H 0.5882 0.6549 0.8924
C48 C 0.3940(5) 0.4052(5) 0.9270(4)
H61 H 0.3716 0.3880 0.9547
H62 H 0.3921 0.4462 0.9311
C49 C 0.8934(4) 0.7297(4) 0.8531(4)
H63 H 0.9116 0.7353 0.8198
H64 H 0.8903 0.6891 0.8590
C50 C 0.3668(4) 0.3894(4) 0.8779(4)
H65 H 0.3272 0.4056 0.8763
H66 H 0.3627 0.3483 0.8766
C51 C 0.4859(5) 0.7796(6) 0.9181(4)
H67 H 0.4515 0.7562 0.9258
H68 H 0.4743 0.8192 0.9216
C52 C 0.7034(5) 0.7527(5) 0.5415(4)
H69 H 0.7100 0.7435 0.5062
H70 H 0.7396 0.7473 0.5604
H71 H 0.6911 0.7917 0.5444
C53 C 0.8732(5) 0.6274(5) 0.5696(4)
H72 H 0.8721 0.6287 0.5329
H73 H 0.9132 0.6206 0.5807
H74 H 0.8597 0.6631 0.5832
C54 C 0.5058(5) 0.7685(4) 0.8634(4)
H75 H 0.5364 0.7956 0.8542
H76 H 0.4724 0.7740 0.8404
C55 C 0.9327(4) 0.7562(5) 0.8941(4)
H77 H 0.9400 0.7958 0.8860
H78 H 0.9706 0.7366 0.8951
C56 C 0.5565(6) 0.7061(6) 0.9507(4)
H79 H 0.5245 0.6802 0.9594
H80 H 0.5891 0.6994 0.9742
C57 C 0.5355(6) 0.7662(6) 0.9558(4)
H81 H 0.5686 0.7918 0.9498
H82 H 0.5213 0.7724 0.9904
C58 C 0.6574(5) 0.3695(6) 0.5478(5)
H83 H 0.6644 0.3728 0.5117
H84 H 0.6155 0.3720 0.5544
H85 H 0.6721 0.3335 0.5598
C59 C 0.7887(12) 0.3876(10) 0.9632(8)
H86 H 0.7978 0.3473 0.9645
H87 H 0.7562 0.3944 0.9869
C60 C 0.8388(8) 0.4852(8) 0.9091(8)
H88 H 0.8704 0.4742 0.8859
H89 H 0.8333 0.5261 0.9066
C61 C 0.8559(14) 0.4687(13) 0.9654(12)
H90 H 0.8985 0.4733 0.9687
H91 H 0.8377 0.4966 0.9879
C62 C 0.7675(13) 0.4009(12) 0.9114(11)
H92 H 0.7849 0.3736 0.8879
H93 H 0.7248 0.3953 0.9107
C63 C 0.8430(16) 0.4202(16) 0.9826(13)
H94 H 0.8386 0.4241 1.0194
H95 H 0.8773 0.3961 0.9769
C64 C 0.7792(12) 0.4537(14) 0.8940(12)
H96 H 0.7489 0.4767 0.9111
Cl6 Cl 0.5338(3) 0.5516(3) 0.9451(3)
Cl7 Cl 0.6123(4) 0.4593(3) 0.9662(3)
Cl8 Cl 0.6560(4) 0.5601(4) 0.9133(5)
C71 C 0.5918(9) 0.5208(11) 0.9287(10)
H110 H 0.5809 0.5039 0.8957
C72 C 0.6468(5) 0.5766(6) 0.7522(4)
H112 H 0.6093 0.5739 0.7349
H113 H 0.6541 0.5421 0.7708
H114 H 0.6779 0.5824 0.7276
O10 O 0.6456(8) 0.6221(8) 0.7860(10)
H115 H 0.6698 0.6167 0.8090
Cl5? Cl 0.8180(3) 0.5903(2) 0.8443(2)
H97? H 0.7292 0.4589 0.8328
H98? H 0.7724 0.5043 0.8389
C65? C 0.7967(15) 0.4340(12) 0.8819(10)
H99? H 0.7837 0.3942 0.8802
C66? C 0.8266(14) 0.4438(14) 0.9914(12)
H100? H 0.8308 0.4236 1.0236
H101? H 0.8406 0.4825 0.9965
C67? C 0.8678(10) 0.4123(10) 0.9471(9)
H102? H 0.9095 0.4192 0.9544
H103? H 0.8612 0.3715 0.9485
C68? C 0.7652(12) 0.4449(12) 0.9770(9)
H104? H 0.7436 0.4677 1.0018
H105? H 0.7497 0.4065 0.9787
C69? C 0.8534(10) 0.4342(10) 0.8920(8)
H106? H 0.8685 0.4726 0.8883
H107? H 0.8737 0.4103 0.8673
C70? C 0.7539(11) 0.4677(13) 0.9261(8)
H108? H 0.7626 0.5082 0.9257
H109? H 0.7123 0.4627 0.9176
O9? O 0.6192(8) 0.5960(8) 0.7981(6)
H111? H 0.5842 0.5863 0.7983
H116? H 0.6236 0.5883 0.7232
H117? H 0.6496 0.5358 0.7528
H118? H 0.6860 0.5926 0.7497
loop_
_geom_bond_atom_site_label_1
_geom_bond_atom_site_label_2
_geom_bond_site_symmetry_1
_geom_bond_site_symmetry_2
O1 H1 1_555 1_555
O2 H2 1_555 1_555
O3 H3 1_555 1_555
O4 H4 1_555 1_555
O5 H5 1_555 1_555
O6 H6 1_555 1_555
O7 H7 1_555 1_555
O8 H8 1_555 1_555
N1 H9 1_555 1_555
H10 N1 1_555 1_555
C1 O1 1_555 1_555
N2 H11 1_555 1_555
H12 N2 1_555 1_555
C2 C1 1_555 1_555
C3 C2 1_555 1_555
H13 C3 1_555 1_555
C4 C7 1_555 1_555
C5 C12 1_555 1_555
C6 C18 1_555 1_555
C7 C2 1_555 1_555
H14 C7 1_555 1_555
C8 C11 1_555 1_555
C9 C10 1_555 1_555
C10 O2 1_555 1_555
C11 C4 1_555 1_555
H15 C11 1_555 1_555
N3 H16 1_555 1_555
H17 N3 1_555 1_555
C12 O8 1_555 1_555
C13 C3 1_555 1_555
C14 C1 1_555 1_555
C15 C12 1_555 1_555
N4 H18 1_555 1_555
H19 N4 1_555 1_555
C16 C13 1_555 1_555
H20 C16 1_555 1_555
C17 O4 1_555 1_555
C18 C15 1_555 1_555
H21 C18 1_555 1_555
C19 H22 1_555 1_555
C20 O7 1_555 1_555
C21 C31 1_555 1_555
C22 O6 1_555 1_555
C23 C6 1_555 1_555
H23 C23 1_555 1_555
C24 N3 1_555 1_555
H24 C24 1_555 1_555
C25 C9 1_555 1_555
H25 C25 1_555 1_555
H26 C25 1_555 1_555
C26 N2 1_555 1_555
H27 C26 1_555 1_555
H28 C26 1_555 1_555
C27 N1 1_555 1_555
H29 C27 1_555 1_555
H30 C27 1_555 1_555
C28 C8 1_555 1_555
H31 C28 1_555 1_555
C29 C19 1_555 1_555
C30 C28 1_555 1_555
H32 C30 1_555 1_555
H33 C30 1_555 1_555
C31 O5 1_555 1_555
C32 C7 1_555 1_555
H34 C32 1_555 1_555
H35 C32 1_555 1_555
C33 C16 1_555 1_555
H36 C33 1_555 1_555
H37 C33 1_555 1_555
C34 C19 1_555 1_555
C35 H38 1_555 1_555
H39 C35 1_555 1_555
C36 N2 1_555 1_555
H40 C36 1_555 1_555
C37 N1 1_555 1_555
H41 C37 1_555 1_555
C38 O3 1_555 1_555
C39 C36 1_555 1_555
H42 C39 1_555 1_555
H43 C39 1_555 1_555
C40 N4 1_555 1_555
H44 C40 1_555 1_555
H45 C40 1_555 1_555
C41 H46 1_555 1_555
H47 C41 1_555 1_555
C42 C23 1_555 1_555
H48 C42 1_555 1_555
H49 C42 1_555 1_555
C43 C39 1_555 1_555
H50 C43 1_555 1_555
H51 C43 1_555 1_555
C44 C33 1_555 1_555
H52 C44 1_555 1_555
H53 C44 1_555 1_555
H54 C44 1_555 1_555
C45 C41 1_555 1_555
H55 C45 1_555 1_555
H56 C45 1_555 1_555
C46 C24 1_555 1_555
H57 C46 1_555 1_555
H58 C46 1_555 1_555
C47 C37 1_555 1_555
H59 C47 1_555 1_555
H60 C47 1_555 1_555
C48 C43 1_555 1_555
H61 C48 1_555 1_555
H62 C48 1_555 1_555
C49 C24 1_555 1_555
H63 C49 1_555 1_555
H64 C49 1_555 1_555
C50 C35 1_555 1_555
H65 C50 1_555 1_555
H66 C50 1_555 1_555
C51 H67 1_555 1_555
H68 C51 1_555 1_555
C52 C32 1_555 1_555
H69 C52 1_555 1_555
H70 C52 1_555 1_555
H71 C52 1_555 1_555
C53 C30 1_555 1_555
H72 C53 1_555 1_555
H73 C53 1_555 1_555
H74 C53 1_555 1_555
C54 C37 1_555 1_555
H75 C54 1_555 1_555
H76 C54 1_555 1_555
C55 C41 1_555 1_555
H77 C55 1_555 1_555
H78 C55 1_555 1_555
C56 C47 1_555 1_555
H79 C56 1_555 1_555
H80 C56 1_555 1_555
C57 C51 1_555 1_555
H81 C57 1_555 1_555
H82 C57 1_555 1_555
C58 C42 1_555 1_555
H83 C58 1_555 1_555
H84 C58 1_555 1_555
H85 C58 1_555 1_555
C59 H86 1_555 1_555
H87 C59 1_555 1_555
C60 H88 1_555 1_555
H89 C60 1_555 1_555
C61 C60 1_555 1_555
H90 C61 1_555 1_555
H91 C61 1_555 1_555
C62 C59 1_555 1_555
H92 C62 1_555 1_555
H93 C62 1_555 1_555
C63 C59 1_555 1_555
H94 C63 1_555 1_555
H95 C63 1_555 1_555
C64 N4 1_555 1_555
H96 C64 1_555 1_555
Cl6 C71 1_555 1_555
Cl7 C71 1_555 1_555
Cl8 C71 1_555 1_555
C71 H110 1_555 1_555
C72 H112 1_555 1_555
H113 C72 1_555 1_555
H114 C72 1_555 1_555
O10 C72 1_555 1_555
H115 O10 1_555 1_555
C4 C10 1_555 1_555
C5 C22 1_555 1_555
C5 C26 1_555 1_555
C6 C22 1_555 1_555
C8 C17 1_555 1_555
C9 C17 1_555 1_555
N3 C25 1_555 1_555
C13 C20 1_555 1_555
C14 C20 1_555 1_555
C14 C27 1_555 1_555
C15 C16 1_555 1_555
C21 C38 1_555 1_555
C21 C40 1_555 1_555
C23 C29 1_555 1_555
C28 C34 1_555 1_555
C29 C38 1_555 1_555
C31 C34 1_555 1_555
C35 C36 1_555 1_555
C45 C46 1_555 1_555
C48 C50 1_555 1_555
C49 C55 1_555 1_555
C51 C54 1_555 1_555
C56 C57 1_555 1_555
C60 C64 1_555 1_555
C61 C63 1_555 1_555
C62 C64 1_555 1_555

#END
