
#######################################################################
#
#                 Cambridge Crystallographic Data Centre
#                                CCDC 
#
#######################################################################
#
# If this CIF has been generated from an entry in the Cambridge 
# Structural Database, then it will include bibliographic, chemical, 
# crystal, experimental, refinement or atomic coordinate data resulting 
# from the CCDC's data processing and validation procedures.
#
#######################################################################

data_LAJYOM
_chemical_name_common            
"Diethyl 3,3'-(ethane-1,2-diylbis((2-hydroxybenzyl)imino))dipropanoate"
_chemical_formula_moiety         'C26 H36 N2 O6'
_chemical_name_systematic        
anti-N,N'-bis(3-oxo-3-ethoxypropyl)-N,N'-bis(2-hydroxybenzyl)ethanediamine
_symmetry_cell_setting           monoclinic
_symmetry_space_group_name_H-M   'P 21/c'
_symmetry_Int_Tables_number      14
_space_group_name_Hall           '-P 2ybc'
loop_
_symmetry_equiv_pos_site_id
_symmetry_equiv_pos_as_xyz
1 x,y,z
2 -x,1/2+y,1/2-z
3 -x,-y,-z
4 x,1/2-y,1/2+z
_cell_length_a                   12.2572(5)
_cell_length_b                   7.9993(4)
_cell_length_c                   13.4437(5)
_cell_angle_alpha                90
_cell_angle_beta                 108.202(2)
_cell_angle_gamma                90
_cell_volume                     1252.18
_exptl_crystal_colour            colorless
_exptl_crystal_description       block
_chemical_melting_point          '377 K'
_cell_formula_units_Z            2
loop_
_atom_site_label
_atom_site_type_symbol
_atom_site_fract_x
_atom_site_fract_y
_atom_site_fract_z
C1 C 0.9599(4) 0.2663(7) 0.3758(4)
H1 H 0.9459 0.3494 0.3206
H2 H 1.0075 0.3175 0.4401
C2 C 1.0152(5) 0.1405(8) 0.3525(6)
H3 H 1.0460 0.0718 0.4134
H4 H 1.0768 0.1816 0.3293
H5 H 0.9635 0.0756 0.2978
H6 H 0.483(3) 0.341(4) 0.531(2)
N1 N 0.58693(14) 0.1715(2) 0.58698(13)
O1 O 0.41263(15) 0.3988(2) 0.52514(12)
C3 C 0.44845(19) 0.2327(3) 0.68142(16)
C4 C 0.37443(19) 0.3241(3) 0.59980(16)
C5 C 0.4042(2) 0.1650(3) 0.75612(18)
H7 H 0.4525 0.1040 0.8113
C6 C 0.72074(19) 0.1868(3) 0.48196(19)
H8 H 0.7052 0.0737 0.4553
H9 H 0.6649 0.2601 0.4350
C7 C 0.57329(19) 0.2124(3) 0.68977(16)
H10 H 0.6141 0.3152 0.7161
H11 H 0.6068 0.1239 0.7392
C8 C 0.54397(18) 0.0006(2) 0.55380(15)
H12 H 0.5098 -0.0452 0.6039
H13 H 0.6080 -0.0704 0.5535
C9 C 0.2598(2) 0.3437(3) 0.5928(2)
H14 H 0.2107 0.4032 0.5373
C10 C 0.70645(19) 0.1953(3) 0.58941(18)
H15 H 0.7539 0.1099 0.6335
H16 H 0.7332 0.3032 0.6204
C11 C 0.8386(2) 0.2364(3) 0.4824(2)
O2 O 0.91139(17) 0.2945(3) 0.55497(18)
C12 C 0.2187(2) 0.2749(4) 0.6681(2)
H17 H 0.1419 0.2886 0.6633
C13 C 0.2906(2) 0.1858(3) 0.7506(2)
H18 H 0.2630 0.1404 0.8018
O3 O 0.85059(18) 0.2165(4) 0.3887(2)
C1B C 0.0401(4) -0.2663(7) 0.6242(4)
H1B H 0.0541 -0.3494 0.6794
H2B H -0.0075 -0.3175 0.5599
C2B C -0.0152(5) -0.1405(8) 0.6475(6)
H3B H -0.0460 -0.0718 0.5866
H4B H -0.0768 -0.1816 0.6707
H5B H 0.0365 -0.0756 0.7022
H6B H 0.517(3) -0.341(4) 0.469(2)
N1B N 0.41307(14) -0.1715(2) 0.41302(13)
O1B O 0.58737(15) -0.3988(2) 0.47486(12)
C3B C 0.55155(19) -0.2327(3) 0.31858(16)
C4B C 0.62557(19) -0.3241(3) 0.40020(16)
C5B C 0.5958(2) -0.1650(3) 0.24388(18)
H7B H 0.5475 -0.1040 0.1887
C6B C 0.27926(19) -0.1868(3) 0.51804(19)
H8B H 0.2948 -0.0737 0.5447
H9B H 0.3351 -0.2601 0.5650
C7B C 0.42671(19) -0.2124(3) 0.31023(16)
H10B H 0.3859 -0.3152 0.2839
H11B H 0.3932 -0.1239 0.2608
C8B C 0.45603(18) -0.0006(2) 0.44620(15)
H12B H 0.4902 0.0452 0.3961
H13B H 0.3920 0.0704 0.4465
C9B C 0.7402(2) -0.3437(3) 0.4072(2)
H14B H 0.7893 -0.4032 0.4627
C10B C 0.29355(19) -0.1953(3) 0.41059(18)
H15B H 0.2461 -0.1099 0.3665
H16B H 0.2668 -0.3032 0.3796
C11B C 0.1614(2) -0.2364(3) 0.5176(2)
O2B O 0.08861(17) -0.2945(3) 0.44503(18)
C12B C 0.7813(2) -0.2749(4) 0.3319(2)
H17B H 0.8581 -0.2886 0.3367
C13B C 0.7094(2) -0.1858(3) 0.2494(2)
H18B H 0.7370 -0.1404 0.1982
O3B O 0.14941(18) -0.2165(4) 0.6113(2)
loop_
_geom_bond_atom_site_label_1
_geom_bond_atom_site_label_2
_geom_bond_site_symmetry_1
_geom_bond_site_symmetry_2
C1 H1 1_555 1_555
H2 C1 1_555 1_555
C2 C1 1_555 1_555
H3 C2 1_555 1_555
H4 C2 1_555 1_555
H5 C2 1_555 1_555
H6 O1 1_555 1_555
N1 C7 1_555 1_555
O1 C4 1_555 1_555
C3 C4 1_555 1_555
C4 C9 1_555 1_555
C5 C3 1_555 1_555
H7 C5 1_555 1_555
C6 H8 1_555 1_555
H9 C6 1_555 1_555
C7 C3 1_555 1_555
H10 C7 1_555 1_555
H11 C7 1_555 1_555
C8 N1 1_555 1_555
H12 C8 1_555 1_555
H13 C8 1_555 1_555
C9 H14 1_555 1_555
C10 N1 1_555 1_555
H15 C10 1_555 1_555
H16 C10 1_555 1_555
C11 C6 1_555 1_555
O2 C11 1_555 1_555
C12 C9 1_555 1_555
H17 C12 1_555 1_555
C13 C5 1_555 1_555
H18 C13 1_555 1_555
O3 C1 1_555 1_555
C1B H1B 1_555 1_555
H2B C1B 1_555 1_555
C2B C1B 1_555 1_555
H3B C2B 1_555 1_555
H4B C2B 1_555 1_555
H5B C2B 1_555 1_555
H6B O1B 1_555 1_555
N1B C7B 1_555 1_555
O1B C4B 1_555 1_555
C3B C4B 1_555 1_555
C4B C9B 1_555 1_555
C5B C3B 1_555 1_555
H7B C5B 1_555 1_555
C6B H8B 1_555 1_555
H9B C6B 1_555 1_555
C7B C3B 1_555 1_555
H10B C7B 1_555 1_555
H11B C7B 1_555 1_555
C8B C8 1_555 1_555
H12B C8B 1_555 1_555
H13B C8B 1_555 1_555
C9B H14B 1_555 1_555
C10B N1B 1_555 1_555
H15B C10B 1_555 1_555
H16B C10B 1_555 1_555
C11B C6B 1_555 1_555
O2B C11B 1_555 1_555
C12B C9B 1_555 1_555
H17B C12B 1_555 1_555
C13B C5B 1_555 1_555
H18B C13B 1_555 1_555
O3B C1B 1_555 1_555
C6 C10 1_555 1_555
C11 O3 1_555 1_555
C12 C13 1_555 1_555
N1B C8B 1_555 1_555
C6B C10B 1_555 1_555
C11B O3B 1_555 1_555
C12B C13B 1_555 1_555

#END
