
#######################################################################
#
#                 Cambridge Crystallographic Data Centre
#                                CCDC 
#
#######################################################################
#
# If this CIF has been generated from an entry in the Cambridge 
# Structural Database, then it will include bibliographic, chemical, 
# crystal, experimental, refinement or atomic coordinate data resulting 
# from the CCDC's data processing and validation procedures.
#
#######################################################################

data_LAJYUS
_chemical_formula_moiety         'C10 H9 N5 O1'
_chemical_name_systematic        
N'-[(1E)-1H-pyrrol-2-ylmethylidene]pyrazine-2-carbohydrazide
_symmetry_cell_setting           monoclinic
_symmetry_space_group_name_H-M   'P 21/c'
_symmetry_Int_Tables_number      14
_space_group_name_Hall           '-P 2ybc'
loop_
_symmetry_equiv_pos_site_id
_symmetry_equiv_pos_as_xyz
1 x,y,z
2 -x,1/2+y,1/2-z
3 -x,-y,-z
4 x,1/2-y,1/2+z
_cell_length_a                   14.0208(5)
_cell_length_b                   7.4689(3)
_cell_length_c                   10.1178(2)
_cell_angle_alpha                90
_cell_angle_beta                 110.727(2)
_cell_angle_gamma                90
_cell_volume                     990.96
_exptl_crystal_colour            'pale yellow'
_exptl_crystal_description       slab
_cell_formula_units_Z            4
loop_
_atom_site_label
_atom_site_type_symbol
_atom_site_fract_x
_atom_site_fract_y
_atom_site_fract_z
O1 O 0.55956(9) 0.79964(18) 0.29329(11)
N1 N 0.25986(11) 0.9549(2) 0.22156(14)
N2 N 0.38963(11) 0.8261(2) 0.48377(14)
N3 N 0.58135(10) 0.7200(2) 0.51993(13)
H1 H 0.5568 0.7227 0.5888
N4 N 0.67675(10) 0.6487(2) 0.54100(14)
N5 N 0.86143(11) 0.4711(2) 0.58848(14)
H2 H 0.8305 0.4973 0.4986
C1 C 0.42056(13) 0.8428(2) 0.37314(16)
C2 C 0.35690(13) 0.9096(2) 0.24389(16)
H3 H 0.3827 0.9235 0.1694
C3 C 0.22901(13) 0.9375(2) 0.33147(18)
H4 H 0.1608 0.9677 0.3202
C4 C 0.29422(13) 0.8763(2) 0.46204(18)
H5 H 0.2698 0.8701 0.5383
C5 C 0.52696(12) 0.7854(2) 0.39061(17)
C6 C 0.73026(13) 0.6042(2) 0.66876(17)
H6 H 0.7065 0.6284 0.7440
C7 C 0.82714(13) 0.5167(2) 0.69547(17)
C8 C 0.89788(13) 0.4541(2) 0.82070(18)
H7 H 0.8947 0.4673 0.9125
C9 C 0.97551(13) 0.3670(3) 0.78668(19)
H8 H 1.0342 0.3103 0.8513
C10 C 0.95074(13) 0.3792(3) 0.64332(18)
H9 H 0.9893 0.3316 0.5910
loop_
_geom_bond_atom_site_label_1
_geom_bond_atom_site_label_2
_geom_bond_site_symmetry_1
_geom_bond_site_symmetry_2
O1 C5 1_555 1_555
N1 C2 1_555 1_555
N2 C1 1_555 1_555
N3 H1 1_555 1_555
N4 N3 1_555 1_555
N5 H2 1_555 1_555
C1 C2 1_555 1_555
C2 H3 1_555 1_555
C3 N1 1_555 1_555
H4 C3 1_555 1_555
C4 N2 1_555 1_555
H5 C4 1_555 1_555
C5 N3 1_555 1_555
C6 N4 1_555 1_555
H6 C6 1_555 1_555
C7 N5 1_555 1_555
C8 C7 1_555 1_555
H7 C8 1_555 1_555
C9 C8 1_555 1_555
H8 C9 1_555 1_555
C10 N5 1_555 1_555
H9 C10 1_555 1_555
C1 C5 1_555 1_555
C3 C4 1_555 1_555
C6 C7 1_555 1_555
C9 C10 1_555 1_555

#END
