
#######################################################################
#
#                 Cambridge Crystallographic Data Centre
#                                CCDC 
#
#######################################################################
#
# If this CIF has been generated from an entry in the Cambridge 
# Structural Database, then it will include bibliographic, chemical, 
# crystal, experimental, refinement or atomic coordinate data resulting 
# from the CCDC's data processing and validation procedures.
#
#######################################################################

data_LAJZON
_chemical_formula_moiety         'C11 H9 N5 O1'
_chemical_name_systematic        
N'-[(1E)-pyridin-2-ylmethylidene]pyrazine-2-carbohydrazide
_symmetry_cell_setting           monoclinic
_symmetry_space_group_name_H-M   'P 21/c'
_symmetry_Int_Tables_number      14
_space_group_name_Hall           '-P 2ybc'
loop_
_symmetry_equiv_pos_site_id
_symmetry_equiv_pos_as_xyz
1 x,y,z
2 -x,1/2+y,1/2-z
3 -x,-y,-z
4 x,1/2-y,1/2+z
_cell_length_a                   10.9723(4)
_cell_length_b                   27.3252(8)
_cell_length_c                   6.9545(2)
_cell_angle_alpha                90
_cell_angle_beta                 102.7048(8)
_cell_angle_gamma                90
_cell_volume                     2034.05
_exptl_crystal_colour            colorless
_exptl_crystal_description       block
_cell_formula_units_Z            8
loop_
_atom_site_label
_atom_site_type_symbol
_atom_site_fract_x
_atom_site_fract_y
_atom_site_fract_z
O1 O 0.68278(19) 0.45671(7) 0.3359(3)
N1 N 0.6685(2) 0.30404(8) 0.3266(4)
N2 N 0.8603(2) 0.35649(8) 0.5767(4)
N3 N 0.8584(2) 0.45455(8) 0.5868(3)
H1 H 0.9149 0.4359 0.6620
N4 N 0.8643(2) 0.50451(8) 0.6064(3)
N5 N 1.0726(2) 0.58877(8) 0.8998(4)
C1 C 0.7672(2) 0.37893(9) 0.4509(4)
C2 C 0.6732(3) 0.35290(10) 0.3237(4)
H2 H 0.6110 0.3704 0.2329
C3 C 0.7607(3) 0.28155(10) 0.4537(5)
H3 H 0.7608 0.2468 0.4611
C4 C 0.8566(3) 0.30761(10) 0.5757(4)
H4 H 0.9215 0.2901 0.6609
C5 C 0.7644(3) 0.43407(9) 0.4499(4)
C6 C 0.9593(2) 0.52089(9) 0.7308(4)
H5 H 1.0192 0.4990 0.8039
C7 C 0.9746(2) 0.57405(9) 0.7595(4)
C8 C 0.8906(2) 0.60662(9) 0.6441(4)
H6 H 0.8249 0.5948 0.5422
C9 C 0.9046(3) 0.65642(10) 0.6806(4)
H7 H 0.8475 0.6793 0.6074
C10 C 1.0049(3) 0.67198(10) 0.8278(4)
H8 H 1.0172 0.7058 0.8579
C11 C 1.0862(2) 0.63736(10) 0.9291(4)
H9 H 1.1559 0.6485 1.0254
O2 O 0.82826(19) 0.73031(7) 0.1404(3)
N6 N 0.8391(2) 0.57785(9) 0.1485(4)
N7 N 0.6314(2) 0.63043(8) -0.0578(3)
N8 N 0.6298(2) 0.72892(8) -0.0528(4)
H10 H 0.5683 0.7105 -0.1168
N9 N 0.6179(2) 0.77912(8) -0.0561(3)
N10 N 0.3919(2) 0.86268(9) -0.3125(4)
C12 C 0.7341(2) 0.65295(10) 0.0451(4)
C13 C 0.8369(3) 0.62697(10) 0.1472(4)
H11 H 0.9075 0.6444 0.2180
C14 C 0.7362(3) 0.55556(10) 0.0478(5)
H12 H 0.7332 0.5208 0.0465
C15 C 0.6332(3) 0.58169(10) -0.0554(4)
H13 H 0.5624 0.5643 -0.1258
C16 C 0.7372(2) 0.70795(9) 0.0501(4)
C17 C 0.5156(2) 0.79572(9) -0.1623(4)
H14 H 0.4539 0.7738 -0.2307
C18 C 0.4945(2) 0.84872(9) -0.1776(4)
C19 C 0.5766(3) 0.88142(10) -0.0641(4)
H15 H 0.6455 0.8699 0.0331
C20 C 0.5571(3) 0.93115(10) -0.0942(5)
H16 H 0.6137 0.9543 -0.0218
C21 C 0.4527(3) 0.94634(10) -0.2329(4)
H17 H 0.4364 0.9802 -0.2568
C22 C 0.3727(3) 0.91137(10) -0.3359(4)
H18 H 0.3004 0.9222 -0.4280
loop_
_geom_bond_atom_site_label_1
_geom_bond_atom_site_label_2
_geom_bond_site_symmetry_1
_geom_bond_site_symmetry_2
O1 C5 1_555 1_555
N1 C2 1_555 1_555
N2 C1 1_555 1_555
N3 H1 1_555 1_555
N4 N3 1_555 1_555
N5 C7 1_555 1_555
C1 C2 1_555 1_555
C2 H2 1_555 1_555
C3 N1 1_555 1_555
H3 C3 1_555 1_555
C4 N2 1_555 1_555
H4 C4 1_555 1_555
C5 N3 1_555 1_555
C6 N4 1_555 1_555
H5 C6 1_555 1_555
C7 C6 1_555 1_555
C8 C7 1_555 1_555
H6 C8 1_555 1_555
C9 C8 1_555 1_555
H7 C9 1_555 1_555
C10 C9 1_555 1_555
H8 C10 1_555 1_555
C11 N5 1_555 1_555
H9 C11 1_555 1_555
O2 C16 1_555 1_555
N6 C13 1_555 1_555
N7 C12 1_555 1_555
N8 H10 1_555 1_555
N9 N8 1_555 1_555
N10 C18 1_555 1_555
C12 C13 1_555 1_555
C13 H11 1_555 1_555
C14 N6 1_555 1_555
H12 C14 1_555 1_555
C15 N7 1_555 1_555
H13 C15 1_555 1_555
C16 N8 1_555 1_555
C17 N9 1_555 1_555
H14 C17 1_555 1_555
C18 C17 1_555 1_555
C19 C18 1_555 1_555
H15 C19 1_555 1_555
C20 C19 1_555 1_555
H16 C20 1_555 1_555
C21 C20 1_555 1_555
H17 C21 1_555 1_555
C22 N10 1_555 1_555
H18 C22 1_555 1_555
C1 C5 1_555 1_555
C3 C4 1_555 1_555
C10 C11 1_555 1_555
C12 C16 1_555 1_555
C14 C15 1_555 1_555
C21 C22 1_555 1_555

#END
