
#######################################################################
#
#                 Cambridge Crystallographic Data Centre
#                                CCDC 
#
#######################################################################
#
# If this CIF has been generated from an entry in the Cambridge 
# Structural Database, then it will include bibliographic, chemical, 
# crystal, experimental, refinement or atomic coordinate data resulting 
# from the CCDC's data processing and validation procedures.
#
#######################################################################

data_LAKCUY
_chemical_formula_moiety         'C20 H24 B10'
_chemical_name_systematic        
2,4,5-triphenyl-1,2-dicarba-closo-dodecaborane(9)
_symmetry_cell_setting           monoclinic
_symmetry_space_group_name_H-M   'P 21/n'
_symmetry_Int_Tables_number      14
_space_group_name_Hall           '-P 2yn'
loop_
_symmetry_equiv_pos_site_id
_symmetry_equiv_pos_as_xyz
1 x,y,z
2 1/2-x,1/2+y,1/2-z
3 -x,-y,-z
4 1/2+x,1/2-y,1/2+z
_cell_length_a                   13.3518(5)
_cell_length_b                   10.7026(4)
_cell_length_c                   15.0261(6)
_cell_angle_alpha                90
_cell_angle_beta                 90.8880(10)
_cell_angle_gamma                90
_cell_volume                     2146.96
_exptl_crystal_colour            colorless
_exptl_crystal_description       block
_cell_formula_units_Z            4
loop_
_atom_site_label
_atom_site_type_symbol
_atom_site_fract_x
_atom_site_fract_y
_atom_site_fract_z
C1 C 0.25193(12) -0.02892(16) 0.90748(11)
H1 H 0.2509 -0.1103 0.8627
C2 C 0.25376(13) -0.04923(16) 1.01726(11)
C3 C 0.25326(14) -0.18081(17) 1.05297(12)
C4 C 0.20615(18) -0.2771(2) 1.00860(15)
H2 H 0.1745 -0.2616 0.9541
C5 C 0.2050(2) -0.3957(2) 1.04344(17)
H3 H 0.1735 -0.4598 1.0120
C6 C 0.2495(2) -0.4201(2) 1.12312(18)
H4 H 0.2476 -0.5001 1.1471
C7 C 0.2963(3) -0.3271(3) 1.1672(2)
H5 H 0.3271 -0.3438 1.2218
C8 C 0.2997(2) -0.2069(2) 1.13281(17)
H6 H 0.3335 -0.1442 1.1639
C9 C 0.38575(13) 0.09704(17) 0.78922(13)
C10 C 0.41609(16) -0.0109(2) 0.74766(15)
H7 H 0.3950 -0.0877 0.7694
C11 C 0.47714(19) -0.0075(3) 0.67446(18)
H8 H 0.4967 -0.0817 0.6476
C12 C 0.50893(19) 0.1040(3) 0.64125(18)
H9 H 0.5494 0.1062 0.5914
C13 C 0.48078(17) 0.2127(2) 0.68185(16)
H10 H 0.5031 0.2890 0.6602
C14 C 0.41943(15) 0.2092(2) 0.75482(14)
H11 H 0.4003 0.2837 0.7815
C15 C 0.11683(13) 0.09885(15) 0.78674(12)
C16 C 0.01790(16) 0.1351(2) 0.79049(16)
H12 H -0.0082 0.1588 0.8450
C17 C -0.04337(19) 0.1371(3) 0.71620(19)
H13 H -0.1096 0.1626 0.7210
C18 C -0.0079(2) 0.1020(2) 0.63559(17)
H14 H -0.0495 0.1026 0.5854
C19 C 0.0894(2) 0.0660(3) 0.62957(17)
H15 H 0.1148 0.0419 0.5749
C20 C 0.15081(18) 0.0652(3) 0.70490(15)
H16 H 0.2173 0.0409 0.6995
B1 B 0.36082(15) 0.0008(2) 0.96542(14)
H17 H 0.4295 -0.0554 0.9613
B2 B 0.31970(15) 0.09804(19) 0.87541(14)
B3 B 0.18379(15) 0.09988(18) 0.87439(14)
B4 B 0.14503(15) 0.00273(19) 0.96453(13)
H18 H 0.0756 -0.0523 0.9599
B5 B 0.32161(17) 0.0688(2) 1.06654(15)
H19 H 0.3656 0.0583 1.1286
B6 B 0.36199(17) 0.1649(2) 0.97807(16)
H20 H 0.4324 0.2181 0.9825
B7 B 0.25344(16) 0.2256(2) 0.92281(15)
H21 H 0.2534 0.3185 0.8915
B8 B 0.14586(16) 0.1659(2) 0.97790(15)
H22 H 0.0759 0.2197 0.9827
B9 B 0.18858(17) 0.0691(2) 1.06613(15)
H23 H 0.1465 0.0585 1.1280
B10 B 0.25542(18) 0.2067(2) 1.04040(16)
H24 H 0.2566 0.2877 1.0855
loop_
_geom_bond_atom_site_label_1
_geom_bond_atom_site_label_2
_geom_bond_site_symmetry_1
_geom_bond_site_symmetry_2
C1 H1 1_555 1_555
C2 C1 1_555 1_555
C3 C2 1_555 1_555
C4 C3 1_555 1_555
H2 C4 1_555 1_555
C5 C4 1_555 1_555
H3 C5 1_555 1_555
C6 C5 1_555 1_555
H4 C6 1_555 1_555
C7 C6 1_555 1_555
H5 C7 1_555 1_555
C8 C3 1_555 1_555
H6 C8 1_555 1_555
C9 C10 1_555 1_555
C10 H7 1_555 1_555
C11 C10 1_555 1_555
H8 C11 1_555 1_555
C12 C11 1_555 1_555
H9 C12 1_555 1_555
C13 C12 1_555 1_555
H10 C13 1_555 1_555
C14 C9 1_555 1_555
H11 C14 1_555 1_555
C15 C16 1_555 1_555
C16 H12 1_555 1_555
C17 C16 1_555 1_555
H13 C17 1_555 1_555
C18 C17 1_555 1_555
H14 C18 1_555 1_555
C19 C18 1_555 1_555
H15 C19 1_555 1_555
C20 C15 1_555 1_555
H16 C20 1_555 1_555
B1 C1 1_555 1_555
H17 B1 1_555 1_555
B2 C1 1_555 1_555
B3 C1 1_555 1_555
B4 C1 1_555 1_555
H18 B4 1_555 1_555
B5 C2 1_555 1_555
H19 B5 1_555 1_555
B6 B1 1_555 1_555
H20 B6 1_555 1_555
B7 B2 1_555 1_555
H21 B7 1_555 1_555
B8 B3 1_555 1_555
H22 B8 1_555 1_555
B9 C2 1_555 1_555
H23 B9 1_555 1_555
B10 B5 1_555 1_555
H24 B10 1_555 1_555
C2 B1 1_555 1_555
C2 B4 1_555 1_555
C7 C8 1_555 1_555
C9 B2 1_555 1_555
C13 C14 1_555 1_555
C15 B3 1_555 1_555
C19 C20 1_555 1_555
B1 B2 1_555 1_555
B1 B5 1_555 1_555
B2 B3 1_555 1_555
B2 B6 1_555 1_555
B3 B4 1_555 1_555
B3 B7 1_555 1_555
B4 B8 1_555 1_555
B4 B9 1_555 1_555
B5 B6 1_555 1_555
B5 B9 1_555 1_555
B6 B7 1_555 1_555
B6 B10 1_555 1_555
B7 B8 1_555 1_555
B7 B10 1_555 1_555
B8 B9 1_555 1_555
B8 B10 1_555 1_555
B9 B10 1_555 1_555

#END
