
#######################################################################
#
#                 Cambridge Crystallographic Data Centre
#                                CCDC 
#
#######################################################################
#
# If this CIF has been generated from an entry in the Cambridge 
# Structural Database, then it will include bibliographic, chemical, 
# crystal, experimental, refinement or atomic coordinate data resulting 
# from the CCDC's data processing and validation procedures.
#
#######################################################################

data_LAKGEJ
_chemical_compound_source        'Amorpha fruticosa'
_chemical_formula_moiety         'C23 H24 O8'
_chemical_name_systematic        6aS,12aS,12a\b-Hydroxydalpanol
_chemical_properties_biological  'cytotoxic activity'
_symmetry_cell_setting           orthorhombic
_symmetry_space_group_name_H-M   'P 21 21 21'
_symmetry_Int_Tables_number      19
_space_group_name_Hall           'P 2ac 2ab'
loop_
_symmetry_equiv_pos_site_id
_symmetry_equiv_pos_as_xyz
1 x,y,z
2 1/2+x,1/2-y,-z
3 -x,1/2+y,1/2-z
4 1/2-x,-y,1/2+z
_cell_length_a                   15.813(1)
_cell_length_b                   16.778(1)
_cell_length_c                   7.818(1)
_cell_angle_alpha                90
_cell_angle_beta                 90
_cell_angle_gamma                90
_cell_volume                     2074.2
_exptl_crystal_colour            white
_chemical_melting_point          206.5-207deg.C
_cell_formula_units_Z            4
loop_
_atom_site_label
_atom_site_type_symbol
_atom_site_fract_x
_atom_site_fract_y
_atom_site_fract_z
C1 C 0.5559(1) 0.2779(1) -0.0708(2)
C2 C 0.5089(1) 0.2694(1) 0.0807(3)
C3 C 0.6244(1) 0.3291(1) -0.0783(3)
C4 C 0.6446(1) 0.3768(1) 0.0647(3)
C5 C 0.5992(1) 0.3680(1) 0.2148(3)
C6 C 0.5337(1) 0.3128(1) 0.2227(2)
O1 O 0.4960(1) 0.3064(1) 0.3802(2)
C7 C 0.4430(1) 0.2376(2) 0.4037(3)
C8 C 0.3846(1) 0.2277(1) 0.2538(3)
O2 O 0.3385(1) 0.3019(1) 0.2476(2)
C9 C 0.2952(1) 0.3178(1) 0.1019(3)
C10 C 0.2352(1) 0.3778(1) 0.1120(3)
C11 C 0.1856(1) 0.3932(1) -0.0299(3)
C12 C 0.1941(1) 0.3528(1) -0.1844(3)
C13 C 0.2566(1) 0.2959(1) -0.1936(3)
C14 C 0.3085(1) 0.2769(1) -0.0525(3)
C15 C 0.3767(1) 0.2189(1) -0.0655(3)
C16 C 0.4354(1) 0.2119(1) 0.0913(3)
C17 C 0.6580(1) 0.2939(1) -0.3637(3)
C18 C 0.7335(2) 0.4766(2) 0.1856(4)
O3 O 0.6762(1) 0.3399(1) -0.2167(2)
O4 O 0.7100(1) 0.4284(1) 0.0418(2)
O5 O 0.3888(1) 0.1788(1) -0.1938(2)
O6 O 0.4615(1) 0.1311(1) 0.1088(3)
C19 C 0.2109(1) 0.4319(1) 0.2552(3)
C20 C 0.1404(1) 0.4830(1) 0.1732(4)
O7 O 0.1268(1) 0.4505(1) -0.0008(2)
C21 C 0.0570(1) 0.4818(1) 0.2688(4)
O8 O 0.0351(1) 0.4000(1) 0.2910(3)
C22 C -0.0111(2) 0.5261(2) 0.1708(5)
C23 C 0.0694(2) 0.5193(2) 0.4449(4)
H1 H 0.544(1) 0.250(1) -0.170(3)
H2 H 0.615(1) 0.397(1) 0.318(3)
H3 H 0.477(2) 0.188(2) 0.417(4)
H4 H 0.413(1) 0.246(2) 0.503(3)
H5 H 0.341(1) 0.179(1) 0.273(3)
H6 H 0.155(2) 0.368(2) -0.279(4)
H7 H 0.266(1) 0.271(1) -0.308(3)
H8 H 0.705(1) 0.301(1) -0.441(4)
H9 H 0.602(1) 0.307(1) -0.414(3)
H10 H 0.672(1) 0.241(1) -0.337(4)
H11 H 0.787(2) 0.502(2) 0.131(5)
H12 H 0.752(3) 0.444(3) 0.292(6)
H13 H 0.681(2) 0.515(2) 0.205(5)
H14 H 0.508(2) 0.118(2) 0.044(4)
H15 H 0.193(2) 0.400(2) 0.366(4)
H16 H 0.261(2) 0.470(2) 0.283(4)
H17 H 0.159(1) 0.540(2) 0.155(4)
H18 H -0.016(2) 0.393(2) 0.264(4)
H19 H -0.066(2) 0.531(2) 0.235(5)
H20 H -0.022(2) 0.502(2) 0.050(5)
H21 H 0.010(2) 0.585(2) 0.146(4)
H22 H 0.013(2) 0.513(2) 0.499(5)
H23 H 0.092(2) 0.584(2) 0.443(5)
H24 H 0.117(2) 0.493(2) 0.519(4)
loop_
_geom_bond_atom_site_label_1
_geom_bond_atom_site_label_2
_geom_bond_site_symmetry_1
_geom_bond_site_symmetry_2
C1 C2 1_555 1_555
C2 C6 1_555 1_555
C3 C1 1_555 1_555
C4 C3 1_555 1_555
C5 C4 1_555 1_555
C6 C5 1_555 1_555
O1 C6 1_555 1_555
C7 O1 1_555 1_555
C8 C7 1_555 1_555
O2 C8 1_555 1_555
C9 O2 1_555 1_555
C10 C9 1_555 1_555
C11 C10 1_555 1_555
C12 C11 1_555 1_555
C13 C12 1_555 1_555
C14 C9 1_555 1_555
C15 C14 1_555 1_555
C16 C2 1_555 1_555
C17 O3 1_555 1_555
C18 O4 1_555 1_555
O3 C3 1_555 1_555
O4 C4 1_555 1_555
O5 C15 1_555 1_555
O6 C16 1_555 1_555
C19 C10 1_555 1_555
C20 C19 1_555 1_555
O7 C11 1_555 1_555
C21 C20 1_555 1_555
O8 C21 1_555 1_555
C22 C21 1_555 1_555
C23 C21 1_555 1_555
H1 C1 1_555 1_555
H2 C5 1_555 1_555
H3 C7 1_555 1_555
H4 C7 1_555 1_555
H5 C8 1_555 1_555
H6 C12 1_555 1_555
H7 C13 1_555 1_555
H8 C17 1_555 1_555
H9 C17 1_555 1_555
H10 C17 1_555 1_555
H11 C18 1_555 1_555
H12 C18 1_555 1_555
H13 C18 1_555 1_555
H14 O6 1_555 1_555
H15 C19 1_555 1_555
H16 C19 1_555 1_555
H17 C20 1_555 1_555
H18 O8 1_555 1_555
H19 C22 1_555 1_555
H20 C22 1_555 1_555
H21 C22 1_555 1_555
H22 C23 1_555 1_555
H23 C23 1_555 1_555
H24 C23 1_555 1_555
C8 C16 1_555 1_555
C13 C14 1_555 1_555
C15 C16 1_555 1_555
C20 O7 1_555 1_555

#END
