
#######################################################################
#
#                 Cambridge Crystallographic Data Centre
#                                CCDC 
#
#######################################################################
#
# If this CIF has been generated from an entry in the Cambridge 
# Structural Database, then it will include bibliographic, chemical, 
# crystal, experimental, refinement or atomic coordinate data resulting 
# from the CCDC's data processing and validation procedures.
#
#######################################################################

data_LAKGEL
_chemical_formula_moiety         'C28 H28 O2,C3 H6 O1'
_chemical_name_systematic        
'(4b,8b,12b,12d-tetramethyl-4b,8b,12b,12d-tetrahydrodibenzo[2,3:4,5]pentaleno[1,6-ab]indene-2,11-diyl)dimethanol acetone solvate'
_symmetry_cell_setting           triclinic
_symmetry_space_group_name_H-M   'P -1'
_symmetry_Int_Tables_number      2
_space_group_name_Hall           '-P 1'
loop_
_symmetry_equiv_pos_site_id
_symmetry_equiv_pos_as_xyz
1 x,y,z
2 -x,-y,-z
_cell_length_a                   8.7662(12)
_cell_length_b                   10.7826(14)
_cell_length_c                   14.0500(18)
_cell_angle_alpha                93.314(2)
_cell_angle_beta                 101.883(2)
_cell_angle_gamma                104.801(2)
_cell_volume                     1247.87
_cell_formula_units_Z            2
loop_
_atom_site_label
_atom_site_type_symbol
_atom_site_fract_x
_atom_site_fract_y
_atom_site_fract_z
C1 C 0.6001(3) 0.1868(2) 0.14217(18)
C2 C 0.6793(3) 0.0968(2) 0.17517(17)
C3 C 0.8446(3) 0.1201(2) 0.15046(17)
C4 C 0.9785(3) 0.1707(2) 0.24154(18)
C5 C 0.6926(3) 0.2805(2) 0.08392(18)
C6 C 0.6095(3) -0.0001(3) 0.22616(19)
H1 H 0.6637 -0.0606 0.2477
C7 C 0.9151(3) 0.4563(2) 0.17307(18)
C8 C 0.9975(3) 0.3547(2) 0.15066(18)
C9 C 1.0616(3) 0.2975(2) 0.24166(19)
C10 C 1.0215(3) 0.1041(3) 0.3200(2)
H2 H 0.9638 0.0188 0.3201
C11 C 0.8546(3) 0.2388(2) 0.08801(17)
C12 C 0.7501(3) 0.4173(2) 0.13530(18)
C13 C 0.4587(3) -0.0068(3) 0.2450(2)
C14 C 0.3814(4) 0.0850(3) 0.2127(2)
H3 H 0.2808 0.0819 0.2258
C15 C 0.4496(3) 0.1802(3) 0.1618(2)
H4 H 0.3951 0.2406 0.1404
C16 C 0.6563(4) 0.5010(3) 0.1468(2)
H5 H 0.5453 0.4755 0.1201
C17 C 0.8627(4) -0.0032(2) 0.1005(2)
H6 H 0.9667 0.0141 0.0843
H7 H 0.7788 -0.0324 0.0418
H8 H 0.8539 -0.0688 0.1441
C18 C 0.9868(4) 0.5783(3) 0.2244(2)
H9 H 1.0980 0.6049 0.2503
C19 C 1.1494(4) 0.1637(3) 0.3978(2)
C20 C 1.1899(4) 0.3584(3) 0.3187(2)
H10 H 1.2472 0.4438 0.3185
C21 C 0.8797(4) 0.2072(3) -0.0140(2)
H11 H 0.9793 0.1834 -0.0083
H12 H 0.8847 0.2816 -0.0489
H13 H 0.7910 0.1367 -0.0491
C22 C 0.5854(4) 0.2746(3) -0.0180(2)
H14 H 0.4899 0.2995 -0.0120
H15 H 0.5547 0.1881 -0.0504
H16 H 0.6444 0.3324 -0.0557
C23 C 1.1363(3) 0.4120(3) 0.1011(2)
H17 H 1.0947 0.4472 0.0433
H18 H 1.1834 0.3453 0.0834
H19 H 1.2174 0.4790 0.1456
C24 C 1.2322(4) 0.2909(3) 0.3962(2)
H20 H 1.3182 0.3321 0.4484
C25 C 0.3773(4) -0.1103(4) 0.2989(3)
H21 H 0.3640 -0.0706 0.3593
H22 H 0.2702 -0.1539 0.2594
C26 C 0.7281(5) 0.6213(3) 0.1977(2)
H23 H 0.6652 0.6770 0.2059
C27 C 0.8925(5) 0.6600(3) 0.2368(3)
H24 H 0.9402 0.7415 0.2717
C28 C 1.2016(5) 0.0904(4) 0.4819(2)
H25 H 1.1273 0.0046 0.4730
H26 H 1.3088 0.0812 0.4820
O2 O 1.2041(4) 0.1547(4) 0.5721(2)
H33 H 1.2884 0.1572 0.6114
O3 O 0.4620(4) -0.2008(3) 0.3210(3)
H34 H 0.4177 -0.2506 0.3554
C29 C 0.2910(5) 0.6521(4) 0.5263(3)
C30 C 0.3196(9) 0.5669(6) 0.6046(4)
H27 H 0.3986 0.5242 0.5928
H28 H 0.2198 0.5035 0.6039
H29 H 0.3585 0.6182 0.6673
C31 C 0.2013(13) 0.7401(8) 0.5378(6)
H30 H 0.2036 0.7942 0.4859
H31 H 0.2475 0.7926 0.5997
H32 H 0.0912 0.6938 0.5356
O1 O 0.3558(4) 0.6499(3) 0.4591(2)
loop_
_geom_bond_atom_site_label_1
_geom_bond_atom_site_label_2
_geom_bond_site_symmetry_1
_geom_bond_site_symmetry_2
C1 C2 1_555 1_555
C2 C3 1_555 1_555
C3 C4 1_555 1_555
C4 C9 1_555 1_555
C5 C1 1_555 1_555
C6 C2 1_555 1_555
H1 C6 1_555 1_555
C7 C8 1_555 1_555
C8 C9 1_555 1_555
C9 C20 1_555 1_555
C10 C4 1_555 1_555
H2 C10 1_555 1_555
C11 C3 1_555 1_555
C12 C5 1_555 1_555
C13 C6 1_555 1_555
C14 C13 1_555 1_555
H3 C14 1_555 1_555
C15 C1 1_555 1_555
H4 C15 1_555 1_555
C16 C12 1_555 1_555
H5 C16 1_555 1_555
C17 C3 1_555 1_555
H6 C17 1_555 1_555
H7 C17 1_555 1_555
H8 C17 1_555 1_555
C18 C7 1_555 1_555
H9 C18 1_555 1_555
C19 C10 1_555 1_555
C20 H10 1_555 1_555
C21 C11 1_555 1_555
H11 C21 1_555 1_555
H12 C21 1_555 1_555
H13 C21 1_555 1_555
C22 C5 1_555 1_555
H14 C22 1_555 1_555
H15 C22 1_555 1_555
H16 C22 1_555 1_555
C23 C8 1_555 1_555
H17 C23 1_555 1_555
H18 C23 1_555 1_555
H19 C23 1_555 1_555
C24 C19 1_555 1_555
H20 C24 1_555 1_555
C25 C13 1_555 1_555
H21 C25 1_555 1_555
H22 C25 1_555 1_555
C26 C16 1_555 1_555
H23 C26 1_555 1_555
C27 C18 1_555 1_555
H24 C27 1_555 1_555
C28 C19 1_555 1_555
H25 C28 1_555 1_555
H26 C28 1_555 1_555
C29 C30 1_555 1_555
C30 H27 1_555 1_555
H28 C30 1_555 1_555
H29 C30 1_555 1_555
C31 C29 1_555 1_555
H30 C31 1_555 1_555
H31 C31 1_555 1_555
H32 C31 1_555 1_555
O1 C29 1_555 1_555
O2 C28 1_555 1_555
H33 O2 1_555 1_555
O3 C25 1_555 1_555
H34 O3 1_555 1_555
C5 C11 1_555 1_555
C7 C12 1_555 1_555
C8 C11 1_555 1_555
C14 C15 1_555 1_555
C20 C24 1_555 1_555
C26 C27 1_555 1_555

#END
