
#######################################################################
#
#                 Cambridge Crystallographic Data Centre
#                                CCDC 
#
#######################################################################
#
# If this CIF has been generated from an entry in the Cambridge 
# Structural Database, then it will include bibliographic, chemical, 
# crystal, experimental, refinement or atomic coordinate data resulting 
# from the CCDC's data processing and validation procedures.
#
#######################################################################

data_LAKGOV
_chemical_formula_moiety         'C31 H32 S2'
_chemical_name_systematic        
1,2,3,10-Tetramethyl-16,20-dithiaheptacyclo[12.12.2.1^22,26^.0^2,10^.0^3,25^.0^4,9^.0^11,27^]nonacosa-4,6,8,11,13,22(29),23,25,27-nonaene
_symmetry_cell_setting           monoclinic
_symmetry_space_group_name_H-M   'P 21/n'
_symmetry_Int_Tables_number      14
_space_group_name_Hall           '-P 2yn'
loop_
_symmetry_equiv_pos_site_id
_symmetry_equiv_pos_as_xyz
1 x,y,z
2 1/2-x,1/2+y,1/2-z
3 -x,-y,-z
4 1/2+x,1/2-y,1/2+z
_cell_length_a                   11.558(9)
_cell_length_b                   13.839(10)
_cell_length_c                   15.495(11)
_cell_angle_alpha                90
_cell_angle_beta                 93.479(14)
_cell_angle_gamma                90
_cell_volume                     2473.88
_exptl_crystal_colour            colorless
_exptl_crystal_description       block
_cell_formula_units_Z            4
loop_
_atom_site_label
_atom_site_type_symbol
_atom_site_fract_x
_atom_site_fract_y
_atom_site_fract_z
S1 S 0.23017(10) 0.85891(11) 0.55340(10)
S2 S 0.53590(16) 1.00363(11) 0.74442(9)
C1 C 0.9364(3) 0.8415(3) 0.4147(3)
H1 H 0.9862 0.8642 0.4596
C2 C 0.9371(4) 0.8819(3) 0.3324(3)
H2 H 0.9881 0.9319 0.3221
C3 C 0.8641(4) 0.8489(3) 0.2672(3)
H3 H 0.8662 0.8765 0.2126
C4 C 0.7871(4) 0.7756(3) 0.2802(3)
H4 H 0.7374 0.7535 0.2351
C5 C 0.7848(4) 0.7351(3) 0.3622(3)
C6 C 0.8597(3) 0.7669(3) 0.4282(3)
C7 C 0.8484(3) 0.7104(3) 0.5107(3)
C8 C 0.7966(3) 0.7677(3) 0.5813(3)
C9 C 0.6922(3) 0.7306(3) 0.6040(2)
C10 C 0.6498(3) 0.6497(3) 0.5461(2)
C11 C 0.5529(3) 0.6865(2) 0.4845(2)
C12 C 0.5845(3) 0.6937(3) 0.4009(3)
C13 C 0.7058(4) 0.6567(3) 0.3904(3)
C14 C 0.7538(3) 0.6316(3) 0.4857(3)
C15 C 0.9691(4) 0.6729(4) 0.5448(3)
H5 H 1.0011 0.6327 0.5017
H6 H 0.9612 0.6361 0.5966
H7 H 1.0197 0.7268 0.5571
C16 C 0.6991(5) 0.5731(3) 0.3248(3)
H8 H 0.6690 0.5966 0.2696
H9 H 0.6489 0.5235 0.3445
H10 H 0.7752 0.5468 0.3192
C17 C 0.8017(5) 0.5285(3) 0.4940(4)
H11 H 0.8642 0.5208 0.4565
H12 H 0.7414 0.4831 0.4780
H13 H 0.8296 0.5170 0.5527
C18 C 0.6112(4) 0.5627(3) 0.5984(3)
H14 H 0.6738 0.5425 0.6379
H15 H 0.5897 0.5106 0.5599
H16 H 0.5459 0.5806 0.6304
C19 C 0.5084(4) 0.7302(3) 0.3375(3)
H17 H 0.5298 0.7345 0.2807
C20 C 0.4004(4) 0.7602(4) 0.3587(3)
H18 H 0.3495 0.7862 0.3160
C21 C 0.3662(3) 0.7527(3) 0.4415(3)
C22 C 0.4432(3) 0.7163(3) 0.5052(3)
H19 H 0.4215 0.7118 0.5619
C23 C 0.2450(4) 0.7838(4) 0.4604(3)
H20 H 0.1988 0.7261 0.4673
H21 H 0.2118 0.8180 0.4102
C24 C 0.3146(4) 0.9635(4) 0.5283(3)
H22 H 0.3741 0.9447 0.4902
H23 H 0.2648 1.0105 0.4981
C25 C 0.3715(6) 1.0099(4) 0.6098(4)
H24 H 0.4097 1.0692 0.5940
H25 H 0.3120 1.0266 0.6487
C26 C 0.4537(5) 0.9486(4) 0.6535(3)
H26 H 0.5076 0.9261 0.6124
H27 H 0.4134 0.8925 0.6742
C27 C 0.6107(5) 0.8962(4) 0.7820(3)
H28 H 0.6627 0.9123 0.8314
H29 H 0.5546 0.8498 0.8009
C28 C 0.6790(4) 0.8510(4) 0.7136(3)
C29 C 0.7829(4) 0.8888(4) 0.6902(3)
H30 H 0.8132 0.9432 0.7185
C30 C 0.8422(4) 0.8475(4) 0.6258(3)
H31 H 0.9133 0.8729 0.6119
C31 C 0.6348(3) 0.7711(3) 0.6708(2)
H32 H 0.5657 0.7440 0.6869
loop_
_geom_bond_atom_site_label_1
_geom_bond_atom_site_label_2
_geom_bond_site_symmetry_1
_geom_bond_site_symmetry_2
S1 C23 1_555 1_555
S2 C26 1_555 1_555
C1 H1 1_555 1_555
C2 C1 1_555 1_555
H2 C2 1_555 1_555
C3 C2 1_555 1_555
H3 C3 1_555 1_555
C4 C3 1_555 1_555
H4 C4 1_555 1_555
C5 C4 1_555 1_555
C6 C1 1_555 1_555
C7 C6 1_555 1_555
C8 C7 1_555 1_555
C9 C8 1_555 1_555
C10 C9 1_555 1_555
C11 C10 1_555 1_555
C12 C11 1_555 1_555
C13 C5 1_555 1_555
C14 C7 1_555 1_555
C15 C7 1_555 1_555
H5 C15 1_555 1_555
H6 C15 1_555 1_555
H7 C15 1_555 1_555
C16 C13 1_555 1_555
H8 C16 1_555 1_555
H9 C16 1_555 1_555
H10 C16 1_555 1_555
C17 C14 1_555 1_555
H11 C17 1_555 1_555
H12 C17 1_555 1_555
H13 C17 1_555 1_555
C18 C10 1_555 1_555
H14 C18 1_555 1_555
H15 C18 1_555 1_555
H16 C18 1_555 1_555
C19 C12 1_555 1_555
H17 C19 1_555 1_555
C20 C19 1_555 1_555
H18 C20 1_555 1_555
C21 C20 1_555 1_555
C22 C11 1_555 1_555
H19 C22 1_555 1_555
C23 C21 1_555 1_555
H20 C23 1_555 1_555
H21 C23 1_555 1_555
C24 S1 1_555 1_555
H22 C24 1_555 1_555
H23 C24 1_555 1_555
C25 C24 1_555 1_555
H24 C25 1_555 1_555
H25 C25 1_555 1_555
C26 C25 1_555 1_555
H26 C26 1_555 1_555
H27 C26 1_555 1_555
C27 S2 1_555 1_555
H28 C27 1_555 1_555
H29 C27 1_555 1_555
C28 C27 1_555 1_555
C29 C28 1_555 1_555
H30 C29 1_555 1_555
C30 C8 1_555 1_555
H31 C30 1_555 1_555
C31 C9 1_555 1_555
H32 C31 1_555 1_555
C5 C6 1_555 1_555
C10 C14 1_555 1_555
C12 C13 1_555 1_555
C13 C14 1_555 1_555
C21 C22 1_555 1_555
C28 C31 1_555 1_555
C29 C30 1_555 1_555

#END
