
#######################################################################
#
#                 Cambridge Crystallographic Data Centre
#                                CCDC 
#
#######################################################################
#
# If this CIF has been generated from an entry in the Cambridge 
# Structural Database, then it will include bibliographic, chemical, 
# crystal, experimental, refinement or atomic coordinate data resulting 
# from the CCDC's data processing and validation procedures.
#
#######################################################################

data_LAKGIP
_chemical_formula_moiety         'C30 H30 S2'
_chemical_name_systematic        
1,2,3,10-Tetramethyl-16,19-dithiaheptacyclo[12.11.2.1^21,25^.0^2,10^.0^3,24^.0^4,9^.0^11,26^]octacosa-4,6,8,11,13,21(28),22,24,26-nonaene
_symmetry_cell_setting           monoclinic
_symmetry_space_group_name_H-M   'P 21/n'
_symmetry_Int_Tables_number      14
_space_group_name_Hall           '-P 2yn'
loop_
_symmetry_equiv_pos_site_id
_symmetry_equiv_pos_as_xyz
1 x,y,z
2 1/2-x,1/2+y,1/2-z
3 -x,-y,-z
4 1/2+x,1/2-y,1/2+z
_cell_length_a                   11.101(6)
_cell_length_b                   14.000(8)
_cell_length_c                   16.083(9)
_cell_angle_alpha                90
_cell_angle_beta                 108.817(7)
_cell_angle_gamma                90
_cell_volume                     2365.93
_exptl_crystal_colour            colorless
_exptl_crystal_description       block
_cell_formula_units_Z            4
loop_
_atom_site_label
_atom_site_type_symbol
_atom_site_fract_x
_atom_site_fract_y
_atom_site_fract_z
C1 C 0.6292(3) 0.8756(2) 0.14859(18)
C2 C 0.7202(3) 0.80435(19) 0.17656(18)
C3 C 0.8258(3) 0.8034(2) 0.14892(19)
H1 H 0.8842 0.7538 0.1664
C4 C 0.4926(3) 0.9430(2) 0.2336(2)
C5 C 0.5187(3) 0.8597(2) 0.1821(2)
C6 C 0.7971(3) 0.7738(2) 0.33009(19)
C7 C 0.8459(3) 0.8742(2) 0.09634(18)
C8 C 0.6977(3) 0.7409(2) 0.24630(19)
C9 C 0.5402(3) 0.9277(2) 0.3229(2)
C10 C 0.6024(3) 0.8322(2) 0.3453(2)
C11 C 0.6483(3) 0.9476(2) 0.0954(2)
H2 H 0.5886 0.9962 0.0767
C12 C 0.9259(3) 0.7603(2) 0.3536(2)
H3 H 0.9584 0.7167 0.3227
C13 C 0.7453(3) 0.8337(2) 0.37734(19)
C14 C 0.5676(3) 0.7791(2) 0.2535(2)
C15 C 0.7550(3) 0.9476(2) 0.0700(2)
H4 H 0.7675 0.9969 0.0349
C16 C 1.0078(3) 0.8103(3) 0.4220(2)
C17 C 0.4680(4) 0.7001(3) 0.2447(3)
H5 H 0.4984 0.6559 0.2926
H6 H 0.4537 0.6670 0.1901
H7 H 0.3897 0.7282 0.2460
C18 C 0.9630(4) 0.8754(3) 0.0701(2)
H8 H 0.9388 0.8887 0.0076
H9 H 1.0011 0.8123 0.0798
C19 C 0.4243(3) 1.0251(2) 0.2002(3)
H10 H 0.3915 1.0349 0.1398
C20 C 0.9565(4) 0.8747(3) 0.4675(2)
H11 H 1.0109 0.9109 0.5125
C21 C 0.8277(4) 0.8857(3) 0.4473(2)
H12 H 0.7951 0.9274 0.4796
C22 C 0.4026(3) 0.8353(3) 0.1028(2)
H13 H 0.3800 0.8896 0.0644
H14 H 0.3324 0.8186 0.1225
H15 H 0.4226 0.7823 0.0717
C23 C 0.7063(4) 0.6352(2) 0.2272(2)
H16 H 0.7878 0.6219 0.2209
H17 H 0.6402 0.6188 0.1738
H18 H 0.6965 0.5982 0.2748
C24 C 0.5222(4) 0.9972(3) 0.3801(3)
H19 H 0.5562 0.9885 0.4405
C25 C 0.4543(4) 1.0782(3) 0.3470(3)
H20 H 0.4413 1.1239 0.3852
C26 C 1.1488(4) 0.7996(3) 0.4440(3)
H21 H 1.1656 0.7414 0.4169
H22 H 1.1858 0.7920 0.5071
C27 C 0.4055(4) 1.0922(2) 0.2582(3)
H23 H 0.3594 1.1474 0.2365
C28 C 0.5593(5) 0.7824(3) 0.4164(3)
H24 H 0.5844 0.7165 0.4206
H25 H 0.4684 0.7866 0.4010
H26 H 0.5982 0.8132 0.4719
S1 S 1.08119(10) 0.96131(9) 0.12781(8)
S2 S 1.22838(11) 0.89739(10) 0.40984(7)
C29 C 1.0937(7) 0.9564(5) 0.2444(6)
H27 H 1.1251 1.0172 0.2718
H28 H 1.0099 0.9461 0.2492
C30 C 1.1818(7) 0.8777(5) 0.2926(5)
H29 H 1.2569 0.8763 0.2742
H30 H 1.1391 0.8165 0.2782
C31? C 1.1485(8) 0.8887(6) 0.2266(6)
C32? C 1.1239(9) 0.9391(7) 0.3053(7)
H31? H 1.1093 0.8260 0.2180
H32? H 1.2393 0.8807 0.2383
H33? H 1.0363 0.9282 0.3023
H34? H 1.1354 1.0074 0.3008
loop_
_geom_bond_atom_site_label_1
_geom_bond_atom_site_label_2
_geom_bond_site_symmetry_1
_geom_bond_site_symmetry_2
C1 C2 1_555 1_555
C2 C3 1_555 1_555
C3 H1 1_555 1_555
C4 C5 1_555 1_555
C5 C1 1_555 1_555
C6 C8 1_555 1_555
C7 C3 1_555 1_555
C8 C2 1_555 1_555
C9 C4 1_555 1_555
C10 C9 1_555 1_555
C11 C1 1_555 1_555
H2 C11 1_555 1_555
C12 C6 1_555 1_555
H3 C12 1_555 1_555
C13 C6 1_555 1_555
C14 C5 1_555 1_555
C15 C7 1_555 1_555
H4 C15 1_555 1_555
C16 C12 1_555 1_555
C17 C14 1_555 1_555
H5 C17 1_555 1_555
H6 C17 1_555 1_555
H7 C17 1_555 1_555
C18 C7 1_555 1_555
H8 C18 1_555 1_555
H9 C18 1_555 1_555
C19 C4 1_555 1_555
H10 C19 1_555 1_555
C20 C16 1_555 1_555
H11 C20 1_555 1_555
C21 C13 1_555 1_555
H12 C21 1_555 1_555
C22 C5 1_555 1_555
H13 C22 1_555 1_555
H14 C22 1_555 1_555
H15 C22 1_555 1_555
C23 C8 1_555 1_555
H16 C23 1_555 1_555
H17 C23 1_555 1_555
H18 C23 1_555 1_555
C24 C9 1_555 1_555
H19 C24 1_555 1_555
C25 C24 1_555 1_555
H20 C25 1_555 1_555
C26 C16 1_555 1_555
H21 C26 1_555 1_555
H22 C26 1_555 1_555
C27 C19 1_555 1_555
H23 C27 1_555 1_555
C28 C10 1_555 1_555
H24 C28 1_555 1_555
H25 C28 1_555 1_555
H26 C28 1_555 1_555
S1 C18 1_555 1_555
S2 C26 1_555 1_555
C29 S1 1_555 1_555
H27 C29 1_555 1_555
H28 C29 1_555 1_555
C30 S2 1_555 1_555
H29 C30 1_555 1_555
H30 C30 1_555 1_555
C8 C14 1_555 1_555
C10 C13 1_555 1_555
C10 C14 1_555 1_555
C11 C15 1_555 1_555
C20 C21 1_555 1_555
C25 C27 1_555 1_555
C29 C30 1_555 1_555

#END
