
#######################################################################
#
#                 Cambridge Crystallographic Data Centre
#                                CCDC 
#
#######################################################################
#
# If this CIF has been generated from an entry in the Cambridge 
# Structural Database, then it will include bibliographic, chemical, 
# crystal, experimental, refinement or atomic coordinate data resulting 
# from the CCDC's data processing and validation procedures.
#
#######################################################################

data_LAKGAF
_chemical_compound_source        'marine sponge Dysidea fragilis Montagu'
_chemical_formula_moiety         'C14 H20 Cl6 N2 O2'
_chemical_name_systematic        "2S,4S,2'S,4'S-Dysamide A"
_symmetry_cell_setting           monoclinic
_symmetry_space_group_name_H-M   'P 21'
_symmetry_Int_Tables_number      4
_space_group_name_Hall           'P 2yb'
loop_
_symmetry_equiv_pos_site_id
_symmetry_equiv_pos_as_xyz
1 x,y,z
2 -x,1/2+y,-z
_cell_length_a                   8.533(2)
_cell_length_b                   9.414(2)
_cell_length_c                   12.992(2)
_cell_angle_alpha                90
_cell_angle_beta                 99.91(2)
_cell_angle_gamma                90
_cell_volume                     1028.07
_exptl_crystal_colour            colorless
_chemical_melting_point          118-119deg.C
_cell_formula_units_Z            2
loop_
_atom_site_label
_atom_site_type_symbol
_atom_site_fract_x
_atom_site_fract_y
_atom_site_fract_z
Cl1 Cl 0.1583(2) 0.2057(2) -0.1444(1)
Cl2 Cl 0.2472(2) 0.1565(2) 0.0728(1)
Cl3 Cl -0.0198(1) 0.3374(3) -0.0052(1)
Cl4 Cl 0.2316(2) 0.6280(3) 0.5885(1)
Cl5 Cl 0.2027(2) 0.3279(3) 0.6185(1)
Cl6 Cl -0.0348(1) 0.4754(3) 0.4736(1)
O1 O 0.3810(3) 0.8196(4) 0.1014(2)
O2 O 0.6080(3) 0.4515(4) 0.3914(3)
N1 N 0.5435(4) 0.5000 0.2195(3)
N2 N 0.3887(4) 0.7444(4) 0.2676(3)
C1 C 0.4400(4) 0.5763(4) 0.1350(3)
C2 C 0.4022(4) 0.7252(4) 0.1670(3)
C3 C 0.2858(4) 0.4919(5) 0.0932(3)
C4 C 0.2875(4) 0.4163(4) -0.0101(3)
C5 C 0.2489(5) 0.5202(5) -0.1000(4)
C6 C 0.1745(4) 0.2894(5) -0.0203(3)
C7 C 0.4126(4) 0.6304(4) 0.3431(3)
C8 C 0.5305(4) 0.5199(4) 0.3202(3)
C9 C 0.2527(4) 0.5638(5) 0.3592(3)
C10 C 0.2690(4) 0.4403(4) 0.4387(3)
C11 C 0.2348(6) 0.2981(5) 0.3852(4)
C12 C 0.1708(5) 0.4662(5) 0.5230(3)
C13 C 0.6445(5) 0.3866(5) 0.1918(4)
C14 C 0.3412(5) 0.8833(5) 0.3010(4)
loop_
_geom_bond_atom_site_label_1
_geom_bond_atom_site_label_2
_geom_bond_site_symmetry_1
_geom_bond_site_symmetry_2
Cl1 C6 1_555 1_555
Cl2 C6 1_555 1_555
Cl3 C6 1_555 1_555
Cl4 C12 1_555 1_555
Cl5 C12 1_555 1_555
Cl6 C12 1_555 1_555
O1 C2 1_555 1_555
O2 C8 1_555 1_555
N1 C1 1_555 1_555
N2 C2 1_555 1_555
C1 C2 1_555 1_555
C3 C1 1_555 1_555
C4 C3 1_555 1_555
C5 C4 1_555 1_555
C6 C4 1_555 1_555
C7 N2 1_555 1_555
C8 N1 1_555 1_555
C9 C7 1_555 1_555
C10 C9 1_555 1_555
C11 C10 1_555 1_555
C12 C10 1_555 1_555
C13 N1 1_555 1_555
C14 N2 1_555 1_555
C7 C8 1_555 1_555

#END
