
#######################################################################
#
#                 Cambridge Crystallographic Data Centre
#                                CCDC 
#
#######################################################################
#
# If this CIF has been generated from an entry in the Cambridge 
# Structural Database, then it will include bibliographic, chemical, 
# crystal, experimental, refinement or atomic coordinate data resulting 
# from the CCDC's data processing and validation procedures.
#
#######################################################################

data_LAKXEC
_chemical_formula_moiety         'C10 H15 N4 1+,0.5(C2 O4 2-)'
_chemical_name_systematic        
"N,N'-Butylenebis(imidazole) hemikis(oxalic acid)"
_symmetry_cell_setting           triclinic
_symmetry_space_group_name_H-M   'P -1'
_symmetry_Int_Tables_number      2
_space_group_name_Hall           '-P 1'
loop_
_symmetry_equiv_pos_site_id
_symmetry_equiv_pos_as_xyz
1 x,y,z
2 -x,-y,-z
_cell_length_a                   4.4373(9)
_cell_length_b                   12.882(3)
_cell_length_c                   15.319(3)
_cell_angle_alpha                99.91(3)
_cell_angle_beta                 94.53(3)
_cell_angle_gamma                98.72(3)
_cell_volume                     847.639
_cell_formula_units_Z            2
loop_
_atom_site_label
_atom_site_type_symbol
_atom_site_fract_x
_atom_site_fract_y
_atom_site_fract_z
N1 N 0.6427(14) 1.1732(4) 0.7519(5)
N2 N 1.0045(14) 1.3092(4) 0.7885(5)
H1 H 1.1326 1.3616 0.8199
N3 N 0.2047(14) 0.6974(4) 0.7727(5)
N4 N -0.1403(16) 0.5857(5) 0.8190(7)
C1 C 0.8083(19) 1.2393(6) 0.8178(6)
H2 H 0.7909 1.2375 0.8776
C2 C 0.962(2) 1.2811(6) 0.6984(8)
H3 H 1.0758 1.3129 0.6587
C3 C 0.735(2) 1.2018(6) 0.6775(7)
H4 H 0.6498 1.1702 0.6198
C4 C 0.0883(19) 0.6694(6) 0.8451(7)
H5 H 0.1550 0.7025 0.9038
C5 C -0.155(2) 0.5598(6) 0.7277(9)
H6 H -0.2872 0.5030 0.6915
C6 C 0.047(2) 0.6288(6) 0.7000(7)
H7 H 0.0784 0.6305 0.6409
C7 C 0.4104(16) 1.0826(5) 0.7636(6)
H8 H 0.2439 1.0698 0.7160
H9 H 0.3263 1.1008 0.8197
C8 C 0.5464(16) 0.9828(4) 0.7628(6)
H10 H 0.6995 0.9933 0.8137
H11 H 0.6474 0.9683 0.7092
C9 C 0.3025(15) 0.8880(4) 0.7660(5)
H12 H 0.1871 0.9056 0.8162
H13 H 0.1614 0.8730 0.7120
C10 C 0.4402(15) 0.7899(4) 0.7750(6)
H14 H 0.5657 0.7748 0.7268
H15 H 0.5717 0.8034 0.8308
O1 O 0.5657(14) 0.5406(4) 0.1157(4)
O2 O 0.7726(15) 0.6126(4) 0.0075(4)
C11 C 0.5970(19) 0.5432(5) 0.0345(8)
O1A O 0.4343(14) 0.4594(4) -0.1157(4)
O2A O 0.2274(15) 0.3874(4) -0.0075(4)
C11A C 0.4030(19) 0.4568(5) -0.0345(8)
H16? H -0.2549 0.5545 0.8528
loop_
_geom_bond_atom_site_label_1
_geom_bond_atom_site_label_2
_geom_bond_site_symmetry_1
_geom_bond_site_symmetry_2
N1 C1 1_555 1_555
N2 H1 1_555 1_555
N3 C4 1_555 1_555
N4 C4 1_555 1_555
O1 C11 1_555 1_555
O2 C11 1_555 1_555
C1 N2 1_555 1_555
H2 C1 1_555 1_555
C2 N2 1_555 1_555
H3 C2 1_555 1_555
C3 N1 1_555 1_555
H4 C3 1_555 1_555
C4 H5 1_555 1_555
C5 N4 1_555 1_555
H6 C5 1_555 1_555
C6 N3 1_555 1_555
H7 C6 1_555 1_555
C7 N1 1_555 1_555
H8 C7 1_555 1_555
H9 C7 1_555 1_555
C8 C7 1_555 1_555
H10 C8 1_555 1_555
H11 C8 1_555 1_555
C9 C8 1_555 1_555
H12 C9 1_555 1_555
H13 C9 1_555 1_555
C10 N3 1_555 1_555
H14 C10 1_555 1_555
H15 C10 1_555 1_555
C11 C11A 1_555 1_555
O1A C11A 1_555 1_555
O2A C11A 1_555 1_555
C2 C3 1_555 1_555
C5 C6 1_555 1_555
C9 C10 1_555 1_555

#END
