
#######################################################################
#
#                 Cambridge Crystallographic Data Centre
#                                CCDC 
#
#######################################################################
#
# If this CIF has been generated from an entry in the Cambridge 
# Structural Database, then it will include bibliographic, chemical, 
# crystal, experimental, refinement or atomic coordinate data resulting 
# from the CCDC's data processing and validation procedures.
#
#######################################################################

data_LALDUX
_chemical_formula_moiety         'C22 H21 N1 O9'
_chemical_name_systematic        'Anthrotainin 2a,11-dimethyl ether'
_chemical_properties_biological  'possible pharmacological activity'
_symmetry_cell_setting           monoclinic
_symmetry_space_group_name_H-M   'P 21'
_symmetry_Int_Tables_number      4
_space_group_name_Hall           'P 2yb'
loop_
_symmetry_equiv_pos_site_id
_symmetry_equiv_pos_as_xyz
1 x,y,z
2 -x,1/2+y,-z
_cell_length_a                   9.260(1)
_cell_length_b                   6.919(1)
_cell_length_c                   16.284(3)
_cell_angle_alpha                90
_cell_angle_beta                 105.33(3)
_cell_angle_gamma                90
_cell_volume                     1006.19
_exptl_crystal_colour            colorless
_chemical_melting_point          232-234deg.C
_cell_formula_units_Z            2
loop_
_atom_site_label
_atom_site_type_symbol
_atom_site_fract_x
_atom_site_fract_y
_atom_site_fract_z
C1 C 0.3117(10) 0.3260 0.6740(6)
O1 O 0.2495(8) 0.2284(13) 0.7148(5)
C2 C 0.2500(10) 0.4971(14) 0.6283(7)
C3 C 0.1000(10) 0.5508(16) 0.6220(6)
N1 N 0.0186(9) 0.4306(15) 0.6562(6)
O2 O 0.0459(8) 0.7036(14) 0.5844(5)
C4 C -0.1038(13) 0.7624(19) 0.5780(9)
C5 C 0.3392(11) 0.6100(14) 0.5828(7)
O3 O 0.2915(8) 0.7437(13) 0.5342(5)
C6 C 0.4993(10) 0.5464(14) 0.5887(6)
C7 C 0.5747(10) 0.4069(15) 0.6585(6)
O4 O 0.7023(7) 0.3291(12) 0.6417(4)
C8 C 0.6203(11) 0.4960(15) 0.7455(6)
C9 C 0.6634(9) 0.3645(15) 0.8209(7)
C10 C 0.7549(11) 0.4251(15) 0.8954(6)
C11 C 0.7967(10) 0.3036(14) 0.9678(6)
C12 C 0.8937(11) 0.3775(15) 1.0455(6)
C13 C 0.9296(11) 0.2593(16) 1.1174(7)
O5 O 1.0166(9) 0.3138(14) 1.1928(5)
C14 C 1.0423(14) 0.5105(18) 1.2099(8)
C15 C 0.8770(12) 0.0677(15) 1.1117(7)
C16 C 0.7864(11) -0.0018(15) 1.0395(7)
C17 C 0.7391(12) 0.1090(16) 0.9642(7)
O6 O 0.7382(10) -0.1872(14) 1.0405(5)
C18 C 0.6389(9) 0.0513(14) 0.8856(7)
C19 C 0.6067(9) 0.1680(14) 0.8147(7)
C20 C 0.4238(12) -0.1451(18) 0.8698(9)
O7 O 0.5804(8) -0.1275(12) 0.8835(5)
C21 C 0.5240(10) 0.0996(14) 0.7302(7)
C22 C 0.4579(10) 0.2448(14) 0.6604(6)
O8 O 0.5086(9) -0.0676(12) 0.7107(5)
O9 O 0.4238(8) 0.1541(12) 0.5809(5)
H1 H 0.0961 0.3027 0.7030
H2 H -0.0641 0.4473 0.6522
H3 H -0.1285 0.8829 0.5484
H4 H -0.1668 0.6621 0.5470
H5 H -0.1191 0.7731 0.6339
H6 H 0.5619 0.6591 0.5966
H7 H 0.5001 0.4910 0.5347
H8 H 0.6865 0.3131 0.5883
H9 H 0.5416 0.5799 0.7522
H10 H 0.7063 0.5746 0.7468
H11 H 0.7947 0.5540 0.9003
H12 H 0.9355 0.5049 1.0471
H13 H 1.1040 0.5416 1.2656
H14 H 1.0928 0.5474 1.1679
H15 H 0.9491 0.5791 1.1999
H16 H 0.9042 -0.0175 1.1598
H17 H 0.6526 -0.2650 0.9952
H18 H 0.3770 -0.0967 0.8138
H19 H 0.3943 -0.2769 0.8740
H20 H 0.3932 -0.0683 0.9113
H21 H 0.3896 0.0418 0.5855
loop_
_geom_bond_atom_site_label_1
_geom_bond_atom_site_label_2
_geom_bond_site_symmetry_1
_geom_bond_site_symmetry_2
C1 O1 1_555 1_555
C2 C1 1_555 1_555
C3 C2 1_555 1_555
N1 C3 1_555 1_555
O2 C3 1_555 1_555
C4 O2 1_555 1_555
C5 C2 1_555 1_555
O3 C5 1_555 1_555
C6 C5 1_555 1_555
C7 C6 1_555 1_555
O4 C7 1_555 1_555
C8 C7 1_555 1_555
C9 C8 1_555 1_555
C10 C9 1_555 1_555
C11 C10 1_555 1_555
C12 C11 1_555 1_555
C13 C12 1_555 1_555
O5 C13 1_555 1_555
C14 O5 1_555 1_555
C15 C13 1_555 1_555
C16 C15 1_555 1_555
C17 C11 1_555 1_555
O6 C16 1_555 1_555
C18 C17 1_555 1_555
C19 C9 1_555 1_555
C20 O7 1_555 1_555
O7 C18 1_555 1_555
C21 C19 1_555 1_555
C22 C1 1_555 1_555
O8 C21 1_555 1_555
O9 C22 1_555 1_555
H1 N1 1_555 1_555
H2 N1 1_555 1_555
H3 C4 1_555 1_555
H4 C4 1_555 1_555
H5 C4 1_555 1_555
H6 C6 1_555 1_555
H7 C6 1_555 1_555
H8 O4 1_555 1_555
H9 C8 1_555 1_555
H10 C8 1_555 1_555
H11 C10 1_555 1_555
H12 C12 1_555 1_555
H13 C14 1_555 1_555
H14 C14 1_555 1_555
H15 C14 1_555 1_555
H16 C15 1_555 1_555
H17 O6 1_555 1_555
H18 C20 1_555 1_555
H19 C20 1_555 1_555
H20 C20 1_555 1_555
H21 O9 1_555 1_555
C7 C22 1_555 1_555
C16 C17 1_555 1_555
C18 C19 1_555 1_555
C21 C22 1_555 1_555

#END
