
#######################################################################
#
#                 Cambridge Crystallographic Data Centre
#                                CCDC 
#
#######################################################################
#
# If this CIF has been generated from an entry in the Cambridge 
# Structural Database, then it will include bibliographic, chemical, 
# crystal, experimental, refinement or atomic coordinate data resulting 
# from the CCDC's data processing and validation procedures.
#
#######################################################################

data_LALKUF
_chemical_formula_moiety         'C61 H42 O6'
_chemical_name_systematic        
9,9-Dimethyl-3,7,11,15-tetraoxa-4,6,8,10,12,14(1,4)-hexabenzena-1(2,1),2(1,2)-dinaphthalenacyclopentadecaphane-5,13-dione
_symmetry_cell_setting           orthorhombic
_symmetry_space_group_name_H-M   'P 21 21 21'
_symmetry_Int_Tables_number      19
_space_group_name_Hall           'P 2ac 2ab'
loop_
_symmetry_equiv_pos_site_id
_symmetry_equiv_pos_as_xyz
1 x,y,z
2 1/2-x,-y,1/2+z
3 -x,1/2+y,1/2-z
4 1/2+x,1/2-y,-z
_cell_length_a                   10.814(2)
_cell_length_b                   27.318(3)
_cell_length_c                   31.282(4)
_cell_angle_alpha                90
_cell_angle_beta                 90
_cell_angle_gamma                90
_cell_volume                     9241.23
_exptl_crystal_colour            colorless
_exptl_crystal_description       block
_cell_formula_units_Z            8
_exptl_crystal_recrystallization_method chloroform
loop_
_atom_site_label
_atom_site_type_symbol
_atom_site_fract_x
_atom_site_fract_y
_atom_site_fract_z
O1 O 0.9291(11) 1.0409(4) 0.9606(3)
O2 O 0.8470(15) 0.8743(5) 1.0931(4)
O3 O 0.7517(14) 0.6809(5) 0.9926(4)
O4 O 1.0339(13) 0.7064(5) 0.7156(4)
O5 O 0.9253(15) 0.9311(5) 0.6791(4)
O6 O 0.9679(14) 1.0182(4) 0.8657(4)
C1 C 0.8203(10) 0.8186(3) 1.0354(4)
C2 C 0.7408(9) 0.7876(4) 1.0574(3)
H1 H 0.7023 0.7984 1.0823
C3 C 0.7189(9) 0.7406(4) 1.0423(3)
H2 H 0.6657 0.7198 1.0571
C4 C 0.7765(10) 0.7245(4) 1.0052(3)
C5 C 0.8560(9) 0.7555(5) 0.9831(2)
H3 H 0.8945 0.7447 0.9583
C6 C 0.8779(9) 0.8025(4) 0.9982(3)
H4 H 0.9311 0.8232 0.9835
C7 C 0.8131(11) 0.6571(3) 0.9598(3)
C8 C 0.9381(11) 0.6456(4) 0.9617(3)
H5 H 0.9855 0.6560 0.9849
C9 C 0.9925(7) 0.6187(4) 0.9291(4)
H6 H 1.0762 0.6110 0.9303
C10 C 0.9218(10) 0.6032(3) 0.8945(3)
C11 C 0.7967(10) 0.6147(4) 0.8926(3)
H7 H 0.7494 0.6044 0.8695
C12 C 0.7423(7) 0.6417(4) 0.9253(4)
H8 H 0.6586 0.6493 0.9240
C13 C 0.9811(16) 0.5723(6) 0.8559(5)
C14 C 1.1058(19) 0.5527(7) 0.8677(6)
H9 H 1.1609 0.5794 0.8735
H10 H 1.1379 0.5336 0.8444
H11 H 1.0987 0.5325 0.8927
C15 C 0.8983(18) 0.5322(6) 0.8471(6)
H12 H 0.8189 0.5449 0.8389
H13 H 0.8895 0.5124 0.8722
H14 H 0.9313 0.5127 0.8242
C16 C 0.9887(9) 0.6090(3) 0.8179(3)
C17 C 1.0589(8) 0.6512(4) 0.8228(3)
H15 H 1.0992 0.6573 0.8485
C18 C 1.0688(8) 0.6844(3) 0.7893(3)
H16 H 1.1157 0.7126 0.7926
C19 C 1.0086(10) 0.6753(3) 0.7509(3)
C20 C 0.9384(9) 0.6330(4) 0.7460(3)
H17 H 0.8981 0.6269 0.7202
C21 C 0.9285(8) 0.5998(3) 0.7795(3)
H18 H 0.8816 0.5716 0.7762
C22 C 1.0071(10) 0.7538(3) 0.7161(3)
C23 C 0.9428(10) 0.7748(4) 0.7499(2)
H19 H 0.9155 0.7554 0.7724
C24 C 0.9192(9) 0.8248(4) 0.7501(3)
H20 H 0.8761 0.8389 0.7727
C25 C 0.9600(10) 0.8538(3) 0.7164(3)
C26 C 1.0243(10) 0.8328(4) 0.6826(3)
H21 H 1.0516 0.8523 0.6601
C27 C 1.0479(10) 0.7828(4) 0.6824(3)
H22 H 1.0910 0.7688 0.6598
C28 C 0.9421(14) 0.9101(6) 0.7140(6)
C29 C 0.9561(15) 0.9379(6) 0.7550(5)
C30 C 0.8928(12) 0.9825(6) 0.7594(5)
H23 H 0.8447 0.9944 0.7370
C31 C 0.9020(17) 1.0082(6) 0.7962(5)
H24 H 0.8630 1.0384 0.7988
C32 C 0.9646(16) 0.9909(5) 0.8276(4)
C33 C 1.0267(14) 0.9500(5) 0.8255(4)
H25 H 1.0728 0.9394 0.8488
C34 C 1.0234(13) 0.9226(5) 0.7884(5)
H26 H 1.0679 0.8936 0.7867
C35 C 0.8630(14) 1.0960(5) 0.9083(4)
C36 C 0.8320(13) 1.0720(6) 0.9430(5)
C37 C 0.7171(9) 1.0685(5) 0.9610(4)
H27 H 0.7044 1.0476 0.9840
C38 C 0.6231(7) 1.0948(4) 0.9456(3)
H28 H 0.5449 1.0923 0.9578
C39 C 0.6433(10) 1.1248(6) 0.9124(6)
C40 C 0.7567(19) 1.1264(6) 0.8920(6)
C41 C 0.7822(10) 1.1558(6) 0.8553(5)
H29 H 0.8595 1.1537 0.8424
C42 C 0.6939(10) 1.1876(6) 0.8383(5)
H30 H 0.7119 1.2083 0.8156
C43 C 0.5804(18) 1.1867(6) 0.8568(5)
H31 H 0.5185 1.2066 0.8457
C44 C 0.5524(11) 1.1561(6) 0.8931(5)
H32 H 0.4728 1.1566 0.9043
C45 C 0.9860(9) 1.1000(5) 0.8907(3)
C46 C 1.0308(11) 1.0622(6) 0.8675(5)
C47 C 1.1533(17) 1.0599(8) 0.8464(6)
H33 H 1.1849 1.0326 0.8325
C48 C 1.2132(15) 1.1034(6) 0.8503(5)
H34 H 1.2914 1.1049 0.8380
C49 C 1.1725(17) 1.1464(7) 0.8703(5)
C50 C 1.0569(12) 1.1413(6) 0.8926(4)
C51 C 1.0263(10) 1.1892(6) 0.9125(4)
H35 H 0.9497 1.1893 0.9261
C52 C 1.0787(11) 1.2273(6) 0.9149(5)
H36 H 1.0510 1.2527 0.9322
C53 C 1.1843(16) 1.2311(6) 0.8899(6)
H37 H 1.2225 1.2614 0.8869
C54 C 1.2341(15) 1.1909(6) 0.8694(4)
H38 H 1.3090 1.1937 0.8550
C55 C 0.9091(13) 0.9985(7) 0.9822(6)
C56 C 0.9631(17) 0.9920(6) 1.0204(4)
H39 H 1.0124 1.0161 1.0327
C57 C 0.9412(15) 0.9462(6) 1.0413(3)
H40 H 0.9831 0.9404 1.0668
C58 C 0.8647(16) 0.9108(7) 1.0270(5)
C59 C 0.8103(13) 0.9197(5) 0.9885(5)
H41 H 0.7606 0.8956 0.9765
C60 C 0.8271(17) 0.9667(6) 0.9648(5)
H42 H 0.7841 0.9736 0.9398
C61 C 0.8444(16) 0.8675(6) 1.0555(3)
O7 O 0.1518(15) 0.8730(5) 0.5944(3)
O8 O 0.2550(15) 0.6806(5) 0.4924(4)
O9 O -0.0313(16) 0.7065(4) 0.2146(4)
O10 O 0.0829(13) 0.9268(4) 0.1816(4)
O11 O 0.0317(13) 1.0184(4) 0.3673(4)
O12 O 0.0727(11) 1.0426(4) 0.4605(4)
C62 C 0.1773(13) 0.8228(5) 0.5368(4)
C63 C 0.2494(13) 0.7884(6) 0.5552(4)
H43 H 0.2851 0.7971 0.5811
C64 C 0.2764(13) 0.7433(6) 0.5411(5)
H44 H 0.3310 0.7228 0.5554
C65 C 0.2186(12) 0.7299(7) 0.5044(5)
C66 C 0.1400(15) 0.7594(6) 0.4844(5)
H45 H 0.0948 0.7484 0.4610
C67 C 0.1274(12) 0.8056(5) 0.4988(4)
H46 H 0.0822 0.8274 0.4822
C68 C 0.1911(11) 0.6569(5) 0.4584(6)
C69 C 0.2634(14) 0.6403(6) 0.4268(5)
H47 H 0.3488 0.6443 0.4267
C70 C 0.2008(15) 0.6167(5) 0.3942(5)
H48 H 0.2461 0.6104 0.3695
C71 C 0.0837(15) 0.6019(5) 0.3938(4)
C72 C 0.0169(14) 0.6192(5) 0.4285(4)
H49 H -0.0678 0.6136 0.4300
C73 C 0.0763(15) 0.6454(6) 0.4615(5)
H50 H 0.0319 0.6544 0.4857
C74 C 0.0224(19) 0.5765(7) 0.3574(6)
C75 C 0.111(2) 0.5315(6) 0.3447(6)
H51 H 0.1174 0.5093 0.3683
H52 H 0.1921 0.5438 0.3377
H53 H 0.0776 0.5147 0.3204
C76 C -0.1034(16) 0.5522(5) 0.3672(5)
H54 H -0.0932 0.5284 0.3895
H55 H -0.1338 0.5364 0.3419
H56 H -0.1613 0.5767 0.3762
C77 C 0.0075(11) 0.6110(4) 0.3182(3)
C78 C 0.0966(9) 0.6152(4) 0.2864(4)
H57 H 0.1682 0.5965 0.2877
C79 C 0.0784(9) 0.6475(4) 0.2526(3)
H58 H 0.1380 0.6503 0.2313
C80 C -0.0287(11) 0.6755(3) 0.2506(3)
C81 C -0.1177(8) 0.6712(3) 0.2825(4)
H59 H -0.1894 0.6900 0.2811
C82 C -0.0996(9) 0.6390(4) 0.3162(3)
H60 H -0.1592 0.6362 0.3375
C83 C -0.002(2) 0.7567(7) 0.2230(8)
C84 C 0.0513(18) 0.7881(11) 0.2453(5)
H61 H 0.0894 0.7696 0.2665
C85 C 0.0746(13) 0.8217(7) 0.2525(3)
H62 H 0.1155 0.8324 0.2769
C86 C 0.0278(17) 0.8533(5) 0.2142(5)
C87 C -0.0310(17) 0.8273(8) 0.1829(3)
H63 H -0.0574 0.8427 0.1581
C88 C -0.0502(15) 0.7797(6) 0.1884(6)
H64 H -0.0967 0.7622 0.1686
C89 C 0.0551(18) 0.9035(7) 0.2135(4)
C90 C 0.0488(10) 0.9377(4) 0.2544(3)
C91 C -0.0270(9) 0.9223(3) 0.2877(3)
H65 H -0.0710 0.8932 0.2853
C92 C -0.0370(9) 0.9505(4) 0.3246(3)
H66 H -0.0877 0.9402 0.3468
C93 C 0.0288(11) 0.9940(4) 0.3282(3)
C94 C 0.1046(10) 1.0094(3) 0.2949(4)
H67 H 0.1487 1.0385 0.2973
C95 C 0.1146(9) 0.9813(4) 0.2580(3)
H68 H 0.1654 0.9916 0.2358
C96 C 0.0082(17) 1.0984(6) 0.3895(5)
C97 C -0.048(2) 1.0600(6) 0.3694(4)
C98 C -0.1551(17) 1.0640(6) 0.3491(4)
H69 H -0.1885 1.0389 0.3326
C99 C -0.2161(12) 1.1112(8) 0.3549(6)
H70 H -0.2971 1.1138 0.3452
C100 C -0.1686(10) 1.1495(7) 0.3723(5)
C101 C -0.0562(15) 1.1430(6) 0.3935(5)
C102 C -0.0070(14) 1.1815(6) 0.4165(5)
H71 H 0.0658 1.1791 0.4322
C103 C -0.082(2) 1.2272(7) 0.4137(5)
H72 H -0.0548 1.2545 0.4288
C104 C -0.1894(15) 1.2315(8) 0.3901(7)
H73 H -0.2283 1.2618 0.3876
C105 C -0.2368(14) 1.1928(9) 0.3710(7)
H74 H -0.3129 1.1943 0.3572
C106 C 0.1439(13) 1.0996(6) 0.4087(5)
C107 C 0.1676(14) 1.0655(5) 0.4423(5)
C108 C 0.2886(19) 1.0653(6) 0.4624(5)
H75 H 0.3056 1.0464 0.4864
C109 C 0.3824(16) 1.0967(6) 0.4425(6)
H76 H 0.4621 1.0968 0.4537
C110 C 0.3560(14) 1.1260(5) 0.4076(3)
C111 C 0.2379(12) 1.1262(6) 0.3903(4)
C112 C 0.2194(14) 1.1549(5) 0.3554(4)
H77 H 0.1428 1.1549 0.3418
C113 C 0.3129(17) 1.1838(6) 0.3401(5)
H78 H 0.2983 1.2027 0.3159
C114 C 0.4292(14) 1.1862(6) 0.3594(5)
H79 H 0.4895 1.2076 0.3494
C115 C 0.4502(15) 1.1585(6) 0.3908(6)
H80 H 0.5280 1.1588 0.4034
C116 C 0.1027(12) 0.9987(5) 0.4828(4)
C117 C 0.0346(11) 0.9912(5) 0.5209(5)
H81 H -0.0244 1.0136 0.5301
C118 C 0.0589(14) 0.9503(5) 0.5432(5)
H82 H 0.0226 0.9469 0.5700
C119 C 0.1321(14) 0.9141(6) 0.5293(5)
C120 C 0.1953(11) 0.9219(6) 0.4887(3)
H83 H 0.2502 0.8983 0.4787
C121 C 0.1766(15) 0.9614(7) 0.4659(4)
H84 H 0.2118 0.9646 0.4389
C122 C 0.1574(9) 0.8687(6) 0.5542(6)
loop_
_geom_bond_atom_site_label_1
_geom_bond_atom_site_label_2
_geom_bond_site_symmetry_1
_geom_bond_site_symmetry_2
O1 C36 1_555 1_555
O2 C61 1_555 1_555
O3 C4 1_555 1_555
O4 C19 1_555 1_555
O5 C28 1_555 1_555
O6 C32 1_555 1_555
O7 C122 1_555 1_555
O8 C65 1_555 1_555
O9 C80 1_555 1_555
O10 C89 1_555 1_555
O11 C93 1_555 1_555
O12 C107 1_555 1_555
C1 C2 1_555 1_555
C2 H1 1_555 1_555
C3 C2 1_555 1_555
H2 C3 1_555 1_555
C4 C3 1_555 1_555
C5 C4 1_555 1_555
H3 C5 1_555 1_555
C6 C1 1_555 1_555
H4 C6 1_555 1_555
C7 O3 1_555 1_555
C8 C7 1_555 1_555
H5 C8 1_555 1_555
C9 C8 1_555 1_555
H6 C9 1_555 1_555
C10 C9 1_555 1_555
C11 C10 1_555 1_555
H7 C11 1_555 1_555
C12 C7 1_555 1_555
H8 C12 1_555 1_555
C13 C10 1_555 1_555
C14 C13 1_555 1_555
H9 C14 1_555 1_555
H10 C14 1_555 1_555
H11 C14 1_555 1_555
C15 C13 1_555 1_555
H12 C15 1_555 1_555
H13 C15 1_555 1_555
H14 C15 1_555 1_555
C16 C13 1_555 1_555
C17 C16 1_555 1_555
H15 C17 1_555 1_555
C18 C17 1_555 1_555
H16 C18 1_555 1_555
C19 C18 1_555 1_555
C20 C19 1_555 1_555
H17 C20 1_555 1_555
C21 C16 1_555 1_555
H18 C21 1_555 1_555
C22 O4 1_555 1_555
C23 C22 1_555 1_555
H19 C23 1_555 1_555
C24 C23 1_555 1_555
H20 C24 1_555 1_555
C25 C24 1_555 1_555
C26 C25 1_555 1_555
H21 C26 1_555 1_555
C27 C22 1_555 1_555
H22 C27 1_555 1_555
C28 C25 1_555 1_555
C29 C28 1_555 1_555
C30 C29 1_555 1_555
H23 C30 1_555 1_555
C31 C30 1_555 1_555
H24 C31 1_555 1_555
C32 C31 1_555 1_555
C33 C32 1_555 1_555
H25 C33 1_555 1_555
C34 C29 1_555 1_555
H26 C34 1_555 1_555
C35 C36 1_555 1_555
C36 C37 1_555 1_555
C37 H27 1_555 1_555
C38 C37 1_555 1_555
H28 C38 1_555 1_555
C39 C38 1_555 1_555
C40 C35 1_555 1_555
C41 C40 1_555 1_555
H29 C41 1_555 1_555
C42 C41 1_555 1_555
H30 C42 1_555 1_555
C43 C42 1_555 1_555
H31 C43 1_555 1_555
C44 C39 1_555 1_555
H32 C44 1_555 1_555
C45 C35 1_555 1_555
C46 O6 1_555 1_555
C47 C46 1_555 1_555
H33 C47 1_555 1_555
C48 C47 1_555 1_555
H34 C48 1_555 1_555
C49 C48 1_555 1_555
C50 C45 1_555 1_555
C51 C50 1_555 1_555
H35 C51 1_555 1_555
C52 C51 1_555 1_555
H36 C52 1_555 1_555
C53 C52 1_555 1_555
H37 C53 1_555 1_555
C54 C49 1_555 1_555
H38 C54 1_555 1_555
C55 O1 1_555 1_555
C56 C55 1_555 1_555
H39 C56 1_555 1_555
C57 C56 1_555 1_555
H40 C57 1_555 1_555
C58 C57 1_555 1_555
C59 C58 1_555 1_555
H41 C59 1_555 1_555
C60 C55 1_555 1_555
H42 C60 1_555 1_555
C61 C1 1_555 1_555
C62 C63 1_555 1_555
C63 H43 1_555 1_555
C64 C63 1_555 1_555
H44 C64 1_555 1_555
C65 C64 1_555 1_555
C66 C65 1_555 1_555
H45 C66 1_555 1_555
C67 C62 1_555 1_555
H46 C67 1_555 1_555
C68 O8 1_555 1_555
C69 C68 1_555 1_555
H47 C69 1_555 1_555
C70 C69 1_555 1_555
H48 C70 1_555 1_555
C71 C70 1_555 1_555
C72 C71 1_555 1_555
H49 C72 1_555 1_555
C73 C68 1_555 1_555
H50 C73 1_555 1_555
C74 C71 1_555 1_555
C75 C74 1_555 1_555
H51 C75 1_555 1_555
H52 C75 1_555 1_555
H53 C75 1_555 1_555
C76 C74 1_555 1_555
H54 C76 1_555 1_555
H55 C76 1_555 1_555
H56 C76 1_555 1_555
C77 C74 1_555 1_555
C78 C77 1_555 1_555
H57 C78 1_555 1_555
C79 C78 1_555 1_555
H58 C79 1_555 1_555
C80 C79 1_555 1_555
C81 C80 1_555 1_555
H59 C81 1_555 1_555
C82 C77 1_555 1_555
H60 C82 1_555 1_555
C83 O9 1_555 1_555
C84 C83 1_555 1_555
H61 C84 1_555 1_555
C85 C84 1_555 1_555
H62 C85 1_555 1_555
C86 C85 1_555 1_555
C87 C86 1_555 1_555
H63 C87 1_555 1_555
C88 C83 1_555 1_555
H64 C88 1_555 1_555
C89 C86 1_555 1_555
C90 C89 1_555 1_555
C91 C90 1_555 1_555
H65 C91 1_555 1_555
C92 C91 1_555 1_555
H66 C92 1_555 1_555
C93 C92 1_555 1_555
C94 C93 1_555 1_555
H67 C94 1_555 1_555
C95 C90 1_555 1_555
H68 C95 1_555 1_555
C96 C97 1_555 1_555
C97 O11 1_555 1_555
C98 C97 1_555 1_555
H69 C98 1_555 1_555
C99 C98 1_555 1_555
H70 C99 1_555 1_555
C100 C99 1_555 1_555
C101 C96 1_555 1_555
C102 C101 1_555 1_555
H71 C102 1_555 1_555
C103 C102 1_555 1_555
H72 C103 1_555 1_555
C104 C103 1_555 1_555
H73 C104 1_555 1_555
C105 C100 1_555 1_555
H74 C105 1_555 1_555
C106 C96 1_555 1_555
C107 C106 1_555 1_555
C108 C107 1_555 1_555
H75 C108 1_555 1_555
C109 C108 1_555 1_555
H76 C109 1_555 1_555
C110 C109 1_555 1_555
C111 C106 1_555 1_555
C112 C111 1_555 1_555
H77 C112 1_555 1_555
C113 C112 1_555 1_555
H78 C113 1_555 1_555
C114 C113 1_555 1_555
H79 C114 1_555 1_555
C115 C110 1_555 1_555
H80 C115 1_555 1_555
C116 O12 1_555 1_555
C117 C116 1_555 1_555
H81 C117 1_555 1_555
C118 C117 1_555 1_555
H82 C118 1_555 1_555
C119 C118 1_555 1_555
C120 C119 1_555 1_555
H83 C120 1_555 1_555
C121 C116 1_555 1_555
H84 C121 1_555 1_555
C122 C62 1_555 1_555
C5 C6 1_555 1_555
C11 C12 1_555 1_555
C20 C21 1_555 1_555
C26 C27 1_555 1_555
C33 C34 1_555 1_555
C39 C40 1_555 1_555
C43 C44 1_555 1_555
C45 C46 1_555 1_555
C49 C50 1_555 1_555
C53 C54 1_555 1_555
C58 C61 1_555 1_555
C59 C60 1_555 1_555
C66 C67 1_555 1_555
C72 C73 1_555 1_555
C81 C82 1_555 1_555
C87 C88 1_555 1_555
C94 C95 1_555 1_555
C100 C101 1_555 1_555
C104 C105 1_555 1_555
C110 C111 1_555 1_555
C114 C115 1_555 1_555
C119 C122 1_555 1_555
C120 C121 1_555 1_555

#END
