
#######################################################################
#
#                 Cambridge Crystallographic Data Centre
#                                CCDC 
#
#######################################################################
#
# If this CIF has been generated from an entry in the Cambridge 
# Structural Database, then it will include bibliographic, chemical, 
# crystal, experimental, refinement or atomic coordinate data resulting 
# from the CCDC's data processing and validation procedures.
#
#######################################################################

data_LALNIN23
_chemical_name_common            'Teaching Subset: Fundamental Chemistry'
_chemical_formula_moiety         'C3 H7 N1 O2'
_chemical_name_systematic        L-Alanine
_symmetry_cell_setting           orthorhombic
_symmetry_space_group_name_H-M   'P 21 21 21'
_symmetry_Int_Tables_number      19
_space_group_name_Hall           'P 2ac 2ab'
loop_
_symmetry_equiv_pos_site_id
_symmetry_equiv_pos_as_xyz
1 x,y,z
2 1/2+x,1/2-y,-z
3 -x,1/2+y,1/2-z
4 1/2-x,-y,1/2+z
_cell_length_a                   5.940(3)
_cell_length_b                   12.274(5)
_cell_length_c                   5.806(3)
_cell_angle_alpha                90
_cell_angle_beta                 90
_cell_angle_gamma                90
_cell_volume                     423.301
_exptl_crystal_colour            colorless
_exptl_crystal_description       'irregular prism'
_cell_formula_units_Z            4
_exptl_crystal_recrystallization_method water
loop_
_atom_site_label
_atom_site_type_symbol
_atom_site_fract_x
_atom_site_fract_y
_atom_site_fract_z
H1 H -0.5750(5) 0.2478(2) -0.6620(5)
H2 H -0.2207(4) 0.1919(3) -0.7908(6)
H3 H -0.4165(4) 0.1489(2) -0.9856(5)
O1 O -0.55915(17) 0.18406(10) -0.23890(19)
N1 N -0.35276(9) 0.13758(6) -0.81688(11)
C1 C -0.53336(12) 0.16103(7) -0.64575(16)
C2 C -0.44574(12) 0.14073(8) -0.40024(14)
H4 H -0.8073(5) 0.1106(3) -0.8688(7)
H5 H -0.8710(4) 0.1043(3) -0.5675(7)
C3 C -0.73975(14) 0.09067(9) -0.69676(18)
H6 H -0.2944(5) 0.0576(2) -0.8032(6)
O2 O -0.27342(16) 0.08368(10) -0.3752(2)
H7 H -0.6957(6) 0.0039(3) -0.6949(8)
loop_
_geom_bond_atom_site_label_1
_geom_bond_atom_site_label_2
_geom_bond_site_symmetry_1
_geom_bond_site_symmetry_2
H1 C1 1_555 1_555
H2 N1 1_555 1_555
H3 N1 1_555 1_555
O1 C2 1_555 1_555
N1 C1 1_555 1_555
C1 C2 1_555 1_555
C2 O2 1_555 1_555
H4 C3 1_555 1_555
H5 C3 1_555 1_555
C3 C1 1_555 1_555
H6 N1 1_555 1_555
H7 C3 1_555 1_555

#END
