
#######################################################################
#
#                 Cambridge Crystallographic Data Centre
#                                CCDC 
#
#######################################################################
#
# If this CIF has been generated from an entry in the Cambridge 
# Structural Database, then it will include bibliographic, chemical, 
# crystal, experimental, refinement or atomic coordinate data resulting 
# from the CCDC's data processing and validation procedures.
#
#######################################################################

data_LALNIN57
_chemical_name_common            L-alanine
_chemical_formula_moiety         'C3 H7 N1 O2'
_chemical_name_systematic        2-ammoniopropanoate
_symmetry_cell_setting           orthorhombic
_symmetry_space_group_name_H-M   'P 21 21 21'
_symmetry_Int_Tables_number      19
_space_group_name_Hall           'P 2ac 2ab'
loop_
_symmetry_equiv_pos_site_id
_symmetry_equiv_pos_as_xyz
1 x,y,z
2 1/2+x,1/2-y,-z
3 -x,1/2+y,1/2-z
4 1/2-x,-y,1/2+z
_cell_length_a                   5.7772(15)
_cell_length_b                   6.0350(17)
_cell_length_c                   12.316(3)
_cell_angle_alpha                90
_cell_angle_beta                 90
_cell_angle_gamma                90
_cell_volume                     429.402
_exptl_crystal_colour            colorless
_exptl_crystal_description       
'microcrystalline powder suspension (under 5 micrometer)'
_cell_formula_units_Z            4
loop_
_atom_site_label
_atom_site_type_symbol
_atom_site_fract_x
_atom_site_fract_y
_atom_site_fract_z
O1 O 0.3713(11) 0.2713(14) 0.0842(5)
O2 O 0.2387(12) 0.5512(13) 0.1857(6)
N1 N 0.8121(11) 0.3433(14) 0.1387(7)
C1 C 0.6434(15) 0.5206(17) 0.1602(7)
C2 C 0.7009(18) 0.7236(19) 0.0906(9)
C3 C 0.3961(14) 0.4385(17) 0.1415(7)
H1 H 0.65771 0.56338 0.23663
H2 H 0.9546 0.39427 0.15
H3 H 0.78495 0.22974 0.18306
H4 H 0.79867 0.29855 0.07015
H5 H 0.59047 0.83886 0.10486
H6 H 0.8535 0.77536 0.10822
H7 H 0.69482 0.68388 0.0152
loop_
_geom_bond_atom_site_label_1
_geom_bond_atom_site_label_2
_geom_bond_site_symmetry_1
_geom_bond_site_symmetry_2
O1 C3 1_555 1_555
O2 C3 1_555 1_555
N1 C1 1_555 1_555
C1 C2 1_555 1_555
C2 H5 1_555 1_555
C3 C1 1_555 1_555
H1 C1 1_555 1_555
H2 N1 1_555 1_555
H3 N1 1_555 1_555
H4 N1 1_555 1_555
H6 C2 1_555 1_555
H7 C2 1_555 1_555

#END
