
#######################################################################
#
#                 Cambridge Crystallographic Data Centre
#                                CCDC 
#
#######################################################################
#
# If this CIF has been generated from an entry in the Cambridge 
# Structural Database, then it will include bibliographic, chemical, 
# crystal, experimental, refinement or atomic coordinate data resulting 
# from the CCDC's data processing and validation procedures.
#
#######################################################################

data_LALNIN22
_chemical_formula_moiety         'C3 H7 N1 O2'
_chemical_name_systematic        L-Alanine
_symmetry_cell_setting           orthorhombic
_symmetry_space_group_name_H-M   'P 21 21 21'
_symmetry_Int_Tables_number      19
_space_group_name_Hall           'P 2ac 2ab'
loop_
_symmetry_equiv_pos_site_id
_symmetry_equiv_pos_as_xyz
1 x,y,z
2 1/2+x,1/2-y,-z
3 -x,1/2+y,1/2-z
4 1/2-x,-y,1/2+z
_cell_length_a                   6.036(3)
_cell_length_b                   12.342(5)
_cell_length_c                   5.788(3)
_cell_angle_alpha                90
_cell_angle_beta                 90
_cell_angle_gamma                90
_cell_volume                     431.185
_exptl_crystal_colour            colorless
_exptl_crystal_description       'irregular prism'
_cell_formula_units_Z            4
_exptl_crystal_recrystallization_method water
loop_
_atom_site_label
_atom_site_type_symbol
_atom_site_fract_x
_atom_site_fract_y
_atom_site_fract_z
H1 H -0.5614(12) 0.2473(3) -0.6618(8)
H2 H -0.2129(14) 0.1916(5) -0.7878(9)
H3 H -0.4064(11) 0.1499(4) -0.9831(7)
O1 O -0.5493(6) 0.1852(2) -0.2386(4)
N1 N -0.3455(3) 0.13811(11) -0.8143(2)
C1 C -0.5236(4) 0.16133(13) -0.6446(3)
C2 C -0.4394(4) 0.14156(12) -0.3985(3)
H4 H -0.7904(15) 0.1096(8) -0.8684(11)
H5 H -0.856(2) 0.1045(10) -0.5687(16)
C3 C -0.7260(6) 0.0917(2) -0.6977(4)
H6 H -0.2907(13) 0.0591(4) -0.8013(10)
O2 O -0.2720(6) 0.0849(2) -0.3710(4)
H7 H -0.684(2) 0.0062(5) -0.6949(15)
loop_
_geom_bond_atom_site_label_1
_geom_bond_atom_site_label_2
_geom_bond_site_symmetry_1
_geom_bond_site_symmetry_2
H1 C1 1_555 1_555
H2 N1 1_555 1_555
H3 N1 1_555 1_555
O1 C2 1_555 1_555
N1 C1 1_555 1_555
C1 C2 1_555 1_555
C2 O2 1_555 1_555
H4 C3 1_555 1_555
H5 C3 1_555 1_555
C3 C1 1_555 1_555
H6 N1 1_555 1_555
H7 C3 1_555 1_555

#END
