
#######################################################################
#
#                 Cambridge Crystallographic Data Centre
#                                CCDC 
#
#######################################################################
#
# If this CIF has been generated from an entry in the Cambridge 
# Structural Database, then it will include bibliographic, chemical, 
# crystal, experimental, refinement or atomic coordinate data resulting 
# from the CCDC's data processing and validation procedures.
#
#######################################################################

data_LAMLOB
_chemical_formula_moiety         'C39 H36 N4 O3'
_chemical_name_systematic        
tris(N'-(2-Oxynaphthalidene)-2-aminoethyl)amine
_symmetry_cell_setting           monoclinic
_symmetry_space_group_name_H-M   'P 21/c'
_symmetry_Int_Tables_number      14
_space_group_name_Hall           '-P 2ybc'
loop_
_symmetry_equiv_pos_site_id
_symmetry_equiv_pos_as_xyz
1 x,y,z
2 -x,1/2+y,1/2-z
3 -x,-y,-z
4 x,1/2-y,1/2+z
_cell_length_a                   6.0158(5)
_cell_length_b                   16.3851(15)
_cell_length_c                   31.665(3)
_cell_angle_alpha                90
_cell_angle_beta                 90.867(2)
_cell_angle_gamma                90
_cell_volume                     3120.85
_exptl_crystal_colour            yellow
_exptl_crystal_description       plate
_chemical_melting_point          '201-202 deg.C'
_cell_formula_units_Z            4
_exptl_crystal_recrystallization_method acetonitrile
loop_
_atom_site_label
_atom_site_type_symbol
_atom_site_fract_x
_atom_site_fract_y
_atom_site_fract_z
O1 O 0.4339(4) 0.47478(14) 0.56862(8)
H1 H 0.5496 0.4645 0.5563
O2 O 0.3037(4) 0.19517(16) 0.53092(8)
H2 H 0.1915 0.2218 0.5357
O3 O 0.0891(4) 0.27618(13) 0.33204(7)
H3 H 0.2070 0.2774 0.3454
N1 N 0.7643(4) 0.30109(14) 0.46502(7)
N2 N 0.7770(4) 0.39338(15) 0.54606(8)
N3 N 0.6483(5) 0.14537(15) 0.49583(8)
N4 N 0.4481(5) 0.33566(16) 0.36320(8)
C1 C 0.8903(5) 0.37590(18) 0.47277(9)
H4 H 0.7984 0.4227 0.4656
H5 H 1.0193 0.3768 0.4548
C2 C 0.9658(5) 0.38229(19) 0.51869(10)
H6 H 1.0451 0.3330 0.5268
H7 H 1.0667 0.4281 0.5220
C3 C 0.9119(5) 0.23188(18) 0.45828(10)
H8 H 1.0280 0.2322 0.4799
H9 H 0.9823 0.2379 0.4311
C4 C 0.7932(6) 0.15140(19) 0.45947(11)
H10 H 0.7052 0.1448 0.4338
H11 H 0.9017 0.1076 0.4606
C5 C 0.5800(5) 0.3111(2) 0.43458(10)
H12 H 0.4874 0.3559 0.4438
H13 H 0.4899 0.2620 0.4348
C6 C 0.6487(5) 0.3273(2) 0.39028(10)
H14 H 0.7360 0.3770 0.3892
H15 H 0.7396 0.2826 0.3802
C7 C 0.3952(5) 0.41860(19) 0.59549(10)
C8 C 0.2004(6) 0.4247(2) 0.62032(11)
H16 H 0.1053 0.4689 0.6165
C9 C 0.1518(5) 0.3678(2) 0.64906(11)
H17 H 0.0221 0.3736 0.6644
C10 C 0.2908(5) 0.29858(19) 0.65724(9)
C11 C 0.2414(6) 0.2407(2) 0.68825(11)
H18 H 0.1115 0.2465 0.7035
C12 C 0.3772(6) 0.1764(2) 0.69670(11)
H19 H 0.3424 0.1389 0.7176
C13 C 0.5681(6) 0.1680(2) 0.67355(11)
H20 H 0.6616 0.1239 0.6789
C14 C 0.6232(5) 0.22296(19) 0.64298(10)
H21 H 0.7541 0.2158 0.6282
C15 C 0.4859(5) 0.28991(18) 0.63347(9)
C16 C 0.5372(5) 0.34978(17) 0.60128(9)
C17 C 0.7215(5) 0.34072(18) 0.57462(9)
H22 H 0.8085 0.2941 0.5777
C18 C 0.3155(6) 0.1351(2) 0.55650(11)
C19 C 0.1480(6) 0.1218(3) 0.58719(14)
H23 H 0.0252 0.1563 0.5874
C20 C 0.1612(6) 0.0623(3) 0.61535(13)
H24 H 0.0481 0.0570 0.6349
C21 C 0.3404(6) 0.0062(2) 0.61699(10)
C22 C 0.3554(7) -0.0549(2) 0.64747(11)
H25 H 0.2432 -0.0593 0.6672
C23 C 0.5266(8) -0.1078(2) 0.64939(12)
H26 H 0.5328 -0.1477 0.6702
C24 C 0.6932(7) -0.1019(2) 0.61991(12)
H27 H 0.8117 -0.1383 0.6208
C25 C 0.6843(6) -0.0429(2) 0.58958(11)
H28 H 0.7987 -0.0399 0.5702
C26 C 0.5089(5) 0.01353(18) 0.58646(9)
C27 C 0.4939(5) 0.07824(17) 0.55524(9)
C28 C 0.6498(5) 0.08561(18) 0.52273(10)
H29 H 0.7590 0.0457 0.5204
C29 C 0.0618(5) 0.34393(19) 0.31223(9)
C30 C -0.1349(5) 0.3550(2) 0.28680(11)
H30 H -0.2391 0.3132 0.2850
C31 C -0.1713(5) 0.4242(2) 0.26559(10)
H31 H -0.3021 0.4294 0.2498
C32 C -0.0190(5) 0.49017(19) 0.26614(9)
C33 C -0.0579(6) 0.5609(2) 0.24180(9)
H32 H -0.1875 0.5647 0.2255
C34 C 0.0894(6) 0.6234(2) 0.24161(10)
H33 H 0.0600 0.6701 0.2258
C35 C 0.2849(6) 0.6172(2) 0.26534(10)
H34 H 0.3878 0.6595 0.2649
C36 C 0.3279(5) 0.54929(19) 0.28949(10)
H35 H 0.4585 0.5470 0.3055
C37 C 0.1799(5) 0.48330(17) 0.29057(8)
C38 C 0.2159(5) 0.40971(17) 0.31504(9)
C39 C 0.4028(5) 0.40134(19) 0.34192(10)
H36 H 0.4993 0.4454 0.3446
loop_
_geom_bond_atom_site_label_1
_geom_bond_atom_site_label_2
_geom_bond_site_symmetry_1
_geom_bond_site_symmetry_2
O1 H1 1_555 1_555
O2 H2 1_555 1_555
O3 H3 1_555 1_555
N1 C1 1_555 1_555
N2 C2 1_555 1_555
N3 C4 1_555 1_555
N4 C6 1_555 1_555
C1 H4 1_555 1_555
H5 C1 1_555 1_555
C2 C1 1_555 1_555
H6 C2 1_555 1_555
H7 C2 1_555 1_555
C3 N1 1_555 1_555
H8 C3 1_555 1_555
H9 C3 1_555 1_555
C4 C3 1_555 1_555
H10 C4 1_555 1_555
H11 C4 1_555 1_555
C5 N1 1_555 1_555
H12 C5 1_555 1_555
H13 C5 1_555 1_555
C6 C5 1_555 1_555
H14 C6 1_555 1_555
H15 C6 1_555 1_555
C7 O1 1_555 1_555
C8 C7 1_555 1_555
H16 C8 1_555 1_555
C9 C8 1_555 1_555
H17 C9 1_555 1_555
C10 C9 1_555 1_555
C11 C10 1_555 1_555
H18 C11 1_555 1_555
C12 C11 1_555 1_555
H19 C12 1_555 1_555
C13 C12 1_555 1_555
H20 C13 1_555 1_555
C14 C13 1_555 1_555
H21 C14 1_555 1_555
C15 C10 1_555 1_555
C16 C7 1_555 1_555
C17 N2 1_555 1_555
H22 C17 1_555 1_555
C18 O2 1_555 1_555
C19 C18 1_555 1_555
H23 C19 1_555 1_555
C20 C19 1_555 1_555
H24 C20 1_555 1_555
C21 C20 1_555 1_555
C22 C21 1_555 1_555
H25 C22 1_555 1_555
C23 C22 1_555 1_555
H26 C23 1_555 1_555
C24 C23 1_555 1_555
H27 C24 1_555 1_555
C25 C24 1_555 1_555
H28 C25 1_555 1_555
C26 C21 1_555 1_555
C27 C18 1_555 1_555
C28 N3 1_555 1_555
H29 C28 1_555 1_555
C29 O3 1_555 1_555
C30 C29 1_555 1_555
H30 C30 1_555 1_555
C31 C30 1_555 1_555
H31 C31 1_555 1_555
C32 C31 1_555 1_555
C33 C32 1_555 1_555
H32 C33 1_555 1_555
C34 C33 1_555 1_555
H33 C34 1_555 1_555
C35 C34 1_555 1_555
H34 C35 1_555 1_555
C36 C35 1_555 1_555
H35 C36 1_555 1_555
C37 C32 1_555 1_555
C38 C29 1_555 1_555
C39 N4 1_555 1_555
H36 C39 1_555 1_555
C14 C15 1_555 1_555
C15 C16 1_555 1_555
C16 C17 1_555 1_555
C25 C26 1_555 1_555
C26 C27 1_555 1_555
C27 C28 1_555 1_555
C36 C37 1_555 1_555
C37 C38 1_555 1_555
C38 C39 1_555 1_555

#END
