
#######################################################################
#
#                 Cambridge Crystallographic Data Centre
#                                CCDC 
#
#######################################################################
#
# If this CIF has been generated from an entry in the Cambridge 
# Structural Database, then it will include bibliographic, chemical, 
# crystal, experimental, refinement or atomic coordinate data resulting 
# from the CCDC's data processing and validation procedures.
#
#######################################################################

data_LAMNET
_chemical_formula_moiety         'C23 H24 N6 O1'
_chemical_name_systematic        
3-Benzyl-5-(cyclohexylamino)-6-phenyl-3,6-dihydro-1,2,3-triazolo(4,5-d)pyrimidin-7-one
_symmetry_cell_setting           monoclinic
_symmetry_space_group_name_H-M   'P 21/n'
_symmetry_Int_Tables_number      14
_space_group_name_Hall           '-P 2yn'
loop_
_symmetry_equiv_pos_site_id
_symmetry_equiv_pos_as_xyz
1 x,y,z
2 1/2-x,1/2+y,1/2-z
3 -x,-y,-z
4 1/2+x,1/2-y,1/2+z
_cell_length_a                   6.5550(6)
_cell_length_b                   10.3711(10)
_cell_length_c                   31.265(3)
_cell_angle_alpha                90
_cell_angle_beta                 93.827(2)
_cell_angle_gamma                90
_cell_volume                     2120.74
_exptl_crystal_colour            colorless
_chemical_melting_point          '191-192 deg.C'
_cell_formula_units_Z            4
_exptl_crystal_recrystallization_method ethanol
loop_
_atom_site_label
_atom_site_type_symbol
_atom_site_fract_x
_atom_site_fract_y
_atom_site_fract_z
C1 C 0.4201(3) 0.56436(18) 0.26370(6)
H1 H 0.4785 0.5078 0.2449
C2 C 0.5250(3) 0.5994(2) 0.30159(7)
H2 H 0.6566 0.5685 0.3081
C3 C 0.4358(3) 0.67982(19) 0.32985(6)
H3 H 0.5057 0.7012 0.3557
C4 C 0.2435(3) 0.7288(2) 0.31996(6)
H4 H 0.1839 0.7835 0.3391
C5 C 0.1388(3) 0.69709(17) 0.28174(6)
H5 H 0.0097 0.7312 0.2748
C6 C 0.2277(3) 0.61417(17) 0.25396(5)
C7 C -0.0486(3) 0.49113(18) 0.21633(6)
C8 C -0.1470(3) 0.46900(18) 0.17509(6)
C9 C -0.0647(3) 0.51884(17) 0.13955(6)
C10 C 0.1801(3) 0.62943(17) 0.17543(6)
C11 C -0.1640(3) 0.4881(2) 0.06051(6)
H6 H -0.1004 0.5706 0.0552
H7 H -0.2984 0.4879 0.0455
C12 C -0.0375(3) 0.3824(2) 0.04278(6)
C13 C -0.1197(4) 0.2965(3) 0.01251(7)
H8 H -0.2557 0.3043 0.0023
C14 C 0.0017(5) 0.1982(3) -0.00273(8)
H9 H -0.0534 0.1401 -0.0230
C15 C 0.2010(5) 0.1876(3) 0.01224(9)
H10 H 0.2820 0.1225 0.0019
C16 C 0.2821(4) 0.2710(3) 0.04198(8)
H11 H 0.4177 0.2623 0.0523
C17 C 0.1648(4) 0.3684(2) 0.05687(7)
H12 H 0.2229 0.4262 0.0769
C18 C 0.4159(4) 0.7750(2) 0.14073(6)
H13 H 0.420(7) 0.709(4) 0.1185(14)
C19 C 0.6246(8) 0.9749(5) 0.09675(11)
H14 H 0.6842 0.9985 0.0703
H15 H 0.6297 1.0503 0.1151
C20 C 0.3018(5) 0.8735(4) 0.12394(12)
H16 H 0.2856 0.9375 0.1461
H17 H 0.1669 0.8414 0.1148
C21 C 0.3941(7) 0.9379(5) 0.08611(15)
H18 H 0.3168 1.0151 0.0783
H19 H 0.3843 0.8798 0.0617
C22 C 0.7392(5) 0.8827(4) 0.11586(13)
H20 H 0.8693 0.9203 0.1259
H21 H 0.7668 0.8181 0.0946
C23 C 0.6479(4) 0.8151(3) 0.15384(9)
H22 H 0.6522 0.8725 0.1784
H23 H 0.7274 0.7388 0.1617
N1 N 0.1179(2) 0.57963(14) 0.21387(4)
N2 N -0.3145(2) 0.39624(17) 0.16288(6)
N3 N -0.3392(3) 0.39906(18) 0.12137(6)
N4 N -0.1863(2) 0.47440(16) 0.10626(5)
N5 N 0.0971(2) 0.59824(14) 0.13725(4)
N6 N 0.3345(3) 0.71410(16) 0.17822(5)
H32 H 0.3884 0.7336 0.2032
O1 O -0.0874(2) 0.44536(15) 0.25046(4)
C24? C 0.4212(12) 0.9335(6) 0.1500(2)
H24? H 0.2843 0.9640 0.1544
H25? H 0.5073 0.9515 0.1757
C25? C 0.5037(17) 1.0029(7) 0.1123(3)
H26? H 0.3906 1.0091 0.0907
H27? H 0.5331 1.0903 0.1219
C26? C 0.623(2) 0.7960(8) 0.0831(3)
H28? H 0.5272 0.7783 0.0589
H29? H 0.7583 0.7679 0.0761
C27? C 0.5594(18) 0.7282(9) 0.1228(4)
H30? H 0.5241 0.6400 0.1151
H31? H 0.6768 0.7249 0.1433
H33? H 0.463(7) 0.729(5) 0.119(2)
H34? H 0.669(6) 0.845(5) 0.0903(16)
H35? H 0.655(9) 1.029(6) 0.074(2)
loop_
_geom_bond_atom_site_label_1
_geom_bond_atom_site_label_2
_geom_bond_site_symmetry_1
_geom_bond_site_symmetry_2
C1 H1 1_555 1_555
C2 C1 1_555 1_555
H2 C2 1_555 1_555
C3 C2 1_555 1_555
H3 C3 1_555 1_555
C4 C3 1_555 1_555
H4 C4 1_555 1_555
C5 C4 1_555 1_555
H5 C5 1_555 1_555
C6 C1 1_555 1_555
C7 C8 1_555 1_555
C8 C9 1_555 1_555
C9 N4 1_555 1_555
C10 N1 1_555 1_555
C11 H6 1_555 1_555
H7 C11 1_555 1_555
C12 C11 1_555 1_555
C13 C12 1_555 1_555
H8 C13 1_555 1_555
C14 C13 1_555 1_555
H9 C14 1_555 1_555
C15 C14 1_555 1_555
H10 C15 1_555 1_555
C16 C15 1_555 1_555
H11 C16 1_555 1_555
C17 C12 1_555 1_555
H12 C17 1_555 1_555
C18 H13 1_555 1_555
C19 H14 1_555 1_555
H15 C19 1_555 1_555
C20 C18 1_555 1_555
H16 C20 1_555 1_555
H17 C20 1_555 1_555
C21 C19 1_555 1_555
H18 C21 1_555 1_555
H19 C21 1_555 1_555
C22 C19 1_555 1_555
H20 C22 1_555 1_555
H21 C22 1_555 1_555
C23 C18 1_555 1_555
H22 C23 1_555 1_555
H23 C23 1_555 1_555
N1 C6 1_555 1_555
N2 C8 1_555 1_555
N3 N2 1_555 1_555
N4 C11 1_555 1_555
N5 C9 1_555 1_555
N6 C10 1_555 1_555
H32 N6 1_555 1_555
O1 C7 1_555 1_555
C5 C6 1_555 1_555
C7 N1 1_555 1_555
C10 N5 1_555 1_555
C16 C17 1_555 1_555
C18 N6 1_555 1_555
C20 C21 1_555 1_555
C22 C23 1_555 1_555
N3 N4 1_555 1_555

#END
