
#######################################################################
#
#                 Cambridge Crystallographic Data Centre
#                                CCDC 
#
#######################################################################
#
# If this CIF has been generated from an entry in the Cambridge 
# Structural Database, then it will include bibliographic, chemical, 
# crystal, experimental, refinement or atomic coordinate data resulting 
# from the CCDC's data processing and validation procedures.
#
#######################################################################

data_LAMNIX
_chemical_name_common            
"5,11,17,23-Tetramethyl-C-isobutyl-6,10:12,16:18,22:24,4-O,O'-tetramethylenecalix(4)resorcinarene acetonitrile clathrate hydrate"
_chemical_formula_moiety         'C52 H64 O9,C2 H3 N1,0.4(H2 O1)'
_chemical_name_systematic        
'6,10:12,16:18,22:24,4-tetrakis(Epoxymethanoepoxy)-5,11,17,23-tetramethyl-2,8,14,20-tetrakis(2-methylpropyl)calix(4)arene acetonitrile clathrate hydrate'
_symmetry_cell_setting           orthorhombic
_symmetry_space_group_name_H-M   'P n m a'
_symmetry_Int_Tables_number      62
_space_group_name_Hall           '-P 2ac 2n'
loop_
_symmetry_equiv_pos_site_id
_symmetry_equiv_pos_as_xyz
1 x,y,z
2 1/2-x,-y,1/2+z
3 -x,1/2+y,-z
4 1/2+x,1/2-y,1/2-z
5 -x,-y,-z
6 1/2+x,y,1/2-z
7 x,1/2-y,z
8 1/2-x,1/2+y,1/2+z
_cell_length_a                   19.5060(16)
_cell_length_b                   19.8136(15)
_cell_length_c                   12.9508(10)
_cell_angle_alpha                90
_cell_angle_beta                 90
_cell_angle_gamma                90
_cell_volume                     5005.28
_exptl_crystal_colour            'light yellow'
_exptl_crystal_description       block
_cell_formula_units_Z            4
_exptl_crystal_recrystallization_method acetonitrile/dichloromethane
loop_
_atom_site_label
_atom_site_type_symbol
_atom_site_fract_x
_atom_site_fract_y
_atom_site_fract_z
O1 O 0.15590(16) 0.45348(13) -0.1556(2)
O2 O 0.23393(16) 0.45295(14) 0.1933(2)
O3 O 0.26056(17) 0.37020(14) 0.3193(2)
O4 O 0.12679(18) 0.37043(14) -0.2791(2)
O5 O 0.3939(2) 0.2500 0.2677(5)
H1 H 0.4296 0.2500 0.3010
C1 C 0.1468(2) 0.43226(19) -0.0539(3)
C2 C 0.1976(2) 0.4491(2) 0.0167(4)
C3 C 0.1859(2) 0.43164(19) 0.1200(3)
C4 C 0.1266(2) 0.39836(19) 0.1524(3)
C5 C 0.0780(2) 0.38262(19) 0.0775(3)
H2 H 0.0386 0.3597 0.0976
C6 C 0.0858(2) 0.39958(19) -0.0257(3)
C7 C 0.1215(3) 0.2500 0.2702(4)
H3 H 0.0752 0.2500 0.2533
C8 C 0.1543(2) 0.31169(19) 0.2821(3)
C9 C 0.2243(3) 0.3099(2) 0.3045(3)
C10 C 0.2611(3) 0.2500 0.3157(5)
C11 C 0.0369(3) 0.2500 -0.1142(4)
H4 H 0.0072 0.2500 -0.0580
C12 C 0.0579(2) 0.31174(19) -0.1538(3)
C13 C 0.1039(2) 0.31020(19) -0.2358(3)
C14 C 0.1265(3) 0.2500 -0.2804(5)
C15 C 0.1793(3) 0.4045(2) -0.2264(4)
H5 H 0.2088 0.4263 -0.2766
H6 H 0.2068 0.3716 -0.1894
C16 C 0.2815(3) 0.4042(2) 0.2295(4)
H7 H 0.2892 0.3712 0.1754
H8 H 0.3249 0.4264 0.2432
C17 C 0.1175(2) 0.3788(2) 0.2642(3)
H9 H 0.142(2) 0.413(2) 0.305(3)
C18 C 0.0438(2) 0.3793(2) 0.3013(3)
H10 H 0.0187 0.3449 0.2637
H11 H 0.0237 0.4225 0.2836
C19 C 0.0333(3) 0.3673(3) 0.4166(4)
H12 H 0.053(3) 0.323(3) 0.434(5)
C20 C 0.0693(4) 0.4198(4) 0.4818(4)
H13 H 0.1175 0.4192 0.4669
H14 H 0.0622 0.4099 0.5536
H15 H 0.0510 0.4637 0.4663
C21 C -0.0428(4) 0.3650(5) 0.4415(6)
H16 H -0.0639 0.4066 0.4205
H17 H -0.0489 0.3589 0.5144
H18 H -0.0637 0.3281 0.4052
C22 C 0.0355(2) 0.3785(2) -0.1077(4)
H19 H 0.040(2) 0.412(2) -0.163(3)
C23 C -0.0388(3) 0.3805(2) -0.0746(4)
H20 H -0.0484 0.4248 -0.0460
H21 H -0.0455 0.3477 -0.0199
C24 C -0.0908(3) 0.3661(3) -0.1603(5)
H22 H -0.081(3) 0.321(3) -0.189(4)
C25 C -0.1621(3) 0.3652(4) -0.1148(6)
H23 H -0.1641 0.3326 -0.0601
H24 H -0.1946 0.3534 -0.1675
H25 H -0.1730 0.4091 -0.0880
C26 C -0.0880(4) 0.4168(3) -0.2482(5)
H26 H -0.1235 0.4068 -0.2972
H27 H -0.0442 0.4142 -0.2816
H28 H -0.0947 0.4615 -0.2213
C27 C 0.1734(4) 0.2500 -0.3730(5)
C28 C 0.2621(3) 0.4854(3) -0.0161(4)
H32 H 0.2757 0.5163 0.0371
H33 H 0.2536 0.5098 -0.0788
H34 H 0.2980 0.4531 -0.0274
C29 C 0.3368(4) 0.2500 0.3366(8)
H35 H 0.3442 0.2890 0.3805
H36 H 0.3442 0.2110 0.3805
O1F O 0.15590(16) 0.04652(13) -0.1556(2)
O2F O 0.23393(16) 0.04705(14) 0.1933(2)
O3F O 0.26056(17) 0.12980(14) 0.3193(2)
O4F O 0.12679(18) 0.12957(14) -0.2791(2)
C1F C 0.1468(2) 0.06774(19) -0.0539(3)
C2F C 0.1976(2) 0.0509(2) 0.0167(4)
C3F C 0.1859(2) 0.06836(19) 0.1200(3)
C4F C 0.1266(2) 0.10164(19) 0.1524(3)
C5F C 0.0780(2) 0.11738(19) 0.0775(3)
H2F H 0.0386 0.1403 0.0976
C6F C 0.0858(2) 0.10042(19) -0.0257(3)
C8F C 0.1543(2) 0.18831(19) 0.2821(3)
C9F C 0.2243(3) 0.1901(2) 0.3045(3)
C12F C 0.0579(2) 0.18826(19) -0.1538(3)
C13F C 0.1039(2) 0.18980(19) -0.2358(3)
C15F C 0.1793(3) 0.0955(2) -0.2264(4)
H5F H 0.2088 0.0737 -0.2766
H6F H 0.2068 0.1284 -0.1894
C16F C 0.2815(3) 0.0958(2) 0.2295(4)
H7F H 0.2892 0.1288 0.1754
H8F H 0.3249 0.0736 0.2432
C17F C 0.1175(2) 0.1212(2) 0.2642(3)
H9F H 0.142(2) 0.087(2) 0.305(3)
C18F C 0.0438(2) 0.1207(2) 0.3013(3)
H10F H 0.0187 0.1551 0.2637
H11F H 0.0237 0.0775 0.2836
C19F C 0.0333(3) 0.1327(3) 0.4166(4)
H12F H 0.053(3) 0.177(3) 0.434(5)
C20F C 0.0693(4) 0.0802(4) 0.4818(4)
H13F H 0.1175 0.0808 0.4669
H14F H 0.0622 0.0901 0.5536
H15F H 0.0510 0.0363 0.4663
C21F C -0.0428(4) 0.1350(5) 0.4415(6)
H16F H -0.0639 0.0934 0.4205
H17F H -0.0489 0.1411 0.5144
H18F H -0.0637 0.1719 0.4052
C22F C 0.0355(2) 0.1215(2) -0.1077(4)
H19F H 0.040(2) 0.088(2) -0.163(3)
C23F C -0.0388(3) 0.1195(2) -0.0746(4)
H20F H -0.0484 0.0752 -0.0460
H21F H -0.0455 0.1523 -0.0199
C24F C -0.0908(3) 0.1339(3) -0.1603(5)
H22F H -0.081(3) 0.179(3) -0.189(4)
C25F C -0.1621(3) 0.1348(4) -0.1148(6)
H23F H -0.1641 0.1674 -0.0601
H24F H -0.1946 0.1466 -0.1675
H25F H -0.1730 0.0909 -0.0880
C26F C -0.0880(4) 0.0832(3) -0.2482(5)
H26F H -0.1235 0.0932 -0.2972
H27F H -0.0442 0.0858 -0.2816
H28F H -0.0947 0.0385 -0.2213
C28F C 0.2621(3) 0.0146(3) -0.0161(4)
H32F H 0.2757 -0.0163 0.0371
H33F H 0.2536 -0.0098 -0.0788
H34F H 0.2980 0.0469 -0.0274
N1 N 0.2570(10) 0.2500 1.0648(13)
C30 C 0.3288(8) 0.2500 0.8780(12)
C32 C 0.302(4) 0.2500 0.994(5)
O6 O 0.512(4) 0.750(4) 0.122(4)
O7 O 0.924(4) 0.087(4) 0.146(6)
H29? H 0.2169 0.2691 -0.3541
H30? H 0.1533 0.2764 -0.4273
H31? H 0.1800 0.2045 -0.3966
N2? N 0.2124(4) 0.2500 1.0128(7)
C31? C 0.3058(8) 0.2500 0.8566(12)
C33? C 0.236(4) 0.2500 0.946(6)
loop_
_geom_bond_atom_site_label_1
_geom_bond_atom_site_label_2
_geom_bond_site_symmetry_1
_geom_bond_site_symmetry_2
O1 C1 1_555 1_555
O2 C3 1_555 1_555
O3 C9 1_555 1_555
O4 C13 1_555 1_555
O5 H1 1_555 1_555
C1 C2 1_555 1_555
C2 C3 1_555 1_555
C3 C4 1_555 1_555
C4 C5 1_555 1_555
C5 H2 1_555 1_555
C6 C1 1_555 1_555
C7 H3 1_555 1_555
C8 C7 1_555 1_555
C9 C8 1_555 1_555
C10 C9 1_555 1_555
C11 H4 1_555 1_555
C12 C11 1_555 1_555
C13 C12 1_555 1_555
C14 C13 1_555 1_555
C15 O1 1_555 1_555
H5 C15 1_555 1_555
H6 C15 1_555 1_555
C16 O2 1_555 1_555
H7 C16 1_555 1_555
H8 C16 1_555 1_555
C17 C4 1_555 1_555
H9 C17 1_555 1_555
C18 C17 1_555 1_555
H10 C18 1_555 1_555
H11 C18 1_555 1_555
C19 C18 1_555 1_555
H12 C19 1_555 1_555
C20 C19 1_555 1_555
H13 C20 1_555 1_555
H14 C20 1_555 1_555
H15 C20 1_555 1_555
C21 C19 1_555 1_555
H16 C21 1_555 1_555
H17 C21 1_555 1_555
H18 C21 1_555 1_555
C22 C6 1_555 1_555
H19 C22 1_555 1_555
C23 C22 1_555 1_555
H20 C23 1_555 1_555
H21 C23 1_555 1_555
C24 C23 1_555 1_555
H22 C24 1_555 1_555
C25 C24 1_555 1_555
H23 C25 1_555 1_555
H24 C25 1_555 1_555
H25 C25 1_555 1_555
C26 C24 1_555 1_555
H26 C26 1_555 1_555
H27 C26 1_555 1_555
H28 C26 1_555 1_555
C27 C14 1_555 1_555
C28 C2 1_555 1_555
H32 C28 1_555 1_555
H33 C28 1_555 1_555
H34 C28 1_555 1_555
C29 O5 1_555 1_555
H35 C29 1_555 1_555
H36 C29 1_555 1_555
N1 C32 1_555 1_555
C30 C32 1_555 1_555
O1F C1F 1_555 1_555
O2F C3F 1_555 1_555
O3F C9F 1_555 1_555
O4F C13F 1_555 1_555
C1F C2F 1_555 1_555
C2F C3F 1_555 1_555
C3F C4F 1_555 1_555
C4F C5F 1_555 1_555
C5F H2F 1_555 1_555
C6F C1F 1_555 1_555
C8F C7 1_555 1_555
C9F C10 1_555 1_555
C12F C11 1_555 1_555
C13F C14 1_555 1_555
C15F O1F 1_555 1_555
H5F C15F 1_555 1_555
H6F C15F 1_555 1_555
C16F O2F 1_555 1_555
H7F C16F 1_555 1_555
H8F C16F 1_555 1_555
C17F C4F 1_555 1_555
H9F C17F 1_555 1_555
C18F C17F 1_555 1_555
H10F C18F 1_555 1_555
H11F C18F 1_555 1_555
C19F C18F 1_555 1_555
H12F C19F 1_555 1_555
C20F C19F 1_555 1_555
H13F C20F 1_555 1_555
H14F C20F 1_555 1_555
H15F C20F 1_555 1_555
C21F C19F 1_555 1_555
H16F C21F 1_555 1_555
H17F C21F 1_555 1_555
H18F C21F 1_555 1_555
C22F C6F 1_555 1_555
H19F C22F 1_555 1_555
C23F C22F 1_555 1_555
H20F C23F 1_555 1_555
H21F C23F 1_555 1_555
C24F C23F 1_555 1_555
H22F C24F 1_555 1_555
C25F C24F 1_555 1_555
H23F C25F 1_555 1_555
H24F C25F 1_555 1_555
H25F C25F 1_555 1_555
C26F C24F 1_555 1_555
H26F C26F 1_555 1_555
H27F C26F 1_555 1_555
H28F C26F 1_555 1_555
C28F C2F 1_555 1_555
H32F C28F 1_555 1_555
H33F C28F 1_555 1_555
H34F C28F 1_555 1_555
O3 C16 1_555 1_555
O4 C15 1_555 1_555
C5 C6 1_555 1_555
C8 C17 1_555 1_555
C10 C29 1_555 1_555
C12 C22 1_555 1_555
O3F C16F 1_555 1_555
O4F C15F 1_555 1_555
C5F C6F 1_555 1_555
C8F C9F 1_555 1_555
C8F C17F 1_555 1_555
C12F C13F 1_555 1_555
C12F C22F 1_555 1_555

#END
