
#######################################################################
#
#                 Cambridge Crystallographic Data Centre
#                                CCDC 
#
#######################################################################
#
# If this CIF has been generated from an entry in the Cambridge 
# Structural Database, then it will include bibliographic, chemical, 
# crystal, experimental, refinement or atomic coordinate data resulting 
# from the CCDC's data processing and validation procedures.
#
#######################################################################

data_LANHOX
_chemical_formula_moiety         'C24 H34 N2 O6 S2'
_chemical_name_systematic        
N,N'-bis(2-Mesitylsulfonyl)-1,7-dioxa-2,6-diazacyclodecane
_symmetry_cell_setting           monoclinic
_symmetry_space_group_name_H-M   'P 21/n'
_symmetry_Int_Tables_number      14
_space_group_name_Hall           '-P 2yn'
loop_
_symmetry_equiv_pos_site_id
_symmetry_equiv_pos_as_xyz
1 x,y,z
2 1/2+x,1/2-y,1/2+z
3 -x,-y,-z
4 1/2-x,1/2+y,1/2-z
_cell_length_a                   6.4161(12)
_cell_length_b                   26.751(6)
_cell_length_c                   14.5990(5)
_cell_angle_alpha                90
_cell_angle_beta                 92.95(3)
_cell_angle_gamma                90
_cell_volume                     2502.41
_exptl_crystal_colour            colorless
_exptl_crystal_description       needle
_chemical_melting_point          230deg.C
_cell_formula_units_Z            4
loop_
_atom_site_label
_atom_site_type_symbol
_atom_site_fract_x
_atom_site_fract_y
_atom_site_fract_z
S1 S 0.2154(2) 0.15952(4) 0.65338(8)
S2 S -0.4220(2) -0.04648(4) 0.70056(9)
O1 O 0.1239(6) 0.17682(12) 0.5678(2)
O2 O -0.4267(7) -0.05952(14) 0.6060(3)
O3 O 0.4307(5) 0.14504(12) 0.6554(2)
O4 O 0.1489(6) 0.09484(12) 0.7717(2)
O5 O -0.2501(6) 0.01648(13) 0.8062(2)
O6 O -0.6173(6) -0.03556(14) 0.7386(3)
C1 C 0.1195(9) 0.2788(2) 0.8727(3)
C2 C 0.2936(8) 0.2473(2) 0.8794(3)
H1 H 0.3942(8) 0.2519(2) 0.9288(3)
C3 C 0.3244(8) 0.2093(2) 0.8159(3)
C4 C -0.2810(8) -0.0912(2) 0.7694(3)
C5 C 0.1793(8) 0.2041(2) 0.7411(3)
C6 C -0.2157(9) -0.1368(2) 0.9089(4)
H2 H -0.2562(9) -0.1460(2) 0.9683(4)
N1 N -0.2542(7) 0.00218(14) 0.7107(3)
C7 C -0.3384(9) -0.1029(2) 0.8593(4)
C8 C -0.0038(8) 0.2349(2) 0.7335(3)
C9 C -0.0246(8) 0.2713(2) 0.8001(3)
H3 H -0.1441(8) 0.2923(2) 0.7956(3)
C10 C -0.0352(9) -0.1584(2) 0.8765(4)
N2 N 0.0590(7) 0.11221(14) 0.6848(3)
C11 C 0.0526(9) 0.0695(2) 0.6181(3)
H4 H 0.1127(9) 0.0394(2) 0.6488(3)
H5 H 0.1396(9) 0.0778(2) 0.5662(3)
C12 C 0.0163(8) -0.1453(2) 0.7882(3)
H6 H 0.1379(8) -0.1596(2) 0.7646(3)
C13 C 0.0866(10) 0.3186(2) 0.9440(4)
H7 H 0.2039(10) 0.3183(2) 0.9897(4)
H8 H -0.0434(10) 0.3119(2) 0.9743(4)
H9 H 0.0778(10) 0.3514(2) 0.9143(4)
C14 C -0.1655(9) 0.0581(2) 0.5819(3)
H10 H -0.1589(9) 0.0295(2) 0.5391(3)
H11 H -0.2175(9) 0.0873(2) 0.5457(3)
C15 C -0.0212(10) -0.1009(2) 0.6384(4)
H12 H -0.1166(10) -0.0774(2) 0.6065(4)
H13 H -0.0148(10) -0.1319(2) 0.6028(4)
H14 H 0.1184(10) -0.0861(2) 0.6452(4)
C16 C -0.3233(9) 0.0460(2) 0.6515(4)
H15 H -0.4589(9) 0.0380(2) 0.6194(4)
H16 H -0.3434(9) 0.0755(2) 0.6909(4)
C17 C -0.0997(8) -0.1124(2) 0.7329(3)
C18 C -0.5207(9) -0.0793(2) 0.9061(4)
H17 H -0.5942(9) -0.0562(2) 0.8636(4)
H18 H -0.4683(9) -0.0610(2) 0.9607(4)
H19 H -0.6169(9) -0.1056(2) 0.9242(4)
C19 C -0.0453(8) 0.0088(2) 0.8485(4)
H20 H 0.0566(8) 0.0028(2) 0.8010(4)
H21 H -0.0455(8) -0.0206(2) 0.8896(4)
C20 C 0.5123(9) 0.1759(2) 0.8358(4)
H22 H 0.5194(9) 0.1507(2) 0.7874(4)
H23 H 0.4992(9) 0.1593(2) 0.8951(4)
H24 H 0.6396(9) 0.1962(2) 0.8379(4)
C21 C 0.0148(9) 0.0559(2) 0.9036(3)
H25 H -0.0815(9) 0.0600(2) 0.9539(3)
H26 H 0.1578(9) 0.0520(2) 0.9314(3)
C22 C -0.1733(9) 0.2300(2) 0.6598(4)
H27 H -0.1386(9) 0.2031(2) 0.6179(4)
H28 H -0.1870(9) 0.2615(2) 0.6258(4)
H29 H -0.3055(9) 0.2224(2) 0.6876(4)
C23 C 0.0962(11) -0.1931(2) 0.9349(4)
H30 H 0.0334(11) -0.1975(2) 0.9941(4)
H31 H 0.2366(11) -0.1791(2) 0.9447(4)
H32 H 0.1047(11) -0.2256(2) 0.9041(4)
C24 C 0.0057(9) 0.1020(2) 0.8439(4)
H33 H -0.1378(9) 0.1070(2) 0.8173(4)
H34 H 0.0461(9) 0.1318(2) 0.8808(4)
loop_
_geom_bond_atom_site_label_1
_geom_bond_atom_site_label_2
_geom_bond_site_symmetry_1
_geom_bond_site_symmetry_2
S1 O1 1_555 1_555
S2 O2 1_555 1_555
O3 S1 1_555 1_555
O4 N2 1_555 1_555
O5 N1 1_555 1_555
O6 S2 1_555 1_555
C1 C2 1_555 1_555
C2 H1 1_555 1_555
C3 C2 1_555 1_555
C4 S2 1_555 1_555
C5 S1 1_555 1_555
C6 H2 1_555 1_555
N1 S2 1_555 1_555
C7 C4 1_555 1_555
C8 C5 1_555 1_555
C9 C1 1_555 1_555
H3 C9 1_555 1_555
C10 C6 1_555 1_555
N2 S1 1_555 1_555
C11 N2 1_555 1_555
H4 C11 1_555 1_555
H5 C11 1_555 1_555
C12 C10 1_555 1_555
H6 C12 1_555 1_555
C13 C1 1_555 1_555
H7 C13 1_555 1_555
H8 C13 1_555 1_555
H9 C13 1_555 1_555
C14 C11 1_555 1_555
H10 C14 1_555 1_555
H11 C14 1_555 1_555
C15 H12 1_555 1_555
H13 C15 1_555 1_555
H14 C15 1_555 1_555
C16 N1 1_555 1_555
H15 C16 1_555 1_555
H16 C16 1_555 1_555
C17 C4 1_555 1_555
C18 C7 1_555 1_555
H17 C18 1_555 1_555
H18 C18 1_555 1_555
H19 C18 1_555 1_555
C19 O5 1_555 1_555
H20 C19 1_555 1_555
H21 C19 1_555 1_555
C20 C3 1_555 1_555
H22 C20 1_555 1_555
H23 C20 1_555 1_555
H24 C20 1_555 1_555
C21 C19 1_555 1_555
H25 C21 1_555 1_555
H26 C21 1_555 1_555
C22 C8 1_555 1_555
H27 C22 1_555 1_555
H28 C22 1_555 1_555
H29 C22 1_555 1_555
C23 C10 1_555 1_555
H30 C23 1_555 1_555
H31 C23 1_555 1_555
H32 C23 1_555 1_555
C24 O4 1_555 1_555
H33 C24 1_555 1_555
H34 C24 1_555 1_555
C3 C5 1_555 1_555
C6 C7 1_555 1_555
C8 C9 1_555 1_555
C12 C17 1_555 1_555
C14 C16 1_555 1_555
C15 C17 1_555 1_555
C21 C24 1_555 1_555

#END
