
#######################################################################
#
#                 Cambridge Crystallographic Data Centre
#                                CCDC 
#
#######################################################################
#
# If this CIF has been generated from an entry in the Cambridge 
# Structural Database, then it will include bibliographic, chemical, 
# crystal, experimental, refinement or atomic coordinate data resulting 
# from the CCDC's data processing and validation procedures.
#
#######################################################################

data_LANHOA
_chemical_formula_moiety         'C24 H23 Br1 N2 O2'
_chemical_name_systematic        
(3S,4R,5S)-N-(4-bromobenzyl)-5-methyl-2,3-diphenylisoxazolidine-4-carboxamide
_symmetry_cell_setting           orthorhombic
_symmetry_space_group_name_H-M   'P 21 21 21'
_symmetry_Int_Tables_number      19
_space_group_name_Hall           'P 2ac 2ab'
loop_
_symmetry_equiv_pos_site_id
_symmetry_equiv_pos_as_xyz
1 x,y,z
2 1/2-x,-y,1/2+z
3 1/2+x,1/2-y,-z
4 -x,1/2+y,1/2-z
_cell_length_a                   9.35316(16)
_cell_length_b                   14.1699(3)
_cell_length_c                   16.2220(3)
_cell_angle_alpha                90
_cell_angle_beta                 90
_cell_angle_gamma                90
_cell_volume                     2149.96
_cell_formula_units_Z            4
loop_
_atom_site_label
_atom_site_type_symbol
_atom_site_fract_x
_atom_site_fract_y
_atom_site_fract_z
Br1 Br 0.24302(4) 0.781479(19) 0.499463(16)
C1 C 0.2494(3) 0.65056(18) 0.52611(15)
O1 O 0.28216(18) 0.02388(12) 0.38594(10)
O2 O 0.12029(17) 0.27826(13) 0.47398(11)
N1 N 0.3319(2) 0.29359(15) 0.53968(12)
H1 H 0.4230 0.2784 0.5408
N2 N 0.2632(2) 0.08253(14) 0.31407(11)
C2 C -0.1122(3) 0.0228(2) 0.18023(17)
H2 H -0.1951 0.0093 0.1486
C3 C 0.2834(2) 0.18248(17) 0.34050(14)
H3 H 0.1928 0.2184 0.3311
C4 C 0.1548(3) 0.5189(2) 0.59960(16)
H4 H 0.0855 0.4927 0.6357
C5 C 0.4052(2) 0.23140(18) 0.29626(14)
C6 C 0.2418(3) 0.08147(17) 0.45522(14)
H5 H 0.1356 0.0891 0.4569
C7 C 0.2618(3) 0.46162(18) 0.56810(13)
C8 C 0.0482(2) -0.01570(18) 0.29232(15)
H6 H 0.0735 -0.0555 0.3371
C9 C 0.1317(3) 0.06262(18) 0.27315(14)
C10 C 0.2463(3) 0.25466(17) 0.48332(13)
C11 C 0.3124(2) 0.17532(17) 0.43408(14)
H7 H 0.4176 0.1720 0.4448
C12 C 0.2755(3) 0.36156(19) 0.59983(14)
H8 H 0.3391 0.3619 0.6486
H9 H 0.1801 0.3398 0.6182
C13 C -0.0285(3) 0.1013(2) 0.16201(16)
H10 H -0.0547 0.1416 0.1178
C14 C 0.2935(4) 0.0358(2) 0.53354(18)
H11 H 0.2412 -0.0232 0.5426
H12 H 0.2770 0.0786 0.5800
H13 H 0.3959 0.0224 0.5289
C15 C 0.3548(3) 0.59524(19) 0.49207(16)
H14 H 0.4228 0.6214 0.4551
C16 C 0.6154(3) 0.2299(2) 0.21047(17)
H15 H 0.6797 0.1966 0.1757
C17 C 0.4986(3) 0.1839(2) 0.24404(14)
H16 H 0.4822 0.1193 0.2313
C18 C 0.3595(2) 0.49970(18) 0.51320(15)
H17 H 0.4307 0.4603 0.4896
C19 C 0.1474(3) 0.6146(2) 0.57902(16)
H18 H 0.0742 0.6538 0.6009
C20 C 0.5456(3) 0.3727(2) 0.27757(17)
H19 H 0.5609 0.4378 0.2886
C21 C 0.0924(3) 0.12101(19) 0.20771(15)
H20 H 0.1490 0.1746 0.1945
C22 C 0.6389(3) 0.3244(2) 0.22737(17)
H21 H 0.7192 0.3559 0.2043
C23 C 0.4291(3) 0.3264(2) 0.31224(15)
H22 H 0.3653 0.3600 0.3471
C24 C -0.0734(3) -0.0352(2) 0.24483(17)
H23 H -0.1299 -0.0890 0.2573
loop_
_geom_bond_atom_site_label_1
_geom_bond_atom_site_label_2
_geom_bond_site_symmetry_1
_geom_bond_site_symmetry_2
Br1 C1 1_555 1_555
C1 C15 1_555 1_555
O1 N2 1_555 1_555
O2 C10 1_555 1_555
N1 H1 1_555 1_555
N2 C3 1_555 1_555
C2 H2 1_555 1_555
C3 H3 1_555 1_555
C4 H4 1_555 1_555
C5 C3 1_555 1_555
C6 O1 1_555 1_555
H5 C6 1_555 1_555
C7 C4 1_555 1_555
C8 H6 1_555 1_555
C9 N2 1_555 1_555
C10 N1 1_555 1_555
C11 C3 1_555 1_555
H7 C11 1_555 1_555
C12 N1 1_555 1_555
H8 C12 1_555 1_555
H9 C12 1_555 1_555
C13 C2 1_555 1_555
H10 C13 1_555 1_555
C14 C6 1_555 1_555
H11 C14 1_555 1_555
H12 C14 1_555 1_555
H13 C14 1_555 1_555
C15 H14 1_555 1_555
C16 H15 1_555 1_555
C17 C5 1_555 1_555
H16 C17 1_555 1_555
C18 C7 1_555 1_555
H17 C18 1_555 1_555
C19 C1 1_555 1_555
H18 C19 1_555 1_555
C20 H19 1_555 1_555
C21 C9 1_555 1_555
H20 C21 1_555 1_555
C22 C16 1_555 1_555
H21 C22 1_555 1_555
C23 C5 1_555 1_555
H22 C23 1_555 1_555
C24 C2 1_555 1_555
H23 C24 1_555 1_555
C4 C19 1_555 1_555
C6 C11 1_555 1_555
C7 C12 1_555 1_555
C8 C9 1_555 1_555
C8 C24 1_555 1_555
C10 C11 1_555 1_555
C13 C21 1_555 1_555
C15 C18 1_555 1_555
C16 C17 1_555 1_555
C20 C22 1_555 1_555
C20 C23 1_555 1_555

#END
