
#######################################################################
#
#                 Cambridge Crystallographic Data Centre
#                                CCDC 
#
#######################################################################
#
# If this CIF has been generated from an entry in the Cambridge 
# Structural Database, then it will include bibliographic, chemical, 
# crystal, experimental, refinement or atomic coordinate data resulting 
# from the CCDC's data processing and validation procedures.
#
#######################################################################

data_LANKOB
_chemical_formula_moiety         'C20 H15 N3 O3'
_chemical_name_systematic        
4-(4-(1,3-Dioxo-2,3-dihydro-1H-isoindol-2-yl)butoxy)phthalonitrile
_symmetry_cell_setting           monoclinic
_symmetry_space_group_name_H-M   'P 21/n'
_symmetry_Int_Tables_number      14
_space_group_name_Hall           '-P 2yn'
loop_
_symmetry_equiv_pos_site_id
_symmetry_equiv_pos_as_xyz
1 x,y,z
2 1/2-x,1/2+y,1/2-z
3 -x,-y,-z
4 1/2+x,1/2-y,1/2+z
_cell_length_a                   5.8020(3)
_cell_length_b                   13.6911(8)
_cell_length_c                   21.4006(14)
_cell_angle_alpha                90
_cell_angle_beta                 92.721(4)
_cell_angle_gamma                90
_cell_volume                     1698.06
_exptl_crystal_colour            colorless
_exptl_crystal_description       prism
_chemical_melting_point          '404 K'
_cell_formula_units_Z            4
_exptl_crystal_recrystallization_method THF
loop_
_atom_site_label
_atom_site_type_symbol
_atom_site_fract_x
_atom_site_fract_y
_atom_site_fract_z
N1 N -0.4644(2) 0.28211(10) 0.14952(6)
N2 N -0.4336(2) 0.19867(11) -0.02931(7)
N3 N 0.32284(18) 0.80168(7) 0.20879(5)
O1 O 0.36659(15) 0.50539(6) 0.09454(4)
O2 O 0.00028(18) 0.73538(7) 0.15795(5)
O3 O 0.60986(18) 0.90960(7) 0.24185(5)
H1 H 0.068(2) 0.3252(11) -0.0572(7)
H2 H 0.350(2) 0.4345(10) -0.0114(7)
H3 H 0.003(2) 0.4292(10) 0.1516(7)
H4 H 0.208(3) 0.5680(10) 0.1654(7)
H5 H 0.388(3) 0.4829(11) 0.1865(7)
H6 H 0.526(2) 0.6654(11) 0.1362(7)
H7 H 0.703(3) 0.5812(11) 0.1567(7)
H8 H 0.586(3) 0.6017(12) 0.2646(8)
H9 H 0.718(3) 0.6957(11) 0.2366(7)
H10 H 0.229(3) 0.6830(11) 0.2521(7)
H11 H 0.409(2) 0.7471(10) 0.2927(7)
H12 H -0.174(3) 0.9061(12) 0.0828(8)
H13 H -0.106(3) 1.0700(14) 0.0491(9)
H14 H 0.223(3) 1.1575(14) 0.0851(8)
H15 H 0.493(3) 1.0834(12) 0.1587(8)
C1 C -0.1401(2) 0.34606(8) 0.08211(5)
C2 C -0.1257(2) 0.31444(9) 0.02003(6)
C3 C 0.0570(2) 0.34698(10) -0.01430(6)
C4 C 0.2181(2) 0.41018(9) 0.01196(6)
C5 C 0.2009(2) 0.44264(8) 0.07337(5)
C6 C 0.0219(2) 0.40998(8) 0.10879(5)
C7 C -0.3224(2) 0.31063(9) 0.11942(6)
C8 C -0.2975(2) 0.24958(10) -0.00739(6)
C9 C 0.3629(2) 0.53936(10) 0.15849(6)
C10 C 0.5539(2) 0.61322(10) 0.16703(6)
C11 C 0.5759(2) 0.65619(10) 0.23278(6)
C12 C 0.3764(2) 0.72001(9) 0.25126(6)
C13 C 0.1288(2) 0.80377(9) 0.16783(6)
C14 C 0.4405(2) 0.89066(9) 0.20873(6)
C15 C 0.1199(2) 0.90256(9) 0.13971(6)
C16 C 0.3114(2) 0.95366(9) 0.16283(6)
C17 C 0.3543(3) 1.04788(10) 0.14326(7)
C18 C 0.1958(3) 1.08918(12) 0.10044(8)
C19 C 0.0026(3) 1.03838(13) 0.07866(8)
C20 C -0.0395(3) 0.94318(12) 0.09769(7)
loop_
_geom_bond_atom_site_label_1
_geom_bond_atom_site_label_2
_geom_bond_site_symmetry_1
_geom_bond_site_symmetry_2
N1 C7 1_555 1_555
N2 C8 1_555 1_555
N3 C12 1_555 1_555
O1 C5 1_555 1_555
O2 C13 1_555 1_555
O3 C14 1_555 1_555
H1 C3 1_555 1_555
H2 C4 1_555 1_555
H3 C6 1_555 1_555
H4 C9 1_555 1_555
H5 C9 1_555 1_555
H6 C10 1_555 1_555
H7 C10 1_555 1_555
H8 C11 1_555 1_555
H9 C11 1_555 1_555
H10 C12 1_555 1_555
H11 C12 1_555 1_555
H12 C20 1_555 1_555
H13 C19 1_555 1_555
H14 C18 1_555 1_555
H15 C17 1_555 1_555
C1 C2 1_555 1_555
C2 C3 1_555 1_555
C3 C4 1_555 1_555
C4 C5 1_555 1_555
C5 C6 1_555 1_555
C6 C1 1_555 1_555
C7 C1 1_555 1_555
C8 C2 1_555 1_555
C9 O1 1_555 1_555
C10 C9 1_555 1_555
C11 C10 1_555 1_555
C12 C11 1_555 1_555
C13 N3 1_555 1_555
C14 N3 1_555 1_555
C15 C13 1_555 1_555
C16 C14 1_555 1_555
C17 C16 1_555 1_555
C18 C17 1_555 1_555
C19 C18 1_555 1_555
C20 C15 1_555 1_555
C15 C16 1_555 1_555
C19 C20 1_555 1_555

#END
