
#######################################################################
#
#                 Cambridge Crystallographic Data Centre
#                                CCDC 
#
#######################################################################
#
# If this CIF has been generated from an entry in the Cambridge 
# Structural Database, then it will include bibliographic, chemical, 
# crystal, experimental, refinement or atomic coordinate data resulting 
# from the CCDC's data processing and validation procedures.
#
#######################################################################

data_LANLOC01
_chemical_formula_moiety         'C10 H10 N2 O6'
_chemical_name_systematic        'Isopropyl 3,5-dinitrobenzoate'
_symmetry_cell_setting           monoclinic
_symmetry_space_group_name_H-M   'P 21/n'
_symmetry_Int_Tables_number      14
_space_group_name_Hall           '-P 2yn'
loop_
_symmetry_equiv_pos_site_id
_symmetry_equiv_pos_as_xyz
1 x,y,z
2 1/2-x,1/2+y,1/2-z
3 -x,-y,-z
4 1/2+x,1/2-y,1/2+z
_cell_length_a                   9.7037(3)
_cell_length_b                   5.7152(2)
_cell_length_c                   20.4739(9)
_cell_angle_alpha                90
_cell_angle_beta                 95.504(2)
_cell_angle_gamma                90
_cell_volume                     1130.22
_exptl_crystal_colour            colorless
_exptl_crystal_description       block
_cell_formula_units_Z            4
_exptl_crystal_recrystallization_method ethanol
loop_
_atom_site_label
_atom_site_type_symbol
_atom_site_fract_x
_atom_site_fract_y
_atom_site_fract_z
O1 O 0.27425(9) 0.16199(16) 0.63304(5)
O2 O 0.32924(8) 0.47435(15) 0.57331(4)
O3 O 0.63611(10) 1.06799(16) 0.67549(5)
O4 O 0.67594(9) 1.08403(16) 0.78148(5)
O5 O 0.52347(10) 0.45491(17) 0.91396(5)
O6 O 0.41232(9) 0.16298(16) 0.86658(5)
N1 N 0.62359(10) 0.99248(18) 0.73064(6)
N2 N 0.46624(10) 0.35684(19) 0.86574(5)
C1 C 0.39856(12) 0.4773(2) 0.68655(6)
C2 C 0.47145(11) 0.6845(2) 0.68063(6)
C3 C 0.54042(11) 0.7796(2) 0.73684(6)
C4 C 0.53871(11) 0.6808(2) 0.79833(6)
C5 C 0.46452(12) 0.4756(2) 0.80192(6)
C6 C 0.39433(11) 0.3724(2) 0.74748(6)
C7 C 0.32647(11) 0.3529(2) 0.62836(6)
C8 C 0.25439(13) 0.3717(2) 0.51385(6)
C9 C 0.21072(19) 0.5760(3) 0.47026(8)
C10 C 0.35003(15) 0.2029(3) 0.48437(8)
H1 H 0.4739 0.7588 0.6392
H2 H 0.5861 0.7504 0.8362
H3 H 0.3439 0.2316 0.7517
H4 H 0.1705 0.2865 0.5260
H5 H 0.1584 0.6876 0.4946
H6 H 0.1523 0.5203 0.4317
H7 H 0.2930 0.6533 0.4561
H8 H 0.4342 0.2852 0.4745
H9 H 0.3036 0.1374 0.4438
H10 H 0.3746 0.0762 0.5156
loop_
_geom_bond_atom_site_label_1
_geom_bond_atom_site_label_2
_geom_bond_site_symmetry_1
_geom_bond_site_symmetry_2
O1 C7 1_555 1_555
O2 C7 1_555 1_555
O3 N1 1_555 1_555
O4 N1 1_555 1_555
O5 N2 1_555 1_555
O6 N2 1_555 1_555
N1 C3 1_555 1_555
N2 C5 1_555 1_555
C1 C2 1_555 1_555
C2 C3 1_555 1_555
C3 C4 1_555 1_555
C4 C5 1_555 1_555
C5 C6 1_555 1_555
C6 C1 1_555 1_555
C7 C1 1_555 1_555
C8 O2 1_555 1_555
C9 C8 1_555 1_555
C10 C8 1_555 1_555
H1 C2 1_555 1_555
H2 C4 1_555 1_555
H3 C6 1_555 1_555
H4 C8 1_555 1_555
H5 C9 1_555 1_555
H6 C9 1_555 1_555
H7 C9 1_555 1_555
H8 C10 1_555 1_555
H9 C10 1_555 1_555
H10 C10 1_555 1_555

#END
