
#######################################################################
#
#                 Cambridge Crystallographic Data Centre
#                                CCDC 
#
#######################################################################
#
# If this CIF has been generated from an entry in the Cambridge 
# Structural Database, then it will include bibliographic, chemical, 
# crystal, experimental, refinement or atomic coordinate data resulting 
# from the CCDC's data processing and validation procedures.
#
#######################################################################

data_LANLES
_chemical_name_common            
'(Triglycol bis(tolylene-imidazolium))-2,6-dimethylpyridine bis(hexafluorophosphate)'
_chemical_formula_moiety         'C33 H37 N5 O4 2+,2(F6 P1 1-)'
_chemical_name_systematic        
'6,17,38-Triaza-3,14-diazonia-23,26,29,32-tetraoxahexacyclo(31.2.2.2^19,22^.1^3,6^.1^8,12^.1^14,17^)dotetraconta-1(35),3,8,10,12(38),14,19,21,33,35,40-undecaene bis(hexafluorophosphate)'
_symmetry_cell_setting           triclinic
_symmetry_space_group_name_H-M   'P -1'
_symmetry_Int_Tables_number      2
_space_group_name_Hall           '-P 1'
loop_
_symmetry_equiv_pos_site_id
_symmetry_equiv_pos_as_xyz
1 x,y,z
2 -x,-y,-z
_cell_length_a                   9.8299(11)
_cell_length_b                   10.1415(11)
_cell_length_c                   19.486(2)
_cell_angle_alpha                83.183(2)
_cell_angle_beta                 89.886(2)
_cell_angle_gamma                76.646(2)
_cell_volume                     1876.02
_exptl_crystal_colour            colorless
_exptl_crystal_description       block
_cell_formula_units_Z            2
_exptl_crystal_recrystallization_method 'diethyl ether/acetonitrile'
loop_
_atom_site_label
_atom_site_type_symbol
_atom_site_fract_x
_atom_site_fract_y
_atom_site_fract_z
N1 N 0.8929(3) 0.2473(3) 0.42984(13)
N2 N 0.9898(3) 0.0614(3) 0.33474(14)
N3 N 0.8242(3) 0.0532(2) 0.26587(13)
N4 N 0.6163(2) 0.3856(2) 0.41431(12)
N5 N 0.5182(2) 0.4530(2) 0.31403(12)
O1 O 0.7479(3) -0.2455(3) 0.00620(15)
O2 O 0.8459(3) -0.0946(3) -0.11471(13)
O3 O 0.6904(3) 0.1869(3) -0.13918(13)
O4 O 0.7282(2) 0.3329(3) 0.01401(12)
C1 C 1.0311(3) 0.1908(3) 0.43089(17)
C2 C 1.1210(4) 0.2059(4) 0.48126(19)
H1 H 1.2148 0.1606 0.4821
C3 C 1.0708(4) 0.2882(4) 0.5301(2)
H2 H 1.1305 0.3020 0.5641
C4 C 0.9322(4) 0.3505(4) 0.52882(17)
H3 H 0.8964 0.4091 0.5611
C5 C 0.8458(3) 0.3250(3) 0.47865(15)
C6 C 1.0906(4) 0.1162(5) 0.3717(2)
H4 H 1.1281 0.1778 0.3392
H5 H 1.1677 0.0412 0.3892
C7 C 0.8854(3) 0.1354(3) 0.29380(18)
H6 H 0.8602 0.2303 0.2863
C8 C 0.9937(4) -0.0712(3) 0.33173(19)
H7 H 1.0569 -0.1453 0.3553
C9 C 0.8890(4) -0.0770(3) 0.28816(19)
H8 H 0.8662 -0.1553 0.2760
C10 C 0.7036(4) 0.0957(3) 0.21728(18)
H9 H 0.6946 0.1903 0.1984
H10 H 0.6191 0.0893 0.2419
C11 C 0.7184(3) 0.0091(3) 0.15932(17)
C12 C 0.8186(4) 0.0122(3) 0.10996(19)
H11 H 0.8772 0.0720 0.1114
C13 C 0.8334(4) -0.0732(4) 0.05790(18)
H12 H 0.9029 -0.0721 0.0255
C14 C 0.7454(4) -0.1576(3) 0.05501(18)
C15 C 0.6427(4) -0.1587(4) 0.1024(2)
H13 H 0.5810 -0.2149 0.0994
C16 C 0.6308(4) -0.0768(4) 0.15454(19)
H14 H 0.5620 -0.0797 0.1871
C17 C 0.8734(5) -0.2900(4) -0.0312(2)
H15 H 0.8988 -0.3889 -0.0269
H16 H 0.9495 -0.2590 -0.0118
C18 C 0.8502(5) -0.2334(4) -0.1062(2)
H17 H 0.9253 -0.2806 -0.1330
H18 H 0.7628 -0.2483 -0.1230
C19 C 0.7830(4) -0.0318(4) -0.17801(19)
H19 H 0.6883 -0.0443 -0.1804
H20 H 0.8346 -0.0744 -0.2152
C20 C 0.7799(5) 0.1152(4) -0.1869(2)
H21 H 0.8739 0.1274 -0.1806
H22 H 0.7480 0.1537 -0.2336
C21 C 0.7605(4) 0.2303(4) -0.08833(18)
H23 H 0.7971 0.3075 -0.1074
H24 H 0.8383 0.1574 -0.0696
C22 C 0.6587(3) 0.2712(3) -0.03205(16)
H25 H 0.5747 0.3350 -0.0516
H26 H 0.6325 0.1916 -0.0081
C23 C 0.6585(3) 0.3791(3) 0.06976(16)
C24 C 0.5254(3) 0.3643(3) 0.08657(16)
H27 H 0.4775 0.3198 0.0592
C25 C 0.4647(3) 0.4169(3) 0.14475(16)
H28 H 0.3749 0.4084 0.1559
C26 C 0.5349(3) 0.4817(3) 0.18654(15)
C27 C 0.6668(3) 0.4945(3) 0.16909(18)
H29 H 0.7150 0.5384 0.1966
C28 C 0.7289(3) 0.4432(3) 0.11139(18)
H30 H 0.8189 0.4519 0.1005
C29 C 0.4672(3) 0.5417(3) 0.24877(16)
H31 H 0.4868 0.6307 0.2505
H32 H 0.3666 0.5541 0.2443
C30 C 0.5966(3) 0.4831(3) 0.36221(15)
H33 H 0.6321 0.5610 0.3596
C31 C 0.5511(4) 0.2874(3) 0.39865(19)
H34 H 0.5496 0.2063 0.4262
C32 C 0.4899(3) 0.3299(3) 0.33629(19)
H35 H 0.4375 0.2838 0.3124
C33 C 0.6922(3) 0.3868(4) 0.47901(16)
H36 H 0.6517 0.3377 0.5164
H37 H 0.6786 0.4805 0.4887
P1 P 0.49724(8) 0.87824(8) 0.38189(4)
F1 F 0.6172(2) 0.9526(2) 0.39465(15)
F2 F 0.5701(2) 0.7512(2) 0.43693(11)
F3 F 0.4084(3) 0.9456(3) 0.44133(12)
F4 F 0.4247(2) 1.0027(2) 0.32720(12)
F5 F 0.5861(3) 0.8062(2) 0.32320(11)
F6 F 0.3787(2) 0.8023(3) 0.36823(12)
P2 P 0.03936(9) 0.51472(9) 0.27131(5)
F7 F -0.0365(9) 0.3993(7) 0.2610(5)
F8 F -0.0894(7) 0.5912(9) 0.3099(7)
F9 F 0.1032(12) 0.4340(8) 0.3427(3)
F10 F 0.1742(6) 0.4386(10) 0.2368(6)
F11 F -0.0190(13) 0.5958(11) 0.2015(5)
F12 F 0.1150(7) 0.6334(5) 0.2832(5)
F13? F -0.0310(8) 0.4041(7) 0.2448(6)
F14? F -0.0417(15) 0.5053(16) 0.3400(4)
F15? F 0.1647(9) 0.4018(8) 0.3030(10)
F16? F 0.1181(15) 0.5246(14) 0.2013(5)
F17? F -0.0896(10) 0.6284(5) 0.2375(7)
F18? F 0.1054(10) 0.6272(9) 0.2971(5)
loop_
_geom_bond_atom_site_label_1
_geom_bond_atom_site_label_2
_geom_bond_site_symmetry_1
_geom_bond_site_symmetry_2
N1 C1 1_555 1_555
N2 C6 1_555 1_555
N3 C7 1_555 1_555
N4 C30 1_555 1_555
N5 C29 1_555 1_555
O1 C14 1_555 1_555
O2 C18 1_555 1_555
O3 C20 1_555 1_555
O4 C22 1_555 1_555
C1 C2 1_555 1_555
C2 H1 1_555 1_555
C3 C2 1_555 1_555
H2 C3 1_555 1_555
C4 C3 1_555 1_555
H3 C4 1_555 1_555
C5 N1 1_555 1_555
C6 C1 1_555 1_555
H4 C6 1_555 1_555
H5 C6 1_555 1_555
C7 N2 1_555 1_555
H6 C7 1_555 1_555
C8 N2 1_555 1_555
H7 C8 1_555 1_555
C9 N3 1_555 1_555
H8 C9 1_555 1_555
C10 N3 1_555 1_555
H9 C10 1_555 1_555
H10 C10 1_555 1_555
C11 C10 1_555 1_555
C12 C11 1_555 1_555
H11 C12 1_555 1_555
C13 C12 1_555 1_555
H12 C13 1_555 1_555
C14 C13 1_555 1_555
C15 C14 1_555 1_555
H13 C15 1_555 1_555
C16 C11 1_555 1_555
H14 C16 1_555 1_555
C17 O1 1_555 1_555
H15 C17 1_555 1_555
H16 C17 1_555 1_555
C18 C17 1_555 1_555
H17 C18 1_555 1_555
H18 C18 1_555 1_555
C19 O2 1_555 1_555
H19 C19 1_555 1_555
H20 C19 1_555 1_555
C20 C19 1_555 1_555
H21 C20 1_555 1_555
H22 C20 1_555 1_555
C21 O3 1_555 1_555
H23 C21 1_555 1_555
H24 C21 1_555 1_555
C22 C21 1_555 1_555
H25 C22 1_555 1_555
H26 C22 1_555 1_555
C23 O4 1_555 1_555
C24 C23 1_555 1_555
H27 C24 1_555 1_555
C25 C24 1_555 1_555
H28 C25 1_555 1_555
C26 C25 1_555 1_555
C27 C26 1_555 1_555
H29 C27 1_555 1_555
C28 C23 1_555 1_555
H30 C28 1_555 1_555
C29 C26 1_555 1_555
H31 C29 1_555 1_555
H32 C29 1_555 1_555
C30 N5 1_555 1_555
H33 C30 1_555 1_555
C31 N4 1_555 1_555
H34 C31 1_555 1_555
C32 N5 1_555 1_555
H35 C32 1_555 1_555
C33 N4 1_555 1_555
H36 C33 1_555 1_555
H37 C33 1_555 1_555
P1 F1 1_555 1_555
F2 P1 1_555 1_555
F3 P1 1_555 1_555
F4 P1 1_555 1_555
F5 P1 1_555 1_555
F6 P1 1_555 1_555
P2 F7 1_555 1_555
F8 P2 1_555 1_555
F9 P2 1_555 1_555
F10 P2 1_555 1_555
F11 P2 1_555 1_555
F12 P2 1_555 1_555
C4 C5 1_555 1_555
C5 C33 1_555 1_555
C8 C9 1_555 1_555
C15 C16 1_555 1_555
C27 C28 1_555 1_555
C31 C32 1_555 1_555

#END
