
#######################################################################
#
#                 Cambridge Crystallographic Data Centre
#                                CCDC 
#
#######################################################################
#
# If this CIF has been generated from an entry in the Cambridge 
# Structural Database, then it will include bibliographic, chemical, 
# crystal, experimental, refinement or atomic coordinate data resulting 
# from the CCDC's data processing and validation procedures.
#
#######################################################################

data_LANLIW
_chemical_formula_moiety         'C29 H25 Cl1 N1 O2 P1'
_chemical_name_systematic        
'(Z)-Ethyl 3-(4-chlorophenyl)-2-((triphenylphosphoranylidene)amino)prop-2-enoate'
_symmetry_cell_setting           monoclinic
_symmetry_space_group_name_H-M   'P 21/n'
_symmetry_Int_Tables_number      14
_space_group_name_Hall           '-P 2yn'
loop_
_symmetry_equiv_pos_site_id
_symmetry_equiv_pos_as_xyz
1 x,y,z
2 1/2-x,1/2+y,1/2-z
3 -x,-y,-z
4 1/2+x,1/2-y,1/2+z
_cell_length_a                   10.4682(8)
_cell_length_b                   17.7551(13)
_cell_length_c                   14.1264(10)
_cell_angle_alpha                90
_cell_angle_beta                 106.0580(10)
_cell_angle_gamma                90
_cell_volume                     2523.14
_exptl_crystal_colour            colorless
_exptl_crystal_description       block
_chemical_melting_point          '453-455 K'
_cell_formula_units_Z            4
_exptl_crystal_recrystallization_method ethanol/trichloromethane
loop_
_atom_site_label
_atom_site_type_symbol
_atom_site_fract_x
_atom_site_fract_y
_atom_site_fract_z
Cl1 Cl 0.93051(11) -0.00127(8) 0.34516(9)
P1 P 0.19275(8) 0.18910(5) 0.14067(6)
O1 O 0.2109(2) 0.16367(16) 0.45783(18)
O2 O 0.0865(2) 0.18863(15) 0.30505(18)
N1 N 0.2906(3) 0.14248(16) 0.22514(19)
C1 C 0.7796(4) 0.0335(2) 0.3566(3)
C2 C 0.6932(4) 0.0690(2) 0.2781(3)
H1 H 0.7149 0.0747 0.2190
C3 C 0.5735(4) 0.0961(2) 0.2879(3)
H2 H 0.5151 0.1201 0.2347
C4 C 0.5387(3) 0.08813(19) 0.3758(2)
C5 C 0.6308(3) 0.0528(2) 0.4536(2)
H3 H 0.6113 0.0479 0.5137
C6 C 0.7493(4) 0.0250(2) 0.4445(3)
H4 H 0.8082 0.0007 0.4971
C7 C 0.4147(3) 0.11496(19) 0.3914(2)
H5 H 0.4106 0.1143 0.4563
C8 C 0.3046(3) 0.14072(18) 0.3244(2)
C9 C 0.1885(4) 0.16640(19) 0.3596(3)
C10 C 0.1022(4) 0.1887(3) 0.4954(3)
H6 H 0.0349 0.1498 0.4863
H7 H 0.0615 0.2336 0.4608
C11 C 0.1590(5) 0.2052(3) 0.6020(3)
H8 H 0.1944 0.1597 0.6361
H9 H 0.0906 0.2247 0.6286
H10 H 0.2287 0.2418 0.6103
C12 C 0.2984(4) 0.3284(2) 0.1941(3)
H11 H 0.3774 0.3052 0.1924
C13 C 0.2996(4) 0.4026(2) 0.2240(3)
H12 H 0.3795 0.4289 0.2430
C14 C 0.1839(4) 0.4376(2) 0.2257(3)
H13 H 0.1849 0.4876 0.2455
C15 C 0.0666(4) 0.3987(2) 0.1982(3)
H14 H -0.0121 0.4225 0.1994
C16 C 0.0641(3) 0.32408(19) 0.1685(2)
H15 H -0.0162 0.2982 0.1498
C17 C 0.1798(3) 0.28830(19) 0.1665(2)
C18 C -0.0637(4) 0.1826(2) 0.0091(3)
H16 H -0.0454 0.2291 -0.0147
C19 C -0.1825(4) 0.1473(3) -0.0344(3)
H17 H -0.2450 0.1706 -0.0859
C20 C -0.2089(4) 0.0780(3) -0.0017(3)
H18 H -0.2885 0.0538 -0.0319
C21 C -0.1176(4) 0.0442(2) 0.0757(3)
H19 H -0.1352 -0.0030 0.0978
C22 C 0.0002(4) 0.0804(2) 0.1203(3)
H20 H 0.0611 0.0577 0.1732
C23 C 0.0288(3) 0.14983(19) 0.0876(2)
C24 C 0.2377(4) 0.2377(2) -0.0360(3)
H21 H 0.1896 0.2806 -0.0299
C25 C 0.2825(5) 0.2287(3) -0.1178(3)
H22 H 0.2639 0.2651 -0.1670
C26 C 0.3546(5) 0.1663(3) -0.1274(3)
H23 H 0.3842 0.1601 -0.1831
C27 C 0.3830(4) 0.1129(3) -0.0545(3)
H24 H 0.4331 0.0708 -0.0604
C28 C 0.3373(4) 0.1214(2) 0.0275(3)
H25 H 0.3566 0.0848 0.0766
C29 C 0.2632(3) 0.1836(2) 0.0374(2)
loop_
_geom_bond_atom_site_label_1
_geom_bond_atom_site_label_2
_geom_bond_site_symmetry_1
_geom_bond_site_symmetry_2
Cl1 C1 1_555 1_555
P1 N1 1_555 1_555
O1 C9 1_555 1_555
O2 C9 1_555 1_555
N1 C8 1_555 1_555
C1 C2 1_555 1_555
C2 H1 1_555 1_555
C3 C2 1_555 1_555
H2 C3 1_555 1_555
C4 C3 1_555 1_555
C5 C4 1_555 1_555
H3 C5 1_555 1_555
C6 C1 1_555 1_555
H4 C6 1_555 1_555
C7 C4 1_555 1_555
H5 C7 1_555 1_555
C8 C7 1_555 1_555
C9 C8 1_555 1_555
C10 O1 1_555 1_555
H6 C10 1_555 1_555
H7 C10 1_555 1_555
C11 C10 1_555 1_555
H8 C11 1_555 1_555
H9 C11 1_555 1_555
H10 C11 1_555 1_555
C12 H11 1_555 1_555
C13 C12 1_555 1_555
H12 C13 1_555 1_555
C14 C13 1_555 1_555
H13 C14 1_555 1_555
C15 C14 1_555 1_555
H14 C15 1_555 1_555
C16 C15 1_555 1_555
H15 C16 1_555 1_555
C17 P1 1_555 1_555
C18 H16 1_555 1_555
C19 C18 1_555 1_555
H17 C19 1_555 1_555
C20 C19 1_555 1_555
H18 C20 1_555 1_555
C21 C20 1_555 1_555
H19 C21 1_555 1_555
C22 C21 1_555 1_555
H20 C22 1_555 1_555
C23 P1 1_555 1_555
C24 H21 1_555 1_555
C25 C24 1_555 1_555
H22 C25 1_555 1_555
C26 C25 1_555 1_555
H23 C26 1_555 1_555
C27 C26 1_555 1_555
H24 C27 1_555 1_555
C28 C27 1_555 1_555
H25 C28 1_555 1_555
C29 P1 1_555 1_555
C5 C6 1_555 1_555
C12 C17 1_555 1_555
C16 C17 1_555 1_555
C18 C23 1_555 1_555
C22 C23 1_555 1_555
C24 C29 1_555 1_555
C28 C29 1_555 1_555

#END
