
#######################################################################
#
#                 Cambridge Crystallographic Data Centre
#                                CCDC 
#
#######################################################################
#
# If this CIF has been generated from an entry in the Cambridge 
# Structural Database, then it will include bibliographic, chemical, 
# crystal, experimental, refinement or atomic coordinate data resulting 
# from the CCDC's data processing and validation procedures.
#
#######################################################################

data_LANNEV
_chemical_formula_moiety         'C27 H26 Br2 N2 O1'
_chemical_name_systematic        
(E)-1-(4-(bis(4-Bromophenyl)methyl)piperazin-1-yl)-3-(4-methylphenyl)prop-2-en-1-one
_symmetry_cell_setting           monoclinic
_symmetry_space_group_name_H-M   'P 21/c'
_symmetry_Int_Tables_number      14
_space_group_name_Hall           '-P 2ybc'
loop_
_symmetry_equiv_pos_site_id
_symmetry_equiv_pos_as_xyz
1 x,y,z
2 -x,1/2+y,1/2-z
3 -x,-y,-z
4 x,1/2-y,1/2+z
_cell_length_a                   10.050(2)
_cell_length_b                   11.622(2)
_cell_length_c                   21.259(4)
_cell_angle_alpha                90
_cell_angle_beta                 101.72(3)
_cell_angle_gamma                90
_cell_volume                     2431.31
_exptl_crystal_colour            colorless
_exptl_crystal_description       block
_cell_formula_units_Z            4
_exptl_crystal_recrystallization_method ethanol
loop_
_atom_site_label
_atom_site_type_symbol
_atom_site_fract_x
_atom_site_fract_y
_atom_site_fract_z
O1 O -0.0717(5) -0.3479(4) -0.0069(3)
Br1 Br 0.44042(9) 0.37326(8) 0.22953(5)
N1 N -0.0588(5) -0.0520(5) 0.1495(3)
C1 C 0.0218(7) -0.0187(6) 0.2125(4)
H1 H 0.0653 -0.0883 0.2333
Br2 Br -0.32805(9) 0.19580(10) 0.38972(4)
N2 N -0.1598(6) -0.2188(5) 0.0521(3)
C2 C 0.1307(7) 0.0670(7) 0.2094(4)
C3 C 0.2514(8) 0.0676(7) 0.2534(4)
H2 H 0.2707 0.0050 0.2810
C4 C 0.3449(8) 0.1542(8) 0.2592(4)
H3 H 0.4240 0.1510 0.2907
C5 C 0.3201(8) 0.2465(7) 0.2176(4)
C6 C 0.2044(8) 0.2464(7) 0.1691(4)
H4 H 0.1901 0.3043 0.1382
C7 C 0.1108(8) 0.1585(7) 0.1676(4)
H5 H 0.0306 0.1615 0.1368
C8 C -0.0647(7) 0.0317(7) 0.2557(4)
C9 C -0.1647(8) 0.1108(7) 0.2339(4)
H6 H -0.1798 0.1314 0.1908
C10 C -0.2433(8) 0.1612(7) 0.2714(4)
H7 H -0.3092 0.2154 0.2548
C11 C -0.2210(8) 0.1285(7) 0.3351(4)
C12 C -0.1220(8) 0.0515(8) 0.3588(4)
H8 H -0.1051 0.0326 0.4022
C13 C -0.0476(8) 0.0019(6) 0.3197(4)
H9 H 0.0165 -0.0536 0.3364
C14 C -0.1526(7) -0.1435(7) 0.1605(4)
H10 H -0.2085 -0.1157 0.1896
H11 H -0.1009 -0.2089 0.1806
C15 C -0.2449(8) -0.1819(7) 0.0968(4)
H12 H -0.3026 -0.2449 0.1047
H13 H -0.3027 -0.1185 0.0783
C16 C -0.0594(8) -0.1313(7) 0.0440(4)
H14 H -0.1059 -0.0643 0.0229
H15 H -0.0008 -0.1616 0.0169
C17 C 0.0250(8) -0.0964(7) 0.1075(4)
H16 H 0.0757 -0.1624 0.1275
H17 H 0.0897 -0.0380 0.1009
C18 C -0.1507(8) -0.3269(7) 0.0276(4)
C19 C -0.2448(8) -0.4138(7) 0.0431(4)
H18 H -0.3247 -0.3913 0.0552
C20 C -0.2158(8) -0.5239(7) 0.0396(3)
H19 H -0.1344 -0.5419 0.0276
C21 C -0.2995(7) -0.6208(7) 0.0530(3)
C22 C -0.4292(8) -0.6105(7) 0.0646(4)
H20 H -0.4668 -0.5376 0.0657
C23 C -0.5059(9) -0.7074(8) 0.0748(4)
H21 H -0.5935 -0.6976 0.0819
C24 C -0.4521(9) -0.8183(8) 0.0743(4)
C25 C -0.3214(9) -0.8263(7) 0.0645(4)
H22 H -0.2823 -0.8989 0.0651
C26 C -0.2454(8) -0.7326(7) 0.0538(3)
H23 H -0.1576 -0.7432 0.0471
C27 C -0.5351(9) -0.9212(8) 0.0868(4)
H24 H -0.4845 -0.9904 0.0840
H25 H -0.6185 -0.9234 0.0554
H26 H -0.5551 -0.9152 0.1290
loop_
_geom_bond_atom_site_label_1
_geom_bond_atom_site_label_2
_geom_bond_site_symmetry_1
_geom_bond_site_symmetry_2
O1 C18 1_555 1_555
Br1 C5 1_555 1_555
N1 C1 1_555 1_555
C1 H1 1_555 1_555
Br2 C11 1_555 1_555
N2 C15 1_555 1_555
C2 C1 1_555 1_555
C3 C2 1_555 1_555
H2 C3 1_555 1_555
C4 C3 1_555 1_555
H3 C4 1_555 1_555
C5 C4 1_555 1_555
C6 C5 1_555 1_555
H4 C6 1_555 1_555
C7 C2 1_555 1_555
H5 C7 1_555 1_555
C8 C1 1_555 1_555
C9 C8 1_555 1_555
H6 C9 1_555 1_555
C10 C9 1_555 1_555
H7 C10 1_555 1_555
C11 C10 1_555 1_555
C12 C11 1_555 1_555
H8 C12 1_555 1_555
C13 C8 1_555 1_555
H9 C13 1_555 1_555
C14 N1 1_555 1_555
H10 C14 1_555 1_555
H11 C14 1_555 1_555
C15 C14 1_555 1_555
H12 C15 1_555 1_555
H13 C15 1_555 1_555
C16 N2 1_555 1_555
H14 C16 1_555 1_555
H15 C16 1_555 1_555
C17 N1 1_555 1_555
H16 C17 1_555 1_555
H17 C17 1_555 1_555
C18 N2 1_555 1_555
C19 C18 1_555 1_555
H18 C19 1_555 1_555
C20 C19 1_555 1_555
H19 C20 1_555 1_555
C21 C20 1_555 1_555
C22 C21 1_555 1_555
H20 C22 1_555 1_555
C23 C22 1_555 1_555
H21 C23 1_555 1_555
C24 C23 1_555 1_555
C25 C24 1_555 1_555
H22 C25 1_555 1_555
C26 C21 1_555 1_555
H23 C26 1_555 1_555
C27 C24 1_555 1_555
H24 C27 1_555 1_555
H25 C27 1_555 1_555
H26 C27 1_555 1_555
C6 C7 1_555 1_555
C12 C13 1_555 1_555
C16 C17 1_555 1_555
C25 C26 1_555 1_555

#END
