
#######################################################################
#
#                 Cambridge Crystallographic Data Centre
#                                CCDC 
#
#######################################################################
#
# If this CIF has been generated from an entry in the Cambridge 
# Structural Database, then it will include bibliographic, chemical, 
# crystal, experimental, refinement or atomic coordinate data resulting 
# from the CCDC's data processing and validation procedures.
#
#######################################################################

data_LANNUK
_chemical_formula_moiety         'C19 H9 Cl2 F3 N4 O2'
_chemical_name_systematic        
1-(2,6-Dichloro-4-(trifluoromethyl)phenyl)-5-((3,4-methylenedioxyphenyl)methyleneimino)-1H-pyrazole-3-carbonitrile
_symmetry_cell_setting           monoclinic
_symmetry_space_group_name_H-M   'P 21'
_symmetry_Int_Tables_number      4
_space_group_name_Hall           'P 2yb'
loop_
_symmetry_equiv_pos_site_id
_symmetry_equiv_pos_as_xyz
1 x,y,z
2 -x,1/2+y,-z
_cell_length_a                   6.4308(11)
_cell_length_b                   9.8948(17)
_cell_length_c                   15.356(3)
_cell_angle_alpha                90
_cell_angle_beta                 99.179(4)
_cell_angle_gamma                90
_cell_volume                     964.613
_exptl_crystal_colour            colorless
_exptl_crystal_description       block
_chemical_melting_point          '446-447 K'
_cell_formula_units_Z            2
_exptl_crystal_recrystallization_method acetone
loop_
_atom_site_label
_atom_site_type_symbol
_atom_site_fract_x
_atom_site_fract_y
_atom_site_fract_z
C1 C 0.0697(9) -0.0108(5) 0.0559(4)
F1 F 0.102(6) -0.1353(10) 0.0752(12)
F2 F 0.250(3) 0.042(3) 0.0548(19)
F3 F -0.027(3) -0.008(3) -0.0235(6)
Cl1 Cl -0.0852(3) 0.0295(2) 0.37516(9)
Cl2 Cl -0.4769(3) 0.3459(2) 0.11530(12)
O1 O 0.6143(6) 0.8124(5) 0.2177(3)
O2 O 0.4345(6) 0.6494(5) 0.1282(2)
N1 N -0.3554(7) 0.2621(5) 0.3028(3)
N2 N -0.5176(7) 0.2095(5) 0.3381(3)
N3 N -0.8479(9) 0.2833(7) 0.4894(4)
N4 N -0.1302(7) 0.4481(4) 0.3011(3)
C2 C -0.0510(9) 0.0567(6) 0.1208(3)
C3 C -0.0155(9) 0.0197(6) 0.2078(4)
H1 H 0.0797 -0.0490 0.2269
C4 C -0.1214(9) 0.0830(6) 0.2670(3)
C5 C -0.2616(8) 0.1883(6) 0.2399(3)
C6 C -0.2980(9) 0.2188(6) 0.1513(4)
C7 C -0.1968(9) 0.1554(6) 0.0924(3)
H2 H -0.2251 0.1787 0.0330
C8 C -0.2934(8) 0.3853(5) 0.3355(3)
C9 C -0.4185(8) 0.4183(6) 0.3965(3)
H3 H -0.4149 0.4964 0.4303
C10 C -0.5527(8) 0.3078(6) 0.3953(3)
C11 C -0.7204(9) 0.2900(6) 0.4473(4)
C12 C -0.0373(8) 0.5482(6) 0.3435(3)
H4 H -0.0764 0.5741 0.3968
C13 C 0.1311(7) 0.6217(5) 0.3112(3)
C14 C 0.2372(8) 0.7231(6) 0.3636(4)
H5 H 0.1943 0.7441 0.4170
C15 C 0.4027(9) 0.7944(7) 0.3380(4)
H6 H 0.4722 0.8629 0.3725
C16 C 0.4581(8) 0.7578(6) 0.2592(4)
C17 C 0.3532(8) 0.6597(6) 0.2053(3)
C18 C 0.1902(8) 0.5892(6) 0.2305(4)
H7 H 0.1194 0.5230 0.1943
C19 C 0.6191(10) 0.7345(8) 0.1426(5)
H8 H 0.7456 0.6796 0.1506
H9 H 0.6211 0.7924 0.0918
F4? F -0.014(2) -0.1225(12) 0.0274(15)
F5? F 0.084(3) 0.0607(16) -0.0122(9)
F6? F 0.2590(13) -0.038(2) 0.0909(7)
loop_
_geom_bond_atom_site_label_1
_geom_bond_atom_site_label_2
_geom_bond_site_symmetry_1
_geom_bond_site_symmetry_2
C1 F1 1_555 1_555
F2 C1 1_555 1_555
F3 C1 1_555 1_555
Cl1 C4 1_555 1_555
Cl2 C6 1_555 1_555
O1 C16 1_555 1_555
O2 C17 1_555 1_555
N1 N2 1_555 1_555
N2 C10 1_555 1_555
N3 C11 1_555 1_555
N4 C8 1_555 1_555
C2 C1 1_555 1_555
C3 C2 1_555 1_555
H1 C3 1_555 1_555
C4 C3 1_555 1_555
C5 N1 1_555 1_555
C6 C5 1_555 1_555
C7 C2 1_555 1_555
H2 C7 1_555 1_555
C8 N1 1_555 1_555
C9 C8 1_555 1_555
H3 C9 1_555 1_555
C10 C9 1_555 1_555
C11 C10 1_555 1_555
C12 N4 1_555 1_555
H4 C12 1_555 1_555
C13 C12 1_555 1_555
C14 C13 1_555 1_555
H5 C14 1_555 1_555
C15 C14 1_555 1_555
H6 C15 1_555 1_555
C16 C15 1_555 1_555
C17 C16 1_555 1_555
C18 C13 1_555 1_555
H7 C18 1_555 1_555
C19 O1 1_555 1_555
H8 C19 1_555 1_555
H9 C19 1_555 1_555
O2 C19 1_555 1_555
C4 C5 1_555 1_555
C6 C7 1_555 1_555
C17 C18 1_555 1_555

#END
