
#######################################################################
#
#                 Cambridge Crystallographic Data Centre
#                                CCDC 
#
#######################################################################
#
# If this CIF has been generated from an entry in the Cambridge 
# Structural Database, then it will include bibliographic, chemical, 
# crystal, experimental, refinement or atomic coordinate data resulting 
# from the CCDC's data processing and validation procedures.
#
#######################################################################

data_LANSUQ
_chemical_formula_moiety         'C20 H16 F2 O2'
_chemical_name_systematic        
(6Z)-3,5-bis(4-Fluorophenyl)-6-(1-hydroxyethylidene)cyclohex-2-en-1-one
_symmetry_cell_setting           monoclinic
_symmetry_space_group_name_H-M   'P 21/c'
_symmetry_Int_Tables_number      14
_space_group_name_Hall           '-P 2ybc'
loop_
_symmetry_equiv_pos_site_id
_symmetry_equiv_pos_as_xyz
1 x,y,z
2 -x,1/2+y,1/2-z
3 -x,-y,-z
4 x,1/2-y,1/2+z
_cell_length_a                   17.663(2)
_cell_length_b                   6.2371(6)
_cell_length_c                   15.2357(16)
_cell_angle_alpha                90
_cell_angle_beta                 107.717(13)
_cell_angle_gamma                90
_cell_volume                     1598.85
_exptl_crystal_colour            yellow
_exptl_crystal_description       block
_chemical_melting_point          '383 K'
_cell_formula_units_Z            4
_exptl_crystal_recrystallization_method dimethylformamide
loop_
_atom_site_label
_atom_site_type_symbol
_atom_site_fract_x
_atom_site_fract_y
_atom_site_fract_z
F1 F 0.55493(10) 0.1856(4) 0.43446(11)
F2 F 0.01595(9) 0.2581(3) 0.48620(11)
O1 O 0.26793(10) 0.4978(3) -0.05192(11)
H1 H 0.2297(15) 0.605(5) -0.0137(19)
O2 O 0.19432(10) 0.6694(2) 0.04310(11)
C1 C 0.32971(15) 0.1596(5) -0.01899(18)
H2 H 0.3318 0.1788 -0.0820
H3 H 0.3059 0.0201 -0.0137
H4 H 0.3837 0.1657 0.0241
C2 C 0.28083(13) 0.3328(4) 0.00327(15)
C3 C 0.25062(12) 0.3242(3) 0.07759(13)
C4 C 0.20637(13) 0.4997(3) 0.09387(14)
C5 C 0.17204(13) 0.4938(3) 0.16889(15)
H5 H 0.1539 0.6235 0.1882
C6 C 0.16517(11) 0.3107(3) 0.21179(14)
C7 C 0.19511(12) 0.1060(3) 0.18191(16)
H6 H 0.1511 0.0375 0.1336
H7 H 0.2112 0.0069 0.2351
C8 C 0.26582(12) 0.1378(3) 0.14426(14)
H8 H 0.2699 0.0058 0.1087
C9 C 0.34407(12) 0.1584(3) 0.22286(14)
C10 C 0.37064(15) -0.0158(4) 0.28156(16)
H9 H 0.3398 -0.1434 0.2722
C11 C 0.44143(16) -0.0060(5) 0.35355(18)
H10 H 0.4591 -0.1247 0.3937
C12 C 0.48489(16) 0.1786(6) 0.36503(17)
C13 C 0.46193(14) 0.3517(5) 0.31003(16)
H11 H 0.4936 0.4778 0.3198
C14 C 0.39064(13) 0.3403(4) 0.23873(15)
H12 H 0.3736 0.4614 0.1999
C15 C 0.12484(11) 0.2989(3) 0.28353(13)
C16 C 0.08461(12) 0.1136(4) 0.29494(15)
H13 H 0.0831 -0.0058 0.2557
C17 C 0.04699(12) 0.1000(4) 0.36192(16)
H14 H 0.0191 -0.0262 0.3686
C18 C 0.05082(13) 0.2727(4) 0.41839(15)
C19 C 0.08926(13) 0.4591(4) 0.41012(15)
H15 H 0.0906 0.5769 0.4501
C20 C 0.12583(12) 0.4709(3) 0.34258(14)
H16 H 0.1525 0.5994 0.3359
loop_
_geom_bond_atom_site_label_1
_geom_bond_atom_site_label_2
_geom_bond_site_symmetry_1
_geom_bond_site_symmetry_2
F1 C12 1_555 1_555
F2 C18 1_555 1_555
O1 H1 1_555 1_555
O2 C4 1_555 1_555
C1 H2 1_555 1_555
H3 C1 1_555 1_555
H4 C1 1_555 1_555
C2 O1 1_555 1_555
C3 C2 1_555 1_555
C4 C3 1_555 1_555
C5 C4 1_555 1_555
H5 C5 1_555 1_555
C6 C5 1_555 1_555
C7 C6 1_555 1_555
H6 C7 1_555 1_555
H7 C7 1_555 1_555
C8 C3 1_555 1_555
H8 C8 1_555 1_555
C9 C8 1_555 1_555
C10 C9 1_555 1_555
H9 C10 1_555 1_555
C11 C10 1_555 1_555
H10 C11 1_555 1_555
C12 C11 1_555 1_555
C13 C12 1_555 1_555
H11 C13 1_555 1_555
C14 C9 1_555 1_555
H12 C14 1_555 1_555
C15 C6 1_555 1_555
C16 C15 1_555 1_555
H13 C16 1_555 1_555
C17 C16 1_555 1_555
H14 C17 1_555 1_555
C18 C17 1_555 1_555
C19 C18 1_555 1_555
H15 C19 1_555 1_555
C20 C15 1_555 1_555
H16 C20 1_555 1_555
C1 C2 1_555 1_555
C7 C8 1_555 1_555
C13 C14 1_555 1_555
C19 C20 1_555 1_555

#END
