
#######################################################################
#
#                 Cambridge Crystallographic Data Centre
#                                CCDC 
#
#######################################################################
#
# If this CIF has been generated from an entry in the Cambridge 
# Structural Database, then it will include bibliographic, chemical, 
# crystal, experimental, refinement or atomic coordinate data resulting 
# from the CCDC's data processing and validation procedures.
#
#######################################################################

data_LANSOJ
_chemical_formula_moiety         'C55 H25 Cl10 N5,4(H2 O1)'
_chemical_name_systematic        
'5,10,15,20,25-pentakis(2,6-dichlorophenyl)-(22)N-fused-pentaphyrin tetrahydrate'
_symmetry_cell_setting           monoclinic
_symmetry_space_group_name_H-M   'P 21/a'
_symmetry_Int_Tables_number      14
_space_group_name_Hall           '-P 2yab'
loop_
_symmetry_equiv_pos_site_id
_symmetry_equiv_pos_as_xyz
1 x,y,z
2 1/2-x,1/2+y,-z
3 -x,-y,-z
4 1/2+x,1/2-y,z
_cell_length_a                   16.585(2)
_cell_length_b                   22.865(3)
_cell_length_c                   16.986(3)
_cell_angle_alpha                90
_cell_angle_beta                 118.113(4)
_cell_angle_gamma                90
_cell_volume                     5681.41
_exptl_crystal_colour            red
_exptl_crystal_description       block
_cell_formula_units_Z            4
loop_
_atom_site_label
_atom_site_type_symbol
_atom_site_fract_x
_atom_site_fract_y
_atom_site_fract_z
Cl1 Cl 0.6803(3) 0.1041(2) -0.1235(2)
Cl2 Cl 1.0475(2) 0.0891(1) 0.0627(3)
Cl3 Cl 0.7550(2) 0.3453(2) 0.1163(3)
Cl4 Cl 1.1107(2) 0.3349(1) 0.3605(3)
Cl5 Cl 0.7100(2) 0.2899(1) 0.4740(2)
Cl6 Cl 1.0782(2) 0.3051(1) 0.6023(2)
Cl7 Cl 0.9423(2) -0.0423(1) 0.6400(3)
Cl8 Cl 0.6079(2) 0.0525(1) 0.5207(2)
Cl9 Cl 0.9365(2) -0.0823(1) 0.3667(2)
Cl10 Cl 0.5856(2) -0.0340(2) 0.1366(3)
N1 N 0.8277(5) 0.0710(3) 0.1658(5)
N2 N 0.8896(5) 0.1868(3) 0.1577(5)
N3 N 0.9131(5) 0.2768(3) 0.3778(5)
N4 N 0.8468(5) 0.1366(3) 0.5077(5)
N5 N 0.7745(5) 0.0046(3) 0.3899(5)
C1 C 0.8023(6) 0.0176(4) 0.1842(6)
C2 C 0.7969(7) -0.0224(4) 0.1167(6)
C3 C 0.8177(7) 0.0067(4) 0.0600(6)
C4 C 0.8365(6) 0.0664(4) 0.0898(6)
C5 C 0.8606(7) 0.1094(4) 0.0484(6)
C6 C 0.8842(7) 0.1678(4) 0.0783(7)
C7 C 0.9054(8) 0.2153(4) 0.0360(7)
C8 C 0.9243(7) 0.2623(4) 0.0902(7)
C9 C 0.9159(7) 0.2455(4) 0.1676(6)
C10 C 0.9282(6) 0.2781(4) 0.2417(6)
C11 C 0.9386(6) 0.2521(4) 0.3194(7)
C12 C 0.9769(6) 0.1930(3) 0.3511(6)
C13 C 0.9698(6) 0.1834(3) 0.4252(6)
C14 C 0.9243(6) 0.2348(4) 0.4386(6)
C15 C 0.8965(6) 0.2403(4) 0.5053(6)
C16 C 0.8711(6) 0.1944(3) 0.5394(6)
C17 C 0.8635(7) 0.1959(4) 0.6196(6)
C18 C 0.8375(7) 0.1427(4) 0.6369(6)
C19 C 0.8250(6) 0.1051(4) 0.5659(6)
C20 C 0.7968(6) 0.0477(3) 0.5365(6)
C21 C 0.7972(6) 0.0440(4) 0.4542(6)
C22 C 0.8260(5) 0.0997(3) 0.4337(6)
C23 C 0.8199(6) 0.0944(3) 0.3519(6)
C24 C 0.7898(6) 0.0320(4) 0.3266(6)
C25 C 0.7841(6) 0.0015(3) 0.2546(6)
C26 C 0.8633(8) 0.0933(4) -0.0353(7)
C27 C 0.7840(9) 0.0865(4) -0.1156(8)
C28 C 0.784(1) 0.0663(7) -0.190(1)
C29 C 0.861(2) 0.0530(7) -0.188(1)
C30 C 0.946(1) 0.0597(5) -0.113(1)
C31 C 0.9452(9) 0.0801(4) -0.0347(8)
C32 C 0.9320(7) 0.3431(4) 0.2364(6)
C33 C 0.8604(7) 0.3776(5) 0.1808(7)
C34 C 0.867(1) 0.4378(5) 0.1743(8)
C35 C 0.949(1) 0.4635(5) 0.2238(9)
C36 C 1.0228(9) 0.4329(4) 0.2799(8)
C37 C 1.0149(8) 0.3729(4) 0.2877(7)
C38 C 0.8945(6) 0.3001(3) 0.5394(5)
C39 C 0.8141(6) 0.3252(4) 0.5321(6)
C40 C 0.8127(7) 0.3791(4) 0.5687(6)
C41 C 0.8937(8) 0.4089(4) 0.6135(7)
C42 C 0.9746(8) 0.3868(4) 0.6237(7)
C43 C 0.9737(6) 0.3326(4) 0.5862(6)
C44 C 0.7719(7) 0.0014(4) 0.5813(6)
C45 C 0.8328(7) -0.0434(4) 0.6280(6)
C46 C 0.8076(9) -0.0891(4) 0.6658(7)
C47 C 0.723(1) -0.0910(5) 0.6562(8)
C48 C 0.6599(9) -0.0482(5) 0.6130(8)
C49 C 0.6863(7) -0.0017(4) 0.5757(7)
C50 C 0.7584(7) -0.0626(4) 0.2527(6)
C51 C 0.8254(8) -0.1041(4) 0.3035(7)
C52 C 0.804(1) -0.1626(5) 0.299(1)
C53 C 0.716(1) -0.1806(6) 0.248(1)
C54 C 0.649(1) -0.1421(6) 0.199(1)
C55 C 0.6719(8) -0.0829(5) 0.2011(7)
H1 H 0.7821 -0.0627 0.1138
H2 H 0.8203 -0.0092 0.0096
H3 H 0.9077 0.2130 -0.0188
H4 H 0.9399 0.3001 0.0785
H5 H 1.0016 0.1675 0.3238
H6 H 0.9897 0.1498 0.4624
H7 H 0.8756 0.2295 0.6563
H8 H 0.8289 0.1323 0.6866
H9 H 0.8323 0.1229 0.3183
H10 H 0.8378 0.1056 0.2002
H11 H 0.7294 0.0613 -0.2446
H12 H 0.8630 0.0381 -0.2394
H13 H 1.0031 0.0518 -0.1116
H14 H 0.8157 0.4611 0.1371
H15 H 0.9556 0.5043 0.2177
H16 H 1.0798 0.4518 0.3147
H17 H 1.0304 0.4077 0.6551
H18 H 0.8936 0.4459 0.6387
H19 H 0.7568 0.3951 0.5617
H20 H 0.8515 -0.1183 0.6984
H21 H 0.7066 -0.1231 0.6815
H22 H 0.6002 -0.0499 0.6075
H23 H 0.8499 -0.1903 0.3334
H24 H 0.7013 -0.2210 0.2449
H25 H 0.5872 -0.1542 0.1643
O1 O 0.894(2) -0.221(1) 0.122(2)
O2 O 0.538(1) 0.7153(8) 0.149(1)
O3 O 0.922(2) 0.721(1) 0.031(2)
O4 O 0.132(2) 0.319(2) 0.117(2)
loop_
_geom_bond_atom_site_label_1
_geom_bond_atom_site_label_2
_geom_bond_site_symmetry_1
_geom_bond_site_symmetry_2
Cl1 C27 1_555 1_555
Cl2 C31 1_555 1_555
Cl3 C33 1_555 1_555
Cl4 C37 1_555 1_555
Cl5 C39 1_555 1_555
Cl6 C43 1_555 1_555
Cl7 C45 1_555 1_555
Cl8 C49 1_555 1_555
Cl9 C51 1_555 1_555
Cl10 C55 1_555 1_555
N1 C1 1_555 1_555
N2 C6 1_555 1_555
N3 C11 1_555 1_555
N4 C16 1_555 1_555
N5 C21 1_555 1_555
C1 C2 1_555 1_555
C2 C3 1_555 1_555
C3 C4 1_555 1_555
C4 N1 1_555 1_555
C5 C4 1_555 1_555
C6 C5 1_555 1_555
C7 C6 1_555 1_555
C8 C7 1_555 1_555
C9 N2 1_555 1_555
C10 C9 1_555 1_555
C11 C10 1_555 1_555
C12 C11 1_555 1_555
C13 C12 1_555 1_555
C14 N3 1_555 1_555
C15 C14 1_555 1_555
C16 C15 1_555 1_555
C17 C16 1_555 1_555
C18 C17 1_555 1_555
C19 N4 1_555 1_555
C20 C19 1_555 1_555
C21 C20 1_555 1_555
C22 N4 1_555 1_555
C23 C22 1_555 1_555
C24 N5 1_555 1_555
C25 C1 1_555 1_555
C26 C5 1_555 1_555
C27 C26 1_555 1_555
C28 C27 1_555 1_555
C29 C28 1_555 1_555
C30 C29 1_555 1_555
C31 C26 1_555 1_555
C32 C10 1_555 1_555
C33 C32 1_555 1_555
C34 C33 1_555 1_555
C35 C34 1_555 1_555
C36 C35 1_555 1_555
C37 C32 1_555 1_555
C38 C15 1_555 1_555
C39 C38 1_555 1_555
C40 C39 1_555 1_555
C41 C40 1_555 1_555
C42 C41 1_555 1_555
C43 C38 1_555 1_555
C44 C20 1_555 1_555
C45 C44 1_555 1_555
C46 C45 1_555 1_555
C47 C46 1_555 1_555
C48 C47 1_555 1_555
C49 C44 1_555 1_555
C50 C25 1_555 1_555
C51 C50 1_555 1_555
C52 C51 1_555 1_555
C53 C52 1_555 1_555
C54 C53 1_555 1_555
C55 C50 1_555 1_555
H1 C2 1_555 1_555
H2 C3 1_555 1_555
H3 C7 1_555 1_555
H4 C8 1_555 1_555
H5 C12 1_555 1_555
H6 C13 1_555 1_555
H7 C17 1_555 1_555
H8 C18 1_555 1_555
H9 C23 1_555 1_555
H10 N1 1_555 1_555
H11 C28 1_555 1_555
H12 C29 1_555 1_555
H13 C30 1_555 1_555
H14 C34 1_555 1_555
H15 C35 1_555 1_555
H16 C36 1_555 1_555
H17 C42 1_555 1_555
H18 C41 1_555 1_555
H19 C40 1_555 1_555
H20 C46 1_555 1_555
H21 C47 1_555 1_555
H22 C48 1_555 1_555
H23 C52 1_555 1_555
H24 C53 1_555 1_555
H25 C54 1_555 1_555
C8 C9 1_555 1_555
C13 C14 1_555 1_555
C18 C19 1_555 1_555
C21 C22 1_555 1_555
C23 C24 1_555 1_555
C24 C25 1_555 1_555
C30 C31 1_555 1_555
C36 C37 1_555 1_555
C42 C43 1_555 1_555
C48 C49 1_555 1_555
C54 C55 1_555 1_555

#END
