
#######################################################################
#
#                 Cambridge Crystallographic Data Centre
#                                CCDC 
#
#######################################################################
#
# If this CIF has been generated from an entry in the Cambridge 
# Structural Database, then it will include bibliographic, chemical, 
# crystal, experimental, refinement or atomic coordinate data resulting 
# from the CCDC's data processing and validation procedures.
#
#######################################################################

data_LANTIF
_chemical_formula_moiety         'C16 H14 N4 O4'
_chemical_name_systematic        
(1E,2E)-1,2-bis(1-(3-Nitrophenyl)ethylidene)hydrazine
_symmetry_cell_setting           monoclinic
_symmetry_space_group_name_H-M   'P 21/c'
_symmetry_Int_Tables_number      14
_space_group_name_Hall           '-P 2ybc'
loop_
_symmetry_equiv_pos_site_id
_symmetry_equiv_pos_as_xyz
1 x,y,z
2 -x,1/2+y,1/2-z
3 -x,-y,-z
4 x,1/2-y,1/2+z
_cell_length_a                   3.9296(3)
_cell_length_b                   7.4448(5)
_cell_length_c                   26.3979(19)
_cell_angle_alpha                90
_cell_angle_beta                 94.022(1)
_cell_angle_gamma                90
_cell_volume                     770.371
_exptl_crystal_colour            yellow
_exptl_crystal_description       block
_chemical_melting_point          '469-471 K'
_cell_formula_units_Z            2
_exptl_crystal_recrystallization_method acetone
loop_
_atom_site_label
_atom_site_type_symbol
_atom_site_fract_x
_atom_site_fract_y
_atom_site_fract_z
O1 O 0.9642(5) 0.1248(2) 0.20045(5)
O2 O 0.8102(4) 0.06399(18) 0.12349(5)
N1 N 0.0796(3) 0.47453(16) 0.02358(4)
N2 N 0.8220(3) 0.16404(18) 0.15972(5)
C1 C 0.3995(4) 0.6788(2) 0.14058(5)
H1 H 0.3117 0.7942 0.1362
C2 C 0.5585(4) 0.6293(2) 0.18705(6)
H2 H 0.5726 0.7113 0.2137
C3 C 0.6956(4) 0.4607(2) 0.19421(5)
H3 H 0.8039 0.4272 0.2252
C4 C 0.6669(3) 0.34261(18) 0.15379(5)
C5 C 0.5072(3) 0.38640(17) 0.10740(4)
H4 H 0.4914 0.3029 0.0811
C6 C 0.3697(3) 0.55758(17) 0.10032(4)
C7 C 0.1991(3) 0.60690(18) 0.05020(5)
C8 C 0.1829(5) 0.7991(2) 0.03461(6)
H5 H 0.1410 0.8068 -0.0016
H6 H 0.3956 0.8567 0.0447
H7 H 0.0016 0.8578 0.0507
O1B O -0.9642(5) 0.8752(2) -0.20045(5)
O2B O -0.8102(4) 0.93601(18) -0.12349(5)
N1B N -0.0796(3) 0.52547(16) -0.02358(4)
N2B N -0.8220(3) 0.83596(18) -0.15972(5)
C1B C -0.3995(4) 0.3212(2) -0.14058(5)
H1B H -0.3117 0.2058 -0.1362
C2B C -0.5585(4) 0.3707(2) -0.18705(6)
H2B H -0.5726 0.2887 -0.2137
C3B C -0.6956(4) 0.5393(2) -0.19421(5)
H3B H -0.8039 0.5728 -0.2252
C4B C -0.6669(3) 0.65739(18) -0.15379(5)
C5B C -0.5072(3) 0.61360(17) -0.10740(4)
H4B H -0.4914 0.6971 -0.0811
C6B C -0.3697(3) 0.44242(17) -0.10032(4)
C7B C -0.1991(3) 0.39310(18) -0.05020(5)
C8B C -0.1829(5) 0.2009(2) -0.03461(6)
H5B H -0.1410 0.1932 0.0016
H6B H -0.3956 0.1433 -0.0447
H7B H -0.0016 0.1422 -0.0507
loop_
_geom_bond_atom_site_label_1
_geom_bond_atom_site_label_2
_geom_bond_site_symmetry_1
_geom_bond_site_symmetry_2
O1 N2 1_555 1_555
O2 N2 1_555 1_555
N1 C7 1_555 1_555
N2 C4 1_555 1_555
C1 H1 1_555 1_555
C2 C1 1_555 1_555
H2 C2 1_555 1_555
C3 C2 1_555 1_555
H3 C3 1_555 1_555
C4 C3 1_555 1_555
C5 C4 1_555 1_555
H4 C5 1_555 1_555
C6 C1 1_555 1_555
C7 C6 1_555 1_555
C8 C7 1_555 1_555
H5 C8 1_555 1_555
H6 C8 1_555 1_555
H7 C8 1_555 1_555
O1B N2B 1_555 1_555
O2B N2B 1_555 1_555
N1B N1 1_555 1_555
N2B C4B 1_555 1_555
C1B H1B 1_555 1_555
C2B C1B 1_555 1_555
H2B C2B 1_555 1_555
C3B C2B 1_555 1_555
H3B C3B 1_555 1_555
C4B C3B 1_555 1_555
C5B C4B 1_555 1_555
H4B C5B 1_555 1_555
C6B C1B 1_555 1_555
C7B N1B 1_555 1_555
C8B C7B 1_555 1_555
H5B C8B 1_555 1_555
H6B C8B 1_555 1_555
H7B C8B 1_555 1_555
C5 C6 1_555 1_555
C5B C6B 1_555 1_555
C6B C7B 1_555 1_555

#END
