
#######################################################################
#
#                 Cambridge Crystallographic Data Centre
#                                CCDC 
#
#######################################################################
#
# If this CIF has been generated from an entry in the Cambridge 
# Structural Database, then it will include bibliographic, chemical, 
# crystal, experimental, refinement or atomic coordinate data resulting 
# from the CCDC's data processing and validation procedures.
#
#######################################################################

data_LANVII
_chemical_formula_moiety         'C33 H40 N4 O1'
_chemical_name_systematic        
'(1,3-bis(2,6-di-isopropylphenyl)-2-phenyl-1H-imidazol-3-ium-5-yl)diazen-1-olate unknown solvate'
_symmetry_cell_setting           orthorhombic
_symmetry_space_group_name_H-M   'P 21 21 21'
_symmetry_Int_Tables_number      19
_space_group_name_Hall           'P 2ac 2ab'
loop_
_symmetry_equiv_pos_site_id
_symmetry_equiv_pos_as_xyz
1 x,y,z
2 1/2-x,-y,1/2+z
3 -x,1/2+y,1/2-z
4 1/2+x,1/2-y,-z
_cell_length_a                   10.6312(2)
_cell_length_b                   15.7365(3)
_cell_length_c                   18.2828(3)
_cell_angle_alpha                90
_cell_angle_beta                 90
_cell_angle_gamma                90
_cell_volume                     3058.67
_exptl_crystal_colour            yellow
_exptl_crystal_description       prism
_cell_formula_units_Z            4
loop_
_atom_site_label
_atom_site_type_symbol
_atom_site_fract_x
_atom_site_fract_y
_atom_site_fract_z
O1 O 0.69254(16) 0.60013(13) 0.25250(10)
N1 N 0.38849(15) 0.50733(11) 0.34731(9)
N2 N 0.48826(15) 0.56911(11) 0.43583(9)
N3 N 0.51052(18) 0.53517(13) 0.24170(10)
N4 N 0.61402(19) 0.56358(14) 0.21232(12)
C1 C 0.38651(18) 0.52118(12) 0.42069(11)
C2 C 0.49444(18) 0.54627(13) 0.31623(11)
C3 C 0.55638(18) 0.58508(14) 0.37236(12)
H1 H 0.631929 0.617054 0.368781
C4 C 0.29193(18) 0.49140(13) 0.47339(11)
C5 C 0.2206(3) 0.41813(16) 0.46089(14)
H2 H 0.234637 0.385407 0.417994
C6 C 0.1297(3) 0.39298(18) 0.51054(15)
H3 H 0.081230 0.343457 0.501092
C7 C 0.1085(2) 0.43908(16) 0.57374(13)
H4 H 0.046081 0.421429 0.607663
C8 C 0.1790(2) 0.51082(14) 0.58691(12)
H5 H 0.165730 0.542410 0.630513
C9 C 0.26901(18) 0.53738(13) 0.53723(12)
H6 H 0.315817 0.587609 0.546740
C10 C 0.30802(19) 0.45005(13) 0.30649(11)
C11 C 0.3537(2) 0.36786(14) 0.29386(12)
C12 C 0.2752(2) 0.31171(15) 0.25675(13)
H7 H 0.302529 0.255198 0.247722
C13 C 0.1579(2) 0.33745(16) 0.23294(14)
H8 H 0.105241 0.298294 0.207929
C14 C 0.1162(2) 0.41954(16) 0.24507(14)
H9 H 0.035913 0.436269 0.227438
C15 C 0.1902(2) 0.47796(14) 0.28270(12)
C16 C 0.1442(2) 0.56831(15) 0.29599(14)
H10 H 0.181177 0.588414 0.343218
C17 C 0.0017(3) 0.5745(2) 0.30214(19)
H11 H -0.036815 0.556559 0.255955
H12 H -0.022241 0.633419 0.312643
H13 H -0.027672 0.537596 0.341788
C18 C 0.1907(3) 0.62739(18) 0.2353(2)
H14 H 0.282688 0.625231 0.232963
H15 H 0.163668 0.685689 0.245775
H16 H 0.155364 0.609116 0.188376
C19 C 0.4813(2) 0.33862(15) 0.32049(14)
H17 H 0.524750 0.388564 0.342977
C20 C 0.4698(3) 0.26983(19) 0.37888(18)
H18 H 0.424739 0.292660 0.421325
H19 H 0.553900 0.251303 0.393870
H20 H 0.423194 0.221321 0.358950
C21 C 0.5620(3) 0.3072(3) 0.25741(19)
H21 H 0.522404 0.257164 0.235228
H22 H 0.645621 0.291864 0.275679
H23 H 0.569882 0.352172 0.220654
C22 C 0.53972(17) 0.59377(14) 0.50635(11)
C23 C 0.61573(19) 0.53519(15) 0.54321(12)
C24 C 0.6736(2) 0.56342(16) 0.60702(13)
H24 H 0.724817 0.525385 0.634223
C25 C 0.6577(2) 0.64599(17) 0.63155(12)
H25 H 0.699020 0.664096 0.674918
C26 C 0.58224(19) 0.70244(15) 0.59341(12)
H26 H 0.572759 0.758971 0.610787
C27 C 0.51998(17) 0.67735(14) 0.52984(12)
C28 C 0.4342(2) 0.73948(14) 0.48947(12)
H27 H 0.383405 0.706502 0.453224
C29 C 0.3435(2) 0.78454(18) 0.54113(15)
H28 H 0.297575 0.742256 0.570028
H29 H 0.283736 0.818423 0.512590
H30 H 0.390930 0.821901 0.573971
C30 C 0.5111(3) 0.80599(18) 0.44751(17)
H31 H 0.567029 0.835841 0.481504
H32 H 0.454031 0.846904 0.424461
H33 H 0.561406 0.777707 0.409757
C31 C 0.6382(2) 0.44569(16) 0.51575(14)
H34 H 0.584590 0.436595 0.471484
C32 C 0.6021(5) 0.3795(2) 0.5727(2)
H35 H 0.657315 0.384881 0.615325
H36 H 0.611040 0.322507 0.551641
H37 H 0.514567 0.388375 0.587705
C33 C 0.7750(4) 0.4354(3) 0.4933(3)
H38 H 0.797358 0.479812 0.458049
H39 H 0.786995 0.379445 0.470804
H40 H 0.828933 0.440273 0.536576
loop_
_geom_bond_atom_site_label_1
_geom_bond_atom_site_label_2
_geom_bond_site_symmetry_1
_geom_bond_site_symmetry_2
O1 N4 1_555 1_555
N1 C1 1_555 1_555
N2 C1 1_555 1_555
N3 N4 1_555 1_555
C1 C4 1_555 1_555
C2 N1 1_555 1_555
C3 N2 1_555 1_555
H1 C3 1_555 1_555
C4 C5 1_555 1_555
C5 H2 1_555 1_555
C6 C5 1_555 1_555
H3 C6 1_555 1_555
C7 C6 1_555 1_555
H4 C7 1_555 1_555
C8 C7 1_555 1_555
H5 C8 1_555 1_555
C9 C4 1_555 1_555
H6 C9 1_555 1_555
C10 N1 1_555 1_555
C11 C10 1_555 1_555
C12 C11 1_555 1_555
H7 C12 1_555 1_555
C13 C12 1_555 1_555
H8 C13 1_555 1_555
C14 C13 1_555 1_555
H9 C14 1_555 1_555
C15 C10 1_555 1_555
C16 C15 1_555 1_555
H10 C16 1_555 1_555
C17 C16 1_555 1_555
H11 C17 1_555 1_555
H12 C17 1_555 1_555
H13 C17 1_555 1_555
C18 C16 1_555 1_555
H14 C18 1_555 1_555
H15 C18 1_555 1_555
H16 C18 1_555 1_555
C19 C11 1_555 1_555
H17 C19 1_555 1_555
C20 C19 1_555 1_555
H18 C20 1_555 1_555
H19 C20 1_555 1_555
H20 C20 1_555 1_555
C21 C19 1_555 1_555
H21 C21 1_555 1_555
H22 C21 1_555 1_555
H23 C21 1_555 1_555
C22 N2 1_555 1_555
C23 C22 1_555 1_555
C24 C23 1_555 1_555
H24 C24 1_555 1_555
C25 C24 1_555 1_555
H25 C25 1_555 1_555
C26 C25 1_555 1_555
H26 C26 1_555 1_555
C27 C22 1_555 1_555
C28 C27 1_555 1_555
H27 C28 1_555 1_555
C29 C28 1_555 1_555
H28 C29 1_555 1_555
H29 C29 1_555 1_555
H30 C29 1_555 1_555
C30 C28 1_555 1_555
H31 C30 1_555 1_555
H32 C30 1_555 1_555
H33 C30 1_555 1_555
C31 C23 1_555 1_555
H34 C31 1_555 1_555
C32 C31 1_555 1_555
H35 C32 1_555 1_555
H36 C32 1_555 1_555
H37 C32 1_555 1_555
C33 C31 1_555 1_555
H38 C33 1_555 1_555
H39 C33 1_555 1_555
H40 C33 1_555 1_555
N3 C2 1_555 1_555
C2 C3 1_555 1_555
C8 C9 1_555 1_555
C14 C15 1_555 1_555
C26 C27 1_555 1_555

#END
