
#######################################################################
#
#                 Cambridge Crystallographic Data Centre
#                                CCDC 
#
#######################################################################
#
# If this CIF has been generated from an entry in the Cambridge 
# Structural Database, then it will include bibliographic, chemical, 
# crystal, experimental, refinement or atomic coordinate data resulting 
# from the CCDC's data processing and validation procedures.
#
#######################################################################

data_LANVED
_chemical_formula_moiety         'C9 H11 N1 O2'
_chemical_name_systematic        4-Methoxy-N-methylbenzamide
_symmetry_cell_setting           monoclinic
_symmetry_space_group_name_H-M   'P 21/c'
_symmetry_Int_Tables_number      14
_space_group_name_Hall           '-P 2ybc'
loop_
_symmetry_equiv_pos_site_id
_symmetry_equiv_pos_as_xyz
1 x,y,z
2 -x,1/2+y,1/2-z
3 -x,-y,-z
4 x,1/2-y,1/2+z
_cell_length_a                   8.7350(17)
_cell_length_b                   9.2750(19)
_cell_length_c                   10.719(2)
_cell_angle_alpha                90
_cell_angle_beta                 99.83(3)
_cell_angle_gamma                90
_cell_volume                     855.673
_exptl_crystal_colour            colorless
_exptl_crystal_description       block
_cell_formula_units_Z            4
loop_
_atom_site_label
_atom_site_type_symbol
_atom_site_fract_x
_atom_site_fract_y
_atom_site_fract_z
N1 N -0.0727(2) 0.35158(19) 0.24974(17)
H1 H -0.0375 0.4382 0.2598
O1 O 0.4704(2) 0.42231(19) 0.72531(15)
C1 C 0.1914(3) 0.4288(2) 0.4363(2)
H2 H 0.1610 0.4937 0.3706
O2 O -0.0596(2) 0.12586(17) 0.32506(15)
C2 C 0.3083(3) 0.4659(2) 0.5335(2)
H3 H 0.3569 0.5550 0.5321
C3 C 0.3548(3) 0.3727(2) 0.63338(19)
C4 C 0.2849(3) 0.2390(3) 0.63200(19)
H4 H 0.3161 0.1740 0.6975
C5 C 0.1686(3) 0.2022(2) 0.5331(2)
H5 H 0.1229 0.1116 0.5328
C6 C 0.1180(2) 0.2963(2) 0.43448(19)
C7 C 0.5133(3) 0.3375(3) 0.8361(2)
H6 H 0.5957 0.3847 0.8921
H7 H 0.5481 0.2445 0.8131
H8 H 0.4253 0.3260 0.8779
C8 C -0.0109(2) 0.2511(2) 0.33215(18)
C9 C -0.1962(3) 0.3222(3) 0.1440(2)
H9 H -0.2229 0.4094 0.0970
H10 H -0.2857 0.2867 0.1753
H11 H -0.1618 0.2512 0.0898
loop_
_geom_bond_atom_site_label_1
_geom_bond_atom_site_label_2
_geom_bond_site_symmetry_1
_geom_bond_site_symmetry_2
N1 H1 1_555 1_555
O1 C3 1_555 1_555
C1 H2 1_555 1_555
O2 C8 1_555 1_555
C2 C1 1_555 1_555
H3 C2 1_555 1_555
C3 C2 1_555 1_555
C4 C3 1_555 1_555
H4 C4 1_555 1_555
C5 C4 1_555 1_555
H5 C5 1_555 1_555
C6 C1 1_555 1_555
C7 O1 1_555 1_555
H6 C7 1_555 1_555
H7 C7 1_555 1_555
H8 C7 1_555 1_555
C8 N1 1_555 1_555
C9 N1 1_555 1_555
H9 C9 1_555 1_555
H10 C9 1_555 1_555
H11 C9 1_555 1_555
C5 C6 1_555 1_555
C6 C8 1_555 1_555

#END
