
#######################################################################
#
#                 Cambridge Crystallographic Data Centre
#                                CCDC 
#
#######################################################################
#
# If this CIF has been generated from an entry in the Cambridge 
# Structural Database, then it will include bibliographic, chemical, 
# crystal, experimental, refinement or atomic coordinate data resulting 
# from the CCDC's data processing and validation procedures.
#
#######################################################################

data_LANVUU
_chemical_formula_moiety         'C78 H106 K2 N12 O9'
_chemical_name_systematic        
"bis(\m~2~-2,2'-(1,3-bis(2,6-di-isopropylphenyl)-2-phenylimidazol-3-ium-4,5-diyl)di(diazen-1-olate))-(\m~2~-tetrahydrofuran)-diaqua-bis(tetrahydrofuran)-di-potassium unknown solvate"
_symmetry_cell_setting           monoclinic
_symmetry_space_group_name_H-M   'P 2/n'
_symmetry_Int_Tables_number      13
_space_group_name_Hall           '-P 2yac'
loop_
_symmetry_equiv_pos_site_id
_symmetry_equiv_pos_as_xyz
1 x,y,z
2 1/2-x,y,1/2-z
3 -x,-y,-z
4 1/2+x,-y,1/2+z
_cell_length_a                   16.89427(17)
_cell_length_b                   12.89091(13)
_cell_length_c                   20.8753(2)
_cell_angle_alpha                90
_cell_angle_beta                 109.3465(12)
_cell_angle_gamma                90
_cell_volume                     4289.56
_exptl_crystal_colour            yellow
_exptl_crystal_description       plate
_cell_formula_units_Z            2
loop_
_atom_site_label
_atom_site_type_symbol
_atom_site_fract_x
_atom_site_fract_y
_atom_site_fract_z
K1 K 0.86343(13) 0.1477(2) 0.23905(10)
O1 O 0.52099(18) 0.3199(3) 0.30547(15)
O2 O 0.80178(17) 0.0796(2) 0.33513(13)
O3 O 0.9488(4) 0.0005(5) 0.1809(3)
C1 C 1.0269(4) -0.0305(7) 0.2172(4)
H1 H 1.035379 -0.104246 0.208071
H2 H 1.037343 -0.021571 0.266420
C2 C 1.0840(6) 0.0386(8) 0.1937(4)
H3 H 1.132755 -0.000808 0.190405
H4 H 1.104421 0.097558 0.225257
C3 C 1.0293(4) 0.0759(7) 0.1248(4)
H5 H 1.052336 0.054025 0.089062
H6 H 1.024015 0.152436 0.123922
C4 C 0.9456(5) 0.0246(8) 0.1152(4)
H7 H 0.898665 0.072596 0.093264
H8 H 0.938887 -0.038809 0.087110
C5 C 0.7849(6) 0.3860(5) 0.3085(3)
H9 H 0.747392 0.389116 0.336174
H10 H 0.840809 0.361523 0.337646
C6 C 0.7917(5) 0.4890(5) 0.2800(4)
H11 H 0.841001 0.493859 0.264533
H12 H 0.793871 0.545498 0.312721
O4 O 0.750000 0.3152(3) 0.250000
O5 O 1.0361(3) 0.2041(3) 0.2998(2)
N1 N 0.81774(12) 0.24657(16) 0.50511(10)
N2 N 0.72440(12) 0.36193(16) 0.50610(11)
N3 N 0.61030(15) 0.3306(2) 0.40532(13)
N4 N 0.59155(19) 0.2988(3) 0.34389(15)
N5 N 0.74135(14) 0.15700(19) 0.39612(12)
N6 N 0.80694(17) 0.1436(2) 0.37881(13)
C7 C 0.80087(14) 0.32399(19) 0.54195(12)
C8 C 0.69130(15) 0.3067(2) 0.44567(13)
C9 C 0.75037(14) 0.23419(19) 0.44433(12)
C10 C 0.85671(14) 0.3664(2) 0.60637(12)
C11 C 0.90495(16) 0.3027(2) 0.65868(13)
H13 H 0.900859 0.229343 0.654166
C12 C 0.95937(19) 0.3475(3) 0.71781(14)
H14 H 0.992748 0.304146 0.753336
C13 C 0.96526(18) 0.4538(3) 0.72529(14)
H15 H 1.002208 0.483366 0.765889
C14 C 0.91729(18) 0.5173(2) 0.67359(15)
H16 H 0.921239 0.590566 0.678721
C15 C 0.86352(16) 0.4743(2) 0.61436(14)
H17 H 0.830996 0.518303 0.578868
C16 C 0.88953(15) 0.17761(19) 0.52987(12)
C17 C 0.96813(15) 0.2127(2) 0.53115(13)
C18 C 1.03559(17) 0.1451(2) 0.55876(15)
H18 H 1.090185 0.165926 0.560476
C19 C 1.0249(2) 0.0489(3) 0.58355(16)
H19 H 1.071794 0.004430 0.602010
C20 C 0.9462(2) 0.0171(2) 0.58158(16)
H20 H 0.939493 -0.049286 0.598855
C21 C 0.87630(18) 0.0806(2) 0.55474(14)
C22 C 0.98266(16) 0.3173(2) 0.50379(15)
H21 H 0.928138 0.355702 0.488918
C23 C 1.0102(2) 0.3017(3) 0.44158(17)
H22 H 1.064716 0.266625 0.455295
H23 H 1.014906 0.369285 0.421655
H24 H 0.968553 0.259184 0.407974
C24 C 1.04632(18) 0.3819(3) 0.55891(18)
H25 H 1.024423 0.395000 0.596150
H26 H 1.055815 0.448135 0.539560
H27 H 1.099391 0.343861 0.576215
C25 C 0.7903(2) 0.0434(2) 0.55370(19)
H28 H 0.748336 0.098409 0.531703
C26 C 0.7880(3) 0.0260(4) 0.6254(3)
H29 H 0.828430 -0.028079 0.647901
H30 H 0.731496 0.004179 0.623085
H31 H 0.802499 0.090661 0.651364
C27 C 0.7662(3) -0.0556(3) 0.5105(3)
H32 H 0.768106 -0.041998 0.464890
H33 H 0.709330 -0.076841 0.507438
H34 H 0.805784 -0.111195 0.531766
C28 C 0.67404(14) 0.4308(2) 0.53166(13)
C29 C 0.66188(15) 0.5330(2) 0.50897(14)
C30 C 0.61019(16) 0.5942(2) 0.53360(16)
H35 H 0.600466 0.664387 0.519342
C31 C 0.57285(17) 0.5552(3) 0.57813(17)
H36 H 0.537854 0.598489 0.594123
C32 C 0.58638(17) 0.4532(3) 0.59950(16)
H37 H 0.561093 0.427255 0.630697
C33 C 0.63640(16) 0.3878(2) 0.57607(14)
C34 C 0.70044(16) 0.5775(2) 0.45866(15)
H38 H 0.744331 0.528028 0.454979
C35 C 0.63416(19) 0.5888(3) 0.38807(17)
H39 H 0.607706 0.521397 0.373060
H40 H 0.661001 0.613424 0.355863
H41 H 0.591427 0.638843 0.390202
C36 C 0.74237(19) 0.6825(2) 0.48176(19)
H42 H 0.699647 0.733718 0.482078
H43 H 0.771151 0.705117 0.450416
H44 H 0.783167 0.675875 0.527575
C37 C 0.64558(18) 0.2745(3) 0.59608(16)
H45 H 0.692088 0.246077 0.581601
C38 C 0.6713(4) 0.2600(5) 0.6716(2)
H46 H 0.723877 0.297287 0.693621
H47 H 0.679373 0.186013 0.682484
H48 H 0.627386 0.287423 0.688029
C39 C 0.5672(3) 0.2140(3) 0.5578(3)
H49 H 0.520431 0.237435 0.572067
H50 H 0.577020 0.139910 0.567672
H51 H 0.553554 0.225694 0.508943
C5A C 0.7151(6) 0.3860(5) 0.1915(3)
H9A H 0.752608 0.389116 0.163826
H10A H 0.659191 0.361523 0.162354
C6A C 0.7083(5) 0.4890(5) 0.2200(4)
H11A H 0.658999 0.493859 0.235467
H12A H 0.706129 0.545498 0.187279
K1A K 0.63657(13) 0.1477(2) 0.26095(10)
O1A O 0.97901(18) 0.3199(3) 0.19453(15)
O2A O 0.69822(17) 0.0796(2) 0.16487(13)
O3A O 0.5512(4) 0.0005(5) 0.3191(3)
C1A C 0.4731(4) -0.0305(7) 0.2828(4)
H1A H 0.464621 -0.104246 0.291929
H2A H 0.462657 -0.021571 0.233580
C2A C 0.4160(6) 0.0386(8) 0.3063(4)
H3A H 0.367245 -0.000808 0.309595
H4A H 0.395579 0.097558 0.274743
C3A C 0.4707(4) 0.0759(7) 0.3752(4)
H5A H 0.447664 0.054025 0.410938
H6A H 0.475985 0.152436 0.376078
C4A C 0.5544(5) 0.0246(8) 0.3848(4)
H7A H 0.601335 0.072596 0.406736
H8A H 0.561113 -0.038809 0.412890
O5A O 0.4639(3) 0.2041(3) 0.2002(2)
N1A N 0.68226(12) 0.24657(16) -0.00511(10)
N2A N 0.77560(12) 0.36193(16) -0.00610(11)
N3A N 0.88970(15) 0.3306(2) 0.09468(13)
N4A N 0.90845(19) 0.2988(3) 0.15611(15)
N5A N 0.75865(14) 0.15700(19) 0.10388(12)
N6A N 0.69306(17) 0.1436(2) 0.12119(13)
C7A C 0.69913(14) 0.32399(19) -0.04195(12)
C8A C 0.80870(15) 0.3067(2) 0.05433(13)
C9A C 0.74963(14) 0.23419(19) 0.05567(12)
C10A C 0.64329(14) 0.3664(2) -0.10637(12)
C11A C 0.59505(16) 0.3027(2) -0.15868(13)
H13A H 0.599141 0.229343 -0.154166
C12A C 0.54063(19) 0.3475(3) -0.21781(14)
H14A H 0.507252 0.304146 -0.253336
C13A C 0.53474(18) 0.4538(3) -0.22529(14)
H15A H 0.497792 0.483366 -0.265889
C14A C 0.58271(18) 0.5173(2) -0.17359(15)
H16A H 0.578761 0.590566 -0.178721
C15A C 0.63648(16) 0.4743(2) -0.11436(14)
H17A H 0.669004 0.518303 -0.078868
C16A C 0.61047(15) 0.17761(19) -0.02987(12)
C17A C 0.53187(15) 0.2127(2) -0.03115(13)
C18A C 0.46441(17) 0.1451(2) -0.05876(15)
H18A H 0.409815 0.165926 -0.060476
C19A C 0.4751(2) 0.0489(3) -0.08355(16)
H19A H 0.428206 0.004430 -0.102010
C20A C 0.5538(2) 0.0171(2) -0.08158(16)
H20A H 0.560507 -0.049286 -0.098855
C21A C 0.62370(18) 0.0806(2) -0.05474(14)
C22A C 0.51734(16) 0.3173(2) -0.00379(15)
H21A H 0.571862 0.355702 0.011082
C23A C 0.4898(2) 0.3017(3) 0.05842(17)
H22A H 0.435284 0.266625 0.044705
H23A H 0.485094 0.369285 0.078345
H24A H 0.531447 0.259184 0.092026
C24A C 0.45368(18) 0.3819(3) -0.05891(18)
H25A H 0.475577 0.395000 -0.096150
H26A H 0.444185 0.448135 -0.039560
H27A H 0.400609 0.343861 -0.076215
C25A C 0.7097(2) 0.0434(2) -0.05370(19)
H28A H 0.751664 0.098409 -0.031703
C26A C 0.7120(3) 0.0260(4) -0.1254(3)
H29A H 0.671570 -0.028079 -0.147901
H30A H 0.768504 0.004179 -0.123085
H31A H 0.697501 0.090661 -0.151364
C27A C 0.7338(3) -0.0556(3) -0.0105(3)
H32A H 0.731894 -0.041998 0.035110
H33A H 0.790670 -0.076841 -0.007438
H34A H 0.694216 -0.111195 -0.031766
C28A C 0.82596(14) 0.4308(2) -0.03166(13)
C29A C 0.83812(15) 0.5330(2) -0.00897(14)
C30A C 0.88981(16) 0.5942(2) -0.03360(16)
H35A H 0.899534 0.664387 -0.019342
C31A C 0.92715(17) 0.5552(3) -0.07813(17)
H36A H 0.962146 0.598489 -0.094123
C32A C 0.91362(17) 0.4532(3) -0.09950(16)
H37A H 0.938907 0.427255 -0.130697
C33A C 0.86360(16) 0.3878(2) -0.07607(14)
C34A C 0.79956(16) 0.5775(2) 0.04134(15)
H38A H 0.755669 0.528028 0.045021
C35A C 0.86584(19) 0.5888(3) 0.11193(17)
H39A H 0.892294 0.521397 0.126940
H40A H 0.838999 0.613424 0.144137
H41A H 0.908573 0.638843 0.109798
C36A C 0.75763(19) 0.6825(2) 0.01824(19)
H42A H 0.800353 0.733718 0.017922
H43A H 0.728849 0.705117 0.049584
H44A H 0.716833 0.675875 -0.027575
C37A C 0.85442(18) 0.2745(3) -0.09608(16)
H45A H 0.807912 0.246077 -0.081601
C38A C 0.8287(4) 0.2600(5) -0.1716(2)
H46A H 0.776123 0.297287 -0.193621
H47A H 0.820627 0.186013 -0.182484
H48A H 0.872614 0.287423 -0.188029
C39A C 0.9328(3) 0.2140(3) -0.0578(3)
H49A H 0.979569 0.237435 -0.072067
H50A H 0.922980 0.139910 -0.067672
H51A H 0.946446 0.225694 -0.008943
K2? K 0.8632(4) 0.1416(6) 0.2507(4)
O6? O 0.6304(5) 0.3422(7) 0.3159(4)
O7? O 0.8606(4) 0.1933(6) 0.3781(4)
O8? O 0.9421(9) -0.0375(11) 0.2100(8)
C40? C 0.9883(14) 0.0540(15) 0.2285(11)
H52? H 1.036431 0.049358 0.271283
H53? H 0.954123 0.116769 0.227387
C41? C 1.0105(14) 0.036(2) 0.1642(10)
H54? H 1.053541 -0.019607 0.174979
H55? H 1.038273 0.099759 0.156262
C42? C 0.9448(16) 0.007(2) 0.0964(10)
H56? H 0.908735 0.064930 0.072546
H57? H 0.966795 -0.033416 0.065487
C43? C 0.9081(12) -0.0589(17) 0.1404(8)
H58? H 0.846723 -0.047308 0.125553
H59? H 0.917542 -0.133020 0.132861
C44? C 0.8217(9) 0.3777(12) 0.2946(10)
H60? H 0.844143 0.350684 0.341520
H61? H 0.867467 0.386858 0.275280
C45? C 0.7697(16) 0.4717(15) 0.2887(3)
H62? H 0.803940 0.534455 0.305926
H63? H 0.727285 0.463647 0.311668
loop_
_geom_bond_atom_site_label_1
_geom_bond_atom_site_label_2
_geom_bond_site_symmetry_1
_geom_bond_site_symmetry_2
K1 O2 1_555 1_555
O1 N4 1_555 1_555
O2 N6 1_555 1_555
O3 K1 1_555 1_555
C1 O3 1_555 1_555
H1 C1 1_555 1_555
H2 C1 1_555 1_555
C2 C1 1_555 1_555
H3 C2 1_555 1_555
H4 C2 1_555 1_555
C3 C2 1_555 1_555
H5 C3 1_555 1_555
H6 C3 1_555 1_555
C4 O3 1_555 1_555
H7 C4 1_555 1_555
H8 C4 1_555 1_555
C5 H9 1_555 1_555
H10 C5 1_555 1_555
C6 C5 1_555 1_555
H11 C6 1_555 1_555
H12 C6 1_555 1_555
O4 K1 1_555 1_555
O5 K1 1_555 1_555
N1 C7 1_555 1_555
N2 C7 1_555 1_555
N3 N4 1_555 1_555
N4 K1A 1_555 1_555
N5 N6 1_555 1_555
C7 C10 1_555 1_555
C8 N2 1_555 1_555
C9 N1 1_555 1_555
C10 C11 1_555 1_555
C11 H13 1_555 1_555
C12 C11 1_555 1_555
H14 C12 1_555 1_555
C13 C12 1_555 1_555
H15 C13 1_555 1_555
C14 C13 1_555 1_555
H16 C14 1_555 1_555
C15 C10 1_555 1_555
H17 C15 1_555 1_555
C16 N1 1_555 1_555
C17 C16 1_555 1_555
C18 C17 1_555 1_555
H18 C18 1_555 1_555
C19 C18 1_555 1_555
H19 C19 1_555 1_555
C20 C19 1_555 1_555
H20 C20 1_555 1_555
C21 C16 1_555 1_555
C22 C17 1_555 1_555
H21 C22 1_555 1_555
C23 C22 1_555 1_555
H22 C23 1_555 1_555
H23 C23 1_555 1_555
H24 C23 1_555 1_555
C24 C22 1_555 1_555
H25 C24 1_555 1_555
H26 C24 1_555 1_555
H27 C24 1_555 1_555
C25 C21 1_555 1_555
H28 C25 1_555 1_555
C26 C25 1_555 1_555
H29 C26 1_555 1_555
H30 C26 1_555 1_555
H31 C26 1_555 1_555
C27 C25 1_555 1_555
H32 C27 1_555 1_555
H33 C27 1_555 1_555
H34 C27 1_555 1_555
C28 N2 1_555 1_555
C29 C28 1_555 1_555
C30 C29 1_555 1_555
H35 C30 1_555 1_555
C31 C30 1_555 1_555
H36 C31 1_555 1_555
C32 C31 1_555 1_555
H37 C32 1_555 1_555
C33 C28 1_555 1_555
C34 C29 1_555 1_555
H38 C34 1_555 1_555
C35 C34 1_555 1_555
H39 C35 1_555 1_555
H40 C35 1_555 1_555
H41 C35 1_555 1_555
C36 C34 1_555 1_555
H42 C36 1_555 1_555
H43 C36 1_555 1_555
H44 C36 1_555 1_555
C37 C33 1_555 1_555
H45 C37 1_555 1_555
C38 C37 1_555 1_555
H46 C38 1_555 1_555
H47 C38 1_555 1_555
H48 C38 1_555 1_555
C39 C37 1_555 1_555
H49 C39 1_555 1_555
H50 C39 1_555 1_555
H51 C39 1_555 1_555
C5A O4 1_555 1_555
H9A C5A 1_555 1_555
H10A C5A 1_555 1_555
C6A C6 1_555 1_555
H11A C6A 1_555 1_555
H12A C6A 1_555 1_555
K1A O2 1_555 1_555
O1A N4A 1_555 1_555
O2A K1 1_555 1_555
O3A K1A 1_555 1_555
C1A O3A 1_555 1_555
H1A C1A 1_555 1_555
H2A C1A 1_555 1_555
C2A C1A 1_555 1_555
H3A C2A 1_555 1_555
H4A C2A 1_555 1_555
C3A C2A 1_555 1_555
H5A C3A 1_555 1_555
H6A C3A 1_555 1_555
C4A O3A 1_555 1_555
H7A C4A 1_555 1_555
H8A C4A 1_555 1_555
O5A K1A 1_555 1_555
N1A C7A 1_555 1_555
N2A C7A 1_555 1_555
N3A N4A 1_555 1_555
N4A K1 1_555 1_555
N5A K1 1_555 1_555
N6A O2A 1_555 1_555
C7A C10A 1_555 1_555
C8A N2A 1_555 1_555
C9A N1A 1_555 1_555
C10A C11A 1_555 1_555
C11A H13A 1_555 1_555
C12A C11A 1_555 1_555
H14A C12A 1_555 1_555
C13A C12A 1_555 1_555
H15A C13A 1_555 1_555
C14A C13A 1_555 1_555
H16A C14A 1_555 1_555
C15A C10A 1_555 1_555
H17A C15A 1_555 1_555
C16A N1A 1_555 1_555
C17A C16A 1_555 1_555
C18A C17A 1_555 1_555
H18A C18A 1_555 1_555
C19A C18A 1_555 1_555
H19A C19A 1_555 1_555
C20A C19A 1_555 1_555
H20A C20A 1_555 1_555
C21A C16A 1_555 1_555
C22A C17A 1_555 1_555
H21A C22A 1_555 1_555
C23A C22A 1_555 1_555
H22A C23A 1_555 1_555
H23A C23A 1_555 1_555
H24A C23A 1_555 1_555
C24A C22A 1_555 1_555
H25A C24A 1_555 1_555
H26A C24A 1_555 1_555
H27A C24A 1_555 1_555
C25A C21A 1_555 1_555
H28A C25A 1_555 1_555
C26A C25A 1_555 1_555
H29A C26A 1_555 1_555
H30A C26A 1_555 1_555
H31A C26A 1_555 1_555
C27A C25A 1_555 1_555
H32A C27A 1_555 1_555
H33A C27A 1_555 1_555
H34A C27A 1_555 1_555
C28A N2A 1_555 1_555
C29A C28A 1_555 1_555
C30A C29A 1_555 1_555
H35A C30A 1_555 1_555
C31A C30A 1_555 1_555
H36A C31A 1_555 1_555
C32A C31A 1_555 1_555
H37A C32A 1_555 1_555
C33A C28A 1_555 1_555
C34A C29A 1_555 1_555
H38A C34A 1_555 1_555
C35A C34A 1_555 1_555
H39A C35A 1_555 1_555
H40A C35A 1_555 1_555
H41A C35A 1_555 1_555
C36A C34A 1_555 1_555
H42A C36A 1_555 1_555
H43A C36A 1_555 1_555
H44A C36A 1_555 1_555
C37A C33A 1_555 1_555
H45A C37A 1_555 1_555
C38A C37A 1_555 1_555
H46A C38A 1_555 1_555
H47A C38A 1_555 1_555
H48A C38A 1_555 1_555
C39A C37A 1_555 1_555
H49A C39A 1_555 1_555
H50A C39A 1_555 1_555
H51A C39A 1_555 1_555
C3 C4 1_555 1_555
C5 O4 1_555 1_555
O4 K1A 1_555 1_555
N3 C8 1_555 1_555
N5 C9 1_555 1_555
N5 K1A 1_555 1_555
C8 C9 1_555 1_555
C14 C15 1_555 1_555
C20 C21 1_555 1_555
C32 C33 1_555 1_555
C5A C6A 1_555 1_555
K1A O2A 1_555 1_555
C3A C4A 1_555 1_555
N3A C8A 1_555 1_555
N5A N6A 1_555 1_555
N5A C9A 1_555 1_555
C8A C9A 1_555 1_555
C14A C15A 1_555 1_555
C20A C21A 1_555 1_555
C32A C33A 1_555 1_555

#END
