
#######################################################################
#
#                 Cambridge Crystallographic Data Centre
#                                CCDC 
#
#######################################################################
#
# If this CIF has been generated from an entry in the Cambridge 
# Structural Database, then it will include bibliographic, chemical, 
# crystal, experimental, refinement or atomic coordinate data resulting 
# from the CCDC's data processing and validation procedures.
#
#######################################################################

data_LANVOO
_chemical_formula_moiety         'C34 H42 N4 O1,C1 H4 O1'
_chemical_name_systematic        
'(1,3-bis(2,6-di-isopropylphenyl)-2-(4-methylphenyl)-1H-imidazol-3-ium-5-yl)diazen-1-olate methanol solvate'
_symmetry_cell_setting           monoclinic
_symmetry_space_group_name_H-M   'P 21/n'
_symmetry_Int_Tables_number      14
_space_group_name_Hall           '-P 2yn'
loop_
_symmetry_equiv_pos_site_id
_symmetry_equiv_pos_as_xyz
1 x,y,z
2 1/2-x,1/2+y,1/2-z
3 -x,-y,-z
4 1/2+x,1/2-y,1/2+z
_cell_length_a                   9.56973(17)
_cell_length_b                   16.6800(3)
_cell_length_c                   20.6981(4)
_cell_angle_alpha                90
_cell_angle_beta                 101.3468(19)
_cell_angle_gamma                90
_cell_volume                     3239.32
_exptl_crystal_colour            purple
_exptl_crystal_description       plate
_cell_formula_units_Z            4
loop_
_atom_site_label
_atom_site_type_symbol
_atom_site_fract_x
_atom_site_fract_y
_atom_site_fract_z
O1 O -0.0062(3) 0.24482(17) 0.20945(14)
N1 N 0.32528(15) 0.30990(8) 0.33900(7)
N2 N 0.29423(15) 0.18641(8) 0.36508(7)
N3 N 0.14278(18) 0.33306(10) 0.24448(9)
N4 N 0.0179(7) 0.2995(6) 0.2221(3)
C1 C 0.37480(18) 0.25179(9) 0.38301(8)
C2 C 0.20991(18) 0.28114(10) 0.29238(8)
C3 C 0.19244(18) 0.20282(10) 0.30903(9)
H1 H 0.123376 0.166452 0.286394
C4 C 0.49191(18) 0.25956(9) 0.43989(9)
C5 C 0.4740(2) 0.24023(11) 0.50302(10)
H2 H 0.384904 0.220051 0.509440
C6 C 0.5844(3) 0.25003(11) 0.55664(10)
H3 H 0.570110 0.235866 0.599325
C7 C 0.7152(2) 0.28010(10) 0.54930(10)
C8 C 0.7331(2) 0.29885(13) 0.48636(11)
H4 H 0.822566 0.318800 0.480193
C9 C 0.6235(2) 0.28923(12) 0.43186(10)
H5 H 0.638311 0.302883 0.389161
C10 C 0.8331(3) 0.29216(14) 0.60852(12)
H6 H 0.796001 0.283206 0.648814
H7 H 0.869655 0.347035 0.608424
H8 H 0.910297 0.254086 0.606838
C11 C 0.36698(18) 0.39365(9) 0.34700(8)
C12 C 0.3106(2) 0.43851(10) 0.39300(9)
C13 C 0.3551(2) 0.51806(11) 0.40189(10)
H9 H 0.321600 0.550129 0.433618
C14 C 0.4467(3) 0.55095(11) 0.36542(11)
H10 H 0.475019 0.605398 0.372095
C15 C 0.4975(2) 0.50577(11) 0.31950(11)
H11 H 0.559436 0.529694 0.294356
C16 C 0.45944(19) 0.42507(10) 0.30920(9)
C17 C 0.5155(2) 0.37820(11) 0.25692(10)
H12 H 0.487545 0.320788 0.260095
C18 C 0.6789(3) 0.38206(17) 0.26643(15)
H13 H 0.708433 0.437605 0.261464
H14 H 0.710577 0.348356 0.233301
H15 H 0.721666 0.362687 0.310595
C19 C 0.4461(3) 0.40906(15) 0.18871(11)
H16 H 0.342188 0.405360 0.183205
H17 H 0.477949 0.376530 0.154923
H18 H 0.473481 0.465080 0.184210
C20 C 0.2011(2) 0.40475(12) 0.42996(10)
H19 H 0.205739 0.344970 0.427373
C21 C 0.2294(4) 0.4273(2) 0.50222(13)
H20 H 0.326676 0.411628 0.522817
H21 H 0.161348 0.399577 0.524117
H22 H 0.218574 0.485400 0.506482
C22 C 0.0516(3) 0.4301(2) 0.39614(14)
H23 H 0.044093 0.488692 0.397151
H24 H -0.018372 0.406326 0.419224
H25 H 0.032966 0.411694 0.350289
C23 C 0.31019(18) 0.10835(9) 0.39684(8)
C24 C 0.22407(19) 0.09103(10) 0.44214(9)
C25 C 0.2370(2) 0.01453(11) 0.46976(9)
H26 H 0.181161 0.000486 0.501271
C26 C 0.3291(2) -0.04105(10) 0.45220(9)
H27 H 0.335836 -0.092861 0.471636
C27 C 0.4116(2) -0.02239(10) 0.40680(9)
H28 H 0.474306 -0.061583 0.395152
C28 C 0.40429(18) 0.05357(9) 0.37756(8)
C29 C 0.49025(19) 0.07346(10) 0.32547(9)
H29 H 0.498903 0.133102 0.323329
C30 C 0.6396(3) 0.0384(2) 0.34221(14)
H30 H 0.684778 0.054071 0.387094
H31 H 0.696141 0.058719 0.311073
H32 H 0.634122 -0.020191 0.339252
C31 C 0.4128(3) 0.04406(15) 0.25851(10)
H33 H 0.398916 -0.014066 0.260127
H34 H 0.469508 0.056657 0.225246
H35 H 0.319841 0.070620 0.246964
C32 C 0.1155(2) 0.14964(12) 0.45914(11)
H36 H 0.144455 0.204802 0.448156
C33 C 0.1080(3) 0.14836(16) 0.53197(13)
H37 H 0.068668 0.096940 0.542794
H38 H 0.046477 0.192064 0.541378
H39 H 0.203868 0.155270 0.558596
C34 C -0.0312(3) 0.13234(15) 0.41667(14)
H40 H -0.027188 0.139573 0.370082
H41 H -0.101436 0.169333 0.428674
H42 H -0.058821 0.077032 0.424058
O3 O 0.3334(6) 0.3358(3) 0.7375(3)
H46 H 0.391424 0.303063 0.726640
C35 C 0.2041(3) 0.3361(2) 0.68821(18)
H47 H 0.124730 0.317542 0.707888
H48 H 0.215066 0.300197 0.652030
H49 H 0.184632 0.390590 0.671202
O2? O -0.0637(3) 0.33144(18) 0.17082(16)
N5? N 0.0250(8) 0.3149(5) 0.2037(3)
H43? H 0.921301 0.306345 0.593903
H44? H 0.847647 0.242516 0.634293
H45? H 0.807006 0.335465 0.635879
O4? O 0.2326(4) 0.2892(2) 0.64046(17)
H50? H 0.303836 0.260488 0.655300
H51? H 0.293483 0.356609 0.714425
H52? H 0.153453 0.305059 0.716617
H53? H 0.144514 0.381056 0.668785
loop_
_geom_bond_atom_site_label_1
_geom_bond_atom_site_label_2
_geom_bond_site_symmetry_1
_geom_bond_site_symmetry_2
O1 N4 1_555 1_555
N1 C1 1_555 1_555
N2 C1 1_555 1_555
N3 N4 1_555 1_555
C1 C4 1_555 1_555
C2 N1 1_555 1_555
C3 N2 1_555 1_555
H1 C3 1_555 1_555
C4 C5 1_555 1_555
C5 H2 1_555 1_555
C6 C5 1_555 1_555
H3 C6 1_555 1_555
C7 C6 1_555 1_555
C8 C7 1_555 1_555
H4 C8 1_555 1_555
C9 C4 1_555 1_555
H5 C9 1_555 1_555
C10 C7 1_555 1_555
H6 C10 1_555 1_555
H7 C10 1_555 1_555
H8 C10 1_555 1_555
C11 N1 1_555 1_555
C12 C11 1_555 1_555
C13 C12 1_555 1_555
H9 C13 1_555 1_555
C14 C13 1_555 1_555
H10 C14 1_555 1_555
C15 C14 1_555 1_555
H11 C15 1_555 1_555
C16 C11 1_555 1_555
C17 C16 1_555 1_555
H12 C17 1_555 1_555
C18 C17 1_555 1_555
H13 C18 1_555 1_555
H14 C18 1_555 1_555
H15 C18 1_555 1_555
C19 C17 1_555 1_555
H16 C19 1_555 1_555
H17 C19 1_555 1_555
H18 C19 1_555 1_555
C20 C12 1_555 1_555
H19 C20 1_555 1_555
C21 C20 1_555 1_555
H20 C21 1_555 1_555
H21 C21 1_555 1_555
H22 C21 1_555 1_555
C22 C20 1_555 1_555
H23 C22 1_555 1_555
H24 C22 1_555 1_555
H25 C22 1_555 1_555
C23 N2 1_555 1_555
C24 C23 1_555 1_555
C25 C24 1_555 1_555
H26 C25 1_555 1_555
C26 C25 1_555 1_555
H27 C26 1_555 1_555
C27 C26 1_555 1_555
H28 C27 1_555 1_555
C28 C23 1_555 1_555
C29 C28 1_555 1_555
H29 C29 1_555 1_555
C30 C29 1_555 1_555
H30 C30 1_555 1_555
H31 C30 1_555 1_555
H32 C30 1_555 1_555
C31 C29 1_555 1_555
H33 C31 1_555 1_555
H34 C31 1_555 1_555
H35 C31 1_555 1_555
C32 C24 1_555 1_555
H36 C32 1_555 1_555
C33 C32 1_555 1_555
H37 C33 1_555 1_555
H38 C33 1_555 1_555
H39 C33 1_555 1_555
C34 C32 1_555 1_555
H40 C34 1_555 1_555
H41 C34 1_555 1_555
H42 C34 1_555 1_555
O3 H46 1_555 1_555
C35 O3 1_555 1_555
H47 C35 1_555 1_555
H48 C35 1_555 1_555
H49 C35 1_555 1_555
N3 C2 1_555 1_555
C2 C3 1_555 1_555
C8 C9 1_555 1_555
C15 C16 1_555 1_555
C27 C28 1_555 1_555

#END
