
#######################################################################
#
#                 Cambridge Crystallographic Data Centre
#                                CCDC 
#
#######################################################################
#
# If this CIF has been generated from an entry in the Cambridge 
# Structural Database, then it will include bibliographic, chemical, 
# crystal, experimental, refinement or atomic coordinate data resulting 
# from the CCDC's data processing and validation procedures.
#
#######################################################################

data_LANWAA
_chemical_formula_moiety         'C6 H16 N1 1+,C18 H13 O8 1-'
_chemical_name_systematic        
'Triethylammonium (2R,3R)-2,3-bis(benzoyloxy)-3-carboxypropanoate'
_symmetry_cell_setting           orthorhombic
_symmetry_space_group_name_H-M   'P 21 21 21'
_symmetry_Int_Tables_number      19
_space_group_name_Hall           'P 2ac 2ab'
loop_
_symmetry_equiv_pos_site_id
_symmetry_equiv_pos_as_xyz
1 x,y,z
2 1/2-x,-y,1/2+z
3 -x,1/2+y,1/2-z
4 1/2+x,1/2-y,-z
_cell_length_a                   11.2148(12)
_cell_length_b                   12.9835(13)
_cell_length_c                   15.9499(17)
_cell_angle_alpha                90
_cell_angle_beta                 90
_cell_angle_gamma                90
_cell_volume                     2322.42
_exptl_crystal_colour            colorless
_exptl_crystal_description       block
_cell_formula_units_Z            4
loop_
_atom_site_label
_atom_site_type_symbol
_atom_site_fract_x
_atom_site_fract_y
_atom_site_fract_z
C1 C 0.8315(2) 0.31475(18) 0.91650(17)
C2 C 0.7651(2) 0.3345(2) 0.98812(17)
H1 H 0.7737 0.3971 1.0157
C3 C 0.6859(3) 0.2615(2) 1.01896(18)
H2 H 0.6412 0.2752 1.0668
C4 C 0.6740(2) 0.1687(2) 0.97802(19)
H3 H 0.6215 0.1195 0.9988
C5 C 0.7395(2) 0.14762(19) 0.90625(18)
H4 H 0.7306 0.0848 0.8790
C6 C 0.8185(2) 0.22080(18) 0.87521(17)
H5 H 0.8625 0.2071 0.8271
C7 C 0.9139(2) 0.3955(2) 0.88549(16)
C8 C 1.0565(2) 0.43421(16) 0.77853(17)
H6 H 1.0692 0.4933 0.8157
C9 C 1.1775(2) 0.38534(17) 0.75872(16)
C10 C 0.9965(2) 0.47203(17) 0.69826(16)
H7 H 1.0568 0.5027 0.6614
C11 C 0.8990(2) 0.55163(17) 0.71601(18)
C12 C 0.9025(2) 0.3985(2) 0.58089(18)
C13 C 0.8401(2) 0.30655(18) 0.54713(17)
C14 C 0.8626(2) 0.2078(2) 0.5773(2)
H8 H 0.9170 0.1978 0.6205
C15 C 0.8031(3) 0.1247(2) 0.5423(2)
H9 H 0.8191 0.0584 0.5614
C16 C 0.7203(3) 0.1396(2) 0.4795(2)
H10 H 0.6806 0.0834 0.4566
C17 C 0.6964(3) 0.2369(2) 0.45069(19)
H11 H 0.6394 0.2467 0.4091
C18 C 0.7572(2) 0.3209(2) 0.48357(18)
H12 H 0.7423 0.3867 0.4630
O1 O 0.98006(14) 0.36173(11) 0.82011(11)
O2 O 0.92394(19) 0.48083(14) 0.91440(14)
O3 O 1.19370(14) 0.29069(12) 0.76840(12)
O4 O 1.25517(14) 0.44777(12) 0.73477(13)
O5 O 0.94968(15) 0.64074(12) 0.73381(13)
H29 H 0.891(3) 0.691(2) 0.735(2)
O6 O 0.79444(15) 0.53471(14) 0.71332(15)
O7 O 0.94704(15) 0.38233(11) 0.65836(11)
O8 O 0.91205(18) 0.47972(14) 0.54453(13)
C19 C 0.5614(2) 0.4077(2) 0.7214(2)
H13 H 0.6369 0.3714 0.7220
H14 H 0.5653 0.4619 0.7631
C20 C 0.5432(3) 0.4554(3) 0.6361(2)
H15 H 0.4659 0.4871 0.6337
H16 H 0.5486 0.4030 0.5938
H17 H 0.6034 0.5066 0.6265
C21 C 0.4518(3) 0.2449(2) 0.6854(2)
H18 H 0.4350 0.2709 0.6296
H19 H 0.3841 0.2037 0.7029
C22 C 0.5604(3) 0.1767(2) 0.6811(3)
H20 H 0.5752 0.1471 0.7353
H21 H 0.6281 0.2168 0.6641
H22 H 0.5470 0.1226 0.6411
C23 C 0.4718(3) 0.2984(2) 0.83353(18)
H23 H 0.5499 0.2684 0.8429
H24 H 0.4129 0.2447 0.8424
C24 C 0.4518(3) 0.3828(2) 0.89667(19)
H25 H 0.3797 0.4191 0.8832
H26 H 0.5179 0.4298 0.8954
H27 H 0.4451 0.3534 0.9517
N1 N 0.46413(19) 0.33463(16) 0.74420(14)
H28 H 0.391(3) 0.372(2) 0.7409(18)
loop_
_geom_bond_atom_site_label_1
_geom_bond_atom_site_label_2
_geom_bond_site_symmetry_1
_geom_bond_site_symmetry_2
C1 C2 1_555 1_555
C2 H1 1_555 1_555
C3 C2 1_555 1_555
H2 C3 1_555 1_555
C4 C3 1_555 1_555
H3 C4 1_555 1_555
C5 C4 1_555 1_555
H4 C5 1_555 1_555
C6 C1 1_555 1_555
H5 C6 1_555 1_555
C7 C1 1_555 1_555
C8 H6 1_555 1_555
C9 C8 1_555 1_555
C10 C8 1_555 1_555
H7 C10 1_555 1_555
C11 C10 1_555 1_555
C12 C13 1_555 1_555
C13 C14 1_555 1_555
C14 H8 1_555 1_555
C15 C14 1_555 1_555
H9 C15 1_555 1_555
C16 C15 1_555 1_555
H10 C16 1_555 1_555
C17 C16 1_555 1_555
H11 C17 1_555 1_555
C18 C13 1_555 1_555
H12 C18 1_555 1_555
C19 H13 1_555 1_555
H14 C19 1_555 1_555
C20 C19 1_555 1_555
H15 C20 1_555 1_555
H16 C20 1_555 1_555
H17 C20 1_555 1_555
C21 H18 1_555 1_555
H19 C21 1_555 1_555
C22 C21 1_555 1_555
H20 C22 1_555 1_555
H21 C22 1_555 1_555
H22 C22 1_555 1_555
C23 H23 1_555 1_555
H24 C23 1_555 1_555
C24 C23 1_555 1_555
H25 C24 1_555 1_555
H26 C24 1_555 1_555
H27 C24 1_555 1_555
N1 C19 1_555 1_555
H28 N1 1_555 1_555
O1 C7 1_555 1_555
O2 C7 1_555 1_555
O3 C9 1_555 1_555
O4 C9 1_555 1_555
O5 C11 1_555 1_555
H29 O5 1_555 1_555
O6 C11 1_555 1_555
O7 C10 1_555 1_555
O8 C12 1_555 1_555
C5 C6 1_555 1_555
C8 O1 1_555 1_555
C12 O7 1_555 1_555
C17 C18 1_555 1_555
C21 N1 1_555 1_555
C23 N1 1_555 1_555

#END
