
#######################################################################
#
#                 Cambridge Crystallographic Data Centre
#                                CCDC 
#
#######################################################################
#
# If this CIF has been generated from an entry in the Cambridge 
# Structural Database, then it will include bibliographic, chemical, 
# crystal, experimental, refinement or atomic coordinate data resulting 
# from the CCDC's data processing and validation procedures.
#
#######################################################################

data_LANWAB
_chemical_formula_moiety         'C40 H47 N4 O1 1+,Br1 1-'
_chemical_name_systematic        
'4-[(benzyloxy)diazenyl]-1,3-bis[2,6-bis(propan-2-yl)phenyl]-2-phenyl-1H-imidazol-3-ium bromide unknown solvate'
_symmetry_cell_setting           monoclinic
_symmetry_space_group_name_H-M   'C 2/c'
_symmetry_Int_Tables_number      15
_space_group_name_Hall           '-C 2yn'
loop_
_symmetry_equiv_pos_site_id
_symmetry_equiv_pos_as_xyz
1 x,y,z
2 -x,y,1/2-z
3 1/2+x,1/2+y,z
4 1/2-x,1/2+y,1/2-z
5 -x,-y,-z
6 x,-y,1/2+z
7 1/2-x,1/2-y,-z
8 1/2+x,1/2-y,1/2+z
_cell_length_a                   14.5259(3)
_cell_length_b                   19.9419(3)
_cell_length_c                   29.1694(6)
_cell_angle_alpha                90
_cell_angle_beta                 101.0551(18)
_cell_angle_gamma                90
_cell_volume                     8292.82
_exptl_crystal_colour            green
_exptl_crystal_description       plate
_cell_formula_units_Z            8
loop_
_atom_site_label
_atom_site_type_symbol
_atom_site_fract_x
_atom_site_fract_y
_atom_site_fract_z
Br1 Br 0.500000 0.60692(2) 0.250000
Br2 Br 0.500000 0.96551(2) 0.250000
N1 N 0.72663(10) 0.75147(7) 0.30166(6)
N2 N 0.72462(10) 0.80456(7) 0.36641(5)
N3 N 0.6098(7) 0.7520(5) 0.4008(2)
N4 N 0.5476(2) 0.70862(17) 0.40373(13)
O1 O 0.5291(2) 0.66721(15) 0.36432(11)
C1 C 0.4663(3) 0.61343(18) 0.37036(17)
H1 H 0.433082 0.598391 0.339216
H2 H 0.418696 0.630738 0.387488
C2 C 0.76771(12) 0.80136(8) 0.32979(6)
C3 C 0.65513(12) 0.75498(9) 0.36133(7)
C4 C 0.65615(12) 0.72296(8) 0.32039(7)
H3 H 0.615819 0.687579 0.307210
C5 C 0.84338(13) 0.84502(9) 0.32090(6)
C6 C 0.93175(16) 0.81994(12) 0.32110(8)
H4 H 0.944526 0.773726 0.327180
C7 C 1.00221(18) 0.86248(15) 0.31236(10)
H5 H 1.063462 0.845399 0.312907
C8 C 0.98361(18) 0.92912(13) 0.30294(7)
H6 H 1.032174 0.958027 0.297251
C9 C 0.89567(19) 0.95396(12) 0.30173(8)
H7 H 0.883178 0.999952 0.294658
C10 C 0.82422(17) 0.91263(10) 0.31074(8)
H8 H 0.763121 0.930127 0.310000
C11 C 0.75908(13) 0.72712(9) 0.26063(7)
C12 C 0.73584(13) 0.76314(9) 0.21905(7)
C13 C 0.76940(16) 0.73796(11) 0.18080(8)
H9 H 0.755832 0.761048 0.151795
C14 C 0.82242(17) 0.67957(12) 0.18453(8)
H10 H 0.844741 0.663274 0.158070
C15 C 0.84311(16) 0.64490(11) 0.22620(8)
H11 H 0.879021 0.604842 0.227983
C16 C 0.81204(14) 0.66789(10) 0.26560(7)
C17 C 0.67128(13) 0.82371(9) 0.21449(7)
H12 H 0.671661 0.841237 0.246645
C18 C 0.70208(16) 0.88036(10) 0.18601(9)
H13 H 0.766512 0.893450 0.199714
H14 H 0.660284 0.918904 0.186150
H15 H 0.699306 0.865259 0.153804
C19 C 0.57111(15) 0.80151(11) 0.19388(9)
H16 H 0.567365 0.787870 0.161296
H17 H 0.527851 0.838845 0.195240
H18 H 0.553940 0.763591 0.211893
C20 C 0.83254(15) 0.62791(10) 0.31088(8)
H19 H 0.808861 0.653989 0.335515
C21 C 0.93756(17) 0.61569(12) 0.32755(9)
H20 H 0.961210 0.587639 0.304762
H21 H 0.948010 0.592884 0.357866
H22 H 0.970764 0.658722 0.330706
C22 C 0.77976(18) 0.56125(11) 0.30398(10)
H23 H 0.712457 0.569856 0.294075
H24 H 0.790768 0.536258 0.333451
H25 H 0.802217 0.534890 0.279975
C23 C 0.75772(13) 0.84299(9) 0.40879(6)
C24 C 0.71603(14) 0.90413(10) 0.41495(7)
C25 C 0.74788(15) 0.93745(11) 0.45725(7)
H26 H 0.720899 0.979302 0.462907
C26 C 0.81794(16) 0.91038(12) 0.49086(7)
H27 H 0.838197 0.933489 0.519500
C27 C 0.85870(15) 0.85001(12) 0.48315(7)
H28 H 0.907177 0.832267 0.506545
C28 C 0.83023(13) 0.81457(10) 0.44176(7)
C29 C 0.63767(15) 0.93469(10) 0.37897(8)
H29 H 0.632892 0.908704 0.349291
C30 C 0.54397(17) 0.92898(14) 0.39498(10)
H30 H 0.530992 0.881755 0.400521
H31 H 0.493960 0.947085 0.370762
H32 H 0.546775 0.954447 0.423955
C31 C 0.65820(19) 1.00800(11) 0.36868(9)
H33 H 0.653295 1.035762 0.395826
H34 H 0.612711 1.023518 0.341488
H35 H 0.721723 1.011578 0.362133
C32 C 0.87568(15) 0.74772(11) 0.43418(8)
H36 H 0.853426 0.734744 0.400782
C33 C 0.98236(17) 0.75354(15) 0.44232(12)
H37 H 0.999803 0.789624 0.422834
H38 H 1.009011 0.711087 0.434051
H39 H 1.006750 0.763627 0.475291
C34 C 0.8437(2) 0.69314(15) 0.46436(13)
H40 H 0.866033 0.703766 0.497422
H41 H 0.869545 0.649846 0.457159
H42 H 0.775053 0.690773 0.457849
C35 C 0.51530(19) 0.55307(11) 0.39680(10)
C36 C 0.5988(2) 0.53814(11) 0.38342(8)
H43 H 0.622530 0.567552 0.362854
C37 C 0.6483(2) 0.48134(12) 0.39933(9)
H44 H 0.705523 0.471654 0.389517
C38 C 0.6151(2) 0.43819(12) 0.42957(9)
H45 H 0.649776 0.399208 0.440853
C39 C 0.5328(2) 0.45195(14) 0.44297(11)
H46 H 0.509421 0.422227 0.463499
C40 C 0.4822(2) 0.50928(15) 0.42688(13)
H47 H 0.424678 0.518511 0.436547
N5? N 0.5970(9) 0.7418(6) 0.3944(4)
N6? N 0.5534(4) 0.6892(3) 0.3785(2)
O2? O 0.4934(3) 0.67562(18) 0.40879(13)
C41? C 0.4481(4) 0.6135(2) 0.3913(3)
H48? H 0.420128 0.619145 0.357805
H49? H 0.396552 0.604077 0.408151
loop_
_geom_bond_atom_site_label_1
_geom_bond_atom_site_label_2
_geom_bond_site_symmetry_1
_geom_bond_site_symmetry_2
N1 C2 1_555 1_555
N2 C2 1_555 1_555
N3 N4 1_555 1_555
N4 O1 1_555 1_555
O1 C1 1_555 1_555
C1 H1 1_555 1_555
H2 C1 1_555 1_555
C2 C5 1_555 1_555
C3 N2 1_555 1_555
C4 N1 1_555 1_555
H3 C4 1_555 1_555
C5 C6 1_555 1_555
C6 H4 1_555 1_555
C7 C6 1_555 1_555
H5 C7 1_555 1_555
C8 C7 1_555 1_555
H6 C8 1_555 1_555
C9 C8 1_555 1_555
H7 C9 1_555 1_555
C10 C5 1_555 1_555
H8 C10 1_555 1_555
C11 N1 1_555 1_555
C12 C11 1_555 1_555
C13 C12 1_555 1_555
H9 C13 1_555 1_555
C14 C13 1_555 1_555
H10 C14 1_555 1_555
C15 C14 1_555 1_555
H11 C15 1_555 1_555
C16 C11 1_555 1_555
C17 C12 1_555 1_555
H12 C17 1_555 1_555
C18 C17 1_555 1_555
H13 C18 1_555 1_555
H14 C18 1_555 1_555
H15 C18 1_555 1_555
C19 C17 1_555 1_555
H16 C19 1_555 1_555
H17 C19 1_555 1_555
H18 C19 1_555 1_555
C20 C16 1_555 1_555
H19 C20 1_555 1_555
C21 C20 1_555 1_555
H20 C21 1_555 1_555
H21 C21 1_555 1_555
H22 C21 1_555 1_555
C22 C20 1_555 1_555
H23 C22 1_555 1_555
H24 C22 1_555 1_555
H25 C22 1_555 1_555
C23 N2 1_555 1_555
C24 C23 1_555 1_555
C25 C24 1_555 1_555
H26 C25 1_555 1_555
C26 C25 1_555 1_555
H27 C26 1_555 1_555
C27 C26 1_555 1_555
H28 C27 1_555 1_555
C28 C23 1_555 1_555
C29 C24 1_555 1_555
H29 C29 1_555 1_555
C30 C29 1_555 1_555
H30 C30 1_555 1_555
H31 C30 1_555 1_555
H32 C30 1_555 1_555
C31 C29 1_555 1_555
H33 C31 1_555 1_555
H34 C31 1_555 1_555
H35 C31 1_555 1_555
C32 C28 1_555 1_555
H36 C32 1_555 1_555
C33 C32 1_555 1_555
H37 C33 1_555 1_555
H38 C33 1_555 1_555
H39 C33 1_555 1_555
C34 C32 1_555 1_555
H40 C34 1_555 1_555
H41 C34 1_555 1_555
H42 C34 1_555 1_555
C35 C1 1_555 1_555
C36 C35 1_555 1_555
H43 C36 1_555 1_555
C37 C36 1_555 1_555
H44 C37 1_555 1_555
C38 C37 1_555 1_555
H45 C38 1_555 1_555
C39 C38 1_555 1_555
H46 C39 1_555 1_555
C40 C35 1_555 1_555
H47 C40 1_555 1_555
N3 C3 1_555 1_555
C3 C4 1_555 1_555
C9 C10 1_555 1_555
C15 C16 1_555 1_555
C27 C28 1_555 1_555
C39 C40 1_555 1_555

#END
