
#######################################################################
#
#                 Cambridge Crystallographic Data Centre
#                                CCDC 
#
#######################################################################
#
# If this CIF has been generated from an entry in the Cambridge 
# Structural Database, then it will include bibliographic, chemical, 
# crystal, experimental, refinement or atomic coordinate data resulting 
# from the CCDC's data processing and validation procedures.
#
#######################################################################

data_LANZUX
_chemical_formula_moiety         'C16 H16 N2 O3'
_chemical_name_systematic        
N'-(2-Hydroxy-4-methoxybenzylidene)-4-methylbenzohydrazide
_symmetry_cell_setting           monoclinic
_symmetry_space_group_name_H-M   'P 2/c'
_symmetry_Int_Tables_number      13
_space_group_name_Hall           '-P 2yc'
loop_
_symmetry_equiv_pos_site_id
_symmetry_equiv_pos_as_xyz
1 x,y,z
2 -x,y,1/2-z
3 -x,-y,-z
4 x,-y,1/2+z
_cell_length_a                   24.871(2)
_cell_length_b                   10.2350(10)
_cell_length_c                   23.855(2)
_cell_angle_alpha                90
_cell_angle_beta                 103.646(2)
_cell_angle_gamma                90
_cell_volume                     5900.99
_exptl_crystal_colour            colorless
_exptl_crystal_description       block
_cell_formula_units_Z            16
loop_
_atom_site_label
_atom_site_type_symbol
_atom_site_fract_x
_atom_site_fract_y
_atom_site_fract_z
N1 N 0.92673(14) 0.1214(3) 0.79103(16)
N2 N 0.87322(13) 0.1356(3) 0.75857(14)
O1 O 0.63670(12) -0.0053(3) 0.59691(14)
O2 O 0.78167(12) 0.2598(3) 0.70625(15)
H1 H 0.8137 0.2531 0.7252
O3 O 0.94118(12) 0.3387(3) 0.80046(13)
C1 C 0.68810(16) 0.0131(4) 0.63184(19)
C2 C 0.70901(16) 0.1315(4) 0.65208(18)
H5 H 0.6879 0.2068 0.6424
C3 C 0.76194(16) 0.1390(4) 0.68715(17)
C4 C 0.79378(16) 0.0272(4) 0.70278(17)
C5 C 0.77056(17) -0.0912(4) 0.68186(19)
H6 H 0.7909 -0.1674 0.6922
C6 C 0.71847(18) -0.0997(4) 0.6463(2)
H7 H 0.7039 -0.1802 0.6322
C7 C 0.60296(19) 0.1050(5) 0.5803(2)
H8 H 0.5965 0.1474 0.6140
H9 H 0.5683 0.0783 0.5558
H10 H 0.6211 0.1646 0.5597
C8 C 0.84853(16) 0.0293(4) 0.73875(18)
H11 H 0.8670 -0.0495 0.7482
C9 C 0.95849(17) 0.2261(4) 0.81013(17)
C10 C 1.01542(16) 0.1973(4) 0.84336(18)
C11 C 1.02782(17) 0.0892(4) 0.8785(2)
H12 H 1.0001 0.0298 0.8805
C12 C 1.08091(18) 0.0682(5) 0.9106(2)
H13 H 1.0882 -0.0041 0.9348
C13 C 1.12305(18) 0.1515(6) 0.9075(2)
C14 C 1.11118(19) 0.2569(5) 0.8716(2)
H14 H 1.1394 0.3140 0.8685
C15 C 1.05785(18) 0.2804(5) 0.83961(19)
H15 H 1.0507 0.3528 0.8155
C16 C 1.18103(19) 0.1298(6) 0.9441(2)
H16 H 1.2067 0.1826 0.9297
H17 H 1.1908 0.0394 0.9425
H18 H 1.1824 0.1537 0.9833
H63 H 0.9400(18) 0.0397(19) 0.796(2)
N3 N 0.61902(14) 0.8466(3) 0.73564(16)
N4 N 0.56628(15) 0.8716(3) 0.70371(17)
O7 O 0.86137(14) 0.8658(3) 0.89380(16)
O8 O 0.70205(13) 0.6939(3) 0.77412(16)
H3 H 0.6706 0.7141 0.7568
O9 O 0.54520(12) 0.6564(3) 0.70077(13)
C17 C 0.70300(17) 0.9248(4) 0.79355(18)
C18 C 0.72872(18) 0.8012(4) 0.80038(19)
C19 C 0.78091(19) 0.7856(5) 0.8342(2)
H19 H 0.7972 0.7033 0.8387
C20 C 0.80911(18) 0.8915(5) 0.8614(2)
C21 C 0.78479(19) 1.0141(4) 0.8562(2)
H20 H 0.8037 1.0856 0.8753
C22 C 0.73255(17) 1.0281(5) 0.8224(2)
H21 H 0.7163 1.1105 0.8187
C23 C 0.8935(2) 0.9669(5) 0.9235(2)
H22 H 0.9003 1.0306 0.8964
H23 H 0.9280 0.9325 0.9451
H24 H 0.8742 1.0074 0.9493
C24 C 0.64784(17) 0.9434(4) 0.75882(19)
H25 H 0.6331 1.0273 0.7533
C25 C 0.53174(18) 0.7693(4) 0.68643(19)
C26 C 0.47687(18) 0.8038(4) 0.65010(18)
C27 C 0.43139(19) 0.7321(5) 0.6551(2)
H26 H 0.4355 0.6644 0.6818
C28 C 0.37977(19) 0.7599(5) 0.6207(2)
H27 H 0.3494 0.7110 0.6247
C29 C 0.37244(19) 0.8584(5) 0.5806(2)
C30 C 0.4176(2) 0.9289(5) 0.5751(2)
H28 H 0.4136 0.9947 0.5475
C31 C 0.4689(2) 0.9031(5) 0.6101(2)
H29 H 0.4989 0.9540 0.6066
C32 C 0.3155(2) 0.8866(6) 0.5430(2)
H30 H 0.3082 0.8288 0.5104
H31 H 0.3140 0.9755 0.5299
H32 H 0.2882 0.8735 0.5650
H61 H 0.5578(19) 0.9566(15) 0.699(2)
N5 N 0.45980(15) 0.3732(3) 0.81847(16)
N6 N 0.49060(14) 0.3495(3) 0.87357(15)
O4 O 0.64814(14) 0.3930(3) 1.12381(14)
O5 O 0.52907(14) 0.2048(3) 0.96401(14)
H2 H 0.5131 0.2210 0.9306
O6 O 0.45309(12) 0.1576(3) 0.79925(13)
C33 C 0.54701(16) 0.4341(4) 0.95954(18)
C34 C 0.55453(17) 0.3140(4) 0.9892(2)
C35 C 0.58775(17) 0.3055(4) 1.0436(2)
H33 H 0.5920 0.2254 1.0625
C36 C 0.61482(18) 0.4123(4) 1.07044(19)
C37 C 0.60840(18) 0.5329(4) 1.04267(19)
H34 H 0.6269 0.6063 1.0606
C38 C 0.57441(19) 0.5417(4) 0.9885(2)
H35 H 0.5694 0.6228 0.9705
C39 C 0.51311(17) 0.4483(4) 0.90242(18)
H36 H 0.5074 0.5311 0.8860
C40 C 0.44205(16) 0.2700(4) 0.78324(19)
C41 C 0.40733(16) 0.3021(4) 0.72540(19)
C42 C 0.40758(18) 0.2181(5) 0.6802(2)
H37 H 0.4310 0.1459 0.6860
C43 C 0.3734(2) 0.2406(5) 0.6267(2)
H38 H 0.3739 0.1826 0.5968
C44 C 0.3386(2) 0.3463(6) 0.6163(2)
C45 C 0.3381(2) 0.4285(5) 0.6614(2)
H39 H 0.3135 0.4983 0.6559
C46 C 0.37298(18) 0.4103(4) 0.7145(2)
H40 H 0.3736 0.4713 0.7436
C47 C 0.3009(2) 0.3688(7) 0.5577(2)
H41 H 0.3214 0.3578 0.5286
H42 H 0.2863 0.4559 0.5557
H43 H 0.2711 0.3070 0.5514
C48 C 0.6785(2) 0.4992(5) 1.1522(2)
H44 H 0.7000 0.5371 1.1279
H45 H 0.7027 0.4696 1.1874
H46 H 0.6535 0.5635 1.1609
H62 H 0.4583(19) 0.4573(16) 0.8081(19)
N7 N 0.95837(15) 0.6256(3) 0.83249(16)
N8 N 0.99390(14) 0.6439(3) 0.88623(15)
O10 O 1.16779(14) 0.5194(3) 1.12424(13)
O11 O 1.04927(15) 0.7739(3) 0.97711(14)
H4 H 1.0252 0.7631 0.9474
O12 O 0.95667(12) 0.8398(3) 0.80985(13)
C49 C 1.05240(17) 0.5418(4) 0.96794(18)
C50 C 1.06956(18) 0.6555(4) 0.99853(18)
C51 C 1.10784(19) 0.6509(4) 1.05129(18)
H47 H 1.1189 0.7275 1.0718
C52 C 1.12932(19) 0.5329(4) 1.07304(19)
C53 C 1.1133(2) 0.4190(4) 1.0437(2)
H48 H 1.1283 0.3394 1.0585
C54 C 1.07462(19) 0.4243(4) 0.99216(19)
H49 H 1.0629 0.3468 0.9728
C55 C 1.1878(2) 0.6325(5) 1.1558(2)
H50 H 1.2062 0.6869 1.1333
H51 H 1.2134 0.6083 1.1910
H52 H 1.1574 0.6796 1.1646
C56 C 1.01301(17) 0.5393(4) 0.91320(18)
H53 H 1.0010 0.4589 0.8967
C57 C 0.94209(17) 0.7264(4) 0.79666(19)
C58 C 0.90607(16) 0.6916(4) 0.74035(19)
C59 C 0.86713(17) 0.5928(4) 0.73383(19)
H54 H 0.8633 0.5457 0.7660
C60 C 0.83402(18) 0.5632(4) 0.6807(2)
H55 H 0.8074 0.4980 0.6775
C61 C 0.83967(19) 0.6291(5) 0.6319(2)
C62 C 0.8788(2) 0.7253(5) 0.6380(2)
H56 H 0.8831 0.7709 0.6056
C63 C 0.91227(17) 0.7563(5) 0.6915(2)
H57 H 0.9390 0.8210 0.6945
C64 C 0.8032(2) 0.5978(6) 0.5733(2)
H58 H 0.7713 0.6537 0.5660
H59 H 0.7916 0.5082 0.5725
H60 H 0.8235 0.6117 0.5443
H64 H 0.9532(19) 0.5417(17) 0.8220(19)
loop_
_geom_bond_atom_site_label_1
_geom_bond_atom_site_label_2
_geom_bond_site_symmetry_1
_geom_bond_site_symmetry_2
N1 N2 1_555 1_555
N2 C8 1_555 1_555
N3 N4 1_555 1_555
N4 C25 1_555 1_555
N5 N6 1_555 1_555
N6 C39 1_555 1_555
N7 N8 1_555 1_555
N8 C56 1_555 1_555
O1 C1 1_555 1_555
O2 H1 1_555 1_555
O3 C9 1_555 1_555
O4 C36 1_555 1_555
O5 H2 1_555 1_555
O6 C40 1_555 1_555
O7 C20 1_555 1_555
O8 H3 1_555 1_555
O9 C25 1_555 1_555
O10 C52 1_555 1_555
O11 H4 1_555 1_555
O12 C57 1_555 1_555
C1 C2 1_555 1_555
C2 H5 1_555 1_555
C3 O2 1_555 1_555
C4 C3 1_555 1_555
C5 C4 1_555 1_555
H6 C5 1_555 1_555
C6 C1 1_555 1_555
H7 C6 1_555 1_555
C7 O1 1_555 1_555
H8 C7 1_555 1_555
H9 C7 1_555 1_555
H10 C7 1_555 1_555
C8 C4 1_555 1_555
H11 C8 1_555 1_555
C9 N1 1_555 1_555
C10 C9 1_555 1_555
C11 C10 1_555 1_555
H12 C11 1_555 1_555
C12 C11 1_555 1_555
H13 C12 1_555 1_555
C13 C12 1_555 1_555
C14 C13 1_555 1_555
H14 C14 1_555 1_555
C15 C10 1_555 1_555
H15 C15 1_555 1_555
C16 C13 1_555 1_555
H16 C16 1_555 1_555
H17 C16 1_555 1_555
H18 C16 1_555 1_555
C17 C18 1_555 1_555
C18 O8 1_555 1_555
C19 C18 1_555 1_555
H19 C19 1_555 1_555
C20 C19 1_555 1_555
C21 C20 1_555 1_555
H20 C21 1_555 1_555
C22 C17 1_555 1_555
H21 C22 1_555 1_555
C23 O7 1_555 1_555
H22 C23 1_555 1_555
H23 C23 1_555 1_555
H24 C23 1_555 1_555
C24 N3 1_555 1_555
H25 C24 1_555 1_555
C25 C26 1_555 1_555
C26 C27 1_555 1_555
C27 H26 1_555 1_555
C28 C27 1_555 1_555
H27 C28 1_555 1_555
C29 C28 1_555 1_555
C30 C29 1_555 1_555
H28 C30 1_555 1_555
C31 C26 1_555 1_555
H29 C31 1_555 1_555
C32 C29 1_555 1_555
H30 C32 1_555 1_555
H31 C32 1_555 1_555
H32 C32 1_555 1_555
C33 C34 1_555 1_555
C34 O5 1_555 1_555
C35 C34 1_555 1_555
H33 C35 1_555 1_555
C36 C35 1_555 1_555
C37 C36 1_555 1_555
H34 C37 1_555 1_555
C38 C33 1_555 1_555
H35 C38 1_555 1_555
C39 C33 1_555 1_555
H36 C39 1_555 1_555
C40 N5 1_555 1_555
C41 C40 1_555 1_555
C42 C41 1_555 1_555
H37 C42 1_555 1_555
C43 C42 1_555 1_555
H38 C43 1_555 1_555
C44 C43 1_555 1_555
C45 C44 1_555 1_555
H39 C45 1_555 1_555
C46 C41 1_555 1_555
H40 C46 1_555 1_555
C47 C44 1_555 1_555
H41 C47 1_555 1_555
H42 C47 1_555 1_555
H43 C47 1_555 1_555
C48 O4 1_555 1_555
H44 C48 1_555 1_555
H45 C48 1_555 1_555
H46 C48 1_555 1_555
C49 C50 1_555 1_555
C50 O11 1_555 1_555
C51 C50 1_555 1_555
H47 C51 1_555 1_555
C52 C51 1_555 1_555
C53 C52 1_555 1_555
H48 C53 1_555 1_555
C54 C49 1_555 1_555
H49 C54 1_555 1_555
C55 O10 1_555 1_555
H50 C55 1_555 1_555
H51 C55 1_555 1_555
H52 C55 1_555 1_555
C56 C49 1_555 1_555
H53 C56 1_555 1_555
C57 N7 1_555 1_555
C58 C57 1_555 1_555
C59 C58 1_555 1_555
H54 C59 1_555 1_555
C60 C59 1_555 1_555
H55 C60 1_555 1_555
C61 C60 1_555 1_555
C62 C61 1_555 1_555
H56 C62 1_555 1_555
C63 C58 1_555 1_555
H57 C63 1_555 1_555
C64 C61 1_555 1_555
H58 C64 1_555 1_555
H59 C64 1_555 1_555
H60 C64 1_555 1_555
H61 N4 1_555 1_555
H62 N5 1_555 1_555
H63 N1 1_555 1_555
H64 N7 1_555 1_555
C2 C3 1_555 1_555
C5 C6 1_555 1_555
C14 C15 1_555 1_555
C17 C24 1_555 1_555
C21 C22 1_555 1_555
C30 C31 1_555 1_555
C37 C38 1_555 1_555
C45 C46 1_555 1_555
C53 C54 1_555 1_555
C62 C63 1_555 1_555

#END
