
#######################################################################
#
#                 Cambridge Crystallographic Data Centre
#                                CCDC 
#
#######################################################################
#
# If this CIF has been generated from an entry in the Cambridge 
# Structural Database, then it will include bibliographic, chemical, 
# crystal, experimental, refinement or atomic coordinate data resulting 
# from the CCDC's data processing and validation procedures.
#
#######################################################################

data_LAPBEL
_chemical_name_common            Secohellebrigeninamide
_chemical_formula_moiety         'C26 H37 N1 O5'
_chemical_name_systematic        
3,5-Dihydroxy-N,N-dimethyl-19-oxo-14,21-epoxychola-20,22-dien-24-amide
_symmetry_cell_setting           monoclinic
_symmetry_space_group_name_H-M   'P 21'
_symmetry_Int_Tables_number      4
_space_group_name_Hall           'P 2yb'
loop_
_symmetry_equiv_pos_site_id
_symmetry_equiv_pos_as_xyz
1 x,y,z
2 -x,1/2+y,-z
_cell_length_a                   6.6942(1)
_cell_length_b                   16.0580(4)
_cell_length_c                   10.9672(3)
_cell_angle_alpha                90
_cell_angle_beta                 98.693(2)
_cell_angle_gamma                90
_cell_volume                     1165.38
_exptl_crystal_colour            colorless
_exptl_crystal_description       block
_cell_formula_units_Z            2
_exptl_crystal_recrystallization_method methanol
loop_
_atom_site_label
_atom_site_type_symbol
_atom_site_fract_x
_atom_site_fract_y
_atom_site_fract_z
O1 O 0.3441(4) 1.40909(16) 0.1536(2)
H1 H 0.4127 1.4495 0.1793
O2 O 0.0185(3) 1.30160(16) 0.1275(2)
H2 H 0.0758 1.3465 0.1413
O3 O -0.0767(8) 1.1408(4) 0.3299(6)
O4 O 0.2368(3) 0.91532(13) 0.12249(17)
O5 O 0.5706(4) 0.54857(15) 0.2410(3)
N1 N 0.9026(4) 0.56933(19) 0.3016(3)
C1 C 0.3354(5) 1.2767(2) 0.3439(3)
H3 H 0.2441 1.3234 0.3468
H4 H 0.3765 1.2577 0.4279
C2 C 0.5202(5) 1.3069(3) 0.2931(3)
H5 H 0.5820 1.3521 0.3440
H6 H 0.6177 1.2619 0.2968
C3 C 0.4688(5) 1.3362(2) 0.1624(3)
H7 H 0.5939 1.3489 0.1298
C4 C 0.3537(5) 1.2682(2) 0.0838(3)
H8 H 0.3137 1.2896 0.0010
H9 H 0.4445 1.2217 0.0784
C5 C 0.1669(4) 1.2363(2) 0.1317(3)
C6 C 0.0671(5) 1.1673(2) 0.0493(3)
H10 H -0.0642 1.1554 0.0724
H11 H 0.0456 1.1868 -0.0354
C7 C 0.1889(6) 1.0873(2) 0.0561(3)
H12 H 0.3133 1.0969 0.0231
H13 H 0.1125 1.0450 0.0058
C8 C 0.2392(4) 1.05563(19) 0.1893(2)
H14 H 0.1111 1.0420 0.2177
C9 C 0.3438(4) 1.12326(18) 0.2759(2)
H15 H 0.4721 1.1361 0.2472
C10 C 0.2204(4) 1.2060(2) 0.2691(2)
C11 C 0.3965(5) 1.0893(2) 0.4077(2)
H16 H 0.4701 1.1314 0.4598
H17 H 0.2728 1.0772 0.4403
C12 C 0.5241(5) 1.0104(2) 0.4113(3)
H18 H 0.5511 0.9903 0.4955
H19 H 0.6528 1.0240 0.3857
C13 C 0.4233(4) 0.94111(19) 0.3285(2)
C14 C 0.3650(4) 0.97681(19) 0.1972(2)
C15 C 0.5674(4) 0.9822(2) 0.1456(3)
H20 H 0.5486 0.9665 0.0592
H21 H 0.6208 1.0384 0.1535
C16 C 0.7123(4) 0.9212(2) 0.2229(3)
H22 H 0.8179 0.9508 0.2760
H23 H 0.7739 0.8835 0.1704
C17 C 0.5736(4) 0.8739(2) 0.2993(3)
H24 H 0.6491 0.8492 0.3741
C18 C 0.2473(5) 0.9056(3) 0.3841(3)
H25 H 0.1603 0.9501 0.4018
H26 H 0.2976 0.8766 0.4590
H27 H 0.1727 0.8677 0.3267
C19 C 0.0265(6) 1.1947(3) 0.3181(4)
H28 H -0.0214 1.2446 0.3458
C20 C 0.4571(4) 0.8096(2) 0.2173(3)
C21 C 0.2995(4) 0.83593(19) 0.1362(3)
H29 H 0.2281 0.7961 0.0855
C22 C 0.5116(4) 0.7228(2) 0.2182(3)
H30 H 0.4238 0.6878 0.1682
C23 C 0.6737(4) 0.6871(2) 0.2826(3)
H31 H 0.7655 0.7195 0.3343
C24 C 0.7095(5) 0.5968(2) 0.2728(3)
C25 C 0.9418(7) 0.4814(3) 0.2967(6)
H32 H 0.8161 0.4518 0.2801
H33 H 1.0148 0.4634 0.3744
H34 H 1.0208 0.4703 0.2324
C26 C 1.0793(5) 0.6229(3) 0.3278(4)
H35 H 1.0369 0.6799 0.3291
H36 H 1.1632 0.6156 0.2649
H37 H 1.1543 0.6084 0.4065
H38? H -0.0789 1.1699 0.2657
O6? O -0.0065(11) 1.2140(6) 0.4159(9)
loop_
_geom_bond_atom_site_label_1
_geom_bond_atom_site_label_2
_geom_bond_site_symmetry_1
_geom_bond_site_symmetry_2
O1 H1 1_555 1_555
O2 H2 1_555 1_555
O3 C19 1_555 1_555
O4 C14 1_555 1_555
O5 C24 1_555 1_555
N1 C24 1_555 1_555
C1 H3 1_555 1_555
H4 C1 1_555 1_555
C2 C1 1_555 1_555
H5 C2 1_555 1_555
H6 C2 1_555 1_555
C3 O1 1_555 1_555
H7 C3 1_555 1_555
C4 C3 1_555 1_555
H8 C4 1_555 1_555
H9 C4 1_555 1_555
C5 O2 1_555 1_555
C6 C5 1_555 1_555
H10 C6 1_555 1_555
H11 C6 1_555 1_555
C7 C6 1_555 1_555
H12 C7 1_555 1_555
H13 C7 1_555 1_555
C8 C7 1_555 1_555
H14 C8 1_555 1_555
C9 C8 1_555 1_555
H15 C9 1_555 1_555
C10 C1 1_555 1_555
C11 C9 1_555 1_555
H16 C11 1_555 1_555
H17 C11 1_555 1_555
C12 C11 1_555 1_555
H18 C12 1_555 1_555
H19 C12 1_555 1_555
C13 C12 1_555 1_555
C14 C8 1_555 1_555
C15 C14 1_555 1_555
H20 C15 1_555 1_555
H21 C15 1_555 1_555
C16 C15 1_555 1_555
H22 C16 1_555 1_555
H23 C16 1_555 1_555
C17 C13 1_555 1_555
H24 C17 1_555 1_555
C18 C13 1_555 1_555
H25 C18 1_555 1_555
H26 C18 1_555 1_555
H27 C18 1_555 1_555
C19 C10 1_555 1_555
H28 C19 1_555 1_555
C20 C17 1_555 1_555
C21 O4 1_555 1_555
H29 C21 1_555 1_555
C22 C20 1_555 1_555
H30 C22 1_555 1_555
C23 C22 1_555 1_555
H31 C23 1_555 1_555
C24 C23 1_555 1_555
C25 N1 1_555 1_555
H32 C25 1_555 1_555
H33 C25 1_555 1_555
H34 C25 1_555 1_555
C26 N1 1_555 1_555
H35 C26 1_555 1_555
H36 C26 1_555 1_555
H37 C26 1_555 1_555
C2 C3 1_555 1_555
C4 C5 1_555 1_555
C5 C10 1_555 1_555
C9 C10 1_555 1_555
C13 C14 1_555 1_555
C16 C17 1_555 1_555
C20 C21 1_555 1_555

#END
