
#######################################################################
#
#                 Cambridge Crystallographic Data Centre
#                                CCDC 
#
#######################################################################
#
# If this CIF has been generated from an entry in the Cambridge 
# Structural Database, then it will include bibliographic, chemical, 
# crystal, experimental, refinement or atomic coordinate data resulting 
# from the CCDC's data processing and validation procedures.
#
#######################################################################

data_LAPFAJ
_chemical_formula_moiety         'C23 H37 N3 O4'
_chemical_name_systematic        
2-Benzyloxycarbonyl-bis(D-\a-methylvalyl)-N-isopropylamide
_symmetry_cell_setting           orthorhombic
_symmetry_space_group_name_H-M   'P 21 21 21'
_symmetry_Int_Tables_number      19
_space_group_name_Hall           'P 2ac 2ab'
loop_
_symmetry_equiv_pos_site_id
_symmetry_equiv_pos_as_xyz
1 x,y,z
2 1/2+x,1/2-y,-z
3 -x,1/2+y,1/2-z
4 1/2-x,-y,1/2+z
_cell_length_a                   16.155(2)
_cell_length_b                   14.514(2)
_cell_length_c                   10.555(2)
_cell_angle_alpha                90
_cell_angle_beta                 90
_cell_angle_gamma                90
_cell_volume                     2474.87
_chemical_melting_point          141-143deg.C
_cell_formula_units_Z            4
loop_
_atom_site_label
_atom_site_type_symbol
_atom_site_fract_x
_atom_site_fract_y
_atom_site_fract_z
O1 O -0.6124(3) -0.2612(3) -0.4559(5)
O2 O -0.6089(3) -0.4164(4) -0.4553(4)
O3 O -0.5644(3) -0.5606(3) -0.1905(4)
O4 O -0.3795(3) -0.6412(3) -0.3185(5)
N1 N -0.6240(3) -0.3347(4) -0.2737(6)
N2 N -0.4844(3) -0.4370(3) -0.2295(4)
N3 N -0.4605(3) -0.5513(3) -0.4374(5)
C1 C -0.3298(5) -0.2862(7) -0.643(1)
C2 C -0.3579(6) -0.2299(6) -0.550(1)
C3 C -0.4410(6) -0.2250(5) -0.5298(8)
C4 C -0.4964(4) -0.2722(5) -0.6041(7)
C5 C -0.4656(5) -0.3276(5) -0.6962(7)
C6 C -0.3818(6) -0.3369(7) -0.7177(9)
C7 C -0.5883(5) -0.2591(5) -0.5861(7)
C8 C -0.6149(4) -0.3436(4) -0.3968(6)
C9 C -0.6319(4) -0.4149(4) -0.1883(6)
C10 C -0.6305(4) -0.3774(5) -0.0498(7)
C11 C -0.6177(5) -0.4512(6) 0.0489(8)
C12 C -0.7059(5) -0.3155(6) -0.0173(9)
C13 C -0.7112(4) -0.4669(5) -0.2181(9)
C14 C -0.5573(4) -0.4777(4) -0.2030(5)
C15 C -0.4059(3) -0.4871(4) -0.2432(6)
C16 C -0.3792(4) -0.5232(5) -0.1133(7)
C17 C -0.3433(4) -0.4174(5) -0.3053(7)
C18 C -0.3260(5) -0.3330(6) -0.2229(9)
C19 C -0.2623(5) -0.4660(7) -0.344(1)
C20 C -0.4167(4) -0.5685(5) -0.3367(7)
C21 C -0.4807(5) -0.6206(5) -0.5302(8)
C22 C -0.5519(7) -0.6773(7) -0.483(1)
C23 C -0.500(1) -0.5744(7) -0.659(1)
H1 H -0.621(5) -0.286(6) -0.246(8)
H2 H -0.482(3) -0.378(3) -0.226(4)
H3 H -0.488(4) -0.512(4) -0.455(6)
H4 H -0.274(4) -0.288(4) -0.673(6)
H5 H -0.327(4) -0.179(4) -0.511(7)
H6 H -0.462(4) -0.187(4) -0.486(6)
H7 H -0.509(4) -0.357(4) -0.772(7)
H8 H -0.354(5) -0.369(6) -0.816(9)
H9 H -0.617(3) -0.301(3) -0.617(4)
H11 H -0.584(3) -0.323(4) -0.018(5)
H12 H -0.618(7) -0.431(8) 0.15(1)
H13 H -0.58(1) -0.43(1) 0.04(2)
H14 H -0.651(5) -0.503(5) 0.029(7)
H16 H -0.705(8) -0.298(8) 0.05(1)
H17 H -0.740(3) -0.350(3) -0.006(5)
H18 H -0.714(4) -0.526(5) -0.147(7)
H19 H -0.715(3) -0.486(4) -0.305(6)
H20 H -0.739(9) -0.449(9) -0.15(2)
H21 H -0.417(7) -0.563(7) -0.08(1)
H22 H -0.363(4) -0.451(5) -0.066(8)
H23 H -0.338(3) -0.545(3) -0.127(5)
H24 H -0.376(4) -0.394(4) -0.384(6)
H25 H -0.287(7) -0.343(7) -0.15(1)
H26 H -0.37(1) -0.30(1) -0.17(2)
H27 H -0.310(9) -0.301(8) -0.25(1)
H28 H -0.229(7) -0.497(8) -0.26(1)
H29 H -0.217(5) -0.426(6) -0.316(9)
H31 H -0.416(6) -0.643(7) -0.56(1)
H32 H -0.582(5) -0.609(5) -0.547(8)
H36 H -0.555(5) -0.520(5) -0.631(7)
H37 H -0.506(6) -0.611(7) -0.71(1)
H10? H -0.584(5) -0.159(6) -0.639(9)
H15? H -0.72(1) -0.25(1) -0.12(2)
H30? H -0.269(8) -0.499(8) -0.47(1)
H33? H -0.60(1) -0.67(1) -0.37(2)
H34? H -0.56(1) -0.76(1) -0.54(2)
H35? H -0.396(2) -0.607(2) -0.636(3)
loop_
_geom_bond_atom_site_label_1
_geom_bond_atom_site_label_2
_geom_bond_site_symmetry_1
_geom_bond_site_symmetry_2
O1 C7 1_555 1_555
O2 C8 1_555 1_555
O3 C14 1_555 1_555
O4 C20 1_555 1_555
N1 C8 1_555 1_555
N2 C14 1_555 1_555
N3 C20 1_555 1_555
C1 C2 1_555 1_555
C2 C3 1_555 1_555
C3 C4 1_555 1_555
C4 C5 1_555 1_555
C5 C6 1_555 1_555
C6 C1 1_555 1_555
C7 C4 1_555 1_555
C8 O1 1_555 1_555
C9 N1 1_555 1_555
C10 C9 1_555 1_555
C11 C10 1_555 1_555
C12 C10 1_555 1_555
C13 C9 1_555 1_555
C14 C9 1_555 1_555
C15 N2 1_555 1_555
C16 C15 1_555 1_555
C17 C15 1_555 1_555
C18 C17 1_555 1_555
C19 C17 1_555 1_555
C20 C15 1_555 1_555
C21 N3 1_555 1_555
C22 C21 1_555 1_555
C23 C21 1_555 1_555
H1 N1 1_555 1_555
H2 N2 1_555 1_555
H3 N3 1_555 1_555
H4 C1 1_555 1_555
H5 C2 1_555 1_555
H6 C3 1_555 1_555
H7 C5 1_555 1_555
H8 C6 1_555 1_555
H9 C7 1_555 1_555
H11 C10 1_555 1_555
H12 C11 1_555 1_555
H13 C11 1_555 1_555
H14 C11 1_555 1_555
H16 C12 1_555 1_555
H17 C12 1_555 1_555
H18 C13 1_555 1_555
H19 C13 1_555 1_555
H20 C13 1_555 1_555
H21 C16 1_555 1_555
H22 C16 1_555 1_555
H23 C16 1_555 1_555
H24 C17 1_555 1_555
H25 C18 1_555 1_555
H26 C18 1_555 1_555
H27 C18 1_555 1_555
H28 C19 1_555 1_555
H29 C19 1_555 1_555
H31 C21 1_555 1_555
H32 C22 1_555 1_555
H36 C23 1_555 1_555
H37 C23 1_555 1_555

#END
