
#######################################################################
#
#                 Cambridge Crystallographic Data Centre
#                                CCDC 
#
#######################################################################
#
# If this CIF has been generated from an entry in the Cambridge 
# Structural Database, then it will include bibliographic, chemical, 
# crystal, experimental, refinement or atomic coordinate data resulting 
# from the CCDC's data processing and validation procedures.
#
#######################################################################

data_LAPKUJ
_chemical_formula_moiety         'C25 H18 O2,0.5(C12 H12 N2)'
_chemical_name_systematic        
"4,4'-(9-Fluorenylidene)diphenol hemikis(1,2-bis(4-pyridyl)ethane)"
_symmetry_cell_setting           monoclinic
_symmetry_space_group_name_H-M   'P 21/n'
_symmetry_Int_Tables_number      14
_space_group_name_Hall           '-P 2yn'
loop_
_symmetry_equiv_pos_site_id
_symmetry_equiv_pos_as_xyz
1 x,y,z
2 1/2-x,1/2+y,1/2-z
3 -x,-y,-z
4 1/2+x,1/2-y,1/2+z
_cell_length_a                   14.424(3)
_cell_length_b                   10.901(2)
_cell_length_c                   14.962(3)
_cell_angle_alpha                90
_cell_angle_beta                 95.24(3)
_cell_angle_gamma                90
_cell_volume                     2342.73
_exptl_crystal_colour            colorless
_exptl_crystal_description       block
_cell_formula_units_Z            4
_exptl_crystal_recrystallization_method ethanol
loop_
_atom_site_label
_atom_site_type_symbol
_atom_site_fract_x
_atom_site_fract_y
_atom_site_fract_z
O1 O -0.10995(14) 0.66272(16) -0.23776(13)
O2 O 0.42202(12) 0.9751(2) 0.11938(14)
C1 C 0.13147(16) 1.0655(2) -0.15442(17)
C2 C 0.1660(2) 1.1020(3) -0.2427(2)
C3 C 0.2235(2) 1.0384(3) -0.2951(2)
H1 H 0.2484 0.9633 -0.2757
C4 C 0.2438(3) 1.0858(5) -0.3754(3)
H2 H 0.2827 1.0437 -0.4111
C5 C 0.2064(4) 1.1949(6) -0.4024(3)
H3 H 0.2189 1.2247 -0.4583
C6 C 0.1529(4) 1.2622(4) -0.3536(3)
H4 H 0.1308 1.3385 -0.3735
C7 C 0.1310(3) 1.2138(3) -0.2711(3)
C8 C 0.0803(2) 1.2640(3) -0.2025(3)
C9 C 0.0332(3) 1.3749(4) -0.1950(4)
H5 H 0.0297 1.4300 -0.2427
C10 C -0.0074(3) 1.4036(4) -0.1202(4)
H6 H -0.0380 1.4782 -0.1164
C11 C -0.0035(2) 1.3209(3) -0.0475(3)
H7 H -0.0309 1.3411 0.0045
C12 C 0.04126(19) 1.2093(2) -0.0540(2)
H8 H 0.0444 1.1540 -0.0065
C13 C 0.08101(18) 1.1813(2) -0.1313(2)
C14 C 0.06404(16) 0.9590(2) -0.17139(15)
C15 C -0.02961(17) 0.9661(2) -0.16581(16)
H9 H -0.0548 1.0400 -0.1485
C16 C -0.08858(16) 0.8680(2) -0.18486(17)
H10 H -0.1518 0.8755 -0.1780
C17 C -0.05435(17) 0.7615(2) -0.21339(17)
C18 C 0.03924(17) 0.7495(2) -0.21958(18)
H11 H 0.0638 0.6759 -0.2382
C19 C 0.09631(17) 0.8477(2) -0.19791(18)
H12 H 0.1600 0.8383 -0.2014
C20 C 0.20957(15) 1.0377(2) -0.08148(16)
C21 C 0.19399(15) 0.9686(2) -0.00866(16)
H13 H 0.1352 0.9349 -0.0050
C22 C 0.26304(16) 0.9465(2) 0.06049(16)
H14 H 0.2502 0.9000 0.1100
C23 C 0.34985(16) 0.9938(2) 0.05500(17)
C24 C 0.36732(17) 1.0628(2) -0.01754(19)
H15 H 0.4266 1.0946 -0.0220
C25 C 0.29799(16) 1.0850(2) -0.08342(17)
H16 H 0.3107 1.1341 -0.1317
H23 H -0.172(2) 0.661(3) -0.212(2)
H24 H 0.3970(19) 0.934(3) 0.163(2)
N1 N -0.26088(19) 0.6264(3) -0.1622(2)
C26 C -0.2693(2) 0.5079(4) -0.1446(2)
H17 H -0.2220 0.4553 -0.1586
C27 C -0.3437(3) 0.4591(3) -0.1068(2)
H18 H -0.3456 0.3755 -0.0945
C28 C -0.4142(2) 0.5322(4) -0.0877(2)
C29 C -0.4084(2) 0.6498(4) -0.1113(3)
H19 H -0.4561 0.7040 -0.1012
C30 C -0.3318(3) 0.6903(4) -0.1503(3)
H20 H -0.3320 0.7714 -0.1697
C31 C -0.4984(2) 0.4790(4) -0.0453(2)
H21 H -0.5551 0.5030 -0.0807
H22 H -0.4949 0.3901 -0.0457
N1B N -0.73912(19) 0.3736(3) 0.1622(2)
C26B C -0.7307(2) 0.4921(4) 0.1446(2)
H17B H -0.7780 0.5447 0.1586
C27B C -0.6563(3) 0.5409(3) 0.1068(2)
H18B H -0.6544 0.6245 0.0945
C28B C -0.5858(2) 0.4678(4) 0.0877(2)
C29B C -0.5916(2) 0.3502(4) 0.1113(3)
H19B H -0.5439 0.2960 0.1012
C30B C -0.6682(3) 0.3097(4) 0.1503(3)
H20B H -0.6680 0.2286 0.1697
C31B C -0.5016(2) 0.5210(4) 0.0453(2)
H21B H -0.4449 0.4970 0.0807
H22B H -0.5051 0.6099 0.0457
loop_
_geom_bond_atom_site_label_1
_geom_bond_atom_site_label_2
_geom_bond_site_symmetry_1
_geom_bond_site_symmetry_2
O1 C17 1_555 1_555
O2 C23 1_555 1_555
N1 C26 1_555 1_555
C1 C2 1_555 1_555
C2 C3 1_555 1_555
C3 H1 1_555 1_555
C4 C3 1_555 1_555
H2 C4 1_555 1_555
C5 C4 1_555 1_555
H3 C5 1_555 1_555
C6 C5 1_555 1_555
H4 C6 1_555 1_555
C7 C2 1_555 1_555
C8 C7 1_555 1_555
C9 C8 1_555 1_555
H5 C9 1_555 1_555
C10 C9 1_555 1_555
H6 C10 1_555 1_555
C11 C10 1_555 1_555
H7 C11 1_555 1_555
C12 C11 1_555 1_555
H8 C12 1_555 1_555
C13 C1 1_555 1_555
C14 C1 1_555 1_555
C15 C14 1_555 1_555
H9 C15 1_555 1_555
C16 C15 1_555 1_555
H10 C16 1_555 1_555
C17 C16 1_555 1_555
C18 C17 1_555 1_555
H11 C18 1_555 1_555
C19 C14 1_555 1_555
H12 C19 1_555 1_555
C20 C1 1_555 1_555
C21 C20 1_555 1_555
H13 C21 1_555 1_555
C22 C21 1_555 1_555
H14 C22 1_555 1_555
C23 C22 1_555 1_555
C24 C23 1_555 1_555
H15 C24 1_555 1_555
C25 C20 1_555 1_555
H16 C25 1_555 1_555
C26 H17 1_555 1_555
C27 C26 1_555 1_555
H18 C27 1_555 1_555
C28 C27 1_555 1_555
C29 C28 1_555 1_555
H19 C29 1_555 1_555
C30 N1 1_555 1_555
H20 C30 1_555 1_555
C31 C28 1_555 1_555
H21 C31 1_555 1_555
H22 C31 1_555 1_555
H23 O1 1_555 1_555
H24 O2 1_555 1_555
N1B C26B 1_555 1_555
C26B H17B 1_555 1_555
C27B C26B 1_555 1_555
H18B C27B 1_555 1_555
C28B C27B 1_555 1_555
C29B C28B 1_555 1_555
H19B C29B 1_555 1_555
C30B N1B 1_555 1_555
H20B C30B 1_555 1_555
C31B C31 1_555 1_555
H21B C31B 1_555 1_555
H22B C31B 1_555 1_555
C6 C7 1_555 1_555
C8 C13 1_555 1_555
C12 C13 1_555 1_555
C18 C19 1_555 1_555
C24 C25 1_555 1_555
C29 C30 1_555 1_555
C28B C31B 1_555 1_555
C29B C30B 1_555 1_555

#END
