
#######################################################################
#
#                 Cambridge Crystallographic Data Centre
#                                CCDC 
#
#######################################################################
#
# If this CIF has been generated from an entry in the Cambridge 
# Structural Database, then it will include bibliographic, chemical, 
# crystal, experimental, refinement or atomic coordinate data resulting 
# from the CCDC's data processing and validation procedures.
#
#######################################################################

data_LAPKUL
_chemical_name_common            
'5,11,17,23-tetra-t-butyl-25,27-dihydroxy-26,28-bis(2-[(1,3-benzothiazol-6-ylcarbamothioyl)amino]ethoxy)calix(4)arene methanol solvate pentahydrate'
_chemical_formula_moiety         'C64 H74 N6 O4 S4,2(C1 H4 O1),5(H2 O1)'
_chemical_name_systematic        
"N,N'-{[5,11,17,23-tetra-t-butyl-26,28-dihydroxypentacyclo[19.3.1.1^3,7^.1^9,13^.1^15,19^]octacosa-1(25),3(28),4,6,9(27),10,12,15(26),16,18,21,23-dodecaene-25,27-diyl]bis(oxyethane-2,1-diyl)}bis[N'-1,3-benzothiazol-6-yl(thiourea)] methanol solvate hydrate"
_symmetry_cell_setting           monoclinic
_symmetry_space_group_name_H-M   'C 2/c'
_symmetry_Int_Tables_number      15
_space_group_name_Hall           '-C 2yn'
loop_
_symmetry_equiv_pos_site_id
_symmetry_equiv_pos_as_xyz
1 x,y,z
2 -x,y,1/2-z
3 1/2+x,1/2+y,z
4 1/2-x,1/2+y,1/2-z
5 -x,-y,-z
6 x,-y,1/2+z
7 1/2-x,1/2-y,-z
8 1/2+x,1/2-y,1/2+z
_cell_length_a                   28.774(6)
_cell_length_b                   15.510(3)
_cell_length_c                   18.335(4)
_cell_angle_alpha                90
_cell_angle_beta                 119.98(3)
_cell_angle_gamma                90
_cell_volume                     7087.79
_exptl_crystal_colour            colorless
_exptl_crystal_description       prism
_cell_formula_units_Z            4
loop_
_atom_site_label
_atom_site_type_symbol
_atom_site_fract_x
_atom_site_fract_y
_atom_site_fract_z
C1 C 1.192600(4) 1.011310(4) 0.267960(4)
C2 C 1.156370(4) 1.040380(4) 0.187130(4)
O1 O 0.932000(4) 0.962310(4) 0.237670(4)
H1 H 0.943230(4) 0.962201(4) 0.204440(4)
O2 O 1.026060(4) 0.969510(4) 0.377320(4)
C3 C 0.868300(4) 0.899130(4) 0.071000(4)
H2 H 0.832669(4) 0.893914(4) 0.022237(4)
H3 H 0.876752(4) 0.959974(4) 0.081840(4)
C4 C 1.036650(4) 1.042820(4) 0.432170(4)
H4 H 1.009897(4) 1.046766(4) 0.449466(4)
H5 H 1.071803(4) 1.037840(4) 0.482048(4)
C5 C 0.943820(4) 0.876030(4) 0.387500(4)
H6 H 0.928797(4) 0.857964(4) 0.422068(4)
H7 H 0.944632(4) 0.938555(4) 0.387693(4)
N1 N 1.079460(4) 1.125110(4) 0.367580(4)
H8 H 1.076844(4) 1.099072(4) 0.324269(4)
N2 N 1.166260(4) 1.154940(4) 0.401970(4)
H9 H 1.197214(4) 1.174041(4) 0.439226(4)
C6 C 1.001060(4) 0.842290(4) 0.426600(4)
C7 C 1.040180(4) 0.890280(4) 0.419430(4)
C8 C 0.838080(4) 0.783740(4) 0.136200(4)
H10 H 0.814491(4) 0.764299(4) 0.082005(4)
C9 C 0.841510(4) 0.738750(4) 0.204510(4)
C10 C 0.876770(4) 0.770040(4) 0.284250(4)
H11 H 0.880300(4) 0.740160(4) 0.330732(4)
C11 C 0.907350(4) 0.844910(4) 0.297740(4)
C12 C 0.903500(4) 0.886910(4) 0.228250(4)
C13 C 0.869250(4) 0.857840(4) 0.146630(4)
C14 C 0.908760(4) 0.855690(4) 0.053100(4)
C15 C 1.163180(4) 1.114660(4) 0.330680(4)
C16 C 0.897440(4) 0.775170(4) 0.014650(4)
H12 H 0.863436(4) 0.752056(4) -0.004681(4)
C17 C 1.034190(4) 1.121030(4) 0.381330(4)
H13 H 1.001252(4) 1.119376(4) 0.327353(4)
H14 H 1.033530(4) 1.172668(4) 0.410645(4)
C18 C 1.125870(4) 1.146380(4) 0.250470(4)
H15 H 1.103630(4) 1.192226(4) 0.245466(4)
C19 C 1.196600(4) 1.047000(4) 0.340240(4)
H16 H 1.221043(4) 1.025882(4) 0.393316(4)
C20 C 1.014350(4) 0.762740(4) 0.464150(4)
H17 H 0.988453(4) 0.730904(4) 0.468504(4)
C21 C 0.933960(4) 0.728020(4) 0.003770(4)
C22 C 0.806220(4) 0.660000(4) 0.193560(4)
C23 C 1.122150(4) 1.109400(4) 0.178680(4)
H18 H 1.097325(4) 1.129995(4) 0.125588(4)
C24 C 1.124950(4) 1.166730(4) 0.417900(4)
C25 C 0.919600(4) 0.638280(4) -0.038770(4)
C26 C 0.834970(4) 0.593810(4) 0.254750(4)
H19 H 0.864768(4) 0.574689(4) 0.249153(4)
H20 H 0.847909(4) 0.616481(4) 0.310332(4)
H21 H 0.811418(4) 0.546088(4) 0.245600(4)
C27 C 0.760210(4) 0.686980(4) 0.198620(4)
H22 H 0.771722(4) 0.711819(4) 0.252981(4)
H23 H 0.740448(4) 0.729094(4) 0.155724(4)
H24 H 0.737679(4) 0.638075(4) 0.190540(4)
C28 C 0.961620(4) 0.600870(4) -0.049730(4)
H25 H 0.968681(4) 0.637483(4) -0.085303(4)
H26 H 0.993613(4) 0.595184(4) 0.004118(4)
H27 H 0.950525(4) 0.545052(4) -0.075298(4)
C29 C 0.871210(4) 0.644200(4) -0.121780(4)
H28 H 0.841722(4) 0.663640(4) -0.115507(4)
H29 H 0.877180(4) 0.684347(4) -0.156114(4)
H30 H 0.863013(4) 0.588493(4) -0.148124(4)
S1 S 1.133910(4) 1.230100(4) 0.498230(4)
C30 C 0.786670(4) 0.619830(4) 0.108240(4)
H31 H 0.766369(4) 0.661511(4) 0.065177(4)
H32 H 0.816865(4) 0.601267(4) 0.103457(4)
H33 H 0.764326(4) 0.571130(4) 0.101750(4)
C31 C 0.911410(4) 0.579240(4) 0.013600(4)
H34 H 0.942792(4) 0.578022(4) 0.068552(4)
H35 H 0.881077(4) 0.597399(4) 0.018189(4)
H36 H 0.904858(4) 0.522638(4) -0.010761(4)
N3 N 1.156860(4) 0.996920(4) 0.121540(4)
C32 C 1.192490(4) 0.935320(4) 0.151530(4)
H37 H 1.197975(4) 0.898522(4) 0.116484(4)
S2 S 1.229190(4) 0.925750(4) 0.260660(4)
C1A C 0.807400(4) 1.011310(4) 0.232040(4)
C2A C 0.843630(4) 1.040380(4) 0.312870(4)
O1A O 1.068000(4) 0.962310(4) 0.262330(4)
H1A H 1.056770(4) 0.962201(4) 0.295560(4)
O2A O 0.973940(4) 0.969510(4) 0.122680(4)
C3A C 1.131700(4) 0.899130(4) 0.429000(4)
H2A H 1.167331(4) 0.893914(4) 0.477763(4)
H3A H 1.123248(4) 0.959974(4) 0.418160(4)
C4A C 0.963350(4) 1.042820(4) 0.067830(4)
H4A H 0.990103(4) 1.046766(4) 0.050534(4)
H5A H 0.928197(4) 1.037840(4) 0.017952(4)
C5A C 1.056180(4) 0.876030(4) 0.112500(4)
H6A H 1.071203(4) 0.857964(4) 0.077932(4)
H7A H 1.055368(4) 0.938555(4) 0.112307(4)
N1A N 0.920540(4) 1.125110(4) 0.132420(4)
H8A H 0.923156(4) 1.099072(4) 0.175731(4)
N2A N 0.833740(4) 1.154940(4) 0.098030(4)
H9A H 0.802786(4) 1.174041(4) 0.060774(4)
C6A C 0.998940(4) 0.842290(4) 0.073400(4)
C7A C 0.959820(4) 0.890280(4) 0.080570(4)
C8A C 1.161920(4) 0.783740(4) 0.363800(4)
H10A H 1.185509(4) 0.764299(4) 0.417995(4)
C9A C 1.158490(4) 0.738750(4) 0.295490(4)
C10A C 1.123230(4) 0.770040(4) 0.215750(4)
H11A H 1.119700(4) 0.740160(4) 0.169268(4)
C11A C 1.092650(4) 0.844910(4) 0.202260(4)
C12A C 1.096500(4) 0.886910(4) 0.271750(4)
C13A C 1.130750(4) 0.857840(4) 0.353370(4)
C14A C 1.091240(4) 0.855690(4) 0.446900(4)
C15A C 0.836820(4) 1.114660(4) 0.169320(4)
C16A C 1.102560(4) 0.775170(4) 0.485350(4)
H12A H 1.136564(4) 0.752056(4) 0.504681(4)
C17A C 0.965810(4) 1.121030(4) 0.118670(4)
H13A H 0.998748(4) 1.119376(4) 0.172647(4)
H14A H 0.966470(4) 1.172668(4) 0.089355(4)
C18A C 0.874130(4) 1.146380(4) 0.249530(4)
H15A H 0.896370(4) 1.192226(4) 0.254534(4)
C19A C 0.803400(4) 1.047000(4) 0.159760(4)
H16A H 0.778957(4) 1.025882(4) 0.106684(4)
C20A C 0.985650(4) 0.762740(4) 0.035850(4)
H17A H 1.011547(4) 0.730904(4) 0.031496(4)
C21A C 1.066040(4) 0.728020(4) 0.496230(4)
C22A C 1.193780(4) 0.660000(4) 0.306440(4)
C23A C 0.877850(4) 1.109400(4) 0.321320(4)
H18A H 0.902675(4) 1.129995(4) 0.374412(4)
C24A C 0.875050(4) 1.166730(4) 0.082100(4)
C25A C 1.080400(4) 0.638280(4) 0.538770(4)
C26A C 1.165030(4) 0.593810(4) 0.245250(4)
H19A H 1.135232(4) 0.574689(4) 0.250847(4)
H20A H 1.152091(4) 0.616481(4) 0.189668(4)
H21A H 1.188582(4) 0.546088(4) 0.254400(4)
C27A C 1.239790(4) 0.686980(4) 0.301380(4)
H22A H 1.228278(4) 0.711819(4) 0.247019(4)
H23A H 1.259552(4) 0.729094(4) 0.344276(4)
H24A H 1.262321(4) 0.638075(4) 0.309460(4)
C28A C 1.038380(4) 0.600870(4) 0.549730(4)
H25A H 1.031319(4) 0.637483(4) 0.585303(4)
H26A H 1.006387(4) 0.595184(4) 0.495882(4)
H27A H 1.049475(4) 0.545052(4) 0.575298(4)
C29A C 1.128790(4) 0.644200(4) 0.621780(4)
H28A H 1.158278(4) 0.663640(4) 0.615507(4)
H29A H 1.122820(4) 0.684347(4) 0.656114(4)
H30A H 1.136987(4) 0.588493(4) 0.648124(4)
S1A S 0.866090(4) 1.230100(4) 0.001770(4)
C30A C 1.213330(4) 0.619830(4) 0.391760(4)
H31A H 1.233631(4) 0.661511(4) 0.434823(4)
H32A H 1.183135(4) 0.601267(4) 0.396543(4)
H33A H 1.235674(4) 0.571130(4) 0.398250(4)
C31A C 1.088590(4) 0.579240(4) 0.486400(4)
H34A H 1.057208(4) 0.578022(4) 0.431448(4)
H35A H 1.118923(4) 0.597399(4) 0.481811(4)
H36A H 1.095142(4) 0.522638(4) 0.510761(4)
N3A N 0.843140(4) 0.996920(4) 0.378460(4)
C32A C 0.807510(4) 0.935320(4) 0.348470(4)
H37A H 0.802025(4) 0.898522(4) 0.383516(4)
S2A S 0.770810(4) 0.925750(4) 0.239340(4)
O3 O 0.955950(4) 0.370810(4) 0.162400(4)
H38 H 0.935220(4) 0.364610(4) 0.109700(4)
H39 H 0.944800(4) 0.339900(4) 0.188790(4)
O4 O 1.279720(4) 1.152260(4) 0.520730(4)
H40 H 1.246981(4) 1.149780(4) 0.498950(4)
C33 C 1.303820(4) 1.132460(4) 0.607940(4)
H41 H 1.294008(4) 1.075047(4) 0.614557(4)
H42 H 1.342130(4) 1.136278(4) 0.633626(4)
H43 H 1.291584(4) 1.172694(4) 0.634490(4)
O5 O 0.948510(4) 0.483640(4) 0.260200(4)
H44 H 0.927810(4) 0.489840(4) 0.207500(4)
H45 H 0.937340(4) 0.514550(4) 0.286570(4)
O6 O 1.0 0.703221(4) 0.250
loop_
_geom_bond_atom_site_label_1
_geom_bond_atom_site_label_2
_geom_bond_site_symmetry_1
_geom_bond_site_symmetry_2
C1 C2 1_555 1_555
C2 C23 1_555 1_555
O1 H1 1_555 1_555
O2 C4 1_555 1_555
C3 H2 1_555 1_555
H3 C3 1_555 1_555
C4 H4 1_555 1_555
H5 C4 1_555 1_555
C5 H6 1_555 1_555
H7 C5 1_555 1_555
N1 H8 1_555 1_555
N2 H9 1_555 1_555
C6 C5 1_555 1_555
C7 O2 1_555 1_555
C8 H10 1_555 1_555
C9 C8 1_555 1_555
C10 C9 1_555 1_555
H11 C10 1_555 1_555
C11 C5 1_555 1_555
C12 O1 1_555 1_555
C13 C3 1_555 1_555
C14 C3 1_555 1_555
C15 N2 1_555 1_555
C16 C14 1_555 1_555
H12 C16 1_555 1_555
C17 C4 1_555 1_555
H13 C17 1_555 1_555
H14 C17 1_555 1_555
C18 C15 1_555 1_555
H15 C18 1_555 1_555
C19 C1 1_555 1_555
H16 C19 1_555 1_555
C20 C6 1_555 1_555
H17 C20 1_555 1_555
C21 C16 1_555 1_555
C22 C9 1_555 1_555
C23 C18 1_555 1_555
H18 C23 1_555 1_555
C24 N1 1_555 1_555
C25 C21 1_555 1_555
C26 C22 1_555 1_555
H19 C26 1_555 1_555
H20 C26 1_555 1_555
H21 C26 1_555 1_555
C27 C22 1_555 1_555
H22 C27 1_555 1_555
H23 C27 1_555 1_555
H24 C27 1_555 1_555
C28 C25 1_555 1_555
H25 C28 1_555 1_555
H26 C28 1_555 1_555
H27 C28 1_555 1_555
C29 C25 1_555 1_555
H28 C29 1_555 1_555
H29 C29 1_555 1_555
H30 C29 1_555 1_555
S1 C24 1_555 1_555
C30 C22 1_555 1_555
H31 C30 1_555 1_555
H32 C30 1_555 1_555
H33 C30 1_555 1_555
C31 C25 1_555 1_555
H34 C31 1_555 1_555
H35 C31 1_555 1_555
H36 C31 1_555 1_555
N3 C2 1_555 1_555
C32 N3 1_555 1_555
H37 C32 1_555 1_555
S2 C1 1_555 1_555
O3 H38 1_555 1_555
H39 O3 1_555 1_555
O4 H40 1_555 1_555
C33 O4 1_555 1_555
H41 C33 1_555 1_555
H42 C33 1_555 1_555
H43 C33 1_555 1_555
O5 H44 1_555 1_555
H45 O5 1_555 1_555
C1A C2A 1_555 1_555
C2A C23A 1_555 1_555
O1A H1A 1_555 1_555
O2A C4A 1_555 1_555
C3A H2A 1_555 1_555
H3A C3A 1_555 1_555
C4A H4A 1_555 1_555
H5A C4A 1_555 1_555
C5A H6A 1_555 1_555
H7A C5A 1_555 1_555
N1A H8A 1_555 1_555
N2A H9A 1_555 1_555
C6A C5A 1_555 1_555
C7A C14 1_555 1_555
C8A H10A 1_555 1_555
C9A C8A 1_555 1_555
C10A C9A 1_555 1_555
H11A C10A 1_555 1_555
C11A C5A 1_555 1_555
C12A O1A 1_555 1_555
C13A C3A 1_555 1_555
C14A C7 1_555 1_555
C15A N2A 1_555 1_555
C16A C14A 1_555 1_555
H12A C16A 1_555 1_555
C17A C4A 1_555 1_555
H13A C17A 1_555 1_555
H14A C17A 1_555 1_555
C18A C15A 1_555 1_555
H15A C18A 1_555 1_555
C19A C1A 1_555 1_555
H16A C19A 1_555 1_555
C20A C21 1_555 1_555
H17A C20A 1_555 1_555
C21A C20 1_555 1_555
C22A C9A 1_555 1_555
C23A C18A 1_555 1_555
H18A C23A 1_555 1_555
C24A N1A 1_555 1_555
C25A C21A 1_555 1_555
C26A C22A 1_555 1_555
H19A C26A 1_555 1_555
H20A C26A 1_555 1_555
H21A C26A 1_555 1_555
C27A C22A 1_555 1_555
H22A C27A 1_555 1_555
H23A C27A 1_555 1_555
H24A C27A 1_555 1_555
C28A C25A 1_555 1_555
H25A C28A 1_555 1_555
H26A C28A 1_555 1_555
H27A C28A 1_555 1_555
C29A C25A 1_555 1_555
H28A C29A 1_555 1_555
H29A C29A 1_555 1_555
H30A C29A 1_555 1_555
S1A C24A 1_555 1_555
C30A C22A 1_555 1_555
H31A C30A 1_555 1_555
H32A C30A 1_555 1_555
H33A C30A 1_555 1_555
C31A C25A 1_555 1_555
H34A C31A 1_555 1_555
H35A C31A 1_555 1_555
H36A C31A 1_555 1_555
N3A C2A 1_555 1_555
C32A N3A 1_555 1_555
H37A C32A 1_555 1_555
S2A C1A 1_555 1_555
N1 C17 1_555 1_555
N2 C24 1_555 1_555
C6 C7 1_555 1_555
C8 C13 1_555 1_555
C10 C11 1_555 1_555
C11 C12 1_555 1_555
C12 C13 1_555 1_555
C15 C19 1_555 1_555
C32 S2 1_555 1_555
O2A C7A 1_555 1_555
C3A C14A 1_555 1_555
N1A C17A 1_555 1_555
N2A C24A 1_555 1_555
C6A C7A 1_555 1_555
C6A C20A 1_555 1_555
C8A C13A 1_555 1_555
C10A C11A 1_555 1_555
C11A C12A 1_555 1_555
C12A C13A 1_555 1_555
C15A C19A 1_555 1_555
C16A C21A 1_555 1_555
C32A S2A 1_555 1_555

#END
