
#######################################################################
#
#                 Cambridge Crystallographic Data Centre
#                                CCDC 
#
#######################################################################
#
# If this CIF has been generated from an entry in the Cambridge 
# Structural Database, then it will include bibliographic, chemical, 
# crystal, experimental, refinement or atomic coordinate data resulting 
# from the CCDC's data processing and validation procedures.
#
#######################################################################

data_LAPLIY
_chemical_formula_moiety         'C18 H20 O2,C10 H8 N2'
_chemical_name_systematic        "4,4'-Cyclohexylidenebisphenol 4,4'-bipyridine"
_symmetry_cell_setting           triclinic
_symmetry_space_group_name_H-M   'P -1'
_symmetry_Int_Tables_number      2
_space_group_name_Hall           '-P 1'
loop_
_symmetry_equiv_pos_site_id
_symmetry_equiv_pos_as_xyz
1 x,y,z
2 -x,-y,-z
_cell_length_a                   6.2951(13)
_cell_length_b                   7.6354(15)
_cell_length_c                   25.366(5)
_cell_angle_alpha                82.75(3)
_cell_angle_beta                 87.55(3)
_cell_angle_gamma                66.96(3)
_cell_volume                     1112.98
_exptl_crystal_colour            colorless
_exptl_crystal_description       platelet
_cell_formula_units_Z            2
_exptl_crystal_recrystallization_method ethanol
loop_
_atom_site_label
_atom_site_type_symbol
_atom_site_fract_x
_atom_site_fract_y
_atom_site_fract_z
O1 O 0.1128(3) 0.8707(3) 0.08136(7)
H1 H 0.1888 0.9372 0.0758
O2 O 0.5156(3) 0.5946(3) 0.42220(6)
H2 H 0.6464 0.5828 0.4297
C1 C 0.2220(4) 0.7203(3) 0.11819(8)
C2 C 0.1203(4) 0.5910(4) 0.13296(9)
H3 H -0.0200 0.6098 0.1178
C3 C 0.2245(3) 0.4344(3) 0.16991(9)
H4 H 0.1529 0.3490 0.1791
C4 C 0.4325(3) 0.4006(3) 0.19370(7)
C5 C 0.5306(3) 0.5338(3) 0.17869(8)
H5 H 0.6697 0.5163 0.1942
C6 C 0.4292(4) 0.6900(3) 0.14183(8)
H6 H 0.5001 0.7758 0.1327
C7 C 0.5534(3) 0.2312(3) 0.23619(7)
C8 C 0.4252(3) 0.0927(3) 0.24370(8)
H7 H 0.2729 0.1584 0.2579
H8 H 0.4056 0.0574 0.2094
C9 C 0.5539(4) -0.0878(3) 0.28075(10)
H9 H 0.5673 -0.0540 0.3157
H10 H 0.4677 -0.1698 0.2842
C10 C 0.7896(4) -0.1940(3) 0.25984(12)
H11 H 0.7754 -0.2374 0.2263
H12 H 0.8708 -0.3062 0.2847
C11 C 0.9281(3) -0.0697(3) 0.25159(9)
H13 H 1.0738 -0.1388 0.2350
H14 H 0.9615 -0.0415 0.2858
C12 C 0.7978(3) 0.1169(3) 0.21682(8)
H15 H 0.7869 0.0883 0.1811
H16 H 0.8863 0.1968 0.2150
C13 C 0.5522(3) 0.3168(3) 0.28781(7)
C14 C 0.7453(3) 0.3230(3) 0.31070(7)
H17 H 0.8889 0.2636 0.2955
C15 C 0.7319(3) 0.4144(3) 0.35518(8)
H18 H 0.8657 0.4146 0.3693
C16 C 0.5234(4) 0.5049(3) 0.37879(8)
C17 C 0.3266(3) 0.5008(3) 0.35679(8)
H19 H 0.1834 0.5605 0.3721
C18 C 0.3426(3) 0.4088(3) 0.31246(8)
H20 H 0.2087 0.4082 0.2985
C19 C 0.4952(6) 0.8562(4) -0.07118(10)
H21 H 0.4193 0.9403 -0.1005
C20 C 0.4228(5) 0.7107(4) -0.05318(9)
H22 H 0.3011 0.6993 -0.0700
C21 C 0.5328(4) 0.5819(3) -0.00990(7)
C22 C 0.7053(4) 0.6148(3) 0.01326(9)
H23 H 0.7816 0.5350 0.0432
C23 C 0.7668(4) 0.7643(4) -0.00722(10)
H24 H 0.8847 0.7816 0.0094
N1 N 0.6652(4) 0.8847(3) -0.04964(8)
C19A C 0.5048(6) 0.1438(4) 0.07118(10)
H21A H 0.5807 0.0597 0.1005
C20A C 0.5772(5) 0.2893(4) 0.05318(9)
H22A H 0.6989 0.3007 0.0700
C21A C 0.4672(4) 0.4181(3) 0.00990(7)
C22A C 0.2947(4) 0.3852(3) -0.01326(9)
H23A H 0.2184 0.4650 -0.0432
C23A C 0.2332(4) 0.2357(4) 0.00722(10)
H24A H 0.1153 0.2184 -0.0094
N1A N 0.3348(4) 0.1153(3) 0.04964(8)
C24 C 1.0047(5) 0.7273(5) 0.50251(10)
H25 H 1.1140 0.6317 0.5249
C25 C 0.7848(5) 0.8098(5) 0.52124(10)
H26 H 0.7486 0.7680 0.5552
C26 C 0.6191(4) 0.9525(3) 0.49053(8)
C27 C 0.6860(5) 1.0016(4) 0.44094(10)
H27 H 0.5805 1.0971 0.4178
C28 C 0.9099(5) 0.9091(5) 0.42540(12)
H28 H 0.9504 0.9446 0.3913
N2 N 1.0703(3) 0.7741(3) 0.45550(8)
C24A C -0.0047(5) 1.2727(5) 0.49749(10)
H25A H -0.1140 1.3683 0.4751
C25A C 0.2152(5) 1.1902(5) 0.47876(10)
H26A H 0.2514 1.2320 0.4448
C26A C 0.3809(4) 1.0475(3) 0.50947(8)
C27A C 0.3140(5) 0.9984(4) 0.55906(10)
H27A H 0.4195 0.9029 0.5822
C28A C 0.0901(5) 1.0909(5) 0.57460(12)
H28A H 0.0496 1.0554 0.6087
N2A N -0.0703(3) 1.2259(3) 0.54450(8)
loop_
_geom_bond_atom_site_label_1
_geom_bond_atom_site_label_2
_geom_bond_site_symmetry_1
_geom_bond_site_symmetry_2
O1 H1 1_555 1_555
O2 H2 1_555 1_555
C1 O1 1_555 1_555
C2 C1 1_555 1_555
H3 C2 1_555 1_555
C3 C2 1_555 1_555
H4 C3 1_555 1_555
C4 C3 1_555 1_555
C5 C4 1_555 1_555
H5 C5 1_555 1_555
C6 C1 1_555 1_555
H6 C6 1_555 1_555
C7 C4 1_555 1_555
C8 C7 1_555 1_555
H7 C8 1_555 1_555
H8 C8 1_555 1_555
C9 C8 1_555 1_555
H9 C9 1_555 1_555
H10 C9 1_555 1_555
C10 C9 1_555 1_555
H11 C10 1_555 1_555
H12 C10 1_555 1_555
C11 C10 1_555 1_555
H13 C11 1_555 1_555
H14 C11 1_555 1_555
C12 C7 1_555 1_555
H15 C12 1_555 1_555
H16 C12 1_555 1_555
C13 C7 1_555 1_555
C14 C13 1_555 1_555
H17 C14 1_555 1_555
C15 C14 1_555 1_555
H18 C15 1_555 1_555
C16 O2 1_555 1_555
C17 C16 1_555 1_555
H19 C17 1_555 1_555
C18 C13 1_555 1_555
H20 C18 1_555 1_555
C19 H21 1_555 1_555
C20 C19 1_555 1_555
H22 C20 1_555 1_555
C21 C20 1_555 1_555
C22 C21 1_555 1_555
H23 C22 1_555 1_555
C23 C22 1_555 1_555
H24 C23 1_555 1_555
C24 H25 1_555 1_555
C25 C24 1_555 1_555
H26 C25 1_555 1_555
C26 C25 1_555 1_555
C27 C26 1_555 1_555
H27 C27 1_555 1_555
C28 C27 1_555 1_555
H28 C28 1_555 1_555
N1 C19 1_555 1_555
N2 C24 1_555 1_555
C19A H21A 1_555 1_555
C20A C19A 1_555 1_555
H22A C20A 1_555 1_555
C21A C21 1_555 1_555
C22A C21A 1_555 1_555
H23A C22A 1_555 1_555
C23A C22A 1_555 1_555
H24A C23A 1_555 1_555
C24A H25A 1_555 1_555
C25A C24A 1_555 1_555
H26A C25A 1_555 1_555
C26A C26 1_555 1_555
C27A C26A 1_555 1_555
H27A C27A 1_555 1_555
C28A C27A 1_555 1_555
H28A C28A 1_555 1_555
N1A C19A 1_555 1_555
N2A C24A 1_555 1_555
C5 C6 1_555 1_555
C11 C12 1_555 1_555
C15 C16 1_555 1_555
C17 C18 1_555 1_555
C23 N1 1_555 1_555
C28 N2 1_555 1_555
C20A C21A 1_555 1_555
C23A N1A 1_555 1_555
C25A C26A 1_555 1_555
C28A N2A 1_555 1_555

#END
