
#######################################################################
#
#                 Cambridge Crystallographic Data Centre
#                                CCDC 
#
#######################################################################
#
# If this CIF has been generated from an entry in the Cambridge 
# Structural Database, then it will include bibliographic, chemical, 
# crystal, experimental, refinement or atomic coordinate data resulting 
# from the CCDC's data processing and validation procedures.
#
#######################################################################

data_LAPLAQ
_chemical_formula_moiety         '2(C25 H18 O2),C12 H10 N2'
_chemical_name_systematic        
"bis(4,4'-(9-Fluorenylidene)diphenol) 1,2-bis(4-pyridyl)ethene"
_symmetry_cell_setting           orthorhombic
_symmetry_space_group_name_H-M   'P b c a'
_symmetry_Int_Tables_number      61
_space_group_name_Hall           '-P 2ac 2ab'
loop_
_symmetry_equiv_pos_site_id
_symmetry_equiv_pos_as_xyz
1 x,y,z
2 1/2-x,-y,1/2+z
3 -x,1/2+y,1/2-z
4 1/2+x,1/2-y,-z
5 -x,-y,-z
6 1/2+x,y,1/2-z
7 x,1/2-y,1/2+z
8 1/2-x,1/2+y,z
_cell_length_a                   19.971(4)
_cell_length_b                   10.782(2)
_cell_length_c                   20.781(4)
_cell_angle_alpha                90
_cell_angle_beta                 90
_cell_angle_gamma                90
_cell_volume                     4474.72
_exptl_crystal_colour            'light yellow'
_exptl_crystal_description       block
_cell_formula_units_Z            4
_exptl_crystal_recrystallization_method ethanol
loop_
_atom_site_label
_atom_site_type_symbol
_atom_site_fract_x
_atom_site_fract_y
_atom_site_fract_z
O1 O 0.17090(6) 0.43487(12) 0.09130(6)
H1 H 0.1633(12) 0.528(2) 0.0770(12)
O2 O 0.15065(6) 0.28047(13) 0.52749(6)
H2 H 0.1596(10) 0.207(2) 0.5463(11)
C1 C 0.21090(8) 0.42106(16) 0.14442(9)
C2 C 0.26520(8) 0.49730(17) 0.15730(8)
H3 H 0.2758 0.5621 0.1296
C3 C 0.30390(8) 0.47619(16) 0.21219(9)
H4 H 0.3402 0.5279 0.2204
C4 C 0.28995(8) 0.38054(15) 0.25487(9)
C5 C 0.23547(8) 0.30402(16) 0.24000(9)
H5 H 0.2249 0.2387 0.2674
C6 C 0.19707(8) 0.32331(17) 0.18559(9)
H6 H 0.1616 0.2702 0.1765
C7 C 0.19565(8) 0.29362(16) 0.47771(9)
C8 C 0.18783(8) 0.39394(17) 0.43669(9)
H7 H 0.1536 0.4508 0.4439
C9 C 0.23066(8) 0.40973(16) 0.38523(10)
H8 H 0.2241 0.4767 0.3577
C10 C 0.28352(8) 0.32815(16) 0.37325(8)
C11 C 0.29101(8) 0.22896(16) 0.41551(8)
H9 H 0.3261 0.1735 0.4093
C12 C 0.24729(8) 0.21073(16) 0.46682(8)
H10 H 0.2528 0.1427 0.4938
C13 C 0.33109(8) 0.35288(16) 0.31591(9)
C14 C 0.37991(8) 0.45642(16) 0.33434(8)
C15 C 0.36669(9) 0.57937(16) 0.34853(9)
H11 H 0.3229 0.6088 0.3486
C16 C 0.41944(9) 0.65784(17) 0.36260(9)
H12 H 0.4110 0.7410 0.3713
C17 C 0.48465(9) 0.61438(18) 0.36395(9)
H13 H 0.5196 0.6689 0.3726
C18 C 0.49823(9) 0.49061(18) 0.35257(8)
H14 H 0.5418 0.4605 0.3553
C19 C 0.44572(8) 0.41222(17) 0.33700(9)
C20 C 0.44559(8) 0.27925(16) 0.32029(9)
C21 C 0.49685(9) 0.19297(18) 0.31947(9)
H15 H 0.5403 0.2163 0.3300
C22 C 0.48268(9) 0.07157(18) 0.30284(10)
H16 H 0.5166 0.0124 0.3030
C23 C 0.41791(9) 0.03769(18) 0.28583(9)
H17 H 0.4090 -0.0439 0.2741
C24 C 0.36633(9) 0.12385(16) 0.28603(8)
H18 H 0.3234 0.1010 0.2735
C25 C 0.37967(8) 0.24451(17) 0.30523(9)
N1 N 0.63081(7) 0.65021(13) 0.44844(7)
C26 C 0.58367(8) 0.63457(17) 0.49371(9)
H19 H 0.5801 0.5573 0.5133
C27 C 0.54044(8) 0.72648(16) 0.51273(9)
H20 H 0.5077 0.7100 0.5434
C28 C 0.54576(8) 0.84360(17) 0.48625(9)
C29 C 0.59585(9) 0.86146(16) 0.44018(9)
H21 H 0.6020 0.9392 0.4217
C30 C 0.63608(8) 0.76331(16) 0.42213(9)
H22 H 0.6682 0.7762 0.3904
C31 C 0.49812(10) 0.94104(16) 0.50781(10)
H23 H 0.4630 0.9167 0.5344
N1D N 0.36919(7) 1.34979(13) 0.55156(7)
C26D C 0.41633(8) 1.36543(17) 0.50629(9)
H19D H 0.4199 1.4427 0.4867
C27D C 0.45956(8) 1.27352(16) 0.48727(9)
H20D H 0.4923 1.2900 0.4566
C28D C 0.45424(8) 1.15640(17) 0.51375(9)
C29D C 0.40415(9) 1.13854(16) 0.55982(9)
H21D H 0.3980 1.0608 0.5783
C30D C 0.36392(8) 1.23669(16) 0.57787(9)
H22D H 0.3318 1.2238 0.6096
C31D C 0.50188(10) 1.05896(16) 0.49219(10)
H23D H 0.5370 1.0833 0.4656
loop_
_geom_bond_atom_site_label_1
_geom_bond_atom_site_label_2
_geom_bond_site_symmetry_1
_geom_bond_site_symmetry_2
O1 H1 1_555 1_555
O2 H2 1_555 1_555
N1 C26 1_555 1_555
C1 O1 1_555 1_555
C2 C1 1_555 1_555
H3 C2 1_555 1_555
C3 C2 1_555 1_555
H4 C3 1_555 1_555
C4 C3 1_555 1_555
C5 C4 1_555 1_555
H5 C5 1_555 1_555
C6 C1 1_555 1_555
H6 C6 1_555 1_555
C7 O2 1_555 1_555
C8 C7 1_555 1_555
H7 C8 1_555 1_555
C9 C8 1_555 1_555
H8 C9 1_555 1_555
C10 C9 1_555 1_555
C11 C10 1_555 1_555
H9 C11 1_555 1_555
C12 C7 1_555 1_555
H10 C12 1_555 1_555
C13 C4 1_555 1_555
C14 C13 1_555 1_555
C15 C14 1_555 1_555
H11 C15 1_555 1_555
C16 C15 1_555 1_555
H12 C16 1_555 1_555
C17 C16 1_555 1_555
H13 C17 1_555 1_555
C18 C17 1_555 1_555
H14 C18 1_555 1_555
C19 C14 1_555 1_555
C20 C19 1_555 1_555
C21 C20 1_555 1_555
H15 C21 1_555 1_555
C22 C21 1_555 1_555
H16 C22 1_555 1_555
C23 C22 1_555 1_555
H17 C23 1_555 1_555
C24 C23 1_555 1_555
H18 C24 1_555 1_555
C25 C13 1_555 1_555
C26 H19 1_555 1_555
C27 C26 1_555 1_555
H20 C27 1_555 1_555
C28 C27 1_555 1_555
C29 C28 1_555 1_555
H21 C29 1_555 1_555
C30 N1 1_555 1_555
H22 C30 1_555 1_555
C31 C28 1_555 1_555
H23 C31 1_555 1_555
N1D C26D 1_555 1_555
C26D H19D 1_555 1_555
C27D C26D 1_555 1_555
H20D C27D 1_555 1_555
C28D C27D 1_555 1_555
C29D C28D 1_555 1_555
H21D C29D 1_555 1_555
C30D N1D 1_555 1_555
H22D C30D 1_555 1_555
C31D C31 1_555 1_555
H23D C31D 1_555 1_555
C5 C6 1_555 1_555
C10 C13 1_555 1_555
C11 C12 1_555 1_555
C18 C19 1_555 1_555
C20 C25 1_555 1_555
C24 C25 1_555 1_555
C29 C30 1_555 1_555
C28D C31D 1_555 1_555
C29D C30D 1_555 1_555

#END
