
#######################################################################
#
#                 Cambridge Crystallographic Data Centre
#                                CCDC 
#
#######################################################################
#
# If this CIF has been generated from an entry in the Cambridge 
# Structural Database, then it will include bibliographic, chemical, 
# crystal, experimental, refinement or atomic coordinate data resulting 
# from the CCDC's data processing and validation procedures.
#
#######################################################################

data_LAPNOH
_chemical_formula_moiety         'C28 H30 O10 S2'
_chemical_name_systematic        
'6-Methoxy-2-phenyl-4,4a,6,7,8,8a-hexahydro-2H-pyrano[3,2-d][1,3]dioxine-7,8-diyl bis(4-methylbenzene-1-sulfonate)'
_symmetry_cell_setting           orthorhombic
_symmetry_space_group_name_H-M   'P 21 21 21'
_symmetry_Int_Tables_number      19
_space_group_name_Hall           'P 2ac 2ab'
loop_
_symmetry_equiv_pos_site_id
_symmetry_equiv_pos_as_xyz
1 x,y,z
2 1/2-x,-y,1/2+z
3 1/2+x,1/2-y,-z
4 -x,1/2+y,1/2-z
_cell_length_a                   5.7031(16)
_cell_length_b                   17.020(5)
_cell_length_c                   28.084(8)
_cell_angle_alpha                90
_cell_angle_beta                 90
_cell_angle_gamma                90
_cell_volume                     2726.02
_exptl_crystal_colour            colorless
_exptl_crystal_description       needle
_chemical_melting_point          '426-428 K'
_cell_formula_units_Z            4
loop_
_atom_site_label
_atom_site_type_symbol
_atom_site_fract_x
_atom_site_fract_y
_atom_site_fract_z
S1 S 0.5416(2) -0.05008(7) 0.71777(4)
S2 S 0.0901(2) 0.09753(6) 0.59013(4)
O1 O 0.4150(6) -0.20508(16) 0.61006(9)
O2 O 0.4498(5) -0.05358(16) 0.51713(9)
O3 O 0.5946(6) -0.17301(16) 0.48707(10)
O4 O 0.0148(5) -0.18698(16) 0.62785(10)
O5 O 0.5053(5) -0.06571(16) 0.66275(10)
O6 O 0.4090(6) -0.10660(18) 0.74447(10)
O7 O 0.7922(5) -0.04735(18) 0.72221(11)
O8 O 0.3017(6) 0.03820(16) 0.59950(10)
O9 O -0.1278(6) 0.05763(18) 0.59845(12)
O10 O 0.1498(7) 0.16567(17) 0.61702(12)
C1 C 0.2469(8) -0.1719(2) 0.64186(15)
H1 H 0.2724 -0.1942 0.6744
C2 C 0.2700(8) -0.0829(2) 0.64421(15)
H2 H 0.1466 -0.0600 0.6653
C3 C 0.2614(8) -0.0455(2) 0.59468(15)
H3 H 0.1050 -0.0551 0.5797
C4 C 0.4517(8) -0.0828(2) 0.56520(14)
H4 H 0.6079 -0.0725 0.5801
C5 C 0.6340(8) -0.0903(2) 0.49103(15)
H5 H 0.7864 -0.0810 0.5077
C6 C 0.5940(9) -0.2098(2) 0.53331(14)
H6 H 0.7491 -0.2034 0.5486
H7 H 0.5617 -0.2667 0.5300
C7 C 0.4060(8) -0.1715(2) 0.56347(14)
H8 H 0.2486 -0.1816 0.5490
C8 C -0.0436(9) -0.2694(2) 0.63036(16)
H9 H 0.0214 -0.2967 0.6026
H10 H -0.2144 -0.2756 0.6307
H11 H 0.0226 -0.2920 0.6595
C9 C 0.4247(8) 0.0431(3) 0.72699(14)
C10 C 0.2123(9) 0.0499(3) 0.75107(16)
H12 H 0.1389 0.0047 0.7643
C11 C 0.1086(10) 0.1235(3) 0.75561(17)
H13 H -0.0389 0.1282 0.7711
C12 C 0.2174(9) 0.1902(3) 0.73783(16)
C13 C 0.4373(9) 0.1825(3) 0.71563(17)
H14 H 0.5174 0.2281 0.7049
C14 C 0.5373(9) 0.1099(2) 0.70937(15)
H15 H 0.6827 0.1052 0.6931
C15 C 0.1022(11) 0.2697(3) 0.74185(19)
H16 H -0.0680 0.2638 0.7385
H17 H 0.1614 0.3042 0.7166
H18 H 0.1383 0.2926 0.7730
C16 C 0.1142(9) 0.1205(2) 0.52932(15)
C17 C 0.3093(9) 0.1617(2) 0.51311(17)
H19 H 0.4347 0.1732 0.5342
C18 C 0.3201(9) 0.1857(2) 0.46615(17)
H20 H 0.4541 0.2133 0.4550
C19 C 0.1355(10) 0.1698(2) 0.43491(16)
C20 C -0.0548(9) 0.1276(3) 0.45155(17)
H21 H -0.1796 0.1157 0.4303
C21 C -0.0680(9) 0.1023(2) 0.49803(16)
H22 H -0.1995 0.0729 0.5087
C22 C 0.1410(11) 0.2005(3) 0.38427(18)
H23 H 0.0745 0.1610 0.3628
H24 H 0.3034 0.2114 0.3750
H25 H 0.0485 0.2489 0.3822
C23 C 0.6480(8) -0.0578(2) 0.44167(14)
C24 C 0.4715(8) -0.0126(2) 0.42182(15)
H26 H 0.3351 -0.0008 0.4399
C25 C 0.4936(9) 0.0159(3) 0.37499(16)
H27 H 0.3720 0.0469 0.3615
C26 C 0.6925(9) -0.0012(3) 0.34847(17)
H28 H 0.7071 0.0181 0.3169
C27 C 0.8701(9) -0.0465(3) 0.36821(16)
H29 H 1.0055 -0.0589 0.3500
C28 C 0.8494(8) -0.0738(2) 0.41477(15)
H30 H 0.9731 -0.1036 0.4284
loop_
_geom_bond_atom_site_label_1
_geom_bond_atom_site_label_2
_geom_bond_site_symmetry_1
_geom_bond_site_symmetry_2
S1 O5 1_555 1_555
S2 O8 1_555 1_555
O1 C1 1_555 1_555
O2 C4 1_555 1_555
O3 C5 1_555 1_555
O4 C1 1_555 1_555
O5 C2 1_555 1_555
O6 S1 1_555 1_555
O7 S1 1_555 1_555
O8 C3 1_555 1_555
O9 S2 1_555 1_555
O10 S2 1_555 1_555
C1 H1 1_555 1_555
C2 C1 1_555 1_555
H2 C2 1_555 1_555
C3 C2 1_555 1_555
H3 C3 1_555 1_555
C4 C3 1_555 1_555
H4 C4 1_555 1_555
C5 O2 1_555 1_555
H5 C5 1_555 1_555
C6 O3 1_555 1_555
H6 C6 1_555 1_555
H7 C6 1_555 1_555
C7 O1 1_555 1_555
H8 C7 1_555 1_555
C8 O4 1_555 1_555
H9 C8 1_555 1_555
H10 C8 1_555 1_555
H11 C8 1_555 1_555
C9 S1 1_555 1_555
C10 C9 1_555 1_555
H12 C10 1_555 1_555
C11 C10 1_555 1_555
H13 C11 1_555 1_555
C12 C11 1_555 1_555
C13 C12 1_555 1_555
H14 C13 1_555 1_555
C14 C9 1_555 1_555
H15 C14 1_555 1_555
C15 C12 1_555 1_555
H16 C15 1_555 1_555
H17 C15 1_555 1_555
H18 C15 1_555 1_555
C16 S2 1_555 1_555
C17 C16 1_555 1_555
H19 C17 1_555 1_555
C18 C17 1_555 1_555
H20 C18 1_555 1_555
C19 C18 1_555 1_555
C20 C19 1_555 1_555
H21 C20 1_555 1_555
C21 C16 1_555 1_555
H22 C21 1_555 1_555
C22 C19 1_555 1_555
H23 C22 1_555 1_555
H24 C22 1_555 1_555
H25 C22 1_555 1_555
C23 C5 1_555 1_555
C24 C23 1_555 1_555
H26 C24 1_555 1_555
C25 C24 1_555 1_555
H27 C25 1_555 1_555
C26 C25 1_555 1_555
H28 C26 1_555 1_555
C27 C26 1_555 1_555
H29 C27 1_555 1_555
C28 C23 1_555 1_555
H30 C28 1_555 1_555
C4 C7 1_555 1_555
C6 C7 1_555 1_555
C13 C14 1_555 1_555
C20 C21 1_555 1_555
C27 C28 1_555 1_555

#END
