
#######################################################################
#
#                 Cambridge Crystallographic Data Centre
#                                CCDC 
#
#######################################################################
#
# If this CIF has been generated from an entry in the Cambridge 
# Structural Database, then it will include bibliographic, chemical, 
# crystal, experimental, refinement or atomic coordinate data resulting 
# from the CCDC's data processing and validation procedures.
#
#######################################################################

data_LAPQEA
_chemical_formula_moiety         'C14 H10 Cl2 N2 O2'
_chemical_name_systematic        
'(E)-(2-Chlorobenzylidene)amino 2-amino-4-chlorobenzoate'
_symmetry_cell_setting           monoclinic
_symmetry_space_group_name_H-M   'P 21/n'
_symmetry_Int_Tables_number      14
_space_group_name_Hall           '-P 2yn'
loop_
_symmetry_equiv_pos_site_id
_symmetry_equiv_pos_as_xyz
1 x,y,z
2 1/2-x,1/2+y,1/2-z
3 -x,-y,-z
4 1/2+x,1/2-y,1/2+z
_cell_length_a                   7.4034(5)
_cell_length_b                   23.8190(15)
_cell_length_c                   7.6362(5)
_cell_angle_alpha                90
_cell_angle_beta                 96.3820(10)
_cell_angle_gamma                90
_cell_volume                     1338.23
_exptl_crystal_colour            colorless
_exptl_crystal_description       block
_cell_formula_units_Z            4
_exptl_crystal_recrystallization_method ether
loop_
_atom_site_label
_atom_site_type_symbol
_atom_site_fract_x
_atom_site_fract_y
_atom_site_fract_z
C1 C 0.45478(14) 0.08217(4) 0.17648(13)
C2 C 0.36816(14) 0.09752(5) 0.01219(13)
H1 H 0.3133 0.0698 -0.0659
C3 C 0.36279(15) 0.15379(5) -0.03640(14)
H2 H 0.3043 0.1646 -0.1483
C4 C 0.44295(15) 0.19433(5) 0.07849(14)
H3 H 0.4383 0.2328 0.0453
C5 C 0.52956(14) 0.17850(4) 0.24135(13)
H4 H 0.5854 0.2063 0.3184
C6 C 0.53611(13) 0.12204(4) 0.29440(13)
C7 C 0.62742(13) 0.10574(4) 0.46828(13)
H5 H 0.6660 0.0682 0.4918
C8 C 0.80555(13) 0.16068(4) 0.86039(13)
C9 C 0.89159(13) 0.13801(4) 1.02756(13)
C10 C 0.97488(13) 0.17569(4) 1.15683(13)
C11 C 1.05960(14) 0.15271(4) 1.31596(13)
H6 H 1.1176 0.1767 1.4044
C12 C 1.05789(14) 0.09568(4) 1.34250(13)
C13 C 0.97615(14) 0.05787(4) 1.21752(14)
H7 H 0.9772 0.0186 1.2394
C14 C 0.89387(13) 0.07991(4) 1.06104(13)
H8 H 0.8374 0.0552 0.9739
Cl1 Cl 0.45712(4) 0.011502(10) 0.23325(3)
Cl2 Cl 1.16302(4) 0.069412(12) 1.54105(3)
N1 N 0.65290(13) 0.14358(4) 0.58580(12)
N2 N 0.97461(13) 0.23234(4) 1.13648(13)
H9 H 1.0264 0.2539 1.2213
H10 H 0.9226 0.2475 1.0385
O1 O 0.74622(10) 0.11954(3) 0.74289(10)
O2 O 0.78875(12) 0.21027(3) 0.82487(11)
loop_
_geom_bond_atom_site_label_1
_geom_bond_atom_site_label_2
_geom_bond_site_symmetry_1
_geom_bond_site_symmetry_2
C1 C2 1_555 1_555
C2 H1 1_555 1_555
C3 C2 1_555 1_555
H2 C3 1_555 1_555
C4 C3 1_555 1_555
H3 C4 1_555 1_555
C5 C4 1_555 1_555
H4 C5 1_555 1_555
C6 C1 1_555 1_555
C7 C6 1_555 1_555
H5 C7 1_555 1_555
C8 C9 1_555 1_555
C9 C10 1_555 1_555
C10 C11 1_555 1_555
C11 H6 1_555 1_555
C12 C11 1_555 1_555
C13 C12 1_555 1_555
H7 C13 1_555 1_555
C14 C9 1_555 1_555
H8 C14 1_555 1_555
Cl1 C1 1_555 1_555
Cl2 C12 1_555 1_555
N1 C7 1_555 1_555
N2 C10 1_555 1_555
H9 N2 1_555 1_555
H10 N2 1_555 1_555
O1 C8 1_555 1_555
O2 C8 1_555 1_555
C5 C6 1_555 1_555
C13 C14 1_555 1_555
N1 O1 1_555 1_555

#END
