
#######################################################################
#
#                 Cambridge Crystallographic Data Centre
#                                CCDC 
#
#######################################################################
#
# If this CIF has been generated from an entry in the Cambridge 
# Structural Database, then it will include bibliographic, chemical, 
# crystal, experimental, refinement or atomic coordinate data resulting 
# from the CCDC's data processing and validation procedures.
#
#######################################################################

data_LAPQAW
_chemical_formula_moiety         'C10 H10 N4 O1 S1'
_chemical_name_systematic        
5-(([(E)-Benzylideneamino]oxy)methyl)-1,3,4-thiadiazol-2-amine
_symmetry_cell_setting           monoclinic
_symmetry_space_group_name_H-M   'P 21/c'
_symmetry_Int_Tables_number      14
_space_group_name_Hall           '-P 2ybc'
loop_
_symmetry_equiv_pos_site_id
_symmetry_equiv_pos_as_xyz
1 x,y,z
2 -x,1/2+y,1/2-z
3 -x,-y,-z
4 x,1/2-y,1/2+z
_cell_length_a                   14.504(4)
_cell_length_b                   9.272(3)
_cell_length_c                   8.361(3)
_cell_angle_alpha                90
_cell_angle_beta                 106.750(10)
_cell_angle_gamma                90
_cell_volume                     1076.69
_exptl_crystal_colour            colorless
_exptl_crystal_description       block
_cell_formula_units_Z            4
_exptl_crystal_recrystallization_method ether
loop_
_atom_site_label
_atom_site_type_symbol
_atom_site_fract_x
_atom_site_fract_y
_atom_site_fract_z
C1 C -0.01298(17) 0.3905(3) 0.3290(3)
C2 C -0.03790(18) 0.4774(3) 0.1867(3)
H1 H 0.0110 0.5234 0.1502
C3 C -0.13385(19) 0.4967(3) 0.0985(4)
H2 H -0.1507 0.5548 0.0007
C4 C -0.20545(19) 0.4310(3) 0.1531(4)
H3 H -0.2712 0.4441 0.0925
C5 C -0.18121(18) 0.3468(3) 0.2954(4)
H4 H -0.2304 0.3018 0.3320
C6 C -0.08548(18) 0.3276(3) 0.3849(3)
H5 H -0.0692 0.2716 0.4843
C7 C 0.08712(17) 0.3580(3) 0.4188(3)
H6 H 0.1040 0.3320 0.5335
C8 C 0.30958(17) 0.3047(3) 0.3626(3)
H7 H 0.2771 0.2631 0.2517
H8 H 0.3607 0.2370 0.4222
C9 C 0.35421(16) 0.4469(3) 0.3404(3)
C10 C 0.42588(16) 0.6806(3) 0.3667(3)
N1 N 0.15225(14) 0.3645(2) 0.3424(3)
N2 N 0.39251(14) 0.4743(2) 0.2222(3)
N3 N 0.43442(15) 0.6105(2) 0.2357(3)
N4 N 0.45809(15) 0.8148(2) 0.4095(3)
H9 H 0.4876 0.8624 0.3475
H10 H 0.4498 0.8552 0.4995
O1 O 0.24135(12) 0.3211(2) 0.4548(2)
S1 S 0.36427(4) 0.58523(7) 0.48329(8)
loop_
_geom_bond_atom_site_label_1
_geom_bond_atom_site_label_2
_geom_bond_site_symmetry_1
_geom_bond_site_symmetry_2
C1 C2 1_555 1_555
C2 H1 1_555 1_555
C3 C2 1_555 1_555
H2 C3 1_555 1_555
C4 C3 1_555 1_555
H3 C4 1_555 1_555
C5 C4 1_555 1_555
H4 C5 1_555 1_555
C6 C1 1_555 1_555
H5 C6 1_555 1_555
C7 C1 1_555 1_555
H6 C7 1_555 1_555
C8 H7 1_555 1_555
H8 C8 1_555 1_555
C9 C8 1_555 1_555
C10 N3 1_555 1_555
N1 C7 1_555 1_555
N2 C9 1_555 1_555
N3 N2 1_555 1_555
N4 C10 1_555 1_555
H9 N4 1_555 1_555
H10 N4 1_555 1_555
O1 C8 1_555 1_555
S1 C9 1_555 1_555
C5 C6 1_555 1_555
C10 S1 1_555 1_555
N1 O1 1_555 1_555

#END
