
#######################################################################
#
#                 Cambridge Crystallographic Data Centre
#                                CCDC 
#
#######################################################################
#
# If this CIF has been generated from an entry in the Cambridge 
# Structural Database, then it will include bibliographic, chemical, 
# crystal, experimental, refinement or atomic coordinate data resulting 
# from the CCDC's data processing and validation procedures.
#
#######################################################################

data_LAPREB
_chemical_formula_moiety         'C17 H15 Br1 O3'
_chemical_name_systematic        
(E)-3-(2-bromophenyl)-1-(3,4-dimethoxyphenyl)prop-2-en-1-one
_symmetry_cell_setting           triclinic
_symmetry_space_group_name_H-M   'P -1'
_symmetry_Int_Tables_number      2
_space_group_name_Hall           '-P 1'
loop_
_symmetry_equiv_pos_site_id
_symmetry_equiv_pos_as_xyz
1 x,y,z
2 -x,-y,-z
_cell_length_a                   11.574(6)
_cell_length_b                   11.781(6)
_cell_length_c                   11.877(6)
_cell_angle_alpha                91.857(9)
_cell_angle_beta                 107.021(9)
_cell_angle_gamma                91.917(9)
_cell_volume                     1546.16
_exptl_crystal_colour            colorless
_exptl_crystal_description       block
_chemical_melting_point          '372-376 K'
_cell_formula_units_Z            4
_exptl_crystal_recrystallization_method ethanol/dichloromethane
loop_
_atom_site_label
_atom_site_type_symbol
_atom_site_fract_x
_atom_site_fract_y
_atom_site_fract_z
Br1 Br 1.31399(5) 0.24675(5) 0.31891(5)
O1 O 0.9383(3) 0.2110(3) -0.0037(3)
O2 O 0.5144(2) 0.1793(2) -0.2772(2)
O3 O 0.4199(2) -0.0087(2) -0.2365(2)
C1 C 1.2701(3) 0.0977(4) 0.3508(3)
C2 C 1.3450(4) 0.0455(5) 0.4462(4)
H1 H 1.4151 0.0837 0.4931
C3 C 1.3160(4) -0.0620(6) 0.4713(4)
H2 H 1.3671 -0.0972 0.5348
C4 C 1.2123(4) -0.1185(4) 0.4041(4)
H3 H 1.1925 -0.1916 0.4217
C5 C 1.1384(3) -0.0663(4) 0.3111(3)
H4 H 1.0687 -0.1058 0.2652
C6 C 1.1626(3) 0.0426(3) 0.2819(3)
C7 C 1.0796(3) 0.0964(3) 0.1822(3)
H5 H 1.1088 0.1627 0.1576
C8 C 0.9686(3) 0.0613(3) 0.1239(3)
H6 H 0.9355 -0.0046 0.1454
C9 C 0.8956(3) 0.1246(4) 0.0248(3)
C10 C 0.7700(3) 0.0834(3) -0.0386(3)
C11 C 0.7197(3) -0.0189(3) -0.0212(3)
H7 H 0.7648 -0.0658 0.0351
C12 C 0.6032(3) -0.0537(3) -0.0856(3)
H8 H 0.5702 -0.1234 -0.0727
C13 C 0.5364(3) 0.0158(3) -0.1691(3)
C14 C 0.5866(3) 0.1193(3) -0.1896(3)
C15 C 0.7013(3) 0.1528(3) -0.1241(3)
H9 H 0.7342 0.2227 -0.1366
C16 C 0.5611(4) 0.2853(3) -0.3024(4)
H10 H 0.5780 0.3361 -0.2342
H11 H 0.5025 0.3173 -0.3670
H12 H 0.6342 0.2740 -0.3232
C17 C 0.3661(4) -0.1170(4) -0.2221(4)
H13 H 0.4091 -0.1768 -0.2464
H14 H 0.2830 -0.1222 -0.2696
H15 H 0.3701 -0.1243 -0.1408
Br2 Br 0.65864(5) 0.47379(5) 1.48067(4)
O4 O 0.3197(2) 0.4779(3) 1.1131(3)
O5 O -0.0283(2) 0.3636(2) 0.7519(2)
O6 O 0.0593(2) 0.2352(2) 0.6217(2)
C18 C 0.7467(3) 0.4225(3) 1.3779(3)
C19 C 0.8659(4) 0.4014(4) 1.4280(4)
H16 H 0.9010 0.4123 1.5089
C20 C 0.9328(4) 0.3639(4) 1.3572(5)
H17 H 1.0139 0.3494 1.3907
C21 C 0.8821(4) 0.3475(4) 1.2382(5)
H18 H 0.9288 0.3234 1.1910
C22 C 0.7612(3) 0.3668(3) 1.1886(4)
H19 H 0.7268 0.3537 1.1079
C23 C 0.6898(3) 0.4055(3) 1.2563(3)
C24 C 0.5611(3) 0.4248(3) 1.2031(3)
H20 H 0.5237 0.4667 1.2490
C25 C 0.4934(3) 0.3899(3) 1.0985(3)
H21 H 0.5277 0.3484 1.0496
C26 C 0.3628(3) 0.4145(3) 1.0551(3)
C27 C 0.2870(3) 0.3600(3) 0.9424(3)
C28 C 0.3319(3) 0.2920(3) 0.8702(3)
H22 H 0.4133 0.2757 0.8939
C29 C 0.2586(3) 0.2475(3) 0.7631(3)
H23 H 0.2905 0.2007 0.7161
C30 C 0.1385(3) 0.2725(3) 0.7262(3)
C31 C 0.0910(3) 0.3418(3) 0.7983(3)
C32 C 0.1640(3) 0.3843(3) 0.9051(3)
H24 H 0.1319 0.4294 0.9532
C33 C -0.0848(3) 0.4297(3) 0.8225(3)
H25 H -0.0833 0.3903 0.8923
H26 H -0.1671 0.4411 0.7783
H27 H -0.0419 0.5020 0.8442
C34 C 0.1004(4) 0.1567(5) 0.5498(4)
H28 H 0.1655 0.1919 0.5268
H29 H 0.0351 0.1346 0.4808
H30 H 0.1283 0.0907 0.5934
loop_
_geom_bond_atom_site_label_1
_geom_bond_atom_site_label_2
_geom_bond_site_symmetry_1
_geom_bond_site_symmetry_2
Br1 C1 1_555 1_555
Br2 C18 1_555 1_555
O1 C9 1_555 1_555
O2 C14 1_555 1_555
O3 C13 1_555 1_555
O4 C26 1_555 1_555
O5 C31 1_555 1_555
O6 C30 1_555 1_555
C1 C2 1_555 1_555
C2 H1 1_555 1_555
C3 C2 1_555 1_555
H2 C3 1_555 1_555
C4 C3 1_555 1_555
H3 C4 1_555 1_555
C5 C4 1_555 1_555
H4 C5 1_555 1_555
C6 C1 1_555 1_555
C7 C6 1_555 1_555
H5 C7 1_555 1_555
C8 C7 1_555 1_555
H6 C8 1_555 1_555
C9 C8 1_555 1_555
C10 C9 1_555 1_555
C11 C10 1_555 1_555
H7 C11 1_555 1_555
C12 C11 1_555 1_555
H8 C12 1_555 1_555
C13 C12 1_555 1_555
C14 C13 1_555 1_555
C15 C10 1_555 1_555
H9 C15 1_555 1_555
C16 O2 1_555 1_555
H10 C16 1_555 1_555
H11 C16 1_555 1_555
H12 C16 1_555 1_555
C17 O3 1_555 1_555
H13 C17 1_555 1_555
H14 C17 1_555 1_555
H15 C17 1_555 1_555
C18 C19 1_555 1_555
C19 H16 1_555 1_555
C20 C19 1_555 1_555
H17 C20 1_555 1_555
C21 C20 1_555 1_555
H18 C21 1_555 1_555
C22 C21 1_555 1_555
H19 C22 1_555 1_555
C23 C18 1_555 1_555
C24 C23 1_555 1_555
H20 C24 1_555 1_555
C25 C24 1_555 1_555
H21 C25 1_555 1_555
C26 C25 1_555 1_555
C27 C26 1_555 1_555
C28 C27 1_555 1_555
H22 C28 1_555 1_555
C29 C28 1_555 1_555
H23 C29 1_555 1_555
C30 C29 1_555 1_555
C31 C30 1_555 1_555
C32 C27 1_555 1_555
H24 C32 1_555 1_555
C33 O5 1_555 1_555
H25 C33 1_555 1_555
H26 C33 1_555 1_555
H27 C33 1_555 1_555
C34 O6 1_555 1_555
H28 C34 1_555 1_555
H29 C34 1_555 1_555
H30 C34 1_555 1_555
C5 C6 1_555 1_555
C14 C15 1_555 1_555
C22 C23 1_555 1_555
C31 C32 1_555 1_555

#END
