
#######################################################################
#
#                 Cambridge Crystallographic Data Centre
#                                CCDC 
#
#######################################################################
#
# If this CIF has been generated from an entry in the Cambridge 
# Structural Database, then it will include bibliographic, chemical, 
# crystal, experimental, refinement or atomic coordinate data resulting 
# from the CCDC's data processing and validation procedures.
#
#######################################################################

data_LAPVEF01
_chemical_formula_moiety         'C21 H15 N3 O4,C3 H7 N1 O1'
_chemical_name_systematic        
'4-[3,5-bis(2-hydroxyphenyl)-1H-1,2,4-triazol-1-yl]benzoic acid N,N-dimethylformamide solvate'
_symmetry_cell_setting           monoclinic
_symmetry_space_group_name_H-M   'P 21/c'
_symmetry_Int_Tables_number      14
_space_group_name_Hall           '-P 2ybc'
loop_
_symmetry_equiv_pos_site_id
_symmetry_equiv_pos_as_xyz
1 x,y,z
2 -x,1/2+y,1/2-z
3 -x,-y,-z
4 x,1/2-y,1/2+z
_cell_length_a                   8.9013(4)
_cell_length_b                   33.2054(14)
_cell_length_c                   7.7293(3)
_cell_angle_alpha                90
_cell_angle_beta                 94.210(4)
_cell_angle_gamma                90
_cell_volume                     2278.39
_exptl_crystal_colour            colorless
_cell_formula_units_Z            4
loop_
_atom_site_label
_atom_site_type_symbol
_atom_site_fract_x
_atom_site_fract_y
_atom_site_fract_z
O1 O -0.00426(15) 0.24915(5) 0.1295(2)
H1 H -0.0052 0.2301 0.1969
O2 O 0.42878(17) 0.39616(5) -0.1069(2)
H2 H 0.3552 0.3953 -0.0491
O3 O -0.14445(18) 0.41135(4) 0.81751(18)
O4 O -0.1088(3) 0.47042(5) 0.6961(2)
H3 H -0.1401 0.4788 0.7866
N1 N 0.05536(15) 0.31590(4) -0.14909(17)
N2 N 0.05159(15) 0.35478(4) 0.07820(18)
N3 N 0.17321(16) 0.36727(5) -0.00620(19)
C1 C -0.01758(18) 0.32428(5) -0.0107(2)
C2 C 0.17114(18) 0.34287(5) -0.1422(2)
C3 C -0.15558(18) 0.30380(5) 0.0377(2)
C4 C -0.1446(2) 0.26484(5) 0.1052(2)
C5 C -0.2744(2) 0.24492(6) 0.1443(2)
H4 H -0.2687 0.2188 0.1873
C6 C -0.4111(2) 0.26369(7) 0.1199(3)
H5 H -0.4977 0.2501 0.1471
C7 C -0.4227(2) 0.30236(7) 0.0558(3)
H6 H -0.5163 0.3149 0.0408
C8 C -0.2947(2) 0.32239(6) 0.0141(2)
H7 H -0.3019 0.3484 -0.0299
C9 C 0.28406(19) 0.34553(5) -0.2706(2)
C10 C 0.4050(2) 0.37200(6) -0.2483(3)
C11 C 0.5104(2) 0.37388(8) -0.3723(3)
H8 H 0.5917 0.3914 -0.3567
C12 C 0.4953(3) 0.35016(8) -0.5170(3)
H9 H 0.5659 0.3518 -0.5996
C13 C 0.3766(2) 0.32383(7) -0.5412(3)
H10 H 0.3666 0.3078 -0.6400
C14 C 0.2726(2) 0.32133(6) -0.4184(3)
H11 H 0.1932 0.3032 -0.4342
C15 C 0.01202(19) 0.37458(5) 0.2327(2)
C16 C 0.0324(2) 0.41555(6) 0.2492(3)
H12 H 0.0715 0.4303 0.1607
C17 C -0.0063(3) 0.43437(6) 0.3992(3)
H13 H 0.0071 0.4620 0.4116
C18 C -0.0649(2) 0.41246(6) 0.5317(2)
C19 C -0.0849(2) 0.37134(6) 0.5115(2)
H14 H -0.1253 0.3565 0.5990
C20 C -0.0457(2) 0.35225(6) 0.3638(2)
H15 H -0.0577 0.3245 0.3520
C21 C -0.1090(2) 0.43094(6) 0.6968(2)
O5 O -0.2138(3) 0.49962(6) -0.0256(3)
N4 N -0.3490(3) 0.48183(7) 0.1978(3)
C22 C -0.2922(4) 0.47471(10) 0.0494(4)
H16 H -0.3110 0.4498 -0.0031
C23 C -0.4405(5) 0.45125(13) 0.2763(5)
H17 H -0.5425 0.4606 0.2772
H18 H -0.4007 0.4462 0.3932
H19 H -0.4384 0.4268 0.2103
C24 C -0.3247(5) 0.51800(11) 0.2940(5)
H20 H -0.2885 0.5116 0.4108
H21 H -0.4177 0.5326 0.2951
H22 H -0.2515 0.5342 0.2411
loop_
_geom_bond_atom_site_label_1
_geom_bond_atom_site_label_2
_geom_bond_site_symmetry_1
_geom_bond_site_symmetry_2
O1 H1 1_555 1_555
O2 H2 1_555 1_555
O3 C21 1_555 1_555
O4 H3 1_555 1_555
N1 C1 1_555 1_555
N2 N3 1_555 1_555
N3 C2 1_555 1_555
C1 N2 1_555 1_555
C2 N1 1_555 1_555
C3 C1 1_555 1_555
C4 O1 1_555 1_555
C5 C4 1_555 1_555
H4 C5 1_555 1_555
C6 C5 1_555 1_555
H5 C6 1_555 1_555
C7 C6 1_555 1_555
H6 C7 1_555 1_555
C8 C3 1_555 1_555
H7 C8 1_555 1_555
C9 C2 1_555 1_555
C10 O2 1_555 1_555
C11 C10 1_555 1_555
H8 C11 1_555 1_555
C12 C11 1_555 1_555
H9 C12 1_555 1_555
C13 C12 1_555 1_555
H10 C13 1_555 1_555
C14 C9 1_555 1_555
H11 C14 1_555 1_555
C15 N2 1_555 1_555
C16 C15 1_555 1_555
H12 C16 1_555 1_555
C17 C16 1_555 1_555
H13 C17 1_555 1_555
C18 C17 1_555 1_555
C19 C18 1_555 1_555
H14 C19 1_555 1_555
C20 C15 1_555 1_555
H15 C20 1_555 1_555
C21 O4 1_555 1_555
O5 C22 1_555 1_555
N4 C22 1_555 1_555
C22 H16 1_555 1_555
C23 N4 1_555 1_555
H17 C23 1_555 1_555
H18 C23 1_555 1_555
H19 C23 1_555 1_555
C24 N4 1_555 1_555
H20 C24 1_555 1_555
H21 C24 1_555 1_555
H22 C24 1_555 1_555
C3 C4 1_555 1_555
C7 C8 1_555 1_555
C9 C10 1_555 1_555
C13 C14 1_555 1_555
C18 C21 1_555 1_555
C19 C20 1_555 1_555

#END
