
#######################################################################
#
#                 Cambridge Crystallographic Data Centre
#                                CCDC 
#
#######################################################################
#
# If this CIF has been generated from an entry in the Cambridge 
# Structural Database, then it will include bibliographic, chemical, 
# crystal, experimental, refinement or atomic coordinate data resulting 
# from the CCDC's data processing and validation procedures.
#
#######################################################################

data_LAQBIQ
_chemical_formula_moiety         'C11 H7 N1 O4,H2 O1'
_chemical_name_systematic        
'3-Carboxyquinolin-1-ium-2-carboxylate monohydrate'
_symmetry_cell_setting           monoclinic
_symmetry_space_group_name_H-M   'P 21/c'
_symmetry_Int_Tables_number      14
_space_group_name_Hall           '-P 2ybc'
loop_
_symmetry_equiv_pos_site_id
_symmetry_equiv_pos_as_xyz
1 x,y,z
2 -x,1/2+y,1/2-z
3 -x,-y,-z
4 x,1/2-y,1/2+z
_cell_length_a                   7.5424(15)
_cell_length_b                   14.422(3)
_cell_length_c                   9.755(2)
_cell_angle_alpha                90
_cell_angle_beta                 108.17(3)
_cell_angle_gamma                90
_cell_volume                     1008.2
_exptl_crystal_colour            colorless
_exptl_crystal_description       prism
_cell_formula_units_Z            4
loop_
_atom_site_label
_atom_site_type_symbol
_atom_site_fract_x
_atom_site_fract_y
_atom_site_fract_z
C1 C 0.65319(19) 0.09213(9) 1.05483(14)
C2 C 0.67451(18) 0.30200(9) 1.06906(15)
C3 C 0.54746(17) 0.25508(9) 0.93895(14)
C4 C 0.54008(17) 0.15740(9) 0.93584(14)
C5 C 0.31108(17) 0.16028(10) 0.70347(14)
C6 C 0.31153(18) 0.25796(9) 0.70374(14)
C7 C 0.19098(18) 0.30475(10) 0.58263(14)
H1 H 0.1883 0.3692 0.5804
C8 C 0.07928(19) 0.25556(10) 0.46975(16)
H2 H 0.0000 0.2867 0.3909
C9 C 0.08227(19) 0.15775(10) 0.47086(15)
H3 H 0.0054 0.1253 0.3923
C10 C 0.19651(19) 0.10985(10) 0.58570(15)
H4 H 0.1983 0.0454 0.5858
C11 C 0.43333(17) 0.30389(9) 0.82448(14)
H5 H 0.4362 0.3684 0.8265
O1 O 0.80640(13) 0.06645(7) 1.04539(11)
O2 O 0.57317(13) 0.06656(6) 1.14257(10)
O3 O 0.75594(15) 0.25971(7) 1.17666(11)
N1 N 0.42599(15) 0.11485(8) 0.82176(11)
H6 H 0.418(2) 0.0503(15) 0.8245(19)
O5 O 0.68389(15) 0.39253(7) 1.05383(12)
H9 H 0.757(3) 0.4174(13) 1.136(3)
O4 O 0.88294(16) 0.02969(8) 0.79197(12)
H7 H 0.987(2) 0.0010(13) 0.825(2)
H8 H 0.853(3) 0.0434(14) 0.8685(19)
loop_
_geom_bond_atom_site_label_1
_geom_bond_atom_site_label_2
_geom_bond_site_symmetry_1
_geom_bond_site_symmetry_2
C1 C4 1_555 1_555
C2 C3 1_555 1_555
C3 C4 1_555 1_555
C4 N1 1_555 1_555
C5 C6 1_555 1_555
C6 C7 1_555 1_555
C7 H1 1_555 1_555
C8 C7 1_555 1_555
H2 C8 1_555 1_555
C9 C8 1_555 1_555
H3 C9 1_555 1_555
C10 C5 1_555 1_555
H4 C10 1_555 1_555
C11 C3 1_555 1_555
H5 C11 1_555 1_555
O1 C1 1_555 1_555
O2 C1 1_555 1_555
O3 C2 1_555 1_555
N1 C5 1_555 1_555
H6 N1 1_555 1_555
O4 H7 1_555 1_555
H8 O4 1_555 1_555
O5 C2 1_555 1_555
H9 O5 1_555 1_555
C6 C11 1_555 1_555
C9 C10 1_555 1_555

#END
