
#######################################################################
#
#                 Cambridge Crystallographic Data Centre
#                                CCDC 
#
#######################################################################
#
# If this CIF has been generated from an entry in the Cambridge 
# Structural Database, then it will include bibliographic, chemical, 
# crystal, experimental, refinement or atomic coordinate data resulting 
# from the CCDC's data processing and validation procedures.
#
#######################################################################

data_LAQCIS
_chemical_formula_moiety         '2(C111 H109 F6 N19 O17),C42 H52 N2 O4'
_chemical_name_systematic        
'bis((P)-t-butyl (2-{[2-({2-[(2-{[2-({2-[(6-{[6-({6-[(2,2-dimethylpropanoyl)amino]pyridin-2-yl}carbamoyl)pyridine-2-carbonyl]amino}pyridin-2-yl)carbamoyl]-8-fluoro-4-isobutoxyquinolin-7-yl}carbamoyl)-8-fluoro-4-isobutoxyquinolin-7-yl]carbamoyl}-8-fluoro-4-isobutoxyquinolin-7-yl)carbamoyl]-8-fluoro-4-isobutoxyquinolin-7-yl}carbamoyl)-8-fluoro-4-isobutoxyquinolin-7-yl]carbamoyl}-8-fluoro-4-isobutoxyquinolin-7-yl)carbamate) bis(4,4-diphenylbutyl) octane-1,8-diyldicarbamate unknown solvate'
_symmetry_cell_setting           triclinic
_symmetry_space_group_name_H-M   'P -1'
_symmetry_Int_Tables_number      2
_space_group_name_Hall           '-P 1'
loop_
_symmetry_equiv_pos_site_id
_symmetry_equiv_pos_as_xyz
1 x,y,z
2 -x,-y,-z
_cell_length_a                   21.796(4)
_cell_length_b                   24.866(5)
_cell_length_c                   29.183(6)
_cell_angle_alpha                92.05(3)
_cell_angle_beta                 105.37(3)
_cell_angle_gamma                107.96(3)
_cell_volume                     14388.2
_exptl_crystal_colour            yellow
_exptl_crystal_description       prism
_cell_formula_units_Z            2
_chemical_properties_physical    Air-sensitive
loop_
_atom_site_label
_atom_site_type_symbol
_atom_site_fract_x
_atom_site_fract_y
_atom_site_fract_z
C1 C 0.6841(5) 0.6416(3) 1.1294(4)
H1 H 0.6748 0.6563 1.1555
C2 C 0.6498(4) 0.6465(3) 1.0831(5)
H2 H 0.6175 0.6646 1.0783
C3 C 0.6637(3) 0.6244(3) 1.0441(3)
H3 H 0.6407 0.6277 1.0131
C4 C 0.7120(4) 0.5973(3) 1.0514(3)
C5 C 0.7463(3) 0.5924(3) 1.0976(3)
H4 H 0.7786 0.5744 1.1025
C6 C 0.7324(5) 0.6145(4) 1.1367(2)
H5 H 0.7554 0.6112 1.1676
C7 C 0.7271(4) 0.5736(3) 1.0073(3)
H6 H 0.7085 0.5923 0.9807
C8 C 0.6872(4) 0.5105(2) 0.9934(2)
C9 C 0.6179(4) 0.4930(4) 0.9722(2)
H7 H 0.5963 0.5200 0.9656
C10 C 0.5810(3) 0.4353(4) 0.9608(2)
H8 H 0.5347 0.4236 0.9466
C11 C 0.6134(5) 0.3950(3) 0.9707(3)
H9 H 0.5887 0.3563 0.9632
C12 C 0.6826(5) 0.4125(3) 0.9920(3)
H10 H 0.7043 0.3855 0.9986
C13 C 0.7195(3) 0.4702(4) 1.0033(3)
H11 H 0.7659 0.4819 1.0175
C14 C 0.7985(4) 0.5894(4) 1.0115(3)
H12 H 0.8037 0.5736 0.9825
H13 H 0.8196 0.5724 1.0379
C15 C 0.8349(5) 0.6524(4) 1.0197(3)
H14 H 0.8124 0.6694 0.9939
H15 H 0.8307 0.6678 1.0493
C16 C 0.9074(5) 0.6706(4) 1.0226(3)
H16 H 0.9257 0.7119 1.0269
H17 H 0.9317 0.6570 1.0500
O1 O 0.9167(3) 0.6480(2) 0.9786(2)
C17 C 0.9056(4) 0.6762(4) 0.9409(3)
O2 O 0.8948(3) 0.7219(3) 0.9430(2)
N1 N 0.9064(3) 0.6479(3) 0.9017(2)
H18 H 0.9048 0.6130 0.9018
C18 C 0.9100(4) 0.6743(3) 0.8587(3)
H19 H 0.8806 0.6973 0.8534
H20 H 0.8937 0.6448 0.8316
C19 C 0.9800(4) 0.7111(3) 0.8615(3)
H21 H 1.0090 0.6878 0.8670
H22 H 0.9961 0.7401 0.8890
C20 C 0.9872(4) 0.7406(4) 0.8171(3)
H23 H 0.9548 0.7608 0.8098
H24 H 1.0318 0.7688 0.8251
C21 C 0.9772(4) 0.7024(4) 0.7727(3)
H25 H 1.0152 0.6886 0.7777
H26 H 0.9372 0.6696 0.7687
C22 C 0.9699(5) 0.7286(4) 0.7273(3)
H27 H 1.0091 0.7624 0.7319
H28 H 0.9308 0.7411 0.7218
C23 C 0.9626(4) 0.6922(4) 0.6826(3)
H29 H 1.0052 0.6861 0.6854
H30 H 0.9294 0.6553 0.6813
C24 C 0.9424(4) 0.7148(4) 0.6361(3)
H31 H 0.9711 0.7540 0.6388
H32 H 0.9500 0.6929 0.6112
C25 C 0.8713(4) 0.7124(4) 0.6216(3)
H33 H 0.8426 0.6733 0.6195
H34 H 0.8639 0.7349 0.6462
N2 N 0.8515(3) 0.7332(3) 0.5762(3)
H35 H 0.8521 0.7680 0.5765
C26 C 0.8329(5) 0.7022(5) 0.5349(4)
O3 O 0.8194(3) 0.6495(3) 0.5284(2)
O4 O 0.8268(3) 0.7333(2) 0.4990(2)
C27 C 0.7923(5) 0.7029(4) 0.4511(4)
H36 H 0.7462 0.6805 0.4488
H37 H 0.8151 0.6775 0.4433
C28 C 0.7935(5) 0.7479(4) 0.4169(3)
H38 H 0.8401 0.7692 0.4195
H39 H 0.7722 0.7289 0.3844
C29 C 0.7587(5) 0.7889(4) 0.4263(3)
H40 H 0.7767 0.8048 0.4598
H41 H 0.7111 0.7681 0.4203
C30 C 0.7663(6) 0.8368(4) 0.3961(3)
H42 H 0.8148 0.8575 0.4046
C31 C 0.7347(5) 0.8801(4) 0.4060(3)
C32 C 0.6720(4) 0.8636(3) 0.4144(3)
H43 H 0.6488 0.8252 0.4139
C33 C 0.6441(4) 0.9046(5) 0.4237(3)
H44 H 0.6022 0.8936 0.4294
C34 C 0.6788(6) 0.9620(5) 0.4246(3)
H45 H 0.6601 0.9894 0.4308
C35 C 0.7414(6) 0.9785(3) 0.4161(3)
H46 H 0.7646 1.0169 0.4167
C36 C 0.7693(4) 0.9375(4) 0.4068(3)
H47 H 0.8112 0.9485 0.4012
C37 C 0.7443(5) 0.8164(3) 0.3414(2)
C38 C 0.6824(4) 0.7751(4) 0.3189(3)
H48 H 0.6522 0.7604 0.3363
C39 C 0.6657(5) 0.7558(4) 0.2705(3)
H49 H 0.6243 0.7281 0.2554
C40 C 0.7108(7) 0.7778(5) 0.2445(2)
H50 H 0.6996 0.7648 0.2121
C41 C 0.7726(6) 0.8191(5) 0.2670(4)
H51 H 0.8028 0.8338 0.2497
C42 C 0.7894(4) 0.8384(4) 0.3155(4)
H52 H 0.8307 0.8661 0.3305
C43 C 1.0354(7) 0.5793(6) 1.0333(6)
H53 H 0.9991 0.5919 1.0166
H54 H 1.0504 0.5948 1.0665
H55 H 1.0200 0.5384 1.0306
C44 C 1.0645(7) 0.5903(5) 0.9583(4)
H56 H 1.0953 0.5836 0.9425
H57 H 1.0531 0.6230 0.9478
H58 H 1.0243 0.5575 0.9506
C45 C 1.1423(7) 0.5657(6) 1.0299(5)
H59 H 1.1158 0.5262 1.0265
H60 H 1.1656 0.5791 1.0632
H61 H 1.1746 0.5700 1.0122
C46 C 1.0962(6) 0.6004(5) 1.0105(4)
C47 C 1.1266(7) 0.6625(6) 1.0297(4)
O5 O 1.1872(4) 0.6844(4) 1.0518(3)
N3 N 1.0827(4) 0.6945(4) 1.0161(3)
N4 N 0.9924(5) 0.8326(4) 0.9917(3)
H62 H 0.9572 0.8033 0.9796
C48 C 0.9840(8) 0.8854(5) 0.9920(4)
O6 O 1.0297(4) 0.9305(3) 1.0077(3)
C49 C 0.7440(6) 0.7819(4) 0.9153(3)
O7 O 0.6872(4) 0.7830(3) 0.9019(3)
N5 N 0.7596(4) 0.7348(3) 0.9118(2)
H63 H 0.8017 0.7386 0.9215
N6 N 0.7411(3) 0.5495(3) 0.8713(2)
H64 H 0.7836 0.5655 0.8753
C50 C 0.7177(4) 0.4918(3) 0.8619(3)
O8 O 0.6601(3) 0.4632(2) 0.85774(18)
N7 N 1.0525(4) 0.5240(3) 0.8506(2)
H65 H 1.0542 0.5577 0.8439
C51 C 1.1105(5) 0.5163(4) 0.8633(3)
O9 O 1.1179(3) 0.4689(3) 0.8730(2)
N8 N 1.2379(4) 0.8128(3) 0.8447(2)
H66 H 1.1960 0.8088 0.8324
C52 C 1.2813(6) 0.8679(5) 0.8547(4)
O10 O 1.3414(4) 0.8805(3) 0.8715(3)
N9 N 0.9810(4) 0.9400(3) 0.7607(2)
H67 H 0.9629 0.9036 0.7542
C53 C 0.9378(6) 0.9699(5) 0.7511(3)
O11 O 0.9528(3) 1.0215(3) 0.7599(2)
N10 N 0.6914(4) 0.6942(4) 0.6555(3)
H68 H 0.7266 0.6844 0.6583
C54 C 0.6324(6) 0.6512(5) 0.6422(3)
O12 O 0.5780(4) 0.6582(3) 0.6398(2)
N11 N 0.8329(4) 0.4829(3) 0.6126(2)
H69 H 0.8615 0.5165 0.6156
C55 C 0.8564(6) 0.4396(6) 0.6082(3)
O13 O 0.8248(4) 0.3887(3) 0.6036(2)
N12 N 1.1489(4) 0.6746(3) 0.6174(2)
H70 H 1.1284 0.6950 0.6273
C56 C 1.2053(7) 0.7016(5) 0.6045(4)
O14 O 1.2442(3) 0.6813(3) 0.5942(2)
O15 O 1.2127(3) 0.7596(3) 0.6062(2)
C57 C 1.2686(6) 0.8009(5) 0.5957(4)
C58 C 1.2510(5) 0.8549(4) 0.5983(4)
H71 H 1.2749 0.8818 0.5810
H72 H 1.2637 0.8710 0.6312
H73 H 1.2034 0.8463 0.5845
C59 C 1.2698(6) 0.7839(5) 0.5435(4)
H74 H 1.2362 0.7943 0.5206
H75 H 1.2605 0.7435 0.5382
H76 H 1.3134 0.8035 0.5400
C60 C 1.3361(5) 0.8011(5) 0.6297(4)
H77 H 1.3416 0.7647 0.6246
H78 H 1.3364 0.8083 0.6623
H79 H 1.3725 0.8303 0.6234
N13 N 1.0465(4) 0.7685(4) 1.0065(3)
C61 C 1.1009(6) 0.7507(6) 1.0224(4)
C62 C 1.1661(7) 0.7899(6) 1.0455(4)
H80 H 1.2038 0.7790 1.0582
C63 C 1.1678(7) 0.8486(7) 1.0471(5)
H81 H 1.2094 0.8767 1.0606
C64 C 1.1141(7) 0.8658(5) 1.0307(4)
H82 H 1.1181 0.9042 1.0337
C65 C 1.0515(7) 0.8234(5) 1.0089(4)
N14 N 0.8637(5) 0.8362(4) 0.9526(3)
C66 C 0.9119(7) 0.8857(4) 0.9700(4)
C67 C 0.9012(7) 0.9376(5) 0.9706(4)
H83 H 0.9373 0.9710 0.9830
C68 C 0.8378(7) 0.9398(4) 0.9530(4)
H84 H 0.8296 0.9744 0.9533
C69 C 0.7846(6) 0.8877(5) 0.9341(4)
H85 H 0.7402 0.8870 0.9228
C70 C 0.8006(7) 0.8375(5) 0.9329(4)
N15 N 0.7439(3) 0.6400(3) 0.8910(2)
C71 C 0.7057(4) 0.5852(4) 0.8751(3)
C72 C 0.6359(5) 0.5688(4) 0.8622(3)
H86 H 0.6098 0.5307 0.8519
C73 C 0.6069(5) 0.6084(4) 0.8648(3)
H87 H 0.5602 0.5981 0.8552
C74 C 0.6466(6) 0.6657(5) 0.8819(3)
H88 H 0.6270 0.6935 0.8850
C75 C 0.7145(5) 0.6787(4) 0.8938(3)
N16 N 0.8282(3) 0.4996(3) 0.8565(2)
C76 C 0.7675(4) 0.4656(3) 0.8532(3)
C77 C 0.7462(4) 0.4058(4) 0.8427(3)
H89 H 0.7022 0.3837 0.8405
C78 C 0.7920(5) 0.3807(3) 0.8357(3)
C79 C 0.8574(4) 0.4139(3) 0.8395(3)
C80 C 0.8730(4) 0.4745(4) 0.8480(3)
C81 C 0.9395(5) 0.5077(4) 0.8508(3)
C82 C 0.9888(4) 0.4876(4) 0.8459(3)
C83 C 0.9724(5) 0.4285(4) 0.8378(3)
H90 H 1.0054 0.4131 0.8353
C84 C 0.9059(5) 0.3914(4) 0.8331(3)
H91 H 0.8950 0.3522 0.8259
F1 F 0.9549(2) 0.56571(18) 0.85754(15)
N17 N 1.1578(3) 0.6140(3) 0.8572(2)
C85 C 1.1723(4) 0.5652(4) 0.8645(3)
C86 C 1.2318(5) 0.5600(4) 0.8730(3)
H92 H 1.2373 0.5251 0.8792
C87 C 1.2878(5) 0.6070(4) 0.8727(3)
C88 C 1.2778(4) 0.6582(4) 0.8654(3)
C89 C 1.2103(5) 0.6614(4) 0.8582(3)
C90 C 1.2020(5) 0.7132(4) 0.8518(3)
C91 C 1.2525(5) 0.7629(4) 0.8519(3)
C92 C 1.3180(4) 0.7605(5) 0.8573(3)
H93 H 1.3529 0.7931 0.8566
C93 C 1.3294(5) 0.7104(4) 0.8637(3)
H94 H 1.3728 0.7096 0.8671
F2 F 1.1398(2) 0.71681(19) 0.84720(16)
N18 N 1.1815(4) 0.8949(3) 0.8224(3)
C94 C 1.2480(5) 0.9120(4) 0.8419(3)
C95 C 1.2924(5) 0.9692(4) 0.8498(4)
H95 H 1.3388 0.9784 0.8622
C96 C 1.2622(6) 1.0104(5) 0.8381(3)
C97 C 1.1921(5) 0.9952(4) 0.8164(3)
C98 C 1.1527(5) 0.9348(4) 0.8095(3)
C99 C 1.0834(5) 0.9188(4) 0.7910(3)
C100 C 1.0514(6) 0.9601(4) 0.7799(3)
C101 C 1.0918(6) 1.0183(4) 0.7866(3)
H96 H 1.0709 1.0456 0.7788
C102 C 1.1580(6) 1.0349(4) 0.8037(4)
H97 H 1.1827 1.0735 0.8074
F3 F 1.0467(2) 0.86644(19) 0.78540(17)
N19 N 0.8509(4) 0.8794(3) 0.7211(2)
C103 C 0.8665(6) 0.9348(4) 0.7281(3)
C104 C 0.8177(6) 0.9628(4) 0.7160(3)
H98 H 0.8303 1.0021 0.7227
C105 C 0.7507(7) 0.9302(6) 0.6936(4)
C106 C 0.7351(5) 0.8708(5) 0.6845(3)
C107 C 0.7853(5) 0.8474(4) 0.6989(3)
C108 C 0.7682(5) 0.7876(4) 0.6883(3)
C109 C 0.7040(5) 0.7540(4) 0.6655(3)
C110 C 0.6529(5) 0.7773(5) 0.6513(3)
H99 H 0.6090 0.7540 0.6357
C111 C 0.6675(5) 0.8351(5) 0.6606(3)
H100 H 0.6334 0.8510 0.6513
F4 F 0.8163(2) 0.76332(19) 0.70403(17)
N20 N 0.6948(4) 0.5901(4) 0.6337(2)
C112 C 0.6350(5) 0.5938(5) 0.6338(3)
C113 C 0.5768(5) 0.5480(5) 0.6256(3)
H101 H 0.5363 0.5536 0.6249
C114 C 0.5792(5) 0.4938(5) 0.6183(3)
C115 C 0.6415(5) 0.4865(5) 0.6147(3)
C116 C 0.6973(5) 0.5375(4) 0.6244(3)
C117 C 0.7593(5) 0.5324(5) 0.6223(3)
C118 C 0.7665(5) 0.4804(4) 0.6131(3)
C119 C 0.7106(6) 0.4315(4) 0.6045(3)
H102 H 0.7147 0.3961 0.5982
C120 C 0.6491(6) 0.4353(4) 0.6053(3)
H103 H 0.6120 0.4022 0.5993
F5 F 0.8137(2) 0.5790(2) 0.63146(17)
N21 N 0.9564(4) 0.5152(3) 0.6106(2)
C121 C 0.9302(6) 0.4602(5) 0.6103(3)
C122 C 0.9624(7) 0.4192(5) 0.6131(3)
H104 H 0.9393 0.3807 0.6120
C123 C 1.0327(6) 0.4399(5) 0.6176(3)
C124 C 1.0655(6) 0.5000(4) 0.6182(3)
C125 C 1.0248(5) 0.5343(4) 0.6140(3)
C126 C 1.0585(6) 0.5923(4) 0.6130(3)
C127 C 1.1232(5) 0.6161(4) 0.6154(3)
C128 C 1.1613(5) 0.5784(5) 0.6200(3)
H105 H 1.2069 0.5925 0.6220
C129 C 1.1324(6) 0.5224(4) 0.6214(3)
H106 H 1.1584 0.4986 0.6247
F6 F 1.0188(2) 0.62762(19) 0.61065(16)
O16 O 1.3520(3) 0.6058(3) 0.8802(2)
C130 C 1.3648(5) 0.5549(5) 0.8932(4)
H107 H 1.3365 0.5229 0.8689
H108 H 1.3561 0.5465 0.9235
C131 C 1.4401(5) 0.5667(5) 0.8973(4)
H109 H 1.4470 0.5751 0.8661
C132 C 1.4576(5) 0.5123(5) 0.9094(4)
H110 H 1.4343 0.4829 0.8828
H111 H 1.4441 0.4999 0.9371
H112 H 1.5054 0.5204 0.9160
C133 C 1.4857(5) 0.6152(5) 0.9337(4)
H113 H 1.5310 0.6145 0.9405
H114 H 1.4722 0.6123 0.9625
H115 H 1.4837 0.6503 0.9218
O17 O 1.2974(4) 1.0662(3) 0.8445(3)
C134 C 1.3686(6) 1.0854(5) 0.8665(5)
H116 H 1.3780 1.0718 0.8975
H117 H 1.3897 1.0692 0.8468
C135 C 1.3977(8) 1.1461(7) 0.8728(8)
H118 H 1.3966 1.1468 0.8391
C136 C 1.3657(10) 1.1849(8) 0.8710(12)
H119 H 1.3725 1.2070 0.8454
H120 H 1.3836 1.2097 0.9008
H121 H 1.3184 1.1657 0.8656
C137 C 1.4730(8) 1.1636(7) 0.8892(12)
H122 H 1.4865 1.1375 0.9097
H123 H 1.4912 1.2013 0.9065
H124 H 1.4896 1.1634 0.8618
O18 O 0.7004(4) 0.9518(3) 0.6808(3)
C138 C 0.7149(7) 1.0119(5) 0.6972(5)
H125 H 0.7431 1.0365 0.6804
H126 H 0.7370 1.0208 0.7314
C139 C 0.6434(8) 1.0178(7) 0.6843(7)
H127 H 0.6192 1.0044 0.6504
C140 C 0.6034(11) 0.9841(10) 0.7169(8)
H128 H 0.6156 0.9506 0.7232
H129 H 0.5560 0.9733 0.7011
H130 H 0.6140 1.0077 0.7466
C141 C 0.6578(9) 1.0823(8) 0.6955(6)
H131 H 0.7056 1.1015 0.7057
H132 H 0.6389 1.0890 0.7205
H133 H 0.6378 1.0965 0.6672
O19 O 0.5297(3) 0.4444(3) 0.6139(2)
C142 C 0.4730(6) 0.4488(5) 0.6246(4)
H134 H 0.4581 0.4757 0.6051
H135 H 0.4873 0.4659 0.6578
C143 C 0.4150(7) 0.3989(6) 0.6189(6)
H136 H 0.4036 0.3750 0.5884
C144 C 0.3581(8) 0.3925(9) 0.6351(7)
H137 H 0.3460 0.4265 0.6321
H138 H 0.3684 0.3860 0.6681
H139 H 0.3212 0.3606 0.6161
C145 C 0.4450(6) 0.3731(6) 0.6598(7)
H140 H 0.4720 0.3531 0.6505
H141 H 0.4098 0.3469 0.6698
H142 H 0.4728 0.4024 0.6859
O20 O 1.0715(4) 0.4069(3) 0.6212(2)
C146 C 1.0431(7) 0.3467(4) 0.6259(4)
H143 H 1.0070 0.3274 0.5972
H144 H 1.0247 0.3428 0.6529
C147 C 1.0977(8) 0.3203(6) 0.6334(5)
H145 H 1.1159 0.3247 0.6059
C148 C 1.0651(9) 0.2561(7) 0.6354(6)
H146 H 1.0179 0.2444 0.6185
H147 H 1.0707 0.2494 0.6683
H148 H 1.0863 0.2347 0.6208
C149 C 1.1518(10) 0.3453(7) 0.6763(6)
H149 H 1.1805 0.3223 0.6828
H150 H 1.1337 0.3476 0.7027
H151 H 1.1775 0.3829 0.6723
O21 O 0.7775(3) 0.3235(2) 0.8256(2)
C150 C 0.7118(4) 0.2853(3) 0.8224(3)
H152 H 0.6785 0.2938 0.7970
H153 H 0.7015 0.2905 0.8523
C151 C 0.7085(9) 0.2257(5) 0.8125(7)
H154 H 0.7257 0.2234 0.8467
C152 C 0.7590(9) 0.2084(6) 0.8024(13)
H155 H 0.7982 0.2412 0.8059
H156 H 0.7434 0.1896 0.7702
H157 H 0.7703 0.1826 0.8242
C153 C 0.6395(6) 0.1854(4) 0.8105(5)
H158 H 0.6073 0.2051 0.8032
H159 H 0.6408 0.1716 0.8409
H160 H 0.6267 0.1538 0.7861
C154 C 0.3469(7) 0.8207(8) 1.0580(5)
H161 H 0.3752 0.8598 1.0673
H162 H 0.3680 0.7968 1.0768
H163 H 0.3041 0.8160 1.0634
C155 C 0.3965(5) 0.8376(5) 0.9862(4)
H164 H 0.3874 0.8283 0.9524
H165 H 0.4356 0.8286 1.0030
H166 H 0.4043 0.8775 0.9935
C156 C 0.3158(6) 0.7415(6) 0.9899(4)
H167 H 0.2946 0.7315 0.9560
H168 H 0.2846 0.7229 1.0068
H169 H 0.3548 0.7297 0.9989
C157 C 0.3359(5) 0.8031(6) 1.0020(4)
O22 O 0.2740(3) 0.8174(4) 0.9760(2)
C158 C 0.2729(8) 0.8721(7) 0.9767(6)
O23 O 0.3153(4) 0.9134(4) 1.0028(3)
N22 N 0.2152(5) 0.8696(4) 0.9482(3)
H170 H 0.1908 0.8371 0.9317
C159 C -0.0787(6) 0.9518(5) 0.8592(3)
O24 O -0.1071(4) 0.9866(3) 0.8500(2)
N23 N -0.1098(5) 0.8948(4) 0.8485(3)
H171 H -0.0839 0.8746 0.8564
C160 C -0.3576(6) 0.6212(4) 0.7531(3)
O25 O -0.4167(4) 0.5893(3) 0.7390(2)
N24 N -0.3031(4) 0.6043(3) 0.7578(2)
H172 H -0.2646 0.6307 0.7688
C161 C -0.1045(7) 0.4351(5) 0.7209(3)
O26 O -0.0940(4) 0.3882(3) 0.7130(2)
N25 N -0.0556(5) 0.4861(4) 0.7284(2)
H173 H -0.0696 0.5145 0.7310
C162 C 0.2487(6) 0.7108(5) 0.7365(3)
O27 O 0.3044(4) 0.7291(3) 0.7370(2)
N26 N 0.2069(4) 0.7427(4) 0.7317(2)
H174 H 0.1659 0.7244 0.7307
C163 C 0.0916(5) 0.9797(5) 0.6682(3)
O28 O 0.1008(3) 1.0283(3) 0.6591(2)
N27 N 0.0309(4) 0.9397(3) 0.6593(3)
H175 H 0.0310 0.9062 0.6653
C164 C -0.3227(5) 0.7986(4) 0.5427(3)
O29 O -0.3806(3) 0.8012(2) 0.5265(2)
N28 N -0.3075(4) 0.7504(3) 0.5433(2)
H176 H -0.2652 0.7546 0.5525
N29 N -0.3175(4) 0.5688(3) 0.5074(2)
H177 H -0.2753 0.5863 0.5114
C165 C -0.3396(6) 0.5104(4) 0.4960(3)
O30 O -0.3985(4) 0.4803(3) 0.4865(3)
C166 C -0.1087(7) 0.5314(5) 0.4976(3)
O31 O -0.0656(3) 0.5113(3) 0.4947(2)
N30 N -0.0975(4) 0.5889(4) 0.5011(2)
H178 H -0.1301 0.5998 0.5043
N31 N -0.0040(4) 0.7814(4) 0.5019(3)
H179 H -0.0430 0.7797 0.5045
C167 C 0.0361(6) 0.8329(5) 0.4989(4)
O32 O 0.0914(5) 0.8405(4) 0.4918(4)
C168 C 0.0119(6) 0.8845(5) 0.4997(4)
C169 C -0.0546(6) 0.8724(5) 0.5150(4)
H180 H -0.0898 0.8414 0.4934
H181 H -0.0679 0.9058 0.5137
H182 H -0.0469 0.8625 0.5470
C170 C -0.0046(8) 0.9002(6) 0.4506(5)
H183 H 0.0343 0.9283 0.4463
H184 H -0.0408 0.9156 0.4460
H185 H -0.0180 0.8670 0.4278
C171 C 0.0643(8) 0.9363(8) 0.5339(9)
H186 H 0.1068 0.9440 0.5272
H187 H 0.0693 0.9283 0.5664
H188 H 0.0495 0.9688 0.5296
N32 N -0.0434(4) 0.6851(4) 0.5003(2)
C172 C -0.0380(6) 0.6323(5) 0.5002(3)
C173 C 0.0210(6) 0.6232(6) 0.5001(3)
H189 H 0.0253 0.5872 0.5004
C174 C 0.0760(6) 0.6738(7) 0.4997(4)
H190 H 0.1165 0.6696 0.4985
C175 C 0.0715(6) 0.7246(6) 0.5009(4)
H191 H 0.1080 0.7564 0.5014
C176 C 0.0088(5) 0.7295(6) 0.5015(3)
N33 N -0.2252(5) 0.5207(3) 0.4972(2)
C177 C -0.1799(6) 0.4943(5) 0.4934(3)
C178 C -0.1909(6) 0.4380(5) 0.4902(3)
H192 H -0.1565 0.4234 0.4898
C179 C -0.2551(8) 0.4019(5) 0.4874(3)
H193 H -0.2645 0.3626 0.4853
C180 C -0.3055(7) 0.4254(5) 0.4879(3)
H194 H -0.3494 0.4022 0.4843
C181 C -0.2882(6) 0.4849(4) 0.4939(3)
N34 N -0.3187(3) 0.6583(3) 0.5245(2)
C182 C -0.3566(5) 0.6026(4) 0.5129(3)
C183 C -0.4235(5) 0.5823(4) 0.5062(3)
H195 H -0.4473 0.5436 0.4975
C184 C -0.4553(5) 0.6198(4) 0.5122(3)
H196 H -0.5013 0.6071 0.5087
C185 C -0.4181(5) 0.6777(4) 0.5238(4)
H197 H -0.4394 0.7044 0.5264
C186 C -0.3513(4) 0.6943(4) 0.5311(3)
N35 N -0.2041(4) 0.8489(3) 0.5823(2)
C187 C -0.2638(5) 0.8532(4) 0.5650(3)
C188 C -0.2797(5) 0.9039(4) 0.5621(3)
H198 H -0.3236 0.9031 0.5479
C189 C -0.2298(6) 0.9536(4) 0.5804(3)
C190 C -0.1622(5) 0.9537(4) 0.6019(3)
C191 C -0.1531(5) 0.8972(4) 0.6012(3)
C192 C -0.0867(5) 0.8990(4) 0.6238(3)
C193 C -0.0334(5) 0.9457(4) 0.6412(3)
C194 C -0.0434(6) 0.9987(4) 0.6382(4)
H199 H -0.0065 1.0319 0.6486
C195 C -0.1064(6) 1.0025(4) 0.6203(3)
H200 H -0.1120 1.0381 0.6203
F7 F -0.0780(2) 0.8467(2) 0.62668(17)
N36 N 0.1343(4) 0.9036(4) 0.6901(3)
C196 C 0.1499(5) 0.9576(5) 0.6866(3)
C197 C 0.2154(5) 0.9996(5) 0.7013(3)
H201 H 0.2224 1.0382 0.6993
C198 C 0.2671(5) 0.9788(5) 0.7186(4)
C199 C 0.2537(5) 0.9188(5) 0.7227(3)
C200 C 0.1881(4) 0.8848(5) 0.7094(3)
C201 C 0.1736(5) 0.8248(4) 0.7105(3)
C202 C 0.2218(5) 0.8031(5) 0.7282(3)
C203 C 0.2923(5) 0.8387(5) 0.7464(3)
H202 H 0.3265 0.8239 0.7596
C204 C 0.3047(5) 0.8952(6) 0.7426(4)
H203 H 0.3490 0.9196 0.7538
F8 F 0.1104(2) 0.7899(2) 0.69413(18)
N37 N 0.1469(4) 0.6334(4) 0.7325(2)
C205 C 0.2110(7) 0.6488(5) 0.7393(3)
C206 C 0.2518(5) 0.6136(7) 0.7456(3)
H204 H 0.2972 0.6286 0.7474
C207 C 0.2228(7) 0.5551(7) 0.7492(3)
C208 C 0.1517(6) 0.5362(5) 0.7422(3)
C209 C 0.1187(6) 0.5776(5) 0.7365(3)
C210 C 0.0469(6) 0.5546(5) 0.7314(3)
C211 C 0.0133(7) 0.5022(5) 0.7328(3)
C212 C 0.0499(6) 0.4602(4) 0.7369(3)
H205 H 0.0268 0.4214 0.7347
C213 C 0.1164(7) 0.4791(6) 0.7437(4)
H206 H 0.1401 0.4535 0.7497
F9 F 0.0147(2) 0.5936(2) 0.72689(17)
N38 N -0.1733(4) 0.4871(3) 0.7323(2)
C214 C -0.1715(6) 0.4366(5) 0.7211(3)
C215 C -0.2233(6) 0.3855(4) 0.7116(3)
H207 H -0.2175 0.3511 0.7041
C216 C -0.2872(6) 0.3890(4) 0.7141(3)
C217 C -0.2918(6) 0.4407(4) 0.7268(3)
C218 C -0.2344(6) 0.4910(5) 0.7336(3)
C219 C -0.2421(5) 0.5438(4) 0.7448(3)
C220 C -0.3010(5) 0.5490(4) 0.7471(3)
C221 C -0.3580(5) 0.4988(5) 0.7406(3)
H208 H -0.3987 0.5019 0.7427
C222 C -0.3532(5) 0.4475(4) 0.7314(3)
H209 H -0.3906 0.4152 0.7280
F10 F -0.1882(2) 0.5906(2) 0.75118(16)
N39 N -0.2780(4) 0.7149(3) 0.7841(2)
C223 C -0.3430(5) 0.6851(4) 0.7643(3)
C224 C -0.3957(5) 0.7045(5) 0.7550(4)
H210 H -0.4399 0.6802 0.7426
C225 C -0.3804(5) 0.7630(5) 0.7648(4)
C226 C -0.3134(5) 0.7969(5) 0.7859(3)
C227 C -0.2656(5) 0.7713(4) 0.7946(3)
C228 C -0.1972(4) 0.8070(4) 0.8147(3)
C229 C -0.1794(5) 0.8632(4) 0.8257(3)
C230 C -0.2281(5) 0.8900(4) 0.8171(3)
H211 H -0.2161 0.9291 0.8254
C231 C -0.2936(6) 0.8578(5) 0.7963(4)
H212 H -0.3261 0.8755 0.7886
F11 F -0.1485(2) 0.78267(19) 0.82563(17)
N40 N 0.0220(5) 0.9283(3) 0.8914(3)
C232 C -0.0031(6) 0.9706(5) 0.8827(3)
C233 C 0.0321(6) 1.0270(4) 0.8914(3)
H213 H 0.0097 1.0533 0.8835
C234 C 0.0988(6) 1.0453(5) 0.9111(4)
C235 C 0.1297(6) 1.0016(5) 0.9218(3)
C236 C 0.0887(6) 0.9446(4) 0.9101(3)
C237 C 0.1199(6) 0.9032(5) 0.9217(4)
C238 C 0.1875(6) 0.9146(5) 0.9409(3)
C239 C 0.2305(5) 0.9727(5) 0.9510(4)
H214 H 0.2769 0.9817 0.9635
C240 C 0.2017(7) 1.0164(5) 0.9417(4)
H215 H 0.2290 1.0544 0.9485
F12 F 0.0812(3) 0.8475(2) 0.90885(19)
O33 O -0.2331(3) 1.0059(2) 0.5830(2)
C241 C -0.2964(5) 1.0128(4) 0.5618(4)
H216 H -0.3282 0.9950 0.5790
H217 H -0.3143 0.9952 0.5288
C242 C -0.2853(6) 1.0761(4) 0.5643(5)
H218 H -0.2648 1.0934 0.5978
C243 C -0.3571(10) 1.0831(7) 0.5455(7)
H219 H -0.3600 1.1007 0.5166
H220 H -0.3636 1.1066 0.5694
H221 H -0.3914 1.0463 0.5391
C244 C -0.2373(7) 1.1027(5) 0.5354(6)
H222 H -0.2552 1.0837 0.5031
H223 H -0.1941 1.0987 0.5497
H224 H -0.2324 1.1424 0.5351
O34 O 0.3322(3) 1.0134(3) 0.7347(2)
C245 C 0.3526(5) 1.0696(5) 0.7255(4)
H225 H 0.3382 1.0926 0.7452
H226 H 0.3313 1.0716 0.6921
C246 C 0.4268(6) 1.0929(5) 0.7355(5)
H227 H 0.4454 1.0924 0.7699
C247 C 0.4569(6) 1.0605(7) 0.7118(6)
H228 H 0.4538 1.0703 0.6800
H229 H 0.4335 1.0205 0.7102
H230 H 0.5034 1.0690 0.7295
C248 C 0.4460(6) 1.1567(5) 0.7280(5)
H231 H 0.4941 1.1738 0.7380
H232 H 0.4268 1.1759 0.7465
H233 H 0.4288 1.1598 0.6946
O35 O 0.2544(4) 0.5189(3) 0.7538(3)
C249 C 0.3260(6) 0.5388(6) 0.7582(5)
H234 H 0.3508 0.5644 0.7877
H235 H 0.3343 0.5591 0.7315
C250 C 0.3484(7) 0.4868(9) 0.7584(11)
H236 H 0.3581 0.4881 0.7933
C251 C 0.3044(11) 0.4280(8) 0.7504(8)
H237 H 0.2707 0.4245 0.7667
H238 H 0.3305 0.4040 0.7626
H239 H 0.2830 0.4166 0.7167
C252 C 0.4242(9) 0.5053(7) 0.7615(10)
H240 H 0.4322 0.5281 0.7364
H241 H 0.4369 0.4721 0.7578
H242 H 0.4504 0.5271 0.7920
O36 O -0.3442(4) 0.3440(3) 0.7044(3)
C253 C -0.3431(6) 0.2900(4) 0.6839(4)
H243 H -0.3157 0.2740 0.7077
H244 H -0.3247 0.2954 0.6569
C254 C -0.4203(9) 0.2484(5) 0.6668(7)
H245 H -0.4388 0.2450 0.6941
C255 C -0.4631(9) 0.2685(9) 0.6276(14)
H246 H -0.4383 0.2835 0.6056
H247 H -0.4759 0.2979 0.6408
H248 H -0.5027 0.2373 0.6111
C256 C -0.4197(8) 0.1922(5) 0.6496(5)
H249 H -0.4620 0.1637 0.6478
H250 H -0.3838 0.1832 0.6713
H251 H -0.4130 0.1930 0.6184
O37 O -0.4268(3) 0.7900(3) 0.7552(3)
C257 C -0.4983(5) 0.7589(6) 0.7344(6)
H252 H -0.5111 0.7239 0.7484
H253 H -0.5086 0.7494 0.7000
C258 C -0.5368(9) 0.7985(8) 0.7453(9)
H254 H -0.5851 0.7797 0.7297
C259 C -0.5263(11) 0.8112(9) 0.7981(8)
H255 H -0.5543 0.7794 0.8089
H256 H -0.5379 0.8445 0.8040
H257 H -0.4799 0.8179 0.8151
C260 C -0.5129(10) 0.8523(10) 0.7226(8)
H258 H -0.5395 0.8761 0.7249
H259 H -0.5177 0.8421 0.6895
H260 H -0.4664 0.8726 0.7390
O38 O 0.1409(4) 1.0992(3) 0.9195(2)
C261 C 0.1156(6) 1.1430(5) 0.9049(4)
H261 H 0.0880 1.1478 0.9248
H262 H 0.0867 1.1316 0.8722
C262 C 0.1674(6) 1.1983(6) 0.9071(4)
H263 H 0.1465 1.2273 0.8969
C263 C 0.2165(7) 1.2171(6) 0.9584(6)
H264 H 0.2339 1.1871 0.9686
H265 H 0.1930 1.2253 0.9799
H266 H 0.2531 1.2507 0.9584
C264 C 0.2131(7) 1.1927(6) 0.8761(5)
H267 H 0.1861 1.1793 0.8435
H268 H 0.2354 1.1660 0.8879
H269 H 0.2461 1.2292 0.8776
loop_
_geom_bond_atom_site_label_1
_geom_bond_atom_site_label_2
_geom_bond_site_symmetry_1
_geom_bond_site_symmetry_2
C1 H1 1_555 1_555
C2 C1 1_555 1_555
H2 C2 1_555 1_555
C3 C2 1_555 1_555
H3 C3 1_555 1_555
C4 C3 1_555 1_555
C5 C4 1_555 1_555
H4 C5 1_555 1_555
C6 C1 1_555 1_555
H5 C6 1_555 1_555
C7 C4 1_555 1_555
H6 C7 1_555 1_555
C8 C7 1_555 1_555
C9 C8 1_555 1_555
H7 C9 1_555 1_555
C10 C9 1_555 1_555
H8 C10 1_555 1_555
C11 C10 1_555 1_555
H9 C11 1_555 1_555
C12 C11 1_555 1_555
H10 C12 1_555 1_555
C13 C8 1_555 1_555
H11 C13 1_555 1_555
C14 C7 1_555 1_555
H12 C14 1_555 1_555
H13 C14 1_555 1_555
C15 C14 1_555 1_555
H14 C15 1_555 1_555
H15 C15 1_555 1_555
C16 C15 1_555 1_555
H16 C16 1_555 1_555
H17 C16 1_555 1_555
O1 C16 1_555 1_555
C17 O1 1_555 1_555
O2 C17 1_555 1_555
N1 C17 1_555 1_555
H18 N1 1_555 1_555
C18 N1 1_555 1_555
H19 C18 1_555 1_555
H20 C18 1_555 1_555
C19 C18 1_555 1_555
H21 C19 1_555 1_555
H22 C19 1_555 1_555
C20 C19 1_555 1_555
H23 C20 1_555 1_555
H24 C20 1_555 1_555
C21 C20 1_555 1_555
H25 C21 1_555 1_555
H26 C21 1_555 1_555
C22 C21 1_555 1_555
H27 C22 1_555 1_555
H28 C22 1_555 1_555
C23 C22 1_555 1_555
H29 C23 1_555 1_555
H30 C23 1_555 1_555
C24 C23 1_555 1_555
H31 C24 1_555 1_555
H32 C24 1_555 1_555
C25 C24 1_555 1_555
H33 C25 1_555 1_555
H34 C25 1_555 1_555
N2 C25 1_555 1_555
H35 N2 1_555 1_555
C26 N2 1_555 1_555
O3 C26 1_555 1_555
O4 C26 1_555 1_555
C27 O4 1_555 1_555
H36 C27 1_555 1_555
H37 C27 1_555 1_555
C28 C27 1_555 1_555
H38 C28 1_555 1_555
H39 C28 1_555 1_555
C29 C28 1_555 1_555
H40 C29 1_555 1_555
H41 C29 1_555 1_555
C30 C29 1_555 1_555
H42 C30 1_555 1_555
C31 C30 1_555 1_555
C32 C31 1_555 1_555
H43 C32 1_555 1_555
C33 C32 1_555 1_555
H44 C33 1_555 1_555
C34 C33 1_555 1_555
H45 C34 1_555 1_555
C35 C34 1_555 1_555
H46 C35 1_555 1_555
C36 C31 1_555 1_555
H47 C36 1_555 1_555
C37 C30 1_555 1_555
C38 C37 1_555 1_555
H48 C38 1_555 1_555
C39 C38 1_555 1_555
H49 C39 1_555 1_555
C40 C39 1_555 1_555
H50 C40 1_555 1_555
C41 C40 1_555 1_555
H51 C41 1_555 1_555
C42 C37 1_555 1_555
H52 C42 1_555 1_555
C43 H53 1_555 1_555
H54 C43 1_555 1_555
H55 C43 1_555 1_555
C44 H56 1_555 1_555
H57 C44 1_555 1_555
H58 C44 1_555 1_555
C45 H59 1_555 1_555
H60 C45 1_555 1_555
H61 C45 1_555 1_555
C46 C43 1_555 1_555
C47 C46 1_555 1_555
O5 C47 1_555 1_555
N3 C47 1_555 1_555
N4 H62 1_555 1_555
C48 N4 1_555 1_555
O6 C48 1_555 1_555
C49 O7 1_555 1_555
N5 C49 1_555 1_555
H63 N5 1_555 1_555
N6 H64 1_555 1_555
C50 N6 1_555 1_555
O8 C50 1_555 1_555
N7 H65 1_555 1_555
C51 N7 1_555 1_555
O9 C51 1_555 1_555
N8 H66 1_555 1_555
C52 N8 1_555 1_555
O10 C52 1_555 1_555
N9 H67 1_555 1_555
C53 N9 1_555 1_555
O11 C53 1_555 1_555
N10 H68 1_555 1_555
C54 N10 1_555 1_555
O12 C54 1_555 1_555
N11 H69 1_555 1_555
C55 N11 1_555 1_555
O13 C55 1_555 1_555
N12 H70 1_555 1_555
C56 N12 1_555 1_555
O14 C56 1_555 1_555
O15 C56 1_555 1_555
C57 O15 1_555 1_555
C58 C57 1_555 1_555
H71 C58 1_555 1_555
H72 C58 1_555 1_555
H73 C58 1_555 1_555
C59 C57 1_555 1_555
H74 C59 1_555 1_555
H75 C59 1_555 1_555
H76 C59 1_555 1_555
C60 C57 1_555 1_555
H77 C60 1_555 1_555
H78 C60 1_555 1_555
H79 C60 1_555 1_555
N13 C61 1_555 1_555
C61 N3 1_555 1_555
C62 C61 1_555 1_555
H80 C62 1_555 1_555
C63 C62 1_555 1_555
H81 C63 1_555 1_555
C64 C63 1_555 1_555
H82 C64 1_555 1_555
C65 N4 1_555 1_555
N14 C66 1_555 1_555
C66 C48 1_555 1_555
C67 C66 1_555 1_555
H83 C67 1_555 1_555
C68 C67 1_555 1_555
H84 C68 1_555 1_555
C69 C68 1_555 1_555
H85 C69 1_555 1_555
C70 C49 1_555 1_555
N15 C71 1_555 1_555
C71 N6 1_555 1_555
C72 C71 1_555 1_555
H86 C72 1_555 1_555
C73 C72 1_555 1_555
H87 C73 1_555 1_555
C74 C73 1_555 1_555
H88 C74 1_555 1_555
C75 N5 1_555 1_555
N16 C76 1_555 1_555
C76 C50 1_555 1_555
C77 C76 1_555 1_555
H89 C77 1_555 1_555
C78 C77 1_555 1_555
C79 C78 1_555 1_555
C80 N16 1_555 1_555
C81 C80 1_555 1_555
C82 N7 1_555 1_555
C83 C82 1_555 1_555
H90 C83 1_555 1_555
C84 C79 1_555 1_555
H91 C84 1_555 1_555
F1 C81 1_555 1_555
N17 C85 1_555 1_555
C85 C51 1_555 1_555
C86 C85 1_555 1_555
H92 C86 1_555 1_555
C87 C86 1_555 1_555
C88 C87 1_555 1_555
C89 N17 1_555 1_555
C90 C89 1_555 1_555
C91 N8 1_555 1_555
C92 C91 1_555 1_555
H93 C92 1_555 1_555
C93 C88 1_555 1_555
H94 C93 1_555 1_555
F2 C90 1_555 1_555
N18 C94 1_555 1_555
C94 C52 1_555 1_555
C95 C94 1_555 1_555
H95 C95 1_555 1_555
C96 C95 1_555 1_555
C97 C96 1_555 1_555
C98 N18 1_555 1_555
C99 C98 1_555 1_555
C100 N9 1_555 1_555
C101 C100 1_555 1_555
H96 C101 1_555 1_555
C102 C97 1_555 1_555
H97 C102 1_555 1_555
F3 C99 1_555 1_555
N19 C103 1_555 1_555
C103 C53 1_555 1_555
C104 C103 1_555 1_555
H98 C104 1_555 1_555
C105 C104 1_555 1_555
C106 C105 1_555 1_555
C107 N19 1_555 1_555
C108 C107 1_555 1_555
C109 N10 1_555 1_555
C110 C109 1_555 1_555
H99 C110 1_555 1_555
C111 C106 1_555 1_555
H100 C111 1_555 1_555
F4 C108 1_555 1_555
N20 C112 1_555 1_555
C112 C54 1_555 1_555
C113 C112 1_555 1_555
H101 C113 1_555 1_555
C114 C113 1_555 1_555
C115 C114 1_555 1_555
C116 N20 1_555 1_555
C117 C116 1_555 1_555
C118 N11 1_555 1_555
C119 C118 1_555 1_555
H102 C119 1_555 1_555
C120 C115 1_555 1_555
H103 C120 1_555 1_555
F5 C117 1_555 1_555
N21 C121 1_555 1_555
C121 C55 1_555 1_555
C122 C121 1_555 1_555
H104 C122 1_555 1_555
C123 C122 1_555 1_555
C124 C123 1_555 1_555
C125 N21 1_555 1_555
C126 C125 1_555 1_555
C127 N12 1_555 1_555
C128 C127 1_555 1_555
H105 C128 1_555 1_555
C129 C124 1_555 1_555
H106 C129 1_555 1_555
F6 C126 1_555 1_555
O16 C87 1_555 1_555
C130 O16 1_555 1_555
H107 C130 1_555 1_555
H108 C130 1_555 1_555
C131 C130 1_555 1_555
H109 C131 1_555 1_555
C132 C131 1_555 1_555
H110 C132 1_555 1_555
H111 C132 1_555 1_555
H112 C132 1_555 1_555
C133 C131 1_555 1_555
H113 C133 1_555 1_555
H114 C133 1_555 1_555
H115 C133 1_555 1_555
O17 C96 1_555 1_555
C134 O17 1_555 1_555
H116 C134 1_555 1_555
H117 C134 1_555 1_555
C135 C134 1_555 1_555
H118 C135 1_555 1_555
C136 C135 1_555 1_555
H119 C136 1_555 1_555
H120 C136 1_555 1_555
H121 C136 1_555 1_555
C137 C135 1_555 1_555
H122 C137 1_555 1_555
H123 C137 1_555 1_555
H124 C137 1_555 1_555
O18 C105 1_555 1_555
C138 O18 1_555 1_555
H125 C138 1_555 1_555
H126 C138 1_555 1_555
C139 C138 1_555 1_555
H127 C139 1_555 1_555
C140 C139 1_555 1_555
H128 C140 1_555 1_555
H129 C140 1_555 1_555
H130 C140 1_555 1_555
C141 C139 1_555 1_555
H131 C141 1_555 1_555
H132 C141 1_555 1_555
H133 C141 1_555 1_555
O19 C114 1_555 1_555
C142 O19 1_555 1_555
H134 C142 1_555 1_555
H135 C142 1_555 1_555
C143 C142 1_555 1_555
H136 C143 1_555 1_555
C144 C143 1_555 1_555
H137 C144 1_555 1_555
H138 C144 1_555 1_555
H139 C144 1_555 1_555
C145 C143 1_555 1_555
H140 C145 1_555 1_555
H141 C145 1_555 1_555
H142 C145 1_555 1_555
O20 C123 1_555 1_555
C146 O20 1_555 1_555
H143 C146 1_555 1_555
H144 C146 1_555 1_555
C147 C146 1_555 1_555
H145 C147 1_555 1_555
C148 C147 1_555 1_555
H146 C148 1_555 1_555
H147 C148 1_555 1_555
H148 C148 1_555 1_555
C149 C147 1_555 1_555
H149 C149 1_555 1_555
H150 C149 1_555 1_555
H151 C149 1_555 1_555
O21 C78 1_555 1_555
C150 O21 1_555 1_555
H152 C150 1_555 1_555
H153 C150 1_555 1_555
C151 C150 1_555 1_555
H154 C151 1_555 1_555
C152 C151 1_555 1_555
H155 C152 1_555 1_555
H156 C152 1_555 1_555
H157 C152 1_555 1_555
C153 C151 1_555 1_555
H158 C153 1_555 1_555
H159 C153 1_555 1_555
H160 C153 1_555 1_555
C154 H161 1_555 1_555
H162 C154 1_555 1_555
H163 C154 1_555 1_555
C155 H164 1_555 1_555
H165 C155 1_555 1_555
H166 C155 1_555 1_555
C156 H167 1_555 1_555
H168 C156 1_555 1_555
H169 C156 1_555 1_555
C157 C154 1_555 1_555
O22 C157 1_555 1_555
C158 O22 1_555 1_555
O23 C158 1_555 1_555
N22 C158 1_555 1_555
H170 N22 1_555 1_555
C159 O24 1_555 1_555
N23 C159 1_555 1_555
H171 N23 1_555 1_555
C160 O25 1_555 1_555
N24 C160 1_555 1_555
H172 N24 1_555 1_555
C161 O26 1_555 1_555
N25 C161 1_555 1_555
H173 N25 1_555 1_555
C162 O27 1_555 1_555
N26 C162 1_555 1_555
H174 N26 1_555 1_555
C163 O28 1_555 1_555
N27 C163 1_555 1_555
H175 N27 1_555 1_555
C164 O29 1_555 1_555
N28 C164 1_555 1_555
H176 N28 1_555 1_555
N29 H177 1_555 1_555
C165 N29 1_555 1_555
O30 C165 1_555 1_555
C166 O31 1_555 1_555
N30 C166 1_555 1_555
H178 N30 1_555 1_555
N31 H179 1_555 1_555
C167 N31 1_555 1_555
O32 C167 1_555 1_555
C168 C167 1_555 1_555
C169 C168 1_555 1_555
H180 C169 1_555 1_555
H181 C169 1_555 1_555
H182 C169 1_555 1_555
C170 C168 1_555 1_555
H183 C170 1_555 1_555
H184 C170 1_555 1_555
H185 C170 1_555 1_555
C171 C168 1_555 1_555
H186 C171 1_555 1_555
H187 C171 1_555 1_555
H188 C171 1_555 1_555
N32 C172 1_555 1_555
C172 N30 1_555 1_555
C173 C172 1_555 1_555
H189 C173 1_555 1_555
C174 C173 1_555 1_555
H190 C174 1_555 1_555
C175 C174 1_555 1_555
H191 C175 1_555 1_555
C176 N31 1_555 1_555
N33 C177 1_555 1_555
C177 C166 1_555 1_555
C178 C177 1_555 1_555
H192 C178 1_555 1_555
C179 C178 1_555 1_555
H193 C179 1_555 1_555
C180 C179 1_555 1_555
H194 C180 1_555 1_555
C181 C165 1_555 1_555
N34 C182 1_555 1_555
C182 N29 1_555 1_555
C183 C182 1_555 1_555
H195 C183 1_555 1_555
C184 C183 1_555 1_555
H196 C184 1_555 1_555
C185 C184 1_555 1_555
H197 C185 1_555 1_555
C186 N28 1_555 1_555
N35 C187 1_555 1_555
C187 C164 1_555 1_555
C188 C187 1_555 1_555
H198 C188 1_555 1_555
C189 C188 1_555 1_555
C190 C189 1_555 1_555
C191 N35 1_555 1_555
C192 C191 1_555 1_555
C193 N27 1_555 1_555
C194 C193 1_555 1_555
H199 C194 1_555 1_555
C195 C190 1_555 1_555
H200 C195 1_555 1_555
F7 C192 1_555 1_555
N36 C196 1_555 1_555
C196 C163 1_555 1_555
C197 C196 1_555 1_555
H201 C197 1_555 1_555
C198 C197 1_555 1_555
C199 C198 1_555 1_555
C200 N36 1_555 1_555
C201 C200 1_555 1_555
C202 N26 1_555 1_555
C203 C202 1_555 1_555
H202 C203 1_555 1_555
C204 C199 1_555 1_555
H203 C204 1_555 1_555
F8 C201 1_555 1_555
N37 C205 1_555 1_555
C205 C162 1_555 1_555
C206 C205 1_555 1_555
H204 C206 1_555 1_555
C207 C206 1_555 1_555
C208 C207 1_555 1_555
C209 N37 1_555 1_555
C210 C209 1_555 1_555
C211 N25 1_555 1_555
C212 C211 1_555 1_555
H205 C212 1_555 1_555
C213 C208 1_555 1_555
H206 C213 1_555 1_555
F9 C210 1_555 1_555
N38 C214 1_555 1_555
C214 C161 1_555 1_555
C215 C214 1_555 1_555
H207 C215 1_555 1_555
C216 C215 1_555 1_555
C217 C216 1_555 1_555
C218 N38 1_555 1_555
C219 C218 1_555 1_555
C220 N24 1_555 1_555
C221 C220 1_555 1_555
H208 C221 1_555 1_555
C222 C217 1_555 1_555
H209 C222 1_555 1_555
F10 C219 1_555 1_555
N39 C223 1_555 1_555
C223 C160 1_555 1_555
C224 C223 1_555 1_555
H210 C224 1_555 1_555
C225 C224 1_555 1_555
C226 C225 1_555 1_555
C227 N39 1_555 1_555
C228 C227 1_555 1_555
C229 N23 1_555 1_555
C230 C229 1_555 1_555
H211 C230 1_555 1_555
C231 C226 1_555 1_555
H212 C231 1_555 1_555
F11 C228 1_555 1_555
N40 C232 1_555 1_555
C232 C159 1_555 1_555
C233 C232 1_555 1_555
H213 C233 1_555 1_555
C234 C233 1_555 1_555
C235 C234 1_555 1_555
C236 N40 1_555 1_555
C237 C236 1_555 1_555
C238 N22 1_555 1_555
C239 C238 1_555 1_555
H214 C239 1_555 1_555
C240 C235 1_555 1_555
H215 C240 1_555 1_555
F12 C237 1_555 1_555
O33 C189 1_555 1_555
C241 O33 1_555 1_555
H216 C241 1_555 1_555
H217 C241 1_555 1_555
C242 C241 1_555 1_555
H218 C242 1_555 1_555
C243 C242 1_555 1_555
H219 C243 1_555 1_555
H220 C243 1_555 1_555
H221 C243 1_555 1_555
C244 C242 1_555 1_555
H222 C244 1_555 1_555
H223 C244 1_555 1_555
H224 C244 1_555 1_555
O34 C198 1_555 1_555
C245 O34 1_555 1_555
H225 C245 1_555 1_555
H226 C245 1_555 1_555
C246 C245 1_555 1_555
H227 C246 1_555 1_555
C247 C246 1_555 1_555
H228 C247 1_555 1_555
H229 C247 1_555 1_555
H230 C247 1_555 1_555
C248 C246 1_555 1_555
H231 C248 1_555 1_555
H232 C248 1_555 1_555
H233 C248 1_555 1_555
O35 C207 1_555 1_555
C249 O35 1_555 1_555
H234 C249 1_555 1_555
H235 C249 1_555 1_555
C250 C249 1_555 1_555
H236 C250 1_555 1_555
C251 C250 1_555 1_555
H237 C251 1_555 1_555
H238 C251 1_555 1_555
H239 C251 1_555 1_555
C252 C250 1_555 1_555
H240 C252 1_555 1_555
H241 C252 1_555 1_555
H242 C252 1_555 1_555
O36 C216 1_555 1_555
C253 O36 1_555 1_555
H243 C253 1_555 1_555
H244 C253 1_555 1_555
C254 C253 1_555 1_555
H245 C254 1_555 1_555
C255 C254 1_555 1_555
H246 C255 1_555 1_555
H247 C255 1_555 1_555
H248 C255 1_555 1_555
C256 C254 1_555 1_555
H249 C256 1_555 1_555
H250 C256 1_555 1_555
H251 C256 1_555 1_555
O37 C225 1_555 1_555
C257 O37 1_555 1_555
H252 C257 1_555 1_555
H253 C257 1_555 1_555
C258 C257 1_555 1_555
H254 C258 1_555 1_555
C259 C258 1_555 1_555
H255 C259 1_555 1_555
H256 C259 1_555 1_555
H257 C259 1_555 1_555
C260 C258 1_555 1_555
H258 C260 1_555 1_555
H259 C260 1_555 1_555
H260 C260 1_555 1_555
O38 C234 1_555 1_555
C261 O38 1_555 1_555
H261 C261 1_555 1_555
H262 C261 1_555 1_555
C262 C261 1_555 1_555
H263 C262 1_555 1_555
C263 C262 1_555 1_555
H264 C263 1_555 1_555
H265 C263 1_555 1_555
H266 C263 1_555 1_555
C264 C262 1_555 1_555
H267 C264 1_555 1_555
H268 C264 1_555 1_555
H269 C264 1_555 1_555
C5 C6 1_555 1_555
C12 C13 1_555 1_555
C35 C36 1_555 1_555
C41 C42 1_555 1_555
C44 C46 1_555 1_555
C45 C46 1_555 1_555
N13 C65 1_555 1_555
C64 C65 1_555 1_555
N14 C70 1_555 1_555
C69 C70 1_555 1_555
N15 C75 1_555 1_555
C74 C75 1_555 1_555
C79 C80 1_555 1_555
C81 C82 1_555 1_555
C83 C84 1_555 1_555
C88 C89 1_555 1_555
C90 C91 1_555 1_555
C92 C93 1_555 1_555
C97 C98 1_555 1_555
C99 C100 1_555 1_555
C101 C102 1_555 1_555
C106 C107 1_555 1_555
C108 C109 1_555 1_555
C110 C111 1_555 1_555
C115 C116 1_555 1_555
C117 C118 1_555 1_555
C119 C120 1_555 1_555
C124 C125 1_555 1_555
C126 C127 1_555 1_555
C128 C129 1_555 1_555
C155 C157 1_555 1_555
C156 C157 1_555 1_555
N32 C176 1_555 1_555
C175 C176 1_555 1_555
N33 C181 1_555 1_555
C180 C181 1_555 1_555
N34 C186 1_555 1_555
C185 C186 1_555 1_555
C190 C191 1_555 1_555
C192 C193 1_555 1_555
C194 C195 1_555 1_555
C199 C200 1_555 1_555
C201 C202 1_555 1_555
C203 C204 1_555 1_555
C208 C209 1_555 1_555
C210 C211 1_555 1_555
C212 C213 1_555 1_555
C217 C218 1_555 1_555
C219 C220 1_555 1_555
C221 C222 1_555 1_555
C226 C227 1_555 1_555
C228 C229 1_555 1_555
C230 C231 1_555 1_555
C235 C236 1_555 1_555
C237 C238 1_555 1_555
C239 C240 1_555 1_555

#END
