
#######################################################################
#
#                 Cambridge Crystallographic Data Centre
#                                CCDC 
#
#######################################################################
#
# If this CIF has been generated from an entry in the Cambridge 
# Structural Database, then it will include bibliographic, chemical, 
# crystal, experimental, refinement or atomic coordinate data resulting 
# from the CCDC's data processing and validation procedures.
#
#######################################################################

data_LAQDAK
_chemical_formula_moiety         'C13 H20 N1 O1 1+,F6 P1 1-'
_chemical_name_systematic        
'4-Benzyl-4-ethylmorpholin-4-ium hexafluorophosphate'
_symmetry_cell_setting           orthorhombic
_symmetry_space_group_name_H-M   'F d d 2'
_symmetry_Int_Tables_number      43
_space_group_name_Hall           'F 2 -2d'
loop_
_symmetry_equiv_pos_site_id
_symmetry_equiv_pos_as_xyz
1 x,y,z
2 1/4-x,1/4+y,1/4+z
3 1/4+x,1/4-y,1/4+z
4 1/2-x,-y,1/2+z
5 x,1/2+y,1/2+z
6 1/4-x,3/4+y,3/4+z
7 1/4+x,3/4-y,3/4+z
8 1/2-x,1/2-y,z
9 1/2+x,y,1/2+z
10 3/4-x,1/4+y,3/4+z
11 3/4+x,1/4-y,3/4+z
12 -x,-y,z
13 1/2+x,1/2+y,z
14 3/4-x,3/4+y,1/4+z
15 3/4+x,3/4-y,1/4+z
16 -x,1/2-y,1/2+z
_cell_length_a                   26.054(3)
_cell_length_b                   28.528(3)
_cell_length_c                   16.2950(15)
_cell_angle_alpha                90
_cell_angle_beta                 90
_cell_angle_gamma                90
_cell_volume                     12111.6
_exptl_crystal_colour            colorless
_exptl_crystal_description       block
_cell_formula_units_Z            32
_exptl_crystal_recrystallization_method 'methanol/ethyl acetate'
loop_
_atom_site_label
_atom_site_type_symbol
_atom_site_fract_x
_atom_site_fract_y
_atom_site_fract_z
P1 P 0.243907(17) 0.017672(16) 0.61924(3)
F1 F 0.30299(4) 0.02779(4) 0.64111(7)
F2 F 0.23883(5) -0.01213(5) 0.70168(8)
F3 F 0.22767(5) 0.06362(5) 0.66893(8)
F4 F 0.24903(4) 0.04840(4) 0.53785(8)
F5 F 0.26089(5) -0.02761(4) 0.56973(9)
F6 F 0.18516(4) 0.00756(4) 0.59767(7)
P2 P 0.0000 0.0000 0.43883(4)
F7 F 0.0000 0.0000 0.34159(10)
F8 F 0.06135(4) 0.00085(4) 0.43940(9)
F9 F -0.00157(5) 0.05575(4) 0.43761(11)
F10 F 0.0000 0.0000 0.53569(11)
F8K F -0.06135(4) -0.00085(4) 0.43940(9)
F9K F 0.00157(5) -0.05575(4) 0.43761(11)
P3 P 0.0000 0.0000 0.04698(4)
F11 F -0.01702(5) 0.05392(4) 0.04710(8)
F12 F 0.04163(6) 0.01103(5) -0.02151(9)
F13 F 0.04128(6) 0.01141(5) 0.11579(9)
F11K F 0.01702(5) -0.05392(4) 0.04710(8)
F12K F -0.04163(6) -0.01103(5) -0.02151(9)
F13K F -0.04128(6) -0.01141(5) 0.11579(9)
N1 N 0.35571(5) 0.11940(5) 0.37982(8)
O1 O 0.36473(5) 0.17498(5) 0.52911(8)
C1 C 0.31222(6) 0.12724(6) 0.43997(11)
H1 H 0.2893 0.0996 0.4395
H2 H 0.2919 0.1548 0.4223
C2 C 0.33174(7) 0.13527(7) 0.52658(11)
H3 H 0.3023 0.1403 0.5640
H4 H 0.3506 0.1072 0.5455
C3 C 0.40842(7) 0.16670(7) 0.47901(11)
H5 H 0.4267 0.1385 0.4989
H6 H 0.4322 0.1937 0.4831
C4 C 0.39294(6) 0.15971(6) 0.39020(11)
H7 H 0.3769 0.1888 0.3694
H8 H 0.4240 0.1536 0.3569
C5 C 0.33253(6) 0.12094(6) 0.29343(10)
H9 H 0.3072 0.0952 0.2883
H10 H 0.3138 0.1509 0.2868
C6 C 0.37087(6) 0.11662(6) 0.22510(10)
C7 C 0.39250(7) 0.15721(6) 0.19202(11)
H11 H 0.3839 0.1870 0.2143
C8 C 0.42658(7) 0.15427(6) 0.12656(11)
H12 H 0.4408 0.1820 0.1038
C9 C 0.43974(7) 0.11101(7) 0.09459(11)
H13 H 0.4636 0.1090 0.0507
C10 C 0.41805(7) 0.07058(6) 0.12674(11)
H14 H 0.4269 0.0409 0.1046
C11 C 0.38354(7) 0.07350(6) 0.19097(11)
H15 H 0.3683 0.0457 0.2120
C12 C 0.38380(7) 0.07356(6) 0.39370(11)
H16 H 0.4018 0.0752 0.4471
H17 H 0.4102 0.0700 0.3505
C13 C 0.34997(8) 0.03033(6) 0.39328(13)
H18 H 0.3293 0.0296 0.4435
H19 H 0.3715 0.0022 0.3907
H20 H 0.3272 0.0312 0.3454
N2 N 0.35425(5) 0.08706(5) 0.82302(8)
O2 O 0.41528(5) 0.12098(4) 0.68472(8)
C14 C 0.33713(7) 0.12568(6) 0.76530(10)
H21 H 0.3162 0.1118 0.7208
H22 H 0.3152 0.1480 0.7958
C15 C 0.38179(7) 0.15194(6) 0.72795(11)
H23 H 0.3686 0.1761 0.6897
H24 H 0.4012 0.1680 0.7719
C16 C 0.43546(7) 0.08706(6) 0.73984(11)
H25 H 0.4549 0.1032 0.7838
H26 H 0.4596 0.0664 0.7100
C17 C 0.39362(6) 0.05763(6) 0.77790(11)
H27 H 0.4092 0.0351 0.8167
H28 H 0.3762 0.0395 0.7343
C18 C 0.37772(6) 0.10664(6) 0.90207(10)
H29 H 0.3909 0.0802 0.9353
H30 H 0.4073 0.1267 0.8875
C19 C 0.34089(6) 0.13489(6) 0.95395(10)
C20 C 0.31333(6) 0.11352(6) 1.01675(10)
H31 H 0.3166 0.0807 1.0255
C21 C 0.28113(7) 0.13974(6) 1.06672(10)
H32 H 0.2626 0.1249 1.1096
C22 C 0.27592(7) 0.18765(6) 1.05420(11)
H33 H 0.2536 0.2056 1.0880
C23 C 0.30346(7) 0.20911(6) 0.99205(12)
H34 H 0.3000 0.2419 0.9832
C24 C 0.33603(7) 0.18308(6) 0.94274(11)
H35 H 0.3552 0.1982 0.9009
C25 C 0.30729(6) 0.05742(6) 0.84234(11)
H36 H 0.2831 0.0766 0.8750
H37 H 0.2900 0.0494 0.7901
C26 C 0.31801(7) 0.01251(6) 0.88864(11)
H38 H 0.3397 -0.0080 0.8551
H39 H 0.2855 -0.0034 0.9006
H40 H 0.3357 0.0198 0.9402
loop_
_geom_bond_atom_site_label_1
_geom_bond_atom_site_label_2
_geom_bond_site_symmetry_1
_geom_bond_site_symmetry_2
P1 F1 1_555 1_555
P2 F7 1_555 1_555
P3 F11 1_555 1_555
F2 P1 1_555 1_555
F3 P1 1_555 1_555
F4 P1 1_555 1_555
F5 P1 1_555 1_555
F6 P1 1_555 1_555
F8 P2 1_555 1_555
F9 P2 1_555 1_555
F10 P2 1_555 1_555
F12 P3 1_555 1_555
F13 P3 1_555 1_555
N1 C1 1_555 1_555
N2 C14 1_555 1_555
O1 C2 1_555 1_555
O2 C15 1_555 1_555
C1 H1 1_555 1_555
H2 C1 1_555 1_555
C2 C1 1_555 1_555
H3 C2 1_555 1_555
H4 C2 1_555 1_555
C3 O1 1_555 1_555
H5 C3 1_555 1_555
H6 C3 1_555 1_555
C4 N1 1_555 1_555
H7 C4 1_555 1_555
H8 C4 1_555 1_555
C5 N1 1_555 1_555
H9 C5 1_555 1_555
H10 C5 1_555 1_555
C6 C5 1_555 1_555
C7 C6 1_555 1_555
H11 C7 1_555 1_555
C8 C7 1_555 1_555
H12 C8 1_555 1_555
C9 C8 1_555 1_555
H13 C9 1_555 1_555
C10 C9 1_555 1_555
H14 C10 1_555 1_555
C11 C6 1_555 1_555
H15 C11 1_555 1_555
C12 N1 1_555 1_555
H16 C12 1_555 1_555
H17 C12 1_555 1_555
C13 C12 1_555 1_555
H18 C13 1_555 1_555
H19 C13 1_555 1_555
H20 C13 1_555 1_555
C14 H21 1_555 1_555
H22 C14 1_555 1_555
C15 C14 1_555 1_555
H23 C15 1_555 1_555
H24 C15 1_555 1_555
C16 O2 1_555 1_555
H25 C16 1_555 1_555
H26 C16 1_555 1_555
C17 N2 1_555 1_555
H27 C17 1_555 1_555
H28 C17 1_555 1_555
C18 N2 1_555 1_555
H29 C18 1_555 1_555
H30 C18 1_555 1_555
C19 C18 1_555 1_555
C20 C19 1_555 1_555
H31 C20 1_555 1_555
C21 C20 1_555 1_555
H32 C21 1_555 1_555
C22 C21 1_555 1_555
H33 C22 1_555 1_555
C23 C22 1_555 1_555
H34 C23 1_555 1_555
C24 C19 1_555 1_555
H35 C24 1_555 1_555
C25 N2 1_555 1_555
H36 C25 1_555 1_555
H37 C25 1_555 1_555
C26 C25 1_555 1_555
H38 C26 1_555 1_555
H39 C26 1_555 1_555
H40 C26 1_555 1_555
F8K P2 1_555 1_555
F9K P2 1_555 1_555
F11K P3 1_555 1_555
F12K P3 1_555 1_555
F13K P3 1_555 1_555
C3 C4 1_555 1_555
C10 C11 1_555 1_555
C16 C17 1_555 1_555
C23 C24 1_555 1_555

#END
