
#######################################################################
#
#                 Cambridge Crystallographic Data Centre
#                                CCDC 
#
#######################################################################
#
# If this CIF has been generated from an entry in the Cambridge 
# Structural Database, then it will include bibliographic, chemical, 
# crystal, experimental, refinement or atomic coordinate data resulting 
# from the CCDC's data processing and validation procedures.
#
#######################################################################

data_LAQDIS
_chemical_formula_moiety         'C12 H18 N4 O6'
_chemical_name_systematic        
"Diethyl 2,2'-bis(hydroxyimino)-3,3'-(hydrazinediylidene)dibutanoate"
_symmetry_cell_setting           monoclinic
_symmetry_space_group_name_H-M   'P 21/c'
_symmetry_Int_Tables_number      14
_space_group_name_Hall           '-P 2ybc'
loop_
_symmetry_equiv_pos_site_id
_symmetry_equiv_pos_as_xyz
1 x,y,z
2 -x,1/2+y,1/2-z
3 -x,-y,-z
4 x,1/2-y,1/2+z
_cell_length_a                   10.8587(11)
_cell_length_b                   8.3068(9)
_cell_length_c                   8.8465(9)
_cell_angle_alpha                90
_cell_angle_beta                 99.782(2)
_cell_angle_gamma                90
_cell_volume                     786.362
_exptl_crystal_colour            yellow
_exptl_crystal_description       block-like
_cell_formula_units_Z            2
loop_
_atom_site_label
_atom_site_type_symbol
_atom_site_fract_x
_atom_site_fract_y
_atom_site_fract_z
C1 C 0.3173(2) -0.3855(3) 0.1974(3)
H1 H 0.2823 -0.3486 0.0964
H2 H 0.2514 -0.4229 0.2485
H3 H 0.3745 -0.4720 0.1899
C2 C 0.38401(17) -0.2522(2) 0.2854(2)
H4 H 0.4193 -0.2890 0.3877
H5 H 0.4520 -0.2159 0.2355
C3 C 0.29765(13) 0.00236(17) 0.20059(16)
C4 C 0.20477(13) 0.12983(16) 0.22471(16)
C5 C 0.08145(13) 0.12936(17) 0.12596(17)
C6 C -0.00087(18) 0.2722(2) 0.1254(3)
H6 H -0.0799 0.2511 0.0615
H7 H 0.0377 0.3636 0.0862
H8 H -0.0137 0.2943 0.2281
O1 O 0.29746(10) -0.11865(13) 0.29545(13)
O2 O 0.36466(10) 0.01499(13) 0.10565(12)
O3 O 0.34902(10) 0.22632(15) 0.40794(13)
H9 H 0.3626 0.2998 0.4704
N1 N 0.22952(12) 0.24201(15) 0.32449(15)
N2 N 0.05904(11) 0.00033(14) 0.04649(14)
C1B C -0.3173(2) 0.3855(3) -0.1974(3)
H1B H -0.2823 0.3486 -0.0964
H2B H -0.2514 0.4229 -0.2485
H3B H -0.3745 0.4720 -0.1899
C2B C -0.38401(17) 0.2522(2) -0.2854(2)
H4B H -0.4193 0.2890 -0.3877
H5B H -0.4520 0.2159 -0.2355
C3B C -0.29765(13) -0.00236(17) -0.20059(16)
C4B C -0.20477(13) -0.12983(16) -0.22471(16)
C5B C -0.08145(13) -0.12936(17) -0.12596(17)
C6B C 0.00087(18) -0.2722(2) -0.1254(3)
H6B H 0.0799 -0.2511 -0.0615
H7B H -0.0377 -0.3636 -0.0862
H8B H 0.0137 -0.2943 -0.2281
O1B O -0.29746(10) 0.11865(13) -0.29545(13)
O2B O -0.36466(10) -0.01499(13) -0.10565(12)
O3B O -0.34902(10) -0.22632(15) -0.40794(13)
H9B H -0.3626 -0.2998 -0.4704
N1B N -0.22952(12) -0.24201(15) -0.32449(15)
N2B N -0.05904(11) -0.00033(14) -0.04649(14)
loop_
_geom_bond_atom_site_label_1
_geom_bond_atom_site_label_2
_geom_bond_site_symmetry_1
_geom_bond_site_symmetry_2
C1 H1 1_555 1_555
H2 C1 1_555 1_555
H3 C1 1_555 1_555
C2 C1 1_555 1_555
H4 C2 1_555 1_555
H5 C2 1_555 1_555
C3 C4 1_555 1_555
C4 C5 1_555 1_555
C5 C6 1_555 1_555
C6 H6 1_555 1_555
H7 C6 1_555 1_555
H8 C6 1_555 1_555
O1 C2 1_555 1_555
O2 C3 1_555 1_555
O3 H9 1_555 1_555
N1 C4 1_555 1_555
N2 C5 1_555 1_555
C1B H1B 1_555 1_555
H2B C1B 1_555 1_555
H3B C1B 1_555 1_555
C2B C1B 1_555 1_555
H4B C2B 1_555 1_555
H5B C2B 1_555 1_555
C3B C4B 1_555 1_555
C4B C5B 1_555 1_555
C5B C6B 1_555 1_555
C6B H6B 1_555 1_555
H7B C6B 1_555 1_555
H8B C6B 1_555 1_555
O1B C2B 1_555 1_555
O2B C3B 1_555 1_555
O3B H9B 1_555 1_555
N1B C4B 1_555 1_555
N2B N2 1_555 1_555
C3 O1 1_555 1_555
O3 N1 1_555 1_555
C3B O1B 1_555 1_555
C5B N2B 1_555 1_555
O3B N1B 1_555 1_555

#END
