
#######################################################################
#
#                 Cambridge Crystallographic Data Centre
#                                CCDC 
#
#######################################################################
#
# If this CIF has been generated from an entry in the Cambridge 
# Structural Database, then it will include bibliographic, chemical, 
# crystal, experimental, refinement or atomic coordinate data resulting 
# from the CCDC's data processing and validation procedures.
#
#######################################################################

data_LAQFOZ
_chemical_formula_moiety         'C11 H12 O4'
_chemical_name_systematic        
3,3a,5a,6,8a,8b-hexahydrofuro[3,4-e]benzofuran-1,8-dione
_symmetry_cell_setting           triclinic
_symmetry_space_group_name_H-M   'P 1'
_symmetry_Int_Tables_number      1
_space_group_name_Hall           'P 1'
loop_
_symmetry_equiv_pos_site_id
_symmetry_equiv_pos_as_xyz
1 x,y,z
_cell_length_a                   10.230(3)
_cell_length_b                   10.228(3)
_cell_length_c                   10.682(4)
_cell_angle_alpha                69.720(5)
_cell_angle_beta                 69.678(5)
_cell_angle_gamma                78.536(5)
_cell_volume                     979.231
_exptl_crystal_colour            colorless
_exptl_crystal_description       blade
_cell_formula_units_Z            4
loop_
_atom_site_label
_atom_site_type_symbol
_atom_site_fract_x
_atom_site_fract_y
_atom_site_fract_z
O1 O 0.6876(4) 1.0556(3) 0.2235(4)
O2 O 0.8475(5) 1.1662(4) 0.0324(4)
O3 O 1.0554(4) 1.0687(4) 0.4031(4)
O4 O 0.8771(4) 1.1768(4) 0.3233(6)
C1 C 0.8194(6) 1.0700(5) 0.1375(5)
C2 C 0.9192(5) 0.9478(4) 0.1914(5)
H1 H 0.9675 0.9013 0.1169
C3 C 1.0297(5) 0.9947(4) 0.2283(5)
H2 H 1.0994 1.0431 0.1394
C4 C 1.1082(5) 0.8756(5) 0.3160(5)
H3 H 1.1858 0.8265 0.2563
C5 C 1.0090(5) 0.7765(5) 0.4282(5)
H4 H 1.0398 0.7154 0.5046
C6 C 0.8815(5) 0.7670(5) 0.4299(5)
H5 H 0.8246 0.7046 0.5100
C7 C 0.8212(5) 0.8490(4) 0.3126(5)
H6 H 0.7997 0.7807 0.2759
C8 C 0.6876(5) 0.9420(5) 0.3528(5)
H7 H 0.6938 0.9822 0.4234
C9 C 0.9758(5) 1.0907(5) 0.3189(6)
C10 C 1.1637(5) 0.9564(6) 0.3797(5)
H8 H 1.1795 0.8954 0.4690
H9 H 1.2529 0.9945 0.3147
C11 C 0.5510(5) 0.8787(5) 0.4068(6)
H10 H 0.5379 0.8509 0.3332
H11 H 0.4744 0.9476 0.4342
H12 H 0.5514 0.7963 0.4882
O5 O 0.1831(4) 0.6022(3) 0.1998(4)
O6 O 0.3559(4) 0.7116(4) 0.0229(4)
O7 O 0.5486(4) 0.5262(4) 0.4155(4)
O8 O 0.3822(4) 0.6691(4) 0.3340(5)
C12 C 0.3183(5) 0.6102(5) 0.1205(5)
C13 C 0.4052(5) 0.4770(4) 0.1686(5)
H13 H 0.4508 0.4384 0.0879
C14 C 0.5192(5) 0.4950(4) 0.2206(4)
H14 H 0.5955 0.5430 0.1383
C15 C 0.5824(4) 0.3569(5) 0.3016(5)
H15 H 0.6551 0.3097 0.2366
C16 C 0.4704(5) 0.2620(5) 0.4005(6)
H16 H 0.4940 0.1870 0.4739
C17 C 0.3428(5) 0.2744(5) 0.3936(6)
H17 H 0.2779 0.2133 0.4661
C18 C 0.2943(5) 0.3799(4) 0.2773(5)
H18 H 0.2676 0.3276 0.2275
C19 C 0.1683(5) 0.4792(5) 0.3237(5)
H19 H 0.1757 0.5049 0.4030
C20 C 0.4721(5) 0.5756(5) 0.3250(6)
C21 C 0.6476(5) 0.4094(5) 0.3804(6)
H20 H 0.6578 0.3351 0.4661
H21 H 0.7407 0.4418 0.3209
C22 C 0.0280(5) 0.4273(5) 0.3628(5)
H22 H 0.0168 0.4129 0.2812
H23 H -0.0458 0.4966 0.3942
H24 H 0.0214 0.3386 0.4386
O9 O 0.4117(4) 0.3424(3) 0.9041(4)
O10 O 0.3001(4) 0.1756(4) 1.0865(4)
O11 O 0.4928(3) -0.0414(3) 0.7140(3)
O12 O 0.3513(4) 0.1318(3) 0.7825(4)
C23 C 0.4034(5) 0.2098(5) 0.9898(5)
C24 C 0.5375(4) 0.1217(4) 0.9500(5)
H25 H 0.5731 0.0812 1.0330
C25 C 0.5234(4) 0.0012(4) 0.9028(5)
H26 H 0.4735 -0.0718 0.9875
C26 C 0.6604(4) -0.0681(4) 0.8298(5)
H27 H 0.7056 -0.1380 0.8983
C27 C 0.7567(4) 0.0411(5) 0.7264(5)
H28 H 0.8325 0.0140 0.6556
C28 C 0.7435(5) 0.1711(5) 0.7270(5)
H29 H 0.8053 0.2337 0.6524
C29 C 0.6375(4) 0.2273(4) 0.8375(5)
H30 H 0.6888 0.2590 0.8848
C30 C 0.5367(4) 0.3513(4) 0.7844(5)
H31 H 0.5141 0.3384 0.7059
C31 C 0.4429(5) 0.0421(5) 0.7973(5)
C32 C 0.6071(5) -0.1383(5) 0.7550(5)
H32 H 0.6822 -0.1534 0.6716
H33 H 0.5730 -0.2296 0.8182
C33 C 0.5902(5) 0.4929(4) 0.7386(7)
H34 H 0.6169 0.5033 0.8141
H35 H 0.5165 0.5662 0.7169
H36 H 0.6719 0.5012 0.6550
O13 O 0.9506(4) 0.7957(3) 0.9322(4)
O14 O 0.8395(4) 0.6290(4) 1.1162(4)
O15 O 0.9310(3) 0.4525(3) 0.7248(4)
O16 O 0.8253(4) 0.6239(4) 0.8175(5)
C34 C 0.9361(5) 0.6618(5) 1.0099(5)
C35 C 1.0561(4) 0.5667(4) 0.9484(4)
H37 H 1.1035 0.5125 1.0210
C36 C 1.0092(4) 0.4635(4) 0.9017(5)
H38 H 0.9613 0.3898 0.9870
C37 C 1.1261(4) 0.3921(4) 0.8083(5)
H39 H 1.1773 0.3125 0.8638
C38 C 1.2227(4) 0.4963(4) 0.6995(5)
H40 H 1.2819 0.4719 0.6186
C39 C 1.2320(4) 0.6186(5) 0.7072(5)
H41 H 1.2916 0.6799 0.6284
C40 C 1.1560(4) 0.6682(4) 0.8304(5)
H42 H 1.2269 0.6824 0.8684
C41 C 1.0615(5) 0.8059(4) 0.8022(5)
H43 H 1.0217 0.8131 0.7265
C42 C 0.9111(5) 0.5266(5) 0.8130(6)
C43 C 1.0437(5) 0.3412(4) 0.7425(5)
H44 H 1.1032 0.3290 0.6511
H45 H 1.0055 0.2513 0.8048
C44 C 1.1344(5) 0.9355(5) 0.7647(6)
H46 H 1.1698 0.9297 0.8410
H47 H 1.0680 1.0186 0.7504
H48 H 1.2127 0.9421 0.6785
loop_
_geom_bond_atom_site_label_1
_geom_bond_atom_site_label_2
_geom_bond_site_symmetry_1
_geom_bond_site_symmetry_2
O1 C1 1_555 1_555
O2 C1 1_555 1_555
O3 C9 1_555 1_555
O4 C9 1_555 1_555
C1 C2 1_555 1_555
C2 H1 1_555 1_555
C3 C2 1_555 1_555
H2 C3 1_555 1_555
C4 C3 1_555 1_555
H3 C4 1_555 1_555
C5 C4 1_555 1_555
H4 C5 1_555 1_555
C6 C5 1_555 1_555
H5 C6 1_555 1_555
C7 C2 1_555 1_555
H6 C7 1_555 1_555
C8 O1 1_555 1_555
H7 C8 1_555 1_555
C9 C3 1_555 1_555
C10 O3 1_555 1_555
H8 C10 1_555 1_555
H9 C10 1_555 1_555
C11 C8 1_555 1_555
H10 C11 1_555 1_555
H11 C11 1_555 1_555
H12 C11 1_555 1_555
O5 C12 1_555 1_555
O6 C12 1_555 1_555
O7 C20 1_555 1_555
O8 C20 1_555 1_555
C12 C13 1_555 1_555
C13 H13 1_555 1_555
C14 C13 1_555 1_555
H14 C14 1_555 1_555
C15 C14 1_555 1_555
H15 C15 1_555 1_555
C16 C15 1_555 1_555
H16 C16 1_555 1_555
C17 C16 1_555 1_555
H17 C17 1_555 1_555
C18 C13 1_555 1_555
H18 C18 1_555 1_555
C19 O5 1_555 1_555
H19 C19 1_555 1_555
C20 C14 1_555 1_555
C21 O7 1_555 1_555
H20 C21 1_555 1_555
H21 C21 1_555 1_555
C22 C19 1_555 1_555
H22 C22 1_555 1_555
H23 C22 1_555 1_555
H24 C22 1_555 1_555
O9 C23 1_555 1_555
O10 C23 1_555 1_555
O11 C31 1_555 1_555
O12 C31 1_555 1_555
C23 C24 1_555 1_555
C24 H25 1_555 1_555
C25 C24 1_555 1_555
H26 C25 1_555 1_555
C26 C25 1_555 1_555
H27 C26 1_555 1_555
C27 C26 1_555 1_555
H28 C27 1_555 1_555
C28 C27 1_555 1_555
H29 C28 1_555 1_555
C29 C24 1_555 1_555
H30 C29 1_555 1_555
C30 O9 1_555 1_555
H31 C30 1_555 1_555
C31 C25 1_555 1_555
C32 O11 1_555 1_555
H32 C32 1_555 1_555
H33 C32 1_555 1_555
C33 C30 1_555 1_555
H34 C33 1_555 1_555
H35 C33 1_555 1_555
H36 C33 1_555 1_555
O13 C34 1_555 1_555
O14 C34 1_555 1_555
O15 C42 1_555 1_555
O16 C42 1_555 1_555
C34 C35 1_555 1_555
C35 H37 1_555 1_555
C36 C35 1_555 1_555
H38 C36 1_555 1_555
C37 C36 1_555 1_555
H39 C37 1_555 1_555
C38 C37 1_555 1_555
H40 C38 1_555 1_555
C39 C38 1_555 1_555
H41 C39 1_555 1_555
C40 C35 1_555 1_555
H42 C40 1_555 1_555
C41 O13 1_555 1_555
H43 C41 1_555 1_555
C42 C36 1_555 1_555
C43 O15 1_555 1_555
H44 C43 1_555 1_555
H45 C43 1_555 1_555
C44 C41 1_555 1_555
H46 C44 1_555 1_555
H47 C44 1_555 1_555
H48 C44 1_555 1_555
C4 C10 1_555 1_555
C6 C7 1_555 1_555
C7 C8 1_555 1_555
C15 C21 1_555 1_555
C17 C18 1_555 1_555
C18 C19 1_555 1_555
C26 C32 1_555 1_555
C28 C29 1_555 1_555
C29 C30 1_555 1_555
C37 C43 1_555 1_555
C39 C40 1_555 1_555
C40 C41 1_555 1_555

#END
