
#######################################################################
#
#                 Cambridge Crystallographic Data Centre
#                                CCDC 
#
#######################################################################
#
# If this CIF has been generated from an entry in the Cambridge 
# Structural Database, then it will include bibliographic, chemical, 
# crystal, experimental, refinement or atomic coordinate data resulting 
# from the CCDC's data processing and validation procedures.
#
#######################################################################

data_LAQJAO
_chemical_formula_moiety         'C15 H17 N1 O1'
_chemical_name_systematic        
N-((R)-1-Phenylethyl)-(R)-(2-cyclopropylidene)cyclopropane-1-carboxamide
_symmetry_cell_setting           monoclinic
_symmetry_space_group_name_H-M   'P 21'
_symmetry_Int_Tables_number      4
_space_group_name_Hall           'P 2yb'
loop_
_symmetry_equiv_pos_site_id
_symmetry_equiv_pos_as_xyz
1 x,y,z
2 -x,1/2+y,-z
_cell_length_a                   10.623(2)
_cell_length_b                   4.803(1)
_cell_length_c                   13.283(3)
_cell_angle_alpha                90
_cell_angle_beta                 96.00(3)
_cell_angle_gamma                90
_cell_volume                     674.016
_exptl_crystal_colour            colorless
_exptl_crystal_description       plate
_chemical_melting_point          126-127deg.C
_cell_formula_units_Z            2
_exptl_crystal_recrystallization_method 'hexane/diethyl ether'
loop_
_atom_site_label
_atom_site_type_symbol
_atom_site_fract_x
_atom_site_fract_y
_atom_site_fract_z
O1 O 0.8344(5) 0.5704 0.1257(3)
N1 N 0.8442(4) 0.1326(14) 0.1837(3)
H1 H 0.8290(4) -0.0474(14) 0.1680(3)
C1 C 0.7929(6) 0.2024(17) 0.0063(4)
H2 H 0.7692(6) 0.0096(17) 0.0017(4)
C2 C 0.7396(9) 0.3918(19) -0.0762(5)
C3 C 0.6471(9) 0.5289(20) -0.1153(5)
C4 C 0.5172(9) 0.6189(27) -0.1145(6)
H3 H 0.5026(9) 0.7537(27) -0.0636(6)
H4 H 0.4494(9) 0.4890(27) -0.1306(6)
C5 C 0.5909(9) 0.7085(24) -0.1962(6)
H5 H 0.5687(9) 0.6314(24) -0.2624(6)
H6 H 0.6219(9) 0.8963(24) -0.1954(6)
C6 C 0.8716(7) 0.3102(21) -0.0753(4)
H7 H 0.8948(7) 0.1814(21) -0.1254(4)
H8 H 0.9331(7) 0.4521(21) -0.0562(4)
C7 C 0.8243(6) 0.3213(19) 0.1100(5)
C8 C 0.8848(7) 0.2020(19) 0.2880(4)
H9 H 0.8831(7) 0.4011(19) 0.2938(4)
C9 C 1.0193(7) 0.1085(24) 0.3130(4)
H10 H 1.0704(7) 0.1876(24) 0.2648(4)
H11 H 1.0495(7) 0.1713(24) 0.3797(4)
H12 H 1.0242(7) -0.0909(24) 0.3103(4)
C10 C 0.7969(8) 0.0816(21) 0.3612(5)
C11 C 0.7116(8) -0.1130(22) 0.3360(5)
H13 H 0.7029(8) -0.1807(22) 0.2676(5)
C12 C 0.6356(7) -0.2202(24) 0.4057(7)
H14 H 0.5745(7) -0.3633(24) 0.3869(7)
C13 C 0.6522(11) -0.1179(27) 0.5036(8)
H15 H 0.6001(11) -0.1861(27) 0.5531(8)
C14 C 0.7341(13) 0.0766(31) 0.5284(7)
H16 H 0.7417(13) 0.1464(31) 0.5965(7)
C15 C 0.8126(8) 0.1754(24) 0.4594(5)
H17 H 0.8772(8) 0.3100(24) 0.4797(5)
loop_
_geom_bond_atom_site_label_1
_geom_bond_atom_site_label_2
_geom_bond_site_symmetry_1
_geom_bond_site_symmetry_2
O1 C7 1_555 1_555
N1 H1 1_555 1_555
C1 H2 1_555 1_555
C2 C1 1_555 1_555
C3 C2 1_555 1_555
C4 C3 1_555 1_555
H3 C4 1_555 1_555
H4 C4 1_555 1_555
C5 C3 1_555 1_555
H5 C5 1_555 1_555
H6 C5 1_555 1_555
C6 C1 1_555 1_555
H7 C6 1_555 1_555
H8 C6 1_555 1_555
C7 N1 1_555 1_555
C8 N1 1_555 1_555
H9 C8 1_555 1_555
C9 C8 1_555 1_555
H10 C9 1_555 1_555
H11 C9 1_555 1_555
H12 C9 1_555 1_555
C10 C8 1_555 1_555
C11 C10 1_555 1_555
H13 C11 1_555 1_555
C12 C11 1_555 1_555
H14 C12 1_555 1_555
C13 C12 1_555 1_555
H15 C13 1_555 1_555
C14 C13 1_555 1_555
H16 C14 1_555 1_555
C15 C10 1_555 1_555
H17 C15 1_555 1_555
C1 C7 1_555 1_555
C2 C6 1_555 1_555
C4 C5 1_555 1_555
C14 C15 1_555 1_555

#END
