
#######################################################################
#
#                 Cambridge Crystallographic Data Centre
#                                CCDC 
#
#######################################################################
#
# If this CIF has been generated from an entry in the Cambridge 
# Structural Database, then it will include bibliographic, chemical, 
# crystal, experimental, refinement or atomic coordinate data resulting 
# from the CCDC's data processing and validation procedures.
#
#######################################################################

data_LAQKOG
_chemical_formula_moiety         'C14 H6 Cl4 O4'
_chemical_name_systematic        'bis(2,6-dichlorophenyl) oxalate'
_symmetry_cell_setting           triclinic
_symmetry_space_group_name_H-M   'P -1'
_symmetry_Int_Tables_number      2
_space_group_name_Hall           '-P 1'
loop_
_symmetry_equiv_pos_site_id
_symmetry_equiv_pos_as_xyz
1 x,y,z
2 -x,-y,-z
_cell_length_a                   7.3290(15)
_cell_length_b                   7.7730(16)
_cell_length_c                   8.1960(16)
_cell_angle_alpha                106.15(3)
_cell_angle_beta                 94.50(3)
_cell_angle_gamma                117.15(3)
_cell_volume                     387.376
_exptl_crystal_colour            white
_exptl_crystal_description       Prism
_cell_formula_units_Z            1
loop_
_atom_site_label
_atom_site_type_symbol
_atom_site_fract_x
_atom_site_fract_y
_atom_site_fract_z
Cl1 Cl 0.2950(2) 0.0560(2) 0.44147(19)
O1 O 0.2973(5) 0.0299(5) 0.0764(4)
C1 C 0.2541(7) 0.2115(7) 0.3472(6)
Cl2 Cl 0.2361(3) 0.2704(3) -0.11836(19)
O2 O 0.6450(6) 0.2541(6) 0.1430(6)
C2 C 0.2188(9) 0.3650(8) 0.4461(7)
H1 H 0.2182 0.3868 0.5635
C3 C 0.1845(8) 0.4850(8) 0.3635(8)
H2 H 0.1560 0.5855 0.4269
C4 C 0.1910(7) 0.4613(8) 0.1926(8)
H3 H 0.1704 0.5461 0.1418
C5 C 0.2280(7) 0.3125(7) 0.0991(7)
C6 C 0.2650(6) 0.1896(6) 0.1770(5)
C7 C 0.4987(7) 0.0908(7) 0.0661(6)
Cl1A Cl 0.7050(2) -0.0560(2) -0.44147(19)
O1A O 0.7027(5) -0.0299(5) -0.0764(4)
C1A C 0.7459(7) -0.2115(7) -0.3472(6)
Cl2A Cl 0.7639(3) -0.2704(3) 0.11836(19)
O2A O 0.3550(6) -0.2541(6) -0.1430(6)
C2A C 0.7812(9) -0.3650(8) -0.4461(7)
H1A H 0.7818 -0.3868 -0.5635
C3A C 0.8155(8) -0.4850(8) -0.3635(8)
H2A H 0.8440 -0.5855 -0.4269
C4A C 0.8090(7) -0.4613(8) -0.1926(8)
H3A H 0.8296 -0.5461 -0.1418
C5A C 0.7720(7) -0.3125(7) -0.0991(7)
C6A C 0.7350(6) -0.1896(6) -0.1770(5)
C7A C 0.5013(7) -0.0908(7) -0.0661(6)
loop_
_geom_bond_atom_site_label_1
_geom_bond_atom_site_label_2
_geom_bond_site_symmetry_1
_geom_bond_site_symmetry_2
Cl1 C1 1_555 1_555
O1 C6 1_555 1_555
C1 C2 1_555 1_555
Cl2 C5 1_555 1_555
O2 C7 1_555 1_555
C2 H1 1_555 1_555
C3 C2 1_555 1_555
H2 C3 1_555 1_555
C4 C3 1_555 1_555
H3 C4 1_555 1_555
C5 C4 1_555 1_555
C6 C1 1_555 1_555
C7 O1 1_555 1_555
Cl1A C1A 1_555 1_555
O1A C6A 1_555 1_555
C1A C2A 1_555 1_555
Cl2A C5A 1_555 1_555
O2A C7A 1_555 1_555
C2A H1A 1_555 1_555
C3A C2A 1_555 1_555
H2A C3A 1_555 1_555
C4A C3A 1_555 1_555
H3A C4A 1_555 1_555
C5A C4A 1_555 1_555
C6A C1A 1_555 1_555
C7A C7 1_555 1_555
C5 C6 1_555 1_555
O1A C7A 1_555 1_555
C5A C6A 1_555 1_555

#END
