
#######################################################################
#
#                 Cambridge Crystallographic Data Centre
#                                CCDC 
#
#######################################################################
#
# If this CIF has been generated from an entry in the Cambridge 
# Structural Database, then it will include bibliographic, chemical, 
# crystal, experimental, refinement or atomic coordinate data resulting 
# from the CCDC's data processing and validation procedures.
#
#######################################################################

data_LAQKUM
_chemical_formula_moiety         'C14 H4 Cl6 O4'
_chemical_name_systematic        'bis(2,4,6-trichlorophenyl) oxalate'
_symmetry_cell_setting           triclinic
_symmetry_space_group_name_H-M   'P -1'
_symmetry_Int_Tables_number      2
_space_group_name_Hall           '-P 1'
loop_
_symmetry_equiv_pos_site_id
_symmetry_equiv_pos_as_xyz
1 x,y,z
2 -x,-y,-z
_cell_length_a                   7.6924(15)
_cell_length_b                   8.3201(17)
_cell_length_c                   8.4406(17)
_cell_angle_alpha                116.18(3)
_cell_angle_beta                 111.82(3)
_cell_angle_gamma                95.33(3)
_cell_volume                     428.132
_exptl_crystal_colour            white
_exptl_crystal_description       Prism
_cell_formula_units_Z            1
loop_
_atom_site_label
_atom_site_type_symbol
_atom_site_fract_x
_atom_site_fract_y
_atom_site_fract_z
Cl1 Cl 0.30351(9) 0.71456(8) -0.06409(9)
Cl2 Cl 0.12953(11) -0.00511(8) -0.24802(10)
Cl3 Cl 0.24309(11) 0.54711(10) 0.46101(9)
O1 O 0.3039(2) 0.79664(19) 0.3080(2)
C1 C 0.2686(3) 0.6059(3) 0.1805(3)
C2 C 0.2131(3) 0.3593(3) -0.1385(3)
H1 H 0.2049 0.3196 -0.2634
O2 O 0.6244(2) 0.8338(2) 0.4738(3)
C3 C 0.4920(3) 0.8960(3) 0.4441(3)
C4 C 0.2581(3) 0.5475(3) -0.0040(3)
C5 C 0.2340(3) 0.4745(3) 0.2321(3)
C6 C 0.1805(3) 0.2314(3) -0.0824(3)
C7 C 0.1904(3) 0.2856(3) 0.1004(3)
H2 H 0.1682 0.1966 0.1348
Cl1A Cl 0.69649(9) 1.28544(8) 1.06409(9)
Cl2A Cl 0.87047(11) 2.00511(8) 1.24802(10)
Cl3A Cl 0.75691(11) 1.45289(10) 0.53899(9)
O1A O 0.6961(2) 1.20336(19) 0.6920(2)
C1A C 0.7314(3) 1.3941(3) 0.8195(3)
C2A C 0.7869(3) 1.6407(3) 1.1385(3)
H1A H 0.7951 1.6804 1.2634
O2A O 0.3756(2) 1.1662(2) 0.5262(3)
C3A C 0.5080(3) 1.1040(3) 0.5559(3)
C4A C 0.7419(3) 1.4525(3) 1.0040(3)
C5A C 0.7660(3) 1.5255(3) 0.7679(3)
C6A C 0.8195(3) 1.7686(3) 1.0824(3)
C7A C 0.8096(3) 1.7144(3) 0.8996(3)
H2A H 0.8318 1.8034 0.8652
loop_
_geom_bond_atom_site_label_1
_geom_bond_atom_site_label_2
_geom_bond_site_symmetry_1
_geom_bond_site_symmetry_2
Cl1 C4 1_555 1_555
Cl2 C6 1_555 1_555
Cl3 C5 1_555 1_555
O1 C1 1_555 1_555
C1 C4 1_555 1_555
C2 H1 1_555 1_555
O2 C3 1_555 1_555
C3 O1 1_555 1_555
C4 C2 1_555 1_555
C5 C1 1_555 1_555
C6 C2 1_555 1_555
C7 C5 1_555 1_555
H2 C7 1_555 1_555
Cl1A C4A 1_555 1_555
Cl2A C6A 1_555 1_555
Cl3A C5A 1_555 1_555
O1A C1A 1_555 1_555
C1A C4A 1_555 1_555
C2A H1A 1_555 1_555
O2A C3A 1_555 1_555
C3A C3 1_555 1_555
C4A C2A 1_555 1_555
C5A C1A 1_555 1_555
C6A C2A 1_555 1_555
C7A C5A 1_555 1_555
H2A C7A 1_555 1_555
C6 C7 1_555 1_555
O1A C3A 1_555 1_555
C6A C7A 1_555 1_555

#END
