
#######################################################################
#
#                 Cambridge Crystallographic Data Centre
#                                CCDC 
#
#######################################################################
#
# If this CIF has been generated from an entry in the Cambridge 
# Structural Database, then it will include bibliographic, chemical, 
# crystal, experimental, refinement or atomic coordinate data resulting 
# from the CCDC's data processing and validation procedures.
#
#######################################################################

data_LAQKIY
_chemical_formula_moiety         'C82 H82 N2 O6,H2 O1'
_chemical_name_systematic        
'5,11,17,23-Tetra-t-butyl-25,27-dihydroxy-26,28-bis(pyrenylmethylaminocarbonylmethoxy)calix(4)arene monohydrate'
_symmetry_cell_setting           monoclinic
_symmetry_space_group_name_H-M   'C 2/c'
_symmetry_Int_Tables_number      15
_space_group_name_Hall           '-C 2yn'
loop_
_symmetry_equiv_pos_site_id
_symmetry_equiv_pos_as_xyz
1 x,y,z
2 1/2+x,1/2+y,z
3 -x,y,1/2-z
4 1/2-x,1/2+y,1/2-z
5 -x,-y,-z
6 1/2-x,1/2-y,-z
7 x,-y,1/2+z
8 1/2+x,1/2-y,1/2+z
_cell_length_a                   31.215(4)
_cell_length_b                   12.941(3)
_cell_length_c                   19.891(3)
_cell_angle_alpha                90
_cell_angle_beta                 120.008(7)
_cell_angle_gamma                90
_cell_volume                     6957.98
_exptl_crystal_colour            brown
_exptl_crystal_description       block
_cell_formula_units_Z            4
_exptl_crystal_recrystallization_method dichloromethane
loop_
_atom_site_label
_atom_site_type_symbol
_atom_site_fract_x
_atom_site_fract_y
_atom_site_fract_z
O1 O -0.04858(10) 0.9972(2) 0.16386(17)
H1 H -0.0558(19) 0.998(4) 0.202(3)
O2 O 0.05284(10) 0.9670(2) 0.20119(14)
O3 O 0.05672(15) 0.7218(3) 0.1241(2)
N1 N 0.00134(15) 0.7950(3) 0.1495(3)
H2 H -0.0071(16) 0.847(4) 0.163(3)
C1 C -0.14112(17) 1.2131(4) -0.0008(3)
C2 C -0.15183(16) 1.1755(4) 0.0550(3)
H3 H -0.1802 1.1990 0.0542
C3 C -0.12202(14) 1.1048(3) 0.1113(2)
C4 C -0.07984(14) 1.0697(3) 0.1114(2)
C5 C -0.06739(15) 1.1062(3) 0.0583(2)
C6 C -0.09871(16) 1.1758(4) 0.0030(3)
H4 H -0.0907 1.1987 -0.0337
C7 C -0.1734(2) 1.2948(6) -0.0607(4)
C8 C -0.2249(3) 1.3014(8) -0.0715(5)
H5 H -0.2226 1.3152 -0.0224
H6 H -0.2418 1.2371 -0.0918
H7 H -0.2429 1.3561 -0.1072
C9 C -0.1455(3) 1.3992(7) -0.0289(7)
H8 H -0.1128 1.3937 -0.0216
H9 H -0.1434 1.4146 0.0199
H10 H -0.1632 1.4534 -0.0653
C10 C -0.1770(3) 1.2778(9) -0.1367(5)
H11 H -0.1443 1.2731 -0.1299
H12 H -0.1944 1.3344 -0.1707
H13 H -0.1945 1.2146 -0.1590
C11 C -0.13451(14) 1.0701(3) 0.1723(2)
H14 H -0.1310 0.9956 0.1781
H15 H -0.1687 1.0874 0.1554
C12 C -0.02030(14) 1.0681(4) 0.0603(2)
H16 H -0.0173 0.9941 0.0693
H17 H -0.0231 1.0806 0.0102
C13 C 0.02599(15) 1.1204(3) 0.1227(2)
C14 C 0.0358(2) 1.2237(4) 0.1139(3)
H18 H 0.0140 1.2580 0.0682
C15 C 0.0765(2) 1.2769(4) 0.1704(3)
C16 C 0.1079(2) 1.2240(4) 0.2377(3)
H19 H 0.1350 1.2589 0.2767
C17 C -0.10078(15) 1.1213(3) 0.2502(2)
C18 C 0.06035(14) 1.0703(3) 0.1898(2)
C19 C 0.0906(4) 1.3895(5) 0.1589(4)
C20 C 0.0518(4) 1.4374(5) 0.0852(4)
H20 H 0.0430 1.3905 0.0429
H21 H 0.0642 1.5004 0.0760
H22 H 0.0230 1.4521 0.0894
C21 C 0.1049(4) 1.4535(5) 0.2248(5)
H23 H 0.1290 1.4180 0.2706
H24 H 0.0765 1.4692 0.2295
H25 H 0.1190 1.5164 0.2188
C22 C 0.1419(4) 1.3803(8) 0.1553(7)
H26 H 0.1363 1.3372 0.1124
H27 H 0.1674 1.3506 0.2028
H28 H 0.1519 1.4479 0.1486
C23 C 0.07306(15) 0.8923(3) 0.1714(2)
H29 H 0.1066 0.8757 0.2112
H30 H 0.0742 0.9215 0.1275
C24 C 0.04276(17) 0.7962(4) 0.1468(3)
C25 C -0.0307(2) 0.7036(4) 0.1278(4)
H31 H -0.0158 0.6520 0.1684
H32 H -0.0344 0.6740 0.0803
C26 C -0.0807(2) 0.7345(4) 0.1158(3)
C27 C -0.0946(3) 0.7014(5) 0.1691(4)
H33 H -0.0731 0.6592 0.2100
C28 C -0.1379(3) 0.7284(5) 0.1635(4)
H34 H -0.1461 0.7049 0.1998
C29 C -0.1704(3) 0.7923(6) 0.1021(5)
C30 C -0.1587(2) 0.8263(4) 0.0459(4)
C31 C -0.1126(2) 0.7952(4) 0.0532(3)
C32 C -0.1021(2) 0.8290(5) -0.0061(3)
H35 H -0.0722 0.8100 -0.0023
C33 C -0.1326(3) 0.8844(6) -0.0642(4)
H36 H -0.1237 0.9031 -0.1008
C34 C -0.1774(3) 0.9176(6) -0.0752(5)
C35 C -0.1914(2) 0.8876(5) -0.0188(5)
C36 C -0.2374(3) 0.9195(7) -0.0278(8)
C37 C -0.2486(3) 0.8878(8) 0.0306(8)
H37 H -0.2781 0.9099 0.0267
C38 C -0.2169(3) 0.8246(8) 0.0935(7)
H38 H -0.2260 0.8038 0.1294
C39 C -0.2690(4) 0.9741(10) -0.0893(11)
H39 H -0.2996 0.9918 -0.0955
C40 C -0.2568(6) 1.0047(12) -0.1442(9)
H40 H -0.2778 1.0485 -0.1844
C41 C -0.2115(5) 0.9689(9) -0.1394(7)
H41 H -0.2056 0.9809 -0.1802
O1B O 0.04858(10) 0.9972(2) 0.33614(17)
H1B H 0.0558(19) 0.998(4) 0.298(3)
O2B O -0.05284(10) 0.9670(2) 0.29881(14)
O3B O -0.05672(15) 0.7218(3) 0.3759(2)
N1B N -0.00134(15) 0.7950(3) 0.3505(3)
H2B H 0.0071(16) 0.847(4) 0.337(3)
C1B C 0.14112(17) 1.2131(4) 0.5008(3)
C2B C 0.15183(16) 1.1755(4) 0.4450(3)
H3B H 0.1802 1.1990 0.4458
C3B C 0.12202(14) 1.1048(3) 0.3887(2)
C4B C 0.07984(14) 1.0697(3) 0.3886(2)
C5B C 0.06739(15) 1.1062(3) 0.4417(2)
C6B C 0.09871(16) 1.1758(4) 0.4970(3)
H4B H 0.0907 1.1987 0.5337
C7B C 0.1734(2) 1.2948(6) 0.5607(4)
C8B C 0.2249(3) 1.3014(8) 0.5715(5)
H5B H 0.2226 1.3152 0.5224
H6B H 0.2418 1.2371 0.5918
H7B H 0.2429 1.3561 0.6072
C9B C 0.1455(3) 1.3992(7) 0.5289(7)
H8B H 0.1128 1.3937 0.5216
H9B H 0.1434 1.4146 0.4801
H10B H 0.1632 1.4534 0.5653
C10B C 0.1770(3) 1.2778(9) 0.6367(5)
H11B H 0.1443 1.2731 0.6299
H12B H 0.1944 1.3344 0.6707
H13B H 0.1945 1.2146 0.6590
C11B C 0.13451(14) 1.0701(3) 0.3277(2)
H14B H 0.1310 0.9956 0.3219
H15B H 0.1687 1.0874 0.3446
C12B C 0.02030(14) 1.0681(4) 0.4397(2)
H16B H 0.0173 0.9941 0.4307
H17B H 0.0231 1.0806 0.4898
C13B C -0.02599(15) 1.1204(3) 0.3773(2)
C14B C -0.0358(2) 1.2237(4) 0.3861(3)
H18B H -0.0140 1.2580 0.4318
C15B C -0.0765(2) 1.2769(4) 0.3296(3)
C16B C -0.1079(2) 1.2240(4) 0.2623(3)
H19B H -0.1350 1.2589 0.2233
C17B C 0.10078(15) 1.1213(3) 0.2498(2)
C18B C -0.06035(14) 1.0703(3) 0.3102(2)
C19B C -0.0906(4) 1.3895(5) 0.3411(4)
C20B C -0.0518(4) 1.4374(5) 0.4148(4)
H20B H -0.0430 1.3905 0.4571
H21B H -0.0642 1.5004 0.4240
H22B H -0.0230 1.4521 0.4106
C21B C -0.1049(4) 1.4535(5) 0.2752(5)
H23B H -0.1290 1.4180 0.2294
H24B H -0.0765 1.4692 0.2705
H25B H -0.1190 1.5164 0.2812
C22B C -0.1419(4) 1.3803(8) 0.3447(7)
H26B H -0.1363 1.3372 0.3876
H27B H -0.1674 1.3506 0.2972
H28B H -0.1519 1.4479 0.3514
C23B C -0.07306(15) 0.8923(3) 0.3286(2)
H29B H -0.1066 0.8757 0.2888
H30B H -0.0742 0.9215 0.3725
C24B C -0.04276(17) 0.7962(4) 0.3532(3)
C25B C 0.0307(2) 0.7036(4) 0.3722(4)
H31B H 0.0158 0.6520 0.3316
H32B H 0.0344 0.6740 0.4197
C26B C 0.0807(2) 0.7345(4) 0.3842(3)
C27B C 0.0946(3) 0.7014(5) 0.3309(4)
H33B H 0.0731 0.6592 0.2900
C28B C 0.1379(3) 0.7284(5) 0.3365(4)
H34B H 0.1461 0.7049 0.3002
C29B C 0.1704(3) 0.7923(6) 0.3979(5)
C30B C 0.1587(2) 0.8263(4) 0.4541(4)
C31B C 0.1126(2) 0.7952(4) 0.4468(3)
C32B C 0.1021(2) 0.8290(5) 0.5061(3)
H35B H 0.0722 0.8100 0.5023
C33B C 0.1326(3) 0.8844(6) 0.5642(4)
H36B H 0.1237 0.9031 0.6008
C34B C 0.1774(3) 0.9176(6) 0.5752(5)
C35B C 0.1914(2) 0.8876(5) 0.5188(5)
C36B C 0.2374(3) 0.9195(7) 0.5278(8)
C37B C 0.2486(3) 0.8878(8) 0.4694(8)
H37B H 0.2781 0.9099 0.4733
C38B C 0.2169(3) 0.8246(8) 0.4065(7)
H38B H 0.2260 0.8038 0.3706
C39B C 0.2690(4) 0.9741(10) 0.5893(11)
H39B H 0.2996 0.9918 0.5955
C40B C 0.2568(6) 1.0047(12) 0.6442(9)
H40B H 0.2778 1.0485 0.6844
C41B C 0.2115(5) 0.9689(9) 0.6394(7)
H41B H 0.2056 0.9809 0.6802
O4 O 0.0000(5) 0.4765(9) 0.2499(7)
loop_
_geom_bond_atom_site_label_1
_geom_bond_atom_site_label_2
_geom_bond_site_symmetry_1
_geom_bond_site_symmetry_2
O1 H1 1_555 1_555
O2 C18 1_555 1_555
O3 C24 1_555 1_555
N1 H2 1_555 1_555
C1 C2 1_555 1_555
C2 H3 1_555 1_555
C3 C2 1_555 1_555
C4 O1 1_555 1_555
C5 C4 1_555 1_555
C6 C1 1_555 1_555
H4 C6 1_555 1_555
C7 C1 1_555 1_555
C8 C7 1_555 1_555
H5 C8 1_555 1_555
H6 C8 1_555 1_555
H7 C8 1_555 1_555
C9 C7 1_555 1_555
H8 C9 1_555 1_555
H9 C9 1_555 1_555
H10 C9 1_555 1_555
C10 C7 1_555 1_555
H11 C10 1_555 1_555
H12 C10 1_555 1_555
H13 C10 1_555 1_555
C11 C3 1_555 1_555
H14 C11 1_555 1_555
H15 C11 1_555 1_555
C12 C5 1_555 1_555
H16 C12 1_555 1_555
H17 C12 1_555 1_555
C13 C12 1_555 1_555
C14 C13 1_555 1_555
H18 C14 1_555 1_555
C15 C14 1_555 1_555
C16 C15 1_555 1_555
H19 C16 1_555 1_555
C17 C11 1_555 1_555
C18 C13 1_555 1_555
C19 C15 1_555 1_555
C20 C19 1_555 1_555
H20 C20 1_555 1_555
H21 C20 1_555 1_555
H22 C20 1_555 1_555
C21 C19 1_555 1_555
H23 C21 1_555 1_555
H24 C21 1_555 1_555
H25 C21 1_555 1_555
C22 C19 1_555 1_555
H26 C22 1_555 1_555
H27 C22 1_555 1_555
H28 C22 1_555 1_555
C23 O2 1_555 1_555
H29 C23 1_555 1_555
H30 C23 1_555 1_555
C24 N1 1_555 1_555
C25 N1 1_555 1_555
H31 C25 1_555 1_555
H32 C25 1_555 1_555
C26 C25 1_555 1_555
C27 C26 1_555 1_555
H33 C27 1_555 1_555
C28 C27 1_555 1_555
H34 C28 1_555 1_555
C29 C28 1_555 1_555
C30 C29 1_555 1_555
C31 C26 1_555 1_555
C32 C31 1_555 1_555
H35 C32 1_555 1_555
C33 C32 1_555 1_555
H36 C33 1_555 1_555
C34 C33 1_555 1_555
C35 C30 1_555 1_555
C36 C35 1_555 1_555
C37 C36 1_555 1_555
H37 C37 1_555 1_555
C38 C29 1_555 1_555
H38 C38 1_555 1_555
C39 C36 1_555 1_555
H39 C39 1_555 1_555
C40 C39 1_555 1_555
H40 C40 1_555 1_555
C41 C34 1_555 1_555
H41 C41 1_555 1_555
O1B H1B 1_555 1_555
O2B C18B 1_555 1_555
O3B C24B 1_555 1_555
N1B H2B 1_555 1_555
C1B C2B 1_555 1_555
C2B H3B 1_555 1_555
C3B C2B 1_555 1_555
C4B O1B 1_555 1_555
C5B C4B 1_555 1_555
C6B C1B 1_555 1_555
H4B C6B 1_555 1_555
C7B C1B 1_555 1_555
C8B C7B 1_555 1_555
H5B C8B 1_555 1_555
H6B C8B 1_555 1_555
H7B C8B 1_555 1_555
C9B C7B 1_555 1_555
H8B C9B 1_555 1_555
H9B C9B 1_555 1_555
H10B C9B 1_555 1_555
C10B C7B 1_555 1_555
H11B C10B 1_555 1_555
H12B C10B 1_555 1_555
H13B C10B 1_555 1_555
C11B C3B 1_555 1_555
H14B C11B 1_555 1_555
H15B C11B 1_555 1_555
C12B C5B 1_555 1_555
H16B C12B 1_555 1_555
H17B C12B 1_555 1_555
C13B C12B 1_555 1_555
C14B C13B 1_555 1_555
H18B C14B 1_555 1_555
C15B C14B 1_555 1_555
C16B C17 1_555 1_555
H19B C16B 1_555 1_555
C17B C16 1_555 1_555
C18B C17 1_555 1_555
C19B C15B 1_555 1_555
C20B C19B 1_555 1_555
H20B C20B 1_555 1_555
H21B C20B 1_555 1_555
H22B C20B 1_555 1_555
C21B C19B 1_555 1_555
H23B C21B 1_555 1_555
H24B C21B 1_555 1_555
H25B C21B 1_555 1_555
C22B C19B 1_555 1_555
H26B C22B 1_555 1_555
H27B C22B 1_555 1_555
H28B C22B 1_555 1_555
C23B O2B 1_555 1_555
H29B C23B 1_555 1_555
H30B C23B 1_555 1_555
C24B N1B 1_555 1_555
C25B N1B 1_555 1_555
H31B C25B 1_555 1_555
H32B C25B 1_555 1_555
C26B C25B 1_555 1_555
C27B C26B 1_555 1_555
H33B C27B 1_555 1_555
C28B C27B 1_555 1_555
H34B C28B 1_555 1_555
C29B C28B 1_555 1_555
C30B C29B 1_555 1_555
C31B C26B 1_555 1_555
C32B C31B 1_555 1_555
H35B C32B 1_555 1_555
C33B C32B 1_555 1_555
H36B C33B 1_555 1_555
C34B C33B 1_555 1_555
C35B C30B 1_555 1_555
C36B C35B 1_555 1_555
C37B C36B 1_555 1_555
H37B C37B 1_555 1_555
C38B C29B 1_555 1_555
H38B C38B 1_555 1_555
C39B C36B 1_555 1_555
H39B C39B 1_555 1_555
C40B C39B 1_555 1_555
H40B C40B 1_555 1_555
C41B C34B 1_555 1_555
H41B C41B 1_555 1_555
C3 C4 1_555 1_555
C5 C6 1_555 1_555
C18 C17B 1_555 1_555
C23 C24 1_555 1_555
C30 C31 1_555 1_555
C34 C35 1_555 1_555
C37 C38 1_555 1_555
C40 C41 1_555 1_555
C3B C4B 1_555 1_555
C5B C6B 1_555 1_555
C11B C17B 1_555 1_555
C13B C18B 1_555 1_555
C15B C16B 1_555 1_555
C23B C24B 1_555 1_555
C30B C31B 1_555 1_555
C34B C35B 1_555 1_555
C37B C38B 1_555 1_555
C40B C41B 1_555 1_555

#END
