
#######################################################################
#
#                 Cambridge Crystallographic Data Centre
#                                CCDC 
#
#######################################################################
#
# If this CIF has been generated from an entry in the Cambridge 
# Structural Database, then it will include bibliographic, chemical, 
# crystal, experimental, refinement or atomic coordinate data resulting 
# from the CCDC's data processing and validation procedures.
#
#######################################################################

data_LAQLEX
_chemical_formula_moiety         'C21 H19 Cl1 N4 O1,C3 H7 N1 O1,H2 O1'
_chemical_name_systematic        
'11-(4-chlorophenyl)-8,8-dimethyl-1,6,7,8,9,11-hexahydro-10H-[1,2,3]triazolo[4,5-a]acridin-10-one N,N-dimethylformamide solvate monohydrate'
_symmetry_cell_setting           triclinic
_symmetry_space_group_name_H-M   'P -1'
_symmetry_Int_Tables_number      2
_space_group_name_Hall           '-P 1'
loop_
_symmetry_equiv_pos_site_id
_symmetry_equiv_pos_as_xyz
1 x,y,z
2 -x,-y,-z
_cell_length_a                   9.1762(9)
_cell_length_b                   11.9061(13)
_cell_length_c                   13.0166(14)
_cell_angle_alpha                88.751(7)
_cell_angle_beta                 79.682(6)
_cell_angle_gamma                87.190(6)
_cell_volume                     1397.3
_exptl_crystal_colour            colorless
_cell_formula_units_Z            2
loop_
_atom_site_label
_atom_site_type_symbol
_atom_site_fract_x
_atom_site_fract_y
_atom_site_fract_z
Cl1 Cl 1.27334(13) 0.42733(12) 0.44283(8)
O1 O 0.7769(2) 0.52307(19) 0.09377(18)
N1 N 0.9105(3) 0.8853(2) 0.1630(2)
H1 H 0.882(4) 0.9479(16) 0.194(2)
N2 N 1.4655(3) 0.8266(3) -0.0790(2)
N3 N 1.4619(3) 0.7217(3) -0.1005(2)
N4 N 1.3304(3) 0.6822(2) -0.0517(2)
H2 H 1.319(5) 0.6112(13) -0.059(3)
C1 C 0.8102(3) 0.8052(2) 0.1658(2)
C2 C 0.6529(3) 0.8413(3) 0.2097(3)
H3 H 0.6117 0.8849 0.1569
H4 H 0.6522 0.8899 0.2686
C3 C 0.5534(3) 0.7426(3) 0.2454(2)
C4 C 0.5813(3) 0.6560(3) 0.1573(3)
H5 H 0.5254 0.5901 0.1803
H6 H 0.5444 0.6880 0.0972
C5 C 0.7418(3) 0.6199(3) 0.1245(2)
C6 C 0.8523(3) 0.6999(2) 0.1279(2)
C7 C 1.0139(3) 0.6640(2) 0.0968(2)
H7 H 1.0248 0.6143 0.0365
C8 C 1.1033(3) 0.7674(2) 0.0647(2)
C9 C 1.2452(3) 0.7643(3) 0.0022(2)
C10 C 1.3318(4) 0.8589(3) -0.0147(3)
C11 C 1.2812(4) 0.9621(3) 0.0294(3)
H8 H 1.3401 1.0242 0.0200
C12 C 1.1412(4) 0.9683(3) 0.0872(3)
H9 H 1.1025 1.0366 0.1159
C13 C 1.0541(3) 0.8722(3) 0.1042(2)
C14 C 1.0748(3) 0.6009(2) 0.1845(2)
C15 C 1.1790(4) 0.5117(3) 0.1637(3)
H10 H 1.2081 0.4874 0.0954
C16 C 1.2407(4) 0.4582(3) 0.2426(3)
H11 H 1.3113 0.3994 0.2273
C17 C 1.1962(4) 0.4931(3) 0.3425(3)
C18 C 1.0933(4) 0.5800(3) 0.3671(3)
H12 H 1.0638 0.6025 0.4360
C19 C 1.0343(3) 0.6338(3) 0.2878(2)
H13 H 0.9654 0.6936 0.3040
C20 C 0.3915(4) 0.7853(4) 0.2641(3)
H14 H 0.3749 0.8386 0.3197
H15 H 0.3287 0.7232 0.2829
H16 H 0.3690 0.8209 0.2016
C21 C 0.5905(4) 0.6897(3) 0.3443(3)
H17 H 0.5728 0.7442 0.3989
H18 H 0.6930 0.6643 0.3326
H19 H 0.5293 0.6269 0.3643
O2 O 0.2332(19) 0.1118(15) 0.3546(14)
H20 H 0.239(2) 0.0981(19) 0.4189(12)
H21 H 0.316(3) 0.116(3) 0.3117(15)
O3 O 0.8530(6) 0.1007(3) 0.2388(5)
N5 N 0.7710(4) 0.2673(3) 0.3058(3)
C22 C 0.7647(8) 0.1643(5) 0.2792(5)
H22 H 0.6704 0.1362 0.2961
C23 C 0.8943(13) 0.3286(9) 0.2677(11)
H23 H 0.9751 0.2784 0.2378
H24 H 0.9220 0.3690 0.3237
H25 H 0.8712 0.3809 0.2151
C24 C 0.6442(13) 0.3403(10) 0.3483(10)
H26 H 0.5608 0.2956 0.3739
H27 H 0.6204 0.3907 0.2945
H28 H 0.6676 0.3829 0.4045
loop_
_geom_bond_atom_site_label_1
_geom_bond_atom_site_label_2
_geom_bond_site_symmetry_1
_geom_bond_site_symmetry_2
Cl1 C17 1_555 1_555
O1 C5 1_555 1_555
N1 H1 1_555 1_555
N2 N3 1_555 1_555
N3 N4 1_555 1_555
N4 H2 1_555 1_555
C1 N1 1_555 1_555
C2 C1 1_555 1_555
H3 C2 1_555 1_555
H4 C2 1_555 1_555
C3 C2 1_555 1_555
C4 C3 1_555 1_555
H5 C4 1_555 1_555
H6 C4 1_555 1_555
C5 C4 1_555 1_555
C6 C1 1_555 1_555
C7 C6 1_555 1_555
H7 C7 1_555 1_555
C8 C7 1_555 1_555
C9 N4 1_555 1_555
C10 N2 1_555 1_555
C11 C10 1_555 1_555
H8 C11 1_555 1_555
C12 C11 1_555 1_555
H9 C12 1_555 1_555
C13 N1 1_555 1_555
C14 C7 1_555 1_555
C15 C14 1_555 1_555
H10 C15 1_555 1_555
C16 C15 1_555 1_555
H11 C16 1_555 1_555
C17 C16 1_555 1_555
C18 C17 1_555 1_555
H12 C18 1_555 1_555
C19 C14 1_555 1_555
H13 C19 1_555 1_555
C20 C3 1_555 1_555
H14 C20 1_555 1_555
H15 C20 1_555 1_555
H16 C20 1_555 1_555
C21 C3 1_555 1_555
H17 C21 1_555 1_555
H18 C21 1_555 1_555
H19 C21 1_555 1_555
O2 H20 1_555 1_555
H21 O2 1_555 1_555
O3 C22 1_555 1_555
N5 C22 1_555 1_555
C22 H22 1_555 1_555
C23 N5 1_555 1_555
H23 C23 1_555 1_555
H24 C23 1_555 1_555
H25 C23 1_555 1_555
C24 N5 1_555 1_555
H26 C24 1_555 1_555
H27 C24 1_555 1_555
H28 C24 1_555 1_555
C5 C6 1_555 1_555
C8 C9 1_555 1_555
C8 C13 1_555 1_555
C9 C10 1_555 1_555
C12 C13 1_555 1_555
C18 C19 1_555 1_555

#END
