
#######################################################################
#
#                 Cambridge Crystallographic Data Centre
#                                CCDC 
#
#######################################################################
#
# If this CIF has been generated from an entry in the Cambridge 
# Structural Database, then it will include bibliographic, chemical, 
# crystal, experimental, refinement or atomic coordinate data resulting 
# from the CCDC's data processing and validation procedures.
#
#######################################################################

data_LAQMAU
_chemical_formula_moiety         'C24 H19 N3 O2'
_chemical_name_systematic        
1-ethyl-1-methyl-7-nitro-9-phenyl-1,3-dihydro-2H-cyclopenta[b]naphthalene-2,2-dicarbonitrile
_symmetry_cell_setting           monoclinic
_symmetry_space_group_name_H-M   'P 21'
_symmetry_Int_Tables_number      4
_space_group_name_Hall           'P 2yb'
loop_
_symmetry_equiv_pos_site_id
_symmetry_equiv_pos_as_xyz
1 x,y,z
2 -x,1/2+y,-z
_cell_length_a                   8.6612(2)
_cell_length_b                   16.2229(3)
_cell_length_c                   14.9775(4)
_cell_angle_alpha                90
_cell_angle_beta                 111.523(2)
_cell_angle_gamma                90
_cell_volume                     1957.74
_exptl_crystal_colour            yellow
_exptl_crystal_description       block
_cell_formula_units_Z            4
loop_
_atom_site_label
_atom_site_type_symbol
_atom_site_fract_x
_atom_site_fract_y
_atom_site_fract_z
O1 O 0.0161(3) 0.97553(16) -0.37658(15)
O2 O 0.0964(3) 1.08271(12) -0.28458(17)
N1 N 0.1179(3) 1.01205(13) -0.30902(17)
N2 N 1.0546(4) 0.7532(2) -0.2504(2)
N3 N 1.0648(4) 0.5302(2) -0.1039(2)
C1 C 0.3115(3) 0.89829(13) -0.28582(15)
H1 H 0.2400 0.8765 -0.3437
C2 C 0.2731(3) 0.97042(13) -0.25179(16)
C3 C 0.3771(3) 1.00627(13) -0.16490(18)
H2 H 0.3484 1.0559 -0.1440
C4 C 0.5194(3) 0.96727(13) -0.11238(17)
H3 H 0.5882 0.9902 -0.0546
C5 C 0.5658(3) 0.89199(12) -0.14366(14)
C6 C 0.4605(3) 0.85693(12) -0.23255(14)
C7 C 0.5055(2) 0.78109(11) -0.26592(13)
C8 C 0.6482(2) 0.74135(12) -0.20877(13)
C9 C 0.7507(2) 0.77650(13) -0.11971(13)
C10 C 0.7136(3) 0.84999(13) -0.08857(15)
H4 H 0.7850 0.8726 -0.0312
C11 C 0.9006(3) 0.72348(15) -0.07154(15)
H5 H 0.8872 0.6901 -0.0212
H6 H 1.0004 0.7565 -0.0447
C12 C 0.9056(3) 0.66905(15) -0.15645(16)
C13 C 0.7190(3) 0.65850(13) -0.22530(15)
C14 C 0.4029(2) 0.75055(12) -0.36461(14)
C15 C 0.2925(3) 0.68527(14) -0.37935(18)
H7 H 0.2715 0.6621 -0.3281
C16 C 0.2128(3) 0.65465(16) -0.4733(2)
H8 H 0.1402 0.6103 -0.4838
C17 C 0.2412(3) 0.68971(19) -0.54947(19)
H9 H 0.1902 0.6682 -0.6109
C18 C 0.3435(3) 0.75546(19) -0.53499(17)
H10 H 0.3603 0.7798 -0.5869
C19 C 0.4238(3) 0.78712(16) -0.44315(15)
H11 H 0.4920 0.8331 -0.4344
C20 C 0.9904(3) 0.7160(2) -0.20995(19)
C21 C 0.9953(3) 0.59144(19) -0.12549(19)
C22 C 0.7052(3) 0.63892(17) -0.32782(17)
H12 H 0.5933 0.6231 -0.3654
H13 H 0.7791 0.5945 -0.3268
H14 H 0.7346 0.6868 -0.3557
C23 C 0.6335(3) 0.58495(14) -0.19300(18)
H15 H 0.5227 0.5788 -0.2409
H16 H 0.6943 0.5352 -0.1950
C24 C 0.6176(4) 0.58846(18) -0.0943(2)
H17 H 0.5644 0.6390 -0.0886
H18 H 0.7261 0.5860 -0.0449
H19 H 0.5526 0.5426 -0.0878
O3 O 0.0320(3) 0.56137(16) 0.10426(15)
O4 O 0.0829(3) 0.45489(11) 0.19635(16)
N4 N 0.1182(3) 0.52332(13) 0.17599(15)
N5 N 1.0976(3) 0.98432(19) 0.4344(2)
N6 N 0.6061(3) 0.95322(15) 0.4417(2)
C25 C 0.3237(3) 0.63294(12) 0.21219(14)
H20 H 0.2609 0.6567 0.1535
C26 C 0.2729(3) 0.56164(13) 0.24107(15)
C27 C 0.3604(3) 0.52298(13) 0.32874(16)
H21 H 0.3223 0.4741 0.3459
C28 C 0.5035(3) 0.55924(13) 0.38829(16)
H22 H 0.5631 0.5347 0.4470
C29 C 0.5632(3) 0.63309(12) 0.36290(14)
C30 C 0.4730(2) 0.67041(11) 0.27248(13)
C31 C 0.5330(2) 0.74455(11) 0.24383(13)
C32 C 0.6754(2) 0.77991(11) 0.30706(13)
C33 C 0.7558(2) 0.74606(12) 0.40073(13)
C34 C 0.7051(2) 0.67367(13) 0.42681(14)
H23 H 0.7638 0.6509 0.4867
C35 C 0.8908(3) 0.80268(14) 0.46266(15)
H24 H 1.0000 0.7826 0.4695
H25 H 0.8854 0.8096 0.5258
C36 C 0.8483(2) 0.88396(13) 0.40416(15)
C37 C 0.7760(2) 0.85450(12) 0.29565(14)
C38 C 0.4325(2) 0.78070(12) 0.14808(13)
C39 C 0.3177(3) 0.84256(13) 0.14154(18)
H26 H 0.3003 0.8605 0.1961
C40 C 0.2280(3) 0.87786(14) 0.0512(2)
H27 H 0.1522 0.9199 0.0460
C41 C 0.2528(3) 0.85001(19) -0.02907(19)
H28 H 0.1958 0.8745 -0.0882
C42 C 0.3597(3) 0.7871(2) -0.02311(17)
H29 H 0.3721 0.7673 -0.0784
C43 C 0.4494(3) 0.75286(15) 0.06436(15)
H30 H 0.5229 0.7102 0.0677
C44 C 0.9894(3) 0.94082(16) 0.42344(17)
C45 C 0.7144(3) 0.92579(14) 0.42621(17)
C46 C 0.6849(3) 0.92389(14) 0.22885(18)
H31 H 0.6500 0.9055 0.1635
H32 H 0.7576 0.9704 0.2379
H33 H 0.5894 0.9397 0.2430
C47 C 0.9241(3) 0.82504(17) 0.26905(17)
H34 H 0.9879 0.8731 0.2650
H35 H 0.9955 0.7910 0.3211
C48 C 0.8811(3) 0.7772(2) 0.17702(19)
H36 H 0.8038 0.8082 0.1253
H37 H 0.8319 0.7255 0.1831
H38 H 0.9800 0.7673 0.1639
loop_
_geom_bond_atom_site_label_1
_geom_bond_atom_site_label_2
_geom_bond_site_symmetry_1
_geom_bond_site_symmetry_2
O1 N1 1_555 1_555
O2 N1 1_555 1_555
N1 C2 1_555 1_555
N2 C20 1_555 1_555
N3 C21 1_555 1_555
C1 H1 1_555 1_555
C2 C1 1_555 1_555
C3 C2 1_555 1_555
H2 C3 1_555 1_555
C4 C3 1_555 1_555
H3 C4 1_555 1_555
C5 C4 1_555 1_555
C6 C1 1_555 1_555
C7 C6 1_555 1_555
C8 C7 1_555 1_555
C9 C8 1_555 1_555
C10 C5 1_555 1_555
H4 C10 1_555 1_555
C11 C9 1_555 1_555
H5 C11 1_555 1_555
H6 C11 1_555 1_555
C12 C11 1_555 1_555
C13 C8 1_555 1_555
C14 C7 1_555 1_555
C15 C14 1_555 1_555
H7 C15 1_555 1_555
C16 C15 1_555 1_555
H8 C16 1_555 1_555
C17 C16 1_555 1_555
H9 C17 1_555 1_555
C18 C17 1_555 1_555
H10 C18 1_555 1_555
C19 C14 1_555 1_555
H11 C19 1_555 1_555
C20 C12 1_555 1_555
C21 C12 1_555 1_555
C22 C13 1_555 1_555
H12 C22 1_555 1_555
H13 C22 1_555 1_555
H14 C22 1_555 1_555
C23 C13 1_555 1_555
H15 C23 1_555 1_555
H16 C23 1_555 1_555
C24 C23 1_555 1_555
H17 C24 1_555 1_555
H18 C24 1_555 1_555
H19 C24 1_555 1_555
O3 N4 1_555 1_555
O4 N4 1_555 1_555
N4 C26 1_555 1_555
N5 C44 1_555 1_555
N6 C45 1_555 1_555
C25 H20 1_555 1_555
C26 C25 1_555 1_555
C27 C26 1_555 1_555
H21 C27 1_555 1_555
C28 C27 1_555 1_555
H22 C28 1_555 1_555
C29 C28 1_555 1_555
C30 C25 1_555 1_555
C31 C30 1_555 1_555
C32 C31 1_555 1_555
C33 C32 1_555 1_555
C34 C29 1_555 1_555
H23 C34 1_555 1_555
C35 C33 1_555 1_555
H24 C35 1_555 1_555
H25 C35 1_555 1_555
C36 C35 1_555 1_555
C37 C32 1_555 1_555
C38 C31 1_555 1_555
C39 C38 1_555 1_555
H26 C39 1_555 1_555
C40 C39 1_555 1_555
H27 C40 1_555 1_555
C41 C40 1_555 1_555
H28 C41 1_555 1_555
C42 C41 1_555 1_555
H29 C42 1_555 1_555
C43 C38 1_555 1_555
H30 C43 1_555 1_555
C44 C36 1_555 1_555
C45 C36 1_555 1_555
C46 C37 1_555 1_555
H31 C46 1_555 1_555
H32 C46 1_555 1_555
H33 C46 1_555 1_555
C47 C37 1_555 1_555
H34 C47 1_555 1_555
H35 C47 1_555 1_555
C48 C47 1_555 1_555
H36 C48 1_555 1_555
H37 C48 1_555 1_555
H38 C48 1_555 1_555
C5 C6 1_555 1_555
C9 C10 1_555 1_555
C12 C13 1_555 1_555
C18 C19 1_555 1_555
C29 C30 1_555 1_555
C33 C34 1_555 1_555
C36 C37 1_555 1_555
C42 C43 1_555 1_555

#END
