
#######################################################################
#
#                 Cambridge Crystallographic Data Centre
#                                CCDC 
#
#######################################################################
#
# If this CIF has been generated from an entry in the Cambridge 
# Structural Database, then it will include bibliographic, chemical, 
# crystal, experimental, refinement or atomic coordinate data resulting 
# from the CCDC's data processing and validation procedures.
#
#######################################################################

data_LAQMUN
_chemical_formula_moiety         'C10 H16 N2 O4'
_chemical_name_systematic        
2-[(3R,6R)-6-Methyl-2,5-dioxomorpholin-3-yl]-N-(propan-2-yl)acetamide
_symmetry_cell_setting           monoclinic
_symmetry_space_group_name_H-M   'P 21'
_symmetry_Int_Tables_number      4
_space_group_name_Hall           'P 2yb'
loop_
_symmetry_equiv_pos_site_id
_symmetry_equiv_pos_as_xyz
1 x,y,z
2 -x,1/2+y,-z
_cell_length_a                   8.038(3)
_cell_length_b                   5.678(2)
_cell_length_c                   12.656(5)
_cell_angle_alpha                90
_cell_angle_beta                 105.476(4)
_cell_angle_gamma                90
_cell_volume                     556.674
_exptl_crystal_colour            colorless
_exptl_crystal_description       block
_cell_formula_units_Z            2
loop_
_atom_site_label
_atom_site_type_symbol
_atom_site_fract_x
_atom_site_fract_y
_atom_site_fract_z
N1 N 0.3090(3) 0.0143(5) 0.7877(2)
H1 H 0.303(3) -0.121(7) 0.759(2)
O1 O 0.0310(2) 0.0204(5) 0.78753(18)
C1 C 0.1717(3) 0.1165(6) 0.8051(2)
N2 N 0.7140(3) -0.2115(4) 0.66322(19)
H2 H 0.803(4) -0.138(6) 0.691(2)
O2 O 0.6493(2) 0.3811(4) 0.93137(16)
C2 C 0.1981(3) 0.3664(6) 0.8450(2)
H3 H 0.1803 0.4699 0.7810
O3 O 0.3725(2) 0.4038(4) 0.91393(15)
O4 O 0.4538(2) -0.3182(4) 0.67977(16)
C3 C 0.5079(3) 0.3148(5) 0.8859(2)
C4 C 0.4708(3) 0.1354(5) 0.7952(2)
H4 H 0.4607 0.2184 0.7259
C5 C 0.0782(4) 0.4419(7) 0.9102(3)
H5 H 0.1023 0.6023 0.9332
H6 H 0.0939 0.3426 0.9735
H7 H -0.0388 0.4295 0.8659
C6 C 0.6152(3) -0.0437(5) 0.8098(2)
H8 H 0.7244 0.0380 0.8203
H9 H 0.6210 -0.1370 0.8749
C7 C 0.5878(3) -0.2038(5) 0.7122(2)
C8 C 0.7090(3) -0.3549(6) 0.5672(2)
H10 H 0.5898 -0.3578 0.5211
C9 C 0.8204(5) -0.2421(7) 0.5025(3)
H11 H 0.7822 -0.0836 0.4839
H12 H 0.8118 -0.3306 0.4366
H13 H 0.9384 -0.2403 0.5458
C10 C 0.7629(5) -0.6010(7) 0.5983(3)
H14 H 0.6895 -0.6672 0.6392
H15 H 0.8803 -0.6023 0.6424
H16 H 0.7538 -0.6927 0.5332
loop_
_geom_bond_atom_site_label_1
_geom_bond_atom_site_label_2
_geom_bond_site_symmetry_1
_geom_bond_site_symmetry_2
N1 H1 1_555 1_555
O1 C1 1_555 1_555
C1 N1 1_555 1_555
N2 H2 1_555 1_555
O2 C3 1_555 1_555
C2 C1 1_555 1_555
H3 C2 1_555 1_555
O3 C2 1_555 1_555
O4 C7 1_555 1_555
C3 O3 1_555 1_555
C4 N1 1_555 1_555
H4 C4 1_555 1_555
C5 C2 1_555 1_555
H5 C5 1_555 1_555
H6 C5 1_555 1_555
H7 C5 1_555 1_555
C6 C4 1_555 1_555
H8 C6 1_555 1_555
H9 C6 1_555 1_555
C7 N2 1_555 1_555
C8 N2 1_555 1_555
H10 C8 1_555 1_555
C9 C8 1_555 1_555
H11 C9 1_555 1_555
H12 C9 1_555 1_555
H13 C9 1_555 1_555
C10 C8 1_555 1_555
H14 C10 1_555 1_555
H15 C10 1_555 1_555
H16 C10 1_555 1_555
C3 C4 1_555 1_555
C6 C7 1_555 1_555

#END
