
#######################################################################
#
#                 Cambridge Crystallographic Data Centre
#                                CCDC 
#
#######################################################################
#
# If this CIF has been generated from an entry in the Cambridge 
# Structural Database, then it will include bibliographic, chemical, 
# crystal, experimental, refinement or atomic coordinate data resulting 
# from the CCDC's data processing and validation procedures.
#
#######################################################################

data_LAQNEX
_chemical_formula_moiety         'C52 H36 Cl8 N4 O12'
_chemical_name_systematic        
3^3^,3^5^,7^3^,7^5^,11^3^,11^5^,15^3^,15^5^-Octachloro-3^4^,7^4^,11^4^,15^4^-tetramethoxy-1^5^,5^5^,9^5^,13^5^-tetramethyl-1,5,9,13(1,3)-tetrabenzena-3,7,11,15(2,6)-tetrapyridina-2,4,6,8,10,12,14,16-octaoxa-cyclohexadecaphane
_symmetry_cell_setting           tetragonal
_symmetry_space_group_name_H-M   'P 42/n'
_symmetry_Int_Tables_number      86
_space_group_name_Hall           '-P 4bc'
loop_
_symmetry_equiv_pos_site_id
_symmetry_equiv_pos_as_xyz
1 x,y,z
2 -y,1/2+x,1/2+z
3 1/2+y,-x,1/2+z
4 1/2-x,1/2-y,z
5 -x,-y,-z
6 y,1/2-x,1/2-z
7 1/2-y,x,1/2-z
8 1/2+x,1/2+y,-z
_cell_length_a                   13.4697(13)
_cell_length_b                   13.4697(13)
_cell_length_c                   13.9858(13)
_cell_angle_alpha                90
_cell_angle_beta                 90
_cell_angle_gamma                90
_cell_volume                     2537.48
_exptl_crystal_colour            colorless
_exptl_crystal_description       block
_chemical_melting_point          '572-573 K'
_cell_formula_units_Z            2
_exptl_crystal_recrystallization_method n-hexane
loop_
_atom_site_label
_atom_site_type_symbol
_atom_site_fract_x
_atom_site_fract_y
_atom_site_fract_z
Cl1 Cl 0.35917(5) 0.68039(4) 0.03608(5)
Cl2 Cl 0.36367(5) 0.34315(5) -0.17465(5)
O1 O 0.35473(14) 0.56185(13) -0.14474(13)
O2 O 0.34319(12) 0.53907(12) 0.19325(12)
O3 O 0.37679(12) 0.25255(15) 0.01056(13)
N1 N 0.36273(14) 0.39506(14) 0.10442(15)
C1 C 0.35499(16) 0.49309(17) 0.10754(18)
C2 C 0.35598(17) 0.55302(17) 0.02625(18)
C3 C 0.35651(17) 0.50735(18) -0.06267(18)
C4 C 0.36334(17) 0.40468(18) -0.06672(18)
C5 C 0.36920(18) 0.35251(17) 0.01946(18)
C6 C 0.2567(3) 0.5942(3) -0.1725(3)
H1 H 0.218(3) 0.532(3) -0.182(3)
H2 H 0.233(3) 0.637(3) -0.121(3)
H3 H 0.271(3) 0.631(3) -0.225(3)
C7 C 0.36557(17) 0.48438(16) 0.27637(17)
C8 C 0.28758(17) 0.45543(17) 0.33415(18)
H4 H 0.224(2) 0.468(2) 0.3183(19)
C9 C 0.40625(17) 0.18684(17) 0.08224(18)
C10 C 0.38777(17) 0.08866(17) 0.05754(19)
H5 H 0.358(2) 0.076(2) -0.002(2)
C11 C 0.41968(17) 0.01278(17) 0.11656(18)
C12 C 0.46384(18) 0.46838(18) 0.29908(19)
H6 H 0.511(2) 0.490(2) 0.259(2)
C13 C 0.40110(19) -0.0944(2) 0.0907(2)
H7 H 0.393(2) -0.095(2) 0.024(2)
H8 H 0.455(2) -0.137(2) 0.116(2)
H9 H 0.342(2) -0.114(2) 0.122(2)
Cl1E Cl 0.68039(4) 0.14083(5) 0.46392(5)
Cl1C Cl 0.14083(5) -0.18039(4) 0.03608(5)
Cl1F Cl -0.18039(4) 0.35917(5) 0.46392(5)
Cl2E Cl 0.34315(5) 0.13633(5) 0.67465(5)
Cl2C Cl 0.13633(5) 0.15685(5) -0.17465(5)
Cl2F Cl 0.15685(5) 0.36367(5) 0.67465(5)
O1E O 0.56185(13) 0.14527(14) 0.64474(13)
O1C O 0.14527(14) -0.06185(13) -0.14474(13)
O1F O -0.06185(13) 0.35473(14) 0.64474(13)
O2F O -0.03907(12) 0.34319(12) 0.30675(12)
O2C O 0.15681(12) -0.03907(12) 0.19325(12)
O2E O 0.53907(12) 0.15681(12) 0.30675(12)
O3F O 0.24745(15) 0.37679(12) 0.48944(13)
O3C O 0.12321(12) 0.24745(15) 0.01056(13)
O3E O 0.25255(15) 0.12321(12) 0.48944(13)
N1F N 0.10494(14) 0.36273(14) 0.39558(15)
N1C N 0.13727(14) 0.10494(14) 0.10442(15)
N1E N 0.39506(14) 0.13727(14) 0.39558(15)
C1F C 0.00691(17) 0.35499(16) 0.39246(18)
C1C C 0.14501(16) 0.00691(17) 0.10754(18)
C1E C 0.49309(17) 0.14501(16) 0.39246(18)
C2E C 0.55302(17) 0.14402(17) 0.47375(18)
C2C C 0.14402(17) -0.05302(17) 0.02625(18)
C2F C -0.05302(17) 0.35598(17) 0.47375(18)
C3E C 0.50735(18) 0.14349(17) 0.56267(18)
C3C C 0.14349(17) -0.00735(18) -0.06267(18)
C3F C -0.00735(18) 0.35651(17) 0.56267(18)
C4E C 0.40468(18) 0.13666(17) 0.56672(18)
C4C C 0.13666(17) 0.09532(18) -0.06672(18)
C4F C 0.09532(18) 0.36334(17) 0.56672(18)
C5F C 0.14749(17) 0.36920(18) 0.48054(18)
C5C C 0.13080(18) 0.14749(17) 0.01946(18)
C5E C 0.35251(17) 0.13080(18) 0.48054(18)
C6E C 0.5942(3) 0.2433(3) 0.6725(3)
C6C C 0.2433(3) -0.0942(3) -0.1725(3)
C6F C -0.0942(3) 0.2567(3) 0.6725(3)
H1E H 0.532(3) 0.282(3) 0.682(3)
H1C H 0.282(3) -0.032(3) -0.182(3)
H1F H -0.032(3) 0.218(3) 0.682(3)
H2E H 0.637(3) 0.267(3) 0.621(3)
H2C H 0.267(3) -0.137(3) -0.121(3)
H2F H -0.137(3) 0.233(3) 0.621(3)
H3E H 0.631(3) 0.229(3) 0.725(3)
H3C H 0.229(3) -0.131(3) -0.225(3)
H3F H -0.131(3) 0.271(3) 0.725(3)
C7F C 0.01562(16) 0.36557(17) 0.22363(17)
C7C C 0.13443(17) 0.01562(16) 0.27637(17)
C7E C 0.48438(16) 0.13443(17) 0.22363(17)
C8F C 0.04457(17) 0.28758(17) 0.16585(18)
C8C C 0.21242(17) 0.04457(17) 0.33415(18)
C8E C 0.45543(17) 0.21242(17) 0.16585(18)
H4F H 0.032(2) 0.224(2) 0.1817(19)
H4C H 0.276(2) 0.032(2) 0.3183(19)
H4E H 0.468(2) 0.276(2) 0.1817(19)
C9F C 0.31316(17) 0.40625(17) 0.41776(18)
C9C C 0.09375(17) 0.31316(17) 0.08224(18)
C9E C 0.18684(17) 0.09375(17) 0.41776(18)
C10E C 0.08866(17) 0.11223(17) 0.44246(19)
C10C C 0.11223(17) 0.41134(17) 0.05754(19)
C10F C 0.41134(17) 0.38777(17) 0.44246(19)
H5E H 0.076(2) 0.142(2) 0.502(2)
H5C H 0.142(2) 0.424(2) -0.002(2)
H5F H 0.424(2) 0.358(2) 0.502(2)
C11E C 0.01278(17) 0.08032(17) 0.38344(18)
C11C C 0.08032(17) 0.48722(17) 0.11656(18)
C11F C 0.48722(17) 0.41968(17) 0.38344(18)
C12E C 0.46838(18) 0.03616(18) 0.20092(19)
C12C C 0.03616(18) 0.03162(18) 0.29908(19)
C12F C 0.03162(18) 0.46384(18) 0.20092(19)
H6E H 0.490(2) -0.011(2) 0.241(2)
H6C H -0.011(2) 0.010(2) 0.259(2)
H6F H 0.010(2) 0.511(2) 0.241(2)
C13E C -0.0944(2) 0.09890(19) 0.4093(2)
C13C C 0.09890(19) 0.5944(2) 0.0907(2)
C13F C 0.5944(2) 0.40110(19) 0.4093(2)
H7E H -0.095(2) 0.107(2) 0.476(2)
H7C H 0.107(2) 0.595(2) 0.024(2)
H7F H 0.595(2) 0.393(2) 0.476(2)
H8E H -0.137(2) 0.045(2) 0.384(2)
H8C H 0.045(2) 0.637(2) 0.116(2)
H8F H 0.637(2) 0.455(2) 0.384(2)
H9E H -0.114(2) 0.158(2) 0.378(2)
H9C H 0.158(2) 0.614(2) 0.122(2)
H9F H 0.614(2) 0.342(2) 0.378(2)
loop_
_geom_bond_atom_site_label_1
_geom_bond_atom_site_label_2
_geom_bond_site_symmetry_1
_geom_bond_site_symmetry_2
Cl1 C2 1_555 1_555
Cl2 C4 1_555 1_555
O1 C3 1_555 1_555
O2 C1 1_555 1_555
O3 C5 1_555 1_555
N1 C1 1_555 1_555
C1 C2 1_555 1_555
C2 C3 1_555 1_555
C3 C4 1_555 1_555
C4 C5 1_555 1_555
C5 N1 1_555 1_555
C6 O1 1_555 1_555
H1 C6 1_555 1_555
H2 C6 1_555 1_555
H3 C6 1_555 1_555
C7 O2 1_555 1_555
C8 C7 1_555 1_555
H4 C8 1_555 1_555
C9 O3 1_555 1_555
C10 C9 1_555 1_555
H5 C10 1_555 1_555
C11 C10 1_555 1_555
C12 C7 1_555 1_555
H6 C12 1_555 1_555
C13 C11 1_555 1_555
H7 C13 1_555 1_555
H8 C13 1_555 1_555
H9 C13 1_555 1_555
Cl1E C2E 1_555 1_555
Cl1C C2C 1_555 1_555
Cl1F C2F 1_555 1_555
Cl2E C4E 1_555 1_555
Cl2C C4C 1_555 1_555
Cl2F C4F 1_555 1_555
O1E C3E 1_555 1_555
O1C C3C 1_555 1_555
O1F C3F 1_555 1_555
O2F C1F 1_555 1_555
O2C C1C 1_555 1_555
O2E C1E 1_555 1_555
O3F C5F 1_555 1_555
O3C C5C 1_555 1_555
O3E C5E 1_555 1_555
N1F C1F 1_555 1_555
N1C C1C 1_555 1_555
N1E C1E 1_555 1_555
C1F C2F 1_555 1_555
C1C C2C 1_555 1_555
C1E C2E 1_555 1_555
C2E C3E 1_555 1_555
C2C C3C 1_555 1_555
C2F C3F 1_555 1_555
C3E C4E 1_555 1_555
C3C C4C 1_555 1_555
C3F C4F 1_555 1_555
C4E C5E 1_555 1_555
C4C C5C 1_555 1_555
C4F C5F 1_555 1_555
C5F N1F 1_555 1_555
C5C N1C 1_555 1_555
C5E N1E 1_555 1_555
C6E O1E 1_555 1_555
C6C O1C 1_555 1_555
C6F O1F 1_555 1_555
H1E C6E 1_555 1_555
H1C C6C 1_555 1_555
H1F C6F 1_555 1_555
H2E C6E 1_555 1_555
H2C C6C 1_555 1_555
H2F C6F 1_555 1_555
H3E C6E 1_555 1_555
H3C C6C 1_555 1_555
H3F C6F 1_555 1_555
C7F O2F 1_555 1_555
C7C O2C 1_555 1_555
C7E O2E 1_555 1_555
C8F C7F 1_555 1_555
C8C C7C 1_555 1_555
C8E C9 1_555 1_555
H4F C8F 1_555 1_555
H4C C8C 1_555 1_555
H4E C8E 1_555 1_555
C9F C8 1_555 1_555
C9C O3C 1_555 1_555
C9E O3E 1_555 1_555
C10E C9E 1_555 1_555
C10C C9C 1_555 1_555
C10F C9F 1_555 1_555
H5E C10E 1_555 1_555
H5C C10C 1_555 1_555
H5F C10F 1_555 1_555
C11E C10E 1_555 1_555
C11C C10C 1_555 1_555
C11F C12 1_555 1_555
C12E C11 1_555 1_555
C12C C7C 1_555 1_555
C12F C7F 1_555 1_555
H6E C12E 1_555 1_555
H6C C12C 1_555 1_555
H6F C12F 1_555 1_555
C13E C11E 1_555 1_555
C13C C11C 1_555 1_555
C13F C11F 1_555 1_555
H7E C13E 1_555 1_555
H7C C13C 1_555 1_555
H7F C13F 1_555 1_555
H8E C13E 1_555 1_555
H8C C13C 1_555 1_555
H8F C13F 1_555 1_555
H9E C13E 1_555 1_555
H9C C13C 1_555 1_555
H9F C13F 1_555 1_555
O3F C9F 1_555 1_555
C7E C8E 1_555 1_555
C7E C12E 1_555 1_555
C8F C9C 1_555 1_555
C8C C9E 1_555 1_555
C10F C11F 1_555 1_555
C11E C12C 1_555 1_555
C11C C12F 1_555 1_555

#END
