
#######################################################################
#
#                 Cambridge Crystallographic Data Centre
#                                CCDC 
#
#######################################################################
#
# If this CIF has been generated from an entry in the Cambridge 
# Structural Database, then it will include bibliographic, chemical, 
# crystal, experimental, refinement or atomic coordinate data resulting 
# from the CCDC's data processing and validation procedures.
#
#######################################################################

data_LAQTUU
_chemical_formula_moiety         'C20 H20 Cl1 F1 N4 O3'
_chemical_name_systematic        
6-[(2-Chloropyridin-5-ylmethyl)(ethyl)azanyl]-4-(2-fluorophenyl)-1-methyl-5-nitro-1,2,3,4-tetrahydropyridin-2-one
_symmetry_cell_setting           triclinic
_symmetry_space_group_name_H-M   'P -1'
_symmetry_Int_Tables_number      2
_space_group_name_Hall           '-P 1'
loop_
_symmetry_equiv_pos_site_id
_symmetry_equiv_pos_as_xyz
1 x,y,z
2 -x,-y,-z
_cell_length_a                   6.750(2)
_cell_length_b                   8.262(3)
_cell_length_c                   17.853(6)
_cell_angle_alpha                94.981(6)
_cell_angle_beta                 91.302(7)
_cell_angle_gamma                100.593(7)
_cell_volume                     974.21
_exptl_crystal_colour            yellow
_exptl_crystal_description       block
_cell_formula_units_Z            2
loop_
_atom_site_label
_atom_site_type_symbol
_atom_site_fract_x
_atom_site_fract_y
_atom_site_fract_z
Cl1 Cl -0.0482(2) 0.19595(18) 1.06337(7)
F1 F 0.0556(4) -0.3141(3) 0.57751(14)
O1 O 0.1183(4) 0.3810(3) 0.70839(17)
O2 O 0.0164(4) 0.1954(4) 0.61628(17)
O3 O 0.4797(4) -0.1603(3) 0.82425(15)
N1 N 0.0698(5) 0.3252(5) 0.9407(2)
N2 N 0.5075(4) 0.3694(3) 0.76441(15)
N3 N 0.5073(4) 0.0931(3) 0.78309(15)
N4 N 0.1287(5) 0.2474(4) 0.67181(19)
C1 C 0.1333(7) 0.2582(5) 0.9985(2)
C2 C 0.3272(8) 0.2367(5) 1.0112(2)
H1 H 0.3632 0.1866 1.0528
C3 C 0.2101(7) 0.3769(5) 0.8917(2)
H2 H 0.1690 0.4245 0.8501
C4 C 0.4110(6) 0.3647(4) 0.8982(2)
C5 C 0.4664(6) 0.2921(5) 0.9599(2)
H3 H 0.5998 0.2804 0.9669
C6 C 0.5569(6) 0.4366(4) 0.8427(2)
H4 H 0.5631 0.5553 0.8461
H5 H 0.6899 0.4176 0.8567
C7 C 0.5241(6) 0.4907(4) 0.7083(2)
H6 H 0.4291 0.5638 0.7190
H7 H 0.4883 0.4331 0.6588
C8 C 0.7339(6) 0.5922(5) 0.7079(3)
H8 H 0.7682 0.6524 0.7563
H9 H 0.7388 0.6686 0.6701
H10 H 0.8283 0.5204 0.6970
C9 C 0.4199(5) 0.2097(4) 0.74628(18)
C10 C 0.2653(5) 0.1481(4) 0.6955(2)
C11 C 0.2062(5) -0.0340(4) 0.6735(2)
H11 H 0.0674 -0.0550 0.6527
C12 C 0.2044(5) -0.1165(4) 0.7469(2)
H12 H 0.0999 -0.0843 0.7782
H13 H 0.1738 -0.2357 0.7359
C13 C 0.4050(6) -0.0674(5) 0.78885(19)
C14 C 0.7233(5) 0.1245(5) 0.8024(2)
H14 H 0.7442 0.1457 0.8560
H15 H 0.7887 0.2190 0.7787
H16 H 0.7789 0.0297 0.7852
C15 C 0.3356(5) -0.1057(4) 0.6151(2)
C16 C 0.2525(6) -0.2468(5) 0.5697(2)
C17 C 0.3578(7) -0.3229(5) 0.5167(2)
H17 H 0.2958 -0.4175 0.4870
C18 C 0.5569(7) -0.2557(5) 0.5088(2)
H18 H 0.6323 -0.3060 0.4740
C19 C 0.6450(6) -0.1144(5) 0.5521(2)
H19 H 0.7796 -0.0685 0.5462
C20 C 0.5345(6) -0.0401(5) 0.6044(2)
H20 H 0.5957 0.0563 0.6330
loop_
_geom_bond_atom_site_label_1
_geom_bond_atom_site_label_2
_geom_bond_site_symmetry_1
_geom_bond_site_symmetry_2
Cl1 C1 1_555 1_555
F1 C16 1_555 1_555
O1 N4 1_555 1_555
O2 N4 1_555 1_555
O3 C13 1_555 1_555
N1 C1 1_555 1_555
N2 C6 1_555 1_555
N3 C9 1_555 1_555
N4 C10 1_555 1_555
C1 C2 1_555 1_555
C2 H1 1_555 1_555
C3 N1 1_555 1_555
H2 C3 1_555 1_555
C4 C3 1_555 1_555
C5 C2 1_555 1_555
H3 C5 1_555 1_555
C6 C4 1_555 1_555
H4 C6 1_555 1_555
H5 C6 1_555 1_555
C7 N2 1_555 1_555
H6 C7 1_555 1_555
H7 C7 1_555 1_555
C8 C7 1_555 1_555
H8 C8 1_555 1_555
H9 C8 1_555 1_555
H10 C8 1_555 1_555
C9 N2 1_555 1_555
C10 C9 1_555 1_555
C11 C10 1_555 1_555
H11 C11 1_555 1_555
C12 C11 1_555 1_555
H12 C12 1_555 1_555
H13 C12 1_555 1_555
C13 N3 1_555 1_555
C14 N3 1_555 1_555
H14 C14 1_555 1_555
H15 C14 1_555 1_555
H16 C14 1_555 1_555
C15 C11 1_555 1_555
C16 C15 1_555 1_555
C17 C16 1_555 1_555
H17 C17 1_555 1_555
C18 C17 1_555 1_555
H18 C18 1_555 1_555
C19 C18 1_555 1_555
H19 C19 1_555 1_555
C20 C15 1_555 1_555
H20 C20 1_555 1_555
C4 C5 1_555 1_555
C12 C13 1_555 1_555
C19 C20 1_555 1_555

#END
