
#######################################################################
#
#                 Cambridge Crystallographic Data Centre
#                                CCDC 
#
#######################################################################
#
# If this CIF has been generated from an entry in the Cambridge 
# Structural Database, then it will include bibliographic, chemical, 
# crystal, experimental, refinement or atomic coordinate data resulting 
# from the CCDC's data processing and validation procedures.
#
#######################################################################

data_LAQVIJ
_chemical_name_common            'Tetraresorcinol ethyl acrylate clathrate'
_chemical_formula_moiety         'C24 H20 O8 Si1,2(C5 H8 O2)'
_chemical_name_systematic        
'tetrakis(3,5-Dihydroxyphenyl)silane ethyl acrylate clathrate'
_symmetry_cell_setting           tetragonal
_symmetry_space_group_name_H-M   'I -4 2 d'
_symmetry_Int_Tables_number      122
_space_group_name_Hall           'I -4 2bw'
loop_
_symmetry_equiv_pos_site_id
_symmetry_equiv_pos_as_xyz
1 x,y,z
2 -x,-y,z
3 -y,x,-z
4 y,-x,-z
5 x,1/2-y,1/4-z
6 -x,1/2+y,1/4-z
7 y,1/2+x,1/4+z
8 -y,1/2-x,1/4+z
9 1/2+x,1/2+y,1/2+z
10 1/2-x,1/2-y,1/2+z
11 1/2-y,1/2+x,1/2-z
12 1/2+y,1/2-x,1/2-z
13 1/2+x,-y,3/4-z
14 1/2-x,y,3/4-z
15 1/2+y,x,3/4+z
16 1/2-y,-x,3/4+z
_cell_length_a                   16.994(7)
_cell_length_b                   16.994(7)
_cell_length_c                   37.344(6)
_cell_angle_alpha                90
_cell_angle_beta                 90
_cell_angle_gamma                90
_cell_volume                     10784.8
_exptl_crystal_colour            colorless
_exptl_crystal_description       block
_cell_formula_units_Z            12
_exptl_crystal_recrystallization_method 'hexane/ethyl acetate'
loop_
_atom_site_label
_atom_site_type_symbol
_atom_site_fract_x
_atom_site_fract_y
_atom_site_fract_z
Si2 Si 0.5000 0.5000 0.19808(3)
O3 O 0.40844(17) 0.69586(17) 0.29674(7)
H6 H 0.4253 0.7248 0.3129
O4 O 0.67532(17) 0.71806(16) 0.25577(7)
H7 H 0.6791 0.7477 0.2733
O5 O 0.26889(17) 0.67162(16) 0.14656(6)
H8 H 0.2869 0.6978 0.1297
O6 O 0.29462(17) 0.41048(18) 0.10187(7)
H9 H 0.3259 0.3730 0.1021
C7 C 0.5176(2) 0.5845(2) 0.22777(10)
C8 C 0.4583(2) 0.6112(2) 0.25074(10)
H10 H 0.4083 0.5877 0.2494
C9 C 0.4708(3) 0.6710(3) 0.27541(12)
C10 C 0.5404(2) 0.7138(2) 0.27690(12)
H11 H 0.5468 0.7582 0.2916
C11 C 0.5994(3) 0.6855(3) 0.25470(11)
C12 C 0.5896(3) 0.6228(2) 0.23107(11)
H12 H 0.6324 0.6060 0.2171
C13 C 0.4110(2) 0.5172(2) 0.16964(9)
C14 C 0.3721(2) 0.5892(3) 0.16949(12)
H13 H 0.3896 0.6312 0.1838
C15 C 0.3062(2) 0.5969(3) 0.14748(11)
C16 C 0.2814(2) 0.5394(2) 0.12359(11)
H14 H 0.2386 0.5481 0.1081
C17 C 0.3220(2) 0.4687(2) 0.12336(11)
C18 C 0.3847(2) 0.4593(2) 0.14632(9)
H15 H 0.4112 0.4108 0.1462
O3A O 0.59156(17) 0.30414(17) 0.29674(7)
H6A H 0.5747 0.2752 0.3129
O4A O 0.32468(17) 0.28194(16) 0.25577(7)
H7A H 0.3209 0.2523 0.2733
O5A O 0.73111(17) 0.32838(16) 0.14656(6)
H8A H 0.7131 0.3022 0.1297
O6A O 0.70538(17) 0.58952(18) 0.10187(7)
H9A H 0.6741 0.6270 0.1021
C7A C 0.4824(2) 0.4155(2) 0.22777(10)
C8A C 0.5417(2) 0.3888(2) 0.25074(10)
H10A H 0.5917 0.4123 0.2494
C9A C 0.5292(3) 0.3290(3) 0.27541(12)
C10A C 0.4596(2) 0.2862(2) 0.27690(12)
H11A H 0.4532 0.2418 0.2916
C11A C 0.4006(3) 0.3145(3) 0.25470(11)
C12A C 0.4104(3) 0.3772(2) 0.23107(11)
H12A H 0.3676 0.3940 0.2171
C13A C 0.5890(2) 0.4828(2) 0.16964(9)
C14A C 0.6279(2) 0.4108(3) 0.16949(12)
H13A H 0.6104 0.3688 0.1838
C15A C 0.6938(2) 0.4031(3) 0.14748(11)
C16A C 0.7186(2) 0.4606(2) 0.12359(11)
H14A H 0.7614 0.4519 0.1081
C17A C 0.6780(2) 0.5313(2) 0.12336(11)
C18A C 0.6153(2) 0.5407(2) 0.14632(9)
H15A H 0.5888 0.5892 0.1462
Si1 Si 0.5000 0.5000 0.0000
O1 O 0.67552(16) 0.28224(16) 0.05764(7)
H1 H 0.6767 0.2540 0.0758
O2 O 0.40768(18) 0.29557(17) 0.09535(7)
H2 H 0.4230 0.2934 0.1164
C1 C 0.5168(2) 0.4111(2) 0.02922(9)
C2 C 0.5905(2) 0.3767(2) 0.03096(9)
H3 H 0.6308 0.3942 0.0157
C3 C 0.6050(2) 0.3166(2) 0.05505(10)
C4 C 0.5443(2) 0.2904(2) 0.07675(11)
H4 H 0.5539 0.2508 0.0938
C5 C 0.4692(3) 0.3222(2) 0.07347(12)
C6 C 0.4547(2) 0.3848(2) 0.05067(10)
H5 H 0.4049 0.4088 0.0497
O1A O 0.32448(16) 0.71776(16) 0.05764(7)
O1B O 0.71776(16) 0.67552(16) -0.05764(7)
O1C O 0.28224(16) 0.32448(16) -0.05764(7)
H1A H 0.3233 0.7460 0.0758
H1B H 0.7460 0.6767 -0.0758
H1C H 0.2540 0.3233 -0.0758
O2A O 0.59232(18) 0.70443(17) 0.09535(7)
O2B O 0.70443(17) 0.40768(18) -0.09535(7)
O2C O 0.29557(17) 0.59232(18) -0.09535(7)
H2A H 0.5770 0.7066 0.1164
H2B H 0.7066 0.4230 -0.1164
H2C H 0.2934 0.5770 -0.1164
C1A C 0.4832(2) 0.5889(2) 0.02922(9)
C1B C 0.5889(2) 0.5168(2) -0.02922(9)
C1C C 0.4111(2) 0.4832(2) -0.02922(9)
C2A C 0.4095(2) 0.6233(2) 0.03096(9)
C2B C 0.6233(2) 0.5905(2) -0.03096(9)
C2C C 0.3767(2) 0.4095(2) -0.03096(9)
H3A H 0.3692 0.6058 0.0157
H3B H 0.6058 0.6308 -0.0157
H3C H 0.3942 0.3692 -0.0157
C3A C 0.3950(2) 0.6834(2) 0.05505(10)
C3B C 0.6834(2) 0.6050(2) -0.05505(10)
C3C C 0.3166(2) 0.3950(2) -0.05505(10)
C4A C 0.4557(2) 0.7096(2) 0.07675(11)
C4B C 0.7096(2) 0.5443(2) -0.07675(11)
C4C C 0.2904(2) 0.4557(2) -0.07675(11)
H4A H 0.4461 0.7492 0.0938
H4B H 0.7492 0.5539 -0.0938
H4C H 0.2508 0.4461 -0.0938
C5A C 0.5308(3) 0.6778(2) 0.07347(12)
C5B C 0.6778(2) 0.4692(3) -0.07347(12)
C5C C 0.3222(2) 0.5308(3) -0.07347(12)
C6A C 0.5453(2) 0.6152(2) 0.05067(10)
C6B C 0.6152(2) 0.4547(2) -0.05067(10)
C6C C 0.3848(2) 0.5453(2) -0.05067(10)
H5A H 0.5951 0.5912 0.0497
H5B H 0.5912 0.4049 -0.0497
H5C H 0.4088 0.5951 -0.0497
loop_
_geom_bond_atom_site_label_1
_geom_bond_atom_site_label_2
_geom_bond_site_symmetry_1
_geom_bond_site_symmetry_2
Si1 C1 1_555 1_555
O1 H1 1_555 1_555
O2 H2 1_555 1_555
C1 C2 1_555 1_555
C2 H3 1_555 1_555
C3 O1 1_555 1_555
C4 C3 1_555 1_555
H4 C4 1_555 1_555
C5 O2 1_555 1_555
C6 C1 1_555 1_555
H5 C6 1_555 1_555
Si2 C7 1_555 1_555
O3 H6 1_555 1_555
O4 H7 1_555 1_555
O5 H8 1_555 1_555
O6 H9 1_555 1_555
C7 C8 1_555 1_555
C8 H10 1_555 1_555
C9 O3 1_555 1_555
C10 C9 1_555 1_555
H11 C10 1_555 1_555
C11 O4 1_555 1_555
C12 C7 1_555 1_555
H12 C12 1_555 1_555
C13 Si2 1_555 1_555
C14 C13 1_555 1_555
H13 C14 1_555 1_555
C15 O5 1_555 1_555
C16 C15 1_555 1_555
H14 C16 1_555 1_555
C17 O6 1_555 1_555
C18 C13 1_555 1_555
H15 C18 1_555 1_555
O1A H1A 1_555 1_555
O1B H1B 1_555 1_555
O1C H1C 1_555 1_555
O2A H2A 1_555 1_555
O2B H2B 1_555 1_555
O2C H2C 1_555 1_555
C1A Si1 1_555 1_555
C1B Si1 1_555 1_555
C1C Si1 1_555 1_555
C2A C1A 1_555 1_555
C2B C1B 1_555 1_555
C2C C1C 1_555 1_555
H3A C2A 1_555 1_555
H3B C2B 1_555 1_555
H3C C2C 1_555 1_555
C3A O1A 1_555 1_555
C3B O1B 1_555 1_555
C3C O1C 1_555 1_555
C4A C3A 1_555 1_555
C4B C3B 1_555 1_555
C4C C3C 1_555 1_555
H4A C4A 1_555 1_555
H4B C4B 1_555 1_555
H4C C4C 1_555 1_555
C5A O2A 1_555 1_555
C5B O2B 1_555 1_555
C5C O2C 1_555 1_555
C6A C1A 1_555 1_555
C6B C1B 1_555 1_555
C6C C1C 1_555 1_555
H5A C6A 1_555 1_555
H5B C6B 1_555 1_555
H5C C6C 1_555 1_555
O3A H6A 1_555 1_555
O4A H7A 1_555 1_555
O5A H8A 1_555 1_555
O6A H9A 1_555 1_555
C7A Si2 1_555 1_555
C8A C7A 1_555 1_555
H10A C8A 1_555 1_555
C9A O3A 1_555 1_555
C10A C9A 1_555 1_555
H11A C10A 1_555 1_555
C11A O4A 1_555 1_555
C12A C7A 1_555 1_555
H12A C12A 1_555 1_555
C13A Si2 1_555 1_555
C14A C13A 1_555 1_555
H13A C14A 1_555 1_555
C15A O5A 1_555 1_555
C16A C15A 1_555 1_555
H14A C16A 1_555 1_555
C17A O6A 1_555 1_555
C18A C13A 1_555 1_555
H15A C18A 1_555 1_555
C2 C3 1_555 1_555
C4 C5 1_555 1_555
C5 C6 1_555 1_555
C8 C9 1_555 1_555
C10 C11 1_555 1_555
C11 C12 1_555 1_555
C14 C15 1_555 1_555
C16 C17 1_555 1_555
C17 C18 1_555 1_555
C2A C3A 1_555 1_555
C2B C3B 1_555 1_555
C2C C3C 1_555 1_555
C4A C5A 1_555 1_555
C4B C5B 1_555 1_555
C4C C5C 1_555 1_555
C5A C6A 1_555 1_555
C5B C6B 1_555 1_555
C5C C6C 1_555 1_555
C8A C9A 1_555 1_555
C10A C11A 1_555 1_555
C11A C12A 1_555 1_555
C14A C15A 1_555 1_555
C16A C17A 1_555 1_555
C17A C18A 1_555 1_555

#END
