
#######################################################################
#
#                 Cambridge Crystallographic Data Centre
#                                CCDC 
#
#######################################################################
#
# If this CIF has been generated from an entry in the Cambridge 
# Structural Database, then it will include bibliographic, chemical, 
# crystal, experimental, refinement or atomic coordinate data resulting 
# from the CCDC's data processing and validation procedures.
#
#######################################################################

data_LAQWUX
_chemical_formula_moiety         'C17 H15 Br1 O3'
_chemical_name_systematic        
(E)-1-(3-Bromophenyl)-3-(3,4-dimethoxyphenyl)prop-2-en-1-one
_symmetry_cell_setting           monoclinic
_symmetry_space_group_name_H-M   'P 21/c'
_symmetry_Int_Tables_number      14
_space_group_name_Hall           '-P 2ybc'
loop_
_symmetry_equiv_pos_site_id
_symmetry_equiv_pos_as_xyz
1 x,y,z
2 -x,1/2+y,1/2-z
3 -x,-y,-z
4 x,1/2-y,1/2+z
_cell_length_a                   12.7946(5)
_cell_length_b                   3.93730(10)
_cell_length_c                   29.8209(10)
_cell_angle_alpha                90
_cell_angle_beta                 109.219(3)
_cell_angle_gamma                90
_cell_volume                     1418.54
_exptl_crystal_colour            colorless
_exptl_crystal_description       prism
_chemical_melting_point          '117-120 deg.C'
_cell_formula_units_Z            4
loop_
_atom_site_label
_atom_site_type_symbol
_atom_site_fract_x
_atom_site_fract_y
_atom_site_fract_z
Br1 Br -0.11568(2) 0.90741(7) 0.528213(9)
O1 O -0.25274(14) 0.3062(5) 0.31571(6)
O2 O 0.40922(14) 0.3072(5) 0.32327(6)
O3 O 0.37580(14) 0.5457(5) 0.39741(6)
C1 C 0.4322(2) 0.1612(7) 0.28340(10)
H1 H 0.3873 0.2751 0.2542
H2 H 0.4141 -0.0814 0.2813
H3 H 0.5109 0.1902 0.2874
C2 C -0.0247(2) 0.2800(7) 0.32953(9)
H4 H -0.0759 0.1507 0.3052
C3 C 0.1119(2) 0.1273(6) 0.29162(9)
H5 H 0.0535 0.0184 0.2676
C4 C 0.2171(2) 0.1330(6) 0.28749(9)
H6 H 0.2298 0.0357 0.2606
C5 C 0.2834(2) 0.4212(7) 0.36346(9)
C6 C -0.2297(2) 0.6078(7) 0.38681(9)
C7 C 0.1780(2) 0.4234(7) 0.36627(9)
H7 H 0.1649 0.5243 0.3928
C8 C -0.3827(2) 0.8723(7) 0.40364(10)
H8 H -0.4579 0.9429 0.3932
C9 C 0.0897(2) 0.2760(6) 0.32972(9)
C10 C -0.2072(2) 0.8273(6) 0.46427(9)
C11 C -0.3163(2) 0.9344(7) 0.45004(10)
H9 H -0.3450 1.0479 0.4716
C12 C -0.0668(2) 0.4429(7) 0.35928(9)
H10 H -0.0187 0.5619 0.3858
C13 C -0.1622(2) 0.6663(6) 0.43363(9)
H11 H -0.0869 0.5968 0.4442
C14 C 0.3031(2) 0.2829(6) 0.32325(9)
C15 C -0.1871(2) 0.4390(7) 0.35127(9)
C16 C 0.3612(2) 0.6874(7) 0.43882(9)
H12 H 0.3096 0.8790 0.4298
H13 H 0.4327 0.7667 0.4604
H14 H 0.3313 0.5140 0.4548
C17 C -0.3401(2) 0.7083(7) 0.37247(10)
H15 H -0.3866 0.6638 0.3409
loop_
_geom_bond_atom_site_label_1
_geom_bond_atom_site_label_2
_geom_bond_site_symmetry_1
_geom_bond_site_symmetry_2
Br1 C10 1_555 1_555
O1 C15 1_555 1_555
O2 C1 1_555 1_555
O3 C5 1_555 1_555
C1 H1 1_555 1_555
H2 C1 1_555 1_555
H3 C1 1_555 1_555
C2 H4 1_555 1_555
C3 H5 1_555 1_555
C4 C3 1_555 1_555
H6 C4 1_555 1_555
C5 C7 1_555 1_555
C6 C13 1_555 1_555
C7 H7 1_555 1_555
C8 H8 1_555 1_555
C9 C2 1_555 1_555
C10 C11 1_555 1_555
C11 C8 1_555 1_555
H9 C11 1_555 1_555
C12 C2 1_555 1_555
H10 C12 1_555 1_555
C13 C10 1_555 1_555
H11 C13 1_555 1_555
C14 O2 1_555 1_555
C15 C6 1_555 1_555
C16 O3 1_555 1_555
H12 C16 1_555 1_555
H13 C16 1_555 1_555
H14 C16 1_555 1_555
C17 C6 1_555 1_555
H15 C17 1_555 1_555
C3 C9 1_555 1_555
C4 C14 1_555 1_555
C5 C14 1_555 1_555
C7 C9 1_555 1_555
C8 C17 1_555 1_555
C12 C15 1_555 1_555

#END
