
#######################################################################
#
#                 Cambridge Crystallographic Data Centre
#                                CCDC 
#
#######################################################################
#
# If this CIF has been generated from an entry in the Cambridge 
# Structural Database, then it will include bibliographic, chemical, 
# crystal, experimental, refinement or atomic coordinate data resulting 
# from the CCDC's data processing and validation procedures.
#
#######################################################################

data_LAQXAD
_chemical_formula_moiety         'C31 H26 N2 O3'
_chemical_name_systematic        
'2-(4-(2-(2-Hydroxyphenyl)-4,5-diphenylimidazol-1-yl)phenyl)ethyl acetate'
_symmetry_cell_setting           triclinic
_symmetry_space_group_name_H-M   'P -1'
_symmetry_Int_Tables_number      2
_space_group_name_Hall           '-P 1'
loop_
_symmetry_equiv_pos_site_id
_symmetry_equiv_pos_as_xyz
1 x,y,z
2 -x,-y,-z
_cell_length_a                   9.7716(15)
_cell_length_b                   10.2228(16)
_cell_length_c                   12.723(2)
_cell_angle_alpha                91.335(3)
_cell_angle_beta                 98.148(3)
_cell_angle_gamma                91.295(3)
_cell_volume                     1257.34
_chemical_melting_point          '164 deg.C'
_cell_formula_units_Z            2
_exptl_crystal_recrystallization_method 'ethyl acetate'
loop_
_atom_site_label
_atom_site_type_symbol
_atom_site_fract_x
_atom_site_fract_y
_atom_site_fract_z
N1 N 0.3330(2) 0.6606(2) 0.00222(17)
N2 N 0.2475(2) 0.45941(19) 0.00403(15)
C1 C 0.2864(3) 0.5574(3) -0.05820(19)
O1 O -0.0278(2) 0.0130(2) -0.32034(16)
O2 O 0.3822(2) 0.77647(19) -0.16270(17)
C2 C 0.2843(3) 0.5560(3) -0.1742(2)
C3 C 0.1153(3) 0.0771(3) -0.10226(19)
C4 C 0.2974(3) 0.2356(3) -0.0441(2)
H1 H 0.3912 0.2574 -0.0301
C5 C 0.2543(3) 0.1110(3) -0.0803(2)
H2 H 0.3199 0.0490 -0.0900
C6 C 0.0625(3) 0.2951(3) -0.04713(18)
H3 H -0.0027 0.3564 -0.0349
C7 C 0.2352(3) 0.4293(3) 0.19839(19)
C8 C 0.2007(3) 0.3276(2) -0.02865(18)
C9 C 0.0209(3) 0.1697(3) -0.0843(2)
H4 H -0.0730 0.1479 -0.0974
C10 C 0.2714(2) 0.5054(2) 0.10940(18)
C11 C 0.3338(3) 0.6679(3) -0.2208(2)
C12 C 0.3810(3) 0.7241(3) 0.1925(2)
C13 C 0.3251(3) 0.6301(2) 0.1060(2)
C14 C 0.2367(3) 0.4508(3) -0.2431(2)
H5 H 0.2022 0.3758 -0.2150
C15 C 0.1395(3) 0.4771(3) 0.2591(2)
H6 H 0.0952 0.5547 0.2409
C16 C 0.1733(3) 0.2968(3) 0.3748(2)
H7 H 0.1537 0.2531 0.4344
C17 C 0.0716(3) -0.0571(3) -0.1501(2)
H8 H 0.1305 -0.1224 -0.1144
H9 H -0.0228 -0.0770 -0.1392
C18 C 0.2975(3) 0.3137(3) 0.2275(2)
H10 H 0.3617 0.2793 0.1877
C19 C 0.0812(3) -0.0637(3) -0.2671(2)
H11 H 0.1704 -0.0292 -0.2801
H12 H 0.0712 -0.1538 -0.2933
C20 C 0.2390(3) 0.4542(3) -0.3512(2)
H13 H 0.2068 0.3826 -0.3950
C21 C 0.0006(4) 0.1039(3) -0.3854(3)
C22 C 0.3927(3) 0.8558(3) 0.1724(2)
H14 H 0.3575 0.8857 0.1057
C23 C 0.4313(3) 0.6829(3) 0.2930(2)
H15 H 0.4239 0.5948 0.3086
C24 C 0.3354(3) 0.6701(3) -0.3292(2)
H16 H 0.3684 0.7447 -0.3589
C25 C 0.2660(4) 0.2480(3) 0.3149(2)
H17 H 0.3086 0.1696 0.3330
C26 C 0.1095(3) 0.4106(3) 0.3465(2)
H18 H 0.0449 0.4436 0.3865
C27 C 0.2897(3) 0.5650(4) -0.3931(2)
H19 H 0.2928 0.5681 -0.4658
C28 C 0.5035(4) 0.9017(4) 0.3482(3)
H20 H 0.5438 0.9612 0.4005
C29 C 0.4930(3) 0.7715(4) 0.3710(3)
H21 H 0.5269 0.7428 0.4383
O3 O 0.1137(3) 0.1205(3) -0.4076(3)
C30 C 0.4554(4) 0.9442(3) 0.2492(3)
H22 H 0.4648 1.0321 0.2336
C31 C -0.1222(4) 0.1763(4) -0.4294(3)
H23 H -0.0956 0.2427 -0.4752
H24 H -0.1623 0.2164 -0.3724
H25 H -0.1887 0.1169 -0.4692
H26 H 0.368(3) 0.759(3) -0.081(3)
loop_
_geom_bond_atom_site_label_1
_geom_bond_atom_site_label_2
_geom_bond_site_symmetry_1
_geom_bond_site_symmetry_2
N1 C1 1_555 1_555
N2 C1 1_555 1_555
C1 C2 1_555 1_555
O1 C19 1_555 1_555
O2 C11 1_555 1_555
C2 C11 1_555 1_555
C3 C5 1_555 1_555
C4 H1 1_555 1_555
C5 C4 1_555 1_555
H2 C5 1_555 1_555
C6 H3 1_555 1_555
C7 C10 1_555 1_555
C8 N2 1_555 1_555
C9 C3 1_555 1_555
H4 C9 1_555 1_555
C10 N2 1_555 1_555
C11 C24 1_555 1_555
C12 C13 1_555 1_555
C13 N1 1_555 1_555
C14 C2 1_555 1_555
H5 C14 1_555 1_555
C15 C7 1_555 1_555
H6 C15 1_555 1_555
C16 H7 1_555 1_555
C17 C3 1_555 1_555
H8 C17 1_555 1_555
H9 C17 1_555 1_555
C18 C7 1_555 1_555
H10 C18 1_555 1_555
C19 C17 1_555 1_555
H11 C19 1_555 1_555
H12 C19 1_555 1_555
C20 C14 1_555 1_555
H13 C20 1_555 1_555
C21 O1 1_555 1_555
C22 C12 1_555 1_555
H14 C22 1_555 1_555
C23 C12 1_555 1_555
H15 C23 1_555 1_555
C24 H16 1_555 1_555
C25 C16 1_555 1_555
H17 C25 1_555 1_555
C26 C15 1_555 1_555
H18 C26 1_555 1_555
C27 C20 1_555 1_555
H19 C27 1_555 1_555
C28 H20 1_555 1_555
C29 C23 1_555 1_555
H21 C29 1_555 1_555
O3 C21 1_555 1_555
C30 C22 1_555 1_555
H22 C30 1_555 1_555
C31 C21 1_555 1_555
H23 C31 1_555 1_555
H24 C31 1_555 1_555
H25 C31 1_555 1_555
H26 O2 1_555 1_555
C4 C8 1_555 1_555
C6 C8 1_555 1_555
C6 C9 1_555 1_555
C10 C13 1_555 1_555
C16 C26 1_555 1_555
C18 C25 1_555 1_555
C24 C27 1_555 1_555
C28 C29 1_555 1_555
C28 C30 1_555 1_555

#END
