
#######################################################################
#
#                 Cambridge Crystallographic Data Centre
#                                CCDC 
#
#######################################################################
#
# If this CIF has been generated from an entry in the Cambridge 
# Structural Database, then it will include bibliographic, chemical, 
# crystal, experimental, refinement or atomic coordinate data resulting 
# from the CCDC's data processing and validation procedures.
#
#######################################################################

data_LAQXIL
_chemical_formula_moiety         'C18 H12 S2'
_chemical_name_systematic        1,3-bis(2-thienyl)azulene
_symmetry_cell_setting           orthorhombic
_symmetry_space_group_name_H-M   'P b c a'
_symmetry_Int_Tables_number      61
_space_group_name_Hall           '-P 2ac 2ab'
loop_
_symmetry_equiv_pos_site_id
_symmetry_equiv_pos_as_xyz
1 x,y,z
2 1/2-x,-y,1/2+z
3 -x,1/2+y,1/2-z
4 1/2+x,1/2-y,-z
5 -x,-y,-z
6 1/2+x,y,1/2-z
7 x,1/2-y,1/2+z
8 1/2-x,1/2+y,z
_cell_length_a                   17.3267(13)
_cell_length_b                   7.2617(5)
_cell_length_c                   21.9512(16)
_cell_angle_alpha                90
_cell_angle_beta                 90
_cell_angle_gamma                90
_cell_volume                     2761.93
_exptl_crystal_colour            colorless
_exptl_crystal_description       'thin plate'
_cell_formula_units_Z            8
loop_
_atom_site_label
_atom_site_type_symbol
_atom_site_fract_x
_atom_site_fract_y
_atom_site_fract_z
S1 S 0.09775(3) 0.45645(7) 0.38686(2)
S2 S -0.03383(3) 0.05216(7) 0.60805(2)
C1 C 0.15942(9) 0.2774(2) 0.48662(7)
C2 C 0.09030(10) 0.2574(3) 0.51913(8)
H1 H 0.0400(10) 0.269(2) 0.5021(8)
C3 C 0.10515(9) 0.2176(2) 0.58032(8)
C4 C 0.22425(10) 0.1614(3) 0.64104(8)
H2 H 0.1924(10) 0.125(3) 0.6747(9)
C5 C 0.30336(11) 0.1522(3) 0.65194(9)
H3 H 0.3162(11) 0.109(3) 0.6911(9)
C6 C 0.36344(11) 0.1959(3) 0.61341(9)
H4 H 0.4149(12) 0.186(3) 0.6294(9)
C7 C 0.36165(10) 0.2551(3) 0.55371(10)
H5 H 0.4099(11) 0.284(3) 0.5349(8)
C8 C 0.29853(10) 0.2784(3) 0.51565(9)
H6 H 0.3125(11) 0.318(3) 0.4764(9)
C9 C 0.22089(9) 0.2537(2) 0.52792(8)
C10 C 0.18599(9) 0.2106(2) 0.58826(8)
C11 C 0.04634(9) 0.1819(2) 0.62640(8)
C12 C 0.04245(11) 0.2374(3) 0.68629(9)
H7 H 0.0756(10) 0.306(2) 0.7037(8)
C13 C -0.02492(12) 0.1728(3) 0.71579(10)
H8 H -0.0348(11) 0.198(3) 0.7529(10)
C14 C -0.07123(12) 0.0732(3) 0.67953(10)
H9 H -0.1164(12) 0.017(3) 0.6864(9)
C15 C 0.16528(9) 0.3168(2) 0.42175(8)
C16 C 0.21811(11) 0.2555(3) 0.37975(8)
H10 H 0.2530(11) 0.184(2) 0.3886(8)
C17 C 0.20322(13) 0.3219(3) 0.32024(9)
H11 H 0.2323(12) 0.288(3) 0.2869(10)
C18 C 0.14064(13) 0.4303(3) 0.31723(9)
H12 H 0.1236(12) 0.490(3) 0.2835(10)
loop_
_geom_bond_atom_site_label_1
_geom_bond_atom_site_label_2
_geom_bond_site_symmetry_1
_geom_bond_site_symmetry_2
S1 C15 1_555 1_555
S2 C11 1_555 1_555
C1 C2 1_555 1_555
C2 H1 1_555 1_555
C3 C2 1_555 1_555
C4 H2 1_555 1_555
C5 C4 1_555 1_555
H3 C5 1_555 1_555
C6 C5 1_555 1_555
H4 C6 1_555 1_555
C7 C6 1_555 1_555
H5 C7 1_555 1_555
C8 C7 1_555 1_555
H6 C8 1_555 1_555
C9 C1 1_555 1_555
C10 C3 1_555 1_555
C11 C3 1_555 1_555
C12 C11 1_555 1_555
H7 C12 1_555 1_555
C13 C12 1_555 1_555
H8 C13 1_555 1_555
C14 S2 1_555 1_555
H9 C14 1_555 1_555
C15 C1 1_555 1_555
C16 C15 1_555 1_555
H10 C16 1_555 1_555
C17 C16 1_555 1_555
H11 C17 1_555 1_555
C18 S1 1_555 1_555
H12 C18 1_555 1_555
C4 C10 1_555 1_555
C8 C9 1_555 1_555
C9 C10 1_555 1_555
C13 C14 1_555 1_555
C17 C18 1_555 1_555

#END
