
#######################################################################
#
#                 Cambridge Crystallographic Data Centre
#                                CCDC 
#
#######################################################################
#
# If this CIF has been generated from an entry in the Cambridge 
# Structural Database, then it will include bibliographic, chemical, 
# crystal, experimental, refinement or atomic coordinate data resulting 
# from the CCDC's data processing and validation procedures.
#
#######################################################################

data_LARCIN01
_chemical_name_common            (-)-Laurefucin
_chemical_formula_moiety         'C15 H21 Br1 O3'
_chemical_name_systematic        
4-Bromo-3-ethyl-9-(2-penten-4-yn-1-yl)-2,8-dioxabicyclo[5.2.1]decan-6-ol
_chemical_properties_biological  'inhibitory activity for drug metabolism'
_symmetry_cell_setting           orthorhombic
_symmetry_space_group_name_H-M   'P 21 21 21'
_symmetry_Int_Tables_number      19
_space_group_name_Hall           'P 2ac 2ab'
loop_
_symmetry_equiv_pos_site_id
_symmetry_equiv_pos_as_xyz
1 x,y,z
2 1/2+x,1/2-y,-z
3 -x,1/2+y,1/2-z
4 1/2-x,-y,1/2+z
_cell_length_a                   8.3834(9)
_cell_length_b                   13.102(2)
_cell_length_c                   14.396(2)
_cell_angle_alpha                90
_cell_angle_beta                 90
_cell_angle_gamma                90
_cell_volume                     1581.25
_exptl_crystal_colour            colorless
_exptl_crystal_description       block
_chemical_melting_point          '105-106 deg.C'
_cell_formula_units_Z            4
_exptl_crystal_recrystallization_method 'ethyl acetate'
loop_
_atom_site_label
_atom_site_type_symbol
_atom_site_fract_x
_atom_site_fract_y
_atom_site_fract_z
Br1 Br 0.38793(9) 0.26722(9) 0.26470(7)
O1 O -0.2154(5) 0.3774(5) 0.0365(4)
O2 O -0.0379(8) 0.1694(5) 0.0263(4)
O3 O 0.0707(5) 0.4577(4) 0.1352(3)
C1 C 0.2401(7) 0.3186(7) 0.1726(5)
C2 C -0.0923(8) 0.4664(6) 0.1603(5)
C3 C -0.1603(7) 0.3049(6) 0.1041(5)
C4 C 0.1183(7) 0.2379(6) 0.1529(4)
C5 C 0.1757(8) 0.4232(7) 0.2032(5)
C6 C -0.068(2) 0.821(1) 0.027(1)
C7 C -0.115(1) 0.5408(7) -0.0064(6)
C8 C 0.0030(6) 0.2615(6) 0.0754(4)
C9 C -0.1600(7) 0.3666(6) 0.1942(5)
C10 C -0.1847(9) 0.4809(8) 0.0701(6)
C11 C -0.064(2) 0.717(1) 0.005(1)
C12 C -0.054(2) 0.912(2) 0.038(1)
C13 C 0.3145(9) 0.5002(9) 0.2104(8)
C14 C -0.107(3) 0.652(1) 0.018(1)
C15 C 0.247(1) 0.599(1) 0.243(1)
H1 H 0.3942 0.4756 0.2537
H2 H 0.3645 0.5091 0.1502
H3 H 0.2116 0.6383 0.1909
H4 H 0.3278 0.6364 0.2763
H5 H 0.1586 0.5861 0.2839
H6 H 0.0575 0.2259 0.2092
H7 H 0.1737 0.1751 0.1379
H8 H -0.2669 0.3749 0.2188
H9 H -0.0925 0.3356 0.2410
H10 H -0.1783 0.5319 -0.0620
H11 H -0.0078 0.5159 -0.0193
H12 H 0.3007 0.3293 0.1152
H13 H -0.1109 0.5222 0.2044
H14 H -0.2375 0.2490 0.1092
H15 H 0.1208 0.4173 0.2631
H16 H 0.0539 0.3091 0.0319
H17 H -0.2877 0.5118 0.0858
H18 H -0.1752 0.6611 0.0684
H19 H 0.0122 0.7083 -0.0407
H20 H -0.110(6) 0.914(5) 0.055(3)
H21 H 0.028(5) 0.149(4) 0.006(3)
loop_
_geom_bond_atom_site_label_1
_geom_bond_atom_site_label_2
_geom_bond_site_symmetry_1
_geom_bond_site_symmetry_2
Br1 C1 1_555 1_555
O1 C3 1_555 1_555
O2 C8 1_555 1_555
O3 C2 1_555 1_555
C1 C4 1_555 1_555
C2 C9 1_555 1_555
C3 C8 1_555 1_555
C4 C8 1_555 1_555
C5 O3 1_555 1_555
C6 C11 1_555 1_555
C7 C10 1_555 1_555
C8 H16 1_555 1_555
C9 C3 1_555 1_555
C10 O1 1_555 1_555
C11 C14 1_555 1_555
C12 C6 1_555 1_555
C13 C5 1_555 1_555
C14 C7 1_555 1_555
C15 C13 1_555 1_555
H1 C13 1_555 1_555
H2 C13 1_555 1_555
H3 C15 1_555 1_555
H4 C15 1_555 1_555
H5 C15 1_555 1_555
H6 C4 1_555 1_555
H7 C4 1_555 1_555
H8 C9 1_555 1_555
H9 C9 1_555 1_555
H10 C7 1_555 1_555
H11 C7 1_555 1_555
H12 C1 1_555 1_555
H13 C2 1_555 1_555
H14 C3 1_555 1_555
H15 C5 1_555 1_555
H17 C10 1_555 1_555
H18 C14 1_555 1_555
H19 C11 1_555 1_555
H20 C12 1_555 1_555
H21 O2 1_555 1_555
C1 C5 1_555 1_555
C2 C10 1_555 1_555

#END
