
#######################################################################
#
#                 Cambridge Crystallographic Data Centre
#                                CCDC 
#
#######################################################################
#
# If this CIF has been generated from an entry in the Cambridge 
# Structural Database, then it will include bibliographic, chemical, 
# crystal, experimental, refinement or atomic coordinate data resulting 
# from the CCDC's data processing and validation procedures.
#
#######################################################################

data_LARKOG
_chemical_formula_moiety         'C17 H21 N2 O6 P1,C2 H6 O1'
_chemical_name_systematic        
'Diethyl ((2-hydroxyphenyl)((4-nitrophenyl)amino)methyl)phosphonate ethanol solvate'
_symmetry_cell_setting           triclinic
_symmetry_space_group_name_H-M   'P -1'
_symmetry_Int_Tables_number      2
_space_group_name_Hall           '-P 1'
loop_
_symmetry_equiv_pos_site_id
_symmetry_equiv_pos_as_xyz
1 x,y,z
2 -x,-y,-z
_cell_length_a                   9.6267(19)
_cell_length_b                   10.073(2)
_cell_length_c                   12.885(3)
_cell_angle_alpha                99.72(3)
_cell_angle_beta                 111.19(3)
_cell_angle_gamma                98.95(3)
_cell_volume                     1115.9
_exptl_crystal_colour            yellow
_exptl_crystal_description       block
_cell_formula_units_Z            2
loop_
_atom_site_label
_atom_site_type_symbol
_atom_site_fract_x
_atom_site_fract_y
_atom_site_fract_z
P1 P 1.01109(8) 0.17675(7) 0.38995(6)
C1 C 0.9037(3) 0.2613(3) 0.4597(2)
H1 H 0.9487 0.3613 0.4823
N1 N 0.9213(3) 0.2142(2) 0.5630(2)
H2 H 0.9535 0.1400 0.5704
C2 C 0.8888(3) 0.2829(3) 0.6488(2)
O1 O 0.7981(2) 0.4570(2) 0.34288(19)
H3 H 0.7658 0.5000 0.2940
C3 C 0.8319(3) 0.4179(3) 0.8296(2)
C4 C 0.8245(3) 0.4790(3) 0.7399(3)
H4 H 0.8015 0.5654 0.7407
O2 O 0.9826(3) 0.2275(2) 0.27757(19)
O3 O 0.9754(3) 0.0270(2) 0.37203(19)
C5 C 0.8513(3) 0.4117(3) 0.6499(2)
H5 H 0.8444 0.4520 0.5889
C6 C 0.7400(3) 0.2365(3) 0.3769(2)
C7 C 0.8928(3) 0.2221(3) 0.7405(3)
H6 H 0.9151 0.1355 0.7407
O4 O 0.8155(3) 0.4352(3) 1.0047(2)
N2 N 0.8080(3) 0.4908(3) 0.9256(2)
C8 C 0.6922(3) 0.3382(3) 0.3193(2)
O5 O 0.7830(3) 0.6066(3) 0.9272(2)
O6 O 1.1787(3) 0.2563(3) 0.4676(3)
C9 C 0.8638(4) 0.2900(3) 0.8295(3)
H7 H 0.8657 0.2493 0.8895
C10 C 0.5426(4) 0.3143(4) 0.2414(3)
H8 H 0.5104 0.3823 0.2042
C11 C 0.6350(4) 0.1147(3) 0.3535(3)
H9 H 0.6645 0.0469 0.3920
C12 C 0.4846(4) 0.0908(4) 0.2730(4)
H10 H 0.4151 0.0072 0.2568
C13 C 0.4412(4) 0.1909(4) 0.2185(4)
H11 H 0.3411 0.1755 0.1650
C14 C 1.3063(6) 0.2153(7) 0.4624(6)
H12 H 1.2991 0.1212 0.4715
H13 H 1.3048 0.2139 0.3866
C15 C 0.8667(6) 0.1569(5) 0.1691(4)
H14 H 0.8092 0.2211 0.1359
H15 H 0.7964 0.0843 0.1783
C16 C 0.9297(9) 0.0979(6) 0.0940(5)
H16 H 1.0108 0.1668 0.0941
H17 H 0.8513 0.0647 0.0177
H18 H 0.9697 0.0221 0.1192
C17 C 1.4404(7) 0.2938(12) 0.5400(9)
H19 H 1.4386 0.3068 0.6150
H20 H 1.4586 0.3822 0.5225
H21 H 1.5208 0.2489 0.5383
O7 O 0.7132(4) 0.5858(3) 0.1712(2)
H22 H 0.7615 0.5633 0.1329
C18 C 0.7023(8) 0.7274(4) 0.1732(7)
H23 H 0.7866 0.7731 0.1579
H24 H 0.7183 0.7725 0.2507
C19 C 0.5629(9) 0.7534(9) 0.0956(8)
H25 H 0.5811 0.7846 0.0343
H26 H 0.5315 0.8232 0.1366
H27 H 0.4836 0.6694 0.0645
loop_
_geom_bond_atom_site_label_1
_geom_bond_atom_site_label_2
_geom_bond_site_symmetry_1
_geom_bond_site_symmetry_2
P1 C1 1_555 1_555
C1 H1 1_555 1_555
N1 C1 1_555 1_555
H2 N1 1_555 1_555
C2 N1 1_555 1_555
O1 H3 1_555 1_555
C3 C4 1_555 1_555
C4 H4 1_555 1_555
O2 P1 1_555 1_555
O3 P1 1_555 1_555
C5 C2 1_555 1_555
H5 C5 1_555 1_555
C6 C1 1_555 1_555
C7 C2 1_555 1_555
H6 C7 1_555 1_555
O4 N2 1_555 1_555
N2 C3 1_555 1_555
C8 O1 1_555 1_555
O5 N2 1_555 1_555
O6 P1 1_555 1_555
C9 C3 1_555 1_555
H7 C9 1_555 1_555
C10 C8 1_555 1_555
H8 C10 1_555 1_555
C11 C6 1_555 1_555
H9 C11 1_555 1_555
C12 C11 1_555 1_555
H10 C12 1_555 1_555
C13 C10 1_555 1_555
H11 C13 1_555 1_555
C14 O6 1_555 1_555
H12 C14 1_555 1_555
H13 C14 1_555 1_555
C15 O2 1_555 1_555
H14 C15 1_555 1_555
H15 C15 1_555 1_555
C16 C15 1_555 1_555
H16 C16 1_555 1_555
H17 C16 1_555 1_555
H18 C16 1_555 1_555
C17 C14 1_555 1_555
H19 C17 1_555 1_555
H20 C17 1_555 1_555
H21 C17 1_555 1_555
O7 H22 1_555 1_555
C18 O7 1_555 1_555
H23 C18 1_555 1_555
H24 C18 1_555 1_555
C19 C18 1_555 1_555
H25 C19 1_555 1_555
H26 C19 1_555 1_555
H27 C19 1_555 1_555
C4 C5 1_555 1_555
C6 C8 1_555 1_555
C7 C9 1_555 1_555
C12 C13 1_555 1_555

#END
