
#######################################################################
#
#                 Cambridge Crystallographic Data Centre
#                                CCDC 
#
#######################################################################
#
# If this CIF has been generated from an entry in the Cambridge 
# Structural Database, then it will include bibliographic, chemical, 
# crystal, experimental, refinement or atomic coordinate data resulting 
# from the CCDC's data processing and validation procedures.
#
#######################################################################

data_LARMIB
_chemical_formula_moiety         'C16 H8 N4 O1'
_chemical_name_systematic        2,5-bis(4-Cyanophenyl)-1,3,4-oxadiazole
_symmetry_cell_setting           orthorhombic
_symmetry_space_group_name_H-M   'P b c n'
_symmetry_Int_Tables_number      60
_space_group_name_Hall           '-P 2n 2ab'
loop_
_symmetry_equiv_pos_site_id
_symmetry_equiv_pos_as_xyz
1 x,y,z
2 1/2-x,1/2-y,1/2+z
3 -x,y,1/2-z
4 1/2+x,1/2-y,-z
5 -x,-y,-z
6 1/2+x,1/2+y,1/2-z
7 x,-y,1/2+z
8 1/2-x,1/2+y,z
_cell_length_a                   6.563(3)
_cell_length_b                   12.744(5)
_cell_length_c                   15.905(6)
_cell_angle_alpha                90
_cell_angle_beta                 90
_cell_angle_gamma                90
_cell_volume                     1330.28
_exptl_crystal_colour            yellow
_exptl_crystal_description       block
_cell_formula_units_Z            4
loop_
_atom_site_label
_atom_site_type_symbol
_atom_site_fract_x
_atom_site_fract_y
_atom_site_fract_z
C1 C 0.34209(19) 0.40071(9) 0.16280(8)
H1 H 0.2472 0.3546 0.1856
C2 C 0.13750(18) 0.55014(9) 0.21426(7)
C3 C 0.31278(18) 0.50787(9) 0.16991(7)
C4 C 0.5110(2) 0.36232(10) 0.12214(8)
H2 H 0.5300 0.2903 0.1171
C5 C 0.65289(19) 0.43088(10) 0.08862(7)
C6 C 0.4548(2) 0.57648(10) 0.13511(7)
H3 H 0.4345 0.6485 0.1392
N1 N 0.09075(18) 0.64674(8) 0.22679(7)
C7 C 0.6243(2) 0.53860(10) 0.09497(8)
H4 H 0.7193 0.5846 0.0722
C8 C 0.8302(2) 0.38869(11) 0.04701(8)
N2 N 0.9692(2) 0.35334(12) 0.01465(9)
O1 O 0.0000 0.48355(8) 0.2500
C1B C -0.34209(19) 0.40071(9) 0.33720(8)
H1B H -0.2472 0.3546 0.3144
C2B C -0.13750(18) 0.55014(9) 0.28574(7)
C3B C -0.31278(18) 0.50787(9) 0.33009(7)
C4B C -0.5110(2) 0.36232(10) 0.37786(8)
H2B H -0.5300 0.2903 0.3829
C5B C -0.65289(19) 0.43088(10) 0.41138(7)
C6B C -0.4548(2) 0.57648(10) 0.36489(7)
H3B H -0.4345 0.6485 0.3608
N1B N -0.09075(18) 0.64674(8) 0.27321(7)
C7B C -0.6243(2) 0.53860(10) 0.40503(8)
H4B H -0.7193 0.5846 0.4278
C8B C -0.8302(2) 0.38869(11) 0.45299(8)
N2B N -0.9692(2) 0.35334(12) 0.48535(9)
loop_
_geom_bond_atom_site_label_1
_geom_bond_atom_site_label_2
_geom_bond_site_symmetry_1
_geom_bond_site_symmetry_2
C1 H1 1_555 1_555
C2 C3 1_555 1_555
C3 C1 1_555 1_555
C4 C1 1_555 1_555
H2 C4 1_555 1_555
C5 C4 1_555 1_555
C6 C3 1_555 1_555
H3 C6 1_555 1_555
N1 C2 1_555 1_555
C7 C5 1_555 1_555
H4 C7 1_555 1_555
C8 C5 1_555 1_555
N2 C8 1_555 1_555
O1 C2 1_555 1_555
C1B H1B 1_555 1_555
C2B O1 1_555 1_555
C3B C1B 1_555 1_555
C4B C1B 1_555 1_555
H2B C4B 1_555 1_555
C5B C4B 1_555 1_555
C6B C3B 1_555 1_555
H3B C6B 1_555 1_555
N1B N1 1_555 1_555
C7B C5B 1_555 1_555
H4B C7B 1_555 1_555
C8B C5B 1_555 1_555
N2B C8B 1_555 1_555
C6 C7 1_555 1_555
C2B C3B 1_555 1_555
C2B N1B 1_555 1_555
C6B C7B 1_555 1_555

#END
