
#######################################################################
#
#                 Cambridge Crystallographic Data Centre
#                                CCDC 
#
#######################################################################
#
# If this CIF has been generated from an entry in the Cambridge 
# Structural Database, then it will include bibliographic, chemical, 
# crystal, experimental, refinement or atomic coordinate data resulting 
# from the CCDC's data processing and validation procedures.
#
#######################################################################

data_LARQIH
_chemical_formula_moiety         '2(C14 H14 Cl1 N3 O2),C1 H4 O1'
_chemical_name_systematic        
'2-(((3-chloropyridin-2-yl)hydrazono)methyl)-6-ethoxyphenol methanol solvate'
_symmetry_cell_setting           triclinic
_symmetry_space_group_name_H-M   'P -1'
_symmetry_Int_Tables_number      2
_space_group_name_Hall           '-P 1'
loop_
_symmetry_equiv_pos_site_id
_symmetry_equiv_pos_as_xyz
1 x,y,z
2 -x,-y,-z
_cell_length_a                   7.5917(13)
_cell_length_b                   11.0053(18)
_cell_length_c                   17.9790(19)
_cell_angle_alpha                89.886(2)
_cell_angle_beta                 85.690(2)
_cell_angle_gamma                85.801(2)
_cell_volume                     1493.85
_exptl_crystal_colour            yellow
_exptl_crystal_description       block
_cell_formula_units_Z            2
loop_
_atom_site_label
_atom_site_type_symbol
_atom_site_fract_x
_atom_site_fract_y
_atom_site_fract_z
Cl1 Cl 0.17839(7) 0.58289(4) 0.16090(3)
H1 H 0.466(3) 0.6707(15) 0.2004(12)
N1 N 0.62757(19) 0.80300(12) 0.18329(8)
N2 N 0.4852(2) 0.73763(13) 0.17411(9)
N3 N 0.4195(2) 0.86780(13) 0.07580(8)
O1 O 0.81074(16) 0.98393(11) 0.14207(7)
H2 H 0.7325 0.9369 0.1394
O2 O 1.09091(17) 1.10434(12) 0.15442(8)
C1 C 0.8879(2) 0.84295(15) 0.24098(9)
C2 C 0.9203(2) 0.94408(15) 0.19486(9)
C3 C 1.0723(2) 1.00822(15) 0.20254(10)
C4 C 1.1900(3) 0.97152(18) 0.25494(10)
H3 H 1.2903 1.0137 0.2598
C5 C 1.1583(3) 0.87114(19) 0.30056(11)
H4 H 1.2379 0.8466 0.3355
C6 C 1.0101(3) 0.80872(17) 0.29397(10)
H5 H 0.9898 0.7427 0.3250
C7 C 1.2543(3) 1.16331(19) 0.15267(12)
H6 H 1.3546 1.1035 0.1461
H7 H 1.2622 1.2069 0.1990
C8 C 1.2545(3) 1.2509(2) 0.08794(15)
H8 H 1.2548 1.2062 0.0421
H9 H 1.3582 1.2960 0.0871
H10 H 1.1506 1.3063 0.0935
C9 C 0.7363(2) 0.77139(15) 0.23261(10)
H11 H 0.7184 0.7037 0.2626
C10 C 0.3768(2) 0.77246(14) 0.11848(9)
C11 C 0.2258(2) 0.70993(15) 0.10688(10)
C12 C 0.1161(3) 0.74996(17) 0.05317(11)
H12 H 0.0139 0.7110 0.0463
C13 C 0.1591(3) 0.84923(18) 0.00912(11)
H13 H 0.0877 0.8778 -0.0279
C14 C 0.3115(3) 0.90350(17) 0.02253(11)
H14 H 0.3419 0.9692 -0.0072
Cl2 Cl 0.04826(7) 0.52398(5) 0.66413(3)
H15 H 0.223(3) 0.4535(17) 0.5452(11)
N4 N 0.32284(19) 0.49203(13) 0.44328(8)
N5 N 0.2356(2) 0.51388(14) 0.51258(8)
N6 N 0.2105(2) 0.72383(15) 0.49023(9)
O3 O 0.46037(19) 0.54139(11) 0.30380(7)
H16 H 0.4099 0.5586 0.3448
O4 O 0.63092(19) 0.46028(12) 0.18069(7)
C15 C 0.4544(2) 0.33809(15) 0.35680(9)
C16 C 0.5010(2) 0.41877(15) 0.29935(10)
C17 C 0.5954(2) 0.37370(16) 0.23369(10)
C18 C 0.6461(3) 0.25022(17) 0.22663(11)
H17 H 0.7119 0.2209 0.1839
C19 C 0.5987(3) 0.17050(17) 0.28344(12)
H18 H 0.6317 0.0877 0.2782
C20 C 0.5037(3) 0.21291(16) 0.34706(11)
H19 H 0.4713 0.1584 0.3843
C21 C 0.3603(2) 0.37903(16) 0.42684(10)
H20 H 0.3256 0.3207 0.4613
C22 C 0.1774(2) 0.62972(16) 0.53568(10)
C23 C 0.0840(2) 0.64770(17) 0.60612(10)
C24 C 0.0239(3) 0.7627(2) 0.62895(12)
H21 H -0.0365 0.7758 0.6755
C25 C 0.0546(3) 0.8599(2) 0.58131(14)
H22 H 0.0131 0.9390 0.5947
C26 C 0.1476(3) 0.8359(2) 0.51415(13)
H23 H 0.1689 0.9014 0.4828
C27 C 0.7240(3) 0.4215(2) 0.11204(12)
H24 H 0.6661 0.3555 0.0906
H25 H 0.8444 0.3922 0.1206
C28 C 0.7253(4) 0.5268(2) 0.06022(13)
H26 H 0.6063 0.5506 0.0486
H27 H 0.7959 0.5040 0.0152
H28 H 0.7744 0.5938 0.0834
O5 O 0.5716(3) 0.74064(16) 0.41365(10)
H29 H 0.4741 0.7269 0.4333
C29 C 0.5960(4) 0.8648(2) 0.41957(16)
H30 H 0.5281 0.8979 0.4631
H31 H 0.5573 0.9063 0.3760
H32 H 0.7192 0.8756 0.4237
loop_
_geom_bond_atom_site_label_1
_geom_bond_atom_site_label_2
_geom_bond_site_symmetry_1
_geom_bond_site_symmetry_2
Cl1 C11 1_555 1_555
H1 N2 1_555 1_555
N1 N2 1_555 1_555
N2 C10 1_555 1_555
N3 C10 1_555 1_555
O1 H2 1_555 1_555
O2 C3 1_555 1_555
C1 C2 1_555 1_555
C2 O1 1_555 1_555
C3 C2 1_555 1_555
C4 C3 1_555 1_555
H3 C4 1_555 1_555
C5 C4 1_555 1_555
H4 C5 1_555 1_555
C6 C1 1_555 1_555
H5 C6 1_555 1_555
C7 O2 1_555 1_555
H6 C7 1_555 1_555
H7 C7 1_555 1_555
C8 C7 1_555 1_555
H8 C8 1_555 1_555
H9 C8 1_555 1_555
H10 C8 1_555 1_555
C9 N1 1_555 1_555
H11 C9 1_555 1_555
C10 C11 1_555 1_555
C11 C12 1_555 1_555
C12 H12 1_555 1_555
C13 C12 1_555 1_555
H13 C13 1_555 1_555
C14 N3 1_555 1_555
H14 C14 1_555 1_555
Cl2 C23 1_555 1_555
H15 N5 1_555 1_555
N4 N5 1_555 1_555
N5 C22 1_555 1_555
N6 C22 1_555 1_555
O3 H16 1_555 1_555
O4 C17 1_555 1_555
C15 C16 1_555 1_555
C16 O3 1_555 1_555
C17 C16 1_555 1_555
C18 C17 1_555 1_555
H17 C18 1_555 1_555
C19 C18 1_555 1_555
H18 C19 1_555 1_555
C20 C15 1_555 1_555
H19 C20 1_555 1_555
C21 N4 1_555 1_555
H20 C21 1_555 1_555
C22 C23 1_555 1_555
C23 C24 1_555 1_555
C24 H21 1_555 1_555
C25 C24 1_555 1_555
H22 C25 1_555 1_555
C26 N6 1_555 1_555
H23 C26 1_555 1_555
C27 O4 1_555 1_555
H24 C27 1_555 1_555
H25 C27 1_555 1_555
C28 C27 1_555 1_555
H26 C28 1_555 1_555
H27 C28 1_555 1_555
H28 C28 1_555 1_555
O5 H29 1_555 1_555
C29 O5 1_555 1_555
H30 C29 1_555 1_555
H31 C29 1_555 1_555
H32 C29 1_555 1_555
C1 C9 1_555 1_555
C5 C6 1_555 1_555
C13 C14 1_555 1_555
C15 C21 1_555 1_555
C19 C20 1_555 1_555
C25 C26 1_555 1_555

#END
