
#######################################################################
#
#                 Cambridge Crystallographic Data Centre
#                                CCDC 
#
#######################################################################
#
# If this CIF has been generated from an entry in the Cambridge 
# Structural Database, then it will include bibliographic, chemical, 
# crystal, experimental, refinement or atomic coordinate data resulting 
# from the CCDC's data processing and validation procedures.
#
#######################################################################

data_LARVUY01
_chemical_formula_moiety         'C12 H24 O6,2(C5 H2 N4)'
_chemical_name_systematic        
'bis(1H-imidazole-4,5-dicarbonitrile) 18-crown-6'
_symmetry_cell_setting           triclinic
_symmetry_space_group_name_H-M   'P -1'
_symmetry_Int_Tables_number      2
_space_group_name_Hall           '-P 1'
loop_
_symmetry_equiv_pos_site_id
_symmetry_equiv_pos_as_xyz
1 x,y,z
2 -x,-y,-z
_cell_length_a                   10.369(2)
_cell_length_b                   10.520(2)
_cell_length_c                   13.502(3)
_cell_angle_alpha                78.09(3)
_cell_angle_beta                 83.03(3)
_cell_angle_gamma                65.89(3)
_cell_volume                     1314.27
_cell_formula_units_Z            2
_exptl_crystal_preparation       'Crystallised in 0.5 T magnetic field'
loop_
_atom_site_label
_atom_site_type_symbol
_atom_site_fract_x
_atom_site_fract_y
_atom_site_fract_z
N1 N 0.7942(4) 0.2310(4) 0.4908(3)
H1 H 0.8720 0.2262 0.5107
C1 C 0.7488(6) 0.1271(5) 0.5042(4)
H2 H 0.7998 0.0361 0.5375
N2 N 0.6257(5) 0.1647(4) 0.4661(3)
C2 C 0.5903(5) 0.3042(5) 0.4248(3)
C3 C 0.6936(5) 0.3456(5) 0.4396(3)
N3 N 0.7114(6) 0.5846(5) 0.3787(4)
C4 C 0.7052(5) 0.4776(6) 0.4076(4)
N4 N 0.3551(5) 0.4645(5) 0.3406(4)
C5 C 0.4581(6) 0.3910(5) 0.3773(4)
O1 O 0.9789(4) -0.2649(4) 0.4530(3)
O2 O 1.0202(3) -0.0469(4) 0.3065(2)
O3 O 1.0693(4) 0.1777(3) 0.3648(3)
C6 C 0.8671(7) -0.2731(7) 0.5159(5)
H3 H 0.8539 -0.3571 0.5093
H4 H 0.7821 -0.1918 0.4938
C7 C 0.9750(7) -0.2541(7) 0.3475(4)
H5 H 0.9110 -0.2945 0.3347
H6 H 1.0685 -0.3101 0.3221
C8 C 0.9315(6) -0.1131(6) 0.2921(4)
H7 H 0.9322 -0.1153 0.2205
H8 H 0.8353 -0.0581 0.3135
C9 C 0.9727(5) 0.0929(5) 0.2528(4)
H9 H 0.8780 0.1469 0.2775
H10 H 0.9685 0.0922 0.1815
C10 C 1.0676(5) 0.1607(5) 0.2646(4)
H11 H 1.1627 0.1040 0.2424
H12 H 1.0379 0.2527 0.2212
C11 C 1.1161(6) 0.2781(6) 0.3783(4)
H13 H 1.0490 0.3713 0.3504
H14 H 1.2061 0.2628 0.3415
O1A O 1.0211(4) 0.2649(4) 0.5470(3)
O2A O 0.9798(3) 0.0469(4) 0.6935(2)
O3A O 0.9307(4) -0.1777(3) 0.6352(3)
C6A C 1.1329(7) 0.2731(7) 0.4841(5)
H3A H 1.1461 0.3571 0.4907
H4A H 1.2179 0.1918 0.5062
C7A C 1.0250(7) 0.2541(7) 0.6525(4)
H5A H 1.0890 0.2945 0.6653
H6A H 0.9315 0.3101 0.6779
C8A C 1.0685(6) 0.1131(6) 0.7079(4)
H7A H 1.0678 0.1153 0.7795
H8A H 1.1647 0.0581 0.6865
C9A C 1.0273(5) -0.0929(5) 0.7472(4)
H9A H 1.1220 -0.1469 0.7225
H10A H 1.0315 -0.0922 0.8185
C10A C 0.9324(5) -0.1607(5) 0.7354(4)
H11A H 0.8373 -0.1040 0.7576
H12A H 0.9621 -0.2527 0.7788
C11A C 0.8839(6) -0.2781(6) 0.6217(4)
H13A H 0.9510 -0.3713 0.6496
H14A H 0.7939 -0.2628 0.6585
O4 O 0.5669(3) 1.1031(3) 0.1428(2)
O5 O 0.4195(3) 0.9160(3) 0.1980(2)
O6 O 0.4080(3) 0.7646(3) 0.0568(2)
C12 C 0.5687(6) 1.2403(6) 0.1191(4)
H15 H 0.6073 1.2582 0.1742
H16 H 0.4734 1.3113 0.1089
C13 C 0.4951(5) 1.0845(5) 0.2372(4)
H17 H 0.3967 1.1497 0.2335
H18 H 0.5372 1.1043 0.2894
C14 C 0.5046(5) 0.9360(5) 0.2632(3)
H19 H 0.6021 0.8706 0.2558
H20 H 0.4724 0.9173 0.3331
C15 C 0.4066(5) 0.7844(5) 0.2276(4)
H21 H 0.3567 0.7813 0.2930
H22 H 0.4997 0.7082 0.2334
C16 C 0.3269(5) 0.7669(5) 0.1497(4)
H23 H 0.3128 0.6794 0.1702
H24 H 0.2350 0.8448 0.1419
C17 C 0.3415(6) 0.7531(6) -0.0246(4)
H25 H 0.2488 0.8296 -0.0329
H26 H 0.3295 0.6642 -0.0105
O4A O 0.4331(3) 0.8969(3) -0.1428(2)
O5A O 0.5805(3) 1.0840(3) -0.1980(2)
O6A O 0.5920(3) 1.2354(3) -0.0568(2)
C12A C 0.4313(6) 0.7597(6) -0.1191(4)
H15A H 0.3927 0.7418 -0.1742
H16A H 0.5266 0.6887 -0.1089
C13A C 0.5049(5) 0.9155(5) -0.2372(4)
H17A H 0.6033 0.8503 -0.2335
H18A H 0.4628 0.8957 -0.2894
C14A C 0.4954(5) 1.0640(5) -0.2632(3)
H19A H 0.3979 1.1294 -0.2558
H20A H 0.5276 1.0827 -0.3331
C15A C 0.5934(5) 1.2156(5) -0.2276(4)
H21A H 0.6433 1.2187 -0.2930
H22A H 0.5003 1.2918 -0.2334
C16A C 0.6731(5) 1.2331(5) -0.1497(4)
H23A H 0.6872 1.3206 -0.1702
H24A H 0.7650 1.1552 -0.1419
C17A C 0.6585(6) 1.2469(6) 0.0246(4)
H25A H 0.7512 1.1704 0.0329
H26A H 0.6705 1.3358 0.0105
N5 N 0.8704(5) 0.8186(4) 0.0176(3)
N6 N 0.6776(4) 0.7752(4) 0.0385(3)
H27 H 0.5906 0.7885 0.0352
C18 C 0.7369(6) 0.8689(6) 0.0018(4)
H28 H 0.6869 0.9602 -0.0316
C19 C 0.7823(5) 0.6561(5) 0.0817(3)
N7 N 0.7466(5) 0.4319(5) 0.1674(4)
C20 C 0.9002(5) 0.6833(5) 0.0685(3)
N8 N 1.1477(5) 0.5091(6) 0.1234(4)
C21 C 0.7585(5) 0.5333(5) 0.1289(4)
C22 C 1.0374(6) 0.5881(6) 0.0989(4)
loop_
_geom_bond_atom_site_label_1
_geom_bond_atom_site_label_2
_geom_bond_site_symmetry_1
_geom_bond_site_symmetry_2
N1 H1 1_555 1_555
C1 N1 1_555 1_555
H2 C1 1_555 1_555
N2 C1 1_555 1_555
C2 N2 1_555 1_555
C3 N1 1_555 1_555
N3 C4 1_555 1_555
C4 C3 1_555 1_555
N4 C5 1_555 1_555
C5 C2 1_555 1_555
O1 C6 1_555 1_555
O2 C8 1_555 1_555
O3 C10 1_555 1_555
C6 H3 1_555 1_555
H4 C6 1_555 1_555
C7 O1 1_555 1_555
H5 C7 1_555 1_555
H6 C7 1_555 1_555
C8 C7 1_555 1_555
H7 C8 1_555 1_555
H8 C8 1_555 1_555
C9 O2 1_555 1_555
H9 C9 1_555 1_555
H10 C9 1_555 1_555
C10 C9 1_555 1_555
H11 C10 1_555 1_555
H12 C10 1_555 1_555
C11 O3 1_555 1_555
H13 C11 1_555 1_555
H14 C11 1_555 1_555
O4 C12 1_555 1_555
O5 C14 1_555 1_555
O6 C16 1_555 1_555
C12 H15 1_555 1_555
H16 C12 1_555 1_555
C13 O4 1_555 1_555
H17 C13 1_555 1_555
H18 C13 1_555 1_555
C14 C13 1_555 1_555
H19 C14 1_555 1_555
H20 C14 1_555 1_555
C15 O5 1_555 1_555
H21 C15 1_555 1_555
H22 C15 1_555 1_555
C16 C15 1_555 1_555
H23 C16 1_555 1_555
H24 C16 1_555 1_555
C17 O6 1_555 1_555
H25 C17 1_555 1_555
H26 C17 1_555 1_555
N5 C18 1_555 1_555
N6 H27 1_555 1_555
C18 N6 1_555 1_555
H28 C18 1_555 1_555
C19 N6 1_555 1_555
N7 C21 1_555 1_555
C20 N5 1_555 1_555
N8 C22 1_555 1_555
C21 C19 1_555 1_555
C22 C20 1_555 1_555
O1A C6A 1_555 1_555
O2A C8A 1_555 1_555
O3A C10A 1_555 1_555
C6A C11 1_555 1_555
H3A C6A 1_555 1_555
H4A C6A 1_555 1_555
C7A O1A 1_555 1_555
H5A C7A 1_555 1_555
H6A C7A 1_555 1_555
C8A C7A 1_555 1_555
H7A C8A 1_555 1_555
H8A C8A 1_555 1_555
C9A O2A 1_555 1_555
H9A C9A 1_555 1_555
H10A C9A 1_555 1_555
C10A C9A 1_555 1_555
H11A C10A 1_555 1_555
H12A C10A 1_555 1_555
C11A C6 1_555 1_555
H13A C11A 1_555 1_555
H14A C11A 1_555 1_555
O4A C12A 1_555 1_555
O5A C14A 1_555 1_555
O6A C16A 1_555 1_555
C12A C17 1_555 1_555
H15A C12A 1_555 1_555
H16A C12A 1_555 1_555
C13A O4A 1_555 1_555
H17A C13A 1_555 1_555
H18A C13A 1_555 1_555
C14A C13A 1_555 1_555
H19A C14A 1_555 1_555
H20A C14A 1_555 1_555
C15A O5A 1_555 1_555
H21A C15A 1_555 1_555
H22A C15A 1_555 1_555
C16A C15A 1_555 1_555
H23A C16A 1_555 1_555
H24A C16A 1_555 1_555
C17A C12 1_555 1_555
H25A C17A 1_555 1_555
H26A C17A 1_555 1_555
C2 C3 1_555 1_555
C19 C20 1_555 1_555
O3A C11A 1_555 1_555
O6A C17A 1_555 1_555

#END
