
#######################################################################
#
#                 Cambridge Crystallographic Data Centre
#                                CCDC 
#
#######################################################################
#
# If this CIF has been generated from an entry in the Cambridge 
# Structural Database, then it will include bibliographic, chemical, 
# crystal, experimental, refinement or atomic coordinate data resulting 
# from the CCDC's data processing and validation procedures.
#
#######################################################################

data_LASBOW
_chemical_formula_moiety         'C24 H18 N2 O1,C3 H6 O1'
_chemical_name_systematic        
'bis(3-Indolyl)-(4-formylphenyl)methane acetone clathrate'
_symmetry_cell_setting           triclinic
_symmetry_space_group_name_H-M   'P -1'
_symmetry_Int_Tables_number      2
_space_group_name_Hall           '-P 1'
loop_
_symmetry_equiv_pos_site_id
_symmetry_equiv_pos_as_xyz
1 x,y,z
2 -x,-y,-z
_cell_length_a                   7.637(1)
_cell_length_b                   12.204(2)
_cell_length_c                   12.394(4)
_cell_angle_alpha                84.25(2)
_cell_angle_beta                 80.17(2)
_cell_angle_gamma                86.26(2)
_cell_volume                     1131.09
_exptl_crystal_colour            'pale red'
_chemical_melting_point          106-108deg.C
_cell_formula_units_Z            2
loop_
_atom_site_label
_atom_site_type_symbol
_atom_site_fract_x
_atom_site_fract_y
_atom_site_fract_z
O1 O 0.358(1) 0.5649(7) 0.2947(8)
N1 N 1.198(1) 0.0679(7) 0.1776(7)
N2 N 0.978(1) 0.1870(7) 0.6502(7)
C1 C 1.119(1) 0.3019(8) 0.3564(8)
C2 C 0.949(1) 0.3743(8) 0.3425(8)
C3 C 0.950(1) 0.4833(8) 0.366(1)
C4 C 0.795(1) 0.5524(9) 0.359(1)
C5 C 0.647(1) 0.5098(8) 0.3306(8)
C6 C 0.648(1) 0.4000(8) 0.307(1)
C7 C 0.801(1) 0.3327(8) 0.3148(9)
C8 C 0.493(1) 0.5893(9) 0.327(1)
C9 C 1.262(1) 0.1551(8) 0.1034(8)
C10 C 1.335(1) 0.154(1) -0.0082(9)
C11 C 1.390(2) 0.256(1) -0.065(1)
C12 C 1.369(2) 0.353(1) -0.0104(9)
C13 C 1.292(1) 0.3548(9) 0.1003(9)
C14 C 1.240(1) 0.2515(8) 0.1565(8)
C15 C 1.162(1) 0.2204(8) 0.2718(8)
C16 C 1.136(1) 0.1069(8) 0.2811(9)
C17 C 1.157(1) 0.1530(8) 0.6337(8)
C18 C 1.257(2) 0.0973(9) 0.7111(9)
C19 C 1.440(2) 0.0773(9) 0.671(1)
C20 C 1.522(1) 0.1114(9) 0.5616(9)
C21 C 1.419(1) 0.1655(8) 0.487(1)
C22 C 1.236(1) 0.1865(7) 0.5246(8)
C23 C 1.093(1) 0.2426(7) 0.4723(8)
C24 C 0.940(1) 0.2450(8) 0.5518(9)
O2 O 0.164(1) 0.8445(6) 0.1167(7)
C25 C 0.162(1) 0.7830(9) 0.043(1)
C26 C 0.115(2) 0.666(1) 0.075(1)
C27 C 0.221(2) 0.830(1) -0.075(1)
loop_
_geom_bond_atom_site_label_1
_geom_bond_atom_site_label_2
_geom_bond_site_symmetry_1
_geom_bond_site_symmetry_2
O1 C8 1_555 1_555
N1 C9 1_555 1_555
N2 C17 1_555 1_555
C1 C2 1_555 1_555
C2 C3 1_555 1_555
C3 C4 1_555 1_555
C4 C5 1_555 1_555
C5 C6 1_555 1_555
C6 C7 1_555 1_555
C7 C2 1_555 1_555
C8 C5 1_555 1_555
C9 C10 1_555 1_555
C10 C11 1_555 1_555
C11 C12 1_555 1_555
C12 C13 1_555 1_555
C13 C14 1_555 1_555
C14 C9 1_555 1_555
C15 C1 1_555 1_555
C16 N1 1_555 1_555
C17 C18 1_555 1_555
C18 C19 1_555 1_555
C19 C20 1_555 1_555
C20 C21 1_555 1_555
C21 C22 1_555 1_555
C22 C17 1_555 1_555
C23 C1 1_555 1_555
C24 N2 1_555 1_555
O2 C25 1_555 1_555
C25 C26 1_555 1_555
C27 C25 1_555 1_555
C14 C15 1_555 1_555
C15 C16 1_555 1_555
C22 C23 1_555 1_555
C23 C24 1_555 1_555

#END
