
#######################################################################
#
#                 Cambridge Crystallographic Data Centre
#                                CCDC 
#
#######################################################################
#
# If this CIF has been generated from an entry in the Cambridge 
# Structural Database, then it will include bibliographic, chemical, 
# crystal, experimental, refinement or atomic coordinate data resulting 
# from the CCDC's data processing and validation procedures.
#
#######################################################################

data_LASFIX
_chemical_formula_moiety         'C52 H32 N4,2(C1 H1 Cl3)'
_chemical_name_systematic        
'4-(2,2-bis(4-(9H-carbazol-9-yl)phenyl)-1-(4-cyanophenyl)vinyl)benzonitrile chloroform solvate'
_symmetry_cell_setting           monoclinic
_symmetry_space_group_name_H-M   'P 21/n'
_symmetry_Int_Tables_number      14
_space_group_name_Hall           '-P 2yn'
loop_
_symmetry_equiv_pos_site_id
_symmetry_equiv_pos_as_xyz
1 x,y,z
2 1/2-x,1/2+y,1/2-z
3 -x,-y,-z
4 1/2+x,1/2-y,1/2+z
_cell_length_a                   9.0448(15)
_cell_length_b                   26.687(4)
_cell_length_c                   19.802(3)
_cell_angle_alpha                90
_cell_angle_beta                 102.807(2)
_cell_angle_gamma                90
_cell_volume                     4660.87
_exptl_crystal_colour            colorless
_exptl_crystal_description       block
_cell_formula_units_Z            4
loop_
_atom_site_label
_atom_site_type_symbol
_atom_site_fract_x
_atom_site_fract_y
_atom_site_fract_z
N1 N 0.7572(2) 0.75702(7) 0.25407(10)
N2 N 0.7017(2) 0.96361(8) 0.65670(11)
N3 N 0.7077(4) 0.48118(10) 0.49913(15)
N4 N 0.7828(3) 0.75942(12) 0.93120(13)
C1 C 0.7530(3) 0.79752(9) 0.20890(12)
C2 C 0.7644(3) 0.84829(10) 0.22316(13)
H1 H 0.7718 0.8603 0.2679
C3 C 0.7644(3) 0.88077(10) 0.16829(14)
H2 H 0.7716 0.9151 0.1766
C4 C 0.7538(3) 0.86313(11) 0.10126(14)
H3 H 0.7545 0.8857 0.0656
C5 C 0.7424(3) 0.81277(11) 0.08724(13)
H4 H 0.7353 0.8012 0.0423
C6 C 0.7415(3) 0.77914(10) 0.14104(12)
C7 C 0.7347(3) 0.72499(10) 0.14508(12)
C8 C 0.7187(3) 0.68678(11) 0.09610(13)
H5 H 0.7122 0.6942 0.0496
C9 C 0.7126(3) 0.63804(11) 0.11739(14)
H6 H 0.7017 0.6124 0.0849
C10 C 0.7224(3) 0.62617(10) 0.18698(14)
H7 H 0.7177 0.5928 0.1999
C11 C 0.7391(3) 0.66332(10) 0.23727(13)
H8 H 0.7454 0.6555 0.2836
C12 C 0.7458(3) 0.71268(9) 0.21555(12)
C13 C 0.7555(3) 0.76052(9) 0.32558(11)
C14 C 0.8581(3) 0.73312(9) 0.37480(12)
H9 H 0.9307 0.7132 0.3612
C15 C 0.8517(3) 0.73564(9) 0.44401(12)
H10 H 0.9197 0.7169 0.4765
C16 C 0.7452(2) 0.76573(8) 0.46581(11)
C17 C 0.6463(3) 0.79414(9) 0.41591(12)
H11 H 0.5771 0.8155 0.4296
C18 C 0.6500(3) 0.79094(9) 0.34658(12)
H12 H 0.5814 0.8093 0.3139
C19 C 0.7365(2) 0.77030(8) 0.53961(11)
C20 C 0.7199(3) 0.82221(8) 0.56466(11)
C21 C 0.8262(3) 0.85880(9) 0.55981(12)
H13 H 0.9019 0.8519 0.5361
C22 C 0.8209(3) 0.90548(9) 0.58975(13)
H14 H 0.8944 0.9294 0.5873
C23 C 0.7055(3) 0.91640(9) 0.62343(12)
C24 C 0.5942(3) 0.88119(9) 0.62552(12)
H15 H 0.5147 0.8890 0.6465
C25 C 0.6014(3) 0.83434(9) 0.59623(12)
H16 H 0.5264 0.8108 0.5976
C26 C 0.5824(3) 0.99766(9) 0.64258(12)
C27 C 0.4533(3) 0.99679(10) 0.58938(13)
H17 H 0.4366 0.9712 0.5567
C28 C 0.3511(3) 1.03536(11) 0.58705(15)
H18 H 0.2640 1.0359 0.5518
C29 C 0.3748(3) 1.07361(11) 0.63624(16)
H19 H 0.3030 1.0989 0.6336
C30 C 0.5032(3) 1.07437(10) 0.68866(14)
H20 H 0.5185 1.0999 0.7214
C31 C 0.6104(3) 1.03624(9) 0.69213(13)
C32 C 0.7527(3) 1.02487(9) 0.73885(13)
C33 C 0.8374(3) 1.04716(11) 0.79920(13)
H21 H 0.8066 1.0775 0.8147
C34 C 0.9661(3) 1.02385(12) 0.83539(15)
H22 H 1.0216 1.0384 0.8758
C35 C 1.0148(3) 0.97873(12) 0.81233(15)
H23 H 1.1023 0.9636 0.8377
C36 C 0.9354(3) 0.95582(11) 0.75218(14)
H24 H 0.9683 0.9258 0.7367
C37 C 0.8053(3) 0.97942(9) 0.71615(12)
C38 C 0.7428(2) 0.73061(8) 0.58307(11)
C39 C 0.7376(3) 0.67719(9) 0.55981(11)
C40 C 0.6134(3) 0.65844(9) 0.51203(13)
H25 H 0.5357 0.6800 0.4913
C41 C 0.6046(3) 0.60816(10) 0.49506(14)
H26 H 0.5206 0.5958 0.4635
C42 C 0.7217(3) 0.57616(9) 0.52529(13)
C43 C 0.8483(3) 0.59464(10) 0.57207(13)
H27 H 0.9279 0.5734 0.5913
C44 C 0.8546(3) 0.64473(9) 0.58962(12)
H28 H 0.9378 0.6570 0.6217
C45 C 0.7131(3) 0.52335(10) 0.50970(15)
C46 C 0.7516(3) 0.73704(9) 0.65888(11)
C47 C 0.8564(3) 0.77000(9) 0.69863(12)
H29 H 0.9222 0.7880 0.6777
C48 C 0.8631(3) 0.77614(10) 0.76840(12)
H30 H 0.9331 0.7981 0.7943
C49 C 0.7649(3) 0.74930(10) 0.79994(12)
C50 C 0.6610(3) 0.71599(10) 0.76133(13)
H31 H 0.5954 0.6980 0.7824
C51 C 0.6559(3) 0.70972(10) 0.69130(12)
H32 H 0.5878 0.6870 0.6657
C52 C 0.7737(3) 0.75505(11) 0.87300(14)
Cl1 Cl -0.03044(13) 0.53100(4) 0.31426(6)
Cl2 Cl -0.01960(16) 0.60394(4) 0.42127(5)
Cl3 Cl 0.14089(13) 0.62108(4) 0.31364(6)
C53 C 0.0812(4) 0.57570(12) 0.36584(16)
H33 H 0.1708 0.5591 0.3938
Cl4 Cl 0.58929(11) 0.54244(3) 0.94568(6)
Cl5 Cl 0.83186(8) 0.61318(3) 0.95307(4)
Cl6 Cl 0.52233(8) 0.64500(3) 0.90335(4)
C54 C 0.6514(3) 0.59538(11) 0.90663(15)
H34 H 0.6576 0.5867 0.8593
loop_
_geom_bond_atom_site_label_1
_geom_bond_atom_site_label_2
_geom_bond_site_symmetry_1
_geom_bond_site_symmetry_2
N1 C1 1_555 1_555
N2 C23 1_555 1_555
N3 C45 1_555 1_555
N4 C52 1_555 1_555
C1 C2 1_555 1_555
C2 H1 1_555 1_555
C3 C2 1_555 1_555
H2 C3 1_555 1_555
C4 C3 1_555 1_555
H3 C4 1_555 1_555
C5 C4 1_555 1_555
H4 C5 1_555 1_555
C6 C1 1_555 1_555
C7 C6 1_555 1_555
C8 C7 1_555 1_555
H5 C8 1_555 1_555
C9 C8 1_555 1_555
H6 C9 1_555 1_555
C10 C9 1_555 1_555
H7 C10 1_555 1_555
C11 C10 1_555 1_555
H8 C11 1_555 1_555
C12 N1 1_555 1_555
C13 N1 1_555 1_555
C14 C13 1_555 1_555
H9 C14 1_555 1_555
C15 C14 1_555 1_555
H10 C15 1_555 1_555
C16 C15 1_555 1_555
C17 C16 1_555 1_555
H11 C17 1_555 1_555
C18 C13 1_555 1_555
H12 C18 1_555 1_555
C19 C16 1_555 1_555
C20 C19 1_555 1_555
C21 C20 1_555 1_555
H13 C21 1_555 1_555
C22 C21 1_555 1_555
H14 C22 1_555 1_555
C23 C22 1_555 1_555
C24 C23 1_555 1_555
H15 C24 1_555 1_555
C25 C20 1_555 1_555
H16 C25 1_555 1_555
C26 N2 1_555 1_555
C27 C26 1_555 1_555
H17 C27 1_555 1_555
C28 C27 1_555 1_555
H18 C28 1_555 1_555
C29 C28 1_555 1_555
H19 C29 1_555 1_555
C30 C29 1_555 1_555
H20 C30 1_555 1_555
C31 C26 1_555 1_555
C32 C31 1_555 1_555
C33 C32 1_555 1_555
H21 C33 1_555 1_555
C34 C33 1_555 1_555
H22 C34 1_555 1_555
C35 C34 1_555 1_555
H23 C35 1_555 1_555
C36 C35 1_555 1_555
H24 C36 1_555 1_555
C37 N2 1_555 1_555
C38 C19 1_555 1_555
C39 C38 1_555 1_555
C40 C39 1_555 1_555
H25 C40 1_555 1_555
C41 C40 1_555 1_555
H26 C41 1_555 1_555
C42 C41 1_555 1_555
C43 C42 1_555 1_555
H27 C43 1_555 1_555
C44 C39 1_555 1_555
H28 C44 1_555 1_555
C45 C42 1_555 1_555
C46 C38 1_555 1_555
C47 C46 1_555 1_555
H29 C47 1_555 1_555
C48 C47 1_555 1_555
H30 C48 1_555 1_555
C49 C48 1_555 1_555
C50 C49 1_555 1_555
H31 C50 1_555 1_555
C51 C46 1_555 1_555
H32 C51 1_555 1_555
C52 C49 1_555 1_555
Cl1 C53 1_555 1_555
Cl2 C53 1_555 1_555
Cl3 C53 1_555 1_555
C53 H33 1_555 1_555
Cl4 C54 1_555 1_555
Cl5 C54 1_555 1_555
Cl6 C54 1_555 1_555
C54 H34 1_555 1_555
C5 C6 1_555 1_555
C7 C12 1_555 1_555
C11 C12 1_555 1_555
C17 C18 1_555 1_555
C24 C25 1_555 1_555
C30 C31 1_555 1_555
C32 C37 1_555 1_555
C36 C37 1_555 1_555
C43 C44 1_555 1_555
C50 C51 1_555 1_555

#END
