
#######################################################################
#
#                 Cambridge Crystallographic Data Centre
#                                CCDC 
#
#######################################################################
#
# If this CIF has been generated from an entry in the Cambridge 
# Structural Database, then it will include bibliographic, chemical, 
# crystal, experimental, refinement or atomic coordinate data resulting 
# from the CCDC's data processing and validation procedures.
#
#######################################################################

data_LASFUJ
_chemical_formula_moiety         'C52 H32 N4,2(C1 H2 Cl2)'
_chemical_name_systematic        
'4-(2,2-bis(4-(9H-carbazol-9-yl)phenyl)-1-(4-cyanophenyl)vinyl)benzonitrile dichloromethane solvate'
_symmetry_cell_setting           monoclinic
_symmetry_space_group_name_H-M   'P 21/n'
_symmetry_Int_Tables_number      14
_space_group_name_Hall           '-P 2yn'
loop_
_symmetry_equiv_pos_site_id
_symmetry_equiv_pos_as_xyz
1 x,y,z
2 1/2-x,1/2+y,1/2-z
3 -x,-y,-z
4 1/2+x,1/2-y,1/2+z
_cell_length_a                   8.997(2)
_cell_length_b                   26.576(7)
_cell_length_c                   19.821(6)
_cell_angle_alpha                90
_cell_angle_beta                 100.880(4)
_cell_angle_gamma                90
_cell_volume                     4654.1
_exptl_crystal_colour            'light yellow'
_exptl_crystal_description       block
_cell_formula_units_Z            4
loop_
_atom_site_label
_atom_site_type_symbol
_atom_site_fract_x
_atom_site_fract_y
_atom_site_fract_z
N1 N 0.7363(3) 0.74454(10) 0.74524(14)
N2 N 0.8008(3) 0.53670(11) 0.34250(16)
N3 N 0.7869(6) 1.01894(14) 0.5124(3)
N4 N 0.7130(5) 0.74168(19) 0.0704(2)
C1 C 0.7401(4) 0.70401(13) 0.79080(17)
C2 C 0.7274(4) 0.65320(14) 0.77778(19)
H1 H 0.7187 0.6408 0.7333
C3 C 0.7277(5) 0.62096(16) 0.8328(2)
H2 H 0.7214 0.5865 0.8249
C4 C 0.7372(5) 0.63869(18) 0.8997(2)
H3 H 0.7354 0.6162 0.9354
C5 C 0.7491(4) 0.68957(18) 0.91272(18)
H4 H 0.7551 0.7016 0.9572
C6 C 0.7521(4) 0.72321(15) 0.85838(18)
C7 C 0.7595(4) 0.77726(14) 0.85328(18)
C8 C 0.7781(4) 0.81609(17) 0.9016(2)
H5 H 0.7851 0.8089 0.9481
C9 C 0.7858(5) 0.86509(18) 0.8799(2)
H6 H 0.7986 0.8911 0.9118
C10 C 0.7746(5) 0.87602(16) 0.8101(3)
H7 H 0.7791 0.9094 0.7966
C11 C 0.7572(4) 0.83898(13) 0.7608(2)
H8 H 0.7515 0.8467 0.7146
C12 C 0.7484(4) 0.78908(13) 0.78296(19)
C13 C 0.7379(4) 0.74080(12) 0.67384(16)
C14 C 0.6334(4) 0.76739(12) 0.62649(18)
H9 H 0.5603 0.7871 0.6412
C15 C 0.6388(4) 0.76431(12) 0.55633(17)
H10 H 0.5688 0.7822 0.5247
C16 C 0.7471(4) 0.73499(11) 0.53339(16)
C17 C 0.8478(4) 0.70680(11) 0.58238(16)
H11 H 0.9179 0.6856 0.5679
C18 C 0.8435(4) 0.71023(11) 0.65159(16)
H12 H 0.9119 0.6919 0.6833
C19 C 0.7563(4) 0.73098(11) 0.46067(16)
C20 C 0.7749(3) 0.67878(11) 0.43433(16)
C21 C 0.6714(4) 0.64135(11) 0.44140(17)
H13 H 0.5962 0.6477 0.4666
C22 C 0.6789(4) 0.59436(12) 0.41121(18)
H14 H 0.6073 0.5698 0.4151
C23 C 0.7930(4) 0.58444(12) 0.37548(17)
C24 C 0.9016(4) 0.62064(13) 0.37099(19)
H15 H 0.9804 0.6134 0.3482
C25 C 0.8930(4) 0.66754(13) 0.40040(18)
H16 H 0.9664 0.6917 0.3975
C26 C 0.9198(5) 0.50303(13) 0.35696(19)
C27 C 1.0458(5) 0.50415(16) 0.4107(2)
H17 H 1.0608 0.5302 0.4426
C28 C 1.1460(6) 0.46486(18) 0.4138(3)
H18 H 1.2307 0.4643 0.4490
C29 C 1.1249(7) 0.42591(18) 0.3662(3)
H19 H 1.1955 0.4000 0.3701
C30 C 1.0018(6) 0.42500(15) 0.3134(2)
H20 H 0.9888 0.3987 0.2819
C31 C 0.8962(5) 0.46418(13) 0.30759(19)
C32 C 0.7571(5) 0.47481(13) 0.2616(2)
C33 C 0.6773(5) 0.45216(16) 0.2019(2)
H21 H 0.7103 0.4218 0.1866
C34 C 0.5511(5) 0.47485(18) 0.1665(2)
H22 H 0.4992 0.4599 0.1265
C35 C 0.4976(5) 0.5198(2) 0.1886(2)
H23 H 0.4099 0.5341 0.1636
C36 C 0.5731(5) 0.54372(17) 0.2473(2)
H24 H 0.5384 0.5741 0.2618
C37 C 0.7024(4) 0.52080(14) 0.2835(2)
C38 C 0.7510(4) 0.77099(12) 0.41781(16)
C39 C 0.7550(4) 0.82406(11) 0.44111(16)
C40 C 0.8799(4) 0.84261(13) 0.48799(18)
H25 H 0.9578 0.8208 0.5065
C41 C 0.8889(4) 0.89232(13) 0.5069(2)
H26 H 0.9733 0.9042 0.5372
C42 C 0.7718(5) 0.92461(13) 0.4806(2)
C43 C 0.6448(5) 0.90699(13) 0.4345(2)
H27 H 0.5653 0.9286 0.4176
C44 C 0.6390(4) 0.85681(12) 0.41426(18)
H28 H 0.5567 0.8452 0.3825
C45 C 0.7800(6) 0.97760(15) 0.4980(3)
C46 C 0.7411(4) 0.76479(12) 0.34191(16)
C47 C 0.6368(4) 0.73198(12) 0.30406(17)
H29 H 0.5699 0.7145 0.3260
C48 C 0.6307(4) 0.72479(14) 0.23438(18)
H30 H 0.5618 0.7023 0.2099
C49 C 0.7300(4) 0.75198(14) 0.20115(17)
C50 C 0.8343(5) 0.78439(15) 0.23833(19)
H31 H 0.9022 0.8015 0.2166
C51 C 0.8382(4) 0.79153(14) 0.30821(17)
H32 H 0.9063 0.8144 0.3326
C52 C 0.7223(5) 0.74564(19) 0.1289(2)
Cl1 Cl 0.8348(8) 0.62492(19) 0.1144(4)
Cl2 Cl 1.0505(5) 0.5421(2) 0.1493(4)
C53 C 0.9100(14) 0.5676(3) 0.1480(6)
H33 H 0.9018 0.5694 0.1961
H34 H 0.8347 0.5431 0.1277
Cl5 Cl 0.5330(2) 0.35660(6) 0.40477(8)
Cl6 Cl 0.5973(3) 0.45731(7) 0.45541(12)
C54 C 0.6315(17) 0.4076(5) 0.4006(6)
H37 H 0.6107 0.4197 0.3536
H38 H 0.7381 0.3989 0.4117
Cl3? Cl 0.8613(9) 0.6213(3) 0.1888(4)
Cl4? Cl 1.0092(13) 0.5983(4) 0.0858(5)
H35? H 0.8217 0.5490 0.1256
H36? H 0.9763 0.5456 0.1793
Cl7? Cl 0.8319(5) 0.38843(16) 0.4528(2)
H39? H 0.5898 0.4358 0.4218
H40? H 0.6362 0.4160 0.3535
loop_
_geom_bond_atom_site_label_1
_geom_bond_atom_site_label_2
_geom_bond_site_symmetry_1
_geom_bond_site_symmetry_2
N1 C1 1_555 1_555
N2 C23 1_555 1_555
N3 C45 1_555 1_555
N4 C52 1_555 1_555
C1 C2 1_555 1_555
C2 H1 1_555 1_555
C3 C2 1_555 1_555
H2 C3 1_555 1_555
C4 C3 1_555 1_555
H3 C4 1_555 1_555
C5 C4 1_555 1_555
H4 C5 1_555 1_555
C6 C1 1_555 1_555
C7 C6 1_555 1_555
C8 C7 1_555 1_555
H5 C8 1_555 1_555
C9 C8 1_555 1_555
H6 C9 1_555 1_555
C10 C9 1_555 1_555
H7 C10 1_555 1_555
C11 C10 1_555 1_555
H8 C11 1_555 1_555
C12 N1 1_555 1_555
C13 N1 1_555 1_555
C14 C13 1_555 1_555
H9 C14 1_555 1_555
C15 C14 1_555 1_555
H10 C15 1_555 1_555
C16 C15 1_555 1_555
C17 C16 1_555 1_555
H11 C17 1_555 1_555
C18 C13 1_555 1_555
H12 C18 1_555 1_555
C19 C16 1_555 1_555
C20 C19 1_555 1_555
C21 C20 1_555 1_555
H13 C21 1_555 1_555
C22 C21 1_555 1_555
H14 C22 1_555 1_555
C23 C22 1_555 1_555
C24 C23 1_555 1_555
H15 C24 1_555 1_555
C25 C20 1_555 1_555
H16 C25 1_555 1_555
C26 N2 1_555 1_555
C27 C26 1_555 1_555
H17 C27 1_555 1_555
C28 C27 1_555 1_555
H18 C28 1_555 1_555
C29 C28 1_555 1_555
H19 C29 1_555 1_555
C30 C29 1_555 1_555
H20 C30 1_555 1_555
C31 C26 1_555 1_555
C32 C31 1_555 1_555
C33 C32 1_555 1_555
H21 C33 1_555 1_555
C34 C33 1_555 1_555
H22 C34 1_555 1_555
C35 C34 1_555 1_555
H23 C35 1_555 1_555
C36 C35 1_555 1_555
H24 C36 1_555 1_555
C37 N2 1_555 1_555
C38 C19 1_555 1_555
C39 C38 1_555 1_555
C40 C39 1_555 1_555
H25 C40 1_555 1_555
C41 C40 1_555 1_555
H26 C41 1_555 1_555
C42 C41 1_555 1_555
C43 C42 1_555 1_555
H27 C43 1_555 1_555
C44 C39 1_555 1_555
H28 C44 1_555 1_555
C45 C42 1_555 1_555
C46 C38 1_555 1_555
C47 C46 1_555 1_555
H29 C47 1_555 1_555
C48 C47 1_555 1_555
H30 C48 1_555 1_555
C49 C48 1_555 1_555
C50 C49 1_555 1_555
H31 C50 1_555 1_555
C51 C46 1_555 1_555
H32 C51 1_555 1_555
C52 C49 1_555 1_555
Cl1 C53 1_555 1_555
Cl2 C53 1_555 1_555
C53 H33 1_555 1_555
H34 C53 1_555 1_555
Cl5 C54 1_555 1_555
Cl6 C54 1_555 1_555
C54 H37 1_555 1_555
H38 C54 1_555 1_555
C5 C6 1_555 1_555
C7 C12 1_555 1_555
C11 C12 1_555 1_555
C17 C18 1_555 1_555
C24 C25 1_555 1_555
C30 C31 1_555 1_555
C32 C37 1_555 1_555
C36 C37 1_555 1_555
C43 C44 1_555 1_555
C50 C51 1_555 1_555

#END
