
#######################################################################
#
#                 Cambridge Crystallographic Data Centre
#                                CCDC 
#
#######################################################################
#
# If this CIF has been generated from an entry in the Cambridge 
# Structural Database, then it will include bibliographic, chemical, 
# crystal, experimental, refinement or atomic coordinate data resulting 
# from the CCDC's data processing and validation procedures.
#
#######################################################################

data_LASFOD
_chemical_formula_moiety         'C52 H32 N4,C3 H7 N1 O1'
_chemical_name_systematic        
'4-(2,2-bis(4-(9H-carbazol-9-yl)phenyl)-1-(4-cyanophenyl)vinyl)benzonitrile N,N-dimethylformamide solvate'
_symmetry_cell_setting           triclinic
_symmetry_space_group_name_H-M   'P -1'
_symmetry_Int_Tables_number      2
_space_group_name_Hall           '-P 1'
loop_
_symmetry_equiv_pos_site_id
_symmetry_equiv_pos_as_xyz
1 x,y,z
2 -x,-y,-z
_cell_length_a                   9.4144(16)
_cell_length_b                   10.0196(17)
_cell_length_c                   22.839(4)
_cell_angle_alpha                86.844(6)
_cell_angle_beta                 86.748(5)
_cell_angle_gamma                79.205(6)
_cell_volume                     2110.67
_exptl_crystal_colour            colorless
_exptl_crystal_description       plate
_cell_formula_units_Z            2
loop_
_atom_site_label
_atom_site_type_symbol
_atom_site_fract_x
_atom_site_fract_y
_atom_site_fract_z
N1 N 0.28509(18) 0.34702(17) 0.97753(7)
N2 N 1.18830(17) 0.10005(16) 0.75113(7)
N3 N -0.1731(2) 0.7765(2) 0.73587(9)
N4 N 0.8744(2) 0.5735(2) 0.44571(8)
C1 C 0.2694(2) 0.2294(2) 1.01074(8)
C2 C 0.3244(2) 0.0950(2) 0.99868(9)
H1 H 0.3790 0.0723 0.9642
C3 C 0.2953(2) -0.0042(2) 1.03982(10)
H2 H 0.3311 -0.0952 1.0328
C4 C 0.2134(3) 0.0292(3) 1.09146(10)
H3 H 0.1942 -0.0396 1.1181
C5 C 0.1608(2) 0.1629(3) 1.10342(9)
H4 H 0.1071 0.1845 1.1382
C6 C 0.1883(2) 0.2663(2) 1.06300(8)
C7 C 0.1532(2) 0.4130(2) 1.06135(9)
C8 C 0.0761(2) 0.5078(3) 1.09940(10)
H5 H 0.0355 0.4793 1.1349
C9 C 0.0611(2) 0.6437(3) 1.08359(11)
H6 H 0.0118 0.7076 1.1092
C10 C 0.1184(2) 0.6878(3) 1.02981(11)
H7 H 0.1048 0.7804 1.0198
C11 C 0.1952(2) 0.5959(2) 0.99113(10)
H8 H 0.2331 0.6250 0.9552
C12 C 0.2133(2) 0.4591(2) 1.00792(8)
C13 C 0.3660(2) 0.3516(2) 0.92311(8)
C14 C 0.3279(2) 0.2936(2) 0.87425(8)
H9 H 0.2497 0.2487 0.8770
C15 C 0.4051(2) 0.3018(2) 0.82116(8)
H10 H 0.3778 0.2632 0.7885
C16 C 0.52341(19) 0.36734(19) 0.81641(8)
C17 C 0.5642(2) 0.4201(2) 0.86641(9)
H11 H 0.6453 0.4610 0.8643
C18 C 0.4869(2) 0.4129(2) 0.91910(9)
H12 H 0.5158 0.4493 0.9521
C19 C 0.60314(19) 0.38671(19) 0.75904(8)
C20 C 0.75682(19) 0.31390(19) 0.75584(8)
C21 C 0.7877(2) 0.1736(2) 0.76650(8)
H13 H 0.7123 0.1267 0.7754
C22 C 0.9289(2) 0.10259(19) 0.76412(8)
H14 H 0.9476 0.0085 0.7700
C23 C 1.0426(2) 0.17249(19) 0.75291(8)
C24 C 1.0139(2) 0.3123(2) 0.74347(9)
H15 H 1.0899 0.3594 0.7366
C25 C 0.8718(2) 0.3824(2) 0.74424(9)
H16 H 0.8533 0.4761 0.7369
C26 C 1.2522(2) 0.01312(19) 0.79607(8)
C27 C 1.1936(2) -0.0205(2) 0.85086(9)
H17 H 1.0978 0.0137 0.8622
C28 C 1.2841(3) -0.1074(2) 0.88807(9)
H18 H 1.2474 -0.1326 0.9248
C29 C 1.4287(3) -0.1580(2) 0.87183(10)
H19 H 1.4866 -0.2154 0.8979
C30 C 1.4860(2) -0.1234(2) 0.81756(10)
H20 H 1.5826 -0.1563 0.8070
C31 C 1.3975(2) -0.03846(19) 0.77847(9)
C32 C 1.4208(2) 0.01729(19) 0.71977(9)
C33 C 1.5383(2) -0.0003(2) 0.67888(9)
H21 H 1.6252 -0.0564 0.6882
C34 C 1.5237(2) 0.0667(2) 0.62454(10)
H22 H 1.6007 0.0544 0.5968
C35 C 1.3941(2) 0.1530(2) 0.61073(9)
H23 H 1.3868 0.1981 0.5740
C36 C 1.2768(2) 0.1729(2) 0.65030(9)
H24 H 1.1911 0.2309 0.6409
C37 C 1.2906(2) 0.10332(19) 0.70464(8)
C38 C 0.5408(2) 0.46553(19) 0.71428(8)
C39 C 0.3870(2) 0.53853(19) 0.71852(8)
C40 C 0.3318(2) 0.6172(2) 0.76607(9)
H25 H 0.3925 0.6274 0.7956
C41 C 0.1881(2) 0.6801(2) 0.76983(9)
H26 H 0.1522 0.7319 0.8018
C42 C 0.0974(2) 0.66547(19) 0.72551(9)
C43 C 0.1509(2) 0.5900(2) 0.67718(8)
H27 H 0.0903 0.5811 0.6474
C44 C 0.2952(2) 0.5283(2) 0.67379(8)
H28 H 0.3316 0.4792 0.6411
C45 C -0.0532(2) 0.7279(2) 0.73067(9)
C46 C 0.6172(2) 0.4867(2) 0.65654(8)
C47 C 0.6807(2) 0.3781(2) 0.62244(9)
H29 H 0.6781 0.2895 0.6362
C48 C 0.7473(2) 0.4011(2) 0.56836(9)
H30 H 0.7887 0.3282 0.5457
C49 C 0.7522(2) 0.5334(2) 0.54780(9)
C50 C 0.6905(2) 0.6423(2) 0.58132(9)
H31 H 0.6951 0.7307 0.5678
C51 C 0.6224(2) 0.6184(2) 0.63486(9)
H32 H 0.5790 0.6917 0.6569
C52 C 0.8209(2) 0.5563(3) 0.49105(9)
O1 O 0.7865(2) 0.9239(2) 0.51670(8)
N5 N 0.8678(3) 1.0292(3) 0.43413(9)
C53 C 0.9752(4) 1.0253(4) 0.38602(13)
H33 H 0.9281 1.0357 0.3494
H34 H 1.0411 0.9396 0.3878
H35 H 1.0278 1.0978 0.3889
C54 C 0.7490(5) 1.1436(4) 0.43465(17)
H36 H 0.7857 1.2260 0.4376
H37 H 0.6837 1.1328 0.4677
H38 H 0.6985 1.1481 0.3990
C55 C 0.8711(3) 0.9293(3) 0.47480(11)
H39 H 0.9464 0.8552 0.4709
loop_
_geom_bond_atom_site_label_1
_geom_bond_atom_site_label_2
_geom_bond_site_symmetry_1
_geom_bond_site_symmetry_2
N1 C1 1_555 1_555
N2 C23 1_555 1_555
N3 C45 1_555 1_555
N4 C52 1_555 1_555
C1 C2 1_555 1_555
C2 H1 1_555 1_555
C3 C2 1_555 1_555
H2 C3 1_555 1_555
C4 C3 1_555 1_555
H3 C4 1_555 1_555
C5 C4 1_555 1_555
H4 C5 1_555 1_555
C6 C1 1_555 1_555
C7 C6 1_555 1_555
C8 C7 1_555 1_555
H5 C8 1_555 1_555
C9 C8 1_555 1_555
H6 C9 1_555 1_555
C10 C9 1_555 1_555
H7 C10 1_555 1_555
C11 C10 1_555 1_555
H8 C11 1_555 1_555
C12 N1 1_555 1_555
C13 N1 1_555 1_555
C14 C13 1_555 1_555
H9 C14 1_555 1_555
C15 C14 1_555 1_555
H10 C15 1_555 1_555
C16 C15 1_555 1_555
C17 C16 1_555 1_555
H11 C17 1_555 1_555
C18 C13 1_555 1_555
H12 C18 1_555 1_555
C19 C16 1_555 1_555
C20 C19 1_555 1_555
C21 C20 1_555 1_555
H13 C21 1_555 1_555
C22 C21 1_555 1_555
H14 C22 1_555 1_555
C23 C22 1_555 1_555
C24 C23 1_555 1_555
H15 C24 1_555 1_555
C25 C20 1_555 1_555
H16 C25 1_555 1_555
C26 N2 1_555 1_555
C27 C26 1_555 1_555
H17 C27 1_555 1_555
C28 C27 1_555 1_555
H18 C28 1_555 1_555
C29 C28 1_555 1_555
H19 C29 1_555 1_555
C30 C29 1_555 1_555
H20 C30 1_555 1_555
C31 C26 1_555 1_555
C32 C31 1_555 1_555
C33 C32 1_555 1_555
H21 C33 1_555 1_555
C34 C33 1_555 1_555
H22 C34 1_555 1_555
C35 C34 1_555 1_555
H23 C35 1_555 1_555
C36 C35 1_555 1_555
H24 C36 1_555 1_555
C37 N2 1_555 1_555
C38 C19 1_555 1_555
C39 C38 1_555 1_555
C40 C39 1_555 1_555
H25 C40 1_555 1_555
C41 C40 1_555 1_555
H26 C41 1_555 1_555
C42 C41 1_555 1_555
C43 C42 1_555 1_555
H27 C43 1_555 1_555
C44 C39 1_555 1_555
H28 C44 1_555 1_555
C45 C42 1_555 1_555
C46 C38 1_555 1_555
C47 C46 1_555 1_555
H29 C47 1_555 1_555
C48 C47 1_555 1_555
H30 C48 1_555 1_555
C49 C48 1_555 1_555
C50 C49 1_555 1_555
H31 C50 1_555 1_555
C51 C46 1_555 1_555
H32 C51 1_555 1_555
C52 C49 1_555 1_555
O1 C55 1_555 1_555
N5 C53 1_555 1_555
C53 H33 1_555 1_555
H34 C53 1_555 1_555
H35 C53 1_555 1_555
C54 N5 1_555 1_555
H36 C54 1_555 1_555
H37 C54 1_555 1_555
H38 C54 1_555 1_555
C55 N5 1_555 1_555
H39 C55 1_555 1_555
C5 C6 1_555 1_555
C7 C12 1_555 1_555
C11 C12 1_555 1_555
C17 C18 1_555 1_555
C24 C25 1_555 1_555
C30 C31 1_555 1_555
C32 C37 1_555 1_555
C36 C37 1_555 1_555
C43 C44 1_555 1_555
C50 C51 1_555 1_555

#END
