
#######################################################################
#
#                 Cambridge Crystallographic Data Centre
#                                CCDC 
#
#######################################################################
#
# If this CIF has been generated from an entry in the Cambridge 
# Structural Database, then it will include bibliographic, chemical, 
# crystal, experimental, refinement or atomic coordinate data resulting 
# from the CCDC's data processing and validation procedures.
#
#######################################################################

data_LASHOF
_chemical_compound_source        'the flowers of Chrysanthemum indicum'
_chemical_name_common            'chrysanthemumin H'
_chemical_formula_moiety         'C15 H22 O3'
_chemical_name_systematic        
2,8-bis(methylene)-5-(prop-1-en-2-yl)-11-oxabicyclo[5.3.1]undecane-1,9-diol
_symmetry_cell_setting           orthorhombic
_symmetry_space_group_name_H-M   'C 2 2 21'
_symmetry_Int_Tables_number      20
_space_group_name_Hall           'C 2n 2'
loop_
_symmetry_equiv_pos_site_id
_symmetry_equiv_pos_as_xyz
1 x,y,z
2 -x,-y,1/2+z
3 -x,y,1/2-z
4 x,-y,-z
5 1/2+x,1/2+y,z
6 1/2-x,1/2-y,1/2+z
7 1/2-x,1/2+y,1/2-z
8 1/2+x,1/2-y,-z
_cell_length_a                   6.6634(17)
_cell_length_b                   13.334(4)
_cell_length_c                   31.049(8)
_cell_angle_alpha                90
_cell_angle_beta                 90
_cell_angle_gamma                90
_cell_volume                     2758.7
_exptl_crystal_colour            colorless
_exptl_crystal_description       block
_cell_formula_units_Z            8
loop_
_atom_site_label
_atom_site_type_symbol
_atom_site_fract_x
_atom_site_fract_y
_atom_site_fract_z
O1 O 1.0442(2) 0.73977(11) 0.18148(5)
O2 O 0.9066(3) 0.87881(12) 0.20971(6)
H1 H 0.9573 0.8582 0.2321
O3 O 0.5120(3) 0.58130(13) 0.20583(7)
H2 H 0.5171 0.5213 0.2001
C1 C 0.6670(3) 0.63278(16) 0.18332(8)
H3 H 0.6248 0.6411 0.1533
C2 C 1.0305(3) 0.63998(16) 0.16247(7)
H4 H 1.1568 0.6058 0.1693
C3 C 0.8634(3) 0.79701(16) 0.18244(7)
C4 C 0.8673(3) 0.58070(16) 0.18367(7)
C5 C 0.6953(4) 0.73667(16) 0.20303(8)
H5 H 0.5708 0.7738 0.2002
H6 H 0.7233 0.7292 0.2335
C6 C 0.8245(4) 0.84162(16) 0.13787(8)
C7 C 1.0093(5) 0.87929(19) 0.11428(8)
H7 H 1.1179 0.8864 0.1348
H8 H 0.9807 0.9453 0.1027
C8 C 1.1639(4) 0.70800(19) 0.08992(8)
H9 H 1.2769 0.7195 0.1095
C9 C 0.9008(4) 0.49315(18) 0.20232(8)
H10 H 1.0296 0.4663 0.2026
H11 H 0.7956 0.4584 0.2152
C10 C 1.0125(4) 0.64038(17) 0.11365(8)
H12 H 0.8779 0.6618 0.1060
H13 H 1.0290 0.5722 0.1033
C11 C 0.6435(5) 0.8515(2) 0.12173(10)
H14 H 0.6258 0.8823 0.0951
H15 H 0.5330 0.8277 0.1369
C12 C 1.2461(5) 0.6552(2) 0.05022(9)
C13 C 1.0796(5) 0.8111(2) 0.07746(9)
H16 H 0.9671 0.8006 0.0582
H17 H 1.1822 0.8466 0.0614
C14 C 1.1017(7) 0.6346(3) 0.01469(11)
H18 H 1.0586 0.6968 0.0022
H19 H 0.9876 0.5993 0.0259
H20 H 1.1660 0.5944 -0.0069
C15 C 1.4360(6) 0.6284(3) 0.04760(12)
H21 H 1.4829 0.5957 0.0231
H22 H 1.5232 0.6421 0.0702
loop_
_geom_bond_atom_site_label_1
_geom_bond_atom_site_label_2
_geom_bond_site_symmetry_1
_geom_bond_site_symmetry_2
O1 C2 1_555 1_555
O2 H1 1_555 1_555
O3 H2 1_555 1_555
C1 O3 1_555 1_555
H3 C1 1_555 1_555
C2 H4 1_555 1_555
C3 O1 1_555 1_555
C4 C1 1_555 1_555
C5 C1 1_555 1_555
H5 C5 1_555 1_555
H6 C5 1_555 1_555
C6 C3 1_555 1_555
C7 C6 1_555 1_555
H7 C7 1_555 1_555
H8 C7 1_555 1_555
C8 H9 1_555 1_555
C9 C4 1_555 1_555
H10 C9 1_555 1_555
H11 C9 1_555 1_555
C10 C2 1_555 1_555
H12 C10 1_555 1_555
H13 C10 1_555 1_555
C11 C6 1_555 1_555
H14 C11 1_555 1_555
H15 C11 1_555 1_555
C12 C8 1_555 1_555
C13 C7 1_555 1_555
H16 C13 1_555 1_555
H17 C13 1_555 1_555
C14 C12 1_555 1_555
H18 C14 1_555 1_555
H19 C14 1_555 1_555
H20 C14 1_555 1_555
C15 C12 1_555 1_555
H21 C15 1_555 1_555
H22 C15 1_555 1_555
O2 C3 1_555 1_555
C2 C4 1_555 1_555
C3 C5 1_555 1_555
C8 C10 1_555 1_555
C8 C13 1_555 1_555

#END
