
#######################################################################
#
#                 Cambridge Crystallographic Data Centre
#                                CCDC 
#
#######################################################################
#
# If this CIF has been generated from an entry in the Cambridge 
# Structural Database, then it will include bibliographic, chemical, 
# crystal, experimental, refinement or atomic coordinate data resulting 
# from the CCDC's data processing and validation procedures.
#
#######################################################################

data_LASJOG
_chemical_formula_moiety         'C15 H9 F6 N1 O1'
_chemical_name_systematic        
3-(Trifluoromethyl)-N-(4-(trifluoromethyl)phenyl)benzamide
_symmetry_cell_setting           orthorhombic
_symmetry_space_group_name_H-M   'P c c n'
_symmetry_Int_Tables_number      56
_space_group_name_Hall           '-P 2ab 2ac'
loop_
_symmetry_equiv_pos_site_id
_symmetry_equiv_pos_as_xyz
1 x,y,z
2 1/2-x,1/2-y,z
3 1/2+x,-y,1/2-z
4 -x,1/2+y,1/2-z
5 -x,-y,-z
6 1/2+x,1/2+y,-z
7 1/2-x,y,1/2+z
8 x,1/2-y,1/2+z
_cell_length_a                   25.559(5)
_cell_length_b                   11.622(5)
_cell_length_c                   9.509(5)
_cell_angle_alpha                90
_cell_angle_beta                 90
_cell_angle_gamma                90
_cell_volume                     2824.62
_exptl_crystal_colour            colorless
_exptl_crystal_description       needle
_chemical_melting_point          '147-149 deg.C'
_cell_formula_units_Z            8
_exptl_crystal_recrystallization_method dichloromethane/hexane
loop_
_atom_site_label
_atom_site_type_symbol
_atom_site_fract_x
_atom_site_fract_y
_atom_site_fract_z
C1 C 0.81576(7) -0.00327(16) 0.07295(18)
C2 C 0.86640(7) 0.02921(17) 0.03595(19)
C3 C 0.90914(7) -0.01678(18) 0.1068(2)
C4 C 0.90165(7) -0.09635(17) 0.2131(2)
C5 C 0.85124(7) -0.13009(16) 0.24834(19)
C6 C 0.80803(7) -0.08368(16) 0.17892(18)
C7 C 0.67655(7) 0.09586(16) 0.01982(19)
C8 C 0.66894(7) 0.15963(16) -0.10274(19)
C9 C 0.61839(8) 0.19012(17) -0.1410(2)
C10 C 0.57592(7) 0.15936(17) -0.0584(2)
C11 C 0.58339(8) 0.09560(19) 0.0627(2)
C12 C 0.63355(8) 0.06327(18) 0.1014(2)
C13 C 0.77078(7) 0.04743(15) -0.00719(18)
C14 C 0.52239(8) 0.1974(2) -0.1014(2)
C15 C 0.84169(8) -0.22007(18) 0.3578(2)
N1 N 0.72648(6) 0.06225(14) 0.06890(16)
O1 O 0.77504(5) 0.07263(12) -0.13207(13)
F1 F 0.50906(7) 0.1642(2) -0.2272(2)
F2 F 0.51850(7) 0.31195(16) -0.1047(3)
F3 F 0.48517(5) 0.16335(19) -0.0159(2)
F4 F 0.81825(11) -0.31359(14) 0.30609(18)
F5 F 0.80617(9) -0.18510(14) 0.45528(17)
F6 F 0.88303(7) -0.2484(2) 0.4301(3)
H1 H 0.7284(8) 0.0501(18) 0.163(2)
H2 H 0.8720(7) 0.0826(18) -0.037(2)
H3 H 0.9426(9) 0.010(2) 0.086(2)
H4 H 0.9321(8) -0.1296(19) 0.263(2)
H5 H 0.7741(9) -0.108(2) 0.205(2)
H6 H 0.6983(8) 0.1880(19) -0.156(2)
H7 H 0.6141(9) 0.233(2) -0.226(3)
H8 H 0.5568(10) 0.072(2) 0.121(2)
H9 H 0.6390(8) 0.021(2) 0.183(2)
F7? F 0.8452(6) -0.1887(11) 0.4748(14)
F8? F 0.8869(6) -0.3016(12) 0.3358(17)
F9? F 0.8471(10) -0.3180(17) 0.314(2)
loop_
_geom_bond_atom_site_label_1
_geom_bond_atom_site_label_2
_geom_bond_site_symmetry_1
_geom_bond_site_symmetry_2
C1 C2 1_555 1_555
C2 C3 1_555 1_555
C3 C4 1_555 1_555
C4 C5 1_555 1_555
C5 C6 1_555 1_555
C6 C1 1_555 1_555
C7 C8 1_555 1_555
C8 C9 1_555 1_555
C9 C10 1_555 1_555
C10 C11 1_555 1_555
C11 C12 1_555 1_555
C12 C7 1_555 1_555
C13 C1 1_555 1_555
C14 C10 1_555 1_555
C15 C5 1_555 1_555
N1 C7 1_555 1_555
O1 C13 1_555 1_555
F1 C14 1_555 1_555
F2 C14 1_555 1_555
F3 C14 1_555 1_555
F4 C15 1_555 1_555
F5 C15 1_555 1_555
F6 C15 1_555 1_555
H1 N1 1_555 1_555
H2 C2 1_555 1_555
H3 C3 1_555 1_555
H4 C4 1_555 1_555
H5 C6 1_555 1_555
H6 C8 1_555 1_555
H7 C9 1_555 1_555
H8 C11 1_555 1_555
H9 C12 1_555 1_555
C13 N1 1_555 1_555

#END
