
#######################################################################
#
#                 Cambridge Crystallographic Data Centre
#                                CCDC 
#
#######################################################################
#
# If this CIF has been generated from an entry in the Cambridge 
# Structural Database, then it will include bibliographic, chemical, 
# crystal, experimental, refinement or atomic coordinate data resulting 
# from the CCDC's data processing and validation procedures.
#
#######################################################################

data_LASKAT
_chemical_formula_moiety         'C15 H9 F6 N1 O1'
_chemical_name_systematic        
2-(Trifluoromethyl)-N-(2-(trifluoromethyl)phenyl)benzamide
_symmetry_cell_setting           monoclinic
_symmetry_space_group_name_H-M   'C 2/c'
_symmetry_Int_Tables_number      15
_space_group_name_Hall           '-C 2yn'
loop_
_symmetry_equiv_pos_site_id
_symmetry_equiv_pos_as_xyz
1 x,y,z
2 -x,y,1/2-z
3 1/2+x,1/2+y,z
4 1/2-x,1/2+y,1/2-z
5 -x,-y,-z
6 x,-y,1/2+z
7 1/2-x,1/2-y,-z
8 1/2+x,1/2-y,1/2+z
_cell_length_a                   21.2145(13)
_cell_length_b                   6.7790(3)
_cell_length_c                   9.7179(5)
_cell_angle_alpha                90
_cell_angle_beta                 100.886(5)
_cell_angle_gamma                90
_cell_volume                     1372.41
_exptl_crystal_colour            colorless
_exptl_crystal_description       block
_chemical_melting_point          '152-154 deg.C'
_cell_formula_units_Z            4
_exptl_crystal_recrystallization_method chloroform/hexane
loop_
_atom_site_label
_atom_site_type_symbol
_atom_site_fract_x
_atom_site_fract_y
_atom_site_fract_z
C1 C 0.12931(8) 0.1887(3) 0.57701(16)
C2 C 0.17042(9) 0.3342(3) 0.5439(2)
C3 C 0.14749(10) 0.4827(3) 0.4506(2)
C4 C 0.08343(10) 0.4880(3) 0.3886(2)
C5 C 0.04199(8) 0.3441(3) 0.42115(17)
C6 C 0.06430(7) 0.1945(2) 0.51529(15)
C7 C 0.15645(8) 0.0291(3) 0.67644(19)
N1 N 0.0191(6) 0.0480(18) 0.5384(14)
F1 F 0.2192(3) -0.0073(15) 0.6731(9)
F2 F 0.1570(6) 0.0719(7) 0.8099(3)
F3 F 0.1296(3) -0.1476(12) 0.6482(9)
H1 H 0.012(2) 0.016(6) 0.628(5)
H2 H 0.2147(11) 0.326(3) 0.588(2)
H3 H 0.1762(10) 0.584(3) 0.431(2)
H4 H 0.0669(10) 0.596(3) 0.326(2)
H5 H -0.0026(10) 0.349(3) 0.381(2)
C1D C -0.12931(8) -0.1887(3) 0.42299(16)
C2D C -0.17042(9) -0.3342(3) 0.4561(2)
C3D C -0.14749(10) -0.4827(3) 0.5494(2)
C4D C -0.08343(10) -0.4880(3) 0.6114(2)
C5D C -0.04199(8) -0.3441(3) 0.57885(17)
C6D C -0.06430(7) -0.1945(2) 0.48471(15)
C7D C -0.15645(8) -0.0291(3) 0.32356(19)
N1D N -0.0191(6) -0.0480(18) 0.4616(14)
F1D F -0.2192(3) 0.0073(15) 0.3269(9)
F2D F -0.1570(6) -0.0719(7) 0.1901(3)
F3D F -0.1296(3) 0.1476(12) 0.3518(9)
H1D H -0.012(2) -0.016(6) 0.372(5)
H2D H -0.2147(11) -0.326(3) 0.412(2)
H3D H -0.1762(10) -0.584(3) 0.569(2)
H4D H -0.0669(10) -0.596(3) 0.674(2)
H5D H 0.0026(10) -0.349(3) 0.619(2)
C8? C 0.0173(5) 0.0559(16) 0.5633(19)
O1? O 0.01264(12) 0.0526(4) 0.6893(3)
F4? F 0.2167(5) 0.048(3) 0.720(2)
F5? F 0.1275(8) 0.031(2) 0.7912(12)
F6? F 0.1420(10) -0.140(2) 0.629(2)
loop_
_geom_bond_atom_site_label_1
_geom_bond_atom_site_label_2
_geom_bond_site_symmetry_1
_geom_bond_site_symmetry_2
C1 C2 1_555 1_555
C2 C3 1_555 1_555
C3 C4 1_555 1_555
C4 C5 1_555 1_555
C5 C6 1_555 1_555
C6 C1 1_555 1_555
C7 C1 1_555 1_555
N1 C6 1_555 1_555
F1 C7 1_555 1_555
F2 C7 1_555 1_555
F3 C7 1_555 1_555
H1 N1 1_555 1_555
H2 C2 1_555 1_555
H3 C3 1_555 1_555
H4 C4 1_555 1_555
H5 C5 1_555 1_555
C1D C2D 1_555 1_555
C2D C3D 1_555 1_555
C3D C4D 1_555 1_555
C4D C5D 1_555 1_555
C5D C6D 1_555 1_555
C6D C1D 1_555 1_555
C7D C1D 1_555 1_555
N1D N1 1_555 1_555
F1D C7D 1_555 1_555
F2D C7D 1_555 1_555
F3D C7D 1_555 1_555
H1D N1D 1_555 1_555
H2D C2D 1_555 1_555
H3D C3D 1_555 1_555
H4D C4D 1_555 1_555
H5D C5D 1_555 1_555
C6D N1D 1_555 1_555

#END
