
#######################################################################
#
#                 Cambridge Crystallographic Data Centre
#                                CCDC 
#
#######################################################################
#
# If this CIF has been generated from an entry in the Cambridge 
# Structural Database, then it will include bibliographic, chemical, 
# crystal, experimental, refinement or atomic coordinate data resulting 
# from the CCDC's data processing and validation procedures.
#
#######################################################################

data_LASKOI
_chemical_compound_source        
'root, stem bark, and leaf extracts of Erythrina schliebenii'
_chemical_name_common            "abyssinone V 4'-methyl ether"
_chemical_formula_moiety         'C26 H30 O5'
_chemical_name_systematic        
5,7-dihydroxy-2-(4-methoxy-3,5-bis(3-methylbut-2-en-1-yl)phenyl)-2,3-dihydro-4H-chromen-4-one
_chemical_properties_biological  
'moderate antitubercular and cytotoxic activities'
_symmetry_cell_setting           orthorhombic
_symmetry_space_group_name_H-M   'P 21 21 21'
_symmetry_Int_Tables_number      19
_space_group_name_Hall           'P 2ac 2ab'
loop_
_symmetry_equiv_pos_site_id
_symmetry_equiv_pos_as_xyz
1 x,y,z
2 1/2-x,-y,1/2+z
3 1/2+x,1/2-y,-z
4 -x,1/2+y,1/2-z
_cell_length_a                   5.18734(7)
_cell_length_b                   20.1639(2)
_cell_length_c                   21.6358(2)
_cell_angle_alpha                90
_cell_angle_beta                 90
_cell_angle_gamma                90
_cell_volume                     2263.04
_exptl_crystal_colour            colorless
_exptl_crystal_description       plate
_cell_formula_units_Z            4
loop_
_atom_site_label
_atom_site_type_symbol
_atom_site_fract_x
_atom_site_fract_y
_atom_site_fract_z
C1 C 1.0092(4) 0.74903(9) 0.09667(8)
C2 C 1.2123(4) 0.72997(9) 0.05813(9)
H1 H 1.272628 0.758617 0.026412
C3 C 1.3228(4) 0.66864(9) 0.06724(8)
C4 C 1.2396(4) 0.62612(9) 0.11541(8)
C5 C 1.0340(4) 0.64780(9) 0.15325(8)
C6 C 0.9170(4) 0.70834(9) 0.14395(8)
H2 H 0.776842 0.722058 0.169150
C7 C 1.3749(4) 0.56538(9) 0.12872(9)
C8 C 1.2966(4) 0.53103(10) 0.18772(10)
H3 H 1.396093 0.549467 0.222775
H4 H 1.335857 0.483099 0.184612
C9 C 1.0096(4) 0.54053(9) 0.19940(9)
H5 H 0.910510 0.519020 0.165199
C10 C 0.9252(4) 0.51106(9) 0.26024(9)
C11 C 0.9650(4) 0.54411(10) 0.31552(9)
H6 H 1.042771 0.586764 0.315136
C12 C 0.8928(4) 0.51582(10) 0.37180(9)
C13 C 0.7814(4) 0.45269(10) 0.37116(9)
C14 C 0.7377(4) 0.41806(10) 0.31582(10)
C15 C 0.8114(4) 0.44856(10) 0.26083(9)
H7 H 0.783361 0.426151 0.222799
C16 C 0.9318(4) 0.55450(10) 0.43108(9)
H8 H 0.918085 0.523930 0.466736
H9 H 1.107195 0.573852 0.431299
C17 C 0.7358(4) 0.60936(11) 0.43809(10)
H10 H 0.695940 0.633356 0.401538
C18 C 0.6120(5) 0.62837(11) 0.48888(10)
C19 C 0.6476(9) 0.59798(17) 0.55119(13)
H11 H 0.716749 0.631266 0.579729
H12 H 0.768285 0.560731 0.548151
H13 H 0.481180 0.581994 0.566593
C20 C 0.4188(5) 0.68405(12) 0.48752(12)
H14 H 0.403280 0.701024 0.445243
H15 H 0.476385 0.719779 0.514945
H16 H 0.250832 0.667589 0.501494
C21 C 0.6191(5) 0.34917(11) 0.31414(10)
H17 H 0.758816 0.315866 0.311155
H18 H 0.525557 0.341259 0.353326
C22 C 0.4364(5) 0.33965(11) 0.26100(11)
H19 H 0.311430 0.373562 0.255370
C23 C 0.4275(5) 0.29009(12) 0.22113(11)
C24 C 0.5893(7) 0.22909(15) 0.22093(15)
H20 H 0.719482 0.232211 0.253629
H21 H 0.674967 0.224669 0.180775
H22 H 0.479921 0.190255 0.228268
C25 C 0.2264(7) 0.29046(19) 0.16985(16)
H23 H 0.109163 0.328032 0.175790
H24 H 0.128059 0.248979 0.171041
H25 H 0.312567 0.294595 0.129727
C26 C 0.4738(5) 0.43964(12) 0.45040(11)
H26 H 0.341030 0.429197 0.419667
H27 H 0.470558 0.487269 0.459387
H28 H 0.439924 0.414697 0.488415
O1 O 0.8936(3) 0.80838(7) 0.09001(6)
H29 H 0.972(7) 0.8291(15) 0.0597(16)
O2 O 1.5159(3) 0.64909(7) 0.02937(6)
H30 H 1.564(6) 0.6126(15) 0.0404(14)
O3 O 0.9457(3) 0.61053(7) 0.20129(6)
O4 O 1.5501(3) 0.54325(7) 0.09549(7)
O5 O 0.7219(3) 0.42175(8) 0.42660(7)
loop_
_geom_bond_atom_site_label_1
_geom_bond_atom_site_label_2
_geom_bond_site_symmetry_1
_geom_bond_site_symmetry_2
C1 C2 1_555 1_555
C2 H1 1_555 1_555
C3 C2 1_555 1_555
C4 C3 1_555 1_555
C5 C4 1_555 1_555
C6 C1 1_555 1_555
H2 C6 1_555 1_555
C7 C4 1_555 1_555
C8 C7 1_555 1_555
H3 C8 1_555 1_555
H4 C8 1_555 1_555
C9 C8 1_555 1_555
H5 C9 1_555 1_555
C10 C9 1_555 1_555
C11 C10 1_555 1_555
H6 C11 1_555 1_555
C12 C11 1_555 1_555
C13 C12 1_555 1_555
C14 C13 1_555 1_555
C15 C10 1_555 1_555
H7 C15 1_555 1_555
C16 C12 1_555 1_555
H8 C16 1_555 1_555
H9 C16 1_555 1_555
C17 C16 1_555 1_555
H10 C17 1_555 1_555
C18 C17 1_555 1_555
C19 C18 1_555 1_555
H11 C19 1_555 1_555
H12 C19 1_555 1_555
H13 C19 1_555 1_555
C20 C18 1_555 1_555
H14 C20 1_555 1_555
H15 C20 1_555 1_555
H16 C20 1_555 1_555
C21 C14 1_555 1_555
H17 C21 1_555 1_555
H18 C21 1_555 1_555
C22 C21 1_555 1_555
H19 C22 1_555 1_555
C23 C22 1_555 1_555
C24 C23 1_555 1_555
H20 C24 1_555 1_555
H21 C24 1_555 1_555
H22 C24 1_555 1_555
C25 C23 1_555 1_555
H23 C25 1_555 1_555
H24 C25 1_555 1_555
H25 C25 1_555 1_555
C26 H26 1_555 1_555
H27 C26 1_555 1_555
H28 C26 1_555 1_555
O1 C1 1_555 1_555
H29 O1 1_555 1_555
O2 C3 1_555 1_555
H30 O2 1_555 1_555
O3 C5 1_555 1_555
O4 C7 1_555 1_555
O5 C13 1_555 1_555
C5 C6 1_555 1_555
C9 O3 1_555 1_555
C14 C15 1_555 1_555
C26 O5 1_555 1_555

#END
