
#######################################################################
#
#                 Cambridge Crystallographic Data Centre
#                                CCDC 
#
#######################################################################
#
# If this CIF has been generated from an entry in the Cambridge 
# Structural Database, then it will include bibliographic, chemical, 
# crystal, experimental, refinement or atomic coordinate data resulting 
# from the CCDC's data processing and validation procedures.
#
#######################################################################

data_LASKUN
_chemical_name_common            'bis(Chloroform) methylethyl ketone clathrate'
_chemical_formula_moiety         '2(C1 H1 Cl3),C4 H8 O1'
_chemical_name_systematic        'bis(Trichloromethane) butan-2-one clathrate'
_symmetry_cell_setting           monoclinic
_symmetry_space_group_name_H-M   'P n'
_symmetry_Int_Tables_number      7
_space_group_name_Hall           'P -2yac'
loop_
_symmetry_equiv_pos_site_id
_symmetry_equiv_pos_as_xyz
1 x,y,z
2 1/2+x,-y,1/2+z
_cell_length_a                   6.054(2)
_cell_length_b                   6.965(3)
_cell_length_c                   16.346(6)
_cell_angle_alpha                90
_cell_angle_beta                 95.86(3)
_cell_angle_gamma                90
_cell_volume                     685.645
_exptl_crystal_colour            colorless
_exptl_crystal_description       cylinder
_chemical_melting_point          '175-179 K'
_cell_formula_units_Z            2
loop_
_atom_site_label
_atom_site_type_symbol
_atom_site_fract_x
_atom_site_fract_y
_atom_site_fract_z
Cl1 Cl 0.0323(3) 0.7436(3) 0.34506(10)
Cl2 Cl -0.0027(3) 0.6801(3) 0.17007(13)
Cl3 Cl 0.4297(3) 0.7231(2) 0.26168(13)
C1 C 0.1498(10) 0.7914(8) 0.2528(4)
H1 H 0.1428 0.9331 0.2431
Cl4 Cl 0.4233(3) 1.0332(2) 0.05954(11)
Cl5 Cl 0.4376(2) 1.4454(2) 0.04220(10)
Cl6 Cl 0.0159(3) 1.2498(3) 0.03304(18)
C2 C 0.2944(11) 1.2512(9) 0.0793(4)
H2 H 0.281(9) 1.254(6) 0.140(3)
O1 O 0.2962(17) 1.2166(14) 0.2834(7)
C3 C 0.420(2) 1.2352(15) 0.3446(7)
C4 C 0.323(3) 1.269(3) 0.4287(13)
H3 H 0.2539 1.3969 0.4286
H4 H 0.4423 1.2616 0.4737
H5 H 0.2105 1.1714 0.4364
C5 C 0.6683(19) 1.2540(15) 0.3444(7)
H6 H 0.7426 1.1547 0.3808
H7 H 0.7159 1.3813 0.3666
C6 C 0.745(3) 1.231(2) 0.2531(10)
H8 H 0.7143 1.0994 0.2335
H9 H 0.9045 1.2565 0.2546
H10 H 0.6628 1.3217 0.2158
C7? C 0.514(2) 1.2309(15) 0.3063(7)
C8? C 0.725(4) 1.241(3) 0.2736(12)
C9? C 0.534(3) 1.240(2) 0.3942(10)
C10? C 0.333(4) 1.217(3) 0.4310(15)
H11? H 0.7152 1.1777 0.2199
H12? H 0.8381 1.1774 0.3114
H13? H 0.7665 1.3763 0.2674
H14? H 0.5994 1.3653 0.4115
H15? H 0.6391 1.1388 0.4159
H16? H 0.2341 1.1288 0.3976
H17? H 0.3653 1.1633 0.4864
H18? H 0.2596 1.3415 0.4344
O2? O 0.3336(18) 1.2149(14) 0.2642(7)
loop_
_geom_bond_atom_site_label_1
_geom_bond_atom_site_label_2
_geom_bond_site_symmetry_1
_geom_bond_site_symmetry_2
Cl1 C1 1_555 1_555
Cl2 C1 1_555 1_555
Cl3 C1 1_555 1_555
C1 H1 1_555 1_555
Cl4 C2 1_555 1_555
Cl5 C2 1_555 1_555
Cl6 C2 1_555 1_555
C2 H2 1_555 1_555
O1 C3 1_555 1_555
C3 C4 1_555 1_555
C4 H3 1_555 1_555
H4 C4 1_555 1_555
H5 C4 1_555 1_555
C5 C3 1_555 1_555
H6 C5 1_555 1_555
H7 C5 1_555 1_555
C6 C5 1_555 1_555
H8 C6 1_555 1_555
H9 C6 1_555 1_555
H10 C6 1_555 1_555

#END
