
#######################################################################
#
#                 Cambridge Crystallographic Data Centre
#                                CCDC 
#
#######################################################################
#
# If this CIF has been generated from an entry in the Cambridge 
# Structural Database, then it will include bibliographic, chemical, 
# crystal, experimental, refinement or atomic coordinate data resulting 
# from the CCDC's data processing and validation procedures.
#
#######################################################################

data_LASKOH
_chemical_formula_moiety         'C1 H2 Cl2,C6 H10 O1'
_chemical_name_systematic        'Dichloromethane cyclohexanone clathrate'
_symmetry_cell_setting           triclinic
_symmetry_space_group_name_H-M   'P -1'
_symmetry_Int_Tables_number      2
_space_group_name_Hall           '-P 1'
loop_
_symmetry_equiv_pos_site_id
_symmetry_equiv_pos_as_xyz
1 x,y,z
2 -x,-y,-z
_cell_length_a                   6.2893(6)
_cell_length_b                   7.8029(9)
_cell_length_c                   10.3006(13)
_cell_angle_alpha                103.76(1)
_cell_angle_beta                 103.15(1)
_cell_angle_gamma                98.40(1)
_cell_volume                     467.285
_exptl_crystal_colour            colorless
_exptl_crystal_description       cylinder
_chemical_melting_point          '195-196 K'
_cell_formula_units_Z            2
loop_
_atom_site_label
_atom_site_type_symbol
_atom_site_fract_x
_atom_site_fract_y
_atom_site_fract_z
O1 O 0.1283(2) -0.16178(15) 0.55447(11)
C1 C 0.1910(3) -0.02002(19) 0.64628(13)
C2 C 0.4148(4) 0.0996(3) 0.67394(17)
C3 C 0.5433(3) 0.1561(3) 0.82754(17)
C4 C 0.4045(3) 0.2329(2) 0.91902(16)
C5 C 0.1859(3) 0.1011(2) 0.89323(15)
C6 C 0.0526(3) 0.0458(2) 0.74044(16)
H1 H 0.375(4) 0.212(3) 0.650(2)
H2 H 0.494(5) 0.041(3) 0.615(3)
H3 H 0.684(4) 0.239(3) 0.841(2)
H4 H 0.586(4) 0.054(3) 0.853(2)
H5 H 0.366(3) 0.345(3) 0.900(2)
H6 H 0.486(4) 0.259(3) 1.012(2)
H7 H 0.229(3) -0.009(3) 0.9184(19)
H8 H 0.098(4) 0.153(3) 0.953(2)
H9 H 0.010(3) 0.151(3) 0.7176(19)
H10 H -0.078(4) -0.042(3) 0.7227(19)
Cl1 Cl 0.57747(9) 0.61087(6) 0.68816(5)
Cl2 Cl 1.02434(10) 0.56155(7) 0.80018(6)
C7 C 0.8111(3) 0.5350(2) 0.64803(18)
H11 H 0.764(3) 0.410(3) 0.5993(18)
H12 H 0.867(3) 0.606(3) 0.594(2)
loop_
_geom_bond_atom_site_label_1
_geom_bond_atom_site_label_2
_geom_bond_site_symmetry_1
_geom_bond_site_symmetry_2
O1 C1 1_555 1_555
C1 C2 1_555 1_555
C2 C3 1_555 1_555
C3 C4 1_555 1_555
C4 C5 1_555 1_555
C5 C6 1_555 1_555
C6 C1 1_555 1_555
H1 C2 1_555 1_555
H2 C2 1_555 1_555
H3 C3 1_555 1_555
H4 C3 1_555 1_555
H5 C4 1_555 1_555
H6 C4 1_555 1_555
H7 C5 1_555 1_555
H8 C5 1_555 1_555
H9 C6 1_555 1_555
H10 C6 1_555 1_555
Cl1 C7 1_555 1_555
Cl2 C7 1_555 1_555
C7 H11 1_555 1_555
H12 C7 1_555 1_555

#END
