
#######################################################################
#
#                 Cambridge Crystallographic Data Centre
#                                CCDC 
#
#######################################################################
#
# If this CIF has been generated from an entry in the Cambridge 
# Structural Database, then it will include bibliographic, chemical, 
# crystal, experimental, refinement or atomic coordinate data resulting 
# from the CCDC's data processing and validation procedures.
#
#######################################################################

data_LASLOI
_chemical_name_common            'Chloroform hemikis(1,4-dioxane) clathrate'
_chemical_formula_moiety         'C1 H1 Cl3,0.5(C4 H8 O2)'
_chemical_name_systematic        
'Trichloromethane hemikis(1,4-dioxane) clathrate'
_symmetry_cell_setting           monoclinic
_symmetry_space_group_name_H-M   'P 21/n'
_symmetry_Int_Tables_number      14
_space_group_name_Hall           '-P 2yn'
loop_
_symmetry_equiv_pos_site_id
_symmetry_equiv_pos_as_xyz
1 x,y,z
2 1/2-x,1/2+y,1/2-z
3 -x,-y,-z
4 1/2+x,1/2-y,1/2+z
_cell_length_a                   5.9481(5)
_cell_length_b                   9.3502(8)
_cell_length_c                   12.1479(11)
_cell_angle_alpha                90
_cell_angle_beta                 100.93(2)
_cell_angle_gamma                90
_cell_volume                     663.361
_exptl_crystal_colour            colorless
_exptl_crystal_description       cylinder
_chemical_melting_point          '216-217 K'
_cell_formula_units_Z            4
loop_
_atom_site_label
_atom_site_type_symbol
_atom_site_fract_x
_atom_site_fract_y
_atom_site_fract_z
Cl1 Cl 0.40741(12) 0.47821(6) 0.14712(5)
Cl2 Cl 0.00124(13) 0.63018(7) 0.17988(6)
Cl3 Cl -0.01706(13) 0.32588(7) 0.14001(6)
C1 C 0.1547(4) 0.46877(19) 0.20090(15)
H1 H 0.198(5) 0.451(2) 0.2789(19)
O1 O 0.1877(3) 0.43141(14) 0.46605(11)
C2 C -0.0138(4) 0.3546(2) 0.4782(2)
C3 C 0.2192(4) 0.5494(2) 0.54219(18)
H2 H -0.029(5) 0.283(3) 0.426(2)
H3 H 0.016(5) 0.317(3) 0.554(2)
H4 H 0.354(5) 0.596(3) 0.529(2)
H5 H 0.243(5) 0.512(3) 0.622(2)
O1B O -0.1877(3) 0.56859(14) 0.53395(11)
C2B C 0.0138(4) 0.6454(2) 0.5218(2)
C3B C -0.2192(4) 0.4506(2) 0.45781(18)
H2B H 0.029(5) 0.717(3) 0.574(2)
H3B H -0.016(5) 0.683(3) 0.446(2)
H4B H -0.354(5) 0.404(3) 0.471(2)
H5B H -0.243(5) 0.488(3) 0.378(2)
loop_
_geom_bond_atom_site_label_1
_geom_bond_atom_site_label_2
_geom_bond_site_symmetry_1
_geom_bond_site_symmetry_2
Cl1 C1 1_555 1_555
Cl2 C1 1_555 1_555
Cl3 C1 1_555 1_555
O1 C2 1_555 1_555
C1 H1 1_555 1_555
C2 H2 1_555 1_555
C3 O1 1_555 1_555
H3 C2 1_555 1_555
H4 C3 1_555 1_555
H5 C3 1_555 1_555
O1B C2B 1_555 1_555
C2B C3 1_555 1_555
C3B C2 1_555 1_555
H2B C2B 1_555 1_555
H3B C2B 1_555 1_555
H4B C3B 1_555 1_555
H5B C3B 1_555 1_555
O1B C3B 1_555 1_555

#END
