
#######################################################################
#
#                 Cambridge Crystallographic Data Centre
#                                CCDC 
#
#######################################################################
#
# If this CIF has been generated from an entry in the Cambridge 
# Structural Database, then it will include bibliographic, chemical, 
# crystal, experimental, refinement or atomic coordinate data resulting 
# from the CCDC's data processing and validation procedures.
#
#######################################################################

data_LASLIC
_chemical_name_common            'Dichloromethane acetone clathrate'
_chemical_formula_moiety         'C1 H2 Cl2,C3 H6 O1'
_chemical_name_systematic        'Dichloromethane propan-2-one clathrate'
_symmetry_cell_setting           monoclinic
_symmetry_space_group_name_H-M   'C 2/c'
_symmetry_Int_Tables_number      15
_space_group_name_Hall           '-C 2yn'
loop_
_symmetry_equiv_pos_site_id
_symmetry_equiv_pos_as_xyz
1 x,y,z
2 -x,y,1/2-z
3 1/2+x,1/2+y,z
4 1/2-x,1/2+y,1/2-z
5 -x,-y,-z
6 x,-y,1/2+z
7 1/2-x,1/2-y,-z
8 1/2+x,1/2-y,1/2+z
_cell_length_a                   14.5833(12)
_cell_length_b                   8.2213(7)
_cell_length_c                   13.924(1)
_cell_angle_alpha                90
_cell_angle_beta                 117.21(1)
_cell_angle_gamma                90
_cell_volume                     1484.66
_chemical_melting_point          '175-178 K'
_cell_formula_units_Z            8
loop_
_atom_site_label
_atom_site_type_symbol
_atom_site_fract_x
_atom_site_fract_y
_atom_site_fract_z
Cl1 Cl 0.33227(6) 0.52018(7) 0.18633(7)
Cl2 Cl 0.33722(6) 0.48809(7) 0.39659(6)
C1 C 0.29968(14) 0.3968(2) 0.26994(16)
H1 H 0.2298(15) 0.390(3) 0.2363(16)
H2 H 0.3343(14) 0.302(3) 0.2824(14)
O1 O 0.42848(10) 0.03821(17) 0.33243(13)
C2 C 0.52066(14) 0.02107(19) 0.38338(16)
C3 C 0.59008(19) 0.1645(3) 0.4255(3)
H3 H 0.555(2) 0.270(3) 0.403(2)
H4 H 0.636(2) 0.163(4) 0.398(3)
H5 H 0.621(3) 0.171(4) 0.496(3)
C4 C 0.56968(19) -0.1425(2) 0.4065(2)
H6 H 0.522(2) -0.219(4) 0.378(2)
H7 H 0.611(2) -0.153(3) 0.375(2)
H8 H 0.607(2) -0.161(4) 0.480(3)
loop_
_geom_bond_atom_site_label_1
_geom_bond_atom_site_label_2
_geom_bond_site_symmetry_1
_geom_bond_site_symmetry_2
Cl1 C1 1_555 1_555
Cl2 C1 1_555 1_555
C1 H1 1_555 1_555
H2 C1 1_555 1_555
O1 C2 1_555 1_555
C2 C3 1_555 1_555
C3 H3 1_555 1_555
H4 C3 1_555 1_555
H5 C3 1_555 1_555
C4 C2 1_555 1_555
H6 C4 1_555 1_555
H7 C4 1_555 1_555
H8 C4 1_555 1_555

#END
