
#######################################################################
#
#                 Cambridge Crystallographic Data Centre
#                                CCDC 
#
#######################################################################
#
# If this CIF has been generated from an entry in the Cambridge 
# Structural Database, then it will include bibliographic, chemical, 
# crystal, experimental, refinement or atomic coordinate data resulting 
# from the CCDC's data processing and validation procedures.
#
#######################################################################

data_LASLUO
_chemical_formula_moiety         'C1 H2 Cl2,0.5(C4 H8 O2)'
_chemical_name_systematic        
'Dichloromethane hemikis(1,4-dioxane) clathrate'
_symmetry_cell_setting           orthorhombic
_symmetry_space_group_name_H-M   'P b c a'
_symmetry_Int_Tables_number      61
_space_group_name_Hall           '-P 2ac 2ab'
loop_
_symmetry_equiv_pos_site_id
_symmetry_equiv_pos_as_xyz
1 x,y,z
2 1/2-x,-y,1/2+z
3 1/2+x,1/2-y,-z
4 -x,1/2+y,1/2-z
5 -x,-y,-z
6 1/2+x,y,1/2-z
7 1/2-x,1/2+y,z
8 x,1/2-y,1/2+z
_cell_length_a                   7.8287(13)
_cell_length_b                   10.025(2)
_cell_length_c                   14.764(3)
_cell_angle_alpha                90
_cell_angle_beta                 90
_cell_angle_gamma                90
_cell_volume                     1158.72
_exptl_crystal_colour            colorless
_exptl_crystal_description       cylinder
_chemical_melting_point          '205-206 K'
_cell_formula_units_Z            8
loop_
_atom_site_label
_atom_site_type_symbol
_atom_site_fract_x
_atom_site_fract_y
_atom_site_fract_z
O1 O 0.04928(17) 0.48374(13) 0.09089(8)
C1 C 0.0434(3) 0.37376(19) 0.02970(14)
C2 C 0.0868(3) 0.60305(19) 0.04245(13)
H1 H 0.010(3) 0.296(2) 0.0651(14)
H2 H 0.153(3) 0.361(2) 0.0012(14)
H3 H 0.197(3) 0.596(2) 0.0165(13)
H4 H 0.088(3) 0.675(2) 0.0884(14)
O1D O -0.04928(17) 0.51626(13) -0.09089(8)
C1D C -0.0434(3) 0.62624(19) -0.02970(14)
C2D C -0.0868(3) 0.39695(19) -0.04245(13)
H1D H -0.010(3) 0.704(2) -0.0651(14)
H2D H -0.153(3) 0.639(2) -0.0012(14)
H3D H -0.197(3) 0.404(2) -0.0165(13)
H4D H -0.088(3) 0.325(2) -0.0884(14)
Cl1 Cl 0.01586(7) 0.47681(5) 0.37443(4)
Cl2 Cl 0.18800(10) 0.26370(6) 0.27788(5)
C3 C 0.1773(3) 0.43601(19) 0.29593(13)
H5 H 0.149(3) 0.475(2) 0.2404(15)
H6 H 0.281(3) 0.465(2) 0.3240(14)
loop_
_geom_bond_atom_site_label_1
_geom_bond_atom_site_label_2
_geom_bond_site_symmetry_1
_geom_bond_site_symmetry_2
O1 C1 1_555 1_555
C1 H1 1_555 1_555
C2 O1 1_555 1_555
H2 C1 1_555 1_555
H3 C2 1_555 1_555
H4 C2 1_555 1_555
Cl1 C3 1_555 1_555
Cl2 C3 1_555 1_555
C3 H5 1_555 1_555
H6 C3 1_555 1_555
O1D C1D 1_555 1_555
C1D C2 1_555 1_555
C2D C1 1_555 1_555
H1D C1D 1_555 1_555
H2D C1D 1_555 1_555
H3D C2D 1_555 1_555
H4D C2D 1_555 1_555
O1D C2D 1_555 1_555

#END
