
#######################################################################
#
#                 Cambridge Crystallographic Data Centre
#                                CCDC 
#
#######################################################################
#
# If this CIF has been generated from an entry in the Cambridge 
# Structural Database, then it will include bibliographic, chemical, 
# crystal, experimental, refinement or atomic coordinate data resulting 
# from the CCDC's data processing and validation procedures.
#
#######################################################################

data_LASLAV
_chemical_compound_source        
'root, stem bark, and leaf extracts of Erythrina schliebenii'
_chemical_name_common            "3'-(3-methylbut-2-enyl)biochanin A"
_chemical_formula_moiety         'C21 H20 O5'
_chemical_name_systematic        
5,7-dihydroxy-3-(4-methoxy-3-(3-methylbut-2-en-1-yl)phenyl)-4H-chromen-4-one
_chemical_properties_biological  
'moderate antitubercular and cytotoxic activities'
_symmetry_cell_setting           triclinic
_symmetry_space_group_name_H-M   'P -1'
_symmetry_Int_Tables_number      2
_space_group_name_Hall           '-P 1'
loop_
_symmetry_equiv_pos_site_id
_symmetry_equiv_pos_as_xyz
1 x,y,z
2 -x,-y,-z
_cell_length_a                   8.5769(3)
_cell_length_b                   9.1101(3)
_cell_length_c                   11.5230(4)
_cell_angle_alpha                78.724(2)
_cell_angle_beta                 76.207(2)
_cell_angle_gamma                81.728(2)
_cell_volume                     853.041
_exptl_crystal_colour            colorless
_exptl_crystal_description       block
_cell_formula_units_Z            2
loop_
_atom_site_label
_atom_site_type_symbol
_atom_site_fract_x
_atom_site_fract_y
_atom_site_fract_z
O1 O 0.53505(11) 0.66426(12) 0.92354(9)
O2 O 0.98709(11) 0.56434(13) 0.72367(9)
O3 O 0.85872(11) 0.43614(14) 0.59044(10)
H1 H 0.932779 0.466456 0.613099
O4 O 0.29628(11) 0.45119(13) 0.67255(10)
H2 H 0.212182 0.497623 0.708029
O5 O 1.30869(11) 0.93671(11) 1.00629(9)
C1 C 0.55282(15) 0.59099(14) 0.82728(11)
C2 C 0.70659(14) 0.55421(14) 0.75786(11)
C3 C 0.71519(15) 0.47647(15) 0.66049(12)
C4 C 0.57643(15) 0.44217(16) 0.63562(12)
H3 H 0.583001 0.389601 0.570795
C5 C 0.42581(15) 0.48503(15) 0.70613(12)
C6 C 0.41154(15) 0.55770(15) 0.80404(12)
H4 H 0.309137 0.583569 0.853123
C7 C 0.66737(16) 0.70834(16) 0.94554(12)
H5 H 0.651457 0.762654 1.010610
C8 C 0.82016(15) 0.68205(15) 0.88326(12)
C9 C 0.84851(15) 0.59775(15) 0.78410(11)
C10 C 0.95320(15) 0.74107(15) 0.91645(12)
C11 C 1.05737(16) 0.83275(17) 0.82996(12)
H6 H 1.046888 0.850935 0.748003
C12 C 1.17563(16) 0.89803(17) 0.86011(12)
C13 C 1.18997(15) 0.86908(15) 0.98149(12)
C14 C 1.08910(16) 0.77718(16) 1.06847(12)
H7 H 1.100520 0.757397 1.150242
C15 C 0.97091(16) 0.71392(16) 1.03556(12)
H8 H 0.901554 0.651405 1.095454
C16 C 1.33016(18) 0.90401(18) 1.12796(13)
H9 H 1.231408 0.939461 1.182223
H10 H 1.420369 0.954945 1.133998
H11 H 1.353468 0.795128 1.151309
C17 C 1.2891(2) 0.9979(3) 0.76608(14)
H12 H 1.388300 0.939369 0.754768
H13 H 1.293900 1.092069 0.801868
C18 C 1.2203(3) 1.0811(3) 0.65701(19)
H14 H 1.158194 1.175301 0.664161
C19 C 1.241(2) 1.031(2) 0.5553(11)
C20 C 1.3259(3) 0.8704(3) 0.5407(2)
H15 H 1.368303 0.825334 0.612841
H16 H 1.414862 0.877145 0.469032
H17 H 1.247676 0.807750 0.530870
C21 C 1.1790(4) 1.1100(4) 0.4485(2)
H18 H 1.122038 1.207579 0.464697
H19 H 1.104355 1.049077 0.431499
H20 H 1.269102 1.125559 0.378317
C22? C 1.3180(5) 0.9419(5) 0.6311(4)
H21? H 1.384623 0.851851 0.616059
C23? C 1.252(3) 1.019(3) 0.5511(14)
C24? C 1.2726(6) 0.9963(6) 0.4223(4)
H22? H 1.346708 0.905849 0.408718
H23? H 1.316947 1.083873 0.366992
H24? H 1.167697 0.984413 0.407294
C25? C 1.1519(7) 1.1791(6) 0.5680(5)
H25? H 1.105045 1.179899 0.654195
H26? H 1.065260 1.196737 0.523126
H27? H 1.224250 1.258626 0.536830
loop_
_geom_bond_atom_site_label_1
_geom_bond_atom_site_label_2
_geom_bond_site_symmetry_1
_geom_bond_site_symmetry_2
O1 C1 1_555 1_555
O2 C9 1_555 1_555
O3 H1 1_555 1_555
O4 H2 1_555 1_555
O5 C13 1_555 1_555
C1 C2 1_555 1_555
C2 C3 1_555 1_555
C3 O3 1_555 1_555
C4 C3 1_555 1_555
H3 C4 1_555 1_555
C5 O4 1_555 1_555
C6 C1 1_555 1_555
H4 C6 1_555 1_555
C7 O1 1_555 1_555
H5 C7 1_555 1_555
C8 C7 1_555 1_555
C9 C2 1_555 1_555
C10 C8 1_555 1_555
C11 C10 1_555 1_555
H6 C11 1_555 1_555
C12 C11 1_555 1_555
C13 C12 1_555 1_555
C14 C13 1_555 1_555
H7 C14 1_555 1_555
C15 C10 1_555 1_555
H8 C15 1_555 1_555
C16 O5 1_555 1_555
H9 C16 1_555 1_555
H10 C16 1_555 1_555
H11 C16 1_555 1_555
C17 C12 1_555 1_555
H12 C17 1_555 1_555
H13 C17 1_555 1_555
C18 C17 1_555 1_555
H14 C18 1_555 1_555
C19 C18 1_555 1_555
C20 C19 1_555 1_555
H15 C20 1_555 1_555
H16 C20 1_555 1_555
H17 C20 1_555 1_555
C21 C19 1_555 1_555
H18 C21 1_555 1_555
H19 C21 1_555 1_555
H20 C21 1_555 1_555
C4 C5 1_555 1_555
C5 C6 1_555 1_555
C8 C9 1_555 1_555
C14 C15 1_555 1_555

#END
