
#######################################################################
#
#                 Cambridge Crystallographic Data Centre
#                                CCDC 
#
#######################################################################
#
# If this CIF has been generated from an entry in the Cambridge 
# Structural Database, then it will include bibliographic, chemical, 
# crystal, experimental, refinement or atomic coordinate data resulting 
# from the CCDC's data processing and validation procedures.
#
#######################################################################

data_LASQUT
_chemical_name_common            
5-(2,8-Diethyl-5,5-difluoro-1,3,7,9-tetramethyl-5H-4lambda$5!,5lambda$5!-dipyrrolo[1,2-c:2',1'-f][1,3,2]diazaborinin-10-yl)-13-(2,8-diethyl-5,5-difluoro-1,3,7,9-tetramethyl-5H-6lambda$5!,5lambda$5!-dipyrrolo[1,2-c:2',1'-f][1,3,2]diazaborinin-10-yl)-1,9-diazatetracyclo[7.7.1.0$2,7!.0$10,15!]heptadeca-2,4,6,10,12,14-hexaene
_chemical_formula_moiety         'C49 H56 B2 F4 N6'
_chemical_name_systematic        
2,8-(6H,12H-5,11-Methanodibenzo[b,f]diazocineylene)-bis(4,4-difluoro-2,6-diethyl-1,3,5,7-tetramethyl-4-bora-3a,4a-diaza-s-indacene)
_symmetry_cell_setting           triclinic
_symmetry_space_group_name_H-M   'P -1'
_symmetry_Int_Tables_number      2
_space_group_name_Hall           '-P 1'
loop_
_symmetry_equiv_pos_site_id
_symmetry_equiv_pos_as_xyz
1 x,y,z
2 -x,-y,-z
_cell_length_a                   8.6642(3)
_cell_length_b                   11.7031(4)
_cell_length_c                   22.3567(6)
_cell_angle_alpha                86.773(2)
_cell_angle_beta                 86.541(2)
_cell_angle_gamma                86.636(2)
_cell_volume                     2255.73
_exptl_crystal_colour            red
_exptl_crystal_description       plate
_cell_formula_units_Z            2
loop_
_atom_site_label
_atom_site_type_symbol
_atom_site_fract_x
_atom_site_fract_y
_atom_site_fract_z
N1 N 0.47171(14) 0.03749(10) 0.42288(5)
N2 N 1.16141(14) -0.43081(10) 0.40152(6)
N3 N 0.28597(13) -0.09029(10) 0.39243(5)
C1 C 0.34827(16) 0.07912(12) 0.32672(6)
C2 C 0.59115(16) -0.04643(12) 0.40597(6)
C3 C 1.04635(16) -0.34508(12) 0.41342(7)
F1 F 0.21853(13) 0.43109(9) 0.05396(4)
N4 N 1.10871(15) -0.40864(12) 0.29367(6)
C4 C 0.55853(16) -0.15859(12) 0.39590(6)
C5 C 0.74470(17) -0.01561(13) 0.40062(7)
H1 H 0.7666 0.0600 0.4056
C6 C 0.83309(17) -0.20795(13) 0.38021(6)
C7 C 0.86400(17) -0.09460(13) 0.38813(7)
H2 H 0.9656 -0.0724 0.3849
C8 C 0.32972(17) 0.14120(13) 0.27274(7)
H3 H 0.3650 0.2149 0.2679
C9 C 0.96050(16) -0.29555(12) 0.36677(7)
C10 C 0.28811(15) -0.02906(12) 0.33508(6)
F2 F 1.18780(15) -0.59220(9) 0.33909(5)
F3 F 1.36522(12) -0.45704(11) 0.32591(5)
F4 F 0.13409(14) 0.28568(11) 0.00462(4)
N5 N 0.06539(16) 0.29350(11) 0.11022(6)
C11 C 0.43839(18) 0.12559(12) 0.37509(7)
H4 H 0.5350 0.1532 0.3573
H5 H 0.3792 0.1899 0.3923
C12 C 0.22423(17) -0.07635(14) 0.28724(7)
H6 H 0.1894 -0.1502 0.2917
C13 C 0.23538(19) 0.16674(13) 0.16919(7)
C14 C 0.99054(17) -0.32594(13) 0.30762(7)
C15 C 1.04074(17) -0.32842(13) 0.47595(7)
C16 C 0.21205(19) -0.01489(14) 0.23338(7)
H7 H 0.1711 -0.0482 0.2015
C17 C 1.15161(17) -0.40448(13) 0.50062(7)
N6 N 0.33520(17) 0.24238(12) 0.07261(6)
C18 C 0.26006(18) 0.09615(13) 0.22597(7)
C19 C 0.39268(16) -0.19234(13) 0.39434(7)
H8 H 0.3821 -0.2358 0.3593
H9 H 0.3665 -0.2408 0.4297
C20 C 0.32673(18) -0.01737(14) 0.43908(7)
H10 H 0.3369 -0.0632 0.4763
H11 H 0.2443 0.0411 0.4456
C21 C 0.0924(2) 0.22649(14) 0.16281(7)
C22 C 0.3552(2) 0.17261(14) 0.12484(7)
C23 C 1.22325(18) -0.46551(13) 0.45381(8)
C24 C 1.1896(2) -0.41816(14) 0.56525(8)
H12 H 1.2532 -0.4884 0.5713
H13 H 1.0943 -0.4257 0.5898
C25 C 0.9280(2) -0.28266(15) 0.25284(8)
C26 C 0.5069(2) 0.11872(15) 0.12016(8)
C27 C 0.9401(2) -0.24463(15) 0.51108(8)
H14 H 0.9860 -0.1717 0.5084
H15 H 0.9303 -0.2721 0.5523
H16 H 0.8395 -0.2364 0.4950
C28 C -0.0426(2) 0.23724(15) 0.20186(8)
C29 C 1.3514(2) -0.55662(16) 0.45636(10)
H17 H 1.3330 -0.6152 0.4297
H18 H 1.3554 -0.5896 0.4966
H19 H 1.4481 -0.5236 0.4445
C30 C -0.0796(2) 0.34199(15) 0.11586(8)
C31 C 1.0098(2) -0.33999(17) 0.20733(8)
C32 C 0.5758(2) 0.15712(16) 0.06585(8)
C33 C -0.1494(2) 0.30897(16) 0.17200(9)
C34 C 1.1193(2) -0.41682(17) 0.23388(9)
C35 C 1.2739(2) -0.31962(16) 0.58619(9)
H20 H 1.3603 -0.3042 0.5586
H21 H 1.3104 -0.3394 0.6253
H22 H 1.2045 -0.2527 0.5880
C36 C -0.0708(2) 0.18597(19) 0.26440(9)
H23 H -0.0600 0.1039 0.2639
H24 H -0.1736 0.2087 0.2793
H25 H 0.0031 0.2125 0.2900
C37 C 0.4677(2) 0.23265(16) 0.03787(8)
C38 C 0.8007(2) -0.19369(18) 0.24311(9)
H26 H 0.7888 -0.1799 0.2009
H27 H 0.8253 -0.1239 0.2601
H28 H 0.7058 -0.2198 0.2621
B1 B 0.1872(3) 0.31508(18) 0.05827(8)
C39 C -0.3068(2) 0.35061(19) 0.19589(10)
H29 H -0.3510 0.2907 0.2222
H30 H -0.3735 0.3658 0.1627
C40 C 0.7350(2) 0.12158(18) 0.03990(10)
H31 H 0.8045 0.1083 0.0723
H32 H 0.7732 0.1838 0.0137
C41 C 0.5838(2) 0.03479(18) 0.16375(9)
H33 H 0.5896 0.0695 0.2014
H34 H 0.6863 0.0133 0.1481
H35 H 0.5245 -0.0321 0.1697
C42 C -0.1489(2) 0.41810(17) 0.06741(9)
H36 H -0.1247 0.4959 0.0723
H37 H -0.2592 0.4127 0.0698
H38 H -0.1073 0.3946 0.0290
C43 C 0.4875(3) 0.2973(2) -0.02177(9)
H39 H 0.3999 0.2875 -0.0449
H40 H 0.5801 0.2684 -0.0429
H41 H 0.4953 0.3772 -0.0156
C44 C 1.2328(3) -0.4984(2) 0.20328(10)
H42 H 1.1955 -0.5158 0.1654
H43 H 1.2450 -0.5677 0.2280
H44 H 1.3308 -0.4642 0.1967
C45 C 0.7372(3) 0.0146(2) 0.00491(13)
H45 H 0.6711 0.0278 -0.0280
H46 H 0.7007 -0.0477 0.0307
H47 H 0.8410 -0.0044 -0.0102
C46 C -0.3032(3) 0.4591(2) 0.23043(13)
H48 H -0.2805 0.5227 0.2029
H49 H -0.2246 0.4489 0.2591
H50 H -0.4021 0.4740 0.2510
C47 C 0.68025(17) -0.23793(13) 0.38400(6)
H51 H 0.6587 -0.3134 0.3784
B2 B 1.2097(2) -0.47567(18) 0.33952(10)
C48 C 0.9884(3) -0.3225(2) 0.14095(9)
H52 H 0.8784 -0.3163 0.1346
H53 H 1.0324 -0.3896 0.1212
C49 C 1.0624(12) -0.2168(8) 0.11181(15)
H54 H 1.0487 -0.2131 0.0694
H55 H 1.1710 -0.2213 0.1186
H56 H 1.0142 -0.1493 0.1290
C50? C 1.142(7) -0.277(6) 0.1134(14)
H57? H 1.1325 -0.1943 0.1100
H58? H 1.1636 -0.3057 0.0744
H59? H 1.2242 -0.3010 0.1388
loop_
_geom_bond_atom_site_label_1
_geom_bond_atom_site_label_2
_geom_bond_site_symmetry_1
_geom_bond_site_symmetry_2
N1 C2 1_555 1_555
N2 C3 1_555 1_555
N3 C10 1_555 1_555
C1 C8 1_555 1_555
C2 C4 1_555 1_555
C3 C9 1_555 1_555
F1 B1 1_555 1_555
N4 C14 1_555 1_555
C4 C19 1_555 1_555
C5 C2 1_555 1_555
H1 C5 1_555 1_555
C6 C7 1_555 1_555
C7 C5 1_555 1_555
H2 C7 1_555 1_555
C8 H3 1_555 1_555
C9 C6 1_555 1_555
C10 C1 1_555 1_555
F2 B2 1_555 1_555
F3 B2 1_555 1_555
F4 B1 1_555 1_555
N5 C21 1_555 1_555
C11 N1 1_555 1_555
H4 C11 1_555 1_555
H5 C11 1_555 1_555
C12 C10 1_555 1_555
H6 C12 1_555 1_555
C13 C18 1_555 1_555
C14 C9 1_555 1_555
C15 C3 1_555 1_555
C16 C12 1_555 1_555
H7 C16 1_555 1_555
C17 C15 1_555 1_555
N6 C22 1_555 1_555
C18 C8 1_555 1_555
C19 N3 1_555 1_555
H8 C19 1_555 1_555
H9 C19 1_555 1_555
C20 N1 1_555 1_555
H10 C20 1_555 1_555
H11 C20 1_555 1_555
C21 C13 1_555 1_555
C22 C13 1_555 1_555
C23 N2 1_555 1_555
C24 C17 1_555 1_555
H12 C24 1_555 1_555
H13 C24 1_555 1_555
C25 C14 1_555 1_555
C26 C22 1_555 1_555
C27 C15 1_555 1_555
H14 C27 1_555 1_555
H15 C27 1_555 1_555
H16 C27 1_555 1_555
C28 C21 1_555 1_555
C29 C23 1_555 1_555
H17 C29 1_555 1_555
H18 C29 1_555 1_555
H19 C29 1_555 1_555
C30 N5 1_555 1_555
C31 C25 1_555 1_555
C32 C26 1_555 1_555
C33 C28 1_555 1_555
C34 N4 1_555 1_555
C35 C24 1_555 1_555
H20 C35 1_555 1_555
H21 C35 1_555 1_555
H22 C35 1_555 1_555
C36 C28 1_555 1_555
H23 C36 1_555 1_555
H24 C36 1_555 1_555
H25 C36 1_555 1_555
C37 N6 1_555 1_555
C38 C25 1_555 1_555
H26 C38 1_555 1_555
H27 C38 1_555 1_555
H28 C38 1_555 1_555
B1 N5 1_555 1_555
C39 C33 1_555 1_555
H29 C39 1_555 1_555
H30 C39 1_555 1_555
C40 C32 1_555 1_555
H31 C40 1_555 1_555
H32 C40 1_555 1_555
C41 C26 1_555 1_555
H33 C41 1_555 1_555
H34 C41 1_555 1_555
H35 C41 1_555 1_555
C42 C30 1_555 1_555
H36 C42 1_555 1_555
H37 C42 1_555 1_555
H38 C42 1_555 1_555
C43 C37 1_555 1_555
H39 C43 1_555 1_555
H40 C43 1_555 1_555
H41 C43 1_555 1_555
C44 C34 1_555 1_555
H42 C44 1_555 1_555
H43 C44 1_555 1_555
H44 C44 1_555 1_555
C45 C40 1_555 1_555
H45 C45 1_555 1_555
H46 C45 1_555 1_555
H47 C45 1_555 1_555
C46 C39 1_555 1_555
H48 C46 1_555 1_555
H49 C46 1_555 1_555
H50 C46 1_555 1_555
C47 C4 1_555 1_555
H51 C47 1_555 1_555
B2 N2 1_555 1_555
C48 C31 1_555 1_555
H52 C48 1_555 1_555
H53 C48 1_555 1_555
C49 C48 1_555 1_555
H54 C49 1_555 1_555
H55 C49 1_555 1_555
H56 C49 1_555 1_555
N3 C20 1_555 1_555
C1 C11 1_555 1_555
N4 B2 1_555 1_555
C6 C47 1_555 1_555
C16 C18 1_555 1_555
C17 C23 1_555 1_555
N6 B1 1_555 1_555
C30 C33 1_555 1_555
C31 C34 1_555 1_555
C32 C37 1_555 1_555

#END
