
#######################################################################
#
#                 Cambridge Crystallographic Data Centre
#                                CCDC 
#
#######################################################################
#
# If this CIF has been generated from an entry in the Cambridge 
# Structural Database, then it will include bibliographic, chemical, 
# crystal, experimental, refinement or atomic coordinate data resulting 
# from the CCDC's data processing and validation procedures.
#
#######################################################################

data_LASRAA
_chemical_name_common            
"5-(5,5-Difluoro-1,3,7,9-tetramethyl-5H-4lambda$5!,5lambda$5!-dipyrrolo[1,2-c:2',1'-f][1,3,2]diazaborinin-10-yl)-13-(5,5-difluoro-1,3,7,9-tetramethyl-5H-6lambda$5!,5lambda$5!-dipyrrolo[1,2-c:2',1'-f][1,3,2]diazaborinin-10-yl)-1,9-diazatetracyclo[7.7.1.0$2,7!.0$10,15!]heptadeca-2,4,6,10,12,14-hexaene chloroform methanol solvate"
_chemical_formula_moiety         'C41 H40 B2 F4 N6,x(C1 H1 Cl3),x(C1 H4 O1)'
_chemical_name_systematic        
'2,8-(6H,12H-5,11-Methanodibenzo[b,f]diazocineylene)-bis(4,4-difluoro-1,3,5,7-tetramethyl-4-bora-3a,4a-diaza-s-indacene) chloroform methanol solvate'
_symmetry_cell_setting           monoclinic
_symmetry_space_group_name_H-M   'P 21/c'
_symmetry_Int_Tables_number      14
_space_group_name_Hall           '-P 2ybc'
loop_
_symmetry_equiv_pos_site_id
_symmetry_equiv_pos_as_xyz
1 x,y,z
2 -x,1/2+y,1/2-z
3 -x,-y,-z
4 x,1/2-y,1/2+z
_cell_length_a                   13.734(2)
_cell_length_b                   14.564(2)
_cell_length_c                   21.080(3)
_cell_angle_alpha                90
_cell_angle_beta                 103.102(2)
_cell_angle_gamma                90
_cell_volume                     4106.7
_exptl_crystal_colour            red
_exptl_crystal_description       plate
_cell_formula_units_Z            4
loop_
_atom_site_label
_atom_site_type_symbol
_atom_site_fract_x
_atom_site_fract_y
_atom_site_fract_z
F1 F 0.13871(12) 1.10582(11) 0.13456(8)
F2 F 0.16129(14) 1.10969(11) 0.24447(8)
F3 F -0.36383(13) 0.23180(12) -0.00988(8)
F4 F -0.31135(15) 0.15079(11) 0.08342(8)
N1 N 0.32532(16) 0.47408(14) 0.20452(10)
N2 N 0.08873(16) 0.97347(14) 0.18730(9)
N3 N -0.19399(17) 0.17698(14) 0.01631(9)
N4 N -0.24687(17) 0.30356(15) 0.07919(10)
N5 N 0.30033(17) 0.47317(14) 0.08714(10)
N6 N 0.26747(16) 1.01084(14) 0.19801(10)
C1 C 0.2111(2) 0.85237(17) 0.19824(11)
C2 C 0.11244(19) 0.88018(17) 0.19132(11)
C3 C 0.27940(19) 0.61802(17) 0.14312(11)
C4 C -0.1516(2) 0.34147(17) 0.08859(11)
C5 C 0.29236(18) 0.56837(16) 0.20095(11)
C6 C 0.27730(19) 0.61021(17) 0.25711(12)
H1 H 0.2860 0.5765 0.2955
C7 C -0.0786(2) 0.29933(17) 0.06125(11)
C8 C 0.0202(2) 0.34288(16) 0.06904(11)
C9 C 0.2888(2) 0.91670(16) 0.20213(11)
C10 C 0.2495(2) 0.70149(17) 0.25660(12)
H2 H 0.2389 0.7286 0.2944
C11 C 0.0471(2) 0.38573(18) 0.01586(12)
H3 H 0.0023 0.3854 -0.0245
C12 C 0.0884(2) 0.34619(17) 0.12942(12)
H4 H 0.0730 0.3165 0.1649
C13 C 0.2054(2) 0.43154(17) 0.08269(12)
C14 C -0.0998(2) 0.21824(17) 0.02516(11)
C15 C 0.1374(2) 0.42780(18) 0.02212(12)
H5 H 0.1541 0.4543 -0.0141
C16 C 0.2456(2) 0.40696(17) 0.20507(12)
H6 H 0.2054 0.4280 0.2345
H7 H 0.2755 0.3487 0.2213
C17 C 0.2942(2) 0.57436(17) 0.08079(12)
H8 H 0.2388 0.5907 0.0451
H9 H 0.3552 0.5977 0.0708
C18 C -0.0380(2) 0.16042(18) -0.00391(11)
C19 C 0.2372(2) 0.75305(17) 0.19949(11)
C20 C -0.0126(2) 0.9808(2) 0.17472(11)
C21 C 0.3928(2) 0.90621(18) 0.20766(13)
C22 C 0.0685(2) 0.17199(19) -0.00758(13)
H10 H 0.0736 0.2210 -0.0371
H11 H 0.0923 0.1161 -0.0229
H12 H 0.1083 0.1863 0.0349
C23 C 0.2522(2) 0.71067(16) 0.14327(12)
H13 H 0.2441 0.7446 0.1050
C24 C -0.1918(2) 0.09762(18) -0.01632(12)
C25 C -0.1514(2) 0.42573(18) 0.12404(12)
C26 C 0.1783(2) 0.39264(16) 0.13746(12)
C27 C -0.0546(2) 0.8935(2) 0.17204(12)
H14 H -0.1226 0.8806 0.1647
C28 C -0.3046(2) 0.3603(2) 0.10671(13)
C29 C 0.3530(2) 1.05674(19) 0.20069(13)
C30 C 0.0209(2) 0.82945(19) 0.18193(12)
C31 C 0.3682(2) 0.45154(19) 0.14892(13)
H15 H 0.4299 0.4855 0.1524
H16 H 0.3841 0.3866 0.1501
C32 C -0.0967(2) 0.08681(19) -0.02956(12)
H17 H -0.0767 0.0379 -0.0520
C33 C -0.0682(2) 0.49247(18) 0.14641(13)
H18 H -0.0202 0.4667 0.1823
H19 H -0.0944 0.5483 0.1600
H20 H -0.0363 0.5053 0.1113
B1 B 0.1633(2) 1.0537(2) 0.19109(13)
C34 C 0.4317(2) 0.9941(2) 0.20738(14)
H21 H 0.4987 1.0088 0.2110
C35 C -0.0652(2) 1.0713(2) 0.16449(15)
H22 H -0.0337 1.1133 0.1980
H23 H -0.1339 1.0632 0.1663
H24 H -0.0618 1.0955 0.1227
C36 C 0.4558(2) 0.8198(2) 0.21247(17)
H25 H 0.4331 0.7760 0.2399
H26 H 0.5245 0.8347 0.2307
H27 H 0.4496 0.7941 0.1698
B2 B -0.2836(3) 0.2137(2) 0.04185(15)
C37 C -0.2447(2) 0.43513(19) 0.13432(13)
H28 H -0.2660 0.4838 0.1564
C38 C -0.2784(3) 0.0341(2) -0.03366(15)
H29 H -0.2971 0.0140 0.0053
H30 H -0.2604 -0.0182 -0.0563
H31 H -0.3338 0.0653 -0.0612
C39 C 0.0062(2) 0.7277(2) 0.17914(16)
H32 H 0.0258 0.7037 0.1415
H33 H -0.0630 0.7139 0.1765
H34 H 0.0464 0.7002 0.2177
C40 C -0.4107(3) 0.3429(3) 0.10588(18)
H35 H -0.4522 0.3756 0.0703
H36 H -0.4249 0.3634 0.1461
H37 H -0.4241 0.2783 0.1007
C41 C 0.3567(3) 1.1589(2) 0.1954(2)
H38 H 0.3320 1.1768 0.1508
H39 H 0.4245 1.1795 0.2101
H40 H 0.3160 1.1861 0.2218
loop_
_geom_bond_atom_site_label_1
_geom_bond_atom_site_label_2
_geom_bond_site_symmetry_1
_geom_bond_site_symmetry_2
F1 B1 1_555 1_555
F2 B1 1_555 1_555
F3 B2 1_555 1_555
F4 B2 1_555 1_555
N1 C5 1_555 1_555
N2 C2 1_555 1_555
N3 C14 1_555 1_555
N4 C4 1_555 1_555
N5 C13 1_555 1_555
N6 C9 1_555 1_555
C1 C2 1_555 1_555
C2 C30 1_555 1_555
C3 C5 1_555 1_555
C4 C7 1_555 1_555
C5 C6 1_555 1_555
C6 H1 1_555 1_555
C7 C8 1_555 1_555
C8 C11 1_555 1_555
C9 C1 1_555 1_555
C10 C6 1_555 1_555
H2 C10 1_555 1_555
C11 H3 1_555 1_555
C12 C8 1_555 1_555
H4 C12 1_555 1_555
C13 C15 1_555 1_555
C14 C7 1_555 1_555
C15 C11 1_555 1_555
H5 C15 1_555 1_555
C16 N1 1_555 1_555
H6 C16 1_555 1_555
H7 C16 1_555 1_555
C17 N5 1_555 1_555
H8 C17 1_555 1_555
H9 C17 1_555 1_555
C18 C14 1_555 1_555
C19 C1 1_555 1_555
C20 N2 1_555 1_555
C21 C9 1_555 1_555
C22 C18 1_555 1_555
H10 C22 1_555 1_555
H11 C22 1_555 1_555
H12 C22 1_555 1_555
C23 C3 1_555 1_555
H13 C23 1_555 1_555
C24 N3 1_555 1_555
C25 C4 1_555 1_555
C26 C12 1_555 1_555
C27 C20 1_555 1_555
H14 C27 1_555 1_555
C28 N4 1_555 1_555
C29 N6 1_555 1_555
C30 C27 1_555 1_555
C31 N1 1_555 1_555
H15 C31 1_555 1_555
H16 C31 1_555 1_555
C32 C18 1_555 1_555
H17 C32 1_555 1_555
C33 C25 1_555 1_555
H18 C33 1_555 1_555
H19 C33 1_555 1_555
H20 C33 1_555 1_555
B1 N2 1_555 1_555
C34 C21 1_555 1_555
H21 C34 1_555 1_555
C35 C20 1_555 1_555
H22 C35 1_555 1_555
H23 C35 1_555 1_555
H24 C35 1_555 1_555
C36 C21 1_555 1_555
H25 C36 1_555 1_555
H26 C36 1_555 1_555
H27 C36 1_555 1_555
B2 N3 1_555 1_555
C37 C25 1_555 1_555
H28 C37 1_555 1_555
C38 C24 1_555 1_555
H29 C38 1_555 1_555
H30 C38 1_555 1_555
H31 C38 1_555 1_555
C39 C30 1_555 1_555
H32 C39 1_555 1_555
H33 C39 1_555 1_555
H34 C39 1_555 1_555
C40 C28 1_555 1_555
H35 C40 1_555 1_555
H36 C40 1_555 1_555
H37 C40 1_555 1_555
C41 C29 1_555 1_555
H38 C41 1_555 1_555
H39 C41 1_555 1_555
H40 C41 1_555 1_555
N4 B2 1_555 1_555
N5 C31 1_555 1_555
N6 B1 1_555 1_555
C3 C17 1_555 1_555
C10 C19 1_555 1_555
C13 C26 1_555 1_555
C16 C26 1_555 1_555
C19 C23 1_555 1_555
C24 C32 1_555 1_555
C28 C37 1_555 1_555
C29 C34 1_555 1_555

#END
