
#######################################################################
#
#                 Cambridge Crystallographic Data Centre
#                                CCDC 
#
#######################################################################
#
# If this CIF has been generated from an entry in the Cambridge 
# Structural Database, then it will include bibliographic, chemical, 
# crystal, experimental, refinement or atomic coordinate data resulting 
# from the CCDC's data processing and validation procedures.
#
#######################################################################

data_LATNAY
_chemical_formula_moiety         'C25 H24 F3 N4 O3 1+,Cl1 1-'
_chemical_name_systematic        
'1-(3-{[1-(2,6-difluorophenyl)-6-oxo-1,6-dihydropyridazin-3-yl]oxy}propyl)-4-(6-fluoro-1,2-benzoxazol-3-yl)piperidin-1-ium chloride unknown solvate'
_symmetry_cell_setting           monoclinic
_symmetry_space_group_name_H-M   'P 21/n'
_symmetry_Int_Tables_number      14
_space_group_name_Hall           '-P 2yn'
loop_
_symmetry_equiv_pos_site_id
_symmetry_equiv_pos_as_xyz
1 x,y,z
2 1/2-x,1/2+y,1/2-z
3 -x,-y,-z
4 1/2+x,1/2-y,1/2+z
_cell_length_a                   18.411(9)
_cell_length_b                   6.936(3)
_cell_length_c                   19.782(9)
_cell_angle_alpha                90
_cell_angle_beta                 99.044(9)
_cell_angle_gamma                90
_cell_volume                     2494.73
_exptl_crystal_colour            colorless
_exptl_crystal_description       block
_cell_formula_units_Z            4
loop_
_atom_site_label
_atom_site_type_symbol
_atom_site_fract_x
_atom_site_fract_y
_atom_site_fract_z
F1 F 0.2239(2) 0.0935(6) 0.4644(2)
F2 F 1.0366(2) 0.8834(5) 0.3864(2)
F3 F 1.19064(19) 0.4169(4) 0.31585(18)
O1 O 0.3936(3) -0.2238(8) 0.3483(3)
O2 O 0.9529(2) 0.2206(5) 0.4340(2)
O3 O 1.2075(2) 0.5899(5) 0.46741(19)
N1 N 0.4604(3) -0.1543(9) 0.3291(3)
N2 N 0.7000(3) 0.1295(7) 0.3421(3)
H1 H 0.7072 -0.0101 0.3470
N3 N 1.0293(2) 0.4294(6) 0.3919(2)
N4 N 1.0973(2) 0.5206(6) 0.4049(2)
C1 C 0.3671(3) -0.0765(9) 0.3834(3)
C2 C 0.3028(3) -0.0769(9) 0.4073(3)
H2 H 0.2709 -0.1816 0.4027
C3 C 0.2890(3) 0.0880(9) 0.4384(3)
C4 C 0.3322(3) 0.2492(9) 0.4466(3)
H3 H 0.3176 0.3573 0.4688
C5 C 0.3972(3) 0.2487(10) 0.4217(3)
H4 H 0.4283 0.3552 0.4262
C6 C 0.4150(3) 0.0773(10) 0.3887(3)
C7 C 0.4735(3) 0.0144(11) 0.3530(3)
C8 C 0.5408(3) 0.1239(10) 0.3455(3)
H5 H 0.5282 0.2610 0.3403
C9 C 0.5743(3) 0.0598(12) 0.2838(3)
H6 H 0.5830 -0.0781 0.2864
H7 H 0.5402 0.0862 0.2424
C10 C 0.6455(3) 0.1625(11) 0.2810(4)
H8 H 0.6654 0.1191 0.2410
H9 H 0.6360 0.2998 0.2760
C11 C 0.6689(3) 0.2010(10) 0.4053(3)
H10 H 0.7044 0.1779 0.4462
H11 H 0.6598 0.3386 0.4015
C12 C 0.5994(3) 0.0982(11) 0.4106(3)
H12 H 0.5797 0.1463 0.4500
H13 H 0.6097 -0.0381 0.4177
C13 C 0.7714(3) 0.2150(9) 0.3321(4)
H14 H 0.7671 0.3544 0.3315
H15 H 0.7830 0.1744 0.2881
C14 C 0.8323(3) 0.1571(10) 0.3870(4)
H16 H 0.8384 0.0181 0.3870
H17 H 0.8211 0.1956 0.4313
C15 C 0.9014(4) 0.2531(8) 0.3739(4)
H18 H 0.9185 0.1971 0.3344
H19 H 0.8935 0.3901 0.3661
C16 C 1.0161(3) 0.3144(7) 0.4402(3)
C17 C 1.0646(4) 0.2771(8) 0.5008(3)
H20 H 1.0517 0.1904 0.5328
C18 C 1.1292(4) 0.3671(8) 0.5121(3)
H21 H 1.1619 0.3431 0.5521
C19 C 1.1489(3) 0.5031(7) 0.4620(2)
C20 C 1.1122(3) 0.6475(7) 0.3518(2)
C21 C 1.0831(3) 0.8284(8) 0.3435(3)
C22 C 1.0997(3) 0.9548(8) 0.2945(3)
H22 H 1.0782 1.0763 0.2895
C23 C 1.1488(3) 0.8967(8) 0.2535(3)
H23 H 1.1617 0.9812 0.2208
C24 C 1.1796(3) 0.7151(8) 0.2597(3)
H24 H 1.2126 0.6754 0.2314
C25 C 1.1601(3) 0.5953(7) 0.3087(3)
Cl1 Cl 0.71965(11) 0.6952(2) 0.34895(8)
loop_
_geom_bond_atom_site_label_1
_geom_bond_atom_site_label_2
_geom_bond_site_symmetry_1
_geom_bond_site_symmetry_2
F1 C3 1_555 1_555
F2 C21 1_555 1_555
F3 C25 1_555 1_555
O1 N1 1_555 1_555
O2 C15 1_555 1_555
O3 C19 1_555 1_555
N1 C7 1_555 1_555
N2 H1 1_555 1_555
N3 N4 1_555 1_555
N4 C19 1_555 1_555
C1 O1 1_555 1_555
C2 C1 1_555 1_555
H2 C2 1_555 1_555
C3 C2 1_555 1_555
C4 C3 1_555 1_555
H3 C4 1_555 1_555
C5 C4 1_555 1_555
H4 C5 1_555 1_555
C6 C1 1_555 1_555
C7 C6 1_555 1_555
C8 C7 1_555 1_555
H5 C8 1_555 1_555
C9 C8 1_555 1_555
H6 C9 1_555 1_555
H7 C9 1_555 1_555
C10 N2 1_555 1_555
H8 C10 1_555 1_555
H9 C10 1_555 1_555
C11 N2 1_555 1_555
H10 C11 1_555 1_555
H11 C11 1_555 1_555
C12 C8 1_555 1_555
H12 C12 1_555 1_555
H13 C12 1_555 1_555
C13 N2 1_555 1_555
H14 C13 1_555 1_555
H15 C13 1_555 1_555
C14 C13 1_555 1_555
H16 C14 1_555 1_555
H17 C14 1_555 1_555
C15 C14 1_555 1_555
H18 C15 1_555 1_555
H19 C15 1_555 1_555
C16 O2 1_555 1_555
C17 C16 1_555 1_555
H20 C17 1_555 1_555
C18 C17 1_555 1_555
H21 C18 1_555 1_555
C19 C18 1_555 1_555
C20 N4 1_555 1_555
C21 C20 1_555 1_555
C22 C21 1_555 1_555
H22 C22 1_555 1_555
C23 C22 1_555 1_555
H23 C23 1_555 1_555
C24 C23 1_555 1_555
H24 C24 1_555 1_555
C25 C20 1_555 1_555
N3 C16 1_555 1_555
C5 C6 1_555 1_555
C9 C10 1_555 1_555
C11 C12 1_555 1_555
C24 C25 1_555 1_555

#END
