
#######################################################################
#
#                 Cambridge Crystallographic Data Centre
#                                CCDC 
#
#######################################################################
#
# If this CIF has been generated from an entry in the Cambridge 
# Structural Database, then it will include bibliographic, chemical, 
# crystal, experimental, refinement or atomic coordinate data resulting 
# from the CCDC's data processing and validation procedures.
#
#######################################################################

data_LATTOR01
_chemical_name_common            'Pyrazinamide hemikis(succinic acid)'
_chemical_formula_moiety         'C5 H5 N3 O1,0.5(C4 H6 O4)'
_chemical_name_systematic        'Pyrazine-2-carboxamide hemikis(succinic acid)'
_symmetry_cell_setting           monoclinic
_symmetry_space_group_name_H-M   'P 21/c'
_symmetry_Int_Tables_number      14
_space_group_name_Hall           '-P 2ybc'
loop_
_symmetry_equiv_pos_site_id
_symmetry_equiv_pos_as_xyz
1 x,y,z
2 -x,1/2+y,1/2-z
3 -x,-y,-z
4 x,1/2-y,1/2+z
_cell_length_a                   3.8840(8)
_cell_length_b                   17.364(3)
_cell_length_c                   12.699(3)
_cell_angle_alpha                90
_cell_angle_beta                 101.54(3)
_cell_angle_gamma                90
_cell_volume                     839.13
_cell_formula_units_Z            4
loop_
_atom_site_label
_atom_site_type_symbol
_atom_site_fract_x
_atom_site_fract_y
_atom_site_fract_z
O1 O 0.0998(4) -0.13735(7) 0.45675(11)
O2 O 0.2314(4) -0.07755(7) 0.31597(10)
H1 H 0.2777 -0.1214 0.2993
C1 C 0.0336(5) -0.00025(10) 0.44358(13)
H2 H -0.1737 0.0187 0.3948
H3 H 0.2260 0.0346 0.4397
C2 C 0.1225(5) -0.07921(10) 0.40756(14)
O1B O -0.0998(4) 0.13735(7) 0.54325(11)
O2B O -0.2314(4) 0.07755(7) 0.68403(10)
H1B H -0.2777 0.1214 0.7007
C1B C -0.0336(5) 0.00025(10) 0.55642(13)
H2B H 0.1737 -0.0187 0.6052
H3B H -0.2260 -0.0346 0.5603
C2B C -0.1225(5) 0.07921(10) 0.59244(14)
O3 O -0.5444(5) -0.39480(8) 0.48324(11)
N1 N -0.5401(4) -0.21750(9) 0.26713(12)
N2 N -0.3268(4) -0.36584(9) 0.22871(12)
N3 N -0.3673(5) -0.48008(9) 0.37155(13)
H4 H -0.3775 -0.5182 0.4140
H5 H -0.3030 -0.4875 0.3113
C3 C -0.4332(5) -0.23541(11) 0.17729(15)
H6 H -0.4313 -0.1975 0.1257
C4 C -0.3241(5) -0.30932(11) 0.15832(14)
H7 H -0.2474 -0.3195 0.0949
C5 C -0.4335(5) -0.34777(10) 0.31919(14)
C6 C -0.5378(5) -0.27389(10) 0.33812(14)
H8 H -0.6086 -0.2633 0.4024
C7 C -0.4498(6) -0.41055(10) 0.39870(15)
loop_
_geom_bond_atom_site_label_1
_geom_bond_atom_site_label_2
_geom_bond_site_symmetry_1
_geom_bond_site_symmetry_2
O1 C2 1_555 1_555
O2 H1 1_555 1_555
C1 H2 1_555 1_555
H3 C1 1_555 1_555
C2 O2 1_555 1_555
O3 C7 1_555 1_555
N1 C3 1_555 1_555
N2 C4 1_555 1_555
N3 H4 1_555 1_555
H5 N3 1_555 1_555
C3 H6 1_555 1_555
C4 C3 1_555 1_555
H7 C4 1_555 1_555
C5 N2 1_555 1_555
C6 N1 1_555 1_555
H8 C6 1_555 1_555
C7 N3 1_555 1_555
O1B C2B 1_555 1_555
O2B H1B 1_555 1_555
C1B C1 1_555 1_555
H2B C1B 1_555 1_555
H3B C1B 1_555 1_555
C2B O2B 1_555 1_555
C1 C2 1_555 1_555
C5 C6 1_555 1_555
C5 C7 1_555 1_555
C1B C2B 1_555 1_555

#END
