
#######################################################################
#
#                 Cambridge Crystallographic Data Centre
#                                CCDC 
#
#######################################################################
#
# If this CIF has been generated from an entry in the Cambridge 
# Structural Database, then it will include bibliographic, chemical, 
# crystal, experimental, refinement or atomic coordinate data resulting 
# from the CCDC's data processing and validation procedures.
#
#######################################################################

data_LAVDUH
_chemical_formula_moiety         'C16 H14 O2'
_chemical_name_systematic        1,2-bis(2-Methoxyphenyl)acetylene
_symmetry_cell_setting           orthorhombic
_symmetry_space_group_name_H-M   'P b c a'
_symmetry_Int_Tables_number      61
_space_group_name_Hall           '-P 2ac 2ab'
loop_
_symmetry_equiv_pos_site_id
_symmetry_equiv_pos_as_xyz
1 x,y,z
2 1/2-x,1/2+y,z
3 x,1/2-y,1/2+z
4 1/2-x,-y,1/2+z
5 -x,-y,-z
6 1/2+x,1/2-y,-z
7 -x,1/2+y,1/2-z
8 1/2+x,y,1/2-z
_cell_length_a                   12.4588(11)
_cell_length_b                   7.8993(5)
_cell_length_c                   13.222(2)
_cell_angle_alpha                90
_cell_angle_beta                 90
_cell_angle_gamma                90
_cell_volume                     1301.25
_exptl_crystal_colour            Colorless
_cell_formula_units_Z            4
loop_
_atom_site_label
_atom_site_type_symbol
_atom_site_fract_x
_atom_site_fract_y
_atom_site_fract_z
O1 O 0.25708(8) 0.0650(2) 0.50833(7)
C1 C 0.2980(1) 0.1342(2) 0.59400(9)
C2 C 0.2384(1) 0.2183(2) 0.6668(1)
C3 C 0.2885(2) 0.2812(2) 0.7520(1)
C4 C 0.3975(2) 0.2638(2) 0.7652(1)
C5 C 0.4572(1) 0.1826(2) 0.6930(1)
C6 C 0.4093(1) 0.1170(2) 0.60610(9)
C7 C 0.4722(1) 0.0340(2) 0.53066(9)
C8 C 0.1433(1) 0.0608(3) 0.4975(1)
H1 H 0.157(1) 0.236(2) 0.653(1)
H2 H 0.246(2) 0.337(3) 0.804(2)
H3 H 0.434(1) 0.305(3) 0.834(2)
H4 H 0.536(1) 0.169(2) 0.703(1)
H5 H 0.111(1) 0.009(2) 0.559(1)
H6 H 0.128(1) -0.006(3) 0.428(2)
H7 H 0.119(2) 0.169(2) 0.486(1)
C7D C 0.5278(1) -0.0340(2) 0.46934(9)
C6D C 0.5907(1) -0.1170(2) 0.39390(9)
C1D C 0.7020(1) -0.1342(2) 0.40600(9)
C5D C 0.5428(1) -0.1826(2) 0.3070(1)
O1D O 0.74292(8) -0.0650(2) 0.49167(7)
C2D C 0.7616(1) -0.2183(2) 0.3332(1)
C4D C 0.6025(2) -0.2638(2) 0.2348(1)
H4D H 0.464(1) -0.169(2) 0.297(1)
C8D C 0.8567(1) -0.0608(3) 0.5025(1)
C3D C 0.7115(2) -0.2812(2) 0.2480(1)
H1D H 0.843(1) -0.236(2) 0.347(1)
H3D H 0.566(1) -0.305(3) 0.166(2)
H5D H 0.889(1) -0.009(2) 0.441(1)
H6D H 0.872(1) 0.006(3) 0.572(2)
H7D H 0.881(2) -0.169(2) 0.514(1)
H2D H 0.754(2) -0.337(3) 0.196(2)
loop_
_geom_bond_atom_site_label_1
_geom_bond_atom_site_label_2
_geom_bond_site_symmetry_1
_geom_bond_site_symmetry_2
O1 C1 1_555 1_555
C1 C2 1_555 1_555
C2 C3 1_555 1_555
C3 C4 1_555 1_555
C4 C5 1_555 1_555
C5 C6 1_555 1_555
C6 C1 1_555 1_555
C7 C6 1_555 1_555
C8 O1 1_555 1_555
H1 C2 1_555 1_555
H2 C3 1_555 1_555
H3 C4 1_555 1_555
H4 C5 1_555 1_555
H5 C8 1_555 1_555
H6 C8 1_555 1_555
H7 C8 1_555 1_555
C7D C7 1_555 1_555
C6D C7D 1_555 1_555
C1D C6D 1_555 1_555
C5D C6D 1_555 1_555
O1D C1D 1_555 1_555
C2D C1D 1_555 1_555
C4D C5D 1_555 1_555
H4D C5D 1_555 1_555
C8D O1D 1_555 1_555
C3D C2D 1_555 1_555
H1D C2D 1_555 1_555
H3D C4D 1_555 1_555
H5D C8D 1_555 1_555
H6D C8D 1_555 1_555
H7D C8D 1_555 1_555
H2D C3D 1_555 1_555
C4D C3D 1_555 1_555

#END
