
#######################################################################
#
#                 Cambridge Crystallographic Data Centre
#                                CCDC 
#
#######################################################################
#
# If this CIF has been generated from an entry in the Cambridge 
# Structural Database, then it will include bibliographic, chemical, 
# crystal, experimental, refinement or atomic coordinate data resulting 
# from the CCDC's data processing and validation procedures.
#
#######################################################################

data_LAVPUW
_chemical_formula_moiety         'C20 H23 Cl1 O5'
_chemical_name_systematic        
'ethyl 1-(1-(3-chlorophenyl)-2-(ethoxycarbonyl)prop-2-en-1-yl)-2-oxocyclopentanecarboxylate'
_symmetry_cell_setting           monoclinic
_symmetry_space_group_name_H-M   'P 21'
_symmetry_Int_Tables_number      4
_space_group_name_Hall           'P 2yb'
loop_
_symmetry_equiv_pos_site_id
_symmetry_equiv_pos_as_xyz
1 x,y,z
2 -x,1/2+y,-z
_cell_length_a                   10.057(3)
_cell_length_b                   6.199(2)
_cell_length_c                   16.211(5)
_cell_angle_alpha                90
_cell_angle_beta                 106.079(7)
_cell_angle_gamma                90
_cell_volume                     971.112
_exptl_crystal_colour            colorless
_exptl_crystal_description       prismatic
_cell_formula_units_Z            2
loop_
_atom_site_label
_atom_site_type_symbol
_atom_site_fract_x
_atom_site_fract_y
_atom_site_fract_z
Cl1 Cl 0.07903(13) 0.1799(4) 0.58082(10)
O1 O 0.5979(4) 0.0790(6) 0.5962(2)
O2 O 0.9351(4) 0.4405(7) 0.7556(3)
O3 O 0.8496(3) 0.1087(6) 0.7532(2)
O4 O 0.5477(5) 0.0464(7) 0.8738(3)
O5 O 0.6604(4) 0.2582(7) 0.9816(2)
C1 C 0.6516(5) 0.2520(9) 0.6048(3)
C2 C 0.6851(6) 0.3821(11) 0.5369(3)
H1 H 0.6034 0.4019 0.4890
H2 H 0.7556 0.3110 0.5163
C3 C 0.7366(6) 0.5939(10) 0.5762(4)
H3 H 0.6996 0.7110 0.5369
H4 H 0.8369 0.5995 0.5915
C4 C 0.6849(5) 0.6092(9) 0.6567(3)
H5 H 0.7436 0.7042 0.6990
H6 H 0.5908 0.6636 0.6423
C5 C 0.6914(4) 0.3808(8) 0.6907(3)
C6 C 0.5945(4) 0.3148(7) 0.7468(3)
H7 H 0.5863 0.1575 0.7423
C7 C 0.6523(5) 0.3627(8) 0.8412(3)
C8 C 0.7276(7) 0.5305(11) 0.8724(4)
H8 H 0.7583 0.5509 0.9315
H9 H 0.7506 0.6298 0.8356
C9 C 0.6149(5) 0.2040(9) 0.8989(3)
C10 C 0.6234(7) 0.1227(13) 1.0439(4)
H10 H 0.5358 0.0527 1.0172
H11 H 0.6112 0.2117 1.0904
C11 C 0.7270(9) -0.0402(14) 1.0785(5)
H12 H 0.7343 -0.1357 1.0333
H13 H 0.7005 -0.1211 1.1219
H14 H 0.8147 0.0280 1.1032
C12 C 0.4484(5) 0.4012(8) 0.7137(3)
C13 C 0.4145(5) 0.6114(9) 0.7325(3)
H15 H 0.4833 0.7018 0.7646
C14 C 0.2822(5) 0.6846(10) 0.7043(4)
H16 H 0.2617 0.8244 0.7176
C15 C 0.1782(6) 0.5555(11) 0.6564(4)
H17 H 0.0879 0.6063 0.6371
C16 C 0.2105(5) 0.3521(11) 0.6379(3)
C17 C 0.3439(4) 0.2742(8) 0.6657(3)
H18 H 0.3631 0.1342 0.6518
C18 C 0.8392(5) 0.3198(8) 0.7368(3)
C19 C 0.9847(6) 0.0244(13) 0.7981(5)
H19 H 1.0563 0.1146 0.7866
H20 H 0.9951 -0.1203 0.7780
C20 C 0.9992(8) 0.0204(16) 0.8902(5)
H21 H 0.9998 0.1654 0.9111
H22 H 1.0844 -0.0497 0.9194
H23 H 0.9230 -0.0572 0.9009
loop_
_geom_bond_atom_site_label_1
_geom_bond_atom_site_label_2
_geom_bond_site_symmetry_1
_geom_bond_site_symmetry_2
Cl1 C16 1_555 1_555
O1 C1 1_555 1_555
O2 C18 1_555 1_555
O3 C18 1_555 1_555
O4 C9 1_555 1_555
O5 C9 1_555 1_555
C1 C2 1_555 1_555
C2 H1 1_555 1_555
H2 C2 1_555 1_555
C3 C2 1_555 1_555
H3 C3 1_555 1_555
H4 C3 1_555 1_555
C4 C3 1_555 1_555
H5 C4 1_555 1_555
H6 C4 1_555 1_555
C5 C1 1_555 1_555
C6 C5 1_555 1_555
H7 C6 1_555 1_555
C7 C6 1_555 1_555
C8 C7 1_555 1_555
H8 C8 1_555 1_555
H9 C8 1_555 1_555
C9 C7 1_555 1_555
C10 O5 1_555 1_555
H10 C10 1_555 1_555
H11 C10 1_555 1_555
C11 C10 1_555 1_555
H12 C11 1_555 1_555
H13 C11 1_555 1_555
H14 C11 1_555 1_555
C12 C6 1_555 1_555
C13 C12 1_555 1_555
H15 C13 1_555 1_555
C14 C13 1_555 1_555
H16 C14 1_555 1_555
C15 C14 1_555 1_555
H17 C15 1_555 1_555
C16 C15 1_555 1_555
C17 C12 1_555 1_555
H18 C17 1_555 1_555
C18 C5 1_555 1_555
C19 O3 1_555 1_555
H19 C19 1_555 1_555
H20 C19 1_555 1_555
C20 C19 1_555 1_555
H21 C20 1_555 1_555
H22 C20 1_555 1_555
H23 C20 1_555 1_555
C4 C5 1_555 1_555
C16 C17 1_555 1_555

#END
