
#######################################################################
#
#                 Cambridge Crystallographic Data Centre
#                                CCDC 
#
#######################################################################
#
# If this CIF has been generated from an entry in the Cambridge 
# Structural Database, then it will include bibliographic, chemical, 
# crystal, experimental, refinement or atomic coordinate data resulting 
# from the CCDC's data processing and validation procedures.
#
#######################################################################

data_LAVQEH
_chemical_formula_moiety         'C18 H20 O4'
_chemical_name_systematic        
'ethyl 3-methylene-2-oxo-4-phenylhexahydrocyclopenta[b]pyran-4a(2H)-carboxylate'
_symmetry_cell_setting           monoclinic
_symmetry_space_group_name_H-M   'P 21'
_symmetry_Int_Tables_number      4
_space_group_name_Hall           'P 2yb'
loop_
_symmetry_equiv_pos_site_id
_symmetry_equiv_pos_as_xyz
1 x,y,z
2 -x,1/2+y,-z
_cell_length_a                   6.1489(10)
_cell_length_b                   13.968(2)
_cell_length_c                   9.2189(16)
_cell_angle_alpha                90
_cell_angle_beta                 93.310(4)
_cell_angle_gamma                90
_cell_volume                     790.47
_exptl_crystal_colour            colorless
_exptl_crystal_description       prismatic
_cell_formula_units_Z            2
loop_
_atom_site_label
_atom_site_type_symbol
_atom_site_fract_x
_atom_site_fract_y
_atom_site_fract_z
O1 O 1.2563(4) 0.5432(2) 0.6164(3)
O2 O 1.2049(3) 0.6046(2) 0.3996(3)
O3 O 0.8588(5) 0.6132(2) 0.0173(3)
O4 O 0.5459(4) 0.5734(2) 0.1114(2)
C1 C 1.1282(5) 0.5667(2) 0.5188(4)
C2 C 0.8904(5) 0.5525(2) 0.5209(3)
C3 C 0.7685(5) 0.5411(2) 0.3759(3)
H1 H 0.6131 0.5467 0.3925
C4 C 0.8259(5) 0.6247(2) 0.2765(3)
C5 C 1.0716(6) 0.6504(3) 0.2846(4)
C6 C 1.0763(18) 0.7584(7) 0.2837(10)
H2 H 1.0480 0.7835 0.1863
H3 H 1.2152 0.7826 0.3233
C7 C 0.8877(11) 0.7842(5) 0.3839(8)
H4 H 0.9272 0.7706 0.4852
H5 H 0.8447 0.8508 0.3736
C8 C 0.7153(7) 0.7187(3) 0.3242(5)
C9 C 0.7994(6) 0.5487(4) 0.6455(4)
H6 H 0.8843 0.5548 0.7318
H7 H 0.6498 0.5397 0.6479
C10 C 0.8041(5) 0.4418(2) 0.3155(3)
C11 C 0.6458(6) 0.3726(3) 0.3326(4)
H8 H 0.5220 0.3884 0.3808
C12 C 0.6679(8) 0.2806(3) 0.2798(6)
H9 H 0.5599 0.2354 0.2933
C13 C 0.8483(9) 0.2560(3) 0.2077(5)
H10 H 0.8624 0.1946 0.1703
C14 C 1.0070(8) 0.3228(3) 0.1916(5)
H11 H 1.1314 0.3062 0.1447
C15 C 0.9860(6) 0.4147(3) 0.2438(4)
H12 H 1.0957 0.4592 0.2306
C16 C 0.7519(5) 0.6031(2) 0.1205(3)
C17 C 0.4546(7) 0.5435(4) -0.0317(4)
H13 H 0.5115 0.5841 -0.1059
H14 H 0.2975 0.5508 -0.0357
C18 C 0.5099(11) 0.4429(4) -0.0609(5)
H15 H 0.6646 0.4370 -0.0673
H16 H 0.4375 0.4230 -0.1509
H17 H 0.4637 0.4032 0.0166
H18 H 1.137(6) 0.626(3) 0.204(4)
H19 H 0.630(9) 0.704(4) 0.405(6)
H20 H 0.632(7) 0.746(4) 0.248(5)
C19? C 1.094(3) 0.7578(11) 0.3329(17)
H21? H 1.1189 0.7632 0.4374
H22? H 1.2123 0.7892 0.2861
C20? C 0.8805(16) 0.7983(8) 0.2832(14)
H23? H 0.8730 0.8097 0.1792
H24? H 0.8527 0.8579 0.3329
loop_
_geom_bond_atom_site_label_1
_geom_bond_atom_site_label_2
_geom_bond_site_symmetry_1
_geom_bond_site_symmetry_2
O1 C1 1_555 1_555
O2 C1 1_555 1_555
O3 C16 1_555 1_555
O4 C16 1_555 1_555
C1 C2 1_555 1_555
C2 C3 1_555 1_555
C3 H1 1_555 1_555
C4 C3 1_555 1_555
C5 O2 1_555 1_555
C6 C5 1_555 1_555
H2 C6 1_555 1_555
H3 C6 1_555 1_555
C7 C6 1_555 1_555
H4 C7 1_555 1_555
H5 C7 1_555 1_555
C8 C4 1_555 1_555
C9 C2 1_555 1_555
H6 C9 1_555 1_555
H7 C9 1_555 1_555
C10 C3 1_555 1_555
C11 C10 1_555 1_555
H8 C11 1_555 1_555
C12 C11 1_555 1_555
H9 C12 1_555 1_555
C13 C12 1_555 1_555
H10 C13 1_555 1_555
C14 C13 1_555 1_555
H11 C14 1_555 1_555
C15 C10 1_555 1_555
H12 C15 1_555 1_555
C16 C4 1_555 1_555
C17 O4 1_555 1_555
H13 C17 1_555 1_555
H14 C17 1_555 1_555
C18 C17 1_555 1_555
H15 C18 1_555 1_555
H16 C18 1_555 1_555
H17 C18 1_555 1_555
H18 C5 1_555 1_555
H19 C8 1_555 1_555
H20 C8 1_555 1_555
C4 C5 1_555 1_555
C7 C8 1_555 1_555
C14 C15 1_555 1_555

#END
