
#######################################################################
#
#                 Cambridge Crystallographic Data Centre
#                                CCDC 
#
#######################################################################
#
# If this CIF has been generated from an entry in the Cambridge 
# Structural Database, then it will include bibliographic, chemical, 
# crystal, experimental, refinement or atomic coordinate data resulting 
# from the CCDC's data processing and validation procedures.
#
#######################################################################

data_LAVQEF
_chemical_formula_moiety         'C1 H6 N3 1+,C9 H11 O3 S1 1-'
_chemical_name_systematic        'Guanidinium 4-propylbenzenesulfonate'
_symmetry_cell_setting           orthorhombic
_symmetry_space_group_name_H-M   'P n m a'
_symmetry_Int_Tables_number      62
_space_group_name_Hall           '-P 2ac 2n'
loop_
_symmetry_equiv_pos_site_id
_symmetry_equiv_pos_as_xyz
1 x,y,z
2 1/2-x,-y,1/2+z
3 1/2+x,1/2-y,1/2-z
4 -x,1/2+y,-z
5 -x,-y,-z
6 1/2+x,y,1/2-z
7 1/2-x,1/2+y,1/2+z
8 x,1/2-y,z
_cell_length_a                   22.130(2)
_cell_length_b                   7.5101(8)
_cell_length_c                   7.6858(8)
_cell_angle_alpha                90
_cell_angle_beta                 90
_cell_angle_gamma                90
_cell_volume                     1277.37
_cell_formula_units_Z            4
loop_
_atom_site_label
_atom_site_type_symbol
_atom_site_fract_x
_atom_site_fract_y
_atom_site_fract_z
S1 S 0.35325(5) 0.2500 0.58789(15)
O1 O 0.29335(14) 0.2500 0.5075(5)
C1 C 0.4059(2) 0.2500 0.4185(6)
O2 O 0.36340(10) 0.0895(3) 0.6907(3)
C2 C 0.4656(3) 0.2500 0.4488(11)
H5 H 0.4802 0.2500 0.5623
C3 C 0.5065(4) 0.2500 0.3054(15)
H6 H 0.5479 0.2500 0.3260
C4 C 0.4857(4) 0.2500 0.1381(10)
C5 C 0.4262(4) 0.2500 0.1141(9)
H7 H 0.4111 0.2500 0.0012
C6 C 0.3869(3) 0.2500 0.2497(8)
H8 H 0.3456 0.2500 0.2267
C7 C 0.5248(4) 0.2500 -0.0435(12)
H9 H 0.5154 0.1451 -0.1119
C8 C 0.5865(4) 0.2500 0.0037(11)
H11 H 0.5969 0.1447 0.0703
C9 C 0.6195(4) 0.2500 -0.1856(11)
H13 H 0.6004 0.1640 -0.2599
O2G O 0.36340(10) 0.4105(3) 0.6907(3)
H9G H 0.5154 0.3549 -0.1119
H11G H 0.5969 0.3553 0.0703
H13G H 0.6004 0.3360 -0.2599
N1 N 0.26538(12) 0.0968(4) -0.0392(4)
H1 H 0.2494 -0.0021 -0.0066
H2 H 0.2978 0.0962 -0.1008
N2 N 0.19023(17) 0.2500 0.1006(5)
H3 H 0.1743 0.3492 0.1329
C10 C 0.2401(2) 0.2500 0.0057(6)
N1G N 0.26538(12) 0.4032(4) -0.0392(4)
H1G H 0.2494 0.5021 -0.0066
H2G H 0.2978 0.4038 -0.1008
H3G H 0.1743 0.1508 0.1329
H4? H 0.1737 0.1508 0.1300
H10? H 0.5154 0.3549 -0.1119
H12? H 0.5969 0.3553 0.0703
H14? H 0.6614 0.2199 -0.1715
H15? H 0.6162 0.3661 -0.2370
loop_
_geom_bond_atom_site_label_1
_geom_bond_atom_site_label_2
_geom_bond_site_symmetry_1
_geom_bond_site_symmetry_2
S1 O1 1_555 1_555
N1 H1 1_555 1_555
H2 N1 1_555 1_555
C1 S1 1_555 1_555
O2 S1 1_555 1_555
N2 H3 1_555 1_555
C2 C1 1_555 1_555
H5 C2 1_555 1_555
C3 C2 1_555 1_555
H6 C3 1_555 1_555
C4 C3 1_555 1_555
C5 C4 1_555 1_555
H7 C5 1_555 1_555
C6 C1 1_555 1_555
H8 C6 1_555 1_555
C7 C4 1_555 1_555
H9 C7 1_555 1_555
C8 C7 1_555 1_555
H11 C8 1_555 1_555
C9 C8 1_555 1_555
H13 C9 1_555 1_555
C10 N1 1_555 1_555
N1G C10 1_555 1_555
H1G N1G 1_555 1_555
H2G N1G 1_555 1_555
O2G S1 1_555 1_555
H3G N2 1_555 1_555
H9G C7 1_555 1_555
H11G C8 1_555 1_555
H13G C9 1_555 1_555
N2 C10 1_555 1_555
C5 C6 1_555 1_555

#END
