
#######################################################################
#
#                 Cambridge Crystallographic Data Centre
#                                CCDC 
#
#######################################################################
#
# If this CIF has been generated from an entry in the Cambridge 
# Structural Database, then it will include bibliographic, chemical, 
# crystal, experimental, refinement or atomic coordinate data resulting 
# from the CCDC's data processing and validation procedures.
#
#######################################################################

data_LAVQUX
_chemical_formula_moiety         'C26 H19 N1 O2'
_chemical_name_systematic        
'phenyl 2-(naphthalen-1-yl)quinoline-1(2H)-carboxylate'
_symmetry_cell_setting           orthorhombic
_symmetry_space_group_name_H-M   'P 21 21 21'
_symmetry_Int_Tables_number      19
_space_group_name_Hall           'P 2ac 2ab'
loop_
_symmetry_equiv_pos_site_id
_symmetry_equiv_pos_as_xyz
1 x,y,z
2 1/2-x,-y,1/2+z
3 -x,1/2+y,1/2-z
4 1/2+x,1/2-y,-z
_cell_length_a                   7.65703(12)
_cell_length_b                   9.51508(16)
_cell_length_c                   26.1253(4)
_cell_angle_alpha                90
_cell_angle_beta                 90
_cell_angle_gamma                90
_cell_volume                     1903.42
_exptl_crystal_colour            colorless
_exptl_crystal_description       block
_cell_formula_units_Z            4
loop_
_atom_site_label
_atom_site_type_symbol
_atom_site_fract_x
_atom_site_fract_y
_atom_site_fract_z
O1 O 0.82289(16) 0.49253(12) 0.66606(5)
O2 O 0.60015(15) 0.34423(12) 0.64722(5)
N1 N 0.56187(18) 0.58317(15) 0.64358(5)
C1 C 0.6296(2) 0.72025(17) 0.65459(6)
C2 C 0.7824(2) 0.76974(18) 0.63232(6)
H1 H 0.8443 0.7141 0.6093
C3 C 0.8418(2) 0.90383(19) 0.64488(7)
H2 H 0.9447 0.9373 0.6304
C4 C 0.7491(2) 0.98804(19) 0.67877(7)
H3 H 0.7889 1.0778 0.6866
C5 C 0.5972(2) 0.93772(18) 0.70074(6)
H4 H 0.5354 0.9940 0.7235
C6 C 0.5357(2) 0.80307(18) 0.68911(6)
C7 C 0.3745(2) 0.74724(18) 0.71107(6)
H5 H 0.3291 0.7867 0.7408
C8 C 0.2924(2) 0.64029(19) 0.68879(6)
H6 H 0.1874 0.6080 0.7023
C9 C 0.3680(2) 0.57071(18) 0.64168(6)
H7 H 0.3390 0.4705 0.6434
C10 C 0.2904(2) 0.62901(18) 0.59196(6)
C11 C 0.2320(2) 0.76560(19) 0.58967(7)
H8 H 0.2466 0.8235 0.6180
C12 C 0.1503(2) 0.82041(19) 0.54547(6)
H9 H 0.1177 0.9145 0.5443
C13 C 0.1193(2) 0.7353(2) 0.50445(7)
H10 H 0.0600 0.7704 0.4761
C14 C 0.1770(2) 0.59377(19) 0.50472(6)
C15 C 0.1441(2) 0.50384(19) 0.46229(6)
H11 H 0.0777 0.5366 0.4350
C16 C 0.2086(2) 0.3702(2) 0.46104(7)
H12 H 0.1863 0.3125 0.4331
C17 C 0.3093(2) 0.31992(19) 0.50241(7)
H13 H 0.3564 0.2299 0.5010
C18 C 0.3387(2) 0.40220(19) 0.54468(6)
H14 H 0.4042 0.3667 0.5717
C19 C 0.2707(2) 0.54062(18) 0.54778(6)
C20 C 0.6550(2) 0.46232(18) 0.65158(6)
C21 C 0.9385(2) 0.37832(17) 0.66908(7)
C22 C 0.9961(2) 0.31332(18) 0.62490(7)
H15 H 0.9539 0.3408 0.5931
C23 C 1.1184(2) 0.20611(19) 0.62907(8)
H16 H 1.1582 0.1608 0.5998
C24 C 1.1815(2) 0.1662(2) 0.67667(8)
H17 H 1.2630 0.0942 0.6792
C25 C 1.1231(2) 0.2336(2) 0.72038(8)
H18 H 1.1656 0.2068 0.7523
C26 C 1.0010(2) 0.34142(19) 0.71667(7)
H19 H 0.9623 0.3879 0.7459
loop_
_geom_bond_atom_site_label_1
_geom_bond_atom_site_label_2
_geom_bond_site_symmetry_1
_geom_bond_site_symmetry_2
O1 C20 1_555 1_555
O2 C20 1_555 1_555
N1 C1 1_555 1_555
C1 C2 1_555 1_555
C2 H1 1_555 1_555
C3 C2 1_555 1_555
H2 C3 1_555 1_555
C4 C3 1_555 1_555
H3 C4 1_555 1_555
C5 C4 1_555 1_555
H4 C5 1_555 1_555
C6 C1 1_555 1_555
C7 C6 1_555 1_555
H5 C7 1_555 1_555
C8 C7 1_555 1_555
H6 C8 1_555 1_555
C9 N1 1_555 1_555
H7 C9 1_555 1_555
C10 C9 1_555 1_555
C11 C10 1_555 1_555
H8 C11 1_555 1_555
C12 C11 1_555 1_555
H9 C12 1_555 1_555
C13 C12 1_555 1_555
H10 C13 1_555 1_555
C14 C13 1_555 1_555
C15 C14 1_555 1_555
H11 C15 1_555 1_555
C16 C15 1_555 1_555
H12 C16 1_555 1_555
C17 C16 1_555 1_555
H13 C17 1_555 1_555
C18 C17 1_555 1_555
H14 C18 1_555 1_555
C19 C10 1_555 1_555
C20 N1 1_555 1_555
C21 O1 1_555 1_555
C22 C21 1_555 1_555
H15 C22 1_555 1_555
C23 C22 1_555 1_555
H16 C23 1_555 1_555
C24 C23 1_555 1_555
H17 C24 1_555 1_555
C25 C24 1_555 1_555
H18 C25 1_555 1_555
C26 C21 1_555 1_555
H19 C26 1_555 1_555
C5 C6 1_555 1_555
C8 C9 1_555 1_555
C14 C19 1_555 1_555
C18 C19 1_555 1_555
C25 C26 1_555 1_555

#END
