
#######################################################################
#
#                 Cambridge Crystallographic Data Centre
#                                CCDC 
#
#######################################################################
#
# If this CIF has been generated from an entry in the Cambridge 
# Structural Database, then it will include bibliographic, chemical, 
# crystal, experimental, refinement or atomic coordinate data resulting 
# from the CCDC's data processing and validation procedures.
#
#######################################################################

data_LAVQOP
_chemical_formula_moiety         'C1 H6 N3 1+,C13 H19 O3 S1 1-'
_chemical_name_systematic        'Guanidinium 4-heptylbenzenesulfonate'
_symmetry_cell_setting           orthorhombic
_symmetry_space_group_name_H-M   'P 21 21 21'
_symmetry_Int_Tables_number      19
_space_group_name_Hall           'P 2ac 2ab'
loop_
_symmetry_equiv_pos_site_id
_symmetry_equiv_pos_as_xyz
1 x,y,z
2 1/2-x,-y,1/2+z
3 1/2+x,1/2-y,-z
4 -x,1/2+y,1/2-z
_cell_length_a                   7.1549(7)
_cell_length_b                   11.9854(12)
_cell_length_c                   20.579(2)
_cell_angle_alpha                90
_cell_angle_beta                 90
_cell_angle_gamma                90
_cell_volume                     1764.74
_cell_formula_units_Z            4
loop_
_atom_site_label
_atom_site_type_symbol
_atom_site_fract_x
_atom_site_fract_y
_atom_site_fract_z
S1 S 0.24761(19) 0.31224(6) 0.17974(4)
O1 O 0.2518(5) 0.41671(16) 0.21598(10)
C1 C 0.2395(7) 0.3484(2) 0.09795(15)
O2 O 0.0810(4) 0.2475(2) 0.19313(14)
C2 C 0.3870(6) 0.4087(3) 0.07071(19)
H5 H 0.4896 0.4285 0.0959
O3 O 0.4183(4) 0.2484(2) 0.18955(14)
C3 C 0.3792(6) 0.4381(3) 0.0067(2)
H8 H 0.4792 0.4769 -0.0113
C4 C 0.2283(8) 0.4124(3) -0.03226(18)
C5 C 0.0854(6) 0.3515(3) -0.0043(2)
H9 H -0.0165 0.3310 -0.0297
C6 C 0.0898(6) 0.3208(3) 0.0594(2)
H10 H -0.0095 0.2807 0.0769
C7 C 0.2205(8) 0.4525(3) -0.10097(18)
H11 H 0.1407 0.4029 -0.1259
H12 H 0.3449 0.4490 -0.1196
C8 C 0.1467(7) 0.5714(4) -0.1071(2)
H13 H 0.2179 0.6190 -0.0781
H14 H 0.1687 0.5971 -0.1511
C9 C -0.0591(7) 0.5851(3) -0.0917(2)
H15 H -0.1310 0.5354 -0.1193
H16 H -0.0811 0.5635 -0.0469
C10 C -0.1267(7) 0.7029(4) -0.1016(3)
H17 H -0.0883 0.7274 -0.1445
H18 H -0.0649 0.7506 -0.0701
C11 C -0.3352(7) 0.7195(4) -0.0954(3)
H19 H -0.3973 0.6738 -0.1277
H20 H -0.3745 0.6933 -0.0529
C12 C -0.3987(8) 0.8385(4) -0.1036(3)
H21 H -0.3530 0.8659 -0.1449
H22 H -0.3417 0.8833 -0.0697
C13 C -0.6072(8) 0.8556(4) -0.1011(3)
H23 H -0.6643 0.8191 -0.1376
H24 H -0.6344 0.9340 -0.1027
H25 H -0.6556 0.8246 -0.0615
N1 N 0.4071(5) 0.0317(3) 0.25206(15)
H1 H 0.4065 0.0983 0.2365
H2 H 0.5109 0.0013 0.2635
N2 N 0.0909(6) 0.0220(3) 0.24109(16)
H3 H 0.0896 0.0886 0.2255
H4 H -0.0119 -0.0144 0.2453
N3 N 0.2515(6) -0.12623(18) 0.28172(13)
H6 H 0.1490 -0.1631 0.2855
H7 H 0.3557 -0.1562 0.2931
C14 C 0.2491(9) -0.0237(2) 0.25841(13)
loop_
_geom_bond_atom_site_label_1
_geom_bond_atom_site_label_2
_geom_bond_site_symmetry_1
_geom_bond_site_symmetry_2
S1 O1 1_555 1_555
N1 H1 1_555 1_555
H2 N1 1_555 1_555
C1 S1 1_555 1_555
O2 S1 1_555 1_555
N2 H3 1_555 1_555
H4 N2 1_555 1_555
C2 C1 1_555 1_555
H5 C2 1_555 1_555
O3 S1 1_555 1_555
N3 H6 1_555 1_555
H7 N3 1_555 1_555
C3 C2 1_555 1_555
H8 C3 1_555 1_555
C4 C3 1_555 1_555
C5 C4 1_555 1_555
H9 C5 1_555 1_555
C6 C1 1_555 1_555
H10 C6 1_555 1_555
C7 C4 1_555 1_555
H11 C7 1_555 1_555
H12 C7 1_555 1_555
C8 C7 1_555 1_555
H13 C8 1_555 1_555
H14 C8 1_555 1_555
C9 C8 1_555 1_555
H15 C9 1_555 1_555
H16 C9 1_555 1_555
C10 C9 1_555 1_555
H17 C10 1_555 1_555
H18 C10 1_555 1_555
C11 C10 1_555 1_555
H19 C11 1_555 1_555
H20 C11 1_555 1_555
C12 C11 1_555 1_555
H21 C12 1_555 1_555
H22 C12 1_555 1_555
C13 C12 1_555 1_555
H23 C13 1_555 1_555
H24 C13 1_555 1_555
H25 C13 1_555 1_555
C14 N1 1_555 1_555
N2 C14 1_555 1_555
N3 C14 1_555 1_555
C5 C6 1_555 1_555

#END
