
#######################################################################
#
#                 Cambridge Crystallographic Data Centre
#                                CCDC 
#
#######################################################################
#
# If this CIF has been generated from an entry in the Cambridge 
# Structural Database, then it will include bibliographic, chemical, 
# crystal, experimental, refinement or atomic coordinate data resulting 
# from the CCDC's data processing and validation procedures.
#
#######################################################################

data_LAVREG
_chemical_formula_moiety         'C1 H6 N3 1+,C20 H33 O3 S1 1-'
_chemical_name_systematic        'Guanidinium 4-tetradecylbenzenesulfonate'
_symmetry_cell_setting           monoclinic
_symmetry_space_group_name_H-M   'P 21/c'
_symmetry_Int_Tables_number      14
_space_group_name_Hall           '-P 2ybc'
loop_
_symmetry_equiv_pos_site_id
_symmetry_equiv_pos_as_xyz
1 x,y,z
2 -x,1/2+y,1/2-z
3 -x,-y,-z
4 x,1/2-y,1/2+z
_cell_length_a                   7.8868(8)
_cell_length_b                   10.1325(10)
_cell_length_c                   59.017(6)
_cell_angle_alpha                90
_cell_angle_beta                 92.131(2)
_cell_angle_gamma                90
_cell_volume                     4712.96
_cell_formula_units_Z            8
loop_
_atom_site_label
_atom_site_type_symbol
_atom_site_fract_x
_atom_site_fract_y
_atom_site_fract_z
S1 S 0.51252(13) 0.52493(11) 0.036165(18)
O1 O 0.3597(4) 0.4450(3) 0.03341(5)
O2 O 0.6620(4) 0.4453(3) 0.03207(5)
C1 C 0.5275(5) 0.5656(4) 0.06482(7)
O5 O 0.5037(4) 0.6472(3) 0.02366(5)
C2 C 0.6361(6) 0.4975(5) 0.08002(8)
H9 H 0.7041 0.4276 0.0747
C3 C 0.9366(6) 0.6573(5) 0.25513(8)
H10 H 0.8226 0.6460 0.2613
H11 H 0.9575 0.7532 0.2537
C5 C 0.8055(6) 0.6543(5) 0.21542(8)
H12 H 0.8282 0.7499 0.2138
H13 H 0.6921 0.6446 0.2219
C6 C 0.5556(7) 0.6739(5) 0.13559(8)
H14 H 0.4391 0.6712 0.1413
H15 H 0.5927 0.7672 0.1360
C7 C 0.9362(6) 0.5963(5) 0.23187(8)
H16 H 0.9150 0.5004 0.2333
H17 H 1.0501 0.6076 0.2256
C9 C 1.0640(6) 0.6607(5) 0.29521(8)
H18 H 0.9478 0.6524 0.3008
H19 H 1.0896 0.7560 0.2940
C12 C 0.6695(6) 0.5975(5) 0.15206(8)
H26 H 0.7861 0.5960 0.1464
H27 H 0.6290 0.5051 0.1528
C15 C 0.8014(6) 0.5919(5) 0.19205(8)
H32 H 0.9158 0.5982 0.1858
H33 H 0.7733 0.4971 0.1935
C16 C 0.5468(6) 0.6308(4) 0.11129(7)
C17 C 1.0675(6) 0.6001(5) 0.27191(8)
H34 H 1.0479 0.5039 0.2732
H35 H 1.1818 0.6129 0.2659
C18 C 0.6742(6) 0.6558(5) 0.17561(8)
H36 H 0.5598 0.6481 0.1818
H37 H 0.7011 0.7510 0.1745
C21 C 1.1783(7) 0.6591(5) 0.33594(9)
H40 H 1.0594 0.6546 0.3407
H41 H 1.2102 0.7535 0.3352
C27 C 0.6454(6) 0.5308(5) 0.10266(8)
H50 H 0.7214 0.4840 0.1126
C28 C 1.1873(7) 0.6000(5) 0.31250(8)
H51 H 1.3040 0.6110 0.3072
H52 H 1.1642 0.5042 0.3134
C29 C 0.4291(6) 0.6662(5) 0.07336(8)
H53 H 0.3533 0.7136 0.0635
C34 C 1.2920(7) 0.5917(5) 0.35388(8)
H62 H 1.2593 0.4976 0.3548
H63 H 1.4107 0.5955 0.3490
C36 C 0.4403(7) 0.6979(5) 0.09604(8)
H65 H 0.3728 0.7681 0.1014
C40 C 1.2837(7) 0.6513(6) 0.37689(9)
H71 H 1.1635 0.6548 0.3811
H72 H 1.3258 0.7433 0.3762
C41 C 1.3846(9) 0.5784(7) 0.39527(10)
H73 H 1.3390 0.4890 0.3968
H74 H 1.3765 0.6256 0.4097
H75 H 1.5038 0.5733 0.3912
S2 S 0.01547(14) 0.93036(11) 0.052047(19)
O3 O -0.1390(4) 0.8648(3) 0.04408(5)
O4 O 0.1655(4) 0.8708(3) 0.04268(5)
O6 O 0.0118(4) 1.0716(3) 0.04896(6)
C8 C 0.0743(6) 0.8507(5) 0.12781(8)
C10 C 0.6209(7) 0.9057(5) 0.28727(8)
H20 H 0.5997 1.0017 0.2884
H21 H 0.7364 0.8934 0.2816
C11 C 0.4934(6) 0.8460(5) 0.27053(8)
H24 H 0.3784 0.8564 0.2765
H25 H 0.5164 0.7503 0.2693
C13 C 0.0901(7) 0.8184(5) 0.15271(8)
H28 H 0.1156 0.7231 0.1542
H29 H -0.0219 0.8333 0.1593
C14 C 0.2296(6) 0.8414(5) 0.19119(8)
H30 H 0.1167 0.8536 0.1977
H31 H 0.2524 0.7454 0.1907
C19 C 0.6122(6) 0.8437(5) 0.31086(8)
H38 H 0.4949 0.8526 0.3161
H39 H 0.6373 0.7483 0.3097
C22 C 0.4956(7) 0.9069(5) 0.24708(8)
H42 H 0.4739 1.0028 0.2483
H43 H 0.6099 0.8952 0.2410
C23 C 0.7336(7) 0.9044(5) 0.32859(8)
H44 H 0.8515 0.8914 0.3239
H45 H 0.7124 1.0006 0.3294
C24 C 0.3619(7) 0.9056(5) 0.20692(8)
H46 H 0.3380 1.0013 0.2079
H47 H 0.4750 0.8948 0.2004
C25 C 0.3655(6) 0.8469(5) 0.23078(8)
H48 H 0.2519 0.8577 0.2371
H49 H 0.3880 0.7510 0.2297
C26 C 0.0334(5) 0.9012(4) 0.08143(8)
C30 C 0.7155(7) 0.8455(5) 0.35188(8)
H54 H 0.7400 0.7498 0.3510
H55 H 0.5958 0.8549 0.3561
C31 C 0.2223(6) 0.8938(5) 0.16703(8)
H56 H 0.3349 0.8842 0.1604
H57 H 0.1929 0.9888 0.1671
C32 C -0.0152(7) 0.7677(6) 0.11342(9)
H58 H -0.0647 0.6909 0.1196
C33 C 0.1441(7) 0.9619(5) 0.11818(9)
H59 H 0.2064 1.0223 0.1276
C35 C 0.1251(7) 0.9867(5) 0.09529(9)
H64 H 0.1754 1.0630 0.0890
C37 C 0.8268(7) 0.9035(5) 0.37074(8)
H66 H 0.8088 1.0002 0.3711
H67 H 0.9471 0.8878 0.3673
C38 C 0.7944(8) 0.8475(6) 0.39395(9)
H68 H 0.6769 0.8704 0.3979
H69 H 0.8013 0.7501 0.3931
C39 C -0.0370(7) 0.7896(5) 0.09064(9)
H70 H -0.0996 0.7291 0.0813
C42 C 0.9118(8) 0.8932(7) 0.41276(10)
H76 H 1.0290 0.8728 0.4091
H77 H 0.8840 0.8481 0.4268
H78 H 0.8995 0.9887 0.4147
N1 N 0.8536(4) 0.7035(4) 0.00316(6)
H1 H 0.7552 0.6792 -0.0030
H2 H 0.8571 0.7540 0.0153
N2 N 0.9898(5) 0.5884(4) -0.02399(6)
H3 H 0.8914 0.5641 -0.0302
H4 H 1.0847 0.5621 -0.0300
N3 N 1.1440(4) 0.7029(4) 0.00331(6)
H5 H 1.1477 0.7548 0.0153
H6 H 1.2388 0.6766 -0.0027
C4 C 0.9952(6) 0.6643(4) -0.00574(7)
N4 N 0.6570(5) 1.1629(4) 0.04156(7)
H7 H 0.6561 1.2498 0.0415
H8 H 0.7541 1.1201 0.0416
N5 N 0.3685(5) 1.1616(4) 0.04156(8)
H22 H 0.2721 1.1181 0.0421
H23 H 0.3682 1.2483 0.0410
C20 C 0.5128(6) 1.0969(5) 0.04162(8)
N6 N 0.5150(6) 0.9669(4) 0.04252(8)
H60 H 0.4192 0.9227 0.0431
H61 H 0.6123 0.9243 0.0426
loop_
_geom_bond_atom_site_label_1
_geom_bond_atom_site_label_2
_geom_bond_site_symmetry_1
_geom_bond_site_symmetry_2
S1 O1 1_555 1_555
S2 O3 1_555 1_555
O2 S1 1_555 1_555
O4 S2 1_555 1_555
C1 S1 1_555 1_555
O5 S1 1_555 1_555
N1 H1 1_555 1_555
H2 N1 1_555 1_555
N2 H3 1_555 1_555
H4 N2 1_555 1_555
N3 H5 1_555 1_555
H6 N3 1_555 1_555
N4 H7 1_555 1_555
H8 N4 1_555 1_555
C2 C1 1_555 1_555
H9 C2 1_555 1_555
C3 H10 1_555 1_555
H11 C3 1_555 1_555
C4 N1 1_555 1_555
C5 H12 1_555 1_555
H13 C5 1_555 1_555
O6 S2 1_555 1_555
C6 H14 1_555 1_555
H15 C6 1_555 1_555
C7 C3 1_555 1_555
H16 C7 1_555 1_555
H17 C7 1_555 1_555
C8 C13 1_555 1_555
C9 H18 1_555 1_555
H19 C9 1_555 1_555
C10 H20 1_555 1_555
H21 C10 1_555 1_555
N5 H22 1_555 1_555
H23 N5 1_555 1_555
C11 C10 1_555 1_555
H24 C11 1_555 1_555
H25 C11 1_555 1_555
C12 C6 1_555 1_555
H26 C12 1_555 1_555
H27 C12 1_555 1_555
C13 H28 1_555 1_555
H29 C13 1_555 1_555
C14 H30 1_555 1_555
H31 C14 1_555 1_555
C15 C5 1_555 1_555
H32 C15 1_555 1_555
H33 C15 1_555 1_555
C16 C6 1_555 1_555
C17 C3 1_555 1_555
H34 C17 1_555 1_555
H35 C17 1_555 1_555
C18 C12 1_555 1_555
H36 C18 1_555 1_555
H37 C18 1_555 1_555
C19 C10 1_555 1_555
H38 C19 1_555 1_555
H39 C19 1_555 1_555
C20 N4 1_555 1_555
C21 H40 1_555 1_555
H41 C21 1_555 1_555
C22 C11 1_555 1_555
H42 C22 1_555 1_555
H43 C22 1_555 1_555
C23 C19 1_555 1_555
H44 C23 1_555 1_555
H45 C23 1_555 1_555
C24 C14 1_555 1_555
H46 C24 1_555 1_555
H47 C24 1_555 1_555
C25 C22 1_555 1_555
H48 C25 1_555 1_555
H49 C25 1_555 1_555
C26 S2 1_555 1_555
C27 C2 1_555 1_555
H50 C27 1_555 1_555
C28 C9 1_555 1_555
H51 C28 1_555 1_555
H52 C28 1_555 1_555
C29 C1 1_555 1_555
H53 C29 1_555 1_555
C30 C23 1_555 1_555
H54 C30 1_555 1_555
H55 C30 1_555 1_555
C31 C13 1_555 1_555
H56 C31 1_555 1_555
H57 C31 1_555 1_555
C32 C8 1_555 1_555
H58 C32 1_555 1_555
C33 C8 1_555 1_555
H59 C33 1_555 1_555
N6 C20 1_555 1_555
H60 N6 1_555 1_555
H61 N6 1_555 1_555
C34 C21 1_555 1_555
H62 C34 1_555 1_555
H63 C34 1_555 1_555
C35 C26 1_555 1_555
H64 C35 1_555 1_555
C36 C16 1_555 1_555
H65 C36 1_555 1_555
C37 C30 1_555 1_555
H66 C37 1_555 1_555
H67 C37 1_555 1_555
C38 C37 1_555 1_555
H68 C38 1_555 1_555
H69 C38 1_555 1_555
C39 C26 1_555 1_555
H70 C39 1_555 1_555
C40 C34 1_555 1_555
H71 C40 1_555 1_555
H72 C40 1_555 1_555
C41 C40 1_555 1_555
H73 C41 1_555 1_555
H74 C41 1_555 1_555
H75 C41 1_555 1_555
C42 C38 1_555 1_555
H76 C42 1_555 1_555
H77 C42 1_555 1_555
H78 C42 1_555 1_555
N2 C4 1_555 1_555
N3 C4 1_555 1_555
C5 C7 1_555 1_555
C9 C17 1_555 1_555
N5 C20 1_555 1_555
C14 C31 1_555 1_555
C15 C18 1_555 1_555
C16 C27 1_555 1_555
C21 C28 1_555 1_555
C24 C25 1_555 1_555
C29 C36 1_555 1_555
C32 C39 1_555 1_555
C33 C35 1_555 1_555

#END
