
#######################################################################
#
#                 Cambridge Crystallographic Data Centre
#                                CCDC 
#
#######################################################################
#
# If this CIF has been generated from an entry in the Cambridge 
# Structural Database, then it will include bibliographic, chemical, 
# crystal, experimental, refinement or atomic coordinate data resulting 
# from the CCDC's data processing and validation procedures.
#
#######################################################################

data_LAVRUW01
_chemical_name_common            "guanidinium 4'-decylbiphenyl-4-sulfonate"
_chemical_formula_moiety         'C22 H29 O3 S1 1-,C1 H6 N3 1+'
_chemical_name_systematic        
"diaminomethaniminium 4'-decylbiphenyl-4-sulfonate"
_symmetry_cell_setting           monoclinic
_symmetry_space_group_name_H-M   'P 21/c'
_symmetry_Int_Tables_number      14
_space_group_name_Hall           '-P 2ybc'
loop_
_symmetry_equiv_pos_site_id
_symmetry_equiv_pos_as_xyz
1 x,y,z
2 -x,1/2+y,1/2-z
3 -x,-y,-z
4 x,1/2-y,1/2+z
_cell_length_a                   7.6689(16)
_cell_length_b                   7.9238(16)
_cell_length_c                   38.321(8)
_cell_angle_alpha                90
_cell_angle_beta                 92.893(3)
_cell_angle_gamma                90
_cell_volume                     2325.68
_exptl_crystal_colour            colorless
_exptl_crystal_description       block
_chemical_melting_point          '177 deg.C'
_cell_formula_units_Z            4
loop_
_atom_site_label
_atom_site_type_symbol
_atom_site_fract_x
_atom_site_fract_y
_atom_site_fract_z
S1 S 0.75923(14) 0.69869(16) 0.30638(3)
O1 O 0.9177(4) 0.7986(5) 0.31267(8)
O2 O 0.7562(4) 0.6106(4) 0.27273(8)
O3 O 0.6036(4) 0.8023(5) 0.31063(8)
C1 C 0.7606(6) 0.2958(6) 0.39169(11)
C2 C 0.7586(6) 0.5410(6) 0.33920(11)
C3 C 0.7429(7) 0.4676(6) 0.39946(12)
H1 H 0.7319 0.5006 0.4225
C4 C 0.7765(7) 0.2516(7) 0.35683(12)
H2 H 0.7875 0.1385 0.3508
C5 C 0.7415(6) 0.5888(6) 0.37355(12)
H3 H 0.7291 0.7022 0.3792
C6 C 0.7616(6) 0.1678(6) 0.42018(12)
C7 C 0.6802(7) 0.2002(7) 0.45142(12)
H4 H 0.6182 0.3001 0.4538
C8 C 0.7761(7) 0.3735(6) 0.33092(12)
H5 H 0.7878 0.3418 0.3078
C9 C 0.7669(10) -0.3534(9) 0.50594(18)
H6 H 0.8426 -0.4074 0.4898
H7 H 0.6472 -0.3666 0.4970
C10 C 0.8457(7) 0.0137(6) 0.41784(13)
H8 H 0.8969 -0.0144 0.3971
C11 C 0.7904(13) -0.4389(13) 0.5423(2)
H9 H 0.9141 -0.4620 0.5461
H10 H 0.7619 -0.3540 0.5594
C12 C 0.7811(7) -0.0630(7) 0.47694(13)
C13 C 0.8559(7) -0.0994(7) 0.44532(13)
H11 H 0.9135 -0.2015 0.4427
C14 C 0.7182(7) -0.8962(8) 0.62569(13)
H12 H 0.6325 -0.8449 0.6401
H13 H 0.8327 -0.8607 0.6348
C15 C 0.8100(8) -0.1725(8) 0.50873(15)
H14 H 0.9321 -0.1635 0.5164
H15 H 0.7426 -0.1252 0.5271
C16 C 0.6906(7) 0.0862(7) 0.47879(13)
H16 H 0.6346 0.1113 0.4991
C17 C 0.7295(10) -1.3365(9) 0.6720(3)
H17 H 0.6140 -1.3786 0.6664
H18 H 0.7625 -1.3622 0.6959
H19 H 0.8102 -1.3887 0.6570
C18 C 0.7056(7) -1.0881(9) 0.62950(17)
H20 H 0.5917 -1.1254 0.6204
H21 H 0.7930 -1.1409 0.6157
C19 C 0.7321(9) -1.1440(8) 0.6666(2)
H22 H 0.6416 -1.0940 0.6801
H23 H 0.8434 -1.1007 0.6759
C20 C 0.6906(8) -0.8286(12) 0.58911(15)
H24 H 0.7648 -0.8900 0.5737
H25 H 0.5703 -0.8476 0.5810
C21 C 0.7305(9) -0.6444(13) 0.58696(17)
H26 H 0.8489 -0.6260 0.5963
H27 H 0.6528 -0.5839 0.6018
C22 C 0.7133(10) -0.5690(17) 0.5504(2)
H28 H 0.7478 -0.6563 0.5344
H29 H 0.5898 -0.5489 0.5454
N1 N 0.9049(5) 0.0766(5) 0.25967(10)
H30 H 1.0007 0.1072 0.2508
H31 H 0.9076 0.0139 0.2780
N2 N 0.6053(5) 0.0818(6) 0.25939(10)
H32 H 0.5064 0.1157 0.2504
H33 H 0.6090 0.0191 0.2777
N3 N 0.7476(5) 0.2228(5) 0.21679(10)
H34 H 0.6491 0.2570 0.2077
H35 H 0.8432 0.2513 0.2076
C23 C 0.7521(6) 0.1264(6) 0.24500(11)
loop_
_geom_bond_atom_site_label_1
_geom_bond_atom_site_label_2
_geom_bond_site_symmetry_1
_geom_bond_site_symmetry_2
S1 O1 1_555 1_555
O2 S1 1_555 1_555
O3 S1 1_555 1_555
C1 C3 1_555 1_555
C2 S1 1_555 1_555
C3 H1 1_555 1_555
C4 C1 1_555 1_555
H2 C4 1_555 1_555
C5 C2 1_555 1_555
H3 C5 1_555 1_555
C6 C1 1_555 1_555
C7 C6 1_555 1_555
H4 C7 1_555 1_555
C8 C2 1_555 1_555
H5 C8 1_555 1_555
C9 H6 1_555 1_555
H7 C9 1_555 1_555
C10 C6 1_555 1_555
H8 C10 1_555 1_555
C11 C9 1_555 1_555
H9 C11 1_555 1_555
H10 C11 1_555 1_555
C12 C13 1_555 1_555
C13 C10 1_555 1_555
H11 C13 1_555 1_555
C14 H12 1_555 1_555
H13 C14 1_555 1_555
C15 C9 1_555 1_555
H14 C15 1_555 1_555
H15 C15 1_555 1_555
C16 C7 1_555 1_555
H16 C16 1_555 1_555
C17 H17 1_555 1_555
H18 C17 1_555 1_555
H19 C17 1_555 1_555
C18 C14 1_555 1_555
H20 C18 1_555 1_555
H21 C18 1_555 1_555
C19 C17 1_555 1_555
H22 C19 1_555 1_555
H23 C19 1_555 1_555
C20 C14 1_555 1_555
H24 C20 1_555 1_555
H25 C20 1_555 1_555
C21 C20 1_555 1_555
H26 C21 1_555 1_555
H27 C21 1_555 1_555
C22 C11 1_555 1_555
H28 C22 1_555 1_555
H29 C22 1_555 1_555
N1 H30 1_555 1_555
H31 N1 1_555 1_555
N2 H32 1_555 1_555
H33 N2 1_555 1_555
N3 H34 1_555 1_555
H35 N3 1_555 1_555
C23 N1 1_555 1_555
C3 C5 1_555 1_555
C4 C8 1_555 1_555
C12 C15 1_555 1_555
C12 C16 1_555 1_555
C18 C19 1_555 1_555
C21 C22 1_555 1_555
N2 C23 1_555 1_555
N3 C23 1_555 1_555

#END
