
#######################################################################
#
#                 Cambridge Crystallographic Data Centre
#                                CCDC 
#
#######################################################################
#
# If this CIF has been generated from an entry in the Cambridge 
# Structural Database, then it will include bibliographic, chemical, 
# crystal, experimental, refinement or atomic coordinate data resulting 
# from the CCDC's data processing and validation procedures.
#
#######################################################################

data_LAVREI
_chemical_formula_moiety         'C27 H30 B1 N1 O4'
_chemical_name_systematic        
'methyl 2-(naphthalen-1-yl)-3-(4,4,5,5-tetramethyl-1,3,2-dioxaborolan-2-yl)-3,4-dihydroquinoline-1(2H)-carboxylate'
_symmetry_cell_setting           orthorhombic
_symmetry_space_group_name_H-M   'P 21 21 21'
_symmetry_Int_Tables_number      19
_space_group_name_Hall           'P 2ac 2ab'
loop_
_symmetry_equiv_pos_site_id
_symmetry_equiv_pos_as_xyz
1 x,y,z
2 1/2-x,-y,1/2+z
3 -x,1/2+y,1/2-z
4 1/2+x,1/2-y,-z
_cell_length_a                   8.52078(10)
_cell_length_b                   15.6118(2)
_cell_length_c                   17.5200(2)
_cell_angle_alpha                90
_cell_angle_beta                 90
_cell_angle_gamma                90
_cell_volume                     2330.59
_exptl_crystal_colour            colorless
_exptl_crystal_description       block
_cell_formula_units_Z            4
loop_
_atom_site_label
_atom_site_type_symbol
_atom_site_fract_x
_atom_site_fract_y
_atom_site_fract_z
O1 O 0.66759(17) 0.69340(9) 0.67728(9)
O2 O 0.8087(2) 0.62441(10) 0.58670(9)
O3 O 1.02071(15) 0.46444(10) 0.71789(7)
O4 O 0.95049(15) 0.42570(9) 0.59854(7)
N1 N 0.76032(17) 0.45509(10) 0.68311(9)
C1 C 0.9005(3) 0.73055(17) 0.74508(12)
H1 H 0.8377 0.7506 0.7869
H2 H 0.9972 0.7620 0.7435
H3 H 0.9225 0.6707 0.7518
C2 C 0.8122(2) 0.74362(12) 0.67115(11)
C3 C 0.7636(3) 0.83647(14) 0.66265(15)
H4 H 0.6946 0.8422 0.6196
H5 H 0.8551 0.8713 0.6549
H6 H 0.7103 0.8548 0.7081
C4 C 0.8968(2) 0.70307(12) 0.59996(11)
C5 C 0.8886(4) 0.75590(18) 0.52800(13)
H7 H 0.9314 0.7237 0.4862
H8 H 0.9481 0.8076 0.5347
H9 H 0.7812 0.7701 0.5173
C6 C 1.0662(3) 0.67650(18) 0.61386(15)
H10 H 1.0707 0.6383 0.6567
H11 H 1.1284 0.7264 0.6243
H12 H 1.1062 0.6481 0.5693
C7 C 0.5572(2) 0.54771(11) 0.63095(10)
H13 H 0.4850 0.5556 0.5880
C8 C 0.4610(2) 0.54129(12) 0.70476(10)
H14 H 0.4217 0.5976 0.7182
H15 H 0.3714 0.5042 0.6962
C9 C 0.5569(2) 0.50649(11) 0.77030(10)
C10 C 0.4982(2) 0.51175(13) 0.84480(11)
H16 H 0.4050 0.5412 0.8534
C11 C 0.5745(2) 0.47456(13) 0.90586(11)
H17 H 0.5338 0.4795 0.9549
C12 C 0.7130(2) 0.42967(13) 0.89320(11)
H18 H 0.7638 0.4029 0.9337
C13 C 0.7751(2) 0.42476(13) 0.82055(11)
H19 H 0.8680 0.3949 0.8124
C14 C 0.6995(2) 0.46433(12) 0.75899(10)
C15 C 0.9195(2) 0.44999(12) 0.67091(10)
C16 C 1.1148(2) 0.41827(16) 0.58035(12)
H20 H 1.1263 0.3960 0.5296
H21 H 1.1643 0.3802 0.6160
H22 H 1.1633 0.4737 0.5833
C17 C 0.6516(2) 0.46416(12) 0.61813(10)
H23 H 0.7162 0.4730 0.5725
C18 C 0.5540(2) 0.38411(11) 0.60405(10)
C19 C 0.5344(2) 0.32167(12) 0.65886(10)
H24 H 0.5763 0.3303 0.7073
C20 C 0.4525(2) 0.24502(12) 0.64349(11)
H25 H 0.4415 0.2040 0.6816
C21 C 0.3893(2) 0.23085(12) 0.57295(11)
H26 H 0.3357 0.1801 0.5632
C22 C 0.4052(2) 0.29316(12) 0.51469(11)
C23 C 0.3386(2) 0.27997(13) 0.44140(11)
H27 H 0.2841 0.2295 0.4315
C24 C 0.3529(2) 0.33989(13) 0.38528(11)
H28 H 0.3064 0.3307 0.3380
C25 C 0.4381(2) 0.41593(13) 0.39877(11)
H29 H 0.4502 0.4560 0.3599
C26 C 0.5031(2) 0.43082(12) 0.46907(10)
H30 H 0.5584 0.4813 0.4773
C27 C 0.4879(2) 0.37092(12) 0.52984(10)
B1 B 0.6785(2) 0.62448(14) 0.63153(11)
loop_
_geom_bond_atom_site_label_1
_geom_bond_atom_site_label_2
_geom_bond_site_symmetry_1
_geom_bond_site_symmetry_2
O1 C2 1_555 1_555
O2 C4 1_555 1_555
O3 C15 1_555 1_555
O4 C15 1_555 1_555
N1 C14 1_555 1_555
C1 H1 1_555 1_555
H2 C1 1_555 1_555
H3 C1 1_555 1_555
C2 C1 1_555 1_555
C3 C2 1_555 1_555
H4 C3 1_555 1_555
H5 C3 1_555 1_555
H6 C3 1_555 1_555
C4 C2 1_555 1_555
C5 C4 1_555 1_555
H7 C5 1_555 1_555
H8 C5 1_555 1_555
H9 C5 1_555 1_555
C6 C4 1_555 1_555
H10 C6 1_555 1_555
H11 C6 1_555 1_555
H12 C6 1_555 1_555
C7 H13 1_555 1_555
C8 C7 1_555 1_555
H14 C8 1_555 1_555
H15 C8 1_555 1_555
C9 C8 1_555 1_555
C10 C9 1_555 1_555
H16 C10 1_555 1_555
C11 C10 1_555 1_555
H17 C11 1_555 1_555
C12 C11 1_555 1_555
H18 C12 1_555 1_555
C13 C12 1_555 1_555
H19 C13 1_555 1_555
C14 C9 1_555 1_555
C15 N1 1_555 1_555
C16 O4 1_555 1_555
H20 C16 1_555 1_555
H21 C16 1_555 1_555
H22 C16 1_555 1_555
C17 N1 1_555 1_555
H23 C17 1_555 1_555
C18 C17 1_555 1_555
C19 C18 1_555 1_555
H24 C19 1_555 1_555
C20 C19 1_555 1_555
H25 C20 1_555 1_555
C21 C20 1_555 1_555
H26 C21 1_555 1_555
C22 C21 1_555 1_555
C23 C22 1_555 1_555
H27 C23 1_555 1_555
C24 C23 1_555 1_555
H28 C24 1_555 1_555
C25 C24 1_555 1_555
H29 C25 1_555 1_555
C26 C25 1_555 1_555
H30 C26 1_555 1_555
C27 C18 1_555 1_555
B1 O1 1_555 1_555
O2 B1 1_555 1_555
C7 C17 1_555 1_555
C7 B1 1_555 1_555
C13 C14 1_555 1_555
C22 C27 1_555 1_555
C26 C27 1_555 1_555

#END
