
#######################################################################
#
#                 Cambridge Crystallographic Data Centre
#                                CCDC 
#
#######################################################################
#
# If this CIF has been generated from an entry in the Cambridge 
# Structural Database, then it will include bibliographic, chemical, 
# crystal, experimental, refinement or atomic coordinate data resulting 
# from the CCDC's data processing and validation procedures.
#
#######################################################################

data_LAVROQ
_chemical_formula_moiety         'C1 H6 N3 1+,C20 H25 O3 S1 1-'
_chemical_name_systematic        'Guanidinium 4-(4-octylphenyl)benzenesulfonate'
_symmetry_cell_setting           orthorhombic
_symmetry_space_group_name_H-M   'P 21 21 21'
_symmetry_Int_Tables_number      19
_space_group_name_Hall           'P 2ac 2ab'
loop_
_symmetry_equiv_pos_site_id
_symmetry_equiv_pos_as_xyz
1 x,y,z
2 1/2-x,-y,1/2+z
3 1/2+x,1/2-y,-z
4 -x,1/2+y,1/2-z
_cell_length_a                   7.6188(13)
_cell_length_b                   7.7097(13)
_cell_length_c                   36.330(6)
_cell_angle_alpha                90
_cell_angle_beta                 90
_cell_angle_gamma                90
_cell_volume                     2133.98
_exptl_crystal_description       needles
_cell_formula_units_Z            4
loop_
_atom_site_label
_atom_site_type_symbol
_atom_site_fract_x
_atom_site_fract_y
_atom_site_fract_z
S1 S 0.25324(7) 0.83037(6) 0.811165(12)
O1 O 0.41029(19) 0.9364(2) 0.81523(4)
O2 O 0.09552(19) 0.9332(2) 0.81772(4)
C1 C 0.2638(3) 0.6697(2) 0.84611(5)
O3 O 0.2478(2) 0.73856(17) 0.77608(3)
C3 C 0.2485(3) 0.3738(2) 0.86605(5)
H7 H 0.2300 0.2548 0.8604
C4 C 0.2413(3) 0.0185(2) 0.96212(5)
H8 H 0.1806 -0.0891 0.9617
C5 C 0.2434(4) -0.4812(3) 1.07426(5)
H9 H 0.3176 -0.5570 1.0587
H10 H 0.1200 -0.4963 1.0664
C6 C 0.2452(4) -0.7308(3) 1.12064(5)
H11 H 0.1317 -0.7715 1.1105
H12 H 0.3401 -0.7908 1.1070
C7 C 0.2356(3) 0.4966(3) 0.83816(5)
H13 H 0.2075 0.4618 0.8138
C8 C 0.3694(3) -0.0499(3) 1.02630(6)
H14 H 0.3276 0.0209 1.0473
H15 H 0.4967 -0.0685 1.0300
C9 C 0.2612(4) -0.5368(3) 1.11425(5)
H16 H 0.3767 -0.4977 1.1235
H17 H 0.1696 -0.4771 1.1289
C10 C 0.2444(5) -0.9733(3) 1.16794(8)
H18 H 0.1320 -1.0174 1.1588
H19 H 0.2532 -0.9950 1.1945
H20 H 0.3408 -1.0323 1.1552
C11 C 0.2557(4) -0.7803(3) 1.16080(6)
H21 H 0.1592 -0.7219 1.1742
H22 H 0.3679 -0.7365 1.1710
C12 C 0.2216(3) 0.1342(2) 0.93259(5)
H23 H 0.1477 0.1037 0.9126
C13 C 0.2882(2) 0.4217(3) 0.90220(5)
C14 C 0.3120(3) 0.5989(3) 0.90918(6)
H24 H 0.3359 0.6355 0.9336
C15 C 0.4377(3) 0.2153(3) 0.99067(6)
H25 H 0.5137 0.2448 1.0104
C16 C 0.3480(3) 0.0583(3) 0.99190(5)
C17 C 0.2809(3) -0.2255(3) 1.02913(5)
H26 H 0.3367 -0.3077 1.0118
H27 H 0.1554 -0.2147 1.0224
C18 C 0.2971(3) -0.2945(3) 1.06840(6)
H28 H 0.4207 -0.2814 1.0763
H29 H 0.2246 -0.2206 1.0847
C19 C 0.3017(3) 0.7217(3) 0.88169(5)
H30 H 0.3204 0.8408 0.8871
C20 C 0.4202(3) 0.3290(3) 0.96184(5)
H31 H 0.4849 0.4343 0.9620
C21 C 0.3086(2) 0.2928(3) 0.93217(5)
N1 N 0.2457(3) 1.36041(19) 0.71454(4)
H1 H 0.1451 1.3921 0.7047
H2 H 0.3451 1.3926 0.7043
N2 N 0.3996(2) 1.2200(3) 0.76002(5)
H3 H 0.4991 1.2543 0.7501
H4 H 0.4005 1.1561 0.7801
N3 N 0.0985(2) 1.2156(3) 0.76028(5)
H5 H -0.0025 1.2469 0.7506
H6 H 0.1006 1.1517 0.7804
C2 C 0.2476(3) 1.2646(2) 0.74464(5)
loop_
_geom_bond_atom_site_label_1
_geom_bond_atom_site_label_2
_geom_bond_site_symmetry_1
_geom_bond_site_symmetry_2
S1 O1 1_555 1_555
O2 S1 1_555 1_555
N1 H1 1_555 1_555
H2 N1 1_555 1_555
C1 S1 1_555 1_555
O3 S1 1_555 1_555
N2 H3 1_555 1_555
H4 N2 1_555 1_555
N3 H5 1_555 1_555
H6 N3 1_555 1_555
C2 N1 1_555 1_555
C3 H7 1_555 1_555
C4 H8 1_555 1_555
C5 H9 1_555 1_555
H10 C5 1_555 1_555
C6 H11 1_555 1_555
H12 C6 1_555 1_555
C7 C1 1_555 1_555
H13 C7 1_555 1_555
C8 H14 1_555 1_555
H15 C8 1_555 1_555
C9 C5 1_555 1_555
H16 C9 1_555 1_555
H17 C9 1_555 1_555
C10 H18 1_555 1_555
H19 C10 1_555 1_555
H20 C10 1_555 1_555
C11 C6 1_555 1_555
H21 C11 1_555 1_555
H22 C11 1_555 1_555
C12 C4 1_555 1_555
H23 C12 1_555 1_555
C13 C3 1_555 1_555
C14 C13 1_555 1_555
H24 C14 1_555 1_555
C15 H25 1_555 1_555
C16 C4 1_555 1_555
C17 C8 1_555 1_555
H26 C17 1_555 1_555
H27 C17 1_555 1_555
C18 C5 1_555 1_555
H28 C18 1_555 1_555
H29 C18 1_555 1_555
C19 C1 1_555 1_555
H30 C19 1_555 1_555
C20 C15 1_555 1_555
H31 C20 1_555 1_555
C21 C12 1_555 1_555
N2 C2 1_555 1_555
N3 C2 1_555 1_555
C3 C7 1_555 1_555
C6 C9 1_555 1_555
C8 C16 1_555 1_555
C10 C11 1_555 1_555
C13 C21 1_555 1_555
C14 C19 1_555 1_555
C15 C16 1_555 1_555
C17 C18 1_555 1_555
C20 C21 1_555 1_555

#END
