
#######################################################################
#
#                 Cambridge Crystallographic Data Centre
#                                CCDC 
#
#######################################################################
#
# If this CIF has been generated from an entry in the Cambridge 
# Structural Database, then it will include bibliographic, chemical, 
# crystal, experimental, refinement or atomic coordinate data resulting 
# from the CCDC's data processing and validation procedures.
#
#######################################################################

data_LAVRAC
_chemical_formula_moiety         'C1 H6 N3 1+,C18 H29 O3 S1 1-'
_chemical_name_systematic        'Guandinium 4-dodecylbenzenesulfonate'
_symmetry_cell_setting           monoclinic
_symmetry_space_group_name_H-M   'P 21/n'
_symmetry_Int_Tables_number      14
_space_group_name_Hall           '-P 2yn'
loop_
_symmetry_equiv_pos_site_id
_symmetry_equiv_pos_as_xyz
1 x,y,z
2 1/2-x,1/2+y,1/2-z
3 -x,-y,-z
4 1/2+x,1/2-y,1/2+z
_cell_length_a                   7.9093(16)
_cell_length_b                   10.180(2)
_cell_length_c                   54.544(11)
_cell_angle_alpha                90
_cell_angle_beta                 93.94(3)
_cell_angle_gamma                90
_cell_volume                     4381.32
_cell_formula_units_Z            8
loop_
_atom_site_label
_atom_site_type_symbol
_atom_site_fract_x
_atom_site_fract_y
_atom_site_fract_z
S1 S 0.5161(2) 0.47463(18) 0.03944(3)
C1 C 0.5237(9) 0.4330(7) 0.07045(14)
C3 C 0.4288(10) 0.5019(8) 0.08719(14)
H7 H 0.3573 0.5721 0.0815
C6 C 0.1880(12) 0.3410(9) 0.32207(16)
H12 H 0.3103 0.3427 0.3273
H13 H 0.1526 0.2478 0.3210
C8 C 0.2728(11) 0.3400(9) 0.27795(15)
H16 H 0.3933 0.3477 0.2840
H17 H 0.2456 0.2453 0.2765
C9 C 0.5514(12) 0.3246(9) 0.14743(15)
H18 H 0.6720 0.3265 0.1536
H19 H 0.5141 0.2318 0.1478
C10 C 0.3684(10) 0.3437(8) 0.23470(14)
H20 H 0.3455 0.2483 0.2332
H21 H 0.4866 0.3543 0.2416
C12 C 0.4384(10) 0.4683(8) 0.11201(14)
H26 H 0.3723 0.5155 0.1229
C14 C 0.4664(10) 0.3419(8) 0.19119(14)
H29 H 0.4395 0.2470 0.1900
H30 H 0.5855 0.3502 0.1979
C15 C 0.3533(10) 0.4045(9) 0.20890(14)
H31 H 0.2343 0.3971 0.2022
H32 H 0.3812 0.4992 0.2103
C16 C 0.1637(11) 0.4010(9) 0.29683(15)
H33 H 0.1897 0.4960 0.2981
H34 H 0.0431 0.3922 0.2909
C19 C 0.5420(9) 0.3680(7) 0.12098(14)
C22 C 0.4508(11) 0.4007(8) 0.16544(13)
H40 H 0.3299 0.4019 0.1594
H41 H 0.4914 0.4927 0.1662
C25 C 0.0913(12) 0.4079(10) 0.34169(16)
H44 H 0.1256 0.5014 0.3427
H45 H -0.0312 0.4050 0.3366
C29 C 0.2511(12) 0.4013(9) 0.25254(16)
H50 H 0.1324 0.3889 0.2459
H51 H 0.2722 0.4970 0.2540
C31 C 0.6281(10) 0.3328(8) 0.08008(15)
H54 H 0.6964 0.2856 0.0695
C33 C 0.1184(12) 0.3482(10) 0.36673(16)
H57 H 0.2415 0.3452 0.3714
H58 H 0.0760 0.2567 0.3661
C34 C 0.6346(11) 0.3009(9) 0.10432(15)
H61 H 0.7050 0.2302 0.1100
C37 C 0.0295(16) 0.4234(13) 0.38666(19)
H65 H 0.0796 0.5111 0.3887
H66 H 0.0439 0.3754 0.4022
H67 H -0.0915 0.4316 0.3817
O3 O 0.5141(7) 0.3535(6) 0.02568(10)
O4 O 0.6674(6) 0.5549(5) 0.03634(9)
O5 O 0.3635(6) 0.5545(5) 0.03483(9)
S2 S 1.0262(2) 1.06934(19) 0.05624(3)
O1 O 0.8686(6) 1.1296(6) 0.04621(9)
C4 C 0.6314(11) 1.0921(9) 0.31346(15)
H10 H 0.6551 0.9967 0.3143
H11 H 0.5097 1.1035 0.3084
C5 C 1.0283(10) 1.1492(8) 0.13860(15)
C7 C 0.7356(11) 1.1530(9) 0.29439(15)
H14 H 0.8569 1.1450 0.3000
H15 H 0.7084 1.2478 0.2932
C11 C 0.9229(11) 1.1594(9) 0.20772(15)
H24 H 1.0409 1.1489 0.2147
H25 H 0.8973 1.2546 0.2073
C13 C 0.8232(10) 1.1527(8) 0.25051(14)
H27 H 0.9425 1.1431 0.2570
H28 H 0.7986 1.2479 0.2492
C17 C 0.9115(10) 1.1069(9) 0.18119(15)
H35 H 0.9411 1.0124 0.1813
H36 H 0.7937 1.1160 0.1740
C20 C 1.0303(11) 1.1812(9) 0.16549(14)
H37 H 1.0052 1.2760 0.1670
H38 H 1.1473 1.1673 0.1727
C21 C 0.9517(12) 1.0371(8) 0.12837(16)
H39 H 0.8975 0.9772 0.1386
C23 C 0.6680(11) 1.1528(8) 0.33911(15)
H42 H 0.7905 1.1431 0.3438
H43 H 0.6431 1.2480 0.3380
C24 C 1.0308(9) 1.0985(7) 0.08825(13)
C26 C 0.9531(12) 1.0112(8) 0.10332(15)
H46 H 0.9009 0.9339 0.0966
C27 C 1.1056(12) 1.2328(9) 0.12283(17)
H47 H 1.1598 1.3096 0.1294
C28 C 0.7094(11) 1.0933(9) 0.26909(15)
H48 H 0.5895 1.1054 0.2630
H49 H 0.7315 0.9977 0.2703
C30 C 0.5699(11) 1.0949(9) 0.35935(15)
H52 H 0.5877 0.9987 0.3598
H53 H 0.4475 1.1110 0.3555
C32 C 0.8058(11) 1.0936(9) 0.22473(14)
H55 H 0.8322 0.9986 0.2257
H56 H 0.6872 1.1032 0.2179
C35 C 1.1076(11) 1.2098(9) 0.09802(16)
H62 H 1.1614 1.2700 0.0877
C36 C 0.6207(13) 1.1513(10) 0.38472(16)
H63 H 0.7411 1.1293 0.3889
H64 H 0.6122 1.2482 0.3837
C38 C 0.5198(14) 1.1058(12) 0.40526(19)
H68 H 0.4029 1.1372 0.4025
H69 H 0.5699 1.1409 0.4208
H70 H 0.5205 1.0096 0.4059
O2 O 1.0270(7) 0.9289(5) 0.05265(11)
O6 O 1.1745(6) 1.1339(6) 0.04753(9)
N1 N 1.1410(8) 0.7027(7) -0.00360(12)
H1 H 1.2409 0.6784 0.0030
H2 H 1.1340 0.7530 -0.0167
N2 N 0.8510(8) 0.7034(7) -0.00338(11)
H3 H 0.7574 0.6798 0.0033
H4 H 0.8455 0.7537 -0.0165
N3 N 1.0098(7) 0.5877(6) 0.02607(11)
H5 H 0.9168 0.5637 0.0328
H6 H 1.1093 0.5613 0.0324
C2 C 1.0001(9) 0.6631(7) 0.00639(12)
N4 N 0.3761(8) 0.8354(7) 0.04493(13)
H8 H 0.3771 0.7490 0.0448
H9 H 0.2791 0.8779 0.0449
N5 N 0.6637(8) 0.8376(7) 0.04535(14)
H22 H 0.6637 0.7512 0.0452
H23 H 0.7602 0.8809 0.0456
C18 C 0.5206(10) 0.9018(8) 0.04527(14)
N6 N 0.5207(9) 1.0326(7) 0.04631(16)
H59 H 0.6172 1.0758 0.0471
H60 H 0.4242 1.0757 0.0463
loop_
_geom_bond_atom_site_label_1
_geom_bond_atom_site_label_2
_geom_bond_site_symmetry_1
_geom_bond_site_symmetry_2
S1 C1 1_555 1_555
S2 O1 1_555 1_555
C1 C3 1_555 1_555
N1 H1 1_555 1_555
H2 N1 1_555 1_555
N2 H3 1_555 1_555
H4 N2 1_555 1_555
N3 H5 1_555 1_555
H6 N3 1_555 1_555
C2 N1 1_555 1_555
C3 H7 1_555 1_555
N4 H8 1_555 1_555
H9 N4 1_555 1_555
C4 H10 1_555 1_555
H11 C4 1_555 1_555
C5 C20 1_555 1_555
C6 H12 1_555 1_555
H13 C6 1_555 1_555
C7 C4 1_555 1_555
H14 C7 1_555 1_555
H15 C7 1_555 1_555
C8 H16 1_555 1_555
H17 C8 1_555 1_555
C9 H18 1_555 1_555
H19 C9 1_555 1_555
C10 H20 1_555 1_555
H21 C10 1_555 1_555
N5 H22 1_555 1_555
H23 N5 1_555 1_555
C11 H24 1_555 1_555
H25 C11 1_555 1_555
C12 C3 1_555 1_555
H26 C12 1_555 1_555
C13 H27 1_555 1_555
H28 C13 1_555 1_555
C14 H29 1_555 1_555
H30 C14 1_555 1_555
C15 C10 1_555 1_555
H31 C15 1_555 1_555
H32 C15 1_555 1_555
C16 C6 1_555 1_555
H33 C16 1_555 1_555
H34 C16 1_555 1_555
C17 C11 1_555 1_555
H35 C17 1_555 1_555
H36 C17 1_555 1_555
C18 N4 1_555 1_555
C19 C9 1_555 1_555
C20 C17 1_555 1_555
H37 C20 1_555 1_555
H38 C20 1_555 1_555
C21 C5 1_555 1_555
H39 C21 1_555 1_555
C22 C9 1_555 1_555
H40 C22 1_555 1_555
H41 C22 1_555 1_555
C23 C4 1_555 1_555
H42 C23 1_555 1_555
H43 C23 1_555 1_555
C24 S2 1_555 1_555
C25 C6 1_555 1_555
H44 C25 1_555 1_555
H45 C25 1_555 1_555
C26 C21 1_555 1_555
H46 C26 1_555 1_555
C27 C5 1_555 1_555
H47 C27 1_555 1_555
C28 C7 1_555 1_555
H48 C28 1_555 1_555
H49 C28 1_555 1_555
C29 C8 1_555 1_555
H50 C29 1_555 1_555
H51 C29 1_555 1_555
C30 C23 1_555 1_555
H52 C30 1_555 1_555
H53 C30 1_555 1_555
C31 C1 1_555 1_555
H54 C31 1_555 1_555
C32 C11 1_555 1_555
H55 C32 1_555 1_555
H56 C32 1_555 1_555
C33 C25 1_555 1_555
H57 C33 1_555 1_555
H58 C33 1_555 1_555
N6 C18 1_555 1_555
H59 N6 1_555 1_555
H60 N6 1_555 1_555
C34 C19 1_555 1_555
H61 C34 1_555 1_555
C35 C24 1_555 1_555
H62 C35 1_555 1_555
C36 C30 1_555 1_555
H63 C36 1_555 1_555
H64 C36 1_555 1_555
C37 C33 1_555 1_555
H65 C37 1_555 1_555
H66 C37 1_555 1_555
H67 C37 1_555 1_555
C38 C36 1_555 1_555
H68 C38 1_555 1_555
H69 C38 1_555 1_555
H70 C38 1_555 1_555
O2 S2 1_555 1_555
O3 S1 1_555 1_555
O4 S1 1_555 1_555
O5 S1 1_555 1_555
O6 S2 1_555 1_555
N2 C2 1_555 1_555
N3 C2 1_555 1_555
C8 C16 1_555 1_555
C10 C29 1_555 1_555
N5 C18 1_555 1_555
C12 C19 1_555 1_555
C13 C28 1_555 1_555
C13 C32 1_555 1_555
C14 C15 1_555 1_555
C14 C22 1_555 1_555
C24 C26 1_555 1_555
C27 C35 1_555 1_555
C31 C34 1_555 1_555

#END
