
#######################################################################
#
#                 Cambridge Crystallographic Data Centre
#                                CCDC 
#
#######################################################################
#
# If this CIF has been generated from an entry in the Cambridge 
# Structural Database, then it will include bibliographic, chemical, 
# crystal, experimental, refinement or atomic coordinate data resulting 
# from the CCDC's data processing and validation procedures.
#
#######################################################################

data_LAVRIK
_chemical_formula_moiety         'C1 H6 N3 1+,C22 H37 O3 S1 1-'
_chemical_name_systematic        'Guanidinium 4-hexadecylbenzenesulfonate'
_symmetry_cell_setting           monoclinic
_symmetry_space_group_name_H-M   'P 21/c'
_symmetry_Int_Tables_number      14
_space_group_name_Hall           '-P 2ybc'
loop_
_symmetry_equiv_pos_site_id
_symmetry_equiv_pos_as_xyz
1 x,y,z
2 -x,1/2+y,1/2-z
3 -x,-y,-z
4 x,1/2-y,1/2+z
_cell_length_a                   7.9138(3)
_cell_length_b                   10.1427(4)
_cell_length_c                   63.907(2)
_cell_angle_alpha                90
_cell_angle_beta                 90.032(2)
_cell_angle_gamma                90
_cell_volume                     5129.64
_cell_formula_units_Z            8
loop_
_atom_site_label
_atom_site_type_symbol
_atom_site_fract_x
_atom_site_fract_y
_atom_site_fract_z
S1 S 0.00301(13) 0.02529(10) 0.033450(14)
O1 O 0.1539(4) -0.0543(3) 0.02946(4)
O3 O -0.1494(4) -0.0554(3) 0.03085(4)
O5 O -0.0029(4) 0.1481(3) 0.02181(4)
C1 C 0.0200(7) 0.1743(5) 0.12555(7)
H1 H -0.0976 0.1721 0.1308
H2 H 0.0577 0.2674 0.1260
C2 C 0.1151(6) -0.0019(4) 0.07393(7)
H3 H 0.1844 -0.0714 0.0689
C3 C 0.2509(6) 0.1540(5) 0.19935(6)
H4 H 0.2727 0.2497 0.1980
H5 H 0.1371 0.1431 0.2055
C4 C 0.0115(5) 0.0662(4) 0.06024(6)
C7 C 0.6246(6) 0.1019(5) 0.28814(7)
H10 H 0.7400 0.1164 0.2826
H11 H 0.6062 0.0055 0.2891
C8 C 0.5060(6) 0.0994(4) 0.25099(7)
H14 H 0.6205 0.1136 0.2452
H15 H 0.4876 0.0031 0.2521
C11 C 0.3764(6) 0.1570(5) 0.23601(6)
H20 H 0.3965 0.2530 0.2347
H21 H 0.2622 0.1447 0.2420
C13 C 0.0175(6) 0.1310(4) 0.10291(6)
C14 C 0.4974(6) 0.1599(4) 0.27282(7)
H24 H 0.5174 0.2560 0.2717
H25 H 0.3822 0.1470 0.2785
C15 C 0.6128(6) 0.1613(5) 0.31002(7)
H26 H 0.4957 0.1509 0.3152
H27 H 0.6368 0.2569 0.3091
C17 C 0.7339(6) 0.0990(5) 0.32578(7)
H30 H 0.7108 0.0032 0.3266
H31 H 0.8512 0.1105 0.3207
C18 C 0.7186(6) 0.1586(5) 0.34761(7)
H32 H 0.5992 0.1530 0.3521
H33 H 0.7492 0.2531 0.3469
C21 C 0.2517(6) 0.0921(4) 0.17759(7)
H38 H 0.3667 0.0995 0.1716
H39 H 0.2245 -0.0029 0.1789
C24 C 0.1264(6) 0.1561(4) 0.16269(6)
H44 H 0.1520 0.2515 0.1617
H45 H 0.0112 0.1470 0.1685
C25 C 0.1186(6) 0.0307(4) 0.09506(7)
H46 H 0.1913 -0.0163 0.1043
C26 C -0.0867(6) 0.1970(5) 0.08895(7)
H47 H -0.1569 0.2660 0.0940
C30 C 0.1293(6) 0.0964(4) 0.14063(6)
H53 H 0.2470 0.0949 0.1354
H54 H 0.0882 0.0043 0.1413
C35 C -0.0912(6) 0.1652(5) 0.06791(7)
H63 H -0.1648 0.2114 0.0587
C36 C 0.3806(6) 0.0953(5) 0.21421(7)
H64 H 0.4947 0.1074 0.2082
H65 H 0.3599 -0.0007 0.2155
C37 C 0.8299(7) 0.0917(5) 0.36410(7)
H66 H 0.7996 -0.0029 0.3648
H67 H 0.9494 0.0976 0.3596
C43 C 0.8131(7) 0.1513(6) 0.38560(8)
H73 H 0.6921 0.1524 0.3895
H74 H 0.8528 0.2438 0.3851
C44 C 0.9121(9) 0.0778(7) 0.40242(8)
H75 H 0.8681 -0.0122 0.4037
H76 H 0.9001 0.1238 0.4158
H77 H 1.0318 0.0745 0.3985
S2 S 0.50153(14) 0.43039(10) 0.048412(15)
O2 O 0.3484(4) 0.3647(3) 0.04127(5)
O4 O 0.6550(4) 0.3711(3) 0.03965(4)
C5 C 1.1597(6) 0.3412(5) 0.32472(7)
H6 H 1.1867 0.2462 0.3236
H7 H 1.0413 0.3488 0.3296
O6 O 0.4985(4) 0.5724(3) 0.04566(5)
C6 C 0.5418(5) 0.3510(4) 0.11854(6)
C9 C 0.5514(6) 0.3191(5) 0.14177(7)
H16 H 0.4382 0.3346 0.1479
H17 H 0.5758 0.2238 0.1432
C10 C 0.9301(6) 0.3470(4) 0.25049(7)
H18 H 0.8152 0.3585 0.2563
H19 H 0.9518 0.2512 0.2493
C12 C 1.0573(6) 0.4064(5) 0.26560(7)
H22 H 1.0360 0.5023 0.2668
H23 H 1.1725 0.3946 0.2599
C16 C 0.6803(6) 0.3410(5) 0.17742(7)
H28 H 0.5662 0.3530 0.1835
H29 H 0.7038 0.2452 0.1770
C19 C 1.0494(6) 0.3444(4) 0.28739(6)
H34 H 0.9334 0.3548 0.2929
H35 H 1.0722 0.2488 0.2861
C20 C 1.1734(6) 0.4031(5) 0.30309(7)
H36 H 1.1524 0.4991 0.3042
H37 H 1.2899 0.3909 0.2978
C22 C 1.2760(6) 0.4033(5) 0.34124(7)
H40 H 1.3951 0.3913 0.3369
H41 H 1.2534 0.4992 0.3420
C23 C 0.8058(6) 0.3479(5) 0.21371(7)
H42 H 0.8268 0.2519 0.2127
H43 H 0.6916 0.3601 0.2197
C27 C 0.6791(6) 0.3936(5) 0.15484(7)
H48 H 0.6504 0.4886 0.1549
H49 H 0.7930 0.3835 0.1486
C28 C 0.9352(6) 0.4078(5) 0.22861(7)
H50 H 0.9142 0.5038 0.2297
H51 H 1.0496 0.3956 0.2227
C29 C 0.4561(7) 0.2668(5) 0.10534(7)
H52 H 0.4067 0.1894 0.1111
C31 C 0.8081(6) 0.4064(5) 0.19177(7)
H55 H 0.7833 0.5019 0.1926
H56 H 0.9226 0.3960 0.1857
C32 C 1.2517(7) 0.3436(5) 0.36288(7)
H59 H 1.1316 0.3537 0.3669
H60 H 1.2758 0.2479 0.3621
C33 C 0.6147(7) 0.4609(5) 0.10967(7)
H61 H 0.6757 0.5204 0.1183
C34 C 0.6012(7) 0.4873(4) 0.08820(7)
H62 H 0.6521 0.5637 0.0824
C38 C 1.3605(6) 0.4028(5) 0.37995(7)
H68 H 1.3432 0.4994 0.3802
H69 H 1.4809 0.3861 0.3766
C39 C 0.5128(5) 0.4007(4) 0.07572(6)
C40 C 0.4391(6) 0.2902(5) 0.08426(8)
H70 H 0.3771 0.2308 0.0757
C41 C 1.3215(7) 0.3469(5) 0.40154(8)
H71 H 1.2041 0.3712 0.4052
H72 H 1.3266 0.2495 0.4007
C45 C 1.4362(8) 0.3916(6) 0.41891(8)
H78 H 1.5519 0.3625 0.4160
H79 H 1.3980 0.3533 0.4322
H80 H 1.4334 0.4880 0.4199
N1 N 0.1458(5) 0.6639(4) 0.03869(6)
H8 H 0.1442 0.7506 0.0383
H9 H 0.2429 0.6216 0.0390
N2 N -0.1427(5) 0.6613(4) 0.03844(7)
H12 H -0.1436 0.7481 0.0380
H13 H -0.2386 0.6174 0.0386
N3 N 0.0036(6) 0.4661(4) 0.03981(7)
H57 H -0.0924 0.4223 0.0401
H58 H 0.1002 0.4232 0.0401
C42 C 0.0025(6) 0.5972(4) 0.03889(7)
N4 N 0.6429(4) 0.2032(4) 0.00301(6)
H81 H 0.7391 0.1782 -0.0027
H82 H 0.6432 0.2538 0.0142
N5 N 0.3519(5) 0.2043(4) 0.00302(6)
H83 H 0.2555 0.1799 -0.0027
H84 H 0.3520 0.2549 0.0142
C46 C 0.4977(5) 0.1647(4) -0.00532(6)
N6 N 0.4965(5) 0.0887(3) -0.02213(5)
H85 H 0.5924 0.0635 -0.0278
H86 H 0.3998 0.0633 -0.0276
loop_
_geom_bond_atom_site_label_1
_geom_bond_atom_site_label_2
_geom_bond_site_symmetry_1
_geom_bond_site_symmetry_2
S1 O1 1_555 1_555
S2 O2 1_555 1_555
O3 S1 1_555 1_555
O4 S2 1_555 1_555
O5 S1 1_555 1_555
C1 H1 1_555 1_555
H2 C1 1_555 1_555
C2 H3 1_555 1_555
C3 H4 1_555 1_555
H5 C3 1_555 1_555
C4 S1 1_555 1_555
C5 H6 1_555 1_555
H7 C5 1_555 1_555
O6 S2 1_555 1_555
N1 H8 1_555 1_555
H9 N1 1_555 1_555
C6 C9 1_555 1_555
C7 H10 1_555 1_555
H11 C7 1_555 1_555
N2 H12 1_555 1_555
H13 N2 1_555 1_555
C8 H14 1_555 1_555
H15 C8 1_555 1_555
C9 H16 1_555 1_555
H17 C9 1_555 1_555
C10 H18 1_555 1_555
H19 C10 1_555 1_555
C11 C8 1_555 1_555
H20 C11 1_555 1_555
H21 C11 1_555 1_555
C12 C10 1_555 1_555
H22 C12 1_555 1_555
H23 C12 1_555 1_555
C13 C1 1_555 1_555
C14 C7 1_555 1_555
H24 C14 1_555 1_555
H25 C14 1_555 1_555
C15 C7 1_555 1_555
H26 C15 1_555 1_555
H27 C15 1_555 1_555
C16 H28 1_555 1_555
H29 C16 1_555 1_555
C17 C15 1_555 1_555
H30 C17 1_555 1_555
H31 C17 1_555 1_555
C18 C17 1_555 1_555
H32 C18 1_555 1_555
H33 C18 1_555 1_555
C19 C12 1_555 1_555
H34 C19 1_555 1_555
H35 C19 1_555 1_555
C20 C5 1_555 1_555
H36 C20 1_555 1_555
H37 C20 1_555 1_555
C21 C3 1_555 1_555
H38 C21 1_555 1_555
H39 C21 1_555 1_555
C22 C5 1_555 1_555
H40 C22 1_555 1_555
H41 C22 1_555 1_555
C23 H42 1_555 1_555
H43 C23 1_555 1_555
C24 C21 1_555 1_555
H44 C24 1_555 1_555
H45 C24 1_555 1_555
C25 C2 1_555 1_555
H46 C25 1_555 1_555
C26 C13 1_555 1_555
H47 C26 1_555 1_555
C27 C9 1_555 1_555
H48 C27 1_555 1_555
H49 C27 1_555 1_555
C28 C10 1_555 1_555
H50 C28 1_555 1_555
H51 C28 1_555 1_555
C29 C6 1_555 1_555
H52 C29 1_555 1_555
C30 C1 1_555 1_555
H53 C30 1_555 1_555
H54 C30 1_555 1_555
C31 C16 1_555 1_555
H55 C31 1_555 1_555
H56 C31 1_555 1_555
N3 H57 1_555 1_555
H58 N3 1_555 1_555
C32 C22 1_555 1_555
H59 C32 1_555 1_555
H60 C32 1_555 1_555
C33 C6 1_555 1_555
H61 C33 1_555 1_555
C34 C33 1_555 1_555
H62 C34 1_555 1_555
C35 C4 1_555 1_555
H63 C35 1_555 1_555
C36 C3 1_555 1_555
H64 C36 1_555 1_555
H65 C36 1_555 1_555
C37 C18 1_555 1_555
H66 C37 1_555 1_555
H67 C37 1_555 1_555
C38 C32 1_555 1_555
H68 C38 1_555 1_555
H69 C38 1_555 1_555
C39 S2 1_555 1_555
C40 C29 1_555 1_555
H70 C40 1_555 1_555
C41 C38 1_555 1_555
H71 C41 1_555 1_555
H72 C41 1_555 1_555
C42 N1 1_555 1_555
C43 C37 1_555 1_555
H73 C43 1_555 1_555
H74 C43 1_555 1_555
C44 C43 1_555 1_555
H75 C44 1_555 1_555
H76 C44 1_555 1_555
H77 C44 1_555 1_555
C45 C41 1_555 1_555
H78 C45 1_555 1_555
H79 C45 1_555 1_555
H80 C45 1_555 1_555
N4 H81 1_555 1_555
H82 N4 1_555 1_555
N5 H83 1_555 1_555
H84 N5 1_555 1_555
C46 N4 1_555 1_555
N6 C46 1_555 1_555
H85 N6 1_555 1_555
H86 N6 1_555 1_555
C2 C4 1_555 1_555
N2 C42 1_555 1_555
C8 C14 1_555 1_555
C11 C36 1_555 1_555
C13 C25 1_555 1_555
C16 C27 1_555 1_555
C19 C20 1_555 1_555
C23 C28 1_555 1_555
C23 C31 1_555 1_555
C24 C30 1_555 1_555
C26 C35 1_555 1_555
N3 C42 1_555 1_555
C34 C39 1_555 1_555
C39 C40 1_555 1_555
N5 C46 1_555 1_555

#END
