
#######################################################################
#
#                 Cambridge Crystallographic Data Centre
#                                CCDC 
#
#######################################################################
#
# If this CIF has been generated from an entry in the Cambridge 
# Structural Database, then it will include bibliographic, chemical, 
# crystal, experimental, refinement or atomic coordinate data resulting 
# from the CCDC's data processing and validation procedures.
#
#######################################################################

data_LAVRUY
_chemical_formula_moiety         'C24 H22 O4 S4'
_chemical_name_systematic        
"S,S',S'',S'''-(9,10-dimethylanthracene-2,3,6,7-tetrayl) tetraethanethioate"
_symmetry_cell_setting           monoclinic
_symmetry_space_group_name_H-M   'P 21/c'
_symmetry_Int_Tables_number      14
_space_group_name_Hall           '-P 2ybc'
loop_
_symmetry_equiv_pos_site_id
_symmetry_equiv_pos_as_xyz
1 x,y,z
2 -x,1/2+y,1/2-z
3 -x,-y,-z
4 x,1/2-y,1/2+z
_cell_length_a                   14.5876(8)
_cell_length_b                   5.3671(3)
_cell_length_c                   15.3995(10)
_cell_angle_alpha                90
_cell_angle_beta                 99.492(4)
_cell_angle_gamma                90
_cell_volume                     1189.17
_exptl_crystal_colour            yellow
_exptl_crystal_description       needle
_cell_formula_units_Z            2
loop_
_atom_site_label
_atom_site_type_symbol
_atom_site_fract_x
_atom_site_fract_y
_atom_site_fract_z
C1 C 0.42819(14) 0.6784(4) 0.48876(13)
C2 C 0.48935(14) 0.6708(4) 0.56998(13)
C3 C 0.47878(15) 0.8467(4) 0.64378(14)
H1 H 0.5366 0.9406 0.6608
H2 H 0.4652 0.7515 0.6945
H3 H 0.4277 0.9627 0.6242
C4 C 0.56076(13) 0.4913(4) 0.58072(13)
C5 C 0.62483(14) 0.4727(4) 0.66160(14)
H4 H 0.6185 0.5843 0.7081
C6 C 0.69402(14) 0.3021(4) 0.67427(14)
C7 C 0.70552(14) 0.1329(4) 0.60497(15)
C8 C 0.64573(14) 0.1441(4) 0.52697(14)
H5 H 0.6535 0.0301 0.4816
C9 C 0.74139(17) 0.0360(5) 0.82856(15)
C10 C 0.8091(2) -0.0263(7) 0.90983(19)
H6 H 0.8107 -0.2072 0.9186
H7 H 0.7897 0.0548 0.9609
H8 H 0.8711 0.0329 0.9032
C11 C 0.89487(17) 0.0627(6) 0.61680(18)
C12 C 0.9784(2) -0.1061(7) 0.6317(3)
H9 H 0.9591 -0.2772 0.6156
H10 H 1.0070 -0.1006 0.6939
H11 H 1.0236 -0.0505 0.5952
O1 O 0.67260(13) -0.0824(4) 0.80300(12)
O2 O 0.89896(14) 0.2828(4) 0.60544(16)
S1 S 0.77429(4) 0.30651(12) 0.77407(4)
S2 S 0.79060(4) -0.10539(12) 0.61962(4)
C1B C 0.57181(14) 0.3216(4) 0.51124(13)
C2B C 0.51065(14) 0.3292(4) 0.43002(13)
C3B C 0.52122(15) 0.1533(4) 0.35622(14)
H1B H 0.4634 0.0594 0.3392
H2B H 0.5348 0.2485 0.3055
H3B H 0.5723 0.0373 0.3758
C4B C 0.43924(13) 0.5087(4) 0.41928(13)
C5B C 0.37517(14) 0.5273(4) 0.33840(14)
H4B H 0.3815 0.4157 0.2919
C6B C 0.30598(14) 0.6979(4) 0.32573(14)
C7B C 0.29448(14) 0.8671(4) 0.39503(15)
C8B C 0.35427(14) 0.8559(4) 0.47303(14)
H5B H 0.3465 0.9699 0.5184
C9B C 0.25861(17) 0.9640(5) 0.17144(15)
C10B C 0.1909(2) 1.0263(7) 0.09017(19)
H6B H 0.1893 1.2072 0.0814
H7B H 0.2103 0.9452 0.0391
H8B H 0.1289 0.9671 0.0968
C11B C 0.10513(17) 0.9373(6) 0.38320(18)
C12B C 0.0216(2) 1.1061(7) 0.3683(3)
H9B H 0.0409 1.2772 0.3844
H10B H -0.0070 1.1006 0.3061
H11B H -0.0236 1.0505 0.4048
O1B O 0.32740(13) 1.0824(4) 0.19700(12)
O2B O 0.10104(14) 0.7172(4) 0.39456(16)
S1B S 0.22571(4) 0.69349(12) 0.22593(4)
S2B S 0.20940(4) 1.10539(12) 0.38038(4)
loop_
_geom_bond_atom_site_label_1
_geom_bond_atom_site_label_2
_geom_bond_site_symmetry_1
_geom_bond_site_symmetry_2
C1 C2 1_555 1_555
C2 C3 1_555 1_555
C3 H1 1_555 1_555
H2 C3 1_555 1_555
H3 C3 1_555 1_555
C4 C2 1_555 1_555
C5 C4 1_555 1_555
H4 C5 1_555 1_555
C6 C5 1_555 1_555
C7 C6 1_555 1_555
C8 C7 1_555 1_555
H5 C8 1_555 1_555
C9 C10 1_555 1_555
C10 H6 1_555 1_555
H7 C10 1_555 1_555
H8 C10 1_555 1_555
C11 C12 1_555 1_555
C12 H9 1_555 1_555
H10 C12 1_555 1_555
H11 C12 1_555 1_555
O1 C9 1_555 1_555
O2 C11 1_555 1_555
S1 C6 1_555 1_555
S2 C7 1_555 1_555
C1B C4 1_555 1_555
C2B C1B 1_555 1_555
C3B C2B 1_555 1_555
H1B C3B 1_555 1_555
H2B C3B 1_555 1_555
H3B C3B 1_555 1_555
C4B C1 1_555 1_555
C5B C4B 1_555 1_555
H4B C5B 1_555 1_555
C6B C5B 1_555 1_555
C7B C6B 1_555 1_555
C8B C1 1_555 1_555
H5B C8B 1_555 1_555
C9B C10B 1_555 1_555
C10B H6B 1_555 1_555
H7B C10B 1_555 1_555
H8B C10B 1_555 1_555
C11B C12B 1_555 1_555
C12B H9B 1_555 1_555
H10B C12B 1_555 1_555
H11B C12B 1_555 1_555
O1B C9B 1_555 1_555
O2B C11B 1_555 1_555
S1B C6B 1_555 1_555
S2B C7B 1_555 1_555
C8 C1B 1_555 1_555
C9 S1 1_555 1_555
C11 S2 1_555 1_555
C2B C4B 1_555 1_555
C7B C8B 1_555 1_555
C9B S1B 1_555 1_555
C11B S2B 1_555 1_555

#END
