
#######################################################################
#
#                 Cambridge Crystallographic Data Centre
#                                CCDC 
#
#######################################################################
#
# If this CIF has been generated from an entry in the Cambridge 
# Structural Database, then it will include bibliographic, chemical, 
# crystal, experimental, refinement or atomic coordinate data resulting 
# from the CCDC's data processing and validation procedures.
#
#######################################################################

data_LAVTIM
_chemical_formula_moiety         'C21 H16 N2 O2'
_chemical_name_systematic        
2-Amino-4-(4-methoxyphenyl)-4H-benzo(h)chromene-3-carbonitrile
_symmetry_cell_setting           triclinic
_symmetry_space_group_name_H-M   'P -1'
_symmetry_Int_Tables_number      2
_space_group_name_Hall           '-P 1'
loop_
_symmetry_equiv_pos_site_id
_symmetry_equiv_pos_as_xyz
1 x,y,z
2 -x,-y,-z
_cell_length_a                   6.4140(13)
_cell_length_b                   10.643(2)
_cell_length_c                   13.308(3)
_cell_angle_alpha                108.59(3)
_cell_angle_beta                 96.11(3)
_cell_angle_gamma                96.95(3)
_cell_volume                     844.52
_exptl_crystal_colour            colorless
_exptl_crystal_description       block
_chemical_melting_point          '464-466 K'
_cell_formula_units_Z            2
_exptl_crystal_recrystallization_method ethanol
loop_
_atom_site_label
_atom_site_type_symbol
_atom_site_fract_x
_atom_site_fract_y
_atom_site_fract_z
O1 O 0.3695(3) 0.29973(17) 0.88148(15)
O2 O 0.3768(2) 0.96617(15) 0.76767(12)
N1 N 1.0298(3) 0.8649(2) 0.90388(17)
N2 N 0.6335(4) 1.0832(2) 0.90233(19)
C1 C 0.1913(6) 0.2915(3) 0.9340(3)
H1 H 0.1838 0.2138 0.9562
H2 H 0.0644 0.2843 0.8858
H3 H 0.2044 0.3708 0.9958
C2 C 0.4087(4) 0.4050(2) 0.84362(18)
C3 C 0.5833(4) 0.4082(2) 0.7921(2)
H4 H 0.6680 0.3418 0.7854
C4 C 0.6333(4) 0.5090(2) 0.75041(18)
H5 H 0.7515 0.5095 0.7156
C5 C 0.5112(3) 0.6098(2) 0.75921(16)
C6 C 0.3385(4) 0.6054(2) 0.8116(2)
H6 H 0.2543 0.6721 0.8188
C7 C 0.2859(4) 0.5047(2) 0.8542(2)
H7 H 0.1686 0.5045 0.8896
C8 C 0.5679(3) 0.7229(2) 0.71396(17)
H8 H 0.6749 0.6973 0.6672
C9 C 0.8644(3) 0.8632(2) 0.85951(17)
C10 C 0.6619(3) 0.8549(2) 0.80195(17)
C11 C 0.5645(3) 0.9638(2) 0.82482(18)
C12 C 0.2888(3) 0.8560(2) 0.67716(17)
C13 C 0.0966(3) 0.8720(2) 0.62116(17)
C14 C 0.0004(4) 0.9869(3) 0.6559(2)
H9 H 0.0648 1.0587 0.7165
C15 C -0.1895(4) 0.9931(3) 0.6002(2)
H10 H -0.2534 1.0689 0.6241
C16 C -0.2875(4) 0.8869(4) 0.5082(2)
H11 H -0.4164 0.8923 0.4719
C17 C -0.1960(4) 0.7764(3) 0.4717(2)
H12 H -0.2616 0.7068 0.4098
C18 C -0.0010(4) 0.7655(3) 0.52681(18)
C19 C 0.0974(4) 0.6512(3) 0.49201(19)
H13 H 0.0391 0.5827 0.4281
C20 C 0.2775(4) 0.6397(3) 0.55075(19)
H14 H 0.3371 0.5621 0.5268
C21 C 0.3760(3) 0.7425(2) 0.64717(17)
H15 H 0.545(5) 1.150(3) 0.907(2)
H16 H 0.736(4) 1.093(3) 0.957(2)
loop_
_geom_bond_atom_site_label_1
_geom_bond_atom_site_label_2
_geom_bond_site_symmetry_1
_geom_bond_site_symmetry_2
O1 C1 1_555 1_555
O2 C11 1_555 1_555
N1 C9 1_555 1_555
N2 C11 1_555 1_555
C1 H1 1_555 1_555
H2 C1 1_555 1_555
H3 C1 1_555 1_555
C2 O1 1_555 1_555
C3 C2 1_555 1_555
H4 C3 1_555 1_555
C4 C3 1_555 1_555
H5 C4 1_555 1_555
C5 C4 1_555 1_555
C6 C5 1_555 1_555
H6 C6 1_555 1_555
C7 C2 1_555 1_555
H7 C7 1_555 1_555
C8 C5 1_555 1_555
H8 C8 1_555 1_555
C9 C10 1_555 1_555
C10 C8 1_555 1_555
C11 C10 1_555 1_555
C12 O2 1_555 1_555
C13 C12 1_555 1_555
C14 C13 1_555 1_555
H9 C14 1_555 1_555
C15 C14 1_555 1_555
H10 C15 1_555 1_555
C16 C15 1_555 1_555
H11 C16 1_555 1_555
C17 C16 1_555 1_555
H12 C17 1_555 1_555
C18 C13 1_555 1_555
C19 C18 1_555 1_555
H13 C19 1_555 1_555
C20 C19 1_555 1_555
H14 C20 1_555 1_555
C21 C8 1_555 1_555
H15 N2 1_555 1_555
H16 N2 1_555 1_555
C6 C7 1_555 1_555
C12 C21 1_555 1_555
C17 C18 1_555 1_555
C20 C21 1_555 1_555

#END
