
#######################################################################
#
#                 Cambridge Crystallographic Data Centre
#                                CCDC 
#
#######################################################################
#
# If this CIF has been generated from an entry in the Cambridge 
# Structural Database, then it will include bibliographic, chemical, 
# crystal, experimental, refinement or atomic coordinate data resulting 
# from the CCDC's data processing and validation procedures.
#
#######################################################################

data_LAVXEM
_chemical_formula_moiety         'C10 H17 N3 O2 S1'
_chemical_name_systematic        
4,4,5,5-Tetramethyl-2-(thiazol-2-yl)imidazolidine-1,3-diol
_symmetry_cell_setting           monoclinic
_symmetry_space_group_name_H-M   'P 21/c'
_symmetry_Int_Tables_number      14
_space_group_name_Hall           '-P 2ybc'
loop_
_symmetry_equiv_pos_site_id
_symmetry_equiv_pos_as_xyz
1 x,y,z
2 -x,1/2+y,1/2-z
3 -x,-y,-z
4 x,1/2-y,1/2+z
_cell_length_a                   6.9785(5)
_cell_length_b                   18.7982(13)
_cell_length_c                   10.0764(7)
_cell_angle_alpha                90
_cell_angle_beta                 107.3670(10)
_cell_angle_gamma                90
_cell_volume                     1261.59
_exptl_crystal_colour            yellow
_exptl_crystal_description       prism
_cell_formula_units_Z            4
loop_
_atom_site_label
_atom_site_type_symbol
_atom_site_fract_x
_atom_site_fract_y
_atom_site_fract_z
S1 S 0.08575(9) 0.63584(5) 0.48980(7)
O1 O 0.5623(2) 0.74143(7) 0.72796(16)
H1 H 0.4925 0.7654 0.7635
O2 O 0.7023(2) 0.54614(9) 0.55417(17)
H2 H 0.6727 0.5109 0.5043
N1 N 0.3076(3) 0.68503(10) 0.35203(18)
N2 N 0.4980(3) 0.66873(8) 0.71949(15)
N3 N 0.5373(2) 0.56442(8) 0.60613(15)
C1 C -0.0274(4) 0.66449(16) 0.3255(3)
H3 H -0.1650 0.6634 0.2812
C2 C 0.1094(5) 0.68864(15) 0.2694(3)
H4 H 0.0744 0.7070 0.1797
C3 C 0.3157(3) 0.65796(10) 0.47212(19)
C4 C 0.5066(3) 0.64225(9) 0.58516(17)
H5 H 0.6211 0.6635 0.5622
C5 C 0.5835(4) 0.55112(11) 0.7620(2)
C6 C 0.6467(4) 0.62476(11) 0.8261(2)
C7 C 0.3797(5) 0.52849(15) 0.7822(3)
H6 H 0.3266 0.4885 0.7236
H7 H 0.2867 0.5674 0.7580
H8 H 0.4000 0.5156 0.8777
C8 C 0.7338(5) 0.49203(13) 0.8116(3)
H9 H 0.6788 0.4484 0.7668
H10 H 0.7635 0.4868 0.9105
H11 H 0.8547 0.5032 0.7892
C9 C 0.6168(5) 0.63854(13) 0.9663(2)
H12 H 0.6683 0.6848 0.9990
H13 H 0.6869 0.6030 1.0312
H14 H 0.4762 0.6366 0.9579
C10 C 0.8690(4) 0.64071(15) 0.8348(3)
H15 H 0.8951 0.6241 0.7517
H16 H 0.9567 0.6169 0.9140
H17 H 0.8924 0.6911 0.8438
loop_
_geom_bond_atom_site_label_1
_geom_bond_atom_site_label_2
_geom_bond_site_symmetry_1
_geom_bond_site_symmetry_2
S1 C1 1_555 1_555
O1 H1 1_555 1_555
O2 H2 1_555 1_555
N1 C2 1_555 1_555
N2 O1 1_555 1_555
N3 O2 1_555 1_555
C1 H3 1_555 1_555
C2 C1 1_555 1_555
H4 C2 1_555 1_555
C3 S1 1_555 1_555
C4 N2 1_555 1_555
H5 C4 1_555 1_555
C5 N3 1_555 1_555
C6 N2 1_555 1_555
C7 C5 1_555 1_555
H6 C7 1_555 1_555
H7 C7 1_555 1_555
H8 C7 1_555 1_555
C8 C5 1_555 1_555
H9 C8 1_555 1_555
H10 C8 1_555 1_555
H11 C8 1_555 1_555
C9 C6 1_555 1_555
H12 C9 1_555 1_555
H13 C9 1_555 1_555
H14 C9 1_555 1_555
C10 C6 1_555 1_555
H15 C10 1_555 1_555
H16 C10 1_555 1_555
H17 C10 1_555 1_555
N1 C3 1_555 1_555
N3 C4 1_555 1_555
C3 C4 1_555 1_555
C5 C6 1_555 1_555

#END
