
#######################################################################
#
#                 Cambridge Crystallographic Data Centre
#                                CCDC 
#
#######################################################################
#
# If this CIF has been generated from an entry in the Cambridge 
# Structural Database, then it will include bibliographic, chemical, 
# crystal, experimental, refinement or atomic coordinate data resulting 
# from the CCDC's data processing and validation procedures.
#
#######################################################################

data_LAVXIS
_chemical_formula_moiety         'C39 H38 N1 O5 P1'
_chemical_name_systematic        
'methyl 5-t-butyl-4-cyano-2-[2-methoxy-2-oxo-1-(triphenyl-\l^5^-phosphanylidene)ethyl]-3-(4-methylphenyl)-2,3-dihydrofuran-2-carboxylate'
_symmetry_cell_setting           monoclinic
_symmetry_space_group_name_H-M   'P 21/c'
_symmetry_Int_Tables_number      14
_space_group_name_Hall           '-P 2ybc'
loop_
_symmetry_equiv_pos_site_id
_symmetry_equiv_pos_as_xyz
1 x,y,z
2 -x,1/2+y,1/2-z
3 -x,-y,-z
4 x,1/2-y,1/2+z
_cell_length_a                   11.3700(17)
_cell_length_b                   13.967(2)
_cell_length_c                   22.647(3)
_cell_angle_alpha                90
_cell_angle_beta                 108.093(6)
_cell_angle_gamma                90
_cell_volume                     3418.62
_exptl_crystal_colour            colorless
_exptl_crystal_description       block
_cell_formula_units_Z            4
loop_
_atom_site_label
_atom_site_type_symbol
_atom_site_fract_x
_atom_site_fract_y
_atom_site_fract_z
C1 C -0.1854(4) 0.7311(3) 0.8321(2)
H1 H -0.1791 0.7399 0.8737
C2 C -0.2996(5) 0.7198(4) 0.7885(3)
H2 H -0.3701 0.7210 0.8010
C3 C -0.3117(5) 0.7070(4) 0.7279(3)
H3 H -0.3898 0.6983 0.6994
C4 C -0.2107(5) 0.7067(3) 0.7081(2)
H4 H -0.2194 0.6985 0.6662
C5 C -0.0934(4) 0.7187(3) 0.7514(2)
H5 H -0.0239 0.7195 0.7380
C6 C -0.0800(3) 0.7294(2) 0.81391(19)
C7 C -0.0019(4) 0.6610(3) 0.96510(19)
H6 H -0.0452 0.6164 0.9359
C8 C -0.0057(4) 0.6554(4) 1.0254(2)
H7 H -0.0532 0.6088 1.0366
C9 C 0.0624(5) 0.7203(4) 1.0691(2)
H8 H 0.0613 0.7173 1.1099
C10 C 0.1306(5) 0.7882(4) 1.0520(2)
H9 H 0.1770 0.8308 1.0817
C11 C 0.1326(4) 0.7953(3) 0.99215(19)
H10 H 0.1794 0.8429 0.9814
C12 C 0.0652(3) 0.7319(2) 0.94760(18)
C13 C 0.0963(4) 0.5536(3) 0.8184(2)
H11 H 0.0246 0.5683 0.7864
C14 C 0.1505(5) 0.4663(3) 0.8198(2)
H12 H 0.1152 0.4219 0.7888
C15 C 0.2555(5) 0.4432(3) 0.8662(2)
H13 H 0.2919 0.3833 0.8668
C16 C 0.3075(4) 0.5089(3) 0.91204(19)
H14 H 0.3794 0.4936 0.9437
C17 C 0.2536(4) 0.5973(3) 0.91126(17)
H15 H 0.2891 0.6413 0.9426
C18 C 0.1476(3) 0.6211(2) 0.86450(16)
C19 C -0.0723(6) 0.9920(4) 0.8788(4)
H16 H -0.0217 1.0307 0.9121
H17 H -0.1449 0.9718 0.8885
H18 H -0.0963 1.0287 0.8411
C20 C 0.1060(4) 0.9246(2) 0.8598(2)
C21 C 0.1598(3) 0.8331(2) 0.85637(17)
C22 C 0.2842(3) 0.8219(2) 0.84841(17)
C23 C 0.2812(5) 0.7440(3) 0.7977(3)
C24 C 0.3852(6) 0.6269(4) 0.7607(3)
H19 H 0.3166 0.5840 0.7552
H20 H 0.4608 0.5908 0.7715
H21 H 0.3756 0.6611 0.7227
C25 C 0.2401(4) 0.9590(3) 0.72038(19)
H22 H 0.1732 0.9795 0.7325
C26 C 0.2342(6) 0.9661(3) 0.6595(2)
H23 H 0.1629 0.9908 0.6311
C27 C 0.3302(6) 0.9380(3) 0.6389(2)
C28 C 0.3233(7) 0.9466(5) 0.5715(2)
H24 H 0.2948 1.0095 0.5566
H25 H 0.2667 0.8996 0.5475
H26 H 0.4039 0.9361 0.5675
C29 C 0.4319(5) 0.9015(4) 0.6826(2)
H27 H 0.4984 0.8808 0.6703
C30 C 0.4390(4) 0.8945(3) 0.74438(19)
H28 H 0.5104 0.8704 0.7729
C31 C 0.3420(3) 0.9225(2) 0.76405(16)
C32 C 0.3439(3) 0.9160(2) 0.83085(16)
H29 H 0.2989 0.9713 0.8396
C33 C 0.4706(4) 0.9140(3) 0.87877(17)
C34 C 0.5592(4) 0.9856(4) 0.87908(19)
C35 C 0.4789(4) 0.8441(3) 0.91998(18)
C36 C 0.5787(4) 0.8117(4) 0.9771(2)
C37 C 0.6124(5) 0.7064(5) 0.9654(3)
H30 H 0.5420 0.6659 0.9608
H31 H 0.6801 0.6849 1.0000
H32 H 0.6359 0.7039 0.9282
C38 C 0.5430(18) 0.8507(16) 1.0333(5)
H33 H 0.5438 0.9194 1.0327
H34 H 0.6014 0.8282 1.0712
H35 H 0.4616 0.8286 1.0309
C39 C 0.7045(6) 0.8602(8) 0.9833(5)
H36 H 0.7286 0.8461 0.9472
H37 H 0.7661 0.8364 1.0197
H38 H 0.6966 0.9282 0.9869
N1 N 0.6241(4) 1.0468(3) 0.8759(2)
O1 O -0.0050(3) 0.91125(18) 0.87101(15)
O2 O 0.1212(7) 1.0034(3) 0.8399(5)
O3 O 0.1970(4) 0.7328(2) 0.75240(18)
O4 O 0.3892(3) 0.6974(2) 0.81218(16)
O5 O 0.3742(2) 0.79119(18) 0.90798(12)
P1 P 0.07498(9) 0.73644(6) 0.86885(4)
C40? C 0.6624(17) 0.8969(9) 1.0081(8)
H39? H 0.6869 0.9316 0.9772
H40? H 0.7347 0.8733 1.0392
H41? H 0.6176 0.9388 1.0271
C41? C 0.5239(8) 0.7944(9) 1.0309(3)
H42? H 0.4817 0.8511 1.0373
H43? H 0.5895 0.7795 1.0682
H44? H 0.4666 0.7420 1.0204
O6? O 0.1624(8) 1.0004(5) 0.8770(6)
loop_
_geom_bond_atom_site_label_1
_geom_bond_atom_site_label_2
_geom_bond_site_symmetry_1
_geom_bond_site_symmetry_2
C1 H1 1_555 1_555
C2 C1 1_555 1_555
H2 C2 1_555 1_555
C3 C2 1_555 1_555
H3 C3 1_555 1_555
C4 C3 1_555 1_555
H4 C4 1_555 1_555
C5 C4 1_555 1_555
H5 C5 1_555 1_555
C6 C1 1_555 1_555
C7 H6 1_555 1_555
C8 C7 1_555 1_555
H7 C8 1_555 1_555
C9 C8 1_555 1_555
H8 C9 1_555 1_555
C10 C9 1_555 1_555
H9 C10 1_555 1_555
C11 C10 1_555 1_555
H10 C11 1_555 1_555
C12 C7 1_555 1_555
C13 H11 1_555 1_555
C14 C13 1_555 1_555
H12 C14 1_555 1_555
C15 C14 1_555 1_555
H13 C15 1_555 1_555
C16 C15 1_555 1_555
H14 C16 1_555 1_555
C17 C16 1_555 1_555
H15 C17 1_555 1_555
C18 C13 1_555 1_555
C19 H16 1_555 1_555
H17 C19 1_555 1_555
H18 C19 1_555 1_555
C20 C21 1_555 1_555
C21 C22 1_555 1_555
C22 C23 1_555 1_555
C23 O3 1_555 1_555
C24 H19 1_555 1_555
H20 C24 1_555 1_555
H21 C24 1_555 1_555
C25 H22 1_555 1_555
C26 C25 1_555 1_555
H23 C26 1_555 1_555
C27 C26 1_555 1_555
C28 C27 1_555 1_555
H24 C28 1_555 1_555
H25 C28 1_555 1_555
H26 C28 1_555 1_555
C29 C27 1_555 1_555
H27 C29 1_555 1_555
C30 C29 1_555 1_555
H28 C30 1_555 1_555
C31 C25 1_555 1_555
C32 C22 1_555 1_555
H29 C32 1_555 1_555
C33 C32 1_555 1_555
C34 C33 1_555 1_555
C35 C33 1_555 1_555
C36 C35 1_555 1_555
C37 C36 1_555 1_555
H30 C37 1_555 1_555
H31 C37 1_555 1_555
H32 C37 1_555 1_555
C38 C36 1_555 1_555
H33 C38 1_555 1_555
H34 C38 1_555 1_555
H35 C38 1_555 1_555
C39 C36 1_555 1_555
H36 C39 1_555 1_555
H37 C39 1_555 1_555
H38 C39 1_555 1_555
N1 C34 1_555 1_555
O1 C19 1_555 1_555
O2 C20 1_555 1_555
O4 C23 1_555 1_555
O5 C22 1_555 1_555
P1 C6 1_555 1_555
C5 C6 1_555 1_555
C11 C12 1_555 1_555
C12 P1 1_555 1_555
C17 C18 1_555 1_555
C18 P1 1_555 1_555
C20 O1 1_555 1_555
C21 P1 1_555 1_555
C24 O4 1_555 1_555
C30 C31 1_555 1_555
C31 C32 1_555 1_555
C35 O5 1_555 1_555

#END
