
#######################################################################
#
#                 Cambridge Crystallographic Data Centre
#                                CCDC 
#
#######################################################################
#
# If this CIF has been generated from an entry in the Cambridge 
# Structural Database, then it will include bibliographic, chemical, 
# crystal, experimental, refinement or atomic coordinate data resulting 
# from the CCDC's data processing and validation procedures.
#
#######################################################################

data_LAVXUE
_chemical_formula_moiety         'C38 H35 Br1 N1 O5 P1'
_chemical_name_systematic        
'methyl 3-(4-bromophenyl)-5-t-butyl-4-cyano-2-[2-methoxy-2-oxo-1-(triphenyl-\l^5^-phosphanylidene)ethyl]-2,3-dihydrofuran-2-carboxylate'
_symmetry_cell_setting           monoclinic
_symmetry_space_group_name_H-M   'P 21/c'
_symmetry_Int_Tables_number      14
_space_group_name_Hall           '-P 2ybc'
loop_
_symmetry_equiv_pos_site_id
_symmetry_equiv_pos_as_xyz
1 x,y,z
2 -x,1/2+y,1/2-z
3 -x,-y,-z
4 x,1/2-y,1/2+z
_cell_length_a                   13.175(2)
_cell_length_b                   11.760(2)
_cell_length_c                   25.481(4)
_cell_angle_alpha                90
_cell_angle_beta                 121.134(6)
_cell_angle_gamma                90
_cell_volume                     3379.31
_exptl_crystal_colour            yellow
_exptl_crystal_description       block
_cell_formula_units_Z            4
loop_
_atom_site_label
_atom_site_type_symbol
_atom_site_fract_x
_atom_site_fract_y
_atom_site_fract_z
Br1 Br -0.5452(4) 0.0545(5) 0.3360(2)
C1 C 0.2008(4) 0.3299(4) 0.5677(2)
H1 H 0.1240 0.3488 0.5370
C2 C 0.2349(5) 0.3411(4) 0.6287(2)
H2 H 0.1811 0.3695 0.6386
C3 C 0.3456(5) 0.3115(5) 0.6743(2)
H3 H 0.3673 0.3198 0.7151
C4 C 0.4257(5) 0.2692(6) 0.6597(2)
H4 H 0.5018 0.2486 0.6905
C5 C 0.3912(5) 0.2579(5) 0.5987(2)
H5 H 0.4442 0.2273 0.5887
C6 C 0.2802(4) 0.2908(3) 0.55247(19)
C7 C 0.4552(5) 0.3304(4) 0.4897(3)
H6 H 0.4899 0.2908 0.5266
C8 C 0.5275(5) 0.3817(5) 0.4712(4)
H7 H 0.6096 0.3765 0.4957
C9 C 0.4779(7) 0.4385(5) 0.4179(4)
H8 H 0.5259 0.4729 0.4056
C10 C 0.3581(6) 0.4459(5) 0.3817(3)
H9 H 0.3244 0.4847 0.3447
C11 C 0.2858(5) 0.3960(4) 0.3999(2)
H10 H 0.2038 0.4020 0.3750
C12 C 0.3346(4) 0.3375(3) 0.4545(2)
C13 C 0.3064(4) 0.0752(4) 0.4376(2)
H11 H 0.3272 0.1250 0.4163
C14 C 0.3237(6) -0.0386(5) 0.4358(3)
H12 H 0.3565 -0.0657 0.4135
C15 C 0.2933(6) -0.1129(5) 0.4664(3)
H13 H 0.3031 -0.1907 0.4640
C16 C 0.2485(5) -0.0731(5) 0.5007(3)
H14 H 0.2289 -0.1236 0.5221
C17 C 0.2325(5) 0.0422(4) 0.5033(2)
H15 H 0.2037 0.0693 0.5275
C18 C 0.2586(4) 0.1175(3) 0.47053(18)
C19 C 0.1360(5) 0.5849(4) 0.4867(2)
H16 H 0.1051 0.5691 0.5128
H17 H 0.0806 0.6315 0.4530
H18 H 0.2102 0.6244 0.5097
C20 C 0.0534(4) 0.4164(4) 0.42646(18)
C21 C 0.0853(4) 0.3047(3) 0.42173(18)
C22 C 0.0012(4) 0.2190(3) 0.37595(18)
C23 C -0.0195(4) 0.1157(4) 0.40620(19)
C24 C -0.0621(6) -0.0808(4) 0.3989(3)
H19 H -0.0487 -0.1487 0.3824
H20 H -0.1447 -0.0751 0.3855
H21 H -0.0161 -0.0837 0.4428
C25 C -0.2816(5) 0.2781(5) 0.3513(2)
H22 H -0.2530 0.3501 0.3671
C26 C -0.3776(6) 0.2315(7) 0.3541(3)
H23 H -0.4124 0.2738 0.3715
C27 C -0.4192(5) 0.1283(7) 0.3322(3)
C28 C -0.3743(5) 0.0670(5) 0.3037(2)
H24 H -0.4060 -0.0037 0.2868
C29 C -0.2798(4) 0.1117(4) 0.3001(2)
H25 H -0.2491 0.0701 0.2804
C30 C -0.2311(4) 0.2158(4) 0.32508(18)
C31 C -0.1251(4) 0.2640(3) 0.32415(16)
H26 H -0.1264 0.3471 0.3267
C32 C -0.1237(4) 0.2314(3) 0.26678(17)
C33 C -0.2264(4) 0.2526(4) 0.2081(2)
C34 C -0.0203(4) 0.1859(3) 0.28054(18)
C35 C 0.0288(4) 0.1422(4) 0.24299(19)
C36 C -0.0586(5) 0.1626(5) 0.1744(2)
H27 H -0.0752 0.2424 0.1671
H28 H -0.1309 0.1220 0.1617
H29 H -0.0243 0.1360 0.1513
C37 C 0.0581(8) 0.0186(5) 0.2568(3)
H30 H 0.1130 0.0089 0.2999
H31 H 0.0931 -0.0090 0.2343
H32 H -0.0131 -0.0233 0.2450
C38 C 0.1445(5) 0.2089(6) 0.2619(3)
H33 H 0.1261 0.2879 0.2520
H34 H 0.1803 0.1791 0.2402
H35 H 0.1985 0.2010 0.3052
N1 N -0.3114(4) 0.2687(4) 0.16269(19)
O1 O 0.1538(3) 0.4808(2) 0.46388(12)
O2 O -0.0437(3) 0.4615(3) 0.40312(14)
O3 O -0.0349(3) 0.1256(2) 0.44798(13)
O4 O -0.0269(3) 0.0177(2) 0.37761(13)
O5 O 0.0567(3) 0.1766(2) 0.34177(11)
P1 P 0.23304(10) 0.26758(9) 0.47272(5)
Br2? Br -0.5417(9) 0.092(2) 0.3432(4)
loop_
_geom_bond_atom_site_label_1
_geom_bond_atom_site_label_2
_geom_bond_site_symmetry_1
_geom_bond_site_symmetry_2
Br1 C27 1_555 1_555
C1 H1 1_555 1_555
C2 C1 1_555 1_555
H2 C2 1_555 1_555
C3 C2 1_555 1_555
H3 C3 1_555 1_555
C4 C3 1_555 1_555
H4 C4 1_555 1_555
C5 C4 1_555 1_555
H5 C5 1_555 1_555
C6 C1 1_555 1_555
C7 H6 1_555 1_555
C8 C7 1_555 1_555
H7 C8 1_555 1_555
C9 C8 1_555 1_555
H8 C9 1_555 1_555
C10 C9 1_555 1_555
H9 C10 1_555 1_555
C11 C10 1_555 1_555
H10 C11 1_555 1_555
C12 C7 1_555 1_555
C13 H11 1_555 1_555
C14 C13 1_555 1_555
H12 C14 1_555 1_555
C15 C14 1_555 1_555
H13 C15 1_555 1_555
C16 C15 1_555 1_555
H14 C16 1_555 1_555
C17 C16 1_555 1_555
H15 C17 1_555 1_555
C18 C13 1_555 1_555
C19 H16 1_555 1_555
H17 C19 1_555 1_555
H18 C19 1_555 1_555
C20 C21 1_555 1_555
C21 C22 1_555 1_555
C22 C23 1_555 1_555
C23 O3 1_555 1_555
C24 H19 1_555 1_555
H20 C24 1_555 1_555
H21 C24 1_555 1_555
C25 H22 1_555 1_555
C26 C25 1_555 1_555
H23 C26 1_555 1_555
C27 C26 1_555 1_555
C28 C27 1_555 1_555
H24 C28 1_555 1_555
C29 C28 1_555 1_555
H25 C29 1_555 1_555
C30 C25 1_555 1_555
C31 C22 1_555 1_555
H26 C31 1_555 1_555
C32 C31 1_555 1_555
C33 C32 1_555 1_555
C34 C32 1_555 1_555
C35 C34 1_555 1_555
C36 C35 1_555 1_555
H27 C36 1_555 1_555
H28 C36 1_555 1_555
H29 C36 1_555 1_555
C37 C35 1_555 1_555
H30 C37 1_555 1_555
H31 C37 1_555 1_555
H32 C37 1_555 1_555
C38 C35 1_555 1_555
H33 C38 1_555 1_555
H34 C38 1_555 1_555
H35 C38 1_555 1_555
N1 C33 1_555 1_555
O1 C19 1_555 1_555
O2 C20 1_555 1_555
O4 C23 1_555 1_555
O5 C22 1_555 1_555
P1 C6 1_555 1_555
C5 C6 1_555 1_555
C11 C12 1_555 1_555
C12 P1 1_555 1_555
C17 C18 1_555 1_555
C18 P1 1_555 1_555
C20 O1 1_555 1_555
C21 P1 1_555 1_555
C24 O4 1_555 1_555
C29 C30 1_555 1_555
C30 C31 1_555 1_555
C34 O5 1_555 1_555

#END
