
#######################################################################
#
#                 Cambridge Crystallographic Data Centre
#                                CCDC 
#
#######################################################################
#
# If this CIF has been generated from an entry in the Cambridge 
# Structural Database, then it will include bibliographic, chemical, 
# crystal, experimental, refinement or atomic coordinate data resulting 
# from the CCDC's data processing and validation procedures.
#
#######################################################################

data_LAVXAJ
_chemical_formula_moiety         '2(K1 1+),C12 H6 N2 O4 2-'
_chemical_name_systematic        
"Di-potassium 2,2'-bipyridine-3,3'-dicarboxylate"
_symmetry_cell_setting           monoclinic
_symmetry_space_group_name_H-M   'C c'
_symmetry_Int_Tables_number      9
_space_group_name_Hall           'C -2yc'
loop_
_symmetry_equiv_pos_site_id
_symmetry_equiv_pos_as_xyz
1 x,y,z
2 x,-y,1/2+z
3 1/2+x,1/2+y,z
4 1/2+x,1/2-y,1/2+z
_cell_length_a                   15.7919(4)
_cell_length_b                   15.8624(4)
_cell_length_c                   11.5286(3)
_cell_angle_alpha                90
_cell_angle_beta                 111.246(2)
_cell_angle_gamma                90
_cell_volume                     2691.6
_exptl_crystal_colour            colorless
_exptl_crystal_description       block
_cell_formula_units_Z            8
loop_
_atom_site_label
_atom_site_type_symbol
_atom_site_fract_x
_atom_site_fract_y
_atom_site_fract_z
K1 K 0.48526(6) 0.55738(6) 0.04193(8)
K2 K 0.71885(7) 0.66432(6) 0.48385(8)
K3 K 0.70806(6) 0.82876(6) 0.97751(8)
K4 K 0.99623(6) 0.55374(6) 1.04298(9)
O1 O 0.90221(19) 0.88498(19) 0.1988(3)
O2 O 0.8406(2) 1.01337(18) 0.1571(3)
O3 O 0.64691(17) 0.73562(17) 0.1830(2)
O4 O 0.6877(2) 0.60736(19) 0.1407(3)
N1 N 0.7277(2) 0.83770(19) 0.3962(3)
N2 N 0.92504(19) 0.77602(19) 0.4000(3)
C1 C 0.6731(3) 0.8996(2) 0.4079(3)
H1 H 0.6369 0.8910 0.4551
C2 C 0.6711(3) 0.9752(2) 0.3502(4)
H2 H 0.6331 1.0182 0.3566
C3 C 0.7261(3) 0.9866(2) 0.2824(4)
H3 H 0.7255 1.0381 0.2435
C4 C 0.7828(2) 0.9226(2) 0.2709(3)
C5 C 0.8483(2) 0.9358(2) 0.2041(3)
C6 C 0.7806(2) 0.8464(2) 0.3279(3)
C7 C 0.8356(2) 0.7705(2) 0.3257(3)
C8 C 0.8043(2) 0.6970(2) 0.2602(3)
C9 C 0.7044(2) 0.6837(2) 0.1902(3)
C10 C 0.8667(3) 0.6326(2) 0.2674(4)
H4 H 0.8469 0.5829 0.2230
C11 C 0.9561(3) 0.6424(3) 0.3390(4)
H5 H 0.9976 0.6003 0.3411
C12 C 0.9848(2) 0.7144(2) 0.4083(3)
H6 H 1.0453 0.7202 0.4605
O5 O 0.70586(19) 0.81327(17) 0.6752(2)
O6 O 0.56407(19) 0.77147(19) 0.6468(3)
O7 O 0.9715(2) 0.62049(18) 0.6492(3)
O8 O 0.8698(2) 0.55995(18) 0.7142(3)
N3 N 0.7964(2) 0.59246(18) 0.8939(3)
N4 N 0.8582(2) 0.79017(19) 0.8957(3)
C13 C 0.7348(3) 0.5374(2) 0.9026(4)
H7 H 0.7533 0.4902 0.9535
C14 C 0.6450(3) 0.5506(3) 0.8369(4)
H8 H 0.6021 0.5116 0.8404
C15 C 0.6179(3) 0.6224(2) 0.7648(4)
H9 H 0.5566 0.6321 0.7201
C16 C 0.6829(2) 0.6804(2) 0.7593(3)
C17 C 0.6548(3) 0.7613(2) 0.6899(3)
C18 C 0.7735(2) 0.6631(2) 0.8235(3)
C19 C 0.8507(2) 0.7184(2) 0.8287(3)
C20 C 0.9147(2) 0.7026(2) 0.7745(3)
C21 C 0.9142(2) 0.6200(2) 0.7089(3)
C22 C 0.9814(3) 0.7617(2) 0.7882(4)
H10 H 1.0244 0.7519 0.7520
C23 C 0.9862(3) 0.8352(3) 0.8546(5)
H11 H 1.0308 0.8754 0.8620
C24 C 0.9225(3) 0.8474(2) 0.9100(3)
H12 H 0.9248 0.8956 0.9571
loop_
_geom_bond_atom_site_label_1
_geom_bond_atom_site_label_2
_geom_bond_site_symmetry_1
_geom_bond_site_symmetry_2
O1 C5 1_555 1_555
O2 C5 1_555 1_555
O3 C9 1_555 1_555
O4 C9 1_555 1_555
O5 C17 1_555 1_555
O6 C17 1_555 1_555
O7 C21 1_555 1_555
O8 C21 1_555 1_555
N1 C1 1_555 1_555
N2 C7 1_555 1_555
N3 C13 1_555 1_555
N4 C19 1_555 1_555
C1 H1 1_555 1_555
C2 C1 1_555 1_555
H2 C2 1_555 1_555
C3 C2 1_555 1_555
H3 C3 1_555 1_555
C4 C3 1_555 1_555
C5 C4 1_555 1_555
C6 N1 1_555 1_555
C7 C6 1_555 1_555
C8 C7 1_555 1_555
C9 C8 1_555 1_555
C10 C8 1_555 1_555
H4 C10 1_555 1_555
C11 C10 1_555 1_555
H5 C11 1_555 1_555
C12 N2 1_555 1_555
H6 C12 1_555 1_555
C13 H7 1_555 1_555
C14 C13 1_555 1_555
H8 C14 1_555 1_555
C15 C14 1_555 1_555
H9 C15 1_555 1_555
C16 C15 1_555 1_555
C17 C16 1_555 1_555
C18 N3 1_555 1_555
C19 C18 1_555 1_555
C20 C19 1_555 1_555
C21 C20 1_555 1_555
C22 C20 1_555 1_555
H10 C22 1_555 1_555
C23 C22 1_555 1_555
H11 C23 1_555 1_555
C24 N4 1_555 1_555
H12 C24 1_555 1_555
C4 C6 1_555 1_555
C11 C12 1_555 1_555
C16 C18 1_555 1_555
C23 C24 1_555 1_555

#END
