
#######################################################################
#
#                 Cambridge Crystallographic Data Centre
#                                CCDC 
#
#######################################################################
#
# If this CIF has been generated from an entry in the Cambridge 
# Structural Database, then it will include bibliographic, chemical, 
# crystal, experimental, refinement or atomic coordinate data resulting 
# from the CCDC's data processing and validation procedures.
#
#######################################################################

data_LAVZIS
_chemical_formula_moiety         'C13 H6 O4 S5'
_chemical_name_systematic        
4,5-bis(2-Furoylsulfanyl)-1,3-dithiolane-2-thione
_symmetry_cell_setting           monoclinic
_symmetry_space_group_name_H-M   'C m'
_symmetry_Int_Tables_number      8
_space_group_name_Hall           'C -2y'
loop_
_symmetry_equiv_pos_site_id
_symmetry_equiv_pos_as_xyz
1 x,y,z
2 x,-y,z
3 1/2+x,1/2+y,z
4 1/2+x,1/2-y,z
_cell_length_a                   7.2228(11)
_cell_length_b                   24.518(3)
_cell_length_c                   5.0330(7)
_cell_angle_alpha                90
_cell_angle_beta                 120.521(10)
_cell_angle_gamma                90
_cell_volume                     767.793
_exptl_crystal_colour            yellow
_exptl_crystal_description       plate
_cell_formula_units_Z            2
loop_
_atom_site_label
_atom_site_type_symbol
_atom_site_fract_x
_atom_site_fract_y
_atom_site_fract_z
C1 C 0.6443(7) 0.5000 1.2185(10)
C2 C 0.3613(6) 0.47223(11) 0.6582(8)
C3 C 0.2959(6) 0.37392(14) 0.3505(8)
C4 C 0.1674(6) 0.34290(14) 0.0708(9)
C5 C -0.0142(8) 0.35422(17) -0.1958(10)
H1 H -0.0925 0.3865 -0.2447
C6 C -0.0632(9) 0.3083(2) -0.3863(12)
H2 H -0.1791 0.3040 -0.5856
C7 C 0.0889(10) 0.2724(2) -0.2242(14)
H3 H 0.0954 0.2378 -0.2950
O1 O 0.4681(5) 0.36068(11) 0.5624(8)
O2 O 0.2346(5) 0.29192(12) 0.0575(8)
S1 S 0.8280(2) 0.5000 1.5868(2)
S2 S 0.54374(13) 0.44117(3) 1.00423(16)
S3 S 0.16122(14) 0.43617(4) 0.34191(18)
C2A C 0.3613(6) 0.52777(11) 0.6582(8)
C3A C 0.2959(6) 0.62608(14) 0.3505(8)
C4A C 0.1674(6) 0.65710(14) 0.0708(9)
C5A C -0.0142(8) 0.64578(17) -0.1958(10)
H1A H -0.0925 0.6135 -0.2447
C6A C -0.0632(9) 0.6917(2) -0.3863(12)
H2A H -0.1791 0.6960 -0.5856
C7A C 0.0889(10) 0.7276(2) -0.2242(14)
H3A H 0.0954 0.7622 -0.2950
O1A O 0.4681(5) 0.63932(11) 0.5624(8)
O2A O 0.2346(5) 0.70808(12) 0.0575(8)
S2A S 0.54374(13) 0.55883(3) 1.00423(16)
S3A S 0.16122(14) 0.56383(4) 0.34191(18)
loop_
_geom_bond_atom_site_label_1
_geom_bond_atom_site_label_2
_geom_bond_site_symmetry_1
_geom_bond_site_symmetry_2
C1 S1 1_555 1_555
C2 S2 1_555 1_555
C3 C4 1_555 1_555
C4 C5 1_555 1_555
C5 H1 1_555 1_555
C6 C5 1_555 1_555
H2 C6 1_555 1_555
C7 C6 1_555 1_555
H3 C7 1_555 1_555
O1 C3 1_555 1_555
O2 C4 1_555 1_555
S2 C1 1_555 1_555
S3 C2 1_555 1_555
C2A C2 1_555 1_555
C3A C4A 1_555 1_555
C4A C5A 1_555 1_555
C5A H1A 1_555 1_555
C6A C5A 1_555 1_555
H2A C6A 1_555 1_555
C7A C6A 1_555 1_555
H3A C7A 1_555 1_555
O1A C3A 1_555 1_555
O2A C4A 1_555 1_555
S2A C1 1_555 1_555
S3A C2A 1_555 1_555
C3 S3 1_555 1_555
C7 O2 1_555 1_555
C2A S2A 1_555 1_555
C3A S3A 1_555 1_555
C7A O2A 1_555 1_555

#END
