
#######################################################################
#
#                 Cambridge Crystallographic Data Centre
#                                CCDC 
#
#######################################################################
#
# If this CIF has been generated from an entry in the Cambridge 
# Structural Database, then it will include bibliographic, chemical, 
# crystal, experimental, refinement or atomic coordinate data resulting 
# from the CCDC's data processing and validation procedures.
#
#######################################################################

data_LAVZIT
_chemical_formula_moiety         'C23 H21 N1 O2 S1'
_chemical_name_systematic        
7,8-Dihydro-5,7,7-trimethyl-10-(thiophen-2-yl)-5H-indeno(1,2-b)quinoline-9,11(6H,10H)-dione
_symmetry_cell_setting           triclinic
_symmetry_space_group_name_H-M   'P -1'
_symmetry_Int_Tables_number      2
_space_group_name_Hall           '-P 1'
loop_
_symmetry_equiv_pos_site_id
_symmetry_equiv_pos_as_xyz
1 x,y,z
2 -x,-y,-z
_cell_length_a                   7.287(4)
_cell_length_b                   8.527(4)
_cell_length_c                   15.546(8)
_cell_angle_alpha                90.514(10)
_cell_angle_beta                 91.579(9)
_cell_angle_gamma                92.251(9)
_cell_volume                     964.809
_cell_formula_units_Z            2
loop_
_atom_site_label
_atom_site_type_symbol
_atom_site_fract_x
_atom_site_fract_y
_atom_site_fract_z
N1 N 0.6730(6) 0.3963(5) 0.6590(3)
O1 O 0.7909(7) 0.6477(6) 0.9294(3)
O2 O 0.8398(6) 0.9354(4) 0.6233(3)
S1 S 0.3946(3) 0.8690(2) 0.6987(2)
C1 C 0.6984(8) 0.3957(7) 0.7495(4)
C2 C 0.7088(9) 0.2334(7) 0.7890(4)
C3 C 0.8050(30) 0.2418(18) 0.8831(10)
C4 C 0.7310(20) 0.3771(19) 0.9326(12)
C7 C 0.7615(9) 0.5265(8) 0.8881(5)
C8 C 0.7156(8) 0.5302(7) 0.7951(4)
C9 C 0.6900(8) 0.6897(6) 0.7568(4)
C10 C 0.7355(8) 0.6744(6) 0.6641(4)
C11 C 0.8038(7) 0.7967(7) 0.6063(4)
C12 C 0.8110(7) 0.7224(6) 0.5192(4)
C13 C 0.8670(8) 0.7855(7) 0.4433(4)
C14 C 0.8654(8) 0.6884(8) 0.3689(4)
C15 C 0.8156(8) 0.5302(8) 0.3765(5)
C16 C 0.7601(7) 0.4658(7) 0.4542(4)
C17 C 0.7599(7) 0.5603(6) 0.5279(4)
C18 C 0.7164(7) 0.5361(6) 0.6191(4)
C19 C 0.6197(9) 0.2557(6) 0.6076(4)
C20 C 1.0057(12) 0.2613(14) 0.8686(8)
C21 C 0.7320(20) 0.0770(30) 0.9218(16)
C22 C 0.4971(8) 0.7437(6) 0.7669(4)
C23 C 0.3739(7) 0.7004(6) 0.8381(3)
C24 C 0.2014(10) 0.7809(11) 0.8216(6)
C25 C 0.2028(9) 0.8713(8) 0.7508(6)
C5? C 0.7088(9) 0.2334(7) 0.7890(4)
C6? C 0.7020(30) 0.2270(20) 0.8800(14)
loop_
_geom_bond_atom_site_label_1
_geom_bond_atom_site_label_2
_geom_bond_site_symmetry_1
_geom_bond_site_symmetry_2
N1 C1 1_555 1_555
O1 C7 1_555 1_555
O2 C11 1_555 1_555
S1 C22 1_555 1_555
C1 C2 1_555 1_555
C2 C3 1_555 1_555
C3 C4 1_555 1_555
C4 C7 1_555 1_555
C7 C8 1_555 1_555
C8 C1 1_555 1_555
C9 C8 1_555 1_555
C10 C9 1_555 1_555
C11 C10 1_555 1_555
C12 C11 1_555 1_555
C13 C12 1_555 1_555
C14 C13 1_555 1_555
C15 C14 1_555 1_555
C16 C15 1_555 1_555
C17 C12 1_555 1_555
C18 N1 1_555 1_555
C19 N1 1_555 1_555
C20 C3 1_555 1_555
C21 C3 1_555 1_555
C22 C9 1_555 1_555
C23 C22 1_555 1_555
C24 C23 1_555 1_555
C25 S1 1_555 1_555
C10 C18 1_555 1_555
C16 C17 1_555 1_555
C17 C18 1_555 1_555
C24 C25 1_555 1_555

#END
