
#######################################################################
#
#                 Cambridge Crystallographic Data Centre
#                                CCDC 
#
#######################################################################
#
# If this CIF has been generated from an entry in the Cambridge 
# Structural Database, then it will include bibliographic, chemical, 
# crystal, experimental, refinement or atomic coordinate data resulting 
# from the CCDC's data processing and validation procedures.
#
#######################################################################

data_LAWBOB
_chemical_formula_moiety         'C27 H18 F6 S2'
_chemical_name_systematic        
1-(2-Methyl-5-phenyl-3-thienyl)-2-(3-methyl-5-phenyl-2-thienyl)-3,3,4,4,5,5-hexafluorocyclopent-1-ene
_symmetry_cell_setting           monoclinic
_symmetry_space_group_name_H-M   'P 21/c'
_symmetry_Int_Tables_number      14
_space_group_name_Hall           '-P 2ybc'
loop_
_symmetry_equiv_pos_site_id
_symmetry_equiv_pos_as_xyz
1 x,y,z
2 -x,1/2+y,1/2-z
3 -x,-y,-z
4 x,1/2-y,1/2+z
_cell_length_a                   11.5406(12)
_cell_length_b                   9.2179(7)
_cell_length_c                   22.432(2)
_cell_angle_alpha                90
_cell_angle_beta                 90.263(8)
_cell_angle_gamma                90
_cell_volume                     2386.29
_exptl_crystal_colour            colorless
_exptl_crystal_description       prism
_chemical_melting_point          '403.2-403.5 K'
_cell_formula_units_Z            4
_chemical_properties_physical    light-sensitive
_exptl_crystal_recrystallization_method chloroform
_exptl_crystal_preparation       photochromic
loop_
_atom_site_label
_atom_site_type_symbol
_atom_site_fract_x
_atom_site_fract_y
_atom_site_fract_z
S1 S 0.43985(8) 0.83464(10) 0.08103(4)
S2 S 0.02356(8) 0.87436(12) 0.25513(4)
F1 F -0.01608(19) 1.1433(3) 0.04472(11)
F2 F 0.0842(3) 1.2709(2) 0.10576(10)
F3 F 0.1261(2) 1.1816(4) -0.03445(10)
F4 F 0.2209(2) 1.3214(2) 0.02240(14)
F5 F 0.2883(3) 1.0098(3) -0.02831(10)
F6 F 0.3712(2) 1.1345(3) 0.04002(13)
C1 C 0.2282(3) 0.9704(3) 0.07132(13)
C2 C 0.1334(3) 1.0228(3) 0.09859(12)
C3 C 0.0910(3) 1.1580(4) 0.06841(14)
C4 C 0.1780(3) 1.1906(4) 0.01869(15)
C5 C 0.2691(3) 1.0739(4) 0.02420(15)
C6 C 0.2903(3) 0.8341(3) 0.08036(13)
C7 C 0.2463(3) 0.6975(4) 0.08751(15)
C8 C 0.3347(3) 0.5899(4) 0.09395(14)
H1 H 0.3200 0.4914 0.0987
C9 C 0.4449(3) 0.6498(4) 0.09227(14)
C10 C 0.5572(3) 0.5742(4) 0.09679(14)
C11 C 0.6526(3) 0.6382(4) 0.12324(16)
H2 H 0.6464 0.7318 0.1384
C12 C 0.7568(3) 0.5660(5) 0.12758(18)
H3 H 0.8204 0.6104 0.1455
C13 C 0.7661(4) 0.4279(6) 0.10528(19)
H4 H 0.8361 0.3783 0.1084
C14 C 0.6726(4) 0.3624(5) 0.07839(19)
H5 H 0.6797 0.2692 0.0630
C15 C 0.5675(3) 0.4347(4) 0.07413(16)
H6 H 0.5041 0.3899 0.0562
C16 C 0.1203(3) 0.6570(4) 0.08699(19)
H7 H 0.0761 0.7337 0.0689
H8 H 0.0944 0.6423 0.1271
H9 H 0.1098 0.5692 0.0646
C17 C 0.1244(3) 0.9177(4) 0.20208(13)
C18 C 0.0724(2) 0.9715(3) 0.15163(13)
C19 C -0.0532(2) 0.9804(3) 0.15608(13)
H10 H -0.1017 1.0166 0.1264
C20 C -0.0910(3) 0.9278(4) 0.21046(14)
C21 C -0.2111(3) 0.9176(4) 0.23147(14)
C22 C -0.2444(3) 0.8152(4) 0.27343(16)
H11 H -0.1897 0.7510 0.2887
C23 C -0.3573(3) 0.8074(5) 0.29269(18)
H12 H -0.3777 0.7392 0.3213
C24 C -0.4394(3) 0.8988(6) 0.2702(2)
H13 H -0.5156 0.8927 0.2831
C25 C -0.4091(3) 0.9981(5) 0.2292(2)
H14 H -0.4653 1.0600 0.2137
C26 C -0.2953(3) 1.0102(4) 0.20939(19)
H15 H -0.2759 1.0804 0.1814
C27 C 0.2497(3) 0.8990(5) 0.21745(15)
H16 H 0.2951 0.9673 0.1952
H17 H 0.2737 0.8021 0.2077
H18 H 0.2610 0.9155 0.2593
loop_
_geom_bond_atom_site_label_1
_geom_bond_atom_site_label_2
_geom_bond_site_symmetry_1
_geom_bond_site_symmetry_2
S1 C6 1_555 1_555
S2 C17 1_555 1_555
F1 C3 1_555 1_555
F2 C3 1_555 1_555
F3 C4 1_555 1_555
F4 C4 1_555 1_555
F5 C5 1_555 1_555
F6 C5 1_555 1_555
C1 C2 1_555 1_555
C2 C3 1_555 1_555
C3 C4 1_555 1_555
C4 C5 1_555 1_555
C5 C1 1_555 1_555
C6 C1 1_555 1_555
C7 C6 1_555 1_555
C8 C7 1_555 1_555
H1 C8 1_555 1_555
C9 S1 1_555 1_555
C10 C9 1_555 1_555
C11 C10 1_555 1_555
H2 C11 1_555 1_555
C12 C11 1_555 1_555
H3 C12 1_555 1_555
C13 C12 1_555 1_555
H4 C13 1_555 1_555
C14 C13 1_555 1_555
H5 C14 1_555 1_555
C15 C10 1_555 1_555
H6 C15 1_555 1_555
C16 C7 1_555 1_555
H7 C16 1_555 1_555
H8 C16 1_555 1_555
H9 C16 1_555 1_555
C17 C18 1_555 1_555
C18 C2 1_555 1_555
C19 C18 1_555 1_555
H10 C19 1_555 1_555
C20 S2 1_555 1_555
C21 C20 1_555 1_555
C22 C21 1_555 1_555
H11 C22 1_555 1_555
C23 C22 1_555 1_555
H12 C23 1_555 1_555
C24 C23 1_555 1_555
H13 C24 1_555 1_555
C25 C24 1_555 1_555
H14 C25 1_555 1_555
C26 C21 1_555 1_555
H15 C26 1_555 1_555
C27 C17 1_555 1_555
H16 C27 1_555 1_555
H17 C27 1_555 1_555
H18 C27 1_555 1_555
C8 C9 1_555 1_555
C14 C15 1_555 1_555
C19 C20 1_555 1_555
C25 C26 1_555 1_555

#END
