
#######################################################################
#
#                 Cambridge Crystallographic Data Centre
#                                CCDC 
#
#######################################################################
#
# If this CIF has been generated from an entry in the Cambridge 
# Structural Database, then it will include bibliographic, chemical, 
# crystal, experimental, refinement or atomic coordinate data resulting 
# from the CCDC's data processing and validation procedures.
#
#######################################################################

data_LAWGUL
_chemical_formula_moiety         'C12 H25 Cl2 N2 O3 P1'
_chemical_name_systematic        
2-(bis(2-Chloroethyl)amino)-6-butyloxymethyl-tetrahydro-2H-1,3,2-oxazaphosphorine-2-oxide
_chemical_properties_biological  'possible antitumour activity'
_symmetry_cell_setting           monoclinic
_symmetry_space_group_name_H-M   'P 21/a'
_symmetry_Int_Tables_number      14
_space_group_name_Hall           '-P 2yab'
loop_
_symmetry_equiv_pos_site_id
_symmetry_equiv_pos_as_xyz
1 x,y,z
2 1/2-x,1/2+y,-z
3 -x,-y,-z
4 1/2+x,1/2-y,z
_cell_length_a                   11.965(2)
_cell_length_b                   10.335(3)
_cell_length_c                   14.543(5)
_cell_angle_alpha                90
_cell_angle_beta                 102.24(2)
_cell_angle_gamma                90
_cell_volume                     1757.48
_exptl_crystal_colour            colorless
_cell_formula_units_Z            4
loop_
_atom_site_label
_atom_site_type_symbol
_atom_site_fract_x
_atom_site_fract_y
_atom_site_fract_z
Cl1 Cl 0.7187(2) 0.5191(2) 0.3187(2)
Cl2 Cl 0.5351(2) -0.0542(2) 0.2501(2)
P1 P 0.8724(1) 0.0915(2) 0.3816(1)
O1 O 0.9440(3) 0.1658(4) 0.4582(3)
O2 O 0.9151(3) 0.1164(3) 0.2868(3)
O3 O 0.8770(3) 0.2005(4) 0.1022(3)
N1 N 0.7358(3) 0.1316(4) 0.3509(3)
N2 N 0.8746(4) -0.0636(4) 0.3996(3)
C1 C 0.8711(4) 0.0311(5) 0.2073(4)
C2 C 0.9006(5) -0.1080(5) 0.2364(4)
C3 C 0.8466(5) -0.1509(6) 0.3167(5)
C4 C 0.9208(5) 0.0762(6) 0.1280(4)
C5 C 0.9035(5) 0.2565(6) 0.0190(4)
C6 C 0.7098(5) 0.2606(6) 0.3063(5)
C7 C 0.7268(6) 0.3671(7) 0.3762(5)
C8 C 0.6520(5) 0.0821(7) 0.4028(5)
C9 C 0.5361(6) 0.0568(8) 0.3402(6)
C10 C 0.8505(6) 0.1785(7) -0.0679(5)
C11 C 0.8484(6) 0.3883(7) 0.0149(5)
C12 C 1.0308(6) 0.2698(7) 0.0291(6)
H1 H 0.9434 -0.1094 0.4375
loop_
_geom_bond_atom_site_label_1
_geom_bond_atom_site_label_2
_geom_bond_site_symmetry_1
_geom_bond_site_symmetry_2
Cl1 C7 1_555 1_555
Cl2 C9 1_555 1_555
P1 O1 1_555 1_555
O2 P1 1_555 1_555
O3 C4 1_555 1_555
N1 P1 1_555 1_555
N2 P1 1_555 1_555
C1 O2 1_555 1_555
C2 C1 1_555 1_555
C3 N2 1_555 1_555
C4 C1 1_555 1_555
C5 O3 1_555 1_555
C6 N1 1_555 1_555
C7 C6 1_555 1_555
C8 N1 1_555 1_555
C9 C8 1_555 1_555
C10 C5 1_555 1_555
C11 C5 1_555 1_555
C12 C5 1_555 1_555
H1 N2 1_555 1_555
C2 C3 1_555 1_555

#END
