
#######################################################################
#
#                 Cambridge Crystallographic Data Centre
#                                CCDC 
#
#######################################################################
#
# If this CIF has been generated from an entry in the Cambridge 
# Structural Database, then it will include bibliographic, chemical, 
# crystal, experimental, refinement or atomic coordinate data resulting 
# from the CCDC's data processing and validation procedures.
#
#######################################################################

data_LAWJAV
_chemical_formula_moiety         'C13 H10 N4 O4'
_chemical_name_systematic        
'(E)-3-Nitrobenzaldehyde 2-nitrophenylhydrazone'
_symmetry_cell_setting           monoclinic
_symmetry_space_group_name_H-M   'P 21/c'
_symmetry_Int_Tables_number      14
_space_group_name_Hall           '-P 2ybc'
loop_
_symmetry_equiv_pos_site_id
_symmetry_equiv_pos_as_xyz
1 x,y,z
2 -x,1/2+y,1/2-z
3 -x,-y,-z
4 x,1/2-y,1/2+z
_cell_length_a                   6.2280(7)
_cell_length_b                   5.3947(10)
_cell_length_c                   19.249(4)
_cell_angle_alpha                90
_cell_angle_beta                 106.847(11)
_cell_angle_gamma                90
_cell_volume                     618.975
_exptl_crystal_colour            red
_exptl_crystal_description       plate
_cell_formula_units_Z            2
_exptl_crystal_recrystallization_method 'ethyl acetate'
loop_
_atom_site_label
_atom_site_type_symbol
_atom_site_fract_x
_atom_site_fract_y
_atom_site_fract_z
O1 O -0.1660(4) 0.8644(5) 0.44227(13)
O2 O -0.4434(4) 0.7607(5) 0.35056(13)
N1 N 0.2348(8) 0.6358(10) 0.4693(3)
N2 N 0.4566(7) 0.5792(10) 0.5045(3)
N3 N -0.2507(4) 0.7293(5) 0.38996(15)
C1 C 0.1037(5) 0.4953(6) 0.41451(17)
C2 C -0.1197(5) 0.5262(6) 0.37373(17)
C3 C -0.2236(5) 0.3686(7) 0.31694(18)
C4 C -0.1032(5) 0.1774(7) 0.29945(17)
C5 C 0.1177(5) 0.1419(7) 0.33987(18)
C6 C 0.2211(5) 0.2968(7) 0.39653(18)
C7 C 0.5502(9) 0.7246(13) 0.5564(3)
H1 H 0.1759 0.7687 0.4830
H2 H 0.1733 0.6053 0.4530
H3 H -0.3765 0.3927 0.2904
H4 H -0.1710 0.0705 0.2600
H5 H 0.1998 0.0077 0.3283
H6 H 0.3731 0.2688 0.4234
H7 H 0.4632 0.8590 0.5652
O1B O 1.1660(4) 0.1356(5) 0.55773(13)
O2B O 1.4434(4) 0.2393(5) 0.64944(13)
N1B N 0.7652(8) 0.3642(10) 0.5307(3)
N2B N 0.5434(7) 0.4208(10) 0.4955(3)
N3B N 1.2507(4) 0.2707(5) 0.61004(15)
C1B C 0.8963(5) 0.5047(6) 0.58549(17)
C2B C 1.1197(5) 0.4738(6) 0.62627(17)
C3B C 1.2236(5) 0.6314(7) 0.68306(18)
C4B C 1.1032(5) 0.8226(7) 0.70055(17)
C5B C 0.8823(5) 0.8581(7) 0.66013(18)
C6B C 0.7789(5) 0.7032(7) 0.60347(18)
C7B C 0.4498(9) 0.2754(13) 0.4436(3)
H1B H 0.8241 0.2313 0.5170
H2B H 0.8267 0.3947 0.5470
H3B H 1.3765 0.6073 0.7096
H4B H 1.1710 0.9295 0.7400
H5B H 0.8002 0.9923 0.6717
H6B H 0.6269 0.7312 0.5766
H7B H 0.5368 0.1410 0.4348
loop_
_geom_bond_atom_site_label_1
_geom_bond_atom_site_label_2
_geom_bond_site_symmetry_1
_geom_bond_site_symmetry_2
O1 N3 1_555 1_555
O2 N3 1_555 1_555
N1 N2 1_555 1_555
N2 C7 1_555 1_555
N3 C2 1_555 1_555
C1 N1 1_555 1_555
C2 C1 1_555 1_555
C3 C2 1_555 1_555
C4 C3 1_555 1_555
C5 C4 1_555 1_555
C6 C1 1_555 1_555
C7 H7 1_555 1_555
H1 N1 1_555 1_555
H2 N1 1_555 1_555
H3 C3 1_555 1_555
H4 C4 1_555 1_555
H5 C5 1_555 1_555
H6 C6 1_555 1_555
O1B N3B 1_555 1_555
O2B N3B 1_555 1_555
N1B N2B 1_555 1_555
N2B N2 1_555 1_555
N3B C2B 1_555 1_555
C1B N1B 1_555 1_555
C2B C1B 1_555 1_555
C3B C2B 1_555 1_555
C4B C3B 1_555 1_555
C5B C4B 1_555 1_555
C6B C7 1_555 1_555
C7B C6 1_555 1_555
H1B N1B 1_555 1_555
H2B N1B 1_555 1_555
H3B C3B 1_555 1_555
H4B C4B 1_555 1_555
H5B C5B 1_555 1_555
H6B C7 1_555 1_555
H7B C7B 1_555 1_555
C1 H2 1_555 1_555
C5 C6 1_555 1_555
H6 C7B 1_555 1_555
N2B C7B 1_555 1_555
C1B C6B 1_555 1_555
C1B H2B 1_555 1_555
C5B C6B 1_555 1_555
C6B H6B 1_555 1_555

#END
