
#######################################################################
#
#                 Cambridge Crystallographic Data Centre
#                                CCDC 
#
#######################################################################
#
# If this CIF has been generated from an entry in the Cambridge 
# Structural Database, then it will include bibliographic, chemical, 
# crystal, experimental, refinement or atomic coordinate data resulting 
# from the CCDC's data processing and validation procedures.
#
#######################################################################

data_LAWJUR
_chemical_formula_moiety         'C18 H14 N2 O4'
_chemical_name_systematic        
2,8-dimethyl-5-phenyl-3,5-dihydro-4H,6H-pyrano[3',4':5,6]pyrano[2,3-d]pyrimidine-4,6-dione
_symmetry_cell_setting           triclinic
_symmetry_space_group_name_H-M   'P -1'
_symmetry_Int_Tables_number      2
_space_group_name_Hall           '-P 1'
loop_
_symmetry_equiv_pos_site_id
_symmetry_equiv_pos_as_xyz
1 x,y,z
2 -x,-y,-z
_cell_length_a                   7.706(3)
_cell_length_b                   9.788(4)
_cell_length_c                   10.389(4)
_cell_angle_alpha                108.799(6)
_cell_angle_beta                 90.693(5)
_cell_angle_gamma                94.120(6)
_cell_volume                     739.37
_exptl_crystal_colour            colorless
_exptl_crystal_description       block
_cell_formula_units_Z            2
loop_
_atom_site_label
_atom_site_type_symbol
_atom_site_fract_x
_atom_site_fract_y
_atom_site_fract_z
O1 O 0.24889(18) 0.84259(14) 0.78979(14)
O2 O 0.21313(18) 0.48677(14) 0.44658(13)
O3 O 0.50272(19) 0.17039(15) 0.62606(14)
O4 O 0.37579(19) 0.72752(15) 0.91278(14)
N1 N 0.2645(2) 0.26257(18) 0.31597(16)
N2 N 0.4010(2) 0.10591(18) 0.40565(16)
H1 H 0.4367 0.0188 0.3901
C1 C 0.3610(2) 0.4522(2) 0.69651(18)
H2 H 0.4846 0.4710 0.7320
C2 C 0.3002(2) 0.5902(2) 0.68340(18)
C3 C 0.3135(2) 0.7177(2) 0.80274(19)
C4 C 0.1807(3) 0.8478(2) 0.6695(2)
C5 C 0.1716(3) 0.7314(2) 0.5573(2)
H3 H 0.1265 0.7361 0.4735
C6 C 0.2314(2) 0.5999(2) 0.56655(19)
C7 C 0.2805(2) 0.3591(2) 0.44318(18)
C8 C 0.3257(3) 0.1365(2) 0.30071(19)
C9 C 0.4253(3) 0.2041(2) 0.53645(19)
C10 C 0.3535(2) 0.34043(19) 0.55650(19)
C11 C 0.1256(3) 0.9934(2) 0.6815(2)
H4 H 0.0830 0.9938 0.5923
H5 H 0.2249 1.0655 0.7135
H6 H 0.0324 1.0170 0.7465
C12 C 0.3185(3) 0.0221(2) 0.1648(2)
H7 H 0.2248 0.0381 0.1079
H8 H 0.2959 -0.0732 0.1760
H9 H 0.4299 0.0261 0.1211
C13 C 0.2502(2) 0.39854(19) 0.79529(18)
C14 C 0.0694(3) 0.3899(2) 0.7839(2)
H10 H 0.0142 0.4193 0.7160
C15 C -0.0308(3) 0.3383(2) 0.8714(2)
H11 H -0.1542 0.3309 0.8619
C16 C 0.0483(3) 0.2977(2) 0.9720(2)
H12 H -0.0204 0.2619 1.0312
C17 C 0.2287(3) 0.3098(2) 0.9859(2)
H13 H 0.2834 0.2840 1.0563
C18 C 0.3295(3) 0.3590(2) 0.89790(19)
H14 H 0.4528 0.3659 0.9075
loop_
_geom_bond_atom_site_label_1
_geom_bond_atom_site_label_2
_geom_bond_site_symmetry_1
_geom_bond_site_symmetry_2
O1 C3 1_555 1_555
O2 C6 1_555 1_555
O3 C9 1_555 1_555
O4 C3 1_555 1_555
N1 C7 1_555 1_555
N2 H1 1_555 1_555
C1 H2 1_555 1_555
C2 C1 1_555 1_555
C3 C2 1_555 1_555
C4 O1 1_555 1_555
C5 C4 1_555 1_555
H3 C5 1_555 1_555
C6 C2 1_555 1_555
C7 O2 1_555 1_555
C8 N1 1_555 1_555
C9 N2 1_555 1_555
C10 C1 1_555 1_555
C11 C4 1_555 1_555
H4 C11 1_555 1_555
H5 C11 1_555 1_555
H6 C11 1_555 1_555
C12 C8 1_555 1_555
H7 C12 1_555 1_555
H8 C12 1_555 1_555
H9 C12 1_555 1_555
C13 C1 1_555 1_555
C14 C13 1_555 1_555
H10 C14 1_555 1_555
C15 C14 1_555 1_555
H11 C15 1_555 1_555
C16 C15 1_555 1_555
H12 C16 1_555 1_555
C17 C16 1_555 1_555
H13 C17 1_555 1_555
C18 C13 1_555 1_555
H14 C18 1_555 1_555
N2 C8 1_555 1_555
C5 C6 1_555 1_555
C7 C10 1_555 1_555
C9 C10 1_555 1_555
C17 C18 1_555 1_555

#END
