
#######################################################################
#
#                 Cambridge Crystallographic Data Centre
#                                CCDC 
#
#######################################################################
#
# If this CIF has been generated from an entry in the Cambridge 
# Structural Database, then it will include bibliographic, chemical, 
# crystal, experimental, refinement or atomic coordinate data resulting 
# from the CCDC's data processing and validation procedures.
#
#######################################################################

data_LAWKIG
_chemical_formula_moiety         'C32 H22 F3 N1 O3 S1'
_chemical_name_systematic        
'1-(2-(diphenylmethyl)-1H-indol-3-yl)-2-naphthyl trifluoromethanesulfonate'
_symmetry_cell_setting           monoclinic
_symmetry_space_group_name_H-M   'P 21'
_symmetry_Int_Tables_number      4
_space_group_name_Hall           'P 2yb'
loop_
_symmetry_equiv_pos_site_id
_symmetry_equiv_pos_as_xyz
1 x,y,z
2 -x,1/2+y,-z
_cell_length_a                   11.3279(11)
_cell_length_b                   10.3150(10)
_cell_length_c                   11.6283(12)
_cell_angle_alpha                90
_cell_angle_beta                 106.582(2)
_cell_angle_gamma                90
_cell_volume                     1302.23
_exptl_crystal_colour            colorless
_exptl_crystal_description       block
_cell_formula_units_Z            2
loop_
_atom_site_label
_atom_site_type_symbol
_atom_site_fract_x
_atom_site_fract_y
_atom_site_fract_z
S1 S 0.15304(5) 0.69679(5) 0.63140(5)
F1 F 0.25812(18) 0.92284(17) 0.63684(18)
F2 F 0.0625(2) 0.9289(2) 0.6014(3)
F3 F 0.1422(3) 0.8672(2) 0.46334(17)
O1 O 0.27725(17) 0.64772(17) 0.61143(15)
O2 O 0.05528(19) 0.6346(2) 0.54490(19)
O3 O 0.16070(16) 0.7042(2) 0.75524(16)
N1 N 0.1755(2) 0.2542(2) 0.65675(19)
H1 H 0.1473 0.1912 0.6052
C1 C 0.3835(2) 0.6297(2) 0.7130(2)
C2 C 0.4749(2) 0.7254(2) 0.7324(2)
H2 H 0.4642 0.7998 0.6822
C3 C 0.5800(2) 0.7093(3) 0.8252(2)
H3 H 0.6425 0.7737 0.8401
C4 C 0.5965(2) 0.5978(3) 0.8990(2)
C5 C 0.7073(2) 0.5776(3) 0.9934(2)
H4 H 0.7695 0.6425 1.0110
C6 C 0.7244(3) 0.4656(3) 1.0584(3)
H5 H 0.7991 0.4525 1.1201
C7 C 0.6330(3) 0.3694(3) 1.0352(3)
H6 H 0.6467 0.2914 1.0805
C8 C 0.5240(2) 0.3873(3) 0.9473(2)
H7 H 0.4620 0.3225 0.9339
C9 C 0.5028(2) 0.5009(2) 0.8764(2)
C10 C 0.3919(2) 0.5190(2) 0.7803(2)
C11 C 0.2924(2) 0.4201(2) 0.7513(2)
C12 C 0.2007(2) 0.3932(2) 0.8120(2)
C13 C 0.1723(3) 0.4472(3) 0.9122(2)
H8 H 0.2200 0.5163 0.9560
C14 C 0.0737(3) 0.3975(3) 0.9454(3)
H9 H 0.0532 0.4337 1.0123
C15 C 0.0028(3) 0.2942(3) 0.8820(3)
H10 H -0.0641 0.2617 0.9075
C16 C 0.0287(2) 0.2393(3) 0.7837(3)
H11 H -0.0192 0.1699 0.7408
C17 C 0.1281(2) 0.2899(3) 0.7498(2)
C18 C 0.2737(2) 0.3334(2) 0.6582(2)
C19 C 0.3544(2) 0.3095(2) 0.5770(2)
H12 H 0.3857 0.3962 0.5605
C20 C 0.2809(2) 0.2543(3) 0.4559(2)
C21 C 0.1937(3) 0.3335(3) 0.3782(3)
H13 H 0.1841 0.4207 0.4004
C22 C 0.1208(3) 0.2866(4) 0.2687(3)
H14 H 0.0616 0.3415 0.2169
C23 C 0.1347(3) 0.1602(4) 0.2351(3)
H15 H 0.0852 0.1282 0.1602
C24 C 0.2200(3) 0.0809(3) 0.3100(3)
H16 H 0.2292 -0.0061 0.2870
C25 C 0.2939(3) 0.1276(3) 0.4206(2)
H17 H 0.3532 0.0723 0.4717
C26 C 0.4670(2) 0.2297(2) 0.6425(2)
C27 C 0.4631(3) 0.1400(3) 0.7313(2)
H18 H 0.3884 0.1267 0.7514
C28 C 0.5682(3) 0.0695(3) 0.7909(3)
H19 H 0.5648 0.0095 0.8518
C29 C 0.6768(3) 0.0871(4) 0.7614(3)
H20 H 0.7482 0.0391 0.8016
C30 C 0.6812(3) 0.1748(5) 0.6732(3)
H21 H 0.7558 0.1869 0.6527
C31 C 0.5770(3) 0.2458(4) 0.6139(3)
H22 H 0.5813 0.3059 0.5533
C32 C 0.1543(3) 0.8646(3) 0.5786(3)
loop_
_geom_bond_atom_site_label_1
_geom_bond_atom_site_label_2
_geom_bond_site_symmetry_1
_geom_bond_site_symmetry_2
S1 O1 1_555 1_555
F1 C32 1_555 1_555
F2 C32 1_555 1_555
F3 C32 1_555 1_555
O1 C1 1_555 1_555
O2 S1 1_555 1_555
O3 S1 1_555 1_555
N1 H1 1_555 1_555
C1 C2 1_555 1_555
C2 H2 1_555 1_555
C3 C2 1_555 1_555
H3 C3 1_555 1_555
C4 C3 1_555 1_555
C5 C4 1_555 1_555
H4 C5 1_555 1_555
C6 C5 1_555 1_555
H5 C6 1_555 1_555
C7 C6 1_555 1_555
H6 C7 1_555 1_555
C8 C7 1_555 1_555
H7 C8 1_555 1_555
C9 C4 1_555 1_555
C10 C1 1_555 1_555
C11 C10 1_555 1_555
C12 C11 1_555 1_555
C13 C12 1_555 1_555
H8 C13 1_555 1_555
C14 C13 1_555 1_555
H9 C14 1_555 1_555
C15 C14 1_555 1_555
H10 C15 1_555 1_555
C16 C15 1_555 1_555
H11 C16 1_555 1_555
C17 N1 1_555 1_555
C18 N1 1_555 1_555
C19 C18 1_555 1_555
H12 C19 1_555 1_555
C20 C19 1_555 1_555
C21 C20 1_555 1_555
H13 C21 1_555 1_555
C22 C21 1_555 1_555
H14 C22 1_555 1_555
C23 C22 1_555 1_555
H15 C23 1_555 1_555
C24 C23 1_555 1_555
H16 C24 1_555 1_555
C25 C20 1_555 1_555
H17 C25 1_555 1_555
C26 C19 1_555 1_555
C27 C26 1_555 1_555
H18 C27 1_555 1_555
C28 C27 1_555 1_555
H19 C28 1_555 1_555
C29 C28 1_555 1_555
H20 C29 1_555 1_555
C30 C29 1_555 1_555
H21 C30 1_555 1_555
C31 C26 1_555 1_555
H22 C31 1_555 1_555
C32 S1 1_555 1_555
C8 C9 1_555 1_555
C9 C10 1_555 1_555
C11 C18 1_555 1_555
C12 C17 1_555 1_555
C16 C17 1_555 1_555
C24 C25 1_555 1_555
C30 C31 1_555 1_555

#END
