
#######################################################################
#
#                 Cambridge Crystallographic Data Centre
#                                CCDC 
#
#######################################################################
#
# If this CIF has been generated from an entry in the Cambridge 
# Structural Database, then it will include bibliographic, chemical, 
# crystal, experimental, refinement or atomic coordinate data resulting 
# from the CCDC's data processing and validation procedures.
#
#######################################################################

data_LAWKEA
_chemical_formula_moiety         'C23 H19 F2 N3 O2'
_chemical_name_systematic        
4-(2-(3,4-difluorobenzyl)-1,3-dioxodecahydropyrrolo[3,4-a]pyrrolizin-4-yl)benzonitrile
_symmetry_cell_setting           triclinic
_symmetry_space_group_name_H-M   'P -1'
_symmetry_Int_Tables_number      2
_space_group_name_Hall           '-P 1'
loop_
_symmetry_equiv_pos_site_id
_symmetry_equiv_pos_as_xyz
1 x,y,z
2 -x,-y,-z
_cell_length_a                   9.4643(2)
_cell_length_b                   10.2137(2)
_cell_length_c                   11.1334(4)
_cell_angle_alpha                94.110(1)
_cell_angle_beta                 94.603(1)
_cell_angle_gamma                116.206(1)
_cell_volume                     955.552
_exptl_crystal_colour            colorless
_cell_formula_units_Z            2
loop_
_atom_site_label
_atom_site_type_symbol
_atom_site_fract_x
_atom_site_fract_y
_atom_site_fract_z
C1 C 0.55955(15) 0.99517(14) 0.28365(12)
N1 N 0.54359(12) 0.89551(11) 0.36664(9)
C2 C 0.39522(14) 0.83499(13) 0.40568(10)
C3 C 0.28961(14) 0.88253(13) 0.32994(11)
H1 H 0.2306 0.9197 0.3820
C4 C 0.40417(15) 1.00437(13) 0.26212(11)
H2 H 0.4155 1.1034 0.2929
O1 O 0.67915(12) 1.06040(12) 0.23784(10)
O2 O 0.36099(11) 0.75858(10) 0.48732(8)
C5 C 0.67144(15) 0.85971(14) 0.40932(12)
H3 H 0.6655 0.8424 0.4955
H4 H 0.7751 0.9442 0.4041
C6 C 0.66103(14) 0.72526(14) 0.33562(11)
C7 C 0.67592(17) 0.72590(15) 0.21207(13)
H5 H 0.6969 0.8122 0.1745
C8 C 0.66002(18) 0.60090(17) 0.14525(13)
C9 C 0.63000(17) 0.47477(16) 0.19894(15)
C10 C 0.61940(17) 0.47314(16) 0.32056(15)
H6 H 0.6016 0.3872 0.3577
C11 C 0.63502(15) 0.59914(15) 0.38905(13)
H7 H 0.6278 0.5989 0.4737
F1 F 0.61201(13) 0.35363(11) 0.12868(11)
F2 F 0.67357(14) 0.59991(12) 0.02545(9)
C12 C 0.17400(14) 0.76037(13) 0.22644(11)
H8 H 0.0721 0.7679 0.2147
N2 N 0.25486(13) 0.80002(11) 0.11739(9)
C13 C 0.14240(18) 0.75701(16) 0.00507(12)
H9 H 0.0495 0.6616 0.0090
H10 H 0.1945 0.7476 -0.0664
C14 C 0.09009(18) 0.87973(17) -0.00416(13)
H11 H 0.0912 0.9067 -0.0879
H12 H -0.0183 0.8473 0.0185
C15 C 0.21095(18) 1.01048(16) 0.08494(13)
H13 H 0.1604 1.0302 0.1538
H14 H 0.2588 1.1002 0.0439
C16 C 0.33654(16) 0.96142(14) 0.12844(11)
H15 H 0.4245 0.9950 0.0764
C17 C 0.13823(14) 0.60561(13) 0.25053(11)
C18 C 0.22785(14) 0.53929(14) 0.20681(12)
H16 H 0.3075 0.5889 0.1570
C19 C 0.20133(15) 0.40130(14) 0.23572(11)
H17 H 0.2633 0.3568 0.2063
C20 C 0.08380(14) 0.32768(13) 0.30799(11)
C21 C -0.00979(15) 0.39117(15) 0.34979(12)
H18 H -0.0917 0.3403 0.3974
C22 C 0.01898(15) 0.52955(14) 0.32057(12)
H19 H -0.0440 0.5735 0.3489
C23 C 0.06261(15) 0.18595(15) 0.33818(12)
N3 N 0.05329(14) 0.07446(14) 0.36033(12)
loop_
_geom_bond_atom_site_label_1
_geom_bond_atom_site_label_2
_geom_bond_site_symmetry_1
_geom_bond_site_symmetry_2
C1 N1 1_555 1_555
N1 C2 1_555 1_555
C2 C3 1_555 1_555
C3 H1 1_555 1_555
C4 C1 1_555 1_555
H2 C4 1_555 1_555
O1 C1 1_555 1_555
O2 C2 1_555 1_555
C5 N1 1_555 1_555
H3 C5 1_555 1_555
H4 C5 1_555 1_555
C6 C5 1_555 1_555
C7 C6 1_555 1_555
H5 C7 1_555 1_555
C8 C7 1_555 1_555
C9 C8 1_555 1_555
C10 C9 1_555 1_555
H6 C10 1_555 1_555
C11 C6 1_555 1_555
H7 C11 1_555 1_555
F1 C9 1_555 1_555
F2 C8 1_555 1_555
C12 C3 1_555 1_555
H8 C12 1_555 1_555
N2 C12 1_555 1_555
C13 N2 1_555 1_555
H9 C13 1_555 1_555
H10 C13 1_555 1_555
C14 C13 1_555 1_555
H11 C14 1_555 1_555
H12 C14 1_555 1_555
C15 C14 1_555 1_555
H13 C15 1_555 1_555
H14 C15 1_555 1_555
C16 C4 1_555 1_555
H15 C16 1_555 1_555
C17 C12 1_555 1_555
C18 C17 1_555 1_555
H16 C18 1_555 1_555
C19 C18 1_555 1_555
H17 C19 1_555 1_555
C20 C19 1_555 1_555
C21 C20 1_555 1_555
H18 C21 1_555 1_555
C22 C17 1_555 1_555
H19 C22 1_555 1_555
C23 C20 1_555 1_555
N3 C23 1_555 1_555
C3 C4 1_555 1_555
C10 C11 1_555 1_555
N2 C16 1_555 1_555
C15 C16 1_555 1_555
C21 C22 1_555 1_555

#END
