
#######################################################################
#
#                 Cambridge Crystallographic Data Centre
#                                CCDC 
#
#######################################################################
#
# If this CIF has been generated from an entry in the Cambridge 
# Structural Database, then it will include bibliographic, chemical, 
# crystal, experimental, refinement or atomic coordinate data resulting 
# from the CCDC's data processing and validation procedures.
#
#######################################################################

data_LAWREJ
_chemical_formula_moiety         'C32 H54 O2 Si1'
_chemical_name_systematic        
2,4a,6a,6b,9,9,12a-heptamethyl-10-((trimethylsilyl)oxy)-1,3,4,4a,5,6,6a,6b,7,8,8a,9,10,11,12,12a,12b,14b-octadecahydropicen-13(2H)-one
_symmetry_cell_setting           monoclinic
_symmetry_space_group_name_H-M   'P 21'
_symmetry_Int_Tables_number      4
_space_group_name_Hall           'P 2yb'
loop_
_symmetry_equiv_pos_site_id
_symmetry_equiv_pos_as_xyz
1 x,y,z
2 -x,1/2+y,-z
_cell_length_a                   7.3812(6)
_cell_length_b                   11.9527(9)
_cell_length_c                   35.280(3)
_cell_angle_alpha                90
_cell_angle_beta                 92.778(3)
_cell_angle_gamma                90
_cell_volume                     3108.93
_cell_formula_units_Z            4
loop_
_atom_site_label
_atom_site_type_symbol
_atom_site_fract_x
_atom_site_fract_y
_atom_site_fract_z
Si1 Si 0.9936(3) 0.9398(2) 0.69117(5)
O1 O 0.9003(7) 0.8677(4) 0.65642(12)
O2 O 1.0713(6) 0.6973(5) 0.48179(13)
C1 C 0.6954(7) 0.8716(5) 0.55642(15)
H1 H 0.7353 0.9473 0.5501
C2 C 0.6977(8) 0.8689(5) 0.60096(16)
C3 C 0.8953(9) 0.8834(5) 0.61632(16)
H2 H 0.9323 0.9606 0.6113
C4 C 1.0257(8) 0.8072(6) 0.59870(18)
H3 H 0.9976 0.7307 0.6054
H4 H 1.1472 0.8237 0.6089
C5 C 1.0213(7) 0.8178(6) 0.55523(17)
H5 H 1.1084 0.7662 0.5452
H6 H 1.0567 0.8931 0.5484
C6 C 0.8306(7) 0.7925(5) 0.53707(15)
C7 C 0.8300(7) 0.8275(4) 0.49440(14)
H7 H 0.8793 0.9036 0.4949
C8 C 0.9568(7) 0.7619(5) 0.46968(18)
C9 C 0.9363(8) 0.7828(6) 0.42866(16)
H8 H 1.0202 0.7490 0.4135
C10 C 0.8093(7) 0.8456(5) 0.41114(16)
C11 C 0.8119(8) 0.8619(6) 0.36867(16)
H9 H 0.8715 0.7958 0.3585
C12 C 0.9284(9) 0.9625(7) 0.35890(17)
H10 H 1.0499 0.9520 0.3701
H11 H 0.8783 1.0292 0.3701
C13 C 0.9399(14) 0.9806(10) 0.3161(2)
H12 H 0.9875 0.9113 0.3056
C14 C 0.7452(13) 0.9951(10) 0.2994(2)
H13 H 0.6916 1.0611 0.3102
H14 H 0.7481 1.0061 0.2722
C15 C 0.6314(12) 0.8955(10) 0.3072(2)
H15 H 0.6802 0.8315 0.2942
H16 H 0.5099 0.9087 0.2964
C16 C 0.6182(9) 0.8657(6) 0.34941(17)
C17 C 0.5083(8) 0.9521(6) 0.36972(16)
H17 H 0.3891 0.9582 0.3570
H18 H 0.5673 1.0243 0.3682
C18 C 0.4869(7) 0.9223(5) 0.41157(15)
H19 H 0.4167 0.8539 0.4130
H20 H 0.4194 0.9814 0.4234
C19 C 0.6720(7) 0.9059(4) 0.43435(14)
C20 C 0.6400(7) 0.8389(4) 0.47225(14)
C21 C 0.5047(7) 0.9003(5) 0.49641(16)
H21 H 0.5321 0.9796 0.4961
H22 H 0.3837 0.8904 0.4849
C22 C 0.5054(7) 0.8610(6) 0.53736(16)
H23 H 0.4663 0.7836 0.5381
H24 H 0.4206 0.9056 0.5511
C23 C 0.5862(11) 0.9672(7) 0.61411(19)
H25 H 0.5950 0.9713 0.6413
H26 H 0.4616 0.9571 0.6057
H27 H 0.6315 1.0352 0.6036
C24 C 0.6142(9) 0.7620(6) 0.61710(17)
H28 H 0.5996 0.7713 0.6438
H29 H 0.6930 0.6996 0.6131
H30 H 0.4981 0.7484 0.6045
C25 C 1.239(4) 0.934(3) 0.6962(9)
H31 H 1.2762 0.8604 0.7037
H32 H 1.2807 0.9871 0.7152
H33 H 1.2891 0.9530 0.6724
C26 C 0.897(2) 0.8844(17) 0.7359(5)
H34 H 0.8941 0.8041 0.7350
H35 H 0.7766 0.9127 0.7381
H36 H 0.9723 0.9080 0.7574
C27 C 0.930(4) 1.097(2) 0.6872(7)
H37 H 0.8054 1.1037 0.6784
H38 H 1.0063 1.1327 0.6697
H39 H 0.9465 1.1313 0.7117
C28 C 0.7869(8) 0.6661(5) 0.54170(16)
H40 H 0.8362 0.6403 0.5658
H41 H 0.8397 0.6244 0.5218
H42 H 0.6578 0.6555 0.5404
C29 C 1.0545(17) 1.0670(16) 0.3059(3)
H43 H 1.0037 1.1375 0.3130
H44 H 1.0673 1.0655 0.2789
H45 H 1.1713 1.0576 0.3187
C30 C 0.5283(13) 0.7508(8) 0.3515(3)
H46 H 0.5519 0.7196 0.3764
H47 H 0.5768 0.7022 0.3329
H48 H 0.3998 0.7584 0.3467
C31 C 0.7466(8) 1.0240(5) 0.44254(15)
H49 H 0.8712 1.0190 0.4515
H50 H 0.6771 1.0591 0.4615
H51 H 0.7381 1.0677 0.4197
C32 C 0.5631(8) 0.7209(5) 0.46275(18)
H52 H 0.5430 0.6814 0.4859
H53 H 0.6482 0.6803 0.4483
H54 H 0.4504 0.7281 0.4482
Si2 Si 0.4868(3) 0.68248(17) 0.81398(5)
O3 O 0.5857(6) 0.6117(4) 0.84859(12)
O4 O 0.4295(6) 0.4430(5) 1.02449(13)
C36 C 0.7988(6) 0.6154(4) 0.94787(14)
H64 H 0.7601 0.6913 0.9543
C37 C 0.7929(7) 0.6137(5) 0.90372(15)
C38 C 0.5947(7) 0.6282(5) 0.88862(15)
H65 H 0.5581 0.7054 0.8936
C39 C 0.4619(7) 0.5505(5) 0.90710(16)
H66 H 0.4876 0.4738 0.9001
H67 H 0.3395 0.5681 0.8977
C40 C 0.4738(7) 0.5613(5) 0.95016(16)
H68 H 0.3881 0.5098 0.9607
H69 H 0.4382 0.6365 0.9570
C41 C 0.6647(6) 0.5374(4) 0.96833(15)
C42 C 0.6706(6) 0.5736(4) 1.01034(14)
H70 H 0.6221 0.6499 1.0099
C43 C 0.5445(7) 0.5081(5) 1.03611(16)
C44 C 0.5674(7) 0.5315(5) 1.07663(16)
H71 H 0.4836 0.4993 1.0922
C45 C 0.6968(7) 0.5946(5) 1.09353(15)
C46 C 0.6996(8) 0.6140(6) 1.13585(16)
H72 H 0.6387 0.5495 1.1467
C47 C 0.5856(10) 0.7173(7) 1.14518(19)
H73 H 0.6371 0.7830 1.1337
H74 H 0.4632 0.7077 1.1344
C48 C 0.5791(12) 0.7356(9) 1.1880(2)
H75 H 0.5312 0.6668 1.1989
C49 C 0.7719(13) 0.7500(9) 1.2046(2)
H76 H 0.8260 0.8158 1.1937
H77 H 0.7695 0.7611 1.2319
C50 C 0.8846(11) 0.6490(8) 1.1966(2)
H78 H 0.8370 0.5857 1.2102
H79 H 1.0073 0.6622 1.2067
C51 C 0.8927(9) 0.6174(6) 1.15498(18)
C52 C 1.0060(8) 0.7002(6) 1.13324(17)
H80 H 0.9519 0.7739 1.1348
H81 H 1.1267 0.7040 1.1453
C53 C 1.0216(7) 0.6697(5) 1.09192(16)
H82 H 1.0909 0.6010 1.0904
H83 H 1.0886 0.7281 1.0796
C54 C 0.8349(6) 0.6533(4) 1.06970(14)
C55 C 0.8608(6) 0.5841(4) 1.03207(14)
C56 C 0.9935(7) 0.6435(5) 1.00688(15)
H84 H 0.9674 0.7230 1.0072
H85 H 1.1153 0.6333 1.0179
C57 C 0.9907(6) 0.6053(5) 0.96636(16)
H86 H 1.0306 0.5281 0.9653
H87 H 1.0739 0.6505 0.9524
C58 C 0.8973(9) 0.7155(6) 0.89005(18)
H88 H 0.8720 0.7258 0.8633
H89 H 1.0251 0.7037 0.8948
H90 H 0.8605 0.7810 0.9035
C59 C 0.8766(8) 0.5060(6) 0.88701(18)
H91 H 0.8907 0.5159 0.8603
H92 H 0.7977 0.4436 0.8909
H93 H 0.9929 0.4920 0.8995
C60 C 0.6039(13) 0.6399(10) 0.7709(2)
H94 H 0.7324 0.6493 0.7752
H95 H 0.5623 0.6856 0.7498
H96 H 0.5775 0.5628 0.7653
C61 C 0.253(2) 0.669(3) 0.8073(5)
H97 H 0.2234 0.5915 0.8030
H98 H 0.2120 0.7122 0.7857
H99 H 0.1959 0.6949 0.8294
C62 C 0.519(2) 0.8333(10) 0.8215(3)
H100 H 0.6461 0.8491 0.8255
H101 H 0.4560 0.8564 0.8433
H102 H 0.4721 0.8733 0.7995
C63 C 0.7071(8) 0.4117(5) 0.96348(18)
H103 H 0.8361 0.4008 0.9648
H104 H 0.6576 0.3865 0.9393
H105 H 0.6539 0.3699 0.9833
C64 C 0.4544(19) 0.8255(14) 1.1967(3)
H106 H 0.5114 0.8964 1.1926
H107 H 0.4229 0.8198 1.2227
H108 H 0.3466 0.8194 1.1805
C65 C 0.9795(12) 0.5006(8) 1.1531(2)
H109 H 1.1023 0.5039 1.1634
H110 H 0.9788 0.4762 1.1272
H111 H 0.9116 0.4487 1.1676
C66 C 0.7580(8) 0.7733(4) 1.06099(16)
H112 H 0.6335 0.7678 1.0520
H113 H 0.8275 0.8081 1.0419
H114 H 0.7660 0.8175 1.0837
C67 C 0.9385(7) 0.4654(5) 1.04163(17)
H115 H 0.9521 0.4244 1.0186
H116 H 0.8567 0.4262 1.0573
H117 H 1.0544 0.4726 1.0549
C33? C 1.214(4) 0.874(3) 0.7058(8)
H55? H 1.2930 0.8760 0.6849
H56? H 1.1949 0.7983 0.7132
H57? H 1.2695 0.9152 0.7268
C34? C 0.825(4) 0.945(3) 0.7259(7)
H58? H 0.7171 0.9797 0.7151
H59? H 0.8699 0.9866 0.7475
H60? H 0.7964 0.8698 0.7336
C35? C 1.034(4) 1.078(2) 0.6782(7)
H61? H 0.9205 1.1154 0.6731
H62? H 1.1030 1.0788 0.6558
H63? H 1.1008 1.1151 0.6985
C68? C 0.236(3) 0.616(3) 0.8089(6)
H118? H 0.2449 0.5372 0.8050
H119? H 0.1707 0.6498 0.7876
H120? H 0.1736 0.6308 0.8316
loop_
_geom_bond_atom_site_label_1
_geom_bond_atom_site_label_2
_geom_bond_site_symmetry_1
_geom_bond_site_symmetry_2
Si1 O1 1_555 1_555
O1 C3 1_555 1_555
O2 C8 1_555 1_555
C1 H1 1_555 1_555
C2 C1 1_555 1_555
C3 C2 1_555 1_555
H2 C3 1_555 1_555
C4 C3 1_555 1_555
H3 C4 1_555 1_555
H4 C4 1_555 1_555
C5 C4 1_555 1_555
H5 C5 1_555 1_555
H6 C5 1_555 1_555
C6 C1 1_555 1_555
C7 C6 1_555 1_555
H7 C7 1_555 1_555
C8 C7 1_555 1_555
C9 C8 1_555 1_555
H8 C9 1_555 1_555
C10 C9 1_555 1_555
C11 C10 1_555 1_555
H9 C11 1_555 1_555
C12 C11 1_555 1_555
H10 C12 1_555 1_555
H11 C12 1_555 1_555
C13 C12 1_555 1_555
H12 C13 1_555 1_555
C14 C13 1_555 1_555
H13 C14 1_555 1_555
H14 C14 1_555 1_555
C15 C14 1_555 1_555
H15 C15 1_555 1_555
H16 C15 1_555 1_555
C16 C11 1_555 1_555
C17 C16 1_555 1_555
H17 C17 1_555 1_555
H18 C17 1_555 1_555
C18 C17 1_555 1_555
H19 C18 1_555 1_555
H20 C18 1_555 1_555
C19 C10 1_555 1_555
C20 C7 1_555 1_555
C21 C20 1_555 1_555
H21 C21 1_555 1_555
H22 C21 1_555 1_555
C22 C1 1_555 1_555
H23 C22 1_555 1_555
H24 C22 1_555 1_555
C23 C2 1_555 1_555
H25 C23 1_555 1_555
H26 C23 1_555 1_555
H27 C23 1_555 1_555
C24 C2 1_555 1_555
H28 C24 1_555 1_555
H29 C24 1_555 1_555
H30 C24 1_555 1_555
C25 Si1 1_555 1_555
H31 C25 1_555 1_555
H32 C25 1_555 1_555
H33 C25 1_555 1_555
C26 Si1 1_555 1_555
H34 C26 1_555 1_555
H35 C26 1_555 1_555
H36 C26 1_555 1_555
C27 Si1 1_555 1_555
H37 C27 1_555 1_555
H38 C27 1_555 1_555
H39 C27 1_555 1_555
C28 C6 1_555 1_555
H40 C28 1_555 1_555
H41 C28 1_555 1_555
H42 C28 1_555 1_555
C29 C13 1_555 1_555
H43 C29 1_555 1_555
H44 C29 1_555 1_555
H45 C29 1_555 1_555
C30 C16 1_555 1_555
H46 C30 1_555 1_555
H47 C30 1_555 1_555
H48 C30 1_555 1_555
C31 C19 1_555 1_555
H49 C31 1_555 1_555
H50 C31 1_555 1_555
H51 C31 1_555 1_555
C32 C20 1_555 1_555
H52 C32 1_555 1_555
H53 C32 1_555 1_555
H54 C32 1_555 1_555
Si2 O3 1_555 1_555
O3 C38 1_555 1_555
O4 C43 1_555 1_555
C36 H64 1_555 1_555
C37 C36 1_555 1_555
C38 C37 1_555 1_555
H65 C38 1_555 1_555
C39 C38 1_555 1_555
H66 C39 1_555 1_555
H67 C39 1_555 1_555
C40 C39 1_555 1_555
H68 C40 1_555 1_555
H69 C40 1_555 1_555
C41 C36 1_555 1_555
C42 C41 1_555 1_555
H70 C42 1_555 1_555
C43 C42 1_555 1_555
C44 C43 1_555 1_555
H71 C44 1_555 1_555
C45 C44 1_555 1_555
C46 C45 1_555 1_555
H72 C46 1_555 1_555
C47 C46 1_555 1_555
H73 C47 1_555 1_555
H74 C47 1_555 1_555
C48 C47 1_555 1_555
H75 C48 1_555 1_555
C49 C48 1_555 1_555
H76 C49 1_555 1_555
H77 C49 1_555 1_555
C50 C49 1_555 1_555
H78 C50 1_555 1_555
H79 C50 1_555 1_555
C51 C46 1_555 1_555
C52 C51 1_555 1_555
H80 C52 1_555 1_555
H81 C52 1_555 1_555
C53 C52 1_555 1_555
H82 C53 1_555 1_555
H83 C53 1_555 1_555
C54 C45 1_555 1_555
C55 C42 1_555 1_555
C56 C55 1_555 1_555
H84 C56 1_555 1_555
H85 C56 1_555 1_555
C57 C36 1_555 1_555
H86 C57 1_555 1_555
H87 C57 1_555 1_555
C58 C37 1_555 1_555
H88 C58 1_555 1_555
H89 C58 1_555 1_555
H90 C58 1_555 1_555
C59 C37 1_555 1_555
H91 C59 1_555 1_555
H92 C59 1_555 1_555
H93 C59 1_555 1_555
C60 Si2 1_555 1_555
H94 C60 1_555 1_555
H95 C60 1_555 1_555
H96 C60 1_555 1_555
C61 Si2 1_555 1_555
H97 C61 1_555 1_555
H98 C61 1_555 1_555
H99 C61 1_555 1_555
C62 Si2 1_555 1_555
H100 C62 1_555 1_555
H101 C62 1_555 1_555
H102 C62 1_555 1_555
C63 C41 1_555 1_555
H103 C63 1_555 1_555
H104 C63 1_555 1_555
H105 C63 1_555 1_555
C64 C48 1_555 1_555
H106 C64 1_555 1_555
H107 C64 1_555 1_555
H108 C64 1_555 1_555
C65 C51 1_555 1_555
H109 C65 1_555 1_555
H110 C65 1_555 1_555
H111 C65 1_555 1_555
C66 C54 1_555 1_555
H112 C66 1_555 1_555
H113 C66 1_555 1_555
H114 C66 1_555 1_555
C67 C55 1_555 1_555
H115 C67 1_555 1_555
H116 C67 1_555 1_555
H117 C67 1_555 1_555
C5 C6 1_555 1_555
C15 C16 1_555 1_555
C18 C19 1_555 1_555
C19 C20 1_555 1_555
C21 C22 1_555 1_555
C40 C41 1_555 1_555
C50 C51 1_555 1_555
C53 C54 1_555 1_555
C54 C55 1_555 1_555
C56 C57 1_555 1_555

#END
