
#######################################################################
#
#                 Cambridge Crystallographic Data Centre
#                                CCDC 
#
#######################################################################
#
# If this CIF has been generated from an entry in the Cambridge 
# Structural Database, then it will include bibliographic, chemical, 
# crystal, experimental, refinement or atomic coordinate data resulting 
# from the CCDC's data processing and validation procedures.
#
#######################################################################

data_LAWXIT
_chemical_formula_moiety         'C17 H15 N1 O3 S1'
_chemical_name_systematic        
10b-methyl-2-(methylsulfonyl)-10b,11-dihydro-6H-isoindolo[2,1-a]indol-6-one
_symmetry_cell_setting           monoclinic
_symmetry_space_group_name_H-M   'P 21'
_symmetry_Int_Tables_number      4
_space_group_name_Hall           'P 2yb'
loop_
_symmetry_equiv_pos_site_id
_symmetry_equiv_pos_as_xyz
1 x,y,z
2 -x,1/2+y,-z
_cell_length_a                   9.2519(13)
_cell_length_b                   13.8421(19)
_cell_length_c                   12.6984(18)
_cell_angle_alpha                90
_cell_angle_beta                 110.515(3)
_cell_angle_gamma                90
_cell_volume                     1523.1
_exptl_crystal_colour            colorless
_exptl_crystal_description       prismatic
_chemical_melting_point          '440 K'
_cell_formula_units_Z            4
_exptl_crystal_recrystallization_method 'hexane/ethyl acetate'
loop_
_atom_site_label
_atom_site_type_symbol
_atom_site_fract_x
_atom_site_fract_y
_atom_site_fract_z
S1 S 1.03223(19) 0.46252(10) 0.19582(11)
N1 N 0.8486(4) 0.8561(3) 0.2655(3)
O1 O 0.9204(5) 0.8905(3) 0.4547(3)
O2 O 1.0809(7) 0.4693(3) 0.1018(3)
O3 O 0.9094(6) 0.3983(3) 0.1893(4)
C1 C 0.9058(6) 1.0040(3) 0.2046(4)
C2 C 0.9332(8) 1.0817(4) 0.1472(5)
H1 H 0.9205 1.0773 0.0714
C3 C 0.9804(9) 1.1667(4) 0.2062(6)
H2 H 1.0019 1.2200 0.1698
C4 C 0.9963(8) 1.1742(4) 0.3177(6)
H3 H 1.0260 1.2327 0.3548
C5 C 0.9689(8) 1.0967(4) 0.3743(5)
H4 H 0.9800 1.1013 0.4498
C6 C 0.9242(6) 1.0111(4) 0.3160(4)
C7 C 0.8986(6) 0.9157(4) 0.3589(4)
C8 C 0.8471(5) 0.9049(3) 0.1612(4)
C9 C 0.9488(6) 0.8393(3) 0.1187(4)
H5 H 0.9077 0.8336 0.0374
H6 H 1.0538 0.8634 0.1418
C10 C 0.9418(5) 0.7447(3) 0.1739(3)
C11 C 0.8884(5) 0.7582(3) 0.2617(4)
C12 C 0.8805(6) 0.6837(3) 0.3318(4)
H7 H 0.8446 0.6939 0.3908
C13 C 0.9277(6) 0.5940(3) 0.3112(4)
H8 H 0.9247 0.5423 0.3570
C14 C 0.9797(6) 0.5801(3) 0.2230(4)
C15 C 0.9883(6) 0.6546(3) 0.1543(4)
H9 H 1.0249 0.6443 0.0957
C16 C 0.6833(6) 0.9098(4) 0.0770(4)
H10 H 0.6449 0.8455 0.0563
H11 H 0.6828 0.9442 0.0112
H12 H 0.6186 0.9428 0.1102
C17 C 1.1906(7) 0.4311(4) 0.3138(5)
H13 H 1.1588 0.4254 0.3778
H14 H 1.2685 0.4802 0.3279
H15 H 1.2317 0.3705 0.3007
S2 S 0.4216(2) 1.19117(11) 0.19788(12)
N2 N 0.3716(5) 0.7710(3) 0.2351(3)
O4 O 0.3642(6) 0.6895(3) 0.0745(3)
O5 O 0.4506(7) 1.2267(3) 0.3085(4)
O6 O 0.2898(6) 1.2258(3) 0.1105(4)
C18 C 0.5104(6) 0.6596(4) 0.3674(4)
C19 C 0.5949(7) 0.6069(4) 0.4609(4)
H16 H 0.6166 0.6320 0.5327
C20 C 0.6458(7) 0.5176(4) 0.4461(5)
H17 H 0.7028 0.4820 0.5090
C21 C 0.6159(9) 0.4781(5) 0.3411(6)
H18 H 0.6524 0.4168 0.3336
C22 C 0.5316(9) 0.5301(5) 0.2477(6)
H19 H 0.5101 0.5044 0.1761
C23 C 0.4791(7) 0.6209(4) 0.2611(4)
C24 C 0.3992(7) 0.6928(5) 0.1753(4)
C25 C 0.4359(6) 0.7568(4) 0.3585(4)
C26 C 0.5394(6) 0.8458(4) 0.3997(4)
H20 H 0.5350 0.8695 0.4705
H21 H 0.6457 0.8316 0.4088
C27 C 0.4696(6) 0.9173(4) 0.3062(4)
C28 C 0.3776(6) 0.8689(4) 0.2094(4)
C29 C 0.3066(6) 0.9157(4) 0.1088(4)
H22 H 0.2493 0.8818 0.0445
C30 C 0.3234(7) 1.0142(4) 0.1066(4)
H23 H 0.2754 1.0479 0.0402
C31 C 0.4102(6) 1.0632(4) 0.2017(4)
C32 C 0.4863(6) 1.0161(4) 0.3030(4)
H24 H 0.5463 1.0502 0.3663
C33 C 0.3072(6) 0.7558(4) 0.4066(4)
H25 H 0.2403 0.7019 0.3765
H26 H 0.2492 0.8148 0.3868
H27 H 0.3507 0.7503 0.4870
C34 C 0.5818(9) 1.2130(5) 0.1616(6)
H28 H 0.5683 1.1829 0.0906
H29 H 0.6717 1.1868 0.2182
H30 H 0.5945 1.2814 0.1556
loop_
_geom_bond_atom_site_label_1
_geom_bond_atom_site_label_2
_geom_bond_site_symmetry_1
_geom_bond_site_symmetry_2
S1 O2 1_555 1_555
N1 C7 1_555 1_555
O1 C7 1_555 1_555
O3 S1 1_555 1_555
C1 C2 1_555 1_555
C2 H1 1_555 1_555
C3 C2 1_555 1_555
H2 C3 1_555 1_555
C4 C3 1_555 1_555
H3 C4 1_555 1_555
C5 C4 1_555 1_555
H4 C5 1_555 1_555
C6 C1 1_555 1_555
C7 C6 1_555 1_555
C8 N1 1_555 1_555
C9 C8 1_555 1_555
H5 C9 1_555 1_555
H6 C9 1_555 1_555
C10 C9 1_555 1_555
C11 N1 1_555 1_555
C12 C11 1_555 1_555
H7 C12 1_555 1_555
C13 C12 1_555 1_555
H8 C13 1_555 1_555
C14 S1 1_555 1_555
C15 C10 1_555 1_555
H9 C15 1_555 1_555
C16 C8 1_555 1_555
H10 C16 1_555 1_555
H11 C16 1_555 1_555
H12 C16 1_555 1_555
C17 S1 1_555 1_555
H13 C17 1_555 1_555
H14 C17 1_555 1_555
H15 C17 1_555 1_555
S2 O5 1_555 1_555
N2 C24 1_555 1_555
O4 C24 1_555 1_555
O6 S2 1_555 1_555
C18 C19 1_555 1_555
C19 H16 1_555 1_555
C20 C19 1_555 1_555
H17 C20 1_555 1_555
C21 C20 1_555 1_555
H18 C21 1_555 1_555
C22 C21 1_555 1_555
H19 C22 1_555 1_555
C23 C18 1_555 1_555
C24 C23 1_555 1_555
C25 N2 1_555 1_555
C26 C25 1_555 1_555
H20 C26 1_555 1_555
H21 C26 1_555 1_555
C27 C26 1_555 1_555
C28 N2 1_555 1_555
C29 C28 1_555 1_555
H22 C29 1_555 1_555
C30 C29 1_555 1_555
H23 C30 1_555 1_555
C31 S2 1_555 1_555
C32 C27 1_555 1_555
H24 C32 1_555 1_555
C33 C25 1_555 1_555
H25 C33 1_555 1_555
H26 C33 1_555 1_555
H27 C33 1_555 1_555
C34 S2 1_555 1_555
H28 C34 1_555 1_555
H29 C34 1_555 1_555
H30 C34 1_555 1_555
C1 C8 1_555 1_555
C5 C6 1_555 1_555
C10 C11 1_555 1_555
C13 C14 1_555 1_555
C14 C15 1_555 1_555
C18 C25 1_555 1_555
C22 C23 1_555 1_555
C27 C28 1_555 1_555
C30 C31 1_555 1_555
C31 C32 1_555 1_555

#END
