
#######################################################################
#
#                 Cambridge Crystallographic Data Centre
#                                CCDC 
#
#######################################################################
#
# If this CIF has been generated from an entry in the Cambridge 
# Structural Database, then it will include bibliographic, chemical, 
# crystal, experimental, refinement or atomic coordinate data resulting 
# from the CCDC's data processing and validation procedures.
#
#######################################################################

data_LAWYOY
_chemical_name_common            
1-Phenyl-3-(5-phenyl-1H-pyrrol-2-yl)prop-2-yn-1-one
_chemical_formula_moiety         'C19 H13 N1 O1'
_chemical_name_systematic        2-(2-Benzoylethynyl)-5-phenylpyrrole
_symmetry_cell_setting           monoclinic
_symmetry_space_group_name_H-M   'P 21/c'
_symmetry_Int_Tables_number      14
_space_group_name_Hall           '-P 2ybc'
loop_
_symmetry_equiv_pos_site_id
_symmetry_equiv_pos_as_xyz
1 x,y,z
2 -x,1/2+y,1/2-z
3 -x,-y,-z
4 x,1/2-y,1/2+z
_cell_length_a                   9.367(3)
_cell_length_b                   15.704(5)
_cell_length_c                   10.592(2)
_cell_angle_alpha                90
_cell_angle_beta                 116.15(3)
_cell_angle_gamma                90
_cell_volume                     1398.6
_exptl_crystal_colour            red
_exptl_crystal_description       prism
_chemical_melting_point          '173-174 deg.C'
_cell_formula_units_Z            4
loop_
_atom_site_label
_atom_site_type_symbol
_atom_site_fract_x
_atom_site_fract_y
_atom_site_fract_z
O1 O 0.69036(12) 0.00840(6) 0.37785(11)
N1 N 0.55068(14) 0.10140(7) 0.81912(12)
H1 H 0.4772(18) 0.0640(9) 0.7621(16)
C1 C 0.67672(17) 0.12739(9) 0.79549(15)
C2 C 0.76621(18) 0.18272(9) 0.90219(16)
H2 H 0.8586 0.2104 0.9127
C3 C 0.69332(18) 0.18965(9) 0.99124(16)
H3 H 0.7281 0.2232 1.0716
C4 C 0.56016(17) 0.13797(8) 0.93955(15)
C5 C 0.70289(17) 0.09813(9) 0.68147(16)
C6 C 0.73357(17) 0.07518(9) 0.58789(16)
C7 C 0.77058(17) 0.05751(9) 0.47309(15)
C8 C 0.90815(16) 0.10394(8) 0.47183(15)
C9 C 1.02013(16) 0.14328(8) 0.59205(16)
H4 H 1.0105 0.1404 0.6756
C10 C 1.14576(18) 0.18660(9) 0.58733(17)
H5 H 1.2224 0.2116 0.6686
C11 C 1.15838(19) 0.19304(10) 0.46293(19)
H6 H 1.2424 0.2231 0.4600
C12 C 1.0463(2) 0.15487(9) 0.34244(19)
H7 H 1.0542 0.1599 0.2582
C13 C 0.92251(18) 0.10924(9) 0.34713(17)
H8 H 0.8488 0.0821 0.2667
C14 C 0.44680(17) 0.11975(9) 0.99649(15)
C15 C 0.30830(18) 0.07433(9) 0.91986(16)
H9 H 0.2854 0.0559 0.8295
C16 C 0.2038(2) 0.05613(10) 0.97644(18)
H10 H 0.1103 0.0266 0.9231
C17 C 0.2370(2) 0.08145(10) 1.11102(19)
H11 H 0.1672 0.0683 1.1491
C18 C 0.3744(2) 0.12632(10) 1.18895(17)
H12 H 0.3975 0.1434 1.2800
C19 C 0.47810(19) 0.14605(10) 1.13242(16)
H13 H 0.5697 0.1772 1.1853
loop_
_geom_bond_atom_site_label_1
_geom_bond_atom_site_label_2
_geom_bond_site_symmetry_1
_geom_bond_site_symmetry_2
O1 C7 1_555 1_555
N1 H1 1_555 1_555
C1 N1 1_555 1_555
C2 C1 1_555 1_555
H2 C2 1_555 1_555
C3 C2 1_555 1_555
H3 C3 1_555 1_555
C4 N1 1_555 1_555
C5 C1 1_555 1_555
C6 C5 1_555 1_555
C7 C6 1_555 1_555
C8 C7 1_555 1_555
C9 C8 1_555 1_555
H4 C9 1_555 1_555
C10 C9 1_555 1_555
H5 C10 1_555 1_555
C11 C10 1_555 1_555
H6 C11 1_555 1_555
C12 C11 1_555 1_555
H7 C12 1_555 1_555
C13 C8 1_555 1_555
H8 C13 1_555 1_555
C14 C4 1_555 1_555
C15 C14 1_555 1_555
H9 C15 1_555 1_555
C16 C15 1_555 1_555
H10 C16 1_555 1_555
C17 C16 1_555 1_555
H11 C17 1_555 1_555
C18 C17 1_555 1_555
H12 C18 1_555 1_555
C19 C14 1_555 1_555
H13 C19 1_555 1_555
C3 C4 1_555 1_555
C12 C13 1_555 1_555
C18 C19 1_555 1_555

#END
