
#######################################################################
#
#                 Cambridge Crystallographic Data Centre
#                                CCDC 
#
#######################################################################
#
# If this CIF has been generated from an entry in the Cambridge 
# Structural Database, then it will include bibliographic, chemical, 
# crystal, experimental, refinement or atomic coordinate data resulting 
# from the CCDC's data processing and validation procedures.
#
#######################################################################

data_LAWZUF
_chemical_formula_moiety         'C8 H16 O8 S2'
_chemical_name_systematic        
1,4-Dideoxy-1,4-((S)-((2R,S)-2-hydroxy-3-(sulfoxy)propyl)episulfoniumylidene)-D-arabinitol
_chemical_properties_biological  
'less inhibitory activity against alpha-glucosidase than salacinol'
_symmetry_cell_setting           orthorhombic
_symmetry_space_group_name_H-M   'P 21 21 21'
_symmetry_Int_Tables_number      19
_space_group_name_Hall           'P 2ac 2ab'
loop_
_symmetry_equiv_pos_site_id
_symmetry_equiv_pos_as_xyz
1 x,y,z
2 1/2-x,-y,1/2+z
3 1/2+x,1/2-y,-z
4 -x,1/2+y,1/2-z
_cell_length_a                   9.719(5)
_cell_length_b                   18.056(6)
_cell_length_c                   6.872(4)
_cell_angle_alpha                90
_cell_angle_beta                 90
_cell_angle_gamma                90
_cell_volume                     1205.94
_exptl_crystal_colour            colorless
_exptl_crystal_description       prismatic
_chemical_melting_point          '421-424 K'
_cell_formula_units_Z            4
_exptl_crystal_recrystallization_method methanol
loop_
_atom_site_label
_atom_site_type_symbol
_atom_site_fract_x
_atom_site_fract_y
_atom_site_fract_z
S1 S 0.0049(1) -0.15808(8) -0.6091(2)
S2 S -0.4268(1) -0.14384(10) -1.1709(2)
O1 O 0.2489(4) -0.2181(2) -0.3155(6)
O2 O 0.0338(4) -0.0540(2) -0.2459(5)
O3 O 0.2436(4) -0.0890(3) -0.8499(5)
O4 O -0.0937(4) -0.0434(3) -0.8863(6)
O5 O -0.3566(5) -0.0816(3) -1.0426(6)
O6 O -0.3258(5) -0.1985(3) -1.2024(10)
O7 O -0.5429(4) -0.1715(3) -1.0632(6)
O8 O -0.4631(5) -0.1027(3) -1.3425(7)
C1 C 0.0099(5) -0.2089(3) -0.3794(7)
C2 C 0.1313(5) -0.1774(3) -0.2641(7)
C3 C 0.1461(5) -0.0963(3) -0.3164(7)
C4 C 0.1366(4) -0.0897(3) -0.5398(7)
C5 C 0.2680(5) -0.1058(4) -0.6529(8)
C6 C -0.1556(5) -0.1069(4) -0.5879(9)
C7 C -0.305(1) -0.1074(8) -0.855(1)
C8 C -0.187(1) -0.1069(7) -0.819(2)
H1 H 0.0212 -0.2597 -0.4014
H2 H -0.0728 -0.2001 -0.3078
H3 H 0.3418 -0.0770 -0.6034
H4 H 0.2910 -0.1574 -0.6375
H5 H 0.1152 -0.1833 -0.1286
H6 H 0.2315 -0.0772 -0.2711
H7 H -0.1423 -0.0625 -0.5097
H8 H -0.2247 -0.1358 -0.5241
H9 H -0.2816 -0.1627 -0.8852
H10 H -0.3693 -0.1066 -0.7676
H11 H 0.1040 -0.0408 -0.5723
H12 H 0.3181 -0.1962 -0.2778
H13 H 0.0213 -0.0638 -0.1306
H14 H 0.2976 -0.1129 -0.9185
H17 H -0.0470 -0.0733 -0.9438
C9? C -0.2081(9) -0.0650(6) -0.768(1)
H15? H -0.2514 -0.0215 -0.7245
H16? H -0.1435 -0.1496 -0.8761
H18? H -0.1159 -0.0200 -0.8623
loop_
_geom_bond_atom_site_label_1
_geom_bond_atom_site_label_2
_geom_bond_site_symmetry_1
_geom_bond_site_symmetry_2
S1 C1 1_555 1_555
S2 O5 1_555 1_555
O1 C2 1_555 1_555
O2 C3 1_555 1_555
O3 C5 1_555 1_555
O4 C8 1_555 1_555
O5 C7 1_555 1_555
O6 S2 1_555 1_555
O7 S2 1_555 1_555
O8 S2 1_555 1_555
C1 C2 1_555 1_555
C2 C3 1_555 1_555
C3 C4 1_555 1_555
C4 S1 1_555 1_555
C5 C4 1_555 1_555
C6 S1 1_555 1_555
C7 C8 1_555 1_555
C8 C6 1_555 1_555
H1 C1 1_555 1_555
H2 C1 1_555 1_555
H3 C5 1_555 1_555
H4 C5 1_555 1_555
H5 C2 1_555 1_555
H6 C3 1_555 1_555
H7 C6 1_555 1_555
H8 C6 1_555 1_555
H9 C7 1_555 1_555
H10 C7 1_555 1_555
H11 C4 1_555 1_555
H12 O1 1_555 1_555
H13 O2 1_555 1_555
H14 O3 1_555 1_555
H17 O4 1_555 1_555

#END
