
#######################################################################
#
#                 Cambridge Crystallographic Data Centre
#                                CCDC 
#
#######################################################################
#
# If this CIF has been generated from an entry in the Cambridge 
# Structural Database, then it will include bibliographic, chemical, 
# crystal, experimental, refinement or atomic coordinate data resulting 
# from the CCDC's data processing and validation procedures.
#
#######################################################################

data_LAWZOZ
_chemical_formula_moiety         'C10 H12 O5 S1'
_chemical_name_systematic        '2-O-Benzylglycerol 1,3-cyclic sulfate'
_chemical_properties_biological  
'less inhibitory activity against alpha-glucosidase than salacinol'
_symmetry_cell_setting           monoclinic
_symmetry_space_group_name_H-M   'P 21/a'
_symmetry_Int_Tables_number      14
_space_group_name_Hall           '-P 2yab'
loop_
_symmetry_equiv_pos_site_id
_symmetry_equiv_pos_as_xyz
1 x,y,z
2 1/2-x,1/2+y,-z
3 -x,-y,-z
4 1/2+x,1/2-y,z
_cell_length_a                   9.306(3)
_cell_length_b                   12.839(2)
_cell_length_c                   9.956(2)
_cell_angle_alpha                90
_cell_angle_beta                 101.58(2)
_cell_angle_gamma                90
_cell_volume                     1165.33
_exptl_crystal_colour            colorless
_exptl_crystal_description       prismatic
_chemical_melting_point          '348-350 K'
_cell_formula_units_Z            4
_exptl_crystal_recrystallization_method 'hexane/diethyl ether'
loop_
_atom_site_label
_atom_site_type_symbol
_atom_site_fract_x
_atom_site_fract_y
_atom_site_fract_z
S1 S 0.8041(2) 0.1158(1) 0.9637(2)
O1 O 0.7676(4) 0.2334(3) 0.9670(3)
O2 O 0.8882(5) 0.2940(4) 1.2439(5)
O3 O 0.8837(5) 0.0958(3) 1.1118(5)
O4 O 0.8996(5) 0.0987(3) 0.8728(4)
O5 O 0.6673(5) 0.0637(3) 0.9461(5)
C1 C 0.8949(8) 0.3005(4) 1.0050(7)
C2 C 0.9776(7) 0.2696(6) 1.1475(7)
C3 C 1.0147(8) 0.1568(7) 1.1580(7)
C4 C 0.939(1) 0.3679(8) 1.3370(10)
C5 C 0.8492(8) 0.3811(8) 1.4432(7)
C6 C 0.778(1) 0.4715(7) 1.4593(9)
C7 C 0.6977(10) 0.4805(7) 1.562(1)
C8 C 0.685(1) 0.400(1) 1.6400(9)
C9 C 0.750(1) 0.3104(8) 1.6256(10)
C10 C 0.834(1) 0.3019(7) 1.527(1)
H1 H 0.9585 0.2955 0.9391
H2 H 0.8661 0.3732 1.0058
H3 H 1.0690 0.3111 1.1696
H4 H 1.0885 0.1407 1.1002
H5 H 1.0641 0.1390 1.2498
H6 H 0.9449 0.4373 1.2921
H7 H 1.0412 0.3548 1.3822
H8 H 0.7804 0.5302 1.3978
H9 H 0.6488 0.5439 1.5795
H10 H 0.6251 0.4048 1.7117
H11 H 0.7422 0.2508 1.6858
H12 H 0.8874 0.2358 1.5218
loop_
_geom_bond_atom_site_label_1
_geom_bond_atom_site_label_2
_geom_bond_site_symmetry_1
_geom_bond_site_symmetry_2
S1 O1 1_555 1_555
O1 C1 1_555 1_555
O2 C2 1_555 1_555
O3 S1 1_555 1_555
O4 S1 1_555 1_555
O5 S1 1_555 1_555
C1 C2 1_555 1_555
C2 C3 1_555 1_555
C3 O3 1_555 1_555
C4 O2 1_555 1_555
C5 C4 1_555 1_555
C6 C5 1_555 1_555
C7 C6 1_555 1_555
C8 C7 1_555 1_555
C9 C8 1_555 1_555
C10 C5 1_555 1_555
H1 C1 1_555 1_555
H2 C1 1_555 1_555
H3 C2 1_555 1_555
H4 C3 1_555 1_555
H5 C3 1_555 1_555
H6 C4 1_555 1_555
H7 C4 1_555 1_555
H8 C6 1_555 1_555
H9 C7 1_555 1_555
H10 C8 1_555 1_555
H11 C9 1_555 1_555
H12 C10 1_555 1_555
C9 C10 1_555 1_555

#END
