
#######################################################################
#
#                 Cambridge Crystallographic Data Centre
#                                CCDC 
#
#######################################################################
#
# If this CIF has been generated from an entry in the Cambridge 
# Structural Database, then it will include bibliographic, chemical, 
# crystal, experimental, refinement or atomic coordinate data resulting 
# from the CCDC's data processing and validation procedures.
#
#######################################################################

data_LAXCOE
_chemical_formula_moiety         'C25 H26 Br1 N2 O2 1+,Cl1 1-'
_chemical_name_systematic        
'2,3-diphenyl-4-nitro-1-(2-(4-bromobenzylasmmonio)ethyl)-cyclobutane chloride'
_symmetry_cell_setting           monoclinic
_symmetry_space_group_name_H-M   'P 21'
_symmetry_Int_Tables_number      4
_space_group_name_Hall           'P 2yb'
loop_
_symmetry_equiv_pos_site_id
_symmetry_equiv_pos_as_xyz
1 x,y,z
2 -x,1/2+y,-z
_cell_length_a                   8.07317(17)
_cell_length_b                   8.55027(17)
_cell_length_c                   16.8646(3)
_cell_angle_alpha                90
_cell_angle_beta                 98.6770(19)
_cell_angle_gamma                90
_cell_volume                     1150.8
_exptl_crystal_description       needle
_cell_formula_units_Z            2
loop_
_atom_site_label
_atom_site_type_symbol
_atom_site_fract_x
_atom_site_fract_y
_atom_site_fract_z
Br1 Br 0.49303(3) 0.39972(4) 0.244487(13)
C1 C 1.0797(3) -0.3117(2) 0.79204(11)
H1 H 1.1780 -0.2717 0.7708
O1 O 0.9458(2) -0.7838(2) 0.75985(10)
O2 O 0.77405(19) -0.64958(18) 0.67570(9)
C2 C 0.8351(3) -0.1120(3) 0.93947(11)
H2 H 0.7402 -0.1303 0.9633
C3 C 1.1167(3) -0.0575(2) 0.86806(13)
H3 H 1.2117 -0.0387 0.8444
N1 N 0.8834(2) -0.0306(2) 0.56876(10)
H4 H 0.9496 0.0536 0.5668
H5 H 0.9022 -0.0965 0.5295
C4 C 1.2875(3) -0.5364(3) 0.84705(12)
C5 C 0.9252(3) 0.0251(3) 0.95582(13)
H6 H 0.8913 0.0984 0.9908
C6 C 0.9301(3) -0.1106(3) 0.64856(11)
H7 H 0.8500 -0.0821 0.6836
H8 H 1.0397 -0.0746 0.6733
C7 C 0.5786(3) 0.0389(3) 0.40790(14)
H9 H 0.5540 -0.0672 0.4088
C8 C 1.5431(3) -0.4870(3) 0.93745(15)
H10 H 1.6026 -0.4279 0.9785
C9 C 0.9450(3) -0.3667(2) 0.72123(12)
H11 H 0.8344 -0.3683 0.7385
C10 C 0.8856(3) -0.2222(3) 0.88772(12)
H12 H 0.8248 -0.3142 0.8774
C11 C 1.6180(3) -0.6149(3) 0.90696(15)
H13 H 1.7279 -0.6415 0.9272
C12 C 1.0244(3) -0.5301(3) 0.73128(13)
H14 H 1.1088 -0.5426 0.6957
C13 C 1.3803(3) -0.4474(3) 0.90697(13)
H15 H 1.3319 -0.3599 0.9268
C14 C 0.6543(2) 0.3562(3) 0.40505(12)
H16 H 0.6803 0.4620 0.4034
C15 C 1.0274(3) -0.1960(3) 0.85095(12)
C16 C 1.3630(3) -0.6644(3) 0.81661(16)
H17 H 1.3029 -0.7248 0.7763
C17 C 0.5334(3) 0.1230(3) 0.33807(14)
H18 H 0.4793 0.0743 0.2920
C18 C 0.6606(2) 0.1108(3) 0.47724(13)
N2 N 0.9055(2) -0.6654(2) 0.72239(10)
C19 C 0.5702(3) 0.2809(3) 0.33798(13)
C20 C 0.7041(3) 0.0203(3) 0.55406(14)
H19 H 0.6817 0.0849 0.5985
H20 H 0.6327 -0.0712 0.5522
C21 C 0.6987(3) 0.2701(3) 0.47465(13)
H21 H 0.7546 0.3189 0.5203
C22 C 1.0662(3) 0.0530(3) 0.91992(13)
H22 H 1.1265 0.1452 0.9305
C23 C 0.9331(3) -0.2885(2) 0.63985(12)
H23 H 0.8320 -0.3229 0.6058
H24 H 1.0284 -0.3189 0.6145
C24 C 1.1088(3) -0.4883(2) 0.81677(12)
H25 H 1.0358 -0.5177 0.8558
C25 C 1.5285(3) -0.7027(3) 0.84627(18)
H26 H 1.5790 -0.7877 0.8251
Cl1 Cl 0.86409(6) -0.26045(6) 0.42348(3)
loop_
_geom_bond_atom_site_label_1
_geom_bond_atom_site_label_2
_geom_bond_site_symmetry_1
_geom_bond_site_symmetry_2
Br1 C19 1_555 1_555
C1 H1 1_555 1_555
O1 N2 1_555 1_555
O2 N2 1_555 1_555
C2 H2 1_555 1_555
C3 H3 1_555 1_555
N1 H4 1_555 1_555
H5 N1 1_555 1_555
C4 C13 1_555 1_555
C5 C2 1_555 1_555
H6 C5 1_555 1_555
C6 N1 1_555 1_555
H7 C6 1_555 1_555
H8 C6 1_555 1_555
C7 H9 1_555 1_555
C8 H10 1_555 1_555
C9 C1 1_555 1_555
H11 C9 1_555 1_555
C10 C2 1_555 1_555
H12 C10 1_555 1_555
C11 C8 1_555 1_555
H13 C11 1_555 1_555
C12 C9 1_555 1_555
H14 C12 1_555 1_555
C13 C8 1_555 1_555
H15 C13 1_555 1_555
C14 H16 1_555 1_555
C15 C1 1_555 1_555
C16 C4 1_555 1_555
H17 C16 1_555 1_555
C17 C7 1_555 1_555
H18 C17 1_555 1_555
C18 C7 1_555 1_555
N2 C12 1_555 1_555
C19 C14 1_555 1_555
C20 N1 1_555 1_555
H19 C20 1_555 1_555
H20 C20 1_555 1_555
C21 C14 1_555 1_555
H21 C21 1_555 1_555
C22 C3 1_555 1_555
H22 C22 1_555 1_555
C23 C6 1_555 1_555
H23 C23 1_555 1_555
H24 C23 1_555 1_555
C24 C1 1_555 1_555
H25 C24 1_555 1_555
C25 C11 1_555 1_555
H26 C25 1_555 1_555
C3 C15 1_555 1_555
C4 C24 1_555 1_555
C5 C22 1_555 1_555
C9 C23 1_555 1_555
C10 C15 1_555 1_555
C12 C24 1_555 1_555
C16 C25 1_555 1_555
C17 C19 1_555 1_555
C18 C20 1_555 1_555
C18 C21 1_555 1_555

#END
