
#######################################################################
#
#                 Cambridge Crystallographic Data Centre
#                                CCDC 
#
#######################################################################
#
# If this CIF has been generated from an entry in the Cambridge 
# Structural Database, then it will include bibliographic, chemical, 
# crystal, experimental, refinement or atomic coordinate data resulting 
# from the CCDC's data processing and validation procedures.
#
#######################################################################

data_LAXGAT03
_chemical_name_common            2-phenylbenzimidazole
_chemical_formula_moiety         'C14 H12 N2'
_chemical_name_systematic        2-Benzyl-1H-benzimidazole
_symmetry_cell_setting           orthorhombic
_symmetry_space_group_name_H-M   'P b c a'
_symmetry_Int_Tables_number      61
_space_group_name_Hall           '-P 2ac 2ab'
loop_
_symmetry_equiv_pos_site_id
_symmetry_equiv_pos_as_xyz
1 x,y,z
2 1/2-x,-y,1/2+z
3 -x,1/2+y,1/2-z
4 1/2+x,1/2-y,-z
5 -x,-y,-z
6 1/2+x,y,1/2-z
7 x,1/2-y,1/2+z
8 1/2-x,1/2+y,z
_cell_length_a                   9.3842(13)
_cell_length_b                   9.7234(13)
_cell_length_c                   24.937(3)
_cell_angle_alpha                90
_cell_angle_beta                 90
_cell_angle_gamma                90
_cell_volume                     2275.41
_chemical_melting_point          186.4-187.5deg.C
_cell_formula_units_Z            8
loop_
_atom_site_label
_atom_site_type_symbol
_atom_site_fract_x
_atom_site_fract_y
_atom_site_fract_z
C1 C 0.0610(2) 0.5678(2) 0.1681(1)
C2 C 0.0880(2) 0.7083(2) 0.1734(1)
C3 C 0.2636(2) 0.6063(2) 0.1307(1)
C4 C -0.0050(2) 0.7968(2) 0.1997(1)
C5 C -0.0649(2) 0.5131(2) 0.1881(1)
C6 C 0.4001(2) 0.5904(2) 0.1007(1)
C7 C 0.3884(2) 0.6349(2) 0.0428(1)
C8 C -0.1278(2) 0.7394(2) 0.2199(1)
C9 C -0.1579(2) 0.6005(2) 0.2139(1)
C10 C 0.3133(2) 0.5557(2) 0.0071(1)
C11 C 0.4540(2) 0.7522(2) 0.0247(1)
C12 C 0.4433(3) 0.7913(3) -0.0285(1)
C13 C 0.3006(2) 0.5950(3) -0.0461(1)
C14 C 0.3646(3) 0.7142(3) -0.0635(1)
N1 N 0.1740(1) 0.5053(1) 0.1413(1)
N2 N 0.2180(1) 0.7298(1) 0.1486(1)
loop_
_geom_bond_atom_site_label_1
_geom_bond_atom_site_label_2
_geom_bond_site_symmetry_1
_geom_bond_site_symmetry_2
C1 C2 1_555 1_555
C2 C4 1_555 1_555
C3 C6 1_555 1_555
C4 C8 1_555 1_555
C5 C1 1_555 1_555
C6 C7 1_555 1_555
C7 C10 1_555 1_555
C8 C9 1_555 1_555
C9 C5 1_555 1_555
C10 C13 1_555 1_555
C11 C7 1_555 1_555
C12 C11 1_555 1_555
C13 C14 1_555 1_555
C14 C12 1_555 1_555
N1 C1 1_555 1_555
N2 C2 1_555 1_555
C3 N1 1_555 1_555
C3 N2 1_555 1_555

#END
