
#######################################################################
#
#                 Cambridge Crystallographic Data Centre
#                                CCDC 
#
#######################################################################
#
# If this CIF has been generated from an entry in the Cambridge 
# Structural Database, then it will include bibliographic, chemical, 
# crystal, experimental, refinement or atomic coordinate data resulting 
# from the CCDC's data processing and validation procedures.
#
#######################################################################

data_LAXJOK03
_chemical_formula_moiety         'C15 H22 N4 O3'
_chemical_name_systematic        
4,6-Dioxo-5,5-bis(prop-2-enyl)-1H,5H-pyrimidine-2-isobutylurea
_symmetry_cell_setting           triclinic
_symmetry_space_group_name_H-M   'P -1'
_symmetry_Int_Tables_number      2
_space_group_name_Hall           '-P 1'
loop_
_symmetry_equiv_pos_site_id
_symmetry_equiv_pos_as_xyz
1 x,y,z
2 -x,-y,-z
_cell_length_a                   12.0670(6)
_cell_length_b                   13.8660(7)
_cell_length_c                   17.6218(9)
_cell_angle_alpha                73.608(2)
_cell_angle_beta                 71.557(2)
_cell_angle_gamma                66.840(2)
_cell_volume                     2529.21
_exptl_crystal_colour            colorless
_exptl_crystal_description       Block
_cell_formula_units_Z            6
_exptl_crystal_recrystallization_method dichloromethane
loop_
_atom_site_label
_atom_site_type_symbol
_atom_site_fract_x
_atom_site_fract_y
_atom_site_fract_z
C1 C 0.2348(6) 0.3562(5) 0.1927(4)
H1 H 0.1605 0.4157 0.1973
H2 H 0.2615 0.3126 0.2403
C2 C 0.2988(5) 0.3346(4) 0.1228(3)
H3 H 0.3726 0.2745 0.1207
C3 C 0.2663(4) 0.3971(3) 0.0440(3)
H4 H 0.3279 0.4332 0.0137
H5 H 0.1844 0.4531 0.0557
C4 C 0.2616(3) 0.3303(3) -0.0112(2)
C5 C 0.2325(4) 0.4037(3) -0.0924(2)
H6 H 0.1525 0.4618 -0.0804
H7 H 0.2978 0.4367 -0.1198
C6 C 0.2257(4) 0.3449(3) -0.1482(2)
H8 H 0.3010 0.2977 -0.1743
C7 C 0.1218(4) 0.3537(4) -0.1640(2)
H9 H 0.0449 0.4002 -0.1390
H10 H 0.1240 0.3135 -0.2005
C8 C 0.3882(3) 0.2449(3) -0.0288(2)
C9 C 0.1555(3) 0.2872(3) 0.0301(2)
C10 C 0.3061(3) 0.1094(3) 0.03009(19)
C11 C 0.2305(3) -0.0447(3) 0.0853(2)
C12 C 0.1935(4) -0.2155(3) 0.1306(2)
H11 H 0.1137 -0.1720 0.1613
H12 H 0.2331 -0.2757 0.1702
C13 C 0.1675(4) -0.2598(4) 0.0709(3)
H13 H 0.118(4) -0.306(3) 0.103(2)
C14 C 0.2854(5) -0.3249(4) 0.0188(4)
H14 H 0.3336 -0.2787 -0.0149
H15 H 0.2639 -0.3552 -0.0162
H16 H 0.3348 -0.3826 0.0541
C15 C 0.0859(5) -0.1721(4) 0.0189(3)
H17 H 0.0068 -0.1368 0.0538
H18 H 0.0707 -0.2028 -0.0190
H19 H 0.1274 -0.1199 -0.0119
N1 N 0.4052(2) 0.1376(2) -0.00656(17)
N2 N 0.1889(3) 0.1768(3) 0.04822(18)
H58 H 0.139(3) 0.147(3) 0.070(2)
N3 N 0.3226(3) 0.0038(3) 0.05047(18)
H59 H 0.393(3) -0.034(2) 0.0372(17)
N4 N 0.2735(3) -0.1497(3) 0.09217(18)
H60 H 0.358(4) -0.187(3) 0.077(2)
O1 O 0.4782(2) 0.2749(2) -0.06404(17)
O2 O 0.0482(2) 0.3423(2) 0.04659(16)
O3 O 0.1206(2) 0.0097(2) 0.10764(15)
C16 C 0.9010(4) 0.3598(4) 0.6183(3)
H20 H 0.9172 0.2855 0.6380
H21 H 0.8671 0.4077 0.6556
C17 C 0.9255(4) 0.3960(4) 0.5400(3)
H22 H 0.9079 0.4708 0.5230
C18 C 0.9790(3) 0.3293(3) 0.4749(2)
H23 H 0.9940 0.2535 0.5011
H24 H 1.0601 0.3370 0.4437
C19 C 0.8957(3) 0.3587(3) 0.4152(2)
C20 C 0.9529(4) 0.2787(3) 0.3558(3)
H25 H 1.0335 0.2852 0.3221
H26 H 0.9687 0.2053 0.3875
C21 C 0.8702(5) 0.2972(4) 0.3009(3)
H27 H 0.7958 0.2808 0.3251
C22 C 0.8920(6) 0.3332(4) 0.2246(3)
H28 H 0.9654 0.3506 0.1981
H29 H 0.8349 0.3426 0.1942
C23 C 0.8910(4) 0.4674(3) 0.3657(2)
C24 C 0.7701(3) 0.3505(3) 0.4633(2)
C25 C 0.6701(3) 0.5284(3) 0.4198(2)
C26 C 0.5523(4) 0.7195(3) 0.3820(2)
C27 C 0.4078(4) 0.9025(3) 0.3695(3)
H30 H 0.4787 0.9149 0.3258
H31 H 0.3913 0.9441 0.4116
C28 C 0.2953(4) 0.9411(4) 0.3349(3)
H32 H 0.222(4) 0.932(3) 0.385(2)
C29 C 0.3130(6) 0.8805(5) 0.2708(3)
H33 H 0.3834 0.8892 0.2261
H34 H 0.2378 0.9082 0.2500
H35 H 0.3292 0.8047 0.2946
C30 C 0.2633(5) 1.0609(4) 0.3020(4)
H36 H 0.3269 1.0735 0.2533
H37 H 0.2599 1.0970 0.3436
H38 H 0.1826 1.0890 0.2881
N5 N 0.7753(3) 0.5444(3) 0.36911(19)
N6 N 0.6629(3) 0.4365(2) 0.46571(17)
N7 N 0.5635(3) 0.6136(2) 0.42294(18)
H61 H 0.493(3) 0.608(2) 0.459(2)
N8 N 0.4406(3) 0.7887(2) 0.4056(2)
H62 H 0.371(4) 0.768(3) 0.441(2)
O4 O 0.9822(2) 0.4889(2) 0.32337(16)
O5 O 0.7657(2) 0.2621(2) 0.50270(17)
O6 O 0.6403(2) 0.74186(19) 0.33104(15)
H66 H 0.766(3) 0.610(3) 0.344(2)
C31 C 0.8975(9) 1.0082(7) 0.4377(6)
H39 H 0.8309 1.0725 0.4467
H40 H 0.9368 0.9643 0.4804
C32 C 0.8989(5) 1.0241(4) 0.2968(3)
H41 H 0.9759 0.9968 0.2559
H42 H 0.8728 1.1030 0.2845
C33 C 0.7964(4) 0.9899(3) 0.2870(2)
C34 C 0.7902(4) 1.0214(3) 0.1961(2)
H43 H 0.7649 1.1000 0.1802
H44 H 0.8741 0.9911 0.1623
C35 C 0.6998(5) 0.9830(5) 0.1775(3)
H45 H 0.7161 0.9082 0.1887
C36 C 0.6073(6) 1.0400(6) 0.1493(3)
H46 H 0.5869 1.1153 0.1371
H47 H 0.5571 1.0081 0.1401
C37 C 0.8344(3) 0.8708(3) 0.3119(2)
C38 C 0.6760(4) 1.0464(3) 0.3409(3)
C39 C 0.6730(3) 0.8946(3) 0.4339(2)
C40 C 0.6525(4) 0.7345(3) 0.5363(2)
C42 C 0.5576(10) 0.5970(7) 0.6312(5)
H50 H 0.5181 0.5944 0.5908
H51 H 0.6414 0.5427 0.6227
C44 C 0.5015(9) 0.5651(7) 0.6960(6)
C45 C 0.4744(6) 0.6131(4) 0.7785(3)
H52 H 0.4634 0.6866 0.7775
H53 H 0.4701 0.5757 0.8343
H54 H 0.4053 0.6129 0.7617
C46 C 0.5547(5) 0.4404(4) 0.7289(3)
H55 H 0.6047 0.3939 0.6897
H56 H 0.4758 0.4293 0.7556
H57 H 0.5956 0.4298 0.7714
N9 N 0.7772(3) 0.8336(3) 0.38939(19)
H63 H 0.797(3) 0.767(3) 0.408(2)
N10 N 0.6199(3) 0.9975(2) 0.41285(18)
N11 N 0.6180(3) 0.8458(2) 0.50625(18)
H64 H 0.548(4) 0.888(3) 0.531(2)
N12 N 0.5779(4) 0.7072(3) 0.6053(2)
H65 H 0.513(4) 0.751(3) 0.626(2)
O7 O 0.9147(2) 0.8098(2) 0.26944(15)
O9 O 0.6478(5) 1.1459(4) 0.3282(3)
O10 O 0.7441(3) 0.6718(2) 0.50016(15)
C47 C 0.9277(9) 0.9855(8) 0.3806(4)
H67 H 0.9945 0.9198 0.3814
C41? C 0.6255(8) 0.5954(6) 0.6492(5)
H48? H 0.6470 0.5481 0.6101
H49? H 0.7044 0.5875 0.6602
C43? C 0.5622(10) 0.5562(7) 0.7163(5)
O8? O 0.5990(7) 1.1382(5) 0.3049(4)
loop_
_geom_bond_atom_site_label_1
_geom_bond_atom_site_label_2
_geom_bond_site_symmetry_1
_geom_bond_site_symmetry_2
C1 H1 1_555 1_555
H2 C1 1_555 1_555
C2 C1 1_555 1_555
H3 C2 1_555 1_555
C3 C2 1_555 1_555
H4 C3 1_555 1_555
H5 C3 1_555 1_555
C4 C3 1_555 1_555
C5 C4 1_555 1_555
H6 C5 1_555 1_555
H7 C5 1_555 1_555
C6 C5 1_555 1_555
H8 C6 1_555 1_555
C7 C6 1_555 1_555
H9 C7 1_555 1_555
H10 C7 1_555 1_555
C8 C4 1_555 1_555
C9 C4 1_555 1_555
C10 N1 1_555 1_555
C11 N3 1_555 1_555
C12 H11 1_555 1_555
H12 C12 1_555 1_555
C13 C12 1_555 1_555
H13 C13 1_555 1_555
C14 C13 1_555 1_555
H14 C14 1_555 1_555
H15 C14 1_555 1_555
H16 C14 1_555 1_555
C15 C13 1_555 1_555
H17 C15 1_555 1_555
H18 C15 1_555 1_555
H19 C15 1_555 1_555
C16 H20 1_555 1_555
H21 C16 1_555 1_555
C17 C16 1_555 1_555
H22 C17 1_555 1_555
C18 C17 1_555 1_555
H23 C18 1_555 1_555
H24 C18 1_555 1_555
C19 C18 1_555 1_555
C20 C19 1_555 1_555
H25 C20 1_555 1_555
H26 C20 1_555 1_555
C21 C20 1_555 1_555
H27 C21 1_555 1_555
C22 C21 1_555 1_555
H28 C22 1_555 1_555
H29 C22 1_555 1_555
C23 C19 1_555 1_555
C24 C19 1_555 1_555
C25 N5 1_555 1_555
C26 N7 1_555 1_555
C27 H30 1_555 1_555
H31 C27 1_555 1_555
C28 C27 1_555 1_555
H32 C28 1_555 1_555
C29 C28 1_555 1_555
H33 C29 1_555 1_555
H34 C29 1_555 1_555
H35 C29 1_555 1_555
C30 C28 1_555 1_555
H36 C30 1_555 1_555
H37 C30 1_555 1_555
H38 C30 1_555 1_555
C31 H39 1_555 1_555
H40 C31 1_555 1_555
C32 H41 1_555 1_555
H42 C32 1_555 1_555
C33 C32 1_555 1_555
C34 C33 1_555 1_555
H43 C34 1_555 1_555
H44 C34 1_555 1_555
C35 C34 1_555 1_555
H45 C35 1_555 1_555
C36 C35 1_555 1_555
H46 C36 1_555 1_555
H47 C36 1_555 1_555
C37 C33 1_555 1_555
C38 C33 1_555 1_555
C39 N9 1_555 1_555
C40 N11 1_555 1_555
C42 H50 1_555 1_555
H51 C42 1_555 1_555
C44 C42 1_555 1_555
C45 C44 1_555 1_555
H52 C45 1_555 1_555
H53 C45 1_555 1_555
H54 C45 1_555 1_555
C46 C44 1_555 1_555
H55 C46 1_555 1_555
H56 C46 1_555 1_555
H57 C46 1_555 1_555
N1 C8 1_555 1_555
N2 C9 1_555 1_555
H58 N2 1_555 1_555
N3 C10 1_555 1_555
H59 N3 1_555 1_555
N4 C11 1_555 1_555
H60 N4 1_555 1_555
N5 C23 1_555 1_555
N6 C24 1_555 1_555
N7 C25 1_555 1_555
H61 N7 1_555 1_555
N8 C26 1_555 1_555
H62 N8 1_555 1_555
N9 C37 1_555 1_555
H63 N9 1_555 1_555
N10 C38 1_555 1_555
N11 C39 1_555 1_555
H64 N11 1_555 1_555
N12 C40 1_555 1_555
H65 N12 1_555 1_555
O1 C8 1_555 1_555
O2 C9 1_555 1_555
O3 C11 1_555 1_555
O4 C23 1_555 1_555
O5 C24 1_555 1_555
O6 C26 1_555 1_555
O7 C37 1_555 1_555
O9 C38 1_555 1_555
O10 C40 1_555 1_555
H66 N5 1_555 1_555
C47 C31 1_555 1_555
H67 C47 1_555 1_555
C10 N2 1_555 1_555
C12 N4 1_555 1_555
C25 N6 1_555 1_555
C27 N8 1_555 1_555
C32 C47 1_555 1_555
C39 N10 1_555 1_555
C42 N12 1_555 1_555

#END
