
#######################################################################
#
#                 Cambridge Crystallographic Data Centre
#                                CCDC 
#
#######################################################################
#
# If this CIF has been generated from an entry in the Cambridge 
# Structural Database, then it will include bibliographic, chemical, 
# crystal, experimental, refinement or atomic coordinate data resulting 
# from the CCDC's data processing and validation procedures.
#
#######################################################################

data_LAXJOK01
_chemical_formula_moiety         'C15 H22 N4 O3'
_chemical_name_systematic        
4,6-Dioxo-5,5-bis(prop-2-enyl)-1H,5H-pyrimidine-2-isobutylurea
_symmetry_cell_setting           monoclinic
_symmetry_space_group_name_H-M   'C 2/c'
_symmetry_Int_Tables_number      15
_space_group_name_Hall           '-C 2yn'
loop_
_symmetry_equiv_pos_site_id
_symmetry_equiv_pos_as_xyz
1 x,y,z
2 1/2+x,1/2+y,z
3 -x,y,1/2-z
4 1/2-x,1/2+y,1/2-z
5 -x,-y,-z
6 1/2-x,1/2-y,-z
7 x,-y,1/2+z
8 1/2+x,1/2-y,1/2+z
_cell_length_a                   23.862(2)
_cell_length_b                   13.2641(11)
_cell_length_c                   12.2213(10)
_cell_angle_alpha                90
_cell_angle_beta                 116.676(3)
_cell_angle_gamma                90
_cell_volume                     3456.41
_exptl_crystal_colour            colorless
_exptl_crystal_description       Block
_chemical_melting_point          121deg.C
_cell_formula_units_Z            8
_exptl_crystal_recrystallization_method ethanol
loop_
_atom_site_label
_atom_site_type_symbol
_atom_site_fract_x
_atom_site_fract_y
_atom_site_fract_z
C1 C 0.7995(5) -0.1208(8) -0.0324(11)
H1 H 0.7718 -0.1266 -0.1151
H2 H 0.7886 -0.1465 0.0263
C2 C 0.8529(4) -0.0774(6) 0.0008(8)
H3 H 0.8789 -0.0735 0.0846
C3 C 0.8759(3) -0.0349(4) -0.0776(5)
H4 H 0.8468 -0.0507 -0.1617
H5 H 0.9156 -0.0665 -0.0604
C4 C 0.88549(19) 0.0811(3) -0.0657(4)
C5 C 0.9155(3) 0.1133(6) -0.1487(6)
H6 H 0.9531 0.0739 -0.1281
H7 H 0.8865 0.0993 -0.2334
C6 C 0.9317(7) 0.2220(11) -0.1353(14)
H8 H 0.9448 0.2423 -0.0547
C7 C 0.9328(9) 0.2786(15) -0.1849(15)
H9 H 0.9209 0.2696 -0.2678
H10 H 0.9458 0.3417 -0.1492
C8 C 0.82237(18) 0.1315(4) -0.1071(4)
C9 C 0.93034(17) 0.1058(3) 0.0647(4)
C10 C 0.84820(15) 0.1976(3) 0.0831(3)
C11 C 0.87218(19) 0.2865(3) 0.2763(4)
C12 C 0.8785(3) 0.3800(5) 0.4522(5)
H11 H 0.9184 0.3454 0.4935
H12 H 0.8547 0.3667 0.4974
C13 C 0.8899(6) 0.4911(9) 0.4527(11)
C15 C 0.8314(8) 0.5519(12) 0.3952(16)
H13 H 0.8032 0.5311 0.4272
H14 H 0.8120 0.5419 0.3081
H15 H 0.8414 0.6220 0.4131
C17 C 0.9248(4) 0.5237(7) 0.5916(7)
H19 H 0.9647 0.4911 0.6412
H20 H 0.9294 0.5948 0.6120
H21 H 0.8940 0.4959 0.6147
N1 N 0.80510(13) 0.1834(2) -0.0302(3)
N2 N 0.90735(14) 0.1607(3) 0.1316(3)
H22 H 0.933(2) 0.171(3) 0.209(4)
N3 N 0.83177(14) 0.2523(2) 0.1570(3)
H23 H 0.7992(19) 0.268(3) 0.124(4)
N4 N 0.84412(19) 0.3403(3) 0.3272(3)
H24 H 0.809(3) 0.341(5) 0.292(5)
O1 O 0.7898(3) 0.1405(7) -0.2194(5)
O3 O 0.9870(2) 0.0914(7) 0.1062(5)
O5 O 0.92814(13) 0.2662(3) 0.3247(3)
C14? C 0.8733(9) 0.4786(12) 0.4790(16)
C16? C 0.8139(9) 0.5321(15) 0.434(2)
H16? H 0.7886 0.5156 0.3493
H17? H 0.8216 0.6034 0.4418
H18? H 0.7924 0.5127 0.4807
O2? O 0.7778(4) 0.1008(10) -0.2098(6)
O4? O 0.9802(4) 0.0539(13) 0.1263(9)
loop_
_geom_bond_atom_site_label_1
_geom_bond_atom_site_label_2
_geom_bond_site_symmetry_1
_geom_bond_site_symmetry_2
C1 H1 1_555 1_555
H2 C1 1_555 1_555
C2 C1 1_555 1_555
H3 C2 1_555 1_555
C3 C2 1_555 1_555
H4 C3 1_555 1_555
H5 C3 1_555 1_555
C4 C3 1_555 1_555
C5 C4 1_555 1_555
H6 C5 1_555 1_555
H7 C5 1_555 1_555
C6 C5 1_555 1_555
H8 C6 1_555 1_555
C7 C6 1_555 1_555
H9 C7 1_555 1_555
H10 C7 1_555 1_555
C8 C4 1_555 1_555
C9 C4 1_555 1_555
C10 N1 1_555 1_555
C11 N3 1_555 1_555
C12 H11 1_555 1_555
H12 C12 1_555 1_555
C13 C12 1_555 1_555
C15 C13 1_555 1_555
H13 C15 1_555 1_555
H14 C15 1_555 1_555
H15 C15 1_555 1_555
C17 C13 1_555 1_555
H19 C17 1_555 1_555
H20 C17 1_555 1_555
H21 C17 1_555 1_555
N1 C8 1_555 1_555
N2 C9 1_555 1_555
H22 N2 1_555 1_555
N3 C10 1_555 1_555
H23 N3 1_555 1_555
N4 C11 1_555 1_555
H24 N4 1_555 1_555
O1 C8 1_555 1_555
O3 C9 1_555 1_555
O5 C11 1_555 1_555
C10 N2 1_555 1_555
C12 N4 1_555 1_555

#END
