
#######################################################################
#
#                 Cambridge Crystallographic Data Centre
#                                CCDC 
#
#######################################################################
#
# If this CIF has been generated from an entry in the Cambridge 
# Structural Database, then it will include bibliographic, chemical, 
# crystal, experimental, refinement or atomic coordinate data resulting 
# from the CCDC's data processing and validation procedures.
#
#######################################################################

data_LAXNOQ
_chemical_formula_moiety         'C24 H29 Cl2 N1 O4'
_chemical_name_systematic        
'2,6-dichlorobenzyl (2S,3R)-2-methyl-3-((1S,2R,5S,8T)-8,11,11-trimethyl-4-oxo-3-oxa-6-azatricyclo[6.2.1.0^2,7^]undec-6-en-5-yl)butanoate'
_symmetry_cell_setting           monoclinic
_symmetry_space_group_name_H-M   'P 21'
_symmetry_Int_Tables_number      4
_space_group_name_Hall           'P 2yb'
loop_
_symmetry_equiv_pos_site_id
_symmetry_equiv_pos_as_xyz
1 x,y,z
2 -x,1/2+y,-z
_cell_length_a                   9.2948(5)
_cell_length_b                   11.2533(7)
_cell_length_c                   11.0889(7)
_cell_angle_alpha                90
_cell_angle_beta                 95.716(6)
_cell_angle_gamma                90
_cell_volume                     1154.1
_exptl_crystal_colour            colorless
_exptl_crystal_description       block
_cell_formula_units_Z            2
loop_
_atom_site_label
_atom_site_type_symbol
_atom_site_fract_x
_atom_site_fract_y
_atom_site_fract_z
Cl1 Cl -0.08491(14) -0.55893(11) -0.63585(13)
Cl2 Cl -0.24676(13) -0.95849(11) -0.88516(12)
O1 O -0.3372(2) -0.2121(2) -0.6642(2)
O2 O -0.1126(3) -0.2424(3) -0.7016(3)
O3 O -0.4201(3) -0.5972(3) -1.0244(3)
O4 O -0.2180(2) -0.5979(2) -0.8947(2)
N1 N -0.4137(3) -0.3852(3) -0.8410(3)
C1 C -0.4873(3) -0.2258(3) -0.7119(3)
H1 H -0.5168 -0.1613 -0.7684
C2 C -0.5929(4) -0.2373(4) -0.6154(4)
H2 H -0.5711 -0.1867 -0.5440
C3 C -0.7413(4) -0.2149(5) -0.6866(5)
H3 H -0.7397 -0.1441 -0.7364
H4 H -0.8165 -0.2067 -0.6325
C4 C -0.7639(4) -0.3276(5) -0.7653(4)
H5 H -0.7674 -0.3081 -0.8508
H6 H -0.8529 -0.3676 -0.7505
C5 C -0.6304(3) -0.4064(4) -0.7251(4)
C6 C -0.5047(3) -0.3440(3) -0.7743(3)
C7 C -0.5975(4) -0.3707(4) -0.5888(4)
C8 C -0.7162(5) -0.4074(5) -0.5095(5)
H7 H -0.6966 -0.3730 -0.4304
H8 H -0.7181 -0.4924 -0.5027
H9 H -0.8082 -0.3798 -0.5459
C9 C -0.4545(4) -0.4210(5) -0.5288(4)
H10 H -0.3772 -0.3991 -0.5757
H11 H -0.4608 -0.5061 -0.5249
H12 H -0.4359 -0.3894 -0.4484
C10 C -0.6459(4) -0.5368(4) -0.7565(5)
H13 H -0.6447 -0.5470 -0.8423
H14 H -0.7356 -0.5660 -0.7322
H15 H -0.5671 -0.5803 -0.7148
C11 C -0.2380(4) -0.2482(3) -0.7375(3)
C12 C -0.2987(3) -0.2983(3) -0.8603(3)
H16 H -0.3428 -0.2326 -0.9089
C13 C -0.1812(3) -0.3536(3) -0.9304(3)
H17 H -0.1178 -0.4008 -0.8729
C14 C -0.2446(4) -0.4377(3) -1.0315(3)
H18 H -0.1623 -0.4631 -1.0740
C15 C -0.3083(4) -0.5505(3) -0.9851(3)
C16 C -0.2763(4) -0.6938(4) -0.8282(4)
H19 H -0.3324 -0.7468 -0.8836
H20 H -0.3394 -0.6624 -0.7713
C17 C -0.1537(3) -0.7603(3) -0.7614(3)
C18 C -0.0597(4) -0.7067(4) -0.6732(4)
C19 C 0.0536(4) -0.7673(5) -0.6100(4)
H21 H 0.1158 -0.7290 -0.5516
C20 C 0.0718(4) -0.8864(5) -0.6359(4)
H22 H 0.1492 -0.9278 -0.5963
C21 C -0.0211(4) -0.9436(4) -0.7180(4)
H23 H -0.0106 -1.0246 -0.7315
C22 C -0.1311(3) -0.8811(3) -0.7812(3)
C23 C -0.0885(4) -0.2560(4) -0.9809(4)
H24 H -0.1482 -0.2074 -1.0366
H25 H -0.0136 -0.2919 -1.0222
H26 H -0.0457 -0.2078 -0.9155
C24 C -0.3503(4) -0.3797(4) -1.1275(4)
H27 H -0.3842 -0.4378 -1.1870
H28 H -0.3025 -0.3166 -1.1660
H29 H -0.4308 -0.3480 -1.0900
loop_
_geom_bond_atom_site_label_1
_geom_bond_atom_site_label_2
_geom_bond_site_symmetry_1
_geom_bond_site_symmetry_2
Cl1 C18 1_555 1_555
Cl2 C22 1_555 1_555
O1 C1 1_555 1_555
O2 C11 1_555 1_555
O3 C15 1_555 1_555
O4 C15 1_555 1_555
N1 C6 1_555 1_555
C1 H1 1_555 1_555
C2 C1 1_555 1_555
H2 C2 1_555 1_555
C3 C2 1_555 1_555
H3 C3 1_555 1_555
H4 C3 1_555 1_555
C4 C3 1_555 1_555
H5 C4 1_555 1_555
H6 C4 1_555 1_555
C5 C4 1_555 1_555
C6 C1 1_555 1_555
C7 C2 1_555 1_555
C8 C7 1_555 1_555
H7 C8 1_555 1_555
H8 C8 1_555 1_555
H9 C8 1_555 1_555
C9 C7 1_555 1_555
H10 C9 1_555 1_555
H11 C9 1_555 1_555
H12 C9 1_555 1_555
C10 C5 1_555 1_555
H13 C10 1_555 1_555
H14 C10 1_555 1_555
H15 C10 1_555 1_555
C11 O1 1_555 1_555
C12 N1 1_555 1_555
H16 C12 1_555 1_555
C13 C12 1_555 1_555
H17 C13 1_555 1_555
C14 C13 1_555 1_555
H18 C14 1_555 1_555
C15 C14 1_555 1_555
C16 O4 1_555 1_555
H19 C16 1_555 1_555
H20 C16 1_555 1_555
C17 C16 1_555 1_555
C18 C17 1_555 1_555
C19 C18 1_555 1_555
H21 C19 1_555 1_555
C20 C19 1_555 1_555
H22 C20 1_555 1_555
C21 C20 1_555 1_555
H23 C21 1_555 1_555
C22 C17 1_555 1_555
C23 C13 1_555 1_555
H24 C23 1_555 1_555
H25 C23 1_555 1_555
H26 C23 1_555 1_555
C24 C14 1_555 1_555
H27 C24 1_555 1_555
H28 C24 1_555 1_555
H29 C24 1_555 1_555
C5 C6 1_555 1_555
C5 C7 1_555 1_555
C11 C12 1_555 1_555
C21 C22 1_555 1_555

#END
