
#######################################################################
#
#                 Cambridge Crystallographic Data Centre
#                                CCDC 
#
#######################################################################
#
# If this CIF has been generated from an entry in the Cambridge 
# Structural Database, then it will include bibliographic, chemical, 
# crystal, experimental, refinement or atomic coordinate data resulting 
# from the CCDC's data processing and validation procedures.
#
#######################################################################

data_LAXNIK
_chemical_formula_moiety         'C10 H12 Br4'
_chemical_name_systematic        1,2,5,6-tetrabromoadamantane
_symmetry_cell_setting           monoclinic
_symmetry_space_group_name_H-M   'P 21/c'
_symmetry_Int_Tables_number      14
_space_group_name_Hall           '-P 2ybc'
loop_
_symmetry_equiv_pos_site_id
_symmetry_equiv_pos_as_xyz
1 x,y,z
2 -x,1/2+y,1/2-z
3 -x,-y,-z
4 x,1/2-y,1/2+z
_cell_length_a                   11.7857(4)
_cell_length_b                   14.4720(4)
_cell_length_c                   12.8098(4)
_cell_angle_alpha                90
_cell_angle_beta                 146.685(3)
_cell_angle_gamma                90
_cell_volume                     1200.02
_exptl_crystal_colour            colorless
_exptl_crystal_description       plate
_cell_formula_units_Z            4
loop_
_atom_site_label
_atom_site_type_symbol
_atom_site_fract_x
_atom_site_fract_y
_atom_site_fract_z
Br1 Br 0.27380(9) 0.39247(3) -0.05135(8)
Br2 Br 0.76905(9) 0.44056(4) 0.42134(8)
Br3 Br 0.29589(9) 0.60484(4) 0.33792(8)
Br4 Br -0.06784(9) 0.68006(4) -0.11848(8)
C1 C 0.3492(8) 0.5148(3) 0.0667(8)
C2 C 0.5775(8) 0.5355(4) 0.2199(7)
C3 C 0.6313(8) 0.6288(4) 0.3112(8)
C4 C 0.5820(8) 0.6278(4) 0.3905(8)
C5 C 0.3521(8) 0.6076(3) 0.2295(7)
C6 C 0.2309(8) 0.6853(3) 0.0849(8)
C7 C 0.2724(8) 0.6831(3) -0.0012(8)
C8 C 0.2180(9) 0.5879(3) -0.0898(8)
C9 C 0.2985(9) 0.5121(3) 0.1437(8)
C10 C 0.4994(9) 0.7033(4) 0.1556(8)
H1 H 0.5969(8) 0.5406(4) 0.1575(7)
H2 H 0.7812(8) 0.6425(4) 0.4158(8)
H3 H 0.6657(8) 0.5797(4) 0.4901(8)
H4 H 0.6169(8) 0.6884(4) 0.4486(8)
H5 H 0.2839(8) 0.7454(3) 0.1536(8)
H6 H 0.1875(8) 0.7318(3) -0.1015(8)
H7 H 0.2474(9) 0.5874(3) -0.1430(8)
H8 H 0.0693(9) 0.5747(3) -0.1938(8)
H9 H 0.1500(9) 0.4986(3) 0.0401(8)
H10 H 0.3806(9) 0.4636(3) 0.2421(8)
H11 H 0.5341(9) 0.7649(4) 0.2108(8)
H12 H 0.5293(9) 0.7037(4) 0.1028(8)
loop_
_geom_bond_atom_site_label_1
_geom_bond_atom_site_label_2
_geom_bond_site_symmetry_1
_geom_bond_site_symmetry_2
Br1 C1 1_555 1_555
Br2 C2 1_555 1_555
Br3 C5 1_555 1_555
Br4 C6 1_555 1_555
C1 C2 1_555 1_555
C2 C3 1_555 1_555
C3 C4 1_555 1_555
C4 C5 1_555 1_555
C5 C6 1_555 1_555
C6 C7 1_555 1_555
C7 C8 1_555 1_555
C8 C1 1_555 1_555
C9 C1 1_555 1_555
C10 C3 1_555 1_555
H1 C2 1_555 1_555
H2 C3 1_555 1_555
H3 C4 1_555 1_555
H4 C4 1_555 1_555
H5 C6 1_555 1_555
H6 C7 1_555 1_555
H7 C8 1_555 1_555
H8 C8 1_555 1_555
H9 C9 1_555 1_555
H10 C9 1_555 1_555
H11 C10 1_555 1_555
H12 C10 1_555 1_555
C5 C9 1_555 1_555
C7 C10 1_555 1_555

#END
