
#######################################################################
#
#                 Cambridge Crystallographic Data Centre
#                                CCDC 
#
#######################################################################
#
# If this CIF has been generated from an entry in the Cambridge 
# Structural Database, then it will include bibliographic, chemical, 
# crystal, experimental, refinement or atomic coordinate data resulting 
# from the CCDC's data processing and validation procedures.
#
#######################################################################

data_LAXRIN
_chemical_formula_moiety         'C22 H23 N1 O6 S2'
_chemical_name_systematic        
'(5R,6R)-Methyl 6-hydroxy-1-oxo-8-(thiophen-2-yl)-7-tosyl-7-azaspiro[4.5]dec-8-ene-9-carboxylate'
_symmetry_cell_setting           triclinic
_symmetry_space_group_name_H-M   'P -1'
_symmetry_Int_Tables_number      2
_space_group_name_Hall           '-P 1'
loop_
_symmetry_equiv_pos_site_id
_symmetry_equiv_pos_as_xyz
1 x,y,z
2 -x,-y,-z
_cell_length_a                   9.751(7)
_cell_length_b                   10.374(7)
_cell_length_c                   11.681(8)
_cell_angle_alpha                70.062(7)
_cell_angle_beta                 77.938(7)
_cell_angle_gamma                85.607(7)
_cell_volume                     1086.25
_exptl_crystal_colour            yellow
_exptl_crystal_description       block
_cell_formula_units_Z            2
loop_
_atom_site_label
_atom_site_type_symbol
_atom_site_fract_x
_atom_site_fract_y
_atom_site_fract_z
C1 C 0.2785(3) 0.7582(3) 0.5085(3)
H1 H 0.3599 0.8140 0.4978
C2 C 0.1617(3) 0.7920(3) 0.6051(3)
C3 C 0.0283(3) 0.7197(3) 0.6155(3)
H2 H 0.0319 0.6263 0.6715
H3 H -0.0506 0.7652 0.6520
C4 C 0.0032(3) 0.7165(3) 0.4940(3)
C5 C 0.0976(3) 0.7581(3) 0.3870(3)
N1 N 0.2313(2) 0.8033(3) 0.3889(2)
C6 C 0.2130(3) 0.7481(3) 0.7277(3)
C7 C 0.2867(4) 0.8658(4) 0.7353(3)
H4 H 0.3846 0.8432 0.7381
H5 H 0.2434 0.8873 0.8093
C8 C 0.2737(4) 0.9859(3) 0.6204(3)
H6 H 0.3592 0.9976 0.5581
H7 H 0.2539 1.0699 0.6400
C9 C 0.1513(3) 0.9483(3) 0.5749(3)
H8 H 0.1592 0.9946 0.4863
H9 H 0.0626 0.9737 0.6176
C10 C -0.1312(3) 0.6562(3) 0.4983(3)
C11 C -0.3701(3) 0.6314(4) 0.5980(4)
H10 H -0.3986 0.6651 0.5192
H11 H -0.4347 0.6632 0.6570
H12 H -0.3692 0.5329 0.6267
C12 C 0.0750(3) 0.7522(3) 0.2673(3)
C13 C 0.0749(4) 0.6805(4) 0.0959(3)
C14 C -0.0086(5) 0.7873(5) 0.0806(4)
C15 C 0.4267(3) 0.8339(3) 0.1772(3)
C16 C 0.5315(4) 0.7486(5) 0.2239(3)
H13 H 0.5452 0.7372 0.3032
C17 C 0.6162(4) 0.6798(5) 0.1533(4)
H14 H 0.6863 0.6217 0.1859
C18 C 0.5986(4) 0.6960(4) 0.0353(3)
C19 C 0.4940(4) 0.7817(4) -0.0084(3)
H15 H 0.4810 0.7941 -0.0881
C20 C 0.4071(4) 0.8505(4) 0.0604(3)
H16 H 0.3361 0.9074 0.0282
C21 C 0.6935(6) 0.6242(5) -0.0435(5)
H17 H 0.6539 0.5372 -0.0305
H18 H 0.7840 0.6099 -0.0207
H19 H 0.7033 0.6795 -0.1294
O1 O 0.3222(2) 0.6222(2) 0.5419(2)
H20 H 0.2554 0.5727 0.5538
O2 O 0.1916(3) 0.6381(3) 0.8066(2)
O3 O -0.1511(2) 0.5914(2) 0.4355(2)
O4 O -0.2314(2) 0.6807(2) 0.5849(2)
O5 O 0.4144(3) 0.9800(3) 0.3180(2)
O6 O 0.2264(3) 1.0101(2) 0.1994(2)
S1 S 0.32256(9) 0.92283(9) 0.26729(8)
C22 C 0.14087(18) 0.63041(19) 0.21554(15)
S3 S -0.03759(17) 0.85562(15) 0.18790(13)
H22 H 0.095(4) 0.626(3) 0.046(3)
H23 H -0.052(4) 0.828(4) 0.014(3)
H21? H -0.0900 0.9288 0.2011
S2? S 0.14087(18) 0.63041(19) 0.21554(15)
C23? C -0.03759(17) 0.85562(15) 0.18790(13)
loop_
_geom_bond_atom_site_label_1
_geom_bond_atom_site_label_2
_geom_bond_site_symmetry_1
_geom_bond_site_symmetry_2
C1 H1 1_555 1_555
C2 C1 1_555 1_555
C3 C2 1_555 1_555
H2 C3 1_555 1_555
H3 C3 1_555 1_555
C4 C3 1_555 1_555
C5 C4 1_555 1_555
N1 C1 1_555 1_555
C6 C2 1_555 1_555
C7 C6 1_555 1_555
H4 C7 1_555 1_555
H5 C7 1_555 1_555
C8 C7 1_555 1_555
H6 C8 1_555 1_555
H7 C8 1_555 1_555
C9 C2 1_555 1_555
H8 C9 1_555 1_555
H9 C9 1_555 1_555
C10 C4 1_555 1_555
C11 H10 1_555 1_555
H11 C11 1_555 1_555
H12 C11 1_555 1_555
C12 C5 1_555 1_555
C13 C14 1_555 1_555
C14 S3 1_555 1_555
C15 C16 1_555 1_555
C16 H13 1_555 1_555
C17 C16 1_555 1_555
H14 C17 1_555 1_555
C18 C17 1_555 1_555
C19 C18 1_555 1_555
H15 C19 1_555 1_555
C20 C15 1_555 1_555
H16 C20 1_555 1_555
C21 C18 1_555 1_555
H17 C21 1_555 1_555
H18 C21 1_555 1_555
H19 C21 1_555 1_555
O1 C1 1_555 1_555
H20 O1 1_555 1_555
O2 C6 1_555 1_555
O3 C10 1_555 1_555
O4 C10 1_555 1_555
O5 S1 1_555 1_555
O6 S1 1_555 1_555
S1 N1 1_555 1_555
C22 C12 1_555 1_555
S3 C12 1_555 1_555
H22 C13 1_555 1_555
H23 C14 1_555 1_555
C5 N1 1_555 1_555
C8 C9 1_555 1_555
C11 O4 1_555 1_555
C13 C22 1_555 1_555
C15 S1 1_555 1_555
C19 C20 1_555 1_555

#END
