
#######################################################################
#
#                 Cambridge Crystallographic Data Centre
#                                CCDC 
#
#######################################################################
#
# If this CIF has been generated from an entry in the Cambridge 
# Structural Database, then it will include bibliographic, chemical, 
# crystal, experimental, refinement or atomic coordinate data resulting 
# from the CCDC's data processing and validation procedures.
#
#######################################################################

data_LAYHUP
_chemical_formula_moiety         'C23 H45 N3 O3'
_chemical_name_systematic        
'N-(3-((3-(Heptylcarbamoyl)propyl)carbamoyl)propyl) octanamide'
_symmetry_cell_setting           triclinic
_symmetry_space_group_name_H-M   'P 1'
_symmetry_Int_Tables_number      1
_space_group_name_Hall           'P 1'
loop_
_symmetry_equiv_pos_site_id
_symmetry_equiv_pos_as_xyz
1 x,y,z
_cell_length_a                   5.0086(3)
_cell_length_b                   5.0672(3)
_cell_length_c                   26.4429(15)
_cell_angle_alpha                84.845(4)
_cell_angle_beta                 88.899(4)
_cell_angle_gamma                64.261(3)
_cell_volume                     601.931
_exptl_crystal_colour            colorless
_exptl_crystal_description       plate
_chemical_melting_point          '167-169 deg.C'
_cell_formula_units_Z            1
_exptl_crystal_recrystallization_method 'ethyl acetate'
loop_
_atom_site_label
_atom_site_type_symbol
_atom_site_fract_x
_atom_site_fract_y
_atom_site_fract_z
C1 C 1.2126(7) 0.5421(7) 1.44344(12)
H1 H 1.1760 0.7191 1.4208
H2 H 1.2976 0.5530 1.4758
H3 H 1.0254 0.5281 1.4495
C2 C 1.4265(7) 0.2742(6) 1.41902(11)
H4 H 1.4602 0.0968 1.4420
H5 H 1.6188 0.2845 1.4151
C3 C 1.3224(6) 0.2402(6) 1.36730(10)
H6 H 1.1328 0.2245 1.3714
H7 H 1.2832 0.4201 1.3446
C4 C 1.5392(6) -0.0233(6) 1.34200(10)
H8 H 1.5831 -0.2026 1.3651
H9 H 1.7268 -0.0045 1.3370
C5 C 1.4322(6) -0.0631(6) 1.29100(10)
H10 H 1.2474 -0.0874 1.2960
H11 H 1.3848 0.1170 1.2679
C6 C 1.6586(6) -0.3266(5) 1.26611(9)
H12 H 1.7147 -0.5046 1.2902
H13 H 1.8391 -0.2966 1.2595
C7 C 1.5489(6) -0.3803(6) 1.21642(9)
H14 H 1.7012 -0.5633 1.2040
H15 H 1.3667 -0.4079 1.2227
C8 C 1.2206(5) 0.0159(5) 1.15448(9)
C9 C 1.1930(6) 0.2714(5) 1.11788(9)
H16 H 1.3805 0.2171 1.0994
H17 H 1.1632 0.4401 1.1372
C10 C 0.9380(6) 0.3658(6) 1.07959(10)
H18 H 0.9749 0.2022 1.0585
H19 H 0.7522 0.4069 1.0980
C11 C 0.8994(6) 0.6352(5) 1.04553(10)
H20 H 0.8502 0.8029 1.0663
H21 H 1.0878 0.5989 1.0283
C12 C 0.5235(5) 0.9776(5) 0.98375(9)
C13 C 0.2813(6) 1.0233(5) 0.94619(9)
H22 H 0.0998 1.0490 0.9649
H23 H 0.3426 0.8450 0.9278
C14 C 0.2098(6) 1.2874(6) 0.90799(10)
H24 H 0.1711 1.4617 0.9264
H25 H 0.3843 1.2515 0.8865
C15 C -0.0543(5) 1.3526(5) 0.87442(9)
H26 H -0.0210 1.1762 0.8570
H27 H -0.2323 1.4007 0.8955
C16 C -0.3612(5) 1.7546(5) 0.81154(9)
C17 C -0.3750(6) 2.0001(5) 0.77340(9)
H28 H -0.1762 1.9970 0.7708
H29 H -0.5133 2.1914 0.7852
C18 C -0.4787(6) 1.9707(5) 0.72094(9)
H30 H -0.6713 1.9606 0.7242
H31 H -0.5104 2.1487 0.6983
C19 C -0.2595(6) 1.7005(6) 0.69670(9)
H32 H -0.2276 1.5226 0.7194
H33 H -0.0669 1.7108 0.6934
C20 C -0.3627(6) 1.6707(6) 0.64447(10)
H34 H -0.5534 1.6568 0.6480
H35 H -0.3990 1.8509 0.6221
C21 C -0.1432(6) 1.4049(6) 0.61916(10)
H36 H 0.0484 1.4174 0.6160
H37 H -0.1089 1.2244 0.6413
C22 C -0.2446(7) 1.3783(6) 0.56705(10)
H38 H -0.2732 1.5561 0.5446
H39 H -0.4388 1.3714 0.5700
C23 C -0.0291(7) 1.1083(7) 0.54252(11)
H40 H 0.1624 1.1160 0.5385
H41 H -0.1081 1.1041 0.5091
H42 H -0.0025 0.9307 0.5641
N1 N -0.1046(4) 1.5986(4) 0.83665(8)
H43 H 0.0425 1.6465 0.8301
N2 N 0.6650(4) 0.7091(4) 1.00772(8)
H44 H 0.6143 0.5709 1.0003
N3 N 1.4859(4) -0.1382(4) 1.17762(8)
H45 H 1.6303 -0.0900 1.1688
O1 O 1.0093(3) -0.0466(3) 1.16350(7)
O2 O 0.5858(4) 1.1812(3) 0.99266(7)
O3 O -0.5773(4) 1.6985(4) 0.81869(6)
loop_
_geom_bond_atom_site_label_1
_geom_bond_atom_site_label_2
_geom_bond_site_symmetry_1
_geom_bond_site_symmetry_2
C1 H1 1_555 1_555
H2 C1 1_555 1_555
H3 C1 1_555 1_555
C2 C1 1_555 1_555
H4 C2 1_555 1_555
H5 C2 1_555 1_555
C3 C2 1_555 1_555
H6 C3 1_555 1_555
H7 C3 1_555 1_555
C4 C3 1_555 1_555
H8 C4 1_555 1_555
H9 C4 1_555 1_555
C5 C4 1_555 1_555
H10 C5 1_555 1_555
H11 C5 1_555 1_555
C6 C5 1_555 1_555
H12 C6 1_555 1_555
H13 C6 1_555 1_555
C7 C6 1_555 1_555
H14 C7 1_555 1_555
H15 C7 1_555 1_555
C8 C9 1_555 1_555
C9 H16 1_555 1_555
H17 C9 1_555 1_555
C10 C9 1_555 1_555
H18 C10 1_555 1_555
H19 C10 1_555 1_555
C11 C10 1_555 1_555
H20 C11 1_555 1_555
H21 C11 1_555 1_555
C12 C13 1_555 1_555
C13 H22 1_555 1_555
H23 C13 1_555 1_555
C14 C13 1_555 1_555
H24 C14 1_555 1_555
H25 C14 1_555 1_555
C15 C14 1_555 1_555
H26 C15 1_555 1_555
H27 C15 1_555 1_555
C16 C17 1_555 1_555
C17 H28 1_555 1_555
H29 C17 1_555 1_555
C18 C17 1_555 1_555
H30 C18 1_555 1_555
H31 C18 1_555 1_555
C19 C18 1_555 1_555
H32 C19 1_555 1_555
H33 C19 1_555 1_555
C20 C19 1_555 1_555
H34 C20 1_555 1_555
H35 C20 1_555 1_555
C21 C20 1_555 1_555
H36 C21 1_555 1_555
H37 C21 1_555 1_555
C22 C21 1_555 1_555
H38 C22 1_555 1_555
H39 C22 1_555 1_555
C23 C22 1_555 1_555
H40 C23 1_555 1_555
H41 C23 1_555 1_555
H42 C23 1_555 1_555
N1 C15 1_555 1_555
H43 N1 1_555 1_555
N2 C11 1_555 1_555
H44 N2 1_555 1_555
N3 C7 1_555 1_555
H45 N3 1_555 1_555
O1 C8 1_555 1_555
O2 C12 1_555 1_555
O3 C16 1_555 1_555
C8 N3 1_555 1_555
C12 N2 1_555 1_555
C16 N1 1_555 1_555

#END
