
#######################################################################
#
#                 Cambridge Crystallographic Data Centre
#                                CCDC 
#
#######################################################################
#
# If this CIF has been generated from an entry in the Cambridge 
# Structural Database, then it will include bibliographic, chemical, 
# crystal, experimental, refinement or atomic coordinate data resulting 
# from the CCDC's data processing and validation procedures.
#
#######################################################################

data_LAYJAX
_chemical_formula_moiety         'C20 H39 N3 O3'
_chemical_name_systematic        
'N-(3-((3-(N,N-Dimethylcarbamoyl)propyl)carbamoyl)propyl) decanamide'
_symmetry_cell_setting           triclinic
_symmetry_space_group_name_H-M   'P 1'
_symmetry_Int_Tables_number      1
_space_group_name_Hall           'P 1'
loop_
_symmetry_equiv_pos_site_id
_symmetry_equiv_pos_as_xyz
1 x,y,z
_cell_length_a                   4.8194(9)
_cell_length_b                   4.8412(10)
_cell_length_c                   24.874(5)
_cell_angle_alpha                87.396(4)
_cell_angle_beta                 84.631(4)
_cell_angle_gamma                67.893(4)
_cell_volume                     535.294
_exptl_crystal_colour            colorless
_exptl_crystal_description       plate
_chemical_melting_point          '100-101 deg.C'
_cell_formula_units_Z            1
loop_
_atom_site_label
_atom_site_type_symbol
_atom_site_fract_x
_atom_site_fract_y
_atom_site_fract_z
C1 C 1.7657(10) 0.1649(10) -0.10852(16)
H1 H 1.9164 0.0056 -0.0893
H2 H 1.8668 0.2587 -0.1351
H3 H 1.6450 0.0809 -0.1270
C2 C 1.5639(9) 0.3954(8) -0.06866(15)
H4 H 1.6823 0.5008 -0.0546
H5 H 1.4012 0.5442 -0.0880
C3 C 1.4249(8) 0.2750(7) -0.02189(13)
H6 H 1.5884 0.1263 -0.0027
H7 H 1.3082 0.1684 -0.0361
C4 C 1.2206(8) 0.5005(7) 0.01867(14)
H8 H 1.0587 0.6519 -0.0005
H9 H 1.3378 0.6038 0.0338
C5 C 1.0779(7) 0.3722(7) 0.06496(13)
H10 H 1.2401 0.2211 0.0841
H11 H 0.9615 0.2682 0.0498
C6 C 0.8717(7) 0.5966(7) 0.10585(13)
H12 H 0.9879 0.6990 0.1216
H13 H 0.7097 0.7490 0.0869
C7 C 0.7310(6) 0.4612(6) 0.15105(12)
H14 H 0.8932 0.3145 0.1708
H15 H 0.6223 0.3515 0.1351
C8 C 0.5147(6) 0.6842(6) 0.19104(12)
H16 H 0.3495 0.8300 0.1717
H17 H 0.6214 0.7946 0.2073
C9 C 0.3830(6) 0.5326(6) 0.23561(12)
H18 H 0.2911 0.4098 0.2188
H19 H 0.5487 0.3962 0.2560
C10 C 0.1494(6) 0.7435(6) 0.27486(11)
C11 C -0.2404(6) 0.7951(6) 0.34826(12)
H20 H -0.4210 0.9238 0.3305
H21 H -0.1642 0.9259 0.3667
C12 C -0.3261(6) 0.5947(6) 0.38972(12)
H22 H -0.3949 0.4589 0.3710
H23 H -0.4954 0.7189 0.4146
C13 C -0.0645(6) 0.4103(7) 0.42238(12)
H24 H 0.0980 0.2743 0.3978
H25 H 0.0155 0.5458 0.4384
C14 C -0.1507(6) 0.2275(6) 0.46720(11)
C15 C 0.0116(11) -0.0935(11) 0.54575(17)
H26 H -0.1723 0.0291 0.5677
H27 H -0.0265 -0.2626 0.5316
C16 C 0.246(3) -0.207(3) 0.5794(3)
H28 H 0.3330 -0.0563 0.5849
H29 H 0.4063 -0.3865 0.5634
C17 C 0.1042(17) -0.2905(15) 0.6356(3)
H30 H -0.0642 -0.1091 0.6489
H31 H 0.0175 -0.4394 0.6282
C18 C 0.3037(16) -0.4091(17) 0.6794(3)
C19 C -0.1313(16) -0.3235(17) 0.7445(3)
H32 H -0.1620 -0.3325 0.7839
H33 H -0.2031 -0.4632 0.7286
H34 H -0.2432 -0.1206 0.7318
C20 C 0.369(2) -0.4972(18) 0.7739(3)
H35 H 0.2421 -0.4743 0.8078
H36 H 0.4905 -0.3743 0.7748
H37 H 0.5024 -0.7068 0.7695
O1 O 0.5809(11) -0.5091(13) 0.6688(2)
N1 N -0.0098(5) 0.6213(4) 0.30724(9)
H48 H 0.0243 0.4308 0.3039
N2 N 0.0618(5) 0.0868(6) 0.50025(10)
H49 H 0.2379 0.1033 0.4944
N3 N 0.1804(6) -0.4021(6) 0.72879(11)
O3 O 0.1099(5) 1.0096(4) 0.27739(10)
O4 O -0.3980(5) 0.2058(6) 0.47219(9)
C21? C 0.150(4) -0.120(5) 0.5929(6)
H38? H 0.0163 0.0445 0.6166
H39? H 0.3360 -0.0810 0.5835
C22? C 0.237(3) -0.413(2) 0.6277(4)
H40? H 0.4535 -0.5388 0.6229
H41? H 0.1130 -0.5311 0.6226
C23? C 0.1418(18) -0.2263(17) 0.6842(3)
C24? C 0.108(2) -0.281(2) 0.7810(4)
H42? H 0.1493 -0.4427 0.8078
H43? H -0.1061 -0.1530 0.7851
H44? H 0.2288 -0.1625 0.7863
C25? C 0.2554(17) -0.7292(15) 0.7237(3)
H45? H 0.2742 -0.8228 0.7596
H46? H 0.4459 -0.8178 0.7015
H47? H 0.0954 -0.7616 0.7065
O2? O 0.0665(15) 0.0389(13) 0.6893(3)
loop_
_geom_bond_atom_site_label_1
_geom_bond_atom_site_label_2
_geom_bond_site_symmetry_1
_geom_bond_site_symmetry_2
C1 H1 1_555 1_555
H2 C1 1_555 1_555
H3 C1 1_555 1_555
C2 C1 1_555 1_555
H4 C2 1_555 1_555
H5 C2 1_555 1_555
C3 C2 1_555 1_555
H6 C3 1_555 1_555
H7 C3 1_555 1_555
C4 C3 1_555 1_555
H8 C4 1_555 1_555
H9 C4 1_555 1_555
C5 C4 1_555 1_555
H10 C5 1_555 1_555
H11 C5 1_555 1_555
C6 C5 1_555 1_555
H12 C6 1_555 1_555
H13 C6 1_555 1_555
C7 C6 1_555 1_555
H14 C7 1_555 1_555
H15 C7 1_555 1_555
C8 C7 1_555 1_555
H16 C8 1_555 1_555
H17 C8 1_555 1_555
C9 C8 1_555 1_555
H18 C9 1_555 1_555
H19 C9 1_555 1_555
C10 C9 1_555 1_555
C11 H20 1_555 1_555
H21 C11 1_555 1_555
C12 C11 1_555 1_555
H22 C12 1_555 1_555
H23 C12 1_555 1_555
C13 C12 1_555 1_555
H24 C13 1_555 1_555
H25 C13 1_555 1_555
C14 C13 1_555 1_555
C15 H26 1_555 1_555
H27 C15 1_555 1_555
C16 C15 1_555 1_555
H28 C16 1_555 1_555
H29 C16 1_555 1_555
C17 C16 1_555 1_555
H30 C17 1_555 1_555
H31 C17 1_555 1_555
C18 C17 1_555 1_555
C19 H32 1_555 1_555
H33 C19 1_555 1_555
H34 C19 1_555 1_555
C20 H35 1_555 1_555
H36 C20 1_555 1_555
H37 C20 1_555 1_555
O1 C18 1_555 1_555
N1 C10 1_555 1_555
H48 N1 1_555 1_555
N2 C14 1_555 1_555
H49 N2 1_555 1_555
N3 C18 1_555 1_555
O3 C10 1_555 1_555
O4 C14 1_555 1_555
C11 N1 1_555 1_555
C15 N2 1_555 1_555
C19 N3 1_555 1_555
C20 N3 1_555 1_555

#END
