
#######################################################################
#
#                 Cambridge Crystallographic Data Centre
#                                CCDC 
#
#######################################################################
#
# If this CIF has been generated from an entry in the Cambridge 
# Structural Database, then it will include bibliographic, chemical, 
# crystal, experimental, refinement or atomic coordinate data resulting 
# from the CCDC's data processing and validation procedures.
#
#######################################################################

data_LAYJEA
_chemical_formula_moiety         'C16 H16 N1 O2 S2 1+,Cl1 1-,H2 O1'
_chemical_name_systematic        
'2-Methyl-5-phenyl-3-(2,6-dioxocyclohexylthio)isothiazolium chloride monohydrate'
_symmetry_cell_setting           orthorhombic
_symmetry_space_group_name_H-M   'P b c a'
_symmetry_Int_Tables_number      61
_space_group_name_Hall           '-P 2ac 2ab'
loop_
_symmetry_equiv_pos_site_id
_symmetry_equiv_pos_as_xyz
1 x,y,z
2 1/2-x,-y,1/2+z
3 1/2+x,1/2-y,-z
4 -x,1/2+y,1/2-z
5 -x,-y,-z
6 1/2+x,y,1/2-z
7 1/2-x,1/2+y,z
8 x,1/2-y,1/2+z
_cell_length_a                   7.7073(7)
_cell_length_b                   18.154(2)
_cell_length_c                   23.999(2)
_cell_angle_alpha                90
_cell_angle_beta                 90
_cell_angle_gamma                90
_cell_volume                     3357.9
_exptl_crystal_colour            colorless
_chemical_melting_point          171-171.5deg.C
_cell_formula_units_Z            8
loop_
_atom_site_label
_atom_site_type_symbol
_atom_site_fract_x
_atom_site_fract_y
_atom_site_fract_z
Cl1 Cl 0.1848(1) 0.71824(4) 0.40420(3)
S1 S 0.01827(9) 0.47109(3) 0.24264(2)
S2 S 0.0041(1) 0.48427(4) 0.41560(3)
O1 O 0.3918(3) 0.4761(1) 0.40123(8)
O2 O -0.0733(3) 0.3692(1) 0.49680(8)
N1 N -0.0241(3) 0.5024(1) 0.30688(8)
C1 C 0.1186(3) 0.3944(1) 0.2691(1)
C2 C 0.1178(3) 0.3956(1) 0.3259(1)
C3 C 0.0356(3) 0.4584(1) 0.3471(1)
C4 C 0.1538(4) 0.4278(1) 0.4509(1)
C5 C 0.3377(4) 0.4366(1) 0.4391(1)
C6 C 0.4620(4) 0.3911(2) 0.4729(1)
C7 C 0.3931(4) 0.3734(2) 0.5305(1)
C8 C 0.2164(4) 0.3374(2) 0.5266(1)
C9 C 0.0945(4) 0.3794(1) 0.4903(1)
C10 C -0.1116(4) 0.5741(1) 0.3151(1)
C11 C 0.1949(3) 0.3399(1) 0.2311(1)
C12 C 0.1827(4) 0.3491(2) 0.1735(1)
C13 C 0.2632(4) 0.2988(2) 0.1384(1)
C14 C 0.3517(4) 0.2395(2) 0.1603(1)
C15 C 0.3593(4) 0.2293(1) 0.2174(1)
C16 C 0.2819(4) 0.2789(1) 0.2528(1)
O3 O 0.1628(3) 0.0945(1) 0.32417(8)
loop_
_geom_bond_atom_site_label_1
_geom_bond_atom_site_label_2
_geom_bond_site_symmetry_1
_geom_bond_site_symmetry_2
S1 N1 1_555 1_555
S2 C3 1_555 1_555
O1 C5 1_555 1_555
O2 C9 1_555 1_555
N1 C3 1_555 1_555
C1 S1 1_555 1_555
C2 C1 1_555 1_555
C3 C2 1_555 1_555
C4 S2 1_555 1_555
C5 C4 1_555 1_555
C6 C5 1_555 1_555
C7 C6 1_555 1_555
C8 C7 1_555 1_555
C9 C4 1_555 1_555
C10 N1 1_555 1_555
C11 C1 1_555 1_555
C12 C11 1_555 1_555
C13 C12 1_555 1_555
C14 C13 1_555 1_555
C15 C14 1_555 1_555
C16 C11 1_555 1_555
C8 C9 1_555 1_555
C15 C16 1_555 1_555

#END
