
#######################################################################
#
#                 Cambridge Crystallographic Data Centre
#                                CCDC 
#
#######################################################################
#
# If this CIF has been generated from an entry in the Cambridge 
# Structural Database, then it will include bibliographic, chemical, 
# crystal, experimental, refinement or atomic coordinate data resulting 
# from the CCDC's data processing and validation procedures.
#
#######################################################################

data_LAYPIN
_chemical_formula_moiety         'C23 H27 N1 O5 S2'
_chemical_name_systematic        
N-butyl-N-{4-methyl-3-phenyl-5-[(phenylsulfonyl)methyl]furan-2-yl}methanesulfonamide
_symmetry_cell_setting           monoclinic
_symmetry_space_group_name_H-M   'P 21/c'
_symmetry_Int_Tables_number      14
_space_group_name_Hall           '-P 2ybc'
loop_
_symmetry_equiv_pos_site_id
_symmetry_equiv_pos_as_xyz
1 x,y,z
2 -x,1/2+y,1/2-z
3 -x,-y,-z
4 x,1/2-y,1/2+z
_cell_length_a                   11.6931(6)
_cell_length_b                   12.6204(6)
_cell_length_c                   16.4696(8)
_cell_angle_alpha                90
_cell_angle_beta                 104.241(3)
_cell_angle_gamma                90
_cell_volume                     2355.76
_exptl_crystal_colour            yellow
_exptl_crystal_description       prism
_cell_formula_units_Z            4
loop_
_atom_site_label
_atom_site_type_symbol
_atom_site_fract_x
_atom_site_fract_y
_atom_site_fract_z
S1 S -0.00514(5) 0.79980(5) 0.22893(3)
S2 S -0.26864(5) 1.21329(4) 0.00664(4)
O1 O -0.12744(12) 0.98347(10) 0.10486(8)
O2 O -0.23934(18) 1.32356(13) 0.01911(13)
O3 O -0.34371(15) 1.17826(15) -0.07127(10)
O4 O -0.01268(16) 0.71169(14) 0.28175(10)
O5 O 0.07728(13) 0.79716(13) 0.17781(10)
N1 N -0.13646(14) 0.81439(13) 0.16487(10)
C1 C -0.4251(3) 0.5811(3) 0.0879(2)
H1 H -0.4095 0.5063 0.0919
H2 H -0.4313 0.6042 0.0315
H3 H -0.4977 0.5955 0.1031
C2 C -0.3251(3) 0.6397(2) 0.14675(18)
H4 H -0.3155 0.6116 0.2029
H5 H -0.2526 0.6262 0.1299
C3 C -0.3438(2) 0.7576(2) 0.14883(15)
H6 H -0.4130 0.7711 0.1699
H7 H -0.3599 0.7846 0.0920
C4 C -0.24080(19) 0.8177(2) 0.20199(14)
H8 H -0.2636 0.8908 0.2070
H9 H -0.2195 0.7871 0.2577
C5 C 0.0202(2) 0.9142(2) 0.29191(15)
H10 H 0.0927 0.9064 0.3341
H11 H -0.0437 0.9238 0.3183
H12 H 0.0255 0.9748 0.2577
C6 C -0.1258(2) 0.65855(17) -0.00008(15)
H13 H -0.0546 0.6681 0.0394
C7 C -0.1575(2) 0.55874(18) -0.03251(17)
H14 H -0.1077 0.5016 -0.0141
C8 C -0.2613(2) 0.54306(18) -0.09147(16)
H15 H -0.2817 0.4756 -0.1130
C9 C -0.3352(2) 0.62721(19) -0.11860(15)
H16 H -0.4057 0.6169 -0.1587
C10 C -0.3046(2) 0.72765(17) -0.08614(13)
H17 H -0.3550 0.7844 -0.1048
C11 C -0.19958(18) 0.74467(15) -0.02617(12)
C12 C -0.17155(17) 0.85108(15) 0.01052(12)
C13 C -0.17229(17) 0.95031(15) -0.03358(11)
C14 C -0.14368(17) 0.87633(15) 0.09294(12)
C15 C -0.14453(17) 1.02632(15) 0.02562(11)
C16 C -0.1953(2) 0.96510(17) -0.12633(12)
H18 H -0.1711 1.0349 -0.1381
H19 H -0.2781 0.9565 -0.1513
H20 H -0.1516 0.9134 -0.1490
C17 C -0.13155(18) 1.14292(15) 0.02251(13)
H21 H -0.0948 1.1606 -0.0225
H22 H -0.0792 1.1666 0.0746
C18 C -0.33341(19) 1.17164(18) 0.08792(14)
C19 C -0.3971(2) 1.0782(2) 0.07869(17)
H23 H -0.4050 1.0376 0.0305
C20 C -0.4489(3) 1.0455(3) 0.1411(2)
H24 H -0.4930 0.9833 0.1345
C21 C -0.4356(3) 1.1034(3) 0.2117(2)
H25 H -0.4705 1.0803 0.2535
C22 C -0.3722(3) 1.1952(3) 0.22302(18)
H26 H -0.3636 1.2339 0.2722
C23 C -0.3199(2) 1.2309(3) 0.15949(18)
H27 H -0.2768 1.2937 0.1660
loop_
_geom_bond_atom_site_label_1
_geom_bond_atom_site_label_2
_geom_bond_site_symmetry_1
_geom_bond_site_symmetry_2
S1 O4 1_555 1_555
S2 O2 1_555 1_555
O1 C14 1_555 1_555
O3 S2 1_555 1_555
O5 S1 1_555 1_555
N1 S1 1_555 1_555
C1 H1 1_555 1_555
H2 C1 1_555 1_555
H3 C1 1_555 1_555
C2 C1 1_555 1_555
H4 C2 1_555 1_555
H5 C2 1_555 1_555
C3 C2 1_555 1_555
H6 C3 1_555 1_555
H7 C3 1_555 1_555
C4 N1 1_555 1_555
H8 C4 1_555 1_555
H9 C4 1_555 1_555
C5 S1 1_555 1_555
H10 C5 1_555 1_555
H11 C5 1_555 1_555
H12 C5 1_555 1_555
C6 H13 1_555 1_555
C7 C6 1_555 1_555
H14 C7 1_555 1_555
C8 C7 1_555 1_555
H15 C8 1_555 1_555
C9 C8 1_555 1_555
H16 C9 1_555 1_555
C10 C9 1_555 1_555
H17 C10 1_555 1_555
C11 C6 1_555 1_555
C12 C11 1_555 1_555
C13 C12 1_555 1_555
C14 N1 1_555 1_555
C15 O1 1_555 1_555
C16 C13 1_555 1_555
H18 C16 1_555 1_555
H19 C16 1_555 1_555
H20 C16 1_555 1_555
C17 S2 1_555 1_555
H21 C17 1_555 1_555
H22 C17 1_555 1_555
C18 S2 1_555 1_555
C19 C18 1_555 1_555
H23 C19 1_555 1_555
C20 C19 1_555 1_555
H24 C20 1_555 1_555
C21 C20 1_555 1_555
H25 C21 1_555 1_555
C22 C21 1_555 1_555
H26 C22 1_555 1_555
C23 C18 1_555 1_555
H27 C23 1_555 1_555
C3 C4 1_555 1_555
C10 C11 1_555 1_555
C12 C14 1_555 1_555
C13 C15 1_555 1_555
C15 C17 1_555 1_555
C22 C23 1_555 1_555

#END
