
#######################################################################
#
#                 Cambridge Crystallographic Data Centre
#                                CCDC 
#
#######################################################################
#
# If this CIF has been generated from an entry in the Cambridge 
# Structural Database, then it will include bibliographic, chemical, 
# crystal, experimental, refinement or atomic coordinate data resulting 
# from the CCDC's data processing and validation procedures.
#
#######################################################################

data_LAYREL
_chemical_formula_moiety         'C56 H84 O4 S2'
_chemical_name_systematic        
23,24,25,26-tetrakis(octyloxy)-6,17-dithiapentacyclo[17.3.1.1^4,22^.1^8,12^.1^11,15^]hexacosa-1(22),2,4(24),8(26),9,11,13,15(25),19(23),20-decaene
_symmetry_cell_setting           triclinic
_symmetry_space_group_name_H-M   'P -1'
_symmetry_Int_Tables_number      2
_space_group_name_Hall           '-P 1'
loop_
_symmetry_equiv_pos_site_id
_symmetry_equiv_pos_as_xyz
1 x,y,z
2 -x,-y,-z
_cell_length_a                   9.0700(7)
_cell_length_b                   10.9601(8)
_cell_length_c                   14.8069(15)
_cell_angle_alpha                71.061(3)
_cell_angle_beta                 80.739(5)
_cell_angle_gamma                68.016(3)
_cell_volume                     1289.71
_exptl_crystal_colour            colorless
_exptl_crystal_description       prism
_cell_formula_units_Z            1
loop_
_atom_site_label
_atom_site_type_symbol
_atom_site_fract_x
_atom_site_fract_y
_atom_site_fract_z
C1 C 0.2616(3) 0.9089(3) 0.05067(18)
H1 H 0.2200 1.0062 0.0119
H2 H 0.3292 0.9032 0.0992
C2 C 0.1905(3) 0.6848(2) 0.18822(17)
H3 H 0.2769 0.6868 0.2203
H4 H 0.1117 0.6604 0.2386
C3 C 0.2607(3) 0.5711(2) 0.13922(16)
C4 C 0.3918(3) 0.4595(3) 0.17426(16)
C5 C 0.4707(3) 0.3567(2) 0.12569(16)
C6 C 0.4088(3) 0.3743(2) 0.03785(16)
C7 C 0.2691(3) 0.4860(2) 0.00526(17)
H5 H 0.2242 0.4955 -0.0514
C8 C 0.1977(3) 0.5812(3) 0.05474(17)
H6 H 0.1036 0.6557 0.0317
C9 C 0.4063(3) 0.3642(3) 0.34252(17)
H7 H 0.4040 0.2803 0.3319
H8 H 0.2976 0.4165 0.3624
C10 C 0.5205(3) 0.3259(3) 0.41882(18)
H9 H 0.5073 0.4093 0.4364
H10 H 0.6307 0.2922 0.3924
C11 C 0.4975(3) 0.2167(3) 0.50826(17)
H11 H 0.4948 0.1385 0.4897
H12 H 0.3934 0.2552 0.5401
C12 C 0.6273(3) 0.1641(3) 0.57866(18)
H13 H 0.6177 0.2391 0.6050
H14 H 0.7318 0.1412 0.5436
C13 C 0.6247(3) 0.0386(3) 0.66142(17)
H15 H 0.6137 -0.0306 0.6360
H16 H 0.5305 0.0658 0.7043
C14 C 0.7740(3) -0.0267(3) 0.71919(18)
H17 H 0.8681 -0.0513 0.6756
H18 H 0.7834 0.0422 0.7455
C15 C 0.7770(3) -0.1533(3) 0.80032(18)
H19 H 0.7585 -0.2194 0.7751
H20 H 0.6887 -0.1274 0.8471
C16 C 0.9327(3) -0.2235(3) 0.85150(19)
H21 H 0.9274 -0.3050 0.9030
H22 H 0.9503 -0.1597 0.8785
H23 H 1.0206 -0.2510 0.8060
C17 C 0.6111(3) 0.2447(2) 0.15787(17)
H24 H 0.6504 0.2298 0.2176
C18 C 0.6905(3) 0.1576(3) 0.10381(17)
H25 H 0.7843 0.0828 0.1269
C19 C 0.6362(3) 0.1763(2) 0.01377(18)
C20 C 0.4962(3) 0.2802(2) -0.01609(16)
C21 C 0.3322(3) 0.2430(3) -0.10767(19)
H26 H 0.2395 0.2692 -0.0636
H27 H 0.3830 0.1417 -0.0875
C22 C 0.2795(3) 0.2926(3) -0.20942(19)
H28 H 0.2132 0.2409 -0.2142
H29 H 0.3749 0.2709 -0.2525
C23 C 0.1853(3) 0.4457(3) -0.24408(19)
H30 H 0.2491 0.4977 -0.2367
H31 H 0.0867 0.4670 -0.2034
C24 C 0.1412(3) 0.4933(3) -0.34830(19)
H32 H 0.2402 0.4740 -0.3890
H33 H 0.0804 0.4389 -0.3558
C25 C 0.0432(3) 0.6450(3) -0.38368(18)
H34 H 0.1027 0.6991 -0.3743
H35 H -0.0571 0.6636 -0.3440
C26 C 0.0021(3) 0.6948(3) -0.48835(19)
H36 H 0.1022 0.6747 -0.5280
H37 H -0.0594 0.6422 -0.4976
C27 C -0.0930(3) 0.8470(3) -0.52358(19)
H38 H -0.0320 0.8995 -0.5135
H39 H -0.1936 0.8668 -0.4844
C28 C -0.1328(4) 0.8980(3) -0.6290(2)
H40 H -0.1953 0.9965 -0.6459
H41 H -0.1946 0.8477 -0.6397
H42 H -0.0340 0.8826 -0.6688
O1 O 0.45970(19) 0.44695(17) 0.25615(11)
O2 O 0.44443(19) 0.30700(17) -0.10610(11)
S1 S 0.09432(8) 0.85664(7) 0.11175(5)
C1A C 0.7384(3) 0.0911(3) -0.05067(18)
H1A H 0.7800 -0.0062 -0.0119
H2A H 0.6708 0.0968 -0.0992
C2A C 0.8095(3) 0.3152(2) -0.18822(17)
H3A H 0.7231 0.3132 -0.2203
H4A H 0.8883 0.3396 -0.2386
C3A C 0.7393(3) 0.4289(2) -0.13922(16)
C4A C 0.6082(3) 0.5405(3) -0.17426(16)
C5A C 0.5293(3) 0.6433(2) -0.12569(16)
C6A C 0.5912(3) 0.6257(2) -0.03785(16)
C7A C 0.7309(3) 0.5140(2) -0.00526(17)
H5A H 0.7758 0.5045 0.0514
C8A C 0.8023(3) 0.4188(3) -0.05474(17)
H6A H 0.8964 0.3443 -0.0317
C9A C 0.5937(3) 0.6358(3) -0.34252(17)
H7A H 0.5960 0.7197 -0.3319
H8A H 0.7024 0.5835 -0.3624
C10A C 0.4795(3) 0.6741(3) -0.41882(18)
H9A H 0.4927 0.5907 -0.4364
H10A H 0.3693 0.7078 -0.3924
C11A C 0.5025(3) 0.7833(3) -0.50826(17)
H11A H 0.5052 0.8615 -0.4897
H12A H 0.6066 0.7448 -0.5401
C12A C 0.3727(3) 0.8359(3) -0.57866(18)
H13A H 0.3823 0.7609 -0.6050
H14A H 0.2682 0.8588 -0.5436
C13A C 0.3753(3) 0.9614(3) -0.66142(17)
H15A H 0.3863 1.0306 -0.6360
H16A H 0.4695 0.9342 -0.7043
C14A C 0.2260(3) 1.0267(3) -0.71919(18)
H17A H 0.1319 1.0513 -0.6756
H18A H 0.2166 0.9578 -0.7455
C15A C 0.2230(3) 1.1533(3) -0.80032(18)
H19A H 0.2415 1.2194 -0.7751
H20A H 0.3113 1.1274 -0.8471
C16A C 0.0673(3) 1.2235(3) -0.85150(19)
H21A H 0.0726 1.3050 -0.9030
H22A H 0.0497 1.1597 -0.8785
H23A H -0.0206 1.2510 -0.8060
C17A C 0.3889(3) 0.7553(2) -0.15787(17)
H24A H 0.3496 0.7702 -0.2176
C18A C 0.3095(3) 0.8424(3) -0.10381(17)
H25A H 0.2157 0.9172 -0.1269
C19A C 0.3638(3) 0.8237(2) -0.01377(18)
C20A C 0.5038(3) 0.7198(2) 0.01609(16)
C21A C 0.6678(3) 0.7570(3) 0.10767(19)
H26A H 0.7605 0.7308 0.0636
H27A H 0.6170 0.8583 0.0875
C22A C 0.7205(3) 0.7074(3) 0.20942(19)
H28A H 0.7868 0.7591 0.2142
H29A H 0.6251 0.7291 0.2525
C23A C 0.8147(3) 0.5543(3) 0.24408(19)
H30A H 0.7509 0.5023 0.2367
H31A H 0.9133 0.5330 0.2034
C24A C 0.8588(3) 0.5067(3) 0.34830(19)
H32A H 0.7598 0.5260 0.3890
H33A H 0.9196 0.5611 0.3558
C25A C 0.9568(3) 0.3550(3) 0.38368(18)
H34A H 0.8973 0.3009 0.3743
H35A H 1.0571 0.3364 0.3440
C26A C 0.9979(3) 0.3052(3) 0.48835(19)
H36A H 0.8978 0.3253 0.5280
H37A H 1.0594 0.3578 0.4976
C27A C 1.0930(3) 0.1530(3) 0.52358(19)
H38A H 1.0320 0.1005 0.5135
H39A H 1.1936 0.1332 0.4844
C28A C 1.1328(4) 0.1020(3) 0.6290(2)
H40A H 1.1953 0.0035 0.6459
H41A H 1.1946 0.1523 0.6397
H42A H 1.0340 0.1174 0.6688
O1A O 0.54030(19) 0.55305(17) -0.25615(11)
O2A O 0.55557(19) 0.69300(17) 0.10610(11)
S1A S 0.90568(8) 0.14336(7) -0.11175(5)
loop_
_geom_bond_atom_site_label_1
_geom_bond_atom_site_label_2
_geom_bond_site_symmetry_1
_geom_bond_site_symmetry_2
C1 H1 1_555 1_555
H2 C1 1_555 1_555
C2 H3 1_555 1_555
H4 C2 1_555 1_555
C3 C2 1_555 1_555
C4 C3 1_555 1_555
C5 C4 1_555 1_555
C6 C5 1_555 1_555
C7 C6 1_555 1_555
H5 C7 1_555 1_555
C8 C3 1_555 1_555
H6 C8 1_555 1_555
C9 H7 1_555 1_555
H8 C9 1_555 1_555
C10 C9 1_555 1_555
H9 C10 1_555 1_555
H10 C10 1_555 1_555
C11 C10 1_555 1_555
H11 C11 1_555 1_555
H12 C11 1_555 1_555
C12 C11 1_555 1_555
H13 C12 1_555 1_555
H14 C12 1_555 1_555
C13 C12 1_555 1_555
H15 C13 1_555 1_555
H16 C13 1_555 1_555
C14 C13 1_555 1_555
H17 C14 1_555 1_555
H18 C14 1_555 1_555
C15 C14 1_555 1_555
H19 C15 1_555 1_555
H20 C15 1_555 1_555
C16 C15 1_555 1_555
H21 C16 1_555 1_555
H22 C16 1_555 1_555
H23 C16 1_555 1_555
C17 C5 1_555 1_555
H24 C17 1_555 1_555
C18 C17 1_555 1_555
H25 C18 1_555 1_555
C19 C18 1_555 1_555
C20 C6 1_555 1_555
C21 H26 1_555 1_555
H27 C21 1_555 1_555
C22 C21 1_555 1_555
H28 C22 1_555 1_555
H29 C22 1_555 1_555
C23 C22 1_555 1_555
H30 C23 1_555 1_555
H31 C23 1_555 1_555
C24 C23 1_555 1_555
H32 C24 1_555 1_555
H33 C24 1_555 1_555
C25 C24 1_555 1_555
H34 C25 1_555 1_555
H35 C25 1_555 1_555
C26 C25 1_555 1_555
H36 C26 1_555 1_555
H37 C26 1_555 1_555
C27 C26 1_555 1_555
H38 C27 1_555 1_555
H39 C27 1_555 1_555
C28 C27 1_555 1_555
H40 C28 1_555 1_555
H41 C28 1_555 1_555
H42 C28 1_555 1_555
O1 C4 1_555 1_555
O2 C20 1_555 1_555
S1 C1 1_555 1_555
C1A C19 1_555 1_555
H1A C1A 1_555 1_555
H2A C1A 1_555 1_555
C2A H3A 1_555 1_555
H4A C2A 1_555 1_555
C3A C2A 1_555 1_555
C4A C3A 1_555 1_555
C5A C4A 1_555 1_555
C6A C5A 1_555 1_555
C7A C6A 1_555 1_555
H5A C7A 1_555 1_555
C8A C3A 1_555 1_555
H6A C8A 1_555 1_555
C9A H7A 1_555 1_555
H8A C9A 1_555 1_555
C10A C9A 1_555 1_555
H9A C10A 1_555 1_555
H10A C10A 1_555 1_555
C11A C10A 1_555 1_555
H11A C11A 1_555 1_555
H12A C11A 1_555 1_555
C12A C11A 1_555 1_555
H13A C12A 1_555 1_555
H14A C12A 1_555 1_555
C13A C12A 1_555 1_555
H15A C13A 1_555 1_555
H16A C13A 1_555 1_555
C14A C13A 1_555 1_555
H17A C14A 1_555 1_555
H18A C14A 1_555 1_555
C15A C14A 1_555 1_555
H19A C15A 1_555 1_555
H20A C15A 1_555 1_555
C16A C15A 1_555 1_555
H21A C16A 1_555 1_555
H22A C16A 1_555 1_555
H23A C16A 1_555 1_555
C17A C5A 1_555 1_555
H24A C17A 1_555 1_555
C18A C17A 1_555 1_555
H25A C18A 1_555 1_555
C19A C1 1_555 1_555
C20A C6A 1_555 1_555
C21A H26A 1_555 1_555
H27A C21A 1_555 1_555
C22A C21A 1_555 1_555
H28A C22A 1_555 1_555
H29A C22A 1_555 1_555
C23A C22A 1_555 1_555
H30A C23A 1_555 1_555
H31A C23A 1_555 1_555
C24A C23A 1_555 1_555
H32A C24A 1_555 1_555
H33A C24A 1_555 1_555
C25A C24A 1_555 1_555
H34A C25A 1_555 1_555
H35A C25A 1_555 1_555
C26A C25A 1_555 1_555
H36A C26A 1_555 1_555
H37A C26A 1_555 1_555
C27A C26A 1_555 1_555
H38A C27A 1_555 1_555
H39A C27A 1_555 1_555
C28A C27A 1_555 1_555
H40A C28A 1_555 1_555
H41A C28A 1_555 1_555
H42A C28A 1_555 1_555
O1A C4A 1_555 1_555
O2A C20A 1_555 1_555
S1A C1A 1_555 1_555
C2 S1 1_555 1_555
C7 C8 1_555 1_555
C9 O1 1_555 1_555
C19 C20 1_555 1_555
C21 O2 1_555 1_555
C2A S1A 1_555 1_555
C7A C8A 1_555 1_555
C9A O1A 1_555 1_555
C18A C19A 1_555 1_555
C19A C20A 1_555 1_555
C21A O2A 1_555 1_555

#END
