
#######################################################################
#
#                 Cambridge Crystallographic Data Centre
#                                CCDC 
#
#######################################################################
#
# If this CIF has been generated from an entry in the Cambridge 
# Structural Database, then it will include bibliographic, chemical, 
# crystal, experimental, refinement or atomic coordinate data resulting 
# from the CCDC's data processing and validation procedures.
#
#######################################################################

data_LAYVUF
_chemical_name_common            
"2,8,14,20-tetra-n-hexyl-5,11,17,23-tetrakis(iodoethynyl)-4,24:6,10:12,16:18,22-O,O'- tetraethylenecalix[4]resorcinarene acetone solvate"
_chemical_formula_moiety         'C68 H76 I4 O8,3.5(C3 H6 O1)'
_chemical_name_systematic        
"1,25,27,29-tetrahexyl-8,13,18,32-tetrakis(iodoethynyl)-5,6,10,11,15,16,20,21-octahydro-1H,25H,27H,29H-23,3:24,2-bis(metheno)[1,4]benzodioxonino[10',9':5,6][1,4]benzodioxonino[10,9-e][1,4]dioxonino[6,5-j][1,4]benzodioxonine acetone solvate"
_symmetry_cell_setting           triclinic
_symmetry_space_group_name_H-M   'P -1'
_symmetry_Int_Tables_number      2
_space_group_name_Hall           '-P 1'
loop_
_symmetry_equiv_pos_site_id
_symmetry_equiv_pos_as_xyz
1 x,y,z
2 -x,-y,-z
_cell_length_a                   16.4002(10)
_cell_length_b                   17.5718(8)
_cell_length_c                   19.1603(10)
_cell_angle_alpha                114.995(5)
_cell_angle_beta                 91.376(6)
_cell_angle_gamma                116.803(6)
_cell_volume                     4306.88
_exptl_crystal_colour            colorless
_exptl_crystal_description       block
_cell_formula_units_Z            2
loop_
_atom_site_label
_atom_site_type_symbol
_atom_site_fract_x
_atom_site_fract_y
_atom_site_fract_z
I1 I 0.34946(12) 0.50244(12) 0.99263(16)
I2 I 0.78206(12) 0.37415(15) 1.25799(14)
I3 I 1.14190(11) 0.14500(16) 0.88033(18)
I4 I 0.9088(4) 0.5214(3) 0.6956(4)
O1 O 0.3432(10) 0.1922(12) 0.9487(11)
O2 O 0.4724(8) 0.1646(9) 1.0252(8)
O3 O 0.6996(8) 0.0619(9) 0.9942(8)
O4 O 0.7962(8) -0.0140(9) 0.8840(7)
O5 O 0.8479(10) 0.0549(11) 0.6670(8)
O6 O 0.7856(10) 0.1703(12) 0.6368(11)
O7 O 0.5587(10) 0.2760(11) 0.6709(9)
O8 O 0.3987(10) 0.2620(11) 0.7322(9)
C1 C 0.3920(13) 0.2056(13) 0.7685(12)
C2 C -0.032(4) -0.162(4) 0.823(3)
H1 H 0.0049 -0.0938 0.8634
H2 H -0.0378 -0.2027 0.8465
C3 C 0.3808(13) 0.2346(12) 0.8467(11)
C4 C 0.3652(12) 0.1741(12) 0.8813(10)
C5 C 0.3703(11) 0.0880(12) 0.8376(10)
C6 C 0.3862(12) 0.0664(12) 0.7635(11)
H3 H 0.3889 0.0098 0.7366
C7 C 0.3991(14) 0.1220(14) 0.7228(13)
C8 C 0.3717(15) 0.3191(14) 0.8889(13)
C9 C 0.3634(14) 0.3877(14) 0.9248(12)
C10 C 0.4189(18) 0.2691(17) 1.0190(18)
H4 H 0.3954 0.2721 1.0656
H5 H 0.4386 0.3306 1.0200
C11 C 0.5051(13) 0.2571(12) 1.0248(11)
H6 H 0.5309 0.2556 0.9795
H7 H 0.5541 0.3109 1.0734
C12 C 0.3525(12) 0.0193(12) 0.8716(11)
H8 H 0.3291 0.0413 0.9185
C13 C 0.2763(11) -0.0856(14) 0.8134(13)
H9 H 0.2953 -0.1083 0.7646
H10 H 0.2704 -0.1268 0.8365
C14 C 0.1809(12) -0.0948(17) 0.7936(16)
H11 H 0.1717 -0.0551 0.8427
H12 H 0.1835 -0.0675 0.7585
C15 C 0.095(2) -0.197(2) 0.755(3)
H13 H 0.0931 -0.2287 0.7858
H14 H 0.0965 -0.2358 0.7012
C16 C 0.009(3) -0.184(4) 0.751(3)
H15 H 0.0253 -0.1324 0.7385
H16 H -0.0415 -0.2436 0.7068
C17 C -0.128(4) -0.188(4) 0.781(4)
H17 H -0.1770 -0.2273 0.7980
H18 H -0.1392 -0.2240 0.7243
H19 H -0.1294 -0.1294 0.7946
C18 C 0.5046(11) 0.1065(11) 0.9792(10)
C19 C 0.5928(11) 0.1213(11) 1.0100(10)
C20 C 0.6184(13) 0.0544(13) 0.9610(12)
C21 C 0.5636(11) -0.0221(11) 0.8856(10)
C22 C 0.4806(11) -0.0285(11) 0.8582(10)
H20 H 0.4448 -0.0766 0.8062
C23 C 0.4476(10) 0.0299(10) 0.9015(9)
C24 C 0.6532(12) 0.2015(12) 1.0863(10)
C25 C 0.7058(14) 0.2725(14) 1.1513(13)
C26 C 0.7870(12) 0.1288(15) 0.9863(15)
H21 H 0.8220 0.1888 1.0367
H22 H 0.7735 0.1446 0.9462
C27 C 0.8453(13) 0.0784(14) 0.9612(11)
H23 H 0.9050 0.1226 0.9570
H24 H 0.8593 0.0646 1.0025
C28 C 0.5981(12) -0.0899(13) 0.8359(12)
H25 H 0.6345 -0.0941 0.8741
C29 C 0.5188(13) -0.1943(12) 0.7793(11)
H26 H 0.4756 -0.2175 0.8089
H27 H 0.4835 -0.1944 0.7379
C30 C 0.5547(19) -0.2642(16) 0.7405(18)
H28 H 0.5697 -0.2615 0.6926
H29 H 0.6135 -0.2400 0.7767
C31 C 0.490(3) -0.3706(19) 0.717(3)
H30 H 0.4377 -0.4012 0.6719
H31 H 0.4645 -0.3752 0.7615
C32 C 0.547(3) -0.423(4) 0.697(3)
H32 H 0.4974 -0.4905 0.6747
H33 H 0.5651 -0.4165 0.6507
C33 C 0.630(3) -0.419(4) 0.737(3)
H34 H 0.6163 -0.4397 0.7767
H35 H 0.6870 -0.3553 0.7599
C34 C 0.638(4) -0.494(4) 0.663(3)
H36 H 0.6398 -0.4773 0.6210
H37 H 0.5839 -0.5578 0.6451
H38 H 0.6947 -0.4942 0.6757
C35 C 0.7625(12) -0.0095(11) 0.8209(10)
C36 C 0.8259(14) 0.0295(14) 0.7816(12)
C37 C 0.7903(13) 0.0275(12) 0.7117(10)
C38 C 0.6938(14) -0.0110(14) 0.6857(12)
C39 C 0.6347(13) -0.0460(12) 0.7285(11)
H39 H 0.5703 -0.0702 0.7112
C40 C 0.6658(11) -0.0470(12) 0.7948(10)
C41 C 0.9250(15) 0.0664(15) 0.8067(15)
C42 C 1.0054(17) 0.0960(19) 0.8343(18)
C43 C 0.9067(16) 0.1588(18) 0.6977(16)
H40 H 0.9429 0.1707 0.6604
H41 H 0.9511 0.1871 0.7480
C44 C 0.8473(17) 0.2086(17) 0.7108(16)
H42 H 0.8108 0.1970 0.7480
H43 H 0.8887 0.2784 0.7332
C45 C 0.6531(15) -0.0189(14) 0.6060(11)
H44 H 0.7035 -0.0056 0.5787
C46 C 0.5705(19) -0.1219(16) 0.5509(16)
H45 H 0.5156 -0.1292 0.5717
H46 H 0.5560 -0.1276 0.4990
C47 C 0.583(2) -0.207(2) 0.539(2)
H47 H 0.5994 -0.2027 0.5897
H48 H 0.5249 -0.2682 0.5057
C48 C 0.662(2) -0.200(2) 0.498(2)
H49 H 0.7221 -0.1460 0.5364
H50 H 0.6530 -0.1864 0.4555
C49 C 0.669(4) -0.292(3) 0.463(3)
H51 H 0.6142 -0.3423 0.4174
H52 H 0.7244 -0.2787 0.4424
C50 C 0.674(5) -0.337(4) 0.515(3)
H53 H 0.6130 -0.3643 0.5252
H54 H 0.7196 -0.2841 0.5654
C51 C 0.701(5) -0.415(5) 0.484(4)
H55 H 0.6490 -0.4755 0.4767
H56 H 0.7554 -0.3957 0.5223
H57 H 0.7163 -0.4244 0.4341
C52 C 0.6966(14) 0.1530(14) 0.6418(13)
C53 C 0.6695(13) 0.2190(15) 0.6450(18)
C54 C 0.5829(13) 0.2068(14) 0.6608(12)
C55 C 0.5084(13) 0.1104(13) 0.6408(11)
C56 C 0.5367(15) 0.0406(15) 0.6255(16)
H58 H 0.4903 -0.0216 0.6145
C57 C 0.6264(14) 0.0577(14) 0.6258(12)
C58 C 0.7406(14) 0.3143(13) 0.6595(15)
C59 C 0.803(2) 0.395(2) 0.682(3)
C60 C 0.5701(14) 0.3324(15) 0.7486(12)
H59 H 0.6295 0.3938 0.7698
H60 H 0.5717 0.3000 0.7785
C61 C 0.4867(17) 0.3508(17) 0.7566(16)
H61 H 0.4973 0.3968 0.8117
H62 H 0.4834 0.3796 0.7239
C62 C 0.4080(14) 0.0905(14) 0.6420(12)
H63 H 0.3991 0.1319 0.6245
C63 C 0.3336(14) -0.0147(17) 0.5823(14)
H64 H 0.3465 -0.0252 0.5309
H65 H 0.3481 -0.0550 0.5962
C64 C 0.2269(16) -0.059(2) 0.567(2)
H66 H 0.1960 -0.1209 0.5178
H67 H 0.2073 -0.0722 0.6102
C65 C 0.196(2) 0.007(3) 0.561(3)
H68 H 0.2184 0.0239 0.5207
H69 H 0.2226 0.0673 0.6120
C66 C 0.088(2) -0.043(3) 0.541(2)
H70 H 0.0684 -0.0047 0.5278
H71 H 0.0611 -0.1065 0.4939
C67 C 0.049(3) -0.054(3) 0.609(2)
H72 H 0.0804 0.0078 0.6576
H73 H 0.0608 -0.0997 0.6176
C68 C -0.057(3) -0.093(4) 0.586(3)
H74 H -0.0691 -0.0652 0.5570
H75 H -0.0780 -0.0765 0.6338
H76 H -0.0897 -0.1631 0.5536
C72 C 1.275(3) 0.410(3) 0.745(3)
H77 H 1.2810 0.4469 0.8008
H78 H 1.2731 0.4437 0.7179
H79 H 1.3286 0.4004 0.7397
C73 C 1.188(3) 0.315(3) 0.711(3)
O9 O 1.170(4) 0.227(5) 0.694(4)
C74 C 1.118(4) 0.343(4) 0.731(4)
H80 H 1.1394 0.4060 0.7367
H81 H 1.1073 0.3444 0.7810
H82 H 1.0593 0.2959 0.6901
O10 O 0.652(2) 0.330(2) 0.9135(19)
C75 C 0.702(2) 0.2939(15) 0.9054(15)
C76 C 0.6637(16) 0.1924(13) 0.8480(12)
H83 H 0.6036 0.1536 0.8544
H84 H 0.7068 0.1723 0.8564
H85 H 0.6554 0.1840 0.7949
C77 C 0.771(3) 0.339(3) 0.980(2)
H86 H 0.7455 0.3630 1.0241
H87 H 0.8279 0.3929 0.9836
H88 H 0.7837 0.2924 0.9824
O11 O -0.106(3) -0.490(3) 0.424(3)
C78 C -0.053(3) -0.397(3) 0.450(3)
C79 C -0.012(5) -0.361(5) 0.397(4)
H89 H 0.0372 -0.3749 0.3834
H90 H 0.0136 -0.2914 0.4225
H91 H -0.0606 -0.3915 0.3488
C80 C -0.033(5) -0.340(5) 0.536(3)
H92 H -0.0606 -0.2996 0.5478
H93 H 0.0347 -0.2991 0.5588
H94 H -0.0586 -0.3824 0.5585
O12 O 0.6245(14) 0.1762(14) 0.3633(13)
C81 C 0.6813(19) 0.2565(19) 0.4152(17)
C82 C 0.663(3) 0.336(3) 0.445(3)
H95 H 0.7142 0.3913 0.4437
H96 H 0.6588 0.3545 0.4989
H97 H 0.6049 0.3167 0.4121
C83 C 0.775(2) 0.275(4) 0.443(3)
H98 H 0.7722 0.2144 0.4290
H99 H 0.7977 0.3160 0.4998
H100 H 0.8181 0.3071 0.4180
O13 O 1.060(4) 0.374(5) 0.911(4)
C84 C 1.015(3) 0.335(3) 0.946(3)
C85 C 0.913(3) 0.267(4) 0.914(4)
H101 H 0.8932 0.2540 0.8605
H102 H 0.8875 0.3034 0.9487
H103 H 0.8895 0.2061 0.9142
C86 C 1.059(5) 0.355(6) 1.024(4)
H104 H 1.1142 0.3482 1.0207
H105 H 1.0146 0.3086 1.0380
H106 H 1.0771 0.4195 1.0636
I5? I 0.8762(9) 0.5659(7) 0.7873(10)
I6? I 0.8052(12) 0.4061(14) 1.2274(13)
C69? C 0.753(3) 0.3332(16) 0.708(3)
C70? C 0.803(5) 0.4193(18) 0.737(5)
C71? C 0.6788(14) 0.2311(15) 0.672(4)
loop_
_geom_bond_atom_site_label_1
_geom_bond_atom_site_label_2
_geom_bond_site_symmetry_1
_geom_bond_site_symmetry_2
I1 C9 1_555 1_555
I2 C25 1_555 1_555
I3 C42 1_555 1_555
I4 C59 1_555 1_555
O1 C4 1_555 1_555
O2 C11 1_555 1_555
O3 C20 1_555 1_555
O4 C27 1_555 1_555
O5 C37 1_555 1_555
O6 C44 1_555 1_555
O7 C54 1_555 1_555
O8 C1 1_555 1_555
C1 C3 1_555 1_555
C2 H1 1_555 1_555
H2 C2 1_555 1_555
C3 C4 1_555 1_555
C4 C5 1_555 1_555
C5 C6 1_555 1_555
C6 H3 1_555 1_555
C7 C1 1_555 1_555
C8 C3 1_555 1_555
C9 C8 1_555 1_555
C10 O1 1_555 1_555
H4 C10 1_555 1_555
H5 C10 1_555 1_555
C11 C10 1_555 1_555
H6 C11 1_555 1_555
H7 C11 1_555 1_555
C12 C5 1_555 1_555
H8 C12 1_555 1_555
C13 C12 1_555 1_555
H9 C13 1_555 1_555
H10 C13 1_555 1_555
C14 C13 1_555 1_555
H11 C14 1_555 1_555
H12 C14 1_555 1_555
C15 C14 1_555 1_555
H13 C15 1_555 1_555
H14 C15 1_555 1_555
C16 C2 1_555 1_555
H15 C16 1_555 1_555
H16 C16 1_555 1_555
C17 C2 1_555 1_555
H17 C17 1_555 1_555
H18 C17 1_555 1_555
H19 C17 1_555 1_555
C18 O2 1_555 1_555
C19 C18 1_555 1_555
C20 C19 1_555 1_555
C21 C20 1_555 1_555
C22 C21 1_555 1_555
H20 C22 1_555 1_555
C23 C12 1_555 1_555
C24 C19 1_555 1_555
C25 C24 1_555 1_555
C26 O3 1_555 1_555
H21 C26 1_555 1_555
H22 C26 1_555 1_555
C27 C26 1_555 1_555
H23 C27 1_555 1_555
H24 C27 1_555 1_555
C28 C21 1_555 1_555
H25 C28 1_555 1_555
C29 C28 1_555 1_555
H26 C29 1_555 1_555
H27 C29 1_555 1_555
C30 C29 1_555 1_555
H28 C30 1_555 1_555
H29 C30 1_555 1_555
C31 C30 1_555 1_555
H30 C31 1_555 1_555
H31 C31 1_555 1_555
C32 C31 1_555 1_555
H32 C32 1_555 1_555
H33 C32 1_555 1_555
C33 C32 1_555 1_555
H34 C33 1_555 1_555
H35 C33 1_555 1_555
C34 C33 1_555 1_555
H36 C34 1_555 1_555
H37 C34 1_555 1_555
H38 C34 1_555 1_555
C35 O4 1_555 1_555
C36 C35 1_555 1_555
C37 C36 1_555 1_555
C38 C37 1_555 1_555
C39 C38 1_555 1_555
H39 C39 1_555 1_555
C40 C28 1_555 1_555
C41 C36 1_555 1_555
C42 C41 1_555 1_555
C43 O5 1_555 1_555
H40 C43 1_555 1_555
H41 C43 1_555 1_555
C44 C43 1_555 1_555
H42 C44 1_555 1_555
H43 C44 1_555 1_555
C45 C38 1_555 1_555
H44 C45 1_555 1_555
C46 C45 1_555 1_555
H45 C46 1_555 1_555
H46 C46 1_555 1_555
C47 C46 1_555 1_555
H47 C47 1_555 1_555
H48 C47 1_555 1_555
C48 C47 1_555 1_555
H49 C48 1_555 1_555
H50 C48 1_555 1_555
C49 C48 1_555 1_555
H51 C49 1_555 1_555
H52 C49 1_555 1_555
C50 C49 1_555 1_555
H53 C50 1_555 1_555
H54 C50 1_555 1_555
C51 C50 1_555 1_555
H55 C51 1_555 1_555
H56 C51 1_555 1_555
H57 C51 1_555 1_555
C52 O6 1_555 1_555
C53 C52 1_555 1_555
C54 C53 1_555 1_555
C55 C54 1_555 1_555
C56 C55 1_555 1_555
H58 C56 1_555 1_555
C57 C45 1_555 1_555
C58 C53 1_555 1_555
C59 C58 1_555 1_555
C60 O7 1_555 1_555
H59 C60 1_555 1_555
H60 C60 1_555 1_555
C61 O8 1_555 1_555
H61 C61 1_555 1_555
H62 C61 1_555 1_555
C62 C7 1_555 1_555
H63 C62 1_555 1_555
C63 C62 1_555 1_555
H64 C63 1_555 1_555
H65 C63 1_555 1_555
C64 C63 1_555 1_555
H66 C64 1_555 1_555
H67 C64 1_555 1_555
C65 C64 1_555 1_555
H68 C65 1_555 1_555
H69 C65 1_555 1_555
C66 C65 1_555 1_555
H70 C66 1_555 1_555
H71 C66 1_555 1_555
C67 C66 1_555 1_555
H72 C67 1_555 1_555
H73 C67 1_555 1_555
C68 C67 1_555 1_555
H74 C68 1_555 1_555
H75 C68 1_555 1_555
H76 C68 1_555 1_555
C72 H77 1_555 1_555
H78 C72 1_555 1_555
H79 C72 1_555 1_555
C73 C72 1_555 1_555
O9 C73 1_555 1_555
C74 C73 1_555 1_555
H80 C74 1_555 1_555
H81 C74 1_555 1_555
H82 C74 1_555 1_555
O10 C75 1_555 1_555
C75 C76 1_555 1_555
C76 H83 1_555 1_555
H84 C76 1_555 1_555
H85 C76 1_555 1_555
C77 C75 1_555 1_555
H86 C77 1_555 1_555
H87 C77 1_555 1_555
H88 C77 1_555 1_555
O11 C78 1_555 1_555
C78 C79 1_555 1_555
C79 H89 1_555 1_555
H90 C79 1_555 1_555
H91 C79 1_555 1_555
C80 C78 1_555 1_555
H92 C80 1_555 1_555
H93 C80 1_555 1_555
H94 C80 1_555 1_555
O12 C81 1_555 1_555
C81 C82 1_555 1_555
C82 H95 1_555 1_555
H96 C82 1_555 1_555
H97 C82 1_555 1_555
C83 C81 1_555 1_555
H98 C83 1_555 1_555
H99 C83 1_555 1_555
H100 C83 1_555 1_555
O13 C84 1_555 1_555
C84 C85 1_555 1_555
C85 H101 1_555 1_555
H102 C85 1_555 1_555
H103 C85 1_555 1_555
C86 C84 1_555 1_555
H104 C86 1_555 1_555
H105 C86 1_555 1_555
H106 C86 1_555 1_555
C6 C7 1_555 1_555
C15 C16 1_555 1_555
C18 C23 1_555 1_555
C22 C23 1_555 1_555
C35 C40 1_555 1_555
C39 C40 1_555 1_555
C52 C57 1_555 1_555
C55 C62 1_555 1_555
C56 C57 1_555 1_555
C60 C61 1_555 1_555

#END
