
#######################################################################
#
#                 Cambridge Crystallographic Data Centre
#                                CCDC 
#
#######################################################################
#
# If this CIF has been generated from an entry in the Cambridge 
# Structural Database, then it will include bibliographic, chemical, 
# crystal, experimental, refinement or atomic coordinate data resulting 
# from the CCDC's data processing and validation procedures.
#
#######################################################################

data_LAYWAM
_chemical_name_common            
"2,8,14,20-tetra-n-hexyl-5,11,17,23-tetrakis(iodoethynyl)-4,24:6,10:12,16:18,22-O,O'- tetraethylenecalix[4]resorcinarene N,N-dimethylformamide solvate"
_chemical_formula_moiety         'C68 H76 I4 O8,3.5(C3 H7 N1 O1)'
_chemical_name_systematic        
"1,25,27,29-tetrahexyl-8,13,18,32-tetrakis(iodoethynyl)-5,6,10,11,15,16,20,21-octahydro-1H,25H,27H,29H-2,24:3,23-bis(metheno)[1,4]benzodioxonino[10',9':5,6][1,4]benzodioxonino[10,9-e][1,4]dioxonino[6,5-j][1,4]benzodioxonine N,N-dimethylformamide solvate"
_symmetry_cell_setting           triclinic
_symmetry_space_group_name_H-M   'P -1'
_symmetry_Int_Tables_number      2
_space_group_name_Hall           '-P 1'
loop_
_symmetry_equiv_pos_site_id
_symmetry_equiv_pos_as_xyz
1 x,y,z
2 -x,-y,-z
_cell_length_a                   16.7987(4)
_cell_length_b                   20.0128(4)
_cell_length_c                   24.3284(7)
_cell_angle_alpha                90.053(2)
_cell_angle_beta                 92.142(2)
_cell_angle_gamma                97.4128(19)
_cell_volume                     8104.78
_exptl_crystal_colour            colorless
_exptl_crystal_description       needle
_cell_formula_units_Z            4
loop_
_atom_site_label
_atom_site_type_symbol
_atom_site_fract_x
_atom_site_fract_y
_atom_site_fract_z
I1 I -0.02344(6) -0.06403(6) 0.78865(5)
I2 I 0.16092(6) 0.20648(6) 0.40156(4)
I3 I 0.60672(5) 0.53504(3) 0.47000(2)
I4 I 0.30054(4) 0.45038(3) 0.81763(3)
O1 O 0.2005(6) -0.0428(4) 0.6590(4)
O2 O 0.2411(6) 0.0260(5) 0.5565(4)
O3 O 0.4316(6) 0.1783(4) 0.4607(3)
O4 O 0.5732(6) 0.2728(4) 0.4728(3)
O5 O 0.6448(5) 0.3863(3) 0.6454(3)
O6 O 0.5494(5) 0.3606(3) 0.7408(3)
O7 O 0.3644(5) 0.2020(4) 0.8333(3)
O8 O 0.2766(5) 0.0679(4) 0.8302(4)
C1 C 0.2964(7) 0.0475(5) 0.7780(5)
C2 C 0.3772(6) 0.0569(5) 0.7640(4)
C3 C 0.3946(7) 0.0340(5) 0.7137(4)
H1 H 0.4489 0.0411 0.7032
C4 C 0.3378(7) 0.0009(5) 0.6770(5)
C5 C 0.2588(8) -0.0081(6) 0.6927(5)
C6 C 0.2354(7) 0.0146(5) 0.7435(5)
C7 C 0.1549(7) -0.0014(6) 0.7599(6)
C8 C 0.0891(9) -0.0200(7) 0.7714(7)
C9 C 0.3618(8) -0.0271(5) 0.6219(5)
H2 H 0.3138 -0.0566 0.6061
C10 C 0.4283(9) -0.0700(6) 0.6298(5)
H3 H 0.4733 -0.0448 0.6516
H4 H 0.4483 -0.0809 0.5935
C11 C 0.3978(10) -0.1361(6) 0.6599(6)
H5 H 0.3593 -0.1646 0.6352
H6 H 0.3690 -0.1251 0.6928
C12 C 0.4675(11) -0.1765(6) 0.6780(6)
H7 H 0.4447 -0.2232 0.6868
H8 H 0.5034 -0.1786 0.6469
C13 C 0.5169(13) -0.1459(8) 0.7278(7)
H9 H 0.5419 -0.0999 0.7186
H10 H 0.4809 -0.1421 0.7586
C14 C 0.5805(17) -0.1871(13) 0.7452(11)
H11 H 0.6185 -0.1903 0.7155
H12 H 0.5570 -0.2330 0.7555
C15 C 0.621(2) -0.1496(17) 0.7940(13)
H13 H 0.6776 -0.1582 0.7971
H14 H 0.5941 -0.1651 0.8275
H15 H 0.6195 -0.1012 0.7894
C16 C 0.1486(10) 0.0008(9) 0.6300(8)
H16 H 0.1182 0.0230 0.6572
H17 H 0.1094 -0.0272 0.6054
C17 C 0.1987(9) 0.0555(7) 0.5953(6)
H18 H 0.1623 0.0842 0.5767
H19 H 0.2366 0.0847 0.6200
C18 C 0.3200(9) 0.0546(7) 0.5503(5)
C19 C 0.3823(8) 0.0305(6) 0.5813(4)
C20 C 0.4605(8) 0.0592(5) 0.5728(4)
H20 H 0.5030 0.0445 0.5945
C21 C 0.4787(8) 0.1093(5) 0.5333(4)
C22 C 0.4141(9) 0.1310(6) 0.5023(4)
C23 C 0.3383(10) 0.1046(6) 0.5113(5)
C24 C 0.2727(11) 0.1299(8) 0.4810(6)
C25 C 0.2292(10) 0.1547(8) 0.4540(7)
C26 C 0.5653(8) 0.1415(6) 0.5239(4)
H21 H 0.5686 0.1528 0.4839
C27 C 0.6267(9) 0.0962(6) 0.5367(5)
H22 H 0.6108 0.0526 0.5175
H23 H 0.6280 0.0873 0.5767
C28 C 0.7112(9) 0.1252(7) 0.5197(5)
H24 H 0.7125 0.1249 0.4791
H25 H 0.7221 0.1728 0.5321
C29 C 0.7781(9) 0.0871(7) 0.5430(6)
H26 H 0.7806 0.0908 0.5836
H27 H 0.7656 0.0388 0.5331
C30 C 0.8561(12) 0.1135(10) 0.5219(9)
H28 H 0.8700 0.1608 0.5343
H29 H 0.8518 0.1134 0.4812
C31 C 0.9248(15) 0.0733(13) 0.5403(12)
H30 H 0.9314 0.0757 0.5809
H31 H 0.9096 0.0254 0.5298
C32 C 1.0051(13) 0.0990(19) 0.5153(13)
H32 H 0.9957 0.1131 0.4773
H33 H 1.0393 0.0628 0.5157
H34 H 1.0317 0.1374 0.5369
C33 C 0.4282(9) 0.2471(6) 0.4753(5)
H35 H 0.4287 0.2517 0.5159
H36 H 0.3777 0.2615 0.4601
C34 C 0.4971(9) 0.2901(6) 0.4537(5)
H37 H 0.4938 0.2872 0.4130
H38 H 0.4936 0.3374 0.4642
C35 C 0.5848(7) 0.2701(5) 0.5302(4)
C36 C 0.5813(6) 0.2081(5) 0.5561(4)
C37 C 0.5981(7) 0.2072(5) 0.6122(4)
H39 H 0.5956 0.1649 0.6303
C38 C 0.6185(6) 0.2658(5) 0.6431(4)
C39 C 0.6200(7) 0.3265(5) 0.6161(4)
C40 C 0.6027(7) 0.3300(5) 0.5603(4)
C41 C 0.6084(7) 0.3931(5) 0.5319(4)
C42 C 0.6105(7) 0.4467(6) 0.5088(4)
C43 C 0.6411(6) 0.2628(5) 0.7047(4)
H40 H 0.6650 0.3091 0.7168
C44 C 0.7047(6) 0.2144(6) 0.7172(4)
H41 H 0.7147 0.2126 0.7575
H42 H 0.6826 0.1685 0.7045
C45 C 0.7836(7) 0.2346(6) 0.6904(6)
H43 H 0.8053 0.2809 0.7023
H44 H 0.7741 0.2351 0.6500
C46 C 0.8455(9) 0.1877(9) 0.7043(9)
H45 H 0.8495 0.1841 0.7449
H46 H 0.8240 0.1424 0.6899
C47 C 0.9265(11) 0.2037(10) 0.6850(10)
H47 H 0.9476 0.2502 0.6967
H48 H 0.9243 0.2026 0.6443
C48 C 0.9851(13) 0.1557(12) 0.7062(12)
H49 H 0.9884 0.1581 0.7469
H50 H 0.9626 0.1091 0.6957
C49 C 1.0641(15) 0.1687(13) 0.6867(14)
H51 H 1.0615 0.1735 0.6466
H52 H 1.0938 0.1311 0.6965
H53 H 1.0915 0.2103 0.7035
C50 C 0.5819(7) 0.4246(5) 0.6588(4)
H54 H 0.5583 0.4414 0.6245
H55 H 0.6049 0.4642 0.6813
C51 C 0.5160(7) 0.3844(5) 0.6901(4)
H56 H 0.4739 0.4130 0.6981
H57 H 0.4911 0.3455 0.6674
C52 C 0.5232(6) 0.2950(5) 0.7531(4)
C53 C 0.5667(6) 0.2429(5) 0.7378(3)
C54 C 0.5389(6) 0.1778(5) 0.7525(3)
H58 H 0.5663 0.1422 0.7403
C55 C 0.4709(6) 0.1621(5) 0.7853(4)
C56 C 0.4299(6) 0.2145(5) 0.8004(4)
C57 C 0.4522(6) 0.2808(5) 0.7839(4)
C58 C 0.4072(6) 0.3331(5) 0.7963(4)
C59 C 0.3662(7) 0.3763(5) 0.8038(4)
C60 C 0.4434(7) 0.0902(5) 0.8035(4)
H59 H 0.4189 0.0934 0.8401
C61 C 0.5094(7) 0.0454(6) 0.8111(4)
H60 H 0.4845 -0.0002 0.8215
H61 H 0.5345 0.0412 0.7753
C62 C 0.5731(8) 0.0689(8) 0.8526(6)
H62 H 0.5475 0.0757 0.8879
H63 H 0.6000 0.1133 0.8410
C63 C 0.6370(11) 0.0226(11) 0.8629(10)
H64 H 0.6579 0.0092 0.8276
H65 H 0.6140 -0.0187 0.8821
C64 C 0.7067(11) 0.0628(11) 0.8997(10)
H66 H 0.7131 0.1110 0.8896
H67 H 0.6933 0.0592 0.9390
C65 C 0.7847(11) 0.0333(13) 0.8907(11)
H68 H 0.8308 0.0693 0.8947
H69 H 0.7838 0.0146 0.8530
C66 C 0.794(2) -0.0227(15) 0.9330(13)
H70 H 0.7833 -0.0069 0.9698
H71 H 0.8493 -0.0341 0.9329
H72 H 0.7563 -0.0628 0.9233
C67 C 0.2878(8) 0.1873(6) 0.8046(6)
H73 H 0.2959 0.1765 0.7656
H74 H 0.2590 0.2274 0.8054
C68 C 0.2380(8) 0.1286(6) 0.8307(6)
H75 H 0.2284 0.1404 0.8692
H76 H 0.1852 0.1199 0.8108
O9 O 0.3971(7) 0.3447(4) 0.5837(4)
N1 N 0.3157(9) 0.2656(8) 0.6292(8)
C69 C 0.3335(11) 0.3244(7) 0.6024(7)
H77 H 0.2919 0.3522 0.5980
C70 C 0.2393(17) 0.2460(15) 0.6512(14)
H78 H 0.2051 0.2182 0.6242
H79 H 0.2144 0.2862 0.6598
H80 H 0.2456 0.2200 0.6849
C71 C 0.3749(10) 0.2214(6) 0.6386(6)
H81 H 0.3937 0.2244 0.6772
H82 H 0.4203 0.2343 0.6150
H83 H 0.3514 0.1750 0.6300
I5 I 0.04409(7) 0.35237(5) 0.56648(4)
I6 I 0.01792(16) 0.11156(12) 0.92384(13)
I7 I 0.62041(6) 0.26101(5) 0.89665(3)
I8 I 0.68143(8) 0.60614(12) 0.62060(6)
O10 O 0.0368(5) 0.4143(5) 0.7680(3)
O11 O 0.0067(5) 0.3540(6) 0.8711(4)
O12 O 0.2153(5) 0.3177(5) 1.0049(3)
O13 O 0.3821(5) 0.3580(4) 0.9838(3)
O14 O 0.5671(4) 0.5101(4) 0.8850(3)
O15 O 0.5855(4) 0.6183(3) 0.8088(3)
O16 O 0.3762(4) 0.6510(3) 0.6747(2)
O17 O 0.2251(5) 0.5630(4) 0.6665(3)
C72 C 0.1883(6) 0.5458(6) 0.7158(4)
C73 C 0.2032(6) 0.5897(6) 0.7611(4)
C74 C 0.1630(6) 0.5714(6) 0.8089(4)
H84 H 0.1740 0.5995 0.8405
C75 C 0.1066(6) 0.5128(6) 0.8127(4)
C76 C 0.0940(6) 0.4724(7) 0.7664(5)
C77 C 0.1338(7) 0.4870(6) 0.7177(4)
C78 C 0.1164(7) 0.4429(7) 0.6702(5)
C79 C 0.0983(9) 0.4067(7) 0.6325(5)
C80 C 0.0611(6) 0.4959(7) 0.8644(5)
H85 H 0.0089 0.4697 0.8517
C81 C 0.0384(8) 0.5566(9) 0.8950(5)
H86 H 0.0092 0.5404 0.9280
H87 H 0.0885 0.5849 0.9079
C82 C -0.0127(8) 0.6005(9) 0.8622(7)
H88 H -0.0613 0.5710 0.8485
H89 H 0.0176 0.6164 0.8296
C83 C -0.0411(13) 0.6627(13) 0.8890(11)
H90 H -0.0882 0.6761 0.8681
H91 H -0.0563 0.6529 0.9274
C84 C 0.0269(15) 0.7162(14) 0.8876(11)
H92 H 0.0430 0.7260 0.8494
H93 H 0.0737 0.7040 0.9096
C85 C -0.008(2) 0.7783(16) 0.9142(14)
H94 H -0.0531 0.7919 0.8916
H95 H -0.0253 0.7683 0.9520
C86 C 0.065(2) 0.8317(19) 0.9140(16)
H96 H 0.0791 0.8422 0.8760
H97 H 0.1103 0.8149 0.9336
H98 H 0.0526 0.8725 0.9323
C87 C 0.0700(7) 0.3544(7) 0.7823(5)
H99 H 0.1248 0.3660 0.7988
H100 H 0.0737 0.3267 0.7490
C88 C 0.0177(9) 0.3157(9) 0.8223(5)
H101 H -0.0354 0.3010 0.8042
H102 H 0.0417 0.2748 0.8332
C89 C 0.0768(7) 0.3777(8) 0.9014(5)
C90 C 0.1013(6) 0.4490(7) 0.9009(4)
C91 C 0.1694(6) 0.4718(7) 0.9355(5)
H103 H 0.1897 0.5183 0.9349
C92 C 0.2082(6) 0.4298(7) 0.9702(4)
C93 C 0.1818(7) 0.3612(7) 0.9691(4)
C94 C 0.1154(8) 0.3349(8) 0.9355(5)
C95 C 0.0868(9) 0.2627(9) 0.9351(6)
C96 C 0.0604(11) 0.2069(10) 0.9313(8)
C97 C 0.2818(6) 0.4582(6) 1.0071(4)
H104 H 0.2923 0.4217 1.0334
C98 C 0.2694(6) 0.5190(7) 1.0416(4)
H105 H 0.3226 0.5409 1.0554
H106 H 0.2457 0.5516 1.0175
C99 C 0.2165(7) 0.5041(8) 1.0901(5)
H107 H 0.1596 0.4993 1.0768
H108 H 0.2268 0.4605 1.1062
C100 C 0.2291(8) 0.5574(9) 1.1348(5)
H109 H 0.2106 0.5993 1.1204
H110 H 0.2873 0.5674 1.1440
C101 C 0.1851(9) 0.5373(10) 1.1874(7)
H111 H 0.1266 0.5358 1.1800
H112 H 0.1957 0.4915 1.1982
C102 C 0.2098(11) 0.5834(10) 1.2320(7)
H113 H 0.2001 0.6293 1.2209
H114 H 0.2682 0.5842 1.2397
C103 C 0.1636(10) 0.5636(11) 1.2862(6)
H115 H 0.1088 0.5753 1.2823
H116 H 0.1918 0.5881 1.3175
H117 H 0.1616 0.5150 1.2923
C104 C 0.2658(8) 0.2737(7) 0.9809(6)
H118 H 0.2324 0.2404 0.9569
H119 H 0.2910 0.2487 1.0105
C105 C 0.3316(7) 0.3121(6) 0.9473(4)
H120 H 0.3639 0.2802 0.9303
H121 H 0.3073 0.3375 0.9176
C106 C 0.4029(6) 0.4224(5) 0.9623(4)
C107 C 0.3571(6) 0.4729(6) 0.9724(4)
C108 C 0.3806(5) 0.5375(6) 0.9511(4)
H122 H 0.3488 0.5726 0.9572
C109 C 0.4513(6) 0.5510(5) 0.9204(4)
C110 C 0.4950(5) 0.4986(5) 0.9117(3)
C111 C 0.4721(6) 0.4336(5) 0.9317(4)
C112 C 0.5173(6) 0.3814(5) 0.9206(4)
C113 C 0.5567(8) 0.3359(7) 0.9110(4)
C114 C 0.4798(6) 0.6207(5) 0.8990(4)
H123 H 0.5398 0.6249 0.8996
C115 C 0.4584(6) 0.6794(5) 0.9339(4)
H124 H 0.3996 0.6801 0.9311
H125 H 0.4734 0.6719 0.9729
C116 C 0.4986(9) 0.7443(8) 0.9168(7)
H126 H 0.4737 0.7569 0.8814
H127 H 0.5557 0.7400 0.9105
C117 C 0.4948(12) 0.8006(8) 0.9588(9)
H128 H 0.4376 0.8069 0.9620
H129 H 0.5136 0.7847 0.9950
C118 C 0.5378(15) 0.8637(10) 0.9493(9)
H130 H 0.5110 0.8841 0.9177
H131 H 0.5919 0.8564 0.9377
C119 C 0.5490(18) 0.9158(14) 0.9961(9)
H132 H 0.5665 0.9605 0.9801
H133 H 0.4961 0.9178 1.0121
C120 C 0.6068(19) 0.9037(15) 1.0411(12)
H134 H 0.6588 0.8987 1.0258
H135 H 0.5868 0.8626 1.0607
H136 H 0.6132 0.9420 1.0667
C121 C 0.5573(6) 0.4978(5) 0.8267(4)
H137 H 0.5005 0.4983 0.8144
H138 H 0.5732 0.4533 0.8174
C122 C 0.6102(5) 0.5529(5) 0.7992(4)
H139 H 0.6663 0.5530 0.8132
H140 H 0.6086 0.5439 0.7591
C123 C 0.5067(5) 0.6233(4) 0.7963(3)
C124 C 0.4520(6) 0.6262(4) 0.8383(3)
C125 C 0.3737(5) 0.6349(5) 0.8238(4)
H141 H 0.3365 0.6350 0.8523
C126 C 0.3459(6) 0.6436(5) 0.7697(4)
C127 C 0.4006(6) 0.6396(5) 0.7287(4)
C128 C 0.4801(6) 0.6299(5) 0.7409(4)
C129 C 0.5386(6) 0.6281(5) 0.6992(4)
C130 C 0.5895(7) 0.6249(6) 0.6687(4)
C131 C 0.2590(6) 0.6544(5) 0.7564(4)
H142 H 0.2565 0.6677 0.7168
C132 C 0.2365(7) 0.7140(6) 0.7894(5)
H143 H 0.1785 0.7173 0.7832
H144 H 0.2465 0.7064 0.8291
C133 C 0.2847(9) 0.7791(7) 0.7727(5)
H145 H 0.2774 0.7840 0.7324
H146 H 0.3422 0.7756 0.7807
C134 C 0.2647(12) 0.8423(8) 0.7998(7)
H147 H 0.2065 0.8448 0.7944
H148 H 0.2939 0.8820 0.7818
C135 C 0.2874(16) 0.8454(10) 0.8633(8)
H149 H 0.2510 0.8108 0.8824
H150 H 0.3429 0.8346 0.8692
C136 C 0.2814(19) 0.9134(11) 0.8882(8)
H151 H 0.3240 0.9471 0.8740
H152 H 0.2287 0.9278 0.8778
C137 C 0.290(2) 0.9098(14) 0.9488(10)
H153 H 0.3451 0.9009 0.9589
H154 H 0.2517 0.8733 0.9622
H155 H 0.2808 0.9526 0.9653
C138 C 0.3621(6) 0.5929(5) 0.6394(4)
H156 H 0.4134 0.5747 0.6347
H157 H 0.3427 0.6067 0.6027
C139 C 0.3003(6) 0.5371(5) 0.6618(4)
H158 H 0.2935 0.4978 0.6365
H159 H 0.3193 0.5223 0.6982
O18 O 0.6093(6) 0.0436(4) 0.6830(4)
N2 N 0.7106(12) -0.0189(9) 0.6800(8)
C140 C 0.6679(14) 0.0249(9) 0.6929(11)
H160 H 0.6952 0.0521 0.7215
C141 C 0.654(2) -0.0591(12) 0.6275(12)
H161 H 0.6396 -0.1067 0.6368
H162 H 0.6843 -0.0556 0.5938
H163 H 0.6046 -0.0380 0.6216
C142 C 0.7878(18) -0.0379(15) 0.6866(16)
H164 H 0.8252 -0.0082 0.6647
H165 H 0.7870 -0.0845 0.6742
H166 H 0.8052 -0.0341 0.7255
O19 O 0.7994(8) 0.5487(8) 0.5615(5)
N3 N 0.8162(9) 0.4443(9) 0.5349(7)
C143 C 0.7931(10) 0.4879(8) 0.5698(7)
H167 H 0.7704 0.4713 0.6031
C144 C 0.8008(14) 0.3714(9) 0.5460(11)
H168 H 0.8058 0.3638 0.5857
H169 H 0.8399 0.3481 0.5272
H170 H 0.7464 0.3538 0.5326
C145 C 0.8489(16) 0.4659(11) 0.4803(9)
H171 H 0.8462 0.5141 0.4753
H172 H 0.8170 0.4404 0.4509
H173 H 0.9049 0.4572 0.4791
O20 O -0.1651(10) -0.1474(8) 0.8117(8)
N4 N -0.2145(9) -0.2585(8) 0.8031(5)
C146 C -0.1718(10) -0.1994(12) 0.7878(9)
H174 H -0.1444 -0.2001 0.7544
C147 C -0.2254(12) -0.3166(11) 0.7692(8)
H175 H -0.2821 -0.3265 0.7574
H176 H -0.2091 -0.3550 0.7898
H177 H -0.1925 -0.3087 0.7368
C148 C -0.2553(12) -0.2647(13) 0.8566(8)
H178 H -0.2752 -0.3122 0.8632
H179 H -0.3004 -0.2382 0.8554
H180 H -0.2170 -0.2479 0.8864
O21 O 0.2240(5) 0.6488(6) 0.9430(4)
N5 N 0.1663(8) 0.6961(9) 1.0133(5)
C149 C 0.2189(7) 0.6952(8) 0.9748(5)
H181 H 0.2567 0.7345 0.9713
C150 C 0.1065(10) 0.6352(12) 1.0238(7)
H182 H 0.1232 0.5957 1.0058
H183 H 0.0534 0.6428 1.0090
H184 H 0.1039 0.6274 1.0635
C151 C 0.1587(13) 0.7522(11) 1.0490(8)
H185 H 0.2009 0.7893 1.0415
H186 H 0.1642 0.7383 1.0874
H187 H 0.1059 0.7672 1.0424
O22 O 0.0824(8) 0.2887(7) 0.3366(6)
N6 N 0.0283(9) 0.3868(8) 0.3437(5)
C152 C 0.0702(10) 0.3396(10) 0.3636(8)
H188 H 0.0920 0.3447 0.4002
C153 C -0.0020(19) 0.3848(16) 0.2904(12)
H189 H 0.0313 0.3604 0.2673
H190 H -0.0018 0.4309 0.2767
H191 H -0.0572 0.3617 0.2891
C154 C 0.0111(13) 0.4436(10) 0.3774(7)
H192 H -0.0405 0.4319 0.3947
H193 H 0.0087 0.4832 0.3540
H194 H 0.0537 0.4536 0.4059
O23 O -0.0538(8) 0.2980(7) 0.4735(6)
N7 N -0.1146(10) 0.2454(7) 0.3981(6)
C155 C -0.0603(11) 0.2586(9) 0.4373(7)
H195 H -0.0180 0.2314 0.4366
C156 C -0.1121(18) 0.1975(11) 0.3553(11)
H196 H -0.0673 0.1716 0.3628
H197 H -0.1047 0.2210 0.3202
H198 H -0.1627 0.1669 0.3534
C157 C -0.198(2) 0.2776(19) 0.4045(16)
H199 H -0.1973 0.2992 0.4407
H200 H -0.2433 0.2419 0.4009
H201 H -0.2025 0.3112 0.3757
I9? I 0.6960(12) 0.6305(16) 0.6302(8)
loop_
_geom_bond_atom_site_label_1
_geom_bond_atom_site_label_2
_geom_bond_site_symmetry_1
_geom_bond_site_symmetry_2
I1 C8 1_555 1_555
I2 C25 1_555 1_555
I3 C42 1_555 1_555
I4 C59 1_555 1_555
O1 C5 1_555 1_555
O2 C17 1_555 1_555
O3 C22 1_555 1_555
O4 C34 1_555 1_555
O5 C39 1_555 1_555
O6 C51 1_555 1_555
O7 C56 1_555 1_555
O8 C1 1_555 1_555
C1 C2 1_555 1_555
C2 C3 1_555 1_555
C3 H1 1_555 1_555
C4 C3 1_555 1_555
C5 C4 1_555 1_555
C6 C1 1_555 1_555
C7 C6 1_555 1_555
C8 C7 1_555 1_555
C9 C4 1_555 1_555
H2 C9 1_555 1_555
C10 C9 1_555 1_555
H3 C10 1_555 1_555
H4 C10 1_555 1_555
C11 C10 1_555 1_555
H5 C11 1_555 1_555
H6 C11 1_555 1_555
C12 C11 1_555 1_555
H7 C12 1_555 1_555
H8 C12 1_555 1_555
C13 C12 1_555 1_555
H9 C13 1_555 1_555
H10 C13 1_555 1_555
C14 C13 1_555 1_555
H11 C14 1_555 1_555
H12 C14 1_555 1_555
C15 C14 1_555 1_555
H13 C15 1_555 1_555
H14 C15 1_555 1_555
H15 C15 1_555 1_555
C16 O1 1_555 1_555
H16 C16 1_555 1_555
H17 C16 1_555 1_555
C17 C16 1_555 1_555
H18 C17 1_555 1_555
H19 C17 1_555 1_555
C18 O2 1_555 1_555
C19 C9 1_555 1_555
C20 C19 1_555 1_555
H20 C20 1_555 1_555
C21 C20 1_555 1_555
C22 C21 1_555 1_555
C23 C18 1_555 1_555
C24 C23 1_555 1_555
C25 C24 1_555 1_555
C26 C21 1_555 1_555
H21 C26 1_555 1_555
C27 C26 1_555 1_555
H22 C27 1_555 1_555
H23 C27 1_555 1_555
C28 C27 1_555 1_555
H24 C28 1_555 1_555
H25 C28 1_555 1_555
C29 C28 1_555 1_555
H26 C29 1_555 1_555
H27 C29 1_555 1_555
C30 C29 1_555 1_555
H28 C30 1_555 1_555
H29 C30 1_555 1_555
C31 C30 1_555 1_555
H30 C31 1_555 1_555
H31 C31 1_555 1_555
C32 C31 1_555 1_555
H32 C32 1_555 1_555
H33 C32 1_555 1_555
H34 C32 1_555 1_555
C33 O3 1_555 1_555
H35 C33 1_555 1_555
H36 C33 1_555 1_555
C34 C33 1_555 1_555
H37 C34 1_555 1_555
H38 C34 1_555 1_555
C35 O4 1_555 1_555
C36 C26 1_555 1_555
C37 C36 1_555 1_555
H39 C37 1_555 1_555
C38 C37 1_555 1_555
C39 C38 1_555 1_555
C40 C35 1_555 1_555
C41 C40 1_555 1_555
C42 C41 1_555 1_555
C43 C38 1_555 1_555
H40 C43 1_555 1_555
C44 C43 1_555 1_555
H41 C44 1_555 1_555
H42 C44 1_555 1_555
C45 C44 1_555 1_555
H43 C45 1_555 1_555
H44 C45 1_555 1_555
C46 C45 1_555 1_555
H45 C46 1_555 1_555
H46 C46 1_555 1_555
C47 C46 1_555 1_555
H47 C47 1_555 1_555
H48 C47 1_555 1_555
C48 C47 1_555 1_555
H49 C48 1_555 1_555
H50 C48 1_555 1_555
C49 C48 1_555 1_555
H51 C49 1_555 1_555
H52 C49 1_555 1_555
H53 C49 1_555 1_555
C50 O5 1_555 1_555
H54 C50 1_555 1_555
H55 C50 1_555 1_555
C51 C50 1_555 1_555
H56 C51 1_555 1_555
H57 C51 1_555 1_555
C52 O6 1_555 1_555
C53 C43 1_555 1_555
C54 C53 1_555 1_555
H58 C54 1_555 1_555
C55 C54 1_555 1_555
C56 C55 1_555 1_555
C57 C52 1_555 1_555
C58 C57 1_555 1_555
C59 C58 1_555 1_555
C60 C2 1_555 1_555
H59 C60 1_555 1_555
C61 C60 1_555 1_555
H60 C61 1_555 1_555
H61 C61 1_555 1_555
C62 C61 1_555 1_555
H62 C62 1_555 1_555
H63 C62 1_555 1_555
C63 C62 1_555 1_555
H64 C63 1_555 1_555
H65 C63 1_555 1_555
C64 C63 1_555 1_555
H66 C64 1_555 1_555
H67 C64 1_555 1_555
C65 C64 1_555 1_555
H68 C65 1_555 1_555
H69 C65 1_555 1_555
C66 C65 1_555 1_555
H70 C66 1_555 1_555
H71 C66 1_555 1_555
H72 C66 1_555 1_555
C67 O7 1_555 1_555
H73 C67 1_555 1_555
H74 C67 1_555 1_555
C68 O8 1_555 1_555
H75 C68 1_555 1_555
H76 C68 1_555 1_555
O9 C69 1_555 1_555
N1 C69 1_555 1_555
C69 H77 1_555 1_555
C70 N1 1_555 1_555
H78 C70 1_555 1_555
H79 C70 1_555 1_555
H80 C70 1_555 1_555
C71 N1 1_555 1_555
H81 C71 1_555 1_555
H82 C71 1_555 1_555
H83 C71 1_555 1_555
I5 C79 1_555 1_555
I6 C96 1_555 1_555
I7 C113 1_555 1_555
I8 C130 1_555 1_555
O10 C76 1_555 1_555
O11 C88 1_555 1_555
O12 C93 1_555 1_555
O13 C105 1_555 1_555
O14 C110 1_555 1_555
O15 C122 1_555 1_555
O16 C127 1_555 1_555
O17 C72 1_555 1_555
C72 C73 1_555 1_555
C73 C74 1_555 1_555
C74 H84 1_555 1_555
C75 C74 1_555 1_555
C76 C75 1_555 1_555
C77 C72 1_555 1_555
C78 C77 1_555 1_555
C79 C78 1_555 1_555
C80 C75 1_555 1_555
H85 C80 1_555 1_555
C81 C80 1_555 1_555
H86 C81 1_555 1_555
H87 C81 1_555 1_555
C82 C81 1_555 1_555
H88 C82 1_555 1_555
H89 C82 1_555 1_555
C83 C82 1_555 1_555
H90 C83 1_555 1_555
H91 C83 1_555 1_555
C84 C83 1_555 1_555
H92 C84 1_555 1_555
H93 C84 1_555 1_555
C85 C84 1_555 1_555
H94 C85 1_555 1_555
H95 C85 1_555 1_555
C86 C85 1_555 1_555
H96 C86 1_555 1_555
H97 C86 1_555 1_555
H98 C86 1_555 1_555
C87 O10 1_555 1_555
H99 C87 1_555 1_555
H100 C87 1_555 1_555
C88 C87 1_555 1_555
H101 C88 1_555 1_555
H102 C88 1_555 1_555
C89 O11 1_555 1_555
C90 C80 1_555 1_555
C91 C90 1_555 1_555
H103 C91 1_555 1_555
C92 C91 1_555 1_555
C93 C92 1_555 1_555
C94 C89 1_555 1_555
C95 C94 1_555 1_555
C96 C95 1_555 1_555
C97 C92 1_555 1_555
H104 C97 1_555 1_555
C98 C97 1_555 1_555
H105 C98 1_555 1_555
H106 C98 1_555 1_555
C99 C98 1_555 1_555
H107 C99 1_555 1_555
H108 C99 1_555 1_555
C100 C99 1_555 1_555
H109 C100 1_555 1_555
H110 C100 1_555 1_555
C101 C100 1_555 1_555
H111 C101 1_555 1_555
H112 C101 1_555 1_555
C102 C101 1_555 1_555
H113 C102 1_555 1_555
H114 C102 1_555 1_555
C103 C102 1_555 1_555
H115 C103 1_555 1_555
H116 C103 1_555 1_555
H117 C103 1_555 1_555
C104 O12 1_555 1_555
H118 C104 1_555 1_555
H119 C104 1_555 1_555
C105 C104 1_555 1_555
H120 C105 1_555 1_555
H121 C105 1_555 1_555
C106 O13 1_555 1_555
C107 C97 1_555 1_555
C108 C107 1_555 1_555
H122 C108 1_555 1_555
C109 C108 1_555 1_555
C110 C109 1_555 1_555
C111 C106 1_555 1_555
C112 C111 1_555 1_555
C113 C112 1_555 1_555
C114 C109 1_555 1_555
H123 C114 1_555 1_555
C115 C114 1_555 1_555
H124 C115 1_555 1_555
H125 C115 1_555 1_555
C116 C115 1_555 1_555
H126 C116 1_555 1_555
H127 C116 1_555 1_555
C117 C116 1_555 1_555
H128 C117 1_555 1_555
H129 C117 1_555 1_555
C118 C117 1_555 1_555
H130 C118 1_555 1_555
H131 C118 1_555 1_555
C119 C118 1_555 1_555
H132 C119 1_555 1_555
H133 C119 1_555 1_555
C120 C119 1_555 1_555
H134 C120 1_555 1_555
H135 C120 1_555 1_555
H136 C120 1_555 1_555
C121 O14 1_555 1_555
H137 C121 1_555 1_555
H138 C121 1_555 1_555
C122 C121 1_555 1_555
H139 C122 1_555 1_555
H140 C122 1_555 1_555
C123 O15 1_555 1_555
C124 C114 1_555 1_555
C125 C124 1_555 1_555
H141 C125 1_555 1_555
C126 C125 1_555 1_555
C127 C126 1_555 1_555
C128 C123 1_555 1_555
C129 C128 1_555 1_555
C130 C129 1_555 1_555
C131 C73 1_555 1_555
H142 C131 1_555 1_555
C132 C131 1_555 1_555
H143 C132 1_555 1_555
H144 C132 1_555 1_555
C133 C132 1_555 1_555
H145 C133 1_555 1_555
H146 C133 1_555 1_555
C134 C133 1_555 1_555
H147 C134 1_555 1_555
H148 C134 1_555 1_555
C135 C134 1_555 1_555
H149 C135 1_555 1_555
H150 C135 1_555 1_555
C136 C135 1_555 1_555
H151 C136 1_555 1_555
H152 C136 1_555 1_555
C137 C136 1_555 1_555
H153 C137 1_555 1_555
H154 C137 1_555 1_555
H155 C137 1_555 1_555
C138 O16 1_555 1_555
H156 C138 1_555 1_555
H157 C138 1_555 1_555
C139 O17 1_555 1_555
H158 C139 1_555 1_555
H159 C139 1_555 1_555
O18 C140 1_555 1_555
N2 C140 1_555 1_555
C140 H160 1_555 1_555
C141 N2 1_555 1_555
H161 C141 1_555 1_555
H162 C141 1_555 1_555
H163 C141 1_555 1_555
C142 N2 1_555 1_555
H164 C142 1_555 1_555
H165 C142 1_555 1_555
H166 C142 1_555 1_555
O19 C143 1_555 1_555
N3 C143 1_555 1_555
C143 H167 1_555 1_555
C144 N3 1_555 1_555
H168 C144 1_555 1_555
H169 C144 1_555 1_555
H170 C144 1_555 1_555
C145 N3 1_555 1_555
H171 C145 1_555 1_555
H172 C145 1_555 1_555
H173 C145 1_555 1_555
O20 C146 1_555 1_555
N4 C146 1_555 1_555
C146 H174 1_555 1_555
C147 N4 1_555 1_555
H175 C147 1_555 1_555
H176 C147 1_555 1_555
H177 C147 1_555 1_555
C148 N4 1_555 1_555
H178 C148 1_555 1_555
H179 C148 1_555 1_555
H180 C148 1_555 1_555
O21 C149 1_555 1_555
N5 C149 1_555 1_555
C149 H181 1_555 1_555
C150 N5 1_555 1_555
H182 C150 1_555 1_555
H183 C150 1_555 1_555
H184 C150 1_555 1_555
C151 N5 1_555 1_555
H185 C151 1_555 1_555
H186 C151 1_555 1_555
H187 C151 1_555 1_555
O22 C152 1_555 1_555
N6 C152 1_555 1_555
C152 H188 1_555 1_555
C153 N6 1_555 1_555
H189 C153 1_555 1_555
H190 C153 1_555 1_555
H191 C153 1_555 1_555
C154 N6 1_555 1_555
H192 C154 1_555 1_555
H193 C154 1_555 1_555
H194 C154 1_555 1_555
O23 C155 1_555 1_555
N7 C155 1_555 1_555
C155 H195 1_555 1_555
C156 N7 1_555 1_555
H196 C156 1_555 1_555
H197 C156 1_555 1_555
H198 C156 1_555 1_555
C157 N7 1_555 1_555
H199 C157 1_555 1_555
H200 C157 1_555 1_555
H201 C157 1_555 1_555
C5 C6 1_555 1_555
C18 C19 1_555 1_555
C22 C23 1_555 1_555
C35 C36 1_555 1_555
C39 C40 1_555 1_555
C52 C53 1_555 1_555
C55 C60 1_555 1_555
C56 C57 1_555 1_555
C67 C68 1_555 1_555
C76 C77 1_555 1_555
C89 C90 1_555 1_555
C93 C94 1_555 1_555
C106 C107 1_555 1_555
C110 C111 1_555 1_555
C123 C124 1_555 1_555
C126 C131 1_555 1_555
C127 C128 1_555 1_555
C138 C139 1_555 1_555

#END
