
#######################################################################
#
#                 Cambridge Crystallographic Data Centre
#                                CCDC 
#
#######################################################################
#
# If this CIF has been generated from an entry in the Cambridge 
# Structural Database, then it will include bibliographic, chemical, 
# crystal, experimental, refinement or atomic coordinate data resulting 
# from the CCDC's data processing and validation procedures.
#
#######################################################################

data_LAYXEP
_chemical_formula_moiety         'C23 H24 N2 O5 S2'
_chemical_name_systematic        
10,10-dimethyl-3-tosyl-4-(2-oxo-2-(thien-2-yl)acetyl)-3,4-diazatricyclo(5.2.1.0^1,5^)decan-2-one
_symmetry_cell_setting           monoclinic
_symmetry_space_group_name_H-M   'P 21'
_symmetry_Int_Tables_number      4
_space_group_name_Hall           'P 2yb'
loop_
_symmetry_equiv_pos_site_id
_symmetry_equiv_pos_as_xyz
1 x,y,z
2 -x,1/2+y,-z
_cell_length_a                   12.5900(4)
_cell_length_b                   6.6550(2)
_cell_length_c                   13.2260(5)
_cell_angle_alpha                90
_cell_angle_beta                 91.7950(10)
_cell_angle_gamma                90
_cell_volume                     1107.62
_exptl_crystal_colour            colorless
_exptl_crystal_description       prism
_chemical_melting_point          '180-182 deg.C'
_cell_formula_units_Z            2
_exptl_crystal_recrystallization_method 'ethyl acetate/hexanes'
loop_
_atom_site_label
_atom_site_type_symbol
_atom_site_fract_x
_atom_site_fract_y
_atom_site_fract_z
C1 C 0.8303(3) 0.3653(7) 0.1176(3)
C2 C 0.8090(3) 0.5547(7) 0.0615(3)
C3 C 0.8983(4) 0.7038(7) 0.0385(4)
H1 H 0.9223 0.7658 0.1006
H2 H 0.9562 0.6333 0.0091
C4 C 0.8377(4) 0.8519(8) -0.0341(4)
H3 H 0.8714 0.8605 -0.0981
H4 H 0.8308 0.9842 -0.0062
C5 C 0.7261(3) 0.7574(7) -0.0497(3)
H5 H 0.6858 0.8058 -0.1074
C6 C 0.6626(4) 0.7903(7) 0.0461(4)
H6 H 0.5919 0.7364 0.0424
H7 H 0.6600 0.9289 0.0660
C7 C 0.7292(3) 0.6714(6) 0.1255(4)
H8 H 0.7671 0.7609 0.1708
C8 C 0.7501(3) 0.5290(7) -0.0441(3)
C9 C 0.6536(4) 0.3890(7) -0.0468(4)
H9 H 0.6756 0.2511 -0.0424
H10 H 0.6144 0.4105 -0.1093
H11 H 0.6092 0.4200 0.0089
C10 C 0.8237(4) 0.4554(8) -0.1256(4)
H12 H 0.8358 0.3137 -0.1177
H13 H 0.8901 0.5256 -0.1192
H14 H 0.7916 0.4811 -0.1911
C11 C 0.9001(3) 0.3875(7) 0.3379(3)
C12 C 0.8900(4) 0.5870(7) 0.3708(3)
H15 H 0.8206 0.6442 0.3780
C13 C 0.9815(4) 0.6953(7) 0.3901(4)
H16 H 0.9760 0.8306 0.4145
C14 C 1.0824(4) 0.6134(8) 0.3750(4)
C15 C 1.1803(4) 0.7390(10) 0.3939(4)
H17 H 1.2423 0.6608 0.3805
H18 H 1.1830 0.7823 0.4632
H19 H 1.1778 0.8543 0.3503
C16 C 1.0890(4) 0.4152(8) 0.3440(4)
H20 H 1.1575 0.3563 0.3340
C17 C 0.9990(4) 0.3013(7) 0.3247(4)
H21 H 1.0039 0.1646 0.3022
C18 C 0.5753(3) 0.5044(7) 0.2121(3)
C19 C 0.5233(3) 0.3017(7) 0.2326(4)
C20 C 0.4586(3) 0.2872(7) 0.3214(3)
C21 C 0.3749(4) 0.3398(9) 0.4761(4)
H22 H 0.3522 0.4030 0.5370
C22 C 0.3562(4) 0.1478(9) 0.4565(4)
H23 H 0.3189 0.0589 0.5002
N1 N 0.7447(3) 0.3351(6) 0.1867(3)
N2 N 0.6782(3) 0.5077(5) 0.1829(3)
O1 O 0.9039(2) 0.2502(5) 0.1136(2)
O2 O 0.8097(3) 0.0451(5) 0.2948(2)
O3 O 0.7003(2) 0.3130(5) 0.3690(2)
O4 O 0.5226(2) 0.6577(5) 0.2153(3)
O5 O 0.5313(2) 0.1661(5) 0.1708(3)
S1 S 0.78423(8) 0.25178(16) 0.30549(8)
S2 S 0.40345(16) 0.0635(3) 0.3498(2)
C23 C 0.4387(8) 0.4350(15) 0.3942(8)
C24? C 0.4177(18) 0.062(3) 0.395(2)
S3? S 0.4271(6) 0.4907(13) 0.3971(6)
loop_
_geom_bond_atom_site_label_1
_geom_bond_atom_site_label_2
_geom_bond_site_symmetry_1
_geom_bond_site_symmetry_2
C1 C2 1_555 1_555
C2 C3 1_555 1_555
C3 H1 1_555 1_555
H2 C3 1_555 1_555
C4 C3 1_555 1_555
H3 C4 1_555 1_555
H4 C4 1_555 1_555
C5 C4 1_555 1_555
H5 C5 1_555 1_555
C6 C5 1_555 1_555
H6 C6 1_555 1_555
H7 C6 1_555 1_555
C7 C2 1_555 1_555
H8 C7 1_555 1_555
C8 C2 1_555 1_555
C9 C8 1_555 1_555
H9 C9 1_555 1_555
H10 C9 1_555 1_555
H11 C9 1_555 1_555
C10 C8 1_555 1_555
H12 C10 1_555 1_555
H13 C10 1_555 1_555
H14 C10 1_555 1_555
C11 C12 1_555 1_555
C12 H15 1_555 1_555
C13 C12 1_555 1_555
H16 C13 1_555 1_555
C14 C13 1_555 1_555
C15 C14 1_555 1_555
H17 C15 1_555 1_555
H18 C15 1_555 1_555
H19 C15 1_555 1_555
C16 C14 1_555 1_555
H20 C16 1_555 1_555
C17 C11 1_555 1_555
H21 C17 1_555 1_555
C18 C19 1_555 1_555
C19 C20 1_555 1_555
C20 S2 1_555 1_555
C21 H22 1_555 1_555
C22 C21 1_555 1_555
H23 C22 1_555 1_555
N1 C1 1_555 1_555
N2 C7 1_555 1_555
O1 C1 1_555 1_555
O2 S1 1_555 1_555
O3 S1 1_555 1_555
O4 C18 1_555 1_555
O5 C19 1_555 1_555
S1 C11 1_555 1_555
S2 C22 1_555 1_555
C23 C20 1_555 1_555
C5 C8 1_555 1_555
C6 C7 1_555 1_555
C16 C17 1_555 1_555
C18 N2 1_555 1_555
C21 C23 1_555 1_555
N1 N2 1_555 1_555
N1 S1 1_555 1_555

#END
