
#######################################################################
#
#                 Cambridge Crystallographic Data Centre
#                                CCDC 
#
#######################################################################
#
# If this CIF has been generated from an entry in the Cambridge 
# Structural Database, then it will include bibliographic, chemical, 
# crystal, experimental, refinement or atomic coordinate data resulting 
# from the CCDC's data processing and validation procedures.
#
#######################################################################

data_LAYYOC
_chemical_formula_moiety         'C21 H42 N3 1+,C2 N3 1-'
_chemical_name_systematic        
'2,3-bis(dipropylamino)-N,N-dipropylcycloprop-2-en-1-iminium dicyanoazanide'
_symmetry_cell_setting           monoclinic
_symmetry_space_group_name_H-M   'C 2/c'
_symmetry_Int_Tables_number      15
_space_group_name_Hall           '-C 2yn'
loop_
_symmetry_equiv_pos_site_id
_symmetry_equiv_pos_as_xyz
1 x,y,z
2 -x,y,1/2-z
3 1/2+x,1/2+y,z
4 1/2-x,1/2+y,1/2-z
5 -x,-y,-z
6 x,-y,1/2+z
7 1/2-x,1/2-y,-z
8 1/2+x,1/2-y,1/2+z
_cell_length_a                   21.930(3)
_cell_length_b                   9.5434(13)
_cell_length_c                   27.094(4)
_cell_angle_alpha                90
_cell_angle_beta                 113.824(7)
_cell_angle_gamma                90
_cell_volume                     5187.24
_exptl_crystal_colour            colorless
_exptl_crystal_description       block
_cell_formula_units_Z            8
loop_
_atom_site_label
_atom_site_type_symbol
_atom_site_fract_x
_atom_site_fract_y
_atom_site_fract_z
N1 N 0.23386(7) 0.48735(14) 0.44728(5)
N2 N 0.26388(7) 0.36113(15) 0.33079(5)
N3 N 0.39658(7) 0.33756(17) 0.46678(5)
C1 C 0.27452(8) 0.43239(15) 0.42709(6)
C2 C 0.28576(8) 0.38552(16) 0.38349(6)
C3 C 0.33526(8) 0.37499(16) 0.43447(6)
C4 C 0.16516(8) 0.52420(17) 0.41176(6)
H1 H 0.1368 0.5162 0.4323
H2 H 0.1484 0.4562 0.3816
C5 C 0.25891(8) 0.52936(16) 0.50419(6)
H3 H 0.2394 0.6213 0.5066
H4 H 0.3079 0.5411 0.5183
C6 C 0.24282(8) 0.42523(16) 0.53914(6)
H5 H 0.2629 0.3335 0.5373
H6 H 0.1939 0.4125 0.5250
C7 C 0.15842(9) 0.67035(17) 0.38878(7)
H7 H 0.1854 0.6780 0.3671
H8 H 0.1760 0.7387 0.4187
C8 C 0.30795(9) 0.3014(2) 0.30756(7)
H9 H 0.2809 0.2462 0.2751
H10 H 0.3398 0.2367 0.3340
C9 C 0.43819(9) 0.26297(18) 0.44430(7)
H11 H 0.4857 0.2755 0.4688
H12 H 0.4314 0.3053 0.4091
C10 C 0.26855(9) 0.47253(18) 0.59742(6)
H13 H 0.2478 0.5620 0.5995
H14 H 0.3170 0.4843 0.6117
H15 H 0.2575 0.4019 0.6188
C11 C 0.42307(9) 0.10824(19) 0.43646(7)
H16 H 0.3752 0.0949 0.4133
H17 H 0.4322 0.0643 0.4718
C12 C 0.19846(9) 0.4122(2) 0.29355(7)
H18 H 0.2016 0.4459 0.2601
H19 H 0.1853 0.4924 0.3102
C13 C 0.46477(10) 0.0368(2) 0.41065(9)
H20 H 0.4536 0.0759 0.3746
H21 H 0.4554 -0.0640 0.4077
H22 H 0.5122 0.0523 0.4330
C14 C 0.34614(11) 0.4113(2) 0.29227(8)
H23 H 0.3744 0.4647 0.3248
H24 H 0.3145 0.4777 0.2665
C15 C 0.08646(10) 0.7060(2) 0.35357(8)
H25 H 0.0683 0.6363 0.3247
H26 H 0.0843 0.7991 0.3377
H27 H 0.0603 0.7056 0.3755
C16 C 0.14576(11) 0.3003(3) 0.27948(9)
H28 H 0.1400 0.2715 0.3124
H29 H 0.1601 0.2173 0.2650
C17 C 0.39003(13) 0.3460(3) 0.26670(10)
H30 H 0.3620 0.2952 0.2339
H31 H 0.4217 0.2809 0.2923
H32 H 0.4146 0.4200 0.2575
C18 C 0.41071(18) 0.3167(4) 0.52589(18)
H33 H 0.3687 0.3217 0.5312
H34 H 0.4311 0.2236 0.5381
C19 C 0.4766(4) 0.4153(11) 0.6171(3)
H35 H 0.4362 0.4045 0.6239
H36 H 0.5009 0.4990 0.6358
H37 H 0.5050 0.3326 0.6305
C20 C 0.08033(12) 0.3536(4) 0.23809(11)
H38 H 0.0864 0.3851 0.2060
H39 H 0.0648 0.4322 0.2533
H40 H 0.0472 0.2782 0.2282
C21 C 0.45777(19) 0.4305(4) 0.5579(2)
H41 H 0.4986 0.4273 0.5507
H42 H 0.4364 0.5229 0.5458
N4 N 0.37871(8) 0.7754(2) 0.49805(6)
C25 C 0.37457(8) 0.74421(18) 0.45624(8)
N5 N 0.37645(9) 0.7003(2) 0.41111(7)
C26 C 0.33009(12) 0.7354(2) 0.36585(9)
N6 N 0.2876(5) 0.7422(16) 0.3236(2)
C22? C 0.4254(3) 0.3028(6) 0.5609(3)
H43? H 0.4436 0.2104 0.5572
H44? H 0.3772 0.2910 0.5521
C23? C 0.4340(3) 0.4034(6) 0.5220(3)
H45? H 0.4818 0.4152 0.5295
H46? H 0.4150 0.4960 0.5242
C24? C 0.4605(6) 0.3535(16) 0.6190(4)
H47? H 0.5074 0.3730 0.6269
H48? H 0.4578 0.2808 0.6436
H49? H 0.4389 0.4391 0.6239
N7? N 0.3047(11) 0.809(4) 0.3255(6)
loop_
_geom_bond_atom_site_label_1
_geom_bond_atom_site_label_2
_geom_bond_site_symmetry_1
_geom_bond_site_symmetry_2
N1 C1 1_555 1_555
N2 C2 1_555 1_555
N3 C3 1_555 1_555
C1 C2 1_555 1_555
C2 C3 1_555 1_555
C3 C1 1_555 1_555
C4 N1 1_555 1_555
H1 C4 1_555 1_555
H2 C4 1_555 1_555
C5 N1 1_555 1_555
H3 C5 1_555 1_555
H4 C5 1_555 1_555
C6 C5 1_555 1_555
H5 C6 1_555 1_555
H6 C6 1_555 1_555
C7 C4 1_555 1_555
H7 C7 1_555 1_555
H8 C7 1_555 1_555
C8 N2 1_555 1_555
H9 C8 1_555 1_555
H10 C8 1_555 1_555
C9 N3 1_555 1_555
H11 C9 1_555 1_555
H12 C9 1_555 1_555
C10 C6 1_555 1_555
H13 C10 1_555 1_555
H14 C10 1_555 1_555
H15 C10 1_555 1_555
C11 C9 1_555 1_555
H16 C11 1_555 1_555
H17 C11 1_555 1_555
C12 N2 1_555 1_555
H18 C12 1_555 1_555
H19 C12 1_555 1_555
C13 C11 1_555 1_555
H20 C13 1_555 1_555
H21 C13 1_555 1_555
H22 C13 1_555 1_555
C14 C8 1_555 1_555
H23 C14 1_555 1_555
H24 C14 1_555 1_555
C15 C7 1_555 1_555
H25 C15 1_555 1_555
H26 C15 1_555 1_555
H27 C15 1_555 1_555
C16 C12 1_555 1_555
H28 C16 1_555 1_555
H29 C16 1_555 1_555
C17 C14 1_555 1_555
H30 C17 1_555 1_555
H31 C17 1_555 1_555
H32 C17 1_555 1_555
C18 N3 1_555 1_555
H33 C18 1_555 1_555
H34 C18 1_555 1_555
C19 H35 1_555 1_555
H36 C19 1_555 1_555
H37 C19 1_555 1_555
C20 C16 1_555 1_555
H38 C20 1_555 1_555
H39 C20 1_555 1_555
H40 C20 1_555 1_555
C21 C18 1_555 1_555
H41 C21 1_555 1_555
H42 C21 1_555 1_555
N4 C25 1_555 1_555
C25 N5 1_555 1_555
N5 C26 1_555 1_555
C26 N6 1_555 1_555
C19 C21 1_555 1_555

#END
