
#######################################################################
#
#                 Cambridge Crystallographic Data Centre
#                                CCDC 
#
#######################################################################
#
# If this CIF has been generated from an entry in the Cambridge 
# Structural Database, then it will include bibliographic, chemical, 
# crystal, experimental, refinement or atomic coordinate data resulting 
# from the CCDC's data processing and validation procedures.
#
#######################################################################

data_LAZCUM
_chemical_formula_moiety         'C18 H17 Br1 O1'
_chemical_name_systematic        
(2-Bromo-1-phenylcyclopentyl)(phenyl)methanone
_symmetry_cell_setting           monoclinic
_symmetry_space_group_name_H-M   'P 21/n'
_symmetry_Int_Tables_number      14
_space_group_name_Hall           '-P 2yn'
loop_
_symmetry_equiv_pos_site_id
_symmetry_equiv_pos_as_xyz
1 x,y,z
2 1/2-x,1/2+y,1/2-z
3 -x,-y,-z
4 1/2+x,1/2-y,1/2+z
_cell_length_a                   9.5922(11)
_cell_length_b                   15.0043(17)
_cell_length_c                   11.0273(12)
_cell_angle_alpha                90
_cell_angle_beta                 105.864(2)
_cell_angle_gamma                90
_cell_volume                     1526.65
_exptl_crystal_colour            colorless
_exptl_crystal_description       columnar
_cell_formula_units_Z            4
loop_
_atom_site_label
_atom_site_type_symbol
_atom_site_fract_x
_atom_site_fract_y
_atom_site_fract_z
Br1 Br 0.73046(5) 0.02627(3) 0.17904(4)
C1 C 0.6104(3) 0.1363(2) 0.3402(3)
C2 C 0.5033(4) 0.0638(3) 0.3566(4)
H1 H 0.5496 0.0057 0.3682
H2 H 0.4674 0.0766 0.4288
C3 C 0.3816(5) 0.0661(3) 0.2364(4)
H3 H 0.3432 0.0067 0.2142
H4 H 0.3038 0.1042 0.2463
C4 C 0.4448(5) 0.1022(3) 0.1362(4)
H5 H 0.3924 0.1550 0.0983
H6 H 0.4387 0.0580 0.0708
C5 C 0.6020(4) 0.1251(2) 0.1994(3)
H7 H 0.6293 0.1806 0.1650
C6 C 0.5581(3) 0.2273(2) 0.3720(3)
C7 C 0.5639(4) 0.2466(3) 0.4965(3)
H8 H 0.6012 0.2046 0.5590
C8 C 0.5146(4) 0.3278(4) 0.5287(5)
H9 H 0.5198 0.3398 0.6125
C9 C 0.4585(5) 0.3902(3) 0.4387(6)
H10 H 0.4232 0.4439 0.4604
C10 C 0.4549(5) 0.3730(3) 0.3182(6)
H11 H 0.4191 0.4160 0.2568
C11 C 0.5033(4) 0.2931(3) 0.2842(4)
H12 H 0.4991 0.2830 0.2000
C12 C 0.7622(4) 0.1201(3) 0.4288(3)
C13 C 0.8893(4) 0.1696(3) 0.4119(4)
C14 C 1.0259(5) 0.1333(4) 0.4671(5)
H13 H 1.0339 0.0803 0.5124
C15 C 1.1487(6) 0.1753(6) 0.4548(7)
H14 H 1.2392 0.1500 0.4903
C16 C 1.1385(7) 0.2527(6) 0.3915(8)
H15 H 1.2226 0.2806 0.3847
C17 C 1.0058(6) 0.2919(4) 0.3365(6)
H16 H 0.9999 0.3457 0.2935
C18 C 0.8817(5) 0.2489(3) 0.3472(4)
H17 H 0.7915 0.2740 0.3100
O1 O 0.7772(3) 0.0664(3) 0.5134(3)
loop_
_geom_bond_atom_site_label_1
_geom_bond_atom_site_label_2
_geom_bond_site_symmetry_1
_geom_bond_site_symmetry_2
Br1 C5 1_555 1_555
C1 C2 1_555 1_555
C2 H1 1_555 1_555
H2 C2 1_555 1_555
C3 C2 1_555 1_555
H3 C3 1_555 1_555
H4 C3 1_555 1_555
C4 C3 1_555 1_555
H5 C4 1_555 1_555
H6 C4 1_555 1_555
C5 C1 1_555 1_555
H7 C5 1_555 1_555
C6 C1 1_555 1_555
C7 C6 1_555 1_555
H8 C7 1_555 1_555
C8 C7 1_555 1_555
H9 C8 1_555 1_555
C9 C8 1_555 1_555
H10 C9 1_555 1_555
C10 C9 1_555 1_555
H11 C10 1_555 1_555
C11 C6 1_555 1_555
H12 C11 1_555 1_555
C12 C1 1_555 1_555
C13 C12 1_555 1_555
C14 C13 1_555 1_555
H13 C14 1_555 1_555
C15 C14 1_555 1_555
H14 C15 1_555 1_555
C16 C15 1_555 1_555
H15 C16 1_555 1_555
C17 C16 1_555 1_555
H16 C17 1_555 1_555
C18 C13 1_555 1_555
H17 C18 1_555 1_555
O1 C12 1_555 1_555
C4 C5 1_555 1_555
C10 C11 1_555 1_555
C17 C18 1_555 1_555

#END
