
#######################################################################
#
#                 Cambridge Crystallographic Data Centre
#                                CCDC 
#
#######################################################################
#
# If this CIF has been generated from an entry in the Cambridge 
# Structural Database, then it will include bibliographic, chemical, 
# crystal, experimental, refinement or atomic coordinate data resulting 
# from the CCDC's data processing and validation procedures.
#
#######################################################################

data_LAZFAW
_chemical_formula_moiety         'C54 H56 B2,2(C1 H1 Cl3)'
_chemical_name_systematic        
"2,2''-bis(dimesitylboryl)-1,1':4',1''-terphenyl chloroform solvate"
_symmetry_cell_setting           monoclinic
_symmetry_space_group_name_H-M   'P 21/n'
_symmetry_Int_Tables_number      14
_space_group_name_Hall           '-P 2yn'
loop_
_symmetry_equiv_pos_site_id
_symmetry_equiv_pos_as_xyz
1 x,y,z
2 1/2-x,1/2+y,1/2-z
3 -x,-y,-z
4 1/2+x,1/2-y,1/2+z
_cell_length_a                   15.3919(7)
_cell_length_b                   8.1281(4)
_cell_length_c                   20.3055(13)
_cell_angle_alpha                90
_cell_angle_beta                 92.736(5)
_cell_angle_gamma                90
_cell_volume                     2537.46
_exptl_crystal_colour            colorless
_exptl_crystal_description       block
_cell_formula_units_Z            2
loop_
_atom_site_label
_atom_site_type_symbol
_atom_site_fract_x
_atom_site_fract_y
_atom_site_fract_z
C1 C 0.82845(16) 0.2253(3) 0.07954(12)
C2 C 0.79910(18) 0.0902(3) 0.11601(13)
H1 H 0.7400 0.0814 0.1230
C3 C 0.85494(19) -0.0297(3) 0.14173(14)
H2 H 0.8331 -0.1191 0.1643
C4 C 0.94364(19) -0.0156(3) 0.13367(14)
H3 H 0.9817 -0.0947 0.1513
C5 C 0.97512(18) 0.1172(3) 0.09923(14)
H4 H 1.0347 0.1265 0.0943
C6 C 0.91959(16) 0.2374(3) 0.07173(13)
C7 C 0.96006(15) 0.3727(3) 0.03520(13)
C8 C 0.94163(16) 0.5381(3) 0.04736(13)
H5 H 0.9029 0.5650 0.0794
C9 C 1.01981(16) 0.3379(3) -0.01244(13)
H6 H 1.0340 0.2290 -0.0209
C10 C 0.66932(16) 0.3669(3) 0.08669(13)
C11 C 0.58608(16) 0.3352(3) 0.05574(13)
C12 C 0.51103(16) 0.3834(3) 0.08620(14)
H7 H 0.4572 0.3640 0.0648
C13 C 0.51391(17) 0.4595(3) 0.14754(14)
C14 C 0.59533(17) 0.4812(3) 0.17931(14)
H8 H 0.5985 0.5273 0.2213
C15 C 0.67198(16) 0.4365(3) 0.15058(13)
C16 C 0.57734(18) 0.2433(4) -0.00856(14)
H9 H 0.5994 0.1336 -0.0025
H10 H 0.6099 0.2991 -0.0410
H11 H 0.5172 0.2386 -0.0232
C17 C 0.43218(19) 0.5136(4) 0.17968(17)
H12 H 0.3830 0.4989 0.1493
H13 H 0.4371 0.6276 0.1916
H14 H 0.4244 0.4488 0.2185
C18 C 0.75712(17) 0.4724(4) 0.18844(14)
H15 H 0.7460 0.5362 0.2269
H16 H 0.7947 0.5330 0.1609
H17 H 0.7846 0.3707 0.2015
C19 C 0.76465(15) 0.4317(3) -0.02026(13)
C20 C 0.79330(16) 0.3492(3) -0.07651(13)
C21 C 0.80572(17) 0.4339(3) -0.13477(14)
H18 H 0.8239 0.3762 -0.1712
C22 C 0.79168(17) 0.6027(4) -0.14004(14)
C23 C 0.76247(16) 0.6829(3) -0.08534(14)
H19 H 0.7529 0.7957 -0.0878
C24 C 0.74683(16) 0.6023(3) -0.02690(13)
C25 C 0.71445(19) 0.7071(3) 0.02894(14)
H20 H 0.7137 0.8206 0.0159
H21 H 0.7525 0.6935 0.0674
H22 H 0.6567 0.6732 0.0387
C26 C 0.80899(19) 0.1644(3) -0.07654(14)
H23 H 0.8031 0.1236 -0.1209
H24 H 0.7672 0.1113 -0.0501
H25 H 0.8666 0.1417 -0.0586
C27 C 0.8057(2) 0.6941(4) -0.20337(17)
H26 H 0.7776 0.7994 -0.2021
H27 H 0.7814 0.6317 -0.2400
H28 H 0.8668 0.7093 -0.2083
B1 B 0.75546(18) 0.3414(3) 0.04809(15)
C1B C 1.17155(16) 0.7747(3) -0.07954(12)
C2B C 1.20090(18) 0.9098(3) -0.11601(13)
H1B H 1.2600 0.9186 -0.1230
C3B C 1.14506(19) 1.0297(3) -0.14173(14)
H2B H 1.1669 1.1191 -0.1643
C4B C 1.05636(19) 1.0156(3) -0.13367(14)
H3B H 1.0183 1.0947 -0.1513
C5B C 1.02488(18) 0.8828(3) -0.09923(14)
H4B H 0.9653 0.8735 -0.0943
C6B C 1.08041(16) 0.7626(3) -0.07173(13)
C7B C 1.03994(15) 0.6273(3) -0.03520(13)
C8B C 1.05837(16) 0.4619(3) -0.04736(13)
H5B H 1.0971 0.4350 -0.0794
C9B C 0.98019(16) 0.6621(3) 0.01244(13)
H6B H 0.9660 0.7710 0.0209
C10B C 1.33068(16) 0.6331(3) -0.08669(13)
C11B C 1.41392(16) 0.6648(3) -0.05574(13)
C12B C 1.48897(16) 0.6166(3) -0.08620(14)
H7B H 1.5428 0.6360 -0.0648
C13B C 1.48609(17) 0.5405(3) -0.14754(14)
C14B C 1.40467(17) 0.5188(3) -0.17931(14)
H8B H 1.4015 0.4727 -0.2213
C15B C 1.32802(16) 0.5635(3) -0.15058(13)
C16B C 1.42266(18) 0.7567(4) 0.00856(14)
H9B H 1.4006 0.8664 0.0025
H10B H 1.3901 0.7009 0.0410
H11B H 1.4828 0.7614 0.0232
C17B C 1.56782(19) 0.4864(4) -0.17968(17)
H12B H 1.6170 0.5011 -0.1493
H13B H 1.5629 0.3724 -0.1916
H14B H 1.5756 0.5512 -0.2185
C18B C 1.24288(17) 0.5276(4) -0.18844(14)
H15B H 1.2540 0.4638 -0.2269
H16B H 1.2053 0.4670 -0.1609
H17B H 1.2154 0.6293 -0.2015
C19B C 1.23535(15) 0.5683(3) 0.02026(13)
C20B C 1.20670(16) 0.6508(3) 0.07651(13)
C21B C 1.19428(17) 0.5661(3) 0.13477(14)
H18B H 1.1761 0.6238 0.1712
C22B C 1.20832(17) 0.3973(4) 0.14004(14)
C23B C 1.23753(16) 0.3171(3) 0.08534(14)
H19B H 1.2471 0.2043 0.0878
C24B C 1.25317(16) 0.3977(3) 0.02690(13)
C25B C 1.28555(19) 0.2929(3) -0.02894(14)
H20B H 1.2863 0.1794 -0.0159
H21B H 1.2475 0.3065 -0.0674
H22B H 1.3433 0.3268 -0.0387
C26B C 1.19101(19) 0.8356(3) 0.07654(14)
H23B H 1.1969 0.8764 0.1209
H24B H 1.2328 0.8887 0.0501
H25B H 1.1334 0.8583 0.0586
C27B C 1.1943(2) 0.3059(4) 0.20337(17)
H26B H 1.2224 0.2006 0.2021
H27B H 1.2186 0.3683 0.2400
H28B H 1.1332 0.2907 0.2083
B1B B 1.24454(18) 0.6586(3) -0.04809(15)
Cl1 Cl 0.58142(6) -0.11206(10) 0.16280(5)
Cl2 Cl 0.41148(5) 0.03688(12) 0.15316(5)
Cl3 Cl 0.51543(6) 0.05779(15) 0.27473(5)
C28 C 0.51806(19) 0.0520(4) 0.18858(15)
H29 H 0.5439 0.1548 0.1736
loop_
_geom_bond_atom_site_label_1
_geom_bond_atom_site_label_2
_geom_bond_site_symmetry_1
_geom_bond_site_symmetry_2
C1 C2 1_555 1_555
C2 H1 1_555 1_555
C3 C2 1_555 1_555
H2 C3 1_555 1_555
C4 C3 1_555 1_555
H3 C4 1_555 1_555
C5 C4 1_555 1_555
H4 C5 1_555 1_555
C6 C1 1_555 1_555
C7 C6 1_555 1_555
C8 C7 1_555 1_555
H5 C8 1_555 1_555
C9 C7 1_555 1_555
H6 C9 1_555 1_555
C10 C11 1_555 1_555
C11 C12 1_555 1_555
C12 H7 1_555 1_555
C13 C12 1_555 1_555
C14 C13 1_555 1_555
H8 C14 1_555 1_555
C15 C10 1_555 1_555
C16 C11 1_555 1_555
H9 C16 1_555 1_555
H10 C16 1_555 1_555
H11 C16 1_555 1_555
C17 C13 1_555 1_555
H12 C17 1_555 1_555
H13 C17 1_555 1_555
H14 C17 1_555 1_555
C18 C15 1_555 1_555
H15 C18 1_555 1_555
H16 C18 1_555 1_555
H17 C18 1_555 1_555
C19 C20 1_555 1_555
C20 C21 1_555 1_555
C21 H18 1_555 1_555
C22 C21 1_555 1_555
C23 C22 1_555 1_555
H19 C23 1_555 1_555
C24 C19 1_555 1_555
C25 C24 1_555 1_555
H20 C25 1_555 1_555
H21 C25 1_555 1_555
H22 C25 1_555 1_555
C26 C20 1_555 1_555
H23 C26 1_555 1_555
H24 C26 1_555 1_555
H25 C26 1_555 1_555
C27 C22 1_555 1_555
H26 C27 1_555 1_555
H27 C27 1_555 1_555
H28 C27 1_555 1_555
B1 C1 1_555 1_555
Cl1 C28 1_555 1_555
Cl2 C28 1_555 1_555
Cl3 C28 1_555 1_555
C28 H29 1_555 1_555
C1B C2B 1_555 1_555
C2B H1B 1_555 1_555
C3B C2B 1_555 1_555
H2B C3B 1_555 1_555
C4B C3B 1_555 1_555
H3B C4B 1_555 1_555
C5B C4B 1_555 1_555
H4B C5B 1_555 1_555
C6B C1B 1_555 1_555
C7B C6B 1_555 1_555
C8B C9 1_555 1_555
H5B C8B 1_555 1_555
C9B C8 1_555 1_555
H6B C9B 1_555 1_555
C10B C11B 1_555 1_555
C11B C12B 1_555 1_555
C12B H7B 1_555 1_555
C13B C12B 1_555 1_555
C14B C13B 1_555 1_555
H8B C14B 1_555 1_555
C15B C10B 1_555 1_555
C16B C11B 1_555 1_555
H9B C16B 1_555 1_555
H10B C16B 1_555 1_555
H11B C16B 1_555 1_555
C17B C13B 1_555 1_555
H12B C17B 1_555 1_555
H13B C17B 1_555 1_555
H14B C17B 1_555 1_555
C18B C15B 1_555 1_555
H15B C18B 1_555 1_555
H16B C18B 1_555 1_555
H17B C18B 1_555 1_555
C19B C20B 1_555 1_555
C20B C21B 1_555 1_555
C21B H18B 1_555 1_555
C22B C21B 1_555 1_555
C23B C22B 1_555 1_555
H19B C23B 1_555 1_555
C24B C19B 1_555 1_555
C25B C24B 1_555 1_555
H20B C25B 1_555 1_555
H21B C25B 1_555 1_555
H22B C25B 1_555 1_555
C26B C20B 1_555 1_555
H23B C26B 1_555 1_555
H24B C26B 1_555 1_555
H25B C26B 1_555 1_555
C27B C22B 1_555 1_555
H26B C27B 1_555 1_555
H27B C27B 1_555 1_555
H28B C27B 1_555 1_555
B1B C1B 1_555 1_555
C5 C6 1_555 1_555
C10 B1 1_555 1_555
C14 C15 1_555 1_555
C19 B1 1_555 1_555
C23 C24 1_555 1_555
C5B C6B 1_555 1_555
C7B C8B 1_555 1_555
C7B C9B 1_555 1_555
C10B B1B 1_555 1_555
C14B C15B 1_555 1_555
C19B B1B 1_555 1_555
C23B C24B 1_555 1_555

#END
