
#######################################################################
#
#                 Cambridge Crystallographic Data Centre
#                                CCDC 
#
#######################################################################
#
# If this CIF has been generated from an entry in the Cambridge 
# Structural Database, then it will include bibliographic, chemical, 
# crystal, experimental, refinement or atomic coordinate data resulting 
# from the CCDC's data processing and validation procedures.
#
#######################################################################

data_LAZFUQ
_chemical_formula_moiety         'C48 H58 B2 N2 S2 Si2'
_chemical_name_systematic        
5,7-dihexyl-4,8-diphenyl-2,10-bis[(trimethylsilyl)ethynyl]-4,5,7,8-tetrahydrobisthieno[3,2-c:3,2-c']benzo[1,2-e:5,4-e']bis[1,2]azaborinine
_symmetry_cell_setting           triclinic
_symmetry_space_group_name_H-M   'P -1'
_symmetry_Int_Tables_number      2
_space_group_name_Hall           '-P 1'
loop_
_symmetry_equiv_pos_site_id
_symmetry_equiv_pos_as_xyz
1 x,y,z
2 -x,-y,-z
_cell_length_a                   8.3587(3)
_cell_length_b                   16.6395(5)
_cell_length_c                   17.2793(6)
_cell_angle_alpha                97.127(2)
_cell_angle_beta                 98.680(2)
_cell_angle_gamma                103.468(2)
_cell_volume                     2278.52
_exptl_crystal_colour            colorless
_exptl_crystal_description       prism
_cell_formula_units_Z            2
_exptl_crystal_recrystallization_method dichloromethane/hexane
loop_
_atom_site_label
_atom_site_type_symbol
_atom_site_fract_x
_atom_site_fract_y
_atom_site_fract_z
S1 S 0.46333(4) 0.32980(2) 0.59229(2)
S2 S 0.84786(5) 0.62731(2) 0.68384(2)
Si1 Si 0.13425(6) 0.09908(3) 0.74584(3)
Si2 Si 1.1589(5) 0.83774(19) 0.96622(8)
N1 N 0.92632(14) 0.63240(7) 0.43024(7)
N2 N 0.60068(15) 0.33980(8) 0.34918(7)
C1 C 0.79715(17) 0.55462(9) 0.52533(8)
C2 C 0.98018(17) 0.69701(9) 0.57465(8)
C3 C 0.82870(17) 0.55823(9) 0.44756(8)
C4 C 0.69264(17) 0.48281(9) 0.54025(9)
H1 H 0.6680 0.4820 0.5921
C5 C 0.75701(17) 0.48710(9) 0.38953(8)
H2 H 0.7757 0.4891 0.3368
C6 C 0.62238(17) 0.41216(9) 0.48327(8)
C7 C 0.92634(18) 0.63669(9) 0.34566(8)
H3 H 0.9579 0.6964 0.3395
H4 H 0.8109 0.6120 0.3157
C8 C 0.65894(17) 0.41315(9) 0.40606(8)
C9 C 0.87406(17) 0.62493(9) 0.58671(8)
C10 C 1.08267(18) 0.86508(9) 0.50848(9)
H5 H 0.9992 0.8623 0.5405
C11 C 0.45685(17) 0.26457(9) 0.44777(9)
C12 C 0.36250(18) 0.20045(9) 0.48275(9)
H6 H 0.3094 0.1455 0.4547
C13 C 1.10955(17) 0.79022(9) 0.47233(9)
C14 C 0.51865(17) 0.33809(9) 0.50122(9)
C15 C 1.23538(18) 0.79818(9) 0.42708(9)
H7 H 1.2582 0.7490 0.4021
C16 C 0.51475(19) 0.11171(10) 0.33281(9)
H8 H 0.5773 0.1198 0.3851
C17 C 0.35583(18) 0.22541(9) 0.56007(9)
C18 C 1.04358(18) 0.59218(9) 0.30853(8)
H9 H 1.1613 0.6212 0.3328
H10 H 1.0217 0.5338 0.3191
C19 C 1.29705(19) 0.94826(10) 0.45301(10)
H11 H 1.3597 1.0014 0.4459
C20 C 1.17450(19) 0.94298(9) 0.49879(10)
H12 H 1.1530 0.9926 0.5236
C21 C 0.45778(18) 0.17812(9) 0.30635(9)
C22 C 1.04458(19) 0.75439(9) 0.64717(9)
H13 H 1.1214 0.8073 0.6508
C23 C 0.28332(19) 0.18009(10) 0.61605(10)
C24 C 0.5429(2) 0.37788(10) 0.21358(9)
H14 H 0.4237 0.3498 0.2112
H15 H 0.5601 0.4384 0.2328
C25 C 0.98564(19) 0.72615(10) 0.71069(9)
C26 C 0.2278(2) 0.14620(10) 0.66727(10)
C27 C 0.65181(18) 0.34206(9) 0.27156(9)
H16 H 0.6488 0.2844 0.2476
H17 H 0.7690 0.3761 0.2798
C28 C 1.32813(19) 0.87576(10) 0.41748(10)
H18 H 1.4133 0.8791 0.3864
C29 C 0.4822(2) 0.03467(10) 0.28466(11)
H19 H 0.5244 -0.0090 0.3035
C30 C 0.3619(2) 0.16250(11) 0.23008(10)
H20 H 0.3192 0.2058 0.2106
C31 C 1.0310(2) 0.76265(11) 0.79180(10)
C32 C 0.3883(2) 0.02150(11) 0.20929(11)
H21 H 0.3654 -0.0314 0.1761
C33 C 0.3277(2) 0.08525(12) 0.18223(11)
H22 H 0.2622 0.0760 0.1305
C34 C 1.0168(2) 0.59179(12) 0.21942(10)
H23 H 1.0454 0.6505 0.2099
H24 H 0.8966 0.5672 0.1968
C35 C -0.0200(2) 0.15654(12) 0.77234(11)
H25 H 0.0377 0.2152 0.7937
H26 H -0.0763 0.1310 0.8125
H27 H -0.1032 0.1537 0.7249
B1 B 1.0060(2) 0.70463(10) 0.48969(10)
C36 C 1.1192(3) 0.54342(13) 0.17522(11)
H28 H 1.0813 0.4835 0.1796
H29 H 1.0955 0.5480 0.1183
B2 B 0.5035(2) 0.26303(10) 0.36566(10)
C37 C 1.0706(3) 0.78981(13) 0.86146(11)
C38 C 0.0347(3) -0.01295(12) 0.70775(14)
H30 H -0.0569 -0.0183 0.6632
H31 H -0.0098 -0.0399 0.7501
H32 H 0.1178 -0.0401 0.6898
C39 C 0.5839(3) 0.36613(14) 0.13137(11)
H33 H 0.5952 0.3085 0.1170
H34 H 0.6911 0.4061 0.1299
C40 C 1.3059(3) 0.57256(16) 0.20465(12)
H35 H 1.3612 0.5392 0.1711
H36 H 1.3310 0.5612 0.2595
C41 C 0.3043(3) 0.11414(16) 0.83307(12)
H37 H 0.3902 0.0873 0.8180
H38 H 0.2580 0.0889 0.8759
H39 H 0.3542 0.1742 0.8514
C42 C 0.4340(5) 0.3824(2) 0.06922(18)
H40 H 0.3261 0.3454 0.0743
H41 H 0.4282 0.4412 0.0821
C43 C 1.3811(3) 0.6657(2) 0.20432(17)
H42 H 1.3556 0.6779 0.1504
H43 H 1.5027 0.6792 0.2220
H44 H 1.3330 0.6995 0.2404
C44 C 0.4610(4) 0.3656(2) -0.01578(16)
H45 H 0.5698 0.4021 -0.0204
H46 H 0.4662 0.3067 -0.0285
C45 C 0.3238(5) 0.3810(3) -0.0752(2)
H47 H 0.3478 0.3705 -0.1288
H48 H 0.3181 0.4393 -0.0629
H49 H 0.2163 0.3433 -0.0724
C46 C 1.1838(12) 0.7556(5) 1.0234(3)
H50 H 1.0789 0.7114 1.0128
H51 H 1.2121 0.7791 1.0801
H52 H 1.2737 0.7320 1.0083
C47 C 1.0137(10) 0.8927(5) 1.0031(3)
H53 H 0.9987 0.9357 0.9707
H54 H 1.0588 0.9193 1.0584
H55 H 0.9054 0.8527 1.0000
C48 C 1.3655(9) 0.9017(5) 0.9750(3)
H56 H 1.4290 0.8718 0.9439
H57 H 1.4208 0.9148 1.0309
H58 H 1.3605 0.9538 0.9550
H59? H 0.7072 0.3861 0.1387
H60? H 0.5561 0.3048 0.1136
C49? C 0.5210(10) 0.3989(4) 0.0671(3)
H61? H 0.5933 0.3995 0.0266
H62? H 0.5138 0.4568 0.0840
C50? C 0.3500(10) 0.3421(5) 0.0344(4)
H63? H 0.2820 0.3402 0.0766
H64? H 0.3604 0.2846 0.0180
C51? C 0.2608(12) 0.3705(8) -0.0359(6)
H65? H 0.3284 0.3733 -0.0777
H66? H 0.2446 0.4261 -0.0193
H67? H 0.1517 0.3306 -0.0564
Si3? Si 1.0985(10) 0.8121(6) 0.9684(2)
C52? C 0.923(2) 0.8471(10) 1.0014(6)
H68? H 0.9001 0.8916 0.9727
H69? H 0.9526 0.8685 1.0586
H70? H 0.8235 0.7997 0.9906
C53? C 1.1102(18) 0.7169(11) 1.0092(9)
H71? H 1.0015 0.6755 0.9935
H72? H 1.1392 0.7304 1.0673
H73? H 1.1960 0.6937 0.9888
C54? C 1.265(4) 0.9145(13) 0.9764(17)
H74? H 1.3648 0.9025 0.9596
H75? H 1.2939 0.9434 1.0315
H76? H 1.2210 0.9502 0.9421
loop_
_geom_bond_atom_site_label_1
_geom_bond_atom_site_label_2
_geom_bond_site_symmetry_1
_geom_bond_site_symmetry_2
S1 C14 1_555 1_555
S2 C9 1_555 1_555
Si1 C26 1_555 1_555
Si2 C37 1_555 1_555
N1 C3 1_555 1_555
N2 C8 1_555 1_555
C1 C3 1_555 1_555
C2 C9 1_555 1_555
C3 C5 1_555 1_555
C4 C1 1_555 1_555
H1 C4 1_555 1_555
C5 H2 1_555 1_555
C6 C4 1_555 1_555
C7 N1 1_555 1_555
H3 C7 1_555 1_555
H4 C7 1_555 1_555
C8 C5 1_555 1_555
C9 C1 1_555 1_555
C10 H5 1_555 1_555
C11 C12 1_555 1_555
C12 H6 1_555 1_555
C13 C10 1_555 1_555
C14 C6 1_555 1_555
C15 C13 1_555 1_555
H7 C15 1_555 1_555
C16 H8 1_555 1_555
C17 S1 1_555 1_555
C18 C7 1_555 1_555
H9 C18 1_555 1_555
H10 C18 1_555 1_555
C19 H11 1_555 1_555
C20 C10 1_555 1_555
H12 C20 1_555 1_555
C21 C16 1_555 1_555
C22 C2 1_555 1_555
H13 C22 1_555 1_555
C23 C17 1_555 1_555
C24 H14 1_555 1_555
H15 C24 1_555 1_555
C25 S2 1_555 1_555
C26 C23 1_555 1_555
C27 N2 1_555 1_555
H16 C27 1_555 1_555
H17 C27 1_555 1_555
C28 C15 1_555 1_555
H18 C28 1_555 1_555
C29 C16 1_555 1_555
H19 C29 1_555 1_555
C30 C21 1_555 1_555
H20 C30 1_555 1_555
C31 C25 1_555 1_555
C32 C29 1_555 1_555
H21 C32 1_555 1_555
C33 C30 1_555 1_555
H22 C33 1_555 1_555
C34 C18 1_555 1_555
H23 C34 1_555 1_555
H24 C34 1_555 1_555
C35 Si1 1_555 1_555
H25 C35 1_555 1_555
H26 C35 1_555 1_555
H27 C35 1_555 1_555
B1 N1 1_555 1_555
C36 C34 1_555 1_555
H28 C36 1_555 1_555
H29 C36 1_555 1_555
B2 N2 1_555 1_555
C37 C31 1_555 1_555
C38 Si1 1_555 1_555
H30 C38 1_555 1_555
H31 C38 1_555 1_555
H32 C38 1_555 1_555
C39 C24 1_555 1_555
H33 C39 1_555 1_555
H34 C39 1_555 1_555
C40 C36 1_555 1_555
H35 C40 1_555 1_555
H36 C40 1_555 1_555
C41 Si1 1_555 1_555
H37 C41 1_555 1_555
H38 C41 1_555 1_555
H39 C41 1_555 1_555
C42 C39 1_555 1_555
H40 C42 1_555 1_555
H41 C42 1_555 1_555
C43 C40 1_555 1_555
H42 C43 1_555 1_555
H43 C43 1_555 1_555
H44 C43 1_555 1_555
C44 C42 1_555 1_555
H45 C44 1_555 1_555
H46 C44 1_555 1_555
C45 C44 1_555 1_555
H47 C45 1_555 1_555
H48 C45 1_555 1_555
H49 C45 1_555 1_555
C46 Si2 1_555 1_555
H50 C46 1_555 1_555
H51 C46 1_555 1_555
H52 C46 1_555 1_555
C47 Si2 1_555 1_555
H53 C47 1_555 1_555
H54 C47 1_555 1_555
H55 C47 1_555 1_555
C48 Si2 1_555 1_555
H56 C48 1_555 1_555
H57 C48 1_555 1_555
H58 C48 1_555 1_555
C2 B1 1_555 1_555
C6 C8 1_555 1_555
C11 C14 1_555 1_555
C11 B2 1_555 1_555
C12 C17 1_555 1_555
C13 B1 1_555 1_555
C19 C20 1_555 1_555
C19 C28 1_555 1_555
C21 B2 1_555 1_555
C22 C25 1_555 1_555
C24 C27 1_555 1_555
C32 C33 1_555 1_555

#END
