
#######################################################################
#
#                 Cambridge Crystallographic Data Centre
#                                CCDC 
#
#######################################################################
#
# If this CIF has been generated from an entry in the Cambridge 
# Structural Database, then it will include bibliographic, chemical, 
# crystal, experimental, refinement or atomic coordinate data resulting 
# from the CCDC's data processing and validation procedures.
#
#######################################################################

data_LAZFOK
_chemical_formula_moiety         'C32 H64 K2 O14 2+,C54 H54 B2 2-,2(C4 H8 O1)'
_chemical_name_systematic        
"bis(\m-18-crown-6)-bis(tetrahydrofuran)-di-potassium (5,5,11,11-tetramesityl-5,5a,11,11a-tetrahydrodibenzo[d,d']benzo[1,2-b:4,5-b']bisborol-5,11-diide) tetrahydrofuran solvate"
_symmetry_cell_setting           triclinic
_symmetry_space_group_name_H-M   'P -1'
_symmetry_Int_Tables_number      2
_space_group_name_Hall           '-P 1'
loop_
_symmetry_equiv_pos_site_id
_symmetry_equiv_pos_as_xyz
1 x,y,z
2 -x,-y,-z
_cell_length_a                   12.0148(10)
_cell_length_b                   12.4531(11)
_cell_length_c                   15.4631(15)
_cell_angle_alpha                95.007(8)
_cell_angle_beta                 105.069(8)
_cell_angle_gamma                93.255(7)
_cell_volume                     2217.92
_exptl_crystal_colour            colorless
_exptl_crystal_description       needle
_cell_formula_units_Z            1
loop_
_atom_site_label
_atom_site_type_symbol
_atom_site_fract_x
_atom_site_fract_y
_atom_site_fract_z
K1 K 0.88329(11) 0.44881(11) 0.38088(9)
O1 O 0.7773(3) 0.6025(3) 0.4590(3)
O2 O 0.6782(3) 0.3868(3) 0.4182(3)
O3 O 0.7614(4) 0.2478(4) 0.3011(3)
O4 O 0.9545(4) 0.3208(4) 0.2607(3)
O5 O 1.0624(3) 0.5292(3) 0.3126(3)
O6 O 1.0128(3) 0.6543(3) 0.4636(3)
O7 O 0.7526(4) 0.5335(4) 0.2370(3)
C1 C 0.9102(6) 0.2133(5) 0.2296(5)
H1 H 0.9733 0.1675 0.2315
H2 H 0.8635 0.2093 0.1678
C2 C 0.8375(5) 0.1748(5) 0.2889(5)
H3 H 0.7952 0.1063 0.2615
H4 H 0.8876 0.1632 0.3469
C3 C 0.6860(6) 0.2096(5) 0.3525(5)
H5 H 0.7310 0.1945 0.4114
H6 H 0.6411 0.1436 0.3218
C4 C 0.6080(5) 0.2959(5) 0.3622(4)
H7 H 0.5698 0.3171 0.3036
H8 H 0.5493 0.2699 0.3899
C5 C 0.6120(5) 0.4774(5) 0.4267(4)
H9 H 0.5447 0.4551 0.4463
H10 H 0.5857 0.5054 0.3688
C6 C 0.6863(5) 0.5630(5) 0.4939(4)
H11 H 0.6405 0.6216 0.5054
H12 H 0.7181 0.5332 0.5502
C7 C 0.8444(5) 0.6950(5) 0.5116(4)
H13 H 0.8843 0.6765 0.5708
H14 H 0.7948 0.7519 0.5190
C8 C 0.9295(5) 0.7321(5) 0.4638(5)
H15 H 0.8896 0.7423 0.4023
H16 H 0.9687 0.8011 0.4934
C9 C 1.0973(5) 0.6867(5) 0.4167(4)
H17 H 1.1710 0.6605 0.4454
H18 H 1.1076 0.7650 0.4221
C10 C 1.0634(5) 0.6450(5) 0.3199(4)
H19 H 0.9873 0.6662 0.2912
H20 H 1.1180 0.6748 0.2901
C11 C 1.0317(6) 0.4836(5) 0.2212(4)
H21 H 1.0853 0.5132 0.1904
H22 H 0.9546 0.5013 0.1911
C12 C 1.0353(6) 0.3627(5) 0.2178(5)
H23 H 1.0165 0.3310 0.1557
H24 H 1.1123 0.3448 0.2480
C13 C 0.7040(7) 0.4547(7) 0.1619(6)
H25 H 0.7557 0.4489 0.1231
H26 H 0.6928 0.3846 0.1825
C14 C 0.6022(9) 0.4861(7) 0.1164(7)
H27 H 0.5398 0.4481 0.1334
H28 H 0.5915 0.4684 0.0522
C15 C 0.5992(6) 0.6039(5) 0.1365(5)
H29 H 0.5233 0.6222 0.1407
H30 H 0.6212 0.6435 0.0914
C16 C 0.6871(5) 0.6257(5) 0.2257(4)
H31 H 0.7372 0.6900 0.2270
H32 H 0.6492 0.6366 0.2737
K1A K 1.11671(11) 0.55119(11) 0.61912(9)
O1A O 1.2227(3) 0.3975(3) 0.5410(3)
O2A O 1.3218(3) 0.6132(3) 0.5818(3)
O3A O 1.2386(4) 0.7522(4) 0.6989(3)
O4A O 1.0455(4) 0.6792(4) 0.7393(3)
O5A O 0.9376(3) 0.4708(3) 0.6874(3)
O6A O 0.9872(3) 0.3457(3) 0.5364(3)
O7A O 1.2474(4) 0.4665(4) 0.7630(3)
C1A C 1.0898(6) 0.7867(5) 0.7704(5)
H1A H 1.0267 0.8325 0.7685
H2A H 1.1365 0.7907 0.8322
C2A C 1.1625(5) 0.8252(5) 0.7111(5)
H3A H 1.2048 0.8937 0.7385
H4A H 1.1124 0.8368 0.6531
C3A C 1.3140(6) 0.7904(5) 0.6475(5)
H5A H 1.2690 0.8055 0.5886
H6A H 1.3589 0.8564 0.6782
C4A C 1.3920(5) 0.7041(5) 0.6378(4)
H7A H 1.4302 0.6829 0.6964
H8A H 1.4507 0.7301 0.6101
C5A C 1.3880(5) 0.5226(5) 0.5733(4)
H9A H 1.4553 0.5449 0.5537
H10A H 1.4143 0.4946 0.6312
C6A C 1.3137(5) 0.4370(5) 0.5061(4)
H11A H 1.3595 0.3784 0.4946
H12A H 1.2819 0.4668 0.4498
C7A C 1.1556(5) 0.3050(5) 0.4884(4)
H13A H 1.1157 0.3235 0.4292
H14A H 1.2052 0.2481 0.4810
C8A C 1.0705(5) 0.2679(5) 0.5362(5)
H15A H 1.1104 0.2577 0.5977
H16A H 1.0313 0.1989 0.5066
C9A C 0.9027(5) 0.3133(5) 0.5833(4)
H17A H 0.8290 0.3395 0.5546
H18A H 0.8924 0.2350 0.5779
C10A C 0.9366(5) 0.3550(5) 0.6801(4)
H19A H 1.0127 0.3338 0.7088
H20A H 0.8820 0.3252 0.7099
C11A C 0.9683(6) 0.5164(5) 0.7788(4)
H21A H 0.9147 0.4868 0.8096
H22A H 1.0454 0.4987 0.8089
C12A C 0.9647(6) 0.6373(5) 0.7822(5)
H23A H 0.9835 0.6690 0.8443
H24A H 0.8877 0.6552 0.7520
C13A C 1.2960(7) 0.5453(7) 0.8381(6)
H25A H 1.2443 0.5511 0.8769
H26A H 1.3072 0.6154 0.8175
C14A C 1.3978(9) 0.5139(7) 0.8836(7)
H27A H 1.4602 0.5519 0.8666
H28A H 1.4085 0.5316 0.9478
C15A C 1.4008(6) 0.3961(5) 0.8635(5)
H29A H 1.4767 0.3778 0.8593
H30A H 1.3788 0.3565 0.9086
C16A C 1.3129(5) 0.3743(5) 0.7743(4)
H31A H 1.2628 0.3100 0.7730
H32A H 1.3508 0.3634 0.7263
O8 O 0.9457(7) 0.7611(8) -0.0144(6)
C17 C 0.9196(13) 0.7343(9) 0.0687(9)
H33 H 0.9874 0.7512 0.1193
H34 H 0.8962 0.6577 0.0643
C18 C 0.8248(10) 0.7989(14) 0.0817(9)
H35 H 0.8279 0.8139 0.1450
H36 H 0.7496 0.7636 0.0495
C19 C 0.8518(10) 0.8991(9) 0.0420(8)
H37 H 0.7821 0.9341 0.0174
H38 H 0.9057 0.9498 0.0867
C20 C 0.9032(10) 0.8597(10) -0.0283(9)
H39 H 0.8454 0.8536 -0.0859
H40 H 0.9654 0.9115 -0.0308
C21 C 0.7591(4) 0.0513(4) 0.6729(4)
C22 C 0.8733(5) 0.0702(5) 0.7273(4)
H41 H 0.8874 0.0964 0.7876
C23 C 0.9655(4) 0.0496(4) 0.6906(4)
H42 H 1.0407 0.0612 0.7274
C24 C 0.9474(5) 0.0123(5) 0.6010(4)
H43 H 1.0092 -0.0036 0.5775
C25 C 0.8342(4) -0.0010(4) 0.5465(4)
H44 H 0.8211 -0.0237 0.4855
C26 C 0.7409(4) 0.0188(4) 0.5806(4)
C27 C 0.6169(4) 0.0073(4) 0.5346(4)
C28 C 0.5502(4) 0.0422(4) 0.5938(4)
C29 C 0.4303(4) 0.0312(4) 0.5564(4)
H45 H 0.3815 0.0495 0.5922
C30 C 0.5821(4) -0.0093(4) 0.7580(4)
C31 C 0.6191(4) -0.1128(4) 0.7742(4)
C32 C 0.5783(5) -0.1730(5) 0.8354(4)
H46 H 0.6043 -0.2411 0.8447
C33 C 0.5029(5) -0.1359(5) 0.8813(4)
C34 C 0.4575(5) -0.0393(5) 0.8589(4)
H47 H 0.4012 -0.0141 0.8851
C35 C 0.4943(5) 0.0219(4) 0.7977(3)
C36 C 0.6991(5) -0.1677(5) 0.7252(4)
H48 H 0.6758 -0.1565 0.6626
H49 H 0.6946 -0.2439 0.7310
H50 H 0.7772 -0.1374 0.7512
C37 C 0.4663(6) -0.1968(5) 0.9512(4)
H51 H 0.4897 -0.1538 1.0085
H52 H 0.5023 -0.2637 0.9557
H53 H 0.3838 -0.2116 0.9338
C38 C 0.4315(5) 0.1246(5) 0.7802(4)
H54 H 0.4665 0.1810 0.8276
H55 H 0.3516 0.1102 0.7785
H56 H 0.4371 0.1472 0.7236
C39 C 0.6566(4) 0.1993(4) 0.7457(4)
C40 C 0.6328(5) 0.2911(5) 0.6976(4)
C41 C 0.6542(5) 0.3958(5) 0.7420(5)
H57 H 0.6359 0.4534 0.7078
C42 C 0.7005(5) 0.4184(5) 0.8332(5)
C43 C 0.7300(5) 0.3284(5) 0.8806(4)
H58 H 0.7649 0.3399 0.9422
C44 C 0.7091(5) 0.2229(5) 0.8392(4)
C45 C 0.7473(5) 0.1356(5) 0.9014(4)
H59 H 0.6858 0.1145 0.9271
H60 H 0.8144 0.1634 0.9486
H61 H 0.7656 0.0739 0.8675
C46 C 0.5857(5) 0.2809(5) 0.5964(4)
H62 H 0.5070 0.2501 0.5800
H63 H 0.6315 0.2348 0.5693
H64 H 0.5886 0.3511 0.5756
C47 C 0.7213(8) 0.5305(5) 0.8832(6)
H65 H 0.7252 0.5830 0.8419
H66 H 0.7929 0.5360 0.9295
H67 H 0.6591 0.5438 0.9100
B1 B 0.6329(5) 0.0732(5) 0.6962(4)
C21A C 0.2409(4) -0.0513(4) 0.3271(4)
C22A C 0.1267(5) -0.0702(5) 0.2727(4)
H41A H 0.1126 -0.0964 0.2124
C23A C 0.0345(4) -0.0496(4) 0.3094(4)
H42A H -0.0407 -0.0612 0.2726
C24A C 0.0526(5) -0.0123(5) 0.3990(4)
H43A H -0.0092 0.0036 0.4225
C25A C 0.1658(4) 0.0010(4) 0.4535(4)
H44A H 0.1789 0.0237 0.5145
C26A C 0.2591(4) -0.0188(4) 0.4194(4)
C27A C 0.3831(4) -0.0073(4) 0.4654(4)
C28A C 0.4498(4) -0.0422(4) 0.4062(4)
C29A C 0.5697(4) -0.0312(4) 0.4436(4)
H45A H 0.6185 -0.0495 0.4078
C30A C 0.4179(4) 0.0093(4) 0.2420(4)
C31A C 0.3809(4) 0.1128(4) 0.2258(4)
C32A C 0.4217(5) 0.1730(5) 0.1646(4)
H46A H 0.3957 0.2411 0.1553
C33A C 0.4971(5) 0.1359(5) 0.1187(4)
C34A C 0.5425(5) 0.0393(5) 0.1411(4)
H47A H 0.5988 0.0141 0.1149
C35A C 0.5057(5) -0.0219(4) 0.2023(3)
C36A C 0.3009(5) 0.1677(5) 0.2748(4)
H48A H 0.3242 0.1565 0.3374
H49A H 0.3054 0.2439 0.2690
H50A H 0.2228 0.1374 0.2488
C37A C 0.5337(6) 0.1968(5) 0.0488(4)
H51A H 0.5103 0.1538 -0.0085
H52A H 0.4977 0.2637 0.0443
H53A H 0.6162 0.2116 0.0662
C38A C 0.5685(5) -0.1246(5) 0.2198(4)
H54A H 0.5335 -0.1810 0.1724
H55A H 0.6484 -0.1102 0.2215
H56A H 0.5629 -0.1472 0.2764
C39A C 0.3434(4) -0.1993(4) 0.2543(4)
C40A C 0.3672(5) -0.2911(5) 0.3024(4)
C41A C 0.3458(5) -0.3958(5) 0.2580(5)
H57A H 0.3641 -0.4534 0.2922
C42A C 0.2995(5) -0.4184(5) 0.1668(5)
C43A C 0.2700(5) -0.3284(5) 0.1194(4)
H58A H 0.2351 -0.3399 0.0578
C44A C 0.2909(5) -0.2229(5) 0.1608(4)
C45A C 0.2527(5) -0.1356(5) 0.0986(4)
H59A H 0.3142 -0.1145 0.0729
H60A H 0.1856 -0.1634 0.0514
H61A H 0.2344 -0.0739 0.1325
C46A C 0.4143(5) -0.2809(5) 0.4036(4)
H62A H 0.4930 -0.2501 0.4200
H63A H 0.3685 -0.2348 0.4307
H64A H 0.4114 -0.3511 0.4244
C47A C 0.2787(8) -0.5305(5) 0.1168(6)
H65A H 0.2748 -0.5830 0.1581
H66A H 0.2071 -0.5360 0.0705
H67A H 0.3409 -0.5438 0.0900
B1A B 0.3671(5) -0.0732(5) 0.3038(4)
loop_
_geom_bond_atom_site_label_1
_geom_bond_atom_site_label_2
_geom_bond_site_symmetry_1
_geom_bond_site_symmetry_2
K1 O1 1_555 1_555
O1 C6 1_555 1_555
O2 K1 1_555 1_555
O3 K1 1_555 1_555
O4 K1 1_555 1_555
O5 K1 1_555 1_555
O6 K1 1_555 1_555
O7 K1 1_555 1_555
C1 O4 1_555 1_555
H1 C1 1_555 1_555
H2 C1 1_555 1_555
C2 O3 1_555 1_555
H3 C2 1_555 1_555
H4 C2 1_555 1_555
C3 O3 1_555 1_555
H5 C3 1_555 1_555
H6 C3 1_555 1_555
C4 O2 1_555 1_555
H7 C4 1_555 1_555
H8 C4 1_555 1_555
C5 O2 1_555 1_555
H9 C5 1_555 1_555
H10 C5 1_555 1_555
C6 C5 1_555 1_555
H11 C6 1_555 1_555
H12 C6 1_555 1_555
C7 O1 1_555 1_555
H13 C7 1_555 1_555
H14 C7 1_555 1_555
C8 O6 1_555 1_555
H15 C8 1_555 1_555
H16 C8 1_555 1_555
C9 O6 1_555 1_555
H17 C9 1_555 1_555
H18 C9 1_555 1_555
C10 O5 1_555 1_555
H19 C10 1_555 1_555
H20 C10 1_555 1_555
C11 O5 1_555 1_555
H21 C11 1_555 1_555
H22 C11 1_555 1_555
C12 O4 1_555 1_555
H23 C12 1_555 1_555
H24 C12 1_555 1_555
C13 O7 1_555 1_555
H25 C13 1_555 1_555
H26 C13 1_555 1_555
C14 C13 1_555 1_555
H27 C14 1_555 1_555
H28 C14 1_555 1_555
C15 C14 1_555 1_555
H29 C15 1_555 1_555
H30 C15 1_555 1_555
C16 O7 1_555 1_555
H31 C16 1_555 1_555
H32 C16 1_555 1_555
O8 C17 1_555 1_555
C17 H33 1_555 1_555
H34 C17 1_555 1_555
C18 C17 1_555 1_555
H35 C18 1_555 1_555
H36 C18 1_555 1_555
C19 C18 1_555 1_555
H37 C19 1_555 1_555
H38 C19 1_555 1_555
C20 O8 1_555 1_555
H39 C20 1_555 1_555
H40 C20 1_555 1_555
C21 C22 1_555 1_555
C22 H41 1_555 1_555
C23 C22 1_555 1_555
H42 C23 1_555 1_555
C24 C23 1_555 1_555
H43 C24 1_555 1_555
C25 C24 1_555 1_555
H44 C25 1_555 1_555
C26 C21 1_555 1_555
C27 C26 1_555 1_555
C28 C27 1_555 1_555
C29 C28 1_555 1_555
H45 C29 1_555 1_555
C30 C31 1_555 1_555
C31 C32 1_555 1_555
C32 H46 1_555 1_555
C33 C32 1_555 1_555
C34 C33 1_555 1_555
H47 C34 1_555 1_555
C35 C30 1_555 1_555
C36 C31 1_555 1_555
H48 C36 1_555 1_555
H49 C36 1_555 1_555
H50 C36 1_555 1_555
C37 C33 1_555 1_555
H51 C37 1_555 1_555
H52 C37 1_555 1_555
H53 C37 1_555 1_555
C38 C35 1_555 1_555
H54 C38 1_555 1_555
H55 C38 1_555 1_555
H56 C38 1_555 1_555
C39 C40 1_555 1_555
C40 C41 1_555 1_555
C41 H57 1_555 1_555
C42 C41 1_555 1_555
C43 C42 1_555 1_555
H58 C43 1_555 1_555
C44 C39 1_555 1_555
C45 C44 1_555 1_555
H59 C45 1_555 1_555
H60 C45 1_555 1_555
H61 C45 1_555 1_555
C46 C40 1_555 1_555
H62 C46 1_555 1_555
H63 C46 1_555 1_555
H64 C46 1_555 1_555
C47 C42 1_555 1_555
H65 C47 1_555 1_555
H66 C47 1_555 1_555
H67 C47 1_555 1_555
B1 C21 1_555 1_555
K1A O6 1_555 1_555
O1A K1A 1_555 1_555
O2A K1A 1_555 1_555
O3A K1A 1_555 1_555
O4A K1A 1_555 1_555
O5A K1A 1_555 1_555
O6A K1 1_555 1_555
O7A K1A 1_555 1_555
C1A O4A 1_555 1_555
H1A C1A 1_555 1_555
H2A C1A 1_555 1_555
C2A O3A 1_555 1_555
H3A C2A 1_555 1_555
H4A C2A 1_555 1_555
C3A O3A 1_555 1_555
H5A C3A 1_555 1_555
H6A C3A 1_555 1_555
C4A O2A 1_555 1_555
H7A C4A 1_555 1_555
H8A C4A 1_555 1_555
C5A O2A 1_555 1_555
H9A C5A 1_555 1_555
H10A C5A 1_555 1_555
C6A O1A 1_555 1_555
H11A C6A 1_555 1_555
H12A C6A 1_555 1_555
C7A O1A 1_555 1_555
H13A C7A 1_555 1_555
H14A C7A 1_555 1_555
C8A O6A 1_555 1_555
H15A C8A 1_555 1_555
H16A C8A 1_555 1_555
C9A O6A 1_555 1_555
H17A C9A 1_555 1_555
H18A C9A 1_555 1_555
C10A O5A 1_555 1_555
H19A C10A 1_555 1_555
H20A C10A 1_555 1_555
C11A O5A 1_555 1_555
H21A C11A 1_555 1_555
H22A C11A 1_555 1_555
C12A O4A 1_555 1_555
H23A C12A 1_555 1_555
H24A C12A 1_555 1_555
C13A O7A 1_555 1_555
H25A C13A 1_555 1_555
H26A C13A 1_555 1_555
C14A C13A 1_555 1_555
H27A C14A 1_555 1_555
H28A C14A 1_555 1_555
C15A C14A 1_555 1_555
H29A C15A 1_555 1_555
H30A C15A 1_555 1_555
C16A O7A 1_555 1_555
H31A C16A 1_555 1_555
H32A C16A 1_555 1_555
C21A C22A 1_555 1_555
C22A H41A 1_555 1_555
C23A C22A 1_555 1_555
H42A C23A 1_555 1_555
C24A C23A 1_555 1_555
H43A C24A 1_555 1_555
C25A C24A 1_555 1_555
H44A C25A 1_555 1_555
C26A C21A 1_555 1_555
C27A C29 1_555 1_555
C28A C27A 1_555 1_555
C29A C27 1_555 1_555
H45A C29A 1_555 1_555
C30A C31A 1_555 1_555
C31A C32A 1_555 1_555
C32A H46A 1_555 1_555
C33A C32A 1_555 1_555
C34A C33A 1_555 1_555
H47A C34A 1_555 1_555
C35A C30A 1_555 1_555
C36A C31A 1_555 1_555
H48A C36A 1_555 1_555
H49A C36A 1_555 1_555
H50A C36A 1_555 1_555
C37A C33A 1_555 1_555
H51A C37A 1_555 1_555
H52A C37A 1_555 1_555
H53A C37A 1_555 1_555
C38A C35A 1_555 1_555
H54A C38A 1_555 1_555
H55A C38A 1_555 1_555
H56A C38A 1_555 1_555
C39A C40A 1_555 1_555
C40A C41A 1_555 1_555
C41A H57A 1_555 1_555
C42A C41A 1_555 1_555
C43A C42A 1_555 1_555
H58A C43A 1_555 1_555
C44A C39A 1_555 1_555
C45A C44A 1_555 1_555
H59A C45A 1_555 1_555
H60A C45A 1_555 1_555
H61A C45A 1_555 1_555
C46A C40A 1_555 1_555
H62A C46A 1_555 1_555
H63A C46A 1_555 1_555
H64A C46A 1_555 1_555
C47A C42A 1_555 1_555
H65A C47A 1_555 1_555
H66A C47A 1_555 1_555
H67A C47A 1_555 1_555
B1A C21A 1_555 1_555
C1 C2 1_555 1_555
C3 C4 1_555 1_555
C7 C8 1_555 1_555
C9 C10 1_555 1_555
C11 C12 1_555 1_555
C15 C16 1_555 1_555
C19 C20 1_555 1_555
C25 C26 1_555 1_555
C28 B1 1_555 1_555
C30 B1 1_555 1_555
C34 C35 1_555 1_555
C39 B1 1_555 1_555
C43 C44 1_555 1_555
K1A O6A 1_555 1_555
C1A C2A 1_555 1_555
C3A C4A 1_555 1_555
C5A C6A 1_555 1_555
C7A C8A 1_555 1_555
C9A C10A 1_555 1_555
C11A C12A 1_555 1_555
C15A C16A 1_555 1_555
C25A C26A 1_555 1_555
C26A C27A 1_555 1_555
C28A C29A 1_555 1_555
C28A B1A 1_555 1_555
C30A B1A 1_555 1_555
C34A C35A 1_555 1_555
C39A B1A 1_555 1_555
C43A C44A 1_555 1_555

#END
