
#######################################################################
#
#                 Cambridge Crystallographic Data Centre
#                                CCDC 
#
#######################################################################
#
# If this CIF has been generated from an entry in the Cambridge 
# Structural Database, then it will include bibliographic, chemical, 
# crystal, experimental, refinement or atomic coordinate data resulting 
# from the CCDC's data processing and validation procedures.
#
#######################################################################

data_LAZJUU
_chemical_formula_moiety         'C15 H17 F1 N2 O2'
_chemical_name_systematic        
'ethyl 7-fluoro-2-methyl-1-[(propan-2-ylidene)amino]-1H-indole-3-carboxylate'
_symmetry_cell_setting           triclinic
_symmetry_space_group_name_H-M   'P -1'
_symmetry_Int_Tables_number      2
_space_group_name_Hall           '-P 1'
loop_
_symmetry_equiv_pos_site_id
_symmetry_equiv_pos_as_xyz
1 x,y,z
2 -x,-y,-z
_cell_length_a                   9.5214(8)
_cell_length_b                   9.6784(8)
_cell_length_c                   9.8861(8)
_cell_angle_alpha                114.205(8)
_cell_angle_beta                 92.568(7)
_cell_angle_gamma                116.743(8)
_cell_volume                     712.037
_exptl_crystal_colour            colorless
_exptl_crystal_description       prism
_cell_formula_units_Z            2
loop_
_atom_site_label
_atom_site_type_symbol
_atom_site_fract_x
_atom_site_fract_y
_atom_site_fract_z
C1 C 1.04623(19) 0.20078(19) 0.33213(17)
C2 C 1.2074(2) 0.2913(2) 0.41143(19)
H1 H 1.2824 0.2724 0.3612
C3 C 1.25932(19) 0.4126(2) 0.56846(19)
H2 H 1.3691 0.4723 0.6223
C4 C 1.15239(18) 0.4461(2) 0.64558(17)
H3 H 1.1896 0.5292 0.7498
C5 C 0.98598(17) 0.35303(18) 0.56473(16)
C6 C 0.93451(17) 0.22846(18) 0.40699(16)
C7 C 0.84162(17) 0.35233(18) 0.60356(16)
C8 C 0.71191(17) 0.23138(19) 0.47137(17)
C9 C 0.53592(19) 0.1795(2) 0.4404(2)
H4 H 0.5019 0.1763 0.3457
H5 H 0.5221 0.2641 0.5239
H6 H 0.4705 0.0648 0.4316
C10 C 0.82922(18) 0.4604(2) 0.75188(17)
C11 C 0.9802(2) 0.6920(2) 1.00791(18)
H7 H 0.9223 0.6237 1.0573
H8 H 0.9277 0.7553 1.0001
C12 C 1.1550(2) 0.8187(2) 1.0999(2)
H9 H 1.2099 0.8896 1.0528
H10 H 1.2069 0.7546 1.1032
H11 H 1.1610 0.8937 1.2032
C13 C 0.63704(18) -0.1196(2) 0.14606(18)
C14 C 0.6878(2) -0.1932(2) 0.2306(2)
H12 H 0.7643 -0.2244 0.1878
H13 H 0.5932 -0.2964 0.2209
H14 H 0.7387 -0.1063 0.3378
C15 C 0.5368(3) -0.2431(3) -0.0184(2)
H15 H 0.5029 -0.1837 -0.0576
H16 H 0.4418 -0.3438 -0.0249
H17 H 0.6010 -0.2813 -0.0787
F1 F 0.99556(12) 0.08471(13) 0.17877(10)
N1 N 0.76666(14) 0.15405(15) 0.35480(13)
N2 N 0.66793(16) 0.03916(17) 0.19938(14)
O1 O 0.70435(15) 0.45048(18) 0.78166(14)
O2 O 0.97644(13) 0.57669(14) 0.85598(11)
loop_
_geom_bond_atom_site_label_1
_geom_bond_atom_site_label_2
_geom_bond_site_symmetry_1
_geom_bond_site_symmetry_2
C1 C2 1_555 1_555
C2 H1 1_555 1_555
C3 C2 1_555 1_555
H2 C3 1_555 1_555
C4 C3 1_555 1_555
H3 C4 1_555 1_555
C5 C4 1_555 1_555
C6 C1 1_555 1_555
C7 C5 1_555 1_555
C8 C7 1_555 1_555
C9 C8 1_555 1_555
H4 C9 1_555 1_555
H5 C9 1_555 1_555
H6 C9 1_555 1_555
C10 C7 1_555 1_555
C11 H7 1_555 1_555
H8 C11 1_555 1_555
C12 C11 1_555 1_555
H9 C12 1_555 1_555
H10 C12 1_555 1_555
H11 C12 1_555 1_555
C13 C14 1_555 1_555
C14 H12 1_555 1_555
H13 C14 1_555 1_555
H14 C14 1_555 1_555
C15 C13 1_555 1_555
H15 C15 1_555 1_555
H16 C15 1_555 1_555
H17 C15 1_555 1_555
F1 C1 1_555 1_555
N1 C6 1_555 1_555
N2 C13 1_555 1_555
O1 C10 1_555 1_555
O2 C10 1_555 1_555
C5 C6 1_555 1_555
C8 N1 1_555 1_555
C11 O2 1_555 1_555
N1 N2 1_555 1_555

#END
