
#######################################################################
#
#                 Cambridge Crystallographic Data Centre
#                                CCDC 
#
#######################################################################
#
# If this CIF has been generated from an entry in the Cambridge 
# Structural Database, then it will include bibliographic, chemical, 
# crystal, experimental, refinement or atomic coordinate data resulting 
# from the CCDC's data processing and validation procedures.
#
#######################################################################

data_LAZLON
_chemical_formula_moiety         'C8 H14 F1 N1 O2'
_chemical_name_systematic        'cis-t-Butyl 2-fluorocyclopropylcarbamate'
_chemical_properties_biological  'potential antibacterial activity'
_symmetry_cell_setting           orthorhombic
_symmetry_space_group_name_H-M   'P 21 21 21'
_symmetry_Int_Tables_number      19
_space_group_name_Hall           'P 2ac 2ab'
loop_
_symmetry_equiv_pos_site_id
_symmetry_equiv_pos_as_xyz
1 x,y,z
2 1/2+x,1/2-y,-z
3 -x,1/2+y,1/2-z
4 1/2-x,-y,1/2+z
_cell_length_a                   11.685
_cell_length_b                   17.754
_cell_length_c                   9.280
_cell_angle_alpha                90
_cell_angle_beta                 90
_cell_angle_gamma                90
_cell_volume                     1925.19
_exptl_crystal_colour            colorless
_chemical_melting_point          '331-333 K'
_cell_formula_units_Z            8
loop_
_atom_site_label
_atom_site_type_symbol
_atom_site_fract_x
_atom_site_fract_y
_atom_site_fract_z
C1 C 0.6265(4) 0.2610(3) 0.4660(5)
C2 C 0.5663(4) 0.2502(2) 0.6034(5)
C3 C 0.5386(4) 0.2040(3) 0.4733(5)
F1 F 0.7395(3) 0.2349(2) 0.4643(4)
N1 N 0.6234(3) 0.2132(2) 0.7202(4)
C4 C 0.7000(4) 0.2514(2) 0.7997(4)
O1 O 0.7197(3) 0.3181(1) 0.7882(4)
O2 O 0.7498(2) 0.2042(1) 0.8950(3)
C5 C 0.8400(4) 0.2300(2) 0.9937(5)
C6 C 0.8739(5) 0.1583(3) 1.0698(7)
C7 C 0.9413(5) 0.2589(3) 0.9086(6)
C8 C 0.7938(6) 0.2885(4) 1.0943(6)
H1 H 0.6187(34) 0.3152(22) 0.4043(45)
H2 H 0.5104(32) 0.2946(21) 0.6235(43)
H3 H 0.4665(34) 0.2096(22) 0.4166(44)
H4 H 0.5646(28) 0.1469(17) 0.4566(35)
H5 H 0.6118(38) 0.1646(24) 0.7317(49)
H6 H 0.9465(39) 0.1717(25) 1.1353(51)
H7 H 0.8949(42) 0.1177(26) 0.9898(55)
H8 H 0.8048(45) 0.1512(28) 1.1310(57)
H9 H 1.0096(41) 0.2682(27) 0.9717(58)
H10 H 0.9294(33) 0.3046(22) 0.8386(44)
H11 H 0.9703(43) 0.2186(28) 0.8622(57)
H12 H 0.8440(34) 0.3035(23) 1.1589(46)
H13 H 0.7260(40) 0.2595(26) 1.1554(52)
H14 H 0.7451(38) 0.3296(24) 1.0513(47)
C9 C 0.6827(6) 0.5610(4) 0.9550(7)
C10 C 0.6142(5) 0.4967(3) 0.9369(6)
C11 C 0.7347(7) 0.4903(4) 0.9833(8)
F2 F 0.7491(7) 0.5772(4) 0.8281(7)
N2 N 0.5865(3) 0.4666(2) 0.7995(4)
C12 C 0.5010(4) 0.4961(2) 0.7205(5)
O3 O 0.4451(3) 0.5510(2) 0.7549(4)
O4 O 0.4847(2) 0.4542(1) 0.6018(3)
C13 C 0.3966(4) 0.4748(2) 0.4937(5)
C14 C 0.4260(4) 0.5514(3) 0.4286(5)
C15 C 0.4105(4) 0.4129(3) 0.3807(5)
C16 C 0.2787(4) 0.4724(3) 0.5584(6)
H15 H 0.5527(47) 0.4851(30) 1.0458(63)
H16 H 0.8163(56) 0.4678(37) 0.9229(77)
H17 H 0.7776(61) 0.4809(39) 1.0722(74)
H18 H 0.6175(25) 0.4283(16) 0.7646(32)
H19 H 0.3792(39) 0.5585(25) 0.3370(52)
H20 H 0.5060(33) 0.5501(21) 0.3804(44)
H21 H 0.4284(38) 0.5890(23) 0.4932(51)
H22 H 0.3542(33) 0.4213(22) 0.3003(45)
H23 H 0.3846(33) 0.3655(20) 0.4362(41)
H24 H 0.4875(34) 0.4091(21) 0.3483(43)
H25 H 0.2163(39) 0.4799(26) 0.4890(52)
H26 H 0.2647(45) 0.5144(27) 0.6368(52)
H27 H 0.2691(42) 0.4293(26) 0.6131(54)
F3? F 0.8172(9) 0.4941(7) 0.8308(15)
H28? H 0.6389(46) 0.5935(29) 1.0749(60)
H29? H 0.6561 0.5799 0.8771
loop_
_geom_bond_atom_site_label_1
_geom_bond_atom_site_label_2
_geom_bond_site_symmetry_1
_geom_bond_site_symmetry_2
C1 C2 1_555 1_555
C2 C3 1_555 1_555
C3 C1 1_555 1_555
F1 C1 1_555 1_555
N1 C2 1_555 1_555
C4 N1 1_555 1_555
O1 C4 1_555 1_555
O2 C4 1_555 1_555
C5 O2 1_555 1_555
C6 C5 1_555 1_555
C7 C5 1_555 1_555
C8 C5 1_555 1_555
H1 C1 1_555 1_555
H2 C2 1_555 1_555
H3 C3 1_555 1_555
H4 C3 1_555 1_555
H5 N1 1_555 1_555
H6 C6 1_555 1_555
H7 C6 1_555 1_555
H8 C6 1_555 1_555
H9 C7 1_555 1_555
H10 C7 1_555 1_555
H11 C7 1_555 1_555
H12 C8 1_555 1_555
H13 C8 1_555 1_555
H14 C8 1_555 1_555
C9 C10 1_555 1_555
C10 C11 1_555 1_555
C11 C9 1_555 1_555
F2 C9 1_555 1_555
N2 C10 1_555 1_555
C12 N2 1_555 1_555
O3 C12 1_555 1_555
O4 C12 1_555 1_555
C13 O4 1_555 1_555
C14 C13 1_555 1_555
C15 C13 1_555 1_555
C16 C13 1_555 1_555
H15 C10 1_555 1_555
H16 C11 1_555 1_555
H17 C11 1_555 1_555
H18 N2 1_555 1_555
H19 C14 1_555 1_555
H20 C14 1_555 1_555
H21 C14 1_555 1_555
H22 C15 1_555 1_555
H23 C15 1_555 1_555
H24 C15 1_555 1_555
H25 C16 1_555 1_555
H26 C16 1_555 1_555
H27 C16 1_555 1_555

#END
