
#######################################################################
#
#                 Cambridge Crystallographic Data Centre
#                                CCDC 
#
#######################################################################
#
# If this CIF has been generated from an entry in the Cambridge 
# Structural Database, then it will include bibliographic, chemical, 
# crystal, experimental, refinement or atomic coordinate data resulting 
# from the CCDC's data processing and validation procedures.
#
#######################################################################

data_LAZPOS
_chemical_formula_moiety         'C17 H23 Cl1 N2'
_chemical_name_systematic        
N,N'-Di-t-butyl-3-(4-chlorophenyl)prop-2-ynamidine
_symmetry_cell_setting           monoclinic
_symmetry_space_group_name_H-M   'P 21/c'
_symmetry_Int_Tables_number      14
_space_group_name_Hall           '-P 2ybc'
loop_
_symmetry_equiv_pos_site_id
_symmetry_equiv_pos_as_xyz
1 x,y,z
2 -x,1/2+y,1/2-z
3 -x,-y,-z
4 x,1/2-y,1/2+z
_cell_length_a                   8.8524(13)
_cell_length_b                   11.2198(17)
_cell_length_c                   17.538(3)
_cell_angle_alpha                90
_cell_angle_beta                 100.444(3)
_cell_angle_gamma                90
_cell_volume                     1713.05
_exptl_crystal_colour            colorless
_exptl_crystal_description       block
_cell_formula_units_Z            4
loop_
_atom_site_label
_atom_site_type_symbol
_atom_site_fract_x
_atom_site_fract_y
_atom_site_fract_z
Cl1 Cl 0.66862(5) -0.01868(4) 0.14175(3)
N1 N 0.01002(14) 0.56288(11) 0.18833(7)
H1 H 0.0332 0.4950 0.2101
N2 N 0.07085(14) 0.69573(11) 0.09714(7)
C1 C 0.09523(16) 0.59736(13) 0.13386(8)
C2 C 0.21065(18) 0.50654(14) 0.12782(9)
C3 C 0.29543(17) 0.42370(15) 0.12847(9)
C4 C 0.39034(17) 0.31942(14) 0.13007(9)
C5 C 0.35857(18) 0.23382(15) 0.07213(9)
H2 H 0.2790 0.2467 0.0304
C6 C 0.44290(19) 0.13037(15) 0.07552(9)
H3 H 0.4199 0.0732 0.0368
C7 C 0.56192(17) 0.11244(14) 0.13705(9)
C8 C 0.59732(19) 0.19623(15) 0.19505(10)
H4 H 0.6784 0.1836 0.2360
C9 C 0.51091(19) 0.29889(15) 0.19148(10)
H5 H 0.5335 0.3553 0.2307
C10 C -0.11600(17) 0.62839(14) 0.21367(9)
C11 C -0.2495(2) 0.6445(2) 0.14680(11)
H6 H -0.2172 0.6923 0.1072
H7 H -0.3326 0.6835 0.1651
H8 H -0.2829 0.5680 0.1258
C12 C -0.1651(2) 0.55197(18) 0.27685(12)
H9 H -0.1987 0.4755 0.2559
H10 H -0.2477 0.5906 0.2958
H11 H -0.0796 0.5418 0.3187
C13 C -0.0598(2) 0.74851(16) 0.24783(11)
H12 H 0.0243 0.7366 0.2901
H13 H -0.1420 0.7885 0.2663
H14 H -0.0262 0.7962 0.2086
C14 C 0.16633(18) 0.73591(14) 0.04088(9)
C15 C 0.1581(3) 0.65062(19) -0.02696(10)
H15 H 0.2062 0.5766 -0.0090
H16 H 0.2103 0.6848 -0.0651
H17 H 0.0525 0.6365 -0.0496
C16 C 0.3301(2) 0.7572(2) 0.08100(12)
H18 H 0.3310 0.8115 0.1234
H19 H 0.3877 0.7907 0.0448
H20 H 0.3757 0.6830 0.1003
C17 C 0.0973(3) 0.85520(18) 0.01026(12)
H21 H -0.0067 0.8433 -0.0158
H22 H 0.1566 0.8879 -0.0255
H23 H 0.0987 0.9093 0.0528
loop_
_geom_bond_atom_site_label_1
_geom_bond_atom_site_label_2
_geom_bond_site_symmetry_1
_geom_bond_site_symmetry_2
Cl1 C7 1_555 1_555
N1 H1 1_555 1_555
N2 C1 1_555 1_555
C1 N1 1_555 1_555
C2 C1 1_555 1_555
C3 C2 1_555 1_555
C4 C3 1_555 1_555
C5 C4 1_555 1_555
H2 C5 1_555 1_555
C6 C5 1_555 1_555
H3 C6 1_555 1_555
C7 C6 1_555 1_555
C8 C7 1_555 1_555
H4 C8 1_555 1_555
C9 C4 1_555 1_555
H5 C9 1_555 1_555
C10 N1 1_555 1_555
C11 C10 1_555 1_555
H6 C11 1_555 1_555
H7 C11 1_555 1_555
H8 C11 1_555 1_555
C12 C10 1_555 1_555
H9 C12 1_555 1_555
H10 C12 1_555 1_555
H11 C12 1_555 1_555
C13 C10 1_555 1_555
H12 C13 1_555 1_555
H13 C13 1_555 1_555
H14 C13 1_555 1_555
C14 N2 1_555 1_555
C15 C14 1_555 1_555
H15 C15 1_555 1_555
H16 C15 1_555 1_555
H17 C15 1_555 1_555
C16 C14 1_555 1_555
H18 C16 1_555 1_555
H19 C16 1_555 1_555
H20 C16 1_555 1_555
C17 C14 1_555 1_555
H21 C17 1_555 1_555
H22 C17 1_555 1_555
H23 C17 1_555 1_555
C8 C9 1_555 1_555

#END
