
#######################################################################
#
#                 Cambridge Crystallographic Data Centre
#                                CCDC 
#
#######################################################################
#
# If this CIF has been generated from an entry in the Cambridge 
# Structural Database, then it will include bibliographic, chemical, 
# crystal, experimental, refinement or atomic coordinate data resulting 
# from the CCDC's data processing and validation procedures.
#
#######################################################################

data_LAZRIO
_chemical_formula_moiety         'C6 H11 N2 1+,B1 F4 1-'
_chemical_name_systematic        '1-Ethyl-3-methylimidazolium tetrafluoroborate'
_symmetry_cell_setting           monoclinic
_symmetry_space_group_name_H-M   'P 21/n'
_symmetry_Int_Tables_number      14
_space_group_name_Hall           '-P 2yn'
loop_
_symmetry_equiv_pos_site_id
_symmetry_equiv_pos_as_xyz
1 x,y,z
2 1/2-x,1/2+y,1/2-z
3 -x,-y,-z
4 1/2+x,1/2-y,1/2+z
_cell_length_a                   8.76180(10)
_cell_length_b                   9.39610(10)
_cell_length_c                   11.4246(2)
_cell_angle_alpha                90.0
_cell_angle_beta                 98.7200(10)
_cell_angle_gamma                90.0
_cell_volume                     929.678
_exptl_crystal_colour            colorless
_chemical_melting_point          '271.7 K'
_cell_formula_units_Z            4
_exptl_crystal_recrystallization_method 'from the melt'
loop_
_atom_site_label
_atom_site_type_symbol
_atom_site_fract_x
_atom_site_fract_y
_atom_site_fract_z
B1 B 0.90425(16) 0.75132(14) 0.55006(15)
F1 F 0.78048(10) 0.74478(10) 0.45833(9)
F2 F 0.86815(13) 0.84222(10) 0.63628(10)
F3 F 1.03582(10) 0.79648(11) 0.50712(9)
F4 F 0.93036(10) 0.61488(8) 0.59807(8)
N1 N 0.89323(12) 0.84655(10) 0.03751(11)
C1 C 0.78652(14) 0.92248(11) 0.08042(13)
H1 H 0.6931 0.9582 0.0352
N2 N 0.82931(11) 0.94044(10) 0.19529(11)
C2 C 0.96954(15) 0.87323(14) 0.22847(15)
H2 H 1.0275 0.8687 0.3067
C3 C 1.00926(14) 0.81444(14) 0.12958(14)
H3 H 1.1011 0.7607 0.124
C4 C 0.88577(18) 0.80283(14) -0.08664(13)
H4 H 0.9744 0.8386 -0.1174
H5 H 0.7953 0.8438 -0.1322
C5 C 0.87842(18) 0.64365(14) -0.10063(14)
H6 H 0.9733 0.603 -0.0617
H7 H 0.8644 0.6193 -0.1832
H8 H 0.7937 0.6069 -0.0655
C6 C 0.74396(17) 1.02078(15) 0.27432(15)
H9 H 0.8013 1.1045 0.3016
H10 H 0.7305 0.9622 0.3409
H11 H 0.6447 1.0479 0.2327
loop_
_geom_bond_atom_site_label_1
_geom_bond_atom_site_label_2
_geom_bond_site_symmetry_1
_geom_bond_site_symmetry_2
B1 F1 1_555 1_555
F2 B1 1_555 1_555
F3 B1 1_555 1_555
F4 B1 1_555 1_555
N1 C1 1_555 1_555
C1 H1 1_555 1_555
N2 C1 1_555 1_555
C2 N2 1_555 1_555
H2 C2 1_555 1_555
C3 N1 1_555 1_555
H3 C3 1_555 1_555
C4 N1 1_555 1_555
H4 C4 1_555 1_555
H5 C4 1_555 1_555
C5 C4 1_555 1_555
H6 C5 1_555 1_555
H7 C5 1_555 1_555
H8 C5 1_555 1_555
C6 N2 1_555 1_555
H9 C6 1_555 1_555
H10 C6 1_555 1_555
H11 C6 1_555 1_555
C2 C3 1_555 1_555

#END
