
#######################################################################
#
#                 Cambridge Crystallographic Data Centre
#                                CCDC 
#
#######################################################################
#
# If this CIF has been generated from an entry in the Cambridge 
# Structural Database, then it will include bibliographic, chemical, 
# crystal, experimental, refinement or atomic coordinate data resulting 
# from the CCDC's data processing and validation procedures.
#
#######################################################################

data_LEBBIF
_chemical_formula_moiety         
'C37 H47 N3 O12,C12 H14 N2 2+,2(C2 H3 N1),2(F6 P1 1-)'
_chemical_name_systematic        
"N,N'-Dimethyl-4,4'-bipyridinium bis(1,3,5-phenylene)di-(1',4',7',10',13'-pentaoxatridecyl)-(2'',6''-di(methylenedicarboxamido)pyridine) bis(hexafluorophosphate) acetonitrile solvate"
_symmetry_cell_setting           triclinic
_symmetry_space_group_name_H-M   'P -1'
_symmetry_Int_Tables_number      2
_space_group_name_Hall           '-P 1'
loop_
_symmetry_equiv_pos_site_id
_symmetry_equiv_pos_as_xyz
1 x,y,z
2 -x,-y,-z
_cell_length_a                   10.711(2)
_cell_length_b                   11.869(2)
_cell_length_c                   24.406(5)
_cell_angle_alpha                94.36(3)
_cell_angle_beta                 102.61(3)
_cell_angle_gamma                103.35(3)
_cell_volume                     2919.81
_exptl_crystal_colour            yellow
_exptl_crystal_description       platelet
_cell_formula_units_Z            2
loop_
_atom_site_label
_atom_site_type_symbol
_atom_site_fract_x
_atom_site_fract_y
_atom_site_fract_z
P1 P 0.59145(13) 0.24465(13) 0.10218(5)
F1 F 0.6052(4) 0.1709(7) 0.0519(2)
F2 F 0.5539(4) 0.3418(4) 0.06200(17)
F3 F 0.7426(4) 0.3139(4) 0.11707(18)
F4 F 0.6221(4) 0.1604(3) 0.14616(17)
F5 F 0.5727(4) 0.3313(3) 0.15179(16)
F6 F 0.4384(2) 0.1828(2) 0.08850(11)
P2 P 0.32311(10) 0.97250(9) 0.33352(4)
F7 F 0.3287(3) 1.0140(3) 0.39729(12)
F8 F 0.3087(3) 0.9264(3) 0.26909(12)
F9 F 0.4763(3) 0.9824(3) 0.34793(15)
F10 F 0.1667(2) 0.9571(2) 0.31908(13)
F11 F 0.3449(3) 1.1032(2) 0.32024(13)
F12 F 0.2988(2) 0.8391(2) 0.34741(10)
N1 N 1.4987(3) 0.7037(3) 0.39455(13)
H1 H 1.4225 0.7188 0.3872
N2 N 1.3346(3) 0.6939(3) 0.46376(12)
N3 N 1.1139(3) 0.7688(3) 0.42769(13)
H2 H 1.1825 0.7845 0.4140
O1 O 0.7776(2) 0.6988(2) 0.19892(10)
O2 O 0.7578(3) 0.7158(2) 0.08020(11)
O3 O 0.9650(3) 0.8465(2) 0.03301(11)
O4 O 1.2366(3) 0.8425(2) 0.07598(11)
O5 O 1.3764(3) 0.7180(2) 0.14825(11)
O6 O 1.3130(3) 0.3607(2) 0.22588(11)
O7 O 1.0948(3) 0.1440(2) 0.18134(11)
O8 O 0.9010(2) 0.0297(2) 0.23884(11)
O9 O 0.7884(3) 0.1674(2) 0.31375(12)
O10 O 0.7577(3) 0.4009(2) 0.32422(11)
O11 O 1.6481(3) 0.6459(3) 0.46027(12)
O12 O 1.0298(3) 0.6906(3) 0.49789(12)
C1 C 0.8829(3) 0.7433(3) 0.29536(15)
H3 H 0.9140 0.8202 0.2894
C2 C 0.9136(3) 0.7108(3) 0.34895(15)
C3 C 0.8686(3) 0.5956(3) 0.35776(15)
H4 H 0.8882 0.5742 0.3939
C4 C 0.7943(4) 0.5129(3) 0.31217(16)
C5 C 0.7604(3) 0.5440(3) 0.25819(15)
H5 H 0.7090 0.4885 0.2279
C6 C 0.8049(3) 0.6597(3) 0.25050(15)
C7 C 0.6821(4) 0.6200(3) 0.15339(16)
H6 H 0.6029 0.5864 0.1656
H7 H 0.7181 0.5571 0.1414
C8 C 0.6497(4) 0.6882(4) 0.10545(17)
H8 H 0.5719 0.6426 0.0775
H9 H 0.6307 0.7595 0.1194
C9 C 0.7389(4) 0.7934(4) 0.03898(16)
H10 H 0.7542 0.8721 0.0577
H11 H 0.6487 0.7694 0.0160
C10 C 0.8332(4) 0.7908(4) 0.00236(16)
H12 H 0.8276 0.7104 -0.0112
H13 H 0.8092 0.8303 -0.0302
C11 C 1.0556(4) 0.8411(4) -0.00148(17)
H14 H 1.0313 0.8774 -0.0352
H15 H 1.0509 0.7601 -0.0134
C12 C 1.1929(4) 0.9018(4) 0.03003(17)
H16 H 1.2514 0.9051 0.0046
H17 H 1.1962 0.9812 0.0443
C13 C 1.3749(4) 0.8830(3) 0.09867(18)
H18 H 1.4012 0.9676 0.1023
H19 H 1.4212 0.8524 0.0734
C14 C 1.4108(4) 0.8436(3) 0.15558(17)
H20 H 1.5048 0.8737 0.1722
H21 H 1.3631 0.8726 0.1807
C15 C 1.3996(3) 0.6642(3) 0.19576(15)
C16 C 1.4705(3) 0.7203(3) 0.24924(16)
H22 H 1.5049 0.8009 0.2554
C17 C 1.4893(3) 0.6538(3) 0.29370(16)
C18 C 1.4355(3) 0.5347(3) 0.28506(15)
H23 H 1.4468 0.4914 0.3152
C19 C 1.3640(3) 0.4789(3) 0.23112(16)
C20 C 1.3464(3) 0.5428(3) 0.18620(16)
H24 H 1.2998 0.5058 0.1501
C21 C 1.2663(4) 0.3001(3) 0.16905(16)
H25 H 1.3361 0.3164 0.1491
H26 H 1.1920 0.3263 0.1487
C22 C 1.2243(4) 0.1711(3) 0.17186(17)
H27 H 1.2244 0.1275 0.1366
H28 H 1.2855 0.1499 0.2024
C23 C 1.0418(4) 0.0204(3) 0.17603(17)
H29 H 1.0946 -0.0120 0.2052
H30 H 1.0439 -0.0159 0.1394
C24 C 0.9023(4) -0.0039(3) 0.18194(16)
H31 H 0.8533 0.0392 0.1569
H32 H 0.8599 -0.0866 0.1711
C25 C 0.7713(4) -0.0021(3) 0.24758(17)
H33 H 0.7386 -0.0865 0.2417
H34 H 0.7123 0.0298 0.2207
C26 C 0.7744(4) 0.0444(3) 0.30685(18)
H35 H 0.6932 0.0053 0.3163
H36 H 0.8475 0.0268 0.3329
C27 C 0.6640(4) 0.1954(3) 0.29808(17)
H37 H 0.6253 0.1967 0.3305
H38 H 0.6040 0.1364 0.2683
C28 C 0.6836(4) 0.3126(3) 0.27760(16)
H39 H 0.7310 0.3140 0.2479
H40 H 0.5984 0.3275 0.2621
C29 C 1.5738(4) 0.7141(3) 0.35124(16)
H41 H 1.6481 0.6800 0.3620
H42 H 1.6086 0.7962 0.3489
C30 C 1.5425(4) 0.6717(3) 0.44525(16)
C31 C 1.4497(4) 0.6680(3) 0.48390(16)
C32 C 1.4846(4) 0.6366(4) 0.53757(18)
H43 H 1.5657 0.6196 0.5503
C33 C 1.3977(5) 0.6311(4) 0.57147(18)
H44 H 1.4196 0.6108 0.6077
C34 C 1.2770(4) 0.6559(4) 0.55159(17)
H45 H 1.2159 0.6514 0.5737
C35 C 1.2503(4) 0.6879(3) 0.49746(16)
C36 C 1.1209(4) 0.7162(3) 0.47433(15)
C37 C 0.9952(4) 0.8010(3) 0.39885(16)
H46 H 1.0207 0.8760 0.3856
H47 H 0.9417 0.8092 0.4255
N4 N 1.0496(3) 0.6113(3) 0.18892(14)
N5 N 1.1203(3) 0.2467(3) 0.39884(13)
C38 C 1.0384(4) 0.6889(4) 0.14395(18)
H48 H 0.9871 0.6433 0.1087
H49 H 1.1252 0.7259 0.1401
H50 H 0.9958 0.7474 0.1541
C39 C 1.1181(4) 0.6574(3) 0.24184(17)
H51 H 1.1564 0.7374 0.2501
C40 C 1.1322(4) 0.5882(3) 0.28371(16)
H52 H 1.1789 0.6214 0.3203
C41 C 1.0771(3) 0.4677(3) 0.27194(16)
C42 C 1.0065(4) 0.4227(3) 0.21663(16)
H53 H 0.9678 0.3430 0.2072
C43 C 0.9938(4) 0.4956(3) 0.17597(16)
H54 H 0.9463 0.4650 0.1391
C44 C 1.1041(4) 0.2051(3) 0.34464(17)
H55 H 1.1018 0.1271 0.3352
C45 C 1.0910(4) 0.2746(3) 0.30278(16)
H56 H 1.0808 0.2444 0.2653
C46 C 1.0929(3) 0.3910(3) 0.31665(16)
C47 C 1.1104(4) 0.4323(3) 0.37346(16)
H57 H 1.1129 0.5099 0.3839
C48 C 1.1241(4) 0.3601(3) 0.41398(17)
H58 H 1.1359 0.3885 0.4518
C49 C 1.1301(5) 0.1674(4) 0.44279(18)
H59 H 1.1256 0.0908 0.4255
H60 H 1.0584 0.1636 0.4609
H61 H 1.2127 0.1966 0.4705
N6 N 1.0852(4) 0.4708(3) 0.06382(16)
C50 C 1.1554(4) 0.5171(4) 0.03893(17)
C51 C 1.2454(5) 0.5737(4) 0.0067(2)
H62 H 1.3178 0.6308 0.0318
H63 H 1.1992 0.6114 -0.0216
H64 H 1.2787 0.5163 -0.0113
N7 N 0.8381(7) 0.9886(5) 0.4457(3)
C52 C 0.7445(7) 0.9973(5) 0.4563(2)
C53 C 0.6238(7) 1.0058(6) 0.4714(3)
H65 H 0.5618 0.9304 0.4629
H66 H 0.5867 1.0601 0.4501
H67 H 0.6425 1.0326 0.5112
loop_
_geom_bond_atom_site_label_1
_geom_bond_atom_site_label_2
_geom_bond_site_symmetry_1
_geom_bond_site_symmetry_2
P1 F1 1_555 1_555
F2 P1 1_555 1_555
F3 P1 1_555 1_555
F4 P1 1_555 1_555
F5 P1 1_555 1_555
F6 P1 1_555 1_555
P2 F7 1_555 1_555
F8 P2 1_555 1_555
F9 P2 1_555 1_555
F10 P2 1_555 1_555
F11 P2 1_555 1_555
F12 P2 1_555 1_555
N1 H1 1_555 1_555
N2 C31 1_555 1_555
N3 H2 1_555 1_555
O1 C6 1_555 1_555
O2 C8 1_555 1_555
O3 C10 1_555 1_555
O4 C12 1_555 1_555
O5 C14 1_555 1_555
O6 C19 1_555 1_555
O7 C22 1_555 1_555
O8 C24 1_555 1_555
O9 C26 1_555 1_555
O10 C4 1_555 1_555
O11 C30 1_555 1_555
O12 C36 1_555 1_555
C1 H3 1_555 1_555
C2 C1 1_555 1_555
C3 C2 1_555 1_555
H4 C3 1_555 1_555
C4 C3 1_555 1_555
C5 C4 1_555 1_555
H5 C5 1_555 1_555
C6 C1 1_555 1_555
C7 O1 1_555 1_555
H6 C7 1_555 1_555
H7 C7 1_555 1_555
C8 C7 1_555 1_555
H8 C8 1_555 1_555
H9 C8 1_555 1_555
C9 O2 1_555 1_555
H10 C9 1_555 1_555
H11 C9 1_555 1_555
C10 C9 1_555 1_555
H12 C10 1_555 1_555
H13 C10 1_555 1_555
C11 O3 1_555 1_555
H14 C11 1_555 1_555
H15 C11 1_555 1_555
C12 C11 1_555 1_555
H16 C12 1_555 1_555
H17 C12 1_555 1_555
C13 O4 1_555 1_555
H18 C13 1_555 1_555
H19 C13 1_555 1_555
C14 C13 1_555 1_555
H20 C14 1_555 1_555
H21 C14 1_555 1_555
C15 O5 1_555 1_555
C16 C15 1_555 1_555
H22 C16 1_555 1_555
C17 C16 1_555 1_555
C18 C17 1_555 1_555
H23 C18 1_555 1_555
C19 C18 1_555 1_555
C20 C15 1_555 1_555
H24 C20 1_555 1_555
C21 O6 1_555 1_555
H25 C21 1_555 1_555
H26 C21 1_555 1_555
C22 C21 1_555 1_555
H27 C22 1_555 1_555
H28 C22 1_555 1_555
C23 O7 1_555 1_555
H29 C23 1_555 1_555
H30 C23 1_555 1_555
C24 C23 1_555 1_555
H31 C24 1_555 1_555
H32 C24 1_555 1_555
C25 O8 1_555 1_555
H33 C25 1_555 1_555
H34 C25 1_555 1_555
C26 C25 1_555 1_555
H35 C26 1_555 1_555
H36 C26 1_555 1_555
C27 O9 1_555 1_555
H37 C27 1_555 1_555
H38 C27 1_555 1_555
C28 O10 1_555 1_555
H39 C28 1_555 1_555
H40 C28 1_555 1_555
C29 N1 1_555 1_555
H41 C29 1_555 1_555
H42 C29 1_555 1_555
C30 N1 1_555 1_555
C31 C30 1_555 1_555
C32 C31 1_555 1_555
H43 C32 1_555 1_555
C33 C32 1_555 1_555
H44 C33 1_555 1_555
C34 C33 1_555 1_555
H45 C34 1_555 1_555
C35 N2 1_555 1_555
C36 N3 1_555 1_555
C37 N3 1_555 1_555
H46 C37 1_555 1_555
H47 C37 1_555 1_555
N4 C38 1_555 1_555
N5 C44 1_555 1_555
C38 H48 1_555 1_555
H49 C38 1_555 1_555
H50 C38 1_555 1_555
C39 N4 1_555 1_555
H51 C39 1_555 1_555
C40 C39 1_555 1_555
H52 C40 1_555 1_555
C41 C40 1_555 1_555
C42 C41 1_555 1_555
H53 C42 1_555 1_555
C43 N4 1_555 1_555
H54 C43 1_555 1_555
C44 H55 1_555 1_555
C45 C44 1_555 1_555
H56 C45 1_555 1_555
C46 C41 1_555 1_555
C47 C46 1_555 1_555
H57 C47 1_555 1_555
C48 N5 1_555 1_555
H58 C48 1_555 1_555
C49 N5 1_555 1_555
H59 C49 1_555 1_555
H60 C49 1_555 1_555
H61 C49 1_555 1_555
N6 C50 1_555 1_555
C50 C51 1_555 1_555
C51 H62 1_555 1_555
H63 C51 1_555 1_555
H64 C51 1_555 1_555
N7 C52 1_555 1_555
C52 C53 1_555 1_555
C53 H65 1_555 1_555
H66 C53 1_555 1_555
H67 C53 1_555 1_555
C2 C37 1_555 1_555
C5 C6 1_555 1_555
C17 C29 1_555 1_555
C19 C20 1_555 1_555
C27 C28 1_555 1_555
C34 C35 1_555 1_555
C35 C36 1_555 1_555
C42 C43 1_555 1_555
C45 C46 1_555 1_555
C47 C48 1_555 1_555

#END
