
#######################################################################
#
#                 Cambridge Crystallographic Data Centre
#                                CCDC 
#
#######################################################################
#
# If this CIF has been generated from an entry in the Cambridge 
# Structural Database, then it will include bibliographic, chemical, 
# crystal, experimental, refinement or atomic coordinate data resulting 
# from the CCDC's data processing and validation procedures.
#
#######################################################################

data_LEBBOL
_chemical_formula_moiety         
'2(C41 H55 N3 O12),3(C12 H14 N2 2+),2(H2 O1),2(Cl1 1-),4(F6 P1 1-)'
_chemical_name_systematic        
"tris(1,1'-Dimethyl-4,4'-bipyridinium) dichloride tetrakis(hexafluorophosphate) bis(24,27,30,33,36,39,42,45,48,51-decaoxa-7,15,54-triazapentacyclo[19.17.13.1^3,37^.1^9,13^.1^19,23^]tetrapentaconta-1,3(52),9(54),10,12,19(53),20,22,37-nonaene-8,14-dione) dihydrate"
_symmetry_cell_setting           triclinic
_symmetry_space_group_name_H-M   'P -1'
_symmetry_Int_Tables_number      2
_space_group_name_Hall           '-P 1'
loop_
_symmetry_equiv_pos_site_id
_symmetry_equiv_pos_as_xyz
1 x,y,z
2 -x,-y,-z
_cell_length_a                   10.755(2)
_cell_length_b                   18.195(4)
_cell_length_c                   20.074(4)
_cell_angle_alpha                101.00(3)
_cell_angle_beta                 99.21(3)
_cell_angle_gamma                104.67(3)
_cell_volume                     3639.43
_exptl_crystal_colour            yellow
_exptl_crystal_description       platelet
_cell_formula_units_Z            1
loop_
_atom_site_label
_atom_site_type_symbol
_atom_site_fract_x
_atom_site_fract_y
_atom_site_fract_z
O1 O 0.8156(4) 0.7389(2) 0.5924(3)
O2 O 0.1315(4) 0.6205(2) 0.5398(2)
O3 O 0.8625(4) 1.0804(2) 0.2603(2)
O4 O 0.7605(5) 1.2010(2) 0.2479(3)
O5 O 0.5070(5) 1.2093(2) 0.2168(3)
O6 O 0.2874(4) 1.0919(2) 0.2306(2)
O7 O 0.1849(4) 0.9322(2) 0.2174(2)
O8 O 0.8109(3) 0.8185(2) 0.16683(19)
O9 O 0.6834(4) 0.6829(2) 0.0584(2)
O10 O 0.4493(6) 0.5953(4) -0.0409(3)
O11 O 0.1218(4) 0.6784(3) 0.0904(2)
N1 N 0.4723(5) 0.7058(2) 0.5536(2)
N2 N 0.6974(4) 0.7940(3) 0.5275(2)
H1 H 0.6193 0.7941 0.5095
N3 N 0.2299(4) 0.7132(2) 0.4912(2)
H2 H 0.3026 0.7405 0.4845
C1 C 0.8948(5) 0.9104(3) 0.4215(3)
H3 H 0.9096 0.9598 0.4547
H4 H 0.9747 0.8948 0.4295
C2 C 0.7842(5) 0.8495(3) 0.4362(3)
H5 H 0.7023 0.8621 0.4245
H6 H 0.7750 0.7987 0.4068
C3 C 0.8082(5) 0.8454(3) 0.5102(3)
H7 H 0.8848 0.8271 0.5203
H8 H 0.8279 0.8976 0.5397
C4 C 0.7101(6) 0.7474(3) 0.5691(3)
C5 C 0.5879(6) 0.7039(3) 0.5871(3)
C6 C 0.6017(6) 0.6646(3) 0.6396(3)
H9 H 0.6847 0.6663 0.6630
C7 C 0.4904(7) 0.6234(3) 0.6560(3)
H10 H 0.4962 0.5958 0.6903
C8 C 0.3705(6) 0.6234(3) 0.6211(3)
H11 H 0.2936 0.5953 0.6311
C9 C 0.3640(6) 0.6655(3) 0.5707(3)
C10 C 0.2318(6) 0.6652(3) 0.5322(3)
C11 C 0.1059(5) 0.7204(3) 0.4572(3)
H12 H 0.0702 0.7491 0.4913
H13 H 0.0441 0.6685 0.4386
C12 C 0.1189(5) 0.7613(3) 0.3992(3)
H14 H 0.1785 0.8138 0.4183
H15 H 0.0335 0.7661 0.3799
C13 C 0.1696(5) 0.7197(3) 0.3408(3)
H16 H 0.2608 0.7233 0.3586
H17 H 0.1199 0.6647 0.3280
C14 C 0.1622(5) 0.7497(3) 0.2766(3)
C15 C 0.1792(5) 0.8298(3) 0.2804(3)
H18 H 0.1945 0.8647 0.3232
C16 C 0.1731(5) 0.8561(3) 0.2207(4)
C17 C 0.1545(5) 0.8061(4) 0.1560(3)
H19 H 0.1529 0.8248 0.1160
C18 C 0.1386(5) 0.7282(4) 0.1532(3)
C19 C 0.1404(5) 0.6999(3) 0.2114(4)
H20 H 0.1269 0.6466 0.2074
C20 C 0.1924(6) 0.9880(3) 0.2799(3)
H21 H 0.2756 0.9980 0.3121
H22 H 0.1216 0.9680 0.3021
C21 C 0.1812(6) 1.0607(3) 0.2613(4)
H23 H 0.0981 1.0501 0.2287
H24 H 0.1824 1.0987 0.3026
C22 C 0.2786(6) 1.1616(4) 0.2116(4)
H25 H 0.2873 1.2015 0.2532
H26 H 0.1924 1.1520 0.1823
C23 C 0.3796(7) 1.1905(4) 0.1746(4)
H27 H 0.3711 1.1508 0.1329
H28 H 0.3670 1.2367 0.1605
C24 C 0.6053(8) 1.2459(5) 0.1883(5)
H29 H 0.5892 1.2934 0.1790
H30 H 0.6030 1.2120 0.1442
C25 C 0.7352(7) 1.2655(4) 0.2327(4)
H31 H 0.8009 1.2899 0.2095
H32 H 0.7405 1.3028 0.2754
C26 C 0.8922(7) 1.2142(4) 0.2855(4)
H33 H 0.9177 1.2615 0.3226
H34 H 0.9527 1.2208 0.2546
C27 C 0.8980(7) 1.1466(4) 0.3149(4)
H35 H 0.9865 1.1548 0.3410
H36 H 0.8381 1.1401 0.3461
C28 C 0.8587(5) 1.0084(4) 0.2747(4)
C29 C 0.8775(5) 0.9978(3) 0.3407(3)
H37 H 0.8937 1.0397 0.3788
C30 C 0.8719(5) 0.9233(3) 0.3501(3)
C31 C 0.8492(4) 0.8622(3) 0.2924(3)
H38 H 0.8459 0.8123 0.2981
C32 C 0.8312(5) 0.8751(3) 0.2261(3)
C33 C 0.8358(5) 0.9478(4) 0.2168(3)
H39 H 0.8237 0.9565 0.1724
C34 C 0.8098(5) 0.7423(3) 0.1728(3)
H40 H 0.7335 0.7188 0.1899
H41 H 0.8884 0.7443 0.2053
C35 C 0.8049(6) 0.6955(4) 0.1031(3)
H42 H 0.8753 0.7228 0.0841
H43 H 0.8180 0.6455 0.1070
C36 C 0.6782(7) 0.6406(5) -0.0091(3)
H44 H 0.6853 0.5889 -0.0071
H45 H 0.7528 0.6671 -0.0258
C37 C 0.5584(7) 0.6328(5) -0.0571(4)
H46 H 0.5538 0.6847 -0.0600
H47 H 0.5620 0.6053 -0.1028
O12 O 0.2262(13) 0.6187(7) -0.0215(7)
C38 C 0.3382(10) 0.5640(11) -0.0960(7)
H48 H 0.3432 0.5163 -0.1252
H49 H 0.3329 0.6012 -0.1244
C39 C 0.2271(14) 0.5484(8) -0.0665(8)
H50 H 0.2302 0.5088 -0.0405
H51 H 0.1474 0.5287 -0.1029
C40 C 0.1224(14) 0.6535(9) -0.0318(7)
H52 H 0.0378 0.6140 -0.0418
H53 H 0.1272 0.6777 -0.0708
C41 C 0.1367(14) 0.7117(7) 0.0308(5)
H54 H 0.0713 0.7391 0.0232
H55 H 0.2230 0.7496 0.0409
N4 N 0.5480(4) 1.0548(3) 0.3160(2)
N5 N 0.4437(4) 0.6615(3) 0.1557(3)
C42 C 0.5603(6) 1.1369(3) 0.3500(3)
H56 H 0.6036 1.1713 0.3245
H57 H 0.6112 1.1499 0.3968
H58 H 0.4743 1.1427 0.3508
C43 C 0.5432(5) 1.0024(4) 0.3533(3)
H59 H 0.5533 1.0184 0.4012
C44 C 0.5239(5) 0.9252(3) 0.3234(3)
H60 H 0.5187 0.8890 0.3507
C45 C 0.5121(5) 0.9007(3) 0.2521(3)
C46 C 0.5201(5) 0.9570(3) 0.2152(3)
H61 H 0.5141 0.9433 0.1675
C47 C 0.5368(5) 1.0331(3) 0.2477(3)
H62 H 0.5404 1.0703 0.2216
C48 C 0.4850(5) 0.7625(3) 0.2571(3)
H63 H 0.4974 0.7775 0.3052
C49 C 0.4616(5) 0.6846(4) 0.2244(4)
H64 H 0.4583 0.6477 0.2509
C50 C 0.4493(5) 0.7138(4) 0.1184(3)
H65 H 0.4370 0.6975 0.0703
C51 C 0.4728(5) 0.7920(3) 0.1482(3)
H66 H 0.4770 0.8277 0.1205
C52 C 0.4208(6) 0.5790(3) 0.1209(3)
H67 H 0.4001 0.5469 0.1527
H68 H 0.4987 0.5726 0.1060
H69 H 0.3486 0.5637 0.0812
C53 C 0.4901(5) 0.8174(3) 0.2192(3)
N6 N 0.8191(5) 0.5112(3) 0.5839(3)
C54 C 0.9527(6) 0.5170(4) 0.6199(3)
H70 H 0.9476 0.4864 0.6539
H71 H 0.9989 0.5708 0.6425
H72 H 0.9990 0.4977 0.5867
C55 C 0.8003(7) 0.5482(3) 0.5335(4)
H73 H 0.8734 0.5773 0.5210
C56 C 0.6777(7) 0.5449(3) 0.4999(3)
H74 H 0.6686 0.5717 0.4652
C57 C 0.5665(5) 0.5018(3) 0.5170(3)
C58 C 0.5874(7) 0.4644(3) 0.5693(3)
H75 H 0.5158 0.4356 0.5832
C59 C 0.7119(8) 0.4691(4) 0.6009(3)
H76 H 0.7233 0.4422 0.6354
N6A N 0.1809(5) 0.4888(3) 0.4161(3)
C54A C 0.0473(6) 0.4830(4) 0.3801(3)
H70A H 0.0524 0.5136 0.3461
H71A H 0.0011 0.4292 0.3575
H72A H 0.0010 0.5023 0.4133
C55A C 0.1997(7) 0.4518(3) 0.4665(4)
H73A H 0.1266 0.4227 0.4790
C56A C 0.3223(7) 0.4551(3) 0.5001(3)
H74A H 0.3314 0.4283 0.5348
C57A C 0.4335(5) 0.4982(3) 0.4830(3)
C58A C 0.4126(7) 0.5356(3) 0.4307(3)
H75A H 0.4842 0.5644 0.4168
C59A C 0.2881(8) 0.5309(4) 0.3991(3)
H76A H 0.2767 0.5578 0.3646
O13 O 0.2875(4) 0.9823(3) 0.4610(3)
H77 H 0.3352 0.9519 0.4645
H78 H 0.3547 1.0218 0.4790
Cl1 Cl 0.46114(14) 0.86553(8) 0.47194(8)
P1 P 0.74128(17) 0.57958(10) 0.29889(9)
F1 F 0.782(4) 0.6678(5) 0.3338(11)
F2 F 0.8847(10) 0.6047(15) 0.2884(11)
F3 F 0.702(3) 0.4899(4) 0.2642(9)
F4 F 0.6128(12) 0.5808(14) 0.3252(9)
F5 F 0.7994(17) 0.5629(11) 0.3689(5)
F6 F 0.6801(19) 0.5937(14) 0.2293(6)
P2 P 0.8295(2) 0.59045(14) 0.80090(11)
F7 F 0.9827(6) 0.6159(11) 0.8152(7)
F8 F 0.8138(19) 0.5019(5) 0.7683(5)
F9 F 0.8432(18) 0.6786(5) 0.8328(7)
F10 F 0.6766(6) 0.5722(11) 0.7892(7)
F11 F 0.832(3) 0.5780(18) 0.8763(8)
F12 F 0.819(4) 0.5991(12) 0.7237(6)
C60? C 0.3341(9) 0.5995(10) -0.0862(7)
C61? C 0.2039(13) 0.5625(9) -0.0857(7)
C62? C 0.0703(12) 0.5570(8) 0.0117(6)
C63? C 0.0869(12) 0.5958(5) 0.0847(6)
F13? F 0.723(2) 0.6348(15) 0.8090(10)
F14? F 0.821(5) 0.558(3) 0.8672(13)
F15? F 0.849(6) 0.626(2) 0.7368(11)
F16? F 0.750(4) 0.6673(6) 0.3070(14)
F17? F 0.8572(19) 0.5741(18) 0.2630(15)
F18? F 0.736(4) 0.4922(7) 0.2909(15)
F19? F 0.6085(13) 0.5496(14) 0.3210(12)
F20? F 0.815(2) 0.5982(15) 0.3761(6)
F21? F 0.664(2) 0.5661(17) 0.2233(6)
F22? F 0.9363(19) 0.5479(14) 0.7923(8)
F23? F 0.715(2) 0.5151(11) 0.7601(8)
F24? F 0.934(2) 0.6694(9) 0.8433(10)
H79? H 0.3414 0.6548 -0.0796
H80? H 0.3441 0.5818 -0.1332
H81? H 0.1827 0.5064 -0.1038
H82? H 0.1438 0.5822 -0.1137
H83? H 0.0436 0.5006 0.0054
H84? H 0.0031 0.5710 -0.0173
H85? H 0.1557 0.5828 0.1135
H86? H 0.0056 0.5788 0.1000
O14? O 0.1939(12) 0.5822(7) -0.0069(6)
loop_
_geom_bond_atom_site_label_1
_geom_bond_atom_site_label_2
_geom_bond_site_symmetry_1
_geom_bond_site_symmetry_2
O1 C4 1_555 1_555
O2 C10 1_555 1_555
O3 C27 1_555 1_555
O4 C25 1_555 1_555
O5 C23 1_555 1_555
O6 C21 1_555 1_555
O7 C16 1_555 1_555
O8 C32 1_555 1_555
O9 C35 1_555 1_555
O10 C37 1_555 1_555
O11 C18 1_555 1_555
N1 C5 1_555 1_555
N2 H1 1_555 1_555
N3 H2 1_555 1_555
C1 H3 1_555 1_555
H4 C1 1_555 1_555
C2 C1 1_555 1_555
H5 C2 1_555 1_555
H6 C2 1_555 1_555
C3 N2 1_555 1_555
H7 C3 1_555 1_555
H8 C3 1_555 1_555
C4 N2 1_555 1_555
C5 C4 1_555 1_555
C6 C5 1_555 1_555
H9 C6 1_555 1_555
C7 C6 1_555 1_555
H10 C7 1_555 1_555
C8 C7 1_555 1_555
H11 C8 1_555 1_555
C9 N1 1_555 1_555
C10 N3 1_555 1_555
C11 N3 1_555 1_555
H12 C11 1_555 1_555
H13 C11 1_555 1_555
C12 C11 1_555 1_555
H14 C12 1_555 1_555
H15 C12 1_555 1_555
C13 C12 1_555 1_555
H16 C13 1_555 1_555
H17 C13 1_555 1_555
C14 C13 1_555 1_555
C15 C14 1_555 1_555
H18 C15 1_555 1_555
C16 C15 1_555 1_555
C17 C16 1_555 1_555
H19 C17 1_555 1_555
C18 C17 1_555 1_555
C19 C14 1_555 1_555
H20 C19 1_555 1_555
C20 O7 1_555 1_555
H21 C20 1_555 1_555
H22 C20 1_555 1_555
C21 C20 1_555 1_555
H23 C21 1_555 1_555
H24 C21 1_555 1_555
C22 O6 1_555 1_555
H25 C22 1_555 1_555
H26 C22 1_555 1_555
C23 C22 1_555 1_555
H27 C23 1_555 1_555
H28 C23 1_555 1_555
C24 O5 1_555 1_555
H29 C24 1_555 1_555
H30 C24 1_555 1_555
C25 C24 1_555 1_555
H31 C25 1_555 1_555
H32 C25 1_555 1_555
C26 O4 1_555 1_555
H33 C26 1_555 1_555
H34 C26 1_555 1_555
C27 C26 1_555 1_555
H35 C27 1_555 1_555
H36 C27 1_555 1_555
C28 O3 1_555 1_555
C29 C28 1_555 1_555
H37 C29 1_555 1_555
C30 C1 1_555 1_555
C31 C30 1_555 1_555
H38 C31 1_555 1_555
C32 C31 1_555 1_555
C33 C28 1_555 1_555
H39 C33 1_555 1_555
C34 O8 1_555 1_555
H40 C34 1_555 1_555
H41 C34 1_555 1_555
C35 C34 1_555 1_555
H42 C35 1_555 1_555
H43 C35 1_555 1_555
C36 O9 1_555 1_555
H44 C36 1_555 1_555
H45 C36 1_555 1_555
C37 C36 1_555 1_555
H46 C37 1_555 1_555
H47 C37 1_555 1_555
O12 C39 1_555 1_555
C38 O10 1_555 1_555
H48 C38 1_555 1_555
H49 C38 1_555 1_555
C39 C38 1_555 1_555
H50 C39 1_555 1_555
H51 C39 1_555 1_555
C40 O12 1_555 1_555
H52 C40 1_555 1_555
H53 C40 1_555 1_555
C41 O11 1_555 1_555
H54 C41 1_555 1_555
H55 C41 1_555 1_555
N4 C42 1_555 1_555
N5 C49 1_555 1_555
C42 H56 1_555 1_555
H57 C42 1_555 1_555
H58 C42 1_555 1_555
C43 N4 1_555 1_555
H59 C43 1_555 1_555
C44 C43 1_555 1_555
H60 C44 1_555 1_555
C45 C44 1_555 1_555
C46 C45 1_555 1_555
H61 C46 1_555 1_555
C47 N4 1_555 1_555
H62 C47 1_555 1_555
C48 H63 1_555 1_555
C49 C48 1_555 1_555
H64 C49 1_555 1_555
C50 N5 1_555 1_555
H65 C50 1_555 1_555
C51 C50 1_555 1_555
H66 C51 1_555 1_555
C52 N5 1_555 1_555
H67 C52 1_555 1_555
H68 C52 1_555 1_555
H69 C52 1_555 1_555
C53 C45 1_555 1_555
N6 C54 1_555 1_555
C54 H70 1_555 1_555
H71 C54 1_555 1_555
H72 C54 1_555 1_555
C55 N6 1_555 1_555
H73 C55 1_555 1_555
C56 C55 1_555 1_555
H74 C56 1_555 1_555
C57 C56 1_555 1_555
C58 C57 1_555 1_555
H75 C58 1_555 1_555
C59 N6 1_555 1_555
H76 C59 1_555 1_555
O13 H77 1_555 1_555
H78 O13 1_555 1_555
P1 F1 1_555 1_555
F2 P1 1_555 1_555
F3 P1 1_555 1_555
F4 P1 1_555 1_555
F5 P1 1_555 1_555
F6 P1 1_555 1_555
P2 F7 1_555 1_555
F8 P2 1_555 1_555
F9 P2 1_555 1_555
F10 P2 1_555 1_555
F11 P2 1_555 1_555
F12 P2 1_555 1_555
N6A C54A 1_555 1_555
C54A H70A 1_555 1_555
H71A C54A 1_555 1_555
H72A C54A 1_555 1_555
C55A N6A 1_555 1_555
H73A C55A 1_555 1_555
C56A C55A 1_555 1_555
H74A C56A 1_555 1_555
C57A C57 1_555 1_555
C58A C57A 1_555 1_555
H75A C58A 1_555 1_555
C59A N6A 1_555 1_555
H76A C59A 1_555 1_555
C2 C3 1_555 1_555
C8 C9 1_555 1_555
C9 C10 1_555 1_555
C18 C19 1_555 1_555
C29 C30 1_555 1_555
C32 C33 1_555 1_555
C40 C41 1_555 1_555
C46 C47 1_555 1_555
C48 C53 1_555 1_555
C51 C53 1_555 1_555
C58 C59 1_555 1_555
C56A C57A 1_555 1_555
C58A C59A 1_555 1_555

#END
