
#######################################################################
#
#                 Cambridge Crystallographic Data Centre
#                                CCDC 
#
#######################################################################
#
# If this CIF has been generated from an entry in the Cambridge 
# Structural Database, then it will include bibliographic, chemical, 
# crystal, experimental, refinement or atomic coordinate data resulting 
# from the CCDC's data processing and validation procedures.
#
#######################################################################

data_LEBCEB
_chemical_formula_moiety         'C42 H42 N6 S3'
_chemical_name_systematic        
1,3,5-tris(3-(2-(Methylthio)phenyl)pyrazolylmethyl)-2,4,6-trimethylbenzene
_symmetry_cell_setting           triclinic
_symmetry_space_group_name_H-M   'P -1'
_symmetry_Int_Tables_number      2
_space_group_name_Hall           '-P 1'
loop_
_symmetry_equiv_pos_site_id
_symmetry_equiv_pos_as_xyz
1 x,y,z
2 -x,-y,-z
_cell_length_a                   8.5155(11)
_cell_length_b                   15.452(2)
_cell_length_c                   16.190(2)
_cell_angle_alpha                62.058(2)
_cell_angle_beta                 82.603(2)
_cell_angle_gamma                84.463(2)
_cell_volume                     1864.71
_exptl_crystal_colour            colorless
_exptl_crystal_description       block
_cell_formula_units_Z            2
_exptl_crystal_recrystallization_method acetonitrile/pentane
loop_
_atom_site_label
_atom_site_type_symbol
_atom_site_fract_x
_atom_site_fract_y
_atom_site_fract_z
S1 S 1.32430(10) 0.62002(6) -0.03306(6)
S2 S 1.31624(10) 0.16441(6) 0.85725(6)
S3 S 0.16307(9) 0.19708(5) 0.27521(5)
N1 N 0.8569(3) 0.55338(16) 0.19410(17)
N2 N 0.9523(3) 0.62912(16) 0.16812(16)
N3 N 1.1607(2) 0.25280(17) 0.55053(16)
N4 N 1.3082(2) 0.26281(17) 0.56686(17)
N5 N 0.5790(2) 0.11695(15) 0.39734(15)
N6 N 0.4387(2) 0.11129(16) 0.36951(16)
C1 C 0.7978(3) 0.40400(19) 0.34442(19)
C2 C 0.6833(3) 0.33537(19) 0.36417(18)
C3 C 0.7140(3) 0.23572(18) 0.42575(18)
C4 C 0.8626(3) 0.20396(19) 0.46099(18)
C5 C 0.9790(3) 0.27314(19) 0.43568(18)
C6 C 0.9456(3) 0.37259(19) 0.38036(19)
C7 C 0.7638(3) 0.51304(19) 0.2852(2)
H1 H 0.6498 0.5245 0.2753
H2 H 0.7868 0.5481 0.3198
C8 C 0.8633(4) 0.5246(2) 0.1274(2)
H3 H 0.8060 0.4734 0.1302
C9 C 0.9672(4) 0.5822(2) 0.0548(2)
H4 H 0.9973 0.5792 -0.0024
C10 C 1.0200(3) 0.6467(2) 0.0826(2)
C11 C 1.1236(3) 0.7315(2) 0.0299(2)
C12 C 1.0828(3) 0.8163(2) 0.0385(2)
H5 H 0.9932 0.8171 0.0797
C13 C 1.1696(4) 0.9000(2) -0.0115(2)
H6 H 1.1407 0.9568 -0.0037
C14 C 1.2986(4) 0.8999(2) -0.0727(2)
H7 H 1.3561 0.9577 -0.1092
C15 C 1.3436(4) 0.8158(2) -0.0808(2)
H8 H 1.4333 0.8160 -0.1223
C16 C 1.2594(3) 0.7305(2) -0.0289(2)
C17 C 1.5191(5) 0.6467(3) -0.0946(3)
H9 H 1.5109 0.6996 -0.1586
H10 H 1.5683 0.5879 -0.0972
H11 H 1.5842 0.6671 -0.0616
C18 C 1.1419(3) 0.2391(2) 0.46905(19)
H12 H 1.1598 0.1688 0.4857
H13 H 1.2227 0.2762 0.4174
C19 C 1.0487(3) 0.2556(2) 0.6159(2)
H14 H 0.9379 0.2504 0.6177
C20 C 1.1244(3) 0.2673(2) 0.6795(2)
H15 H 1.0779 0.2715 0.7341
C21 C 1.2867(3) 0.2717(2) 0.6461(2)
C22 C 1.4252(3) 0.2932(2) 0.6803(2)
C23 C 1.5382(3) 0.3576(2) 0.6108(3)
H16 H 1.5285 0.3817 0.5458
C24 C 1.6633(4) 0.3843(3) 0.6409(3)
H17 H 1.7398 0.4272 0.5959
C25 C 1.6769(4) 0.3492(2) 0.7351(3)
H18 H 1.7617 0.3695 0.7538
C26 C 1.5710(4) 0.2854(2) 0.8029(2)
H19 H 1.5830 0.2618 0.8676
C27 C 1.4440(3) 0.2552(2) 0.7752(2)
C28 C 1.3311(9) 0.1752(6) 0.9650(5)
H20 H 1.4400 0.1584 0.9826
H21 H 1.2586 0.1303 1.0161
H22 H 1.3025 0.2427 0.9534
C30 C 0.5832(3) 0.16398(19) 0.45729(19)
H26 H 0.5970 0.1125 0.5222
H27 H 0.4800 0.1990 0.4586
C31 C 0.6970(3) 0.0687(2) 0.3697(2)
H28 H 0.8048 0.0626 0.3817
C32 C 0.6334(3) 0.0303(2) 0.3213(2)
H29 H 0.6868 -0.0077 0.2932
C33 C 0.4710(3) 0.05935(19) 0.32196(19)
C34 C 0.3475(3) 0.03767(19) 0.27932(18)
C35 C 0.3726(3) -0.0449(2) 0.2645(2)
H30 H 0.4680 -0.0836 0.2813
C36 C 0.2621(4) -0.0719(2) 0.2259(2)
H31 H 0.2817 -0.1287 0.2169
C37 C 0.1233(4) -0.0156(2) 0.2004(2)
H32 H 0.0476 -0.0334 0.1734
C38 C 0.0947(3) 0.0664(2) 0.2142(2)
H33 H -0.0009 0.1046 0.1965
C39 C 0.2041(3) 0.09431(19) 0.25391(18)
C40 C -0.0026(4) 0.2582(2) 0.2084(2)
H34 H 0.0243 0.2701 0.1433
H35 H -0.0277 0.3208 0.2096
H36 H -0.0947 0.2169 0.2358
C41 C 0.5265(3) 0.3682(2) 0.3217(2)
H37 H 0.4825 0.3134 0.3190
H38 H 0.5430 0.4225 0.2581
H39 H 0.4525 0.3900 0.3605
C42 C 0.9031(3) 0.09780(19) 0.5243(2)
H40 H 0.9949 0.0756 0.4949
H41 H 0.8124 0.0583 0.5345
H42 H 0.9283 0.0904 0.5847
C43 C 1.0696(3) 0.4457(2) 0.3597(2)
H43 H 1.1336 0.4215 0.4130
H44 H 1.0174 0.5088 0.3496
H45 H 1.1383 0.4542 0.3032
C29? C 1.3870(14) 0.1223(9) 0.9657(7)
H23? H 1.4883 0.0860 0.9671
H24? H 1.3103 0.0791 1.0150
H25? H 1.4024 0.1782 0.9764
loop_
_geom_bond_atom_site_label_1
_geom_bond_atom_site_label_2
_geom_bond_site_symmetry_1
_geom_bond_site_symmetry_2
S1 C16 1_555 1_555
S2 C27 1_555 1_555
S3 C39 1_555 1_555
N1 N2 1_555 1_555
N2 C10 1_555 1_555
N3 N4 1_555 1_555
N4 C21 1_555 1_555
N5 N6 1_555 1_555
N6 C33 1_555 1_555
C1 C2 1_555 1_555
C2 C3 1_555 1_555
C3 C4 1_555 1_555
C4 C5 1_555 1_555
C5 C6 1_555 1_555
C6 C1 1_555 1_555
C7 N1 1_555 1_555
H1 C7 1_555 1_555
H2 C7 1_555 1_555
C8 N1 1_555 1_555
H3 C8 1_555 1_555
C9 C8 1_555 1_555
H4 C9 1_555 1_555
C10 C9 1_555 1_555
C11 C10 1_555 1_555
C12 C11 1_555 1_555
H5 C12 1_555 1_555
C13 C12 1_555 1_555
H6 C13 1_555 1_555
C14 C13 1_555 1_555
H7 C14 1_555 1_555
C15 C14 1_555 1_555
H8 C15 1_555 1_555
C16 C11 1_555 1_555
C17 S1 1_555 1_555
H9 C17 1_555 1_555
H10 C17 1_555 1_555
H11 C17 1_555 1_555
C18 N3 1_555 1_555
H12 C18 1_555 1_555
H13 C18 1_555 1_555
C19 N3 1_555 1_555
H14 C19 1_555 1_555
C20 C19 1_555 1_555
H15 C20 1_555 1_555
C21 C20 1_555 1_555
C22 C21 1_555 1_555
C23 C22 1_555 1_555
H16 C23 1_555 1_555
C24 C23 1_555 1_555
H17 C24 1_555 1_555
C25 C24 1_555 1_555
H18 C25 1_555 1_555
C26 C25 1_555 1_555
H19 C26 1_555 1_555
C27 C22 1_555 1_555
C28 S2 1_555 1_555
H20 C28 1_555 1_555
H21 C28 1_555 1_555
H22 C28 1_555 1_555
C30 N5 1_555 1_555
H26 C30 1_555 1_555
H27 C30 1_555 1_555
C31 N5 1_555 1_555
H28 C31 1_555 1_555
C32 C31 1_555 1_555
H29 C32 1_555 1_555
C33 C32 1_555 1_555
C34 C33 1_555 1_555
C35 C34 1_555 1_555
H30 C35 1_555 1_555
C36 C35 1_555 1_555
H31 C36 1_555 1_555
C37 C36 1_555 1_555
H32 C37 1_555 1_555
C38 C37 1_555 1_555
H33 C38 1_555 1_555
C39 C34 1_555 1_555
C40 S3 1_555 1_555
H34 C40 1_555 1_555
H35 C40 1_555 1_555
H36 C40 1_555 1_555
C41 C2 1_555 1_555
H37 C41 1_555 1_555
H38 C41 1_555 1_555
H39 C41 1_555 1_555
C42 C4 1_555 1_555
H40 C42 1_555 1_555
H41 C42 1_555 1_555
H42 C42 1_555 1_555
C43 C6 1_555 1_555
H43 C43 1_555 1_555
H44 C43 1_555 1_555
H45 C43 1_555 1_555
C1 C7 1_555 1_555
C3 C30 1_555 1_555
C5 C18 1_555 1_555
C15 C16 1_555 1_555
C26 C27 1_555 1_555
C38 C39 1_555 1_555

#END
