
#######################################################################
#
#                 Cambridge Crystallographic Data Centre
#                                CCDC 
#
#######################################################################
#
# If this CIF has been generated from an entry in the Cambridge 
# Structural Database, then it will include bibliographic, chemical, 
# crystal, experimental, refinement or atomic coordinate data resulting 
# from the CCDC's data processing and validation procedures.
#
#######################################################################

data_LEBCAX
_chemical_formula_moiety         'C32 H28 N4 S2'
_chemical_name_systematic        
1,8-bis(3-(2-(Methylthio)phenyl)pyrazolylmethyl)naphthalene
_symmetry_cell_setting           monoclinic
_symmetry_space_group_name_H-M   'P 2/c'
_symmetry_Int_Tables_number      13
_space_group_name_Hall           '-P 2yc'
loop_
_symmetry_equiv_pos_site_id
_symmetry_equiv_pos_as_xyz
1 x,y,z
2 -x,y,1/2-z
3 -x,-y,-z
4 x,-y,1/2+z
_cell_length_a                   12.548(4)
_cell_length_b                   8.423(2)
_cell_length_c                   12.579(4)
_cell_angle_alpha                90
_cell_angle_beta                 94.604(5)
_cell_angle_gamma                90
_cell_volume                     1325.21
_exptl_crystal_colour            colorless
_exptl_crystal_description       plate
_cell_formula_units_Z            2
loop_
_atom_site_label
_atom_site_type_symbol
_atom_site_fract_x
_atom_site_fract_y
_atom_site_fract_z
S1 S 0.89151(4) 0.29269(7) -0.00674(4)
N1 N 0.66330(11) 0.36602(16) 0.28556(11)
N2 N 0.66539(11) 0.22834(17) 0.23016(11)
C1 C 0.46652(14) 0.9058(2) 0.15634(14)
H1 H 0.4688 1.0186 0.1573
C2 C 0.5000 0.8204(3) 0.2500
C3 C 0.5000 0.6506(3) 0.2500
C4 C 0.54596(13) 0.5734(2) 0.34551(13)
C5 C 0.57771(14) 0.6637(2) 0.43380(13)
H2 H 0.6068 0.6113 0.4964
C6 C 0.43113(14) 0.8293(2) 0.06487(14)
H3 H 0.4128 0.8873 0.0013
C7 C 0.57498(14) 0.3997(2) 0.35193(13)
H4 H 0.5963 0.3708 0.4269
H5 H 0.5120 0.3349 0.3273
C8 C 0.75305(15) 0.4512(2) 0.27939(14)
H6 H 0.7690 0.5506 0.3126
C9 C 0.81709(15) 0.3681(2) 0.21643(14)
H7 H 0.8858 0.3979 0.1967
C10 C 0.75982(14) 0.2291(2) 0.18688(13)
C11 C 0.78570(13) 0.0920(2) 0.12074(13)
C12 C 0.74626(14) -0.0561(2) 0.14731(15)
H8 H 0.7099 -0.0665 0.2104
C13 C 0.75862(16) -0.1882(2) 0.08429(16)
H9 H 0.7306 -0.2879 0.1038
C14 C 0.81185(16) -0.1747(3) -0.00695(17)
H10 H 0.8197 -0.2648 -0.0511
C15 C 0.85374(16) -0.0302(3) -0.03406(15)
H11 H 0.8916 -0.0226 -0.0963
C16 C 0.84169(14) 0.1050(2) 0.02788(14)
C17 C 0.94491(17) 0.2580(3) -0.13340(15)
H12 H 1.0021 0.1788 -0.1247
H13 H 0.9737 0.3574 -0.1597
H14 H 0.8880 0.2190 -0.1847
S1A S 0.10849(4) 0.29269(7) 0.50674(4)
N1A N 0.33670(11) 0.36602(16) 0.21444(11)
N2A N 0.33461(11) 0.22834(17) 0.26984(11)
C1A C 0.53348(14) 0.9058(2) 0.34366(14)
H1A H 0.5312 1.0186 0.3427
C4A C 0.45404(13) 0.5734(2) 0.15449(13)
C5A C 0.42229(14) 0.6637(2) 0.06620(13)
H2A H 0.3932 0.6113 0.0036
C6A C 0.56887(14) 0.8293(2) 0.43513(14)
H3A H 0.5872 0.8873 0.4987
C7A C 0.42502(14) 0.3997(2) 0.14807(13)
H4A H 0.4037 0.3708 0.0731
H5A H 0.4880 0.3349 0.1727
C8A C 0.24695(15) 0.4512(2) 0.22061(14)
H6A H 0.2310 0.5506 0.1874
C9A C 0.18291(15) 0.3681(2) 0.28357(14)
H7A H 0.1142 0.3979 0.3033
C10A C 0.24018(14) 0.2291(2) 0.31312(13)
C11A C 0.21430(13) 0.0920(2) 0.37926(13)
C12A C 0.25374(14) -0.0561(2) 0.35269(15)
H8A H 0.2901 -0.0665 0.2896
C13A C 0.24138(16) -0.1882(2) 0.41571(16)
H9A H 0.2694 -0.2879 0.3962
C14A C 0.18815(16) -0.1747(3) 0.50695(17)
H10A H 0.1803 -0.2648 0.5511
C15A C 0.14626(16) -0.0302(3) 0.53406(15)
H11A H 0.1084 -0.0226 0.5963
C16A C 0.15831(14) 0.1050(2) 0.47212(14)
C17A C 0.05509(17) 0.2580(3) 0.63340(15)
H12A H -0.0021 0.1788 0.6247
H13A H 0.0263 0.3574 0.6597
H14A H 0.1120 0.2190 0.6847
loop_
_geom_bond_atom_site_label_1
_geom_bond_atom_site_label_2
_geom_bond_site_symmetry_1
_geom_bond_site_symmetry_2
S1 C16 1_555 1_555
N1 N2 1_555 1_555
N2 C10 1_555 1_555
C1 H1 1_555 1_555
C2 C1 1_555 1_555
C3 C2 1_555 1_555
C4 C3 1_555 1_555
C5 C4 1_555 1_555
H2 C5 1_555 1_555
C6 C1 1_555 1_555
H3 C6 1_555 1_555
C7 N1 1_555 1_555
H4 C7 1_555 1_555
H5 C7 1_555 1_555
C8 N1 1_555 1_555
H6 C8 1_555 1_555
C9 C8 1_555 1_555
H7 C9 1_555 1_555
C10 C9 1_555 1_555
C11 C10 1_555 1_555
C12 C11 1_555 1_555
H8 C12 1_555 1_555
C13 C12 1_555 1_555
H9 C13 1_555 1_555
C14 C13 1_555 1_555
H10 C14 1_555 1_555
C15 C14 1_555 1_555
H11 C15 1_555 1_555
C16 C11 1_555 1_555
C17 S1 1_555 1_555
H12 C17 1_555 1_555
H13 C17 1_555 1_555
H14 C17 1_555 1_555
S1A C16A 1_555 1_555
N1A N2A 1_555 1_555
N2A C10A 1_555 1_555
C1A C2 1_555 1_555
H1A C1A 1_555 1_555
C4A C3 1_555 1_555
C5A C6 1_555 1_555
H2A C5A 1_555 1_555
C6A C5 1_555 1_555
H3A C6A 1_555 1_555
C7A N1A 1_555 1_555
H4A C7A 1_555 1_555
H5A C7A 1_555 1_555
C8A N1A 1_555 1_555
H6A C8A 1_555 1_555
C9A C8A 1_555 1_555
H7A C9A 1_555 1_555
C10A C9A 1_555 1_555
C11A C10A 1_555 1_555
C12A C11A 1_555 1_555
H8A C12A 1_555 1_555
C13A C12A 1_555 1_555
H9A C13A 1_555 1_555
C14A C13A 1_555 1_555
H10A C14A 1_555 1_555
C15A C14A 1_555 1_555
H11A C15A 1_555 1_555
C16A C11A 1_555 1_555
C17A S1A 1_555 1_555
H12A C17A 1_555 1_555
H13A C17A 1_555 1_555
H14A C17A 1_555 1_555
C4 C7 1_555 1_555
C15 C16 1_555 1_555
C1A C6A 1_555 1_555
C4A C5A 1_555 1_555
C4A C7A 1_555 1_555
C15A C16A 1_555 1_555

#END
