
#######################################################################
#
#                 Cambridge Crystallographic Data Centre
#                                CCDC 
#
#######################################################################
#
# If this CIF has been generated from an entry in the Cambridge 
# Structural Database, then it will include bibliographic, chemical, 
# crystal, experimental, refinement or atomic coordinate data resulting 
# from the CCDC's data processing and validation procedures.
#
#######################################################################

data_LEBDIF
_chemical_formula_moiety         'C15 H22 F1 N1 O4 S1'
_chemical_name_systematic        
2-(1-Acetoxy-2-fluoropropyl)-N-t-butylbenzenesulfonamide
_symmetry_cell_setting           monoclinic
_symmetry_space_group_name_H-M   'P 21/a'
_symmetry_Int_Tables_number      14
_space_group_name_Hall           '-P 2yab'
loop_
_symmetry_equiv_pos_site_id
_symmetry_equiv_pos_as_xyz
1 x,y,z
2 1/2-x,1/2+y,-z
3 -x,-y,-z
4 1/2+x,1/2-y,z
_cell_length_a                   13.693(6)
_cell_length_b                   14.731(15)
_cell_length_c                   8.737(5)
_cell_angle_alpha                90
_cell_angle_beta                 106.51(5)
_cell_angle_gamma                90
_cell_volume                     1689.69
_exptl_crystal_colour            Colorless
_cell_formula_units_Z            4
loop_
_atom_site_label
_atom_site_type_symbol
_atom_site_fract_x
_atom_site_fract_y
_atom_site_fract_z
S1 S 0.2176(1) 0.3425 0.7251(1)
F1 F 0.0756(2) 0.6606(1) 0.8577(3)
O1 O 0.2426(2) 0.6366(1) 0.7567(3)
O2 O 0.3216(2) 0.5628(2) 0.6045(4)
O3 O 0.2209(2) 0.2488(1) 0.7683(3)
O4 O 0.1302(1) 0.3754(1) 0.6074(2)
N1 N 0.3128(2) 0.3635(2) 0.6569(3)
C1 C 0.2312(2) 0.4071(2) 0.9020(3)
C2 C 0.2183(2) 0.5022(2) 0.9026(3)
C3 C 0.2415(2) 0.5461(2) 1.0485(4)
C4 C 0.2731(3) 0.4985(3) 1.1913(4)
C5 C 0.2813(3) 0.4053(3) 1.1883(4)
C6 C 0.2616(2) 0.3593(2) 1.0443(4)
C7 C 0.1759(2) 0.5586(2) 0.7527(3)
C8 C 0.0707(2) 0.5970(2) 0.7359(4)
C9 C -0.0067(2) 0.5269(3) 0.7416(5)
C10 C 0.3137(3) 0.6290(2) 0.6793(4)
C11 C 0.3779(3) 0.7120(2) 0.6950(5)
C12 C 0.4207(2) 0.3314(2) 0.7215(4)
C13 C 0.4770(3) 0.3671(4) 0.6105(5)
C14 C 0.4689(4) 0.3677(6) 0.8839(6)
C15 C 0.4217(5) 0.2279(4) 0.7187(12)
H1 H 0.2352(2) 0.6191(2) 1.0515(4)
H2 H 0.2912(3) 0.5341(3) 1.3040(4)
H3 H 0.3031(3) 0.3679(3) 1.2991(4)
H4 H 0.2699(2) 0.2864(2) 1.0432(4)
H5 H 0.1715(2) 0.5131(2) 0.6542(3)
H6 H 0.0465(2) 0.6281(2) 0.6193(4)
H7 H -0.0118(2) 0.4775(3) 0.6484(5)
H8 H -0.0800(2) 0.5589(3) 0.7247(5)
H9 H 0.0155(2) 0.4934(3) 0.8563(5)
H10 H 0.4338(3) 0.7025(2) 0.6306(5)
H11 H 0.4161(3) 0.7242(2) 0.8195(5)
H12 H 0.3303(3) 0.7696(2) 0.6461(5)
H13 H 0.3111(21) 0.4171(20) 0.6338(33)
H14 H 0.5558(3) 0.3460(4) 0.6515(5)
H15 H 0.4731(3) 0.4403(4) 0.6074(5)
H16 H 0.4429(3) 0.3404(4) 0.4921(5)
H17 H 0.4287(4) 0.3423(6) 0.9649(6)
H18 H 0.4658(4) 0.4409(6) 0.8815(6)
H19 H 0.5474(4) 0.3459(6) 0.9237(6)
H20 H 0.4990(5) 0.2038(4) 0.7649(12)
H21 H 0.3905(5) 0.2044(4) 0.5975(12)
H22 H 0.3761(5) 0.2023(4) 0.7918(12)
loop_
_geom_bond_atom_site_label_1
_geom_bond_atom_site_label_2
_geom_bond_site_symmetry_1
_geom_bond_site_symmetry_2
S1 O3 1_555 1_555
F1 C8 1_555 1_555
O1 C7 1_555 1_555
O2 C10 1_555 1_555
O4 S1 1_555 1_555
N1 S1 1_555 1_555
C1 S1 1_555 1_555
C2 C1 1_555 1_555
C3 C2 1_555 1_555
C4 C3 1_555 1_555
C5 C4 1_555 1_555
C6 C1 1_555 1_555
C7 C2 1_555 1_555
C8 C7 1_555 1_555
C9 C8 1_555 1_555
C10 O1 1_555 1_555
C11 C10 1_555 1_555
C12 N1 1_555 1_555
C13 C12 1_555 1_555
C14 C12 1_555 1_555
C15 C12 1_555 1_555
H1 C3 1_555 1_555
H2 C4 1_555 1_555
H3 C5 1_555 1_555
H4 C6 1_555 1_555
H5 C7 1_555 1_555
H6 C8 1_555 1_555
H7 C9 1_555 1_555
H8 C9 1_555 1_555
H9 C9 1_555 1_555
H10 C11 1_555 1_555
H11 C11 1_555 1_555
H12 C11 1_555 1_555
H13 N1 1_555 1_555
H14 C13 1_555 1_555
H15 C13 1_555 1_555
H16 C13 1_555 1_555
H17 C14 1_555 1_555
H18 C14 1_555 1_555
H19 C14 1_555 1_555
H20 C15 1_555 1_555
H21 C15 1_555 1_555
H22 C15 1_555 1_555
C5 C6 1_555 1_555

#END
