
#######################################################################
#
#                 Cambridge Crystallographic Data Centre
#                                CCDC 
#
#######################################################################
#
# If this CIF has been generated from an entry in the Cambridge 
# Structural Database, then it will include bibliographic, chemical, 
# crystal, experimental, refinement or atomic coordinate data resulting 
# from the CCDC's data processing and validation procedures.
#
#######################################################################

data_LEBGEE02
_chemical_formula_moiety         'C9 H10 N4 O4'
_chemical_name_systematic        'Acetone 2,4-dinitrophenylhydrazone'
_symmetry_cell_setting           triclinic
_symmetry_space_group_name_H-M   'P -1'
_symmetry_Int_Tables_number      2
_space_group_name_Hall           '-P 1'
loop_
_symmetry_equiv_pos_site_id
_symmetry_equiv_pos_as_xyz
1 x,y,z
2 -x,-y,-z
_cell_length_a                   7.0932(3)
_cell_length_b                   8.2032(4)
_cell_length_c                   10.0526(4)
_cell_angle_alpha                66.613(2)
_cell_angle_beta                 88.822(3)
_cell_angle_gamma                77.387(3)
_cell_volume                     522.489
_exptl_crystal_colour            yellow
_exptl_crystal_description       plate
_chemical_melting_point          '399-400 K'
_cell_formula_units_Z            2
_exptl_crystal_recrystallization_method ethanol
loop_
_atom_site_label
_atom_site_type_symbol
_atom_site_fract_x
_atom_site_fract_y
_atom_site_fract_z
O1 O 0.79883(13) 0.43025(14) 0.35357(10)
O2 O 0.68045(14) 0.47172(13) 0.14315(10)
O3 O 0.14892(16) 0.23433(16) 0.08958(10)
O4 O -0.00269(13) 0.09926(13) 0.27652(10)
N1 N 0.63130(15) 0.27688(14) 0.58865(11)
N2 N 0.60008(15) 0.21548(15) 0.73545(11)
N3 N 0.67715(15) 0.41367(15) 0.27552(12)
N4 N 0.12470(16) 0.18034(15) 0.21951(12)
C1 C 0.50745(17) 0.26031(16) 0.49651(13)
C2 C 0.52596(17) 0.32171(16) 0.34472(13)
C3 C 0.40033(17) 0.29639(17) 0.25365(13)
C4 C 0.25470(17) 0.21064(17) 0.31336(13)
C5 C 0.22706(18) 0.15232(17) 0.46174(14)
C6 C 0.35066(17) 0.17739(17) 0.55101(13)
C7 C 0.72963(18) 0.22764(17) 0.81669(14)
C8 C 0.7005(2) 0.1620(2) 0.97499(15)
C9 C 0.90674(18) 0.29973(19) 0.76374(15)
H1 H 0.7452 0.3232 0.5534
H2 H 0.4153 0.3377 0.1522
H3 H 0.1233 0.0957 0.5003
H4 H 0.3309 0.1384 0.6517
H5 H 0.5738 0.1311 0.9922
H6 H 0.7059 0.2583 1.0083
H7 H 0.8026 0.0536 1.0286
H8 H 0.9932 0.2165 0.7291
H9 H 0.9743 0.3090 0.8436
H10 H 0.8682 0.4206 0.6840
loop_
_geom_bond_atom_site_label_1
_geom_bond_atom_site_label_2
_geom_bond_site_symmetry_1
_geom_bond_site_symmetry_2
O1 N3 1_555 1_555
O2 N3 1_555 1_555
O3 N4 1_555 1_555
O4 N4 1_555 1_555
N1 N2 1_555 1_555
N2 C7 1_555 1_555
N3 C2 1_555 1_555
N4 C4 1_555 1_555
C1 N1 1_555 1_555
C2 C1 1_555 1_555
C3 C2 1_555 1_555
C4 C3 1_555 1_555
C5 C4 1_555 1_555
C6 C1 1_555 1_555
C7 C8 1_555 1_555
C8 H5 1_555 1_555
C9 C7 1_555 1_555
H1 N1 1_555 1_555
H2 C3 1_555 1_555
H3 C5 1_555 1_555
H4 C6 1_555 1_555
H6 C8 1_555 1_555
H7 C8 1_555 1_555
H8 C9 1_555 1_555
H9 C9 1_555 1_555
H10 C9 1_555 1_555
C5 C6 1_555 1_555

#END
