
#######################################################################
#
#                 Cambridge Crystallographic Data Centre
#                                CCDC 
#
#######################################################################
#
# If this CIF has been generated from an entry in the Cambridge 
# Structural Database, then it will include bibliographic, chemical, 
# crystal, experimental, refinement or atomic coordinate data resulting 
# from the CCDC's data processing and validation procedures.
#
#######################################################################

data_LEBGEE05
_chemical_formula_moiety         'C9 H10 N4 O4'
_chemical_name_systematic        
1-(2,4-dinitrophenyl)-2-(propan-2-ylidene)hydrazine
_symmetry_cell_setting           triclinic
_symmetry_space_group_name_H-M   'P -1'
_symmetry_Int_Tables_number      2
_space_group_name_Hall           '-P 1'
loop_
_symmetry_equiv_pos_site_id
_symmetry_equiv_pos_as_xyz
1 x,y,z
2 -x,-y,-z
_cell_length_a                   7.0983(4)
_cell_length_b                   8.2062(6)
_cell_length_c                   10.0596(7)
_cell_angle_alpha                66.654(3)
_cell_angle_beta                 88.849(4)
_cell_angle_gamma                77.483(4)
_cell_volume                     523.794
_exptl_crystal_colour            orange
_exptl_crystal_description       plate
_cell_formula_units_Z            2
loop_
_atom_site_label
_atom_site_type_symbol
_atom_site_fract_x
_atom_site_fract_y
_atom_site_fract_z
O1 O 0.68098(19) 0.47144(19) 0.14384(14)
O2 O 0.79909(18) 0.42979(19) 0.35404(14)
O3 O -0.00256(19) 0.09929(18) 0.27662(14)
O4 O 0.1491(2) 0.2344(2) 0.08980(15)
N1 N 0.6314(2) 0.2765(2) 0.58906(16)
N2 N 0.5996(2) 0.2157(2) 0.73535(16)
N3 N 0.6775(2) 0.4134(2) 0.27607(17)
N4 N 0.1250(2) 0.1802(2) 0.21989(17)
C1 C 0.5075(2) 0.2605(2) 0.49681(18)
C2 C 0.5266(2) 0.3216(2) 0.34487(19)
C3 C 0.4007(2) 0.2964(2) 0.25421(19)
H1 H 0.415627 0.337823 0.152872
C4 C 0.2547(2) 0.2109(2) 0.31351(19)
C5 C 0.2275(2) 0.1524(2) 0.46192(19)
H2 H 0.123944 0.095625 0.500565
C6 C 0.3511(2) 0.1774(2) 0.55105(19)
H3 H 0.331495 0.138224 0.651636
C7 C 0.7296(3) 0.2278(3) 0.8167(2)
C8 C 0.9064(3) 0.2996(3) 0.7644(2)
H4 H 0.975362 0.306191 0.844864
H5 H 0.868103 0.421523 0.686244
H6 H 0.991467 0.217882 0.727766
C9 C 0.6999(3) 0.1621(3) 0.9751(2)
H7 H 0.707945 0.257253 1.008962
H8 H 0.800037 0.052285 1.028564
H9 H 0.572067 0.133560 0.991739
H10 H 0.728(3) 0.329(3) 0.549(2)
loop_
_geom_bond_atom_site_label_1
_geom_bond_atom_site_label_2
_geom_bond_site_symmetry_1
_geom_bond_site_symmetry_2
O1 N3 1_555 1_555
O2 N3 1_555 1_555
O3 N4 1_555 1_555
O4 N4 1_555 1_555
N1 N2 1_555 1_555
N2 C7 1_555 1_555
N3 C2 1_555 1_555
N4 C4 1_555 1_555
C1 N1 1_555 1_555
C2 C1 1_555 1_555
C3 C2 1_555 1_555
H1 C3 1_555 1_555
C4 C3 1_555 1_555
C5 C4 1_555 1_555
H2 C5 1_555 1_555
C6 C1 1_555 1_555
H3 C6 1_555 1_555
C7 C8 1_555 1_555
C8 H4 1_555 1_555
H5 C8 1_555 1_555
H6 C8 1_555 1_555
C9 C7 1_555 1_555
H7 C9 1_555 1_555
H8 C9 1_555 1_555
H9 C9 1_555 1_555
H10 N1 1_555 1_555
C5 C6 1_555 1_555

#END
