
#######################################################################
#
#                 Cambridge Crystallographic Data Centre
#                                CCDC 
#
#######################################################################
#
# If this CIF has been generated from an entry in the Cambridge 
# Structural Database, then it will include bibliographic, chemical, 
# crystal, experimental, refinement or atomic coordinate data resulting 
# from the CCDC's data processing and validation procedures.
#
#######################################################################

data_LEBPAK
_chemical_formula_moiety         'C20 H16 Cl2 O1'
_chemical_name_systematic        
E,E'-\a,\a'-bis(p-chlorobenzylidene)cyclohexanone
_symmetry_cell_setting           monoclinic
_symmetry_space_group_name_H-M   'P 21/n'
_symmetry_Int_Tables_number      14
_space_group_name_Hall           '-P 2yn'
loop_
_symmetry_equiv_pos_site_id
_symmetry_equiv_pos_as_xyz
1 x,y,z
2 1/2-x,1/2+y,1/2-z
3 -x,-y,-z
4 1/2+x,1/2-y,1/2+z
_cell_length_a                   10.0665(4)
_cell_length_b                   16.6372(7)
_cell_length_c                   10.5634(3)
_cell_angle_alpha                90
_cell_angle_beta                 107.793(2)
_cell_angle_gamma                90
_cell_volume                     1684.52
_chemical_melting_point          108-110deg.C
_cell_formula_units_Z            4
_exptl_crystal_recrystallization_method 'solvent-free microwave irradiation'
loop_
_atom_site_label
_atom_site_type_symbol
_atom_site_fract_x
_atom_site_fract_y
_atom_site_fract_z
O1 O 0.1692(3) 0.05279(17) -0.1072(2)
Cl1 Cl 0.93475(11) 0.16246(8) 0.51672(11)
Cl2 Cl -0.71519(12) 0.14792(8) -0.38553(15)
C1 C 0.7774(4) 0.1453(2) 0.3951(3)
C2 C 0.7565(4) 0.0753(2) 0.3228(4)
H1 H 0.8273 0.0373 0.3374
C3 C 0.6299(4) 0.0619(2) 0.2286(4)
H2 H 0.6171 0.0150 0.1782
C4 C 0.5204(4) 0.1165(2) 0.2065(3)
C5 C 0.5460(4) 0.1880(2) 0.2785(4)
H3 H 0.4762 0.2267 0.2633
C6 C 0.6731(4) 0.2022(2) 0.3718(4)
H4 H 0.6886 0.2502 0.4191
C7 C 0.3879(4) 0.0973(2) 0.1070(3)
H5 H 0.3956 0.0667 0.0359
C8 C 0.2576(4) 0.11649(19) 0.1014(3)
C9 C 0.2170(4) 0.1612(2) 0.2088(3)
H6 H 0.2042 0.2178 0.1859
H7 H 0.2910 0.1566 0.2926
C10 C 0.0831(4) 0.1270(2) 0.2236(3)
H8 H 0.0956 0.0701 0.2444
H9 H 0.0617 0.1535 0.2968
C11 C -0.0369(4) 0.1380(2) 0.0984(3)
H10 H -0.0609 0.1945 0.0878
H11 H -0.1173 0.1092 0.1073
C12 C -0.0057(4) 0.10849(18) -0.0256(3)
C13 C 0.1424(4) 0.08920(19) -0.0171(3)
C14 C -0.1000(4) 0.09800(19) -0.1443(3)
H12 H -0.0622 0.0787 -0.2085
C15 C -0.2507(4) 0.11061(19) -0.1942(3)
C16 C -0.3196(4) 0.0851(2) -0.3227(4)
H13 H -0.2683 0.0595 -0.3707
C17 C -0.4611(5) 0.0960(2) -0.3825(4)
H14 H -0.5037 0.0785 -0.4689
C18 C -0.5375(4) 0.1333(2) -0.3118(5)
C19 C -0.4751(5) 0.1582(2) -0.1843(5)
H15 H -0.5281 0.1823 -0.1364
C20 C -0.3335(4) 0.1477(2) -0.1263(4)
H16 H -0.2920 0.1657 -0.0398
loop_
_geom_bond_atom_site_label_1
_geom_bond_atom_site_label_2
_geom_bond_site_symmetry_1
_geom_bond_site_symmetry_2
O1 C13 1_555 1_555
Cl1 C1 1_555 1_555
Cl2 C18 1_555 1_555
C1 C2 1_555 1_555
C2 H1 1_555 1_555
C3 C2 1_555 1_555
H2 C3 1_555 1_555
C4 C3 1_555 1_555
C5 C4 1_555 1_555
H3 C5 1_555 1_555
C6 C1 1_555 1_555
H4 C6 1_555 1_555
C7 C4 1_555 1_555
H5 C7 1_555 1_555
C8 C7 1_555 1_555
C9 C8 1_555 1_555
H6 C9 1_555 1_555
H7 C9 1_555 1_555
C10 C9 1_555 1_555
H8 C10 1_555 1_555
H9 C10 1_555 1_555
C11 C10 1_555 1_555
H10 C11 1_555 1_555
H11 C11 1_555 1_555
C12 C11 1_555 1_555
C13 C8 1_555 1_555
C14 C12 1_555 1_555
H12 C14 1_555 1_555
C15 C14 1_555 1_555
C16 C15 1_555 1_555
H13 C16 1_555 1_555
C17 C16 1_555 1_555
H14 C17 1_555 1_555
C18 C17 1_555 1_555
C19 C18 1_555 1_555
H15 C19 1_555 1_555
C20 C15 1_555 1_555
H16 C20 1_555 1_555
C5 C6 1_555 1_555
C12 C13 1_555 1_555
C19 C20 1_555 1_555

#END
