
#######################################################################
#
#                 Cambridge Crystallographic Data Centre
#                                CCDC 
#
#######################################################################
#
# If this CIF has been generated from an entry in the Cambridge 
# Structural Database, then it will include bibliographic, chemical, 
# crystal, experimental, refinement or atomic coordinate data resulting 
# from the CCDC's data processing and validation procedures.
#
#######################################################################

data_LEBRAN
_chemical_formula_moiety         'C20 H13 Br2 N1'
_chemical_name_systematic        2,3-bis(4-bromophenyl)-1H-indole
_symmetry_cell_setting           monoclinic
_symmetry_space_group_name_H-M   'P 21/c'
_symmetry_Int_Tables_number      14
_space_group_name_Hall           '-P 2ybc'
loop_
_symmetry_equiv_pos_site_id
_symmetry_equiv_pos_as_xyz
1 x,y,z
2 -x,1/2+y,1/2-z
3 -x,-y,-z
4 x,1/2-y,1/2+z
_cell_length_a                   9.5159(10)
_cell_length_b                   19.9131(12)
_cell_length_c                   9.6564(9)
_cell_angle_alpha                90
_cell_angle_beta                 113.384(12)
_cell_angle_gamma                90
_cell_volume                     1679.51
_exptl_crystal_colour            yellow
_exptl_crystal_description       needle
_cell_formula_units_Z            4
loop_
_atom_site_label
_atom_site_type_symbol
_atom_site_fract_x
_atom_site_fract_y
_atom_site_fract_z
Br1 Br 0.35956(10) 0.54436(4) 0.66833(10)
Br2 Br 0.32949(9) 0.09018(4) 0.52313(9)
N1 N -0.1988(5) 0.4077(2) 0.0347(5)
H1 H -0.2117 0.4505 0.0251
C1 C -0.2943(7) 0.2408(3) -0.0976(6)
H2 H -0.2574 0.1981 -0.0636
C2 C -0.4158(7) 0.2500(3) -0.2358(7)
H3 H -0.4605 0.2128 -0.2951
C3 C -0.4718(7) 0.3135(3) -0.2873(7)
H4 H -0.5528 0.3179 -0.3808
C4 C -0.4113(7) 0.3697(3) -0.2047(6)
H5 H -0.4505 0.4122 -0.2390
C5 C -0.2876(6) 0.3608(3) -0.0656(6)
C6 C -0.2294(6) 0.2972(3) -0.0117(6)
C7 C -0.0976(6) 0.3076(3) 0.1291(5)
C8 C -0.0842(6) 0.3754(3) 0.1553(6)
C9 C 0.0233(7) 0.4146(3) 0.2781(6)
C10 C 0.0861(8) 0.4732(3) 0.2512(7)
H6 H 0.0590 0.4873 0.1521
C11 C 0.1864(8) 0.5110(3) 0.3652(7)
H7 H 0.2282 0.5499 0.3439
C12 C 0.2249(7) 0.4911(3) 0.5116(7)
C13 C 0.1665(7) 0.4334(3) 0.5442(6)
H8 H 0.1945 0.4199 0.6438
C14 C 0.0651(7) 0.3953(3) 0.4275(6)
H9 H 0.0244 0.3562 0.4493
C15 C 0.0066(6) 0.2553(2) 0.2208(5)
C16 C -0.0521(6) 0.1964(3) 0.2570(6)
H10 H -0.1574 0.1899 0.2194
C17 C 0.0428(7) 0.1487(3) 0.3461(6)
H11 H 0.0024 0.1100 0.3702
C18 C 0.1985(7) 0.1575(3) 0.4005(6)
C19 C 0.2609(7) 0.2140(3) 0.3659(6)
H12 H 0.3665 0.2195 0.4026
C20 C 0.1639(7) 0.2623(3) 0.2758(6)
H13 H 0.2052 0.3006 0.2513
loop_
_geom_bond_atom_site_label_1
_geom_bond_atom_site_label_2
_geom_bond_site_symmetry_1
_geom_bond_site_symmetry_2
Br1 C12 1_555 1_555
Br2 C18 1_555 1_555
N1 H1 1_555 1_555
C1 H2 1_555 1_555
C2 C1 1_555 1_555
H3 C2 1_555 1_555
C3 C2 1_555 1_555
H4 C3 1_555 1_555
C4 C3 1_555 1_555
H5 C4 1_555 1_555
C5 N1 1_555 1_555
C6 C1 1_555 1_555
C7 C6 1_555 1_555
C8 N1 1_555 1_555
C9 C8 1_555 1_555
C10 C9 1_555 1_555
H6 C10 1_555 1_555
C11 C10 1_555 1_555
H7 C11 1_555 1_555
C12 C11 1_555 1_555
C13 C12 1_555 1_555
H8 C13 1_555 1_555
C14 C9 1_555 1_555
H9 C14 1_555 1_555
C15 C7 1_555 1_555
C16 C15 1_555 1_555
H10 C16 1_555 1_555
C17 C16 1_555 1_555
H11 C17 1_555 1_555
C18 C17 1_555 1_555
C19 C18 1_555 1_555
H12 C19 1_555 1_555
C20 C15 1_555 1_555
H13 C20 1_555 1_555
C4 C5 1_555 1_555
C5 C6 1_555 1_555
C7 C8 1_555 1_555
C13 C14 1_555 1_555
C19 C20 1_555 1_555

#END
