
#######################################################################
#
#                 Cambridge Crystallographic Data Centre
#                                CCDC 
#
#######################################################################
#
# If this CIF has been generated from an entry in the Cambridge 
# Structural Database, then it will include bibliographic, chemical, 
# crystal, experimental, refinement or atomic coordinate data resulting 
# from the CCDC's data processing and validation procedures.
#
#######################################################################

data_LEBYEZ
_chemical_formula_moiety         'C64 H68 Br4 O8,C1 H1 Cl3'
_chemical_name_systematic        
"5,11,17,23-tetrakis(2-bromoethynyl)-2,8,14,20-tetrkis(n-hexyl)-6,10:12,16:18,22:24,4-O,O'-tetrakis(methylene)calix(4)resorcinarene chloroform solvate"
_symmetry_cell_setting           monoclinic
_symmetry_space_group_name_H-M   'P 21/n'
_symmetry_Int_Tables_number      14
_space_group_name_Hall           '-P 2yn'
loop_
_symmetry_equiv_pos_site_id
_symmetry_equiv_pos_as_xyz
1 x,y,z
2 1/2-x,1/2+y,1/2-z
3 -x,-y,-z
4 1/2+x,1/2-y,1/2+z
_cell_length_a                   14.4249(2)
_cell_length_b                   25.2475(3)
_cell_length_c                   17.8123(3)
_cell_angle_alpha                90
_cell_angle_beta                 100.8364(16)
_cell_angle_gamma                90
_cell_volume                     6371.43
_exptl_crystal_colour            colorless
_exptl_crystal_description       needle
_cell_formula_units_Z            4
loop_
_atom_site_label
_atom_site_type_symbol
_atom_site_fract_x
_atom_site_fract_y
_atom_site_fract_z
Br1 Br 0.77295(4) -0.14190(2) 0.30019(3)
Br2 Br 0.46766(3) -0.07965(2) 0.63984(3)
Br3 Br 0.04166(3) 0.07768(2) 0.35457(3)
Br4 Br 0.38312(4) -0.02670(2) 0.03362(3)
C1 C 0.7865(2) 0.11841(15) 0.3065(2)
C2 C 0.7906(3) 0.06435(16) 0.2946(2)
C3 C 0.8056(3) 0.02845(16) 0.3556(2)
C4 C 0.8183(3) 0.04850(15) 0.4302(2)
C5 C 0.8144(2) 0.10236(15) 0.4447(2)
C6 C 0.7984(2) 0.13647(15) 0.3817(2)
H1 H 0.7954 0.1735 0.3905
C7 C 0.8014(3) -0.02789(16) 0.3409(2)
C8 C 0.7922(3) -0.07298(17) 0.3253(3)
C9 C 0.7560(3) -0.00212(16) 0.5210(3)
H2 H 0.7618 -0.0398 0.5365
H3 H 0.6985 0.0015 0.4811
C10 C 0.8234(3) 0.12173(16) 0.5266(2)
H4 H 0.8633 0.0957 0.5606
C11 C 0.8714(3) 0.17638(16) 0.5399(2)
H5 H 0.8345 0.2023 0.5046
H6 H 0.8698 0.1880 0.5927
C12 C 0.9735(3) 0.17737(18) 0.5282(3)
H7 H 1.0137 0.1579 0.5704
H8 H 0.9778 0.1592 0.4797
C13 C 1.0098(3) 0.23376(18) 0.5259(3)
H9 H 0.9691 0.2527 0.4834
H10 H 1.0032 0.2517 0.5740
C14 C 1.1115(3) 0.23891(19) 0.5158(3)
H11 H 1.1199 0.2187 0.4699
H12 H 1.1532 0.2230 0.5606
C15 C 1.1413(3) 0.2963(2) 0.5073(3)
H13 H 1.1000 0.3119 0.4620
H14 H 1.1312 0.3165 0.5527
C16 C 1.2420(4) 0.3028(3) 0.4989(4)
H15 H 1.2505 0.2878 0.4499
H16 H 1.2832 0.2843 0.5407
H17 H 1.2581 0.3405 0.5005
C17 C 0.7244(3) 0.12045(16) 0.5459(2)
C18 C 0.6905(3) 0.07341(16) 0.5711(2)
C19 C 0.5974(3) 0.07088(17) 0.5855(2)
C20 C 0.5430(3) 0.11651(17) 0.5776(2)
C21 C 0.5737(3) 0.16391(16) 0.5515(2)
C22 C 0.6652(3) 0.16434(16) 0.5358(2)
H18 H 0.6880 0.1962 0.5174
C23 C 0.5592(3) 0.02155(18) 0.6068(2)
C24 C 0.5231(3) -0.01854(18) 0.6199(2)
C25 C 0.3733(3) 0.10895(17) 0.5431(2)
H19 H 0.3898 0.0890 0.4997
H20 H 0.3258 0.0880 0.5638
C26 C 0.5106(3) 0.21144(16) 0.5400(2)
H21 H 0.4682 0.2084 0.5783
C27 C 0.5635(3) 0.26424(16) 0.5566(3)
H22 H 0.6076 0.2615 0.6062
H23 H 0.6016 0.2705 0.5166
C28 C 0.4987(3) 0.31134(18) 0.5591(3)
H24 H 0.4496 0.3017 0.5888
H25 H 0.4666 0.3201 0.5064
C29 C 0.5520(4) 0.3597(2) 0.5950(4)
H26 H 0.5922 0.3738 0.5603
H27 H 0.5935 0.3495 0.6437
C30 C 0.4791(8) 0.4043(4) 0.6109(6)
H28 H 0.4268 0.3881 0.6318
H29 H 0.5113 0.4305 0.6483
C31 C 0.4427(8) 0.4300(4) 0.5383(7)
H30 H 0.4054 0.4046 0.5024
H31 H 0.4953 0.4434 0.5150
C32 C 0.3796(5) 0.4764(3) 0.5553(5)
H32 H 0.3535 0.4948 0.5076
H33 H 0.3279 0.4625 0.5782
H34 H 0.4174 0.5012 0.5908
C33 C 0.4466(3) 0.20786(15) 0.4613(2)
C34 C 0.3630(3) 0.17880(16) 0.4523(2)
C35 C 0.3057(3) 0.17100(16) 0.3810(3)
C36 C 0.3338(3) 0.19268(16) 0.3165(2)
C37 C 0.4160(3) 0.22251(15) 0.3231(2)
C38 C 0.4709(3) 0.22942(15) 0.3955(2)
H35 H 0.5273 0.2496 0.4003
C39 C 0.2204(3) 0.14059(17) 0.3728(2)
C40 C 0.1496(3) 0.11557(17) 0.3646(3)
C41 C 0.3037(3) 0.14246(18) 0.2025(3)
H36 H 0.2464 0.1251 0.1735
H37 H 0.3389 0.1158 0.2374
C42 C 0.4460(3) 0.24313(16) 0.2506(2)
H38 H 0.3870 0.2475 0.2114
C43 C 0.4951(3) 0.29753(15) 0.2599(3)
H39 H 0.5492 0.2958 0.3033
H40 H 0.5203 0.3055 0.2132
C44 C 0.4302(4) 0.34233(18) 0.2741(3)
H41 H 0.4082 0.3357 0.3227
H42 H 0.3741 0.3428 0.2324
C45 C 0.4785(5) 0.3965(2) 0.2783(4)
H43 H 0.5232 0.3964 0.2424
H44 H 0.5161 0.4010 0.3304
C46 C 0.4123(12) 0.4454(4) 0.2598(8)
H45 H 0.4509 0.4776 0.2576
H46 H 0.3714 0.4406 0.2090
C47 C 0.3526(12) 0.4526(5) 0.3184(10)
H47 H 0.3926 0.4590 0.3691
H48 H 0.3142 0.4205 0.3217
C48 C 0.2857(5) 0.5023(3) 0.2932(5)
H49 H 0.2452 0.5082 0.3308
H50 H 0.3245 0.5339 0.2902
H51 H 0.2464 0.4954 0.2430
C49 C 0.5033(3) 0.19966(15) 0.2218(2)
C50 C 0.4580(3) 0.15895(17) 0.1762(2)
C51 C 0.5085(3) 0.11732(16) 0.1516(2)
C52 C 0.6066(3) 0.11828(16) 0.1697(2)
C53 C 0.6553(3) 0.15800(15) 0.2153(2)
C54 C 0.6012(3) 0.19767(15) 0.2406(2)
H52 H 0.6330 0.2248 0.2724
C55 C 0.4613(3) 0.07272(18) 0.1111(3)
C56 C 0.4283(3) 0.03301(19) 0.0824(3)
C57 C 0.6893(3) 0.03549(16) 0.1817(2)
H53 H 0.6879 0.0041 0.1481
H54 H 0.6473 0.0283 0.2185
C58 C 0.7625(3) 0.15560(15) 0.2376(2)
H55 H 0.7859 0.1382 0.1944
C59 C 0.8092(3) 0.21009(15) 0.2487(2)
H56 H 0.7885 0.2312 0.2016
H57 H 0.7867 0.2285 0.2910
C60 C 0.9167(3) 0.20875(16) 0.2663(3)
H58 H 0.9393 0.1849 0.2294
H59 H 0.9381 0.1940 0.3181
C61 C 0.9602(3) 0.26344(18) 0.2620(3)
H60 H 0.9396 0.2777 0.2098
H61 H 0.9357 0.2874 0.2978
C62 C 1.0668(3) 0.2639(2) 0.2811(3)
H62 H 1.0887 0.2331 0.2548
H63 H 1.0850 0.2570 0.3366
C63 C 1.1247(9) 0.3122(7) 0.2634(8)
H64 H 1.1919 0.3067 0.2866
H65 H 1.1201 0.3152 0.2074
C64 C 1.0908(8) 0.3630(4) 0.2935(6)
H66 H 1.0251 0.3694 0.2689
H67 H 1.1303 0.3924 0.2823
H68 H 1.0949 0.3601 0.3489
O1 O 0.78228(19) 0.04328(11) 0.22209(15)
O2 O 0.83542(19) 0.01229(11) 0.48977(16)
O3 O 0.74577(19) 0.02900(11) 0.58484(16)
O4 O 0.45522(19) 0.11434(12) 0.60066(16)
O5 O 0.33307(19) 0.15780(12) 0.51619(16)
O6 O 0.27649(18) 0.18437(12) 0.24617(17)
O7 O 0.36103(19) 0.15968(12) 0.15033(16)
O8 O 0.65532(19) 0.07989(11) 0.13681(15)
C71 C 0.8052(3) 0.35656(18) 0.4581(3)
H94 H 0.8313 0.3500 0.5134
Cl1 Cl 0.72389(11) 0.40713(6) 0.45145(13)
Cl2 Cl 0.89810(11) 0.37405(7) 0.41303(10)
Cl3 Cl 0.75077(10) 0.29761(5) 0.41796(8)
H69? H 0.6192 0.3564 0.5905
H70? H 0.5493 0.3606 0.6501
C65? C 0.5115(11) 0.4138(5) 0.5569(11)
H71? H 0.5584 0.4427 0.5685
H72? H 0.4924 0.4102 0.5008
C66? C 0.4268(14) 0.4236(7) 0.5942(13)
H73? H 0.4467 0.4285 0.6501
H74? H 0.3820 0.3936 0.5847
H75? H 0.3238 0.4852 0.5769
H76? H 0.4251 0.5055 0.5650
H77? H 0.3607 0.4709 0.5000
H78? H 0.4868 0.4069 0.2264
H79? H 0.5420 0.3936 0.3108
C67? C 0.4210(19) 0.4411(8) 0.3117(18)
H80? H 0.4052 0.4287 0.3605
H81? H 0.4609 0.4731 0.3226
C68? C 0.3374(14) 0.4544(9) 0.2608(12)
H82? H 0.2949 0.4233 0.2532
H83? H 0.3524 0.4643 0.2107
H84? H 0.2277 0.5110 0.2570
H85? H 0.2700 0.4924 0.3425
H86? H 0.3275 0.5333 0.3000
H87? H 1.0942 0.2427 0.2439
H88? H 1.0904 0.2501 0.3332
C69? C 1.0896(15) 0.3238(13) 0.2753(15)
H89? H 1.0510 0.3389 0.2283
H90? H 1.0743 0.3429 0.3199
C70? C 1.1936(11) 0.3298(8) 0.2731(11)
H91? H 1.2077 0.3119 0.2278
H92? H 1.2313 0.3140 0.3192
H93? H 1.2091 0.3675 0.2710
loop_
_geom_bond_atom_site_label_1
_geom_bond_atom_site_label_2
_geom_bond_site_symmetry_1
_geom_bond_site_symmetry_2
Br1 C8 1_555 1_555
Br2 C24 1_555 1_555
Br3 C40 1_555 1_555
Br4 C56 1_555 1_555
C1 C2 1_555 1_555
C2 C3 1_555 1_555
C3 C4 1_555 1_555
C4 C5 1_555 1_555
C5 C6 1_555 1_555
C6 C1 1_555 1_555
H1 C6 1_555 1_555
C7 C3 1_555 1_555
C8 C7 1_555 1_555
C9 H2 1_555 1_555
H3 C9 1_555 1_555
C10 C5 1_555 1_555
H4 C10 1_555 1_555
C11 C10 1_555 1_555
H5 C11 1_555 1_555
H6 C11 1_555 1_555
C12 C11 1_555 1_555
H7 C12 1_555 1_555
H8 C12 1_555 1_555
C13 C12 1_555 1_555
H9 C13 1_555 1_555
H10 C13 1_555 1_555
C14 C13 1_555 1_555
H11 C14 1_555 1_555
H12 C14 1_555 1_555
C15 C14 1_555 1_555
H13 C15 1_555 1_555
H14 C15 1_555 1_555
C16 C15 1_555 1_555
H15 C16 1_555 1_555
H16 C16 1_555 1_555
H17 C16 1_555 1_555
C17 C10 1_555 1_555
C18 C17 1_555 1_555
C19 C18 1_555 1_555
C20 C19 1_555 1_555
C21 C20 1_555 1_555
C22 C17 1_555 1_555
H18 C22 1_555 1_555
C23 C19 1_555 1_555
C24 C23 1_555 1_555
C25 H19 1_555 1_555
H20 C25 1_555 1_555
C26 C21 1_555 1_555
H21 C26 1_555 1_555
C27 C26 1_555 1_555
H22 C27 1_555 1_555
H23 C27 1_555 1_555
C28 C27 1_555 1_555
H24 C28 1_555 1_555
H25 C28 1_555 1_555
C29 C28 1_555 1_555
H26 C29 1_555 1_555
H27 C29 1_555 1_555
C30 C29 1_555 1_555
H28 C30 1_555 1_555
H29 C30 1_555 1_555
C31 C30 1_555 1_555
H30 C31 1_555 1_555
H31 C31 1_555 1_555
C32 C31 1_555 1_555
H32 C32 1_555 1_555
H33 C32 1_555 1_555
H34 C32 1_555 1_555
C33 C26 1_555 1_555
C34 C33 1_555 1_555
C35 C34 1_555 1_555
C36 C35 1_555 1_555
C37 C36 1_555 1_555
C38 C33 1_555 1_555
H35 C38 1_555 1_555
C39 C35 1_555 1_555
C40 C39 1_555 1_555
C41 H36 1_555 1_555
H37 C41 1_555 1_555
C42 C37 1_555 1_555
H38 C42 1_555 1_555
C43 C42 1_555 1_555
H39 C43 1_555 1_555
H40 C43 1_555 1_555
C44 C43 1_555 1_555
H41 C44 1_555 1_555
H42 C44 1_555 1_555
C45 C44 1_555 1_555
H43 C45 1_555 1_555
H44 C45 1_555 1_555
C46 C45 1_555 1_555
H45 C46 1_555 1_555
H46 C46 1_555 1_555
C47 C46 1_555 1_555
H47 C47 1_555 1_555
H48 C47 1_555 1_555
C48 C47 1_555 1_555
H49 C48 1_555 1_555
H50 C48 1_555 1_555
H51 C48 1_555 1_555
C49 C42 1_555 1_555
C50 C49 1_555 1_555
C51 C50 1_555 1_555
C52 C51 1_555 1_555
C53 C52 1_555 1_555
C54 C49 1_555 1_555
H52 C54 1_555 1_555
C55 C51 1_555 1_555
C56 C55 1_555 1_555
C57 H53 1_555 1_555
H54 C57 1_555 1_555
C58 C1 1_555 1_555
H55 C58 1_555 1_555
C59 C58 1_555 1_555
H56 C59 1_555 1_555
H57 C59 1_555 1_555
C60 C59 1_555 1_555
H58 C60 1_555 1_555
H59 C60 1_555 1_555
C61 C60 1_555 1_555
H60 C61 1_555 1_555
H61 C61 1_555 1_555
C62 C61 1_555 1_555
H62 C62 1_555 1_555
H63 C62 1_555 1_555
C63 C62 1_555 1_555
H64 C63 1_555 1_555
H65 C63 1_555 1_555
C64 C63 1_555 1_555
H66 C64 1_555 1_555
H67 C64 1_555 1_555
H68 C64 1_555 1_555
O1 C2 1_555 1_555
O2 C4 1_555 1_555
O3 C9 1_555 1_555
O4 C20 1_555 1_555
O5 C25 1_555 1_555
O6 C36 1_555 1_555
O7 C41 1_555 1_555
O8 C52 1_555 1_555
C71 H94 1_555 1_555
Cl1 C71 1_555 1_555
Cl2 C71 1_555 1_555
Cl3 C71 1_555 1_555
C9 O2 1_555 1_555
C18 O3 1_555 1_555
C21 C22 1_555 1_555
C25 O4 1_555 1_555
C34 O5 1_555 1_555
C37 C38 1_555 1_555
C41 O6 1_555 1_555
C50 O7 1_555 1_555
C53 C54 1_555 1_555
C53 C58 1_555 1_555
C57 O1 1_555 1_555
C57 O8 1_555 1_555

#END
