
#######################################################################
#
#                 Cambridge Crystallographic Data Centre
#                                CCDC 
#
#######################################################################
#
# If this CIF has been generated from an entry in the Cambridge 
# Structural Database, then it will include bibliographic, chemical, 
# crystal, experimental, refinement or atomic coordinate data resulting 
# from the CCDC's data processing and validation procedures.
#
#######################################################################

data_LEBYEX01
_chemical_name_common            '(+-)-Mefloquinium chloride monohydrate'
_chemical_formula_moiety         'C17 H17 F6 N2 O1 1+,Cl1 1-,H2 O1'
_chemical_name_systematic        
'(+-)-(R*,S*)-2-(Hydroxy(2-methyl-8-(trifluoromethyl)quinolin-4-yl)methyl)piperidinium chloride monohydrate'
_chemical_properties_biological  
'Mefloquinium chloride is an anti-malarial agent'
_symmetry_cell_setting           monoclinic
_symmetry_space_group_name_H-M   'C 2/c'
_symmetry_Int_Tables_number      15
_space_group_name_Hall           '-C 2yn'
loop_
_symmetry_equiv_pos_site_id
_symmetry_equiv_pos_as_xyz
1 x,y,z
2 -x,y,1/2-z
3 1/2+x,1/2+y,z
4 1/2-x,1/2+y,1/2-z
5 -x,-y,-z
6 x,-y,1/2+z
7 1/2-x,1/2-y,-z
8 1/2+x,1/2-y,1/2+z
_cell_length_a                   28.3091(5)
_cell_length_b                   10.7446(2)
_cell_length_c                   40.6940(5)
_cell_angle_alpha                90
_cell_angle_beta                 109.714(1)
_cell_angle_gamma                90
_cell_volume                     11652.4
_exptl_crystal_colour            colorless
_exptl_crystal_description       block
_cell_formula_units_Z            24
loop_
_atom_site_label
_atom_site_type_symbol
_atom_site_fract_x
_atom_site_fract_y
_atom_site_fract_z
Cl1 Cl 0.39424(2) 0.77079(5) 0.181443(14)
Cl2 Cl 0.30552(2) 0.10722(6) 0.094329(16)
Cl3 Cl 0.64335(2) 0.69183(6) 0.440475(16)
F1 F 0.62794(5) 0.37590(16) 0.11213(4)
F2 F 0.60761(7) 0.21292(15) 0.13471(4)
F3 F 0.55662(5) 0.28843(17) 0.08705(4)
F4 F 0.69631(5) 0.60387(15) 0.25874(4)
F5 F 0.69216(5) 0.57104(14) 0.20562(4)
F6 F 0.67579(5) 0.42279(14) 0.23605(4)
O1 O 0.41437(6) 0.46638(16) 0.10144(4)
H1 H 0.3973 0.5213 0.0879
N1 N 0.59914(7) 0.44823(18) 0.16725(5)
N2 N 0.36323(7) 0.4961(2) 0.15219(5)
H2 H 0.3620(10) 0.580(3) 0.1526(7)
H3 H 0.3437(10) 0.459(3) 0.1299(7)
C1 C 0.56657(8) 0.4009(2) 0.13890(6)
C2 C 0.51453(8) 0.4215(2) 0.12734(6)
H4 H 0.4932 0.3824 0.1067
C3 C 0.49499(8) 0.4989(2) 0.14623(6)
C4 C 0.51392(8) 0.6487(2) 0.19629(6)
H5 H 0.4796 0.6720 0.1897
C5 C 0.54816(9) 0.7030(2) 0.22481(6)
H6 H 0.5375 0.7648 0.2375
C6 C 0.59901(9) 0.6684(2) 0.23558(6)
H7 H 0.6222 0.7046 0.2560
C7 C 0.61524(8) 0.5829(2) 0.21690(6)
C8 C 0.52880(8) 0.5580(2) 0.17633(6)
C9 C 0.58085(8) 0.5274(2) 0.18636(6)
C10 C 0.43853(8) 0.5191(2) 0.13483(6)
H8 H 0.4315 0.6105 0.1338
C11 C 0.41719(8) 0.4588(2) 0.16108(6)
H9 H 0.4363 0.4915 0.1849
C12 C 0.34112(9) 0.4491(2) 0.17866(7)
H10 H 0.3054 0.4741 0.1717
H11 H 0.3591 0.4868 0.2017
C13 C 0.34512(9) 0.3086(2) 0.18149(7)
H12 H 0.3235 0.2709 0.1593
H13 H 0.3329 0.2800 0.2003
C14 C 0.39921(9) 0.2647(2) 0.18925(7)
H14 H 0.4201 0.2925 0.2129
H15 H 0.4001 0.1726 0.1887
C15 C 0.42041(9) 0.3174(2) 0.16224(6)
H16 H 0.4559 0.2916 0.1682
H17 H 0.4014 0.2833 0.1389
C16 C 0.58936(9) 0.3189(2) 0.11811(6)
C17 C 0.66962(8) 0.5443(2) 0.22909(6)
F7 F 0.27440(6) 0.76730(18) 0.33787(5)
F8 F 0.29161(6) 0.83275(17) 0.29325(4)
F9 F 0.29433(6) 0.95926(17) 0.33513(5)
F10 F 0.42865(8) 1.22200(17) 0.28291(5)
F11 F 0.40515(11) 1.0665(2) 0.24871(5)
F12 F 0.35385(9) 1.1519(2) 0.26854(7)
O2 O 0.57133(7) 0.98176(17) 0.35610(5)
H18 H 0.5806 0.9305 0.3439
N3 N 0.38315(8) 0.9664(2) 0.31370(5)
N4 N 0.61019(8) 0.9689(2) 0.42692(5)
H19 H 0.6191(10) 0.890(3) 0.4283(7)
H20 H 0.6278(10) 1.016(3) 0.4136(7)
C18 C 0.41874(10) 1.0288(2) 0.30753(6)
C19 C 0.47053(10) 1.0168(2) 0.32583(6)
H21 H 0.4942 1.0670 0.3200
C20 C 0.48607(9) 0.9308(2) 0.35233(6)
C21 C 0.46013(9) 0.7616(2) 0.38529(6)
H22 H 0.4941 0.7436 0.3985
C22 C 0.42272(9) 0.6954(2) 0.39122(6)
H23 H 0.4310 0.6318 0.4084
C23 C 0.37200(9) 0.7201(2) 0.37212(6)
H24 H 0.3464 0.6736 0.3767
C24 C 0.35943(9) 0.8106(2) 0.34707(6)
C25 C 0.44901(9) 0.8573(2) 0.35970(6)
C26 C 0.39774(9) 0.8802(2) 0.33990(6)
C27 C 0.54174(9) 0.9198(2) 0.37304(6)
H25 H 0.5513 0.8298 0.3759
C28 C 0.55455(8) 0.9801(2) 0.40941(6)
H26 H 0.5374 0.9321 0.4232
C29 C 0.62875(10) 1.0213(3) 0.46327(6)
H27 H 0.6657 1.0133 0.4731
H28 H 0.6140 0.9741 0.4783
C30 C 0.61398(10) 1.1573(3) 0.46237(7)
H29 H 0.6314 1.2055 0.4491
H30 H 0.6246 1.1905 0.4865
C31 C 0.55756(10) 1.1727(3) 0.44537(6)
H31 H 0.5489 1.2623 0.4440
H32 H 0.5403 1.1312 0.4599
C32 C 0.53955(9) 1.1162(2) 0.40862(6)
H33 H 0.5026 1.1233 0.3985
H34 H 0.5543 1.1633 0.3935
C33 C 0.30512(10) 0.8429(3) 0.32792(8)
C34 C 0.40144(13) 1.1185(3) 0.27718(8)
F13 F 0.15047(7) 0.38284(16) 0.06579(6)
F14 F 0.07994(7) 0.43219(18) 0.02792(4)
F15 F 0.09474(8) 0.47438(17) 0.08163(4)
F16 F 0.03381(6) 0.73756(16) -0.03398(4)
F17 F 0.00611(5) 0.79917(17) 0.00649(4)
F18 F 0.00656(6) 0.92505(17) -0.03446(4)
O3 O 0.28855(6) 0.68631(16) 0.10612(4)
H35 H 0.3052 0.6815 0.0926
N5 N 0.10402(7) 0.6739(2) 0.03183(5)
N6 N 0.29475(7) 0.91494(19) 0.14810(5)
H36 H 0.3209(10) 0.859(3) 0.1557(6)
H37 H 0.3013(10) 0.972(3) 0.1311(7)
C35 C 0.13669(9) 0.5966(2) 0.05260(6)
C36 C 0.18677(9) 0.6263(2) 0.07254(6)
H38 H 0.2089 0.5648 0.0862
C37 C 0.20252(8) 0.7460(2) 0.07161(6)
C38 C 0.18133(9) 0.9607(2) 0.04693(6)
H39 H 0.2141 0.9898 0.0597
C39 C 0.14686(9) 1.0412(3) 0.02605(7)
H40 H 0.1556 1.1260 0.0248
C40 C 0.09815(9) 0.9994(3) 0.00624(7)
H41 H 0.0745 1.0562 -0.0083
C41 C 0.08487(9) 0.8783(2) 0.00783(6)
C42 C 0.16891(8) 0.8345(2) 0.04972(6)
C43 C 0.11995(8) 0.7923(2) 0.03003(6)
C44 C 0.25415(8) 0.7871(2) 0.09579(6)
H42 H 0.2679 0.8517 0.0838
C45 C 0.24833(8) 0.8433(2) 0.12893(6)
H43 H 0.2195 0.9029 0.1217
C46 C 0.29160(9) 0.9805(2) 0.17992(6)
H44 H 0.2647 1.0439 0.1728
H45 H 0.3237 1.0235 0.1920
C47 C 0.28068(9) 0.8878(2) 0.20452(6)
H46 H 0.2760 0.9329 0.2244
H47 H 0.3097 0.8311 0.2139
C48 C 0.23373(9) 0.8117(2) 0.18604(6)
H48 H 0.2040 0.8669 0.1791
H49 H 0.2290 0.7478 0.2022
C49 C 0.23847(9) 0.7487(2) 0.15367(6)
H50 H 0.2663 0.6878 0.1609
H51 H 0.2071 0.7028 0.1414
C50 C 0.11569(10) 0.4710(3) 0.05673(7)
C51 C 0.03337(9) 0.8344(3) -0.01321(6)
O4 O 0.28962(8) 0.39909(18) 0.09579(5)
H52 H 0.2918(12) 0.3200(10) 0.0942(8)
H53 H 0.2875(12) 0.424(3) 0.0756(4)
O5 O 0.26846(12) 0.4791(3) 0.02679(7)
H54 H 0.2948(10) 0.522(3) 0.0287(11)
H55 H 0.2682(16) 0.429(3) 0.0103(9)
O6? O 0.73899(19) 0.8092(5) 0.49910(16)
H56? H 0.7673(15) 0.778(7) 0.511(2)
H57? H 0.7126(16) 0.769(6) 0.488(2)
H58? H 0.254(3) 0.282(3) 0.0161(18)
H59? H 0.257(3) 0.177(6) 0.0368(9)
O7? O 0.2425(2) 0.2091(5) 0.01677(13)
loop_
_geom_bond_atom_site_label_1
_geom_bond_atom_site_label_2
_geom_bond_site_symmetry_1
_geom_bond_site_symmetry_2
F1 C16 1_555 1_555
F2 C16 1_555 1_555
F3 C16 1_555 1_555
F4 C17 1_555 1_555
F5 C17 1_555 1_555
F6 C17 1_555 1_555
O1 H1 1_555 1_555
N1 C1 1_555 1_555
N2 H2 1_555 1_555
H3 N2 1_555 1_555
C1 C2 1_555 1_555
C2 H4 1_555 1_555
C3 C2 1_555 1_555
C4 H5 1_555 1_555
C5 C4 1_555 1_555
H6 C5 1_555 1_555
C6 C5 1_555 1_555
H7 C6 1_555 1_555
C7 C6 1_555 1_555
C8 C3 1_555 1_555
C9 N1 1_555 1_555
C10 O1 1_555 1_555
H8 C10 1_555 1_555
C11 N2 1_555 1_555
H9 C11 1_555 1_555
C12 N2 1_555 1_555
H10 C12 1_555 1_555
H11 C12 1_555 1_555
C13 C12 1_555 1_555
H12 C13 1_555 1_555
H13 C13 1_555 1_555
C14 C13 1_555 1_555
H14 C14 1_555 1_555
H15 C14 1_555 1_555
C15 C11 1_555 1_555
H16 C15 1_555 1_555
H17 C15 1_555 1_555
C16 C1 1_555 1_555
C17 C7 1_555 1_555
F7 C33 1_555 1_555
F8 C33 1_555 1_555
F9 C33 1_555 1_555
F10 C34 1_555 1_555
F11 C34 1_555 1_555
F12 C34 1_555 1_555
O2 H18 1_555 1_555
N3 C18 1_555 1_555
N4 H19 1_555 1_555
H20 N4 1_555 1_555
C18 C19 1_555 1_555
C19 H21 1_555 1_555
C20 C19 1_555 1_555
C21 H22 1_555 1_555
C22 C21 1_555 1_555
H23 C22 1_555 1_555
C23 C22 1_555 1_555
H24 C23 1_555 1_555
C24 C23 1_555 1_555
C25 C20 1_555 1_555
C26 N3 1_555 1_555
C27 O2 1_555 1_555
H25 C27 1_555 1_555
C28 N4 1_555 1_555
H26 C28 1_555 1_555
C29 N4 1_555 1_555
H27 C29 1_555 1_555
H28 C29 1_555 1_555
C30 C29 1_555 1_555
H29 C30 1_555 1_555
H30 C30 1_555 1_555
C31 C30 1_555 1_555
H31 C31 1_555 1_555
H32 C31 1_555 1_555
C32 C28 1_555 1_555
H33 C32 1_555 1_555
H34 C32 1_555 1_555
C33 C24 1_555 1_555
C34 C18 1_555 1_555
F13 C50 1_555 1_555
F14 C50 1_555 1_555
F15 C50 1_555 1_555
F16 C51 1_555 1_555
F17 C51 1_555 1_555
F18 C51 1_555 1_555
O3 H35 1_555 1_555
N5 C35 1_555 1_555
N6 H36 1_555 1_555
H37 N6 1_555 1_555
C35 C36 1_555 1_555
C36 H38 1_555 1_555
C37 C36 1_555 1_555
C38 H39 1_555 1_555
C39 C38 1_555 1_555
H40 C39 1_555 1_555
C40 C39 1_555 1_555
H41 C40 1_555 1_555
C41 C40 1_555 1_555
C42 C37 1_555 1_555
C43 N5 1_555 1_555
C44 O3 1_555 1_555
H42 C44 1_555 1_555
C45 N6 1_555 1_555
H43 C45 1_555 1_555
C46 N6 1_555 1_555
H44 C46 1_555 1_555
H45 C46 1_555 1_555
C47 C46 1_555 1_555
H46 C47 1_555 1_555
H47 C47 1_555 1_555
C48 C47 1_555 1_555
H48 C48 1_555 1_555
H49 C48 1_555 1_555
C49 C45 1_555 1_555
H50 C49 1_555 1_555
H51 C49 1_555 1_555
C50 C35 1_555 1_555
C51 C41 1_555 1_555
O4 H52 1_555 1_555
H53 O4 1_555 1_555
O5 H54 1_555 1_555
H55 O5 1_555 1_555
C3 C10 1_555 1_555
C4 C8 1_555 1_555
C7 C9 1_555 1_555
C8 C9 1_555 1_555
C10 C11 1_555 1_555
C14 C15 1_555 1_555
C20 C27 1_555 1_555
C21 C25 1_555 1_555
C24 C26 1_555 1_555
C25 C26 1_555 1_555
C27 C28 1_555 1_555
C31 C32 1_555 1_555
C37 C44 1_555 1_555
C38 C42 1_555 1_555
C41 C43 1_555 1_555
C42 C43 1_555 1_555
C44 C45 1_555 1_555
C48 C49 1_555 1_555

#END
