
#######################################################################
#
#                 Cambridge Crystallographic Data Centre
#                                CCDC 
#
#######################################################################
#
# If this CIF has been generated from an entry in the Cambridge 
# Structural Database, then it will include bibliographic, chemical, 
# crystal, experimental, refinement or atomic coordinate data resulting 
# from the CCDC's data processing and validation procedures.
#
#######################################################################

data_LECDUT
_chemical_formula_moiety         'C18 H17 Br1 N2 O4'
_chemical_name_systematic        
exo-(2S,3S,4R,5R)-5-(4-Bromophenyl)-2-methoxycarbonyl-4-nitro-3-phenylpyrrolidine
_symmetry_cell_setting           monoclinic
_symmetry_space_group_name_H-M   'P 21'
_symmetry_Int_Tables_number      4
_space_group_name_Hall           'P 2yb'
loop_
_symmetry_equiv_pos_site_id
_symmetry_equiv_pos_as_xyz
1 x,y,z
2 -x,1/2+y,-z
_cell_length_a                   10.6505(15)
_cell_length_b                   6.7388(9)
_cell_length_c                   12.7604(17)
_cell_angle_alpha                90
_cell_angle_beta                 107.600(2)
_cell_angle_gamma                90
_cell_volume                     872.965
_exptl_crystal_colour            colorless
_chemical_melting_point          128-129deg.C
_cell_formula_units_Z            2
loop_
_atom_site_label
_atom_site_type_symbol
_atom_site_fract_x
_atom_site_fract_y
_atom_site_fract_z
Br1 Br 0.92982(5) -0.68352(10) 0.44779(4)
O1 O 0.4387(4) 0.2515(6) 0.4156(3)
O2 O 0.3417(3) 0.5040(5) 0.3087(3)
O3 O 0.4116(5) -0.0808(6) -0.0248(3)
O4 O 0.3437(5) -0.3151(6) 0.0535(4)
N1 N 0.5845(5) 0.1670(7) 0.2763(4)
N2 N 0.3932(4) -0.1551(8) 0.0555(3)
C1 C 0.5795(5) 0.0025(7) 0.2010(4)
C2 C 0.4335(5) -0.0389(7) 0.1611(4)
C3 C 0.3661(5) 0.1650(7) 0.1470(4)
C4 C 0.4688(5) 0.2913(9) 0.2375(4)
C5 C 0.6637(4) -0.1695(9) 0.2590(3)
C6 C 0.6496(5) -0.2423(7) 0.3567(4)
H1 H 0.5870 -0.1871 0.3854
C7 C 0.7279(5) -0.3957(8) 0.4115(4)
H2 H 0.7166 -0.4458 0.4760
C8 C 0.8215(5) -0.4734(7) 0.3711(4)
C9 C 0.8382(5) -0.4032(8) 0.2751(4)
H3 H 0.9020 -0.4575 0.2475
C10 C 0.7591(5) -0.2515(7) 0.2209(4)
H4 H 0.7707 -0.2029 0.1562
C11 C 0.2268(5) 0.1668(7) 0.1467(4)
C12 C 0.1351(5) 0.2839(9) 0.0736(4)
H5 H 0.1608 0.3622 0.0237
C13 C 0.0067(6) 0.2867(11) 0.0734(4)
H6 H -0.0538 0.3647 0.0221
C14 C -0.0349(6) 0.1778(9) 0.1468(5)
H7 H -0.1224 0.1815 0.1463
C15 C 0.0561(6) 0.0620(9) 0.2218(5)
H8 H 0.0298 -0.0132 0.2726
C16 C 0.1831(5) 0.0570(8) 0.2222(4)
H9 H 0.2430 -0.0212 0.2739
C17 C 0.4168(4) 0.3424(9) 0.3321(4)
C18 C 0.2720(6) 0.5564(10) 0.3858(5)
H10 H 0.2359 0.4389 0.4081
H11 H 0.2020 0.6468 0.3515
H12 H 0.3317 0.6185 0.4492
H13 H 0.621(5) 0.028(8) 0.149(4)
H14 H 0.404(3) -0.115(4) 0.211(2)
H15 H 0.373(4) 0.216(6) 0.081(3)
H16 H 0.483(5) 0.418(4) 0.209(4)
H17 H 0.662(3) 0.202(9) 0.299(5)
loop_
_geom_bond_atom_site_label_1
_geom_bond_atom_site_label_2
_geom_bond_site_symmetry_1
_geom_bond_site_symmetry_2
Br1 C8 1_555 1_555
O1 C17 1_555 1_555
O2 C17 1_555 1_555
O3 N2 1_555 1_555
O4 N2 1_555 1_555
N1 C1 1_555 1_555
N2 C2 1_555 1_555
C1 C2 1_555 1_555
C2 C3 1_555 1_555
C3 C4 1_555 1_555
C4 N1 1_555 1_555
C5 C1 1_555 1_555
C6 C5 1_555 1_555
H1 C6 1_555 1_555
C7 C6 1_555 1_555
H2 C7 1_555 1_555
C8 C7 1_555 1_555
C9 C8 1_555 1_555
H3 C9 1_555 1_555
C10 C5 1_555 1_555
H4 C10 1_555 1_555
C11 C3 1_555 1_555
C12 C11 1_555 1_555
H5 C12 1_555 1_555
C13 C12 1_555 1_555
H6 C13 1_555 1_555
C14 C13 1_555 1_555
H7 C14 1_555 1_555
C15 C14 1_555 1_555
H8 C15 1_555 1_555
C16 C11 1_555 1_555
H9 C16 1_555 1_555
C17 C4 1_555 1_555
C18 O2 1_555 1_555
H10 C18 1_555 1_555
H11 C18 1_555 1_555
H12 C18 1_555 1_555
H13 C1 1_555 1_555
H14 C2 1_555 1_555
H15 C3 1_555 1_555
H16 C4 1_555 1_555
H17 N1 1_555 1_555
C9 C10 1_555 1_555
C15 C16 1_555 1_555

#END
