
#######################################################################
#
#                 Cambridge Crystallographic Data Centre
#                                CCDC 
#
#######################################################################
#
# If this CIF has been generated from an entry in the Cambridge 
# Structural Database, then it will include bibliographic, chemical, 
# crystal, experimental, refinement or atomic coordinate data resulting 
# from the CCDC's data processing and validation procedures.
#
#######################################################################

data_LECFUV
_chemical_formula_moiety         'C8 H6 O2'
_chemical_name_systematic        (3aR,6aR)-3a,6a-Dihydropentalene-1,4-dione
_symmetry_cell_setting           orthorhombic
_symmetry_space_group_name_H-M   'P 21 21 21'
_symmetry_Int_Tables_number      19
_space_group_name_Hall           'P 2ac 2ab'
loop_
_symmetry_equiv_pos_site_id
_symmetry_equiv_pos_as_xyz
1 x,y,z
2 1/2-x,-y,1/2+z
3 1/2+x,1/2-y,-z
4 -x,1/2+y,1/2-z
_cell_length_a                   6.5287(5)
_cell_length_b                   7.4301(7)
_cell_length_c                   27.6279(13)
_cell_angle_alpha                90
_cell_angle_beta                 90
_cell_angle_gamma                90
_cell_volume                     1340.2
_exptl_crystal_colour            colorless
_chemical_melting_point          '72-74 deg.C'
_cell_formula_units_Z            8
loop_
_atom_site_label
_atom_site_type_symbol
_atom_site_fract_x
_atom_site_fract_y
_atom_site_fract_z
O1 O -0.4517(6) 0.8209(8) 0.2790(1)
C1 C -0.2899(8) 0.8380(8) 0.2581(1)
O2 O 0.1573(5) 0.6728(6) 0.1422(1)
C2 C -0.0855(9) 0.8256(7) 0.2776(2)
C3 C 0.0534(7) 0.8451(7) 0.2426(2)
C4 C -0.0415(7) 0.8743(7) 0.1937(1)
C5 C -0.0074(7) 0.7194(6) 0.1584(1)
C6 C -0.2036(6) 0.6340(7) 0.1491(1)
C7 C -0.3492(7) 0.7232(8) 0.1735(1)
C8 C -0.2712(7) 0.8742(7) 0.2035(1)
H1 H -0.0548 0.8067 0.3100
H2 H 0.1940 0.8410 0.2479
H3 H 0.0026 0.9890 0.1797
H4 H -0.2248 0.5339 0.1295
H5 H -0.4873 0.6932 0.1717
H6 H -0.3345 0.9890 0.1945
O3 O 0.7309(5) 0.5450(6) 0.0216(1)
C9 C 0.9009(7) 0.5317(6) 0.0031(2)
O4 O 1.3565(5) 0.3179(5) -0.1069(1)
C10 C 1.0866(7) 0.4726(7) 0.0270(1)
C11 C 1.2410(7) 0.4704(7) -0.0040(1)
C12 C 1.1786(6) 0.5278(6) -0.0540(1)
C13 C 1.1963(6) 0.3785(6) -0.0912(1)
C14 C 0.9900(7) 0.3274(8) -0.1048(1)
C15 C 0.8549(7) 0.4329(7) -0.0824(2)
C16 C 0.9523(7) 0.5658(6) -0.0498(1)
H7 H 1.0959 0.4409 0.0594
H8 H 1.3737 0.4370 0.0043
H9 H 1.2540 0.6353 -0.0643
H10 H 0.9569 0.2347 -0.1261
H11 H 0.7140 0.4240 -0.0868
H12 H 0.9196 0.6895 -0.0593
loop_
_geom_bond_atom_site_label_1
_geom_bond_atom_site_label_2
_geom_bond_site_symmetry_1
_geom_bond_site_symmetry_2
O1 C1 1_555 1_555
C1 C2 1_555 1_555
O2 C5 1_555 1_555
C2 C3 1_555 1_555
C3 C4 1_555 1_555
C4 C5 1_555 1_555
C5 C6 1_555 1_555
C6 C7 1_555 1_555
C7 C8 1_555 1_555
C8 C1 1_555 1_555
O3 C9 1_555 1_555
C9 C10 1_555 1_555
O4 C13 1_555 1_555
C10 C11 1_555 1_555
C11 C12 1_555 1_555
C12 C13 1_555 1_555
C13 C14 1_555 1_555
C14 C15 1_555 1_555
C15 C16 1_555 1_555
C16 C9 1_555 1_555
H1 C2 1_555 1_555
H2 C3 1_555 1_555
H3 C4 1_555 1_555
H4 C6 1_555 1_555
H5 C7 1_555 1_555
H6 C8 1_555 1_555
H7 C10 1_555 1_555
H8 C11 1_555 1_555
H9 C12 1_555 1_555
H10 C14 1_555 1_555
H11 C15 1_555 1_555
H12 C16 1_555 1_555
C4 C8 1_555 1_555
C12 C16 1_555 1_555

#END
