
#######################################################################
#
#                 Cambridge Crystallographic Data Centre
#                                CCDC 
#
#######################################################################
#
# If this CIF has been generated from an entry in the Cambridge 
# Structural Database, then it will include bibliographic, chemical, 
# crystal, experimental, refinement or atomic coordinate data resulting 
# from the CCDC's data processing and validation procedures.
#
#######################################################################

data_LECGUV
_chemical_formula_moiety         'C26 H60 Li6 N6 Si2'
_chemical_name_systematic        
bis(tris(\m~4~-t-Butylimido)-methyl-tri-lithium-silicon)
_symmetry_cell_setting           monoclinic
_symmetry_space_group_name_H-M   'C 2/m'
_symmetry_Int_Tables_number      12
_space_group_name_Hall           '-C 2y'
loop_
_symmetry_equiv_pos_site_id
_symmetry_equiv_pos_as_xyz
1 x,y,z
2 1/2+x,1/2+y,z
3 -x,y,-z
4 1/2-x,1/2+y,-z
5 -x,-y,-z
6 1/2-x,1/2-y,-z
7 x,-y,z
8 1/2+x,1/2-y,z
_cell_length_a                   11.651(8)
_cell_length_b                   17.080(16)
_cell_length_c                   10.360(5)
_cell_angle_alpha                90
_cell_angle_beta                 119.21(4)
_cell_angle_gamma                90
_cell_volume                     1799.47
_exptl_crystal_colour            colorless
_chemical_melting_point          220deg.C
_cell_formula_units_Z            2
loop_
_atom_site_label
_atom_site_type_symbol
_atom_site_fract_x
_atom_site_fract_y
_atom_site_fract_z
Si1 Si 0.2111(2) 0.0000 0.1297(3)
N1 N 0.1372(5) 0.0806(3) 0.1613(5)
N2 N 0.1503(6) 0.0000 -0.0616(7)
C1 C 0.1968(8) 0.1473(5) 0.2628(8)
C2 C 0.2967(13) 0.1919(6) 0.2324(14)
C3 C 0.0844(13) 0.2026(5) 0.2452(13)
C4 C 0.2719(12) 0.1192(6) 0.4283(9)
C5 C 0.2229(10) 0.0000 -0.1450(10)
C6 C 0.1206(12) 0.0000 -0.3120(11)
C7 C 0.3102(9) 0.0746(7) -0.1123(11)
C8 C 0.3996(9) 0.0000 0.2456(11)
Li1 Li 0.0471(14) 0.0000 0.2187(16)
Li2 Li 0.0659(11) 0.0990(7) -0.0564(12)
N1F N 0.1372(5) -0.0806(3) 0.1613(5)
Li2B Li -0.0659(11) 0.0990(7) 0.0564(12)
Li1D Li -0.0471(14) 0.0000 -0.2187(16)
Li2F Li 0.0659(11) -0.0990(7) -0.0564(12)
C7F C 0.3102(9) -0.0746(7) -0.1123(11)
N2D N -0.1503(6) 0.0000 0.0616(7)
Li2D Li -0.0659(11) -0.0990(7) 0.0564(12)
N1B N -0.1372(5) 0.0806(3) -0.1613(5)
C1F C 0.1968(8) -0.1473(5) 0.2628(8)
N1D N -0.1372(5) -0.0806(3) -0.1613(5)
Si1D Si -0.2111(2) 0.0000 -0.1297(3)
C5D C -0.2229(10) 0.0000 0.1450(10)
C1B C -0.1968(8) 0.1473(5) -0.2628(8)
C2F C 0.2967(13) -0.1919(6) 0.2324(14)
C3F C 0.0844(13) -0.2026(5) 0.2452(13)
C4F C 0.2719(12) -0.1192(6) 0.4283(9)
C1D C -0.1968(8) -0.1473(5) -0.2628(8)
C8D C -0.3996(9) 0.0000 -0.2456(11)
C6D C -0.1206(12) 0.0000 0.3120(11)
C7D C -0.3102(9) -0.0746(7) 0.1123(11)
C7B C -0.3102(9) 0.0746(7) 0.1123(11)
C2B C -0.2967(13) 0.1919(6) -0.2324(14)
C3B C -0.0844(13) 0.2026(5) -0.2452(13)
C4B C -0.2719(12) 0.1192(6) -0.4283(9)
C2D C -0.2967(13) -0.1919(6) -0.2324(14)
C3D C -0.0844(13) -0.2026(5) -0.2452(13)
C4D C -0.2719(12) -0.1192(6) -0.4283(9)
loop_
_geom_bond_atom_site_label_1
_geom_bond_atom_site_label_2
_geom_bond_site_symmetry_1
_geom_bond_site_symmetry_2
Si1 N1 1_555 1_555
N1 C1 1_555 1_555
N2 Si1 1_555 1_555
C1 C2 1_555 1_555
C3 C1 1_555 1_555
C4 C1 1_555 1_555
C5 N2 1_555 1_555
C6 C5 1_555 1_555
C7 C5 1_555 1_555
C8 Si1 1_555 1_555
Li1 N1 1_555 1_555
Li2 N1 1_555 1_555
N1F Si1 1_555 1_555
Li2B N1 1_555 1_555
Li1D N2 1_555 1_555
Li2F N2 1_555 1_555
C7F C5 1_555 1_555
N2D Li1 1_555 1_555
Li2D Li1 1_555 1_555
N1B Li2 1_555 1_555
C1F N1F 1_555 1_555
N1D Li1D 1_555 1_555
Si1D N2D 1_555 1_555
C5D N2D 1_555 1_555
C1B N1B 1_555 1_555
C2F C1F 1_555 1_555
C3F C1F 1_555 1_555
C4F C1F 1_555 1_555
C1D N1D 1_555 1_555
C8D Si1D 1_555 1_555
C6D C5D 1_555 1_555
C7D C5D 1_555 1_555
C7B C5D 1_555 1_555
C2B C1B 1_555 1_555
C3B C1B 1_555 1_555
C4B C1B 1_555 1_555
C2D C1D 1_555 1_555
C3D C1D 1_555 1_555
C4D C1D 1_555 1_555
N2 Li2 1_555 1_555
Li1 N1F 1_555 1_555
Li1 Li2B 1_555 1_555
Li2 Li2B 1_555 1_555
Li2 Li1D 1_555 1_555
N1F Li2F 1_555 1_555
N1F Li2D 1_555 1_555
Li2B N2D 1_555 1_555
Li2B N1B 1_555 1_555
Li1D Li2F 1_555 1_555
Li1D N1B 1_555 1_555
Li2F Li2D 1_555 1_555
Li2F N1D 1_555 1_555
N2D Li2D 1_555 1_555
Li2D N1D 1_555 1_555
N1B Si1D 1_555 1_555
N1D Si1D 1_555 1_555

#END
