
#######################################################################
#
#                 Cambridge Crystallographic Data Centre
#                                CCDC 
#
#######################################################################
#
# If this CIF has been generated from an entry in the Cambridge 
# Structural Database, then it will include bibliographic, chemical, 
# crystal, experimental, refinement or atomic coordinate data resulting 
# from the CCDC's data processing and validation procedures.
#
#######################################################################

data_LECJEL
_chemical_formula_moiety         'C36 H54 N4'
_chemical_name_systematic        
{1,4-phenylenebis[(3,4-diethyl-1H-pyrrole-5,2-diyl)]}bis(N-hexylmethanimine)
_symmetry_cell_setting           triclinic
_symmetry_space_group_name_H-M   'P -1'
_symmetry_Int_Tables_number      2
_space_group_name_Hall           '-P 1'
loop_
_symmetry_equiv_pos_site_id
_symmetry_equiv_pos_as_xyz
1 x,y,z
2 -x,-y,-z
_cell_length_a                   11.8812(8)
_cell_length_b                   12.7974(8)
_cell_length_c                   12.8507(8)
_cell_angle_alpha                105.9240(10)
_cell_angle_beta                 95.8410(10)
_cell_angle_gamma                114.4270(10)
_cell_volume                     1658.27
_exptl_crystal_colour            brown
_exptl_crystal_description       prism
_cell_formula_units_Z            2
loop_
_atom_site_label
_atom_site_type_symbol
_atom_site_fract_x
_atom_site_fract_y
_atom_site_fract_z
C1 C 0.39339(13) 0.51334(12) 0.03024(11)
C2 C 0.15603(14) 0.74333(14) 0.14283(12)
H1 H 0.0743 0.7295 0.1493
C3 C 0.18094(13) 0.63970(13) 0.11455(12)
C4 C 0.51692(13) 0.61216(13) 0.06853(12)
H2 H 0.5294 0.6881 0.1148
C5 C 0.28518(13) 0.53059(12) 0.06222(11)
C6 C 0.17355(13) 0.45374(13) 0.08460(12)
C7 C 0.10868(13) 0.52365(13) 0.11852(12)
C8 C 0.37942(14) 0.40093(13) -0.03893(12)
H3 H 0.2989 0.3336 -0.0656
C9 C -0.01025(15) 0.48703(15) 0.16143(14)
H4 H -0.0556 0.3985 0.1382
H5 H -0.0656 0.5141 0.1288
C10 C 0.19586(18) 0.94697(16) 0.19639(15)
H6 H 0.1057 0.9128 0.1626
H7 H 0.2422 1.0151 0.1726
C11 C 0.02001(18) 0.54198(19) 0.28835(15)
H8 H 0.0724 0.5131 0.3210
H9 H -0.0580 0.5177 0.3123
H10 H 0.0646 0.6297 0.3116
C12 C 0.13097(16) 0.32396(14) 0.08063(14)
H11 H 0.0402 0.2864 0.0762
H12 H 0.1439 0.2787 0.0129
C13 C 0.2193(2) 0.99217(19) 0.32342(16)
H13 H 0.1751 0.9222 0.3457
H14 H 0.3098 1.0258 0.3555
C14 C 0.1776(2) 1.08792(19) 0.37302(18)
H15 H 0.0897 1.0593 0.3357
H16 H 0.2298 1.1629 0.3607
C15 C 0.1899(2) 1.1150(2) 0.50088(18)
H17 H 0.1358 1.0400 0.5121
H18 H 0.2773 1.1398 0.5368
C16 C 0.1980(3) 0.3115(2) 0.1779(2)
H19 H 0.2879 0.3476 0.1828
H20 H 0.1665 0.2263 0.1681
H21 H 0.1826 0.3526 0.2453
C17 C 0.1546(3) 1.2127(2) 0.55673(19)
H22 H 0.2059 1.2869 0.5430
H23 H 0.0658 1.1864 0.5240
C18 C 0.1741(3) 1.2403(3) 0.6804(2)
H24 H 0.1144 1.1707 0.6946
H25 H 0.1608 1.3099 0.7137
H26 H 0.2594 1.2579 0.7121
N1 N 0.28880(11) 0.64295(11) 0.08218(10)
N2 N 0.23826(13) 0.85310(12) 0.15969(11)
H27 H 0.3379(19) 0.6967(19) 0.0566(16)
C1A C 0.60661(13) 0.48666(12) -0.03024(11)
C2A C 0.84397(14) 0.25667(14) -0.14283(12)
H1A H 0.9257 0.2705 -0.1493
C3A C 0.81906(13) 0.36030(13) -0.11455(12)
C4A C 0.48308(13) 0.38784(13) -0.06853(12)
H2A H 0.4706 0.3119 -0.1148
C5A C 0.71482(13) 0.46941(12) -0.06222(11)
C6A C 0.82645(13) 0.54626(13) -0.08460(12)
C7A C 0.89132(13) 0.47635(13) -0.11852(12)
C8A C 0.62058(14) 0.59907(13) 0.03893(12)
H3A H 0.7011 0.6664 0.0656
C9A C 1.01025(15) 0.51297(15) -0.16143(14)
H4A H 1.0556 0.6015 -0.1382
H5A H 1.0656 0.4859 -0.1288
C10A C 0.80414(18) 0.05303(16) -0.19639(15)
H6A H 0.8943 0.0872 -0.1626
H7A H 0.7578 -0.0151 -0.1726
C11A C 0.97999(18) 0.45802(19) -0.28835(15)
H8A H 0.9276 0.4869 -0.3210
H9A H 1.0580 0.4823 -0.3123
H10A H 0.9354 0.3703 -0.3116
C12A C 0.86903(16) 0.67604(14) -0.08063(14)
H11A H 0.9598 0.7136 -0.0762
H12A H 0.8561 0.7213 -0.0129
C13A C 0.7807(2) 0.00783(19) -0.32342(16)
H13A H 0.8249 0.0778 -0.3457
H14A H 0.6902 -0.0258 -0.3555
C14A C 0.8224(2) -0.08792(19) -0.37302(18)
H15A H 0.9103 -0.0593 -0.3357
H16A H 0.7702 -0.1629 -0.3607
C15A C 0.8101(2) -0.1150(2) -0.50088(18)
H17A H 0.8642 -0.0400 -0.5121
H18A H 0.7227 -0.1398 -0.5368
C16A C 0.8020(3) 0.6885(2) -0.1779(2)
H19A H 0.7121 0.6524 -0.1828
H20A H 0.8335 0.7737 -0.1681
H21A H 0.8174 0.6474 -0.2453
C17A C 0.8454(3) -0.2127(2) -0.55673(19)
H22A H 0.7941 -0.2869 -0.5430
H23A H 0.9342 -0.1864 -0.5240
C18A C 0.8259(3) -0.2403(3) -0.6804(2)
H24A H 0.8856 -0.1707 -0.6946
H25A H 0.8392 -0.3099 -0.7137
H26A H 0.7406 -0.2579 -0.7121
N1A N 0.71120(11) 0.35705(11) -0.08218(10)
N2A N 0.76174(13) 0.14690(12) -0.15969(11)
H27A H 0.6621(19) 0.3033(19) -0.0566(16)
C19 C 0.44766(14) 0.89757(13) 1.40333(11)
H28 H 0.4119 0.8285 1.3388
C20 C 0.54905(13) 1.00544(13) 1.40473(11)
C21 C 0.59887(14) 1.00964(13) 1.30537(11)
C22 C 0.39996(14) 0.89231(13) 1.49664(12)
H29 H 0.3329 0.8196 1.4938
C23 C 0.58965(15) 0.95774(13) 1.12268(12)
C24 C 0.72270(14) 1.07114(13) 1.29453(12)
C25 C 0.71585(15) 1.03857(13) 1.17839(12)
C26 C 0.53516(15) 0.89426(14) 1.00438(12)
H30 H 0.5821 0.9228 0.9556
C27 C 0.84346(15) 1.15010(15) 1.38511(13)
H31 H 0.9084 1.1268 1.3646
H32 H 0.8283 1.1344 1.4534
C28 C 0.82606(17) 1.07575(16) 1.12511(14)
H33 H 0.8971 1.1504 1.1773
H34 H 0.8016 1.0928 1.0598
C29 C 0.89394(19) 1.28674(16) 1.40786(16)
H35 H 0.9048 1.3027 1.3398
H36 H 0.9745 1.3311 1.4621
H37 H 0.8343 1.3125 1.4360
C30 C 0.3846(5) 0.7510(4) 0.8401(4)
H38 H 0.4408 0.8085 0.8100
H39 H 0.2988 0.7395 0.8164
C31 C 0.3873(2) 0.62907(19) 0.79579(17)
H40 H 0.3354 0.5741 0.8304
H41 H 0.4741 0.6422 0.8170
C32 C 0.3385(2) 0.5685(2) 0.66938(18)
H42 H 0.3246 0.4845 0.6490
H43 H 0.2565 0.5660 0.6480
C33 C 0.4247(3) 0.6297(2) 0.6025(2)
H44 H 0.5067 0.6320 0.6235
H45 H 0.4386 0.7137 0.6224
C34 C 0.8683(2) 0.9772(2) 1.0909(2)
H46 H 0.8909 0.9588 1.1550
H47 H 0.9409 1.0059 1.0602
H48 H 0.7999 0.9047 1.0358
C35 C 0.3724(2) 0.5658(2) 0.47333(18)
H49 H 0.3494 0.4796 0.4551
H50 H 0.2948 0.5711 0.4523
N3 N 0.51939(12) 0.93989(11) 1.20073(9)
N4 N 0.42585(13) 0.80087(12) 0.96332(10)
H51 H 0.432(2) 0.9046(18) 1.1851(16)
C36 C 0.4592(3) 0.6143(3) 0.4026(3)
H52 H 0.4881 0.7009 0.4230
H53 H 0.4139 0.5741 0.3254
H54 H 0.5313 0.5991 0.4141
C19A C 0.55234(14) 1.10243(13) 1.59667(11)
H28A H 0.5881 1.1715 1.6612
C20A C 0.45095(13) 0.99456(13) 1.59527(11)
C21A C 0.40113(14) 0.99036(13) 1.69463(11)
C22A C 0.60004(14) 1.10769(13) 1.50336(12)
H29A H 0.6671 1.1804 1.5062
C23A C 0.41035(15) 1.04226(13) 1.87732(12)
C24A C 0.27730(14) 0.92886(13) 1.70547(12)
C25A C 0.28415(15) 0.96143(13) 1.82161(12)
C26A C 0.46484(15) 1.10574(14) 1.99562(12)
H30A H 0.4179 1.0772 2.0444
C27A C 0.15654(15) 0.84990(15) 1.61489(13)
H31A H 0.0916 0.8732 1.6354
H32A H 0.1717 0.8656 1.5466
C28A C 0.17394(17) 0.92425(16) 1.87489(14)
H33A H 0.1029 0.8496 1.8227
H34A H 0.1984 0.9072 1.9402
C29A C 0.10606(19) 0.71326(16) 1.59214(16)
H35A H 0.0952 0.6973 1.6602
H36A H 0.0255 0.6689 1.5379
H37A H 0.1657 0.6875 1.5640
C30A C 0.6154(5) 1.2490(4) 2.1599(4)
H38A H 0.5592 1.1915 2.1900
H39A H 0.7012 1.2605 2.1836
C31A C 0.6127(2) 1.37093(19) 2.20421(17)
H40A H 0.6646 1.4259 2.1696
H41A H 0.5259 1.3578 2.1830
C32A C 0.6615(2) 1.4315(2) 2.33062(18)
H42A H 0.6754 1.5155 2.3510
H43A H 0.7435 1.4340 2.3520
C33A C 0.5753(3) 1.3703(2) 2.3975(2)
H44A H 0.4933 1.3680 2.3765
H45A H 0.5614 1.2863 2.3776
C34A C 0.1317(2) 1.0228(2) 1.9091(2)
H46A H 0.1091 1.0412 1.8450
H47A H 0.0591 0.9941 1.9398
H48A H 0.2001 1.0953 1.9642
C35A C 0.6276(2) 1.4342(2) 2.52667(18)
H49A H 0.6506 1.5204 2.5449
H50A H 0.7052 1.4289 2.5477
N3A N 0.48061(12) 1.06011(11) 1.79927(9)
N4A N 0.57415(13) 1.19913(12) 2.03668(10)
H51A H 0.568(2) 1.0954(18) 1.8149(16)
C36A C 0.5408(3) 1.3857(3) 2.5974(3)
H52A H 0.5119 1.2991 2.5770
H53A H 0.5861 1.4259 2.6746
H54A H 0.4687 1.4009 2.5859
C37? C 0.3733(19) 0.7145(15) 0.8489(18)
H55? H 0.2960 0.7156 0.8182
H56? H 0.3496 0.6329 0.8506
C38? C 0.4575(9) 0.7370(8) 0.7738(7)
H57? H 0.5333 0.7313 0.8008
H58? H 0.4838 0.8190 0.7723
C39? C 0.3893(9) 0.6436(10) 0.6560(9)
H59? H 0.3679 0.5625 0.6582
H60? H 0.3100 0.6453 0.6328
C40? C 0.4649(12) 0.6640(11) 0.5694(9)
H61? H 0.4869 0.7432 0.5624
H62? H 0.5417 0.6554 0.5849
loop_
_geom_bond_atom_site_label_1
_geom_bond_atom_site_label_2
_geom_bond_site_symmetry_1
_geom_bond_site_symmetry_2
C1 C4 1_555 1_555
C2 H1 1_555 1_555
C3 C2 1_555 1_555
C4 H2 1_555 1_555
C5 C1 1_555 1_555
C6 C5 1_555 1_555
C7 C3 1_555 1_555
C8 C1 1_555 1_555
H3 C8 1_555 1_555
C9 C7 1_555 1_555
H4 C9 1_555 1_555
H5 C9 1_555 1_555
C10 H6 1_555 1_555
H7 C10 1_555 1_555
C11 C9 1_555 1_555
H8 C11 1_555 1_555
H9 C11 1_555 1_555
H10 C11 1_555 1_555
C12 C6 1_555 1_555
H11 C12 1_555 1_555
H12 C12 1_555 1_555
C13 C10 1_555 1_555
H13 C13 1_555 1_555
H14 C13 1_555 1_555
C14 C13 1_555 1_555
H15 C14 1_555 1_555
H16 C14 1_555 1_555
C15 C14 1_555 1_555
H17 C15 1_555 1_555
H18 C15 1_555 1_555
C16 C12 1_555 1_555
H19 C16 1_555 1_555
H20 C16 1_555 1_555
H21 C16 1_555 1_555
C17 C15 1_555 1_555
H22 C17 1_555 1_555
H23 C17 1_555 1_555
C18 C17 1_555 1_555
H24 C18 1_555 1_555
H25 C18 1_555 1_555
H26 C18 1_555 1_555
N1 C3 1_555 1_555
N2 C2 1_555 1_555
H27 N1 1_555 1_555
C19 H28 1_555 1_555
C20 C19 1_555 1_555
C21 C20 1_555 1_555
C22 C19 1_555 1_555
H29 C22 1_555 1_555
C23 C25 1_555 1_555
C24 C21 1_555 1_555
C25 C24 1_555 1_555
C26 C23 1_555 1_555
H30 C26 1_555 1_555
C27 C24 1_555 1_555
H31 C27 1_555 1_555
H32 C27 1_555 1_555
C28 C25 1_555 1_555
H33 C28 1_555 1_555
H34 C28 1_555 1_555
C29 C27 1_555 1_555
H35 C29 1_555 1_555
H36 C29 1_555 1_555
H37 C29 1_555 1_555
C30 H38 1_555 1_555
H39 C30 1_555 1_555
C31 C30 1_555 1_555
H40 C31 1_555 1_555
H41 C31 1_555 1_555
C32 C31 1_555 1_555
H42 C32 1_555 1_555
H43 C32 1_555 1_555
C33 C32 1_555 1_555
H44 C33 1_555 1_555
H45 C33 1_555 1_555
C34 C28 1_555 1_555
H46 C34 1_555 1_555
H47 C34 1_555 1_555
H48 C34 1_555 1_555
C35 C33 1_555 1_555
H49 C35 1_555 1_555
H50 C35 1_555 1_555
N3 C21 1_555 1_555
N4 C26 1_555 1_555
H51 N3 1_555 1_555
C36 C35 1_555 1_555
H52 C36 1_555 1_555
H53 C36 1_555 1_555
H54 C36 1_555 1_555
C1A C4A 1_555 1_555
C2A H1A 1_555 1_555
C3A C2A 1_555 1_555
C4A C8 1_555 1_555
H2A C4A 1_555 1_555
C5A C1A 1_555 1_555
C6A C5A 1_555 1_555
C7A C3A 1_555 1_555
C8A C4 1_555 1_555
H3A C8A 1_555 1_555
C9A C7A 1_555 1_555
H4A C9A 1_555 1_555
H5A C9A 1_555 1_555
C10A H6A 1_555 1_555
H7A C10A 1_555 1_555
C11A C9A 1_555 1_555
H8A C11A 1_555 1_555
H9A C11A 1_555 1_555
H10A C11A 1_555 1_555
C12A C6A 1_555 1_555
H11A C12A 1_555 1_555
H12A C12A 1_555 1_555
C13A C10A 1_555 1_555
H13A C13A 1_555 1_555
H14A C13A 1_555 1_555
C14A C13A 1_555 1_555
H15A C14A 1_555 1_555
H16A C14A 1_555 1_555
C15A C14A 1_555 1_555
H17A C15A 1_555 1_555
H18A C15A 1_555 1_555
C16A C12A 1_555 1_555
H19A C16A 1_555 1_555
H20A C16A 1_555 1_555
H21A C16A 1_555 1_555
C17A C15A 1_555 1_555
H22A C17A 1_555 1_555
H23A C17A 1_555 1_555
C18A C17A 1_555 1_555
H24A C18A 1_555 1_555
H25A C18A 1_555 1_555
H26A C18A 1_555 1_555
N1A C3A 1_555 1_555
N2A C2A 1_555 1_555
H27A N1A 1_555 1_555
C19A H28A 1_555 1_555
C20A C22 1_555 1_555
C21A C20A 1_555 1_555
C22A C20 1_555 1_555
H29A C22A 1_555 1_555
C23A C25A 1_555 1_555
C24A C21A 1_555 1_555
C25A C24A 1_555 1_555
C26A C23A 1_555 1_555
H30A C26A 1_555 1_555
C27A C24A 1_555 1_555
H31A C27A 1_555 1_555
H32A C27A 1_555 1_555
C28A C25A 1_555 1_555
H33A C28A 1_555 1_555
H34A C28A 1_555 1_555
C29A C27A 1_555 1_555
H35A C29A 1_555 1_555
H36A C29A 1_555 1_555
H37A C29A 1_555 1_555
C30A H38A 1_555 1_555
H39A C30A 1_555 1_555
C31A C30A 1_555 1_555
H40A C31A 1_555 1_555
H41A C31A 1_555 1_555
C32A C31A 1_555 1_555
H42A C32A 1_555 1_555
H43A C32A 1_555 1_555
C33A C32A 1_555 1_555
H44A C33A 1_555 1_555
H45A C33A 1_555 1_555
C34A C28A 1_555 1_555
H46A C34A 1_555 1_555
H47A C34A 1_555 1_555
H48A C34A 1_555 1_555
C35A C33A 1_555 1_555
H49A C35A 1_555 1_555
H50A C35A 1_555 1_555
N3A C21A 1_555 1_555
N4A C26A 1_555 1_555
H51A N3A 1_555 1_555
C36A C35A 1_555 1_555
H52A C36A 1_555 1_555
H53A C36A 1_555 1_555
H54A C36A 1_555 1_555
C5 N1 1_555 1_555
C6 C7 1_555 1_555
C10 N2 1_555 1_555
C23 N3 1_555 1_555
C30 N4 1_555 1_555
C1A C8A 1_555 1_555
C5A N1A 1_555 1_555
C6A C7A 1_555 1_555
C10A N2A 1_555 1_555
C19A C20A 1_555 1_555
C19A C22A 1_555 1_555
C23A N3A 1_555 1_555
C30A N4A 1_555 1_555

#END
