
#######################################################################
#
#                 Cambridge Crystallographic Data Centre
#                                CCDC 
#
#######################################################################
#
# If this CIF has been generated from an entry in the Cambridge 
# Structural Database, then it will include bibliographic, chemical, 
# crystal, experimental, refinement or atomic coordinate data resulting 
# from the CCDC's data processing and validation procedures.
#
#######################################################################

data_LECJOV
_chemical_formula_moiety         'C38 H32 N2 O2'
_chemical_name_systematic        
7-(diethylamino)-3-{4-[9-(4-methylphenyl)-9H-carbazol-3-yl]phenyl}-2H-1-benzopyran-2-one
_symmetry_cell_setting           monoclinic
_symmetry_space_group_name_H-M   'P 21/n'
_symmetry_Int_Tables_number      14
_space_group_name_Hall           '-P 2yn'
loop_
_symmetry_equiv_pos_site_id
_symmetry_equiv_pos_as_xyz
1 x,y,z
2 1/2-x,1/2+y,1/2-z
3 -x,-y,-z
4 1/2+x,1/2-y,1/2+z
_cell_length_a                   15.7392(13)
_cell_length_b                   9.8075(8)
_cell_length_c                   38.653(3)
_cell_angle_alpha                90
_cell_angle_beta                 101.382(2)
_cell_angle_gamma                90
_cell_volume                     5849.22
_cell_formula_units_Z            8
loop_
_atom_site_label
_atom_site_type_symbol
_atom_site_fract_x
_atom_site_fract_y
_atom_site_fract_z
N1 N 0.59068(16) 0.6961(3) 0.86069(7)
N2 N 0.81259(16) 0.9780(3) 0.47567(6)
O1 O 0.72930(12) 0.6909(2) 0.56295(5)
O2 O 0.70272(14) 0.5472(2) 0.60312(5)
C1 C 0.6068(2) 0.7271(4) 0.82749(8)
C2 C 0.6085(2) 0.8512(4) 0.81159(9)
H1 H 0.6005 0.9312 0.8235
C3 C 0.62244(17) 0.8546(4) 0.77748(8)
H2 H 0.6232 0.9387 0.7664
C4 C 0.63548(18) 0.7363(4) 0.75878(8)
C5 C 0.63454(16) 0.6109(4) 0.77577(8)
H3 H 0.6439 0.5310 0.7641
C6 C 0.61975(17) 0.6047(4) 0.81008(8)
C7 C 0.60957(18) 0.4939(4) 0.83410(8)
C8 C 0.61325(18) 0.3539(4) 0.83232(8)
H4 H 0.6254 0.3118 0.8123
C9 C 0.59875(17) 0.2762(4) 0.86043(9)
H5 H 0.6007 0.1815 0.8593
C10 C 0.58120(19) 0.3406(4) 0.89053(9)
H6 H 0.5720 0.2871 0.9093
C11 C 0.57712(19) 0.4784(4) 0.89337(8)
H7 H 0.5656 0.5195 0.9136
C12 C 0.59080(19) 0.5559(4) 0.86473(9)
C13 C 0.5638(2) 0.7923(4) 0.88400(8)
C14 C 0.4771(3) 0.8195(4) 0.88077(8)
H8 H 0.4367 0.7751 0.8637
C15 C 0.4500(2) 0.9130(5) 0.90302(11)
H9 H 0.3911 0.9305 0.9007
C16 C 0.5069(3) 0.9794(4) 0.92795(10)
C17 C 0.5928(3) 0.9543(4) 0.93110(9)
H10 H 0.6326 1.0002 0.9481
C18 C 0.6220(2) 0.8597(4) 0.90888(10)
H11 H 0.6810 0.8430 0.9111
C19 C 0.4771(3) 1.0824(4) 0.95295(9)
H12 H 0.5248 1.1043 0.9717
H13 H 0.4309 1.0435 0.9626
H14 H 0.4570 1.1638 0.9401
C20 C 0.64794(19) 0.7448(3) 0.72220(8)
C21 C 0.69624(16) 0.6499(3) 0.70774(7)
H15 H 0.7227 0.5786 0.7217
C22 C 0.70604(16) 0.6587(3) 0.67293(8)
H16 H 0.7385 0.5928 0.6641
C23 C 0.66861(17) 0.7634(3) 0.65105(8)
C24 C 0.61992(18) 0.8577(3) 0.66551(8)
H17 H 0.5933 0.9290 0.6516
C25 C 0.61020(18) 0.8481(3) 0.70000(8)
H18 H 0.5771 0.9134 0.7087
C26 C 0.70466(19) 0.6650(4) 0.59495(8)
C27 C 0.68404(17) 0.7836(4) 0.61464(8)
C28 C 0.68395(17) 0.9077(4) 0.59996(7)
H19 H 0.6671 0.9820 0.6119
C29 C 0.70838(18) 0.9308(4) 0.56698(8)
C30 C 0.73497(18) 0.8196(4) 0.54932(8)
C31 C 0.76849(18) 0.8321(3) 0.51949(7)
H20 H 0.7854 0.7547 0.5087
C32 C 0.77740(19) 0.9608(4) 0.50516(8)
C33 C 0.74769(18) 1.0746(4) 0.52200(8)
H21 H 0.7503 1.1614 0.5126
C34 C 0.71553(19) 1.0576(4) 0.55178(8)
H22 H 0.6974 1.1342 0.5625
C35 C 0.8490(2) 0.8638(3) 0.45909(7)
H23 H 0.8445 0.8829 0.4342
H24 H 0.8155 0.7822 0.4612
C36 C 0.9432(2) 0.8381(4) 0.47576(8)
H25 H 0.9778 0.9139 0.4710
H26 H 0.9627 0.7565 0.4660
H27 H 0.9487 0.8275 0.5008
C37 C 0.8353(2) 1.1171(4) 0.46428(8)
H28 H 0.8505 1.1757 0.4848
H29 H 0.8852 1.1108 0.4531
C38 C 0.7628(2) 1.1762(4) 0.43965(9)
H30 H 0.7484 1.1189 0.4192
H31 H 0.7784 1.2652 0.4327
H32 H 0.7136 1.1833 0.4508
N3 N 0.58061(15) 0.8740(3) 0.35498(6)
N4 N 0.3382(2) 0.4184(3) 0.72758(7)
O3 O 0.28151(11) 0.4493(2) 0.60197(5)
O4 O 0.24590(13) 0.4581(2) 0.54399(5)
C39 C 0.55920(19) 0.8413(3) 0.38734(8)
C40 C 0.60470(18) 0.8661(3) 0.42109(8)
H33 H 0.6578 0.9110 0.4248
C41 C 0.56987(19) 0.8230(3) 0.44922(7)
H34 H 0.6001 0.8401 0.4720
C42 C 0.49010(18) 0.7538(3) 0.44457(7)
C43 C 0.44547(17) 0.7302(3) 0.41043(7)
H35 H 0.3929 0.6839 0.4068
C44 C 0.47864(18) 0.7750(3) 0.38150(7)
C45 C 0.44915(19) 0.7690(3) 0.34367(8)
C46 C 0.37555(18) 0.7188(3) 0.32184(8)
H36 H 0.3319 0.6783 0.3313
C47 C 0.3678(2) 0.7297(3) 0.28572(9)
H37 H 0.3183 0.6967 0.2709
C48 C 0.4328(2) 0.7890(3) 0.27131(8)
H38 H 0.4264 0.7943 0.2469
C49 C 0.5065(2) 0.8402(3) 0.29224(8)
H39 H 0.5500 0.8797 0.2824
C50 C 0.51386(19) 0.8311(3) 0.32823(8)
C51 C 0.6517(2) 0.9600(4) 0.35102(7)
C52 C 0.7364(2) 0.9171(3) 0.36211(6)
H40 H 0.7484 0.8292 0.3707
C53 C 0.80305(19) 1.0067(4) 0.36025(7)
H41 H 0.8599 0.9782 0.3682
C54 C 0.7881(2) 1.1364(4) 0.34702(7)
C55 C 0.7029(2) 1.1755(3) 0.33460(7)
H42 H 0.6909 1.2617 0.3248
C56 C 0.63549(19) 1.0868(4) 0.33667(7)
H43 H 0.5786 1.1141 0.3282
C57 C 0.8608(2) 1.2375(4) 0.34779(8)
H44 H 0.8463 1.2986 0.3281
H45 H 0.9132 1.1895 0.3464
H46 H 0.8692 1.2886 0.3694
C58 C 0.45871(18) 0.7062(4) 0.47595(7)
C59 C 0.40658(18) 0.5920(3) 0.47474(7)
H47 H 0.3885 0.5473 0.4533
C60 C 0.38048(16) 0.5423(3) 0.50466(8)
H48 H 0.3456 0.4650 0.5028
C61 C 0.40532(17) 0.6054(3) 0.53711(8)
C62 C 0.45473(18) 0.7230(3) 0.53801(8)
H49 H 0.4706 0.7695 0.5593
C63 C 0.48138(17) 0.7739(3) 0.50828(8)
H50 H 0.5144 0.8531 0.5099
C64 C 0.3009(2) 0.4859(3) 0.56935(8)
C65 C 0.38393(18) 0.5539(3) 0.57011(8)
C66 C 0.43791(18) 0.5705(3) 0.60138(7)
H51 H 0.4920 0.6088 0.6016
C67 C 0.41689(18) 0.5327(3) 0.63412(8)
C68 C 0.3367(2) 0.4738(3) 0.63382(8)
C69 C 0.30776(19) 0.4363(3) 0.66362(8)
H52 H 0.2532 0.3975 0.6620
C70 C 0.3621(2) 0.4575(3) 0.69664(9)
C71 C 0.4431(2) 0.5203(3) 0.69770(8)
H53 H 0.4792 0.5384 0.7193
C72 C 0.46875(17) 0.5543(3) 0.66737(8)
H54 H 0.5231 0.5936 0.6688
C73 C 0.3966(2) 0.4309(4) 0.76222(9)
H55 H 0.3816 0.3622 0.7780
H56 H 0.4557 0.4144 0.7596
C74 C 0.3911(2) 0.5661(5) 0.77775(9)
H57 H 0.4078 0.6342 0.7625
H58 H 0.4292 0.5700 0.8004
H59 H 0.3327 0.5826 0.7805
C75 C 0.2550(3) 0.3528(4) 0.72731(9)
H60 H 0.2602 0.2954 0.7481
H61 H 0.2413 0.2943 0.7067
C76 C 0.1808(3) 0.4517(5) 0.72680(10)
H62 H 0.1874 0.4960 0.7493
H63 H 0.1269 0.4029 0.7220
H64 H 0.1812 0.5189 0.7088
loop_
_geom_bond_atom_site_label_1
_geom_bond_atom_site_label_2
_geom_bond_site_symmetry_1
_geom_bond_site_symmetry_2
N1 C1 1_555 1_555
N2 C32 1_555 1_555
O1 C26 1_555 1_555
O2 C26 1_555 1_555
C1 C2 1_555 1_555
C2 H1 1_555 1_555
C3 C2 1_555 1_555
H2 C3 1_555 1_555
C4 C3 1_555 1_555
C5 C4 1_555 1_555
H3 C5 1_555 1_555
C6 C1 1_555 1_555
C7 C6 1_555 1_555
C8 C7 1_555 1_555
H4 C8 1_555 1_555
C9 C8 1_555 1_555
H5 C9 1_555 1_555
C10 C9 1_555 1_555
H6 C10 1_555 1_555
C11 C10 1_555 1_555
H7 C11 1_555 1_555
C12 N1 1_555 1_555
C13 N1 1_555 1_555
C14 C13 1_555 1_555
H8 C14 1_555 1_555
C15 C14 1_555 1_555
H9 C15 1_555 1_555
C16 C15 1_555 1_555
C17 C16 1_555 1_555
H10 C17 1_555 1_555
C18 C13 1_555 1_555
H11 C18 1_555 1_555
C19 C16 1_555 1_555
H12 C19 1_555 1_555
H13 C19 1_555 1_555
H14 C19 1_555 1_555
C20 C4 1_555 1_555
C21 C20 1_555 1_555
H15 C21 1_555 1_555
C22 C21 1_555 1_555
H16 C22 1_555 1_555
C23 C22 1_555 1_555
C24 C23 1_555 1_555
H17 C24 1_555 1_555
C25 C20 1_555 1_555
H18 C25 1_555 1_555
C26 C27 1_555 1_555
C27 C23 1_555 1_555
C28 C27 1_555 1_555
H19 C28 1_555 1_555
C29 C28 1_555 1_555
C30 O1 1_555 1_555
C31 C30 1_555 1_555
H20 C31 1_555 1_555
C32 C31 1_555 1_555
C33 C32 1_555 1_555
H21 C33 1_555 1_555
C34 C29 1_555 1_555
H22 C34 1_555 1_555
C35 N2 1_555 1_555
H23 C35 1_555 1_555
H24 C35 1_555 1_555
C36 C35 1_555 1_555
H25 C36 1_555 1_555
H26 C36 1_555 1_555
H27 C36 1_555 1_555
C37 N2 1_555 1_555
H28 C37 1_555 1_555
H29 C37 1_555 1_555
C38 C37 1_555 1_555
H30 C38 1_555 1_555
H31 C38 1_555 1_555
H32 C38 1_555 1_555
N3 C39 1_555 1_555
N4 C70 1_555 1_555
O3 C64 1_555 1_555
O4 C64 1_555 1_555
C39 C40 1_555 1_555
C40 H33 1_555 1_555
C41 C40 1_555 1_555
H34 C41 1_555 1_555
C42 C41 1_555 1_555
C43 C42 1_555 1_555
H35 C43 1_555 1_555
C44 C39 1_555 1_555
C45 C44 1_555 1_555
C46 C45 1_555 1_555
H36 C46 1_555 1_555
C47 C46 1_555 1_555
H37 C47 1_555 1_555
C48 C47 1_555 1_555
H38 C48 1_555 1_555
C49 C48 1_555 1_555
H39 C49 1_555 1_555
C50 N3 1_555 1_555
C51 N3 1_555 1_555
C52 C51 1_555 1_555
H40 C52 1_555 1_555
C53 C52 1_555 1_555
H41 C53 1_555 1_555
C54 C53 1_555 1_555
C55 C54 1_555 1_555
H42 C55 1_555 1_555
C56 C51 1_555 1_555
H43 C56 1_555 1_555
C57 C54 1_555 1_555
H44 C57 1_555 1_555
H45 C57 1_555 1_555
H46 C57 1_555 1_555
C58 C42 1_555 1_555
C59 C58 1_555 1_555
H47 C59 1_555 1_555
C60 C59 1_555 1_555
H48 C60 1_555 1_555
C61 C60 1_555 1_555
C62 C61 1_555 1_555
H49 C62 1_555 1_555
C63 C58 1_555 1_555
H50 C63 1_555 1_555
C64 C65 1_555 1_555
C65 C61 1_555 1_555
C66 C65 1_555 1_555
H51 C66 1_555 1_555
C67 C66 1_555 1_555
C68 O3 1_555 1_555
C69 C68 1_555 1_555
H52 C69 1_555 1_555
C70 C69 1_555 1_555
C71 C70 1_555 1_555
H53 C71 1_555 1_555
C72 C67 1_555 1_555
H54 C72 1_555 1_555
C73 N4 1_555 1_555
H55 C73 1_555 1_555
H56 C73 1_555 1_555
C74 C73 1_555 1_555
H57 C74 1_555 1_555
H58 C74 1_555 1_555
H59 C74 1_555 1_555
C75 N4 1_555 1_555
H60 C75 1_555 1_555
H61 C75 1_555 1_555
C76 C75 1_555 1_555
H62 C76 1_555 1_555
H63 C76 1_555 1_555
H64 C76 1_555 1_555
C5 C6 1_555 1_555
C7 C12 1_555 1_555
C11 C12 1_555 1_555
C17 C18 1_555 1_555
C24 C25 1_555 1_555
C29 C30 1_555 1_555
C33 C34 1_555 1_555
C43 C44 1_555 1_555
C45 C50 1_555 1_555
C49 C50 1_555 1_555
C55 C56 1_555 1_555
C62 C63 1_555 1_555
C67 C68 1_555 1_555
C71 C72 1_555 1_555

#END
