
#######################################################################
#
#                 Cambridge Crystallographic Data Centre
#                                CCDC 
#
#######################################################################
#
# If this CIF has been generated from an entry in the Cambridge 
# Structural Database, then it will include bibliographic, chemical, 
# crystal, experimental, refinement or atomic coordinate data resulting 
# from the CCDC's data processing and validation procedures.
#
#######################################################################

data_LECMIS
_chemical_name_common            
N-hydroxy-2,3a,6,6-tetramethyl-3a,4,5,5a,6,7,7a,9,10,10a-decahydro-8H-cyclobuta[6,7]cyclonona[1,2-d][1,3]oxazol-8-imine
_chemical_formula_moiety         'C16 H26 N2 O2'
_chemical_name_systematic        
'(3aR,5aR,7aS,E)-2,3a,6,6-tetramethyl-3a,4,5,5a,6,7,7a,9,10,10a-decahydro-8H-cyclobuta[6,7]cyclonona[1,2-d]oxazol-8-one oxime'
_symmetry_cell_setting           monoclinic
_symmetry_space_group_name_H-M   'P 21'
_symmetry_Int_Tables_number      4
_space_group_name_Hall           'P 2yb'
loop_
_symmetry_equiv_pos_site_id
_symmetry_equiv_pos_as_xyz
1 x,y,z
2 -x,1/2+y,-z
_cell_length_a                   8.9540(4)
_cell_length_b                   8.9365(5)
_cell_length_c                   10.4047(5)
_cell_angle_alpha                90
_cell_angle_beta                 99.970(3)
_cell_angle_gamma                90
_cell_volume                     819.984
_exptl_crystal_colour            colorless
_exptl_crystal_description       needle
_cell_formula_units_Z            2
_exptl_crystal_recrystallization_method methanol
loop_
_atom_site_label
_atom_site_type_symbol
_atom_site_fract_x
_atom_site_fract_y
_atom_site_fract_z
O1 O 0.71761(13) 0.6754(2) 0.39463(12)
O2 O 0.26841(16) 0.7242(2) 0.55992(18)
H1 H 0.177249 0.708677 0.538352
N1 N 0.95922(15) 0.6743(2) 0.49669(15)
N2 N 0.33089(18) 0.6186(2) 0.65558(17)
C1 C 0.86718(19) 0.6749(2) 0.39067(18)
C2 C 0.70288(17) 0.6752(3) 0.53214(16)
H2 H 0.656749 0.580448 0.552010
C3 C 0.6306(2) 0.3386(3) 0.88226(18)
C4 C 0.87131(17) 0.6790(2) 0.60569(16)
C5 C 0.4634(2) 0.6578(3) 0.71056(18)
C6 C 0.6808(2) 0.4583(2) 0.78874(18)
H3 H 0.656211 0.419950 0.699325
C7 C 0.9157(2) 0.5388(2) 0.6884(2)
H4 H 1.024997 0.539910 0.715207
H5 H 0.891085 0.452356 0.632361
C8 C 0.5454(2) 0.5574(3) 0.81498(19)
H6 H 0.579831 0.617850 0.893079
C9 C 0.5960(2) 0.8022(3) 0.5509(2)
H7 H 0.508911 0.798074 0.481103
H8 H 0.647450 0.896371 0.543055
C10 C 0.8448(2) 0.5149(3) 0.8109(2)
H9 H 0.907199 0.444004 0.866936
H10 H 0.848645 0.609076 0.857694
C11 C 0.9057(2) 0.6764(4) 0.25711(19)
H11 H 0.865221 0.588453 0.210746
H12 H 1.013848 0.678024 0.263123
H13 H 0.862714 0.763856 0.211320
C12 C 0.9185(2) 0.8226(3) 0.6807(2)
H14 H 1.026666 0.823695 0.707474
H15 H 0.870624 0.827391 0.756331
H16 H 0.888088 0.907346 0.625642
C13 C 0.4731(3) 0.4132(3) 0.8567(2)
H17 H 0.402415 0.366451 0.787035
H18 H 0.428077 0.424736 0.934452
C14 C 0.5396(2) 0.8005(3) 0.6813(2)
H19 H 0.625155 0.818543 0.750523
H20 H 0.468738 0.882438 0.682117
C15 C 0.6395(3) 0.1782(4) 0.8391(3)
H21 H 0.595925 0.169884 0.748381
H22 H 0.584512 0.115536 0.889610
H23 H 0.743641 0.147217 0.851920
C16 C 0.7077(3) 0.3576(4) 1.0243(2)
H24 H 0.812892 0.331144 1.032763
H25 H 0.659555 0.293784 1.079060
H26 H 0.699217 0.459931 1.050221
loop_
_geom_bond_atom_site_label_1
_geom_bond_atom_site_label_2
_geom_bond_site_symmetry_1
_geom_bond_site_symmetry_2
O1 C1 1_555 1_555
O2 H1 1_555 1_555
N1 C1 1_555 1_555
N2 O2 1_555 1_555
C1 C11 1_555 1_555
C2 O1 1_555 1_555
H2 C2 1_555 1_555
C3 C6 1_555 1_555
C4 N1 1_555 1_555
C5 N2 1_555 1_555
C6 H3 1_555 1_555
C7 C4 1_555 1_555
H4 C7 1_555 1_555
H5 C7 1_555 1_555
C8 C5 1_555 1_555
H6 C8 1_555 1_555
C9 C2 1_555 1_555
H7 C9 1_555 1_555
H8 C9 1_555 1_555
C10 C6 1_555 1_555
H9 C10 1_555 1_555
H10 C10 1_555 1_555
C11 H11 1_555 1_555
H12 C11 1_555 1_555
H13 C11 1_555 1_555
C12 C4 1_555 1_555
H14 C12 1_555 1_555
H15 C12 1_555 1_555
H16 C12 1_555 1_555
C13 C3 1_555 1_555
H17 C13 1_555 1_555
H18 C13 1_555 1_555
C14 C5 1_555 1_555
H19 C14 1_555 1_555
H20 C14 1_555 1_555
C15 C3 1_555 1_555
H21 C15 1_555 1_555
H22 C15 1_555 1_555
H23 C15 1_555 1_555
C16 C3 1_555 1_555
H24 C16 1_555 1_555
H25 C16 1_555 1_555
H26 C16 1_555 1_555
C2 C4 1_555 1_555
C6 C8 1_555 1_555
C7 C10 1_555 1_555
C8 C13 1_555 1_555
C9 C14 1_555 1_555

#END
