
#######################################################################
#
#                 Cambridge Crystallographic Data Centre
#                                CCDC 
#
#######################################################################
#
# If this CIF has been generated from an entry in the Cambridge 
# Structural Database, then it will include bibliographic, chemical, 
# crystal, experimental, refinement or atomic coordinate data resulting 
# from the CCDC's data processing and validation procedures.
#
#######################################################################

data_LECPUF
_chemical_formula_moiety         'C38 H44 N2 O6'
_chemical_name_systematic        
1,10-Diaza-4,7,13,16,21,24-hexaoxa-3,8,12,17(1,2)-tetrabenzenabicyclo(8.8.8)hexacosaphane
_symmetry_cell_setting           monoclinic
_symmetry_space_group_name_H-M   'P 2/n'
_symmetry_Int_Tables_number      13
_space_group_name_Hall           '-P 2yac'
loop_
_symmetry_equiv_pos_site_id
_symmetry_equiv_pos_as_xyz
1 x,y,z
2 1/2-x,y,1/2-z
3 -x,-y,-z
4 1/2+x,-y,1/2+z
_cell_length_a                   11.935(3)
_cell_length_b                   8.264(2)
_cell_length_c                   16.629(4)
_cell_angle_alpha                90
_cell_angle_beta                 92.360(10)
_cell_angle_gamma                90
_cell_volume                     1638.74
_exptl_crystal_colour            white
_exptl_crystal_description       prism
_chemical_melting_point          '492-494 K'
_cell_formula_units_Z            2
_exptl_crystal_recrystallization_method 'ethyl acetate/petroleum ether'
loop_
_atom_site_label
_atom_site_type_symbol
_atom_site_fract_x
_atom_site_fract_y
_atom_site_fract_z
O1 O 0.0238(3) 0.2847(5) 0.3018(2)
O2 O -0.4255(4) 0.2924(5) 0.0480(3)
O3 O -0.2289(9) -0.3259(12) 0.1566(4)
N1 N -0.1332(5) 0.0532(7) 0.1062(2)
C1 C 0.0703(5) 0.3703(8) 0.3696(4)
H1 H 0.0405(5) 0.4795(8) 0.3700(4)
H2 H 0.1511(5) 0.3770(8) 0.3662(4)
C2 C 0.0495(5) 0.3391(8) 0.2266(4)
C3 C 0.1115(5) 0.4776(9) 0.2142(5)
H3 H 0.1358(5) 0.5424(9) 0.2572(5)
C4 C 0.1367(5) 0.5175(9) 0.1355(5)
H4 H 0.1791(5) 0.6096(9) 0.1264(5)
C5 C 0.1009(6) 0.4251(10) 0.0714(4)
H5 H 0.1195(6) 0.4522(10) 0.0194(4)
C6 C 0.0365(5) 0.2903(9) 0.0860(4)
H6 H 0.0111(5) 0.2272(9) 0.0427(4)
C7 C 0.0085(5) 0.2461(7) 0.1623(4)
C8 C -0.0658(5) 0.1035(7) 0.1771(3)
H7 H -0.0195(5) 0.0132(7) 0.1955(3)
H8 H -0.1155(5) 0.1304(7) 0.2198(3)
C9 C -0.2165(5) 0.1745(8) 0.0842(3)
H9 H -0.1810(5) 0.2801(8) 0.0855(3)
H10 H -0.2737(5) 0.1745(8) 0.1240(3)
C10 C -0.2713(5) 0.1491(7) 0.0030(3)
C11 C -0.2178(5) 0.0712(7) -0.0578(3)
H11 H -0.1451(5) 0.0336(7) -0.0484(3)
C12 C -0.2703(7) 0.0478(8) -0.1330(3)
H12 H -0.2340(7) -0.0061(8) -0.1735(3)
C13 C -0.3772(7) 0.1063(9) -0.1460(4)
H13 H -0.4125(7) 0.0922(9) -0.1964(4)
C14 C -0.4336(6) 0.1842(7) -0.0877(4)
H14 H -0.5065(6) 0.2213(7) -0.0975(4)
C15 C -0.3784(6) 0.2064(7) -0.0133(4)
C16 C 0.0422(6) 0.2860(8) 0.4446(3)
H15 H 0.0669(6) 0.1743(8) 0.4427(3)
H16 H 0.0798(6) 0.3380(8) 0.4905(3)
C17 C -0.2002(9) -0.0973(11) 0.1270(5)
H17 H -0.2593(9) -0.0659(11) 0.1623(5)
H18 H -0.2357(9) -0.1400(11) 0.0780(5)
C18 C -0.1312(8) -0.2308(13) 0.1677(12)
H19 H -0.0681(8) -0.2672(13) 0.1375(12)
H20 H -0.1093(8) -0.2095(13) 0.2235(12)
C19 C -0.2195(13) -0.4380(11) 0.2216(6)
H21 H -0.2253(13) -0.5450(11) 0.1978(6)
H22 H -0.1435(13) -0.4282(11) 0.2440(6)
O1A O -0.5238(3) 0.2847(5) 0.1982(2)
O2A O -0.0745(4) 0.2924(5) 0.4520(3)
O3A O -0.2711(9) -0.3259(12) 0.3434(4)
N1A N -0.3668(5) 0.0532(7) 0.3938(2)
C1A C -0.5703(5) 0.3703(8) 0.1304(4)
H1A H -0.5405(5) 0.4795(8) 0.1300(4)
H2A H -0.6511(5) 0.3770(8) 0.1338(4)
C2A C -0.5495(5) 0.3391(8) 0.2734(4)
C3A C -0.6115(5) 0.4776(9) 0.2858(5)
H3A H -0.6358(5) 0.5424(9) 0.2428(5)
C4A C -0.6367(5) 0.5175(9) 0.3645(5)
H4A H -0.6791(5) 0.6096(9) 0.3736(5)
C5A C -0.6009(6) 0.4251(10) 0.4286(4)
H5A H -0.6195(6) 0.4522(10) 0.4806(4)
C6A C -0.5365(5) 0.2903(9) 0.4140(4)
H6A H -0.5111(5) 0.2272(9) 0.4573(4)
C7A C -0.5085(5) 0.2461(7) 0.3377(4)
C8A C -0.4342(5) 0.1035(7) 0.3229(3)
H7A H -0.4805(5) 0.0132(7) 0.3045(3)
H8A H -0.3845(5) 0.1304(7) 0.2802(3)
C9A C -0.2835(5) 0.1745(8) 0.4158(3)
H9A H -0.3190(5) 0.2801(8) 0.4145(3)
H10A H -0.2263(5) 0.1745(8) 0.3760(3)
C10A C -0.2287(5) 0.1491(7) 0.4970(3)
C11A C -0.2822(5) 0.0712(7) 0.5578(3)
H11A H -0.3549(5) 0.0336(7) 0.5484(3)
C12A C -0.2297(7) 0.0478(8) 0.6330(3)
H12A H -0.2660(7) -0.0061(8) 0.6735(3)
C13A C -0.1228(7) 0.1063(9) 0.6460(4)
H13A H -0.0875(7) 0.0922(9) 0.6964(4)
C14A C -0.0664(6) 0.1842(7) 0.5877(4)
H14A H 0.0065(6) 0.2213(7) 0.5975(4)
C15A C -0.1216(6) 0.2064(7) 0.5133(4)
C16A C -0.5422(6) 0.2860(8) 0.0554(3)
H15A H -0.5669(6) 0.1743(8) 0.0573(3)
H16A H -0.5798(6) 0.3380(8) 0.0095(3)
C17A C -0.2998(9) -0.0973(11) 0.3730(5)
H17A H -0.2407(9) -0.0659(11) 0.3377(5)
H18A H -0.2643(9) -0.1400(11) 0.4220(5)
C18A C -0.3688(8) -0.2308(13) 0.3323(12)
H19A H -0.4319(8) -0.2672(13) 0.3625(12)
H20A H -0.3907(8) -0.2095(13) 0.2765(12)
C19A C -0.2805(13) -0.4380(11) 0.2784(6)
H21A H -0.2747(13) -0.5450(11) 0.3022(6)
H22A H -0.3565(13) -0.4282(11) 0.2560(6)
loop_
_geom_bond_atom_site_label_1
_geom_bond_atom_site_label_2
_geom_bond_site_symmetry_1
_geom_bond_site_symmetry_2
O1 C1 1_555 1_555
O2 C15 1_555 1_555
O3 C18 1_555 1_555
N1 C8 1_555 1_555
C1 H1 1_555 1_555
H2 C1 1_555 1_555
C2 O1 1_555 1_555
C3 C2 1_555 1_555
H3 C3 1_555 1_555
C4 C3 1_555 1_555
H4 C4 1_555 1_555
C5 C4 1_555 1_555
H5 C5 1_555 1_555
C6 C5 1_555 1_555
H6 C6 1_555 1_555
C7 C2 1_555 1_555
C8 C7 1_555 1_555
H7 C8 1_555 1_555
H8 C8 1_555 1_555
C9 N1 1_555 1_555
H9 C9 1_555 1_555
H10 C9 1_555 1_555
C10 C9 1_555 1_555
C11 C10 1_555 1_555
H11 C11 1_555 1_555
C12 C11 1_555 1_555
H12 C12 1_555 1_555
C13 C12 1_555 1_555
H13 C13 1_555 1_555
C14 C13 1_555 1_555
H14 C14 1_555 1_555
C15 C10 1_555 1_555
C16 C1 1_555 1_555
H15 C16 1_555 1_555
H16 C16 1_555 1_555
C17 N1 1_555 1_555
H17 C17 1_555 1_555
H18 C17 1_555 1_555
C18 C17 1_555 1_555
H19 C18 1_555 1_555
H20 C18 1_555 1_555
C19 O3 1_555 1_555
H21 C19 1_555 1_555
H22 C19 1_555 1_555
O1A C1A 1_555 1_555
O2A C16 1_555 1_555
O3A C18A 1_555 1_555
N1A C8A 1_555 1_555
C1A H1A 1_555 1_555
H2A C1A 1_555 1_555
C2A O1A 1_555 1_555
C3A C2A 1_555 1_555
H3A C3A 1_555 1_555
C4A C3A 1_555 1_555
H4A C4A 1_555 1_555
C5A C4A 1_555 1_555
H5A C5A 1_555 1_555
C6A C5A 1_555 1_555
H6A C6A 1_555 1_555
C7A C2A 1_555 1_555
C8A C7A 1_555 1_555
H7A C8A 1_555 1_555
H8A C8A 1_555 1_555
C9A N1A 1_555 1_555
H9A C9A 1_555 1_555
H10A C9A 1_555 1_555
C10A C9A 1_555 1_555
C11A C10A 1_555 1_555
H11A C11A 1_555 1_555
C12A C11A 1_555 1_555
H12A C12A 1_555 1_555
C13A C12A 1_555 1_555
H13A C13A 1_555 1_555
C14A C13A 1_555 1_555
H14A C14A 1_555 1_555
C15A O2A 1_555 1_555
C16A O2 1_555 1_555
H15A C16A 1_555 1_555
H16A C16A 1_555 1_555
C17A N1A 1_555 1_555
H17A C17A 1_555 1_555
H18A C17A 1_555 1_555
C18A C17A 1_555 1_555
H19A C18A 1_555 1_555
H20A C18A 1_555 1_555
C19A C19 1_555 1_555
H21A C19A 1_555 1_555
H22A C19A 1_555 1_555
C6 C7 1_555 1_555
C14 C15 1_555 1_555
O3A C19A 1_555 1_555
C1A C16A 1_555 1_555
C6A C7A 1_555 1_555
C10A C15A 1_555 1_555
C14A C15A 1_555 1_555

#END
