
#######################################################################
#
#                 Cambridge Crystallographic Data Centre
#                                CCDC 
#
#######################################################################
#
# If this CIF has been generated from an entry in the Cambridge 
# Structural Database, then it will include bibliographic, chemical, 
# crystal, experimental, refinement or atomic coordinate data resulting 
# from the CCDC's data processing and validation procedures.
#
#######################################################################

data_LECQES
_chemical_formula_moiety         'C11 H14 N4 O3 S1'
_chemical_name_systematic        
1-butyl-4-(methylsulfanyl)-2-(nitromethyl)-6-oxo-1,6-dihydropyrimidine-5-carbonitrile
_symmetry_cell_setting           monoclinic
_symmetry_space_group_name_H-M   'P 21/n'
_symmetry_Int_Tables_number      14
_space_group_name_Hall           '-P 2yn'
loop_
_symmetry_equiv_pos_site_id
_symmetry_equiv_pos_as_xyz
1 x,y,z
2 1/2-x,1/2+y,1/2-z
3 -x,-y,-z
4 1/2+x,1/2-y,1/2+z
_cell_length_a                   5.033(4)
_cell_length_b                   14.483(12)
_cell_length_c                   19.140(16)
_cell_angle_alpha                90
_cell_angle_beta                 96.932(10)
_cell_angle_gamma                90
_cell_volume                     1384.97
_exptl_crystal_colour            red
_exptl_crystal_description       block
_cell_formula_units_Z            4
loop_
_atom_site_label
_atom_site_type_symbol
_atom_site_fract_x
_atom_site_fract_y
_atom_site_fract_z
N1 N 0.5643(6) 0.34840(19) 0.17101(16)
N2 N 0.3196(5) 0.12212(17) 0.22673(13)
N3 N 0.6038(5) 0.17191(16) 0.14373(13)
N4 N 0.5845(9) -0.1586(2) 0.1184(2)
O1 O 0.7914(6) 0.3676(2) 0.19359(19)
O2 O 0.4460(8) 0.3740(2) 0.11574(17)
O3 O 0.1946(5) -0.02986(17) 0.23139(13)
S1 S 0.84165(19) 0.06059(7) 0.05889(5)
C1 C 0.4155(7) 0.2868(2) 0.21498(19)
H1 H 0.2270 0.3028 0.2088
H2 H 0.4830 0.2946 0.2643
C2 C 0.4508(6) 0.1876(2) 0.19331(16)
C3 C 0.3304(6) 0.0277(2) 0.20628(16)
C4 C 0.5113(6) 0.0108(2) 0.15441(15)
C5 C 0.5490(7) -0.0833(2) 0.13422(18)
C6 C 0.6368(6) 0.0827(2) 0.12410(15)
C7 C 0.9251(9) 0.1742(3) 0.0303(2)
H3 H 0.7642 0.2063 0.0125
H4 H 1.0395 0.1690 -0.0062
H5 H 1.0162 0.2077 0.0693
C8 C 0.1599(7) 0.1433(3) 0.28530(18)
H6 H 0.0259 0.0955 0.2874
H7 H 0.0671 0.2014 0.2756
C9 C 0.3307(13) 0.1496(6) 0.3566(3)
H8 H 0.4289 0.2072 0.3563
H9 H 0.2066 0.1568 0.3913
C10 C 0.5010(13) 0.0884(7) 0.3814(3)
H10 H 0.6307 0.0823 0.3481
H11 H 0.4059 0.0301 0.3811
C11 C 0.6589(11) 0.0988(5) 0.4544(2)
H12 H 0.7758 0.1512 0.4546
H13 H 0.7631 0.0441 0.4656
H14 H 0.5370 0.1077 0.4887
loop_
_geom_bond_atom_site_label_1
_geom_bond_atom_site_label_2
_geom_bond_site_symmetry_1
_geom_bond_site_symmetry_2
N1 O1 1_555 1_555
N2 C2 1_555 1_555
N3 C2 1_555 1_555
N4 C5 1_555 1_555
O2 N1 1_555 1_555
O3 C3 1_555 1_555
S1 C6 1_555 1_555
C1 N1 1_555 1_555
H1 C1 1_555 1_555
H2 C1 1_555 1_555
C2 C1 1_555 1_555
C3 N2 1_555 1_555
C4 C3 1_555 1_555
C5 C4 1_555 1_555
C6 N3 1_555 1_555
C7 S1 1_555 1_555
H3 C7 1_555 1_555
H4 C7 1_555 1_555
H5 C7 1_555 1_555
C8 N2 1_555 1_555
H6 C8 1_555 1_555
H7 C8 1_555 1_555
C9 C8 1_555 1_555
H8 C9 1_555 1_555
H9 C9 1_555 1_555
C10 C9 1_555 1_555
H10 C10 1_555 1_555
H11 C10 1_555 1_555
C11 C10 1_555 1_555
H12 C11 1_555 1_555
H13 C11 1_555 1_555
H14 C11 1_555 1_555
C4 C6 1_555 1_555

#END
