
#######################################################################
#
#                 Cambridge Crystallographic Data Centre
#                                CCDC 
#
#######################################################################
#
# If this CIF has been generated from an entry in the Cambridge 
# Structural Database, then it will include bibliographic, chemical, 
# crystal, experimental, refinement or atomic coordinate data resulting 
# from the CCDC's data processing and validation procedures.
#
#######################################################################

data_LECQUI
_chemical_formula_moiety         'C16 H36 Li1 N4 O1 1+,C18 H16 B1 1-'
_chemical_name_systematic        
'tetrahydrofuran-(1,4,7,10-tetramethyl-1,4,7,10-tetra-azacyclododecane)-lithium hydrido(triphenyl)borate'
_symmetry_cell_setting           orthorhombic
_symmetry_space_group_name_H-M   'P n a 21'
_symmetry_Int_Tables_number      33
_space_group_name_Hall           'P 2c -2n'
loop_
_symmetry_equiv_pos_site_id
_symmetry_equiv_pos_as_xyz
1 x,y,z
2 -x,-y,1/2+z
3 1/2-x,1/2+y,1/2+z
4 1/2+x,1/2-y,z
_cell_length_a                   19.982(6)
_cell_length_b                   9.368(3)
_cell_length_c                   17.449(5)
_cell_angle_alpha                90
_cell_angle_beta                 90
_cell_angle_gamma                90
_cell_volume                     3266.3
_exptl_crystal_colour            colorless
_exptl_crystal_description       rod
_cell_formula_units_Z            4
_chemical_properties_physical    
Air-sensitive,Moisture-sensitive,Oxygen-sensitive
_exptl_crystal_recrystallization_method 'tetrahydrofuran / pentane'
loop_
_atom_site_label
_atom_site_type_symbol
_atom_site_fract_x
_atom_site_fract_y
_atom_site_fract_z
N1 N 0.0901(2) 0.4329(5) 0.9064(3)
N2 N 0.1073(2) 0.6320(5) 0.7771(3)
N3 N 0.0494(2) 0.4350(5) 0.6689(3)
N4 N 0.0355(2) 0.2341(5) 0.7957(3)
Li1 Li 0.1089(5) 0.4021(11) 0.7773(6)
O1 O 0.1941(2) 0.3145(5) 0.7578(3)
C1 C 0.0580(3) 0.5750(6) 0.9033(4)
H1 H 0.0522 0.6120 0.9561
H2 H 0.0130 0.5659 0.8799
C2 C 0.0993(3) 0.6794(6) 0.8573(3)
H3 H 0.0774 0.7741 0.8581
H4 H 0.1440 0.6894 0.8812
C3 C 0.0482(3) 0.6731(6) 0.7315(4)
H5 H 0.0497 0.7769 0.7210
H6 H 0.0071 0.6528 0.7612
C4 C 0.0460(3) 0.5927(6) 0.6569(4)
H7 H 0.0040 0.6165 0.6295
H8 H 0.0839 0.6230 0.6243
C5 C -0.0157(3) 0.3775(7) 0.6920(4)
H9 H -0.0455 0.3721 0.6469
H10 H -0.0365 0.4421 0.7300
C6 C -0.0078(3) 0.2306(7) 0.7265(4)
H11 H -0.0524 0.1928 0.7406
H12 H 0.0121 0.1656 0.6880
C7 C -0.0035(3) 0.2757(7) 0.8634(4)
H13 H -0.0315 0.1940 0.8800
H14 H -0.0339 0.3553 0.8497
C8 C 0.0412(3) 0.3216(7) 0.9293(3)
H15 H 0.0131 0.3588 0.9715
H16 H 0.0658 0.2374 0.9489
C9 C 0.1456(3) 0.4352(7) 0.9617(4)
H17 H 0.1674 0.3415 0.9627
H18 H 0.1283 0.4576 1.0128
H19 H 0.1782 0.5080 0.9464
C10 C 0.1684(3) 0.6927(7) 0.7447(3)
H20 H 0.1654 0.7971 0.7451
H21 H 0.1740 0.6592 0.6919
H22 H 0.2070 0.6625 0.7755
C11 C 0.0720(3) 0.3692(7) 0.5970(4)
H23 H 0.0388 0.3864 0.5568
H24 H 0.0775 0.2662 0.6045
H25 H 0.1150 0.4111 0.5818
C12 C 0.0670(4) 0.0940(6) 0.8073(4)
H26 H 0.0915 0.0665 0.7610
H27 H 0.0324 0.0227 0.8182
H28 H 0.0982 0.0993 0.8506
C13 C 0.2328(12) 0.344(5) 0.6878(13)
H29 H 0.2079 0.3117 0.6419
H30 H 0.2414 0.4479 0.6829
C14 C 0.2957(4) 0.2665(11) 0.6949(5)
H31 H 0.3328 0.3220 0.6720
H32 H 0.2927 0.1732 0.6684
C15 C 0.3068(4) 0.2459(9) 0.7777(5)
H33 H 0.3303 0.3284 0.8006
H34 H 0.3326 0.1577 0.7880
C16 C 0.2336(17) 0.234(5) 0.808(2)
H35 H 0.2188 0.1329 0.8084
H36 H 0.2304 0.2720 0.8609
B1 B 0.8184(3) 0.7931(7) 0.8972(4)
H45 H 0.766(3) 0.853(6) 0.893(3)
C19 C 0.8444(3) 0.7790(6) 0.8089(3)
C20 C 0.8249(3) 0.6663(6) 0.7600(3)
H46 H 0.8000 0.5898 0.7814
C21 C 0.8399(3) 0.6610(6) 0.6837(3)
H47 H 0.8255 0.5823 0.6536
C22 C 0.8761(3) 0.7699(6) 0.6502(3)
H48 H 0.8864 0.7675 0.5971
C23 C 0.8971(3) 0.8827(6) 0.6954(3)
H49 H 0.9221 0.9585 0.6732
C24 C 0.8820(3) 0.8859(6) 0.7730(3)
H50 H 0.8977 0.9637 0.8029
C25 C 0.8696(3) 0.8834(5) 0.9521(3)
C26 C 0.8451(3) 0.9713(6) 1.0110(3)
H51 H 0.7980 0.9805 1.0170
C27 C 0.8867(3) 1.0451(7) 1.0607(4)
H52 H 0.8678 1.1019 1.1003
C28 C 0.9558(3) 1.0365(6) 1.0528(4)
H53 H 0.9844 1.0889 1.0860
C29 C 0.9822(3) 0.9498(6) 0.9957(3)
H54 H 1.0293 0.9417 0.9898
C30 C 0.9398(3) 0.8752(6) 0.9472(3)
H55 H 0.9590 0.8159 0.9090
C31 C 0.8027(3) 0.6394(6) 0.9367(3)
C32 C 0.8456(3) 0.5211(6) 0.9316(3)
H56 H 0.8851 0.5296 0.9016
C33 C 0.8329(3) 0.3917(6) 0.9684(4)
H57 H 0.8633 0.3143 0.9627
C34 C 0.7765(3) 0.3756(7) 1.0132(4)
H58 H 0.7679 0.2880 1.0389
C35 C 0.7326(3) 0.4898(7) 1.0202(4)
H59 H 0.6937 0.4809 1.0511
C36 C 0.7453(3) 0.6165(7) 0.9823(3)
H60 H 0.7139 0.6920 0.9872
C17? C 0.2199(12) 0.250(3) 0.6889(15)
H37? H 0.2025 0.2999 0.6429
H38? H 0.2071 0.1482 0.6860
H39? H 0.3192 0.1930 0.6643
H40? H 0.3104 0.3624 0.6780
H41? H 0.3136 0.1435 0.7893
H42? H 0.3468 0.2995 0.7946
C18? C 0.2484(16) 0.298(4) 0.8156(19)
H43? H 0.2580 0.3912 0.8401
H44? H 0.2343 0.2301 0.8560
loop_
_geom_bond_atom_site_label_1
_geom_bond_atom_site_label_2
_geom_bond_site_symmetry_1
_geom_bond_site_symmetry_2
N1 Li1 1_555 1_555
N2 Li1 1_555 1_555
N3 Li1 1_555 1_555
N4 Li1 1_555 1_555
Li1 O1 1_555 1_555
O1 C13 1_555 1_555
C1 N1 1_555 1_555
H1 C1 1_555 1_555
H2 C1 1_555 1_555
C2 N2 1_555 1_555
H3 C2 1_555 1_555
H4 C2 1_555 1_555
C3 N2 1_555 1_555
H5 C3 1_555 1_555
H6 C3 1_555 1_555
C4 N3 1_555 1_555
H7 C4 1_555 1_555
H8 C4 1_555 1_555
C5 N3 1_555 1_555
H9 C5 1_555 1_555
H10 C5 1_555 1_555
C6 N4 1_555 1_555
H11 C6 1_555 1_555
H12 C6 1_555 1_555
C7 N4 1_555 1_555
H13 C7 1_555 1_555
H14 C7 1_555 1_555
C8 N1 1_555 1_555
H15 C8 1_555 1_555
H16 C8 1_555 1_555
C9 N1 1_555 1_555
H17 C9 1_555 1_555
H18 C9 1_555 1_555
H19 C9 1_555 1_555
C10 N2 1_555 1_555
H20 C10 1_555 1_555
H21 C10 1_555 1_555
H22 C10 1_555 1_555
C11 N3 1_555 1_555
H23 C11 1_555 1_555
H24 C11 1_555 1_555
H25 C11 1_555 1_555
C12 N4 1_555 1_555
H26 C12 1_555 1_555
H27 C12 1_555 1_555
H28 C12 1_555 1_555
C13 H29 1_555 1_555
H30 C13 1_555 1_555
C14 C13 1_555 1_555
H31 C14 1_555 1_555
H32 C14 1_555 1_555
C15 C14 1_555 1_555
H33 C15 1_555 1_555
H34 C15 1_555 1_555
C16 O1 1_555 1_555
H35 C16 1_555 1_555
H36 C16 1_555 1_555
B1 H45 1_555 1_555
C19 B1 1_555 1_555
C20 C19 1_555 1_555
H46 C20 1_555 1_555
C21 C20 1_555 1_555
H47 C21 1_555 1_555
C22 C21 1_555 1_555
H48 C22 1_555 1_555
C23 C22 1_555 1_555
H49 C23 1_555 1_555
C24 C19 1_555 1_555
H50 C24 1_555 1_555
C25 B1 1_555 1_555
C26 C25 1_555 1_555
H51 C26 1_555 1_555
C27 C26 1_555 1_555
H52 C27 1_555 1_555
C28 C27 1_555 1_555
H53 C28 1_555 1_555
C29 C28 1_555 1_555
H54 C29 1_555 1_555
C30 C25 1_555 1_555
H55 C30 1_555 1_555
C31 B1 1_555 1_555
C32 C31 1_555 1_555
H56 C32 1_555 1_555
C33 C32 1_555 1_555
H57 C33 1_555 1_555
C34 C33 1_555 1_555
H58 C34 1_555 1_555
C35 C34 1_555 1_555
H59 C35 1_555 1_555
C36 C31 1_555 1_555
H60 C36 1_555 1_555
C1 C2 1_555 1_555
C3 C4 1_555 1_555
C5 C6 1_555 1_555
C7 C8 1_555 1_555
C15 C16 1_555 1_555
C23 C24 1_555 1_555
C29 C30 1_555 1_555
C35 C36 1_555 1_555

#END
