
#######################################################################
#
#                 Cambridge Crystallographic Data Centre
#                                CCDC 
#
#######################################################################
#
# If this CIF has been generated from an entry in the Cambridge 
# Structural Database, then it will include bibliographic, chemical, 
# crystal, experimental, refinement or atomic coordinate data resulting 
# from the CCDC's data processing and validation procedures.
#
#######################################################################

data_LECRAM01
_chemical_formula_moiety         'C12 H17 N1 O5 S1'
_chemical_name_systematic        N-p-Tolylsulfonyloxy-t-butylcarbamate
_symmetry_cell_setting           monoclinic
_symmetry_space_group_name_H-M   'P 21/c'
_symmetry_Int_Tables_number      14
_space_group_name_Hall           '-P 2ybc'
loop_
_symmetry_equiv_pos_site_id
_symmetry_equiv_pos_as_xyz
1 x,y,z
2 -x,1/2+y,1/2-z
3 -x,-y,-z
4 x,1/2-y,1/2+z
_cell_length_a                   9.265(1)
_cell_length_b                   20.345(2)
_cell_length_c                   8.0209(8)
_cell_angle_alpha                90
_cell_angle_beta                 110.42(1)
_cell_angle_gamma                90
_cell_volume                     1416.9
_exptl_crystal_colour            'pale yellow'
_exptl_crystal_description       needle
_cell_formula_units_Z            4
_chemical_properties_physical    heat-sensitive
loop_
_atom_site_label
_atom_site_type_symbol
_atom_site_fract_x
_atom_site_fract_y
_atom_site_fract_z
S1 S 0.38032(4) 0.120547(18) 0.01904(5)
O1 O 0.40242(13) 0.18261(5) -0.04990(14)
O2 O 0.40449(13) 0.06138(5) -0.06163(14)
O3 O 0.19918(11) 0.12471(5) -0.00218(13)
O4 O -0.00599(13) 0.03162(5) 0.20018(14)
O5 O 0.10719(12) 0.13225(5) 0.26145(14)
N1 N 0.15307(15) 0.06596(6) 0.06151(17)
H1 H 0.106(2) 0.0366(9) -0.035(2)
C1 C 0.47671(16) 0.11719(7) 0.24886(19)
C2 C 0.47496(17) 0.17222(7) 0.3509(2)
H2 H 0.4190 0.2104 0.2973
C3 C 0.55607(18) 0.17030(8) 0.5318(2)
H3 H 0.5553 0.2076 0.6028
C4 C 0.63898(18) 0.11467(8) 0.6118(2)
C5 C 0.63792(19) 0.06028(8) 0.5066(2)
H4 H 0.6936 0.0220 0.5602
C6 C 0.55715(18) 0.06066(7) 0.3248(2)
H5 H 0.5569 0.0232 0.2539
C7 C 0.7285(2) 0.11374(10) 0.8094(2)
H9 H 0.7338 0.1584 0.8571
H10 H 0.8330 0.0975 0.8305
H11 H 0.6768 0.0848 0.8686
C8 C 0.07518(17) 0.07535(7) 0.17843(19)
C9 C 0.03352(18) 0.15220(8) 0.3925(2)
C10 C 0.1136(2) 0.21627(9) 0.4627(3)
H12 H 0.1036 0.2460 0.3630
H13 H 0.2230 0.2080 0.5286
H14 H 0.0665 0.2366 0.5421
C11 C 0.0647(3) 0.10191(9) 0.5399(2)
H15 H 0.0039 0.0622 0.4937
H16 H 0.0359 0.1202 0.6371
H17 H 0.1745 0.0907 0.5845
C12 C -0.1365(2) 0.16258(10) 0.2919(2)
H18 H -0.1500 0.1967 0.2013
H19 H -0.1871 0.1764 0.3749
H20 H -0.1826 0.1214 0.2342
H6? H 0.7619 0.0687 0.8470
H7? H 0.6627 0.1296 0.8736
H8? H 0.8189 0.1423 0.8356
loop_
_geom_bond_atom_site_label_1
_geom_bond_atom_site_label_2
_geom_bond_site_symmetry_1
_geom_bond_site_symmetry_2
S1 O1 1_555 1_555
O2 S1 1_555 1_555
O3 S1 1_555 1_555
O4 C8 1_555 1_555
O5 C8 1_555 1_555
N1 O3 1_555 1_555
H1 N1 1_555 1_555
C1 S1 1_555 1_555
C2 C1 1_555 1_555
H2 C2 1_555 1_555
C3 C2 1_555 1_555
H3 C3 1_555 1_555
C4 C3 1_555 1_555
C5 C4 1_555 1_555
H4 C5 1_555 1_555
C6 C1 1_555 1_555
H5 C6 1_555 1_555
C7 C4 1_555 1_555
H9 C7 1_555 1_555
H10 C7 1_555 1_555
H11 C7 1_555 1_555
C8 N1 1_555 1_555
C9 O5 1_555 1_555
C10 C9 1_555 1_555
H12 C10 1_555 1_555
H13 C10 1_555 1_555
H14 C10 1_555 1_555
C11 C9 1_555 1_555
H15 C11 1_555 1_555
H16 C11 1_555 1_555
H17 C11 1_555 1_555
C12 C9 1_555 1_555
H18 C12 1_555 1_555
H19 C12 1_555 1_555
H20 C12 1_555 1_555
C5 C6 1_555 1_555

#END
