
#######################################################################
#
#                 Cambridge Crystallographic Data Centre
#                                CCDC 
#
#######################################################################
#
# If this CIF has been generated from an entry in the Cambridge 
# Structural Database, then it will include bibliographic, chemical, 
# crystal, experimental, refinement or atomic coordinate data resulting 
# from the CCDC's data processing and validation procedures.
#
#######################################################################

data_LECSEU01
_chemical_formula_moiety         'C33 H37 N3 O4'
_chemical_name_systematic        
5-[2,6-bis{2-[4-(dimethylamino)phenyl]ethenyl}-1-ethylpyridin-4(1H)-ylidene]-2,2-dimethyl-1,3-dioxane-4,6-dione
_symmetry_cell_setting           monoclinic
_symmetry_space_group_name_H-M   'P 21/c'
_symmetry_Int_Tables_number      14
_space_group_name_Hall           '-P 2ybc'
loop_
_symmetry_equiv_pos_site_id
_symmetry_equiv_pos_as_xyz
1 x,y,z
2 -x,1/2+y,1/2-z
3 -x,-y,-z
4 x,1/2-y,1/2+z
_cell_length_a                   11.2361(14)
_cell_length_b                   24.602(3)
_cell_length_c                   10.5445(14)
_cell_angle_alpha                90
_cell_angle_beta                 98.262(2)
_cell_angle_gamma                90
_cell_volume                     2884.57
_exptl_crystal_colour            orange
_exptl_crystal_description       block
_cell_formula_units_Z            4
loop_
_atom_site_label
_atom_site_type_symbol
_atom_site_fract_x
_atom_site_fract_y
_atom_site_fract_z
O1 O 0.39477(11) 0.65604(5) 0.11958(12)
O2 O 0.31603(10) 0.71127(5) 0.24925(12)
O3 O 0.21532(10) 0.67998(5) 0.41360(12)
O4 O 0.19005(10) 0.59317(5) 0.45009(12)
N1 N 0.49618(11) 0.46070(6) 0.28971(13)
N2 N 1.01228(13) 0.54941(6) -0.26481(15)
N3 N 0.14833(13) 0.27928(7) 0.87979(16)
C1 C 0.80918(14) 0.48901(7) -0.05672(16)
H1 H 0.779441 0.454170 -0.038330
C2 C 0.88962(14) 0.49331(7) -0.14331(16)
H2 H 0.914676 0.461390 -0.182731
C3 C 0.93543(14) 0.54413(7) -0.17453(16)
C4 C 0.89895(16) 0.58984(8) -0.11034(18)
H3 H 0.929990 0.624658 -0.126688
C5 C 0.81880(15) 0.58475(8) -0.02407(18)
H4 H 0.795531 0.616468 0.017534
C6 C 0.77023(14) 0.53472(7) 0.00479(16)
C7 C 0.68200(14) 0.53418(8) 0.09371(16)
H5 H 0.672345 0.567617 0.136118
C8 C 0.61283(13) 0.49335(7) 0.12403(15)
H6 H 0.622042 0.458215 0.089327
C9 C 0.52263(13) 0.50198(7) 0.21035(15)
C10 C 0.46415(13) 0.55111(7) 0.21103(15)
H7 H 0.481623 0.578494 0.152918
C11 C 0.37916(13) 0.56278(7) 0.29424(15)
C12 C 0.35509(13) 0.51856(7) 0.37258(15)
H8 H 0.298437 0.523556 0.430334
C13 C 0.40971(13) 0.46886(7) 0.36902(15)
C14 C 0.38146(14) 0.42531(7) 0.45444(16)
H9 H 0.444211 0.401322 0.488669
C15 C 0.27223(14) 0.41752(7) 0.48675(16)
H10 H 0.208477 0.438326 0.441749
C16 C 0.24098(14) 0.38022(7) 0.58437(15)
C17 C 0.12114(14) 0.37125(7) 0.60018(16)
H11 H 0.059318 0.388772 0.543866
C18 C 0.08972(14) 0.33766(7) 0.69526(17)
H12 H 0.007146 0.332318 0.702076
C19 C 0.17772(15) 0.31132(7) 0.78185(17)
C20 C 0.29907(14) 0.31961(7) 0.76502(16)
H13 H 0.361189 0.301778 0.820294
C21 C 0.32828(14) 0.35301(7) 0.67009(16)
H14 H 0.410702 0.357945 0.661980
C22 C 0.24241(18) 0.25500(9) 0.9706(2)
H15 H 0.291378 0.230901 0.925111
H16 H 0.206128 0.233992 1.034123
H17 H 0.293356 0.283705 1.014020
C23 C 0.02638(17) 0.27651(9) 0.9074(2)
H18 H -0.000302 0.312896 0.928577
H19 H 0.022861 0.252091 0.980193
H20 H -0.026258 0.262657 0.832161
C24 C 0.55697(15) 0.40752(7) 0.28842(17)
H21 H 0.571767 0.392868 0.376729
H22 H 0.635852 0.412517 0.258546
C25 C 0.48287(18) 0.36692(8) 0.2019(2)
H23 H 0.475861 0.379298 0.112790
H24 H 0.402520 0.363927 0.227124
H25 H 0.522409 0.331328 0.209907
C26 C 1.05531(15) 0.50133(8) -0.32322(17)
H26 H 1.103761 0.479418 -0.257375
H27 H 1.104688 0.512154 -0.388380
H28 H 0.986583 0.479880 -0.363430
C27 C 1.07798(17) 0.59972(9) -0.2714(2)
H29 H 1.021063 0.629827 -0.290176
H30 H 1.128793 0.597113 -0.339272
H31 H 1.128558 0.606286 -0.189055
C28 C 0.32685(13) 0.61600(7) 0.30354(16)
C29 C 0.35038(14) 0.65936(7) 0.21887(18)
C30 C 0.29469(15) 0.72097(7) 0.37838(18)
C31 C 0.22867(16) 0.77421(8) 0.3779(2)
H32 H 0.278333 0.803253 0.349441
H33 H 0.211910 0.782242 0.464668
H34 H 0.152770 0.771802 0.319409
C32 C 0.41233(15) 0.72158(8) 0.47071(19)
H35 H 0.451427 0.686000 0.469729
H36 H 0.395613 0.729474 0.557519
H37 H 0.465560 0.749637 0.444213
C33 C 0.24329(14) 0.62628(7) 0.39237(16)
loop_
_geom_bond_atom_site_label_1
_geom_bond_atom_site_label_2
_geom_bond_site_symmetry_1
_geom_bond_site_symmetry_2
O1 C29 1_555 1_555
O2 C29 1_555 1_555
O3 C30 1_555 1_555
O4 C33 1_555 1_555
N1 C9 1_555 1_555
N2 C3 1_555 1_555
N3 C19 1_555 1_555
C1 H1 1_555 1_555
C2 C1 1_555 1_555
H2 C2 1_555 1_555
C3 C2 1_555 1_555
C4 C3 1_555 1_555
H3 C4 1_555 1_555
C5 C4 1_555 1_555
H4 C5 1_555 1_555
C6 C1 1_555 1_555
C7 C6 1_555 1_555
H5 C7 1_555 1_555
C8 C7 1_555 1_555
H6 C8 1_555 1_555
C9 C8 1_555 1_555
C10 C9 1_555 1_555
H7 C10 1_555 1_555
C11 C10 1_555 1_555
C12 C11 1_555 1_555
H8 C12 1_555 1_555
C13 N1 1_555 1_555
C14 C13 1_555 1_555
H9 C14 1_555 1_555
C15 C14 1_555 1_555
H10 C15 1_555 1_555
C16 C15 1_555 1_555
C17 C16 1_555 1_555
H11 C17 1_555 1_555
C18 C17 1_555 1_555
H12 C18 1_555 1_555
C19 C18 1_555 1_555
C20 C19 1_555 1_555
H13 C20 1_555 1_555
C21 C16 1_555 1_555
H14 C21 1_555 1_555
C22 N3 1_555 1_555
H15 C22 1_555 1_555
H16 C22 1_555 1_555
H17 C22 1_555 1_555
C23 N3 1_555 1_555
H18 C23 1_555 1_555
H19 C23 1_555 1_555
H20 C23 1_555 1_555
C24 N1 1_555 1_555
H21 C24 1_555 1_555
H22 C24 1_555 1_555
C25 C24 1_555 1_555
H23 C25 1_555 1_555
H24 C25 1_555 1_555
H25 C25 1_555 1_555
C26 N2 1_555 1_555
H26 C26 1_555 1_555
H27 C26 1_555 1_555
H28 C26 1_555 1_555
C27 N2 1_555 1_555
H29 C27 1_555 1_555
H30 C27 1_555 1_555
H31 C27 1_555 1_555
C28 C11 1_555 1_555
C29 C28 1_555 1_555
C30 O2 1_555 1_555
C31 C30 1_555 1_555
H32 C31 1_555 1_555
H33 C31 1_555 1_555
H34 C31 1_555 1_555
C32 C30 1_555 1_555
H35 C32 1_555 1_555
H36 C32 1_555 1_555
H37 C32 1_555 1_555
C33 O3 1_555 1_555
C5 C6 1_555 1_555
C12 C13 1_555 1_555
C20 C21 1_555 1_555
C28 C33 1_555 1_555

#END
