
#######################################################################
#
#                 Cambridge Crystallographic Data Centre
#                                CCDC 
#
#######################################################################
#
# If this CIF has been generated from an entry in the Cambridge 
# Structural Database, then it will include bibliographic, chemical, 
# crystal, experimental, refinement or atomic coordinate data resulting 
# from the CCDC's data processing and validation procedures.
#
#######################################################################

data_LECSEU
_chemical_formula_moiety         'C33 H37 N3 O4'
_chemical_name_systematic        
5-[2,6-bis{2-[4-(dimethylamino)phenyl]ethenyl}-1-ethylpyridin-4(1H)-ylidene]-2,2-dimethyl-1,3-dioxane-4,6-dione
_symmetry_cell_setting           monoclinic
_symmetry_space_group_name_H-M   'P 21/c'
_symmetry_Int_Tables_number      14
_space_group_name_Hall           '-P 2ybc'
loop_
_symmetry_equiv_pos_site_id
_symmetry_equiv_pos_as_xyz
1 x,y,z
2 -x,1/2+y,1/2-z
3 -x,-y,-z
4 x,1/2-y,1/2+z
_cell_length_a                   11.3869(7)
_cell_length_b                   25.0608(16)
_cell_length_c                   10.4964(8)
_cell_angle_alpha                90
_cell_angle_beta                 97.701(5)
_cell_angle_gamma                90
_cell_volume                     2968.29
_exptl_crystal_colour            yellow
_exptl_crystal_description       prism
_cell_formula_units_Z            4
loop_
_atom_site_label
_atom_site_type_symbol
_atom_site_fract_x
_atom_site_fract_y
_atom_site_fract_z
O1 O 0.81148(18) 0.59337(7) 0.5512(2)
O2 O 0.78748(15) 0.67832(7) 0.5856(2)
O3 O 0.68635(18) 0.71002(7) 0.7468(2)
O4 O 0.6051(2) 0.65727(8) 0.8764(2)
N1 N 0.50443(16) 0.46559(8) 0.71186(18)
N2 N 0.8476(3) 0.27614(12) 0.1393(3)
N3 N -0.0146(2) 0.55287(10) 1.2579(2)
C1 C 0.6706(2) 0.35373(9) 0.3415(2)
H1 H 0.591173 0.358126 0.351264
C2 C 0.7000(2) 0.31851(10) 0.2504(2)
H2 H 0.640495 0.299782 0.199869
C3 C 0.8191(2) 0.31043(10) 0.2327(2)
C4 C 0.9043(2) 0.33943(10) 0.3112(3)
H3 H 0.983872 0.334779 0.302399
C5 C 0.8739(2) 0.37485(10) 0.4014(2)
H4 H 0.933336 0.393804 0.451584
C6 C 0.75580(19) 0.38301(8) 0.4196(2)
C7 C 0.7261(2) 0.42155(9) 0.5140(2)
H5 H 0.787397 0.442821 0.553436
C8 C 0.6188(2) 0.42913(9) 0.5490(2)
H6 H 0.558717 0.405431 0.518603
C9 C 0.59083(18) 0.47271(9) 0.6327(2)
C10 C 0.64593(19) 0.52114(9) 0.6291(2)
H7 H 0.701840 0.525397 0.572947
C11 C 0.62241(18) 0.56469(9) 0.7058(2)
C12 C 0.53716(19) 0.55425(9) 0.7891(2)
H8 H 0.520104 0.580914 0.845480
C13 C 0.47861(18) 0.50643(9) 0.7903(2)
C14 C 0.38747(19) 0.49892(10) 0.8758(2)
H9 H 0.377373 0.465276 0.910073
C15 C 0.3194(2) 0.53873(10) 0.9053(2)
H10 H 0.329516 0.570793 0.863475
C16 C 0.2313(2) 0.53957(10) 0.9936(2)
C17 C 0.1809(3) 0.58821(12) 1.0198(3)
H11 H 0.202969 0.618691 0.978406
C18 C 0.0995(3) 0.59280(12) 1.1048(3)
H12 H 0.067431 0.626047 1.119291
C19 C 0.0644(2) 0.54830(11) 1.1695(2)
C20 C 0.1127(2) 0.49891(10) 1.1412(2)
H13 H 0.089633 0.468278 1.181243
C21 C 0.1935(2) 0.49487(10) 1.0555(2)
H14 H 0.223587 0.461508 1.038420
C22 C -0.0550(3) 0.50659(14) 1.3192(3)
H15 H -0.099555 0.484259 1.255917
H16 H -0.104461 0.517349 1.381841
H17 H 0.011977 0.487133 1.360916
C23 C -0.0795(3) 0.60215(15) 1.2654(4)
H18 H -0.024675 0.631067 1.284505
H19 H -0.129289 0.599383 1.332030
H20 H -0.127594 0.608710 1.184603
C24 C 0.4419(2) 0.41370(11) 0.7128(3)
H21 H 0.430083 0.399192 0.626314
H22 H 0.364456 0.419383 0.739359
C25 C 0.5092(4) 0.37433(14) 0.8012(4)
H23 H 0.585155 0.367930 0.773973
H24 H 0.465705 0.341456 0.799280
H25 H 0.520002 0.388297 0.887121
C26 C 0.7575(5) 0.2468(3) 0.0624(6)
H26 H 0.727140 0.219673 0.113791
H27 H 0.790046 0.230355 -0.007764
H28 H 0.694455 0.270444 0.029178
C27 C 0.9656(3) 0.27351(18) 0.1058(4)
H29 H 0.993693 0.308942 0.092759
H30 H 0.965148 0.253187 0.028242
H31 H 1.016882 0.256628 0.174131
C28 C 0.67477(19) 0.61664(9) 0.6956(2)
C29 C 0.7589(2) 0.62587(10) 0.6073(2)
C30 C 0.6505(2) 0.65974(10) 0.7782(3)
C31 C 0.7093(2) 0.71868(10) 0.6187(3)
C32 C 0.7750(3) 0.77106(12) 0.6173(4)
H32 H 0.845587 0.769666 0.678501
H33 H 0.725114 0.799515 0.639694
H34 H 0.795909 0.777257 0.532983
C33 C 0.5957(3) 0.71958(13) 0.5251(3)
H35 H 0.613886 0.726855 0.440108
H36 H 0.544215 0.746886 0.550018
H37 H 0.557058 0.685555 0.525926
loop_
_geom_bond_atom_site_label_1
_geom_bond_atom_site_label_2
_geom_bond_site_symmetry_1
_geom_bond_site_symmetry_2
O1 C29 1_555 1_555
O2 C29 1_555 1_555
O3 C30 1_555 1_555
O4 C30 1_555 1_555
N1 C9 1_555 1_555
N2 C3 1_555 1_555
N3 C19 1_555 1_555
C1 H1 1_555 1_555
C2 C1 1_555 1_555
H2 C2 1_555 1_555
C3 C2 1_555 1_555
C4 C3 1_555 1_555
H3 C4 1_555 1_555
C5 C4 1_555 1_555
H4 C5 1_555 1_555
C6 C1 1_555 1_555
C7 C6 1_555 1_555
H5 C7 1_555 1_555
C8 C7 1_555 1_555
H6 C8 1_555 1_555
C9 C8 1_555 1_555
C10 C9 1_555 1_555
H7 C10 1_555 1_555
C11 C10 1_555 1_555
C12 C11 1_555 1_555
H8 C12 1_555 1_555
C13 N1 1_555 1_555
C14 C13 1_555 1_555
H9 C14 1_555 1_555
C15 C14 1_555 1_555
H10 C15 1_555 1_555
C16 C15 1_555 1_555
C17 C16 1_555 1_555
H11 C17 1_555 1_555
C18 C17 1_555 1_555
H12 C18 1_555 1_555
C19 C18 1_555 1_555
C20 C19 1_555 1_555
H13 C20 1_555 1_555
C21 C16 1_555 1_555
H14 C21 1_555 1_555
C22 N3 1_555 1_555
H15 C22 1_555 1_555
H16 C22 1_555 1_555
H17 C22 1_555 1_555
C23 N3 1_555 1_555
H18 C23 1_555 1_555
H19 C23 1_555 1_555
H20 C23 1_555 1_555
C24 N1 1_555 1_555
H21 C24 1_555 1_555
H22 C24 1_555 1_555
C25 C24 1_555 1_555
H23 C25 1_555 1_555
H24 C25 1_555 1_555
H25 C25 1_555 1_555
C26 N2 1_555 1_555
H26 C26 1_555 1_555
H27 C26 1_555 1_555
H28 C26 1_555 1_555
C27 N2 1_555 1_555
H29 C27 1_555 1_555
H30 C27 1_555 1_555
H31 C27 1_555 1_555
C28 C11 1_555 1_555
C29 C28 1_555 1_555
C30 C28 1_555 1_555
C31 O2 1_555 1_555
C32 C31 1_555 1_555
H32 C32 1_555 1_555
H33 C32 1_555 1_555
H34 C32 1_555 1_555
C33 C31 1_555 1_555
H35 C33 1_555 1_555
H36 C33 1_555 1_555
H37 C33 1_555 1_555
O3 C31 1_555 1_555
C5 C6 1_555 1_555
C12 C13 1_555 1_555
C20 C21 1_555 1_555

#END
