
#######################################################################
#
#                 Cambridge Crystallographic Data Centre
#                                CCDC 
#
#######################################################################
#
# If this CIF has been generated from an entry in the Cambridge 
# Structural Database, then it will include bibliographic, chemical, 
# crystal, experimental, refinement or atomic coordinate data resulting 
# from the CCDC's data processing and validation procedures.
#
#######################################################################

data_LECWOI
_chemical_formula_moiety         'C18 H15 S1 1+,C1 F3 O3 S1 1-'
_chemical_name_systematic        'triphenylsulfonium trifluoromethanesulfonate'
_symmetry_cell_setting           triclinic
_symmetry_space_group_name_H-M   'P -1'
_symmetry_Int_Tables_number      2
_space_group_name_Hall           '-P 1'
loop_
_symmetry_equiv_pos_site_id
_symmetry_equiv_pos_as_xyz
1 x,y,z
2 -x,-y,-z
_cell_length_a                   8.7640(8)
_cell_length_b                   10.0110(8)
_cell_length_c                   11.2134(10)
_cell_angle_alpha                99.004(4)
_cell_angle_beta                 91.663(5)
_cell_angle_gamma                98.870(4)
_cell_volume                     958.654
_exptl_crystal_colour            colorless
_exptl_crystal_description       block
_cell_formula_units_Z            2
loop_
_atom_site_label
_atom_site_type_symbol
_atom_site_fract_x
_atom_site_fract_y
_atom_site_fract_z
C1 C 0.5777(7) 0.7064(6) 0.7569(5)
C2 C 0.6768(9) 0.6974(8) 0.8523(7)
H1 H 0.6436 0.6465 0.9120
C3 C 0.6261(8) 0.7820(7) 0.6706(7)
H2 H 0.5590 0.7890 0.6070
C4 C 0.7821(10) 0.8505(8) 0.6799(9)
H3 H 0.8183 0.9019 0.6213
C5 C 0.8279(10) 0.7670(10) 0.8566(10)
H4 H 0.8965 0.7612 0.9197
C6 C 0.8761(9) 0.8409(8) 0.7730(11)
H5 H 0.9774 0.8870 0.7791
C7 C 0.2858(6) 0.6357(6) 0.6263(5)
C8 C 0.2611(8) 0.5248(7) 0.5316(6)
H6 H 0.2977 0.4439 0.5391
C9 C 0.2306(8) 0.7569(7) 0.6183(6)
H7 H 0.2478 0.8303 0.6818
C10 C 0.1486(9) 0.7652(8) 0.5124(7)
H8 H 0.1093 0.8449 0.5049
C11 C 0.1821(9) 0.5369(8) 0.4274(6)
H9 H 0.1666 0.4650 0.3626
C12 C 0.1253(8) 0.6578(9) 0.4197(6)
H10 H 0.0703 0.6654 0.3495
C13 C 0.3065(6) 0.6889(5) 0.8834(5)
C14 C 0.2182(8) 0.6038(7) 0.9485(6)
H11 H 0.2044 0.5092 0.9251
C15 C 0.3313(8) 0.8330(6) 0.9191(6)
H12 H 0.3941 0.8895 0.8758
C16 C 0.1494(9) 0.6620(8) 1.0509(6)
H13 H 0.0888 0.6064 1.0963
C17 C 0.2626(8) 0.8861(7) 1.0163(6)
H14 H 0.2753 0.9807 1.0392
C18 C 0.1721(8) 0.8014(8) 1.0838(6)
H15 H 0.1266 0.8402 1.1519
S1 S 0.39023(16) 0.60720(13) 0.75493(12)
C19 C -0.4280(10) 0.7963(11) 0.2752(12)
S2 S -0.2269(2) 0.81967(17) 0.2562(2)
O1 O -0.2056(11) 0.9124(11) 0.1755(12)
O2 O -0.1628(11) 0.8982(11) 0.3646(12)
O3 O -0.1810(7) 0.6964(6) 0.2253(9)
F1 F -0.4877(8) 0.9025(7) 0.2909(11)
F2 F -0.4669(9) 0.7163(8) 0.3595(8)
F3 F -0.4985(10) 0.7066(10) 0.1766(12)
loop_
_geom_bond_atom_site_label_1
_geom_bond_atom_site_label_2
_geom_bond_site_symmetry_1
_geom_bond_site_symmetry_2
C1 C2 1_555 1_555
C2 H1 1_555 1_555
C3 C1 1_555 1_555
H2 C3 1_555 1_555
C4 C3 1_555 1_555
H3 C4 1_555 1_555
C5 C2 1_555 1_555
H4 C5 1_555 1_555
C6 C4 1_555 1_555
H5 C6 1_555 1_555
C7 C8 1_555 1_555
C8 H6 1_555 1_555
C9 C7 1_555 1_555
H7 C9 1_555 1_555
C10 C9 1_555 1_555
H8 C10 1_555 1_555
C11 C8 1_555 1_555
H9 C11 1_555 1_555
C12 C10 1_555 1_555
H10 C12 1_555 1_555
C13 C14 1_555 1_555
C14 H11 1_555 1_555
C15 C13 1_555 1_555
H12 C15 1_555 1_555
C16 C14 1_555 1_555
H13 C16 1_555 1_555
C17 C15 1_555 1_555
H14 C17 1_555 1_555
C18 C16 1_555 1_555
H15 C18 1_555 1_555
S1 C1 1_555 1_555
C19 S2 1_555 1_555
S2 O1 1_555 1_555
O2 S2 1_555 1_555
O3 S2 1_555 1_555
F1 C19 1_555 1_555
F2 C19 1_555 1_555
F3 C19 1_555 1_555
C5 C6 1_555 1_555
C7 S1 1_555 1_555
C11 C12 1_555 1_555
C13 S1 1_555 1_555
C17 C18 1_555 1_555

#END
