
#######################################################################
#
#                 Cambridge Crystallographic Data Centre
#                                CCDC 
#
#######################################################################
#
# If this CIF has been generated from an entry in the Cambridge 
# Structural Database, then it will include bibliographic, chemical, 
# crystal, experimental, refinement or atomic coordinate data resulting 
# from the CCDC's data processing and validation procedures.
#
#######################################################################

data_LEDDOQ
_chemical_formula_moiety         'C23 H26 O11'
_chemical_name_systematic        
'3,4,5-tris(acetyloxy)-6-[(acetyloxy)methyl]oxan-2-yl 3-phenylprop-2-enoate'
_chemical_properties_biological  'potent acaricidal activity'
_symmetry_cell_setting           orthorhombic
_symmetry_space_group_name_H-M   'P 21 21 21'
_symmetry_Int_Tables_number      19
_space_group_name_Hall           'P 2ac 2ab'
loop_
_symmetry_equiv_pos_site_id
_symmetry_equiv_pos_as_xyz
1 x,y,z
2 1/2-x,-y,1/2+z
3 1/2+x,1/2-y,-z
4 -x,1/2+y,1/2-z
_cell_length_a                   22.006(5)
_cell_length_b                   19.514(3)
_cell_length_c                   5.7126(7)
_cell_angle_alpha                90
_cell_angle_beta                 90
_cell_angle_gamma                90
_cell_volume                     2453.13
_exptl_crystal_colour            colorless
_exptl_crystal_description       block
_cell_formula_units_Z            4
loop_
_atom_site_label
_atom_site_type_symbol
_atom_site_fract_x
_atom_site_fract_y
_atom_site_fract_z
O1 O -0.1241(3) -0.7161(4) -1.0089(10)
O2 O -0.1331(3) -0.6632(3) -1.3545(13)
O3 O -0.2035(4) -0.8296(4) -0.5414(11)
O4 O -0.2059(3) -0.8245(3) -0.9296(9)
O5 O -0.1395(3) -0.9508(3) -0.8489(8)
O6 O -0.1917(4) -1.0210(4) -1.0841(12)
O7 O -0.0548(3) -0.9763(4) -1.2284(10)
O8 O 0.0039(5) -1.0135(5) -0.946(2)
O9 O -0.0570(3) -0.7907(4) -1.1793(11)
O10 O 0.0173(4) -0.8174(5) -1.6114(16)
O11 O 0.0705(5) -0.7488(6) -1.3890(19)
C1 C -0.1197(5) -0.7811(5) -1.1239(15)
H1 H -0.1449 -0.7823 -1.2652
C2 C -0.1408(4) -0.8323(5) -0.9481(14)
H2 H -0.1212 -0.8247 -0.7963
C3 C -0.1281(4) -0.9038(4) -1.0370(13)
H3 H -0.1551 -0.9141 -1.1684
C4 C -0.0619(4) -0.9120(5) -1.1146(14)
H4 H -0.0344 -0.9084 -0.9802
C5 C -0.0487(4) -0.8559(6) -1.2916(18)
H5 H -0.0766 -0.8599 -1.4247
C6 C 0.0171(5) -0.8577(7) -1.378(2)
H6 H 0.0302 -0.9045 -1.4032
H7 H 0.0439 -0.8363 -1.2653
C7 C -0.2324(5) -0.8225(5) -0.7161(16)
C8 C -0.2991(4) -0.8119(5) -0.7289(17)
H8 H -0.3193 -0.8555 -0.7258
H9 H -0.3090 -0.7884 -0.8714
H10 H -0.3121 -0.7850 -0.5975
C9 C -0.1717(5) -1.0092(5) -0.8947(19)
C10 C -0.1749(5) -1.0523(5) -0.6825(15)
H11 H -0.1752 -1.0235 -0.5462
H12 H -0.1403 -1.0821 -0.6771
H13 H -0.2115 -1.0791 -0.6861
C11 C -0.0193(6) -1.0228(7) -1.129(3)
C12 C -0.0176(6) -1.0869(6) -1.271(2)
H14 H -0.0099 -1.0757 -1.4316
H15 H -0.0560 -1.1101 -1.2582
H16 H 0.0141 -1.1162 -1.2136
C13 C 0.0461(6) -0.7623(9) -1.570(4)
C14 C 0.0444(6) -0.7127(7) -1.7756(19)
H17 H 0.0130 -0.7264 -1.8828
H18 H 0.0829 -0.7131 -1.8542
H19 H 0.0360 -0.6673 -1.7195
C15 C -0.1310(4) -0.6597(6) -1.143(2)
C16 C -0.1389(5) -0.5969(6) -1.0052(18)
H20 H -0.1294 -0.5968 -0.8465
C17 C -0.1590(5) -0.5420(6) -1.1025(18)
H21 H -0.1666 -0.5446 -1.2623
C18 C -0.1710(5) -0.4766(6) -0.9930(18)
C19 C -0.1446(5) -0.4568(6) -0.783(2)
H22 H -0.1172 -0.4860 -0.7100
C20 C -0.1583(8) -0.3941(9) -0.681(2)
H23 H -0.1395 -0.3821 -0.5412
C21 C -0.1982(8) -0.3500(8) -0.779(3)
H24 H -0.2072 -0.3086 -0.7070
C22 C -0.2251(5) -0.3675(7) -0.987(3)
H25 H -0.2526 -0.3378 -1.0584
C23 C -0.2112(6) -0.4287(6) -1.089(2)
H26 H -0.2297 -0.4394 -1.2306
loop_
_geom_bond_atom_site_label_1
_geom_bond_atom_site_label_2
_geom_bond_site_symmetry_1
_geom_bond_site_symmetry_2
O1 C1 1_555 1_555
O2 C15 1_555 1_555
O3 C7 1_555 1_555
O4 C2 1_555 1_555
O5 C3 1_555 1_555
O6 C9 1_555 1_555
O7 C4 1_555 1_555
O8 C11 1_555 1_555
O9 C1 1_555 1_555
O10 C6 1_555 1_555
O11 C13 1_555 1_555
C1 H1 1_555 1_555
C2 C1 1_555 1_555
H2 C2 1_555 1_555
C3 C2 1_555 1_555
H3 C3 1_555 1_555
C4 C3 1_555 1_555
H4 C4 1_555 1_555
C5 O9 1_555 1_555
H5 C5 1_555 1_555
C6 C5 1_555 1_555
H6 C6 1_555 1_555
H7 C6 1_555 1_555
C7 O4 1_555 1_555
C8 C7 1_555 1_555
H8 C8 1_555 1_555
H9 C8 1_555 1_555
H10 C8 1_555 1_555
C9 O5 1_555 1_555
C10 C9 1_555 1_555
H11 C10 1_555 1_555
H12 C10 1_555 1_555
H13 C10 1_555 1_555
C11 O7 1_555 1_555
C12 C11 1_555 1_555
H14 C12 1_555 1_555
H15 C12 1_555 1_555
H16 C12 1_555 1_555
C13 O10 1_555 1_555
C14 C13 1_555 1_555
H17 C14 1_555 1_555
H18 C14 1_555 1_555
H19 C14 1_555 1_555
C15 O1 1_555 1_555
C16 C15 1_555 1_555
H20 C16 1_555 1_555
C17 C16 1_555 1_555
H21 C17 1_555 1_555
C18 C17 1_555 1_555
C19 C18 1_555 1_555
H22 C19 1_555 1_555
C20 C19 1_555 1_555
H23 C20 1_555 1_555
C21 C20 1_555 1_555
H24 C21 1_555 1_555
C22 C21 1_555 1_555
H25 C22 1_555 1_555
C23 C18 1_555 1_555
H26 C23 1_555 1_555
C4 C5 1_555 1_555
C22 C23 1_555 1_555

#END
