
#######################################################################
#
#                 Cambridge Crystallographic Data Centre
#                                CCDC 
#
#######################################################################
#
# If this CIF has been generated from an entry in the Cambridge 
# Structural Database, then it will include bibliographic, chemical, 
# crystal, experimental, refinement or atomic coordinate data resulting 
# from the CCDC's data processing and validation procedures.
#
#######################################################################

data_LEDFEI
_chemical_formula_moiety         'C21 H24 O9'
_chemical_name_systematic        
'3,4,5-tris(acetyloxy)oxan-2-yl 3-(4-methylphenyl)prop-2-enoate'
_chemical_properties_biological  'potent acaricidal activity'
_symmetry_cell_setting           monoclinic
_symmetry_space_group_name_H-M   'P 21'
_symmetry_Int_Tables_number      4
_space_group_name_Hall           'P 2yb'
loop_
_symmetry_equiv_pos_site_id
_symmetry_equiv_pos_as_xyz
1 x,y,z
2 -x,1/2+y,-z
_cell_length_a                   5.8262(5)
_cell_length_b                   7.4757(7)
_cell_length_c                   25.686(2)
_cell_angle_alpha                90
_cell_angle_beta                 92.975(8)
_cell_angle_gamma                90
_cell_volume                     1117.24
_exptl_crystal_colour            colorless
_exptl_crystal_description       block
_cell_formula_units_Z            2
loop_
_atom_site_label
_atom_site_type_symbol
_atom_site_fract_x
_atom_site_fract_y
_atom_site_fract_z
O1 O -0.7616(10) -0.1184(7) -0.26999(19)
O2 O -0.9571(9) -0.2523(7) -0.20619(19)
O3 O -0.6652(11) -0.1607(9) -0.1525(2)
O4 O -0.9472(9) -0.5817(6) -0.26003(17)
O5 O -1.3252(10) -0.5435(9) -0.2551(2)
O6 O -0.9257(9) -0.5292(8) -0.3690(2)
O7 O -0.6734(14) -0.7523(10) -0.3770(3)
O8 O -0.5301(10) -0.2874(8) -0.3892(2)
O9 O -0.7514(14) -0.1845(13) -0.4548(2)
C1 C -0.8033(14) -0.2846(10) -0.2462(3)
H1 H -0.659587 -0.336943 -0.231706
C2 C -0.9206(13) -0.4091(10) -0.2839(3)
H2 H -1.071877 -0.361047 -0.294915
C3 C -0.7791(14) -0.4383(10) -0.3314(3)
H3 H -0.642760 -0.510677 -0.322186
C4 C -0.7096(15) -0.2583(13) -0.3530(3)
H4 H -0.842216 -0.199174 -0.370602
C5 C -0.6028(15) -0.1387(13) -0.3105(3)
H5 H -0.460949 -0.191596 -0.296273
H6 H -0.567346 -0.022620 -0.324862
C6 C -0.8681(16) -0.1934(11) -0.1597(3)
C7 C -1.0441(14) -0.1881(10) -0.1213(3)
H7 H -1.194217 -0.220561 -0.131114
C8 C -0.9931(13) -0.1381(9) -0.0730(3)
H8 H -0.847676 -0.088927 -0.066747
C9 C -1.1351(12) -0.1498(8) -0.0279(3)
C10 C -1.3564(12) -0.2310(9) -0.0312(3)
H9 H -1.420958 -0.269177 -0.063150
C11 C -1.4728(13) -0.2522(10) 0.0134(3)
H10 H -1.616977 -0.305875 0.010928
C12 C -1.3864(13) -0.1980(10) 0.0614(3)
C13 C -1.1714(14) -0.1184(11) 0.0642(3)
H11 H -1.108705 -0.079322 0.096210
C14 C -1.0494(12) -0.0965(9) 0.0202(3)
H12 H -0.904556 -0.044031 0.023207
C15 C -1.5140(15) -0.2240(13) 0.1108(3)
H13 H -1.561046 -0.109750 0.123565
H14 H -1.414791 -0.281469 0.136674
H15 H -1.647085 -0.297213 0.103359
C16 C -1.1588(16) -0.6350(12) -0.2485(3)
C17 C -1.1589(19) -0.8162(12) -0.2253(4)
H16 H -1.130501 -0.903198 -0.251712
H17 H -1.305539 -0.839109 -0.211288
H18 H -1.040626 -0.823792 -0.197964
C18 C -0.8614(19) -0.6890(15) -0.3869(3)
C19 C -1.0461(17) -0.7749(14) -0.4196(3)
H19 H -1.182608 -0.783015 -0.400340
H20 H -0.998365 -0.892792 -0.429193
H21 H -1.077261 -0.704852 -0.450460
C20 C -0.5753(17) -0.2455(14) -0.4391(3)
C21 C -0.3667(16) -0.2774(16) -0.4703(3)
H22 H -0.264147 -0.177265 -0.466302
H23 H -0.413668 -0.291379 -0.506464
H24 H -0.289432 -0.383953 -0.458023
loop_
_geom_bond_atom_site_label_1
_geom_bond_atom_site_label_2
_geom_bond_site_symmetry_1
_geom_bond_site_symmetry_2
O1 C1 1_555 1_555
O2 C1 1_555 1_555
O3 C6 1_555 1_555
O4 C2 1_555 1_555
O5 C16 1_555 1_555
O6 C3 1_555 1_555
O7 C18 1_555 1_555
O8 C4 1_555 1_555
O9 C20 1_555 1_555
C1 H1 1_555 1_555
C2 C1 1_555 1_555
H2 C2 1_555 1_555
C3 C2 1_555 1_555
H3 C3 1_555 1_555
C4 C3 1_555 1_555
H4 C4 1_555 1_555
C5 O1 1_555 1_555
H5 C5 1_555 1_555
H6 C5 1_555 1_555
C6 O2 1_555 1_555
C7 C6 1_555 1_555
H7 C7 1_555 1_555
C8 C7 1_555 1_555
H8 C8 1_555 1_555
C9 C8 1_555 1_555
C10 C9 1_555 1_555
H9 C10 1_555 1_555
C11 C10 1_555 1_555
H10 C11 1_555 1_555
C12 C11 1_555 1_555
C13 C12 1_555 1_555
H11 C13 1_555 1_555
C14 C9 1_555 1_555
H12 C14 1_555 1_555
C15 C12 1_555 1_555
H13 C15 1_555 1_555
H14 C15 1_555 1_555
H15 C15 1_555 1_555
C16 O4 1_555 1_555
C17 C16 1_555 1_555
H16 C17 1_555 1_555
H17 C17 1_555 1_555
H18 C17 1_555 1_555
C18 O6 1_555 1_555
C19 C18 1_555 1_555
H19 C19 1_555 1_555
H20 C19 1_555 1_555
H21 C19 1_555 1_555
C20 O8 1_555 1_555
C21 C20 1_555 1_555
H22 C21 1_555 1_555
H23 C21 1_555 1_555
H24 C21 1_555 1_555
C4 C5 1_555 1_555
C13 C14 1_555 1_555

#END
