
#######################################################################
#
#                 Cambridge Crystallographic Data Centre
#                                CCDC 
#
#######################################################################
#
# If this CIF has been generated from an entry in the Cambridge 
# Structural Database, then it will include bibliographic, chemical, 
# crystal, experimental, refinement or atomic coordinate data resulting 
# from the CCDC's data processing and validation procedures.
#
#######################################################################

data_LEDWIC
_chemical_formula_moiety         'C11 H8 F2 N2 O2,0.5(H2 O1)'
_chemical_name_systematic        
'N-(2,4-Difluorophenyl)-5-methyl-1,2-oxazole-4-carboxamide hemihydrate'
_symmetry_cell_setting           monoclinic
_symmetry_space_group_name_H-M   'C 2/c'
_symmetry_Int_Tables_number      15
_space_group_name_Hall           '-C 2yn'
loop_
_symmetry_equiv_pos_site_id
_symmetry_equiv_pos_as_xyz
1 x,y,z
2 -x,y,1/2-z
3 1/2+x,1/2+y,z
4 1/2-x,1/2+y,1/2-z
5 -x,-y,-z
6 x,-y,1/2+z
7 1/2-x,1/2-y,-z
8 1/2+x,1/2-y,1/2+z
_cell_length_a                   15.182(3)
_cell_length_b                   13.803(3)
_cell_length_c                   12.159(2)
_cell_angle_alpha                90
_cell_angle_beta                 120.06(3)
_cell_angle_gamma                90
_cell_volume                     2205.3
_exptl_crystal_colour            white
_exptl_crystal_description       block
_cell_formula_units_Z            8
loop_
_atom_site_label
_atom_site_type_symbol
_atom_site_fract_x
_atom_site_fract_y
_atom_site_fract_z
O1 O 0.5000 0.52321(17) 0.2500
H1 H 0.505(2) 0.564(2) 0.193(3)
H1A H 0.495(2) 0.564(2) 0.307(3)
N1 N 0.65863(15) 0.36286(13) 0.32726(18)
H2 H 0.6314(18) 0.4180(19) 0.332(2)
O2 O 0.66094(13) 0.20060(11) 0.36060(16)
F1 F 0.88573(17) 0.40738(15) 0.0910(2)
C1 C 0.75004(19) 0.28877(17) 0.2259(2)
H3 H 0.7336 0.2263 0.2381
F2 F 0.71615(12) 0.53616(10) 0.28913(16)
O3 O 0.49066(13) 0.27282(12) 0.53567(16)
N2 N 0.51344(18) 0.37236(15) 0.5487(2)
C2 C 0.8072(2) 0.3024(2) 0.1673(3)
H4 H 0.8293 0.2495 0.1403
C3 C 0.8304(2) 0.3937(2) 0.1496(3)
C4 C 0.80009(19) 0.47406(19) 0.1878(2)
H5 H 0.8162 0.5362 0.1742
C5 C 0.74512(18) 0.45851(16) 0.2468(2)
C6 C 0.71701(16) 0.36750(15) 0.2668(2)
C7 C 0.63608(16) 0.28191(15) 0.37245(19)
C8 C 0.57905(16) 0.30012(15) 0.43950(19)
C9 C 0.56469(19) 0.38588(17) 0.4907(2)
H6 H 0.5893 0.4460 0.4838
C10 C 0.53140(17) 0.23129(16) 0.4714(2)
C11 C 0.5167(2) 0.12579(18) 0.4509(3)
H7 H 0.5423 0.1049 0.3970
H8 H 0.4454 0.1109 0.4112
H9 H 0.5526 0.0929 0.5311
H10? H 0.4739 0.1028 0.4827
H11? H 0.5815 0.0938 0.4950
H12? H 0.4850 0.1121 0.3617
loop_
_geom_bond_atom_site_label_1
_geom_bond_atom_site_label_2
_geom_bond_site_symmetry_1
_geom_bond_site_symmetry_2
O1 H1 1_555 1_555
N1 H2 1_555 1_555
O2 C7 1_555 1_555
F1 C3 1_555 1_555
C1 H3 1_555 1_555
F2 C5 1_555 1_555
O3 N2 1_555 1_555
N2 C9 1_555 1_555
C2 C1 1_555 1_555
H4 C2 1_555 1_555
C3 C2 1_555 1_555
C4 C3 1_555 1_555
H5 C4 1_555 1_555
C5 C4 1_555 1_555
C6 N1 1_555 1_555
C7 N1 1_555 1_555
C8 C7 1_555 1_555
C9 C8 1_555 1_555
H6 C9 1_555 1_555
C10 O3 1_555 1_555
C11 C10 1_555 1_555
H7 C11 1_555 1_555
H8 C11 1_555 1_555
H9 C11 1_555 1_555
H1A O1 1_555 1_555
C1 C6 1_555 1_555
C5 C6 1_555 1_555
C8 C10 1_555 1_555

#END
