
#######################################################################
#
#                 Cambridge Crystallographic Data Centre
#                                CCDC 
#
#######################################################################
#
# If this CIF has been generated from an entry in the Cambridge 
# Structural Database, then it will include bibliographic, chemical, 
# crystal, experimental, refinement or atomic coordinate data resulting 
# from the CCDC's data processing and validation procedures.
#
#######################################################################

data_LEDXUQ
_chemical_formula_moiety         'C30 H56 B11 N3,C4 H8 O1'
_chemical_name_systematic        
'1,2-((1,3-di-isopropyl-4,5-dimethylimidazol-2-ylidene)((1-(2,6-di-isopropylphenylimino)-2,2-dimethylpropyl)borylene))-1,2-dicarba-closo-dodecaborane tetrahydrofuran solvate'
_symmetry_cell_setting           triclinic
_symmetry_space_group_name_H-M   'P -1'
_symmetry_Int_Tables_number      2
_space_group_name_Hall           '-P 1'
loop_
_symmetry_equiv_pos_site_id
_symmetry_equiv_pos_as_xyz
1 x,y,z
2 -x,-y,-z
_cell_length_a                   10.8631(3)
_cell_length_b                   13.7881(3)
_cell_length_c                   14.3991(4)
_cell_angle_alpha                87.4300(10)
_cell_angle_beta                 72.3460(10)
_cell_angle_gamma                75.0970(10)
_cell_volume                     1984.73
_exptl_crystal_colour            colorless
_exptl_crystal_description       block
_cell_formula_units_Z            2
loop_
_atom_site_label
_atom_site_type_symbol
_atom_site_fract_x
_atom_site_fract_y
_atom_site_fract_z
N1 N 0.56266(17) 0.86346(12) 0.24243(12)
N2 N 0.74522(17) 0.74337(12) 0.04652(12)
N3 N 0.89136(17) 0.67982(13) 0.12094(12)
C1 C 0.6358(2) 0.57367(15) 0.26672(14)
C2 C 0.5304(2) 0.63201(15) 0.21534(14)
C3 C 0.6001(2) 0.79133(15) 0.29507(14)
C4 C 0.6106(2) 0.80352(16) 0.39961(15)
C5 C 0.6708(2) 0.70356(17) 0.43969(16)
H1 H 0.6143 0.6575 0.4436
H2 H 0.7608 0.6739 0.3962
H3 H 0.6759 0.7155 0.5049
C6 C 0.4748(2) 0.85258(18) 0.47314(16)
H4 H 0.4349 0.9166 0.4486
H5 H 0.4154 0.8079 0.4820
H6 H 0.4874 0.8646 0.5358
C7 C 0.7034(3) 0.87194(18) 0.39536(18)
H7 H 0.6684 0.9369 0.3700
H8 H 0.7081 0.8821 0.4610
H9 H 0.7930 0.8405 0.3523
C8 C 0.5097(2) 0.96827(15) 0.26355(15)
C9 C 0.3694(2) 1.00556(16) 0.29761(15)
C10 C 0.3159(3) 1.10933(16) 0.30746(16)
H10 H 0.2217 1.1354 0.3316
C11 C 0.3964(3) 1.17469(16) 0.28289(17)
H11 H 0.3583 1.2451 0.2918
C12 C 0.5324(3) 1.13750(17) 0.24536(16)
H12 H 0.5870 1.1833 0.2268
C13 C 0.5927(2) 1.03480(16) 0.23366(16)
C14 C 0.7428(2) 0.99865(18) 0.18683(18)
H13 H 0.7695 0.9244 0.1943
C15 C 0.8227(3) 1.0467(2) 0.2343(2)
H14 H 0.9185 1.0207 0.2013
H15 H 0.7975 1.1198 0.2287
H16 H 0.8033 1.0304 0.3034
C16 C 0.7809(3) 1.0186(2) 0.07774(19)
H17 H 0.8780 0.9948 0.0490
H18 H 0.7365 0.9830 0.0459
H19 H 0.7527 1.0909 0.0684
C17 C 0.2786(2) 0.93452(17) 0.31729(18)
H20 H 0.3289 0.8691 0.3361
C18 C 0.1508(3) 0.9713(2) 0.4008(3)
H21 H 0.0966 0.9227 0.4100
H22 H 0.1732 0.9784 0.4607
H23 H 0.1002 1.0365 0.3855
C19 C 0.2478(3) 0.9146(2) 0.2245(2)
H24 H 0.3316 0.8911 0.1718
H25 H 0.1975 0.8633 0.2361
H26 H 0.1944 0.9768 0.2059
C20 C 0.7601(2) 0.69962(14) 0.12969(14)
C21 C 0.6177(2) 0.76554(16) 0.02168(16)
H27 H 0.5485 0.7506 0.0804
C22 C 0.6301(3) 0.69469(18) -0.06083(17)
H28 H 0.5456 0.7100 -0.0765
H29 H 0.7019 0.7034 -0.1186
H30 H 0.6506 0.6251 -0.0404
C23 C 0.5685(3) 0.87539(17) 0.00023(18)
H31 H 0.4845 0.8854 -0.0156
H32 H 0.5535 0.9175 0.0576
H33 H 0.6357 0.8940 -0.0552
C24 C 0.8687(2) 0.75160(16) -0.01485(15)
C25 C 0.8931(3) 0.7973(2) -0.11292(17)
H34 H 0.8086 0.8197 -0.1285
H35 H 0.9300 0.8550 -0.1121
H36 H 0.9565 0.7473 -0.1624
C26 C 0.9600(2) 0.71235(16) 0.03161(15)
C27 C 1.1057(2) 0.7073(2) -0.00142(19)
H37 H 1.1465 0.6745 0.0477
H38 H 1.1483 0.6686 -0.0634
H39 H 1.1181 0.7754 -0.0103
C28 C 0.9515(2) 0.61643(19) 0.19007(17)
H40 H 0.8759 0.6077 0.2473
C29 C 1.0259(3) 0.5118(2) 0.1435(2)
H41 H 1.0654 0.4703 0.1894
H42 H 0.9632 0.4805 0.1273
H43 H 1.0968 0.5176 0.0839
C30 C 1.0365(3) 0.6658(3) 0.2287(2)
H44 H 1.0737 0.6212 0.2738
H45 H 1.1095 0.6789 0.1742
H46 H 0.9813 0.7293 0.2630
B1 B 0.6489(2) 0.52757(17) 0.15306(17)
H47 H 0.7317 0.5289 0.0844
B2 B 0.6771(3) 0.44520(18) 0.24466(18)
H48 H 0.7779 0.3938 0.2381
B3 B 0.5693(3) 0.50079(18) 0.35950(18)
H49 H 0.6005 0.4852 0.4272
B4 B 0.4721(2) 0.61868(18) 0.33989(17)
H50 H 0.4361 0.6810 0.3966
B5 B 0.4831(3) 0.55249(19) 0.15047(18)
H51 H 0.4553 0.5720 0.0819
B6 B 0.5738(3) 0.42879(18) 0.17230(19)
H52 H 0.6046 0.3645 0.1182
B7 B 0.5247(3) 0.41070(19) 0.29999(19)
H53 H 0.5245 0.3342 0.3296
B8 B 0.3989(3) 0.51933(19) 0.35806(19)
H54 H 0.3156 0.5141 0.4252
B9 B 0.3759(3) 0.60874(19) 0.26556(18)
H55 H 0.2789 0.6650 0.2709
B10 B 0.4039(3) 0.4776(2) 0.24196(19)
H56 H 0.3230 0.4457 0.2331
B11 B 0.6439(2) 0.68800(16) 0.22753(16)
C31 C -0.0134(6) 0.6079(4) 0.6107(3)
H57 H -0.1019 0.5931 0.6352
H58 H 0.0554 0.5463 0.6148
C32 C 0.0098(4) 0.6361(4) 0.5111(3)
H59 H -0.0742 0.6515 0.4933
H60 H 0.0762 0.5813 0.4668
C33 C 0.0605(5) 0.7252(3) 0.5048(3)
H61 H -0.0063 0.7861 0.4961
H62 H 0.1441 0.7180 0.4502
C34 C 0.0864(5) 0.7299(3) 0.6050(5)
H63 H 0.1788 0.6930 0.6017
H64 H 0.0697 0.8001 0.6278
O1 O -0.0093(4) 0.6815(3) 0.6663(2)
loop_
_geom_bond_atom_site_label_1
_geom_bond_atom_site_label_2
_geom_bond_site_symmetry_1
_geom_bond_site_symmetry_2
N1 C3 1_555 1_555
N2 C20 1_555 1_555
N3 C20 1_555 1_555
C1 C2 1_555 1_555
C2 B1 1_555 1_555
C3 C4 1_555 1_555
C4 C5 1_555 1_555
C5 H1 1_555 1_555
H2 C5 1_555 1_555
H3 C5 1_555 1_555
C6 C4 1_555 1_555
H4 C6 1_555 1_555
H5 C6 1_555 1_555
H6 C6 1_555 1_555
C7 C4 1_555 1_555
H7 C7 1_555 1_555
H8 C7 1_555 1_555
H9 C7 1_555 1_555
C8 N1 1_555 1_555
C9 C8 1_555 1_555
C10 C9 1_555 1_555
H10 C10 1_555 1_555
C11 C10 1_555 1_555
H11 C11 1_555 1_555
C12 C11 1_555 1_555
H12 C12 1_555 1_555
C13 C8 1_555 1_555
C14 C13 1_555 1_555
H13 C14 1_555 1_555
C15 C14 1_555 1_555
H14 C15 1_555 1_555
H15 C15 1_555 1_555
H16 C15 1_555 1_555
C16 C14 1_555 1_555
H17 C16 1_555 1_555
H18 C16 1_555 1_555
H19 C16 1_555 1_555
C17 C9 1_555 1_555
H20 C17 1_555 1_555
C18 C17 1_555 1_555
H21 C18 1_555 1_555
H22 C18 1_555 1_555
H23 C18 1_555 1_555
C19 C17 1_555 1_555
H24 C19 1_555 1_555
H25 C19 1_555 1_555
H26 C19 1_555 1_555
C20 B11 1_555 1_555
C21 N2 1_555 1_555
H27 C21 1_555 1_555
C22 C21 1_555 1_555
H28 C22 1_555 1_555
H29 C22 1_555 1_555
H30 C22 1_555 1_555
C23 C21 1_555 1_555
H31 C23 1_555 1_555
H32 C23 1_555 1_555
H33 C23 1_555 1_555
C24 N2 1_555 1_555
C25 C24 1_555 1_555
H34 C25 1_555 1_555
H35 C25 1_555 1_555
H36 C25 1_555 1_555
C26 N3 1_555 1_555
C27 C26 1_555 1_555
H37 C27 1_555 1_555
H38 C27 1_555 1_555
H39 C27 1_555 1_555
C28 N3 1_555 1_555
H40 C28 1_555 1_555
C29 C28 1_555 1_555
H41 C29 1_555 1_555
H42 C29 1_555 1_555
H43 C29 1_555 1_555
C30 C28 1_555 1_555
H44 C30 1_555 1_555
H45 C30 1_555 1_555
H46 C30 1_555 1_555
B1 C1 1_555 1_555
H47 B1 1_555 1_555
B2 C1 1_555 1_555
H48 B2 1_555 1_555
B3 C1 1_555 1_555
H49 B3 1_555 1_555
B4 C1 1_555 1_555
H50 B4 1_555 1_555
B5 C2 1_555 1_555
H51 B5 1_555 1_555
B6 B1 1_555 1_555
H52 B6 1_555 1_555
B7 B2 1_555 1_555
H53 B7 1_555 1_555
B8 B3 1_555 1_555
H54 B8 1_555 1_555
B9 C2 1_555 1_555
H55 B9 1_555 1_555
B10 B5 1_555 1_555
H56 B10 1_555 1_555
B11 C1 1_555 1_555
C31 H57 1_555 1_555
H58 C31 1_555 1_555
C32 C31 1_555 1_555
H59 C32 1_555 1_555
H60 C32 1_555 1_555
C33 C32 1_555 1_555
H61 C33 1_555 1_555
H62 C33 1_555 1_555
C34 C33 1_555 1_555
H63 C34 1_555 1_555
H64 C34 1_555 1_555
O1 C31 1_555 1_555
C2 B4 1_555 1_555
C2 B11 1_555 1_555
C3 B11 1_555 1_555
C12 C13 1_555 1_555
C24 C26 1_555 1_555
B1 B2 1_555 1_555
B1 B5 1_555 1_555
B2 B3 1_555 1_555
B2 B6 1_555 1_555
B3 B4 1_555 1_555
B3 B7 1_555 1_555
B4 B8 1_555 1_555
B4 B9 1_555 1_555
B5 B6 1_555 1_555
B5 B9 1_555 1_555
B6 B7 1_555 1_555
B6 B10 1_555 1_555
B7 B8 1_555 1_555
B7 B10 1_555 1_555
B8 B9 1_555 1_555
B8 B10 1_555 1_555
B9 B10 1_555 1_555
C34 O1 1_555 1_555

#END
