
#######################################################################
#
#                 Cambridge Crystallographic Data Centre
#                                CCDC 
#
#######################################################################
#
# If this CIF has been generated from an entry in the Cambridge 
# Structural Database, then it will include bibliographic, chemical, 
# crystal, experimental, refinement or atomic coordinate data resulting 
# from the CCDC's data processing and validation procedures.
#
#######################################################################

data_LEDYIF
_chemical_formula_moiety         'C30 H56 B11 N3 S1'
_chemical_name_systematic        
1-((1-(2,6-di-isopropylphenylimino)-2,2-dimethylpropyl)(1,3-di-isopropyl-4,5-dimethylimidazol-2-ylidene)boryl)-2-thiolato-1,2-dicarba-closo-dodecaborane
_symmetry_cell_setting           monoclinic
_symmetry_space_group_name_H-M   'P 21/n'
_symmetry_Int_Tables_number      14
_space_group_name_Hall           '-P 2yn'
loop_
_symmetry_equiv_pos_site_id
_symmetry_equiv_pos_as_xyz
1 x,y,z
2 1/2-x,1/2+y,1/2-z
3 -x,-y,-z
4 1/2+x,1/2-y,1/2+z
_cell_length_a                   11.7088(3)
_cell_length_b                   17.5714(4)
_cell_length_c                   18.7484(4)
_cell_angle_alpha                90
_cell_angle_beta                 107.5768(12)
_cell_angle_gamma                90
_cell_volume                     3677.21
_exptl_crystal_colour            colorless
_exptl_crystal_description       block
_cell_formula_units_Z            4
loop_
_atom_site_label
_atom_site_type_symbol
_atom_site_fract_x
_atom_site_fract_y
_atom_site_fract_z
S1 S 0.35886(11) 0.48948(6) 0.12779(6)
N1 N 0.2158(2) 0.60176(17) 0.24860(16)
N2 N 0.5829(3) 0.57211(18) 0.34608(16)
N3 N 0.6169(3) 0.47365(18) 0.28673(17)
C1 C 0.3919(4) 0.5845(2) 0.0972(2)
C2 C 0.4195(3) 0.6237(2) 0.17961(18)
C3 C 0.2788(3) 0.5414(2) 0.25585(18)
C4 C 0.2426(4) 0.4629(2) 0.2833(2)
C5 C 0.3451(5) 0.4064(3) 0.3021(3)
H1 H 0.4123 0.4277 0.3397
H2 H 0.3203 0.3603 0.3206
H3 H 0.3675 0.3955 0.2580
C6 C 0.1370(5) 0.4280(3) 0.2235(3)
H4 H 0.0713 0.4633 0.2110
H5 H 0.1602 0.4171 0.1797
H6 H 0.1130 0.3818 0.2423
C7 C 0.2060(5) 0.4729(3) 0.3552(3)
H7 H 0.1409 0.5084 0.3460
H8 H 0.1814 0.4247 0.3697
H9 H 0.2731 0.4918 0.3945
C8 C 0.1009(3) 0.6121(2) 0.2594(2)
C9 C -0.0057(3) 0.5997(2) 0.2006(2)
C10 C -0.1145(4) 0.6139(3) 0.2145(3)
H10 H -0.1855 0.6038 0.1770
C11 C -0.1202(4) 0.6419(3) 0.2809(3)
H11 H -0.1941 0.6490 0.2889
C12 C -0.0170(4) 0.6595(3) 0.3359(3)
H12 H -0.0214 0.6807 0.3804
C13 C 0.0950(4) 0.6461(2) 0.3263(2)
C14 C 0.2069(4) 0.6716(3) 0.3864(2)
H13 H 0.2743 0.6428 0.3793
C15 C 0.2308(6) 0.7553(4) 0.3762(4)
H14 H 0.3018 0.7709 0.4145
H15 H 0.2417 0.7629 0.3280
H16 H 0.1639 0.7851 0.3797
C16 C 0.2038(6) 0.6563(4) 0.4660(3)
H17 H 0.2771 0.6738 0.5011
H18 H 0.1373 0.6828 0.4743
H19 H 0.1952 0.6026 0.4726
C17 C -0.0078(4) 0.5792(3) 0.1221(3)
H20 H 0.0710 0.5586 0.1244
C18 C -0.1031(5) 0.5191(4) 0.0839(4)
H21 H -0.0990 0.5091 0.0344
H22 H -0.0882 0.4729 0.1126
H23 H -0.1814 0.5380 0.0809
C19 C -0.0281(5) 0.6516(4) 0.0738(3)
H24 H -0.0295 0.6387 0.0238
H25 H -0.1032 0.6743 0.0728
H26 H 0.0357 0.6870 0.0947
C20 C 0.5313(3) 0.5254(2) 0.28730(19)
C21 C 0.5159(4) 0.6290(2) 0.3767(2)
H27 H 0.4347 0.6319 0.3417
C22 C 0.5675(5) 0.7094(3) 0.3851(3)
H28 H 0.5190 0.7421 0.4051
H29 H 0.6478 0.7085 0.4184
H30 H 0.5680 0.7280 0.3371
C23 C 0.5046(4) 0.5989(3) 0.4502(3)
H31 H 0.4615 0.6350 0.4707
H32 H 0.4622 0.5514 0.4417
H33 H 0.5831 0.5913 0.4848
C24 C 0.7002(3) 0.5501(2) 0.3810(2)
C25 C 0.7870(4) 0.5886(3) 0.4462(2)
H34 H 0.7483 0.6308 0.4620
H35 H 0.8143 0.5531 0.4867
H36 H 0.8542 0.6068 0.4318
C26 C 0.7211(3) 0.4893(2) 0.3437(2)
C27 C 0.8380(4) 0.4475(3) 0.3572(3)
H37 H 0.8276 0.4061 0.3224
H38 H 0.8977 0.4818 0.3503
H39 H 0.8632 0.4280 0.4073
C28 C 0.5979(4) 0.4032(3) 0.2402(3)
H40 H 0.5143 0.4041 0.2085
C29 C 0.6119(6) 0.3325(3) 0.2894(4)
H41 H 0.5994 0.2878 0.2586
H42 H 0.6911 0.3314 0.3242
H43 H 0.5540 0.3338 0.3163
C30 C 0.6750(6) 0.4008(4) 0.1874(3)
H44 H 0.6595 0.3546 0.1589
H45 H 0.6559 0.4436 0.1541
H46 H 0.7582 0.4029 0.2161
B1 B 0.5379(4) 0.6090(3) 0.1434(3)
H47 H 0.6118 0.5691 0.1676
B2 B 0.4754(5) 0.6196(4) 0.0447(3)
H48 H 0.5075 0.5864 0.0048
B3 B 0.3222(5) 0.6438(4) 0.0264(3)
H49 H 0.2552 0.6261 -0.0260
B4 B 0.2881(4) 0.6470(3) 0.1107(2)
H50 H 0.1980 0.6317 0.1127
B5 B 0.5271(4) 0.6933(3) 0.1882(3)
H51 H 0.5933 0.7088 0.2416
B6 B 0.5611(5) 0.6931(3) 0.1018(3)
H52 H 0.6500 0.7092 0.0983
B7 B 0.4276(5) 0.7150(3) 0.0288(3)
H53 H 0.4290 0.7449 -0.0225
B8 B 0.3134(4) 0.7321(3) 0.0722(3)
H54 H 0.2414 0.7738 0.0499
B9 B 0.3748(4) 0.7173(3) 0.1705(3)
H55 H 0.3435 0.7477 0.2125
B10 B 0.4613(5) 0.7614(3) 0.1172(3)
H56 H 0.4854 0.8221 0.1233
B11 B 0.3993(3) 0.5452(2) 0.2266(2)
loop_
_geom_bond_atom_site_label_1
_geom_bond_atom_site_label_2
_geom_bond_site_symmetry_1
_geom_bond_site_symmetry_2
S1 C1 1_555 1_555
N1 C3 1_555 1_555
N2 C20 1_555 1_555
N3 C20 1_555 1_555
C1 C2 1_555 1_555
C2 B1 1_555 1_555
C3 C4 1_555 1_555
C4 C5 1_555 1_555
C5 H1 1_555 1_555
H2 C5 1_555 1_555
H3 C5 1_555 1_555
C6 C4 1_555 1_555
H4 C6 1_555 1_555
H5 C6 1_555 1_555
H6 C6 1_555 1_555
C7 C4 1_555 1_555
H7 C7 1_555 1_555
H8 C7 1_555 1_555
H9 C7 1_555 1_555
C8 N1 1_555 1_555
C9 C8 1_555 1_555
C10 C9 1_555 1_555
H10 C10 1_555 1_555
C11 C10 1_555 1_555
H11 C11 1_555 1_555
C12 C11 1_555 1_555
H12 C12 1_555 1_555
C13 C8 1_555 1_555
C14 C13 1_555 1_555
H13 C14 1_555 1_555
C15 C14 1_555 1_555
H14 C15 1_555 1_555
H15 C15 1_555 1_555
H16 C15 1_555 1_555
C16 C14 1_555 1_555
H17 C16 1_555 1_555
H18 C16 1_555 1_555
H19 C16 1_555 1_555
C17 C9 1_555 1_555
H20 C17 1_555 1_555
C18 C17 1_555 1_555
H21 C18 1_555 1_555
H22 C18 1_555 1_555
H23 C18 1_555 1_555
C19 C17 1_555 1_555
H24 C19 1_555 1_555
H25 C19 1_555 1_555
H26 C19 1_555 1_555
C20 B11 1_555 1_555
C21 N2 1_555 1_555
H27 C21 1_555 1_555
C22 C21 1_555 1_555
H28 C22 1_555 1_555
H29 C22 1_555 1_555
H30 C22 1_555 1_555
C23 C21 1_555 1_555
H31 C23 1_555 1_555
H32 C23 1_555 1_555
H33 C23 1_555 1_555
C24 N2 1_555 1_555
C25 C24 1_555 1_555
H34 C25 1_555 1_555
H35 C25 1_555 1_555
H36 C25 1_555 1_555
C26 N3 1_555 1_555
C27 C26 1_555 1_555
H37 C27 1_555 1_555
H38 C27 1_555 1_555
H39 C27 1_555 1_555
C28 N3 1_555 1_555
H40 C28 1_555 1_555
C29 C28 1_555 1_555
H41 C29 1_555 1_555
H42 C29 1_555 1_555
H43 C29 1_555 1_555
C30 C28 1_555 1_555
H44 C30 1_555 1_555
H45 C30 1_555 1_555
H46 C30 1_555 1_555
B1 C1 1_555 1_555
H47 B1 1_555 1_555
B2 C1 1_555 1_555
H48 B2 1_555 1_555
B3 C1 1_555 1_555
H49 B3 1_555 1_555
B4 C1 1_555 1_555
H50 B4 1_555 1_555
B5 C2 1_555 1_555
H51 B5 1_555 1_555
B6 B1 1_555 1_555
H52 B6 1_555 1_555
B7 B2 1_555 1_555
H53 B7 1_555 1_555
B8 B3 1_555 1_555
H54 B8 1_555 1_555
B9 C2 1_555 1_555
H55 B9 1_555 1_555
B10 B5 1_555 1_555
H56 B10 1_555 1_555
B11 S1 1_555 1_555
C2 B4 1_555 1_555
C2 B11 1_555 1_555
C3 B11 1_555 1_555
C12 C13 1_555 1_555
C24 C26 1_555 1_555
B1 B2 1_555 1_555
B1 B5 1_555 1_555
B2 B3 1_555 1_555
B2 B6 1_555 1_555
B3 B4 1_555 1_555
B3 B7 1_555 1_555
B4 B8 1_555 1_555
B4 B9 1_555 1_555
B5 B6 1_555 1_555
B5 B9 1_555 1_555
B6 B7 1_555 1_555
B6 B10 1_555 1_555
B7 B8 1_555 1_555
B7 B10 1_555 1_555
B8 B9 1_555 1_555
B8 B10 1_555 1_555
B9 B10 1_555 1_555

#END
