
#######################################################################
#
#                 Cambridge Crystallographic Data Centre
#                                CCDC 
#
#######################################################################
#
# If this CIF has been generated from an entry in the Cambridge 
# Structural Database, then it will include bibliographic, chemical, 
# crystal, experimental, refinement or atomic coordinate data resulting 
# from the CCDC's data processing and validation procedures.
#
#######################################################################

data_LEFCEF
_chemical_formula_moiety         'C18 H12 O3'
_chemical_name_systematic        
5aH-chromeno[2,3-b][1]benzoxepine-12-carbaldehyde
_chemical_properties_biological  
'Does not inhibit the growth of human tumour cells'
_symmetry_cell_setting           orthorhombic
_symmetry_space_group_name_H-M   'P b c a'
_symmetry_Int_Tables_number      61
_space_group_name_Hall           '-P 2ac 2ab'
loop_
_symmetry_equiv_pos_site_id
_symmetry_equiv_pos_as_xyz
1 x,y,z
2 1/2-x,-y,1/2+z
3 -x,1/2+y,1/2-z
4 1/2+x,1/2-y,-z
5 -x,-y,-z
6 1/2+x,y,1/2-z
7 x,1/2-y,1/2+z
8 1/2-x,1/2+y,z
_cell_length_a                   11.892(2)
_cell_length_b                   11.025(2)
_cell_length_c                   20.272(4)
_cell_angle_alpha                90
_cell_angle_beta                 90
_cell_angle_gamma                90
_cell_volume                     2657.85
_exptl_crystal_colour            colorless
_exptl_crystal_description       block
_cell_formula_units_Z            8
_exptl_crystal_recrystallization_method acetone/hexane
loop_
_atom_site_label
_atom_site_type_symbol
_atom_site_fract_x
_atom_site_fract_y
_atom_site_fract_z
O1 O 0.52903(11) 0.23757(12) 0.54161(7)
C1 C 0.45330(18) 0.20636(18) 0.59491(10)
H1 H 0.3849(16) 0.2560(16) 0.5892(9)
O2 O 0.50226(12) 0.25129(12) 0.65287(7)
C2 C 0.56480(16) 0.1755(2) 0.69248(10)
C3 C 0.55441(16) 0.05025(19) 0.68757(9)
C4 C 0.47954(16) 0.00121(19) 0.63835(9)
H2 H 0.4651 -0.0817 0.6377
C5 C 0.43071(15) 0.07306(18) 0.59373(9)
C6 C 0.35767(16) 0.03470(18) 0.54028(9)
C7 C 0.33707(17) 0.09924(19) 0.48479(10)
H3 H 0.2828 0.0643 0.4577
C8 C 0.38234(17) 0.21165(18) 0.45892(10)
C9 C 0.47595(17) 0.27347(18) 0.48459(10)
C10 C 0.5195(2) 0.3734(2) 0.45261(11)
H4 H 0.5829 0.4119 0.4695
C11 C 0.4697(2) 0.4165(2) 0.39577(11)
H5 H 0.4992 0.4841 0.3745
C12 C 0.3762(2) 0.3592(2) 0.37063(12)
H6 H 0.3416 0.3891 0.3328
C13 C 0.3342(2) 0.2583(2) 0.40125(11)
H7 H 0.272 0.2195 0.3832
C14 C 0.63311(18) 0.2296(2) 0.73893(10)
H8 H 0.6378 0.3137 0.7418
C15 C 0.6944(2) 0.1566(3) 0.78110(11)
H9 H 0.7411 0.192 0.8125
C16 C 0.6872(2) 0.0323(3) 0.77720(11)
H10 H 0.7292 -0.016 0.8056
C17 C 0.61750(18) -0.0204(2) 0.73112(10)
H11 H 0.6124 -0.1045 0.729
C18 C 0.29378(18) -0.0792(2) 0.54480(12)
H12 H 0.251 -0.1006 0.5082
O3 O 0.29118(14) -0.14746(14) 0.59096(8)
loop_
_geom_bond_atom_site_label_1
_geom_bond_atom_site_label_2
_geom_bond_site_symmetry_1
_geom_bond_site_symmetry_2
O1 C1 1_555 1_555
C1 H1 1_555 1_555
O2 C1 1_555 1_555
C2 O2 1_555 1_555
C3 C2 1_555 1_555
C4 C3 1_555 1_555
H2 C4 1_555 1_555
C5 C1 1_555 1_555
C6 C5 1_555 1_555
C7 C6 1_555 1_555
H3 C7 1_555 1_555
C8 C7 1_555 1_555
C9 O1 1_555 1_555
C10 C9 1_555 1_555
H4 C10 1_555 1_555
C11 C10 1_555 1_555
H5 C11 1_555 1_555
C12 C11 1_555 1_555
H6 C12 1_555 1_555
C13 C8 1_555 1_555
H7 C13 1_555 1_555
C14 C2 1_555 1_555
H8 C14 1_555 1_555
C15 C14 1_555 1_555
H9 C15 1_555 1_555
C16 C15 1_555 1_555
H10 C16 1_555 1_555
C17 C3 1_555 1_555
H11 C17 1_555 1_555
C18 C6 1_555 1_555
H12 C18 1_555 1_555
O3 C18 1_555 1_555
C4 C5 1_555 1_555
C8 C9 1_555 1_555
C12 C13 1_555 1_555
C16 C17 1_555 1_555

#END
