
#######################################################################
#
#                 Cambridge Crystallographic Data Centre
#                                CCDC 
#
#######################################################################
#
# If this CIF has been generated from an entry in the Cambridge 
# Structural Database, then it will include bibliographic, chemical, 
# crystal, experimental, refinement or atomic coordinate data resulting 
# from the CCDC's data processing and validation procedures.
#
#######################################################################

data_LEFFIM
_chemical_formula_moiety         'C19 H20 Cl1 N1 O3,0.5(C4 H8 O2)'
_chemical_name_systematic        
'N-acetyl-1-(4-chlorophenyl)-6,7-dimethoxy-1,2,3,4-tetrahydroisoquinoline ethyl acetate solvate'
_chemical_properties_biological  'non-competitive AMPA receptor antagonist'
_symmetry_cell_setting           triclinic
_symmetry_space_group_name_H-M   'P -1'
_symmetry_Int_Tables_number      2
_space_group_name_Hall           '-P 1'
loop_
_symmetry_equiv_pos_site_id
_symmetry_equiv_pos_as_xyz
1 x,y,z
2 -x,-y,-z
_cell_length_a                   10.3812(16)
_cell_length_b                   7.2974(11)
_cell_length_c                   25.731(4)
_cell_angle_alpha                90.018(3)
_cell_angle_beta                 95.988(3)
_cell_angle_gamma                89.946(3)
_cell_volume                     1938.64
_exptl_crystal_colour            colorless
_exptl_crystal_description       block
_chemical_melting_point          '143-145 deg.C'
_cell_formula_units_Z            4
loop_
_atom_site_label
_atom_site_type_symbol
_atom_site_fract_x
_atom_site_fract_y
_atom_site_fract_z
Cl1 Cl 0.79509(11) 0.18303(14) 0.23279(4)
N1 N 0.5441(3) 0.8291(4) 0.07296(11)
O1 O -0.0460(2) 0.7163(4) 0.11659(11)
O2 O 0.0254(2) 0.4292(3) 0.06781(10)
O3 O 0.6192(2) 0.7665(3) -0.00451(9)
C1 C 0.5535(3) 0.5264(4) 0.11323(13)
C2 C 0.6827(3) 0.4900(5) 0.10771(14)
H1 H 0.719(4) 0.537(5) 0.0799(15)
C3 C 0.5000(3) 0.4529(5) 0.15615(13)
H2 H 0.404(4) 0.477(5) 0.1597(14)
C4 C 0.5748(4) 0.3469(5) 0.19283(14)
H3 H 0.538(4) 0.301(5) 0.2231(16)
C5 C 0.7024(4) 0.3150(5) 0.18618(14)
C6 C 0.7586(4) 0.3859(5) 0.14398(15)
H4 H 0.848(4) 0.363(5) 0.1383(15)
C7 C 0.2985(3) 0.8373(5) 0.10859(13)
C8 C 0.5312(3) 0.9417(5) 0.11906(14)
H5 H 0.565(3) 0.869(5) 0.1506(14)
H6 H 0.584(4) 1.049(6) 0.1191(16)
C9 C 0.1203(3) 0.5576(5) 0.08033(13)
C10 C 0.3375(3) 0.6810(4) 0.08423(12)
C11 C 0.4770(3) 0.6517(4) 0.07360(13)
H7 H 0.479(3) 0.594(4) 0.0379(13)
C12 C 0.0810(3) 0.7142(5) 0.10625(14)
C13 C 0.1689(3) 0.8517(5) 0.11968(14)
H8 H 0.141(3) 0.964(5) 0.1355(14)
C14 C 0.3899(3) 0.9965(5) 0.12067(14)
H9 H 0.379(4) 1.049(6) 0.1556(17)
H10 H 0.367(3) 1.094(5) 0.0936(14)
C15 C 0.2468(3) 0.5417(5) 0.06992(13)
H11 H 0.278(3) 0.442(5) 0.0520(14)
C16 C 0.0599(4) 0.2789(5) 0.03665(16)
H12 H 0.094(4) 0.321(5) 0.0035(16)
H13 H -0.026(5) 0.210(6) 0.0312(18)
H14 H 0.129(4) 0.205(6) 0.0542(17)
C17 C 0.6139(3) 0.8708(5) 0.03301(13)
C18 C 0.6853(4) 1.0509(5) 0.03500(15)
H15 H 0.629(4) 1.163(5) 0.0351(15)
H16 H 0.755(4) 1.050(5) 0.0652(16)
H17 H 0.727(4) 1.065(5) 0.0034(16)
C38 C -0.0836(4) 0.8581(6) 0.14958(17)
H38 H -0.074(4) 0.991(6) 0.1329(16)
H39 H -0.171(4) 0.828(5) 0.1557(15)
H40 H -0.025(4) 0.861(6) 0.1855(19)
Cl2 Cl -0.29559(11) -0.31714(14) 0.26734(4)
N2 N -0.0449(3) 0.3291(4) 0.42713(11)
O4 O -0.1189(2) 0.2666(3) 0.50471(9)
O5 O 0.5457(2) 0.2169(4) 0.38363(11)
O6 O 0.4742(2) -0.0701(3) 0.43225(11)
C19 C -0.0543(3) 0.0262(4) 0.38675(13)
C20 C -0.1838(3) -0.0094(5) 0.39250(15)
H18 H -0.222(3) 0.040(5) 0.4188(14)
C21 C -0.0750(4) -0.1536(5) 0.30715(14)
H19 H -0.037(4) -0.204(5) 0.2800(16)
C22 C -0.2035(4) -0.1847(5) 0.31393(14)
C23 C -0.0003(4) -0.0473(5) 0.34413(14)
H20 H 0.090(4) -0.025(5) 0.3392(15)
C24 C -0.2593(4) -0.1141(5) 0.35612(15)
H21 H -0.355(4) -0.136(5) 0.3616(14)
C25 C 0.2009(3) 0.3370(4) 0.39134(13)
C26 C -0.0321(3) 0.4415(5) 0.38080(14)
H22 H -0.061(3) 0.372(5) 0.3502(14)
H23 H -0.084(4) 0.546(5) 0.3814(15)
C27 C 0.0228(3) 0.1517(4) 0.42641(13)
H24 H 0.022(3) 0.099(4) 0.4612(13)
C28 C 0.3305(3) 0.3523(5) 0.38021(14)
H25 H 0.359(3) 0.471(4) 0.3634(13)
C29 C 0.3795(3) 0.0578(5) 0.41980(14)
C30 C 0.1622(3) 0.1806(4) 0.41568(13)
C31 C 0.4183(3) 0.2145(5) 0.39387(14)
C32 C 0.1091(3) 0.4962(5) 0.37909(14)
H26 H 0.119(4) 0.549(5) 0.3441(16)
H27 H 0.125(4) 0.595(5) 0.4076(15)
C33 C -0.1138(3) 0.3712(5) 0.46710(13)
C34 C -0.1855(4) 0.5513(5) 0.46519(15)
H28 H -0.230(3) 0.561(5) 0.4976(15)
H29 H -0.254(4) 0.555(5) 0.4361(16)
H30 H -0.128(4) 0.659(6) 0.4628(16)
C35 C 0.5829(4) 0.3593(6) 0.35040(17)
H31 H 0.578(4) 0.490(6) 0.3670(17)
H32 H 0.676(4) 0.329(6) 0.3451(16)
H33 H 0.530(4) 0.363(6) 0.3165(19)
C36 C 0.4401(4) -0.2211(5) 0.46321(17)
H34 H 0.409(4) -0.176(5) 0.4989(16)
H35 H 0.521(4) -0.290(6) 0.4699(17)
H36 H 0.365(4) -0.290(6) 0.4463(18)
C37 C 0.2530(3) 0.0420(5) 0.43025(13)
H37 H 0.227(4) -0.058(5) 0.4470(15)
O7 O 0.2689(7) 0.1282(11) 0.2480(3)
O8 O 0.1789(8) -0.1365(11) 0.2561(3)
C40 C 0.3038(10) -0.0294(14) 0.2650(4)
C41 C 0.4010(13) -0.1151(18) 0.2766(5)
C43 C 0.1071(16) 0.376(2) 0.2189(6)
C46 C 0.1600(16) 0.234(2) 0.2408(6)
C39? C 0.2432(10) -0.3771(14) 0.2540(4)
C42? C 0.1793(17) 0.464(2) 0.2306(7)
C44? C 0.3523(18) -0.282(3) 0.2606(7)
C45? C 0.2890(15) -0.207(2) 0.2627(6)
C47? C 0.3169(9) 0.3603(12) 0.2488(3)
loop_
_geom_bond_atom_site_label_1
_geom_bond_atom_site_label_2
_geom_bond_site_symmetry_1
_geom_bond_site_symmetry_2
Cl1 C5 1_555 1_555
Cl2 C22 1_555 1_555
N1 C8 1_555 1_555
N2 C26 1_555 1_555
O1 C12 1_555 1_555
O2 C9 1_555 1_555
O3 C17 1_555 1_555
O4 C33 1_555 1_555
O5 C31 1_555 1_555
O6 C29 1_555 1_555
O7 C40 1_555 1_555
O8 C40 1_555 1_555
C1 C2 1_555 1_555
C2 H1 1_555 1_555
C3 C1 1_555 1_555
H2 C3 1_555 1_555
C4 C3 1_555 1_555
H3 C4 1_555 1_555
C5 C4 1_555 1_555
C6 C2 1_555 1_555
H4 C6 1_555 1_555
C7 C10 1_555 1_555
C8 H5 1_555 1_555
H6 C8 1_555 1_555
C9 C12 1_555 1_555
C10 C11 1_555 1_555
C11 N1 1_555 1_555
H7 C11 1_555 1_555
C12 C13 1_555 1_555
C13 C7 1_555 1_555
H8 C13 1_555 1_555
C14 C7 1_555 1_555
H9 C14 1_555 1_555
H10 C14 1_555 1_555
C15 C9 1_555 1_555
H11 C15 1_555 1_555
C16 O2 1_555 1_555
H12 C16 1_555 1_555
H13 C16 1_555 1_555
H14 C16 1_555 1_555
C17 N1 1_555 1_555
C18 C17 1_555 1_555
H15 C18 1_555 1_555
H16 C18 1_555 1_555
H17 C18 1_555 1_555
C19 C20 1_555 1_555
C20 H18 1_555 1_555
C21 H19 1_555 1_555
C22 C21 1_555 1_555
C23 C19 1_555 1_555
H20 C23 1_555 1_555
C24 C20 1_555 1_555
H21 C24 1_555 1_555
C25 C28 1_555 1_555
C26 H22 1_555 1_555
H23 C26 1_555 1_555
C27 N2 1_555 1_555
H24 C27 1_555 1_555
C28 H25 1_555 1_555
C29 C31 1_555 1_555
C30 C25 1_555 1_555
C31 C28 1_555 1_555
C32 C25 1_555 1_555
H26 C32 1_555 1_555
H27 C32 1_555 1_555
C33 N2 1_555 1_555
C34 C33 1_555 1_555
H28 C34 1_555 1_555
H29 C34 1_555 1_555
H30 C34 1_555 1_555
C35 O5 1_555 1_555
H31 C35 1_555 1_555
H32 C35 1_555 1_555
H33 C35 1_555 1_555
C36 O6 1_555 1_555
H34 C36 1_555 1_555
H35 C36 1_555 1_555
H36 C36 1_555 1_555
C37 C29 1_555 1_555
H37 C37 1_555 1_555
C38 O1 1_555 1_555
H38 C38 1_555 1_555
H39 C38 1_555 1_555
H40 C38 1_555 1_555
C40 C41 1_555 1_555
C43 C46 1_555 1_555
C46 O7 1_555 1_555
C1 C11 1_555 1_555
C5 C6 1_555 1_555
C8 C14 1_555 1_555
C10 C15 1_555 1_555
C19 C27 1_555 1_555
C21 C23 1_555 1_555
C22 C24 1_555 1_555
C26 C32 1_555 1_555
C27 C30 1_555 1_555
C30 C37 1_555 1_555

#END
