
#######################################################################
#
#                 Cambridge Crystallographic Data Centre
#                                CCDC 
#
#######################################################################
#
# If this CIF has been generated from an entry in the Cambridge 
# Structural Database, then it will include bibliographic, chemical, 
# crystal, experimental, refinement or atomic coordinate data resulting 
# from the CCDC's data processing and validation procedures.
#
#######################################################################

data_LEFGAH
_chemical_formula_moiety         'C38 H60 Ca1 I1 Li1 O4 Si2'
_chemical_name_systematic        
(\m-iodo)-(\m-2,3-diphenyl-1,4-bis(trimethylsilyl)buta-1,3-dien-1,4-diido)-tetrakis(tetrahydrofuran)-calcium-lithium
_symmetry_cell_setting           monoclinic
_symmetry_space_group_name_H-M   'P 21/c'
_symmetry_Int_Tables_number      14
_space_group_name_Hall           '-P 2ybc'
loop_
_symmetry_equiv_pos_site_id
_symmetry_equiv_pos_as_xyz
1 x,y,z
2 -x,1/2+y,1/2-z
3 -x,-y,-z
4 x,1/2-y,1/2+z
_cell_length_a                   14.3824(6)
_cell_length_b                   16.6827(6)
_cell_length_c                   17.7715(10)
_cell_angle_alpha                90
_cell_angle_beta                 93.645(4)
_cell_angle_gamma                90
_cell_volume                     4255.42
_exptl_crystal_colour            red
_exptl_crystal_description       block
_cell_formula_units_Z            4
_chemical_properties_physical    
', Air-sensitive,Moisture-sensitive,Heat-sensitive,Oxygen-sensitive'
_exptl_crystal_recrystallization_method tetrahydrofuran
loop_
_atom_site_label
_atom_site_type_symbol
_atom_site_fract_x
_atom_site_fract_y
_atom_site_fract_z
I1 I 0.05407(3) 0.07362(2) 0.33079(2)
Ca1 Ca 0.11295(7) -0.10658(6) 0.28873(6)
Si1 Si 0.20411(10) -0.00615(8) 0.10596(8)
Si2 Si 0.28604(10) -0.11062(9) 0.46382(8)
O1 O 0.1470(3) -0.2449(2) 0.2622(3)
O2 O 0.0026(4) -0.1566(3) 0.3746(3)
O3 O -0.0227(3) -0.1222(3) 0.2019(3)
O4 O 0.3190(3) 0.1185(2) 0.3257(2)
C1 C 0.2312(3) -0.0477(3) 0.2015(3)
C2 C 0.3178(3) -0.0673(3) 0.2295(3)
C3 C 0.3362(3) -0.0950(3) 0.3112(3)
C4 C 0.2708(3) -0.0859(3) 0.3622(3)
C5 C 0.2852(4) 0.0726(4) 0.0742(4)
H1 H 0.2585 0.0975 0.0278
H2 H 0.3453 0.0482 0.0646
H3 H 0.2945 0.1135 0.1135
C6 C 0.0865(4) 0.0426(4) 0.1049(4)
H4 H 0.0878 0.0856 0.1425
H5 H 0.0398 0.0026 0.1170
H6 H 0.0705 0.0649 0.0548
C7 C 0.1942(7) -0.0834(4) 0.0287(4)
H7 H 0.1575 -0.0615 -0.0149
H8 H 0.1633 -0.1314 0.0469
H9 H 0.2566 -0.0976 0.0139
C8 C 0.4033(4) -0.0584(4) 0.1845(3)
C9 C 0.4183(5) -0.1074(5) 0.1252(4)
H10 H 0.3780 -0.1514 0.1135
C10 C 0.4991(6) -0.0909(5) 0.0788(5)
H11 H 0.5122 -0.1237 0.0371
C11 C 0.5518(7) -0.0279(6) 0.0988(6)
H12 H 0.6032 -0.0174 0.0692
C12 C 0.5402(6) 0.0210(7) 0.1547(6)
H13 H 0.5808 0.0652 0.1648
C13 C 0.4645(4) 0.0054(5) 0.1998(4)
H14 H 0.4551 0.0392 0.2417
C14 C 0.4293(3) -0.1333(3) 0.3328(3)
C15 C 0.5078(5) -0.0922(4) 0.3550(5)
H15 H 0.5074 -0.0353 0.3530
C16 C 0.5899(5) -0.1323(6) 0.3809(5)
H16 H 0.6440 -0.1018 0.3949
C17 C 0.5936(5) -0.2104(5) 0.3861(4)
H17 H 0.6504 -0.2365 0.4015
C18 C 0.5151(7) -0.2535(6) 0.3691(6)
H18 H 0.5147 -0.3099 0.3765
C19 C 0.4354(5) -0.2142(4) 0.3408(5)
H19 H 0.3821 -0.2456 0.3262
C20 C 0.4065(6) -0.1000(7) 0.5145(5)
H20 H 0.4327 -0.0476 0.5029
H21 H 0.4474 -0.1424 0.4976
H22 H 0.4012 -0.1045 0.5690
C21 C 0.2393(8) -0.2072(6) 0.4845(6)
H23 H 0.2403 -0.2145 0.5393
H24 H 0.2771 -0.2490 0.4626
H25 H 0.1750 -0.2109 0.4630
C22 C 0.2174(6) -0.0301(6) 0.5156(5)
H26 H 0.1520 -0.0307 0.4963
H27 H 0.2443 0.0229 0.5070
H28 H 0.2212 -0.0416 0.5698
C23 C -0.0300(7) -0.1192(6) 0.4409(6)
H29 H -0.0398 -0.0610 0.4329
H30 H 0.0149 -0.1271 0.4849
C24 C -0.1182(9) -0.1598(9) 0.4524(8)
H31 H -0.1161 -0.1831 0.5036
H32 H -0.1698 -0.1204 0.4481
C25 C -0.1351(8) -0.2219(7) 0.3976(7)
H33 H -0.1853 -0.2063 0.3598
H34 H -0.1530 -0.2724 0.4221
C26 C -0.0475(6) -0.2310(5) 0.3629(6)
H35 H -0.0114 -0.2760 0.3863
H36 H -0.0585 -0.2420 0.3083
C27 C 0.1495(6) -0.3140(5) 0.3091(5)
H37 H 0.0905 -0.3442 0.3012
H38 H 0.1569 -0.2977 0.3628
C28 C 0.2259(7) -0.3631(7) 0.2908(7)
H39 H 0.2809 -0.3526 0.3257
H40 H 0.2093 -0.4206 0.2940
C29 C 0.2439(7) -0.3428(6) 0.2180(6)
H41 H 0.2256 -0.3872 0.1832
H42 H 0.3113 -0.3324 0.2147
C30 C 0.1877(6) -0.2672(5) 0.1963(5)
H43 H 0.2290 -0.2242 0.1792
H44 H 0.1395 -0.2788 0.1555
C31 C -0.0359(6) -0.1757(5) 0.1398(5)
H45 H -0.0271 -0.2319 0.1569
H46 H 0.0094 -0.1641 0.1015
C32 C -0.1315(8) -0.1633(8) 0.1080(7)
H47 H -0.1314 -0.1495 0.0539
H48 H -0.1688 -0.2126 0.1132
C33 C -0.1702(8) -0.0982(8) 0.1497(7)
H49 H -0.1833 -0.0518 0.1160
H50 H -0.2294 -0.1153 0.1703
C34 C -0.1071(6) -0.0768(6) 0.2076(6)
H51 H -0.1335 -0.0877 0.2567
H52 H -0.0934 -0.0188 0.2047
C35 C 0.3224(8) 0.1870(6) 0.2800(6)
H53 H 0.2602 0.2124 0.2734
H54 H 0.3435 0.1729 0.2297
C36 C 0.3904(10) 0.2420(8) 0.3206(7)
H55 H 0.4531 0.2354 0.3014
H56 H 0.3708 0.2985 0.3134
C37 C 0.3917(8) 0.2216(7) 0.3949(6)
H57 H 0.3492 0.2564 0.4220
H58 H 0.4554 0.2267 0.4190
C38 C 0.3598(7) 0.1362(5) 0.3958(5)
H59 H 0.4135 0.1002 0.4077
H60 H 0.3143 0.1288 0.4348
Li1 Li 0.2398(6) 0.0267(5) 0.3079(5)
C39? C 0.3441(18) -0.0427(13) 0.5203(10)
H61? H 0.3682 0.0002 0.4892
H62? H 0.3961 -0.0692 0.5486
H63? H 0.3016 -0.0199 0.5555
C40? C 0.1651(14) -0.1312(15) 0.4973(11)
H64? H 0.1705 -0.1492 0.5499
H65? H 0.1345 -0.1729 0.4657
H66? H 0.1279 -0.0819 0.4935
C41? C 0.3460(14) -0.2172(10) 0.4842(10)
H67? H 0.3387 -0.2325 0.5368
H68? H 0.4124 -0.2139 0.4753
H69? H 0.3161 -0.2576 0.4507
loop_
_geom_bond_atom_site_label_1
_geom_bond_atom_site_label_2
_geom_bond_site_symmetry_1
_geom_bond_site_symmetry_2
I1 Ca1 1_555 1_555
Ca1 O1 1_555 1_555
Si1 C1 1_555 1_555
Si2 C4 1_555 1_555
O1 C27 1_555 1_555
O2 Ca1 1_555 1_555
O3 Ca1 1_555 1_555
O4 C35 1_555 1_555
C1 Ca1 1_555 1_555
C2 C1 1_555 1_555
C3 C2 1_555 1_555
C4 Ca1 1_555 1_555
C5 Si1 1_555 1_555
H1 C5 1_555 1_555
H2 C5 1_555 1_555
H3 C5 1_555 1_555
C6 Si1 1_555 1_555
H4 C6 1_555 1_555
H5 C6 1_555 1_555
H6 C6 1_555 1_555
C7 Si1 1_555 1_555
H7 C7 1_555 1_555
H8 C7 1_555 1_555
H9 C7 1_555 1_555
C8 C2 1_555 1_555
C9 C8 1_555 1_555
H10 C9 1_555 1_555
C10 C9 1_555 1_555
H11 C10 1_555 1_555
C11 C10 1_555 1_555
H12 C11 1_555 1_555
C12 C11 1_555 1_555
H13 C12 1_555 1_555
C13 C8 1_555 1_555
H14 C13 1_555 1_555
C14 C3 1_555 1_555
C15 C14 1_555 1_555
H15 C15 1_555 1_555
C16 C15 1_555 1_555
H16 C16 1_555 1_555
C17 C16 1_555 1_555
H17 C17 1_555 1_555
C18 C17 1_555 1_555
H18 C18 1_555 1_555
C19 C14 1_555 1_555
H19 C19 1_555 1_555
C20 Si2 1_555 1_555
H20 C20 1_555 1_555
H21 C20 1_555 1_555
H22 C20 1_555 1_555
C21 Si2 1_555 1_555
H23 C21 1_555 1_555
H24 C21 1_555 1_555
H25 C21 1_555 1_555
C22 Si2 1_555 1_555
H26 C22 1_555 1_555
H27 C22 1_555 1_555
H28 C22 1_555 1_555
C23 O2 1_555 1_555
H29 C23 1_555 1_555
H30 C23 1_555 1_555
C24 C23 1_555 1_555
H31 C24 1_555 1_555
H32 C24 1_555 1_555
C25 C24 1_555 1_555
H33 C25 1_555 1_555
H34 C25 1_555 1_555
C26 O2 1_555 1_555
H35 C26 1_555 1_555
H36 C26 1_555 1_555
C27 H37 1_555 1_555
H38 C27 1_555 1_555
C28 C27 1_555 1_555
H39 C28 1_555 1_555
H40 C28 1_555 1_555
C29 C28 1_555 1_555
H41 C29 1_555 1_555
H42 C29 1_555 1_555
C30 O1 1_555 1_555
H43 C30 1_555 1_555
H44 C30 1_555 1_555
C31 O3 1_555 1_555
H45 C31 1_555 1_555
H46 C31 1_555 1_555
C32 C31 1_555 1_555
H47 C32 1_555 1_555
H48 C32 1_555 1_555
C33 C32 1_555 1_555
H49 C33 1_555 1_555
H50 C33 1_555 1_555
C34 O3 1_555 1_555
H51 C34 1_555 1_555
H52 C34 1_555 1_555
C35 H53 1_555 1_555
H54 C35 1_555 1_555
C36 C35 1_555 1_555
H55 C36 1_555 1_555
H56 C36 1_555 1_555
C37 C36 1_555 1_555
H57 C37 1_555 1_555
H58 C37 1_555 1_555
C38 O4 1_555 1_555
H59 C38 1_555 1_555
H60 C38 1_555 1_555
Li1 I1 1_555 1_555
O4 Li1 1_555 1_555
C1 Li1 1_555 1_555
C3 C4 1_555 1_555
C4 Li1 1_555 1_555
C12 C13 1_555 1_555
C18 C19 1_555 1_555
C25 C26 1_555 1_555
C29 C30 1_555 1_555
C33 C34 1_555 1_555
C37 C38 1_555 1_555

#END
