
#######################################################################
#
#                 Cambridge Crystallographic Data Centre
#                                CCDC 
#
#######################################################################
#
# If this CIF has been generated from an entry in the Cambridge 
# Structural Database, then it will include bibliographic, chemical, 
# crystal, experimental, refinement or atomic coordinate data resulting 
# from the CCDC's data processing and validation procedures.
#
#######################################################################

data_LEFGOV
_chemical_formula_moiety         'C40 H82 Ca4 I4 O5 Si4 2-,C20 H40 Li2 O5 2+'
_chemical_name_systematic        
'(\m-tetrahydrofuran)-tetrakis(tetrahydrofuran)-di-lithium tetrakis(\m-iodo)-(\m-oxo)-bis(\m-2,3-dimethyl-1,4-bis(trimethylsilyl)buta-1,3-dien-1,4-diido)-tetrakis(tetrahydrofuran)-tetra-calcium'
_symmetry_cell_setting           monoclinic
_symmetry_space_group_name_H-M   'C 2/c'
_symmetry_Int_Tables_number      15
_space_group_name_Hall           '-C 2yn'
loop_
_symmetry_equiv_pos_site_id
_symmetry_equiv_pos_as_xyz
1 x,y,z
2 -x,y,1/2-z
3 1/2+x,1/2+y,z
4 1/2-x,1/2+y,1/2-z
5 -x,-y,-z
6 x,-y,1/2+z
7 1/2-x,1/2-y,-z
8 1/2+x,1/2-y,1/2+z
_cell_length_a                   25.2256(15)
_cell_length_b                   16.7287(10)
_cell_length_c                   20.2852(12)
_cell_angle_alpha                90
_cell_angle_beta                 100.107(6)
_cell_angle_gamma                90
_cell_volume                     8427.34
_exptl_crystal_colour            'light red'
_exptl_crystal_description       block
_cell_formula_units_Z            4
_chemical_properties_physical    
', Air-sensitive,Moisture-sensitive,Heat-sensitive,Oxygen-sensitive'
_exptl_crystal_recrystallization_method 'diethyl ether/tetrahydrofuran'
loop_
_atom_site_label
_atom_site_type_symbol
_atom_site_fract_x
_atom_site_fract_y
_atom_site_fract_z
C21 C 0.0199(8) 0.3691(12) 0.7286(11)
H40 H 0.0531 0.3932 0.7513
H41 H 0.0071 0.3991 0.6880
O4 O 0.0170(8) 0.2438(10) 0.7735(10)
O5 O -0.0153(8) 0.0883(11) 0.8461(11)
O6 O 0.1043(7) 0.1362(14) 0.8475(12)
C22 C 0.1183(11) 0.170(2) 0.9121(14)
H42 H 0.1010 0.1417 0.9441
H43 H 0.1074 0.2259 0.9115
C23 C -0.0528(13) -0.0275(15) 0.8820(16)
H44 H -0.0373 -0.0731 0.8628
H45 H -0.0685 -0.0450 0.9199
C24 C -0.0933(9) 0.0142(19) 0.8311(17)
H46 H -0.1154 0.0509 0.8515
H47 H -0.1161 -0.0232 0.8025
C25 C -0.0114(11) 0.0372(18) 0.9019(12)
H48 H -0.0189 0.0662 0.9406
H49 H 0.0244 0.0144 0.9126
C26 C -0.0541(14) 0.059(2) 0.7927(12)
H50 H -0.0380 0.0227 0.7644
H51 H -0.0721 0.1020 0.7656
C27 C 0.1788(11) 0.1632(19) 0.9304(11)
H52 H 0.1898 0.1118 0.9502
H53 H 0.1944 0.2058 0.9600
C28 C 0.1528(12) 0.1069(18) 0.8273(13)
H54 H 0.1499 0.1059 0.7790
H55 H 0.1627 0.0542 0.8454
C29 C 0.1920(8) 0.1719(17) 0.8600(14)
H56 H 0.2293 0.1592 0.8584
H57 H 0.1832 0.2245 0.8411
C30 C 0.0293(13) 0.2818(12) 0.7119(14)
Li1 Li 0.0340(9) 0.1373(16) 0.7983(17)
C21A C -0.0199(8) 0.3691(12) 0.7714(11)
H40A H -0.0531 0.3932 0.7487
H41A H -0.0071 0.3991 0.8120
O4A O -0.0170(8) 0.2438(10) 0.7265(10)
C30A C -0.0293(13) 0.2818(12) 0.7881(14)
O5A O 0.0153(8) 0.0883(11) 0.6539(11)
O6A O -0.1043(7) 0.1362(14) 0.6525(12)
C22A C -0.1183(11) 0.170(2) 0.5879(14)
H42A H -0.1010 0.1417 0.5559
H43A H -0.1074 0.2259 0.5885
C23A C 0.0528(13) -0.0275(15) 0.6180(16)
H44A H 0.0373 -0.0731 0.6372
H45A H 0.0685 -0.0450 0.5801
C24A C 0.0933(9) 0.0142(19) 0.6689(17)
H46A H 0.1154 0.0509 0.6485
H47A H 0.1161 -0.0232 0.6975
C25A C 0.0114(11) 0.0372(18) 0.5981(12)
H48A H 0.0189 0.0662 0.5594
H49A H -0.0244 0.0144 0.5874
C26A C 0.0541(14) 0.059(2) 0.7073(12)
H50A H 0.0380 0.0227 0.7356
H51A H 0.0721 0.1020 0.7344
C27A C -0.1788(11) 0.1632(19) 0.5696(11)
H52A H -0.1898 0.1118 0.5498
H53A H -0.1944 0.2058 0.5400
C28A C -0.1528(12) 0.1069(18) 0.6727(13)
H54A H -0.1499 0.1059 0.7210
H55A H -0.1627 0.0542 0.6546
C29A C -0.1920(8) 0.1719(17) 0.6400(14)
H56A H -0.2293 0.1592 0.6416
H57A H -0.1832 0.2245 0.6589
Li1A Li -0.0340(9) 0.1373(16) 0.7017(17)
I1 I 0.35301(3) 0.42123(5) 0.52014(4)
I2 I 0.17346(3) 0.24620(5) 0.64606(4)
Ca1 Ca 0.34364(8) 0.23237(16) 0.51543(12)
Ca2 Ca 0.25537(9) 0.14310(15) 0.57447(11)
Si1 Si 0.34259(14) -0.0023(2) 0.45318(17)
O1 O 0.2500 0.2500 0.5000
C1 C 0.3436(4) 0.0701(6) 0.5241(5)
C2 C 0.3793(4) 0.0675(6) 0.5796(5)
C3 C 0.3501(4) 0.1867(6) 0.6421(5)
C4 C 0.3796(5) 0.1199(7) 0.6408(5)
Si2 Si 0.35670(13) 0.2516(2) 0.71687(16)
C5 C 0.2826(5) 0.0165(9) 0.3888(6)
H1 H 0.2527 0.0299 0.4101
H2 H 0.2741 -0.0306 0.3620
H3 H 0.2897 0.0600 0.3608
C6 C 0.4268(6) 0.0081(10) 0.5881(8)
H4 H 0.4322 -0.0099 0.5449
H5 H 0.4189 -0.0368 0.6142
H6 H 0.4588 0.0342 0.6105
C7 C 0.3378(6) -0.1100(8) 0.4803(7)
H7 H 0.3047 -0.1180 0.4964
H8 H 0.3676 -0.1221 0.5154
H9 H 0.3389 -0.1447 0.4428
C8 C 0.4164(8) 0.0871(11) 0.7045(7)
H10 H 0.4506 0.0721 0.6938
H11 H 0.3998 0.0413 0.7208
H12 H 0.4216 0.1278 0.7384
C9 C 0.3200(5) 0.3457(8) 0.6994(6)
H13 H 0.3337 0.3742 0.6648
H14 H 0.3246 0.3777 0.7393
H15 H 0.2824 0.3347 0.6848
C10 C 0.3266(8) 0.2060(10) 0.7893(7)
H16 H 0.2882 0.2021 0.7764
H17 H 0.3352 0.2395 0.8281
H18 H 0.3415 0.1537 0.7994
C11 C 0.4284(7) 0.2813(13) 0.7479(10)
H19 H 0.4510 0.2349 0.7504
H20 H 0.4314 0.3047 0.7916
H21 H 0.4395 0.3194 0.7177
C12 C 0.4010(6) 0.0071(9) 0.4067(8)
H22 H 0.3994 0.0580 0.3846
H23 H 0.3991 -0.0349 0.3741
H24 H 0.4343 0.0029 0.4379
O2 O 0.4382(3) 0.2298(6) 0.5211(4)
O3 O 0.2465(4) 0.0268(5) 0.6389(4)
C13 C 0.4774(10) 0.2483(13) 0.5781(12)
H25 H 0.4751 0.2115 0.6144
H26 H 0.4724 0.3023 0.5933
C14 C 0.4653(10) 0.2119(14) 0.4715(12)
H27 H 0.4474 0.2056 0.4277
C15 C 0.2742(12) -0.1061(17) 0.6608(15)
H28 H 0.2581 -0.1517 0.6794
H29 H 0.3006 -0.1268 0.6357
C16 C 0.2321(12) -0.0658(16) 0.6139(16)
H30 H 0.1963 -0.0817 0.6200
H31 H 0.2361 -0.0742 0.5677
C17 C 0.2645(10) 0.0172(15) 0.7023(12)
H32 H 0.2347 0.0126 0.7265
H33 H 0.2863 0.0627 0.7199
C18 C 0.5219(12) 0.2029(19) 0.4883(15)
H34 H 0.5405 0.2315 0.4576
H35 H 0.5327 0.1472 0.4903
C19 C 0.5303(13) 0.2406(17) 0.5559(15)
H36 H 0.5544 0.2080 0.5875
H37 H 0.5466 0.2930 0.5541
C20 C 0.3001(12) -0.0630(17) 0.7115(15)
H38 H 0.3371 -0.0528 0.7068
H39 H 0.2994 -0.0884 0.7543
I1F I 0.14699(3) 0.07877(5) 0.47986(4)
I2F I 0.32654(3) 0.25380(5) 0.35394(4)
Ca1F Ca 0.15636(8) 0.26763(16) 0.48457(12)
Ca2F Ca 0.24463(9) 0.35690(15) 0.42553(11)
Si1F Si 0.15741(14) 0.5023(2) 0.54682(17)
C1F C 0.1564(4) 0.4299(6) 0.4759(5)
C2F C 0.1207(4) 0.4325(6) 0.4204(5)
C3F C 0.1499(4) 0.3133(6) 0.3579(5)
C4F C 0.1204(5) 0.3801(7) 0.3592(5)
Si2F Si 0.14330(13) 0.2484(2) 0.28313(16)
C5F C 0.2174(5) 0.4835(9) 0.6112(6)
H1F H 0.2473 0.4701 0.5899
H2F H 0.2259 0.5306 0.6380
H3F H 0.2103 0.4400 0.6392
C6F C 0.0732(6) 0.4919(10) 0.4119(8)
H4F H 0.0678 0.5099 0.4551
H5F H 0.0811 0.5368 0.3858
H6F H 0.0412 0.4658 0.3895
C7F C 0.1622(6) 0.6100(8) 0.5197(7)
H7F H 0.1953 0.6180 0.5036
H8F H 0.1324 0.6221 0.4846
H9F H 0.1611 0.6447 0.5572
C8F C 0.0836(8) 0.4129(11) 0.2955(7)
H10F H 0.0494 0.4279 0.3062
H11F H 0.1002 0.4587 0.2792
H12F H 0.0784 0.3722 0.2616
C9F C 0.1800(5) 0.1543(8) 0.3006(6)
H13F H 0.1663 0.1258 0.3352
H14F H 0.1754 0.1223 0.2607
H15F H 0.2176 0.1653 0.3152
C10F C 0.1734(8) 0.2940(10) 0.2107(7)
H16F H 0.2118 0.2979 0.2236
H17F H 0.1648 0.2605 0.1719
H18F H 0.1585 0.3463 0.2006
C11F C 0.0716(7) 0.2187(13) 0.2521(10)
H19F H 0.0490 0.2651 0.2496
H20F H 0.0686 0.1953 0.2084
H21F H 0.0605 0.1806 0.2823
C12F C 0.0990(6) 0.4929(9) 0.5933(8)
H22F H 0.1006 0.4420 0.6154
H23F H 0.1009 0.5349 0.6259
H24F H 0.0657 0.4971 0.5621
O2F O 0.0618(3) 0.2702(6) 0.4789(4)
O3F O 0.2535(4) 0.4732(5) 0.3611(4)
C13F C 0.0226(10) 0.2517(13) 0.4219(12)
H25F H 0.0249 0.2885 0.3856
H26F H 0.0276 0.1977 0.4067
C14F C 0.0347(10) 0.2881(14) 0.5285(12)
H27F H 0.0526 0.2944 0.5723
C15F C 0.2258(12) 0.6061(17) 0.3392(15)
H28F H 0.2419 0.6517 0.3206
H29F H 0.1994 0.6268 0.3643
C16F C 0.2679(12) 0.5658(16) 0.3861(16)
H30F H 0.3037 0.5817 0.3800
H31F H 0.2639 0.5742 0.4323
C17F C 0.2355(10) 0.4828(15) 0.2977(12)
H32F H 0.2653 0.4874 0.2735
H33F H 0.2137 0.4373 0.2801
C18F C -0.0219(12) 0.2971(19) 0.5117(15)
H34F H -0.0405 0.2685 0.5424
H35F H -0.0327 0.3528 0.5097
C19F C -0.0303(13) 0.2594(17) 0.4441(15)
H36F H -0.0544 0.2920 0.4125
H37F H -0.0466 0.2070 0.4459
C20F C 0.1999(12) 0.5630(17) 0.2885(15)
H38F H 0.1629 0.5528 0.2932
H39F H 0.2006 0.5884 0.2457
loop_
_geom_bond_atom_site_label_1
_geom_bond_atom_site_label_2
_geom_bond_site_symmetry_1
_geom_bond_site_symmetry_2
I1 Ca1 1_555 1_555
I2 Ca2 1_555 1_555
Ca1 O1 1_555 1_555
Ca2 O1 1_555 1_555
Si1 C1 1_555 1_555
O1 Ca1F 1_555 1_555
C1 Ca1 1_555 1_555
C2 C1 1_555 1_555
C3 Ca1 1_555 1_555
C4 C2 1_555 1_555
Si2 C3 1_555 1_555
C5 Si1 1_555 1_555
H1 C5 1_555 1_555
H2 C5 1_555 1_555
H3 C5 1_555 1_555
C6 C2 1_555 1_555
H4 C6 1_555 1_555
H5 C6 1_555 1_555
H6 C6 1_555 1_555
C7 Si1 1_555 1_555
H7 C7 1_555 1_555
H8 C7 1_555 1_555
H9 C7 1_555 1_555
C8 C4 1_555 1_555
H10 C8 1_555 1_555
H11 C8 1_555 1_555
H12 C8 1_555 1_555
C9 Si2 1_555 1_555
H13 C9 1_555 1_555
H14 C9 1_555 1_555
H15 C9 1_555 1_555
C10 Si2 1_555 1_555
H16 C10 1_555 1_555
H17 C10 1_555 1_555
H18 C10 1_555 1_555
C11 Si2 1_555 1_555
H19 C11 1_555 1_555
H20 C11 1_555 1_555
H21 C11 1_555 1_555
C12 Si1 1_555 1_555
H22 C12 1_555 1_555
H23 C12 1_555 1_555
H24 C12 1_555 1_555
O2 Ca1 1_555 1_555
O3 Ca2 1_555 1_555
C13 O2 1_555 1_555
H25 C13 1_555 1_555
H26 C13 1_555 1_555
C14 O2 1_555 1_555
H27 C14 1_555 1_555
C15 H28 1_555 1_555
H29 C15 1_555 1_555
C16 O3 1_555 1_555
H30 C16 1_555 1_555
H31 C16 1_555 1_555
C17 O3 1_555 1_555
H32 C17 1_555 1_555
H33 C17 1_555 1_555
C18 C14 1_555 1_555
H34 C18 1_555 1_555
H35 C18 1_555 1_555
C19 C13 1_555 1_555
H36 C19 1_555 1_555
H37 C19 1_555 1_555
C20 C15 1_555 1_555
H38 C20 1_555 1_555
H39 C20 1_555 1_555
C21 H40 1_555 1_555
H41 C21 1_555 1_555
O4 C30 1_555 1_555
O5 C25 1_555 1_555
O6 C22 1_555 1_555
C22 H42 1_555 1_555
H43 C22 1_555 1_555
C23 H44 1_555 1_555
H45 C23 1_555 1_555
C24 C23 1_555 1_555
H46 C24 1_555 1_555
H47 C24 1_555 1_555
C25 C23 1_555 1_555
H48 C25 1_555 1_555
H49 C25 1_555 1_555
C26 O5 1_555 1_555
H50 C26 1_555 1_555
H51 C26 1_555 1_555
C27 C22 1_555 1_555
H52 C27 1_555 1_555
H53 C27 1_555 1_555
C28 O6 1_555 1_555
H54 C28 1_555 1_555
H55 C28 1_555 1_555
C29 C27 1_555 1_555
H56 C29 1_555 1_555
H57 C29 1_555 1_555
C30 C21 1_555 1_555
Li1 O4 1_555 1_555
I1F Ca2 1_555 1_555
I2F Ca1 1_555 1_555
Ca1F I2 1_555 1_555
Ca2F I1 1_555 1_555
Si1F C1F 1_555 1_555
C1F Ca1F 1_555 1_555
C2F C1F 1_555 1_555
C3F Ca1F 1_555 1_555
C4F C2F 1_555 1_555
Si2F C3F 1_555 1_555
C5F Si1F 1_555 1_555
H1F C5F 1_555 1_555
H2F C5F 1_555 1_555
H3F C5F 1_555 1_555
C6F C2F 1_555 1_555
H4F C6F 1_555 1_555
H5F C6F 1_555 1_555
H6F C6F 1_555 1_555
C7F Si1F 1_555 1_555
H7F C7F 1_555 1_555
H8F C7F 1_555 1_555
H9F C7F 1_555 1_555
C8F C4F 1_555 1_555
H10F C8F 1_555 1_555
H11F C8F 1_555 1_555
H12F C8F 1_555 1_555
C9F Si2F 1_555 1_555
H13F C9F 1_555 1_555
H14F C9F 1_555 1_555
H15F C9F 1_555 1_555
C10F Si2F 1_555 1_555
H16F C10F 1_555 1_555
H17F C10F 1_555 1_555
H18F C10F 1_555 1_555
C11F Si2F 1_555 1_555
H19F C11F 1_555 1_555
H20F C11F 1_555 1_555
H21F C11F 1_555 1_555
C12F Si1F 1_555 1_555
H22F C12F 1_555 1_555
H23F C12F 1_555 1_555
H24F C12F 1_555 1_555
O2F Ca1F 1_555 1_555
O3F Ca2F 1_555 1_555
C13F O2F 1_555 1_555
H25F C13F 1_555 1_555
H26F C13F 1_555 1_555
C14F O2F 1_555 1_555
H27F C14F 1_555 1_555
C15F H28F 1_555 1_555
H29F C15F 1_555 1_555
C16F O3F 1_555 1_555
H30F C16F 1_555 1_555
H31F C16F 1_555 1_555
C17F O3F 1_555 1_555
H32F C17F 1_555 1_555
H33F C17F 1_555 1_555
C18F C14F 1_555 1_555
H34F C18F 1_555 1_555
H35F C18F 1_555 1_555
C19F C13F 1_555 1_555
H36F C19F 1_555 1_555
H37F C19F 1_555 1_555
C20F C15F 1_555 1_555
H38F C20F 1_555 1_555
H39F C20F 1_555 1_555
C21A C21 1_555 1_555
H40A C21A 1_555 1_555
H41A C21A 1_555 1_555
O4A O4 1_555 1_555
C30A O4 1_555 1_555
O5A C25A 1_555 1_555
O6A C22A 1_555 1_555
C22A H42A 1_555 1_555
H43A C22A 1_555 1_555
C23A H44A 1_555 1_555
H45A C23A 1_555 1_555
C24A C23A 1_555 1_555
H46A C24A 1_555 1_555
H47A C24A 1_555 1_555
C25A C23A 1_555 1_555
H48A C25A 1_555 1_555
H49A C25A 1_555 1_555
C26A O5A 1_555 1_555
H50A C26A 1_555 1_555
H51A C26A 1_555 1_555
C27A C22A 1_555 1_555
H52A C27A 1_555 1_555
H53A C27A 1_555 1_555
C28A O6A 1_555 1_555
H54A C28A 1_555 1_555
H55A C28A 1_555 1_555
C29A C27A 1_555 1_555
H56A C29A 1_555 1_555
H57A C29A 1_555 1_555
Li1A O4 1_555 1_555
Ca2 C3 1_555 1_555
O1 Ca2F 1_555 1_555
C3 C4 1_555 1_555
C15 C16 1_555 1_555
C17 C20 1_555 1_555
C18 C19 1_555 1_555
O5 Li1 1_555 1_555
O6 Li1 1_555 1_555
C24 C26 1_555 1_555
C28 C29 1_555 1_555
C30 O4A 1_555 1_555
Li1 O4A 1_555 1_555
I1F Ca1F 1_555 1_555
I2F Ca2F 1_555 1_555
Ca2F C3F 1_555 1_555
C3F C4F 1_555 1_555
C15F C16F 1_555 1_555
C17F C20F 1_555 1_555
C18F C19F 1_555 1_555
C21A C30A 1_555 1_555
O4A C30A 1_555 1_555
O4A Li1A 1_555 1_555
O5A Li1A 1_555 1_555
O6A Li1A 1_555 1_555
C24A C26A 1_555 1_555
C28A C29A 1_555 1_555

#END
