
#######################################################################
#
#                 Cambridge Crystallographic Data Centre
#                                CCDC 
#
#######################################################################
#
# If this CIF has been generated from an entry in the Cambridge 
# Structural Database, then it will include bibliographic, chemical, 
# crystal, experimental, refinement or atomic coordinate data resulting 
# from the CCDC's data processing and validation procedures.
#
#######################################################################

data_LEFHEM
_chemical_formula_moiety         'C22 H25 N1 O6,0.667(C1 H2 Cl2)'
_chemical_name_systematic        
"4,7-dimethyl-4a,5,6,8a-tetrahydrospiro[1-benzopyran-2,2'-oxan]-6-yl 4-nitrobenzoate dichloromethane solvate"
_symmetry_cell_setting           triclinic
_symmetry_space_group_name_H-M   'P -1'
_symmetry_Int_Tables_number      2
_space_group_name_Hall           '-P 1'
loop_
_symmetry_equiv_pos_site_id
_symmetry_equiv_pos_as_xyz
1 x,y,z
2 -x,-y,-z
_cell_length_a                   10.1719(4)
_cell_length_b                   13.8181(6)
_cell_length_c                   24.5125(10)
_cell_angle_alpha                81.364(4)
_cell_angle_beta                 89.854(3)
_cell_angle_gamma                78.196(4)
_cell_volume                     3332.88
_exptl_crystal_colour            colorless
_exptl_crystal_description       block
_cell_formula_units_Z            6
loop_
_atom_site_label
_atom_site_type_symbol
_atom_site_fract_x
_atom_site_fract_y
_atom_site_fract_z
O1 O -0.24567(16) 0.22938(12) 0.15610(7)
O2 O -0.04749(13) 0.10662(10) 0.17072(5)
O3 O 0.23785(13) 0.04044(10) 0.33822(5)
O4 O 0.25456(14) -0.11000(10) 0.39177(6)
O5 O 0.38060(17) 0.24857(11) 0.56209(7)
O6 O 0.42342(16) 0.10213(11) 0.61219(6)
N1 N 0.38877(16) 0.15771(13) 0.56843(7)
C1 C 0.00557(19) 0.14041(14) 0.21735(8)
H1 H -0.0374 0.2123 0.2171
C2 C 0.1526(2) 0.13278(15) 0.20893(8)
H2 H 0.1789 0.1750 0.1785
C3 C 0.24913(19) 0.07128(15) 0.24088(8)
C4 C 0.21683(19) -0.00263(14) 0.28809(8)
H3 H 0.2815 -0.0680 0.2891
C5 C 0.07435(19) -0.01896(15) 0.28405(8)
H4 H 0.0521 -0.0564 0.3193
H5 H 0.0679 -0.0596 0.2546
C6 C -0.02628(19) 0.08036(15) 0.27138(8)
H6 H -0.0166 0.1199 0.3016
C7 C -0.1696(2) 0.06735(16) 0.27033(8)
C8 C -0.2427(2) 0.09095(17) 0.22380(9)
H7 H -0.3344 0.0857 0.2255
C9 C -0.19043(19) 0.12533(15) 0.16879(8)
C10 C -0.2287(2) 0.06828(15) 0.12502(8)
H8 H -0.3259 0.0680 0.1270
H9 H -0.1789 -0.0020 0.1328
C11 C -0.1986(2) 0.11317(18) 0.06702(9)
H10 H -0.1003 0.1037 0.0627
H11 H -0.2352 0.0790 0.0396
C12 C -0.2620(3) 0.2239(2) 0.05701(10)
H12 H -0.2358 0.2546 0.0206
H13 H -0.3611 0.2330 0.0568
C13 C -0.2160(3) 0.27457(18) 0.10186(11)
H14 H -0.1179 0.2707 0.0996
H15 H -0.2609 0.3461 0.0958
C14 C -0.2255(2) 0.0290(2) 0.32403(9)
H16 H -0.1834 -0.0416 0.3353
H17 H -0.3228 0.0357 0.3196
H18 H -0.2069 0.0678 0.3524
C15 C 0.3959(2) 0.06966(17) 0.23257(9)
H19 H 0.4391 0.0063 0.2209
H20 H 0.4382 0.0763 0.2673
H21 H 0.4061 0.1254 0.2041
C16 C 0.25934(18) -0.02239(14) 0.38615(8)
C17 C 0.29151(18) 0.02835(14) 0.43264(8)
C18 C 0.32005(19) 0.12405(15) 0.42402(8)
H22 H 0.3181 0.1595 0.3876
C19 C 0.35120(19) 0.16739(15) 0.46840(8)
H23 H 0.3689 0.2330 0.4630
C20 C 0.35592(18) 0.11246(15) 0.52093(8)
C21 C 0.32932(19) 0.01723(14) 0.53093(8)
H24 H 0.3342 -0.0187 0.5673
C22 C 0.29544(19) -0.02387(14) 0.48627(8)
H25 H 0.2745 -0.0885 0.4921
O7 O 0.49711(14) 0.89371(10) 0.13806(6)
O8 O 0.67727(13) 0.76324(10) 0.16989(5)
O9 O 0.92505(13) 0.70170(10) 0.34505(5)
O10 O 0.93813(15) 0.55231(10) 0.39928(6)
O11 O 1.03398(15) 0.91810(10) 0.57061(6)
O12 O 1.05534(17) 0.77429(12) 0.62277(6)
N2 N 1.03374(16) 0.82824(13) 0.57769(7)
C23 C 0.72306(18) 0.80428(14) 0.21551(7)
H26 H 0.6862 0.8780 0.2103
C24 C 0.87289(19) 0.78603(15) 0.21265(8)
H27 H 0.9104 0.8237 0.1833
C25 C 0.95739(19) 0.72060(15) 0.24849(8)
C26 C 0.90677(19) 0.65627(14) 0.29546(8)
H28 H 0.9629 0.5870 0.2998
C27 C 0.76040(19) 0.65199(15) 0.28809(8)
H29 H 0.7275 0.6221 0.3234
H30 H 0.7519 0.6086 0.2602
C28 C 0.67367(18) 0.75628(14) 0.26965(7)
H31 H 0.6835 0.7987 0.2984
C29 C 0.52706(19) 0.75398(14) 0.26390(8)
C30 C 0.46522(19) 0.77565(15) 0.21464(8)
H32 H 0.3704 0.7822 0.2131
C31 C 0.53604(18) 0.79040(15) 0.16117(8)
C32 C 0.4982(2) 0.72396(16) 0.12213(8)
H33 H 0.3992 0.7330 0.1202
H34 H 0.5357 0.6531 0.1373
C33 C 0.5492(2) 0.74667(17) 0.06405(8)
H35 H 0.6484 0.7260 0.0645
H36 H 0.5115 0.7085 0.0391
C34 C 0.5075(2) 0.85821(18) 0.04293(9)
H37 H 0.5491 0.8741 0.0070
H38 H 0.4086 0.8769 0.0372
C35 C 0.5515(2) 0.91724(18) 0.08419(9)
H39 H 0.6508 0.9023 0.0874
H40 H 0.5214 0.9896 0.0707
C36 C 0.4559(2) 0.72550(17) 0.31602(8)
H41 H 0.4924 0.6553 0.3311
H42 H 0.3596 0.7344 0.3077
H43 H 0.4695 0.7682 0.3431
C37 C 1.1071(2) 0.70483(18) 0.24418(9)
H44 H 1.1463 0.7169 0.2784
H45 H 1.1295 0.7514 0.2130
H46 H 1.1433 0.6359 0.2383
C38 C 0.94069(18) 0.64018(15) 0.39358(8)
C39 C 0.96144(18) 0.69385(14) 0.44061(8)
C40 C 0.98298(19) 0.79144(15) 0.43254(8)
H47 H 0.9825 0.8270 0.3962
C41 C 1.00499(19) 0.83642(15) 0.47734(8)
H48 H 1.0183 0.9032 0.4723
C42 C 1.00719(18) 0.78198(14) 0.52981(8)
C43 C 0.98618(19) 0.68492(15) 0.53928(8)
H49 H 0.9885 0.6493 0.5757
C44 C 0.96188(19) 0.64174(15) 0.49420(8)
H50 H 0.9452 0.5758 0.4995
O13 O 0.23328(14) 0.53163(10) 0.12767(6)
O14 O 0.42105(13) 0.41376(10) 0.16587(6)
O15 O 0.61229(13) 0.37380(10) 0.35316(6)
O16 O 0.63462(16) 0.22308(11) 0.40672(6)
O17 O 0.69074(17) 0.59188(11) 0.58125(7)
O18 O 0.74635(17) 0.44517(12) 0.63057(6)
N3 N 0.70940(17) 0.50036(13) 0.58663(7)
C45 C 0.44210(19) 0.45925(15) 0.21331(8)
H51 H 0.3952 0.5312 0.2064
C46 C 0.59040(19) 0.45373(15) 0.21840(8)
H52 H 0.6302 0.4935 0.1908
C47 C 0.66990(19) 0.39704(15) 0.25894(8)
C48 C 0.61762(19) 0.32701(15) 0.30256(8)
H53 H 0.6832 0.2615 0.3089
C49 C 0.4812(2) 0.30906(16) 0.28758(9)
H54 H 0.4426 0.2764 0.3208
H55 H 0.4915 0.2634 0.2596
C50 C 0.38514(19) 0.40752(15) 0.26458(8)
H56 H 0.3766 0.4525 0.2933
C51 C 0.2466(2) 0.39221(16) 0.25138(9)
C52 C 0.2005(2) 0.40623(16) 0.19987(9)
H57 H 0.1100 0.4017 0.1936
C53 C 0.2835(2) 0.42895(15) 0.15048(8)
C54 C 0.2750(2) 0.36056(17) 0.10787(9)
H58 H 0.1795 0.3606 0.1002
H59 H 0.3201 0.2913 0.1232
C55 C 0.3404(2) 0.3933(2) 0.05398(10)
H60 H 0.4388 0.3823 0.0601
H61 H 0.3227 0.3527 0.0259
C56 C 0.2838(3) 0.5038(2) 0.03332(9)
H62 H 0.3325 0.5264 0.0004
H63 H 0.1877 0.5135 0.0226
C57 C 0.2990(2) 0.56445(18) 0.07807(9)
H64 H 0.3957 0.5584 0.0866
H65 H 0.2599 0.6358 0.0648
C58 C 0.1650(2) 0.3608(2) 0.29989(10)
H66 H 0.2125 0.2966 0.3202
H67 H 0.0772 0.3537 0.2866
H68 H 0.1525 0.4115 0.3244
C59 C 0.81636(19) 0.39626(16) 0.26421(9)
H69 H 0.8430 0.4393 0.2324
H70 H 0.8679 0.3278 0.2654
H71 H 0.8342 0.4212 0.2982
C60 C 0.62905(19) 0.31234(15) 0.40141(8)
C61 C 0.64396(18) 0.36605(15) 0.44877(8)
C62 C 0.65415(19) 0.46655(15) 0.44150(8)
H72 H 0.6474 0.5040 0.4054
C63 C 0.6740(2) 0.51150(15) 0.48653(9)
H73 H 0.6796 0.5800 0.4820
C64 C 0.68543(19) 0.45403(15) 0.53871(8)
C65 C 0.67546(19) 0.35442(15) 0.54730(8)
H74 H 0.6840 0.3168 0.5834
C66 C 0.6528(2) 0.31165(15) 0.50190(9)
H75 H 0.6429 0.2440 0.5068
C67 C 0.1754(2) -0.02471(18) 0.10637(9)
H76 H 0.1131 0.0060 0.1330
H77 H 0.2631 -0.0535 0.1258
Cl1 Cl 0.19651(6) 0.06864(5) 0.05114(3)
Cl2 Cl 0.11113(6) -0.12152(5) 0.08285(2)
C68 C 0.9253(2) 0.63378(18) 0.10415(10)
H78 H 1.0140 0.6186 0.1235
H79 H 0.8617 0.6784 0.1247
Cl3 Cl 0.93895(6) 0.69557(5) 0.03627(3)
Cl4 Cl 0.86812(7) 0.52128(5) 0.10321(3)
loop_
_geom_bond_atom_site_label_1
_geom_bond_atom_site_label_2
_geom_bond_site_symmetry_1
_geom_bond_site_symmetry_2
O1 C9 1_555 1_555
O2 C1 1_555 1_555
O3 C4 1_555 1_555
O4 C16 1_555 1_555
O5 N1 1_555 1_555
O6 N1 1_555 1_555
N1 C20 1_555 1_555
C1 H1 1_555 1_555
C2 C1 1_555 1_555
H2 C2 1_555 1_555
C3 C2 1_555 1_555
C4 C3 1_555 1_555
H3 C4 1_555 1_555
C5 C4 1_555 1_555
H4 C5 1_555 1_555
H5 C5 1_555 1_555
C6 C1 1_555 1_555
H6 C6 1_555 1_555
C7 C6 1_555 1_555
C8 C7 1_555 1_555
H7 C8 1_555 1_555
C9 O2 1_555 1_555
C10 C9 1_555 1_555
H8 C10 1_555 1_555
H9 C10 1_555 1_555
C11 C10 1_555 1_555
H10 C11 1_555 1_555
H11 C11 1_555 1_555
C12 C11 1_555 1_555
H12 C12 1_555 1_555
H13 C12 1_555 1_555
C13 O1 1_555 1_555
H14 C13 1_555 1_555
H15 C13 1_555 1_555
C14 C7 1_555 1_555
H16 C14 1_555 1_555
H17 C14 1_555 1_555
H18 C14 1_555 1_555
C15 C3 1_555 1_555
H19 C15 1_555 1_555
H20 C15 1_555 1_555
H21 C15 1_555 1_555
C16 O3 1_555 1_555
C17 C16 1_555 1_555
C18 C17 1_555 1_555
H22 C18 1_555 1_555
C19 C18 1_555 1_555
H23 C19 1_555 1_555
C20 C19 1_555 1_555
C21 C20 1_555 1_555
H24 C21 1_555 1_555
C22 C17 1_555 1_555
H25 C22 1_555 1_555
O7 C31 1_555 1_555
O8 C23 1_555 1_555
O9 C26 1_555 1_555
O10 C38 1_555 1_555
O11 N2 1_555 1_555
O12 N2 1_555 1_555
N2 C42 1_555 1_555
C23 H26 1_555 1_555
C24 C23 1_555 1_555
H27 C24 1_555 1_555
C25 C24 1_555 1_555
C26 C25 1_555 1_555
H28 C26 1_555 1_555
C27 C26 1_555 1_555
H29 C27 1_555 1_555
H30 C27 1_555 1_555
C28 C23 1_555 1_555
H31 C28 1_555 1_555
C29 C28 1_555 1_555
C30 C29 1_555 1_555
H32 C30 1_555 1_555
C31 O8 1_555 1_555
C32 C31 1_555 1_555
H33 C32 1_555 1_555
H34 C32 1_555 1_555
C33 C32 1_555 1_555
H35 C33 1_555 1_555
H36 C33 1_555 1_555
C34 C33 1_555 1_555
H37 C34 1_555 1_555
H38 C34 1_555 1_555
C35 O7 1_555 1_555
H39 C35 1_555 1_555
H40 C35 1_555 1_555
C36 C29 1_555 1_555
H41 C36 1_555 1_555
H42 C36 1_555 1_555
H43 C36 1_555 1_555
C37 C25 1_555 1_555
H44 C37 1_555 1_555
H45 C37 1_555 1_555
H46 C37 1_555 1_555
C38 O9 1_555 1_555
C39 C38 1_555 1_555
C40 C39 1_555 1_555
H47 C40 1_555 1_555
C41 C40 1_555 1_555
H48 C41 1_555 1_555
C42 C41 1_555 1_555
C43 C42 1_555 1_555
H49 C43 1_555 1_555
C44 C39 1_555 1_555
H50 C44 1_555 1_555
O13 C53 1_555 1_555
O14 C45 1_555 1_555
O15 C48 1_555 1_555
O16 C60 1_555 1_555
O17 N3 1_555 1_555
O18 N3 1_555 1_555
N3 C64 1_555 1_555
C45 H51 1_555 1_555
C46 C45 1_555 1_555
H52 C46 1_555 1_555
C47 C46 1_555 1_555
C48 C47 1_555 1_555
H53 C48 1_555 1_555
C49 C48 1_555 1_555
H54 C49 1_555 1_555
H55 C49 1_555 1_555
C50 C45 1_555 1_555
H56 C50 1_555 1_555
C51 C50 1_555 1_555
C52 C51 1_555 1_555
H57 C52 1_555 1_555
C53 O14 1_555 1_555
C54 C53 1_555 1_555
H58 C54 1_555 1_555
H59 C54 1_555 1_555
C55 C54 1_555 1_555
H60 C55 1_555 1_555
H61 C55 1_555 1_555
C56 C55 1_555 1_555
H62 C56 1_555 1_555
H63 C56 1_555 1_555
C57 O13 1_555 1_555
H64 C57 1_555 1_555
H65 C57 1_555 1_555
C58 C51 1_555 1_555
H66 C58 1_555 1_555
H67 C58 1_555 1_555
H68 C58 1_555 1_555
C59 C47 1_555 1_555
H69 C59 1_555 1_555
H70 C59 1_555 1_555
H71 C59 1_555 1_555
C60 O15 1_555 1_555
C61 C60 1_555 1_555
C62 C61 1_555 1_555
H72 C62 1_555 1_555
C63 C62 1_555 1_555
H73 C63 1_555 1_555
C64 C63 1_555 1_555
C65 C64 1_555 1_555
H74 C65 1_555 1_555
C66 C61 1_555 1_555
H75 C66 1_555 1_555
C67 H76 1_555 1_555
H77 C67 1_555 1_555
Cl1 C67 1_555 1_555
Cl2 C67 1_555 1_555
C68 H78 1_555 1_555
H79 C68 1_555 1_555
Cl3 C68 1_555 1_555
Cl4 C68 1_555 1_555
C5 C6 1_555 1_555
C8 C9 1_555 1_555
C12 C13 1_555 1_555
C21 C22 1_555 1_555
C27 C28 1_555 1_555
C30 C31 1_555 1_555
C34 C35 1_555 1_555
C43 C44 1_555 1_555
C49 C50 1_555 1_555
C52 C53 1_555 1_555
C56 C57 1_555 1_555
C65 C66 1_555 1_555

#END
