
#######################################################################
#
#                 Cambridge Crystallographic Data Centre
#                                CCDC 
#
#######################################################################
#
# If this CIF has been generated from an entry in the Cambridge 
# Structural Database, then it will include bibliographic, chemical, 
# crystal, experimental, refinement or atomic coordinate data resulting 
# from the CCDC's data processing and validation procedures.
#
#######################################################################

data_LEFJIR
_chemical_formula_moiety         'C10 H8 N6,2(H2 O1)'
_chemical_name_systematic        
"4,4'-(1,4-Phenylene)bis-4H-1,2,4-triazole dihydrate"
_symmetry_cell_setting           monoclinic
_symmetry_space_group_name_H-M   'P 21/n'
_symmetry_Int_Tables_number      14
_space_group_name_Hall           '-P 2yn'
loop_
_symmetry_equiv_pos_site_id
_symmetry_equiv_pos_as_xyz
1 x,y,z
2 1/2-x,1/2+y,1/2-z
3 -x,-y,-z
4 1/2+x,1/2-y,1/2+z
_cell_length_a                   3.7090(7)
_cell_length_b                   15.680(3)
_cell_length_c                   9.6054(18)
_cell_angle_alpha                90
_cell_angle_beta                 99.748(3)
_cell_angle_gamma                90
_cell_volume                     550.557
_exptl_crystal_colour            colorless
_exptl_crystal_description       block
_cell_formula_units_Z            2
loop_
_atom_site_label
_atom_site_type_symbol
_atom_site_fract_x
_atom_site_fract_y
_atom_site_fract_z
N1 N 0.1379(5) 0.15524(13) 0.3739(2)
N2 N 0.2094(6) 0.29226(14) 0.3416(2)
N3 N 0.2767(6) 0.24992(14) 0.2222(2)
C1 C 0.1282(7) 0.23438(16) 0.4290(3)
H1 H 0.0699 0.2463 0.5195
C2 C 0.2311(7) 0.16877(17) 0.2441(3)
H2 H 0.2590 0.1249 0.1785
C3 C 0.0687(6) 0.07598(15) 0.4383(3)
C4 C 0.1572(7) 0.06740(16) 0.5842(3)
H3 H 0.2642 0.1136 0.6407
C5 C 0.0875(7) -0.00908(16) 0.6460(3)
H4 H 0.1460 -0.0159 0.7455
N1B N -0.1379(5) -0.15524(13) 0.6261(2)
N2B N -0.2094(6) -0.29226(14) 0.6584(2)
N3B N -0.2767(6) -0.24992(14) 0.7778(2)
C1B C -0.1282(7) -0.23438(16) 0.5710(3)
H1B H -0.0699 -0.2463 0.4805
C2B C -0.2311(7) -0.16877(17) 0.7559(3)
H2B H -0.2590 -0.1249 0.8215
C3B C -0.0687(6) -0.07598(15) 0.5617(3)
C4B C -0.1572(7) -0.06740(16) 0.4158(3)
H3B H -0.2642 -0.1136 0.3593
C5B C -0.0875(7) 0.00908(16) 0.3540(3)
H4B H -0.1460 0.0159 0.2545
O1 O 0.229(3) 0.4543(3) 0.4689(5)
H5 H 0.19(3) 0.411(4) 0.410(8)
H6 H 0.448(12) 0.434(6) 0.498(10)
loop_
_geom_bond_atom_site_label_1
_geom_bond_atom_site_label_2
_geom_bond_site_symmetry_1
_geom_bond_site_symmetry_2
N1 C1 1_555 1_555
N2 N3 1_555 1_555
N3 C2 1_555 1_555
C1 N2 1_555 1_555
H1 C1 1_555 1_555
C2 N1 1_555 1_555
H2 C2 1_555 1_555
C3 N1 1_555 1_555
C4 C3 1_555 1_555
H3 C4 1_555 1_555
C5 C4 1_555 1_555
H4 C5 1_555 1_555
O1 H5 1_555 1_555
H6 O1 1_555 1_555
N1B C1B 1_555 1_555
N2B N3B 1_555 1_555
N3B C2B 1_555 1_555
C1B N2B 1_555 1_555
H1B C1B 1_555 1_555
C2B N1B 1_555 1_555
H2B C2B 1_555 1_555
C3B C5 1_555 1_555
C4B C3B 1_555 1_555
H3B C4B 1_555 1_555
C5B C3 1_555 1_555
H4B C5B 1_555 1_555
N1B C3B 1_555 1_555
C4B C5B 1_555 1_555

#END
