
#######################################################################
#
#                 Cambridge Crystallographic Data Centre
#                                CCDC 
#
#######################################################################
#
# If this CIF has been generated from an entry in the Cambridge 
# Structural Database, then it will include bibliographic, chemical, 
# crystal, experimental, refinement or atomic coordinate data resulting 
# from the CCDC's data processing and validation procedures.
#
#######################################################################

data_LEFKIS
_chemical_formula_moiety         'C15 H14 F1 N1 O2'
_chemical_name_systematic        
2-[(E)-(4-Fluorobenzyl)iminomethyl]-6-methoxyphenol
_symmetry_cell_setting           monoclinic
_symmetry_space_group_name_H-M   'C 2'
_symmetry_Int_Tables_number      5
_space_group_name_Hall           'C 2y'
loop_
_symmetry_equiv_pos_site_id
_symmetry_equiv_pos_as_xyz
1 x,y,z
2 -x,y,-z
3 1/2+x,1/2+y,z
4 1/2-x,1/2+y,-z
_cell_length_a                   20.5577(15)
_cell_length_b                   5.5281(3)
_cell_length_c                   13.1315(9)
_cell_angle_alpha                90
_cell_angle_beta                 118.477(9)
_cell_angle_gamma                90
_cell_volume                     1311.77
_exptl_crystal_colour            yellow
_exptl_crystal_description       block
_cell_formula_units_Z            4
loop_
_atom_site_label
_atom_site_type_symbol
_atom_site_fract_x
_atom_site_fract_y
_atom_site_fract_z
F1 F 0.61623(12) 0.1593(6) -0.32616(19)
O1 O 1.02596(11) 0.0073(5) 0.12995(15)
H1 H 0.9934(18) 0.112(6) 0.091(3)
O2 O 1.12802(12) -0.2598(5) 0.29122(16)
N1 N 0.93995(12) 0.3831(5) 0.07357(19)
C1 C 1.18810(18) -0.3918(8) 0.3777(3)
H2 H 1.2044 -0.5110 0.3417
H3 H 1.1725 -0.4706 0.4276
H4 H 1.2281 -0.2832 0.4225
C2 C 1.09825(14) -0.0822(6) 0.3284(2)
C3 C 1.11648(16) -0.0370(6) 0.4429(2)
H5 H 1.1504 -0.1362 0.5013
C4 C 1.08473(18) 0.1536(8) 0.4710(2)
H6 H 1.0971 0.1801 0.5480
C5 C 1.03524(16) 0.3046(7) 0.3869(2)
H7 H 1.0154 0.4355 0.4072
C6 C 1.01464(13) 0.2608(6) 0.2699(2)
C7 C 1.04497(13) 0.0636(5) 0.24101(19)
C8 C 0.96436(14) 0.4252(6) 0.1806(2)
H8 H 0.9496 0.5659 0.2027
C9 C 0.89012(17) 0.5601(7) -0.0103(3)
H9 H 0.9126 0.6235 -0.0550
H10 H 0.8825 0.6939 0.0307
C10 C 0.81621(15) 0.4466(6) -0.0912(2)
C11 C 0.75116(18) 0.5559(7) -0.1113(3)
H11 H 0.7524 0.6962 -0.0713
C12 C 0.68320(17) 0.4581(8) -0.1912(3)
H12 H 0.6392 0.5332 -0.2055
C13 C 0.68242(18) 0.2542(8) -0.2471(3)
C14 C 0.7451(2) 0.1359(7) -0.2279(3)
H13 H 0.7427 -0.0069 -0.2669
C15 C 0.81264(17) 0.2330(7) -0.1487(2)
H14 H 0.8561 0.1536 -0.1339
loop_
_geom_bond_atom_site_label_1
_geom_bond_atom_site_label_2
_geom_bond_site_symmetry_1
_geom_bond_site_symmetry_2
F1 C13 1_555 1_555
O1 H1 1_555 1_555
O2 C1 1_555 1_555
N1 C8 1_555 1_555
C1 H2 1_555 1_555
H3 C1 1_555 1_555
H4 C1 1_555 1_555
C2 O2 1_555 1_555
C3 C2 1_555 1_555
H5 C3 1_555 1_555
C4 C3 1_555 1_555
H6 C4 1_555 1_555
C5 C4 1_555 1_555
H7 C5 1_555 1_555
C6 C5 1_555 1_555
C7 O1 1_555 1_555
C8 C6 1_555 1_555
H8 C8 1_555 1_555
C9 N1 1_555 1_555
H9 C9 1_555 1_555
H10 C9 1_555 1_555
C10 C9 1_555 1_555
C11 C10 1_555 1_555
H11 C11 1_555 1_555
C12 C11 1_555 1_555
H12 C12 1_555 1_555
C13 C12 1_555 1_555
C14 C13 1_555 1_555
H13 C14 1_555 1_555
C15 C10 1_555 1_555
H14 C15 1_555 1_555
C2 C7 1_555 1_555
C6 C7 1_555 1_555
C14 C15 1_555 1_555

#END
