
#######################################################################
#
#                 Cambridge Crystallographic Data Centre
#                                CCDC 
#
#######################################################################
#
# If this CIF has been generated from an entry in the Cambridge 
# Structural Database, then it will include bibliographic, chemical, 
# crystal, experimental, refinement or atomic coordinate data resulting 
# from the CCDC's data processing and validation procedures.
#
#######################################################################

data_LEFMUF
_chemical_formula_moiety         'C26 H24 N6 O4,2(C2 H6 O1 S1)'
_chemical_name_systematic        
'9,10-bis(2-aminopyrimidin-5-yl)-2,3,6,7-tetramethoxyanthracene dimethylsulfoxide solvate'
_symmetry_cell_setting           triclinic
_symmetry_space_group_name_H-M   'P -1'
_symmetry_Int_Tables_number      2
_space_group_name_Hall           '-P 1'
loop_
_symmetry_equiv_pos_site_id
_symmetry_equiv_pos_as_xyz
1 x,y,z
2 -x,-y,-z
_cell_length_a                   8.2063(16)
_cell_length_b                   8.6327(17)
_cell_length_c                   12.681(3)
_cell_angle_alpha                71.26(3)
_cell_angle_beta                 85.91(3)
_cell_angle_gamma                67.47(3)
_cell_volume                     784.423
_exptl_crystal_colour            colorless
_exptl_crystal_description       plates
_cell_formula_units_Z            1
loop_
_atom_site_label
_atom_site_type_symbol
_atom_site_fract_x
_atom_site_fract_y
_atom_site_fract_z
O1 O 0.25811(19) 0.01521(16) 0.58634(12)
O2 O 0.04192(18) 0.27616(16) 0.43289(11)
N1 N 0.8633(2) 0.0985(2) 0.86676(12)
N2 N 0.9689(2) -0.07772(19) 0.74516(12)
N3 N 1.0902(3) -0.1772(2) 0.92365(13)
H1 H 1.1618 -0.2751 0.9114
H2 H 1.0961 -0.1632 0.9888
C1 C 0.4742(2) 0.3384(2) 0.54510(13)
C2 C 0.6168(2) 0.3583(2) 0.58705(13)
C3 C 0.3567(2) 0.4815(2) 0.45697(13)
C4 C 0.7399(2) 0.2111(2) 0.67873(14)
C5 C 0.8564(2) 0.0523(2) 0.66460(14)
H3 H 0.8549 0.0367 0.5939
C6 C 0.2095(2) 0.4595(2) 0.41895(14)
H4 H 0.1299 0.5539 0.3613
C7 C 0.7493(3) 0.2232(2) 0.78403(14)
H5 H 0.6695 0.3270 0.7984
C8 C -0.0731(3) 0.4128(2) 0.34201(17)
H6 H -0.1675 0.3779 0.3273
H7 H -0.0058 0.4316 0.2753
H8 H -0.1250 0.5226 0.3610
C9 C 0.9717(3) -0.0488(2) 0.84272(14)
C10 C 0.4389(2) 0.1796(2) 0.58944(14)
H9 H 0.5152 0.0842 0.6482
C11 C 0.3004(3) 0.1616(2) 0.55017(14)
C12 C 0.1802(2) 0.3066(2) 0.46311(14)
C13 C 0.3702(3) -0.1302(2) 0.67513(17)
H10 H 0.3285 -0.2276 0.6940
H11 H 0.3673 -0.0927 0.7407
H12 H 0.4915 -0.1700 0.6516
O1A O 0.74189(19) 0.98479(16) 0.41366(12)
O2A O 0.95808(18) 0.72384(16) 0.56711(11)
N1A N 0.1367(2) 0.9015(2) 0.13324(12)
N2A N 0.0311(2) 1.07772(19) 0.25484(12)
N3A N -0.0902(3) 1.1772(2) 0.07635(13)
H1A H -0.1618 1.2751 0.0886
H2A H -0.0961 1.1632 0.0112
C1A C 0.5258(2) 0.6616(2) 0.45490(13)
C2A C 0.3832(2) 0.6417(2) 0.41295(13)
C3A C 0.6433(2) 0.5185(2) 0.54303(13)
C4A C 0.2601(2) 0.7889(2) 0.32127(14)
C5A C 0.1436(2) 0.9477(2) 0.33540(14)
H3A H 0.1451 0.9633 0.4061
C6A C 0.7905(2) 0.5405(2) 0.58105(14)
H4A H 0.8701 0.4461 0.6387
C7A C 0.2507(3) 0.7768(2) 0.21597(14)
H5A H 0.3305 0.6730 0.2016
C8A C 1.0731(3) 0.5872(2) 0.65799(17)
H6A H 1.1675 0.6221 0.6727
H7A H 1.0058 0.5684 0.7247
H8A H 1.1250 0.4774 0.6390
C9A C 0.0283(3) 1.0488(2) 0.15728(14)
C10A C 0.5611(2) 0.8204(2) 0.41056(14)
H9A H 0.4848 0.9158 0.3518
C11A C 0.6996(3) 0.8384(2) 0.44983(14)
C12A C 0.8198(2) 0.6934(2) 0.53689(14)
C13A C 0.6298(3) 1.1302(2) 0.32487(17)
H10A H 0.6715 1.2276 0.3060
H11A H 0.6327 1.0927 0.2593
H12A H 0.5085 1.1700 0.3484
S1 S 0.41367(9) 0.31752(8) 0.97478(6)
O3 O 0.3767(3) 0.4976(2) 0.89362(15)
C14 C 0.2851(5) 0.3456(5) 1.0913(2)
H13 H 0.3343 0.3968 1.1333
H14 H 0.2874 0.2305 1.1396
H15 H 0.1630 0.4250 1.0650
C15 C 0.2929(5) 0.2247(5) 0.9171(3)
H16 H 0.3481 0.2002 0.8500
H17 H 0.1704 0.3090 0.8975
H18 H 0.2944 0.1144 0.9723
S2? S 0.2502(10) 0.3832(9) 0.9471(6)
loop_
_geom_bond_atom_site_label_1
_geom_bond_atom_site_label_2
_geom_bond_site_symmetry_1
_geom_bond_site_symmetry_2
O1 C11 1_555 1_555
O2 C8 1_555 1_555
N1 C7 1_555 1_555
N2 C5 1_555 1_555
N3 H1 1_555 1_555
H2 N3 1_555 1_555
C1 C2 1_555 1_555
C2 C4 1_555 1_555
C3 C1 1_555 1_555
C4 C5 1_555 1_555
C5 H3 1_555 1_555
C6 C3 1_555 1_555
H4 C6 1_555 1_555
C7 C4 1_555 1_555
H5 C7 1_555 1_555
C8 H6 1_555 1_555
H7 C8 1_555 1_555
H8 C8 1_555 1_555
C9 N1 1_555 1_555
C10 C1 1_555 1_555
H9 C10 1_555 1_555
C11 C10 1_555 1_555
C12 O2 1_555 1_555
C13 O1 1_555 1_555
H10 C13 1_555 1_555
H11 C13 1_555 1_555
H12 C13 1_555 1_555
S1 O3 1_555 1_555
C14 S1 1_555 1_555
H13 C14 1_555 1_555
H14 C14 1_555 1_555
H15 C14 1_555 1_555
C15 S1 1_555 1_555
H16 C15 1_555 1_555
H17 C15 1_555 1_555
H18 C15 1_555 1_555
O1A C11A 1_555 1_555
O2A C8A 1_555 1_555
N1A C7A 1_555 1_555
N2A C5A 1_555 1_555
N3A H1A 1_555 1_555
H2A N3A 1_555 1_555
C1A C2A 1_555 1_555
C2A C3 1_555 1_555
C3A C2 1_555 1_555
C4A C2A 1_555 1_555
C5A C4A 1_555 1_555
H3A C5A 1_555 1_555
C6A C3A 1_555 1_555
H4A C6A 1_555 1_555
C7A C4A 1_555 1_555
H5A C7A 1_555 1_555
C8A H6A 1_555 1_555
H7A C8A 1_555 1_555
H8A C8A 1_555 1_555
C9A N1A 1_555 1_555
C10A C1A 1_555 1_555
H9A C10A 1_555 1_555
C11A C10A 1_555 1_555
C12A O2A 1_555 1_555
C13A O1A 1_555 1_555
H10A C13A 1_555 1_555
H11A C13A 1_555 1_555
H12A C13A 1_555 1_555
N2 C9 1_555 1_555
N3 C9 1_555 1_555
C6 C12 1_555 1_555
C11 C12 1_555 1_555
N2A C9A 1_555 1_555
N3A C9A 1_555 1_555
C1A C3A 1_555 1_555
C6A C12A 1_555 1_555
C11A C12A 1_555 1_555

#END
