
#######################################################################
#
#                 Cambridge Crystallographic Data Centre
#                                CCDC 
#
#######################################################################
#
# If this CIF has been generated from an entry in the Cambridge 
# Structural Database, then it will include bibliographic, chemical, 
# crystal, experimental, refinement or atomic coordinate data resulting 
# from the CCDC's data processing and validation procedures.
#
#######################################################################

data_LEFNER
_chemical_name_common            
'(Methoxyimino)(2-((2-methylphenoxy)methyl)phenyl)acetic acid'
_chemical_formula_moiety         'C17 H17 N1 O4'
_chemical_name_systematic        
'2-[(E)-Methoxyimino]-2-(2-[(2-methylphenoxy)methyl]phenyl)ethanoic acid'
_symmetry_cell_setting           triclinic
_symmetry_space_group_name_H-M   'P -1'
_symmetry_Int_Tables_number      2
_space_group_name_Hall           '-P 1'
loop_
_symmetry_equiv_pos_site_id
_symmetry_equiv_pos_as_xyz
1 x,y,z
2 -x,-y,-z
_cell_length_a                   7.8993(3)
_cell_length_b                   8.5720(3)
_cell_length_c                   12.6080(5)
_cell_angle_alpha                88.013(3)
_cell_angle_beta                 82.270(3)
_cell_angle_gamma                65.717(4)
_cell_volume                     770.917
_exptl_crystal_colour            colorless
_exptl_crystal_description       block
_chemical_melting_point          413K
_cell_formula_units_Z            2
_exptl_crystal_recrystallization_method methanol
loop_
_atom_site_label
_atom_site_type_symbol
_atom_site_fract_x
_atom_site_fract_y
_atom_site_fract_z
N1 N -0.04205(15) 0.76501(15) 0.14263(9)
O1 O 0.26565(15) 0.52466(14) 0.04947(10)
H1 H 0.3655 0.4611 0.0157
O2 O 0.41631(14) 0.69280(13) 0.05567(9)
O3 O -0.19671(13) 0.89490(14) 0.19809(9)
O4 O 0.29418(13) 0.65865(12) 0.32961(7)
C1 C 0.10574(17) 0.79233(16) 0.14043(10)
C2 C 0.27728(18) 0.66279(17) 0.07790(11)
C3 C -0.3626(2) 0.8742(3) 0.18052(16)
H2 H -0.3753 0.8841 0.1056
H3 H -0.4704 0.9612 0.2203
H4 H -0.3529 0.7634 0.2039
C4 C 0.11852(16) 0.94464(16) 0.18597(10)
C5 C 0.1139(2) 1.07741(19) 0.11881(13)
H5 H 0.1053 1.0687 0.0466
C6 C 0.1217(2) 1.2226(2) 0.15794(16)
H6 H 0.1148 1.3126 0.1128
C7 C 0.1399(2) 1.2330(2) 0.26406(16)
H7 H 0.1464 1.3299 0.2908
C8 C 0.14853(19) 1.10001(19) 0.33090(13)
H8 H 0.1627 1.1077 0.4023
C9 C 0.13653(16) 0.95487(16) 0.29377(11)
C10 C 0.14079(19) 0.81417(17) 0.36887(11)
H9 H 0.1558 0.8422 0.4399
H10 H 0.0240 0.8006 0.3734
C11 C 0.33196(19) 0.51830(17) 0.39422(11)
C12 C 0.4895(2) 0.37100(18) 0.35617(12)
C13 C 0.5341(2) 0.22787(19) 0.41993(14)
H11 H 0.6382 0.1285 0.3965
C14 C 0.4296(3) 0.2281(2) 0.51667(15)
H12 H 0.4637 0.1305 0.5579
C15 C 0.2752(2) 0.3729(2) 0.55158(14)
H13 H 0.2033 0.3736 0.6165
C16 C 0.2255(2) 0.5189(2) 0.49049(12)
H14 H 0.1205 0.6172 0.5144
C17 C 0.6052(2) 0.3689(2) 0.25175(15)
H15 H 0.7198 0.2672 0.2458
H16 H 0.6334 0.4679 0.2484
H17 H 0.5369 0.3702 0.1940
loop_
_geom_bond_atom_site_label_1
_geom_bond_atom_site_label_2
_geom_bond_site_symmetry_1
_geom_bond_site_symmetry_2
N1 O3 1_555 1_555
O1 H1 1_555 1_555
O2 C2 1_555 1_555
O3 C3 1_555 1_555
O4 C10 1_555 1_555
C1 N1 1_555 1_555
C2 O1 1_555 1_555
C3 H2 1_555 1_555
H3 C3 1_555 1_555
H4 C3 1_555 1_555
C4 C1 1_555 1_555
C5 C4 1_555 1_555
H5 C5 1_555 1_555
C6 C5 1_555 1_555
H6 C6 1_555 1_555
C7 C6 1_555 1_555
H7 C7 1_555 1_555
C8 C7 1_555 1_555
H8 C8 1_555 1_555
C9 C4 1_555 1_555
C10 C9 1_555 1_555
H9 C10 1_555 1_555
H10 C10 1_555 1_555
C11 O4 1_555 1_555
C12 C11 1_555 1_555
C13 C12 1_555 1_555
H11 C13 1_555 1_555
C14 C13 1_555 1_555
H12 C14 1_555 1_555
C15 C14 1_555 1_555
H13 C15 1_555 1_555
C16 C11 1_555 1_555
H14 C16 1_555 1_555
C17 C12 1_555 1_555
H15 C17 1_555 1_555
H16 C17 1_555 1_555
H17 C17 1_555 1_555
C1 C2 1_555 1_555
C8 C9 1_555 1_555
C15 C16 1_555 1_555

#END
