
#######################################################################
#
#                 Cambridge Crystallographic Data Centre
#                                CCDC 
#
#######################################################################
#
# If this CIF has been generated from an entry in the Cambridge 
# Structural Database, then it will include bibliographic, chemical, 
# crystal, experimental, refinement or atomic coordinate data resulting 
# from the CCDC's data processing and validation procedures.
#
#######################################################################

data_LEFNOC
_chemical_formula_moiety         'C15 H14 Cl1 F2 N1 O3'
_chemical_name_systematic        
"ethyl 6'-chloro-3-(difluoromethyl)-1'-methyl-2'-oxo-1',2'-dihydrospiro[cyclopropane-1,3'-indole]-2-carboxylate"
_symmetry_cell_setting           monoclinic
_symmetry_space_group_name_H-M   'C 2/c'
_symmetry_Int_Tables_number      15
_space_group_name_Hall           '-C 2yn'
loop_
_symmetry_equiv_pos_site_id
_symmetry_equiv_pos_as_xyz
1 x,y,z
2 -x,y,1/2-z
3 1/2+x,1/2+y,z
4 1/2-x,1/2+y,1/2-z
5 -x,-y,-z
6 x,-y,1/2+z
7 1/2-x,1/2-y,-z
8 1/2+x,1/2-y,1/2+z
_cell_length_a                   18.4596(19)
_cell_length_b                   8.9908(6)
_cell_length_c                   21.025(2)
_cell_angle_alpha                90
_cell_angle_beta                 123.052(15)
_cell_angle_gamma                90
_cell_volume                     2924.77
_exptl_crystal_colour            colorless
_exptl_crystal_description       block
_cell_formula_units_Z            8
loop_
_atom_site_label
_atom_site_type_symbol
_atom_site_fract_x
_atom_site_fract_y
_atom_site_fract_z
Cl1 Cl 0.35123(5) 0.10391(9) 0.44585(5)
F1 F 0.71401(12) 0.6401(3) 0.87007(10)
O1 O 0.79939(14) 0.6524(3) 0.69979(14)
O2 O 0.52315(15) 0.8123(3) 0.65240(14)
O3 O 0.75275(15) 0.4177(3) 0.69437(15)
N1 N 0.44623(15) 0.6286(3) 0.56404(14)
C1 C 0.39891(18) 0.3797(3) 0.50336(15)
H1 H 0.343298 0.409614 0.465852
C2 C 0.45880(17) 0.4786(3) 0.55617(15)
C3 C 0.51658(18) 0.6864(4) 0.62837(16)
C4 C 0.42583(19) 0.2336(3) 0.50905(16)
C5 C 0.36508(19) 0.7062(4) 0.51638(18)
H2 H 0.346634 0.696050 0.464167
H3 H 0.372652 0.809639 0.529857
H4 H 0.322159 0.664341 0.523520
C6 C 0.74507(19) 0.5511(4) 0.69816(16)
C7 C 0.58428(18) 0.5661(4) 0.66256(16)
C8 C 0.67703(18) 0.6265(4) 0.70254(16)
H5 H 0.682789 0.734736 0.708791
C9 C 0.56758(19) 0.2886(4) 0.61657(17)
H6 H 0.623220 0.258618 0.653973
C10 C 0.54298(18) 0.4353(3) 0.61272(15)
C11 C 0.5086(2) 0.1856(4) 0.56411(18)
H7 H 0.524420 0.086723 0.565973
C12 C 0.64713(19) 0.5475(4) 0.74799(16)
H8 H 0.669968 0.446631 0.764497
C13 C 0.6360(2) 0.6332(4) 0.80218(18)
H9 H 0.611747 0.732226 0.782712
C14 C 0.8759(3) 0.5968(5) 0.7037(3)
H10 H 0.922252 0.668695 0.730144
H11 H 0.894538 0.505028 0.732714
F2 F 0.58503(14) 0.5508(3) 0.81761(12)
C15 C 0.8600(3) 0.5699(8) 0.6304(3)
H12 H 0.840382 0.659966 0.601147
H13 H 0.816521 0.494417 0.605199
H14 H 0.912375 0.537277 0.635356
loop_
_geom_bond_atom_site_label_1
_geom_bond_atom_site_label_2
_geom_bond_site_symmetry_1
_geom_bond_site_symmetry_2
Cl1 C4 1_555 1_555
F1 C13 1_555 1_555
O1 C6 1_555 1_555
O2 C3 1_555 1_555
O3 C6 1_555 1_555
N1 C2 1_555 1_555
C1 H1 1_555 1_555
C2 C1 1_555 1_555
C3 N1 1_555 1_555
C4 C1 1_555 1_555
C5 N1 1_555 1_555
H2 C5 1_555 1_555
H3 C5 1_555 1_555
H4 C5 1_555 1_555
C6 C8 1_555 1_555
C7 C3 1_555 1_555
C8 C7 1_555 1_555
H5 C8 1_555 1_555
C9 H6 1_555 1_555
C10 C2 1_555 1_555
C11 C4 1_555 1_555
H7 C11 1_555 1_555
C12 C7 1_555 1_555
H8 C12 1_555 1_555
C13 C12 1_555 1_555
H9 C13 1_555 1_555
C14 O1 1_555 1_555
H10 C14 1_555 1_555
H11 C14 1_555 1_555
F2 C13 1_555 1_555
C15 C14 1_555 1_555
H12 C15 1_555 1_555
H13 C15 1_555 1_555
H14 C15 1_555 1_555
C7 C10 1_555 1_555
C8 C12 1_555 1_555
C9 C10 1_555 1_555
C9 C11 1_555 1_555

#END
