
#######################################################################
#
#                 Cambridge Crystallographic Data Centre
#                                CCDC 
#
#######################################################################
#
# If this CIF has been generated from an entry in the Cambridge 
# Structural Database, then it will include bibliographic, chemical, 
# crystal, experimental, refinement or atomic coordinate data resulting 
# from the CCDC's data processing and validation procedures.
#
#######################################################################

data_LEFPAQ
_chemical_formula_moiety         'C18 H18 N2 O4'
_chemical_name_systematic        "(E)-diethyl 3,3'-(diazene-1,2-diyl)dibenzoate"
_symmetry_cell_setting           monoclinic
_symmetry_space_group_name_H-M   'P 21/n'
_symmetry_Int_Tables_number      14
_space_group_name_Hall           '-P 2yn'
loop_
_symmetry_equiv_pos_site_id
_symmetry_equiv_pos_as_xyz
1 x,y,z
2 1/2-x,1/2+y,1/2-z
3 -x,-y,-z
4 1/2+x,1/2-y,1/2+z
_cell_length_a                   5.2291(2)
_cell_length_b                   10.5932(4)
_cell_length_c                   15.3775(6)
_cell_angle_alpha                90
_cell_angle_beta                 96.619(2)
_cell_angle_gamma                90
_cell_volume                     846.127
_exptl_crystal_colour            orange
_exptl_crystal_description       block
_cell_formula_units_Z            2
loop_
_atom_site_label
_atom_site_type_symbol
_atom_site_fract_x
_atom_site_fract_y
_atom_site_fract_z
O1 O 0.10504(18) 0.65799(9) 0.85455(6)
C1 C 0.6243(2) 0.86064(10) 0.94331(7)
H1 H 0.6232 0.9208 0.8992
C2 C 0.8062(2) 0.86682(11) 1.01687(7)
C3 C 0.4449(2) 0.76376(10) 0.93660(7)
C4 C 0.4443(2) 0.67457(12) 1.00307(8)
H2 H 0.3222 0.6104 0.9986
O2 O 0.2532(2) 0.83270(11) 0.79680(7)
C5 C 0.8067(3) 0.77771(13) 1.08252(8)
H3 H 0.9289 0.7822 1.1314
C6 C 0.2592(2) 0.75768(11) 0.85532(8)
C7 C 0.6257(3) 0.68168(13) 1.07583(9)
H4 H 0.6262 0.6220 1.1202
C8 C -0.0801(3) 0.64201(16) 0.77739(9)
H5 H 0.0084 0.6303 0.7259
H6 H -0.1891 0.7161 0.7685
C9 C -0.2372(3) 0.52945(14) 0.79195(11)
H7 H -0.1291 0.4560 0.7969
H8 H -0.3687 0.5193 0.7435
H9 H -0.3159 0.5401 0.8449
N1 N 1.00062(18) 0.96177(9) 1.03032(6)
O1B O 1.89496(18) 1.34201(9) 1.14545(6)
C1B C 1.3757(2) 1.13936(10) 1.05669(7)
H1B H 1.3768 1.0792 1.1008
C2B C 1.1938(2) 1.13318(11) 0.98313(7)
C3B C 1.5551(2) 1.23624(10) 1.06340(7)
C4B C 1.5557(2) 1.32543(12) 0.99693(8)
H2B H 1.6778 1.3896 1.0014
O2B O 1.7468(2) 1.16730(11) 1.20320(7)
C5B C 1.1933(3) 1.22229(13) 0.91748(8)
H3B H 1.0711 1.2178 0.8686
C6B C 1.7408(2) 1.24232(11) 1.14468(8)
C7B C 1.3743(3) 1.31832(13) 0.92417(9)
H4B H 1.3738 1.3780 0.8798
C8B C 2.0801(3) 1.35799(16) 1.22261(9)
H5B H 1.9916 1.3697 1.2741
H6B H 2.1891 1.2839 1.2315
C9B C 2.2372(3) 1.47055(14) 1.20805(11)
H7B H 2.1291 1.5440 1.2031
H8B H 2.3687 1.4807 1.2565
H9B H 2.3159 1.4599 1.1551
N1B N 0.99938(18) 1.03823(9) 0.96968(6)
loop_
_geom_bond_atom_site_label_1
_geom_bond_atom_site_label_2
_geom_bond_site_symmetry_1
_geom_bond_site_symmetry_2
O1 C6 1_555 1_555
C1 H1 1_555 1_555
C2 C1 1_555 1_555
C3 C1 1_555 1_555
C4 C3 1_555 1_555
H2 C4 1_555 1_555
O2 C6 1_555 1_555
C5 C2 1_555 1_555
H3 C5 1_555 1_555
C6 C3 1_555 1_555
C7 C4 1_555 1_555
H4 C7 1_555 1_555
C8 O1 1_555 1_555
H5 C8 1_555 1_555
H6 C8 1_555 1_555
C9 C8 1_555 1_555
H7 C9 1_555 1_555
H8 C9 1_555 1_555
H9 C9 1_555 1_555
N1 C2 1_555 1_555
O1B C6B 1_555 1_555
C1B H1B 1_555 1_555
C2B C1B 1_555 1_555
C3B C1B 1_555 1_555
C4B C3B 1_555 1_555
H2B C4B 1_555 1_555
O2B C6B 1_555 1_555
C5B C2B 1_555 1_555
H3B C5B 1_555 1_555
C6B C3B 1_555 1_555
C7B C4B 1_555 1_555
H4B C7B 1_555 1_555
C8B O1B 1_555 1_555
H5B C8B 1_555 1_555
H6B C8B 1_555 1_555
C9B C8B 1_555 1_555
H7B C9B 1_555 1_555
H8B C9B 1_555 1_555
H9B C9B 1_555 1_555
N1B N1 1_555 1_555
C5 C7 1_555 1_555
C2B N1B 1_555 1_555
C5B C7B 1_555 1_555

#END
