
#######################################################################
#
#                 Cambridge Crystallographic Data Centre
#                                CCDC 
#
#######################################################################
#
# If this CIF has been generated from an entry in the Cambridge 
# Structural Database, then it will include bibliographic, chemical, 
# crystal, experimental, refinement or atomic coordinate data resulting 
# from the CCDC's data processing and validation procedures.
#
#######################################################################

data_LEFQOF
_chemical_formula_moiety         'C15 H21 Cl1 N2 O2'
_chemical_name_systematic        
N-t-butyl-1-(4-chlorophenyl)-4-hydroxyprolinamide
_symmetry_cell_setting           monoclinic
_symmetry_space_group_name_H-M   'P 21/c'
_symmetry_Int_Tables_number      14
_space_group_name_Hall           '-P 2ybc'
loop_
_symmetry_equiv_pos_site_id
_symmetry_equiv_pos_as_xyz
1 x,y,z
2 -x,1/2+y,1/2-z
3 -x,-y,-z
4 x,1/2-y,1/2+z
_cell_length_a                   8.05457(9)
_cell_length_b                   9.84919(9)
_cell_length_c                   18.9085(2)
_cell_angle_alpha                90
_cell_angle_beta                 93.1530(10)
_cell_angle_gamma                90
_cell_volume                     1497.76
_exptl_crystal_colour            colorless
_exptl_crystal_description       prism
_cell_formula_units_Z            4
loop_
_atom_site_label
_atom_site_type_symbol
_atom_site_fract_x
_atom_site_fract_y
_atom_site_fract_z
Cl1 Cl 0.89316(6) 0.14731(4) 0.52037(2)
O1 O 0.67243(15) 0.94986(12) 0.35555(7)
H1 H 0.632(3) 1.009(3) 0.3296(13)
O2 O 0.51243(15) 0.65396(12) 0.21298(6)
N1 N 0.62527(17) 0.66493(13) 0.40200(7)
N2 N 0.76211(16) 0.68137(14) 0.27396(7)
H2 H 0.800(2) 0.701(2) 0.3168(11)
C1 C 0.51134(19) 0.67193(16) 0.33939(8)
H3 H 0.433(2) 0.598(2) 0.3383(10)
C2 C 0.4220(2) 0.80911(17) 0.34742(9)
H4 H 0.320(3) 0.795(2) 0.3714(12)
H5 H 0.396(3) 0.854(2) 0.3028(11)
C3 C 0.5428(2) 0.89329(17) 0.39453(9)
H6 H 0.488(2) 0.964(2) 0.4199(10)
C4 C 0.6196(2) 0.78834(16) 0.44534(9)
H7 H 0.552(2) 0.775(2) 0.4860(10)
H8 H 0.731(3) 0.819(2) 0.4629(10)
C5 C 0.59738(19) 0.66726(15) 0.26892(8)
C6 C 0.87272(19) 0.71141(16) 0.21616(8)
C7 C 1.0467(2) 0.7221(2) 0.25186(11)
H9 H 1.125(3) 0.746(2) 0.2172(13)
H10 H 1.081(3) 0.639(3) 0.2737(14)
H11 H 1.049(3) 0.796(3) 0.2893(14)
C8 C 0.8234(3) 0.8469(2) 0.18280(11)
H12 H 0.714(3) 0.840(2) 0.1589(12)
H13 H 0.815(3) 0.916(3) 0.2176(14)
H14 H 0.906(3) 0.871(3) 0.1471(13)
C9 C 0.8665(3) 0.5993(2) 0.16109(13)
H15 H 0.761(3) 0.596(3) 0.1369(13)
H16 H 0.944(4) 0.616(3) 0.1239(15)
H17 H 0.895(3) 0.515(3) 0.1830(14)
C10 C 0.67925(19) 0.54204(16) 0.43060(8)
C11 C 0.7571(2) 0.53695(17) 0.49891(9)
H18 H 0.766(3) 0.616(2) 0.5262(11)
C12 C 0.8208(2) 0.41593(18) 0.52648(9)
H19 H 0.877(3) 0.415(2) 0.5723(11)
C13 C 0.8063(2) 0.29821(16) 0.48675(9)
C14 C 0.7256(2) 0.29889(17) 0.42020(9)
H20 H 0.716(2) 0.217(2) 0.3953(10)
C15 C 0.6629(2) 0.42007(17) 0.39221(8)
H21 H 0.611(3) 0.420(2) 0.3464(11)
loop_
_geom_bond_atom_site_label_1
_geom_bond_atom_site_label_2
_geom_bond_site_symmetry_1
_geom_bond_site_symmetry_2
Cl1 C13 1_555 1_555
O1 H1 1_555 1_555
O2 C5 1_555 1_555
N1 C1 1_555 1_555
N2 H2 1_555 1_555
C1 H3 1_555 1_555
C2 C1 1_555 1_555
H4 C2 1_555 1_555
H5 C2 1_555 1_555
C3 O1 1_555 1_555
H6 C3 1_555 1_555
C4 N1 1_555 1_555
H7 C4 1_555 1_555
H8 C4 1_555 1_555
C5 N2 1_555 1_555
C6 N2 1_555 1_555
C7 C6 1_555 1_555
H9 C7 1_555 1_555
H10 C7 1_555 1_555
H11 C7 1_555 1_555
C8 C6 1_555 1_555
H12 C8 1_555 1_555
H13 C8 1_555 1_555
H14 C8 1_555 1_555
C9 C6 1_555 1_555
H15 C9 1_555 1_555
H16 C9 1_555 1_555
H17 C9 1_555 1_555
C10 N1 1_555 1_555
C11 C10 1_555 1_555
H18 C11 1_555 1_555
C12 C11 1_555 1_555
H19 C12 1_555 1_555
C13 C12 1_555 1_555
C14 C13 1_555 1_555
H20 C14 1_555 1_555
C15 C10 1_555 1_555
H21 C15 1_555 1_555
C1 C5 1_555 1_555
C2 C3 1_555 1_555
C3 C4 1_555 1_555
C14 C15 1_555 1_555

#END
