
#######################################################################
#
#                 Cambridge Crystallographic Data Centre
#                                CCDC 
#
#######################################################################
#
# If this CIF has been generated from an entry in the Cambridge 
# Structural Database, then it will include bibliographic, chemical, 
# crystal, experimental, refinement or atomic coordinate data resulting 
# from the CCDC's data processing and validation procedures.
#
#######################################################################

data_LEFRIA
_chemical_formula_moiety         'C18 H21 F1 N4 O4'
_chemical_name_systematic        
'ethyl {6-amino-5-[(ethoxycarbonyl)amino]pyridin-2-yl}(4-fluorobenzyl)carbamate'
_symmetry_cell_setting           monoclinic
_symmetry_space_group_name_H-M   'P 21/n'
_symmetry_Int_Tables_number      14
_space_group_name_Hall           '-P 2yn'
loop_
_symmetry_equiv_pos_site_id
_symmetry_equiv_pos_as_xyz
1 x,y,z
2 1/2-x,1/2+y,1/2-z
3 -x,-y,-z
4 1/2+x,1/2-y,1/2+z
_cell_length_a                   9.4973(8)
_cell_length_b                   12.8420(11)
_cell_length_c                   15.3050(15)
_cell_angle_alpha                90
_cell_angle_beta                 103.468(4)
_cell_angle_gamma                90
_cell_volume                     1815.33
_exptl_crystal_colour            colorless
_exptl_crystal_description       block
_cell_formula_units_Z            4
loop_
_atom_site_label
_atom_site_type_symbol
_atom_site_fract_x
_atom_site_fract_y
_atom_site_fract_z
C1 C 0.7383(2) 0.43485(17) 0.66649(15)
C2 C 0.7452(2) 0.40704(18) 0.75377(15)
H1 H 0.8351 0.4053 0.7968
C3 C 0.6167(2) 0.38142(18) 0.77762(15)
H2 H 0.6181 0.3612 0.8375
C4 C 0.4875(2) 0.38551(17) 0.71416(14)
C5 C 0.4896(2) 0.42064(17) 0.62640(14)
C6 C 0.9564(2) 0.38959(19) 0.61642(14)
C7 C 0.9925(3) 0.21082(19) 0.59230(16)
H3 H 1.0827 0.2075 0.6402
H4 H 1.0185 0.2240 0.5343
C8 C 0.9106(3) 0.1107(2) 0.58825(19)
H5 H 0.8858 0.0984 0.6461
H6 H 0.9706 0.0533 0.5753
H7 H 0.8216 0.1149 0.5407
C9 C 0.9180(3) 0.57061(18) 0.65325(16)
H8 H 0.8355 0.6184 0.6316
H9 H 0.9911 0.5846 0.6180
C10 C 1.0958(3) 0.6212(2) 0.93177(18)
C11 C 0.9614(3) 0.6597(2) 0.89452(18)
H10 H 0.9078 0.6964 0.9299
C12 C 0.9055(3) 0.64393(19) 0.80403(17)
H11 H 0.8112 0.6689 0.7773
C13 C 0.9836(2) 0.59248(18) 0.75109(16)
C14 C 1.1210(3) 0.5559(2) 0.79206(18)
H12 H 1.1767 0.5209 0.7570
C15 C 1.1776(3) 0.5699(2) 0.88321(19)
H13 H 1.2711 0.5444 0.9112
F1 F 1.1522(2) 0.63555(16) 1.02208(11)
N1 N 0.61415(19) 0.44371(14) 0.60388(12)
N2 N 0.86732(19) 0.46238(15) 0.63776(12)
N3 N 0.3536(2) 0.35416(16) 0.73026(13)
H14 H 0.280(3) 0.3542(19) 0.6858(16)
N4 N 0.3666(2) 0.42961(18) 0.56009(14)
H15 H 0.373(3) 0.4639(19) 0.5099(17)
H16 H 0.286(3) 0.431(2) 0.5725(16)
O1 O 0.89920(16) 0.29366(12) 0.61133(10)
O2 O 1.07529(16) 0.40864(13) 0.60204(10)
C16 C 0.3291(8) 0.3220(8) 0.8094(5)
O3 O 0.1955(8) 0.2802(12) 0.7942(6)
O4 O 0.4105(7) 0.3318(8) 0.8818(3)
C17 C 0.1434(7) 0.2603(7) 0.8769(4)
H17 H 0.1119 0.3258 0.9007
H18 H 0.2202 0.2278 0.9239
C18 C 0.0173(12) 0.1869(11) 0.8466(10)
H19 H -0.0611 0.2230 0.8046
H20 H -0.0173 0.1635 0.8989
H21 H 0.0484 0.1266 0.8167
C19? C 0.3340(16) 0.3099(15) 0.8072(9)
O5? O 0.1921(16) 0.290(3) 0.8021(13)
O6? O 0.4290(13) 0.2862(10) 0.8722(7)
C20? C 0.1713(13) 0.2144(14) 0.8734(8)
H22? H 0.2187 0.1471 0.8669
H23? H 0.2129 0.2425 0.9342
C21? C 0.013(2) 0.201(3) 0.859(2)
H24? H -0.0352 0.2685 0.8473
H25? H -0.0095 0.1697 0.9128
H26? H -0.0223 0.1546 0.8074
loop_
_geom_bond_atom_site_label_1
_geom_bond_atom_site_label_2
_geom_bond_site_symmetry_1
_geom_bond_site_symmetry_2
C1 C2 1_555 1_555
C2 H1 1_555 1_555
C3 C2 1_555 1_555
H2 C3 1_555 1_555
C4 C3 1_555 1_555
C5 C4 1_555 1_555
C6 N2 1_555 1_555
C7 H3 1_555 1_555
H4 C7 1_555 1_555
C8 C7 1_555 1_555
H5 C8 1_555 1_555
H6 C8 1_555 1_555
H7 C8 1_555 1_555
C9 H8 1_555 1_555
H9 C9 1_555 1_555
C10 C11 1_555 1_555
C11 H10 1_555 1_555
C12 C11 1_555 1_555
H11 C12 1_555 1_555
C13 C9 1_555 1_555
C14 C13 1_555 1_555
H12 C14 1_555 1_555
C15 C10 1_555 1_555
H13 C15 1_555 1_555
F1 C10 1_555 1_555
N1 C1 1_555 1_555
N2 C1 1_555 1_555
N3 C4 1_555 1_555
H14 N3 1_555 1_555
N4 C5 1_555 1_555
H15 N4 1_555 1_555
H16 N4 1_555 1_555
O1 C6 1_555 1_555
O2 C6 1_555 1_555
C16 N3 1_555 1_555
O3 C16 1_555 1_555
O4 C16 1_555 1_555
C17 O3 1_555 1_555
H17 C17 1_555 1_555
H18 C17 1_555 1_555
C18 C17 1_555 1_555
H19 C18 1_555 1_555
H20 C18 1_555 1_555
H21 C18 1_555 1_555
C5 N1 1_555 1_555
C7 O1 1_555 1_555
C9 N2 1_555 1_555
C12 C13 1_555 1_555
C14 C15 1_555 1_555

#END
