
#######################################################################
#
#                 Cambridge Crystallographic Data Centre
#                                CCDC 
#
#######################################################################
#
# If this CIF has been generated from an entry in the Cambridge 
# Structural Database, then it will include bibliographic, chemical, 
# crystal, experimental, refinement or atomic coordinate data resulting 
# from the CCDC's data processing and validation procedures.
#
#######################################################################

data_LEFSIB
_chemical_formula_moiety         'C38 H23 N3 O2,0.5(C1 H2 Cl2)'
_chemical_name_systematic        
'5,6-bis(9H-carbazol-9-yl)-2-phenyl-1H-isoindole-1,3(2H)-dione dichloromethane solvate'
_symmetry_cell_setting           triclinic
_symmetry_space_group_name_H-M   'P -1'
_symmetry_Int_Tables_number      2
_space_group_name_Hall           '-P 1'
loop_
_symmetry_equiv_pos_site_id
_symmetry_equiv_pos_as_xyz
1 x,y,z
2 -x,-y,-z
_cell_length_a                   8.8489(18)
_cell_length_b                   9.5808(19)
_cell_length_c                   18.276(4)
_cell_angle_alpha                104.96(3)
_cell_angle_beta                 93.62(3)
_cell_angle_gamma                98.96(3)
_cell_volume                     1469.95
_exptl_crystal_colour            yellow
_exptl_crystal_description       plate
_cell_formula_units_Z            2
loop_
_atom_site_label
_atom_site_type_symbol
_atom_site_fract_x
_atom_site_fract_y
_atom_site_fract_z
O1 O 0.3599(3) 0.9480(2) 0.53624(12)
O2 O 0.6442(2) 0.5780(2) 0.47697(13)
N1 N 0.0891(3) 0.6668(3) 0.24613(13)
N2 N 0.2279(3) 0.4097(3) 0.22118(14)
N3 N 0.5233(3) 0.7760(3) 0.52623(14)
C1 C -0.0543(3) 0.7072(3) 0.26043(17)
C2 C -0.1233(4) 0.7338(3) 0.3279(2)
H1 H -0.0763 0.7218 0.3723
C3 C -0.2642(4) 0.7786(4) 0.3264(2)
H2 H -0.3111 0.7999 0.3712
C4 C -0.3371(4) 0.7927(4) 0.2603(2)
H3 H -0.4318 0.8234 0.2613
C5 C -0.2714(4) 0.7616(4) 0.1926(2)
H4 H -0.3229 0.7673 0.1477
C6 C -0.1269(3) 0.7217(3) 0.19273(18)
C7 C -0.0218(4) 0.6934(3) 0.13541(18)
C8 C -0.0245(4) 0.6988(4) 0.05973(19)
H5 H -0.1121 0.7160 0.0351
C9 C 0.1030(5) 0.6786(4) 0.0219(2)
H6 H 0.1014 0.6822 -0.0285
C10 C 0.2351(4) 0.6527(4) 0.0584(2)
H7 H 0.3207 0.6401 0.0321
C11 C 0.2407(4) 0.6454(3) 0.13313(18)
H8 H 0.3290 0.6290 0.1575
C12 C 0.1111(3) 0.6634(3) 0.17047(17)
C13 C 0.0819(3) 0.3198(3) 0.20215(17)
C14 C -0.0491(4) 0.3327(4) 0.23919(19)
H9 H -0.0519 0.4110 0.2813
C15 C -0.1761(4) 0.2223(4) 0.2101(2)
H10 H -0.2664 0.2268 0.2333
C16 C -0.1720(4) 0.1046(4) 0.1469(2)
H11 H -0.2595 0.0330 0.1288
C17 C -0.0410(4) 0.0927(4) 0.1110(2)
H12 H -0.0391 0.0137 0.0691
C18 C 0.0892(4) 0.2013(3) 0.13836(17)
C19 C 0.2445(4) 0.2199(3) 0.11813(17)
C20 C 0.3208(4) 0.1400(4) 0.06054(19)
H13 H 0.2695 0.0537 0.0261
C21 C 0.4736(4) 0.1929(4) 0.05643(19)
H14 H 0.5247 0.1427 0.0179
C22 C 0.5526(4) 0.3204(4) 0.10915(19)
H15 H 0.6557 0.3531 0.1052
C23 C 0.4815(4) 0.3983(3) 0.16653(18)
H16 H 0.5348 0.4826 0.2018
C24 C 0.3272(3) 0.3472(3) 0.17037(17)
C25 C 0.1994(3) 0.6515(3) 0.30168(16)
C26 C 0.2356(3) 0.7602(3) 0.37086(16)
H17 H 0.1863 0.8410 0.3815
C27 C 0.3463(3) 0.7439(3) 0.42259(16)
C28 C 0.4036(3) 0.8397(3) 0.50030(18)
C29 C 0.5455(3) 0.6492(3) 0.47088(17)
C30 C 0.4257(3) 0.6280(3) 0.40677(16)
C31 C 0.3897(3) 0.5177(3) 0.34001(16)
H18 H 0.4418 0.4389 0.3299
C32 C 0.2726(3) 0.5277(3) 0.28796(16)
C33 C 0.6130(4) 0.8377(3) 0.59893(19)
C34 C 0.5403(5) 0.8814(4) 0.6635(2)
H19 H 0.4335 0.8687 0.6602
C35 C 0.6281(6) 0.9443(4) 0.7332(2)
H20 H 0.5801 0.9750 0.7769
C36 C 0.7849(6) 0.9613(4) 0.7377(3)
H21 H 0.8427 1.0045 0.7847
C37 C 0.8595(5) 0.9153(4) 0.6738(3)
H22 H 0.9662 0.9255 0.6779
C38 C 0.7718(4) 0.8530(4) 0.6025(2)
H23 H 0.8195 0.8227 0.5587
Cl1? Cl 0.0560(4) 0.5940(5) 0.55599(18)
C39? C 0.0249(13) 0.4850(9) 0.4625(5)
Cl2? Cl -0.0843(3) 0.3103(3) 0.45624(17)
H24? H 0.1231 0.4732 0.4432
H25? H -0.0292 0.5331 0.4311
loop_
_geom_bond_atom_site_label_1
_geom_bond_atom_site_label_2
_geom_bond_site_symmetry_1
_geom_bond_site_symmetry_2
O1 C28 1_555 1_555
O2 C29 1_555 1_555
N1 C1 1_555 1_555
N2 C13 1_555 1_555
N3 C28 1_555 1_555
C1 C2 1_555 1_555
C2 H1 1_555 1_555
C3 C2 1_555 1_555
H2 C3 1_555 1_555
C4 C3 1_555 1_555
H3 C4 1_555 1_555
C5 C4 1_555 1_555
H4 C5 1_555 1_555
C6 C1 1_555 1_555
C7 C6 1_555 1_555
C8 C7 1_555 1_555
H5 C8 1_555 1_555
C9 C8 1_555 1_555
H6 C9 1_555 1_555
C10 C9 1_555 1_555
H7 C10 1_555 1_555
C11 C10 1_555 1_555
H8 C11 1_555 1_555
C12 N1 1_555 1_555
C13 C14 1_555 1_555
C14 H9 1_555 1_555
C15 C14 1_555 1_555
H10 C15 1_555 1_555
C16 C15 1_555 1_555
H11 C16 1_555 1_555
C17 C16 1_555 1_555
H12 C17 1_555 1_555
C18 C13 1_555 1_555
C19 C18 1_555 1_555
C20 C19 1_555 1_555
H13 C20 1_555 1_555
C21 C20 1_555 1_555
H14 C21 1_555 1_555
C22 C21 1_555 1_555
H15 C22 1_555 1_555
C23 C22 1_555 1_555
H16 C23 1_555 1_555
C24 N2 1_555 1_555
C25 N1 1_555 1_555
C26 C25 1_555 1_555
H17 C26 1_555 1_555
C27 C26 1_555 1_555
C28 C27 1_555 1_555
C29 N3 1_555 1_555
C30 C27 1_555 1_555
C31 C30 1_555 1_555
H18 C31 1_555 1_555
C32 N2 1_555 1_555
C33 N3 1_555 1_555
C34 C33 1_555 1_555
H19 C34 1_555 1_555
C35 C34 1_555 1_555
H20 C35 1_555 1_555
C36 C35 1_555 1_555
H21 C36 1_555 1_555
C37 C36 1_555 1_555
H22 C37 1_555 1_555
C38 C33 1_555 1_555
H23 C38 1_555 1_555
C5 C6 1_555 1_555
C7 C12 1_555 1_555
C11 C12 1_555 1_555
C17 C18 1_555 1_555
C19 C24 1_555 1_555
C23 C24 1_555 1_555
C25 C32 1_555 1_555
C29 C30 1_555 1_555
C31 C32 1_555 1_555
C37 C38 1_555 1_555

#END
