
#######################################################################
#
#                 Cambridge Crystallographic Data Centre
#                                CCDC 
#
#######################################################################
#
# If this CIF has been generated from an entry in the Cambridge 
# Structural Database, then it will include bibliographic, chemical, 
# crystal, experimental, refinement or atomic coordinate data resulting 
# from the CCDC's data processing and validation procedures.
#
#######################################################################

data_LEFTOF
_chemical_name_common            
17-t-Butyl-29,30,31,32,33-pentamethoxy-2,3-dihomo-3-thiacalix(5)arene
_chemical_formula_moiety         'C41 H42 O5 S1'
_chemical_name_systematic        
'9-(1,1-Dimethylethyl)-29,30,31,32,33-pentamethoxy-23-thiahexacyclo (23.3.1.1^2,6^.1^7,11^.1^12,16^.1^17,21^)tritriaconta-1(29),2,4,6(33),7,9,11(32),12,14,16(31),17,19,21(30),25,27-pentadecaene'
_symmetry_cell_setting           monoclinic
_symmetry_space_group_name_H-M   'P 21/n'
_symmetry_Int_Tables_number      14
_space_group_name_Hall           '-P 2yn'
loop_
_symmetry_equiv_pos_site_id
_symmetry_equiv_pos_as_xyz
1 x,y,z
2 1/2-x,1/2+y,1/2-z
3 -x,-y,-z
4 1/2+x,1/2-y,1/2+z
_cell_length_a                   15.128(2)
_cell_length_b                   11.897(1)
_cell_length_c                   19.615(2)
_cell_angle_alpha                90
_cell_angle_beta                 95.291(2)
_cell_angle_gamma                90
_cell_volume                     3515.22
_exptl_crystal_colour            colorless
_chemical_melting_point          'above 300deg.C'
_cell_formula_units_Z            4
loop_
_atom_site_label
_atom_site_type_symbol
_atom_site_fract_x
_atom_site_fract_y
_atom_site_fract_z
S1 S 0.4706(1) 0.2077(2) 0.8515(1)
O1 O 0.3121(4) 0.3985(4) 0.8433(3)
C1 C 0.2265(5) 0.4176(8) 0.8086(4)
O2 O 0.3441(3) 0.5067(4) 0.9798(2)
C2 C 0.4015(6) 0.5540(9) 1.0348(4)
O3 O 0.1484(3) 0.3995(4) 0.9610(2)
C3 C 0.0579(5) 0.4009(10) 0.9338(4)
O4 O 0.2749(3) 0.2514(4) 1.0127(2)
C4 C 0.3553(6) 0.2484(9) 1.0521(5)
O5 O 0.2376(4) 0.1424(4) 0.8834(2)
C5 C 0.1498(6) 0.1101(8) 0.8608(5)
C6 C 0.4484(6) 0.3008(7) 0.7781(4)
H1 H 0.3834 0.2815 0.7534
H2 H 0.4978 0.2864 0.7426
C7 C 0.4500(5) 0.4215(7) 0.7973(4)
C8 C 0.5192(6) 0.4920(7) 0.7838(4)
H3 H 0.5741 0.4574 0.7591
C9 C 0.5200(6) 0.6025(7) 0.8000(4)
H4 H 0.5749 0.6543 0.7876
C10 C 0.4507(5) 0.6503(7) 0.8321(4)
H5 H 0.4513 0.7387 0.8445
C11 C 0.3800(5) 0.5813(6) 0.8486(3)
C12 C 0.3797(5) 0.4702(6) 0.8299(4)
H6 H 0.1817 0.3469 0.8074
H7 H 0.2470 0.4317 0.7579
H8 H 0.1933 0.4916 0.8253
C13 C 0.3070(5) 0.6309(6) 0.8857(4)
C14 C 0.2545(5) 0.7188(7) 0.8587(4)
H9 H 0.2693 0.7568 0.8110
C15 C 0.1835(5) 0.7587(7) 0.8911(4)
H10 H 0.1466 0.8308 0.8707
C16 C 0.1596(5) 0.7054(6) 0.9504(4)
H11 H 0.1010 0.7317 0.9736
C17 C 0.2115(5) 0.6184(6) 0.9792(3)
C18 C 0.2873(5) 0.5852(6) 0.9489(3)
H12 H 0.4490 0.4926 1.0559
H13 H 0.3717 0.5957 1.0759
H14 H 0.4348 0.6151 1.0055
C19 C 0.1855(4) 0.5509(6) 1.0381(3)
C20 C 0.1898(4) 0.5947(6) 1.1045(3)
H15 H 0.2075 0.6819 1.1132
C21 C 0.1721(4) 0.5271(6) 1.1599(3)
C22 C 0.1734(5) 0.5739(6) 1.2327(4)
C23 C 0.2203(6) 0.6854(8) 1.2407(5)
H16 H 0.1798 0.7441 1.2096
H17 H 0.2866 0.6845 1.2245
H18 H 0.2229 0.7108 1.2938
C24 C 0.0780(6) 0.5897(8) 1.2493(5)
H19 H 0.0443 0.5101 1.2412(1)
H20 H 0.0439 0.6531 1.2174(1)
H21 H 0.0785 0.6136 1.3024(1)
C25 C 0.2213(8) 0.4936(10) 1.2849(5)
H22 H 0.1698 0.4328 1.2917(1)
H23 H 0.2317 0.5454 1.3301(1)
H24 H 0.2822 0.4503 1.2767(1)
C26 C 0.1553(4) 0.4123(6) 1.1483(3)
H25 H 0.1466 0.3582 1.1914
C27 C 0.1506(4) 0.3666(6) 1.0818(3)
C28 C 0.1612(4) 0.4403(6) 1.0271(3)
H26 H 0.0576 0.3695 0.8822
H27 H 0.0292 0.4841 0.9329
H28 H 0.0194 0.3455 0.9632
C29 C 0.1435(4) 0.2441(6) 1.0699(3)
C30 C 0.0748(5) 0.1789(6) 1.0938(3)
H29 H 0.0250 0.2184 1.1219
C31 C 0.0709(5) 0.0662(7) 1.0815(4)
H30 H 0.0183 0.0178 1.1009
C32 C 0.1332(5) 0.0115(7) 1.0444(4)
H31 H 0.1284 -0.0777 1.0347
C33 C 0.2020(5) 0.0754(6) 1.0202(3)
C34 C 0.2069(4) 0.1881(6) 1.0355(3)
H32 H 0.3949 0.3007 1.0217(1)
H33 H 0.3807 0.1635 1.0529(1)
H34 H 0.3585 0.2807 1.1037(1)
C35 C 0.2718(5) 0.0218(6) 0.9809(4)
C36 C 0.3260(5) -0.0638(7) 1.0112(4)
H35 H 0.3111 -0.1009 1.0591
C37 C 0.3994(6) -0.1009(7) 0.9793(4)
H36 H 0.4383 -0.1710 1.0004
C38 C 0.4218(6) -0.0485(7) 0.9207(4)
H37 H 0.4826 -0.0714 0.8994
C39 C 0.3690(5) 0.0327(7) 0.8895(4)
C40 C 0.2919(5) 0.0657(6) 0.9192(4)
H38 H 0.1115 0.1687 0.8281
H39 H 0.1073 0.0707 0.8951
H40 H 0.1778 0.0466 0.8298
C41 C 0.3943(6) 0.0918(7) 0.8265(4)
H41 H 0.4266 0.0330 0.7949
H42 H 0.3355 0.1247 0.7979
loop_
_geom_bond_atom_site_label_1
_geom_bond_atom_site_label_2
_geom_bond_site_symmetry_1
_geom_bond_site_symmetry_2
S1 C6 1_555 1_555
O1 C1 1_555 1_555
C1 H6 1_555 1_555
O2 C2 1_555 1_555
C2 H12 1_555 1_555
O3 C3 1_555 1_555
C3 H26 1_555 1_555
O4 C4 1_555 1_555
C4 H32 1_555 1_555
O5 C5 1_555 1_555
C5 H38 1_555 1_555
C6 H1 1_555 1_555
H2 C6 1_555 1_555
C7 C6 1_555 1_555
C8 C7 1_555 1_555
H3 C8 1_555 1_555
C9 C8 1_555 1_555
H4 C9 1_555 1_555
C10 C9 1_555 1_555
H5 C10 1_555 1_555
C11 C10 1_555 1_555
C12 O1 1_555 1_555
H7 C1 1_555 1_555
H8 C1 1_555 1_555
C13 C11 1_555 1_555
C14 C13 1_555 1_555
H9 C14 1_555 1_555
C15 C14 1_555 1_555
H10 C15 1_555 1_555
C16 C15 1_555 1_555
H11 C16 1_555 1_555
C17 C16 1_555 1_555
C18 O2 1_555 1_555
H13 C2 1_555 1_555
H14 C2 1_555 1_555
C19 C17 1_555 1_555
C20 C19 1_555 1_555
H15 C20 1_555 1_555
C21 C20 1_555 1_555
C22 C21 1_555 1_555
C23 C22 1_555 1_555
H16 C23 1_555 1_555
H17 C23 1_555 1_555
H18 C23 1_555 1_555
C24 C22 1_555 1_555
H19 C24 1_555 1_555
H20 C24 1_555 1_555
H21 C24 1_555 1_555
C25 C22 1_555 1_555
H22 C25 1_555 1_555
H23 C25 1_555 1_555
H24 C25 1_555 1_555
C26 C21 1_555 1_555
H25 C26 1_555 1_555
C27 C26 1_555 1_555
C28 O3 1_555 1_555
H27 C3 1_555 1_555
H28 C3 1_555 1_555
C29 C27 1_555 1_555
C30 C29 1_555 1_555
H29 C30 1_555 1_555
C31 C30 1_555 1_555
H30 C31 1_555 1_555
C32 C31 1_555 1_555
H31 C32 1_555 1_555
C33 C32 1_555 1_555
C34 O4 1_555 1_555
H33 C4 1_555 1_555
H34 C4 1_555 1_555
C35 C33 1_555 1_555
C36 C35 1_555 1_555
H35 C36 1_555 1_555
C37 C36 1_555 1_555
H36 C37 1_555 1_555
C38 C37 1_555 1_555
H37 C38 1_555 1_555
C39 C38 1_555 1_555
C40 O5 1_555 1_555
H39 C5 1_555 1_555
H40 C5 1_555 1_555
C41 S1 1_555 1_555
H41 C41 1_555 1_555
H42 C41 1_555 1_555
C7 C12 1_555 1_555
C11 C12 1_555 1_555
C13 C18 1_555 1_555
C17 C18 1_555 1_555
C19 C28 1_555 1_555
C27 C28 1_555 1_555
C29 C34 1_555 1_555
C33 C34 1_555 1_555
C35 C40 1_555 1_555
C39 C40 1_555 1_555
C39 C41 1_555 1_555

#END
