
#######################################################################
#
#                 Cambridge Crystallographic Data Centre
#                                CCDC 
#
#######################################################################
#
# If this CIF has been generated from an entry in the Cambridge 
# Structural Database, then it will include bibliographic, chemical, 
# crystal, experimental, refinement or atomic coordinate data resulting 
# from the CCDC's data processing and validation procedures.
#
#######################################################################

data_LEFYEC
_chemical_formula_moiety         'C19 H19 N1 O4'
_chemical_name_systematic        
'Methyl 4-(benzyloxy)-7-methoxy-1-methyl-1H-indole-2-carboxylate'
_symmetry_cell_setting           triclinic
_symmetry_space_group_name_H-M   'P -1'
_symmetry_Int_Tables_number      2
_space_group_name_Hall           '-P 1'
loop_
_symmetry_equiv_pos_site_id
_symmetry_equiv_pos_as_xyz
1 x,y,z
2 -x,-y,-z
_cell_length_a                   7.622(2)
_cell_length_b                   12.871(4)
_cell_length_c                   16.928(5)
_cell_angle_alpha                93.831(3)
_cell_angle_beta                 100.158(3)
_cell_angle_gamma                93.456(3)
_cell_volume                     1626.6
_exptl_crystal_colour            colorless
_exptl_crystal_description       block
_cell_formula_units_Z            4
_exptl_crystal_recrystallization_method dichloromethane/n-hexane
loop_
_atom_site_label
_atom_site_type_symbol
_atom_site_fract_x
_atom_site_fract_y
_atom_site_fract_z
C1 C 0.3201(2) 0.71878(13) 0.71353(9)
H1 H 0.2474 0.6626 0.7240
C2 C 0.3716(3) 0.80075(15) 0.77138(10)
H2 H 0.3344 0.7992 0.8208
C3 C 0.4770(3) 0.88439(14) 0.75641(11)
H3 H 0.5113 0.9396 0.7955
C4 C 0.5321(3) 0.88654(14) 0.68313(11)
H4 H 0.6029 0.9436 0.6727
C5 C 0.4826(2) 0.80460(12) 0.62552(9)
H5 H 0.5210 0.8063 0.5764
C6 C 0.37566(19) 0.71944(11) 0.64011(8)
C7 C 0.3246(2) 0.62797(12) 0.57930(8)
H6 H 0.4215 0.5820 0.5825
H7 H 0.2198 0.5888 0.5901
C8 C 0.23533(19) 0.59066(11) 0.43789(8)
C9 C 0.2426(2) 0.48538(12) 0.44087(9)
H8 H 0.2843 0.4582 0.4897
C10 C 0.1877(2) 0.41722(11) 0.37112(9)
H9 H 0.1968 0.3459 0.3749
C11 C 0.12125(19) 0.45221(10) 0.29780(8)
C12 C 0.10795(17) 0.56092(10) 0.29461(8)
C13 C 0.16855(18) 0.63004(10) 0.36340(8)
C14 C 0.14128(19) 0.73230(11) 0.34046(8)
H10 H 0.1698 0.7939 0.3734
C15 C 0.06500(19) 0.72338(11) 0.26068(8)
C16 C 0.1099(3) 0.28331(12) 0.23069(10)
H11 H 0.2371 0.2812 0.2450
H12 H 0.0687 0.2469 0.1787
H13 H 0.0536 0.2505 0.2700
C17 C -0.0428(2) 0.57773(12) 0.15155(8)
H14 H -0.0089 0.5081 0.1415
H15 H -0.0071 0.6212 0.1124
H16 H -0.1700 0.5764 0.1478
C18 C 0.0067(2) 0.80779(12) 0.21026(9)
C19 C -0.0144(4) 0.98951(14) 0.21080(13)
H17 H 0.0385 0.9929 0.1635
H18 H 0.0219 1.0519 0.2456
H19 H -0.1423 0.9833 0.1955
N1 N 0.04466(15) 0.61930(9) 0.23182(6)
O1 O 0.28763(15) 0.66482(8) 0.50106(6)
O2 O 0.06565(15) 0.38876(7) 0.22827(6)
O3 O -0.06518(19) 0.79859(9) 0.14086(7)
O4 O 0.0436(2) 0.90008(8) 0.25245(7)
C20 C 0.8907(2) 0.78348(12) 0.49954(9)
H20 H 0.9494 0.7222 0.5012
C21 C 0.9458(2) 0.86294(13) 0.55865(9)
H21 H 1.0398 0.8545 0.6004
C22 C 0.8629(2) 0.95491(14) 0.55648(10)
H22 H 0.9003 1.0087 0.5965
C23 C 0.7236(2) 0.96653(14) 0.49423(11)
H23 H 0.6681 1.0289 0.4919
C24 C 0.6664(2) 0.88617(13) 0.43554(10)
H24 H 0.5714 0.8945 0.3943
C25 C 0.74889(19) 0.79327(12) 0.43736(8)
C26 C 0.6865(2) 0.70257(12) 0.37704(9)
H25 H 0.7848 0.6594 0.3727
H26 H 0.5928 0.6604 0.3944
C27 C 0.5479(2) 0.66508(12) 0.24058(8)
C28 C 0.5498(2) 0.55956(12) 0.24361(9)
H27 H 0.6048 0.5323 0.2905
C29 C 0.4701(2) 0.49140(12) 0.17701(9)
H28 H 0.4747 0.4199 0.1811
C30 C 0.3858(2) 0.52585(11) 0.10641(9)
C31 C 0.38111(19) 0.63503(11) 0.10291(8)
C32 C 0.46230(19) 0.70394(11) 0.16862(8)
C33 C 0.4334(2) 0.80607(12) 0.14658(9)
H29 H 0.4731 0.8677 0.1782
C34 C 0.3362(2) 0.79755(11) 0.06999(8)
C35 C 0.3145(3) 0.35453(13) 0.04259(11)
H30 H 0.4376 0.3388 0.0539
H31 H 0.2579 0.3197 -0.0082
H32 H 0.2549 0.3311 0.0843
C36 C 0.1910(3) 0.65126(14) -0.03299(10)
H33 H 0.2483 0.5958 -0.0566
H34 H 0.1735 0.7054 -0.0693
H35 H 0.0774 0.6248 -0.0227
C37 C 0.2737(2) 0.88262(12) 0.02112(9)
C38 C 0.2686(3) 1.06634(14) 0.02114(13)
H36 H 0.3072 1.0631 -0.0299
H37 H 0.3242 1.1278 0.0533
H38 H 0.1411 1.0689 0.0128
N2 N 0.30332(16) 0.69353(9) 0.04256(7)
O5 O 0.62046(16) 0.73933(8) 0.30083(6)
O6 O 0.30467(18) 0.46313(9) 0.03939(7)
O7 O 0.1933(2) 0.87380(10) -0.04683(7)
O8 O 0.31871(19) 0.97476(9) 0.06225(7)
loop_
_geom_bond_atom_site_label_1
_geom_bond_atom_site_label_2
_geom_bond_site_symmetry_1
_geom_bond_site_symmetry_2
C1 H1 1_555 1_555
C2 C1 1_555 1_555
H2 C2 1_555 1_555
C3 C2 1_555 1_555
H3 C3 1_555 1_555
C4 C3 1_555 1_555
H4 C4 1_555 1_555
C5 C4 1_555 1_555
H5 C5 1_555 1_555
C6 C1 1_555 1_555
C7 C6 1_555 1_555
H6 C7 1_555 1_555
H7 C7 1_555 1_555
C8 C9 1_555 1_555
C9 H8 1_555 1_555
C10 C9 1_555 1_555
H9 C10 1_555 1_555
C11 C10 1_555 1_555
C12 C11 1_555 1_555
C13 C8 1_555 1_555
C14 C13 1_555 1_555
H10 C14 1_555 1_555
C15 C14 1_555 1_555
C16 H11 1_555 1_555
H12 C16 1_555 1_555
H13 C16 1_555 1_555
C17 H14 1_555 1_555
H15 C17 1_555 1_555
H16 C17 1_555 1_555
C18 C15 1_555 1_555
C19 H17 1_555 1_555
H18 C19 1_555 1_555
H19 C19 1_555 1_555
C20 H20 1_555 1_555
C21 C20 1_555 1_555
H21 C21 1_555 1_555
C22 C21 1_555 1_555
H22 C22 1_555 1_555
C23 C22 1_555 1_555
H23 C23 1_555 1_555
C24 C23 1_555 1_555
H24 C24 1_555 1_555
C25 C20 1_555 1_555
C26 C25 1_555 1_555
H25 C26 1_555 1_555
H26 C26 1_555 1_555
C27 C28 1_555 1_555
C28 H27 1_555 1_555
C29 C28 1_555 1_555
H28 C29 1_555 1_555
C30 C29 1_555 1_555
C31 C30 1_555 1_555
C32 C27 1_555 1_555
C33 C32 1_555 1_555
H29 C33 1_555 1_555
C34 C33 1_555 1_555
C35 H30 1_555 1_555
H31 C35 1_555 1_555
H32 C35 1_555 1_555
C36 H33 1_555 1_555
H34 C36 1_555 1_555
H35 C36 1_555 1_555
C37 C34 1_555 1_555
C38 H36 1_555 1_555
H37 C38 1_555 1_555
H38 C38 1_555 1_555
N1 C12 1_555 1_555
N2 C31 1_555 1_555
O1 C7 1_555 1_555
O2 C11 1_555 1_555
O3 C18 1_555 1_555
O4 C18 1_555 1_555
O5 C26 1_555 1_555
O6 C30 1_555 1_555
O7 C37 1_555 1_555
O8 C37 1_555 1_555
C5 C6 1_555 1_555
C8 O1 1_555 1_555
C12 C13 1_555 1_555
C15 N1 1_555 1_555
C16 O2 1_555 1_555
C17 N1 1_555 1_555
C19 O4 1_555 1_555
C24 C25 1_555 1_555
C27 O5 1_555 1_555
C31 C32 1_555 1_555
C34 N2 1_555 1_555
C35 O6 1_555 1_555
C36 N2 1_555 1_555
C38 O8 1_555 1_555

#END
