
#######################################################################
#
#                 Cambridge Crystallographic Data Centre
#                                CCDC 
#
#######################################################################
#
# If this CIF has been generated from an entry in the Cambridge 
# Structural Database, then it will include bibliographic, chemical, 
# crystal, experimental, refinement or atomic coordinate data resulting 
# from the CCDC's data processing and validation procedures.
#
#######################################################################

data_LEFYIG
_chemical_formula_moiety         'C15 H8 Cl4 N2 O1'
_chemical_name_systematic        
6,7-Dichloro-3-(2,4-dichlorobenzyl)quinoxalin-2(1H)-one
_symmetry_cell_setting           triclinic
_symmetry_space_group_name_H-M   'P -1'
_symmetry_Int_Tables_number      2
_space_group_name_Hall           '-P 1'
loop_
_symmetry_equiv_pos_site_id
_symmetry_equiv_pos_as_xyz
1 x,y,z
2 -x,-y,-z
_cell_length_a                   7.7150(7)
_cell_length_b                   8.2058(8)
_cell_length_c                   11.9722(12)
_cell_angle_alpha                83.7710(10)
_cell_angle_beta                 84.3620(10)
_cell_angle_gamma                84.298(2)
_cell_volume                     746.794
_exptl_crystal_colour            colorless
_exptl_crystal_description       prism
_cell_formula_units_Z            2
loop_
_atom_site_label
_atom_site_type_symbol
_atom_site_fract_x
_atom_site_fract_y
_atom_site_fract_z
Cl1 Cl 0.77372(19) 0.40780(15) 0.26074(9)
Cl2 Cl 0.62590(18) 0.18395(14) 0.47312(10)
Cl3 Cl 0.4357(2) 1.04383(15) 0.75266(10)
Cl4 Cl 0.0594(2) 0.7248(2) 1.09562(11)
N1 N 0.8827(5) 0.8183(4) 0.5316(3)
H1 H 0.9289 0.8757 0.4739
N2 N 0.7257(5) 0.6358(4) 0.7161(3)
O1 O 0.9408(4) 1.0040(4) 0.6487(2)
C1 C 0.8754(6) 0.8778(5) 0.6340(3)
C2 C 0.7819(6) 0.7756(5) 0.7279(3)
C3 C 0.7456(6) 0.5778(5) 0.6094(3)
C4 C 0.8206(6) 0.6717(5) 0.5149(3)
C5 C 0.8302(6) 0.6185(5) 0.4072(3)
H2 H 0.8779 0.6820 0.3448
C6 C 0.7680(6) 0.4710(5) 0.3953(3)
C7 C 0.6994(6) 0.3725(5) 0.4901(4)
C8 C 0.6891(6) 0.4266(5) 0.5954(3)
H3 H 0.6440 0.3613 0.6578
C9 C 0.7583(7) 0.8441(6) 0.8411(3)
H4 H 0.8507 0.7934 0.8862
H5 H 0.7706 0.9614 0.8296
C10 C 0.5845(7) 0.8167(5) 0.9056(3)
C11 C 0.4300(8) 0.9005(5) 0.8721(3)
C12 C 0.2672(7) 0.8752(5) 0.9292(4)
H6 H 0.1657 0.9328 0.9045
C13 C 0.2608(7) 0.7620(6) 1.0233(4)
C14 C 0.4100(7) 0.6797(6) 1.0607(4)
H7 H 0.4037 0.6059 1.1253
C15 C 0.5711(7) 0.7057(5) 1.0027(3)
H8 H 0.6717 0.6485 1.0288
loop_
_geom_bond_atom_site_label_1
_geom_bond_atom_site_label_2
_geom_bond_site_symmetry_1
_geom_bond_site_symmetry_2
Cl1 C6 1_555 1_555
Cl2 C7 1_555 1_555
Cl3 C11 1_555 1_555
Cl4 C13 1_555 1_555
N1 H1 1_555 1_555
N2 C2 1_555 1_555
O1 C1 1_555 1_555
C1 N1 1_555 1_555
C2 C1 1_555 1_555
C3 N2 1_555 1_555
C4 N1 1_555 1_555
C5 C4 1_555 1_555
H2 C5 1_555 1_555
C6 C5 1_555 1_555
C7 C6 1_555 1_555
C8 C3 1_555 1_555
H3 C8 1_555 1_555
C9 C2 1_555 1_555
H4 C9 1_555 1_555
H5 C9 1_555 1_555
C10 C9 1_555 1_555
C11 C10 1_555 1_555
C12 C11 1_555 1_555
H6 C12 1_555 1_555
C13 C12 1_555 1_555
C14 C13 1_555 1_555
H7 C14 1_555 1_555
C15 C10 1_555 1_555
H8 C15 1_555 1_555
C3 C4 1_555 1_555
C7 C8 1_555 1_555
C14 C15 1_555 1_555

#END
