
#######################################################################
#
#                 Cambridge Crystallographic Data Centre
#                                CCDC 
#
#######################################################################
#
# If this CIF has been generated from an entry in the Cambridge 
# Structural Database, then it will include bibliographic, chemical, 
# crystal, experimental, refinement or atomic coordinate data resulting 
# from the CCDC's data processing and validation procedures.
#
#######################################################################

data_LEFYUS
_chemical_formula_moiety         'C5 H4 N2 O2,H2 O1'
_chemical_name_systematic        
'6-Oxo-1,6-dihydropyridazine-3-carbaldehyde monohydrate'
_symmetry_cell_setting           monoclinic
_symmetry_space_group_name_H-M   'P 21/c'
_symmetry_Int_Tables_number      14
_space_group_name_Hall           '-P 2ybc'
loop_
_symmetry_equiv_pos_site_id
_symmetry_equiv_pos_as_xyz
1 x,y,z
2 -x,1/2+y,1/2-z
3 -x,-y,-z
4 x,1/2-y,1/2+z
_cell_length_a                   8.978(2)
_cell_length_b                   6.4150(16)
_cell_length_c                   11.354(3)
_cell_angle_alpha                90
_cell_angle_beta                 101.696(3)
_cell_angle_gamma                90
_cell_volume                     640.343
_exptl_crystal_colour            colorless
_exptl_crystal_description       block
_cell_formula_units_Z            4
_exptl_crystal_recrystallization_method methanol
loop_
_atom_site_label
_atom_site_type_symbol
_atom_site_fract_x
_atom_site_fract_y
_atom_site_fract_z
N1 N 0.2572(2) 1.0090(3) 0.98272(18)
N2 N 0.1866(2) 0.9050(3) 1.05760(18)
H1 H 0.1462 0.9788 1.1061
O1 O 0.4654(3) 0.9374(4) 0.7609(2)
O2 O 0.0999(2) 0.6205(3) 1.13746(18)
C1 C 0.3210(3) 0.8957(4) 0.9111(2)
C2 C 0.3184(3) 0.6758(4) 0.9111(2)
H4 H 0.3661 0.6012 0.8590
C3 C 0.2468(3) 0.5760(4) 0.9866(2)
H5 H 0.2453 0.4311 0.9885
C4 C 0.1722(3) 0.6946(4) 1.0650(2)
C5 C 0.4022(3) 1.0224(4) 0.8288(2)
H6 H 0.4017 1.1673 0.8323
O3 O 0.0862(3) 0.2000(3) 0.19846(18)
H2 H 0.0911 0.3173 0.1755
H3 H 0.0389 0.1858 0.2485
loop_
_geom_bond_atom_site_label_1
_geom_bond_atom_site_label_2
_geom_bond_site_symmetry_1
_geom_bond_site_symmetry_2
N1 N2 1_555 1_555
N2 H1 1_555 1_555
O1 C5 1_555 1_555
O2 C4 1_555 1_555
O3 H2 1_555 1_555
H3 O3 1_555 1_555
C1 N1 1_555 1_555
C2 C1 1_555 1_555
H4 C2 1_555 1_555
C3 C2 1_555 1_555
H5 C3 1_555 1_555
C4 N2 1_555 1_555
C5 C1 1_555 1_555
H6 C5 1_555 1_555
C3 C4 1_555 1_555

#END
