
#######################################################################
#
#                 Cambridge Crystallographic Data Centre
#                                CCDC 
#
#######################################################################
#
# If this CIF has been generated from an entry in the Cambridge 
# Structural Database, then it will include bibliographic, chemical, 
# crystal, experimental, refinement or atomic coordinate data resulting 
# from the CCDC's data processing and validation procedures.
#
#######################################################################

data_LEFZUT
_chemical_formula_moiety         'C33 H50 O9'
_chemical_name_systematic        
9-Ethyl-13-hydroxy-14-methyl-2-((3,4,5-trimethoxy-6-methyltetrahydro-2H-pyran-2-yl)oxy)-2,3,3a,5a,5b,6,9,10,11,12,13,14,16a,16b-tetradecahydro-1H-as-indaceno[3,2-d]oxacyclododecine-7,15-dione
_symmetry_cell_setting           orthorhombic
_symmetry_space_group_name_H-M   'P 21 21 21'
_symmetry_Int_Tables_number      19
_space_group_name_Hall           'P 2ac 2ab'
loop_
_symmetry_equiv_pos_site_id
_symmetry_equiv_pos_as_xyz
1 x,y,z
2 1/2-x,-y,1/2+z
3 -x,1/2+y,1/2-z
4 1/2+x,1/2-y,-z
_cell_length_a                   8.7776(15)
_cell_length_b                   8.7959(15)
_cell_length_c                   41.737(7)
_cell_angle_alpha                90
_cell_angle_beta                 90
_cell_angle_gamma                90
_cell_volume                     3222.38
_exptl_crystal_colour            colorless
_exptl_crystal_description       platelet
_chemical_melting_point          '441-443 K'
_cell_formula_units_Z            4
_exptl_crystal_recrystallization_method ethanol
loop_
_atom_site_label
_atom_site_type_symbol
_atom_site_fract_x
_atom_site_fract_y
_atom_site_fract_z
O1 O 0.5636(3) 0.0686(2) 0.89590(4)
O2 O 0.5456(2) 0.04001(18) 0.94906(4)
O3 O -0.0506(2) 0.1699(2) 0.96650(5)
O4 O 0.3702(2) 0.4082(2) 0.96960(4)
O5 O 0.2851(2) 0.94913(19) 0.81098(4)
O6 O 0.2547(2) 1.3408(2) 0.78898(4)
O7 O 0.0084(3) 1.2315(2) 0.75097(5)
O8 O -0.1883(2) 1.1350(2) 0.80154(5)
O9 O 0.1799(2) 1.1452(2) 0.84138(4)
C1 C 0.3003(3) 0.7119(3) 0.84098(6)
H1 H 0.2102 0.7109 0.8553
H2 H 0.2732 0.6649 0.8202
C2 C 0.3627(3) 0.8721(3) 0.83662(6)
H3 H 0.3465 0.9303 0.8569
C3 C 0.5355(3) 0.8560(3) 0.83072(7)
H4 H 0.5623 0.8882 0.8087
H5 H 0.5940 0.9182 0.8462
C4 C 0.5683(3) 0.6857(3) 0.83553(6)
H6 H 0.5598 0.6341 0.8143
C5 C 0.7166(3) 0.6402(3) 0.85043(7)
H7 H 0.8054 0.6996 0.8468
C6 C 0.7238(3) 0.5161(3) 0.86879(6)
H8 H 0.8196 0.4910 0.8779
C7 C 0.5914(3) 0.4131(3) 0.87605(6)
H9 H 0.6175 0.3089 0.8681
C8 C 0.5579(3) 0.4018(3) 0.91260(6)
H10 H 0.5880 0.5004 0.9227
C9 C 0.6420(3) 0.2733(3) 0.93019(6)
H11 H 0.7513 0.2766 0.9243
H12 H 0.6345 0.2907 0.9536
C10 C 0.5798(3) 0.1174(3) 0.92253(6)
C11 C 0.5017(3) -0.1199(3) 0.94565(7)
H13 H 0.4991 -0.1471 0.9224
C12 C 0.3448(4) -0.1438(3) 0.95999(9)
H14 H 0.3546 -0.1466 0.9836
H15 H 0.3063 -0.2442 0.9530
C13 C 0.2249(4) -0.0210(3) 0.95098(8)
H16 H 0.2574 0.0328 0.9313
H17 H 0.1254 -0.0701 0.9467
C14 C 0.2085(3) 0.0922(3) 0.97844(7)
H18 H 0.1735 0.0361 0.9976
H19 H 0.3107 0.1338 0.9834
C15 C 0.1004(3) 0.2250(3) 0.97290(6)
H20 H 0.0975 0.2888 0.9927
C16 C 0.1391(3) 0.3263(3) 0.94464(6)
H21 H 0.1169 0.2696 0.9244
C17 C 0.3045(3) 0.3737(3) 0.94445(6)
C18 C 0.3866(3) 0.3896(3) 0.91396(6)
C19 C 0.3231(3) 0.4125(3) 0.88526(6)
H22 H 0.2176 0.3998 0.8809
C20 C 0.4377(3) 0.4603(3) 0.86074(6)
H23 H 0.4207 0.4068 0.8399
C21 C 0.4360(3) 0.6331(3) 0.85635(6)
H24 H 0.4505 0.6794 0.8780
C22 C 0.2789(3) 1.1066(3) 0.81606(6)
H25 H 0.3835 1.1431 0.8216
C23 C 0.2305(3) 1.1817(3) 0.78489(6)
H26 H 0.2956 1.1435 0.7670
C24 C 0.0631(3) 1.1468(3) 0.77771(6)
H27 H 0.0529 1.0360 0.7729
C25 C -0.0359(3) 1.1844(3) 0.80648(6)
H28 H -0.0345 1.2965 0.8104
C26 C 0.0250(3) 1.1013(3) 0.83596(6)
H29 H 0.0209 0.9892 0.8320
C27 C 0.6240(4) -0.2127(3) 0.96221(7)
H30 H 0.6335 -0.1777 0.9847
H31 H 0.5920 -0.3206 0.9627
C28 C 0.7782(4) -0.2017(4) 0.94616(9)
H32 H 0.8121 -0.0955 0.9461
H33 H 0.7703 -0.2382 0.9240
H34 H 0.8519 -0.2641 0.9579
C29 C 0.0413(3) 0.4720(3) 0.94530(8)
H35 H 0.0594 0.5308 0.9257
H36 H 0.0690 0.5333 0.9640
H37 H -0.0667 0.4444 0.9466
C30 C 0.3124(4) 1.4170(4) 0.76164(8)
H38 H 0.2365 1.4139 0.7444
H39 H 0.4061 1.3668 0.7545
H40 H 0.3347 1.5230 0.7671
C31 C 0.0420(4) 1.1631(4) 0.72113(7)
H41 H -0.0006 1.0601 0.7206
H42 H 0.1527 1.1580 0.7183
H43 H -0.0029 1.2237 0.7038
C32 C -0.2890(4) 1.2497(4) 0.79068(8)
H44 H -0.2558 1.2859 0.7696
H45 H -0.2886 1.3346 0.8059
H46 H -0.3922 1.2080 0.7890
C33 C -0.0613(4) 1.1369(4) 0.86623(7)
H47 H -0.0567 1.2464 0.8704
H48 H -0.0154 1.0817 0.8842
H49 H -0.1678 1.1056 0.8638
H50 H -0.083(4) 0.123(4) 0.9849(8)
loop_
_geom_bond_atom_site_label_1
_geom_bond_atom_site_label_2
_geom_bond_site_symmetry_1
_geom_bond_site_symmetry_2
O1 C10 1_555 1_555
O2 C10 1_555 1_555
O3 C15 1_555 1_555
O4 C17 1_555 1_555
O5 C2 1_555 1_555
O6 C23 1_555 1_555
O7 C24 1_555 1_555
O8 C25 1_555 1_555
O9 C22 1_555 1_555
C1 H1 1_555 1_555
H2 C1 1_555 1_555
C2 C1 1_555 1_555
H3 C2 1_555 1_555
C3 C2 1_555 1_555
H4 C3 1_555 1_555
H5 C3 1_555 1_555
C4 C3 1_555 1_555
H6 C4 1_555 1_555
C5 C4 1_555 1_555
H7 C5 1_555 1_555
C6 C5 1_555 1_555
H8 C6 1_555 1_555
C7 C6 1_555 1_555
H9 C7 1_555 1_555
C8 C7 1_555 1_555
H10 C8 1_555 1_555
C9 C8 1_555 1_555
H11 C9 1_555 1_555
H12 C9 1_555 1_555
C10 C9 1_555 1_555
C11 O2 1_555 1_555
H13 C11 1_555 1_555
C12 C11 1_555 1_555
H14 C12 1_555 1_555
H15 C12 1_555 1_555
C13 C12 1_555 1_555
H16 C13 1_555 1_555
H17 C13 1_555 1_555
C14 C13 1_555 1_555
H18 C14 1_555 1_555
H19 C14 1_555 1_555
C15 C14 1_555 1_555
H20 C15 1_555 1_555
C16 C15 1_555 1_555
H21 C16 1_555 1_555
C17 C16 1_555 1_555
C18 C8 1_555 1_555
C19 C18 1_555 1_555
H22 C19 1_555 1_555
C20 C7 1_555 1_555
H23 C20 1_555 1_555
C21 C1 1_555 1_555
H24 C21 1_555 1_555
C22 O5 1_555 1_555
H25 C22 1_555 1_555
C23 C22 1_555 1_555
H26 C23 1_555 1_555
C24 C23 1_555 1_555
H27 C24 1_555 1_555
C25 C24 1_555 1_555
H28 C25 1_555 1_555
C26 O9 1_555 1_555
H29 C26 1_555 1_555
C27 C11 1_555 1_555
H30 C27 1_555 1_555
H31 C27 1_555 1_555
C28 C27 1_555 1_555
H32 C28 1_555 1_555
H33 C28 1_555 1_555
H34 C28 1_555 1_555
C29 C16 1_555 1_555
H35 C29 1_555 1_555
H36 C29 1_555 1_555
H37 C29 1_555 1_555
C30 O6 1_555 1_555
H38 C30 1_555 1_555
H39 C30 1_555 1_555
H40 C30 1_555 1_555
C31 O7 1_555 1_555
H41 C31 1_555 1_555
H42 C31 1_555 1_555
H43 C31 1_555 1_555
C32 O8 1_555 1_555
H44 C32 1_555 1_555
H45 C32 1_555 1_555
H46 C32 1_555 1_555
C33 C26 1_555 1_555
H47 C33 1_555 1_555
H48 C33 1_555 1_555
H49 C33 1_555 1_555
H50 O3 1_555 1_555
C4 C21 1_555 1_555
C17 C18 1_555 1_555
C19 C20 1_555 1_555
C20 C21 1_555 1_555
C25 C26 1_555 1_555

#END
