
#######################################################################
#
#                 Cambridge Crystallographic Data Centre
#                                CCDC 
#
#######################################################################
#
# If this CIF has been generated from an entry in the Cambridge 
# Structural Database, then it will include bibliographic, chemical, 
# crystal, experimental, refinement or atomic coordinate data resulting 
# from the CCDC's data processing and validation procedures.
#
#######################################################################

data_LEGCOS
_chemical_formula_moiety         'C27 H14 N2 O6,2(C2 H6 O1 S1)'
_chemical_name_systematic        
"4H,6H,8H,13H,15H,17H-9,18-methanobispyrano[3',4',5':4,5]naphtho[1,2-b:1',2'-f][1,5]diazocine-4,6,13,15-tetrone dimethyl sulfoxide solvate"
_symmetry_cell_setting           monoclinic
_symmetry_space_group_name_H-M   'C 2/c'
_symmetry_Int_Tables_number      15
_space_group_name_Hall           '-C 2yn'
loop_
_symmetry_equiv_pos_site_id
_symmetry_equiv_pos_as_xyz
1 x,y,z
2 -x,y,1/2-z
3 1/2+x,1/2+y,z
4 1/2-x,1/2+y,1/2-z
5 -x,-y,-z
6 x,-y,1/2+z
7 1/2-x,1/2-y,-z
8 1/2+x,1/2-y,1/2+z
_cell_length_a                   17.102(7)
_cell_length_b                   8.688(3)
_cell_length_c                   18.461(8)
_cell_angle_alpha                90
_cell_angle_beta                 98.011(7)
_cell_angle_gamma                90
_cell_volume                     2716.21
_exptl_crystal_colour            yellow
_exptl_crystal_description       rod
_cell_formula_units_Z            4
loop_
_atom_site_label
_atom_site_type_symbol
_atom_site_fract_x
_atom_site_fract_y
_atom_site_fract_z
O1 O 0.67139(13) 0.8355(2) 0.55048(11)
N1 N 0.44379(11) 0.3743(2) 0.70199(10)
C1 C 0.48135(18) 0.8316(3) 0.45020(13)
O2 O 0.56001(13) 0.8628(2) 0.47535(9)
C2 C 0.43935(16) 0.7229(3) 0.49251(12)
O3 O 0.45319(15) 0.8971(2) 0.39535(9)
C3 C 0.36086(17) 0.6882(3) 0.46959(12)
H1 H 0.3335 0.7358 0.4271
C4 C 0.32188(16) 0.5824(3) 0.50949(13)
H2 H 0.2681 0.5576 0.4936
C5 C 0.36113(14) 0.5138(3) 0.57189(12)
H3 H 0.3341 0.4415 0.5980
C6 C 0.44084(14) 0.5497(2) 0.59731(12)
C7 C 0.48392(13) 0.4815(2) 0.66180(11)
C8 C 0.56319(14) 0.5171(2) 0.68286(12)
C9 C 0.60112(14) 0.6213(2) 0.64137(13)
H4 H 0.6552 0.6452 0.6562
C10 C 0.56173(15) 0.6896(2) 0.57950(12)
C11 C 0.60376(17) 0.7974(3) 0.53735(13)
C12 C 0.48097(15) 0.6555(2) 0.55642(12)
C13 C 0.5000 0.2801(3) 0.7500
H5 H 0.5293 0.2131 0.7198
C14 C 0.39066(13) 0.4494(3) 0.74816(12)
H6 H 0.3524 0.3729 0.7618
H7 H 0.3606 0.5322 0.7199
H5A H 0.4707 0.2131 0.7802
O1A O 0.32861(13) 0.8355(2) 0.94952(11)
N1A N 0.55621(11) 0.3743(2) 0.79801(10)
C1A C 0.51865(18) 0.8316(3) 1.04980(13)
O2A O 0.43999(13) 0.8628(2) 1.02465(9)
C2A C 0.56065(16) 0.7229(3) 1.00749(12)
O3A O 0.54681(15) 0.8971(2) 1.10465(9)
C3A C 0.63914(17) 0.6882(3) 1.03041(12)
H1A H 0.6665 0.7358 1.0729
C4A C 0.67812(16) 0.5824(3) 0.99051(13)
H2A H 0.7319 0.5576 1.0064
C5A C 0.63887(14) 0.5138(3) 0.92811(12)
H3A H 0.6659 0.4415 0.9020
C6A C 0.55916(14) 0.5497(2) 0.90269(12)
C7A C 0.51608(13) 0.4815(2) 0.83820(11)
C8A C 0.43681(14) 0.5171(2) 0.81714(12)
C9A C 0.39888(14) 0.6213(2) 0.85863(13)
H4A H 0.3448 0.6452 0.8438
C10A C 0.43827(15) 0.6896(2) 0.92050(12)
C11A C 0.39624(17) 0.7974(3) 0.96265(13)
C12A C 0.51903(15) 0.6555(2) 0.94358(12)
C14A C 0.60934(13) 0.4494(3) 0.75184(12)
H6A H 0.6476 0.3729 0.7382
H7A H 0.6394 0.5322 0.7801
S1 S 0.34296(6) -0.11829(14) 0.65381(6)
O4 O 0.2863(6) -0.2123(9) 0.6916(8)
C15 C 0.3194(3) 0.0809(5) 0.6610(3)
H9 H 0.2746 0.1068 0.6239
H10 H 0.3652 0.1434 0.6531
H11 H 0.3056 0.1017 0.7098
C16 C 0.4322(3) -0.1143(5) 0.7176(2)
H12 H 0.4219 -0.0654 0.7632
H13 H 0.4726 -0.0555 0.6967
H14 H 0.4509 -0.2197 0.7278
H8? H 0.5293 0.2131 0.7198
S2? S 0.28972(14) -0.0814(3) 0.69193(13)
S3? S 0.34080(12) -0.1456(2) 0.70896(12)
O5? O 0.2747(11) -0.2520(13) 0.6924(14)
O6? O 0.2611(6) -0.2120(18) 0.6826(10)
C17? C 0.325(3) -0.009(6) 0.7775(18)
H15? H 0.2902 0.0731 0.7553
H16? H 0.3752 0.0341 0.7995
H17? H 0.2992 -0.0608 0.8154
C18? C 0.3736(9) -0.040(4) 0.6485(15)
H18? H 0.3781 0.0717 0.6425
H19? H 0.3678 -0.0897 0.6005
H20? H 0.4212 -0.0788 0.6787
C19? C 0.3483(11) -0.009(3) 0.6394(15)
H21? H 0.3619 -0.0611 0.5959
H22? H 0.3895 0.0663 0.6567
H23? H 0.2976 0.0444 0.6272
C20? C 0.326(3) -0.022(6) 0.7827(17)
H24? H 0.3787 -0.0665 0.7974
H25? H 0.2902 -0.0569 0.8161
H26? H 0.3300 0.0907 0.7844
loop_
_geom_bond_atom_site_label_1
_geom_bond_atom_site_label_2
_geom_bond_site_symmetry_1
_geom_bond_site_symmetry_2
O1 C11 1_555 1_555
N1 C7 1_555 1_555
C1 O2 1_555 1_555
O2 C11 1_555 1_555
C2 C1 1_555 1_555
O3 C1 1_555 1_555
C3 C2 1_555 1_555
H1 C3 1_555 1_555
C4 C3 1_555 1_555
H2 C4 1_555 1_555
C5 C4 1_555 1_555
H3 C5 1_555 1_555
C6 C5 1_555 1_555
C7 C6 1_555 1_555
C8 C7 1_555 1_555
C9 C8 1_555 1_555
H4 C9 1_555 1_555
C10 C9 1_555 1_555
C11 C10 1_555 1_555
C12 C2 1_555 1_555
C13 N1 1_555 1_555
H5 C13 1_555 1_555
C14 N1 1_555 1_555
H6 C14 1_555 1_555
H7 C14 1_555 1_555
S1 O4 1_555 1_555
C15 S1 1_555 1_555
H9 C15 1_555 1_555
H10 C15 1_555 1_555
H11 C15 1_555 1_555
C16 S1 1_555 1_555
H12 C16 1_555 1_555
H13 C16 1_555 1_555
H14 C16 1_555 1_555
H5A C13 1_555 1_555
O1A C11A 1_555 1_555
N1A C13 1_555 1_555
C1A O2A 1_555 1_555
O2A C11A 1_555 1_555
C2A C1A 1_555 1_555
O3A C1A 1_555 1_555
C3A C2A 1_555 1_555
H1A C3A 1_555 1_555
C4A C3A 1_555 1_555
H2A C4A 1_555 1_555
C5A C4A 1_555 1_555
H3A C5A 1_555 1_555
C6A C5A 1_555 1_555
C7A N1A 1_555 1_555
C8A C14 1_555 1_555
C9A C8A 1_555 1_555
H4A C9A 1_555 1_555
C10A C9A 1_555 1_555
C11A C10A 1_555 1_555
C12A C2A 1_555 1_555
C14A C8 1_555 1_555
H6A C14A 1_555 1_555
H7A C14A 1_555 1_555
C6 C12 1_555 1_555
C10 C12 1_555 1_555
N1A C14A 1_555 1_555
C6A C7A 1_555 1_555
C6A C12A 1_555 1_555
C7A C8A 1_555 1_555
C10A C12A 1_555 1_555

#END
