
#######################################################################
#
#                 Cambridge Crystallographic Data Centre
#                                CCDC 
#
#######################################################################
#
# If this CIF has been generated from an entry in the Cambridge 
# Structural Database, then it will include bibliographic, chemical, 
# crystal, experimental, refinement or atomic coordinate data resulting 
# from the CCDC's data processing and validation procedures.
#
#######################################################################

data_LEGHUD
_chemical_formula_moiety         'C28 H18 B2 Br2'
_chemical_name_systematic        1,2-bis(anthracen-9-yl)-1,2-dibromodiborane
_symmetry_cell_setting           orthorhombic
_symmetry_space_group_name_H-M   'P b c a'
_symmetry_Int_Tables_number      61
_space_group_name_Hall           '-P 2ac 2ab'
loop_
_symmetry_equiv_pos_site_id
_symmetry_equiv_pos_as_xyz
1 x,y,z
2 1/2-x,-y,1/2+z
3 -x,1/2+y,1/2-z
4 1/2+x,1/2-y,-z
5 -x,-y,-z
6 1/2+x,y,1/2-z
7 x,1/2-y,1/2+z
8 1/2-x,1/2+y,z
_cell_length_a                   10.140(3)
_cell_length_b                   19.553(5)
_cell_length_c                   22.808(6)
_cell_angle_alpha                90
_cell_angle_beta                 90
_cell_angle_gamma                90
_cell_volume                     4522.08
_exptl_crystal_colour            yellow
_exptl_crystal_description       block
_cell_formula_units_Z            8
_chemical_properties_physical    'air- and moisture-sensitive'
loop_
_atom_site_label
_atom_site_type_symbol
_atom_site_fract_x
_atom_site_fract_y
_atom_site_fract_z
C1 C 0.6916(5) 0.6724(3) 0.5376(2)
C2 C 0.6682(5) 0.7433(3) 0.5378(3)
C3 C 0.5908(5) 0.7759(3) 0.4938(3)
H1 H 0.5548 0.7492 0.4630
C4 C 0.5675(5) 0.8439(3) 0.4950(3)
H2 H 0.5165 0.8644 0.4648
C5 C 0.6190(5) 0.8850(3) 0.5413(3)
H3 H 0.6001 0.9326 0.5426
C6 C 0.6943(5) 0.8563(3) 0.5828(3)
H4 H 0.7291 0.8841 0.6132
C7 C 0.7231(5) 0.7857(3) 0.5825(3)
C8 C 0.8079(6) 0.7565(3) 0.6237(2)
H5 H 0.8483 0.7848 0.6524
C9 C 0.8339(5) 0.6869(3) 0.6236(2)
C10 C 0.9231(5) 0.6566(3) 0.6651(3)
H6 H 0.9678 0.6849 0.6925
C11 C 0.9441(6) 0.5890(3) 0.6657(3)
H7 H 1.0040 0.5704 0.6935
C12 C 0.8789(5) 0.5447(3) 0.6259(3)
H8 H 0.8926 0.4966 0.6278
C13 C 0.7964(6) 0.5721(3) 0.5851(3)
H9 H 0.7536 0.5423 0.5582
C14 C 0.7718(5) 0.6435(3) 0.5810(2)
C15 C 0.6541(5) 0.6332(3) 0.3644(3)
C16 C 0.5653(5) 0.6014(3) 0.3254(3)
C17 C 0.4975(5) 0.5405(3) 0.3389(3)
H10 H 0.5133 0.5190 0.3756
C18 C 0.4103(5) 0.5114(4) 0.3011(3)
H11 H 0.3680 0.4696 0.3110
C19 C 0.3829(6) 0.5441(4) 0.2469(3)
H12 H 0.3204 0.5243 0.2209
C20 C 0.4439(6) 0.6027(3) 0.2315(3)
H13 H 0.4255 0.6233 0.1947
C21 C 0.5353(6) 0.6337(3) 0.2704(3)
C22 C 0.5958(6) 0.6946(4) 0.2562(3)
H14 H 0.5767 0.7152 0.2195
C23 C 0.6844(6) 0.7272(3) 0.2942(3)
C24 C 0.7446(6) 0.7908(3) 0.2802(3)
H15 H 0.7227 0.8129 0.2444
C25 C 0.8332(6) 0.8205(3) 0.3171(3)
H16 H 0.8724 0.8631 0.3073
C26 C 0.8661(6) 0.7875(3) 0.3700(3)
H17 H 0.9299 0.8076 0.3952
C27 C 0.8089(6) 0.7279(3) 0.3856(3)
H18 H 0.8328 0.7072 0.4217
C28 C 0.7138(6) 0.6955(3) 0.3492(3)
B1 B 0.6307(6) 0.6260(3) 0.4898(3)
B2 B 0.6880(6) 0.6007(3) 0.4247(3)
Br1 Br 0.45521(6) 0.59179(3) 0.50278(3)
Br2 Br 0.79817(6) 0.51997(3) 0.42484(3)
loop_
_geom_bond_atom_site_label_1
_geom_bond_atom_site_label_2
_geom_bond_site_symmetry_1
_geom_bond_site_symmetry_2
C1 C2 1_555 1_555
C2 C3 1_555 1_555
C3 H1 1_555 1_555
C4 C3 1_555 1_555
H2 C4 1_555 1_555
C5 C4 1_555 1_555
H3 C5 1_555 1_555
C6 C5 1_555 1_555
H4 C6 1_555 1_555
C7 C2 1_555 1_555
C8 C7 1_555 1_555
H5 C8 1_555 1_555
C9 C8 1_555 1_555
C10 C9 1_555 1_555
H6 C10 1_555 1_555
C11 C10 1_555 1_555
H7 C11 1_555 1_555
C12 C11 1_555 1_555
H8 C12 1_555 1_555
C13 C12 1_555 1_555
H9 C13 1_555 1_555
C14 C1 1_555 1_555
C15 C16 1_555 1_555
C16 C17 1_555 1_555
C17 H10 1_555 1_555
C18 C17 1_555 1_555
H11 C18 1_555 1_555
C19 C18 1_555 1_555
H12 C19 1_555 1_555
C20 C19 1_555 1_555
H13 C20 1_555 1_555
C21 C16 1_555 1_555
C22 C21 1_555 1_555
H14 C22 1_555 1_555
C23 C22 1_555 1_555
C24 C23 1_555 1_555
H15 C24 1_555 1_555
C25 C24 1_555 1_555
H16 C25 1_555 1_555
C26 C25 1_555 1_555
H17 C26 1_555 1_555
C27 C26 1_555 1_555
H18 C27 1_555 1_555
C28 C15 1_555 1_555
B1 C1 1_555 1_555
B2 C15 1_555 1_555
Br1 B1 1_555 1_555
Br2 B2 1_555 1_555
C6 C7 1_555 1_555
C9 C14 1_555 1_555
C13 C14 1_555 1_555
C20 C21 1_555 1_555
C23 C28 1_555 1_555
C27 C28 1_555 1_555
B1 B2 1_555 1_555

#END
