
#######################################################################
#
#                 Cambridge Crystallographic Data Centre
#                                CCDC 
#
#######################################################################
#
# If this CIF has been generated from an entry in the Cambridge 
# Structural Database, then it will include bibliographic, chemical, 
# crystal, experimental, refinement or atomic coordinate data resulting 
# from the CCDC's data processing and validation procedures.
#
#######################################################################

data_LEGHOX
_chemical_formula_moiety         'C30 H24 B2 O2'
_chemical_name_systematic        1,2-bis(anthracen-9-yl)-1,2-dimethoxydiborane
_symmetry_cell_setting           monoclinic
_symmetry_space_group_name_H-M   'P 21/n'
_symmetry_Int_Tables_number      14
_space_group_name_Hall           '-P 2yn'
loop_
_symmetry_equiv_pos_site_id
_symmetry_equiv_pos_as_xyz
1 x,y,z
2 1/2-x,1/2+y,1/2-z
3 -x,-y,-z
4 1/2+x,1/2-y,1/2+z
_cell_length_a                   12.314(5)
_cell_length_b                   8.316(3)
_cell_length_c                   22.256(8)
_cell_angle_alpha                90
_cell_angle_beta                 94.21(2)
_cell_angle_gamma                90
_cell_volume                     2272.94
_exptl_crystal_colour            colorless
_exptl_crystal_description       plate
_cell_formula_units_Z            4
_chemical_properties_physical    ', Moisture-sensitive'
loop_
_atom_site_label
_atom_site_type_symbol
_atom_site_fract_x
_atom_site_fract_y
_atom_site_fract_z
O1 O 0.59709(15) 0.5422(2) 0.43532(7)
O2 O 0.54243(15) 0.1640(2) 0.35685(7)
C1 C 0.7462(2) 0.3280(3) 0.44775(10)
C2 C 0.8515(2) 0.3747(3) 0.43335(10)
C3 C 0.8663(2) 0.4940(3) 0.38851(11)
H1 H 0.8044 0.5404 0.3672
C4 C 0.9678(3) 0.5421(4) 0.37588(13)
H2 H 0.9761 0.6220 0.3460
C5 C 1.0607(3) 0.4740(4) 0.40684(14)
H3 H 1.1310 0.5090 0.3978
C6 C 1.0510(2) 0.3589(4) 0.44953(13)
H4 H 1.1144 0.3143 0.4699
C7 C 0.9456(2) 0.3046(4) 0.46394(11)
C8 C 0.9336(2) 0.1887(4) 0.50814(12)
H5 H 0.9967 0.1424 0.5284
C9 C 0.8315(2) 0.1396(4) 0.52322(10)
C10 C 0.8179(3) 0.0223(4) 0.56897(11)
H6 H 0.8802 -0.0244 0.5898
C11 C 0.7170(3) -0.0233(4) 0.58310(12)
H7 H 0.7097 -0.1015 0.6137
C12 C 0.6230(3) 0.0437(4) 0.55316(11)
H8 H 0.5529 0.0104 0.5635
C13 C 0.6324(2) 0.1565(3) 0.50922(11)
H9 H 0.5683 0.2008 0.4893
C14 C 0.7369(2) 0.2096(3) 0.49260(10)
C15 C 0.5469(2) 0.4201(3) 0.29264(10)
C16 C 0.6172(2) 0.4057(3) 0.24496(10)
C17 C 0.7091(2) 0.3018(3) 0.24921(10)
H10 H 0.7227 0.2370 0.2841
C18 C 0.7785(2) 0.2932(3) 0.20405(11)
H11 H 0.8401 0.2241 0.2081
C19 C 0.7588(2) 0.3871(3) 0.15124(11)
H12 H 0.8070 0.3796 0.1199
C20 C 0.6717(2) 0.4878(3) 0.14481(10)
H13 H 0.6592 0.5485 0.1088
C21 C 0.5982(2) 0.5034(3) 0.19201(10)
C22 C 0.5130(2) 0.6115(3) 0.18783(10)
H14 H 0.5021 0.6765 0.1528
C23 C 0.4423(2) 0.6280(3) 0.23373(10)
C24 C 0.3539(2) 0.7393(3) 0.22986(11)
H15 H 0.3407 0.8020 0.1944
C25 C 0.2881(2) 0.7575(4) 0.27605(12)
H16 H 0.2301 0.8329 0.2729
C26 C 0.3067(2) 0.6633(4) 0.32881(12)
H17 H 0.2608 0.6766 0.3609
C27 C 0.3887(2) 0.5544(3) 0.33431(10)
H18 H 0.3990 0.4927 0.3702
C28 C 0.4606(2) 0.5301(3) 0.28706(10)
C29 C 0.6440(3) 0.6266(4) 0.48733(12)
H19 H 0.6591 0.7381 0.4764
H20 H 0.7121 0.5739 0.5020
H21 H 0.5929 0.6253 0.5191
C30 C 0.4895(2) 0.0763(4) 0.30709(11)
H22 H 0.4580 -0.0229 0.3220
H23 H 0.5429 0.0496 0.2781
H24 H 0.4316 0.1426 0.2873
B1 B 0.6401(2) 0.4037(4) 0.41524(11)
B2 B 0.5718(2) 0.3201(4) 0.35251(12)
loop_
_geom_bond_atom_site_label_1
_geom_bond_atom_site_label_2
_geom_bond_site_symmetry_1
_geom_bond_site_symmetry_2
O1 C29 1_555 1_555
O2 C30 1_555 1_555
C1 C2 1_555 1_555
C2 C3 1_555 1_555
C3 H1 1_555 1_555
C4 C3 1_555 1_555
H2 C4 1_555 1_555
C5 C4 1_555 1_555
H3 C5 1_555 1_555
C6 C5 1_555 1_555
H4 C6 1_555 1_555
C7 C2 1_555 1_555
C8 C7 1_555 1_555
H5 C8 1_555 1_555
C9 C8 1_555 1_555
C10 C9 1_555 1_555
H6 C10 1_555 1_555
C11 C10 1_555 1_555
H7 C11 1_555 1_555
C12 C11 1_555 1_555
H8 C12 1_555 1_555
C13 C12 1_555 1_555
H9 C13 1_555 1_555
C14 C1 1_555 1_555
C15 C16 1_555 1_555
C16 C17 1_555 1_555
C17 H10 1_555 1_555
C18 C17 1_555 1_555
H11 C18 1_555 1_555
C19 C18 1_555 1_555
H12 C19 1_555 1_555
C20 C19 1_555 1_555
H13 C20 1_555 1_555
C21 C16 1_555 1_555
C22 C21 1_555 1_555
H14 C22 1_555 1_555
C23 C22 1_555 1_555
C24 C23 1_555 1_555
H15 C24 1_555 1_555
C25 C24 1_555 1_555
H16 C25 1_555 1_555
C26 C25 1_555 1_555
H17 C26 1_555 1_555
C27 C26 1_555 1_555
H18 C27 1_555 1_555
C28 C15 1_555 1_555
C29 H19 1_555 1_555
H20 C29 1_555 1_555
H21 C29 1_555 1_555
C30 H22 1_555 1_555
H23 C30 1_555 1_555
H24 C30 1_555 1_555
B1 O1 1_555 1_555
B2 O2 1_555 1_555
C1 B1 1_555 1_555
C6 C7 1_555 1_555
C9 C14 1_555 1_555
C13 C14 1_555 1_555
C15 B2 1_555 1_555
C20 C21 1_555 1_555
C23 C28 1_555 1_555
C27 C28 1_555 1_555
B1 B2 1_555 1_555

#END
