
#######################################################################
#
#                 Cambridge Crystallographic Data Centre
#                                CCDC 
#
#######################################################################
#
# If this CIF has been generated from an entry in the Cambridge 
# Structural Database, then it will include bibliographic, chemical, 
# crystal, experimental, refinement or atomic coordinate data resulting 
# from the CCDC's data processing and validation procedures.
#
#######################################################################

data_LEGJAJ
_chemical_formula_moiety         'C39 H42 O6'
_chemical_name_systematic        
2,7-bis(3,4,5-Trimethoxyphenylethenyl)-9,9-diethyl-9H-fluorene
_symmetry_cell_setting           orthorhombic
_symmetry_space_group_name_H-M   'P n m a'
_symmetry_Int_Tables_number      62
_space_group_name_Hall           '-P 2ac 2n'
loop_
_symmetry_equiv_pos_site_id
_symmetry_equiv_pos_as_xyz
1 x,y,z
2 1/2-x,-y,1/2+z
3 1/2+x,1/2-y,1/2-z
4 -x,1/2+y,-z
5 -x,-y,-z
6 1/2+x,y,1/2-z
7 1/2-x,1/2+y,1/2+z
8 x,1/2-y,z
_cell_length_a                   7.3474(2)
_cell_length_b                   28.7742(9)
_cell_length_c                   15.6631(4)
_cell_angle_alpha                90
_cell_angle_beta                 90
_cell_angle_gamma                90
_cell_volume                     3311.42
_exptl_crystal_colour            colorless
_exptl_crystal_description       needle
_chemical_melting_point          215-215.5deg.C
_cell_formula_units_Z            4
_exptl_crystal_recrystallization_method ethanol/tetrahydrofuran
_exptl_crystal_preparation       luminescent
loop_
_atom_site_label
_atom_site_type_symbol
_atom_site_fract_x
_atom_site_fract_y
_atom_site_fract_z
O1 O 0.1386(5) 0.39611(13) 0.8003(3)
O2 O 0.1021(5) 0.35720(13) 0.6465(3)
O3 O 0.1533(6) 0.40619(14) 0.5053(3)
C1 C 0.2147(7) 0.47069(19) 0.7394(4)
H1 H 0.2304 0.4840 0.7930
C2 C 0.1682(7) 0.42423(19) 0.7316(4)
C3 C 0.1495(7) 0.40319(19) 0.6527(5)
C4 C 0.1729(7) 0.4298(2) 0.5802(4)
C5 C 0.2136(7) 0.47719(18) 0.5854(4)
H2 H 0.2246 0.4952 0.5363
C6 C 0.2374(8) 0.49695(19) 0.6665(4)
C7 C 0.2833(8) 0.54755(19) 0.6753(4)
H3 H 0.3368 0.5565 0.7265
C8 C 0.2563(7) 0.58060(19) 0.6189(4)
H4 H 0.2047 0.5716 0.5672
C9 C 0.2987(7) 0.62993(16) 0.6284(4)
C10 C 0.2114(7) 0.66200(17) 0.5766(3)
H5 H 0.1311 0.6520 0.5345
C11 C 0.2444(7) 0.70903(17) 0.5877(3)
C12 C 0.3659(7) 0.72430(16) 0.6498(3)
C13 C 0.4583(7) 0.69275(19) 0.7001(3)
H6 H 0.5420 0.7028 0.7406
C14 C 0.4240(7) 0.64574(18) 0.6891(4)
H7 H 0.4855 0.6243 0.7228
C15 C 0.1615(12) 0.7500 0.5405(6)
C16 C 0.1629(9) 0.4149(2) 0.8837(4)
H8 H 0.1361 0.3915 0.9255
H9 H 0.0824 0.4409 0.8914
H10 H 0.2866 0.4251 0.8903
C17 C 0.2426(11) 0.3257(2) 0.6672(6)
H11 H 0.1980 0.2945 0.6622
H12 H 0.2826 0.3312 0.7246
H13 H 0.3429 0.3301 0.6287
C18 C 0.2183(10) 0.4260(3) 0.4299(5)
H14 H 0.1962 0.4052 0.3831
H15 H 0.3467 0.4315 0.4350
H16 H 0.1567 0.4549 0.4197
C19 C 0.186(3) 0.7500 0.4467(7)
C20 C 0.364(2) 0.7500 0.4224(9)
C21 C -0.016(3) 0.7500 0.5185(14)
C22 C -0.0973(17) 0.7500 0.5821(8)
O1G O 0.1386(5) 1.10389(13) 0.8003(3)
O2G O 0.1021(5) 1.14280(13) 0.6465(3)
O3G O 0.1533(6) 1.09381(14) 0.5053(3)
C1G C 0.2147(7) 1.02931(19) 0.7394(4)
H1G H 0.2304 1.0160 0.7930
C2G C 0.1682(7) 1.07577(19) 0.7316(4)
C3G C 0.1495(7) 1.09681(19) 0.6527(5)
C4G C 0.1729(7) 1.0702(2) 0.5802(4)
C5G C 0.2136(7) 1.02281(18) 0.5854(4)
H2G H 0.2246 1.0048 0.5363
C6G C 0.2374(8) 1.00305(19) 0.6665(4)
C7G C 0.2833(8) 0.95245(19) 0.6753(4)
H3G H 0.3368 0.9435 0.7265
C8G C 0.2563(7) 0.91940(19) 0.6189(4)
H4G H 0.2047 0.9284 0.5672
C9G C 0.2987(7) 0.87007(16) 0.6284(4)
C10G C 0.2114(7) 0.83800(17) 0.5766(3)
H5G H 0.1311 0.8480 0.5345
C11G C 0.2444(7) 0.79097(17) 0.5877(3)
C12G C 0.3659(7) 0.77570(16) 0.6498(3)
C13G C 0.4583(7) 0.80725(19) 0.7001(3)
H6G H 0.5420 0.7972 0.7406
C14G C 0.4240(7) 0.85426(18) 0.6891(4)
H7G H 0.4855 0.8757 0.7228
C16G C 0.1629(9) 1.0851(2) 0.8837(4)
H8G H 0.1361 1.1085 0.9255
H9G H 0.0824 1.0591 0.8914
H10G H 0.2866 1.0749 0.8903
C17G C 0.2426(11) 1.1743(2) 0.6672(6)
H11G H 0.1980 1.2055 0.6622
H12G H 0.2826 1.1688 0.7246
H13G H 0.3429 1.1699 0.6287
C18G C 0.2183(10) 1.0740(3) 0.4299(5)
H14G H 0.1962 1.0948 0.3831
H15G H 0.3467 1.0685 0.4350
H16G H 0.1567 1.0451 0.4197
C23? C -0.182(3) 0.7143(7) 0.5446(14)
loop_
_geom_bond_atom_site_label_1
_geom_bond_atom_site_label_2
_geom_bond_site_symmetry_1
_geom_bond_site_symmetry_2
O1 C2 1_555 1_555
O2 C3 1_555 1_555
O3 C4 1_555 1_555
C1 H1 1_555 1_555
C2 C1 1_555 1_555
C3 C2 1_555 1_555
C4 C3 1_555 1_555
C5 C4 1_555 1_555
H2 C5 1_555 1_555
C6 C1 1_555 1_555
C7 C6 1_555 1_555
H3 C7 1_555 1_555
C8 C7 1_555 1_555
H4 C8 1_555 1_555
C9 C8 1_555 1_555
C10 C9 1_555 1_555
H5 C10 1_555 1_555
C11 C10 1_555 1_555
C12 C11 1_555 1_555
C13 C12 1_555 1_555
H6 C13 1_555 1_555
C14 C9 1_555 1_555
H7 C14 1_555 1_555
C15 C11 1_555 1_555
C16 O1 1_555 1_555
H8 C16 1_555 1_555
H9 C16 1_555 1_555
H10 C16 1_555 1_555
C17 O2 1_555 1_555
H11 C17 1_555 1_555
H12 C17 1_555 1_555
H13 C17 1_555 1_555
C18 O3 1_555 1_555
H14 C18 1_555 1_555
H15 C18 1_555 1_555
H16 C18 1_555 1_555
C19 C15 1_555 1_555
C20 C19 1_555 1_555
C21 C15 1_555 1_555
C22 C21 1_555 1_555
O1G C2G 1_555 1_555
O2G C3G 1_555 1_555
O3G C4G 1_555 1_555
C1G H1G 1_555 1_555
C2G C1G 1_555 1_555
C3G C2G 1_555 1_555
C4G C3G 1_555 1_555
C5G C4G 1_555 1_555
H2G C5G 1_555 1_555
C6G C1G 1_555 1_555
C7G C6G 1_555 1_555
H3G C7G 1_555 1_555
C8G C7G 1_555 1_555
H4G C8G 1_555 1_555
C9G C8G 1_555 1_555
C10G C9G 1_555 1_555
H5G C10G 1_555 1_555
C11G C15 1_555 1_555
C12G C12 1_555 1_555
C13G C12G 1_555 1_555
H6G C13G 1_555 1_555
C14G C9G 1_555 1_555
H7G C14G 1_555 1_555
C16G O1G 1_555 1_555
H8G C16G 1_555 1_555
H9G C16G 1_555 1_555
H10G C16G 1_555 1_555
C17G O2G 1_555 1_555
H11G C17G 1_555 1_555
H12G C17G 1_555 1_555
H13G C17G 1_555 1_555
C18G O3G 1_555 1_555
H14G C18G 1_555 1_555
H15G C18G 1_555 1_555
H16G C18G 1_555 1_555
C5 C6 1_555 1_555
C13 C14 1_555 1_555
C5G C6G 1_555 1_555
C10G C11G 1_555 1_555
C11G C12G 1_555 1_555
C13G C14G 1_555 1_555

#END
