
#######################################################################
#
#                 Cambridge Crystallographic Data Centre
#                                CCDC 
#
#######################################################################
#
# If this CIF has been generated from an entry in the Cambridge 
# Structural Database, then it will include bibliographic, chemical, 
# crystal, experimental, refinement or atomic coordinate data resulting 
# from the CCDC's data processing and validation procedures.
#
#######################################################################

data_LEGKUF
_chemical_formula_moiety         'C27 H20 N2 O1'
_chemical_name_systematic        '6-[4-(Diphenylamino)phenyl]quinoline 1-oxide'
_symmetry_cell_setting           monoclinic
_symmetry_space_group_name_H-M   'P 21/c'
_symmetry_Int_Tables_number      14
_space_group_name_Hall           '-P 2ybc'
loop_
_symmetry_equiv_pos_site_id
_symmetry_equiv_pos_as_xyz
1 x,y,z
2 -x,1/2+y,1/2-z
3 -x,-y,-z
4 x,1/2-y,1/2+z
_cell_length_a                   16.774(3)
_cell_length_b                   9.6130(19)
_cell_length_c                   13.253(3)
_cell_angle_alpha                90
_cell_angle_beta                 107.05(3)
_cell_angle_gamma                90
_cell_volume                     2043.1
_exptl_crystal_colour            colorless
_exptl_crystal_description       block
_cell_formula_units_Z            4
loop_
_atom_site_label
_atom_site_type_symbol
_atom_site_fract_x
_atom_site_fract_y
_atom_site_fract_z
O1 O 0.46148(12) -0.0633(2) -0.26382(13)
N1 N 0.17381(14) 0.1024(2) 0.34131(16)
C1 C 0.22097(18) 0.0401(3) 0.5285(2)
H1 H 0.2412 0.1298 0.5452
N2 N 0.47292(13) -0.1387(2) -0.17945(15)
C2 C 0.2295(2) -0.0578(4) 0.6077(2)
H2 H 0.2556 -0.0333 0.6775
C3 C 0.1999(2) -0.1898(3) 0.5843(3)
H3 H 0.2055 -0.2551 0.6378
C4 C 0.1622(2) -0.2248(3) 0.4821(3)
H4 H 0.1420 -0.3146 0.4657
C5 C 0.1536(2) -0.1290(3) 0.4029(2)
H5 H 0.1279 -0.1549 0.3333
C6 C 0.18249(16) 0.0043(3) 0.42509(19)
C7 C 0.12495(15) 0.2234(3) 0.33659(18)
C8 C 0.13847(16) 0.3420(3) 0.2849(2)
H6 H 0.1800 0.3422 0.2514
C9 C 0.09116(19) 0.4601(3) 0.2823(2)
H7 H 0.1002 0.5384 0.2459
C10 C 0.0310(2) 0.4622(3) 0.3332(2)
H8 H -0.0001 0.5426 0.3325
C11 C 0.01655(17) 0.3467(3) 0.3850(2)
H9 H -0.0246 0.3487 0.4191
C12 C 0.06248(16) 0.2266(3) 0.3871(2)
H10 H 0.0519 0.1481 0.4221
C13 C 0.21718(15) 0.0743(3) 0.26611(19)
C14 C 0.29592(17) 0.0150(3) 0.29892(19)
H11 H 0.3203 -0.0034 0.3702
C15 C 0.33867(16) -0.0169(3) 0.22768(19)
H12 H 0.3917 -0.0554 0.2519
C16 C 0.30402(15) 0.0074(3) 0.12001(18)
C17 C 0.22541(15) 0.0677(2) 0.08783(19)
H13 H 0.2012 0.0869 0.0166
C18 C 0.18226(15) 0.0998(3) 0.15911(19)
H14 H 0.1293 0.1389 0.1351
C19 C 0.34862(14) -0.0321(2) 0.04275(18)
C20 C 0.39816(15) -0.1491(2) 0.05721(18)
H15 H 0.4031 -0.2046 0.1162
C21 C 0.44174(14) -0.1874(2) -0.01543(18)
C22 C 0.43129(14) -0.1041(2) -0.10499(17)
C23 C 0.38061(15) 0.0147(3) -0.12111(18)
H16 H 0.3742 0.0696 -0.1807
C24 C 0.34094(15) 0.0486(3) -0.04859(18)
H17 H 0.3076 0.1277 -0.0595
C25 C 0.49522(16) -0.3042(2) 0.0002(2)
H18 H 0.5029 -0.3606 0.0593
C26 C 0.53503(16) -0.3321(3) -0.0729(2)
H19 H 0.5707 -0.4082 -0.0634
C27 C 0.52346(16) -0.2490(3) -0.1614(2)
H20 H 0.5519 -0.2708 -0.2100
loop_
_geom_bond_atom_site_label_1
_geom_bond_atom_site_label_2
_geom_bond_site_symmetry_1
_geom_bond_site_symmetry_2
O1 N2 1_555 1_555
N1 C6 1_555 1_555
C1 H1 1_555 1_555
N2 C22 1_555 1_555
C2 C1 1_555 1_555
H2 C2 1_555 1_555
C3 C2 1_555 1_555
H3 C3 1_555 1_555
C4 C3 1_555 1_555
H4 C4 1_555 1_555
C5 C4 1_555 1_555
H5 C5 1_555 1_555
C6 C1 1_555 1_555
C7 N1 1_555 1_555
C8 C7 1_555 1_555
H6 C8 1_555 1_555
C9 C8 1_555 1_555
H7 C9 1_555 1_555
C10 C9 1_555 1_555
H8 C10 1_555 1_555
C11 C10 1_555 1_555
H9 C11 1_555 1_555
C12 C7 1_555 1_555
H10 C12 1_555 1_555
C13 N1 1_555 1_555
C14 C13 1_555 1_555
H11 C14 1_555 1_555
C15 C14 1_555 1_555
H12 C15 1_555 1_555
C16 C15 1_555 1_555
C17 C16 1_555 1_555
H13 C17 1_555 1_555
C18 C13 1_555 1_555
H14 C18 1_555 1_555
C19 C16 1_555 1_555
C20 C19 1_555 1_555
H15 C20 1_555 1_555
C21 C20 1_555 1_555
C22 C21 1_555 1_555
C23 C22 1_555 1_555
H16 C23 1_555 1_555
C24 C19 1_555 1_555
H17 C24 1_555 1_555
C25 C21 1_555 1_555
H18 C25 1_555 1_555
C26 C25 1_555 1_555
H19 C26 1_555 1_555
C27 N2 1_555 1_555
H20 C27 1_555 1_555
C5 C6 1_555 1_555
C11 C12 1_555 1_555
C17 C18 1_555 1_555
C23 C24 1_555 1_555
C26 C27 1_555 1_555

#END
