
#######################################################################
#
#                 Cambridge Crystallographic Data Centre
#                                CCDC 
#
#######################################################################
#
# If this CIF has been generated from an entry in the Cambridge 
# Structural Database, then it will include bibliographic, chemical, 
# crystal, experimental, refinement or atomic coordinate data resulting 
# from the CCDC's data processing and validation procedures.
#
#######################################################################

data_LEGPUK
_chemical_formula_moiety         'C17 H25 N3 O3'
_chemical_name_systematic        
(E)-2-Amino-4-(3,3-dimethyl-2-oxobutylidene)-1-[2-(2-hydroxyethoxy)ethyl]-6-methyl-1,4-dihydropyridine-3-carbonitrile
_symmetry_cell_setting           monoclinic
_symmetry_space_group_name_H-M   'P 21/c'
_symmetry_Int_Tables_number      14
_space_group_name_Hall           '-P 2ybc'
loop_
_symmetry_equiv_pos_site_id
_symmetry_equiv_pos_as_xyz
1 x,y,z
2 -x,1/2+y,1/2-z
3 -x,-y,-z
4 x,1/2-y,1/2+z
_cell_length_a                   9.9007(5)
_cell_length_b                   13.2890(7)
_cell_length_c                   13.0686(8)
_cell_angle_alpha                90
_cell_angle_beta                 91.314(2)
_cell_angle_gamma                90
_cell_volume                     1718.99
_exptl_crystal_colour            brown
_exptl_crystal_description       block
_chemical_melting_point          '173 deg.C'
_cell_formula_units_Z            4
loop_
_atom_site_label
_atom_site_type_symbol
_atom_site_fract_x
_atom_site_fract_y
_atom_site_fract_z
C1 C 0.88179(15) 0.25846(10) 0.48356(11)
O1 O 0.69984(11) 0.51832(9) 0.73210(10)
N1 N 0.99132(14) 0.23098(11) 0.47668(11)
C2 C 0.33488(15) 0.36674(12) 0.54335(13)
H1 H 0.3265 0.4021 0.6069
H2 H 0.2856 0.3046 0.5463
H3 H 0.2989 0.4074 0.4885
N2 N 0.67042(14) 0.18281(10) 0.35965(10)
H4 H 0.6055 0.1592 0.3220
H5 H 0.7520 0.1632 0.3503
O2 O 0.41901(10) 0.06974(7) 0.36195(8)
N3 N 0.51316(11) 0.27979(8) 0.44545(9)
O3 O 0.56463(12) -0.12848(9) 0.36431(9)
H6 H 0.6107 -0.0779 0.3565
C3 C 0.64429(14) 0.25077(10) 0.43342(10)
C4 C 0.74686(13) 0.29353(10) 0.49497(10)
C5 C 0.48117(14) 0.34495(10) 0.52525(11)
C6 C 0.82613(14) 0.41643(10) 0.62401(11)
H7 H 0.9135 0.3970 0.6085
C7 C 0.57932(14) 0.38748(10) 0.58437(11)
H8 H 0.5543 0.4309 0.6365
C8 C 0.72004(14) 0.36870(10) 0.57037(10)
C9 C 0.81221(14) 0.49139(10) 0.69951(11)
C10 C 0.93855(14) 0.54230(11) 0.74837(11)
C11 C 0.33697(15) 0.15161(11) 0.39359(12)
H9 H 0.3218 0.1471 0.4665
H10 H 0.2500 0.1491 0.3580
C12 C 0.40756(16) 0.24924(11) 0.36958(12)
H11 H 0.4486 0.2430 0.3032
H12 H 0.3404 0.3023 0.3645
C13 C 0.36595(15) -0.02510(11) 0.39327(12)
H13 H 0.2689 -0.0262 0.3816
H14 H 0.3840 -0.0349 0.4658
C14 C 0.43021(16) -0.10829(11) 0.33368(12)
H15 H 0.3772 -0.1691 0.3414
H16 H 0.4280 -0.0905 0.2617
C15 C 0.95355(17) 0.50352(15) 0.85821(13)
H17 H 1.0312 0.5340 0.8908
H18 H 0.9646 0.4318 0.8574
H19 H 0.8742 0.5205 0.8954
C16 C 0.91462(18) 0.65630(12) 0.75167(14)
H20 H 0.9923 0.6888 0.7821
H21 H 0.8367 0.6703 0.7917
H22 H 0.8999 0.6811 0.6833
C17 C 1.06820(15) 0.52174(14) 0.69025(14)
H23 H 1.1427 0.5551 0.7241
H24 H 1.0582 0.5466 0.6215
H25 H 1.0850 0.4506 0.6887
loop_
_geom_bond_atom_site_label_1
_geom_bond_atom_site_label_2
_geom_bond_site_symmetry_1
_geom_bond_site_symmetry_2
C1 N1 1_555 1_555
O1 C9 1_555 1_555
C2 H1 1_555 1_555
H2 C2 1_555 1_555
H3 C2 1_555 1_555
N2 H4 1_555 1_555
H5 N2 1_555 1_555
O2 C11 1_555 1_555
N3 C3 1_555 1_555
O3 H6 1_555 1_555
C3 N2 1_555 1_555
C4 C1 1_555 1_555
C5 C2 1_555 1_555
C6 H7 1_555 1_555
C7 C5 1_555 1_555
H8 C7 1_555 1_555
C8 C4 1_555 1_555
C9 C6 1_555 1_555
C10 C9 1_555 1_555
C11 H9 1_555 1_555
H10 C11 1_555 1_555
C12 N3 1_555 1_555
H11 C12 1_555 1_555
H12 C12 1_555 1_555
C13 O2 1_555 1_555
H13 C13 1_555 1_555
H14 C13 1_555 1_555
C14 O3 1_555 1_555
H15 C14 1_555 1_555
H16 C14 1_555 1_555
C15 C10 1_555 1_555
H17 C15 1_555 1_555
H18 C15 1_555 1_555
H19 C15 1_555 1_555
C16 C10 1_555 1_555
H20 C16 1_555 1_555
H21 C16 1_555 1_555
H22 C16 1_555 1_555
C17 C10 1_555 1_555
H23 C17 1_555 1_555
H24 C17 1_555 1_555
H25 C17 1_555 1_555
N3 C5 1_555 1_555
C3 C4 1_555 1_555
C6 C8 1_555 1_555
C7 C8 1_555 1_555
C11 C12 1_555 1_555
C13 C14 1_555 1_555

#END
