
#######################################################################
#
#                 Cambridge Crystallographic Data Centre
#                                CCDC 
#
#######################################################################
#
# If this CIF has been generated from an entry in the Cambridge 
# Structural Database, then it will include bibliographic, chemical, 
# crystal, experimental, refinement or atomic coordinate data resulting 
# from the CCDC's data processing and validation procedures.
#
#######################################################################

data_LEGRAT
_chemical_formula_moiety         'C15 H14 Cl2 F1 N1 O3'
_chemical_name_systematic        
'ethyl 3-(cyclopropylamino)-2-(2,4-dichloro-5-fluorobenzene-1-carbonyl)prop-2-enoate'
_symmetry_cell_setting           triclinic
_symmetry_space_group_name_H-M   'P -1'
_symmetry_Int_Tables_number      2
_space_group_name_Hall           '-P 1'
loop_
_symmetry_equiv_pos_site_id
_symmetry_equiv_pos_as_xyz
1 x,y,z
2 -x,-y,-z
_cell_length_a                   8.5995(8)
_cell_length_b                   9.9579(9)
_cell_length_c                   10.1418(10)
_cell_angle_alpha                113.4900(10)
_cell_angle_beta                 95.8730(10)
_cell_angle_gamma                96.1610(10)
_cell_volume                     781.81
_exptl_crystal_colour            colorless
_exptl_crystal_description       block
_cell_formula_units_Z            2
loop_
_atom_site_label
_atom_site_type_symbol
_atom_site_fract_x
_atom_site_fract_y
_atom_site_fract_z
C1 C 0.2093(2) 0.60661(19) 0.13129(18)
C2 C 0.1788(2) 0.45305(19) 0.06736(18)
H1 H 0.2003 0.3996 -0.0282
C3 C 0.1167(2) 0.37837(19) 0.14470(19)
C4 C 0.0846(2) 0.45945(19) 0.28283(18)
C5 C 0.11564(19) 0.61196(19) 0.34668(18)
H2 H 0.0943 0.6649 0.4424
C6 C 0.17852(19) 0.68844(18) 0.27023(18)
C7 C 0.2307(2) 0.85472(19) 0.34519(18)
C8 C 0.12550(19) 0.95872(18) 0.35028(17)
C9 C -0.04483(19) 0.90967(18) 0.29682(17)
C10 C -0.2913(2) 0.9771(2) 0.2391(2)
H3 H -0.3452 0.9442 0.3053
H4 H -0.3117 0.8947 0.1407
C11 C -0.3511(2) 1.1115(2) 0.2343(3)
H5 H -0.2956 1.1439 0.1697
H6 H -0.3317 1.1916 0.3326
H7 H -0.4651 1.0869 0.1976
C12 C 0.1859(2) 1.11044(18) 0.40642(17)
H8 H 0.1134 1.1744 0.4012
C13 C 0.3889(2) 1.32970(19) 0.5171(2)
H9 H 0.4429 1.3605 0.4485
C14 C 0.4532(2) 1.4164(2) 0.6748(2)
H10 H 0.5455 1.4958 0.7012
H11 H 0.4511 1.3633 0.7391
C15 C 0.2981(2) 1.43934(19) 0.6123(2)
H12 H 0.2004 1.4004 0.6380
H13 H 0.2948 1.5329 0.6001
Cl1 Cl 0.08210(6) 0.18670(5) 0.07389(5)
Cl2 Cl 0.29229(6) 0.69761(5) 0.03361(5)
F1 F 0.02051(12) 0.38588(11) 0.35657(11)
N1 N 0.33303(17) 1.17296(15) 0.46554(15)
H14 H 0.4013 1.1160 0.4741
O1 O -0.11463(13) 0.78444(13) 0.26150(13)
O2 O -0.12146(13) 1.01987(13) 0.29207(13)
O3 O 0.37304(14) 0.89535(13) 0.39948(14)
loop_
_geom_bond_atom_site_label_1
_geom_bond_atom_site_label_2
_geom_bond_site_symmetry_1
_geom_bond_site_symmetry_2
C1 C2 1_555 1_555
C2 H1 1_555 1_555
C3 C2 1_555 1_555
C4 C3 1_555 1_555
C5 C4 1_555 1_555
H2 C5 1_555 1_555
C6 C1 1_555 1_555
C7 C6 1_555 1_555
C8 C7 1_555 1_555
C9 C8 1_555 1_555
C10 H3 1_555 1_555
H4 C10 1_555 1_555
C11 C10 1_555 1_555
H5 C11 1_555 1_555
H6 C11 1_555 1_555
H7 C11 1_555 1_555
C12 C8 1_555 1_555
H8 C12 1_555 1_555
C13 H9 1_555 1_555
C14 C13 1_555 1_555
H10 C14 1_555 1_555
H11 C14 1_555 1_555
C15 C13 1_555 1_555
H12 C15 1_555 1_555
H13 C15 1_555 1_555
Cl1 C3 1_555 1_555
Cl2 C1 1_555 1_555
F1 C4 1_555 1_555
N1 C12 1_555 1_555
H14 N1 1_555 1_555
O1 C9 1_555 1_555
O2 C9 1_555 1_555
O3 C7 1_555 1_555
C5 C6 1_555 1_555
C10 O2 1_555 1_555
C13 N1 1_555 1_555
C14 C15 1_555 1_555

#END
