
#######################################################################
#
#                 Cambridge Crystallographic Data Centre
#                                CCDC 
#
#######################################################################
#
# If this CIF has been generated from an entry in the Cambridge 
# Structural Database, then it will include bibliographic, chemical, 
# crystal, experimental, refinement or atomic coordinate data resulting 
# from the CCDC's data processing and validation procedures.
#
#######################################################################

data_LEGXIG
_chemical_formula_moiety         'C20 H17 N3 O2 S2'
_chemical_name_systematic        
2-((1,5-Diphenyl-1H-pyrazol-3-yl)oxy)-1-(2-thioxo-1,3-thiazolidin-3-yl)ethanone
_symmetry_cell_setting           monoclinic
_symmetry_space_group_name_H-M   'P 21/c'
_symmetry_Int_Tables_number      14
_space_group_name_Hall           '-P 2ybc'
loop_
_symmetry_equiv_pos_site_id
_symmetry_equiv_pos_as_xyz
1 x,y,z
2 -x,1/2+y,1/2-z
3 -x,-y,-z
4 x,1/2-y,1/2+z
_cell_length_a                   12.813(3)
_cell_length_b                   16.453(3)
_cell_length_c                   8.9470(18)
_cell_angle_alpha                90
_cell_angle_beta                 97.68(3)
_cell_angle_gamma                90
_cell_volume                     1869.22
_exptl_crystal_colour            yellow
_exptl_crystal_description       needle
_cell_formula_units_Z            4
loop_
_atom_site_label
_atom_site_type_symbol
_atom_site_fract_x
_atom_site_fract_y
_atom_site_fract_z
S1 S 0.53480(10) 0.88849(7) 0.53157(15)
S2 S 0.62593(11) 0.72831(9) 0.50196(19)
O1 O 0.3356(3) 0.6778(2) 0.7213(4)
O2 O 0.4300(2) 0.53904(17) 0.6832(3)
N1 N 0.4433(3) 0.7614(2) 0.6153(4)
N2 N 0.3178(3) 0.5311(2) 0.4521(4)
N3 N 0.2289(3) 0.4864(2) 0.4065(4)
C1 C 0.4111(4) 0.9057(3) 0.5959(6)
H1 H 0.4193 0.9439 0.6792
H2 H 0.3617 0.9284 0.5152
C2 C 0.3715(4) 0.8282(3) 0.6449(5)
H3 H 0.3019 0.8180 0.5913
H4 H 0.3660 0.8305 0.7519
C3 C 0.5321(3) 0.7847(3) 0.5549(4)
C4 C 0.4130(3) 0.6833(3) 0.6580(5)
C5 C 0.4775(3) 0.6096(2) 0.6282(5)
H5 H 0.4802 0.6042 0.5208
H6 H 0.5489 0.6155 0.6787
C6 C 0.3442(3) 0.5100(2) 0.5956(5)
C7 C 0.2761(3) 0.4523(2) 0.6429(5)
H7 H 0.2798 0.4285 0.7378
C8 C 0.2024(3) 0.4379(2) 0.5198(4)
C9 C 0.1076(3) 0.3868(2) 0.5110(4)
C10 C 0.1077(4) 0.3190(3) 0.6039(5)
H8 H 0.1695 0.3037 0.6639
C11 C 0.0169(4) 0.2743(3) 0.6081(6)
H9 H 0.0176 0.2294 0.6713
C12 C -0.0750(4) 0.2962(3) 0.5185(7)
H10 H -0.1360 0.2660 0.5213
C13 C -0.0762(4) 0.3624(3) 0.4254(6)
H11 H -0.1381 0.3770 0.3648
C14 C 0.0137(3) 0.4070(3) 0.4214(5)
H12 H 0.0120 0.4518 0.3576
C15 C 0.1921(3) 0.4838(3) 0.2477(4)
C16 C 0.1999(4) 0.4125(3) 0.1711(5)
H13 H 0.2262 0.3659 0.2217
C17 C 0.1679(4) 0.4109(3) 0.0157(5)
H14 H 0.1717 0.3629 -0.0382
C18 C 0.1307(4) 0.4805(4) -0.0572(5)
H15 H 0.1095 0.4795 -0.1608
C19 C 0.1246(4) 0.5515(3) 0.0212(5)
H16 H 0.1000 0.5985 -0.0295
C20 C 0.1549(3) 0.5535(3) 0.1751(5)
H17 H 0.1502 0.6015 0.2288
loop_
_geom_bond_atom_site_label_1
_geom_bond_atom_site_label_2
_geom_bond_site_symmetry_1
_geom_bond_site_symmetry_2
S1 C1 1_555 1_555
S2 C3 1_555 1_555
O1 C4 1_555 1_555
O2 C5 1_555 1_555
N1 C2 1_555 1_555
N2 N3 1_555 1_555
N3 C8 1_555 1_555
C1 H1 1_555 1_555
H2 C1 1_555 1_555
C2 C1 1_555 1_555
H3 C2 1_555 1_555
H4 C2 1_555 1_555
C3 S1 1_555 1_555
C4 N1 1_555 1_555
C5 C4 1_555 1_555
H5 C5 1_555 1_555
H6 C5 1_555 1_555
C6 O2 1_555 1_555
C7 C6 1_555 1_555
H7 C7 1_555 1_555
C8 C7 1_555 1_555
C9 C8 1_555 1_555
C10 C9 1_555 1_555
H8 C10 1_555 1_555
C11 C10 1_555 1_555
H9 C11 1_555 1_555
C12 C11 1_555 1_555
H10 C12 1_555 1_555
C13 C12 1_555 1_555
H11 C13 1_555 1_555
C14 C9 1_555 1_555
H12 C14 1_555 1_555
C15 N3 1_555 1_555
C16 C15 1_555 1_555
H13 C16 1_555 1_555
C17 C16 1_555 1_555
H14 C17 1_555 1_555
C18 C17 1_555 1_555
H15 C18 1_555 1_555
C19 C18 1_555 1_555
H16 C19 1_555 1_555
C20 C15 1_555 1_555
H17 C20 1_555 1_555
N1 C3 1_555 1_555
N2 C6 1_555 1_555
C13 C14 1_555 1_555
C19 C20 1_555 1_555

#END
