
#######################################################################
#
#                 Cambridge Crystallographic Data Centre
#                                CCDC 
#
#######################################################################
#
# If this CIF has been generated from an entry in the Cambridge 
# Structural Database, then it will include bibliographic, chemical, 
# crystal, experimental, refinement or atomic coordinate data resulting 
# from the CCDC's data processing and validation procedures.
#
#######################################################################

data_LEGYAA
_chemical_formula_moiety         'C8 H5 N9 O8'
_chemical_name_systematic        
2,3,5,6-tetranitro-9,10-dihydro-4H-dipyrazolo[1,5-a:5',1'-d][1,3,5]triazepine
_symmetry_cell_setting           orthorhombic
_symmetry_space_group_name_H-M   'P 21 21 21'
_symmetry_Int_Tables_number      19
_space_group_name_Hall           'P 2ac 2ab'
loop_
_symmetry_equiv_pos_site_id
_symmetry_equiv_pos_as_xyz
1 x,y,z
2 1/2+x,1/2-y,-z
3 -x,1/2+y,1/2-z
4 1/2-x,-y,1/2+z
_cell_length_a                   8.39690(10)
_cell_length_b                   9.39510(10)
_cell_length_c                   16.4184(2)
_cell_angle_alpha                90
_cell_angle_beta                 90
_cell_angle_gamma                90
_cell_volume                     1295.24
_exptl_crystal_colour            yellow
_exptl_crystal_description       needle
_cell_formula_units_Z            4
loop_
_atom_site_label
_atom_site_type_symbol
_atom_site_fract_x
_atom_site_fract_y
_atom_site_fract_z
O2 O 0.8268(6) 0.8113(6) 0.6284(3)
O3 O 0.6080(3) 0.8201(3) 0.69812(15)
O4 O 0.8489(5) 0.7225(4) 0.4685(2)
O5 O 0.9276(3) 0.5032(4) 0.46598(19)
O6 O 0.3117(3) 0.7247(3) 0.83107(16)
O7 O 0.0996(3) 0.6459(3) 0.89156(13)
O8 O -0.2085(3) 0.6092(3) 0.80118(19)
O9 O -0.1822(4) 0.3850(3) 0.8185(2)
N1 N 0.5034(3) 0.4506(3) 0.57924(13)
N2 N 0.6296(3) 0.4469(3) 0.52672(14)
N3 N 0.1663(3) 0.4579(3) 0.64835(14)
N4 N 0.0172(3) 0.4275(3) 0.67799(15)
N5 N 0.3965(3) 0.5993(3) 0.68534(15)
H1 H 0.4272 0.6637 0.7209
N6 N 0.6896(4) 0.7708(3) 0.64297(19)
N7 N 0.8481(4) 0.5943(4) 0.4943(2)
N8 N 0.1874(3) 0.6552(3) 0.83239(15)
N9 N -0.1402(3) 0.4972(3) 0.79195(17)
C1 C 0.2188(3) 0.3887(3) 0.57303(17)
H2 H 0.2127 0.4576 0.5275
H3 H 0.1468 0.3082 0.5604
C2 C 0.3887(3) 0.3340(3) 0.58074(16)
H4 H 0.4000 0.2806 0.6324
H5 H 0.4116 0.2677 0.5353
C3 C 0.5064(3) 0.5656(3) 0.62741(16)
C4 C 0.6429(3) 0.6420(3) 0.60681(17)
C5 C 0.7104(3) 0.5612(4) 0.54382(17)
C6 C 0.2464(3) 0.5483(3) 0.69647(16)
C7 C 0.1452(3) 0.5811(3) 0.76145(16)
C8 C 0.0086(3) 0.5019(3) 0.74517(18)
O1? O 0.7645(12) 0.8615(11) 0.5935(7)
O10? O 0.9724(11) 0.6552(10) 0.5433(6)
loop_
_geom_bond_atom_site_label_1
_geom_bond_atom_site_label_2
_geom_bond_site_symmetry_1
_geom_bond_site_symmetry_2
O2 N6 1_555 1_555
O3 N6 1_555 1_555
O4 N7 1_555 1_555
O5 N7 1_555 1_555
O6 N8 1_555 1_555
O7 N8 1_555 1_555
O8 N9 1_555 1_555
O9 N9 1_555 1_555
N1 N2 1_555 1_555
N2 C5 1_555 1_555
N3 N4 1_555 1_555
N4 C8 1_555 1_555
N5 H1 1_555 1_555
N6 C4 1_555 1_555
N7 C5 1_555 1_555
N8 C7 1_555 1_555
N9 C8 1_555 1_555
C1 N3 1_555 1_555
H2 C1 1_555 1_555
H3 C1 1_555 1_555
C2 N1 1_555 1_555
H4 C2 1_555 1_555
H5 C2 1_555 1_555
C3 N1 1_555 1_555
C4 C3 1_555 1_555
C5 C4 1_555 1_555
C6 N3 1_555 1_555
C7 C6 1_555 1_555
C8 C7 1_555 1_555
N5 C3 1_555 1_555
N5 C6 1_555 1_555
C1 C2 1_555 1_555

#END
