
#######################################################################
#
#                 Cambridge Crystallographic Data Centre
#                                CCDC 
#
#######################################################################
#
# If this CIF has been generated from an entry in the Cambridge 
# Structural Database, then it will include bibliographic, chemical, 
# crystal, experimental, refinement or atomic coordinate data resulting 
# from the CCDC's data processing and validation procedures.
#
#######################################################################

data_LEGYIH
_chemical_formula_moiety         'C15 H17 Br1 N2 O3'
_chemical_name_systematic        
'Ethyl 1-(2-bromoethyl)-3-(4-methoxyphenyl)-1H-pyrazole-5-carboxylate'
_symmetry_cell_setting           monoclinic
_symmetry_space_group_name_H-M   'C 2/c'
_symmetry_Int_Tables_number      15
_space_group_name_Hall           '-C 2yn'
loop_
_symmetry_equiv_pos_site_id
_symmetry_equiv_pos_as_xyz
1 x,y,z
2 -x,y,1/2-z
3 1/2+x,1/2+y,z
4 1/2-x,1/2+y,1/2-z
5 -x,-y,-z
6 x,-y,1/2+z
7 1/2-x,1/2-y,-z
8 1/2+x,1/2-y,1/2+z
_cell_length_a                   24.691(7)
_cell_length_b                   6.7678(17)
_cell_length_c                   17.884(5)
_cell_angle_alpha                90
_cell_angle_beta                 97.184(5)
_cell_angle_gamma                90
_cell_volume                     2965.02
_exptl_crystal_colour            colorless
_exptl_crystal_description       prism
_cell_formula_units_Z            8
loop_
_atom_site_label
_atom_site_type_symbol
_atom_site_fract_x
_atom_site_fract_y
_atom_site_fract_z
Br1 Br 0.300383(7) -0.03804(3) 0.042640(10)
O1 O 0.67705(4) 0.29412(19) 0.23584(6)
O2 O 0.32875(5) 0.23696(19) -0.13898(7)
O3 O 0.41059(5) 0.20467(18) -0.18169(6)
N1 N 0.43218(5) 0.3178(2) 0.06953(8)
N2 N 0.39195(5) 0.3026(2) 0.01120(8)
C1 C 0.72814(7) 0.2707(3) 0.20691(11)
H1 H 0.7284 0.1445 0.1800
H2 H 0.7579 0.2722 0.2487
H3 H 0.7332 0.3792 0.1722
C2 C 0.63072(6) 0.2885(3) 0.18455(10)
C3 C 0.58195(7) 0.3140(3) 0.21405(10)
H4 H 0.5821 0.3351 0.2666
C4 C 0.53298(7) 0.3087(3) 0.16717(10)
H5 H 0.4998 0.3271 0.1881
C5 C 0.53125(6) 0.2770(2) 0.08977(9)
C6 C 0.58044(7) 0.2519(3) 0.06120(10)
H6 H 0.5803 0.2300 0.0087
C7 C 0.63016(7) 0.2582(3) 0.10763(10)
H7 H 0.6634 0.2418 0.0868
C8 C 0.47850(6) 0.2734(2) 0.04107(9)
C9 C 0.46766(7) 0.2326(2) -0.03645(9)
H8 H 0.4933 0.1983 -0.0697
C10 C 0.41209(7) 0.2527(2) -0.05401(9)
C11 C 0.37810(7) 0.2314(3) -0.12779(10)
C12 C 0.38331(7) 0.1924(3) -0.25861(9)
H9 H 0.3609 0.3120 -0.2712
H10 H 0.3591 0.0753 -0.2645
C13 C 0.42739(7) 0.1759(3) -0.30925(10)
H11 H 0.4507 0.2935 -0.3033
H12 H 0.4107 0.1654 -0.3618
H13 H 0.4495 0.0580 -0.2956
C14 C 0.33701(7) 0.3614(3) 0.02402(10)
H14 H 0.3127 0.3563 -0.0244
H15 H 0.3379 0.4997 0.0422
C15 C 0.31375(7) 0.2311(3) 0.08072(10)
H16 H 0.2790 0.2887 0.0929
H17 H 0.3395 0.2267 0.1278
loop_
_geom_bond_atom_site_label_1
_geom_bond_atom_site_label_2
_geom_bond_site_symmetry_1
_geom_bond_site_symmetry_2
Br1 C15 1_555 1_555
O1 C1 1_555 1_555
O2 C11 1_555 1_555
O3 C11 1_555 1_555
N1 N2 1_555 1_555
N2 C10 1_555 1_555
C1 H1 1_555 1_555
H2 C1 1_555 1_555
H3 C1 1_555 1_555
C2 O1 1_555 1_555
C3 C2 1_555 1_555
H4 C3 1_555 1_555
C4 C3 1_555 1_555
H5 C4 1_555 1_555
C5 C4 1_555 1_555
C6 C5 1_555 1_555
H6 C6 1_555 1_555
C7 C2 1_555 1_555
H7 C7 1_555 1_555
C8 N1 1_555 1_555
C9 C8 1_555 1_555
H8 C9 1_555 1_555
C10 C9 1_555 1_555
C11 C10 1_555 1_555
C12 O3 1_555 1_555
H9 C12 1_555 1_555
H10 C12 1_555 1_555
C13 C12 1_555 1_555
H11 C13 1_555 1_555
H12 C13 1_555 1_555
H13 C13 1_555 1_555
C14 N2 1_555 1_555
H14 C14 1_555 1_555
H15 C14 1_555 1_555
C15 C14 1_555 1_555
H16 C15 1_555 1_555
H17 C15 1_555 1_555
C5 C8 1_555 1_555
C6 C7 1_555 1_555

#END
