
#######################################################################
#
#                 Cambridge Crystallographic Data Centre
#                                CCDC 
#
#######################################################################
#
# If this CIF has been generated from an entry in the Cambridge 
# Structural Database, then it will include bibliographic, chemical, 
# crystal, experimental, refinement or atomic coordinate data resulting 
# from the CCDC's data processing and validation procedures.
#
#######################################################################

data_LEGYED
_chemical_formula_moiety         'C20 H18 N4 O4'
_chemical_name_systematic        
"Dimethyl 2,2'-(1H,1'H-2,2'-bibenzimidazole-1,1'-diyl)diacetate"
_symmetry_cell_setting           triclinic
_symmetry_space_group_name_H-M   'P -1'
_symmetry_Int_Tables_number      2
_space_group_name_Hall           '-P 1'
loop_
_symmetry_equiv_pos_site_id
_symmetry_equiv_pos_as_xyz
1 x,y,z
2 -x,-y,-z
_cell_length_a                   6.904(4)
_cell_length_b                   8.494(5)
_cell_length_c                   8.643(5)
_cell_angle_alpha                67.191(5)
_cell_angle_beta                 70.360(5)
_cell_angle_gamma                87.172(5)
_cell_volume                     438.115
_exptl_crystal_colour            brown
_exptl_crystal_description       block
_cell_formula_units_Z            1
loop_
_atom_site_label
_atom_site_type_symbol
_atom_site_fract_x
_atom_site_fract_y
_atom_site_fract_z
C1 C 0.3492(3) 0.6658(2) 0.5117(2)
C2 C 0.5275(3) 0.7663(3) 0.4646(3)
H1 H 0.6033 0.8332 0.3460
C3 C 0.5865(4) 0.7619(3) 0.6022(3)
H2 H 0.7063 0.8271 0.5762
C4 C 0.4722(4) 0.6624(3) 0.7808(3)
H3 H 0.5173 0.6635 0.8704
C5 C 0.2955(3) 0.5636(3) 0.8265(3)
H4 H 0.2197 0.4979 0.9454
C6 C 0.2327(3) 0.5645(2) 0.6892(2)
C7 C 0.0742(3) 0.5291(2) 0.5281(2)
C8 C 0.3089(3) 0.7314(2) 0.2179(2)
H5 H 0.2674 0.6583 0.1696
H6 H 0.4585 0.7504 0.1691
C9 C 0.2220(3) 0.9010(3) 0.1547(3)
C10 C 0.0081(4) 1.1015(3) 0.2334(4)
H7 H 0.1162 1.1933 0.1612
H8 H -0.0752 1.1195 0.3382
H9 H -0.0764 1.0989 0.1659
N1 N 0.2463(2) 0.64117(18) 0.41008(19)
N2 N 0.0622(3) 0.4797(2) 0.6961(2)
O1 O 0.2651(3) 0.9897(2) -0.00051(19)
O2 O 0.0980(2) 0.94015(17) 0.28611(18)
C1A C -0.3492(3) 0.3342(2) 0.4883(2)
C2A C -0.5275(3) 0.2337(3) 0.5354(3)
H1A H -0.6033 0.1668 0.6540
C3A C -0.5865(4) 0.2381(3) 0.3978(3)
H2A H -0.7063 0.1729 0.4238
C4A C -0.4722(4) 0.3376(3) 0.2192(3)
H3A H -0.5173 0.3365 0.1296
C5A C -0.2955(3) 0.4364(3) 0.1735(3)
H4A H -0.2197 0.5021 0.0546
C6A C -0.2327(3) 0.4355(2) 0.3108(2)
C7A C -0.0742(3) 0.4709(2) 0.4719(2)
C8A C -0.3089(3) 0.2686(2) 0.7821(2)
H5A H -0.2674 0.3417 0.8304
H6A H -0.4585 0.2496 0.8309
C9A C -0.2220(3) 0.0990(3) 0.8453(3)
C10A C -0.0081(4) -0.1015(3) 0.7666(4)
H7A H -0.1162 -0.1933 0.8388
H8A H 0.0752 -0.1195 0.6618
H9A H 0.0764 -0.0989 0.8341
N1A N -0.2463(2) 0.35883(18) 0.58992(19)
N2A N -0.0622(3) 0.5203(2) 0.3039(2)
O1A O -0.2651(3) 0.0103(2) 1.00051(19)
O2A O -0.0980(2) 0.05985(17) 0.71389(18)
loop_
_geom_bond_atom_site_label_1
_geom_bond_atom_site_label_2
_geom_bond_site_symmetry_1
_geom_bond_site_symmetry_2
C1 C2 1_555 1_555
C2 H1 1_555 1_555
C3 C2 1_555 1_555
H2 C3 1_555 1_555
C4 C3 1_555 1_555
H3 C4 1_555 1_555
C5 C4 1_555 1_555
H4 C5 1_555 1_555
C6 C1 1_555 1_555
C7 N1 1_555 1_555
C8 H5 1_555 1_555
H6 C8 1_555 1_555
C9 C8 1_555 1_555
C10 H7 1_555 1_555
H8 C10 1_555 1_555
H9 C10 1_555 1_555
N1 C1 1_555 1_555
N2 C6 1_555 1_555
O1 C9 1_555 1_555
O2 C9 1_555 1_555
C1A C2A 1_555 1_555
C2A H1A 1_555 1_555
C3A C2A 1_555 1_555
H2A C3A 1_555 1_555
C4A C3A 1_555 1_555
H3A C4A 1_555 1_555
C5A C4A 1_555 1_555
H4A C5A 1_555 1_555
C6A C1A 1_555 1_555
C7A C7 1_555 1_555
C8A H5A 1_555 1_555
H6A C8A 1_555 1_555
C9A C8A 1_555 1_555
C10A H7A 1_555 1_555
H8A C10A 1_555 1_555
H9A C10A 1_555 1_555
N1A C1A 1_555 1_555
N2A C6A 1_555 1_555
O1A C9A 1_555 1_555
O2A C9A 1_555 1_555
C5 C6 1_555 1_555
C7 N2 1_555 1_555
C8 N1 1_555 1_555
C10 O2 1_555 1_555
C5A C6A 1_555 1_555
C7A N1A 1_555 1_555
C7A N2A 1_555 1_555
C8A N1A 1_555 1_555
C10A O2A 1_555 1_555

#END
