
#######################################################################
#
#                 Cambridge Crystallographic Data Centre
#                                CCDC 
#
#######################################################################
#
# If this CIF has been generated from an entry in the Cambridge 
# Structural Database, then it will include bibliographic, chemical, 
# crystal, experimental, refinement or atomic coordinate data resulting 
# from the CCDC's data processing and validation procedures.
#
#######################################################################

data_LEHQUL
_chemical_formula_moiety         'C9 H15 N1 O1 S1'
_chemical_name_systematic        
3-Hydroxy-N,N-dimethyl-3-(2-thienyl)propanamine
_symmetry_cell_setting           triclinic
_symmetry_space_group_name_H-M   'P -1'
_symmetry_Int_Tables_number      2
_space_group_name_Hall           '-P 1'
loop_
_symmetry_equiv_pos_site_id
_symmetry_equiv_pos_as_xyz
1 x,y,z
2 -x,-y,-z
_cell_length_a                   6.0670(13)
_cell_length_b                   7.6467(17)
_cell_length_c                   11.678(3)
_cell_angle_alpha                96.004(4)
_cell_angle_beta                 104.036(3)
_cell_angle_gamma                105.835(3)
_cell_volume                     497.114
_exptl_crystal_colour            colorless
_exptl_crystal_description       block
_chemical_melting_point          '72 deg.C'
_cell_formula_units_Z            2
_exptl_crystal_recrystallization_method methanol
loop_
_atom_site_label
_atom_site_type_symbol
_atom_site_fract_x
_atom_site_fract_y
_atom_site_fract_z
S1 S 0.35251(9) 0.82014(8) 0.66420(5)
N1 N 0.8591(3) 0.6573(2) 1.18681(13)
O1 O 0.3229(2) 0.72991(19) 0.90804(12)
H1 H 0.283(4) 0.6152(14) 0.8841(19)
C1 C 0.4888(4) 0.7829(3) 0.55696(19)
H2 H 0.4280 0.7871 0.4765
C2 C 0.6940(4) 0.7466(3) 0.60159(18)
H3 H 0.7918 0.7233 0.5556
C3 C 0.7449(3) 0.7479(3) 0.72740(16)
H4 H 0.8802 0.7257 0.7725
C4 C 0.5742(3) 0.7853(2) 0.77489(16)
C5 C 0.5612(3) 0.8076(2) 0.90226(16)
H5 H 0.6091 0.9405 0.9333
C6 C 0.7360(3) 0.7296(3) 0.98200(16)
H6 H 0.6895 0.5969 0.9554
H7 H 0.8946 0.7831 0.9738
C7 C 0.7429(3) 0.7702(3) 1.11331(16)
H8 H 0.8282 0.9000 1.1454
H9 H 0.5808 0.7470 1.1189
C8 C 1.1123(3) 0.7003(3) 1.19142(19)
H10 H 1.1932 0.8285 1.2253
H11 H 1.1263 0.6749 1.1117
H12 H 1.1831 0.6254 1.2403
C9 C 0.8357(4) 0.6885(3) 1.30837(18)
H13 H 0.9032 0.6093 1.3546
H14 H 0.6698 0.6614 1.3048
H15 H 0.9188 0.8153 1.3456
loop_
_geom_bond_atom_site_label_1
_geom_bond_atom_site_label_2
_geom_bond_site_symmetry_1
_geom_bond_site_symmetry_2
S1 C1 1_555 1_555
N1 C7 1_555 1_555
O1 H1 1_555 1_555
C1 H2 1_555 1_555
C2 C1 1_555 1_555
H3 C2 1_555 1_555
C3 C2 1_555 1_555
H4 C3 1_555 1_555
C4 S1 1_555 1_555
C5 O1 1_555 1_555
H5 C5 1_555 1_555
C6 C5 1_555 1_555
H6 C6 1_555 1_555
H7 C6 1_555 1_555
C7 C6 1_555 1_555
H8 C7 1_555 1_555
H9 C7 1_555 1_555
C8 N1 1_555 1_555
H10 C8 1_555 1_555
H11 C8 1_555 1_555
H12 C8 1_555 1_555
C9 N1 1_555 1_555
H13 C9 1_555 1_555
H14 C9 1_555 1_555
H15 C9 1_555 1_555
C3 C4 1_555 1_555
C4 C5 1_555 1_555

#END
