
#######################################################################
#
#                 Cambridge Crystallographic Data Centre
#                                CCDC 
#
#######################################################################
#
# If this CIF has been generated from an entry in the Cambridge 
# Structural Database, then it will include bibliographic, chemical, 
# crystal, experimental, refinement or atomic coordinate data resulting 
# from the CCDC's data processing and validation procedures.
#
#######################################################################

data_LEHQUN
_chemical_formula_moiety         'C23 H30 N2 O7'
_chemical_name_systematic        
2-[3-(3a,7a-dimethyl-1,3-dioxooctahydro-2H-4,7-epoxyisoindol-2-yl)propyl]-3a-(hydroxymethyl)-7a-methylhexahydro-1H-4,7-epoxyisoindole-1,3(2H)-dione
_symmetry_cell_setting           monoclinic
_symmetry_space_group_name_H-M   'P 21'
_symmetry_Int_Tables_number      4
_space_group_name_Hall           'P 2yb'
loop_
_symmetry_equiv_pos_site_id
_symmetry_equiv_pos_as_xyz
1 x,y,z
2 -x,1/2+y,-z
_cell_length_a                   7.215
_cell_length_b                   10.518
_cell_length_c                   14.31430(10)
_cell_angle_alpha                90
_cell_angle_beta                 95.7970(10)
_cell_angle_gamma                90
_cell_volume                     1080.72
_exptl_crystal_colour            colorless
_exptl_crystal_description       block
_cell_formula_units_Z            2
loop_
_atom_site_label
_atom_site_type_symbol
_atom_site_fract_x
_atom_site_fract_y
_atom_site_fract_z
O1 O 0.02930(18) 0.21819(12) 0.51825(9)
O2 O 0.4682(2) -0.24893(14) 0.28269(10)
O3 O 0.48649(18) 0.22000(13) 0.45568(10)
O4 O 0.3886(3) 0.49467(17) 0.35489(12)
H1 H 0.426294 0.567275 0.347997
O5 O 0.0269(2) -0.13367(14) 0.16983(10)
N1 N 0.2472(2) 0.18868(15) 0.34071(11)
O6 O -0.0387(2) 0.18735(15) 0.25404(10)
O7 O 0.3739(2) 0.00959(15) 0.02818(10)
C1 C 0.0674(3) 0.23215(18) 0.31681(12)
C2 C 0.4023(3) -0.21347(18) 0.20596(12)
C3 C 0.3277(3) 0.07698(17) 0.29963(13)
H2 H 0.229739 0.030429 0.262900
H3 H 0.380169 0.021623 0.349694
C4 C 0.3360(3) 0.25159(17) 0.41710(13)
N2 N 0.4522(2) -0.10265(15) 0.16362(11)
C5 C 0.0281(3) 0.42261(18) 0.58068(13)
H4 H 0.073675 0.507892 0.571039
H5 H 0.014851 0.410204 0.646829
C6 C 0.3533(3) -0.08242(19) 0.07679(13)
C7 C -0.0529(3) 0.4529(2) 0.32377(15)
H6 H 0.024013 0.470095 0.274314
H7 H -0.056590 0.526485 0.363183
H8 H -0.176840 0.432561 0.297098
C8 C 0.3139(3) -0.41812(19) 0.12450(15)
H9 H 0.434538 -0.417438 0.101734
H10 H 0.225682 -0.457684 0.078805
H11 H 0.319785 -0.464974 0.182281
C9 C -0.1000(3) 0.29027(18) 0.45493(13)
H12 H -0.205269 0.239659 0.426788
C10 C 0.0273(2) 0.34098(17) 0.38199(12)
C11 C 0.3160(3) 0.48473(18) 0.44257(14)
H13 H 0.230927 0.554471 0.450357
H14 H 0.416334 0.488725 0.492971
C12 C 0.4790(3) 0.11105(18) 0.23708(14)
H15 H 0.567381 0.168716 0.270423
H16 H 0.423286 0.154246 0.181286
C13 C 0.1551(3) 0.32180(17) 0.54351(13)
H17 H 0.260204 0.297862 0.588871
C14 C 0.5812(3) -0.00768(19) 0.20836(14)
H18 H 0.670345 0.016176 0.165091
H19 H 0.649627 -0.044779 0.263520
C15 C 0.2425(4) -0.2452(2) -0.04235(14)
H20 H 0.216454 -0.180102 -0.088807
H21 H 0.158239 -0.315083 -0.055636
H22 H 0.368305 -0.274333 -0.043630
C16 C 0.2528(3) -0.28199(18) 0.14145(12)
C17 C 0.2176(3) -0.19148(19) 0.05475(13)
C18 C 0.0666(3) -0.26698(19) 0.18640(13)
H23 H 0.076501 -0.290274 0.253008
C19 C 0.2139(2) 0.35860(17) 0.44589(12)
C20 C -0.1578(3) 0.39656(19) 0.51889(14)
H24 H -0.254690 0.368659 0.556497
H25 H -0.200268 0.471207 0.483109
C21 C 0.0202(3) -0.1401(2) 0.06869(15)
H26 H -0.007286 -0.058079 0.037896
C22 C -0.1303(3) -0.2399(2) 0.04393(17)
H27 H -0.113652 -0.281786 -0.015007
H28 H -0.254063 -0.203029 0.040458
C23 C -0.0954(3) -0.3322(2) 0.12808(16)
H29 H -0.203915 -0.338879 0.162629
H30 H -0.060840 -0.416190 0.107890
loop_
_geom_bond_atom_site_label_1
_geom_bond_atom_site_label_2
_geom_bond_site_symmetry_1
_geom_bond_site_symmetry_2
O1 C9 1_555 1_555
O2 C2 1_555 1_555
O3 C4 1_555 1_555
O4 H1 1_555 1_555
O5 C18 1_555 1_555
N1 C1 1_555 1_555
O6 C1 1_555 1_555
O7 C6 1_555 1_555
C1 C10 1_555 1_555
C2 N2 1_555 1_555
C3 N1 1_555 1_555
H2 C3 1_555 1_555
H3 C3 1_555 1_555
C4 N1 1_555 1_555
N2 C6 1_555 1_555
C5 H4 1_555 1_555
H5 C5 1_555 1_555
C6 C17 1_555 1_555
C7 H6 1_555 1_555
H7 C7 1_555 1_555
H8 C7 1_555 1_555
C8 H9 1_555 1_555
H10 C8 1_555 1_555
H11 C8 1_555 1_555
C9 H12 1_555 1_555
C10 C7 1_555 1_555
C11 O4 1_555 1_555
H13 C11 1_555 1_555
H14 C11 1_555 1_555
C12 C3 1_555 1_555
H15 C12 1_555 1_555
H16 C12 1_555 1_555
C13 O1 1_555 1_555
H17 C13 1_555 1_555
C14 N2 1_555 1_555
H18 C14 1_555 1_555
H19 C14 1_555 1_555
C15 H20 1_555 1_555
H21 C15 1_555 1_555
H22 C15 1_555 1_555
C16 C2 1_555 1_555
C17 C15 1_555 1_555
C18 C16 1_555 1_555
H23 C18 1_555 1_555
C19 C4 1_555 1_555
C20 C5 1_555 1_555
H24 C20 1_555 1_555
H25 C20 1_555 1_555
C21 O5 1_555 1_555
H26 C21 1_555 1_555
C22 C21 1_555 1_555
H27 C22 1_555 1_555
H28 C22 1_555 1_555
C23 C18 1_555 1_555
H29 C23 1_555 1_555
H30 C23 1_555 1_555
C5 C13 1_555 1_555
C8 C16 1_555 1_555
C9 C10 1_555 1_555
C9 C20 1_555 1_555
C10 C19 1_555 1_555
C11 C19 1_555 1_555
C12 C14 1_555 1_555
C13 C19 1_555 1_555
C16 C17 1_555 1_555
C17 C21 1_555 1_555
C22 C23 1_555 1_555

#END
