
#######################################################################
#
#                 Cambridge Crystallographic Data Centre
#                                CCDC 
#
#######################################################################
#
# If this CIF has been generated from an entry in the Cambridge 
# Structural Database, then it will include bibliographic, chemical, 
# crystal, experimental, refinement or atomic coordinate data resulting 
# from the CCDC's data processing and validation procedures.
#
#######################################################################

data_LEHRAU
_chemical_formula_moiety         'C20 H16 Br2 O3'
_chemical_name_systematic        
'methyl 2,4-bis(4-bromophenyl)-3-methylidene-3,4-dihydro-2H-pyran-6-carboxylate'
_symmetry_cell_setting           monoclinic
_symmetry_space_group_name_H-M   'P 21'
_symmetry_Int_Tables_number      4
_space_group_name_Hall           'P 2yb'
loop_
_symmetry_equiv_pos_site_id
_symmetry_equiv_pos_as_xyz
1 x,y,z
2 -x,1/2+y,-z
_cell_length_a                   5.8960(12)
_cell_length_b                   7.8880(16)
_cell_length_c                   19.735(4)
_cell_angle_alpha                90
_cell_angle_beta                 95.60(3)
_cell_angle_gamma                90
_cell_volume                     913.448
_exptl_crystal_colour            colorless
_exptl_crystal_description       block
_cell_formula_units_Z            2
loop_
_atom_site_label
_atom_site_type_symbol
_atom_site_fract_x
_atom_site_fract_y
_atom_site_fract_z
Br1 Br -0.31532(13) 0.24020(11) 1.04476(3)
Br2 Br -0.44981(14) 0.23146(11) 0.39763(4)
O1 O 0.3643(7) 0.2517(8) 0.7820(2)
O2 O 0.3851(10) 0.6994(6) 0.7693(3)
O3 O 0.6229(9) 0.5011(7) 0.8173(3)
C1 C -0.1643(12) 0.2090(8) 0.9649(3)
C2 C 0.0471(13) 0.2812(9) 0.9614(4)
H1 H 0.114269 0.345324 0.997452
C3 C 0.1596(11) 0.2569(9) 0.9029(3)
H2 H 0.301646 0.306351 0.900264
C4 C 0.0626(11) 0.1599(8) 0.8485(3)
C5 C -0.1528(11) 0.0881(8) 0.8539(4)
H3 H -0.220934 0.023350 0.818127
C6 C -0.2672(12) 0.1122(9) 0.9122(4)
H4 H -0.409694 0.063926 0.915423
C7 C 0.1902(11) 0.1249(8) 0.7866(3)
H5 H 0.266165 0.014886 0.793528
C8 C 0.0354(13) 0.1154(9) 0.7209(3)
C9 C -0.0808(11) 0.2845(8) 0.7017(3)
H6 H -0.209938 0.295102 0.729148
C10 C 0.0789(13) 0.4291(9) 0.7217(3)
H7 H 0.037005 0.538161 0.707605
C11 C 0.2783(12) 0.4066(8) 0.7588(3)
C12 C 0.4321(13) 0.5519(8) 0.7817(3)
C13 C 0.7802(14) 0.6353(11) 0.8423(4)
H8 H 0.840654 0.689830 0.804472
H9 H 0.902723 0.587243 0.871767
H10 H 0.700555 0.717129 0.867138
C14 C 0.0100(14) -0.0255(10) 0.6866(4)
H11 H 0.087731 -0.122540 0.702331
H12 H -0.085890 -0.029033 0.646274
C15 C -0.1779(12) 0.2878(8) 0.6277(4)
C16 C -0.0467(13) 0.3422(10) 0.5765(4)
H13 H 0.096811 0.388384 0.588445
C17 C -0.1274(13) 0.3282(10) 0.5080(4)
H14 H -0.039870 0.365504 0.474248
C18 C -0.3397(12) 0.2581(10) 0.4913(3)
C19 C -0.4760(13) 0.2059(9) 0.5408(4)
H15 H -0.619823 0.160651 0.528623
C20 C -0.3943(11) 0.2222(11) 0.6089(3)
H16 H -0.485371 0.188913 0.642440
loop_
_geom_bond_atom_site_label_1
_geom_bond_atom_site_label_2
_geom_bond_site_symmetry_1
_geom_bond_site_symmetry_2
Br1 C1 1_555 1_555
Br2 C18 1_555 1_555
O1 C7 1_555 1_555
O2 C12 1_555 1_555
O3 C12 1_555 1_555
C1 C2 1_555 1_555
C2 H1 1_555 1_555
C3 C2 1_555 1_555
H2 C3 1_555 1_555
C4 C3 1_555 1_555
C5 C4 1_555 1_555
H3 C5 1_555 1_555
C6 C1 1_555 1_555
H4 C6 1_555 1_555
C7 C4 1_555 1_555
H5 C7 1_555 1_555
C8 C7 1_555 1_555
C9 C8 1_555 1_555
H6 C9 1_555 1_555
C10 C9 1_555 1_555
H7 C10 1_555 1_555
C11 O1 1_555 1_555
C12 C11 1_555 1_555
C13 O3 1_555 1_555
H8 C13 1_555 1_555
H9 C13 1_555 1_555
H10 C13 1_555 1_555
C14 C8 1_555 1_555
H11 C14 1_555 1_555
H12 C14 1_555 1_555
C15 C9 1_555 1_555
C16 C15 1_555 1_555
H13 C16 1_555 1_555
C17 C16 1_555 1_555
H14 C17 1_555 1_555
C18 C17 1_555 1_555
C19 C18 1_555 1_555
H15 C19 1_555 1_555
C20 C15 1_555 1_555
H16 C20 1_555 1_555
C5 C6 1_555 1_555
C10 C11 1_555 1_555
C19 C20 1_555 1_555

#END
