
#######################################################################
#
#                 Cambridge Crystallographic Data Centre
#                                CCDC 
#
#######################################################################
#
# If this CIF has been generated from an entry in the Cambridge 
# Structural Database, then it will include bibliographic, chemical, 
# crystal, experimental, refinement or atomic coordinate data resulting 
# from the CCDC's data processing and validation procedures.
#
#######################################################################

data_LEHREW
_chemical_compound_source        'Aspergillus fumigatus'
_chemical_name_common            'Fumitremorgine C'
_chemical_formula_moiety         'C22 H25 N3 O3'
_chemical_name_systematic        
1,2,3,5a,6,11,12,14a-Octahydro-9-methoxy-12-(2-methylprop-1-enyl)-5H,14H-pyrrolo(1'',2'':4',5')pyrazino(1',2':1,6)pyrido(3,4-b)indole-5,14-dione
_chemical_properties_biological  
'pronounced cytotoxic activity against human nasopharyngeal epidermoid tumour KB cell line'
_symmetry_cell_setting           tetragonal
_symmetry_space_group_name_H-M   'P 43'
_symmetry_Int_Tables_number      78
_space_group_name_Hall           'P 4cw'
loop_
_symmetry_equiv_pos_site_id
_symmetry_equiv_pos_as_xyz
1 x,y,z
2 -x,-y,1/2+z
3 -y,x,3/4+z
4 y,-x,1/4+z
_cell_length_a                   8.7795(12)
_cell_length_b                   8.7795(12)
_cell_length_c                   26.020(5)
_cell_angle_alpha                90
_cell_angle_beta                 90
_cell_angle_gamma                90
_cell_volume                     2005.61
_exptl_crystal_colour            colorless
_exptl_crystal_description       block
_chemical_melting_point          '401-403 K'
_cell_formula_units_Z            4
_exptl_crystal_recrystallization_method chloroform/methanol
loop_
_atom_site_label
_atom_site_type_symbol
_atom_site_fract_x
_atom_site_fract_y
_atom_site_fract_z
O1 O -0.2650(4) -0.0338(4) 0.10095(15)
O2 O 0.2452(4) 0.8695(4) 0.19196(11)
O3 O 0.2923(6) 0.8985(4) -0.00825(14)
N1 N 0.2770(4) 1.0150(4) 0.12177(13)
N2 N 0.1910(4) 0.7758(4) 0.06060(13)
N3 N 0.0156(4) 0.4016(4) 0.02792(14)
H1 H 0.0223 0.3835 -0.0045
C1 C -0.2719(8) -0.1191(7) 0.0545(2)
H2 H -0.3315 -0.0647 0.0296
H3 H -0.3180 -0.2163 0.0611
H4 H -0.1707 -0.1340 0.0414
C2 C -0.1928(5) 0.1052(6) 0.1002(2)
C3 C -0.1811(6) 0.1751(7) 0.1488(2)
H5 H -0.2219 0.1265 0.1774
C4 C -0.1106(6) 0.3134(6) 0.15472(19)
H6 H -0.1059 0.3592 0.1869
C5 C -0.0458(5) 0.3850(5) 0.11189(17)
C6 C -0.0602(5) 0.3131(5) 0.06333(16)
C7 C -0.1351(5) 0.1747(5) 0.05681(18)
H7 H -0.1458 0.1308 0.0245
C8 C 0.0429(5) 0.5195(5) 0.10396(15)
C9 C 0.1079(6) 0.6344(5) 0.14030(15)
H8 H 0.2066 0.6000 0.1524
H9 H 0.0413 0.6452 0.1698
C10 C 0.1251(5) 0.7883(5) 0.11328(16)
H10 H 0.0234 0.8334 0.1101
C11 C 0.2213(5) 0.8949(5) 0.14583(17)
C12 C 0.3764(7) 1.1285(6) 0.1457(2)
H11 H 0.4732 1.0839 0.1555
H12 H 0.3288 1.1729 0.1758
C13 C 0.3974(7) 1.2477(6) 0.1031(2)
H13 H 0.4987 1.2917 0.1044
H14 H 0.3227 1.3286 0.1063
C14 C 0.3736(7) 1.1569(5) 0.0531(2)
H15 H 0.3421 1.2233 0.0253
H16 H 0.4661 1.1042 0.0432
C15 C 0.2499(6) 1.0460(5) 0.06664(17)
H17 H 0.1512 1.0971 0.0630
C16 C 0.2466(6) 0.9016(5) 0.03620(18)
C17 C 0.1844(5) 0.6359(5) 0.02845(15)
H18 H 0.1456 0.6621 -0.0057
C18 C 0.3425(5) 0.5726(5) 0.02344(18)
H19 H 0.3915 0.5476 0.0540
C19 C 0.4206(6) 0.5480(5) -0.0193(2)
C20 C 0.3622(8) 0.5836(7) -0.0728(2)
H20 H 0.3612 0.4921 -0.0930
H21 H 0.4277 0.6573 -0.0887
H22 H 0.2608 0.6238 -0.0705
C21 C 0.5768(7) 0.4818(8) -0.0175(3)
H23 H 0.6083 0.4709 0.0176
H24 H 0.6463 0.5481 -0.0352
H25 H 0.5766 0.3838 -0.0339
C22 C 0.0789(5) 0.5247(5) 0.05326(16)
loop_
_geom_bond_atom_site_label_1
_geom_bond_atom_site_label_2
_geom_bond_site_symmetry_1
_geom_bond_site_symmetry_2
O1 C1 1_555 1_555
O2 C11 1_555 1_555
O3 C16 1_555 1_555
N1 C11 1_555 1_555
N2 C10 1_555 1_555
N3 H1 1_555 1_555
C1 H2 1_555 1_555
H3 C1 1_555 1_555
H4 C1 1_555 1_555
C2 O1 1_555 1_555
C3 C2 1_555 1_555
H5 C3 1_555 1_555
C4 C3 1_555 1_555
H6 C4 1_555 1_555
C5 C4 1_555 1_555
C6 N3 1_555 1_555
C7 C2 1_555 1_555
H7 C7 1_555 1_555
C8 C5 1_555 1_555
C9 C8 1_555 1_555
H8 C9 1_555 1_555
H9 C9 1_555 1_555
C10 C9 1_555 1_555
H10 C10 1_555 1_555
C11 C10 1_555 1_555
C12 N1 1_555 1_555
H11 C12 1_555 1_555
H12 C12 1_555 1_555
C13 C12 1_555 1_555
H13 C13 1_555 1_555
H14 C13 1_555 1_555
C14 C13 1_555 1_555
H15 C14 1_555 1_555
H16 C14 1_555 1_555
C15 N1 1_555 1_555
H17 C15 1_555 1_555
C16 N2 1_555 1_555
C17 N2 1_555 1_555
H18 C17 1_555 1_555
C18 C17 1_555 1_555
H19 C18 1_555 1_555
C19 C18 1_555 1_555
C20 C19 1_555 1_555
H20 C20 1_555 1_555
H21 C20 1_555 1_555
H22 C20 1_555 1_555
C21 C19 1_555 1_555
H23 C21 1_555 1_555
H24 C21 1_555 1_555
H25 C21 1_555 1_555
C22 N3 1_555 1_555
C5 C6 1_555 1_555
C6 C7 1_555 1_555
C8 C22 1_555 1_555
C14 C15 1_555 1_555
C15 C16 1_555 1_555
C17 C22 1_555 1_555

#END
