
#######################################################################
#
#                 Cambridge Crystallographic Data Centre
#                                CCDC 
#
#######################################################################
#
# If this CIF has been generated from an entry in the Cambridge 
# Structural Database, then it will include bibliographic, chemical, 
# crystal, experimental, refinement or atomic coordinate data resulting 
# from the CCDC's data processing and validation procedures.
#
#######################################################################

data_LEHVAY
_chemical_formula_moiety         'C39 H31 Cl1 N2 O4 S1,C4 H8 O2'
_chemical_name_systematic        
"N-{[1'-benzyl-2-(4-chlorophenyl)-2',4-dioxo-1',2'-dihydro-3H-spiro[cyclopentane-1,3'-indol]-3-ylidene](phenyl)methyl}-4-methylbenzene-1-sulfonamide ethyl acetate solvate"
_symmetry_cell_setting           orthorhombic
_symmetry_space_group_name_H-M   'P 21 21 21'
_symmetry_Int_Tables_number      19
_space_group_name_Hall           'P 2ac 2ab'
loop_
_symmetry_equiv_pos_site_id
_symmetry_equiv_pos_as_xyz
1 x,y,z
2 1/2-x,-y,1/2+z
3 1/2+x,1/2-y,-z
4 -x,1/2+y,1/2-z
_cell_length_a                   9.82018(9)
_cell_length_b                   12.46606(12)
_cell_length_c                   30.6829(3)
_cell_angle_alpha                90
_cell_angle_beta                 90
_cell_angle_gamma                90
_cell_volume                     3756.17
_exptl_crystal_colour            colorless
_exptl_crystal_description       block
_cell_formula_units_Z            4
loop_
_atom_site_label
_atom_site_type_symbol
_atom_site_fract_x
_atom_site_fract_y
_atom_site_fract_z
Cl1 Cl 0.45726(6) 0.49159(4) 0.48003(2)
S1 S 0.68300(4) 0.35289(4) 0.19249(2)
O1 O 1.00452(13) 0.53490(11) 0.34707(4)
O2 O 0.96658(14) 0.52214(12) 0.23536(4)
O3 O 0.78594(14) 0.28578(11) 0.17354(4)
O4 O 0.54858(14) 0.31212(11) 0.19925(4)
N1 N 0.99300(15) 0.68825(13) 0.38894(5)
N2 N 0.74915(16) 0.38940(13) 0.24026(5)
H1 H 0.831(3) 0.4033(19) 0.2364(8)
C1 C 0.87680(18) 0.69283(15) 0.32195(6)
C2 C 0.86919(18) 0.79955(15) 0.34456(6)
C3 C 0.80894(19) 0.89515(15) 0.33267(6)
H2 H 0.7644 0.9021 0.3053
C4 C 0.8147(2) 0.98150(15) 0.36164(6)
H3 H 0.7746 1.0481 0.3538
C5 C 0.8787(2) 0.97071(16) 0.40181(6)
H4 H 0.8796 1.0298 0.4214
C6 C 0.9414(2) 0.87539(15) 0.41399(6)
H5 H 0.9859 0.8683 0.4413
C7 C 0.93633(18) 0.79127(15) 0.38465(6)
C8 C 0.96467(18) 0.62642(14) 0.35323(6)
C9 C 0.94248(19) 0.68778(15) 0.27665(6)
H6 H 0.9069 0.7450 0.2574
H7 H 1.0428 0.6941 0.2785
C10 C 0.90036(18) 0.57773(16) 0.26060(6)
C11 C 0.76599(18) 0.55278(15) 0.28001(6)
C12 C 0.73365(17) 0.63771(14) 0.31431(5)
H8 H 0.6722 0.6920 0.3006
C13 C 0.66648(18) 0.59991(14) 0.35608(6)
C14 C 0.58185(19) 0.66938(15) 0.37906(6)
H9 H 0.5676 0.7401 0.3684
C15 C 0.5176(2) 0.63698(16) 0.41744(6)
H10 H 0.4596 0.6848 0.4329
C16 C 0.5398(2) 0.53442(16) 0.43253(6)
C17 C 0.6257(2) 0.46417(15) 0.41114(6)
H11 H 0.6415 0.3943 0.4224
C18 C 0.68836(19) 0.49762(15) 0.37294(6)
H12 H 0.7474 0.4498 0.3580
C19 C 1.08761(19) 0.65657(17) 0.42290(6)
H13 H 1.1568 0.7137 0.4264
H14 H 1.1355 0.5906 0.4135
C20 C 1.0213(2) 0.63601(15) 0.46657(6)
C21 C 0.8815(2) 0.62408(18) 0.47094(6)
H15 H 0.8245 0.6318 0.4461
C22 C 0.8240(2) 0.6010(2) 0.51121(7)
H16 H 0.7281 0.5932 0.5139
C23 C 0.9068(3) 0.58921(19) 0.54763(7)
H17 H 0.8679 0.5724 0.5752
C24 C 1.0462(3) 0.60207(19) 0.54357(7)
H18 H 1.1030 0.5942 0.5684
C25 C 1.1034(2) 0.62635(18) 0.50343(7)
H19 H 1.1990 0.6364 0.5011
C26 C 0.68763(18) 0.46957(14) 0.26656(5)
C27 C 0.54300(19) 0.45401(14) 0.27839(6)
C28 C 0.4930(2) 0.35259(17) 0.28935(6)
H20 H 0.5530 0.2928 0.2902
C29 C 0.3562(2) 0.33889(18) 0.29893(7)
H21 H 0.3225 0.2698 0.3063
C30 C 0.2682(2) 0.4263(2) 0.29781(8)
H22 H 0.1743 0.4169 0.3042
C31 C 0.3176(2) 0.52663(19) 0.28745(8)
H23 H 0.2576 0.5864 0.2871
C32 C 0.4544(2) 0.54092(16) 0.27755(7)
H24 H 0.4874 0.6102 0.2702
C33 C 0.67058(19) 0.47185(15) 0.16206(6)
C34 C 0.5457(2) 0.52299(16) 0.15788(6)
H25 H 0.4668 0.4942 0.1714
C35 C 0.5377(2) 0.61681(17) 0.13368(7)
H26 H 0.4526 0.6522 0.1306
C36 C 0.6528(2) 0.65966(17) 0.11388(7)
C37 C 0.7769(2) 0.60651(17) 0.11830(7)
H27 H 0.8556 0.6347 0.1044
C38 C 0.78710(19) 0.51295(16) 0.14268(6)
H28 H 0.8723 0.4778 0.1460
C39 C 0.6449(3) 0.7633(2) 0.08860(9)
H29 H 0.6579 0.7485 0.0575
H30 H 0.7162 0.8122 0.0988
H31 H 0.5555 0.7964 0.0931
O5 O 0.02032(17) 0.79366(13) 0.08581(6)
O6 O 0.22990(17) 0.73833(14) 0.10386(6)
C40 C 0.0641(3) 0.7641(2) 0.16019(8)
H32 H -0.0068 0.7094 0.1635
H33 H 0.0259 0.8349 0.1667
H34 H 0.1391 0.7489 0.1803
C41 C 0.1161(2) 0.76279(17) 0.11435(8)
C42 C 0.0622(3) 0.8039(2) 0.04051(9)
H35 H 0.1077 0.7373 0.0307
H36 H 0.1269 0.8643 0.0373
C43 C -0.0625(3) 0.8240(3) 0.01389(10)
H37 H -0.0360 0.8422 -0.0160
H38 H -0.1140 0.8836 0.0266
H39 H -0.1192 0.7593 0.0136
loop_
_geom_bond_atom_site_label_1
_geom_bond_atom_site_label_2
_geom_bond_site_symmetry_1
_geom_bond_site_symmetry_2
Cl1 C16 1_555 1_555
S1 O3 1_555 1_555
O1 C8 1_555 1_555
O2 C10 1_555 1_555
O4 S1 1_555 1_555
N1 C7 1_555 1_555
N2 S1 1_555 1_555
H1 N2 1_555 1_555
C1 C2 1_555 1_555
C2 C3 1_555 1_555
C3 H2 1_555 1_555
C4 C3 1_555 1_555
H3 C4 1_555 1_555
C5 C4 1_555 1_555
H4 C5 1_555 1_555
C6 C5 1_555 1_555
H5 C6 1_555 1_555
C7 C2 1_555 1_555
C8 N1 1_555 1_555
C9 C1 1_555 1_555
H6 C9 1_555 1_555
H7 C9 1_555 1_555
C10 C9 1_555 1_555
C11 C10 1_555 1_555
C12 C1 1_555 1_555
H8 C12 1_555 1_555
C13 C12 1_555 1_555
C14 C13 1_555 1_555
H9 C14 1_555 1_555
C15 C14 1_555 1_555
H10 C15 1_555 1_555
C16 C15 1_555 1_555
C17 C16 1_555 1_555
H11 C17 1_555 1_555
C18 C13 1_555 1_555
H12 C18 1_555 1_555
C19 N1 1_555 1_555
H13 C19 1_555 1_555
H14 C19 1_555 1_555
C20 C19 1_555 1_555
C21 C20 1_555 1_555
H15 C21 1_555 1_555
C22 C21 1_555 1_555
H16 C22 1_555 1_555
C23 C22 1_555 1_555
H17 C23 1_555 1_555
C24 C23 1_555 1_555
H18 C24 1_555 1_555
C25 C20 1_555 1_555
H19 C25 1_555 1_555
C26 N2 1_555 1_555
C27 C26 1_555 1_555
C28 C27 1_555 1_555
H20 C28 1_555 1_555
C29 C28 1_555 1_555
H21 C29 1_555 1_555
C30 C29 1_555 1_555
H22 C30 1_555 1_555
C31 C30 1_555 1_555
H23 C31 1_555 1_555
C32 C27 1_555 1_555
H24 C32 1_555 1_555
C33 S1 1_555 1_555
C34 C33 1_555 1_555
H25 C34 1_555 1_555
C35 C34 1_555 1_555
H26 C35 1_555 1_555
C36 C35 1_555 1_555
C37 C36 1_555 1_555
H27 C37 1_555 1_555
C38 C33 1_555 1_555
H28 C38 1_555 1_555
C39 C36 1_555 1_555
H29 C39 1_555 1_555
H30 C39 1_555 1_555
H31 C39 1_555 1_555
O5 C41 1_555 1_555
O6 C41 1_555 1_555
C40 H32 1_555 1_555
H33 C40 1_555 1_555
H34 C40 1_555 1_555
C41 C40 1_555 1_555
C42 O5 1_555 1_555
H35 C42 1_555 1_555
H36 C42 1_555 1_555
C43 C42 1_555 1_555
H37 C43 1_555 1_555
H38 C43 1_555 1_555
H39 C43 1_555 1_555
C1 C8 1_555 1_555
C6 C7 1_555 1_555
C11 C12 1_555 1_555
C11 C26 1_555 1_555
C17 C18 1_555 1_555
C24 C25 1_555 1_555
C31 C32 1_555 1_555
C37 C38 1_555 1_555

#END
