
#######################################################################
#
#                 Cambridge Crystallographic Data Centre
#                                CCDC 
#
#######################################################################
#
# If this CIF has been generated from an entry in the Cambridge 
# Structural Database, then it will include bibliographic, chemical, 
# crystal, experimental, refinement or atomic coordinate data resulting 
# from the CCDC's data processing and validation procedures.
#
#######################################################################

data_LEHYIJ
_chemical_formula_moiety         'C24 H20 B1 1-,C21 H17 N2 O1 1+'
_chemical_name_systematic        
'4-{2-[4-(1,3-benzoxazol-2-yl)phenyl]ethenyl}-1-methylpyridin-1-ium tetraphenylborate'
_symmetry_cell_setting           orthorhombic
_symmetry_space_group_name_H-M   'P c a 21'
_symmetry_Int_Tables_number      29
_space_group_name_Hall           'P 2c -2ac'
loop_
_symmetry_equiv_pos_site_id
_symmetry_equiv_pos_as_xyz
1 x,y,z
2 -x,-y,1/2+z
3 1/2+x,-y,z
4 1/2-x,y,1/2+z
_cell_length_a                   29.559(2)
_cell_length_b                   10.1822(8)
_cell_length_c                   23.1636(18)
_cell_angle_alpha                90
_cell_angle_beta                 90
_cell_angle_gamma                90
_cell_volume                     6971.68
_exptl_crystal_colour            yellow
_exptl_crystal_description       BLOCK
_cell_formula_units_Z            8
loop_
_atom_site_label
_atom_site_type_symbol
_atom_site_fract_x
_atom_site_fract_y
_atom_site_fract_z
B1 B 0.69109(11) 0.1687(3) 0.61022(14)
C1 C 0.77897(11) 0.1208(3) 0.58781(14)
H1 H 0.7725 0.1343 0.5490
C2 C 0.82324(11) 0.0910(3) 0.60319(16)
H2 H 0.8454 0.0845 0.5749
C3 C 0.83423(12) 0.0713(3) 0.65996(16)
H3 H 0.8637 0.0508 0.6706
C4 C 0.80121(12) 0.0820(4) 0.70046(16)
H4 H 0.8084 0.0699 0.7392
C5 C 0.75705(11) 0.1108(3) 0.68501(14)
H5 H 0.7354 0.1168 0.7140
C6 C 0.74347(10) 0.1315(3) 0.62788(12)
C7 C 0.69306(11) -0.0345(3) 0.53734(13)
H6 H 0.7150 -0.0712 0.5612
C8 C 0.67868(12) -0.1058(3) 0.48937(14)
H7 H 0.6908 -0.1885 0.4822
C9 C 0.64667(12) -0.0544(3) 0.45263(14)
H8 H 0.6370 -0.1018 0.4206
C10 C 0.62939(11) 0.0674(3) 0.46395(14)
H9 H 0.6080 0.1034 0.4391
C11 C 0.64346(10) 0.1386(3) 0.51222(12)
H10 H 0.6310 0.2210 0.5188
C12 C 0.67600(10) 0.0898(3) 0.55140(12)
C13 C 0.72260(11) 0.4118(3) 0.59016(13)
H11 H 0.7515 0.3761 0.5887
C14 C 0.71755(14) 0.5467(3) 0.58124(15)
H12 H 0.7427 0.5983 0.5730
C15 C 0.67530(14) 0.6035(3) 0.58465(14)
H13 H 0.6719 0.6938 0.5803
C16 C 0.63837(12) 0.5255(3) 0.59450(14)
H14 H 0.6096 0.5624 0.5960
C17 C 0.64400(11) 0.3914(3) 0.60218(13)
H15 H 0.6183 0.3406 0.6084
C18 C 0.68597(10) 0.3279(3) 0.60116(11)
C19 C 0.61644(13) -0.0595(4) 0.71213(19)
H16 H 0.6091 -0.1482 0.7141
C20 C 0.64430(11) -0.0132(3) 0.66813(16)
H17 H 0.6548 -0.0729 0.6409
C21 C 0.65734(9) 0.1182(3) 0.66270(13)
C22 C 0.64053(10) 0.1998(4) 0.70625(13)
H18 H 0.6489 0.2878 0.7061
C23 C 0.61190(12) 0.1557(5) 0.74986(15)
H19 H 0.6009 0.2143 0.7773
C24 C 0.60001(12) 0.0261(6) 0.75231(19)
H20 H 0.5808 -0.0036 0.7813
B2 B 0.42772(12) 0.3681(3) 0.77234(14)
C25 C 0.54273(15) 0.4647(4) 0.6994(2)
H21 H 0.5585 0.4382 0.6667
C26 C 0.50177(12) 0.4089(3) 0.71221(17)
H22 H 0.4902 0.3470 0.6867
C27 C 0.47646(10) 0.4392(3) 0.76100(14)
C28 C 0.49539(12) 0.5373(3) 0.79601(16)
H23 H 0.4798 0.5632 0.8290
C29 C 0.53639(15) 0.5972(4) 0.7834(2)
H24 H 0.5478 0.6624 0.8075
C30 C 0.56027(15) 0.5588(5) 0.7345(3)
H25 H 0.5880 0.5972 0.7258
C31 C 0.47363(11) 0.1398(3) 0.78158(14)
H26 H 0.5001 0.1857 0.7737
C32 C 0.43294(10) 0.2083(3) 0.78246(12)
C33 C 0.47632(13) 0.0048(4) 0.79200(17)
H27 H 0.5044 -0.0367 0.7913
C34 C 0.43834(14) -0.0671(3) 0.80318(16)
H28 H 0.4402 -0.1569 0.8100
C35 C 0.39724(12) -0.0039(3) 0.80414(14)
H29 H 0.3708 -0.0510 0.8110
C36 C 0.39542(11) 0.1302(3) 0.79484(13)
H30 H 0.3673 0.1710 0.7970
C37 C 0.37123(11) 0.3042(4) 0.68416(14)
H31 H 0.3706 0.2185 0.6979
C38 C 0.34654(13) 0.3340(4) 0.63488(17)
H32 H 0.3301 0.2685 0.6164
C39 C 0.34630(13) 0.4603(5) 0.61314(18)
H33 H 0.3296 0.4808 0.5803
C40 C 0.37094(14) 0.5543(4) 0.64069(16)
H34 H 0.3710 0.6399 0.6267
C41 C 0.39560(11) 0.5237(3) 0.68886(14)
H35 H 0.4125 0.5901 0.7061
C42 C 0.39697(10) 0.3970(3) 0.71399(13)
C43 C 0.40359(10) 0.4336(3) 0.83010(13)
C44 C 0.38648(11) 0.5617(3) 0.83089(14)
H36 H 0.3885 0.6118 0.7974
C45 C 0.36655(13) 0.6176(3) 0.87950(17)
H37 H 0.3560 0.7036 0.8780
C46 C 0.36238(12) 0.5467(4) 0.92941(15)
H38 H 0.3481 0.5824 0.9615
C47 C 0.37978(12) 0.4216(3) 0.93108(14)
H39 H 0.3778 0.3728 0.9649
C48 C 0.40026(11) 0.3676(3) 0.88267(13)
H40 H 0.4123 0.2834 0.8854
C49 C 0.96029(14) 1.3121(4) 0.40340(16)
H41 H 0.9809 1.3116 0.3730
C50 C 0.93450(14) 1.4199(4) 0.41622(17)
H42 H 0.9377 1.4952 0.3939
C51 C 0.90379(13) 1.4207(4) 0.46131(17)
H43 H 0.8871 1.4964 0.4683
C52 C 0.89725(11) 1.3132(3) 0.49600(15)
H44 H 0.8763 1.3136 0.5260
C53 C 0.92349(11) 1.2044(3) 0.48387(14)
C54 C 0.95375(11) 1.2041(3) 0.43847(14)
C55 C 0.95527(11) 1.0149(3) 0.48084(14)
C56 C 0.96815(11) 0.8799(3) 0.49199(15)
C57 C 1.00361(12) 0.8213(3) 0.46230(15)
H45 H 1.0190 0.8680 0.4339
C58 C 1.01599(11) 0.6934(3) 0.47497(16)
H46 H 1.0397 0.6550 0.4547
C59 C 0.99396(11) 0.6214(3) 0.51703(15)
C60 C 0.95754(12) 0.6804(3) 0.54519(15)
H47 H 0.9415 0.6327 0.5726
C61 C 0.94483(11) 0.8077(3) 0.53334(15)
H48 H 0.9207 0.8453 0.5530
C62 C 1.00953(12) 0.4865(3) 0.52969(17)
H49 H 1.0320 0.4519 0.5060
C63 C 0.99443(12) 0.4114(3) 0.57145(16)
H50 H 0.9726 0.4474 0.5956
C64 C 1.00862(11) 0.2768(3) 0.58380(15)
C65 C 1.04089(12) 0.2074(3) 0.55215(15)
H51 H 1.0555 0.2477 0.5214
C66 C 1.05096(12) 0.0819(3) 0.56596(16)
H52 H 1.0730 0.0378 0.5449
C67 C 0.99961(14) 0.0828(4) 0.64040(16)
H53 H 0.9853 0.0394 0.6707
C68 C 0.98887(13) 0.2103(4) 0.62896(17)
H54 H 0.9678 0.2531 0.6521
C69 C 1.04078(13) -0.1186(3) 0.62235(17)
H55 H 1.0393 -0.1321 0.6633
H56 H 1.0707 -0.1390 0.6089
H57 H 1.0193 -0.1748 0.6035
N1 N 0.97443(8) 1.0821(2) 0.43675(10)
N2 N 1.03019(9) 0.0197(3) 0.60900(12)
O1 O 0.92545(8) 1.0801(2) 0.51047(10)
C70 C 0.78421(11) -0.4009(4) 0.81504(15)
H58 H 0.8027 -0.4527 0.8382
C71 C 0.74125(16) -0.3764(4) 0.73234(18)
H59 H 0.7301 -0.4100 0.6978
C72 C 0.77945(15) -0.5864(4) 0.74700(19)
H60 H 0.7585 -0.6146 0.7179
H61 H 0.7777 -0.6446 0.7796
H62 H 0.8096 -0.5877 0.7316
C73 C 0.77423(11) -0.2758(3) 0.83229(14)
H63 H 0.7862 -0.2437 0.8667
C74 C 0.73024(15) -0.2525(4) 0.74845(16)
H64 H 0.7112 -0.2035 0.7249
C75 C 0.74646(11) -0.1963(3) 0.79893(13)
C76 C 0.73379(11) -0.0644(3) 0.81484(14)
H65 H 0.7116 -0.0250 0.7923
C77 C 0.74998(11) 0.0067(3) 0.85768(14)
H66 H 0.7720 -0.0315 0.8809
C78 C 0.73611(11) 0.1407(3) 0.87167(13)
C79 C 0.75550(12) 0.2090(3) 0.91778(14)
H67 H 0.7775 0.1680 0.9401
C80 C 0.74278(11) 0.3358(3) 0.93086(14)
H68 H 0.7563 0.3790 0.9618
C81 C 0.71012(10) 0.3995(3) 0.89846(13)
C82 C 0.69003(11) 0.3323(3) 0.85296(14)
H69 H 0.6679 0.3736 0.8309
C83 C 0.70250(12) 0.2048(3) 0.84000(14)
H70 H 0.6883 0.1611 0.8098
C84 C 0.69759(11) 0.5344(3) 0.91144(15)
C85 C 0.63549(12) 0.8184(4) 0.87478(15)
H71 H 0.6175 0.8088 0.8421
C86 C 0.63771(13) 0.9345(4) 0.90521(16)
H72 H 0.6209 1.0063 0.8927
C87 C 0.66446(12) 0.9465(4) 0.95404(16)
H73 H 0.6652 1.0266 0.9733
C88 C 0.68988(12) 0.8446(4) 0.97489(15)
H74 H 0.7075 0.8539 1.0079
C89 C 0.68832(11) 0.7274(4) 0.94491(14)
C90 C 0.66157(11) 0.7178(3) 0.89587(13)
N3 N 0.71086(9) 0.6075(3) 0.95335(12)
N4 N 0.76792(10) -0.4508(3) 0.76557(13)
O2 O 0.66741(7) 0.5931(2) 0.87387(9)
loop_
_geom_bond_atom_site_label_1
_geom_bond_atom_site_label_2
_geom_bond_site_symmetry_1
_geom_bond_site_symmetry_2
B1 C6 1_555 1_555
C1 H1 1_555 1_555
C2 C1 1_555 1_555
H2 C2 1_555 1_555
C3 C2 1_555 1_555
H3 C3 1_555 1_555
C4 C3 1_555 1_555
H4 C4 1_555 1_555
C5 C4 1_555 1_555
H5 C5 1_555 1_555
C6 C1 1_555 1_555
C7 H6 1_555 1_555
C8 C7 1_555 1_555
H7 C8 1_555 1_555
C9 C8 1_555 1_555
H8 C9 1_555 1_555
C10 C9 1_555 1_555
H9 C10 1_555 1_555
C11 C10 1_555 1_555
H10 C11 1_555 1_555
C12 B1 1_555 1_555
C13 H11 1_555 1_555
C14 C13 1_555 1_555
H12 C14 1_555 1_555
C15 C14 1_555 1_555
H13 C15 1_555 1_555
C16 C15 1_555 1_555
H14 C16 1_555 1_555
C17 C16 1_555 1_555
H15 C17 1_555 1_555
C18 B1 1_555 1_555
C19 H16 1_555 1_555
C20 C19 1_555 1_555
H17 C20 1_555 1_555
C21 B1 1_555 1_555
C22 C21 1_555 1_555
H18 C22 1_555 1_555
C23 C22 1_555 1_555
H19 C23 1_555 1_555
C24 C19 1_555 1_555
H20 C24 1_555 1_555
B2 C27 1_555 1_555
C25 H21 1_555 1_555
C26 C25 1_555 1_555
H22 C26 1_555 1_555
C27 C26 1_555 1_555
C28 C27 1_555 1_555
H23 C28 1_555 1_555
C29 C28 1_555 1_555
H24 C29 1_555 1_555
C30 C25 1_555 1_555
H25 C30 1_555 1_555
C31 H26 1_555 1_555
C32 B2 1_555 1_555
C33 C31 1_555 1_555
H27 C33 1_555 1_555
C34 C33 1_555 1_555
H28 C34 1_555 1_555
C35 C34 1_555 1_555
H29 C35 1_555 1_555
C36 C32 1_555 1_555
H30 C36 1_555 1_555
C37 H31 1_555 1_555
C38 C37 1_555 1_555
H32 C38 1_555 1_555
C39 C38 1_555 1_555
H33 C39 1_555 1_555
C40 C39 1_555 1_555
H34 C40 1_555 1_555
C41 C40 1_555 1_555
H35 C41 1_555 1_555
C42 B2 1_555 1_555
C43 B2 1_555 1_555
C44 C43 1_555 1_555
H36 C44 1_555 1_555
C45 C44 1_555 1_555
H37 C45 1_555 1_555
C46 C45 1_555 1_555
H38 C46 1_555 1_555
C47 C46 1_555 1_555
H39 C47 1_555 1_555
C48 C43 1_555 1_555
H40 C48 1_555 1_555
C49 H41 1_555 1_555
C50 C49 1_555 1_555
H42 C50 1_555 1_555
C51 C50 1_555 1_555
H43 C51 1_555 1_555
C52 C51 1_555 1_555
H44 C52 1_555 1_555
C53 C52 1_555 1_555
C54 C49 1_555 1_555
C55 C56 1_555 1_555
C56 C57 1_555 1_555
C57 H45 1_555 1_555
C58 C57 1_555 1_555
H46 C58 1_555 1_555
C59 C58 1_555 1_555
C60 C59 1_555 1_555
H47 C60 1_555 1_555
C61 C56 1_555 1_555
H48 C61 1_555 1_555
C62 C59 1_555 1_555
H49 C62 1_555 1_555
C63 C62 1_555 1_555
H50 C63 1_555 1_555
C64 C63 1_555 1_555
C65 C64 1_555 1_555
H51 C65 1_555 1_555
C66 C65 1_555 1_555
H52 C66 1_555 1_555
C67 H53 1_555 1_555
C68 C64 1_555 1_555
H54 C68 1_555 1_555
C69 H55 1_555 1_555
H56 C69 1_555 1_555
H57 C69 1_555 1_555
N1 C54 1_555 1_555
N2 C66 1_555 1_555
O1 C53 1_555 1_555
C70 H58 1_555 1_555
C71 H59 1_555 1_555
C72 H60 1_555 1_555
H61 C72 1_555 1_555
H62 C72 1_555 1_555
C73 C70 1_555 1_555
H63 C73 1_555 1_555
C74 C71 1_555 1_555
H64 C74 1_555 1_555
C75 C73 1_555 1_555
C76 C75 1_555 1_555
H65 C76 1_555 1_555
C77 C76 1_555 1_555
H66 C77 1_555 1_555
C78 C77 1_555 1_555
C79 C78 1_555 1_555
H67 C79 1_555 1_555
C80 C79 1_555 1_555
H68 C80 1_555 1_555
C81 C80 1_555 1_555
C82 C81 1_555 1_555
H69 C82 1_555 1_555
C83 C78 1_555 1_555
H70 C83 1_555 1_555
C84 C81 1_555 1_555
C85 H71 1_555 1_555
C86 C85 1_555 1_555
H72 C86 1_555 1_555
C87 C86 1_555 1_555
H73 C87 1_555 1_555
C88 C87 1_555 1_555
H74 C88 1_555 1_555
C89 C88 1_555 1_555
C90 C85 1_555 1_555
N3 C84 1_555 1_555
N4 C70 1_555 1_555
O2 C84 1_555 1_555
C5 C6 1_555 1_555
C7 C12 1_555 1_555
C11 C12 1_555 1_555
C13 C18 1_555 1_555
C17 C18 1_555 1_555
C20 C21 1_555 1_555
C23 C24 1_555 1_555
C29 C30 1_555 1_555
C31 C32 1_555 1_555
C35 C36 1_555 1_555
C37 C42 1_555 1_555
C41 C42 1_555 1_555
C47 C48 1_555 1_555
C53 C54 1_555 1_555
C55 N1 1_555 1_555
C55 O1 1_555 1_555
C60 C61 1_555 1_555
C67 C68 1_555 1_555
C67 N2 1_555 1_555
C69 N2 1_555 1_555
C71 N4 1_555 1_555
C72 N4 1_555 1_555
C74 C75 1_555 1_555
C82 C83 1_555 1_555
C89 C90 1_555 1_555
C89 N3 1_555 1_555
C90 O2 1_555 1_555

#END
