
#######################################################################
#
#                 Cambridge Crystallographic Data Centre
#                                CCDC 
#
#######################################################################
#
# If this CIF has been generated from an entry in the Cambridge 
# Structural Database, then it will include bibliographic, chemical, 
# crystal, experimental, refinement or atomic coordinate data resulting 
# from the CCDC's data processing and validation procedures.
#
#######################################################################

data_LEHYEF
_chemical_formula_moiety         'C21 H17 N2 O1 1+,F6 P1 1-'
_chemical_name_systematic        
'4-{2-[4-(1,3-benzoxazol-2-yl)phenyl]ethenyl}-1-methylpyridin-1-ium hexafluorophosphate'
_symmetry_cell_setting           monoclinic
_symmetry_space_group_name_H-M   'P 21/c'
_symmetry_Int_Tables_number      14
_space_group_name_Hall           '-P 2ybc'
loop_
_symmetry_equiv_pos_site_id
_symmetry_equiv_pos_as_xyz
1 x,y,z
2 -x,1/2+y,1/2-z
3 -x,-y,-z
4 x,1/2-y,1/2+z
_cell_length_a                   21.723(3)
_cell_length_b                   7.5706(12)
_cell_length_c                   12.2550(19)
_cell_angle_alpha                90
_cell_angle_beta                 103.758(2)
_cell_angle_gamma                90
_cell_volume                     1957.59
_cell_formula_units_Z            4
loop_
_atom_site_label
_atom_site_type_symbol
_atom_site_fract_x
_atom_site_fract_y
_atom_site_fract_z
C1 C 0.89695(18) 0.3497(5) 0.8749(3)
H1 H 0.9296 0.4196 0.8614
C2 C 0.86259(18) 0.1378(5) 0.9810(3)
H2 H 0.8710 0.0595 1.0412
C3 C 0.80279(17) 0.1468(5) 0.9142(3)
H3 H 0.7710 0.0763 0.9303
C4 C 0.83789(18) 0.3625(5) 0.8059(3)
H4 H 0.8306 0.4421 0.7463
C5 C 0.78870(15) 0.2590(4) 0.8230(3)
C6 C 0.97240(17) 0.2288(6) 1.0390(4)
H5 H 1.0039 0.2260 0.9958
H6 H 0.9758 0.1242 1.0843
H7 H 0.9789 0.3310 1.0868
C7 C 0.72385(16) 0.2582(4) 0.7512(3)
H8 H 0.6940 0.1883 0.7740
C8 C 0.70487(16) 0.3475(4) 0.6583(3)
H9 H 0.7344 0.4224 0.6386
C9 C 0.64179(15) 0.3422(4) 0.5817(3)
C10 C 0.59079(15) 0.2448(4) 0.6032(2)
H10 H 0.5961 0.1840 0.6707
C11 C 0.53272(14) 0.2376(4) 0.5255(2)
H11 H 0.4994 0.1731 0.5412
C12 C 0.52470(13) 0.3279(3) 0.4238(2)
C13 C 0.57456(14) 0.4292(4) 0.4043(3)
H12 H 0.5691 0.4929 0.3378
C14 C 0.63155(14) 0.4363(4) 0.4817(3)
H13 H 0.6640 0.5055 0.4671
C15 C 0.46451(14) 0.3245(4) 0.3414(2)
C16 C 0.36589(13) 0.2763(4) 0.2679(2)
C17 C 0.39093(13) 0.3770(4) 0.1943(2)
C18 C 0.30239(15) 0.2297(4) 0.2439(3)
H14 H 0.2856 0.1623 0.2932
C19 C 0.26536(15) 0.2889(5) 0.1426(3)
H15 H 0.2224 0.2617 0.1238
C20 C 0.29057(15) 0.3880(5) 0.0683(3)
H16 H 0.2642 0.4240 0.0006
C21 C 0.35408(15) 0.4345(5) 0.0923(3)
H17 H 0.3710 0.5008 0.0426
N1 N 0.90869(12) 0.2371(3) 0.9624(2)
O1 O 0.41399(10) 0.2420(3) 0.36163(18)
N2 N 0.45465(10) 0.4056(3) 0.24337(18)
F1 F 0.07029(14) 0.1597(4) 0.8074(3)
F2 F 0.10717(18) 0.3416(6) 0.9532(2)
F3 F 0.17190(12) 0.2145(4) 0.8664(3)
F4 F 0.1533(2) 0.5024(4) 0.8512(4)
F5 F 0.11469(19) 0.3202(6) 0.7030(2)
F6 F 0.04912(17) 0.4445(5) 0.7905(3)
P1 P 0.11058(4) 0.33568(11) 0.82762(6)
loop_
_geom_bond_atom_site_label_1
_geom_bond_atom_site_label_2
_geom_bond_site_symmetry_1
_geom_bond_site_symmetry_2
C1 H1 1_555 1_555
C2 H2 1_555 1_555
C3 C2 1_555 1_555
H3 C3 1_555 1_555
C4 C1 1_555 1_555
H4 C4 1_555 1_555
C5 C3 1_555 1_555
C6 H5 1_555 1_555
H6 C6 1_555 1_555
H7 C6 1_555 1_555
C7 C5 1_555 1_555
H8 C7 1_555 1_555
C8 C7 1_555 1_555
H9 C8 1_555 1_555
C9 C8 1_555 1_555
C10 C9 1_555 1_555
H10 C10 1_555 1_555
C11 C10 1_555 1_555
H11 C11 1_555 1_555
C12 C11 1_555 1_555
C13 C12 1_555 1_555
H12 C13 1_555 1_555
C14 C9 1_555 1_555
H13 C14 1_555 1_555
C15 C12 1_555 1_555
C16 C17 1_555 1_555
C17 C21 1_555 1_555
C18 C16 1_555 1_555
H14 C18 1_555 1_555
C19 C18 1_555 1_555
H15 C19 1_555 1_555
C20 C19 1_555 1_555
H16 C20 1_555 1_555
C21 C20 1_555 1_555
H17 C21 1_555 1_555
N1 C1 1_555 1_555
O1 C15 1_555 1_555
N2 C15 1_555 1_555
F1 P1 1_555 1_555
F2 P1 1_555 1_555
F3 P1 1_555 1_555
F4 P1 1_555 1_555
F5 P1 1_555 1_555
F6 P1 1_555 1_555
C2 N1 1_555 1_555
C4 C5 1_555 1_555
C6 N1 1_555 1_555
C13 C14 1_555 1_555
C16 O1 1_555 1_555
C17 N2 1_555 1_555

#END
