
#######################################################################
#
#                 Cambridge Crystallographic Data Centre
#                                CCDC 
#
#######################################################################
#
# If this CIF has been generated from an entry in the Cambridge 
# Structural Database, then it will include bibliographic, chemical, 
# crystal, experimental, refinement or atomic coordinate data resulting 
# from the CCDC's data processing and validation procedures.
#
#######################################################################

data_LEHYON
_chemical_formula_moiety         'C16 H16 N6 O2 S1'
_chemical_name_systematic        
3-(5-Amino-4-(ethoxycarbonyl)-3-methylthio-1H-pyrazolyl)-5-phenyl-1,2,4-triazine
_symmetry_cell_setting           monoclinic
_symmetry_space_group_name_H-M   'P 21/c'
_symmetry_Int_Tables_number      14
_space_group_name_Hall           '-P 2ybc'
loop_
_symmetry_equiv_pos_site_id
_symmetry_equiv_pos_as_xyz
1 x,y,z
2 -x,1/2+y,1/2-z
3 -x,-y,-z
4 x,1/2-y,1/2+z
_cell_length_a                   16.961(14)
_cell_length_b                   7.297(6)
_cell_length_c                   13.857(11)
_cell_angle_alpha                90
_cell_angle_beta                 109.803(13)
_cell_angle_gamma                90
_cell_volume                     1613.58
_cell_formula_units_Z            4
loop_
_atom_site_label
_atom_site_type_symbol
_atom_site_fract_x
_atom_site_fract_y
_atom_site_fract_z
S1 S 0.38602(5) 0.50443(15) 0.51100(7)
O1 O 0.28903(18) 0.4820(4) 0.7851(2)
O2 O 0.39667(16) 0.4553(4) 0.72749(19)
N1 N 0.02519(16) 0.7372(4) 0.45632(18)
N2 N 0.08694(16) 0.7636(4) 0.3254(2)
N3 N 0.01743(17) 0.8475(4) 0.2646(2)
N4 N 0.16070(15) 0.6359(4) 0.48132(18)
N5 N 0.22595(16) 0.6078(4) 0.4425(2)
N6 N 0.1360(2) 0.6100(5) 0.6406(3)
H1 H 0.085(2) 0.650(5) 0.612(3)
H2 H 0.163(2) 0.594(5) 0.707(3)
C1 C -0.1084(2) 0.8106(5) 0.5312(2)
H3 H -0.0601 0.7558 0.5751
C2 C -0.1737(2) 0.8484(5) 0.5654(3)
H4 H -0.1687 0.8211 0.6328
C3 C -0.2460(2) 0.9257(5) 0.5015(3)
H5 H -0.2900 0.9501 0.5253
C4 C -0.2532(2) 0.9667(5) 0.4031(3)
H6 H -0.3024 1.0187 0.3594
C5 C -0.1879(2) 0.9314(5) 0.3679(3)
H7 H -0.1934 0.9603 0.3005
C6 C -0.11401(18) 0.8535(4) 0.4316(2)
C7 C -0.04327(19) 0.8210(4) 0.3953(2)
C8 C -0.0446(2) 0.8772(5) 0.2981(2)
H8 H -0.0918 0.9382 0.2556
C9 C 0.08714(19) 0.7164(4) 0.4181(2)
C10 C 0.28902(19) 0.5547(5) 0.5220(2)
C11 C 0.2686(2) 0.5442(5) 0.6134(2)
C12 C 0.1852(2) 0.5965(5) 0.5836(2)
C13 C 0.3165(2) 0.4919(5) 0.7160(3)
C14 C 0.4498(3) 0.4000(8) 0.8279(3)
H11 H 0.4295 0.4541 0.8790
H12 H 0.4475 0.2678 0.8337
C16 C 0.5339(6) 0.455(4) 0.8464(14)
H16 H 0.5683 0.4145 0.9134
H17 H 0.5365 0.5859 0.8426
H18 H 0.5538 0.4009 0.7958
C17 C 0.3633(2) 0.5477(7) 0.3778(3)
H19 H 0.3251 0.4562 0.3384
H20 H 0.4142 0.5435 0.3621
H21 H 0.3382 0.6666 0.3611
H9? H 0.4791 0.2884 0.8226
H10? H 0.4154 0.3741 0.8697
C15? C 0.5092(15) 0.541(3) 0.8770(14)
H13? H 0.5437 0.5001 0.9438
H14? H 0.4798 0.6501 0.8836
H15? H 0.5438 0.5672 0.8364
loop_
_geom_bond_atom_site_label_1
_geom_bond_atom_site_label_2
_geom_bond_site_symmetry_1
_geom_bond_site_symmetry_2
S1 C10 1_555 1_555
O1 C13 1_555 1_555
O2 C13 1_555 1_555
N1 C7 1_555 1_555
N2 N3 1_555 1_555
N3 C8 1_555 1_555
N4 N5 1_555 1_555
N5 C10 1_555 1_555
N6 H1 1_555 1_555
H2 N6 1_555 1_555
C1 H3 1_555 1_555
C2 C1 1_555 1_555
H4 C2 1_555 1_555
C3 C2 1_555 1_555
H5 C3 1_555 1_555
C4 C3 1_555 1_555
H6 C4 1_555 1_555
C5 C4 1_555 1_555
H7 C5 1_555 1_555
C6 C1 1_555 1_555
C7 C6 1_555 1_555
C8 C7 1_555 1_555
H8 C8 1_555 1_555
C9 N1 1_555 1_555
C10 C11 1_555 1_555
C11 C12 1_555 1_555
C12 N4 1_555 1_555
C13 C11 1_555 1_555
C14 O2 1_555 1_555
H11 C14 1_555 1_555
H12 C14 1_555 1_555
C16 C14 1_555 1_555
H16 C16 1_555 1_555
H17 C16 1_555 1_555
H18 C16 1_555 1_555
C17 S1 1_555 1_555
H19 C17 1_555 1_555
H20 C17 1_555 1_555
H21 C17 1_555 1_555
N2 C9 1_555 1_555
N4 C9 1_555 1_555
N6 C12 1_555 1_555
C5 C6 1_555 1_555

#END
