
#######################################################################
#
#                 Cambridge Crystallographic Data Centre
#                                CCDC 
#
#######################################################################
#
# If this CIF has been generated from an entry in the Cambridge 
# Structural Database, then it will include bibliographic, chemical, 
# crystal, experimental, refinement or atomic coordinate data resulting 
# from the CCDC's data processing and validation procedures.
#
#######################################################################

data_LEHZAA
_chemical_formula_moiety         'C34 H30 O1'
_chemical_name_systematic        
(10-t-Butyl-4,5-diphenyl-11H-benzo(b)fluoren-11-yl)methanol
_symmetry_cell_setting           monoclinic
_symmetry_space_group_name_H-M   'P 21/n'
_symmetry_Int_Tables_number      14
_space_group_name_Hall           '-P 2yn'
loop_
_symmetry_equiv_pos_site_id
_symmetry_equiv_pos_as_xyz
1 x,y,z
2 1/2-x,1/2+y,1/2-z
3 -x,-y,-z
4 1/2+x,1/2-y,1/2+z
_cell_length_a                   23.6873(12)
_cell_length_b                   8.9350(4)
_cell_length_c                   24.1936(13)
_cell_angle_alpha                90
_cell_angle_beta                 93.9040(10)
_cell_angle_gamma                90
_cell_volume                     5108.6
_cell_formula_units_Z            8
loop_
_atom_site_label
_atom_site_type_symbol
_atom_site_fract_x
_atom_site_fract_y
_atom_site_fract_z
O1 O 0.97555(7) 0.9591(2) 0.07011(7)
H1 H 0.9593 0.9413 0.0398
C1 C 0.91170(9) 0.7775(2) 0.10943(9)
H2 H 0.8910 0.7605 0.0735
C2 C 0.95516(9) 0.6571(2) 0.12168(9)
C3 C 0.99664(10) 0.6091(3) 0.08823(11)
H3 H 1.0023 0.6574 0.0550
C4 C 1.02926(11) 0.4881(3) 0.10533(12)
H4 H 1.0589 0.4577 0.0847
C5 C 1.01819(10) 0.4118(3) 0.15296(12)
H5 H 1.0397 0.3276 0.1627
C6 C 0.97614(9) 0.4558(2) 0.18697(10)
C7 C 0.94707(8) 0.5894(2) 0.17258(9)
C8 C 0.90209(8) 0.6735(2) 0.19886(9)
C9 C 0.89092(8) 0.6872(2) 0.25353(9)
C10 C 0.84361(8) 0.7790(2) 0.26606(8)
C11 C 0.83259(10) 0.8090(2) 0.32212(9)
H6 H 0.8567 0.7695 0.3504
C12 C 0.78780(11) 0.8938(2) 0.33542(10)
H7 H 0.7817 0.9122 0.3724
C13 C 0.75132(10) 0.9529(2) 0.29375(11)
H8 H 0.7203 1.0093 0.3029
C14 C 0.76066(9) 0.9289(2) 0.23979(10)
H9 H 0.7353 0.9689 0.2127
C15 C 0.80779(8) 0.8449(2) 0.22266(9)
C16 C 0.82272(8) 0.8374(2) 0.16540(9)
C17 C 0.87250(8) 0.7635(2) 0.15662(8)
C18 C 0.93765(10) 0.9348(2) 0.11245(10)
H10 H 0.9076 1.0086 0.1089
H11 H 0.9578 0.9484 0.1484
C19 C 0.95889(9) 0.3484(2) 0.22968(10)
C20 C 0.90292(10) 0.2990(3) 0.22865(11)
H12 H 0.8758 0.3411 0.2037
C21 C 0.88741(12) 0.1878(3) 0.26444(13)
H13 H 0.8500 0.1561 0.2636
C22 C 0.92714(14) 0.1243(3) 0.30109(13)
H14 H 0.9167 0.0490 0.3249
C23 C 0.98205(12) 0.1717(3) 0.30270(12)
H15 H 1.0088 0.1289 0.3278
C24 C 0.99802(10) 0.2823(2) 0.26743(11)
H16 H 1.0356 0.3133 0.2689
C25 C 0.93043(9) 0.6309(2) 0.29958(9)
C26 C 0.91515(11) 0.5258(2) 0.33809(10)
H17 H 0.8793 0.4830 0.3345
C27 C 0.95261(13) 0.4842(3) 0.38161(11)
H18 H 0.9418 0.4135 0.4071
C28 C 1.00548(14) 0.5462(4) 0.38748(12)
H19 H 1.0305 0.5182 0.4170
C29 C 1.02140(12) 0.6494(3) 0.34987(12)
H20 H 1.0574 0.6913 0.3537
C30 C 0.98428(10) 0.6917(3) 0.30610(10)
H21 H 0.9956 0.7619 0.2807
C31 C 0.78308(9) 0.9079(2) 0.11886(10)
C32 C 0.80035(11) 0.8817(3) 0.05969(10)
H22 H 0.8352 0.9333 0.0546
H23 H 0.7713 0.9191 0.0337
H24 H 0.8054 0.7765 0.0537
C33 C 0.77958(12) 1.0802(2) 0.12505(12)
H25 H 0.8160 1.1234 0.1201
H26 H 0.7682 1.1045 0.1613
H27 H 0.7524 1.1194 0.0975
C34 C 0.72432(10) 0.8316(3) 0.11949(11)
H28 H 0.6980 0.8817 0.0939
H29 H 0.7112 0.8373 0.1561
H30 H 0.7274 0.7285 0.1089
O2 O 0.57201(7) 0.42222(19) 0.53472(7)
H31 H 0.5442 0.4496 0.5504
C35 C 0.62653(10) 0.6229(2) 0.58421(9)
H32 H 0.5919 0.6575 0.6001
C36 C 0.64081(10) 0.7212(2) 0.53678(9)
C37 C 0.60735(11) 0.7559(2) 0.48938(10)
H33 H 0.5718 0.7126 0.4828
C38 C 0.62765(12) 0.8559(3) 0.45211(10)
H34 H 0.6072 0.8742 0.4186
C39 C 0.67828(12) 0.9290(2) 0.46433(10)
H35 H 0.6903 0.9997 0.4395
C40 C 0.71216(11) 0.9006(2) 0.51281(9)
C41 C 0.69456(10) 0.7837(2) 0.54676(9)
C42 C 0.72144(10) 0.7130(2) 0.59754(8)
C43 C 0.77762(10) 0.6945(2) 0.61409(9)
C44 C 0.79064(10) 0.6143(2) 0.66481(9)
C45 C 0.84744(11) 0.5753(2) 0.68150(10)
H36 H 0.8759 0.5984 0.6582
C46 C 0.86156(12) 0.5054(2) 0.73028(11)
H37 H 0.8990 0.4803 0.7400
C47 C 0.81919(12) 0.4717(3) 0.76567(11)
H38 H 0.8288 0.4287 0.8000
C48 C 0.76421(12) 0.5010(2) 0.75045(10)
H39 H 0.7369 0.4752 0.7746
C49 C 0.74643(10) 0.5697(2) 0.69899(9)
C50 C 0.68751(10) 0.5823(2) 0.67881(9)
C51 C 0.67750(9) 0.6403(2) 0.62593(9)
C52 C 0.62175(10) 0.4564(2) 0.56838(10)
H40 H 0.6545 0.4283 0.5488
H41 H 0.6222 0.3970 0.6020
C53 C 0.75643(13) 1.0119(3) 0.53064(11)
C54 C 0.75009(16) 1.0909(3) 0.57974(12)
H42 H 0.7216 1.0640 0.6025
C55 C 0.7856(2) 1.2085(4) 0.59478(18)
H43 H 0.7805 1.2619 0.6271
C56 C 0.8280(2) 1.2465(4) 0.5627(2)
H44 H 0.8523 1.3244 0.5737
C57 C 0.83579(18) 1.1719(4) 0.51409(19)
H45 H 0.8648 1.1995 0.4922
C58 C 0.79888(15) 1.0521(3) 0.49779(13)
H46 H 0.8035 1.0010 0.4649
C59 C 0.82419(10) 0.7326(2) 0.57783(10)
C60 C 0.86779(11) 0.8303(3) 0.59355(11)
H47 H 0.8675 0.8804 0.6272
C61 C 0.91192(13) 0.8545(4) 0.55956(15)
H48 H 0.9409 0.9204 0.5705
C62 C 0.91270(15) 0.7811(5) 0.50992(15)
H49 H 0.9425 0.7959 0.4874
C63 C 0.86930(15) 0.6855(4) 0.49347(13)
H50 H 0.8693 0.6375 0.4594
C64 C 0.82593(12) 0.6606(3) 0.52721(11)
H51 H 0.7972 0.5943 0.5159
C65 C 0.64025(11) 0.5274(2) 0.71541(10)
C66 C 0.57944(11) 0.5609(3) 0.69260(12)
H52 H 0.5757 0.6659 0.6847
H53 H 0.5535 0.5330 0.7196
H54 H 0.5712 0.5047 0.6592
C67 C 0.64379(11) 0.3561(3) 0.72314(12)
H55 H 0.6160 0.3244 0.7478
H56 H 0.6808 0.3295 0.7386
H57 H 0.6367 0.3078 0.6879
C68 C 0.64475(14) 0.6085(3) 0.77185(11)
H58 H 0.6358 0.7126 0.7664
H59 H 0.6826 0.5989 0.7884
H60 H 0.6186 0.5646 0.7958
loop_
_geom_bond_atom_site_label_1
_geom_bond_atom_site_label_2
_geom_bond_site_symmetry_1
_geom_bond_site_symmetry_2
O1 H1 1_555 1_555
C1 H2 1_555 1_555
C2 C1 1_555 1_555
C3 C2 1_555 1_555
H3 C3 1_555 1_555
C4 C3 1_555 1_555
H4 C4 1_555 1_555
C5 C4 1_555 1_555
H5 C5 1_555 1_555
C6 C5 1_555 1_555
C7 C2 1_555 1_555
C8 C7 1_555 1_555
C9 C8 1_555 1_555
C10 C9 1_555 1_555
C11 C10 1_555 1_555
H6 C11 1_555 1_555
C12 C11 1_555 1_555
H7 C12 1_555 1_555
C13 C12 1_555 1_555
H8 C13 1_555 1_555
C14 C13 1_555 1_555
H9 C14 1_555 1_555
C15 C10 1_555 1_555
C16 C15 1_555 1_555
C17 C1 1_555 1_555
C18 O1 1_555 1_555
H10 C18 1_555 1_555
H11 C18 1_555 1_555
C19 C6 1_555 1_555
C20 C19 1_555 1_555
H12 C20 1_555 1_555
C21 C20 1_555 1_555
H13 C21 1_555 1_555
C22 C21 1_555 1_555
H14 C22 1_555 1_555
C23 C22 1_555 1_555
H15 C23 1_555 1_555
C24 C19 1_555 1_555
H16 C24 1_555 1_555
C25 C9 1_555 1_555
C26 C25 1_555 1_555
H17 C26 1_555 1_555
C27 C26 1_555 1_555
H18 C27 1_555 1_555
C28 C27 1_555 1_555
H19 C28 1_555 1_555
C29 C28 1_555 1_555
H20 C29 1_555 1_555
C30 C25 1_555 1_555
H21 C30 1_555 1_555
C31 C16 1_555 1_555
C32 C31 1_555 1_555
H22 C32 1_555 1_555
H23 C32 1_555 1_555
H24 C32 1_555 1_555
C33 C31 1_555 1_555
H25 C33 1_555 1_555
H26 C33 1_555 1_555
H27 C33 1_555 1_555
C34 C31 1_555 1_555
H28 C34 1_555 1_555
H29 C34 1_555 1_555
H30 C34 1_555 1_555
O2 H31 1_555 1_555
C35 H32 1_555 1_555
C36 C35 1_555 1_555
C37 C36 1_555 1_555
H33 C37 1_555 1_555
C38 C37 1_555 1_555
H34 C38 1_555 1_555
C39 C38 1_555 1_555
H35 C39 1_555 1_555
C40 C39 1_555 1_555
C41 C36 1_555 1_555
C42 C41 1_555 1_555
C43 C42 1_555 1_555
C44 C43 1_555 1_555
C45 C44 1_555 1_555
H36 C45 1_555 1_555
C46 C45 1_555 1_555
H37 C46 1_555 1_555
C47 C46 1_555 1_555
H38 C47 1_555 1_555
C48 C47 1_555 1_555
H39 C48 1_555 1_555
C49 C44 1_555 1_555
C50 C49 1_555 1_555
C51 C35 1_555 1_555
C52 O2 1_555 1_555
H40 C52 1_555 1_555
H41 C52 1_555 1_555
C53 C40 1_555 1_555
C54 C53 1_555 1_555
H42 C54 1_555 1_555
C55 C54 1_555 1_555
H43 C55 1_555 1_555
C56 C55 1_555 1_555
H44 C56 1_555 1_555
C57 C56 1_555 1_555
H45 C57 1_555 1_555
C58 C53 1_555 1_555
H46 C58 1_555 1_555
C59 C43 1_555 1_555
C60 C59 1_555 1_555
H47 C60 1_555 1_555
C61 C60 1_555 1_555
H48 C61 1_555 1_555
C62 C61 1_555 1_555
H49 C62 1_555 1_555
C63 C62 1_555 1_555
H50 C63 1_555 1_555
C64 C59 1_555 1_555
H51 C64 1_555 1_555
C65 C50 1_555 1_555
C66 C65 1_555 1_555
H52 C66 1_555 1_555
H53 C66 1_555 1_555
H54 C66 1_555 1_555
C67 C65 1_555 1_555
H55 C67 1_555 1_555
H56 C67 1_555 1_555
H57 C67 1_555 1_555
C68 C65 1_555 1_555
H58 C68 1_555 1_555
H59 C68 1_555 1_555
H60 C68 1_555 1_555
C1 C18 1_555 1_555
C6 C7 1_555 1_555
C8 C17 1_555 1_555
C14 C15 1_555 1_555
C16 C17 1_555 1_555
C23 C24 1_555 1_555
C29 C30 1_555 1_555
C35 C52 1_555 1_555
C40 C41 1_555 1_555
C42 C51 1_555 1_555
C48 C49 1_555 1_555
C50 C51 1_555 1_555
C57 C58 1_555 1_555
C63 C64 1_555 1_555

#END
