
#######################################################################
#
#                 Cambridge Crystallographic Data Centre
#                                CCDC 
#
#######################################################################
#
# If this CIF has been generated from an entry in the Cambridge 
# Structural Database, then it will include bibliographic, chemical, 
# crystal, experimental, refinement or atomic coordinate data resulting 
# from the CCDC's data processing and validation procedures.
#
#######################################################################

data_LEHZII
_chemical_formula_moiety         'C42 H22 O2,0.33(C6 H14)'
_chemical_name_systematic        
'Undecacyclo(26.6.6.2^13,16^.0^1,14^.0^2,11^.0^3,8^.0^15,28^.0^18,27^.0^21,26^.0^ 29,34^.0^35,40^)dotetraconta-2,4,6,8,10,13,15,18,20,22,24,26,29,31,33,35,37,39,41-nonadecaene-12,17-dione hexane solvate'
_symmetry_cell_setting           triclinic
_symmetry_space_group_name_H-M   'P -1'
_symmetry_Int_Tables_number      2
_space_group_name_Hall           '-P 1'
loop_
_symmetry_equiv_pos_site_id
_symmetry_equiv_pos_as_xyz
1 x,y,z
2 -x,-y,-z
_cell_length_a                   10.9631(11)
_cell_length_b                   16.9132(19)
_cell_length_c                   25.426(3)
_cell_angle_alpha                77.170(2)
_cell_angle_beta                 84.508(2)
_cell_angle_gamma                73.946(2)
_cell_volume                     4414.58
_cell_formula_units_Z            6
_exptl_crystal_recrystallization_method dichloromethane/2-propanol
loop_
_atom_site_label
_atom_site_type_symbol
_atom_site_fract_x
_atom_site_fract_y
_atom_site_fract_z
O3 O -0.1448(2) 1.25229(16) 0.62020(12)
O4 O 0.5062(2) 1.11483(17) 0.54999(10)
C43 C 0.0427(3) 0.99479(19) 0.63738(12)
C44 C -0.0977(3) 1.0265(2) 0.65382(12)
C45 C -0.1694(3) 0.9664(2) 0.67665(12)
C46 C -0.1185(3) 0.8778(2) 0.68644(12)
H23 H -0.0323 0.8555 0.6777
C47 C -0.1913(3) 0.8246(2) 0.70810(13)
H24 H -0.1550 0.7663 0.7139
C48 C -0.3201(3) 0.8556(3) 0.72201(14)
H25 H -0.3691 0.8182 0.7377
C49 C -0.3739(3) 0.9401(2) 0.71275(13)
H26 H -0.4605 0.9605 0.7216
C50 C -0.3016(3) 0.9970(2) 0.69018(12)
C51 C -0.3564(3) 1.0844(2) 0.68144(14)
H27 H -0.4434 1.1047 0.6897
C52 C -0.2868(3) 1.1396(2) 0.66150(14)
H28 H -0.3256 1.1975 0.6572
C53 C -0.1570(3) 1.1119(2) 0.64707(12)
C54 C -0.0886(3) 1.1770(2) 0.62513(14)
C55 C 0.0463(3) 1.1506(2) 0.60847(13)
C56 C 0.1160(3) 1.2099(2) 0.58696(13)
H29 H 0.0761 1.2677 0.5822
C57 C 0.2430(4) 1.1826(2) 0.57286(14)
H30 H 0.2896 1.2222 0.5588
C58 C 0.3038(3) 1.0962(2) 0.57926(12)
C59 C 0.4404(3) 1.0657(2) 0.56609(13)
C60 C 0.4967(3) 0.9729(2) 0.57316(12)
C61 C 0.6275(3) 0.9456(3) 0.55909(14)
H31 H 0.6744 0.9854 0.5466
C62 C 0.6852(3) 0.8633(3) 0.56350(13)
H32 H 0.7724 0.8465 0.5545
C63 C 0.6184(3) 0.8015(3) 0.58116(13)
C64 C 0.6785(3) 0.7155(3) 0.58299(15)
H33 H 0.7644 0.6994 0.5718
C65 C 0.6146(3) 0.6555(3) 0.60067(14)
H34 H 0.6553 0.5986 0.6013
C66 C 0.4845(3) 0.6806(3) 0.61825(14)
H35 H 0.4398 0.6397 0.6310
C67 C 0.4250(3) 0.7624(2) 0.61674(13)
H36 H 0.3398 0.7770 0.6291
C68 C 0.4872(3) 0.8270(2) 0.59712(12)
C69 C 0.4275(3) 0.9146(2) 0.59214(12)
C70 C 0.2872(3) 0.9432(2) 0.60813(12)
C71 C 0.2348(3) 1.0379(2) 0.59933(12)
C72 C 0.1049(3) 1.0659(2) 0.61425(12)
C73 C 0.0678(2) 0.94332(18) 0.59218(11)
C74 C -0.0236(3) 0.92866(19) 0.56432(12)
H37 H -0.1100 0.9472 0.5742
C75 C 0.0117(3) 0.8868(2) 0.52185(12)
H38 H -0.0504 0.8754 0.5038
C76 C 0.1375(3) 0.8619(2) 0.50627(12)
H39 H 0.1607 0.8339 0.4773
C77 C 0.2311(3) 0.8776(2) 0.53268(12)
H40 H 0.3168 0.8615 0.5213
C78 C 0.1960(2) 0.91750(19) 0.57619(11)
C79 C 0.1291(2) 0.94328(18) 0.68450(12)
C80 C 0.0917(3) 0.93178(19) 0.73860(12)
H41 H 0.0059 0.9510 0.7490
C81 C 0.1818(3) 0.89182(19) 0.77725(12)
H42 H 0.1567 0.8844 0.8140
C82 C 0.3075(3) 0.86287(19) 0.76230(12)
H43 H 0.3675 0.8351 0.7889
C83 C 0.3463(3) 0.8744(2) 0.70829(12)
H44 H 0.4323 0.8547 0.6982
C84 C 0.2569(3) 0.91525(19) 0.66917(12)
O5 O 0.1054(2) 0.94781(16) 0.20016(10)
O6 O 0.4866(2) 1.22942(16) 0.10435(10)
C85 C 0.4945(3) 0.8621(2) 0.16219(12)
C86 C 0.4112(3) 0.8013(2) 0.18114(13)
C87 C 0.4635(3) 0.7125(2) 0.18574(13)
C88 C 0.5940(3) 0.6743(2) 0.17559(13)
H45 H 0.6501 0.7085 0.1650
C89 C 0.6401(3) 0.5895(2) 0.18079(15)
H46 H 0.7271 0.5662 0.1740
C90 C 0.5586(4) 0.5365(2) 0.19619(16)
H47 H 0.5908 0.4780 0.2002
C91 C 0.4317(3) 0.5710(3) 0.20533(16)
H48 H 0.3775 0.5353 0.2151
C92 C 0.3801(3) 0.6580(2) 0.20050(14)
C93 C 0.2494(3) 0.6934(3) 0.21032(15)
H49 H 0.1945 0.6581 0.2192
C94 C 0.2017(3) 0.7771(3) 0.20724(15)
H50 H 0.1150 0.7988 0.2153
C95 C 0.2820(3) 0.8330(2) 0.19179(13)
C96 C 0.2198(3) 0.9234(2) 0.18852(14)
C97 C 0.2965(3) 0.9848(2) 0.16920(13)
C98 C 0.2432(3) 1.0721(2) 0.16209(13)
H51 H 0.1558 1.0932 0.1691
C99 C 0.3175(3) 1.1265(2) 0.14508(13)
H52 H 0.2814 1.1846 0.1412
C100 C 0.4486(3) 1.0956(2) 0.13332(13)
C101 C 0.5307(4) 1.1523(2) 0.11201(13)
C102 C 0.6683(3) 1.1147(2) 0.09956(13)
C103 C 0.7415(4) 1.1727(2) 0.07841(13)
H53 H 0.7034 1.2308 0.0734
C104 C 0.8664(4) 1.1442(2) 0.06550(14)
H54 H 0.9136 1.1834 0.0513
C105 C 0.9273(3) 1.0583(2) 0.07261(13)
C106 C 1.0567(4) 1.0284(3) 0.05859(14)
H55 H 1.1043 1.0675 0.0449
C107 C 1.1148(3) 0.9457(3) 0.06408(14)
H56 H 1.2012 0.9279 0.0541
C108 C 1.0458(3) 0.8865(2) 0.08474(13)
H57 H 1.0856 0.8288 0.0885
C109 C 0.9187(3) 0.9133(2) 0.09958(13)
H58 H 0.8739 0.8729 0.1138
C110 C 0.8543(3) 0.9987(2) 0.09416(12)
C111 C 0.7223(3) 1.0285(2) 0.10746(12)
C112 C 0.6402(3) 0.96793(19) 0.12828(12)
C113 C 0.5017(3) 1.0098(2) 0.14002(12)
C114 C 0.4245(3) 0.9542(2) 0.15803(12)
C115 C 0.5531(3) 0.8607(2) 0.10486(12)
C116 C 0.5280(3) 0.8150(2) 0.06961(13)
H59 H 0.4755 0.7785 0.0813
C117 C 0.5804(3) 0.8234(2) 0.01711(13)
H60 H 0.5655 0.7912 -0.0062
C118 C 0.6536(3) 0.8784(2) -0.00036(14)
H61 H 0.6881 0.8847 -0.0359
C119 C 0.6773(3) 0.9256(2) 0.03479(13)
H62 H 0.7261 0.9643 0.0224
C120 C 0.6297(3) 0.91564(19) 0.08689(12)
C121 C 0.6032(3) 0.85077(19) 0.20043(12)
C122 C 0.6214(3) 0.7984(2) 0.25070(12)
H63 H 0.5702 0.7613 0.2631
C123 C 0.7158(3) 0.8007(2) 0.28307(13)
H64 H 0.7287 0.7644 0.3171
C124 C 0.7902(3) 0.8558(2) 0.26540(13)
H65 H 0.8530 0.8573 0.2876
C125 C 0.7727(3) 0.9092(2) 0.21495(13)
H66 H 0.8238 0.9466 0.2030
C126 C 0.6795(3) 0.90697(19) 0.18238(12)
O1 O 0.0222(2) 0.32791(17) 0.02865(11)
O2 O -0.1948(3) 0.2989(2) 0.30001(12)
C1 C 0.1348(3) 0.45917(19) 0.12931(13)
C2 C 0.1761(3) 0.4672(2) 0.07019(13)
C3 C 0.2594(3) 0.5195(2) 0.04678(13)
C4 C 0.3074(3) 0.5660(2) 0.07680(14)
H1 H 0.2845 0.5630 0.1136
C5 C 0.3862(3) 0.6148(2) 0.05273(15)
H2 H 0.4183 0.6437 0.0734
C6 C 0.4195(3) 0.6222(2) -0.00234(16)
H3 H 0.4728 0.6566 -0.0185
C7 C 0.3748(3) 0.5797(2) -0.03265(15)
H4 H 0.3978 0.5850 -0.0696
C8 C 0.2942(3) 0.5274(2) -0.00917(14)
C9 C 0.2535(3) 0.4804(2) -0.04013(15)
H5 H 0.2778 0.4848 -0.0769
C10 C 0.1797(3) 0.4291(2) -0.01708(15)
H6 H 0.1554 0.3970 -0.0380
C11 C 0.1381(3) 0.4225(2) 0.03779(14)
C12 C 0.0524(3) 0.3673(2) 0.05854(15)
C13 C 0.0041(3) 0.3616(2) 0.11467(15)
C14 C -0.0830(3) 0.3137(2) 0.13672(17)
H7 H -0.1130 0.2859 0.1146
C15 C -0.1243(3) 0.3073(2) 0.18961(17)
H8 H -0.1832 0.2759 0.2033
C16 C -0.0793(3) 0.3473(2) 0.22349(15)
C17 C -0.1177(3) 0.3385(2) 0.28064(17)
C18 C -0.0603(3) 0.3784(2) 0.31488(15)
C19 C -0.0923(4) 0.3616(3) 0.37106(17)
H9 H -0.1438 0.3250 0.3846
C20 C -0.0492(4) 0.3980(3) 0.40521(17)
H10 H -0.0692 0.3850 0.4424
C21 C 0.0257(4) 0.4554(3) 0.38565(16)
C22 C 0.0647(4) 0.4972(3) 0.42064(17)
H11 H 0.0407 0.4863 0.4575
C23 C 0.1350(4) 0.5524(3) 0.40287(17)
H12 H 0.1585 0.5798 0.4271
C24 C 0.1736(4) 0.5691(2) 0.34746(15)
H13 H 0.2225 0.6076 0.3347
C25 C 0.1391(3) 0.5287(2) 0.31316(15)
H14 H 0.1668 0.5390 0.2767
C26 C 0.0623(3) 0.4712(2) 0.33029(14)
C27 C 0.0194(3) 0.4306(2) 0.29388(14)
C28 C 0.0612(3) 0.4427(2) 0.23410(13)
C29 C 0.0051(3) 0.3950(2) 0.20242(14)
C30 C 0.0457(3) 0.4027(2) 0.14768(13)
C31 C 0.0579(3) 0.5419(2) 0.14579(13)
C32 C 0.0154(3) 0.6180(2) 0.10990(14)
H15 H 0.0375 0.6227 0.0729
C33 C -0.0597(3) 0.6867(2) 0.12925(15)
H16 H -0.0888 0.7382 0.1051
C34 C -0.0922(3) 0.6808(2) 0.18307(15)
H17 H -0.1395 0.7288 0.1958
C35 C -0.0558(3) 0.6047(2) 0.21871(15)
H18 H -0.0826 0.6004 0.2552
C36 C 0.0203(3) 0.5344(2) 0.20098(13)
C37 C 0.2450(3) 0.41808(19) 0.16912(13)
C38 C 0.3701(3) 0.38538(19) 0.15413(13)
H19 H 0.3947 0.3888 0.1174
C39 C 0.4598(3) 0.3473(2) 0.19363(14)
H20 H 0.5452 0.3256 0.1835
C40 C 0.4237(3) 0.3414(2) 0.24726(14)
H21 H 0.4849 0.3170 0.2738
C41 C 0.2962(3) 0.3715(2) 0.26256(14)
H22 H 0.2714 0.3653 0.2993
C42 C 0.2065(3) 0.41040(19) 0.22382(13)
loop_
_geom_bond_atom_site_label_1
_geom_bond_atom_site_label_2
_geom_bond_site_symmetry_1
_geom_bond_site_symmetry_2
O1 C12 1_555 1_555
O2 C17 1_555 1_555
C1 C2 1_555 1_555
C2 C3 1_555 1_555
C3 C4 1_555 1_555
C4 H1 1_555 1_555
C5 C4 1_555 1_555
H2 C5 1_555 1_555
C6 C5 1_555 1_555
H3 C6 1_555 1_555
C7 C6 1_555 1_555
H4 C7 1_555 1_555
C8 C3 1_555 1_555
C9 C8 1_555 1_555
H5 C9 1_555 1_555
C10 C9 1_555 1_555
H6 C10 1_555 1_555
C11 C2 1_555 1_555
C12 C11 1_555 1_555
C13 C12 1_555 1_555
C14 C13 1_555 1_555
H7 C14 1_555 1_555
C15 C14 1_555 1_555
H8 C15 1_555 1_555
C16 C15 1_555 1_555
C17 C16 1_555 1_555
C18 C17 1_555 1_555
C19 C18 1_555 1_555
H9 C19 1_555 1_555
C20 C19 1_555 1_555
H10 C20 1_555 1_555
C21 C20 1_555 1_555
C22 C21 1_555 1_555
H11 C22 1_555 1_555
C23 C22 1_555 1_555
H12 C23 1_555 1_555
C24 C23 1_555 1_555
H13 C24 1_555 1_555
C25 C24 1_555 1_555
H14 C25 1_555 1_555
C26 C21 1_555 1_555
C27 C18 1_555 1_555
C28 C27 1_555 1_555
C29 C16 1_555 1_555
C30 C1 1_555 1_555
C31 C1 1_555 1_555
C32 C31 1_555 1_555
H15 C32 1_555 1_555
C33 C32 1_555 1_555
H16 C33 1_555 1_555
C34 C33 1_555 1_555
H17 C34 1_555 1_555
C35 C34 1_555 1_555
H18 C35 1_555 1_555
C36 C28 1_555 1_555
C37 C1 1_555 1_555
C38 C37 1_555 1_555
H19 C38 1_555 1_555
C39 C38 1_555 1_555
H20 C39 1_555 1_555
C40 C39 1_555 1_555
H21 C40 1_555 1_555
C41 C40 1_555 1_555
H22 C41 1_555 1_555
C42 C28 1_555 1_555
O3 C54 1_555 1_555
O4 C59 1_555 1_555
C43 C44 1_555 1_555
C44 C45 1_555 1_555
C45 C46 1_555 1_555
C46 H23 1_555 1_555
C47 C46 1_555 1_555
H24 C47 1_555 1_555
C48 C47 1_555 1_555
H25 C48 1_555 1_555
C49 C48 1_555 1_555
H26 C49 1_555 1_555
C50 C45 1_555 1_555
C51 C50 1_555 1_555
H27 C51 1_555 1_555
C52 C51 1_555 1_555
H28 C52 1_555 1_555
C53 C44 1_555 1_555
C54 C53 1_555 1_555
C55 C54 1_555 1_555
C56 C55 1_555 1_555
H29 C56 1_555 1_555
C57 C56 1_555 1_555
H30 C57 1_555 1_555
C58 C57 1_555 1_555
C59 C58 1_555 1_555
C60 C59 1_555 1_555
C61 C60 1_555 1_555
H31 C61 1_555 1_555
C62 C61 1_555 1_555
H32 C62 1_555 1_555
C63 C62 1_555 1_555
C64 C63 1_555 1_555
H33 C64 1_555 1_555
C65 C64 1_555 1_555
H34 C65 1_555 1_555
C66 C65 1_555 1_555
H35 C66 1_555 1_555
C67 C66 1_555 1_555
H36 C67 1_555 1_555
C68 C63 1_555 1_555
C69 C60 1_555 1_555
C70 C69 1_555 1_555
C71 C58 1_555 1_555
C72 C43 1_555 1_555
C73 C43 1_555 1_555
C74 C73 1_555 1_555
H37 C74 1_555 1_555
C75 C74 1_555 1_555
H38 C75 1_555 1_555
C76 C75 1_555 1_555
H39 C76 1_555 1_555
C77 C76 1_555 1_555
H40 C77 1_555 1_555
C78 C70 1_555 1_555
C79 C43 1_555 1_555
C80 C79 1_555 1_555
H41 C80 1_555 1_555
C81 C80 1_555 1_555
H42 C81 1_555 1_555
C82 C81 1_555 1_555
H43 C82 1_555 1_555
C83 C82 1_555 1_555
H44 C83 1_555 1_555
C84 C70 1_555 1_555
O5 C96 1_555 1_555
O6 C101 1_555 1_555
C85 C86 1_555 1_555
C86 C87 1_555 1_555
C87 C88 1_555 1_555
C88 H45 1_555 1_555
C89 C88 1_555 1_555
H46 C89 1_555 1_555
C90 C89 1_555 1_555
H47 C90 1_555 1_555
C91 C90 1_555 1_555
H48 C91 1_555 1_555
C92 C87 1_555 1_555
C93 C92 1_555 1_555
H49 C93 1_555 1_555
C94 C93 1_555 1_555
H50 C94 1_555 1_555
C95 C86 1_555 1_555
C96 C95 1_555 1_555
C97 C96 1_555 1_555
C98 C97 1_555 1_555
H51 C98 1_555 1_555
C99 C98 1_555 1_555
H52 C99 1_555 1_555
C100 C99 1_555 1_555
C101 C100 1_555 1_555
C102 C101 1_555 1_555
C103 C102 1_555 1_555
H53 C103 1_555 1_555
C104 C103 1_555 1_555
H54 C104 1_555 1_555
C105 C104 1_555 1_555
C106 C105 1_555 1_555
H55 C106 1_555 1_555
C107 C106 1_555 1_555
H56 C107 1_555 1_555
C108 C107 1_555 1_555
H57 C108 1_555 1_555
C109 C108 1_555 1_555
H58 C109 1_555 1_555
C110 C105 1_555 1_555
C111 C102 1_555 1_555
C112 C111 1_555 1_555
C113 C100 1_555 1_555
C114 C85 1_555 1_555
C115 C85 1_555 1_555
C116 C115 1_555 1_555
H59 C116 1_555 1_555
C117 C116 1_555 1_555
H60 C117 1_555 1_555
C118 C117 1_555 1_555
H61 C118 1_555 1_555
C119 C118 1_555 1_555
H62 C119 1_555 1_555
C120 C112 1_555 1_555
C121 C85 1_555 1_555
C122 C121 1_555 1_555
H63 C122 1_555 1_555
C123 C122 1_555 1_555
H64 C123 1_555 1_555
C124 C123 1_555 1_555
H65 C124 1_555 1_555
C125 C124 1_555 1_555
H66 C125 1_555 1_555
C126 C112 1_555 1_555
C7 C8 1_555 1_555
C10 C11 1_555 1_555
C13 C30 1_555 1_555
C25 C26 1_555 1_555
C26 C27 1_555 1_555
C28 C29 1_555 1_555
C29 C30 1_555 1_555
C31 C36 1_555 1_555
C35 C36 1_555 1_555
C37 C42 1_555 1_555
C41 C42 1_555 1_555
C49 C50 1_555 1_555
C52 C53 1_555 1_555
C55 C72 1_555 1_555
C67 C68 1_555 1_555
C68 C69 1_555 1_555
C70 C71 1_555 1_555
C71 C72 1_555 1_555
C73 C78 1_555 1_555
C77 C78 1_555 1_555
C79 C84 1_555 1_555
C83 C84 1_555 1_555
C91 C92 1_555 1_555
C94 C95 1_555 1_555
C97 C114 1_555 1_555
C109 C110 1_555 1_555
C110 C111 1_555 1_555
C112 C113 1_555 1_555
C113 C114 1_555 1_555
C115 C120 1_555 1_555
C119 C120 1_555 1_555
C121 C126 1_555 1_555
C125 C126 1_555 1_555

#END
