
#######################################################################
#
#                 Cambridge Crystallographic Data Centre
#                                CCDC 
#
#######################################################################
#
# If this CIF has been generated from an entry in the Cambridge 
# Structural Database, then it will include bibliographic, chemical, 
# crystal, experimental, refinement or atomic coordinate data resulting 
# from the CCDC's data processing and validation procedures.
#
#######################################################################

data_LEHZEE
_chemical_formula_moiety         'C30 H20'
_chemical_name_systematic        
14b-Phenyl-4b,7,10,14b-tetrahydronaphtho(1,2,3,4-pqr)tetraphene
_symmetry_cell_setting           triclinic
_symmetry_space_group_name_H-M   'P -1'
_symmetry_Int_Tables_number      2
_space_group_name_Hall           '-P 1'
loop_
_symmetry_equiv_pos_site_id
_symmetry_equiv_pos_as_xyz
1 x,y,z
2 -x,-y,-z
_cell_length_a                   8.6979(8)
_cell_length_b                   13.9822(13)
_cell_length_c                   16.6375(14)
_cell_angle_alpha                83.895(2)
_cell_angle_beta                 89.861(2)
_cell_angle_gamma                82.513(2)
_cell_volume                     1994.62
_cell_formula_units_Z            4
loop_
_atom_site_label
_atom_site_type_symbol
_atom_site_fract_x
_atom_site_fract_y
_atom_site_fract_z
C1 C 0.2259(3) 0.24977(16) 0.07021(11)
C2 C 0.1667(3) 0.20763(16) -0.00422(12)
C3 C 0.0521(3) 0.14771(17) -0.00317(13)
H1 H 0.0037 0.1308 0.0452
C4 C 0.0080(4) 0.11218(19) -0.07381(15)
H2 H -0.0696 0.0721 -0.0724
C5 C 0.0797(4) 0.13667(19) -0.14551(14)
H3 H 0.0529 0.1117 -0.1924
C6 C 0.1909(3) 0.19794(18) -0.14747(13)
H4 H 0.2387 0.2145 -0.1961
C7 C 0.2332(3) 0.23560(17) -0.07853(12)
C8 C 0.3409(3) 0.31183(18) -0.08075(13)
H5 H 0.3474 0.3420 -0.1357
H6 H 0.4439 0.2818 -0.0634
C9 C 0.2833(3) 0.38795(18) -0.02632(13)
C10 C 0.2184(3) 0.35854(16) 0.04650(12)
C11 C 0.2903(3) 0.4869(2) -0.04892(15)
H7 H 0.3350 0.5062 -0.0978
C12 C 0.2326(4) 0.5548(2) -0.00015(16)
H8 H 0.2409 0.6199 -0.0155
C13 C 0.1603(3) 0.52801(19) 0.07335(15)
C14 C 0.1510(3) 0.42823(18) 0.09686(13)
C15 C 0.0938(4) 0.5983(2) 0.12311(17)
H9 H 0.1005 0.6637 0.1089
C16 C 0.0206(4) 0.5694(3) 0.19136(18)
H10 H -0.0221 0.6159 0.2240
C17 C 0.0073(4) 0.4718(2) 0.21445(14)
H11 H -0.0459 0.4550 0.2613
C18 C 0.0715(3) 0.3996(2) 0.16910(12)
C19 C 0.0640(3) 0.2964(2) 0.19337(12)
C20 C -0.0130(3) 0.2654(3) 0.26413(14)
H12 H -0.0681 0.3116 0.2932
C21 C -0.0092(4) 0.1695(3) 0.29128(16)
H13 H -0.0610 0.1516 0.3384
C22 C 0.0703(4) 0.0988(2) 0.24978(15)
H14 H 0.0751 0.0336 0.2690
C23 C 0.1425(3) 0.1272(2) 0.17918(13)
H15 H 0.1955 0.0798 0.1506
C24 C 0.1393(3) 0.22430(18) 0.14877(11)
C25 C 0.3981(3) 0.20633(17) 0.08756(11)
C26 C 0.4577(3) 0.11397(19) 0.07006(13)
H16 H 0.3950 0.0778 0.0437
C27 C 0.6077(4) 0.0748(2) 0.09093(15)
H17 H 0.6446 0.0124 0.0792
C28 C 0.7032(3) 0.1272(3) 0.12887(16)
H18 H 0.8045 0.1007 0.1428
C29 C 0.6472(3) 0.2193(3) 0.14598(15)
H19 H 0.7114 0.2553 0.1714
C30 C 0.4955(3) 0.2590(2) 0.12575(13)
H20 H 0.4590 0.3213 0.1379
C31 C 0.6532(3) 0.74417(16) 0.43159(11)
C32 C 0.5828(3) 0.78560(16) 0.50788(11)
C33 C 0.4524(3) 0.85355(17) 0.50875(13)
H21 H 0.4002 0.8773 0.4606
C34 C 0.3985(3) 0.88679(18) 0.58093(14)
H22 H 0.3093 0.9314 0.5810
C35 C 0.4767(4) 0.85395(19) 0.65184(14)
H23 H 0.4428 0.8781 0.6997
C36 C 0.6054(3) 0.78518(18) 0.65238(13)
H24 H 0.6576 0.7630 0.7008
C37 C 0.6584(3) 0.74839(17) 0.58122(12)
C38 C 0.7871(3) 0.66559(18) 0.58109(12)
H25 H 0.8018 0.6320 0.6352
H26 H 0.8829 0.6904 0.5651
C39 C 0.7486(3) 0.59564(17) 0.52320(13)
C40 C 0.6750(3) 0.63365(16) 0.45092(12)
C41 C 0.7831(3) 0.4952(2) 0.54181(15)
H27 H 0.8346 0.4703 0.5900
C42 C 0.7420(4) 0.4333(2) 0.49006(16)
H28 H 0.7679 0.3667 0.5027
C43 C 0.6609(3) 0.46894(18) 0.41767(14)
C44 C 0.6242(3) 0.57109(17) 0.39786(12)
C45 C 0.6114(4) 0.4059(2) 0.36484(17)
H29 H 0.6358 0.3392 0.3767
C46 C 0.5284(4) 0.4425(2) 0.29690(17)
H30 H 0.4971 0.4002 0.2625
C47 C 0.4890(4) 0.5426(2) 0.27782(14)
H31 H 0.4302 0.5655 0.2315
C48 C 0.5356(3) 0.60832(18) 0.32609(12)
C49 C 0.5005(3) 0.71434(18) 0.30615(11)
C50 C 0.4143(3) 0.7551(2) 0.23633(13)
H32 H 0.3716 0.7140 0.2048
C51 C 0.3910(3) 0.8524(2) 0.21315(14)
H33 H 0.3325 0.8763 0.1669
C52 C 0.4539(3) 0.9154(2) 0.25808(13)
H34 H 0.4409 0.9817 0.2418
C53 C 0.5365(3) 0.87805(18) 0.32777(12)
H35 H 0.5789 0.9203 0.3583
C54 C 0.5584(3) 0.77915(17) 0.35363(11)
C55 C 0.8158(3) 0.77647(16) 0.41581(11)
C56 C 0.8612(3) 0.85754(18) 0.44506(14)
H36 H 0.7950 0.8932 0.4781
C57 C 1.0054(3) 0.8862(2) 0.42534(16)
H37 H 1.0346 0.9409 0.4453
C58 C 1.1041(3) 0.8347(2) 0.37696(15)
H38 H 1.1996 0.8547 0.3635
C59 C 1.0620(3) 0.7535(2) 0.34844(14)
H39 H 1.1296 0.7175 0.3163
C60 C 0.9186(3) 0.72493(18) 0.36750(12)
H40 H 0.8908 0.6699 0.3474
loop_
_geom_bond_atom_site_label_1
_geom_bond_atom_site_label_2
_geom_bond_site_symmetry_1
_geom_bond_site_symmetry_2
C1 C2 1_555 1_555
C2 C3 1_555 1_555
C3 H1 1_555 1_555
C4 C3 1_555 1_555
H2 C4 1_555 1_555
C5 C4 1_555 1_555
H3 C5 1_555 1_555
C6 C5 1_555 1_555
H4 C6 1_555 1_555
C7 C2 1_555 1_555
C8 C7 1_555 1_555
H5 C8 1_555 1_555
H6 C8 1_555 1_555
C9 C8 1_555 1_555
C10 C1 1_555 1_555
C11 C9 1_555 1_555
H7 C11 1_555 1_555
C12 C11 1_555 1_555
H8 C12 1_555 1_555
C13 C12 1_555 1_555
C14 C10 1_555 1_555
C15 C13 1_555 1_555
H9 C15 1_555 1_555
C16 C15 1_555 1_555
H10 C16 1_555 1_555
C17 C16 1_555 1_555
H11 C17 1_555 1_555
C18 C14 1_555 1_555
C19 C18 1_555 1_555
C20 C19 1_555 1_555
H12 C20 1_555 1_555
C21 C20 1_555 1_555
H13 C21 1_555 1_555
C22 C21 1_555 1_555
H14 C22 1_555 1_555
C23 C22 1_555 1_555
H15 C23 1_555 1_555
C24 C1 1_555 1_555
C25 C1 1_555 1_555
C26 C25 1_555 1_555
H16 C26 1_555 1_555
C27 C26 1_555 1_555
H17 C27 1_555 1_555
C28 C27 1_555 1_555
H18 C28 1_555 1_555
C29 C28 1_555 1_555
H19 C29 1_555 1_555
C30 C25 1_555 1_555
H20 C30 1_555 1_555
C31 C32 1_555 1_555
C32 C33 1_555 1_555
C33 H21 1_555 1_555
C34 C33 1_555 1_555
H22 C34 1_555 1_555
C35 C34 1_555 1_555
H23 C35 1_555 1_555
C36 C35 1_555 1_555
H24 C36 1_555 1_555
C37 C32 1_555 1_555
C38 C37 1_555 1_555
H25 C38 1_555 1_555
H26 C38 1_555 1_555
C39 C38 1_555 1_555
C40 C31 1_555 1_555
C41 C39 1_555 1_555
H27 C41 1_555 1_555
C42 C41 1_555 1_555
H28 C42 1_555 1_555
C43 C42 1_555 1_555
C44 C40 1_555 1_555
C45 C43 1_555 1_555
H29 C45 1_555 1_555
C46 C45 1_555 1_555
H30 C46 1_555 1_555
C47 C46 1_555 1_555
H31 C47 1_555 1_555
C48 C44 1_555 1_555
C49 C48 1_555 1_555
C50 C49 1_555 1_555
H32 C50 1_555 1_555
C51 C50 1_555 1_555
H33 C51 1_555 1_555
C52 C51 1_555 1_555
H34 C52 1_555 1_555
C53 C52 1_555 1_555
H35 C53 1_555 1_555
C54 C31 1_555 1_555
C55 C31 1_555 1_555
C56 C55 1_555 1_555
H36 C56 1_555 1_555
C57 C56 1_555 1_555
H37 C57 1_555 1_555
C58 C57 1_555 1_555
H38 C58 1_555 1_555
C59 C58 1_555 1_555
H39 C59 1_555 1_555
C60 C55 1_555 1_555
H40 C60 1_555 1_555
C6 C7 1_555 1_555
C9 C10 1_555 1_555
C13 C14 1_555 1_555
C17 C18 1_555 1_555
C19 C24 1_555 1_555
C23 C24 1_555 1_555
C29 C30 1_555 1_555
C36 C37 1_555 1_555
C39 C40 1_555 1_555
C43 C44 1_555 1_555
C47 C48 1_555 1_555
C49 C54 1_555 1_555
C53 C54 1_555 1_555
C59 C60 1_555 1_555

#END
