
#######################################################################
#
#                 Cambridge Crystallographic Data Centre
#                                CCDC 
#
#######################################################################
#
# If this CIF has been generated from an entry in the Cambridge 
# Structural Database, then it will include bibliographic, chemical, 
# crystal, experimental, refinement or atomic coordinate data resulting 
# from the CCDC's data processing and validation procedures.
#
#######################################################################

data_LEJBUZ
_chemical_formula_moiety         'C18 H24 N2 O3'
_chemical_name_systematic        
8-(2,6-Diethyl-4-methyl-phenyl)-tetrahydro-pyrazolo[1,2-d][1,4,5]oxadiazepine-7,9-dione
_symmetry_cell_setting           monoclinic
_symmetry_space_group_name_H-M   'P 21/n'
_symmetry_Int_Tables_number      14
_space_group_name_Hall           '-P 2yn'
loop_
_symmetry_equiv_pos_site_id
_symmetry_equiv_pos_as_xyz
1 x,y,z
2 1/2-x,1/2+y,1/2-z
3 -x,-y,-z
4 1/2+x,1/2-y,1/2+z
_cell_length_a                   14.5455(3)
_cell_length_b                   13.12365(18)
_cell_length_c                   18.5322(3)
_cell_angle_alpha                90
_cell_angle_beta                 107.116(2)
_cell_angle_gamma                90
_cell_volume                     3380.93
_exptl_crystal_colour            colorless
_exptl_crystal_description       prism
_chemical_melting_point          '460 K'
_cell_formula_units_Z            8
_exptl_crystal_recrystallization_method methanol
loop_
_atom_site_label
_atom_site_type_symbol
_atom_site_fract_x
_atom_site_fract_y
_atom_site_fract_z
O1 O 0.8060(2) 0.6230(2) 0.48245(15)
C1 C 0.8834(3) 0.6173(3) 0.5391(2)
N1 N 0.9693(2) 0.6094(3) 0.52371(17)
N2 N 1.0413(2) 0.6089(3) 0.59233(18)
C2 C 1.1426(3) 0.6143(3) 0.5981(2)
C3 C 1.1727(3) 0.7171(4) 0.5764(2)
O2 O 1.1424(2) 0.7387(2) 0.49792(16)
C4 C 1.0421(3) 0.7474(3) 0.4665(3)
C5 C 0.9889(3) 0.6471(3) 0.4556(2)
C6 C 0.9995(3) 0.6100(3) 0.6493(2)
C7 C 0.8993(3) 0.6156(3) 0.6168(2)
C8 C 0.8266(3) 0.6233(4) 0.6584(2)
C9 C 0.7670(4) 0.5408(4) 0.6621(3)
C10 C 0.7016(4) 0.5518(5) 0.7043(3)
C11 C 0.6941(4) 0.6410(6) 0.7422(3)
C12 C 0.6258(4) 0.6495(7) 0.7898(3)
C13 C 0.7515(4) 0.7205(6) 0.7352(3)
C14 C 0.8175(4) 0.7147(5) 0.6941(3)
C15 C 0.8731(6) 0.8071(7) 0.6855(6)
C16 C 0.7687(5) 0.4412(5) 0.6190(4)
O3 O 1.0530(2) 0.6041(3) 0.71783(16)
C35 C 0.6716(8) 0.4158(7) 0.5598(7)
C36 C 0.8305(8) 0.8638(6) 0.6156(8)
H1 H 1.1797 0.5983 0.6503
H2 H 1.1573 0.5640 0.5641
H3 H 1.2427 0.7182 0.5940
H4 H 1.1480 0.7710 0.6017
H5 H 1.0171 0.7926 0.4976
H6 H 1.0304 0.7760 0.4154
H7 H 1.0258 0.5957 0.4362
H8 H 0.9257 0.6571 0.4195
H9 H 0.6609 0.4970 0.7060
H10 H 0.5873 0.7091 0.7736
H11 H 0.6601 0.6569 0.8424
H12 H 0.5852 0.5907 0.7833
H13 H 0.7454 0.7822 0.7585
H14 H 0.9285 0.8276 0.7219
H15 H 0.7870 0.3858 0.6556
H16 H 0.8183 0.4470 0.5931
H40 H 0.6827 0.3701 0.5221
H41 H 0.6293 0.3840 0.5849
H42 H 0.6417 0.4780 0.5363
H43 H 0.8615 0.9227 0.6053
H44 H 0.7750 0.8414 0.5797
O4 O 0.4908(2) 0.9113(2) 0.32566(15)
C17 C 0.5255(3) 0.8495(3) 0.3815(2)
N3 N 0.4837(2) 0.8511(3) 0.44016(18)
N4 N 0.5252(2) 0.7694(3) 0.48789(19)
C18 C 0.5989(3) 0.7321(4) 0.4647(2)
C19 C 0.5991(3) 0.7790(3) 0.3968(2)
C20 C 0.6680(3) 0.7558(3) 0.3531(2)
C21 C 0.7403(3) 0.8264(3) 0.3516(2)
C22 C 0.8055(3) 0.8004(3) 0.3134(2)
C23 C 0.8036(3) 0.7072(3) 0.2778(2)
C24 C 0.7308(3) 0.6395(4) 0.2793(2)
C25 C 0.6628(3) 0.6616(3) 0.3159(2)
C26 C 0.5844(4) 0.5850(4) 0.3135(4)
C27 C 0.6127(5) 0.4863(6) 0.3445(6)
C28 C 0.8774(3) 0.6792(4) 0.2392(3)
C29 C 0.7450(3) 0.9271(3) 0.3909(3)
C30 C 0.8400(3) 0.9800(4) 0.4156(3)
O5 O 0.6558(2) 0.6671(3) 0.50643(19)
C31 C 0.5220(4) 0.7662(4) 0.5657(3)
C32 C 0.4811(3) 0.8577(4) 0.5901(3)
O6 O 0.3798(2) 0.8646(3) 0.55665(17)
C33 C 0.3545(4) 0.9183(4) 0.4869(3)
C34 C 0.3798(3) 0.8637(4) 0.4246(2)
H17 H 0.8534 0.8475 0.3127
H18 H 0.7279 0.5751 0.2568
H19 H 0.5374 0.6153 0.3361
H20 H 0.5515 0.5707 0.2606
H21 H 0.5585 0.4528 0.3546
H22 H 0.6640 0.4959 0.3905
H23 H 0.6357 0.4460 0.3102
H24 H 0.8438 0.6549 0.1893
H25 H 0.9185 0.6268 0.2661
H26 H 0.9148 0.7376 0.2353
H27 H 0.7018 0.9711 0.3559
H28 H 0.7246 0.9167 0.4355
H29 H 0.8347 1.0356 0.4483
H30 H 0.8579 1.0045 0.3724
H31 H 0.8856 0.9316 0.4434
H32 H 0.5884 0.7592 0.5984
H33 H 0.4827 0.7090 0.5715
H34 H 0.4963 0.8558 0.6453
H35 H 0.5118 0.9171 0.5749
H36 H 0.3895 0.9830 0.4953
H37 H 0.2851 0.9298 0.4711
H38 H 0.3562 0.8997 0.3764
H39 H 0.3526 0.7973 0.4201
loop_
_geom_bond_atom_site_label_1
_geom_bond_atom_site_label_2
_geom_bond_site_symmetry_1
_geom_bond_site_symmetry_2
O1 C1 1_555 1_555
C1 N1 1_555 1_555
N1 N2 1_555 1_555
N2 C2 1_555 1_555
C2 C3 1_555 1_555
C3 O2 1_555 1_555
O2 C4 1_555 1_555
C4 C5 1_555 1_555
C5 N1 1_555 1_555
C6 N2 1_555 1_555
C7 C1 1_555 1_555
C8 C7 1_555 1_555
C9 C8 1_555 1_555
C10 C9 1_555 1_555
C11 C10 1_555 1_555
C12 C11 1_555 1_555
C13 C11 1_555 1_555
C14 C8 1_555 1_555
C15 C14 1_555 1_555
C16 C9 1_555 1_555
O3 C6 1_555 1_555
O4 C17 1_555 1_555
C17 N3 1_555 1_555
N3 N4 1_555 1_555
N4 C18 1_555 1_555
C18 C19 1_555 1_555
C19 C17 1_555 1_555
C20 C19 1_555 1_555
C21 C20 1_555 1_555
C22 C21 1_555 1_555
C23 C22 1_555 1_555
C24 C23 1_555 1_555
C25 C20 1_555 1_555
C26 C25 1_555 1_555
C27 C26 1_555 1_555
C28 C23 1_555 1_555
C29 C21 1_555 1_555
C30 C29 1_555 1_555
O5 C18 1_555 1_555
C31 N4 1_555 1_555
C32 C31 1_555 1_555
O6 C32 1_555 1_555
C33 O6 1_555 1_555
C34 N3 1_555 1_555
C35 C16 1_555 1_555
C36 C15 1_555 1_555
H1 C2 1_555 1_555
H2 C2 1_555 1_555
H3 C3 1_555 1_555
H4 C3 1_555 1_555
H5 C4 1_555 1_555
H6 C4 1_555 1_555
H7 C5 1_555 1_555
H8 C5 1_555 1_555
H9 C10 1_555 1_555
H10 C12 1_555 1_555
H11 C12 1_555 1_555
H12 C12 1_555 1_555
H13 C13 1_555 1_555
H14 C15 1_555 1_555
H15 C16 1_555 1_555
H16 C16 1_555 1_555
H17 C22 1_555 1_555
H18 C24 1_555 1_555
H19 C26 1_555 1_555
H20 C26 1_555 1_555
H21 C27 1_555 1_555
H22 C27 1_555 1_555
H23 C27 1_555 1_555
H24 C28 1_555 1_555
H25 C28 1_555 1_555
H26 C28 1_555 1_555
H27 C29 1_555 1_555
H28 C29 1_555 1_555
H29 C30 1_555 1_555
H30 C30 1_555 1_555
H31 C30 1_555 1_555
H32 C31 1_555 1_555
H33 C31 1_555 1_555
H34 C32 1_555 1_555
H35 C32 1_555 1_555
H36 C33 1_555 1_555
H37 C33 1_555 1_555
H38 C34 1_555 1_555
H39 C34 1_555 1_555
H40 C35 1_555 1_555
H41 C35 1_555 1_555
H42 C35 1_555 1_555
H43 C36 1_555 1_555
H44 C36 1_555 1_555
C6 C7 1_555 1_555
C13 C14 1_555 1_555
C24 C25 1_555 1_555
C33 C34 1_555 1_555

#END
