
#######################################################################
#
#                 Cambridge Crystallographic Data Centre
#                                CCDC 
#
#######################################################################
#
# If this CIF has been generated from an entry in the Cambridge 
# Structural Database, then it will include bibliographic, chemical, 
# crystal, experimental, refinement or atomic coordinate data resulting 
# from the CCDC's data processing and validation procedures.
#
#######################################################################

data_LEJKUG
_chemical_name_common            Temalastine
_chemical_formula_moiety         'C21 H27 Br1 N5 O1 3+,3(Br1 1-)'
_chemical_name_systematic        
'2-(4-(5-Bromo-3-methyl-2-pyridyl)butylamino)-5-(6-methyl-3-pyridylmethyl)-4-pyrimidone trihydrobromide'
_chemical_properties_biological  'specific histamine H1 antagonist activity'
_symmetry_cell_setting           triclinic
_symmetry_space_group_name_H-M   'P -1'
_symmetry_Int_Tables_number      2
_space_group_name_Hall           '-P 1'
loop_
_symmetry_equiv_pos_site_id
_symmetry_equiv_pos_as_xyz
1 x,y,z
2 -x,-y,-z
_cell_length_a                   6.314(2)
_cell_length_b                   11.192(2)
_cell_length_c                   19.441(5)
_cell_angle_alpha                102.47(2)
_cell_angle_beta                 92.77(2)
_cell_angle_gamma                103.28(2)
_cell_volume                     1298.59
_cell_formula_units_Z            2
loop_
_atom_site_label
_atom_site_type_symbol
_atom_site_fract_x
_atom_site_fract_y
_atom_site_fract_z
Br1 Br 0.82099(8) 0.24977(5) 0.59896(3)
Br2 Br 1.52722(9) 0.28295(5) 0.94384(3)
Br3 Br 1.2902(1) -0.24361(6) 0.76472(3)
N1 N 0.8710(6) -0.2984(3) 0.6473(1)
C1 C 0.6869(8) -0.3882(4) 0.6455(2)
C2 C 0.5119(7) -0.3938(3) 0.5991(2)
Br4 Br 0.25241(9) -0.52110(5) 0.59423(3)
C3 C 0.5279(7) -0.3103(3) 0.5569(2)
C4 C 0.7204(7) -0.2180(3) 0.5598(2)
C5 C 0.7351(9) -0.1232(5) 0.5154(3)
C6 C 0.8968(7) -0.2134(3) 0.6070(2)
C7 C 1.1158(7) -0.1221(4) 0.6156(2)
C8 C 1.1282(7) -0.0050(4) 0.6746(3)
C9 C 1.3485(7) 0.0899(4) 0.6824(3)
C10 C 1.3770(8) 0.2066(5) 0.7413(3)
N2 N 1.2071(16) 0.2730(4) 0.7301(2)
C11 C 1.1511(7) 0.3584(4) 0.7791(2)
N3 N 0.9809(6) 0.4042(4) 0.7624(2)
C12 C 0.8911(8) 0.4856(4) 0.8103(3)
O1 O 0.7238(5) 0.5117(3) 0.7907(2)
C13 C 1.0060(7) 0.5296(4) 0.8810(2)
C14 C 1.1791(7) 0.4841(4) 0.8954(2)
N4 N 1.2493(6) 0.3986(3) 0.8451(2)
C15 C 0.9195(8) 0.6169(5) 0.9368(3)
C16 C 0.9221(7) 0.7418(4) 0.9193(1)
C17 C 0.7405(7) 0.7576(4) 0.8830(1)
N5 N 0.7421(6) 0.8664(4) 0.8658(1)
C18 C 0.9136(9) 0.9683(5) 0.8813(2)
C19 C 0.894(1) 1.0832(6) 0.8579(4)
C20 C 1.0981(8) 0.9558(5) 0.9177(2)
C21 C 1.1019(7) 0.8444(4) 0.9363(1)
H1 H 0.9948(6) -0.2844(3) 0.6868(1)
H2 H 0.6768(8) -0.4486(4) 0.6770(2)
H3 H 0.4004(7) -0.3167(3) 0.5226(2)
H4 H 0.6908(9) -0.0415(5) 0.5233(3)
H5 H 0.8893(9) -0.0841(5) 0.5085(3)
H6 H 0.6467(9) -0.1579(5) 0.4682(3)
H7 H 1.2326(7) -0.1636(4) 0.6274(2)
H8 H 1.1407(7) -0.0953(4) 0.5702(2)
H9 H 1.1072(7) -0.0312(4) 0.7203(3)
H10 H 1.0094(7) 0.0357(4) 0.6634(3)
H11 H 1.4657(7) 0.0462(4) 0.6906(3)
H12 H 1.3644(7) 0.1178(4) 0.6370(3)
H13 H 1.5249(8) 0.2640(5) 0.7428(3)
H14 H 1.3625(8) 0.1807(5) 0.7873(3)
H15 H 1.1222(6) 0.2450(4) 0.6861(2)
H16 H 0.9146(6) 0.3785(4) 0.7120(2)
H17 H 1.2596(7) 0.5137(4) 0.9439(2)
H18 H 1.3763(6) 0.3657(3) 0.8582(2)
H19 H 1.0112(8) 0.6325(5) 0.9828(3)
H20 H 0.7649(8) 0.5750(5) 0.9418(3)
H21 H 0.6065(7) 0.6862(4) 0.8702(1)
H22 H 0.6153(6) 0.8613(4) 0.8312(1)
H23 H 0.816(1) 1.0931(6) 0.8141(4)
H24 H 0.818(1) 1.1349(6) 0.8921(4)
H25 H 1.040(1) 1.1360(6) 0.8525(4)
H26 H 1.2280(8) 1.0296(5) 0.9321(2)
H27 H 1.2375(7) 0.8363(4) 0.9618(1)
loop_
_geom_bond_atom_site_label_1
_geom_bond_atom_site_label_2
_geom_bond_site_symmetry_1
_geom_bond_site_symmetry_2
N1 C1 1_555 1_555
C1 C2 1_555 1_555
C2 Br4 1_555 1_555
C3 C2 1_555 1_555
C4 C3 1_555 1_555
C5 C4 1_555 1_555
C6 N1 1_555 1_555
C7 C6 1_555 1_555
C8 C7 1_555 1_555
C9 C8 1_555 1_555
C10 C9 1_555 1_555
N2 C10 1_555 1_555
C11 N2 1_555 1_555
N3 C11 1_555 1_555
C12 N3 1_555 1_555
O1 C12 1_555 1_555
C13 C12 1_555 1_555
C14 C13 1_555 1_555
N4 C11 1_555 1_555
C15 C13 1_555 1_555
C16 C15 1_555 1_555
C17 C16 1_555 1_555
N5 C17 1_555 1_555
C18 N5 1_555 1_555
C19 C18 1_555 1_555
C20 C18 1_555 1_555
C21 C16 1_555 1_555
H1 N1 1_555 1_555
H2 C1 1_555 1_555
H3 C3 1_555 1_555
H4 C5 1_555 1_555
H5 C5 1_555 1_555
H6 C5 1_555 1_555
H7 C7 1_555 1_555
H8 C7 1_555 1_555
H9 C8 1_555 1_555
H10 C8 1_555 1_555
H11 C9 1_555 1_555
H12 C9 1_555 1_555
H13 C10 1_555 1_555
H14 C10 1_555 1_555
H15 N2 1_555 1_555
H16 N3 1_555 1_555
H17 C14 1_555 1_555
H18 N4 1_555 1_555
H19 C15 1_555 1_555
H20 C15 1_555 1_555
H21 C17 1_555 1_555
H22 N5 1_555 1_555
H23 C19 1_555 1_555
H24 C19 1_555 1_555
H25 C19 1_555 1_555
H26 C20 1_555 1_555
H27 C21 1_555 1_555
C4 C6 1_555 1_555
C14 N4 1_555 1_555
C20 C21 1_555 1_555

#END
