
#######################################################################
#
#                 Cambridge Crystallographic Data Centre
#                                CCDC 
#
#######################################################################
#
# If this CIF has been generated from an entry in the Cambridge 
# Structural Database, then it will include bibliographic, chemical, 
# crystal, experimental, refinement or atomic coordinate data resulting 
# from the CCDC's data processing and validation procedures.
#
#######################################################################

data_LEJLAN
_chemical_formula_moiety         
'0.5(C14 H17 Br1 N4 O1),0.5(C14 H17 Br1 N4 O1),H2 O1'
_chemical_name_systematic        
'2-(4-(5-Bromo-3-methyl-2-pyridyl)butylamino)-4-pyrimidone monohydrate'
_chemical_properties_biological  'specific histamine H1 antagonist activity'
_symmetry_cell_setting           monoclinic
_symmetry_space_group_name_H-M   'I 2/a'
_symmetry_Int_Tables_number      15
_space_group_name_Hall           '-I 2ya'
loop_
_symmetry_equiv_pos_site_id
_symmetry_equiv_pos_as_xyz
1 x,y,z
2 1/2+x,1/2+y,1/2+z
3 1/2-x,y,-z
4 -x,1/2+y,1/2-z
5 -x,-y,-z
6 1/2-x,1/2-y,1/2-z
7 1/2+x,-y,z
8 x,1/2-y,1/2+z
_cell_length_a                   16.359(3)
_cell_length_b                   10.469(6)
_cell_length_c                   18.339(4)
_cell_angle_alpha                90
_cell_angle_beta                 90.90(2)
_cell_angle_gamma                90
_cell_volume                     3140.39
_cell_formula_units_Z            8
loop_
_atom_site_label
_atom_site_type_symbol
_atom_site_fract_x
_atom_site_fract_y
_atom_site_fract_z
N1 N 0.1090(3) -0.1572(4) -0.0101(2)
C1 C 0.1357(3) -0.1813(5) 0.0579(2)
C2 C 0.1632(3) -0.0874(5) 0.1037(2)
Br1 Br 0.20371(3) -0.13069(5) 0.19780(2)
C3 C 0.1608(3) 0.0379(5) 0.0813(2)
C4 C 0.1320(3) 0.0656(4) 0.0116(2)
C5 C 0.1276(4) 0.2024(5) -0.0146(3)
C6 C 0.1077(3) -0.0364(4) -0.0331(2)
C7 C 0.0798(3) -0.0124(4) -0.1107(2)
C8 C 0.0509(3) -0.1282(5) -0.1530(2)
C9 C 0.0395(3) -0.0985(4) -0.2337(2)
C10 C 0.0008(2) -0.2069(4) -0.2770(2)
N2 N -0.0880(2) -0.2133(3) -0.2712(2)
C11 C -0.1389(2) -0.1435(4) -0.3115(2)
N3 N -0.2197(2) -0.1648(3) -0.3049(2)
C12 C -0.2763(3) -0.0994(4) -0.3462(2)
O2 O -0.3503(2) -0.1264(3) -0.3407(2)
C13 C -0.2459(3) -0.0049(5) -0.3948(2)
C14 C -0.1647(3) 0.0128(5) -0.3980(2)
N4 N -0.1095(2) -0.0556(4) -0.3578(2)
H3 H 0.1372(3) -0.2716(5) 0.0757(3)
H4 H 0.1232(4) 0.2719(5) 0.0321(3)
H5 H 0.1779(4) 0.2221(5) -0.0428(3)
H6 H 0.0783(4) 0.2124(5) -0.0470(3)
H7 H -0.1431(3) 0.0793(5) -0.4318(2)
H8 H -0.2844(3) 0.0470(5) -0.4257(3)
H9 H -0.1092(2) -0.2812(4) -0.2409(2)
H10 H 0.0142(3) -0.1968(4) -0.3297(2)
H11 H 0.0250(3) -0.2883(4) -0.2581(2)
H12 H 0.0941(3) -0.0782(5) -0.2545(2)
H13 H 0.0028(3) -0.0224(5) -0.2386(2)
H14 H 0.0921(3) -0.1982(5) -0.1471(2)
H15 H -0.0025(3) -0.1567(5) -0.1328(2)
H16 H 0.1270(3) 0.0246(4) -0.1377(2)
H17 H 0.0341(3) 0.0509(4) -0.1099(2)
H18 H 0.1798(3) 0.1075(5) 0.1148(2)
H19 H -0.2387(2) -0.2313(3) -0.2699(2)
H20 H -0.0494(2) -0.0406(4) -0.3621(2)
O1 O 0.0360(2) 0.5127(4) 0.0709(2)
H1 H 0.0083(2) 0.4366(4) 0.0461(2)
H2 H 0.0721(2) 0.4747(4) 0.0936(2)
loop_
_geom_bond_atom_site_label_1
_geom_bond_atom_site_label_2
_geom_bond_site_symmetry_1
_geom_bond_site_symmetry_2
O1 H1 1_555 1_555
H2 O1 1_555 1_555
N1 C1 1_555 1_555
C1 C2 1_555 1_555
C2 Br1 1_555 1_555
C3 C2 1_555 1_555
C4 C3 1_555 1_555
C5 C4 1_555 1_555
C6 N1 1_555 1_555
C7 C6 1_555 1_555
C8 C7 1_555 1_555
C9 C8 1_555 1_555
C10 C9 1_555 1_555
N2 C10 1_555 1_555
C11 N2 1_555 1_555
N3 C11 1_555 1_555
C12 N3 1_555 1_555
O2 C12 1_555 1_555
C13 C12 1_555 1_555
C14 C13 1_555 1_555
N4 C11 1_555 1_555
H3 C1 1_555 1_555
H4 C5 1_555 1_555
H5 C5 1_555 1_555
H6 C5 1_555 1_555
H7 C14 1_555 1_555
H8 C13 1_555 1_555
H9 N2 1_555 1_555
H10 C10 1_555 1_555
H11 C10 1_555 1_555
H12 C9 1_555 1_555
H13 C9 1_555 1_555
H14 C8 1_555 1_555
H15 C8 1_555 1_555
H16 C7 1_555 1_555
H17 C7 1_555 1_555
H18 C3 1_555 1_555
H19 N3 1_555 1_555
H20 N4 1_555 1_555
C4 C6 1_555 1_555
C14 N4 1_555 1_555

#END
