
#######################################################################
#
#                 Cambridge Crystallographic Data Centre
#                                CCDC 
#
#######################################################################
#
# If this CIF has been generated from an entry in the Cambridge 
# Structural Database, then it will include bibliographic, chemical, 
# crystal, experimental, refinement or atomic coordinate data resulting 
# from the CCDC's data processing and validation procedures.
#
#######################################################################

data_LEJMAO
_chemical_formula_moiety         'C23 H27 N5 O1,H2 O1'
_chemical_name_systematic        
'5-(6-Methyl-3-pyridylmethyl)-2-(3-(5,6,7,8-tetrahydro-8-quinolyl)propylamino)-4-pyrimidone monohydrate'
_chemical_properties_biological  'specific histamine H1 antagonist activity'
_symmetry_cell_setting           monoclinic
_symmetry_space_group_name_H-M   'P 21/c'
_symmetry_Int_Tables_number      14
_space_group_name_Hall           '-P 2ybc'
loop_
_symmetry_equiv_pos_site_id
_symmetry_equiv_pos_as_xyz
1 x,y,z
2 -x,1/2+y,1/2-z
3 -x,-y,-z
4 x,1/2-y,1/2+z
_cell_length_a                   14.966(2)
_cell_length_b                   16.075(2)
_cell_length_c                   9.1608(9)
_cell_angle_alpha                90
_cell_angle_beta                 99.158(8)
_cell_angle_gamma                90
_cell_volume                     2175.8
_cell_formula_units_Z            4
loop_
_atom_site_label
_atom_site_type_symbol
_atom_site_fract_x
_atom_site_fract_y
_atom_site_fract_z
N1 N 0.5529(2) 0.4029(2) 0.7602(3)
C1 C 0.4883(3) 0.4115(2) 0.6432(4)
C2 C 0.3988(3) 0.4030(3) 0.6515(5)
C3 C 0.3741(2) 0.3841(2) 0.7846(6)
C4 C 0.4395(2) 0.3730(2) 0.9074(4)
C5 C 0.5295(2) 0.3836(2) 0.8917(3)
C6 C 0.4129(2) 0.3532(3) 1.0546(5)
C7 C 0.5770(2) 0.3689(4) 1.1678(3)
C8 C 0.4788(3) 0.3822(5) 1.1803(4)
C9 C 0.6074(2) 0.3781(2) 1.0186(3)
C10 C 0.6755(2) 0.3139(2) 0.9896(3)
C11 C 0.7611(2) 0.3110(2) 1.1040(3)
C12 C 0.8372(2) 0.2616(2) 1.0522(4)
N2 N 0.8117(2) 0.1745(1) 1.0324(3)
C13 C 0.8580(2) 0.1209(2) 0.9602(3)
N3 N 0.8283(1) 0.0404(1) 0.9564(2)
C14 C 0.8667(2) -0.0231(2) 0.8847(2)
O1 O 0.8369(1) -0.0942(1) 0.8872(2)
C15 C 0.9404(2) 0.0034(2) 0.8122(3)
C16 C 0.9643(2) 0.0848(2) 0.8232(3)
N4 N 0.9254(1) 0.1456(1) 0.8957(2)
C17 C 0.9868(2) -0.0612(2) 0.7329(3)
C18 C 0.9301(2) -0.0953(2) 0.5944(3)
C19 C 0.8692(2) -0.0464(2) 0.5023(3)
N5 N 0.8179(2) -0.0735(2) 0.3785(3)
C20 C 0.8253(2) -0.1539(2) 0.3404(3)
C21 C 0.7667(3) -0.1824(2) 0.2007(4)
C22 C 0.8850(2) -0.2065(2) 0.4249(3)
C23 C 0.9373(2) -0.1774(2) 0.5518(3)
H1 H 0.5058(3) 0.4251(2) 0.5450(4)
H2 H 0.3515(3) 0.4103(3) 0.5621(5)
H3 H 0.3086(2) 0.3782(2) 0.7931(6)
H4 H 0.6928(2) 0.3251(2) 0.8904(3)
H5 H 0.6454(2) 0.2583(2) 0.9885(3)
H6 H 0.7818(2) 0.3695(2) 1.1256(3)
H7 H 0.7469(2) 0.2845(2) 1.1963(3)
H8 H 0.8937(2) 0.2666(2) 1.1262(3)
H9 H 0.8482(2) 0.2843(2) 0.9549(3)
H10 H 0.7782(2) 0.1529(1) 1.0911(3)
H11 H 0.7773(1) 0.0211(1) 1.0037(2)
H12 H 1.0158(2) 0.1022(2) 0.7728(3)
H13 H 1.0428(2) -0.0361(2) 0.7050(3)
H14 H 1.0037(2) -0.1085(2) 0.8028(3)
H15 H 0.8631(2) 0.0132(2) 0.5303(3)
H16 H 0.7909(3) -0.1536(2) 0.1189(4)
H17 H 0.7704(3) -0.2441(2) 0.1893(4)
H18 H 0.7024(3) -0.1658(2) 0.2018(4)
H19 H 0.8901(2) -0.2657(2) 0.3935(3)
H20 H 0.9807(2) -0.2152(2) 0.6142(3)
H21 H 0.3531(2) 0.3802(3) 1.0585(5)
H22 H 0.4069(2) 0.2916(3) 1.0642(5)
H23 H 0.4708(3) 0.4437(5) 1.1874(4)
H24 H 0.4659(3) 0.3552(5) 1.2730(4)
H25 H 0.6150(2) 0.4074(4) 1.2375(3)
H26 H 0.5902(2) 0.3101(4) 1.1999(3)
H27 H 0.6397(2) 0.4327(2) 1.0241(3)
O2 O 0.7190(2) 0.0425(2) 0.1837(2)
H28 H 0.6629(2) 0.0586(2) 0.2142(2)
H29 H 0.7510(2) 0.0024(2) 0.2531(2)
C24? C 0.4873(3) 0.3270(4) 1.1700(5)
H30? H 0.3902(2) 0.4063(3) 1.0923(5)
H31? H 0.3633(2) 0.3108(3) 1.0426(5)
H32? H 0.4708(3) 0.3322(4) 1.2708(5)
H33? H 0.4979(3) 0.2671(4) 1.1482(5)
H34? H 0.5699(2) 0.4260(4) 1.2077(3)
H35? H 0.6260(2) 0.3387(4) 1.2342(3)
loop_
_geom_bond_atom_site_label_1
_geom_bond_atom_site_label_2
_geom_bond_site_symmetry_1
_geom_bond_site_symmetry_2
N1 C1 1_555 1_555
C1 C2 1_555 1_555
C2 C3 1_555 1_555
C3 C4 1_555 1_555
C4 C5 1_555 1_555
C5 N1 1_555 1_555
C6 C4 1_555 1_555
C7 C8 1_555 1_555
C8 C6 1_555 1_555
C9 C5 1_555 1_555
C10 C9 1_555 1_555
C11 C10 1_555 1_555
C12 C11 1_555 1_555
N2 C12 1_555 1_555
C13 N2 1_555 1_555
N3 C13 1_555 1_555
C14 N3 1_555 1_555
O1 C14 1_555 1_555
C15 C14 1_555 1_555
C16 C15 1_555 1_555
N4 C13 1_555 1_555
C17 C15 1_555 1_555
C18 C17 1_555 1_555
C19 C18 1_555 1_555
N5 C19 1_555 1_555
C20 N5 1_555 1_555
C21 C20 1_555 1_555
C22 C20 1_555 1_555
C23 C18 1_555 1_555
H1 C1 1_555 1_555
H2 C2 1_555 1_555
H3 C3 1_555 1_555
H4 C10 1_555 1_555
H5 C10 1_555 1_555
H6 C11 1_555 1_555
H7 C11 1_555 1_555
H8 C12 1_555 1_555
H9 C12 1_555 1_555
H10 N2 1_555 1_555
H11 N3 1_555 1_555
H12 C16 1_555 1_555
H13 C17 1_555 1_555
H14 C17 1_555 1_555
H15 C19 1_555 1_555
H16 C21 1_555 1_555
H17 C21 1_555 1_555
H18 C21 1_555 1_555
H19 C22 1_555 1_555
H20 C23 1_555 1_555
H21 C6 1_555 1_555
H22 C6 1_555 1_555
H23 C8 1_555 1_555
H24 C8 1_555 1_555
H25 C7 1_555 1_555
H26 C7 1_555 1_555
H27 C9 1_555 1_555
O2 H28 1_555 1_555
H29 O2 1_555 1_555
C7 C9 1_555 1_555
C16 N4 1_555 1_555
C22 C23 1_555 1_555

#END
