
#######################################################################
#
#                 Cambridge Crystallographic Data Centre
#                                CCDC 
#
#######################################################################
#
# If this CIF has been generated from an entry in the Cambridge 
# Structural Database, then it will include bibliographic, chemical, 
# crystal, experimental, refinement or atomic coordinate data resulting 
# from the CCDC's data processing and validation procedures.
#
#######################################################################

data_LEJNUK
_chemical_formula_moiety         'C24 H17 F1 N4 O1 S2'
_chemical_name_systematic        
5-(4-Fluorobenzylamino)-3,6-diphenyl-2-thioxo-2,3-dihydro-1,3-thiazolo(4,5-d)pyrimidin-7(6H)-one
_symmetry_cell_setting           monoclinic
_symmetry_space_group_name_H-M   'P 21'
_symmetry_Int_Tables_number      4
_space_group_name_Hall           'P 2yb'
loop_
_symmetry_equiv_pos_site_id
_symmetry_equiv_pos_as_xyz
1 x,y,z
2 -x,1/2+y,-z
_cell_length_a                   10.4507(14)
_cell_length_b                   9.2317(12)
_cell_length_c                   11.9817(16)
_cell_angle_alpha                90
_cell_angle_beta                 104.691(2)
_cell_angle_gamma                90
_cell_volume                     1118.18
_exptl_crystal_colour            colorless
_exptl_crystal_description       block
_cell_formula_units_Z            2
_exptl_crystal_recrystallization_method acetone
loop_
_atom_site_label
_atom_site_type_symbol
_atom_site_fract_x
_atom_site_fract_y
_atom_site_fract_z
C1 C 0.5572(4) 0.6485(5) 0.6529(3)
H1 H 0.6413 0.6889 0.6764
C2 C 0.4600(6) 0.6823(6) 0.7092(4)
H2 H 0.4783 0.7482 0.7699
C3 C 0.3379(5) 0.6195(6) 0.6762(4)
H3 H 0.2748 0.6405 0.7163
C4 C 0.3078(4) 0.5266(5) 0.5851(4)
H4 H 0.2239 0.4856 0.5626
C5 C 0.4021(4) 0.4929(5) 0.5258(3)
H5 H 0.3819 0.4304 0.4629
C6 C 0.5256(3) 0.5537(4) 0.5616(3)
C7 C 0.7277(4) 0.4204(4) 0.5495(3)
C8 C 0.6181(3) 0.5866(4) 0.3944(3)
C9 C 0.7993(3) 0.4706(4) 0.3777(3)
C10 C 0.8200(4) 0.4050(4) 0.4823(3)
C11 C 0.9868(4) 0.3341(5) 0.3758(4)
C12 C 0.8860(4) 0.4802(5) 0.2024(3)
C13 C 0.8190(5) 0.4032(6) 0.1092(4)
H6 H 0.7762 0.3172 0.1178
C14 C 0.8169(6) 0.4573(9) 0.0006(4)
H7 H 0.7708 0.4056 -0.0637
C15 C 0.8762(5) 0.5772(8) -0.0161(4)
H8 H 0.8718 0.6101 -0.0903
C16 C 0.9455(7) 0.6537(7) 0.0792(5)
H9 H 0.9868 0.7401 0.0689
C17 C 0.9542(5) 0.6036(6) 0.1892(4)
H10 H 1.0051 0.6523 0.2531
C18 C 0.4995(4) 0.7477(4) 0.2425(3)
H11 H 0.5847 0.7775 0.2320
H12 H 0.4453 0.8337 0.2391
C19 C 0.4344(4) 0.6471(4) 0.1463(3)
C20 C 0.4986(5) 0.6071(4) 0.0622(3)
H13 H 0.5835 0.6411 0.0664
C21 C 0.4366(5) 0.5173(6) -0.0272(4)
H14 H 0.4796 0.4903 -0.0830
C22 C 0.3158(5) 0.4700(6) -0.0331(4)
C23 C 0.2497(6) 0.5011(8) 0.0495(5)
H15 H 0.1662 0.4634 0.0457
C24 C 0.3136(5) 0.5916(7) 0.1391(4)
H16 H 0.2711 0.6147 0.1963
F1 F 0.2537(4) 0.3839(5) -0.1226(3)
N1 N 0.6254(3) 0.5206(3) 0.4992(2)
N2 N 0.7001(3) 0.5615(3) 0.3300(2)
N3 N 0.8914(3) 0.4306(4) 0.3182(3)
N4 N 0.5184(3) 0.6804(4) 0.3553(2)
O1 O 0.7259(3) 0.3570(4) 0.6381(3)
S1 S 0.95765(10) 0.29361(14) 0.50878(10)
S2 S 1.10812(13) 0.2661(2) 0.32928(13)
H17 H 0.459(5) 0.696(8) 0.390(5)
loop_
_geom_bond_atom_site_label_1
_geom_bond_atom_site_label_2
_geom_bond_site_symmetry_1
_geom_bond_site_symmetry_2
C1 H1 1_555 1_555
C2 C1 1_555 1_555
H2 C2 1_555 1_555
C3 C2 1_555 1_555
H3 C3 1_555 1_555
C4 C3 1_555 1_555
H4 C4 1_555 1_555
C5 C4 1_555 1_555
H5 C5 1_555 1_555
C6 C1 1_555 1_555
C7 C10 1_555 1_555
C8 N1 1_555 1_555
C9 C10 1_555 1_555
C10 S1 1_555 1_555
C11 N3 1_555 1_555
C12 C13 1_555 1_555
C13 H6 1_555 1_555
C14 C13 1_555 1_555
H7 C14 1_555 1_555
C15 C14 1_555 1_555
H8 C15 1_555 1_555
C16 C15 1_555 1_555
H9 C16 1_555 1_555
C17 C12 1_555 1_555
H10 C17 1_555 1_555
C18 H11 1_555 1_555
H12 C18 1_555 1_555
C19 C18 1_555 1_555
C20 C19 1_555 1_555
H13 C20 1_555 1_555
C21 C20 1_555 1_555
H14 C21 1_555 1_555
C22 C21 1_555 1_555
C23 C22 1_555 1_555
H15 C23 1_555 1_555
C24 C19 1_555 1_555
H16 C24 1_555 1_555
F1 C22 1_555 1_555
N1 C6 1_555 1_555
N2 C8 1_555 1_555
N3 C9 1_555 1_555
N4 C8 1_555 1_555
O1 C7 1_555 1_555
S1 C11 1_555 1_555
S2 C11 1_555 1_555
H17 N4 1_555 1_555
C5 C6 1_555 1_555
C7 N1 1_555 1_555
C9 N2 1_555 1_555
C12 N3 1_555 1_555
C16 C17 1_555 1_555
C18 N4 1_555 1_555
C23 C24 1_555 1_555

#END
