
#######################################################################
#
#                 Cambridge Crystallographic Data Centre
#                                CCDC 
#
#######################################################################
#
# If this CIF has been generated from an entry in the Cambridge 
# Structural Database, then it will include bibliographic, chemical, 
# crystal, experimental, refinement or atomic coordinate data resulting 
# from the CCDC's data processing and validation procedures.
#
#######################################################################

data_LEJNUL
_chemical_formula_moiety         
'C48 H48 N12,0.5(C66 H72 N12),0.5(C72 H84 N12),1.5(N2)'
_chemical_name_systematic        
'3,6,10,13,17,20,24,27,30,33,36,39-Dodeca-aza-1,8,15,22(1,3,5)-tetrabenzenatricyclo[13.13.6.6^8,22^]tetracontaphane-2,6,9,13,16,20,24,27,29,33,35,39-dodecaene hemikis((R)-3,5,9,11,15,17,21,23,26,28,31,33-dodeca-aza-1,7,13,19(1,3,5)-tetrabenzena-4,10,16,22,27,32(1,2)-hexacyclopentanatricyclo[11.11.5.5^7,19^]tetratriacontaphane-2,5,8,11,14,17 20,23,25,28,30,33-dodecaene) hemikis((R)-3,5,9,11,15,17,21,23,26,28,31,33-dodeca-aza-1,7,13,19(1,3,5)-tetrabenzena-4,10,16,22,27,32(1,2)-hexacyclohexanatricyclo[11.11.5.5^7,19^]tetratriacontaphane-2,5,8,11,14,17 20,23,25,28,30,33-dodecaene) dinitrogen'
_symmetry_cell_setting           cubic
_symmetry_space_group_name_H-M   'F 2 3'
_symmetry_Int_Tables_number      196
_space_group_name_Hall           'F 2 2 3'
loop_
_symmetry_equiv_pos_site_id
_symmetry_equiv_pos_as_xyz
1 x,y,z
2 -x,-y,z
3 -x,y,-z
4 x,-y,-z
5 z,x,y
6 z,-x,-y
7 -z,-x,y
8 -z,x,-y
9 y,z,x
10 -y,z,-x
11 y,-z,-x
12 -y,-z,x
13 x,1/2+y,1/2+z
14 -x,1/2-y,1/2+z
15 -x,1/2+y,1/2-z
16 x,1/2-y,1/2-z
17 z,1/2+x,1/2+y
18 z,1/2-x,1/2-y
19 -z,1/2-x,1/2+y
20 -z,1/2+x,1/2-y
21 y,1/2+z,1/2+x
22 -y,1/2+z,1/2-x
23 y,1/2-z,1/2-x
24 -y,1/2-z,1/2+x
25 1/2+x,y,1/2+z
26 1/2-x,-y,1/2+z
27 1/2-x,y,1/2-z
28 1/2+x,-y,1/2-z
29 1/2+z,x,1/2+y
30 1/2+z,-x,1/2-y
31 1/2-z,-x,1/2+y
32 1/2-z,x,1/2-y
33 1/2+y,z,1/2+x
34 1/2-y,z,1/2-x
35 1/2+y,-z,1/2-x
36 1/2-y,-z,1/2+x
37 1/2+x,1/2+y,z
38 1/2-x,1/2-y,z
39 1/2-x,1/2+y,-z
40 1/2+x,1/2-y,-z
41 1/2+z,1/2+x,y
42 1/2+z,1/2-x,-y
43 1/2-z,1/2-x,y
44 1/2-z,1/2+x,-y
45 1/2+y,1/2+z,x
46 1/2-y,1/2+z,-x
47 1/2+y,1/2-z,-x
48 1/2-y,1/2-z,x
_cell_length_a                   23.9478(5)
_cell_length_b                   23.9478(5)
_cell_length_c                   23.9478(5)
_cell_angle_alpha                90
_cell_angle_beta                 90
_cell_angle_gamma                90
_cell_volume                     13734
_exptl_crystal_colour            colorless
_exptl_crystal_description       'truncated tetrahedron'
_cell_formula_units_Z            4
loop_
_atom_site_label
_atom_site_type_symbol
_atom_site_fract_x
_atom_site_fract_y
_atom_site_fract_z
N2 N 0.54960(7) 0.23235(7) 0.03585(7)
C9 C 0.51321(10) 0.28107(8) 0.02884(9)
H11 H 0.5353 0.3157 0.0339
H12 H 0.4835 0.2804 0.0576
C10 C 0.53764(9) 0.19923(9) 0.07507(9)
H13 H 0.5056 0.2071 0.0972
C11 C 0.57062(8) 0.14917(8) 0.08839(9)
C12 C 0.61711(9) 0.13416(9) 0.05658(9)
H14 H 0.6268 0.1558 0.0248
N2B N 0.45040(7) 0.23235(7) -0.03585(7)
N2FA N 0.73235(7) 0.03585(7) 0.04960(7)
N2NA N 0.53585(7) 0.04960(7) 0.23235(7)
N2GA N 0.26765(7) 0.03585(7) -0.04960(7)
N2HA N 0.73235(7) -0.03585(7) -0.04960(7)
N2IA N 0.26765(7) -0.03585(7) 0.04960(7)
N2OA N 0.53585(7) -0.04960(7) -0.23235(7)
N2PA N 0.46415(7) -0.04960(7) 0.23235(7)
N2QA N 0.46415(7) 0.04960(7) -0.23235(7)
N2A N 0.45040(7) -0.23235(7) 0.03585(7)
N2C N 0.54960(7) -0.23235(7) -0.03585(7)
C9B C 0.48679(10) 0.28107(8) -0.02884(9)
C9FA C 0.78107(8) 0.02884(9) 0.01321(10)
C9NA C 0.52884(9) 0.01321(10) 0.28107(8)
C9GA C 0.21893(8) 0.02884(9) -0.01321(10)
C9HA C 0.78107(8) -0.02884(9) -0.01321(10)
C9IA C 0.21893(8) -0.02884(9) 0.01321(10)
C9OA C 0.52884(9) -0.01321(10) -0.28107(8)
C9PA C 0.47116(9) -0.01321(10) 0.28107(8)
C9QA C 0.47116(9) 0.01321(10) -0.28107(8)
C9A C 0.48679(10) -0.28107(8) 0.02884(9)
C9C C 0.51321(10) -0.28107(8) -0.02884(9)
H11B H 0.4647 0.3157 -0.0339
H11FA H 0.8157 0.0339 0.0353
H11NA H 0.5339 0.0353 0.3157
H11GA H 0.1843 0.0339 -0.0353
H11HA H 0.8157 -0.0339 -0.0353
H11IA H 0.1843 -0.0339 0.0353
H11OA H 0.5339 -0.0353 -0.3157
H11PA H 0.4661 -0.0353 0.3157
H11QA H 0.4661 0.0353 -0.3157
H11A H 0.4647 -0.3157 0.0339
H11C H 0.5353 -0.3157 -0.0339
H12B H 0.5165 0.2804 -0.0576
H12FA H 0.7804 0.0576 -0.0165
H12NA H 0.5576 -0.0165 0.2804
H12GA H 0.2196 0.0576 0.0165
H12HA H 0.7804 -0.0576 0.0165
H12IA H 0.2196 -0.0576 -0.0165
H12OA H 0.5576 0.0165 -0.2804
H12PA H 0.4424 0.0165 0.2804
H12QA H 0.4424 -0.0165 -0.2804
H12A H 0.5165 -0.2804 0.0576
H12C H 0.4835 -0.2804 -0.0576
C10B C 0.46236(9) 0.19923(9) -0.07507(9)
C10FA C 0.69923(9) 0.07507(9) 0.03764(9)
C10NA C 0.57507(9) 0.03764(9) 0.19923(9)
C10GA C 0.30077(9) 0.07507(9) -0.03764(9)
C10HA C 0.69923(9) -0.07507(9) -0.03764(9)
C10IA C 0.30077(9) -0.07507(9) 0.03764(9)
C10OA C 0.57507(9) -0.03764(9) -0.19923(9)
C10PA C 0.42493(9) -0.03764(9) 0.19923(9)
C10QA C 0.42493(9) 0.03764(9) -0.19923(9)
C10A C 0.46236(9) -0.19923(9) 0.07507(9)
C10C C 0.53764(9) -0.19923(9) -0.07507(9)
H13B H 0.4944 0.2071 -0.0972
H13FA H 0.7071 0.0972 0.0056
H13NA H 0.5972 0.0056 0.2071
H13GA H 0.2929 0.0972 -0.0056
H13HA H 0.7071 -0.0972 -0.0056
H13IA H 0.2929 -0.0972 0.0056
H13OA H 0.5972 -0.0056 -0.2071
H13PA H 0.4028 -0.0056 0.2071
H13QA H 0.4028 0.0056 -0.2071
H13A H 0.4944 -0.2071 0.0972
H13C H 0.5056 -0.2071 -0.0972
C11B C 0.42938(8) 0.14917(8) -0.08839(9)
C11FA C 0.64917(8) 0.08839(9) 0.07062(8)
C11NA C 0.58839(9) 0.07062(8) 0.14917(8)
C11GA C 0.35083(8) 0.08839(9) -0.07062(8)
C11HA C 0.64917(8) -0.08839(9) -0.07062(8)
C11IA C 0.35083(8) -0.08839(9) 0.07062(8)
C11OA C 0.58839(9) -0.07062(8) -0.14917(8)
C11PA C 0.41161(9) -0.07062(8) 0.14917(8)
C11QA C 0.41161(9) 0.07062(8) -0.14917(8)
C11A C 0.42938(8) -0.14917(8) 0.08839(9)
C11C C 0.57062(8) -0.14917(8) -0.08839(9)
C12B C 0.38289(9) 0.13416(9) -0.05658(9)
C12FA C 0.63416(9) 0.05658(9) 0.11711(9)
C12NA C 0.55658(9) 0.11711(9) 0.13416(9)
C12GA C 0.36584(9) 0.05658(9) -0.11711(9)
C12HA C 0.63416(9) -0.05658(9) -0.11711(9)
C12IA C 0.36584(9) -0.05658(9) 0.11711(9)
C12OA C 0.55658(9) -0.11711(9) -0.13416(9)
C12PA C 0.44342(9) -0.11711(9) 0.13416(9)
C12QA C 0.44342(9) 0.11711(9) -0.13416(9)
C12A C 0.38289(9) -0.13416(9) 0.05658(9)
C12C C 0.61711(9) -0.13416(9) -0.05658(9)
H14B H 0.3732 0.1558 -0.0248
H14FA H 0.6558 0.0248 0.1268
H14NA H 0.5248 0.1268 0.1558
H14GA H 0.3442 0.0248 -0.1268
H14HA H 0.6558 -0.0248 -0.1268
H14IA H 0.3442 -0.0248 0.1268
H14OA H 0.5248 -0.1268 -0.1558
H14PA H 0.4752 -0.1268 0.1558
H14QA H 0.4752 0.1268 -0.1558
H14A H 0.3732 -0.1558 0.0248
H14C H 0.6268 -0.1558 -0.0248
N3 N 0.2500 0.2500 0.2500
N4 N 0.5000 0.0000 0.0000
N5 N 0.3777(13) 0.1223(13) 0.1223(13)
N1 N 0.01718(8) 0.21110(9) 0.20105(8)
C1 C -0.02933(8) 0.22025(11) 0.23900(12)
H1 H -0.0264 0.1937 0.2711
C2 C -0.08723(11) 0.21615(18) 0.21375(16)
H2 H -0.0987 0.1765 0.2118
H3 H -0.0866 0.2312 0.1753
C5 C -0.13083(15) 0.2500 0.2500
H8 H -0.1546 0.2253 0.2731
C6 C 0.05117(9) 0.17296(10) 0.21372(10)
H9 H 0.0448 0.1518 0.2466
C7 C 0.10024(11) 0.16018(11) 0.17933(11)
C8 C 0.13310(11) 0.11441(11) 0.19261(11)
H10 H 0.1240 0.0924 0.2243
N1D N 0.20105(8) 0.01718(8) 0.21110(9)
N1H N 0.21110(9) 0.20105(8) 0.01718(8)
N1O N 0.01718(8) 0.28890(9) 0.29895(8)
N1Q N 0.20105(8) 0.48282(8) 0.28890(9)
N1V N 0.21110(9) 0.29895(8) 0.48282(8)
N1EA N 0.29895(8) 0.01718(8) 0.28890(9)
N1GA N 0.28890(9) 0.20105(8) 0.48282(8)
N1PA N 0.29895(8) 0.48282(8) 0.21110(9)
N1UA N 0.28890(9) 0.29895(8) 0.01718(8)
N1Z N 0.48282(8) 0.21110(9) 0.29895(8)
N1KA N 0.48282(8) 0.28890(9) 0.20105(8)
C1D C 0.23900(12) -0.02933(8) 0.22025(11)
C1H C 0.22025(11) 0.23900(12) -0.02933(8)
C1O C -0.02933(8) 0.27975(11) 0.26100(12)
C1Q C 0.23900(12) 0.52933(8) 0.27975(11)
C1V C 0.22025(11) 0.26100(12) 0.52933(8)
C1EA C 0.26100(12) -0.02933(8) 0.27975(11)
C1GA C 0.27975(11) 0.23900(12) 0.52933(8)
C1PA C 0.26100(12) 0.52933(8) 0.22025(11)
C1UA C 0.27975(11) 0.26100(12) -0.02933(8)
C1Z C 0.52933(8) 0.22025(11) 0.26100(12)
C1KA C 0.52933(8) 0.27975(11) 0.23900(12)
H1D H 0.2711 -0.0264 0.1937
H1H H 0.1937 0.2711 -0.0264
H1O H -0.0264 0.3063 0.2289
H1Q H 0.2711 0.5264 0.3063
H1V H 0.1937 0.2289 0.5264
H1EA H 0.2289 -0.0264 0.3063
H1GA H 0.3063 0.2711 0.5264
H1PA H 0.2289 0.5264 0.1937
H1UA H 0.3063 0.2289 -0.0264
H1Z H 0.5264 0.1937 0.2289
H1KA H 0.5264 0.3063 0.2711
C2D C 0.21375(16) -0.08723(11) 0.21615(18)
C2H C 0.21615(18) 0.21375(16) -0.08723(11)
C2O C -0.08723(11) 0.28385(18) 0.28625(16)
C2Q C 0.21375(16) 0.58723(11) 0.28385(18)
C2V C 0.21615(18) 0.28625(16) 0.58723(11)
C2EA C 0.28625(16) -0.08723(11) 0.28385(18)
C2GA C 0.28385(18) 0.21375(16) 0.58723(11)
C2PA C 0.28625(16) 0.58723(11) 0.21615(18)
C2UA C 0.28385(18) 0.28625(16) -0.08723(11)
C2Z C 0.58723(11) 0.21615(18) 0.28625(16)
C2KA C 0.58723(11) 0.28385(18) 0.21375(16)
H2D H 0.2118 -0.0987 0.1765
H2H H 0.1765 0.2118 -0.0987
H2O H -0.0987 0.3235 0.2882
H2Q H 0.2118 0.5987 0.3235
H2V H 0.1765 0.2882 0.5987
H2EA H 0.2882 -0.0987 0.3235
H2GA H 0.3235 0.2118 0.5987
H2PA H 0.2882 0.5987 0.1765
H2UA H 0.3235 0.2882 -0.0987
H2Z H 0.5987 0.1765 0.2882
H2KA H 0.5987 0.3235 0.2118
H3D H 0.1753 -0.0866 0.2312
H3H H 0.2312 0.1753 -0.0866
H3O H -0.0866 0.2688 0.3247
H3Q H 0.1753 0.5866 0.2688
H3V H 0.2312 0.3247 0.5866
H3EA H 0.3247 -0.0866 0.2688
H3GA H 0.2688 0.1753 0.5866
H3PA H 0.3247 0.5866 0.2312
H3UA H 0.2688 0.3247 -0.0866
H3Z H 0.5866 0.2312 0.3247
H3KA H 0.5866 0.2688 0.1753
C5D C 0.2500 -0.13083(15) 0.2500
C5H C 0.2500 0.2500 -0.13083(15)
C5Q C 0.2500 0.63083(15) 0.2500
C5V C 0.2500 0.2500 0.63083(15)
C5Z C 0.63083(15) 0.2500 0.2500
H8D H 0.2731 -0.1546 0.2253
H8H H 0.2253 0.2731 -0.1546
H8O H -0.1546 0.2747 0.2269
H8Q H 0.2731 0.6546 0.2747
H8V H 0.2253 0.2269 0.6546
H8EA H 0.2269 -0.1546 0.2747
H8GA H 0.2747 0.2731 0.6546
H8PA H 0.2269 0.6546 0.2253
H8UA H 0.2747 0.2269 -0.1546
H8Z H 0.6546 0.2253 0.2269
H8KA H 0.6546 0.2747 0.2731
C6D C 0.21372(10) 0.05117(9) 0.17296(10)
C6H C 0.17296(10) 0.21372(10) 0.05117(9)
C6O C 0.05117(9) 0.32704(10) 0.28628(10)
C6Q C 0.21372(10) 0.44883(9) 0.32704(10)
C6V C 0.17296(10) 0.28628(10) 0.44883(9)
C6EA C 0.28628(10) 0.05117(9) 0.32704(10)
C6GA C 0.32704(10) 0.21372(10) 0.44883(9)
C6PA C 0.28628(10) 0.44883(9) 0.17296(10)
C6UA C 0.32704(10) 0.28628(10) 0.05117(9)
C6Z C 0.44883(9) 0.17296(10) 0.28628(10)
C6KA C 0.44883(9) 0.32704(10) 0.21372(10)
H9D H 0.2466 0.0448 0.1518
H9H H 0.1518 0.2466 0.0448
H9O H 0.0448 0.3482 0.2534
H9Q H 0.2466 0.4552 0.3482
H9V H 0.1518 0.2534 0.4552
H9EA H 0.2534 0.0448 0.3482
H9GA H 0.3482 0.2466 0.4552
H9PA H 0.2534 0.4552 0.1518
H9UA H 0.3482 0.2534 0.0448
H9Z H 0.4552 0.1518 0.2534
H9KA H 0.4552 0.3482 0.2466
C7D C 0.17933(11) 0.10024(11) 0.16018(11)
C7H C 0.16018(11) 0.17933(11) 0.10024(11)
C7O C 0.10024(11) 0.33982(11) 0.32067(11)
C7Q C 0.17933(11) 0.39976(11) 0.33982(11)
C7V C 0.16018(11) 0.32067(11) 0.39976(11)
C7EA C 0.32067(11) 0.10024(11) 0.33982(11)
C7GA C 0.33982(11) 0.17933(11) 0.39976(11)
C7PA C 0.32067(11) 0.39976(11) 0.16018(11)
C7UA C 0.33982(11) 0.32067(11) 0.10024(11)
C7Z C 0.39976(11) 0.16018(11) 0.32067(11)
C7KA C 0.39976(11) 0.33982(11) 0.17933(11)
C8D C 0.19261(11) 0.13310(11) 0.11441(11)
C8H C 0.11441(11) 0.19261(11) 0.13310(11)
C8O C 0.13310(11) 0.38559(11) 0.30739(11)
C8Q C 0.19261(11) 0.36690(11) 0.38559(11)
C8V C 0.11441(11) 0.30739(11) 0.36690(11)
C8EA C 0.30739(11) 0.13310(11) 0.38559(11)
C8GA C 0.38559(11) 0.19261(11) 0.36690(11)
C8PA C 0.30739(11) 0.36690(11) 0.11441(11)
C8UA C 0.38559(11) 0.30739(11) 0.13310(11)
C8Z C 0.36690(11) 0.11441(11) 0.30739(11)
C8KA C 0.36690(11) 0.38559(11) 0.19261(11)
H10D H 0.2243 0.1240 0.0924
H10H H 0.0924 0.2243 0.1240
H10O H 0.1240 0.4076 0.2757
H10Q H 0.2243 0.3760 0.4076
H10V H 0.0924 0.2757 0.3760
H10EA H 0.2757 0.1240 0.4076
H10GA H 0.4076 0.2243 0.3760
H10PA H 0.2757 0.3760 0.0924
H10UA H 0.4076 0.2757 0.1240
H10Z H 0.3760 0.0924 0.2757
H10KA H 0.3760 0.4076 0.2243
C3? C -0.0754(4) 0.3070(5) 0.3094(5)
H4? H -0.0749 0.2859 0.3449
H5? H -0.0683 0.3470 0.3168
C4? C -0.1304(4) 0.2978(3) 0.2764(3)
H6? H -0.1623 0.2990 0.3027
H7? H -0.1352 0.3285 0.2491
loop_
_geom_bond_atom_site_label_1
_geom_bond_atom_site_label_2
_geom_bond_site_symmetry_1
_geom_bond_site_symmetry_2
N1 C1 1_555 1_555
C1 H1 1_555 1_555
C2 C1 1_555 1_555
H2 C2 1_555 1_555
H3 C2 1_555 1_555
C5 C2 1_555 1_555
H8 C5 1_555 1_555
C6 N1 1_555 1_555
H9 C6 1_555 1_555
C7 C6 1_555 1_555
C8 C7 1_555 1_555
H10 C8 1_555 1_555
N2 C9 1_555 1_555
C9 H11 1_555 1_555
H12 C9 1_555 1_555
C10 N2 1_555 1_555
H13 C10 1_555 1_555
C11 C10 1_555 1_555
C12 C11 1_555 1_555
H14 C12 1_555 1_555
N1D C1D 1_555 1_555
N1H C1H 1_555 1_555
N1O C1O 1_555 1_555
N1Q C1Q 1_555 1_555
N1V C1V 1_555 1_555
N1EA C1EA 1_555 1_555
N1GA C1GA 1_555 1_555
N1PA C1PA 1_555 1_555
N1UA C1UA 1_555 1_555
N1Z C1Z 1_555 1_555
N1KA C1KA 1_555 1_555
C1D C1EA 1_555 1_555
C1H C1UA 1_555 1_555
C1O C1 1_555 1_555
C1Q C1PA 1_555 1_555
C1V C1GA 1_555 1_555
C1EA H1EA 1_555 1_555
C1GA H1GA 1_555 1_555
C1PA H1PA 1_555 1_555
C1UA H1UA 1_555 1_555
C1Z C1KA 1_555 1_555
C1KA H1KA 1_555 1_555
H1D C1D 1_555 1_555
H1H C1H 1_555 1_555
H1O C1O 1_555 1_555
H1Q C1Q 1_555 1_555
H1V C1V 1_555 1_555
H1Z C1Z 1_555 1_555
C2D C1D 1_555 1_555
C2H C1H 1_555 1_555
C2O C5 1_555 1_555
C2Q C1Q 1_555 1_555
C2V C1V 1_555 1_555
C2EA C1EA 1_555 1_555
C2GA C1GA 1_555 1_555
C2PA C1PA 1_555 1_555
C2UA C1UA 1_555 1_555
C2Z C1Z 1_555 1_555
C2KA C1KA 1_555 1_555
H2D C2D 1_555 1_555
H2H C2H 1_555 1_555
H2O C2O 1_555 1_555
H2Q C2Q 1_555 1_555
H2V C2V 1_555 1_555
H2EA C2EA 1_555 1_555
H2GA C2GA 1_555 1_555
H2PA C2PA 1_555 1_555
H2UA C2UA 1_555 1_555
H2Z C2Z 1_555 1_555
H2KA C2KA 1_555 1_555
H3D C2D 1_555 1_555
H3H C2H 1_555 1_555
H3O C2O 1_555 1_555
H3Q C2Q 1_555 1_555
H3V C2V 1_555 1_555
H3EA C2EA 1_555 1_555
H3GA C2GA 1_555 1_555
H3PA C2PA 1_555 1_555
H3UA C2UA 1_555 1_555
H3Z C2Z 1_555 1_555
H3KA C2KA 1_555 1_555
C5D C2D 1_555 1_555
C5H C2H 1_555 1_555
C5Q C2Q 1_555 1_555
C5V C2V 1_555 1_555
C5Z C2Z 1_555 1_555
H8D C5D 1_555 1_555
H8H C5H 1_555 1_555
H8O C5 1_555 1_555
H8Q C5Q 1_555 1_555
H8V C5V 1_555 1_555
H8EA C5D 1_555 1_555
H8GA C5V 1_555 1_555
H8PA C5Q 1_555 1_555
H8UA C5H 1_555 1_555
H8Z C5Z 1_555 1_555
H8KA C5Z 1_555 1_555
C6D N1D 1_555 1_555
C6H N1H 1_555 1_555
C6O N1O 1_555 1_555
C6Q N1Q 1_555 1_555
C6V N1V 1_555 1_555
C6EA N1EA 1_555 1_555
C6GA N1GA 1_555 1_555
C6PA N1PA 1_555 1_555
C6UA N1UA 1_555 1_555
C6Z N1Z 1_555 1_555
C6KA N1KA 1_555 1_555
H9D C6D 1_555 1_555
H9H C6H 1_555 1_555
H9O C6O 1_555 1_555
H9Q C6Q 1_555 1_555
H9V C6V 1_555 1_555
H9EA C6EA 1_555 1_555
H9GA C6GA 1_555 1_555
H9PA C6PA 1_555 1_555
H9UA C6UA 1_555 1_555
H9Z C6Z 1_555 1_555
H9KA C6KA 1_555 1_555
C7D C8 1_555 1_555
C7H C6H 1_555 1_555
C7O C6O 1_555 1_555
C7Q C6Q 1_555 1_555
C7V C6V 1_555 1_555
C7EA C6EA 1_555 1_555
C7GA C6GA 1_555 1_555
C7PA C6PA 1_555 1_555
C7UA C6UA 1_555 1_555
C7Z C6Z 1_555 1_555
C7KA C6KA 1_555 1_555
C8D C7D 1_555 1_555
C8H C7 1_555 1_555
C8O C7O 1_555 1_555
C8Q C7Q 1_555 1_555
C8V C7O 1_555 1_555
C8EA C7EA 1_555 1_555
C8GA C7GA 1_555 1_555
C8PA C7PA 1_555 1_555
C8UA C7UA 1_555 1_555
C8Z C7EA 1_555 1_555
C8KA C7PA 1_555 1_555
H10D C8D 1_555 1_555
H10H C8H 1_555 1_555
H10O C8O 1_555 1_555
H10Q C8Q 1_555 1_555
H10V C8V 1_555 1_555
H10EA C8EA 1_555 1_555
H10GA C8GA 1_555 1_555
H10PA C8PA 1_555 1_555
H10UA C8UA 1_555 1_555
H10Z C8Z 1_555 1_555
H10KA C8KA 1_555 1_555
N2B C9B 1_555 1_555
N2FA C9FA 1_555 1_555
N2NA C9NA 1_555 1_555
N2GA C9GA 1_555 1_555
N2HA C9HA 1_555 1_555
N2IA C9IA 1_555 1_555
N2OA C9OA 1_555 1_555
N2PA C9PA 1_555 1_555
N2QA C9QA 1_555 1_555
N2A C9A 1_555 1_555
N2C C9C 1_555 1_555
C9B C9 1_555 1_555
C9FA C9HA 1_555 1_555
C9NA C9PA 1_555 1_555
C9GA C9IA 1_555 1_555
C9HA H11HA 1_555 1_555
C9IA H11IA 1_555 1_555
C9OA C9QA 1_555 1_555
C9PA H11PA 1_555 1_555
C9QA H11QA 1_555 1_555
C9A C9C 1_555 1_555
C9C H11C 1_555 1_555
H11B C9B 1_555 1_555
H11FA C9FA 1_555 1_555
H11NA C9NA 1_555 1_555
H11GA C9GA 1_555 1_555
H11OA C9OA 1_555 1_555
H11A C9A 1_555 1_555
H12B C9B 1_555 1_555
H12FA C9FA 1_555 1_555
H12NA C9NA 1_555 1_555
H12GA C9GA 1_555 1_555
H12HA C9HA 1_555 1_555
H12IA C9IA 1_555 1_555
H12OA C9OA 1_555 1_555
H12PA C9PA 1_555 1_555
H12QA C9QA 1_555 1_555
H12A C9A 1_555 1_555
H12C C9C 1_555 1_555
C10B N2B 1_555 1_555
C10FA N2FA 1_555 1_555
C10NA N2NA 1_555 1_555
C10GA N2GA 1_555 1_555
C10HA N2HA 1_555 1_555
C10IA N2IA 1_555 1_555
C10OA N2OA 1_555 1_555
C10PA N2PA 1_555 1_555
C10QA N2QA 1_555 1_555
C10A N2A 1_555 1_555
C10C N2C 1_555 1_555
H13B C10B 1_555 1_555
H13FA C10FA 1_555 1_555
H13NA C10NA 1_555 1_555
H13GA C10GA 1_555 1_555
H13HA C10HA 1_555 1_555
H13IA C10IA 1_555 1_555
H13OA C10OA 1_555 1_555
H13PA C10PA 1_555 1_555
H13QA C10QA 1_555 1_555
H13A C10A 1_555 1_555
H13C C10C 1_555 1_555
C11B C10B 1_555 1_555
C11FA C12 1_555 1_555
C11NA C10NA 1_555 1_555
C11GA C10GA 1_555 1_555
C11HA C10HA 1_555 1_555
C11IA C10IA 1_555 1_555
C11OA C10OA 1_555 1_555
C11PA C10PA 1_555 1_555
C11QA C10QA 1_555 1_555
C11A C10A 1_555 1_555
C11C C10C 1_555 1_555
C12B C11B 1_555 1_555
C12FA C11FA 1_555 1_555
C12NA C11 1_555 1_555
C12GA C11GA 1_555 1_555
C12HA C11HA 1_555 1_555
C12IA C11IA 1_555 1_555
C12OA C11OA 1_555 1_555
C12PA C11PA 1_555 1_555
C12QA C11B 1_555 1_555
C12A C11IA 1_555 1_555
C12C C11HA 1_555 1_555
H14B C12B 1_555 1_555
H14FA C12FA 1_555 1_555
H14NA C12NA 1_555 1_555
H14GA C12GA 1_555 1_555
H14HA C12HA 1_555 1_555
H14IA C12IA 1_555 1_555
H14OA C12OA 1_555 1_555
H14PA C12PA 1_555 1_555
H14QA C12QA 1_555 1_555
H14A C12A 1_555 1_555
H14C C12C 1_555 1_555
C1O C2O 1_555 1_555
C2EA C5D 1_555 1_555
C2GA C5V 1_555 1_555
C2PA C5Q 1_555 1_555
C2UA C5H 1_555 1_555
C2KA C5Z 1_555 1_555
C6D C7D 1_555 1_555
C7H C8D 1_555 1_555
C7H C8H 1_555 1_555
C7Q C8O 1_555 1_555
C7V C8Q 1_555 1_555
C7V C8V 1_555 1_555
C7GA C8EA 1_555 1_555
C7UA C8PA 1_555 1_555
C7Z C8GA 1_555 1_555
C7Z C8Z 1_555 1_555
C7KA C8UA 1_555 1_555
C7KA C8KA 1_555 1_555
C10FA C11FA 1_555 1_555
C11NA C12FA 1_555 1_555
C11NA C12NA 1_555 1_555
C11GA C12B 1_555 1_555
C11OA C12HA 1_555 1_555
C11PA C12IA 1_555 1_555
C11QA C12GA 1_555 1_555
C11QA C12QA 1_555 1_555
C11A C12PA 1_555 1_555
C11A C12A 1_555 1_555
C11C C12OA 1_555 1_555
C11C C12C 1_555 1_555

#END
