
#######################################################################
#
#                 Cambridge Crystallographic Data Centre
#                                CCDC 
#
#######################################################################
#
# If this CIF has been generated from an entry in the Cambridge 
# Structural Database, then it will include bibliographic, chemical, 
# crystal, experimental, refinement or atomic coordinate data resulting 
# from the CCDC's data processing and validation procedures.
#
#######################################################################

data_LEJPIB
_chemical_formula_moiety         'C48 H48 N12,C66 H72 N12,1.5(N2)'
_chemical_name_systematic        
'3,6,10,13,17,20,24,27,30,33,36,39-Dodeca-aza-1,8,15,22(1,3,5)-tetrabenzenatricyclo[13.13.6.6^8,22^]tetracontaphane-2,6,9,13,16,20,24,27,29,33,35,39-dodecaene (R)-3,5,9,11,15,17,21,23,26,28,31,33-dodeca-aza-1,7,13,19(1,3,5)-tetrabenzena-4,10,16,22,27,32(1,2)-hexacyclopentanatricyclo[11.11.5.5^7,19^]tetratriacontaphane-2,5,8,11,14,17 20,23,25,28,30,33-dodecaene dinitrogen'
_symmetry_cell_setting           cubic
_symmetry_space_group_name_H-M   'F 2 3'
_symmetry_Int_Tables_number      196
_space_group_name_Hall           'F 2 2 3'
loop_
_symmetry_equiv_pos_site_id
_symmetry_equiv_pos_as_xyz
1 x,y,z
2 -x,-y,z
3 -x,y,-z
4 x,-y,-z
5 z,x,y
6 z,-x,-y
7 -z,-x,y
8 -z,x,-y
9 y,z,x
10 -y,z,-x
11 y,-z,-x
12 -y,-z,x
13 x,1/2+y,1/2+z
14 -x,1/2-y,1/2+z
15 -x,1/2+y,1/2-z
16 x,1/2-y,1/2-z
17 z,1/2+x,1/2+y
18 z,1/2-x,1/2-y
19 -z,1/2-x,1/2+y
20 -z,1/2+x,1/2-y
21 y,1/2+z,1/2+x
22 -y,1/2+z,1/2-x
23 y,1/2-z,1/2-x
24 -y,1/2-z,1/2+x
25 1/2+x,y,1/2+z
26 1/2-x,-y,1/2+z
27 1/2-x,y,1/2-z
28 1/2+x,-y,1/2-z
29 1/2+z,x,1/2+y
30 1/2+z,-x,1/2-y
31 1/2-z,-x,1/2+y
32 1/2-z,x,1/2-y
33 1/2+y,z,1/2+x
34 1/2-y,z,1/2-x
35 1/2+y,-z,1/2-x
36 1/2-y,-z,1/2+x
37 1/2+x,1/2+y,z
38 1/2-x,1/2-y,z
39 1/2-x,1/2+y,-z
40 1/2+x,1/2-y,-z
41 1/2+z,1/2+x,y
42 1/2+z,1/2-x,-y
43 1/2-z,1/2-x,y
44 1/2-z,1/2+x,-y
45 1/2+y,1/2+z,x
46 1/2-y,1/2+z,-x
47 1/2+y,1/2-z,-x
48 1/2-y,1/2-z,x
_cell_length_a                   23.5795(6)
_cell_length_b                   23.5795(6)
_cell_length_c                   23.5795(6)
_cell_angle_alpha                90
_cell_angle_beta                 90
_cell_angle_gamma                90
_cell_volume                     13110
_exptl_crystal_colour            colorless
_exptl_crystal_description       'truncated tetrahedron'
_cell_formula_units_Z            4
loop_
_atom_site_label
_atom_site_type_symbol
_atom_site_fract_x
_atom_site_fract_y
_atom_site_fract_z
N2 N 0.55066(5) -0.23541(5) -0.03471(6)
C7 C 0.51472(7) -0.28525(6) -0.02848(7)
H10 H 0.5381 -0.3199 -0.0321
H11 H 0.4860 -0.2857 -0.0591
C8 C 0.53737(7) -0.20146(6) -0.07423(6)
H12 H 0.5049 -0.2098 -0.0965
C9 C 0.56988(6) -0.14972(5) -0.08724(6)
C10 C 0.61741(6) -0.13395(6) -0.05485(6)
H13 H 0.6275 -0.1555 -0.0224
N2B N 0.44934(5) -0.23541(5) 0.03471(6)
N2FA N 0.26459(5) -0.03471(6) 0.05066(5)
N2HA N 0.26459(5) 0.03471(6) -0.05066(5)
N2NA N 0.46529(6) 0.05066(5) -0.23541(5)
N2PA N 0.53471(6) -0.05066(5) -0.23541(5)
N2GA N 0.73541(5) -0.03471(6) -0.05066(5)
N2IA N 0.73541(5) 0.03471(6) 0.05066(5)
N2QA N 0.53471(6) 0.05066(5) 0.23541(5)
N2OA N 0.46529(6) -0.05066(5) 0.23541(5)
N2C N 0.55066(5) 0.23541(5) 0.03471(6)
N2A N 0.44934(5) 0.23541(5) -0.03471(6)
C7B C 0.48528(7) -0.28525(6) 0.02848(7)
C7FA C 0.21475(6) -0.02848(7) 0.01472(7)
C7HA C 0.21475(6) 0.02848(7) -0.01472(7)
C7NA C 0.47152(7) 0.01472(7) -0.28525(6)
C7PA C 0.52848(7) -0.01472(7) -0.28525(6)
C7GA C 0.78525(6) -0.02848(7) -0.01472(7)
C7IA C 0.78525(6) 0.02848(7) 0.01472(7)
C7QA C 0.52848(7) 0.01472(7) 0.28525(6)
C7OA C 0.47152(7) -0.01472(7) 0.28525(6)
C7C C 0.51472(7) 0.28525(6) 0.02848(7)
C7A C 0.48528(7) 0.28525(6) -0.02848(7)
H10OA H 0.4679 -0.0381 0.3199
H10QA H 0.5321 0.0381 0.3199
H10A H 0.4619 0.3199 -0.0321
H10C H 0.5381 0.3199 0.0321
H10IA H 0.8199 0.0321 0.0381
H10GA H 0.8199 -0.0321 -0.0381
H10PA H 0.5321 -0.0381 -0.3199
H10NA H 0.4679 0.0381 -0.3199
H10HA H 0.1801 0.0321 -0.0381
H10FA H 0.1801 -0.0321 0.0381
H10B H 0.4619 -0.3199 0.0321
H11OA H 0.4409 0.0140 0.2857
H11QA H 0.5591 -0.0140 0.2857
H11A H 0.5140 0.2857 -0.0591
H11C H 0.4860 0.2857 0.0591
H11IA H 0.7857 0.0591 -0.0140
H11GA H 0.7857 -0.0591 0.0140
H11PA H 0.5591 0.0140 -0.2857
H11NA H 0.4409 -0.0140 -0.2857
H11HA H 0.2143 0.0591 0.0140
H11FA H 0.2143 -0.0591 -0.0140
H11B H 0.5140 -0.2857 0.0591
C8B C 0.46263(7) -0.20146(6) 0.07423(6)
C8FA C 0.29854(6) -0.07423(6) 0.03737(7)
C8HA C 0.29854(6) 0.07423(6) -0.03737(7)
C8NA C 0.42577(6) 0.03737(7) -0.20146(6)
C8PA C 0.57423(6) -0.03737(7) -0.20146(6)
C8GA C 0.70146(6) -0.07423(6) -0.03737(7)
C8IA C 0.70146(6) 0.07423(6) 0.03737(7)
C8QA C 0.57423(6) 0.03737(7) 0.20146(6)
C8OA C 0.42577(6) -0.03737(7) 0.20146(6)
C8C C 0.53737(7) 0.20146(6) 0.07423(6)
C8A C 0.46263(7) 0.20146(6) -0.07423(6)
H12B H 0.4951 -0.2098 0.0965
H12HA H 0.2902 0.0965 -0.0049
H12PA H 0.5965 -0.0049 -0.2098
H12IA H 0.7098 0.0965 0.0049
H12OA H 0.4035 -0.0049 0.2098
H12QA H 0.5965 0.0049 0.2098
H12A H 0.4951 0.2098 -0.0965
H12C H 0.5049 0.2098 0.0965
H12GA H 0.7098 -0.0965 -0.0049
H12NA H 0.4035 0.0049 -0.2098
H12FA H 0.2902 -0.0965 0.0049
C9B C 0.43012(6) -0.14972(5) 0.08724(6)
C9FA C 0.35028(5) -0.08724(6) 0.06988(6)
C9HA C 0.35028(5) 0.08724(6) -0.06988(6)
C9NA C 0.41276(6) 0.06988(6) -0.14972(5)
C9PA C 0.58724(6) -0.06988(6) -0.14972(5)
C9GA C 0.64972(5) -0.08724(6) -0.06988(6)
C9IA C 0.64972(5) 0.08724(6) 0.06988(6)
C9QA C 0.58724(6) 0.06988(6) 0.14972(5)
C9OA C 0.41276(6) -0.06988(6) 0.14972(5)
C9C C 0.56988(6) 0.14972(5) 0.08724(6)
C9A C 0.43012(6) 0.14972(5) -0.08724(6)
C10B C 0.38259(6) -0.13395(6) 0.05485(6)
C10HA C 0.36605(6) 0.05485(6) -0.11741(6)
C10PA C 0.55485(6) -0.11741(6) -0.13395(6)
C10IA C 0.63395(6) 0.05485(6) 0.11741(6)
C10OA C 0.44515(6) -0.11741(6) 0.13395(6)
C10FA C 0.36605(6) -0.05485(6) 0.11741(6)
C10QA C 0.55485(6) 0.11741(6) 0.13395(6)
C10A C 0.38259(6) 0.13395(6) -0.05485(6)
C10NA C 0.44515(6) 0.11741(6) -0.13395(6)
C10C C 0.61741(6) 0.13395(6) 0.05485(6)
C10GA C 0.63395(6) -0.05485(6) -0.11741(6)
H13OA H 0.4776 -0.1275 0.1555
H13FA H 0.3445 -0.0224 0.1275
H13A H 0.3725 0.1555 -0.0224
H13NA H 0.4776 0.1275 -0.1555
H13C H 0.6275 0.1555 0.0224
H13QA H 0.5224 0.1275 0.1555
H13IA H 0.6555 0.0224 0.1275
H13GA H 0.6555 -0.0224 -0.1275
H13PA H 0.5224 -0.1275 -0.1555
H13HA H 0.3445 0.0224 -0.1275
H13B H 0.3725 -0.1555 0.0224
N3 N 0.2500 0.2500 0.2500
N4 N 0.5000 0.0000 0.0000
N5 N 0.3740(10) 0.1260(10) 0.1260(10)
N1 N 0.48799(4) 0.28927(4) 0.19913(4)
C1 C 0.53447(5) 0.28006(6) 0.23824(6)
H1 H 0.5316 0.3077 0.2703
C2 C 0.59312(5) 0.28481(8) 0.21104(8)
H4 H 0.6033(17) 0.3239(6) 0.1995(17)
H5 H 0.5954(17) 0.2620(13) 0.1759(9)
C3 C 0.63138(9) 0.26256(18) 0.25980(19)
C4 C 0.45257(5) 0.32754(5) 0.21236(6)
H8 H 0.4587 0.3486 0.2462
C5 C 0.40247(5) 0.34085(5) 0.17784(5)
C6 C 0.36937(5) 0.38761(5) 0.19184(6)
H9 H 0.3790 0.4098 0.2241
N1O N 0.48799(4) 0.21073(4) 0.30087(4)
N1PA N 0.30087(4) 0.01201(4) 0.28927(4)
N1Q N 0.19913(4) 0.01201(4) 0.21073(4)
N1GA N 0.21073(4) 0.19913(4) 0.01201(4)
N1V N 0.28927(4) 0.30087(4) 0.01201(4)
N1EA N 0.30087(4) 0.48799(4) 0.21073(4)
N1D N 0.19913(4) 0.48799(4) 0.28927(4)
N1UA N 0.21073(4) 0.30087(4) 0.48799(4)
N1H N 0.28927(4) 0.19913(4) 0.48799(4)
N1Z N 0.01201(4) 0.28927(4) 0.30087(4)
N1KA N 0.01201(4) 0.21073(4) 0.19913(4)
C1O C 0.53447(5) 0.21994(6) 0.26176(6)
C1PA C 0.26176(6) -0.03447(5) 0.28006(6)
C1Q C 0.23824(6) -0.03447(5) 0.21994(6)
C1GA C 0.21994(6) 0.23824(6) -0.03447(5)
C1V C 0.28006(6) 0.26176(6) -0.03447(5)
C1EA C 0.26176(6) 0.53447(5) 0.21994(6)
C1D C 0.23824(6) 0.53447(5) 0.28006(6)
C1UA C 0.21994(6) 0.26176(6) 0.53447(5)
C1H C 0.28006(6) 0.23824(6) 0.53447(5)
C1Z C -0.03447(5) 0.28006(6) 0.26176(6)
C1KA C -0.03447(5) 0.21994(6) 0.23824(6)
H1H H 0.3077 0.2703 0.5316
H1UA H 0.1923 0.2297 0.5316
H1KA H -0.0316 0.1923 0.2703
H1Z H -0.0316 0.3077 0.2297
H1D H 0.2703 0.5316 0.3077
H1EA H 0.2297 0.5316 0.1923
H1V H 0.3077 0.2297 -0.0316
H1GA H 0.1923 0.2703 -0.0316
H1Q H 0.2703 -0.0316 0.1923
H1PA H 0.2297 -0.0316 0.3077
H1O H 0.5316 0.1923 0.2297
C2H C 0.28481(8) 0.21104(8) 0.59312(5)
C2UA C 0.21519(8) 0.28896(8) 0.59312(5)
C2KA C -0.09312(5) 0.21519(8) 0.21104(8)
C2Z C -0.09312(5) 0.28481(8) 0.28896(8)
C2D C 0.21104(8) 0.59312(5) 0.28481(8)
C2EA C 0.28896(8) 0.59312(5) 0.21519(8)
C2V C 0.28481(8) 0.28896(8) -0.09312(5)
C2GA C 0.21519(8) 0.21104(8) -0.09312(5)
C2Q C 0.21104(8) -0.09312(5) 0.21519(8)
C2PA C 0.28896(8) -0.09312(5) 0.28481(8)
C2O C 0.59312(5) 0.21519(8) 0.28896(8)
H4H H 0.3239(6) 0.1995(17) 0.6033(17)
H4UA H 0.1761(6) 0.3005(17) 0.6033(17)
H4KA H -0.1033(17) 0.1761(6) 0.1995(17)
H4Z H -0.1033(17) 0.3239(6) 0.3005(17)
H4D H 0.1995(17) 0.6033(17) 0.3239(6)
H4EA H 0.3005(17) 0.6033(17) 0.1761(6)
H4V H 0.3239(6) 0.3005(17) -0.1033(17)
H4GA H 0.1761(6) 0.1995(17) -0.1033(17)
H4Q H 0.1995(17) -0.1033(17) 0.1761(6)
H4PA H 0.3005(17) -0.1033(17) 0.3239(6)
H4O H 0.6033(17) 0.1761(6) 0.3005(17)
H5H H 0.2620(13) 0.1759(9) 0.5954(17)
H5UA H 0.2380(13) 0.3241(9) 0.5954(17)
H5KA H -0.0954(17) 0.2380(13) 0.1759(9)
H5Z H -0.0954(17) 0.2620(13) 0.3241(9)
H5D H 0.1759(9) 0.5954(17) 0.2620(13)
H5EA H 0.3241(9) 0.5954(17) 0.2380(13)
H5V H 0.2620(13) 0.3241(9) -0.0954(17)
H5GA H 0.2380(13) 0.1759(9) -0.0954(17)
H5Q H 0.1759(9) -0.0954(17) 0.2380(13)
H5PA H 0.3241(9) -0.0954(17) 0.2620(13)
H5O H 0.5954(17) 0.2380(13) 0.3241(9)
C3H C 0.26256(18) 0.25980(19) 0.63138(9)
C3UA C 0.23744(18) 0.24020(19) 0.63138(9)
C3KA C -0.13138(9) 0.23744(18) 0.25980(19)
C3Z C -0.13138(9) 0.26256(18) 0.24020(19)
C3D C 0.25980(19) 0.63138(9) 0.26256(18)
C3EA C 0.24020(19) 0.63138(9) 0.23744(18)
C3V C 0.26256(18) 0.24020(19) -0.13138(9)
C3GA C 0.23744(18) 0.25980(19) -0.13138(9)
C3Q C 0.25980(19) -0.13138(9) 0.23744(18)
C3PA C 0.24020(19) -0.13138(9) 0.26256(18)
C3O C 0.63138(9) 0.23744(18) 0.24020(19)
C4O C 0.45257(5) 0.17246(5) 0.28764(6)
C4PA C 0.28764(6) 0.04743(5) 0.32754(5)
C4Q C 0.21236(6) 0.04743(5) 0.17246(5)
C4GA C 0.17246(5) 0.21236(6) 0.04743(5)
C4V C 0.32754(5) 0.28764(6) 0.04743(5)
C4EA C 0.28764(6) 0.45257(5) 0.17246(5)
C4D C 0.21236(6) 0.45257(5) 0.32754(5)
C4UA C 0.17246(5) 0.28764(6) 0.45257(5)
C4H C 0.32754(5) 0.21236(6) 0.45257(5)
C4Z C 0.04743(5) 0.32754(5) 0.28764(6)
C4KA C 0.04743(5) 0.17246(5) 0.21236(6)
H8O H 0.4587 0.1514 0.2538
H8Q H 0.2462 0.0413 0.1514
H8V H 0.3486 0.2538 0.0413
H8D H 0.2462 0.4587 0.3486
H8H H 0.3486 0.2462 0.4587
H8UA H 0.1514 0.2538 0.4587
H8KA H 0.0413 0.1514 0.2462
H8Z H 0.0413 0.3486 0.2538
H8EA H 0.2538 0.4587 0.1514
H8GA H 0.1514 0.2462 0.0413
H8PA H 0.2538 0.0413 0.3486
C5O C 0.40247(5) 0.15915(5) 0.32216(5)
C5PA C 0.32216(5) 0.09753(5) 0.34085(5)
C5Q C 0.17784(5) 0.09753(5) 0.15915(5)
C5GA C 0.15915(5) 0.17784(5) 0.09753(5)
C5V C 0.34085(5) 0.32216(5) 0.09753(5)
C5EA C 0.32216(5) 0.40247(5) 0.15915(5)
C5D C 0.17784(5) 0.40247(5) 0.34085(5)
C5UA C 0.15915(5) 0.32216(5) 0.40247(5)
C5H C 0.34085(5) 0.17784(5) 0.40247(5)
C5Z C 0.09753(5) 0.34085(5) 0.32216(5)
C5KA C 0.09753(5) 0.15915(5) 0.17784(5)
C6O C 0.36937(5) 0.11239(5) 0.30816(6)
C6Q C 0.19184(6) 0.13063(5) 0.11239(5)
C6V C 0.38761(5) 0.30816(6) 0.13063(5)
C6D C 0.19184(6) 0.36937(5) 0.38761(5)
C6H C 0.38761(5) 0.19184(6) 0.36937(5)
C6PA C 0.30816(6) 0.13063(5) 0.38761(5)
C6UA C 0.11239(5) 0.30816(6) 0.36937(5)
C6KA C 0.13063(5) 0.11239(5) 0.19184(6)
C6GA C 0.11239(5) 0.19184(6) 0.13063(5)
C6Z C 0.13063(5) 0.38761(5) 0.30816(6)
C6EA C 0.30816(6) 0.36937(5) 0.11239(5)
H9H H 0.4098 0.2241 0.3790
H9PA H 0.2759 0.1210 0.4098
H9KA H 0.1210 0.0902 0.2241
H9GA H 0.0902 0.2241 0.1210
H9Z H 0.1210 0.4098 0.2759
H9UA H 0.0902 0.2759 0.3790
H9D H 0.2241 0.3790 0.4098
H9EA H 0.2759 0.3790 0.0902
H9V H 0.4098 0.2759 0.1210
H9Q H 0.2241 0.1210 0.0902
H9O H 0.3790 0.0902 0.2759
H2? H 0.6093 0.3230 0.2177
H3? H 0.5907 0.2783 0.1696
H6? H 0.6408 0.2932 0.2869
H7? H 0.6670 0.2461 0.2448
loop_
_geom_bond_atom_site_label_1
_geom_bond_atom_site_label_2
_geom_bond_site_symmetry_1
_geom_bond_site_symmetry_2
N1 C1 1_555 1_555
C1 H1 1_555 1_555
C2 C1 1_555 1_555
H4 C2 1_555 1_555
H5 C2 1_555 1_555
C3 C2 1_555 1_555
C4 N1 1_555 1_555
H8 C4 1_555 1_555
C5 C4 1_555 1_555
C6 C5 1_555 1_555
H9 C6 1_555 1_555
N2 C7 1_555 1_555
C7 H10 1_555 1_555
H11 C7 1_555 1_555
C8 N2 1_555 1_555
H12 C8 1_555 1_555
C9 C8 1_555 1_555
C10 C9 1_555 1_555
H13 C10 1_555 1_555
N1O C1O 1_555 1_555
N1PA C1PA 1_555 1_555
N1Q C1Q 1_555 1_555
N1GA C1GA 1_555 1_555
N1V C1V 1_555 1_555
N1EA C1EA 1_555 1_555
N1D C1D 1_555 1_555
N1UA C1UA 1_555 1_555
N1H C1H 1_555 1_555
N1Z C1Z 1_555 1_555
N1KA C1KA 1_555 1_555
C1O C1 1_555 1_555
C1PA C1Q 1_555 1_555
C1Q H1Q 1_555 1_555
C1GA C1V 1_555 1_555
C1V H1V 1_555 1_555
C1EA C1D 1_555 1_555
C1D H1D 1_555 1_555
C1UA C1H 1_555 1_555
C1H H1H 1_555 1_555
C1Z C1KA 1_555 1_555
C1KA H1KA 1_555 1_555
H1UA C1UA 1_555 1_555
H1Z C1Z 1_555 1_555
H1EA C1EA 1_555 1_555
H1GA C1GA 1_555 1_555
H1PA C1PA 1_555 1_555
H1O C1O 1_555 1_555
C2H C1H 1_555 1_555
C2UA C1UA 1_555 1_555
C2KA C1KA 1_555 1_555
C2Z C1Z 1_555 1_555
C2D C1D 1_555 1_555
C2EA C1EA 1_555 1_555
C2V C1V 1_555 1_555
C2GA C1GA 1_555 1_555
C2Q C1Q 1_555 1_555
C2PA C1PA 1_555 1_555
C2O C3 1_555 1_555
H4H C2H 1_555 1_555
H4UA C2UA 1_555 1_555
H4KA C2KA 1_555 1_555
H4Z C2Z 1_555 1_555
H4D C2D 1_555 1_555
H4EA C2EA 1_555 1_555
H4V C2V 1_555 1_555
H4GA C2GA 1_555 1_555
H4Q C2Q 1_555 1_555
H4PA C2PA 1_555 1_555
H4O C2O 1_555 1_555
H5H C2H 1_555 1_555
H5UA C2UA 1_555 1_555
H5KA C2KA 1_555 1_555
H5Z C2Z 1_555 1_555
H5D C2D 1_555 1_555
H5EA C2EA 1_555 1_555
H5V C2V 1_555 1_555
H5GA C2GA 1_555 1_555
H5Q C2Q 1_555 1_555
H5PA C2PA 1_555 1_555
H5O C2O 1_555 1_555
C3H C2H 1_555 1_555
C3UA C2H 1_555 1_555
C3KA C2KA 1_555 1_555
C3Z C2KA 1_555 1_555
C3D C2D 1_555 1_555
C3EA C2D 1_555 1_555
C3V C2V 1_555 1_555
C3GA C2V 1_555 1_555
C3Q C2Q 1_555 1_555
C3PA C2Q 1_555 1_555
C3O C2 1_555 1_555
C4O N1O 1_555 1_555
C4PA N1PA 1_555 1_555
C4Q N1Q 1_555 1_555
C4GA N1GA 1_555 1_555
C4V N1V 1_555 1_555
C4EA N1EA 1_555 1_555
C4D N1D 1_555 1_555
C4UA N1UA 1_555 1_555
C4H N1H 1_555 1_555
C4Z N1Z 1_555 1_555
C4KA N1KA 1_555 1_555
H8O C4O 1_555 1_555
H8Q C4Q 1_555 1_555
H8V C4V 1_555 1_555
H8D C4D 1_555 1_555
H8H C4H 1_555 1_555
H8UA C4UA 1_555 1_555
H8KA C4KA 1_555 1_555
H8Z C4Z 1_555 1_555
H8EA C4EA 1_555 1_555
H8GA C4GA 1_555 1_555
H8PA C4PA 1_555 1_555
C5O C4O 1_555 1_555
C5PA C4PA 1_555 1_555
C5Q C4Q 1_555 1_555
C5GA C4GA 1_555 1_555
C5V C4V 1_555 1_555
C5EA C6 1_555 1_555
C5D C4D 1_555 1_555
C5UA C4UA 1_555 1_555
C5H C4H 1_555 1_555
C5Z C4Z 1_555 1_555
C5KA C4KA 1_555 1_555
C6O C5O 1_555 1_555
C6Q C5Q 1_555 1_555
C6V C5 1_555 1_555
C6D C5D 1_555 1_555
C6H C5O 1_555 1_555
C6PA C5PA 1_555 1_555
C6UA C5UA 1_555 1_555
C6KA C5Q 1_555 1_555
C6GA C5GA 1_555 1_555
C6Z C5D 1_555 1_555
C6EA C5V 1_555 1_555
H9H C6H 1_555 1_555
H9PA C6PA 1_555 1_555
H9KA C6KA 1_555 1_555
H9GA C6GA 1_555 1_555
H9Z C6Z 1_555 1_555
H9UA C6UA 1_555 1_555
H9D C6D 1_555 1_555
H9EA C6EA 1_555 1_555
H9V C6V 1_555 1_555
H9Q C6Q 1_555 1_555
H9O C6O 1_555 1_555
N2B C7B 1_555 1_555
N2FA C7FA 1_555 1_555
N2HA C7HA 1_555 1_555
N2NA C7NA 1_555 1_555
N2PA C7PA 1_555 1_555
N2GA C7GA 1_555 1_555
N2IA C7IA 1_555 1_555
N2QA C7QA 1_555 1_555
N2OA C7OA 1_555 1_555
N2C C7C 1_555 1_555
N2A C7A 1_555 1_555
C7B C7 1_555 1_555
C7FA C7HA 1_555 1_555
C7HA H10HA 1_555 1_555
C7NA C7PA 1_555 1_555
C7PA H10PA 1_555 1_555
C7GA C7IA 1_555 1_555
C7IA H10IA 1_555 1_555
C7QA C7OA 1_555 1_555
C7OA H10OA 1_555 1_555
C7C C7A 1_555 1_555
C7A H10A 1_555 1_555
H10QA C7QA 1_555 1_555
H10C C7C 1_555 1_555
H10GA C7GA 1_555 1_555
H10NA C7NA 1_555 1_555
H10FA C7FA 1_555 1_555
H10B C7B 1_555 1_555
H11OA C7OA 1_555 1_555
H11QA C7QA 1_555 1_555
H11A C7A 1_555 1_555
H11C C7C 1_555 1_555
H11IA C7IA 1_555 1_555
H11GA C7GA 1_555 1_555
H11PA C7PA 1_555 1_555
H11NA C7NA 1_555 1_555
H11HA C7HA 1_555 1_555
H11FA C7FA 1_555 1_555
H11B C7B 1_555 1_555
C8B N2B 1_555 1_555
C8FA N2FA 1_555 1_555
C8HA N2HA 1_555 1_555
C8NA N2NA 1_555 1_555
C8PA N2PA 1_555 1_555
C8GA N2GA 1_555 1_555
C8IA N2IA 1_555 1_555
C8QA N2QA 1_555 1_555
C8OA N2OA 1_555 1_555
C8C N2C 1_555 1_555
C8A N2A 1_555 1_555
H12B C8B 1_555 1_555
H12HA C8HA 1_555 1_555
H12PA C8PA 1_555 1_555
H12IA C8IA 1_555 1_555
H12OA C8OA 1_555 1_555
H12QA C8QA 1_555 1_555
H12A C8A 1_555 1_555
H12C C8C 1_555 1_555
H12GA C8GA 1_555 1_555
H12NA C8NA 1_555 1_555
H12FA C8FA 1_555 1_555
C9B C8B 1_555 1_555
C9FA C8FA 1_555 1_555
C9HA C8HA 1_555 1_555
C9NA C8NA 1_555 1_555
C9PA C8PA 1_555 1_555
C9GA C10 1_555 1_555
C9IA C8IA 1_555 1_555
C9QA C8QA 1_555 1_555
C9OA C8OA 1_555 1_555
C9C C8C 1_555 1_555
C9A C8A 1_555 1_555
C10B C9B 1_555 1_555
C10HA C9HA 1_555 1_555
C10PA C9 1_555 1_555
C10IA C9IA 1_555 1_555
C10OA C9B 1_555 1_555
C10FA C9FA 1_555 1_555
C10QA C9QA 1_555 1_555
C10A C9HA 1_555 1_555
C10NA C9NA 1_555 1_555
C10C C9IA 1_555 1_555
C10GA C9PA 1_555 1_555
H13OA C10OA 1_555 1_555
H13FA C10FA 1_555 1_555
H13A C10A 1_555 1_555
H13NA C10NA 1_555 1_555
H13C C10C 1_555 1_555
H13QA C10QA 1_555 1_555
H13IA C10IA 1_555 1_555
H13GA C10GA 1_555 1_555
H13PA C10PA 1_555 1_555
H13HA C10HA 1_555 1_555
H13B C10B 1_555 1_555
C3 C3O 1_555 1_555
C1O C2O 1_555 1_555
C2UA C3H 1_555 1_555
C2UA C3UA 1_555 1_555
C2Z C3KA 1_555 1_555
C2Z C3Z 1_555 1_555
C2EA C3D 1_555 1_555
C2EA C3EA 1_555 1_555
C2GA C3V 1_555 1_555
C2GA C3GA 1_555 1_555
C2PA C3Q 1_555 1_555
C2PA C3PA 1_555 1_555
C2O C3O 1_555 1_555
C3H C3UA 1_555 1_555
C3KA C3Z 1_555 1_555
C3D C3EA 1_555 1_555
C3V C3GA 1_555 1_555
C3Q C3PA 1_555 1_555
C4EA C5EA 1_555 1_555
C5PA C6O 1_555 1_555
C5GA C6Q 1_555 1_555
C5V C6V 1_555 1_555
C5EA C6EA 1_555 1_555
C5UA C6D 1_555 1_555
C5H C6H 1_555 1_555
C5H C6PA 1_555 1_555
C5Z C6UA 1_555 1_555
C5Z C6Z 1_555 1_555
C5KA C6KA 1_555 1_555
C5KA C6GA 1_555 1_555
C8GA C9GA 1_555 1_555
C9FA C10B 1_555 1_555
C9NA C10HA 1_555 1_555
C9PA C10PA 1_555 1_555
C9GA C10GA 1_555 1_555
C9QA C10IA 1_555 1_555
C9OA C10OA 1_555 1_555
C9OA C10FA 1_555 1_555
C9C C10QA 1_555 1_555
C9C C10C 1_555 1_555
C9A C10A 1_555 1_555
C9A C10NA 1_555 1_555

#END
