
#######################################################################
#
#                 Cambridge Crystallographic Data Centre
#                                CCDC 
#
#######################################################################
#
# If this CIF has been generated from an entry in the Cambridge 
# Structural Database, then it will include bibliographic, chemical, 
# crystal, experimental, refinement or atomic coordinate data resulting 
# from the CCDC's data processing and validation procedures.
#
#######################################################################

data_LEJSUR
_chemical_formula_moiety         'C22 H18 F1 N1 O4 S1'
_chemical_name_systematic        
7a-(4-fluorophenyl)-3-methylene-1-((4-methylphenyl)sulfonyl)-3a,7a-dihydro-1H-indole-2,5(3H,4H)-dione
_symmetry_cell_setting           triclinic
_symmetry_space_group_name_H-M   'P -1'
_symmetry_Int_Tables_number      2
_space_group_name_Hall           '-P 1'
loop_
_symmetry_equiv_pos_site_id
_symmetry_equiv_pos_as_xyz
1 x,y,z
2 -x,-y,-z
_cell_length_a                   9.816(3)
_cell_length_b                   10.298(3)
_cell_length_c                   11.204(3)
_cell_angle_alpha                110.604(3)
_cell_angle_beta                 104.269(4)
_cell_angle_gamma                103.444(5)
_cell_volume                     961.692
_exptl_crystal_colour            colorless
_exptl_crystal_description       Prism
_cell_formula_units_Z            2
loop_
_atom_site_label
_atom_site_type_symbol
_atom_site_fract_x
_atom_site_fract_y
_atom_site_fract_z
S1 S 0.28401(3) 0.72055(3) 0.59621(3)
F1 F 0.54002(9) 0.26679(9) 0.77350(9)
O1 O 0.19685(10) 0.78761(10) 0.53187(9)
O2 O 0.23829(10) 0.56206(9) 0.53947(9)
O3 O 0.33488(11) 1.02336(9) 0.80988(10)
O4 O -0.08908(11) 0.67893(13) 1.00422(11)
N1 N 0.28529(11) 0.77338(10) 0.75696(10)
C1 C 0.47200(13) 0.79403(13) 0.61328(11)
C2 C 0.55991(15) 0.70489(14) 0.60802(12)
H1 H 0.5212 0.6082 0.6018
C3 C 0.70522(15) 0.76017(15) 0.61203(13)
H2 H 0.7657 0.7001 0.6078
C4 C 0.76365(15) 0.90233(15) 0.62219(12)
C5 C 0.67250(14) 0.98877(14) 0.62647(12)
H3 H 0.7107 1.0851 0.6318
C6 C 0.52717(14) 0.93634(13) 0.62311(12)
H4 H 0.4665 0.9964 0.6274
C7 C 0.92300(17) 0.9646(2) 0.63127(17)
H5 H 0.9269 1.0253 0.5808
H6 H 0.9574 0.8830 0.5916
H7 H 0.9881 1.0259 0.7273
C8 C 0.29715(13) 0.91897(13) 0.83593(12)
C9 C 0.25642(13) 0.91648(12) 0.95496(12)
C10 C 0.21226(15) 1.02024(14) 1.02657(13)
H8 H 0.2059 1.0989 1.0025
H9 H 0.1870 1.0159 1.1020
C11 C 0.26635(13) 0.77595(12) 0.96401(11)
H10 H 0.3730 0.7955 1.0169
C12 C 0.16669(13) 0.71173(13) 1.02929(12)
H11 H 0.1888 0.6251 1.0364
H12 H 0.1905 0.7870 1.1230
C13 C 0.00259(14) 0.66465(14) 0.94880(13)
C14 C -0.04156(13) 0.59604(13) 0.79879(13)
H13 H -0.1453 0.5525 0.7437
C15 C 0.05923(13) 0.59299(12) 0.73766(12)
H14 H 0.0231 0.5415 0.6408
C16 C 0.22764(12) 0.66630(12) 0.81277(11)
C17 C 0.30887(13) 0.55555(12) 0.80322(11)
C18 C 0.46551(13) 0.60862(13) 0.85328(13)
H15 H 0.5190 0.7123 0.8935
C19 C 0.54445(14) 0.51183(14) 0.84515(13)
H16 H 0.6511 0.5476 0.8791
C20 C 0.46261(14) 0.36195(14) 0.78606(13)
C21 C 0.30862(14) 0.30483(13) 0.73977(13)
H17 H 0.2564 0.2013 0.7031
C22 C 0.23120(13) 0.40371(13) 0.74825(12)
H18 H 0.1246 0.3671 0.7162
loop_
_geom_bond_atom_site_label_1
_geom_bond_atom_site_label_2
_geom_bond_site_symmetry_1
_geom_bond_site_symmetry_2
S1 O1 1_555 1_555
F1 C20 1_555 1_555
O2 S1 1_555 1_555
O3 C8 1_555 1_555
O4 C13 1_555 1_555
N1 S1 1_555 1_555
C1 S1 1_555 1_555
C2 C1 1_555 1_555
H1 C2 1_555 1_555
C3 C2 1_555 1_555
H2 C3 1_555 1_555
C4 C3 1_555 1_555
C5 C4 1_555 1_555
H3 C5 1_555 1_555
C6 C1 1_555 1_555
H4 C6 1_555 1_555
C7 C4 1_555 1_555
H5 C7 1_555 1_555
H6 C7 1_555 1_555
H7 C7 1_555 1_555
C8 N1 1_555 1_555
C9 C8 1_555 1_555
C10 C9 1_555 1_555
H8 C10 1_555 1_555
H9 C10 1_555 1_555
C11 C9 1_555 1_555
H10 C11 1_555 1_555
C12 C11 1_555 1_555
H11 C12 1_555 1_555
H12 C12 1_555 1_555
C13 C12 1_555 1_555
C14 C13 1_555 1_555
H13 C14 1_555 1_555
C15 C14 1_555 1_555
H14 C15 1_555 1_555
C16 N1 1_555 1_555
C17 C16 1_555 1_555
C18 C17 1_555 1_555
H15 C18 1_555 1_555
C19 C18 1_555 1_555
H16 C19 1_555 1_555
C20 C19 1_555 1_555
C21 C20 1_555 1_555
H17 C21 1_555 1_555
C22 C17 1_555 1_555
H18 C22 1_555 1_555
C5 C6 1_555 1_555
C11 C16 1_555 1_555
C15 C16 1_555 1_555
C21 C22 1_555 1_555

#END
