
#######################################################################
#
#                 Cambridge Crystallographic Data Centre
#                                CCDC 
#
#######################################################################
#
# If this CIF has been generated from an entry in the Cambridge 
# Structural Database, then it will include bibliographic, chemical, 
# crystal, experimental, refinement or atomic coordinate data resulting 
# from the CCDC's data processing and validation procedures.
#
#######################################################################

data_LEJSUQ
_chemical_formula_moiety         'C33 H27 N1 O5'
_chemical_name_systematic        
5-(4-Methoxyphenyl)-9-methyl-3-phenyl-3,4,10a,14b-tetrahydro-7H-pyrano[3',2':2,3]indeno[2,1-c]quinoline-1,6,7(2H,5H)-trione
_symmetry_cell_setting           orthorhombic
_symmetry_space_group_name_H-M   'P n a 21'
_symmetry_Int_Tables_number      33
_space_group_name_Hall           'P 2c -2n'
loop_
_symmetry_equiv_pos_site_id
_symmetry_equiv_pos_as_xyz
1 x,y,z
2 -x,-y,1/2+z
3 1/2+x,1/2-y,z
4 1/2-x,1/2+y,1/2+z
_cell_length_a                   10.3901(11)
_cell_length_b                   26.648(2)
_cell_length_c                   9.8211(7)
_cell_angle_alpha                90
_cell_angle_beta                 90
_cell_angle_gamma                90
_cell_volume                     2719.22
_exptl_crystal_colour            white
_exptl_crystal_description       block
_chemical_melting_point          '179-180 deg.C'
_cell_formula_units_Z            4
loop_
_atom_site_label
_atom_site_type_symbol
_atom_site_fract_x
_atom_site_fract_y
_atom_site_fract_z
N1 N 0.3735(5) 0.63930(19) 0.2366(6)
O1 O 0.7484(4) 0.66661(16) 0.5415(6)
O2 O 0.3554(5) 0.64706(18) 0.5633(6)
O3 O 0.4592(4) 0.71614(15) 0.2883(5)
O4 O 0.5409(5) 0.48700(17) 0.4172(6)
O5 O 0.0834(4) 0.72985(18) -0.1785(6)
C1 C 0.7794(7) 0.6643(3) 0.7805(8)
H1 H 0.8392 0.6370 0.7744
H2 H 0.7333 0.6623 0.8650
H3 H 0.8254 0.6955 0.7765
C2 C 0.6860(8) 0.6616(3) 0.6640(9)
C3 C 0.5584(7) 0.6544(2) 0.6725(9)
H4 H 0.5225 0.6516 0.7588
C4 C 0.4740(7) 0.6509(2) 0.5582(9)
C5 C 0.5412(6) 0.6470(2) 0.4188(8)
C6 C 0.6741(6) 0.6737(3) 0.4153(8)
H5 H 0.6649 0.7094 0.3932
C7 C 0.7447(6) 0.6457(3) 0.3033(8)
C8 C 0.8499(7) 0.6605(3) 0.2253(9)
H6 H 0.8861 0.6922 0.2359
C9 C 0.8995(7) 0.6267(3) 0.1315(9)
H7 H 0.9700 0.6359 0.0787
C10 C 0.8458(7) 0.5796(3) 0.1150(8)
H8 H 0.8816 0.5574 0.0527
C11 C 0.7387(7) 0.5651(3) 0.1907(8)
H9 H 0.7025 0.5336 0.1781
C12 C 0.6858(6) 0.5986(2) 0.2861(8)
C13 C 0.5748(6) 0.5916(2) 0.3847(8)
H10 H 0.6062 0.5749 0.4671
C14 C 0.4599(6) 0.5626(2) 0.3282(7)
C15 C 0.4554(7) 0.5090(2) 0.3551(8)
C16 C 0.352(6) 0.479(2) 0.285(5)
H11 H 0.3340 0.4488 0.3386
H12 H 0.3822 0.4681 0.1965
C17 C 0.228(3) 0.5089(11) 0.269(4)
H13 H 0.1956 0.5150 0.3608
C18 C 0.2504(6) 0.5598(2) 0.2055(8)
H14 H 0.2593 0.5557 0.1078
H15 H 0.1751 0.5804 0.2217
C19 C 0.3665(6) 0.5867(2) 0.2584(7)
C20 C 0.4579(6) 0.6705(2) 0.3092(8)
C21 C 0.2990(7) 0.6627(2) 0.1282(8)
C22 C 0.3212(7) 0.6492(3) -0.0052(9)
H16 H 0.3831 0.6250 -0.0246
C23 C 0.2524(6) 0.6710(3) -0.1111(9)
H17 H 0.2691 0.6621 -0.2009
C24 C 0.1591(7) 0.7062(2) -0.0811(9)
C25 C 0.1365(6) 0.7207(2) 0.0520(10)
H18 H 0.0754 0.7452 0.0710
C26 C 0.2059(6) 0.6985(2) 0.1576(8)
H19 H 0.1899 0.7076 0.2474
C27 C 0.0963(8) 0.7146(3) -0.3172(9)
H20 H 0.1801 0.7237 -0.3500
H21 H 0.0317 0.7310 -0.3712
H22 H 0.0857 0.6789 -0.3235
C28 C 0.1240(7) 0.4784(3) 0.1937(10)
C29 C 0.1264(8) 0.4578(3) 0.0647(11)
H23 H 0.1982 0.4624 0.0093
C30 C 0.0232(10) 0.4307(3) 0.0180(10)
H24 H 0.0266 0.4168 -0.0687
C31 C -0.0838(9) 0.4237(3) 0.0951(13)
H25 H -0.1524 0.4049 0.0618
C32 C -0.0895(8) 0.4447(3) 0.2234(12)
H26 H -0.1624 0.4414 0.2775
C33 C 0.0170(9) 0.4710(3) 0.2686(10)
H27 H 0.0147 0.4843 0.3561
C34? C 0.326(12) 0.485(5) 0.333(10)
C35? C 0.263(6) 0.503(2) 0.202(8)
H28? H 0.2702 0.4920 0.4095
H29? H 0.3368 0.4485 0.3281
H30? H 0.3151 0.4931 0.1232
H31? H 0.2378 0.5694 0.1112
H32? H 0.1763 0.5718 0.2558
loop_
_geom_bond_atom_site_label_1
_geom_bond_atom_site_label_2
_geom_bond_site_symmetry_1
_geom_bond_site_symmetry_2
N1 C19 1_555 1_555
O1 C2 1_555 1_555
O2 C4 1_555 1_555
O3 C20 1_555 1_555
O4 C15 1_555 1_555
O5 C24 1_555 1_555
C1 H1 1_555 1_555
H2 C1 1_555 1_555
H3 C1 1_555 1_555
C2 C1 1_555 1_555
C3 C2 1_555 1_555
H4 C3 1_555 1_555
C4 C3 1_555 1_555
C5 C4 1_555 1_555
C6 O1 1_555 1_555
H5 C6 1_555 1_555
C7 C6 1_555 1_555
C8 C7 1_555 1_555
H6 C8 1_555 1_555
C9 C8 1_555 1_555
H7 C9 1_555 1_555
C10 C9 1_555 1_555
H8 C10 1_555 1_555
C11 C10 1_555 1_555
H9 C11 1_555 1_555
C12 C7 1_555 1_555
C13 C5 1_555 1_555
H10 C13 1_555 1_555
C14 C13 1_555 1_555
C15 C14 1_555 1_555
C16 C15 1_555 1_555
H11 C16 1_555 1_555
H12 C16 1_555 1_555
C17 C16 1_555 1_555
H13 C17 1_555 1_555
C18 C17 1_555 1_555
H14 C18 1_555 1_555
H15 C18 1_555 1_555
C19 C14 1_555 1_555
C20 N1 1_555 1_555
C21 N1 1_555 1_555
C22 C21 1_555 1_555
H16 C22 1_555 1_555
C23 C22 1_555 1_555
H17 C23 1_555 1_555
C24 C23 1_555 1_555
C25 C24 1_555 1_555
H18 C25 1_555 1_555
C26 C21 1_555 1_555
H19 C26 1_555 1_555
C27 O5 1_555 1_555
H20 C27 1_555 1_555
H21 C27 1_555 1_555
H22 C27 1_555 1_555
C28 C17 1_555 1_555
C29 C28 1_555 1_555
H23 C29 1_555 1_555
C30 C29 1_555 1_555
H24 C30 1_555 1_555
C31 C30 1_555 1_555
H25 C31 1_555 1_555
C32 C31 1_555 1_555
H26 C32 1_555 1_555
C33 C28 1_555 1_555
H27 C33 1_555 1_555
C5 C6 1_555 1_555
C5 C20 1_555 1_555
C11 C12 1_555 1_555
C12 C13 1_555 1_555
C18 C19 1_555 1_555
C25 C26 1_555 1_555
C32 C33 1_555 1_555

#END
