
#######################################################################
#
#                 Cambridge Crystallographic Data Centre
#                                CCDC 
#
#######################################################################
#
# If this CIF has been generated from an entry in the Cambridge 
# Structural Database, then it will include bibliographic, chemical, 
# crystal, experimental, refinement or atomic coordinate data resulting 
# from the CCDC's data processing and validation procedures.
#
#######################################################################

data_LEJTIF
_chemical_formula_moiety         'C17 H17 B1 F2 N2 O1 S1'
_chemical_name_systematic        
N,N-Diethyl-6,6-difluoro-6H-7\l^5^,6\l^5^-[1,3]benzothiazolo[3,2-c][1,3,2]benzoxazaborinin-3-amine
_symmetry_cell_setting           triclinic
_symmetry_space_group_name_H-M   'P -1'
_symmetry_Int_Tables_number      2
_space_group_name_Hall           '-P 1'
loop_
_symmetry_equiv_pos_site_id
_symmetry_equiv_pos_as_xyz
1 x,y,z
2 -x,-y,-z
_cell_length_a                   8.5043(2)
_cell_length_b                   8.8157(2)
_cell_length_c                   12.0205(3)
_cell_angle_alpha                71.629(2)
_cell_angle_beta                 76.751(2)
_cell_angle_gamma                68.273(2)
_cell_volume                     788.008
_exptl_crystal_colour            green
_exptl_crystal_description       block
_cell_formula_units_Z            2
loop_
_atom_site_label
_atom_site_type_symbol
_atom_site_fract_x
_atom_site_fract_y
_atom_site_fract_z
F1 F 0.30564(9) -0.28758(8) 0.31202(7)
F2 F 0.14369(9) -0.06609(10) 0.38929(6)
S1 S 0.65973(3) 0.06721(3) 0.23095(2)
O1 O 0.19324(9) -0.02537(9) 0.18488(7)
N1 N 0.42678(10) -0.07394(9) 0.29664(7)
N2 N 0.14292(10) 0.35822(10) -0.19584(7)
B1 B 0.26135(14) -0.11481(13) 0.29611(9)
C1 C 0.52661(11) -0.14333(11) 0.38894(8)
C2 C 0.50408(13) -0.26553(12) 0.49235(8)
H1 H 0.4133 -0.3103 0.5068
C3 C 0.61838(13) -0.31966(12) 0.57342(9)
H2 H 0.6058 -0.4030 0.6446
C4 C 0.75216(13) -0.25371(13) 0.55237(9)
H3 H 0.8278 -0.2925 0.6100
C5 C 0.77684(12) -0.13280(12) 0.44910(9)
H4 H 0.8680 -0.0886 0.4347
C6 C 0.66180(12) -0.07926(11) 0.36765(8)
C7 C 0.48101(11) 0.03789(11) 0.20773(8)
C8 C 0.39734(11) 0.12229(11) 0.10545(8)
C9 C 0.45355(12) 0.23954(12) 0.00953(8)
H5 H 0.5517 0.2642 0.0131
C10 C 0.37059(12) 0.31884(12) -0.08859(8)
H6 H 0.4112 0.3978 -0.1515
C11 C 0.22328(11) 0.28349(11) -0.09685(8)
C12 C 0.19258(13) 0.48995(12) -0.29108(8)
H7 H 0.1510 0.4990 -0.3642
H8 H 0.3187 0.4558 -0.3059
C13 C 0.12374(15) 0.66310(13) -0.26498(10)
H9 H 0.1617 0.7448 -0.3321
H10 H 0.1666 0.6562 -0.1939
H11 H -0.0013 0.6995 -0.2522
C14 C -0.01286(12) 0.32847(12) -0.20236(8)
H12 H 0.0030 0.2063 -0.1709
H13 H -0.0304 0.3602 -0.2863
C15 C -0.17271(13) 0.42642(14) -0.13426(10)
H14 H -0.2714 0.4002 -0.1421
H15 H -0.1917 0.5478 -0.1663
H16 H -0.1577 0.3941 -0.0506
C16 C 0.16701(12) 0.16628(11) -0.00109(8)
H17 H 0.0687 0.1416 -0.0043
C17 C 0.25226(11) 0.08626(11) 0.09769(8)
loop_
_geom_bond_atom_site_label_1
_geom_bond_atom_site_label_2
_geom_bond_site_symmetry_1
_geom_bond_site_symmetry_2
F1 B1 1_555 1_555
F2 B1 1_555 1_555
S1 C6 1_555 1_555
O1 B1 1_555 1_555
N1 B1 1_555 1_555
N2 C11 1_555 1_555
C1 N1 1_555 1_555
C2 C1 1_555 1_555
H1 C2 1_555 1_555
C3 C2 1_555 1_555
H2 C3 1_555 1_555
C4 C3 1_555 1_555
H3 C4 1_555 1_555
C5 C4 1_555 1_555
H4 C5 1_555 1_555
C6 C1 1_555 1_555
C7 S1 1_555 1_555
C8 C7 1_555 1_555
C9 C8 1_555 1_555
H5 C9 1_555 1_555
C10 C9 1_555 1_555
H6 C10 1_555 1_555
C11 C10 1_555 1_555
C12 N2 1_555 1_555
H7 C12 1_555 1_555
H8 C12 1_555 1_555
C13 C12 1_555 1_555
H9 C13 1_555 1_555
H10 C13 1_555 1_555
H11 C13 1_555 1_555
C14 N2 1_555 1_555
H12 C14 1_555 1_555
H13 C14 1_555 1_555
C15 C14 1_555 1_555
H14 C15 1_555 1_555
H15 C15 1_555 1_555
H16 C15 1_555 1_555
C16 C11 1_555 1_555
H17 C16 1_555 1_555
C17 O1 1_555 1_555
N1 C7 1_555 1_555
C5 C6 1_555 1_555
C8 C17 1_555 1_555
C16 C17 1_555 1_555

#END
