
#######################################################################
#
#                 Cambridge Crystallographic Data Centre
#                                CCDC 
#
#######################################################################
#
# If this CIF has been generated from an entry in the Cambridge 
# Structural Database, then it will include bibliographic, chemical, 
# crystal, experimental, refinement or atomic coordinate data resulting 
# from the CCDC's data processing and validation procedures.
#
#######################################################################

data_LEJTOL
_chemical_formula_moiety         'C15 H13 B1 F2 N2 O1 S1'
_chemical_name_systematic        
6,6-Difluoro-N,N-dimethyl-6H-7\l^5^,6\l^5^-[1,3]benzothiazolo[3,2-c][1,3,2]benzoxazaborinin-2-amine
_symmetry_cell_setting           monoclinic
_symmetry_space_group_name_H-M   'P 21/c'
_symmetry_Int_Tables_number      14
_space_group_name_Hall           '-P 2ybc'
loop_
_symmetry_equiv_pos_site_id
_symmetry_equiv_pos_as_xyz
1 x,y,z
2 -x,1/2+y,1/2-z
3 -x,-y,-z
4 x,1/2-y,1/2+z
_cell_length_a                   8.5412(2)
_cell_length_b                   11.7529(3)
_cell_length_c                   13.8346(4)
_cell_angle_alpha                90
_cell_angle_beta                 102.157(2)
_cell_angle_gamma                90
_cell_volume                     1357.63
_exptl_crystal_colour            red
_exptl_crystal_description       block
_cell_formula_units_Z            4
loop_
_atom_site_label
_atom_site_type_symbol
_atom_site_fract_x
_atom_site_fract_y
_atom_site_fract_z
S1 S 0.78062(5) 0.49668(3) 1.08771(3)
F1 F 0.48823(13) 0.48222(9) 0.74386(8)
F2 F 0.73711(14) 0.41034(9) 0.74958(8)
O1 O 0.70179(15) 0.60605(10) 0.76896(9)
N1 N 0.67450(16) 0.47139(11) 0.90158(10)
N2 N 1.14621(17) 0.85868(12) 1.03666(11)
B1 B 0.6488(2) 0.49314(15) 0.78599(13)
C1 C 0.60679(18) 0.38184(13) 0.94517(11)
C2 C 0.50638(19) 0.29678(13) 0.89644(12)
H1 H 0.4779 0.2941 0.8263
C3 C 0.44969(19) 0.21647(13) 0.95359(12)
H2 H 0.3809 0.1578 0.9221
C4 C 0.4919(2) 0.21999(13) 1.05715(12)
H3 H 0.4494 0.1646 1.0945
C5 C 0.59425(19) 0.30264(13) 1.10599(12)
H4 H 0.6244 0.3041 1.1761
C6 C 0.65146(18) 0.38366(13) 1.04851(11)
C7 C 0.76846(18) 0.53790(13) 0.96689(11)
C8 C 0.84884(18) 0.63505(13) 0.93643(11)
C9 C 0.95869(19) 0.70090(13) 1.00385(11)
H5 H 0.9815 0.6812 1.0720
C10 C 1.03471(18) 0.79485(13) 0.97214(12)
C11 C 1.1492(2) 0.85199(15) 1.14161(13)
H6 H 1.0986 0.7809 1.1559
H7 H 1.0907 0.9167 1.1613
H8 H 1.2605 0.8538 1.1786
C12 C 1.2162(2) 0.95899(14) 1.00193(13)
H9 H 1.2082 0.9533 0.9304
H10 H 1.3291 0.9648 1.0354
H11 H 1.1585 1.0268 1.0165
C13 C 0.9945(2) 0.82157(14) 0.87009(12)
H12 H 1.0439 0.8852 0.8464
C14 C 0.8861(2) 0.75800(14) 0.80451(12)
H13 H 0.8614 0.7789 0.7366
C15 C 0.8114(2) 0.66321(13) 0.83575(11)
loop_
_geom_bond_atom_site_label_1
_geom_bond_atom_site_label_2
_geom_bond_site_symmetry_1
_geom_bond_site_symmetry_2
S1 C6 1_555 1_555
F1 B1 1_555 1_555
F2 B1 1_555 1_555
O1 B1 1_555 1_555
N1 B1 1_555 1_555
N2 C10 1_555 1_555
C1 N1 1_555 1_555
C2 C1 1_555 1_555
H1 C2 1_555 1_555
C3 C2 1_555 1_555
H2 C3 1_555 1_555
C4 C3 1_555 1_555
H3 C4 1_555 1_555
C5 C4 1_555 1_555
H4 C5 1_555 1_555
C6 C1 1_555 1_555
C7 S1 1_555 1_555
C8 C7 1_555 1_555
C9 C8 1_555 1_555
H5 C9 1_555 1_555
C10 C9 1_555 1_555
C11 N2 1_555 1_555
H6 C11 1_555 1_555
H7 C11 1_555 1_555
H8 C11 1_555 1_555
C12 N2 1_555 1_555
H9 C12 1_555 1_555
H10 C12 1_555 1_555
H11 C12 1_555 1_555
C13 C10 1_555 1_555
H12 C13 1_555 1_555
C14 C13 1_555 1_555
H13 C14 1_555 1_555
C15 O1 1_555 1_555
N1 C7 1_555 1_555
C5 C6 1_555 1_555
C8 C15 1_555 1_555
C14 C15 1_555 1_555

#END
