
#######################################################################
#
#                 Cambridge Crystallographic Data Centre
#                                CCDC 
#
#######################################################################
#
# If this CIF has been generated from an entry in the Cambridge 
# Structural Database, then it will include bibliographic, chemical, 
# crystal, experimental, refinement or atomic coordinate data resulting 
# from the CCDC's data processing and validation procedures.
#
#######################################################################

data_LEJVIH
_chemical_formula_moiety         'C28 H64 B4 O12 P4'
_chemical_name_systematic        
3,7,11,15-Tetra-t-butyl-1,5,9,13-tetra-n-propyl-1,5,9,13-tetrabora-2,4,6,8,10,12,14,16,17,18,19,20-dodecaoxa-3,7,11,15-tetraphosphapentacyclo[9.5.1.1^3,9^.1^5,15^.1^7,13^]icosane
_symmetry_cell_setting           monoclinic
_symmetry_space_group_name_H-M   'P 2/n'
_symmetry_Int_Tables_number      13
_space_group_name_Hall           '-P 2yac'
loop_
_symmetry_equiv_pos_site_id
_symmetry_equiv_pos_as_xyz
1 x,y,z
2 1/2-x,y,1/2-z
3 -x,-y,-z
4 1/2+x,-y,1/2+z
_cell_length_a                   13.6934(17)
_cell_length_b                   10.4815(10)
_cell_length_c                   15.0471(15)
_cell_angle_alpha                90
_cell_angle_beta                 94.935(10)
_cell_angle_gamma                90
_cell_volume                     2151.66
_exptl_crystal_colour            colorless
_exptl_crystal_description       prismatic
_cell_formula_units_Z            2
loop_
_atom_site_label
_atom_site_type_symbol
_atom_site_fract_x
_atom_site_fract_y
_atom_site_fract_z
P1 P 0.38656(4) 0.52165(5) 0.21765(4)
P2 P 0.29614(4) 0.25870(5) 0.37748(4)
O1 O 0.43005(12) 0.38708(14) 0.22914(11)
O2 O 0.34854(12) 0.21093(15) 0.29894(10)
O3 O 0.32964(12) 0.39323(14) 0.40614(10)
O4 O 0.34586(12) 0.56859(15) 0.30261(10)
O5 O 0.30981(12) 0.52895(14) 0.13778(10)
O6 O 0.31505(11) 0.25167(14) 0.14102(10)
B1 B 0.39331(19) 0.2526(2) 0.21684(16)
B2 B 0.29863(19) 0.5274(2) 0.38379(16)
C1 C 0.48437(18) 0.6289(2) 0.19493(16)
C2 C 0.5671(2) 0.6192(3) 0.27067(19)
H1 H 0.5940 0.5325 0.2725
H2 H 0.5408 0.6386 0.3277
H3 H 0.6190 0.6803 0.2600
C3 C 0.4431(3) 0.7651(2) 0.1890(2)
H4 H 0.4949 0.8244 0.1748
H5 H 0.4193 0.7888 0.2463
H6 H 0.3889 0.7690 0.1421
C4 C 0.5233(2) 0.5918(3) 0.10640(18)
H7 H 0.4701 0.5970 0.0586
H8 H 0.5486 0.5044 0.1104
H9 H 0.5760 0.6503 0.0934
C5 C 0.47929(17) 0.1578(2) 0.19709(16)
H10 H 0.5289 0.1585 0.2490
H11 H 0.4523 0.0703 0.1914
C6 C 0.5300(2) 0.1883(2) 0.11377(19)
H12 H 0.5651 0.2705 0.1227
H13 H 0.4796 0.1989 0.0631
C7 C 0.6029(2) 0.0863(3) 0.0897(2)
H14 H 0.6520 0.0731 0.1402
H15 H 0.6355 0.1142 0.0376
H16 H 0.5680 0.0062 0.0759
C8 C 0.32989(17) 0.1521(2) 0.46905(15)
C9 C 0.3065(2) 0.0147(2) 0.43746(18)
H17 H 0.3231 -0.0448 0.4866
H18 H 0.3449 -0.0060 0.3874
H19 H 0.2364 0.0077 0.4183
C10 C 0.43982(19) 0.1676(3) 0.49652(18)
H20 H 0.4533 0.2559 0.5150
H21 H 0.4773 0.1467 0.4458
H22 H 0.4590 0.1100 0.5463
C11 C 0.2701(2) 0.1862(2) 0.54721(16)
H23 H 0.2889 0.1300 0.5978
H24 H 0.2001 0.1754 0.5291
H25 H 0.2829 0.2751 0.5647
C12 C 0.33214(19) 0.6199(2) 0.46431(15)
H26 H 0.4032 0.6076 0.4799
H27 H 0.3226 0.7091 0.4435
C13 C 0.2796(2) 0.6030(3) 0.54851(16)
H28 H 0.2855 0.5129 0.5680
H29 H 0.2090 0.6218 0.5348
C14 C 0.3202(2) 0.6891(3) 0.62459(17)
H30 H 0.3896 0.6693 0.6397
H31 H 0.2837 0.6747 0.6769
H32 H 0.3135 0.7785 0.6061
P1A P 0.11344(4) 0.52165(5) 0.28235(4)
P2A P 0.20386(4) 0.25870(5) 0.12252(4)
O1A O 0.06995(12) 0.38708(14) 0.27086(11)
O2A O 0.15146(12) 0.21093(15) 0.20106(10)
O3A O 0.17036(12) 0.39323(14) 0.09386(10)
O4A O 0.15414(12) 0.56859(15) 0.19739(10)
O5A O 0.19019(12) 0.52895(14) 0.36222(10)
O6A O 0.18495(11) 0.25167(14) 0.35898(10)
B1A B 0.10669(19) 0.2526(2) 0.28316(16)
B2A B 0.20137(19) 0.5274(2) 0.11621(16)
C1A C 0.01563(18) 0.6289(2) 0.30507(16)
C2A C -0.0671(2) 0.6192(3) 0.22933(19)
H1A H -0.0940 0.5325 0.2275
H2A H -0.0408 0.6386 0.1723
H3A H -0.1190 0.6803 0.2400
C3A C 0.0569(3) 0.7651(2) 0.3110(2)
H4A H 0.0051 0.8244 0.3252
H5A H 0.0807 0.7888 0.2537
H6A H 0.1111 0.7690 0.3579
C4A C -0.0233(2) 0.5918(3) 0.39360(18)
H7A H 0.0299 0.5970 0.4414
H8A H -0.0486 0.5044 0.3896
H9A H -0.0760 0.6503 0.4066
C5A C 0.02071(17) 0.1578(2) 0.30291(16)
H10A H -0.0289 0.1585 0.2510
H11A H 0.0477 0.0703 0.3086
C6A C -0.0300(2) 0.1883(2) 0.38623(19)
H12A H -0.0651 0.2705 0.3773
H13A H 0.0204 0.1989 0.4369
C7A C -0.1029(2) 0.0863(3) 0.4103(2)
H14A H -0.1520 0.0731 0.3598
H15A H -0.1355 0.1142 0.4624
H16A H -0.0680 0.0062 0.4241
C8A C 0.17011(17) 0.1521(2) 0.03095(15)
C9A C 0.1935(2) 0.0147(2) 0.06254(18)
H17A H 0.1769 -0.0448 0.0134
H18A H 0.1551 -0.0060 0.1126
H19A H 0.2636 0.0077 0.0817
C10A C 0.06018(19) 0.1676(3) 0.00348(18)
H20A H 0.0467 0.2559 -0.0150
H21A H 0.0227 0.1467 0.0542
H22A H 0.0410 0.1100 -0.0463
C11A C 0.2299(2) 0.1862(2) -0.04721(16)
H23A H 0.2111 0.1300 -0.0978
H24A H 0.2999 0.1754 -0.0291
H25A H 0.2171 0.2751 -0.0647
C12A C 0.16786(19) 0.6199(2) 0.03569(15)
H26A H 0.0968 0.6076 0.0201
H27A H 0.1774 0.7091 0.0565
C13A C 0.2204(2) 0.6030(3) -0.04851(16)
H28A H 0.2145 0.5129 -0.0680
H29A H 0.2910 0.6218 -0.0348
C14A C 0.1798(2) 0.6891(3) -0.12459(17)
H30A H 0.1104 0.6693 -0.1397
H31A H 0.2163 0.6747 -0.1769
H32A H 0.1865 0.7785 -0.1061
loop_
_geom_bond_atom_site_label_1
_geom_bond_atom_site_label_2
_geom_bond_site_symmetry_1
_geom_bond_site_symmetry_2
P1 O1 1_555 1_555
P2 O2 1_555 1_555
O1 B1 1_555 1_555
O2 B1 1_555 1_555
O3 P2 1_555 1_555
O4 P1 1_555 1_555
O5 P1 1_555 1_555
O6 B1 1_555 1_555
B1 C5 1_555 1_555
B2 O3 1_555 1_555
C1 P1 1_555 1_555
C2 C1 1_555 1_555
H1 C2 1_555 1_555
H2 C2 1_555 1_555
H3 C2 1_555 1_555
C3 C1 1_555 1_555
H4 C3 1_555 1_555
H5 C3 1_555 1_555
H6 C3 1_555 1_555
C4 C1 1_555 1_555
H7 C4 1_555 1_555
H8 C4 1_555 1_555
H9 C4 1_555 1_555
C5 H10 1_555 1_555
H11 C5 1_555 1_555
C6 C5 1_555 1_555
H12 C6 1_555 1_555
H13 C6 1_555 1_555
C7 C6 1_555 1_555
H14 C7 1_555 1_555
H15 C7 1_555 1_555
H16 C7 1_555 1_555
C8 P2 1_555 1_555
C9 C8 1_555 1_555
H17 C9 1_555 1_555
H18 C9 1_555 1_555
H19 C9 1_555 1_555
C10 C8 1_555 1_555
H20 C10 1_555 1_555
H21 C10 1_555 1_555
H22 C10 1_555 1_555
C11 C8 1_555 1_555
H23 C11 1_555 1_555
H24 C11 1_555 1_555
H25 C11 1_555 1_555
C12 B2 1_555 1_555
H26 C12 1_555 1_555
H27 C12 1_555 1_555
C13 C12 1_555 1_555
H28 C13 1_555 1_555
H29 C13 1_555 1_555
C14 C13 1_555 1_555
H30 C14 1_555 1_555
H31 C14 1_555 1_555
H32 C14 1_555 1_555
P1A O1A 1_555 1_555
P2A O6 1_555 1_555
O1A B1A 1_555 1_555
O2A P2A 1_555 1_555
O3A P2A 1_555 1_555
O4A P1A 1_555 1_555
O5A B2 1_555 1_555
O6A P2 1_555 1_555
B1A O2A 1_555 1_555
B2A O5 1_555 1_555
C1A P1A 1_555 1_555
C2A C1A 1_555 1_555
H1A C2A 1_555 1_555
H2A C2A 1_555 1_555
H3A C2A 1_555 1_555
C3A C1A 1_555 1_555
H4A C3A 1_555 1_555
H5A C3A 1_555 1_555
H6A C3A 1_555 1_555
C4A C1A 1_555 1_555
H7A C4A 1_555 1_555
H8A C4A 1_555 1_555
H9A C4A 1_555 1_555
C5A B1A 1_555 1_555
H10A C5A 1_555 1_555
H11A C5A 1_555 1_555
C6A C5A 1_555 1_555
H12A C6A 1_555 1_555
H13A C6A 1_555 1_555
C7A C6A 1_555 1_555
H14A C7A 1_555 1_555
H15A C7A 1_555 1_555
H16A C7A 1_555 1_555
C8A P2A 1_555 1_555
C9A C8A 1_555 1_555
H17A C9A 1_555 1_555
H18A C9A 1_555 1_555
H19A C9A 1_555 1_555
C10A C8A 1_555 1_555
H20A C10A 1_555 1_555
H21A C10A 1_555 1_555
H22A C10A 1_555 1_555
C11A C8A 1_555 1_555
H23A C11A 1_555 1_555
H24A C11A 1_555 1_555
H25A C11A 1_555 1_555
C12A B2A 1_555 1_555
H26A C12A 1_555 1_555
H27A C12A 1_555 1_555
C13A C12A 1_555 1_555
H28A C13A 1_555 1_555
H29A C13A 1_555 1_555
C14A C13A 1_555 1_555
H30A C14A 1_555 1_555
H31A C14A 1_555 1_555
H32A C14A 1_555 1_555
O4 B2 1_555 1_555
P1A O5A 1_555 1_555
O3A B2A 1_555 1_555
O4A B2A 1_555 1_555
O6A B1A 1_555 1_555

#END
