
#######################################################################
#
#                 Cambridge Crystallographic Data Centre
#                                CCDC 
#
#######################################################################
#
# If this CIF has been generated from an entry in the Cambridge 
# Structural Database, then it will include bibliographic, chemical, 
# crystal, experimental, refinement or atomic coordinate data resulting 
# from the CCDC's data processing and validation procedures.
#
#######################################################################

data_LEJVON
_chemical_formula_moiety         'C20 H48 B4 O12 P4'
_chemical_name_systematic        
3,7,11,15-Tetra-t-butyl-1,5,9,13-tetramethyl-1,5,9,13-tetrabora-2,4,6,8,10,12,14,16,17,18,19,20-dodecaoxa-3,7,11,15-tetraphosphapentacyclo[9.5.1.1^3,9^.1^5,15^.1^7,13^]icosane
_symmetry_cell_setting           orthorhombic
_symmetry_space_group_name_H-M   'P n a 21'
_symmetry_Int_Tables_number      33
_space_group_name_Hall           'P 2c -2n'
loop_
_symmetry_equiv_pos_site_id
_symmetry_equiv_pos_as_xyz
1 x,y,z
2 -x,-y,1/2+z
3 1/2+x,1/2-y,z
4 1/2-x,1/2+y,1/2+z
_cell_length_a                   12.2896(3)
_cell_length_b                   15.6665(3)
_cell_length_c                   18.0952(4)
_cell_angle_alpha                90
_cell_angle_beta                 90
_cell_angle_gamma                90
_cell_volume                     3483.96
_exptl_crystal_colour            colorless
_exptl_crystal_description       prismatic
_cell_formula_units_Z            4
loop_
_atom_site_label
_atom_site_type_symbol
_atom_site_fract_x
_atom_site_fract_y
_atom_site_fract_z
P1 P -0.17054(3) 0.62896(2) 0.368831(19)
P2 P -0.18816(3) 0.38033(2) 0.378625(19)
P3 P -0.28739(3) 0.50050(2) 0.20154(2)
P4 P 0.02270(3) 0.48882(2) 0.24775(2)
O1 O -0.28675(8) 0.59642(6) 0.35899(5)
O2 O -0.10229(8) 0.56677(6) 0.41447(5)
O3 O -0.07547(8) 0.41441(6) 0.39772(5)
O4 O -0.27627(7) 0.44706(6) 0.39317(5)
O5 O -0.11676(8) 0.64913(6) 0.29477(5)
O6 O 0.03366(8) 0.51553(6) 0.32840(5)
O7 O -0.19332(8) 0.34621(6) 0.29964(5)
O8 O -0.34898(8) 0.48726(6) 0.27382(6)
O9 O -0.03697(8) 0.55635(6) 0.20229(5)
O10 O -0.03094(8) 0.40123(6) 0.24025(5)
O11 O -0.20839(8) 0.42728(6) 0.18610(5)
O12 O -0.23039(8) 0.58705(6) 0.19929(6)
B1 B -0.34324(14) 0.51193(10) 0.35333(9)
B2 B -0.01850(14) 0.49896(9) 0.40152(10)
B3 B -0.12074(13) 0.62416(9) 0.21505(8)
B4 B -0.14042(13) 0.36348(10) 0.22642(9)
C1 C -0.17765(12) 0.72783(9) 0.41977(8)
C2 C -0.23011(14) 0.79583(9) 0.37034(9)
H1 H -0.3034 0.7773 0.3562
H2 H -0.1858 0.8037 0.3258
H3 H -0.2347 0.8499 0.3974
C3 C -0.24581(15) 0.71444(10) 0.48966(8)
H4 H -0.2123 0.6699 0.5202
H5 H -0.3196 0.6969 0.4758
H6 H -0.2491 0.7679 0.5177
C4 C -0.06145(14) 0.75473(10) 0.43998(10)
H7 H -0.0631 0.8105 0.4645
H8 H -0.0174 0.7586 0.3950
H9 H -0.0296 0.7123 0.4734
C5 C 0.07033(13) 0.49903(9) 0.46475(9)
H10 H 0.1244 0.4546 0.4547
H11 H 0.0353 0.4877 0.5124
H12 H 0.1063 0.5548 0.4663
C6 C -0.21492(12) 0.29152(9) 0.43938(8)
C7 C -0.19823(17) 0.32109(12) 0.51915(9)
H13 H -0.2483 0.3681 0.5301
H14 H -0.1231 0.3406 0.5256
H15 H -0.2126 0.2735 0.5529
C8 C -0.13589(14) 0.21879(10) 0.42029(11)
H16 H -0.1466 0.1714 0.4549
H17 H -0.0609 0.2395 0.4240
H18 H -0.1498 0.1991 0.3698
C9 C -0.33235(13) 0.26246(10) 0.42792(10)
H19 H -0.3481 0.2143 0.4608
H20 H -0.3424 0.2447 0.3765
H21 H -0.3819 0.3098 0.4391
C10 C -0.46136(12) 0.51661(9) 0.38766(9)
H22 H -0.5037 0.5604 0.3619
H23 H -0.4562 0.5311 0.4402
H24 H -0.4973 0.4611 0.3822
C11 C -0.38684(12) 0.50014(8) 0.12848(8)
C12 C -0.32729(14) 0.50478(10) 0.05469(9)
H25 H -0.3805 0.5077 0.0144
H26 H -0.2820 0.4538 0.0486
H27 H -0.2811 0.5558 0.0537
C13 C -0.45372(14) 0.41767(11) 0.13366(10)
H28 H -0.4954 0.4176 0.1798
H29 H -0.4047 0.3684 0.1329
H30 H -0.5038 0.4144 0.0916
C14 C -0.46115(13) 0.57800(11) 0.13791(10)
H31 H -0.4173 0.6302 0.1365
H32 H -0.4990 0.5743 0.1855
H33 H -0.5147 0.5793 0.0978
C15 C -0.09772(13) 0.70412(9) 0.16406(8)
H34 H -0.1533 0.7478 0.1729
H35 H -0.0999 0.6866 0.1121
H36 H -0.0257 0.7275 0.1756
C16 C 0.15831(12) 0.48030(9) 0.21108(8)
C17 C 0.21057(13) 0.56863(11) 0.21184(10)
H37 H 0.2845 0.5649 0.1917
H38 H 0.2136 0.5899 0.2627
H39 H 0.1672 0.6078 0.1815
C18 C 0.22308(13) 0.41849(12) 0.26022(11)
H40 H 0.2978 0.4139 0.2417
H41 H 0.1886 0.3621 0.2592
H42 H 0.2242 0.4400 0.3111
C19 C 0.15291(14) 0.44662(12) 0.13205(9)
H43 H 0.1111 0.4864 0.1014
H44 H 0.1174 0.3906 0.1318
H45 H 0.2268 0.4412 0.1122
C20 C -0.12949(13) 0.27856(9) 0.17982(8)
H46 H -0.2019 0.2541 0.1716
H47 H -0.0843 0.2376 0.2069
H48 H -0.0955 0.2914 0.1321
loop_
_geom_bond_atom_site_label_1
_geom_bond_atom_site_label_2
_geom_bond_site_symmetry_1
_geom_bond_site_symmetry_2
P1 O1 1_555 1_555
P2 O3 1_555 1_555
P3 O8 1_555 1_555
P4 O6 1_555 1_555
O1 B1 1_555 1_555
O2 P1 1_555 1_555
O3 B2 1_555 1_555
O4 P2 1_555 1_555
O5 P1 1_555 1_555
O6 B2 1_555 1_555
O7 P2 1_555 1_555
O8 B1 1_555 1_555
O9 P4 1_555 1_555
O10 P4 1_555 1_555
O11 P3 1_555 1_555
O12 P3 1_555 1_555
B1 O4 1_555 1_555
B2 O2 1_555 1_555
B3 O5 1_555 1_555
B4 O7 1_555 1_555
C1 P1 1_555 1_555
C2 C1 1_555 1_555
H1 C2 1_555 1_555
H2 C2 1_555 1_555
H3 C2 1_555 1_555
C3 C1 1_555 1_555
H4 C3 1_555 1_555
H5 C3 1_555 1_555
H6 C3 1_555 1_555
C4 C1 1_555 1_555
H7 C4 1_555 1_555
H8 C4 1_555 1_555
H9 C4 1_555 1_555
C5 B2 1_555 1_555
H10 C5 1_555 1_555
H11 C5 1_555 1_555
H12 C5 1_555 1_555
C6 P2 1_555 1_555
C7 C6 1_555 1_555
H13 C7 1_555 1_555
H14 C7 1_555 1_555
H15 C7 1_555 1_555
C8 C6 1_555 1_555
H16 C8 1_555 1_555
H17 C8 1_555 1_555
H18 C8 1_555 1_555
C9 C6 1_555 1_555
H19 C9 1_555 1_555
H20 C9 1_555 1_555
H21 C9 1_555 1_555
C10 B1 1_555 1_555
H22 C10 1_555 1_555
H23 C10 1_555 1_555
H24 C10 1_555 1_555
C11 P3 1_555 1_555
C12 C11 1_555 1_555
H25 C12 1_555 1_555
H26 C12 1_555 1_555
H27 C12 1_555 1_555
C13 C11 1_555 1_555
H28 C13 1_555 1_555
H29 C13 1_555 1_555
H30 C13 1_555 1_555
C14 C11 1_555 1_555
H31 C14 1_555 1_555
H32 C14 1_555 1_555
H33 C14 1_555 1_555
C15 B3 1_555 1_555
H34 C15 1_555 1_555
H35 C15 1_555 1_555
H36 C15 1_555 1_555
C16 P4 1_555 1_555
C17 C16 1_555 1_555
H37 C17 1_555 1_555
H38 C17 1_555 1_555
H39 C17 1_555 1_555
C18 C16 1_555 1_555
H40 C18 1_555 1_555
H41 C18 1_555 1_555
H42 C18 1_555 1_555
C19 C16 1_555 1_555
H43 C19 1_555 1_555
H44 C19 1_555 1_555
H45 C19 1_555 1_555
C20 B4 1_555 1_555
H46 C20 1_555 1_555
H47 C20 1_555 1_555
H48 C20 1_555 1_555
O9 B3 1_555 1_555
O10 B4 1_555 1_555
O11 B4 1_555 1_555
O12 B3 1_555 1_555

#END
