
#######################################################################
#
#                 Cambridge Crystallographic Data Centre
#                                CCDC 
#
#######################################################################
#
# If this CIF has been generated from an entry in the Cambridge 
# Structural Database, then it will include bibliographic, chemical, 
# crystal, experimental, refinement or atomic coordinate data resulting 
# from the CCDC's data processing and validation procedures.
#
#######################################################################

data_LEJWAA
_chemical_formula_moiety         'C44 H56 B4 O16 P4'
_chemical_name_systematic        
3,7,11,15-Tetra-t-butyl-1,5,9,13-tetrakis(4-formylphenyl)-1,5,9,13-tetrabora-2,4,6,8,10,12,14,16,17,18,19,20-dodecaoxa-3,7,11,15-tetraphosphapentacyclo[9.5.1.1^3,9^.1^5,15^.1^7,13^]icosane
_symmetry_cell_setting           monoclinic
_symmetry_space_group_name_H-M   'P 21/n'
_symmetry_Int_Tables_number      14
_space_group_name_Hall           '-P 2yn'
loop_
_symmetry_equiv_pos_site_id
_symmetry_equiv_pos_as_xyz
1 x,y,z
2 1/2-x,1/2+y,1/2-z
3 -x,-y,-z
4 1/2+x,1/2-y,1/2+z
_cell_length_a                   12.558(3)
_cell_length_b                   43.898(9)
_cell_length_c                   18.411(4)
_cell_angle_alpha                90
_cell_angle_beta                 92.83(3)
_cell_angle_gamma                90
_cell_volume                     10137.1
_exptl_crystal_colour            colorless
_exptl_crystal_description       prismatic
_cell_formula_units_Z            8
loop_
_atom_site_label
_atom_site_type_symbol
_atom_site_fract_x
_atom_site_fract_y
_atom_site_fract_z
P1 P 0.21410(16) 0.15054(3) 0.63022(8)
P2 P 0.11534(16) 0.21576(3) 0.75831(9)
P3 P 0.41270(16) 0.21591(3) 0.69879(9)
P4 P 0.31955(16) 0.15388(3) 0.83573(8)
O1 O 0.2107(4) 0.18236(8) 0.5951(2)
O2 O 0.1189(4) 0.21737(9) 0.6749(2)
O3 O 0.0888(4) 0.18317(8) 0.7821(2)
O4 O 0.1262(4) 0.14779(9) 0.6845(2)
O5 O 0.3220(4) 0.14286(9) 0.6664(2)
O6 O 0.3060(4) 0.22272(9) 0.6609(2)
O7 O 0.2193(4) 0.22724(9) 0.7953(2)
O8 O 0.2155(4) 0.14150(9) 0.8001(2)
O9 O 0.4100(4) 0.15170(9) 0.7830(2)
O10 O 0.4532(4) 0.18378(9) 0.6803(2)
O11 O 0.4064(4) 0.21933(9) 0.7814(2)
O12 O 0.3080(4) 0.18672(9) 0.8622(2)
O13 O -0.2497(6) 0.04679(13) 0.8448(3)
O14 O 0.3243(5) 0.31239(10) 1.1185(3)
B1 B 0.2036(7) 0.21432(15) 0.6215(4)
B2 B 0.1127(7) 0.15081(15) 0.7640(4)
B3 B 0.4253(7) 0.15248(15) 0.7035(4)
B4 B 0.3207(7) 0.21845(15) 0.8353(4)
C1 C 0.1922(6) 0.12258(14) 0.5592(3)
C2 C 0.0880(7) 0.12977(16) 0.5158(4)
H1 H 0.0753 0.1143 0.4780
H2 H 0.0933 0.1499 0.4931
H3 H 0.0287 0.1297 0.5485
C3 C 0.1856(8) 0.09096(14) 0.5941(4)
H4 H 0.1243 0.0902 0.6251
H5 H 0.2511 0.0870 0.6237
H6 H 0.1770 0.0755 0.5559
C4 C 0.2870(7) 0.12396(16) 0.5093(4)
H7 H 0.2746 0.1098 0.4686
H8 H 0.3526 0.1182 0.5370
H9 H 0.2941 0.1447 0.4906
C5 C 0.1871(6) 0.23699(13) 0.5537(3)
C6 C 0.2175(7) 0.22924(15) 0.4843(3)
H10 H 0.2408 0.2090 0.4756
C7 C 0.2147(6) 0.25011(14) 0.4274(4)
H11 H 0.2370 0.2444 0.3807
C8 C 0.1782(7) 0.28006(14) 0.4401(3)
C9 C 0.1456(7) 0.28780(15) 0.5080(4)
H12 H 0.1194 0.3077 0.5166
C10 C 0.1508(7) 0.26654(15) 0.5640(4)
H13 H 0.1289 0.2724 0.6107
C11 C 0.1808(8) 0.30227(16) 0.3795(4)
H14 H 0.2035 0.2944 0.3347
C12 C 0.0129(6) 0.24072(14) 0.7883(3)
C13 C 0.0560(6) 0.27363(14) 0.7863(4)
H15 H 0.0002 0.2878 0.8002
H16 H 0.0770 0.2784 0.7370
H17 H 0.1180 0.2756 0.8204
C14 C -0.0127(7) 0.23277(16) 0.8667(4)
H18 H 0.0532 0.2330 0.8976
H19 H -0.0448 0.2124 0.8679
H20 H -0.0627 0.2478 0.8847
C15 C -0.0866(7) 0.23839(16) 0.7372(4)
H21 H -0.1411 0.2525 0.7533
H22 H -0.1143 0.2175 0.7380
H23 H -0.0681 0.2436 0.6877
C16 C 0.0169(6) 0.13022(13) 0.7888(3)
C17 C -0.0871(6) 0.14184(15) 0.7929(3)
H24 H -0.0991 0.1629 0.7835
C18 C -0.1722(6) 0.12385(15) 0.8100(3)
H25 H -0.2413 0.1325 0.8120
C19 C -0.1570(6) 0.09301(15) 0.8243(3)
C20 C -0.0563(7) 0.08098(15) 0.8228(4)
H26 H -0.0456 0.0600 0.8335
C21 C 0.0308(6) 0.09894(14) 0.8057(4)
H27 H 0.0998 0.0901 0.8054
C22 C -0.2527(8) 0.07386(17) 0.8384(4)
H28 H -0.3193 0.0838 0.8426
C23 C 0.5198(6) 0.12974(13) 0.6829(3)
C24 C 0.5059(7) 0.09806(15) 0.6850(4)
H29 H 0.4384 0.0899 0.6957
C25 C 0.5898(8) 0.07843(16) 0.6714(4)
H30 H 0.5792 0.0570 0.6742
C26 C 0.6862(8) 0.0893(2) 0.6544(4)
C27 C 0.7022(8) 0.12070(19) 0.6508(4)
H31 H 0.7696 0.1285 0.6387
C28 C 0.6200(7) 0.14053(16) 0.6649(4)
H32 H 0.6319 0.1619 0.6624
C29 C 0.5047(7) 0.24345(15) 0.6659(4)
C30 C 0.5130(7) 0.23871(17) 0.5828(3)
H33 H 0.5558 0.2551 0.5630
H34 H 0.4414 0.2390 0.5591
H35 H 0.5469 0.2190 0.5740
C31 C 0.6136(6) 0.24077(15) 0.7059(4)
H36 H 0.6621 0.2560 0.6871
H37 H 0.6427 0.2203 0.6984
H38 H 0.6061 0.2442 0.7580
C32 C 0.4552(7) 0.27555(15) 0.6788(4)
H39 H 0.4405 0.2778 0.7303
H40 H 0.3887 0.2776 0.6491
H41 H 0.5055 0.2914 0.6650
C33 C 0.3441(6) 0.24135(13) 0.9001(3)
C34 C 0.4269(6) 0.26276(15) 0.9000(4)
H42 H 0.4743 0.2628 0.8613
C35 C 0.4407(7) 0.28405(14) 0.9560(4)
H43 H 0.4966 0.2986 0.9547
C36 C 0.3731(7) 0.28421(13) 1.0140(3)
C37 C 0.2915(7) 0.26291(15) 1.0157(3)
H44 H 0.2450 0.2627 1.0549
C38 C 0.2786(6) 0.24220(15) 0.9602(3)
H45 H 0.2228 0.2277 0.9624
C39 C 0.3893(7) 0.30733(15) 1.0712(4)
H46 H 0.4529 0.3191 1.0720
C40 C 0.3493(7) 0.13016(14) 0.9131(3)
C41 C 0.4459(7) 0.14314(17) 0.9567(4)
H47 H 0.4300 0.1639 0.9724
H48 H 0.5076 0.1435 0.9261
H49 H 0.4619 0.1303 0.9994
C42 C 0.2513(7) 0.13037(15) 0.9602(3)
H50 H 0.1902 0.1214 0.9327
H51 H 0.2346 0.1514 0.9735
H52 H 0.2669 0.1184 1.0044
C43 C 0.3729(7) 0.09771(14) 0.8861(4)
H53 H 0.3843 0.0841 0.9280
H54 H 0.4371 0.0980 0.8580
H55 H 0.3124 0.0904 0.8554
O15 O 0.1595(7) 0.32744(14) 0.3793(4)
O16 O 0.8522(10) 0.0706(3) 0.6159(6)
C44 C 0.7675(13) 0.0659(4) 0.6359(12)
H56 H 0.7476 0.0451 0.6410
P5 P -0.29242(16) 0.10071(3) 0.34000(8)
P6 P -0.19584(16) 0.09697(3) 0.13876(8)
P7 P -0.40986(16) 0.03804(3) 0.20509(9)
P8 P -0.10998(16) 0.03290(3) 0.27863(9)
O17 O -0.3830(4) 0.10440(9) 0.2822(2)
O18 O -0.2969(4) 0.11054(9) 0.1689(2)
O19 O -0.1053(4) 0.09735(9) 0.1961(2)
O20 O -0.1843(4) 0.10909(9) 0.3093(2)
O21 O -0.2933(4) 0.06853(9) 0.3726(2)
O22 O -0.4313(4) 0.07100(9) 0.1803(2)
O23 O -0.2141(4) 0.06466(9) 0.1093(2)
O24 O -0.0700(4) 0.06441(9) 0.3017(2)
O25 O -0.2151(4) 0.02525(9) 0.3126(2)
O26 O -0.4008(4) 0.03634(8) 0.2889(2)
O27 O -0.3108(4) 0.02474(9) 0.1711(2)
O28 O -0.1200(4) 0.03056(9) 0.1955(2)
O29 O -0.8279(6) 0.18591(14) 0.1057(4)
O30 O 0.3064(5) 0.19771(11) 0.3257(3)
O31 O -0.3187(5) -0.05444(11) 0.6339(3)
O32 O -0.1718(6) -0.07982(12) -0.1012(3)
B5 B -0.4014(7) 0.10241(17) 0.2019(4)
B6 B -0.0874(8) 0.09672(15) 0.2762(4)
B7 B -0.3126(7) 0.03689(16) 0.3462(4)
B8 B -0.2090(7) 0.03320(15) 0.1370(4)
C45 C -0.3135(6) 0.12717(14) 0.4113(3)
C46 C -0.3240(7) 0.15956(14) 0.3777(4)
H57 H -0.3311 0.1746 0.4166
H58 H -0.3872 0.1604 0.3443
H59 H -0.2603 0.1642 0.3510
C47 C -0.2169(7) 0.12640(16) 0.4650(4)
H60 H -0.2298 0.1398 0.5063
H61 H -0.1536 0.1334 0.4407
H62 H -0.2054 0.1055 0.4825
C48 C -0.4144(7) 0.11940(15) 0.4507(4)
H63 H -0.4072 0.0990 0.4723
H64 H -0.4761 0.1198 0.4160
H65 H -0.4245 0.1344 0.4891
C49 C -0.4922(6) 0.12574(14) 0.1757(3)
C50 C -0.5988(7) 0.11677(15) 0.1690(3)
H66 H -0.6162 0.0961 0.1777
C51 C -0.6816(6) 0.13734(16) 0.1498(4)
H67 H -0.7536 0.1306 0.1453
C52 C -0.6559(8) 0.16759(16) 0.1376(3)
C53 C -0.5506(7) 0.17717(16) 0.1440(4)
H68 H -0.5336 0.1979 0.1354
C54 C -0.4703(7) 0.15671(13) 0.1628(4)
H69 H -0.3987 0.1637 0.1672
C55 C -0.7377(9) 0.19045(19) 0.1169(4)
H70 H -0.7142 0.2109 0.1122
C56 C -0.1619(6) 0.12137(14) 0.0642(3)
C57 C -0.2556(7) 0.12136(16) 0.0076(4)
H71 H -0.3183 0.1304 0.0289
H72 H -0.2717 0.1004 -0.0074
H73 H -0.2366 0.1333 -0.0348
C58 C -0.0584(7) 0.10907(16) 0.0304(4)
H74 H -0.0346 0.1236 -0.0059
H75 H -0.0734 0.0894 0.0070
H76 H -0.0023 0.1065 0.0688
C59 C -0.1413(7) 0.15335(14) 0.0932(4)
H77 H -0.1266 0.1670 0.0527
H78 H -0.0798 0.1531 0.1280
H79 H -0.2043 0.1606 0.1174
C60 C 0.0158(6) 0.11676(13) 0.2977(3)
C61 C 0.0121(6) 0.14846(14) 0.3023(4)
H80 H -0.0556 0.1581 0.2985
C62 C 0.1016(7) 0.16646(15) 0.3121(4)
H81 H 0.0954 0.1880 0.3160
C63 C 0.2025(6) 0.15238(13) 0.3161(3)
C64 C 0.2092(6) 0.12060(14) 0.3141(3)
H82 H 0.2768 0.1109 0.3191
C65 C 0.1170(6) 0.10327(14) 0.3048(3)
H83 H 0.1227 0.0817 0.3033
C66 C 0.3032(7) 0.16989(16) 0.3233(4)
H84 H 0.3685 0.1590 0.3262
C67 C -0.3389(6) 0.01485(14) 0.4117(3)
C68 C -0.2796(6) 0.01679(14) 0.4776(3)
H85 H -0.2294 0.0328 0.4848
C69 C -0.2927(7) -0.00451(15) 0.5338(4)
H86 H -0.2517 -0.0027 0.5784
C70 C -0.3658(6) -0.02822(13) 0.5239(3)
C71 C -0.4262(7) -0.03026(14) 0.4604(4)
H87 H -0.4768 -0.0462 0.4538
C72 C -0.4140(6) -0.00880(14) 0.4045(3)
H88 H -0.4576 -0.0104 0.3610
C73 C -0.3784(8) -0.05131(16) 0.5803(4)
H89 H -0.4374 -0.0648 0.5746
C74 C -0.5194(6) 0.01491(14) 0.1724(3)
C75 C -0.4881(7) -0.01879(14) 0.1804(4)
H90 H -0.4641 -0.0229 0.2309
H91 H -0.4303 -0.0234 0.1482
H92 H -0.5499 -0.0316 0.1672
C76 C -0.6181(7) 0.02102(16) 0.2158(4)
H93 H -0.6759 0.0074 0.1989
H94 H -0.6406 0.0422 0.2087
H95 H -0.6008 0.0174 0.2675
C77 C -0.5419(8) 0.02198(17) 0.0911(4)
H96 H -0.5931 0.0072 0.0701
H97 H -0.4753 0.0207 0.0656
H98 H -0.5716 0.0426 0.0857
C78 C -0.1866(6) 0.00932(13) 0.0728(3)
C79 C -0.1985(8) -0.02169(15) 0.0823(4)
H99 H -0.2179 -0.0290 0.1284
C80 C -0.1834(8) -0.04231(15) 0.0275(4)
H100 H -0.1950 -0.0634 0.0356
C81 C -0.1517(7) -0.03260(14) -0.0385(4)
C82 C -0.1367(10) -0.00218(16) -0.0486(4)
H101 H -0.1123 0.0050 -0.0936
C83 C -0.1567(9) 0.01817(16) 0.0060(4)
H102 H -0.1494 0.0393 -0.0034
C84 C -0.1396(8) -0.05423(15) -0.0994(4)
H103 H -0.1033 -0.0472 -0.1402
C85 C -0.0152(6) 0.00514(14) 0.3121(3)
C86 C 0.0868(6) 0.00692(15) 0.2726(4)
H104 H 0.1175 0.0273 0.2786
H105 H 0.0718 0.0028 0.2208
H106 H 0.1373 -0.0082 0.2928
C87 C 0.0049(7) 0.01030(18) 0.3947(4)
H107 H 0.0512 -0.0059 0.4150
H108 H -0.0632 0.0100 0.4185
H109 H 0.0395 0.0301 0.4030
C88 C -0.0685(8) -0.02700(15) 0.2993(4)
H110 H -0.0848 -0.0300 0.2471
H111 H -0.1345 -0.0281 0.3254
H112 H -0.0194 -0.0429 0.3173
C89? C 0.7933(17) 0.0755(6) 0.646(3)
H113? H 0.1354 0.3192 0.3863
H114? H 0.8552 0.0880 0.6496
O33? O 0.2229(15) 0.3039(4) 0.3284(7)
O34? O 0.801(2) 0.0501(4) 0.6354(11)
loop_
_geom_bond_atom_site_label_1
_geom_bond_atom_site_label_2
_geom_bond_site_symmetry_1
_geom_bond_site_symmetry_2
P1 O1 1_555 1_555
P2 O2 1_555 1_555
P3 O6 1_555 1_555
P4 O8 1_555 1_555
O1 B1 1_555 1_555
O2 B1 1_555 1_555
O3 P2 1_555 1_555
O4 P1 1_555 1_555
O5 P1 1_555 1_555
O6 B1 1_555 1_555
O7 P2 1_555 1_555
O8 B2 1_555 1_555
O9 P4 1_555 1_555
O10 P3 1_555 1_555
O11 P3 1_555 1_555
O12 P4 1_555 1_555
O13 C22 1_555 1_555
O14 C39 1_555 1_555
B1 C5 1_555 1_555
B2 O3 1_555 1_555
B3 O5 1_555 1_555
B4 O7 1_555 1_555
C1 P1 1_555 1_555
C2 C1 1_555 1_555
H1 C2 1_555 1_555
H2 C2 1_555 1_555
H3 C2 1_555 1_555
C3 C1 1_555 1_555
H4 C3 1_555 1_555
H5 C3 1_555 1_555
H6 C3 1_555 1_555
C4 C1 1_555 1_555
H7 C4 1_555 1_555
H8 C4 1_555 1_555
H9 C4 1_555 1_555
C5 C6 1_555 1_555
C6 H10 1_555 1_555
C7 C6 1_555 1_555
H11 C7 1_555 1_555
C8 C7 1_555 1_555
C9 C8 1_555 1_555
H12 C9 1_555 1_555
C10 C5 1_555 1_555
H13 C10 1_555 1_555
C11 C8 1_555 1_555
H14 C11 1_555 1_555
C12 P2 1_555 1_555
C13 C12 1_555 1_555
H15 C13 1_555 1_555
H16 C13 1_555 1_555
H17 C13 1_555 1_555
C14 C12 1_555 1_555
H18 C14 1_555 1_555
H19 C14 1_555 1_555
H20 C14 1_555 1_555
C15 C12 1_555 1_555
H21 C15 1_555 1_555
H22 C15 1_555 1_555
H23 C15 1_555 1_555
C16 B2 1_555 1_555
C17 C16 1_555 1_555
H24 C17 1_555 1_555
C18 C17 1_555 1_555
H25 C18 1_555 1_555
C19 C18 1_555 1_555
C20 C19 1_555 1_555
H26 C20 1_555 1_555
C21 C16 1_555 1_555
H27 C21 1_555 1_555
C22 C19 1_555 1_555
H28 C22 1_555 1_555
C23 B3 1_555 1_555
C24 C23 1_555 1_555
H29 C24 1_555 1_555
C25 C24 1_555 1_555
H30 C25 1_555 1_555
C26 C25 1_555 1_555
C27 C26 1_555 1_555
H31 C27 1_555 1_555
C28 C23 1_555 1_555
H32 C28 1_555 1_555
C29 P3 1_555 1_555
C30 C29 1_555 1_555
H33 C30 1_555 1_555
H34 C30 1_555 1_555
H35 C30 1_555 1_555
C31 C29 1_555 1_555
H36 C31 1_555 1_555
H37 C31 1_555 1_555
H38 C31 1_555 1_555
C32 C29 1_555 1_555
H39 C32 1_555 1_555
H40 C32 1_555 1_555
H41 C32 1_555 1_555
C33 B4 1_555 1_555
C34 C33 1_555 1_555
H42 C34 1_555 1_555
C35 C34 1_555 1_555
H43 C35 1_555 1_555
C36 C35 1_555 1_555
C37 C36 1_555 1_555
H44 C37 1_555 1_555
C38 C33 1_555 1_555
H45 C38 1_555 1_555
C39 C36 1_555 1_555
H46 C39 1_555 1_555
C40 P4 1_555 1_555
C41 C40 1_555 1_555
H47 C41 1_555 1_555
H48 C41 1_555 1_555
H49 C41 1_555 1_555
C42 C40 1_555 1_555
H50 C42 1_555 1_555
H51 C42 1_555 1_555
H52 C42 1_555 1_555
C43 C40 1_555 1_555
H53 C43 1_555 1_555
H54 C43 1_555 1_555
H55 C43 1_555 1_555
O15 C11 1_555 1_555
O16 C44 1_555 1_555
C44 C26 1_555 1_555
H56 C44 1_555 1_555
P5 O17 1_555 1_555
P6 O18 1_555 1_555
P7 O22 1_555 1_555
P8 O24 1_555 1_555
O17 B5 1_555 1_555
O18 B5 1_555 1_555
O19 P6 1_555 1_555
O20 P5 1_555 1_555
O21 P5 1_555 1_555
O22 B5 1_555 1_555
O23 P6 1_555 1_555
O24 B6 1_555 1_555
O25 P8 1_555 1_555
O26 P7 1_555 1_555
O27 P7 1_555 1_555
O28 P8 1_555 1_555
O29 C55 1_555 1_555
O30 C66 1_555 1_555
O31 C73 1_555 1_555
O32 C84 1_555 1_555
B5 C49 1_555 1_555
B6 O19 1_555 1_555
B7 O21 1_555 1_555
B8 O23 1_555 1_555
C45 P5 1_555 1_555
C46 C45 1_555 1_555
H57 C46 1_555 1_555
H58 C46 1_555 1_555
H59 C46 1_555 1_555
C47 C45 1_555 1_555
H60 C47 1_555 1_555
H61 C47 1_555 1_555
H62 C47 1_555 1_555
C48 C45 1_555 1_555
H63 C48 1_555 1_555
H64 C48 1_555 1_555
H65 C48 1_555 1_555
C49 C50 1_555 1_555
C50 H66 1_555 1_555
C51 C50 1_555 1_555
H67 C51 1_555 1_555
C52 C51 1_555 1_555
C53 C52 1_555 1_555
H68 C53 1_555 1_555
C54 C49 1_555 1_555
H69 C54 1_555 1_555
C55 C52 1_555 1_555
H70 C55 1_555 1_555
C56 P6 1_555 1_555
C57 C56 1_555 1_555
H71 C57 1_555 1_555
H72 C57 1_555 1_555
H73 C57 1_555 1_555
C58 C56 1_555 1_555
H74 C58 1_555 1_555
H75 C58 1_555 1_555
H76 C58 1_555 1_555
C59 C56 1_555 1_555
H77 C59 1_555 1_555
H78 C59 1_555 1_555
H79 C59 1_555 1_555
C60 B6 1_555 1_555
C61 C60 1_555 1_555
H80 C61 1_555 1_555
C62 C61 1_555 1_555
H81 C62 1_555 1_555
C63 C62 1_555 1_555
C64 C63 1_555 1_555
H82 C64 1_555 1_555
C65 C60 1_555 1_555
H83 C65 1_555 1_555
C66 C63 1_555 1_555
H84 C66 1_555 1_555
C67 B7 1_555 1_555
C68 C67 1_555 1_555
H85 C68 1_555 1_555
C69 C68 1_555 1_555
H86 C69 1_555 1_555
C70 C69 1_555 1_555
C71 C70 1_555 1_555
H87 C71 1_555 1_555
C72 C67 1_555 1_555
H88 C72 1_555 1_555
C73 C70 1_555 1_555
H89 C73 1_555 1_555
C74 P7 1_555 1_555
C75 C74 1_555 1_555
H90 C75 1_555 1_555
H91 C75 1_555 1_555
H92 C75 1_555 1_555
C76 C74 1_555 1_555
H93 C76 1_555 1_555
H94 C76 1_555 1_555
H95 C76 1_555 1_555
C77 C74 1_555 1_555
H96 C77 1_555 1_555
H97 C77 1_555 1_555
H98 C77 1_555 1_555
C78 B8 1_555 1_555
C79 C78 1_555 1_555
H99 C79 1_555 1_555
C80 C79 1_555 1_555
H100 C80 1_555 1_555
C81 C80 1_555 1_555
C82 C81 1_555 1_555
H101 C82 1_555 1_555
C83 C78 1_555 1_555
H102 C83 1_555 1_555
C84 C81 1_555 1_555
H103 C84 1_555 1_555
C85 P8 1_555 1_555
C86 C85 1_555 1_555
H104 C86 1_555 1_555
H105 C86 1_555 1_555
H106 C86 1_555 1_555
C87 C85 1_555 1_555
H107 C87 1_555 1_555
H108 C87 1_555 1_555
H109 C87 1_555 1_555
C88 C85 1_555 1_555
H110 C88 1_555 1_555
H111 C88 1_555 1_555
H112 C88 1_555 1_555
O4 B2 1_555 1_555
O9 B3 1_555 1_555
O10 B3 1_555 1_555
O11 B4 1_555 1_555
O12 B4 1_555 1_555
C9 C10 1_555 1_555
C20 C21 1_555 1_555
C27 C28 1_555 1_555
C37 C38 1_555 1_555
O20 B6 1_555 1_555
O25 B7 1_555 1_555
O26 B7 1_555 1_555
O27 B8 1_555 1_555
O28 B8 1_555 1_555
C53 C54 1_555 1_555
C64 C65 1_555 1_555
C71 C72 1_555 1_555
C82 C83 1_555 1_555

#END
