
#######################################################################
#
#                 Cambridge Crystallographic Data Centre
#                                CCDC 
#
#######################################################################
#
# If this CIF has been generated from an entry in the Cambridge 
# Structural Database, then it will include bibliographic, chemical, 
# crystal, experimental, refinement or atomic coordinate data resulting 
# from the CCDC's data processing and validation procedures.
#
#######################################################################

data_LEJWEE
_chemical_formula_moiety         'C48 H56 B4 O20 P4'
_chemical_name_systematic        
'3,7,11,15-Tetra-t-butyl-1,5,9,13-tetrakis(3,5-diformylphenyl)-1,5,9,13-tetrabora-2,4,6,8,10,12,14,16,17,18,19,20-dodecaoxa-3,7,11,15-tetraphosphapentacyclo[9.5.1.1^3,9^.1^5,15^.1^7,13^]icosane unknown solvate'
_symmetry_cell_setting           monoclinic
_symmetry_space_group_name_H-M   'C 2/c'
_symmetry_Int_Tables_number      15
_space_group_name_Hall           '-C 2yn'
loop_
_symmetry_equiv_pos_site_id
_symmetry_equiv_pos_as_xyz
1 x,y,z
2 -x,y,1/2-z
3 1/2+x,1/2+y,z
4 1/2-x,1/2+y,1/2-z
5 -x,-y,-z
6 x,-y,1/2+z
7 1/2-x,1/2-y,-z
8 1/2+x,1/2-y,1/2+z
_cell_length_a                   24.222(9)
_cell_length_b                   21.747(5)
_cell_length_c                   24.833(10)
_cell_angle_alpha                90
_cell_angle_beta                 117.170(17)
_cell_angle_gamma                90
_cell_volume                     11637.5
_exptl_crystal_colour            colorless
_exptl_crystal_description       prismatic
_cell_formula_units_Z            8
loop_
_atom_site_label
_atom_site_type_symbol
_atom_site_fract_x
_atom_site_fract_y
_atom_site_fract_z
P1 P 0.30157(4) 0.45416(4) 0.19585(4)
P2 P 0.24561(4) 0.59851(4) 0.25395(4)
P3 P 0.15398(4) 0.54822(4) 0.08225(4)
P4 P 0.14434(4) 0.44627(4) 0.20924(4)
O1 O 0.29641(10) 0.44277(10) 0.25462(10)
O2 O 0.28256(10) 0.54276(10) 0.29105(10)
O3 O 0.25763(10) 0.61054(10) 0.19947(10)
O4 O 0.31400(10) 0.52252(10) 0.18883(10)
O5 O 0.20383(10) 0.46472(10) 0.26478(10)
O6 O 0.17562(10) 0.59047(10) 0.23322(10)
O7 O 0.22264(10) 0.56326(10) 0.10161(10)
O8 O 0.24354(11) 0.43161(10) 0.14014(10)
O9 O 0.10452(10) 0.50417(9) 0.18152(10)
O10 O 0.13131(10) 0.57951(10) 0.12406(10)
O11 O 0.14333(10) 0.47841(10) 0.07935(10)
O12 O 0.15743(11) 0.41118(10) 0.16269(10)
O13 O 0.3901(2) 0.27516(16) 0.41660(17)
O14 O 0.27195(17) 0.54432(14) 0.49590(14)
O15 O 0.18675(13) 0.25615(13) -0.08533(13)
O16 O 0.01798(15) 0.23229(15) 0.05344(15)
O17 O -0.11280(14) 0.55489(14) 0.16083(18)
O18 O -0.01519(13) 0.82195(12) 0.14335(15)
B1 B 0.27158(17) 0.47515(17) 0.29168(17)
B2 B 0.27926(18) 0.57911(17) 0.15920(17)
B3 B 0.17526(18) 0.42183(17) 0.11366(18)
B4 B 0.11874(17) 0.57069(16) 0.17719(17)
C1 C 0.36751(15) 0.41094(15) 0.20214(16)
C2 C 0.42484(16) 0.43249(17) 0.25973(18)
H1 H 0.4608 0.4075 0.2657
H2 H 0.4168 0.4279 0.2948
H3 H 0.4333 0.4758 0.2553
C3 C 0.3768(2) 0.42217(19) 0.14560(19)
H4 H 0.3860 0.4657 0.1435
H5 H 0.3389 0.4109 0.1093
H6 H 0.4114 0.3970 0.1480
C4 C 0.35494(17) 0.34179(15) 0.20696(17)
H7 H 0.3908 0.3176 0.2111
H8 H 0.3181 0.3289 0.1704
H9 H 0.3480 0.3351 0.2424
C5 C 0.30077(16) 0.44949(15) 0.35954(15)
C6 C 0.33215(18) 0.39368(16) 0.37730(17)
H10 H 0.3406 0.3712 0.3491
C7 C 0.3516(2) 0.36982(18) 0.43566(18)
C8 C 0.3396(2) 0.40238(18) 0.47744(17)
H11 H 0.3526 0.3864 0.5170
C9 C 0.30871(19) 0.45829(17) 0.46107(17)
C10 C 0.28887(17) 0.48082(16) 0.40223(16)
H12 H 0.2667 0.5185 0.3911
C11 C 0.3812(3) 0.3082(2) 0.4515(2)
H13 H 0.3940 0.2936 0.4915
C12 C 0.2955(2) 0.4934(2) 0.50530(19)
H14 H 0.3062 0.4749 0.5435
C13 C 0.27468(16) 0.66518(15) 0.30259(16)
C14 C 0.27148(19) 0.65364(19) 0.36249(18)
H15 H 0.3010 0.6213 0.3855
H16 H 0.2294 0.6407 0.3536
H17 H 0.2820 0.6916 0.3864
C15 C 0.23618(18) 0.72190(16) 0.2695(2)
H18 H 0.2545 0.7588 0.2939
H19 H 0.1935 0.7169 0.2634
H20 H 0.2360 0.7261 0.2301
C16 C 0.34301(16) 0.67443(16) 0.31639(18)
H21 H 0.3452 0.6828 0.2786
H22 H 0.3667 0.6371 0.3352
H23 H 0.3605 0.7092 0.3441
C17 C 0.32227(16) 0.62606(15) 0.14544(16)
C18 C 0.29736(19) 0.68206(16) 0.11657(18)
H24 H 0.2545 0.6899 0.1034
C19 C 0.3333(2) 0.72715(17) 0.10631(18)
C20 C 0.3955(2) 0.7158(2) 0.1256(2)
H25 H 0.4207 0.7462 0.1200
C21 C 0.4216(2) 0.6606(2) 0.1530(2)
C22 C 0.38537(18) 0.6166(2) 0.1635(2)
H26 H 0.4042 0.5794 0.1834
C23 C 0.3028(3) 0.7856(2) 0.0752(3)
H27 H 0.3296 0.8186 0.0780
C24 C 0.10852(17) 0.57801(16) 0.00677(15)
C25 C 0.0408(2) 0.5568(2) -0.0158(2)
H28 H 0.0147 0.5752 -0.0555
H29 H 0.0259 0.5697 0.0130
H30 H 0.0387 0.5118 -0.0194
C26 C 0.1113(2) 0.64884(17) 0.00894(19)
H31 H 0.1541 0.6624 0.0218
H32 H 0.0971 0.6638 0.0378
H33 H 0.0844 0.6654 -0.0314
C27 C 0.1348(2) 0.5529(2) -0.03468(18)
H34 H 0.1096 0.5679 -0.0760
H35 H 0.1338 0.5079 -0.0345
H36 H 0.1777 0.5669 -0.0200
C28 C 0.15592(15) 0.36387(14) 0.06872(15)
C29 C 0.18352(16) 0.35367(15) 0.03075(15)
H37 H 0.2146 0.3813 0.0324
C30 C 0.16676(16) 0.30407(15) -0.00958(15)
C31 C 0.12099(16) 0.26276(15) -0.01269(15)
H38 H 0.1095 0.2289 -0.0398
C32 C 0.09261(16) 0.27170(15) 0.02427(16)
C33 C 0.11051(16) 0.32208(15) 0.06485(15)
H39 H 0.0910 0.3276 0.0902
C34 C 0.19791(18) 0.29669(18) -0.04803(17)
H40 H 0.2291 0.3258 -0.0434
C35 C 0.04404(19) 0.22876(19) 0.02217(18)
H41 H 0.0326 0.1959 -0.0061
C36 C 0.10392(15) 0.39300(15) 0.23460(16)
C37 C 0.14381(17) 0.33435(15) 0.25678(18)
H42 H 0.1842 0.3447 0.2904
H43 H 0.1498 0.3167 0.2235
H44 H 0.1227 0.3044 0.2705
C38 C 0.03992(16) 0.37707(17) 0.18236(17)
H45 H 0.0187 0.3479 0.1967
H46 H 0.0453 0.3586 0.1491
H47 H 0.0151 0.4146 0.1681
C39 C 0.09652(18) 0.42257(17) 0.28716(17)
H48 H 0.0696 0.4588 0.2724
H49 H 0.1373 0.4350 0.3189
H50 H 0.0779 0.3928 0.3037
C40 C 0.06163(15) 0.61321(14) 0.16969(15)
C41 C 0.00820(16) 0.59134(15) 0.17107(16)
H51 H 0.0034 0.5484 0.1743
C42 C -0.03890(16) 0.63144(17) 0.16777(17)
C43 C -0.03297(16) 0.69461(16) 0.16280(17)
H52 H -0.0642 0.7218 0.1617
C44 C 0.01883(16) 0.71759(16) 0.15944(16)
C45 C 0.06549(15) 0.67748(15) 0.16290(16)
H53 H 0.1007 0.6938 0.1606
C46 C -0.09600(18) 0.6081(2) 0.1683(2)
H54 H -0.1215 0.6370 0.1751
C47 C 0.02513(18) 0.78481(16) 0.15131(18)
H55 H 0.0627 0.7992 0.1524
O19 O 0.2495(3) 0.7951(2) 0.0477(3)
O20 O 0.5149(2) 0.5938(3) 0.1869(3)
C48 C 0.4879(3) 0.6401(4) 0.1628(4)
H56 H 0.5087 0.6671 0.1480
C49? C 0.4912(5) 0.6658(6) 0.1952(5)
H57? H 0.2593 0.7837 0.0498
H58? H 0.5094 0.6314 0.2209
O21? O 0.3263(9) 0.8332(5) 0.0784(8)
O22? O 0.5256(4) 0.7066(4) 0.2004(4)
loop_
_geom_bond_atom_site_label_1
_geom_bond_atom_site_label_2
_geom_bond_site_symmetry_1
_geom_bond_site_symmetry_2
P1 O1 1_555 1_555
P2 O2 1_555 1_555
P3 O7 1_555 1_555
P4 O5 1_555 1_555
O1 B1 1_555 1_555
O2 B1 1_555 1_555
O3 P2 1_555 1_555
O4 P1 1_555 1_555
O5 B1 1_555 1_555
O6 P2 1_555 1_555
O7 B2 1_555 1_555
O8 P1 1_555 1_555
O9 P4 1_555 1_555
O10 P3 1_555 1_555
O11 P3 1_555 1_555
O12 P4 1_555 1_555
O13 C11 1_555 1_555
O14 C12 1_555 1_555
O15 C34 1_555 1_555
O16 C35 1_555 1_555
O17 C46 1_555 1_555
O18 C47 1_555 1_555
B1 C5 1_555 1_555
B2 O3 1_555 1_555
B3 O8 1_555 1_555
B4 O6 1_555 1_555
C1 P1 1_555 1_555
C2 C1 1_555 1_555
H1 C2 1_555 1_555
H2 C2 1_555 1_555
H3 C2 1_555 1_555
C3 C1 1_555 1_555
H4 C3 1_555 1_555
H5 C3 1_555 1_555
H6 C3 1_555 1_555
C4 C1 1_555 1_555
H7 C4 1_555 1_555
H8 C4 1_555 1_555
H9 C4 1_555 1_555
C5 C6 1_555 1_555
C6 H10 1_555 1_555
C7 C6 1_555 1_555
C8 C7 1_555 1_555
H11 C8 1_555 1_555
C9 C8 1_555 1_555
C10 C5 1_555 1_555
H12 C10 1_555 1_555
C11 C7 1_555 1_555
H13 C11 1_555 1_555
C12 C9 1_555 1_555
H14 C12 1_555 1_555
C13 P2 1_555 1_555
C14 C13 1_555 1_555
H15 C14 1_555 1_555
H16 C14 1_555 1_555
H17 C14 1_555 1_555
C15 C13 1_555 1_555
H18 C15 1_555 1_555
H19 C15 1_555 1_555
H20 C15 1_555 1_555
C16 C13 1_555 1_555
H21 C16 1_555 1_555
H22 C16 1_555 1_555
H23 C16 1_555 1_555
C17 B2 1_555 1_555
C18 C17 1_555 1_555
H24 C18 1_555 1_555
C19 C18 1_555 1_555
C20 C19 1_555 1_555
H25 C20 1_555 1_555
C21 C20 1_555 1_555
C22 C17 1_555 1_555
H26 C22 1_555 1_555
C23 C19 1_555 1_555
H27 C23 1_555 1_555
C24 P3 1_555 1_555
C25 C24 1_555 1_555
H28 C25 1_555 1_555
H29 C25 1_555 1_555
H30 C25 1_555 1_555
C26 C24 1_555 1_555
H31 C26 1_555 1_555
H32 C26 1_555 1_555
H33 C26 1_555 1_555
C27 C24 1_555 1_555
H34 C27 1_555 1_555
H35 C27 1_555 1_555
H36 C27 1_555 1_555
C28 B3 1_555 1_555
C29 C28 1_555 1_555
H37 C29 1_555 1_555
C30 C29 1_555 1_555
C31 C30 1_555 1_555
H38 C31 1_555 1_555
C32 C31 1_555 1_555
C33 C28 1_555 1_555
H39 C33 1_555 1_555
C34 C30 1_555 1_555
H40 C34 1_555 1_555
C35 C32 1_555 1_555
H41 C35 1_555 1_555
C36 P4 1_555 1_555
C37 C36 1_555 1_555
H42 C37 1_555 1_555
H43 C37 1_555 1_555
H44 C37 1_555 1_555
C38 C36 1_555 1_555
H45 C38 1_555 1_555
H46 C38 1_555 1_555
H47 C38 1_555 1_555
C39 C36 1_555 1_555
H48 C39 1_555 1_555
H49 C39 1_555 1_555
H50 C39 1_555 1_555
C40 B4 1_555 1_555
C41 C40 1_555 1_555
H51 C41 1_555 1_555
C42 C41 1_555 1_555
C43 C42 1_555 1_555
H52 C43 1_555 1_555
C44 C43 1_555 1_555
C45 C40 1_555 1_555
H53 C45 1_555 1_555
C46 C42 1_555 1_555
H54 C46 1_555 1_555
C47 C44 1_555 1_555
H55 C47 1_555 1_555
O19 C23 1_555 1_555
O20 C48 1_555 1_555
C48 C21 1_555 1_555
H56 C48 1_555 1_555
O4 B2 1_555 1_555
O9 B4 1_555 1_555
O10 B4 1_555 1_555
O11 B3 1_555 1_555
O12 B3 1_555 1_555
C9 C10 1_555 1_555
C21 C22 1_555 1_555
C32 C33 1_555 1_555
C44 C45 1_555 1_555

#END
