
#######################################################################
#
#                 Cambridge Crystallographic Data Centre
#                                CCDC 
#
#######################################################################
#
# If this CIF has been generated from an entry in the Cambridge 
# Structural Database, then it will include bibliographic, chemical, 
# crystal, experimental, refinement or atomic coordinate data resulting 
# from the CCDC's data processing and validation procedures.
#
#######################################################################

data_LEJWIJ
_chemical_formula_moiety         'C15 H9 Cl2 N1 O1'
_chemical_name_systematic        
2-(2-(2,4-dichlorophenyl)vinyl)-1,3-benzoxazole
_symmetry_cell_setting           triclinic
_symmetry_space_group_name_H-M   'P -1'
_symmetry_Int_Tables_number      2
_space_group_name_Hall           '-P 1'
loop_
_symmetry_equiv_pos_site_id
_symmetry_equiv_pos_as_xyz
1 x,y,z
2 -x,-y,-z
_cell_length_a                   3.8654(3)
_cell_length_b                   11.7081(8)
_cell_length_c                   15.2188(11)
_cell_angle_alpha                108.900(6)
_cell_angle_beta                 96.132(6)
_cell_angle_gamma                93.421(6)
_cell_volume                     644.626
_exptl_crystal_colour            colorless
_exptl_crystal_description       rod-like
_cell_formula_units_Z            2
loop_
_atom_site_label
_atom_site_type_symbol
_atom_site_fract_x
_atom_site_fract_y
_atom_site_fract_z
Cl1 Cl 0.42902(15) 0.02546(4) 0.14643(3)
Cl2 Cl -0.07970(16) 0.32202(6) -0.02656(4)
O1 O 0.7044(3) 0.18123(10) 0.48759(8)
N1 N 0.9667(4) 0.36992(13) 0.56340(10)
C1 C 1.0673(5) 0.1148(2) 0.69524(15)
H1 H 1.0808 0.0545 0.7226
C2 C 0.8797(5) 0.08781(18) 0.60757(14)
H2 H 0.7666 0.0111 0.5744
C3 C 0.8712(4) 0.18198(16) 0.57250(11)
C4 C 1.0332(4) 0.29726(16) 0.61900(12)
C5 C 1.2234(5) 0.32254(19) 0.70727(13)
H3 H 1.3371 0.3992 0.7402
C6 C 1.2363(5) 0.2292(2) 0.74384(14)
H4 H 1.3616 0.2434 0.8026
C7 C 0.7769(5) 0.29795(15) 0.48824(12)
C8 C 0.6422(5) 0.32546(17) 0.40624(12)
H5 H 0.6653 0.4057 0.4080
C9 C 0.4862(5) 0.24086(16) 0.32807(12)
H6 H 0.4623 0.1615 0.3285
C10 C 0.3491(4) 0.26122(15) 0.24182(12)
C11 C 0.2460(5) 0.37385(17) 0.24137(13)
H7 H 0.2651 0.4375 0.2979
C12 C 0.1176(5) 0.39344(18) 0.16024(14)
H8 H 0.0519 0.4692 0.1621
C13 C 0.0872(5) 0.29944(18) 0.07599(13)
C14 C 0.1826(5) 0.18699(17) 0.07234(12)
H9 H 0.1609 0.1239 0.0155
C15 C 0.3112(4) 0.16941(15) 0.15458(12)
loop_
_geom_bond_atom_site_label_1
_geom_bond_atom_site_label_2
_geom_bond_site_symmetry_1
_geom_bond_site_symmetry_2
Cl1 C15 1_555 1_555
Cl2 C13 1_555 1_555
O1 C3 1_555 1_555
N1 C4 1_555 1_555
C1 H1 1_555 1_555
C2 C1 1_555 1_555
H2 C2 1_555 1_555
C3 C2 1_555 1_555
C4 C3 1_555 1_555
C5 C4 1_555 1_555
H3 C5 1_555 1_555
C6 C1 1_555 1_555
H4 C6 1_555 1_555
C7 O1 1_555 1_555
C8 C7 1_555 1_555
H5 C8 1_555 1_555
C9 C8 1_555 1_555
H6 C9 1_555 1_555
C10 C9 1_555 1_555
C11 C10 1_555 1_555
H7 C11 1_555 1_555
C12 C11 1_555 1_555
H8 C12 1_555 1_555
C13 C12 1_555 1_555
C14 C13 1_555 1_555
H9 C14 1_555 1_555
C15 C10 1_555 1_555
N1 C7 1_555 1_555
C5 C6 1_555 1_555
C14 C15 1_555 1_555

#END
