
#######################################################################
#
#                 Cambridge Crystallographic Data Centre
#                                CCDC 
#
#######################################################################
#
# If this CIF has been generated from an entry in the Cambridge 
# Structural Database, then it will include bibliographic, chemical, 
# crystal, experimental, refinement or atomic coordinate data resulting 
# from the CCDC's data processing and validation procedures.
#
#######################################################################

data_LEJYIJ01
_chemical_formula_moiety         'C3 H6 N5 O1 1+,N1 O3 1-'
_chemical_name_systematic        
'4,6-diamino-2-oxo-2,3-dihydro-1,3,5-triazin-1-ium nitrate'
_symmetry_cell_setting           monoclinic
_symmetry_space_group_name_H-M   'P 21/c'
_symmetry_Int_Tables_number      14
_space_group_name_Hall           '-P 2ybc'
loop_
_symmetry_equiv_pos_site_id
_symmetry_equiv_pos_as_xyz
1 x,y,z
2 -x,1/2+y,1/2-z
3 -x,-y,-z
4 x,1/2-y,1/2+z
_cell_length_a                   9.304(3)
_cell_length_b                   6.256(2)
_cell_length_c                   13.496(5)
_cell_angle_alpha                90
_cell_angle_beta                 108.025(4)
_cell_angle_gamma                90
_cell_volume                     746.992
_exptl_crystal_colour            colorless
_exptl_crystal_description       Platelet
_cell_formula_units_Z            4
loop_
_atom_site_label
_atom_site_type_symbol
_atom_site_fract_x
_atom_site_fract_y
_atom_site_fract_z
O1 O 0.29678(11) 0.41720(17) 0.18250(7)
N1 N 0.42750(12) 0.24762(17) 0.48518(8)
N2 N 0.23665(13) 0.33904(17) 0.32911(8)
N3 N 0.48473(12) 0.33102(18) 0.33053(8)
N4 N 0.67191(13) 0.25062(19) 0.48321(9)
N5 N 0.17752(13) 0.2493(2) 0.47705(9)
C1 C 0.52701(14) 0.27459(19) 0.43369(10)
C2 C 0.28260(15) 0.2776(2) 0.43160(9)
C3 C 0.33672(15) 0.3655(2) 0.27385(10)
H1 H 0.137(2) 0.348(3) 0.2938(14)
H2 H 0.548(2) 0.346(3) 0.2968(14)
H3 H 0.7428(19) 0.271(3) 0.4497(13)
H4 H 0.698(2) 0.216(3) 0.5477(16)
H5 H 0.082(2) 0.278(3) 0.4413(14)
H6 H 0.204(2) 0.215(3) 0.5420(16)
O2 O 0.87166(11) 0.37762(18) 0.35817(7)
O3 O 0.69190(10) 0.36318(16) 0.21013(7)
O4 O 0.92504(11) 0.33439(19) 0.21342(8)
N6 N 0.83002(12) 0.35768(18) 0.26101(9)
loop_
_geom_bond_atom_site_label_1
_geom_bond_atom_site_label_2
_geom_bond_site_symmetry_1
_geom_bond_site_symmetry_2
O1 C3 1_555 1_555
N1 C1 1_555 1_555
N2 C2 1_555 1_555
N3 C1 1_555 1_555
N4 C1 1_555 1_555
N5 C2 1_555 1_555
C2 N1 1_555 1_555
C3 N2 1_555 1_555
H1 N2 1_555 1_555
H2 N3 1_555 1_555
H3 N4 1_555 1_555
H4 N4 1_555 1_555
H5 N5 1_555 1_555
H6 N5 1_555 1_555
O2 N6 1_555 1_555
O3 N6 1_555 1_555
O4 N6 1_555 1_555
N3 C3 1_555 1_555

#END
