
#######################################################################
#
#                 Cambridge Crystallographic Data Centre
#                                CCDC 
#
#######################################################################
#
# If this CIF has been generated from an entry in the Cambridge 
# Structural Database, then it will include bibliographic, chemical, 
# crystal, experimental, refinement or atomic coordinate data resulting 
# from the CCDC's data processing and validation procedures.
#
#######################################################################

data_LEKKOE
_chemical_formula_moiety         
'C14 H15 N4 O3 1+,C14 H14 N4 O3,C6 H16 N1 1+,H2 O1,2(Cl1 1-)'
_chemical_name_systematic        
"amino-N-hydroxy{2-[2-(N'-hydroxycarbamimidoyl)phenoxy]phenyl}methaniminium triethylammonium chloride 2,2'-oxybis(N'-hydroxybenzene-1-carboximidamide) monohydrate"
_symmetry_cell_setting           triclinic
_symmetry_space_group_name_H-M   'P -1'
_symmetry_Int_Tables_number      2
_space_group_name_Hall           '-P 1'
loop_
_symmetry_equiv_pos_site_id
_symmetry_equiv_pos_as_xyz
1 x,y,z
2 -x,-y,-z
_cell_length_a                   11.5039(5)
_cell_length_b                   13.4991(6)
_cell_length_c                   13.6851(6)
_cell_angle_alpha                106.8850(10)
_cell_angle_beta                 108.7230(10)
_cell_angle_gamma                94.0300(10)
_cell_volume                     1894.35
_exptl_crystal_description       needle
_cell_formula_units_Z            2
loop_
_atom_site_label
_atom_site_type_symbol
_atom_site_fract_x
_atom_site_fract_y
_atom_site_fract_z
Cl1 Cl 0.08628(3) 1.00455(2) 0.74248(3)
Cl2 Cl 0.66630(3) 0.71941(3) 0.85536(3)
O1 O 0.36850(8) 0.81399(7) 0.31431(7)
O2 O 0.17447(10) 0.98088(7) 0.54598(8)
H1 H 0.1502 0.9916 0.5977
O3 O 0.02122(8) 0.63222(7) 0.10152(8)
H2 H -0.0372 0.6637 0.1013
N1 N 0.24282(10) 0.89635(8) 0.54290(9)
N2 N 0.13356(9) 0.70637(8) 0.13391(9)
N3 N 0.19449(11) 0.55449(9) 0.04066(10)
H3 H 0.2653 0.5338 0.0485
H4 H 0.1510 0.5179 0.0635
N4 N 0.14536(10) 0.85641(9) 0.35347(9)
H5 H 0.1055 0.9080 0.3612
H6 H 0.1360 0.8157 0.2891
C1 C 0.38121(11) 0.71496(10) 0.03748(10)
H7 H 0.3370 0.6655 -0.0310
C2 C 0.28264(12) 0.67548(10) 0.47935(11)
H8 H 0.2393 0.6852 0.5273
C3 C 0.28854(11) 0.74868(9) 0.42593(10)
C4 C 0.49080(13) 0.77876(11) 0.05284(12)
H9 H 0.5184 0.7724 -0.0052
C5 C 0.40767(10) 0.79673(9) 0.22590(10)
C6 C 0.35665(11) 0.73355(9) 0.35577(10)
C7 C 0.34088(13) 0.58799(10) 0.46177(12)
H10 H 0.3367 0.5399 0.4979
C8 C 0.51795(11) 0.85989(10) 0.24253(11)
H11 H 0.5643 0.9072 0.3116
C9 C 0.40522(14) 0.57352(11) 0.38970(12)
H12 H 0.4426 0.5146 0.3766
C10 C 0.22224(11) 0.83939(9) 0.44205(10)
C11 C 0.21426(11) 0.65849(9) 0.09981(10)
C12 C 0.33630(11) 0.72372(9) 0.12305(10)
C13 C 0.41447(12) 0.64620(10) 0.33677(11)
H13 H 0.4586 0.6365 0.2895
C14 C 0.55879(12) 0.85209(11) 0.15550(12)
H14 H 0.6311 0.8957 0.1659
O4 O 0.15840(8) 0.53281(6) 0.65884(7)
O5 O 0.36048(8) 0.88708(7) 0.73684(8)
H15 H 0.3368 0.8915 0.6752
O6 O 0.50718(8) 0.53850(7) 0.88462(7)
H16 H 0.5581 0.5806 0.8796
N5 N 0.40264(9) 0.49889(8) 0.78347(8)
N6 N 0.26137(9) 0.84001(8) 0.75381(9)
H17 H 0.2004 0.8719 0.7592
N7 N 0.35682(9) 0.69728(8) 0.75333(9)
H18 H 0.4176 0.7281 0.7429
H19 H 0.3575 0.6353 0.7584
N8 N 0.33812(11) 0.39916(9) 0.87847(9)
H20 H 0.4113 0.4270 0.9268
H21 H 0.2826 0.4205 0.9053
C15 C 0.13565(10) 0.42309(9) 0.62709(9)
C16 C 0.32481(11) 0.42860(9) 0.78963(9)
C17 C 0.01656(11) 0.25799(9) 0.49410(10)
H22 H -0.0483 0.2203 0.4291
C18 C 0.15657(10) 0.69653(9) 0.78136(9)
C19 C 0.26264(10) 0.74512(8) 0.76157(9)
C20 C 0.10771(10) 0.58831(9) 0.73210(9)
C21 C 0.21518(10) 0.37176(8) 0.68863(9)
C22 C 0.03657(11) 0.36748(9) 0.53101(10)
H23 H -0.0158 0.4031 0.4918
C23 C 0.19134(11) 0.26110(9) 0.65062(10)
H24 H 0.2418 0.2250 0.6906
C24 C 0.10533(12) 0.75844(10) 0.85273(10)
H25 H 0.1365 0.8303 0.8855
C25 C 0.09325(12) 0.20480(9) 0.55401(10)
H26 H 0.0790 0.1316 0.5295
C26 C -0.03922(13) 0.60567(11) 0.82477(12)
H27 H -0.1048 0.5758 0.8388
C27 C 0.00838(13) 0.71355(11) 0.87502(12)
H28 H -0.0246 0.7550 0.9230
C28 C 0.01049(12) 0.54282(10) 0.75414(11)
H29 H -0.0208 0.4710 0.7218
O7 O -0.15996(9) 0.75622(7) 0.10081(8)
H30 H -0.1438 0.8175 0.1475
H31 H -0.2043 0.7575 0.0382
N9 N 0.72351(10) 0.86618(9) 0.73081(9)
H32 H 0.7094 0.8271 0.7774
C29 C 0.59700(12) 0.86813(12) 0.65433(13)
H33 H 0.5522 0.9080 0.6967
H34 H 0.5506 0.7967 0.6184
C30 C 0.80177(13) 0.80878(12) 0.67327(15)
H35 H 0.8808 0.8083 0.7270
H36 H 0.8192 0.8458 0.6271
C31 C 0.60177(16) 0.91585(13) 0.56799(14)
H37 H 0.6366 0.8719 0.5199
H38 H 0.6528 0.9847 0.6027
H39 H 0.5189 0.9212 0.5267
C32 C 0.79157(17) 0.97550(13) 0.80629(13)
C33 C 0.73852(18) 0.69602(13) 0.60353(17)
H40 H 0.6650 0.6962 0.5451
H41 H 0.7156 0.6605 0.6479
H42 H 0.7949 0.6602 0.5736
C34 C 0.7522(4) 1.0142(3) 0.8930(3)
H43 H 0.6660 1.0202 0.8658
H44 H 0.8014 1.0822 0.9389
H45 H 0.7620 0.9670 0.9346
C35? C 0.8896(3) 0.9833(3) 0.9108(3)
H46? H 0.8556 0.9465 0.9487
H47? H 0.9191 1.0560 0.9552
H48? H 0.9576 0.9526 0.8964
H49? H 0.807(5) 1.012(4) 0.762(4)
loop_
_geom_bond_atom_site_label_1
_geom_bond_atom_site_label_2
_geom_bond_site_symmetry_1
_geom_bond_site_symmetry_2
O1 C5 1_555 1_555
O2 H1 1_555 1_555
O3 H2 1_555 1_555
N1 O2 1_555 1_555
N2 O3 1_555 1_555
N3 H3 1_555 1_555
H4 N3 1_555 1_555
N4 H5 1_555 1_555
H6 N4 1_555 1_555
C1 H7 1_555 1_555
C2 H8 1_555 1_555
C3 C2 1_555 1_555
C4 C1 1_555 1_555
H9 C4 1_555 1_555
C5 C8 1_555 1_555
C6 O1 1_555 1_555
C7 C2 1_555 1_555
H10 C7 1_555 1_555
C8 H11 1_555 1_555
C9 C7 1_555 1_555
H12 C9 1_555 1_555
C10 N1 1_555 1_555
C11 N2 1_555 1_555
C12 C1 1_555 1_555
C13 C6 1_555 1_555
H13 C13 1_555 1_555
C14 C4 1_555 1_555
H14 C14 1_555 1_555
O4 C15 1_555 1_555
O5 H15 1_555 1_555
O6 H16 1_555 1_555
N5 O6 1_555 1_555
N6 O5 1_555 1_555
H17 N6 1_555 1_555
N7 H18 1_555 1_555
H19 N7 1_555 1_555
N8 H20 1_555 1_555
H21 N8 1_555 1_555
C15 C21 1_555 1_555
C16 N5 1_555 1_555
C17 H22 1_555 1_555
C18 C19 1_555 1_555
C19 N6 1_555 1_555
C20 O4 1_555 1_555
C21 C16 1_555 1_555
C22 C15 1_555 1_555
H23 C22 1_555 1_555
C23 C21 1_555 1_555
H24 C23 1_555 1_555
C24 C18 1_555 1_555
H25 C24 1_555 1_555
C25 C17 1_555 1_555
H26 C25 1_555 1_555
C26 H27 1_555 1_555
C27 C24 1_555 1_555
H28 C27 1_555 1_555
C28 C20 1_555 1_555
H29 C28 1_555 1_555
O7 H30 1_555 1_555
H31 O7 1_555 1_555
N9 H32 1_555 1_555
C29 N9 1_555 1_555
H33 C29 1_555 1_555
H34 C29 1_555 1_555
C30 N9 1_555 1_555
H35 C30 1_555 1_555
H36 C30 1_555 1_555
C31 C29 1_555 1_555
H37 C31 1_555 1_555
H38 C31 1_555 1_555
H39 C31 1_555 1_555
C32 N9 1_555 1_555
C33 C30 1_555 1_555
H40 C33 1_555 1_555
H41 C33 1_555 1_555
H42 C33 1_555 1_555
C34 C32 1_555 1_555
H43 C34 1_555 1_555
H44 C34 1_555 1_555
H45 C34 1_555 1_555
N3 C11 1_555 1_555
N4 C10 1_555 1_555
C3 C6 1_555 1_555
C3 C10 1_555 1_555
C5 C12 1_555 1_555
C8 C14 1_555 1_555
C9 C13 1_555 1_555
C11 C12 1_555 1_555
N7 C19 1_555 1_555
N8 C16 1_555 1_555
C17 C22 1_555 1_555
C18 C20 1_555 1_555
C23 C25 1_555 1_555
C26 C27 1_555 1_555
C26 C28 1_555 1_555

#END
