
#######################################################################
#
#                 Cambridge Crystallographic Data Centre
#                                CCDC 
#
#######################################################################
#
# If this CIF has been generated from an entry in the Cambridge 
# Structural Database, then it will include bibliographic, chemical, 
# crystal, experimental, refinement or atomic coordinate data resulting 
# from the CCDC's data processing and validation procedures.
#
#######################################################################

data_LEKPOG
_chemical_formula_moiety         'C16 H22 N1 1+,Cl1 O4 1-'
_chemical_name_systematic        
'trans,trans,trans-2,3,6,7,7a,8,12b,12c-Octahydro-4H,1H,5H-naphtho(1,2,3-ij)quinolizinium perchlorate'
_chemical_properties_biological  
'activity at selected neuroreceptor binding sites'
_symmetry_cell_setting           monoclinic
_symmetry_space_group_name_H-M   'P 21/n'
_symmetry_Int_Tables_number      14
_space_group_name_Hall           '-P 2yn'
loop_
_symmetry_equiv_pos_site_id
_symmetry_equiv_pos_as_xyz
1 x,y,z
2 1/2-x,1/2+y,1/2-z
3 -x,-y,-z
4 1/2+x,1/2-y,1/2+z
_cell_length_a                   8.922(2)
_cell_length_b                   11.522(5)
_cell_length_c                   15.734(2)
_cell_angle_alpha                90
_cell_angle_beta                 97.51(1)
_cell_angle_gamma                90
_cell_volume                     1603.57
_exptl_crystal_colour            Colorless
_cell_formula_units_Z            4
loop_
_atom_site_label
_atom_site_type_symbol
_atom_site_fract_x
_atom_site_fract_y
_atom_site_fract_z
N1 N -0.1156(3) -0.3311(3) 0.6225(2)
C1 C 0.0378(4) -0.1069(4) 0.6407(3)
C2 C 0.1236(4) -0.2199(4) 0.6308(3)
C3 C 0.0472(4) -0.3220(4) 0.6651(3)
C4 C -0.1894(5) -0.4370(4) 0.6529(3)
C5 C -0.3465(5) -0.4512(4) 0.6070(3)
C6 C -0.4398(4) -0.3456(4) 0.6202(3)
C7 C -0.3665(4) -0.2343(3) 0.5931(2)
C8 C -0.4544(4) -0.1291(4) 0.6158(3)
C9 C -0.3739(4) -0.0140(3) 0.6105(2)
C10 C -0.4576(4) 0.0872(4) 0.6121(3)
C11 C -0.3905(6) 0.1939(4) 0.6116(3)
C12 C -0.2377(6) 0.2008(4) 0.6088(3)
C13 C -0.1524(5) 0.1019(4) 0.6062(3)
C14 C -0.2197(4) -0.0075(3) 0.6067(2)
C15 C -0.1255(4) -0.1181(3) 0.5999(2)
C16 C -0.2015(4) -0.2209(3) 0.6357(2)
H1 H -0.1133 -0.3396 0.5626
H2 H 0.0401 -0.0898 0.6999
H3 H 0.0849 -0.0458 0.6135
H4 H 0.1300 -0.2323 0.5717
H5 H 0.2225 -0.2130 0.6611
H6 H 0.0482 -0.3131 0.7252
H7 H 0.1000 -0.3907 0.6539
H8 H -0.1312 -0.5033 0.6425
H9 H -0.1940 -0.4302 0.7127
H10 H -0.3420 -0.4612 0.5475
H11 H -0.3921 -0.5175 0.6288
H12 H -0.5363 -0.3538 0.5872
H13 H -0.4515 -0.3401 0.6792
H14 H -0.3671 -0.2359 0.5327
H15 H -0.5462 -0.1262 0.5777
H16 H -0.4765 -0.1384 0.6729
H17 H -0.5635 0.0823 0.6136
H18 H -0.4492 0.2625 0.6131
H19 H -0.1905 0.2747 0.6087
H20 H -0.0468 0.1080 0.6041
H21 H -0.1239 -0.1326 0.5406
H22 H -0.2017 -0.2094 0.6955
Cl1 Cl 0.1843(1) 0.3478(1) 0.62595(7)
O1 O 0.1131(4) 0.3715(4) 0.6983(2)
O2 O 0.0810(4) 0.3779(4) 0.5525(2)
O3 O 0.2178(4) 0.2286(3) 0.6215(3)
O4 O 0.3192(4) 0.4081(4) 0.6278(3)
loop_
_geom_bond_atom_site_label_1
_geom_bond_atom_site_label_2
_geom_bond_site_symmetry_1
_geom_bond_site_symmetry_2
N1 C3 1_555 1_555
C1 C2 1_555 1_555
C2 C3 1_555 1_555
C3 H6 1_555 1_555
C4 N1 1_555 1_555
C5 C4 1_555 1_555
C6 C5 1_555 1_555
C7 C6 1_555 1_555
C8 C7 1_555 1_555
C9 C8 1_555 1_555
C10 C9 1_555 1_555
C11 C10 1_555 1_555
C12 C11 1_555 1_555
C13 C12 1_555 1_555
C14 C9 1_555 1_555
C15 C1 1_555 1_555
C16 N1 1_555 1_555
H1 N1 1_555 1_555
H2 C1 1_555 1_555
H3 C1 1_555 1_555
H4 C2 1_555 1_555
H5 C2 1_555 1_555
H7 C3 1_555 1_555
H8 C4 1_555 1_555
H9 C4 1_555 1_555
H10 C5 1_555 1_555
H11 C5 1_555 1_555
H12 C6 1_555 1_555
H13 C6 1_555 1_555
H14 C7 1_555 1_555
H15 C8 1_555 1_555
H16 C8 1_555 1_555
H17 C10 1_555 1_555
H18 C11 1_555 1_555
H19 C12 1_555 1_555
H20 C13 1_555 1_555
H21 C15 1_555 1_555
H22 C16 1_555 1_555
Cl1 O1 1_555 1_555
O2 Cl1 1_555 1_555
O3 Cl1 1_555 1_555
O4 Cl1 1_555 1_555
C7 C16 1_555 1_555
C13 C14 1_555 1_555
C14 C15 1_555 1_555
C15 C16 1_555 1_555

#END
