
#######################################################################
#
#                 Cambridge Crystallographic Data Centre
#                                CCDC 
#
#######################################################################
#
# If this CIF has been generated from an entry in the Cambridge 
# Structural Database, then it will include bibliographic, chemical, 
# crystal, experimental, refinement or atomic coordinate data resulting 
# from the CCDC's data processing and validation procedures.
#
#######################################################################

data_LEKPIA
_chemical_formula_moiety         'C16 H22 N1 1+,Cl1 1-,C1 H2 Cl2'
_chemical_name_systematic        
'cis,cis,trans-2,3,6,7,7a,8,12b,12c-Octahydro-4H,1H,5H-naphtho(1,2,3-ij)quinolizinium chloride dichloromethane solvate'
_chemical_properties_biological  
'activity at selected neuroreceptor binding sites'
_symmetry_cell_setting           monoclinic
_symmetry_space_group_name_H-M   'P 21/c'
_symmetry_Int_Tables_number      14
_space_group_name_Hall           '-P 2ybc'
loop_
_symmetry_equiv_pos_site_id
_symmetry_equiv_pos_as_xyz
1 x,y,z
2 -x,1/2+y,1/2-z
3 -x,-y,-z
4 x,1/2-y,1/2+z
_cell_length_a                   10.597(3)
_cell_length_b                   11.704(4)
_cell_length_c                   14.390(6)
_cell_angle_alpha                90
_cell_angle_beta                 103.28(3)
_cell_angle_gamma                90
_cell_volume                     1737.03
_exptl_crystal_colour            colorless
_cell_formula_units_Z            4
loop_
_atom_site_label
_atom_site_type_symbol
_atom_site_fract_x
_atom_site_fract_y
_atom_site_fract_z
N1 N 0.9347(7) -0.4444(7) 0.7443(5)
C1 C 0.866(1) -0.381(1) 0.5440(7)
C2 C 0.998(1) -0.359(1) 0.6062(8)
C3 C 1.034(1) -0.446(1) 0.6843(7)
C4 C 0.970(1) -0.535(1) 0.8196(8)
C5 C 0.877(1) -0.535(1) 0.8855(7)
C6 C 0.737(1) -0.546(1) 0.8309(7)
C7 C 0.7043(9) -0.456(1) 0.7503(7)
C8 C 0.6971(9) -0.338(1) 0.7899(6)
C9 C 0.6888(9) -0.243(1) 0.7175(7)
C10 C 0.645(1) -0.135(1) 0.7354(8)
C11 C 0.637(1) -0.045(1) 0.675(1)
C12 C 0.670(1) -0.067(1) 0.5895(9)
C13 C 0.715(1) -0.171(1) 0.5677(8)
C14 C 0.723(1) -0.261(1) 0.6295(7)
C15 C 0.762(1) -0.382(1) 0.6027(7)
C16 C 0.7994(9) -0.4631(9) 0.6863(7)
H1 H 0.9382 -0.3722 0.7748
H2 H 0.8450 -0.3237 0.4967
H3 H 0.8659 -0.4538 0.5141
H4 H 1.0600 -0.3611 0.5678
H5 H 0.9986 -0.2850 0.6339
H6 H 1.1168 -0.4284 0.7232
H7 H 1.0360 -0.5197 0.6570
H8 H 0.9679 -0.6071 0.7895
H9 H 1.0556 -0.5201 0.8560
H10 H 0.8977 -0.5974 0.9284
H11 H 0.8868 -0.4654 0.9206
H12 H 0.7955 -0.5385 0.6614
H13 H 0.7231 -0.6204 0.8041
H14 H 0.6816 -0.5346 0.8737
H15 H 0.6209 -0.4746 0.7122
H16 H 0.6224 -0.3333 0.8156
H17 H 0.7725 -0.3253 0.8390
H18 H 0.6185 -0.1236 0.7935
H19 H 0.6114 0.0286 0.6902
H20 H 0.6613 -0.0075 0.5436
H21 H 0.7408 -0.1809 0.5094
H22 H 0.6861 -0.4138 0.5624
Cl1 Cl 0.9493(3) 0.2482(3) 0.6225(2)
Cl2 Cl 0.5659(3) 0.3050(4) 0.5818(2)
Cl3 Cl 0.6354(3) 0.3758(4) 0.4082(3)
C17 C 0.627(1) 0.265(1) 0.4850(8)
H23 H 0.7123 0.2353 0.5084
H24 H 0.5733 0.2069 0.4509
loop_
_geom_bond_atom_site_label_1
_geom_bond_atom_site_label_2
_geom_bond_site_symmetry_1
_geom_bond_site_symmetry_2
N1 C3 1_555 1_555
C1 C2 1_555 1_555
C2 C3 1_555 1_555
C3 H6 1_555 1_555
C4 N1 1_555 1_555
C5 C4 1_555 1_555
C6 C5 1_555 1_555
C7 C6 1_555 1_555
C8 C7 1_555 1_555
C9 C8 1_555 1_555
C10 C9 1_555 1_555
C11 C10 1_555 1_555
C12 C11 1_555 1_555
C13 C12 1_555 1_555
C14 C9 1_555 1_555
C15 C1 1_555 1_555
C16 N1 1_555 1_555
H1 N1 1_555 1_555
H2 C1 1_555 1_555
H3 C1 1_555 1_555
H4 C2 1_555 1_555
H5 C2 1_555 1_555
H7 C3 1_555 1_555
H8 C4 1_555 1_555
H9 C4 1_555 1_555
H10 C5 1_555 1_555
H11 C5 1_555 1_555
H12 C16 1_555 1_555
H13 C6 1_555 1_555
H14 C6 1_555 1_555
H15 C7 1_555 1_555
H16 C8 1_555 1_555
H17 C8 1_555 1_555
H18 C10 1_555 1_555
H19 C11 1_555 1_555
H20 C12 1_555 1_555
H21 C13 1_555 1_555
H22 C15 1_555 1_555
Cl2 C17 1_555 1_555
Cl3 C17 1_555 1_555
C17 H23 1_555 1_555
H24 C17 1_555 1_555
C7 C16 1_555 1_555
C13 C14 1_555 1_555
C14 C15 1_555 1_555
C15 C16 1_555 1_555

#END
