
#######################################################################
#
#                 Cambridge Crystallographic Data Centre
#                                CCDC 
#
#######################################################################
#
# If this CIF has been generated from an entry in the Cambridge 
# Structural Database, then it will include bibliographic, chemical, 
# crystal, experimental, refinement or atomic coordinate data resulting 
# from the CCDC's data processing and validation procedures.
#
#######################################################################

data_LEKRUR
_chemical_formula_moiety         'C20 H14 S3'
_chemical_name_systematic        
2-(5-ethylthiophen-2-yl)[1]benzothieno[3,2-b][1]benzothiophene
_symmetry_cell_setting           triclinic
_symmetry_space_group_name_H-M   'P -1'
_symmetry_Int_Tables_number      2
_space_group_name_Hall           '-P 1'
loop_
_symmetry_equiv_pos_site_id
_symmetry_equiv_pos_as_xyz
1 x,y,z
2 -x,-y,-z
_cell_length_a                   6.0134(4)
_cell_length_b                   7.8064(4)
_cell_length_c                   35.177(3)
_cell_angle_alpha                92.753(4)
_cell_angle_beta                 93.386(6)
_cell_angle_gamma                90.013(6)
_cell_volume                     1646.52
_exptl_crystal_colour            colorless
_exptl_crystal_description       platy
_cell_formula_units_Z            4
loop_
_atom_site_label
_atom_site_type_symbol
_atom_site_fract_x
_atom_site_fract_y
_atom_site_fract_z
C1 C -0.211(4) 0.481(4) 0.0323(6)
H1 H -0.0518 0.4933 0.0326
H2 H -0.2799 0.5853 0.0242
H3 H -0.2579 0.3877 0.0150
C2 C -0.277(4) 0.447(3) 0.0715(6)
H4 H -0.3063 0.3249 0.0729
H5 H -0.4147 0.5072 0.0762
C3 C -0.102(3) 0.501(2) 0.1023(4)
C4 C 0.094(3) 0.584(2) 0.0999(5)
H6 H 0.1480 0.6210 0.0775
C5 C 0.200(2) 0.6050(17) 0.1342(4)
H7 H 0.3351 0.6633 0.1376
C6 C 0.100(2) 0.5359(17) 0.1649(4)
C7 C 0.171(2) 0.5381(16) 0.2050(4)
C8 C 0.379(2) 0.6136(18) 0.2183(4)
H8 H 0.4754 0.6549 0.2011
C9 C 0.4378(19) 0.6249(16) 0.2567(4)
H9 H 0.5752 0.6725 0.2649
C10 C 0.2985(18) 0.5678(15) 0.2839(4)
C11 C 0.0968(19) 0.4927(17) 0.2717(4)
C12 C 0.0362(19) 0.4756(14) 0.2327(4)
H10 H -0.0973 0.4211 0.2249
C13 C 0.3150(16) 0.5801(13) 0.3238(4)
C14 C 0.1360(17) 0.5081(15) 0.3414(4)
C15 C 0.1553(18) 0.5181(15) 0.3816(4)
C16 C 0.3578(18) 0.5987(15) 0.3962(4)
C17 C 0.414(2) 0.6181(18) 0.4343(4)
H11 H 0.5497 0.6671 0.4429
C18 C 0.268(2) 0.5645(19) 0.4596(4)
H12 H 0.3023 0.5806 0.4856
C19 C 0.070(2) 0.486(2) 0.4466(4)
H13 H -0.0256 0.4493 0.4644
C20 C 0.009(2) 0.4620(16) 0.4096(4)
H14 H -0.1267 0.4095 0.4019
S1 S -0.1417(7) 0.4426(6) 0.14719(13)
S2 S -0.0664(5) 0.4340(4) 0.30762(10)
S3 S 0.5199(5) 0.6551(4) 0.35815(11)
C21 C 0.283(4) 0.036(4) 0.0340(5)
H15 H 0.3340 0.1349 0.0219
H16 H 0.1555 -0.0121 0.0196
H17 H 0.4001 -0.0483 0.0350
C22 C 0.221(3) 0.087(3) 0.0744(5)
H18 H 0.1918 0.2089 0.0759
H19 H 0.0842 0.0280 0.0793
C23 C 0.397(3) 0.046(2) 0.1050(5)
C24 C 0.593(3) -0.043(2) 0.1024(5)
H20 H 0.6434 -0.0889 0.0797
C25 C 0.705(2) -0.0561(17) 0.1366(4)
H21 H 0.8415 -0.1119 0.1389
C26 C 0.605(2) 0.0183(17) 0.1681(4)
C27 C 0.667(2) 0.0235(17) 0.2088(4)
C28 C 0.878(2) -0.0487(16) 0.2210(4)
H22 H 0.9730 -0.0919 0.2030
C29 C 0.9371(19) -0.0537(15) 0.2586(4)
H23 H 1.0754 -0.0985 0.2660
C30 C 0.7957(18) 0.0072(15) 0.2872(4)
C31 C 0.5930(19) 0.0815(15) 0.2744(4)
C32 C 0.5350(19) 0.0879(15) 0.2355(4)
H24 H 0.4008 0.1385 0.2278
C33 C 0.8160(18) 0.0112(16) 0.3262(4)
C34 C 0.6415(17) 0.0804(15) 0.3445(4)
C35 C 0.6493(19) 0.0809(15) 0.3851(4)
C36 C 0.506(2) 0.1396(16) 0.4124(4)
H25 H 0.3732 0.1920 0.4048
C37 C 0.558(2) 0.1215(18) 0.4503(4)
H26 H 0.4609 0.1599 0.4684
C38 C 0.760(2) 0.044(2) 0.4614(4)
H27 H 0.7972 0.0342 0.4873
C39 C 0.901(2) -0.0165(17) 0.4357(4)
H28 H 1.0320 -0.0708 0.4438
C40 C 0.8522(19) 0.0020(16) 0.3974(4)
S4 S 0.3612(7) 0.1079(6) 0.15107(12)
S5 S 0.4326(5) 0.1497(4) 0.31118(10)
S6 S 1.0164(5) -0.0619(5) 0.35983(10)
loop_
_geom_bond_atom_site_label_1
_geom_bond_atom_site_label_2
_geom_bond_site_symmetry_1
_geom_bond_site_symmetry_2
C1 H1 1_555 1_555
H2 C1 1_555 1_555
H3 C1 1_555 1_555
C2 C1 1_555 1_555
H4 C2 1_555 1_555
H5 C2 1_555 1_555
C3 C2 1_555 1_555
C4 C3 1_555 1_555
H6 C4 1_555 1_555
C5 C4 1_555 1_555
H7 C5 1_555 1_555
C6 C5 1_555 1_555
C7 C6 1_555 1_555
C8 C7 1_555 1_555
H8 C8 1_555 1_555
C9 C8 1_555 1_555
H9 C9 1_555 1_555
C10 C9 1_555 1_555
C11 C10 1_555 1_555
C12 C7 1_555 1_555
H10 C12 1_555 1_555
C13 C10 1_555 1_555
C14 C13 1_555 1_555
C15 C14 1_555 1_555
C16 C15 1_555 1_555
C17 C16 1_555 1_555
H11 C17 1_555 1_555
C18 C17 1_555 1_555
H12 C18 1_555 1_555
C19 C18 1_555 1_555
H13 C19 1_555 1_555
C20 C15 1_555 1_555
H14 C20 1_555 1_555
S1 C3 1_555 1_555
S2 C11 1_555 1_555
S3 C13 1_555 1_555
C21 H15 1_555 1_555
H16 C21 1_555 1_555
H17 C21 1_555 1_555
C22 C21 1_555 1_555
H18 C22 1_555 1_555
H19 C22 1_555 1_555
C23 C22 1_555 1_555
C24 C23 1_555 1_555
H20 C24 1_555 1_555
C25 C24 1_555 1_555
H21 C25 1_555 1_555
C26 C25 1_555 1_555
C27 C26 1_555 1_555
C28 C27 1_555 1_555
H22 C28 1_555 1_555
C29 C28 1_555 1_555
H23 C29 1_555 1_555
C30 C29 1_555 1_555
C31 C30 1_555 1_555
C32 C27 1_555 1_555
H24 C32 1_555 1_555
C33 C30 1_555 1_555
C34 C33 1_555 1_555
C35 C34 1_555 1_555
C36 C35 1_555 1_555
H25 C36 1_555 1_555
C37 C36 1_555 1_555
H26 C37 1_555 1_555
C38 C37 1_555 1_555
H27 C38 1_555 1_555
C39 C38 1_555 1_555
H28 C39 1_555 1_555
C40 C35 1_555 1_555
S4 C23 1_555 1_555
S5 C31 1_555 1_555
S6 C33 1_555 1_555
C6 S1 1_555 1_555
C11 C12 1_555 1_555
C14 S2 1_555 1_555
C16 S3 1_555 1_555
C19 C20 1_555 1_555
C26 S4 1_555 1_555
C31 C32 1_555 1_555
C34 S5 1_555 1_555
C39 C40 1_555 1_555
C40 S6 1_555 1_555

#END
