
#######################################################################
#
#                 Cambridge Crystallographic Data Centre
#                                CCDC 
#
#######################################################################
#
# If this CIF has been generated from an entry in the Cambridge 
# Structural Database, then it will include bibliographic, chemical, 
# crystal, experimental, refinement or atomic coordinate data resulting 
# from the CCDC's data processing and validation procedures.
#
#######################################################################

data_LEKSEC
_chemical_formula_moiety         'C25 H24 S3'
_chemical_name_systematic        
2-(5-heptylthiophen-2-yl)[1]benzothieno[3,2-b][1]benzothiophene
_symmetry_cell_setting           triclinic
_symmetry_space_group_name_H-M   'P -1'
_symmetry_Int_Tables_number      2
_space_group_name_Hall           '-P 1'
loop_
_symmetry_equiv_pos_site_id
_symmetry_equiv_pos_as_xyz
1 x,y,z
2 -x,-y,-z
_cell_length_a                   5.9301(3)
_cell_length_b                   7.8096(3)
_cell_length_c                   46.530(2)
_cell_angle_alpha                87.064(2)
_cell_angle_beta                 88.436(2)
_cell_angle_gamma                89.964(2)
_cell_volume                     2151.25
_exptl_crystal_colour            colorless
_exptl_crystal_description       block
_cell_formula_units_Z            4
loop_
_atom_site_label
_atom_site_type_symbol
_atom_site_fract_x
_atom_site_fract_y
_atom_site_fract_z
S1 S 0.41044(19) 0.50015(15) 0.10623(3)
S2 S 0.97683(18) 0.26545(15) 0.14291(2)
S3 S 0.9786(2) 0.2400(2) 0.26358(3)
C1 C 0.5955(8) 0.4502(6) 0.07780(11)
C2 C 0.5604(9) 0.4876(7) 0.04879(11)
H1 H 0.4310 0.5446 0.0427
C3 C 0.7229(10) 0.4375(8) 0.02917(12)
H2 H 0.7026 0.4616 0.0096
C4 C 0.9171(9) 0.3515(8) 0.03805(12)
H3 H 1.0224 0.3168 0.0244
C5 C 0.9547(8) 0.3175(6) 0.06690(11)
H4 H 1.0862 0.2625 0.0727
C6 C 0.7923(8) 0.3668(5) 0.08747(10)
C7 C 0.7872(8) 0.3488(5) 0.11817(10)
C8 C 0.5979(7) 0.4139(5) 0.13114(10)
C9 C 0.5962(7) 0.3997(5) 0.16172(10)
C10 C 0.7968(7) 0.3202(6) 0.17134(10)
C11 C 0.8405(8) 0.2951(6) 0.20036(10)
H5 H 0.9718 0.2396 0.2061
C12 C 0.6865(8) 0.3533(6) 0.22095(10)
C13 C 0.4850(8) 0.4303(6) 0.21134(11)
H6 H 0.3796 0.4667 0.2249
C14 C 0.4395(8) 0.4532(6) 0.18258(11)
H7 H 0.3049 0.5041 0.1769
C15 C 0.7370(8) 0.3423(6) 0.25145(11)
C16 C 0.6248(9) 0.4067(7) 0.27424(11)
H8 H 0.4903 0.4671 0.2723
C17 C 0.7257(10) 0.3759(8) 0.30079(12)
H9 H 0.6639 0.4122 0.3180
C18 C 0.9240(10) 0.2874(8) 0.29899(12)
C19 C 1.0831(12) 0.2296(10) 0.32166(13)
H10 H 1.2348 0.2607 0.3151
H11 H 1.0767 0.1054 0.3238
C20 C 1.0421(14) 0.2997(11) 0.35051(14)
H12 H 0.8938 0.2641 0.3578
H13 H 1.0435 0.4240 0.3486
C21 C 1.2182(16) 0.2400(12) 0.37208(16)
H14 H 1.2138 0.1158 0.3740
H15 H 1.3659 0.2726 0.3642
C22 C 1.195(2) 0.3062(15) 0.40113(19)
H16 H 1.0475 0.2738 0.4092
H17 H 1.2008 0.4304 0.3995
C23 C 1.375(2) 0.2419(16) 0.42198(19)
H18 H 1.3687 0.1169 0.4232
H19 H 1.5232 0.2726 0.4135
C24 C 1.395(7) 0.317(8) 0.4505(7)
H20 H 1.2536 0.3029 0.4612
H21 H 1.4251 0.4392 0.4477
C25 C 1.582(6) 0.234(10) 0.4675(5)
H22 H 1.5748 0.1112 0.4677
H23 H 1.5551 0.2709 0.4867
H24 H 1.7281 0.2721 0.4606
S4 S -0.09402(19) 0.77986(15) 0.10782(3)
S5 S 0.47378(19) 0.98433(15) 0.14538(3)
S6 S 0.4793(2) 0.9140(2) 0.26589(3)
C28 C 0.0885(8) 0.8534(6) 0.07976(10)
C29 C 0.0501(9) 0.8456(7) 0.05044(11)
H32 H -0.0807 0.7956 0.0441
C30 C 0.2079(10) 0.9129(8) 0.03117(12)
H33 H 0.1847 0.9077 0.0115
C31 C 0.4041(10) 0.9895(7) 0.04052(11)
H34 H 0.5079 1.0365 0.0270
C32 C 0.4462(8) 0.9967(6) 0.06932(11)
H35 H 0.5785 1.0460 0.0753
C33 C 0.2879(7) 0.9289(6) 0.08940(10)
C34 C 0.2828(7) 0.9193(5) 0.12028(10)
C35 C 0.0933(7) 0.8466(5) 0.13280(10)
C36 C 0.0937(7) 0.8359(5) 0.16368(10)
C37 C 0.2933(7) 0.9084(5) 0.17353(10)
C38 C 0.3404(8) 0.9095(6) 0.20243(10)
H36 H 0.4727 0.9593 0.2083
C39 C 0.1868(8) 0.8348(6) 0.22272(10)
C40 C -0.0170(8) 0.7655(6) 0.21308(11)
H37 H -0.1214 0.7183 0.2265
C41 C -0.0633(8) 0.7668(6) 0.18429(10)
H38 H -0.1987 0.7218 0.1784
C42 C 0.2389(8) 0.8228(6) 0.25356(10)
C43 C 0.1273(10) 0.7361(7) 0.27548(12)
H39 H -0.0054 0.6756 0.2731
C44 C 0.2313(11) 0.7459(8) 0.30238(12)
H40 H 0.1717 0.6949 0.3194
C45 C 0.4264(10) 0.8372(8) 0.30085(11)
C46 C 0.5875(12) 0.8789(10) 0.32380(14)
H41 H 0.5782 1.0008 0.3268
H42 H 0.7396 0.8551 0.3169
C47 C 0.5483(14) 0.7831(11) 0.35223(14)
H43 H 0.5547 0.6608 0.3495
H44 H 0.3989 0.8096 0.3598
C48 C 0.7249(15) 0.8297(12) 0.37412(15)
H45 H 0.8736 0.8042 0.3663
H46 H 0.7179 0.9522 0.3765
C49 C 0.6980(19) 0.7400(15) 0.40271(19)
H47 H 0.7081 0.6173 0.4006
H48 H 0.5497 0.7645 0.4108
C50 C 0.881(2) 0.7951(16) 0.42382(19)
H49 H 1.0303 0.7745 0.4152
H50 H 0.8701 0.9192 0.4257
C51 C 0.865(9) 0.742(6) 0.4546(4)
H51 H 0.8671 0.6179 0.4567
H52 H 0.7229 0.7815 0.4626
C52 C 1.056(9) 0.813(6) 0.4708(6)
H53 H 1.2050 0.7906 0.4633
H54 H 1.0365 0.7563 0.4895
H55 H 1.0376 0.9347 0.4724
H25? H 1.3663 0.1177 0.4237
H26? H 1.5226 0.2718 0.4137
C26? C 1.313(7) 0.289(9) 0.4516(6)
H27? H 1.1669 0.2391 0.4571
H28? H 1.2987 0.4125 0.4520
C27? C 1.483(6) 0.228(10) 0.4731(5)
H29? H 1.4665 0.1057 0.4746
H30? H 1.4650 0.2732 0.4918
H31? H 1.6308 0.2568 0.4653
H56? H 1.0290 0.7733 0.4154
H57? H 0.8687 0.9177 0.4260
C53? C 0.863(9) 0.680(5) 0.4500(5)
H58? H 0.8998 0.5640 0.4450
H59? H 0.7083 0.6800 0.4574
C54? C 1.016(9) 0.733(6) 0.4729(6)
H60? H 1.1649 0.7177 0.4648
H61? H 1.0034 0.6704 0.4912
H62? H 0.9895 0.8522 0.4755
loop_
_geom_bond_atom_site_label_1
_geom_bond_atom_site_label_2
_geom_bond_site_symmetry_1
_geom_bond_site_symmetry_2
S1 C1 1_555 1_555
S2 C7 1_555 1_555
S3 C15 1_555 1_555
C1 C2 1_555 1_555
C2 H1 1_555 1_555
C3 C2 1_555 1_555
H2 C3 1_555 1_555
C4 C3 1_555 1_555
H3 C4 1_555 1_555
C5 C4 1_555 1_555
H4 C5 1_555 1_555
C6 C1 1_555 1_555
C7 C6 1_555 1_555
C8 S1 1_555 1_555
C9 C8 1_555 1_555
C10 S2 1_555 1_555
C11 C10 1_555 1_555
H5 C11 1_555 1_555
C12 C11 1_555 1_555
C13 C12 1_555 1_555
H6 C13 1_555 1_555
C14 C9 1_555 1_555
H7 C14 1_555 1_555
C15 C12 1_555 1_555
C16 C15 1_555 1_555
H8 C16 1_555 1_555
C17 C16 1_555 1_555
H9 C17 1_555 1_555
C18 S3 1_555 1_555
C19 C18 1_555 1_555
H10 C19 1_555 1_555
H11 C19 1_555 1_555
C20 C19 1_555 1_555
H12 C20 1_555 1_555
H13 C20 1_555 1_555
C21 C20 1_555 1_555
H14 C21 1_555 1_555
H15 C21 1_555 1_555
C22 C21 1_555 1_555
H16 C22 1_555 1_555
H17 C22 1_555 1_555
C23 C22 1_555 1_555
H18 C23 1_555 1_555
H19 C23 1_555 1_555
C24 C23 1_555 1_555
H20 C24 1_555 1_555
H21 C24 1_555 1_555
C25 C24 1_555 1_555
H22 C25 1_555 1_555
H23 C25 1_555 1_555
H24 C25 1_555 1_555
S4 C28 1_555 1_555
S5 C34 1_555 1_555
S6 C42 1_555 1_555
C28 C29 1_555 1_555
C29 H32 1_555 1_555
C30 C29 1_555 1_555
H33 C30 1_555 1_555
C31 C30 1_555 1_555
H34 C31 1_555 1_555
C32 C31 1_555 1_555
H35 C32 1_555 1_555
C33 C28 1_555 1_555
C34 C33 1_555 1_555
C35 S4 1_555 1_555
C36 C35 1_555 1_555
C37 S5 1_555 1_555
C38 C37 1_555 1_555
H36 C38 1_555 1_555
C39 C38 1_555 1_555
C40 C39 1_555 1_555
H37 C40 1_555 1_555
C41 C36 1_555 1_555
H38 C41 1_555 1_555
C42 C39 1_555 1_555
C43 C42 1_555 1_555
H39 C43 1_555 1_555
C44 C43 1_555 1_555
H40 C44 1_555 1_555
C45 S6 1_555 1_555
C46 C45 1_555 1_555
H41 C46 1_555 1_555
H42 C46 1_555 1_555
C47 C46 1_555 1_555
H43 C47 1_555 1_555
H44 C47 1_555 1_555
C48 C47 1_555 1_555
H45 C48 1_555 1_555
H46 C48 1_555 1_555
C49 C48 1_555 1_555
H47 C49 1_555 1_555
H48 C49 1_555 1_555
C50 C49 1_555 1_555
H49 C50 1_555 1_555
H50 C50 1_555 1_555
C51 C50 1_555 1_555
H51 C51 1_555 1_555
H52 C51 1_555 1_555
C52 C51 1_555 1_555
H53 C52 1_555 1_555
H54 C52 1_555 1_555
H55 C52 1_555 1_555
C5 C6 1_555 1_555
C7 C8 1_555 1_555
C9 C10 1_555 1_555
C13 C14 1_555 1_555
C17 C18 1_555 1_555
C32 C33 1_555 1_555
C34 C35 1_555 1_555
C36 C37 1_555 1_555
C40 C41 1_555 1_555
C44 C45 1_555 1_555

#END
