
#######################################################################
#
#                 Cambridge Crystallographic Data Centre
#                                CCDC 
#
#######################################################################
#
# If this CIF has been generated from an entry in the Cambridge 
# Structural Database, then it will include bibliographic, chemical, 
# crystal, experimental, refinement or atomic coordinate data resulting 
# from the CCDC's data processing and validation procedures.
#
#######################################################################

data_LEKSAW
_chemical_formula_moiety         'C13 H19 N2 1+,Br1 1-,H2 O1'
_chemical_name_systematic        
'1,3-Di-isopropyl-1H-benzimidazol-3-ium bromide monohydrate'
_symmetry_cell_setting           triclinic
_symmetry_space_group_name_H-M   'P -1'
_symmetry_Int_Tables_number      2
_space_group_name_Hall           '-P 1'
loop_
_symmetry_equiv_pos_site_id
_symmetry_equiv_pos_as_xyz
1 x,y,z
2 -x,-y,-z
_cell_length_a                   8.9656(5)
_cell_length_b                   9.1636(5)
_cell_length_c                   9.7359(5)
_cell_angle_alpha                77.3460(10)
_cell_angle_beta                 66.4200(10)
_cell_angle_gamma                83.5500(10)
_cell_volume                     715.007
_exptl_crystal_colour            colorless
_exptl_crystal_description       block
_cell_formula_units_Z            2
loop_
_atom_site_label
_atom_site_type_symbol
_atom_site_fract_x
_atom_site_fract_y
_atom_site_fract_z
Br1 Br 0.10293(2) 0.208088(19) 0.107569(19)
N1 N 0.04753(16) 0.80208(15) 0.34598(15)
N2 N 0.22863(15) 0.78853(15) 0.11773(14)
C1 C 0.07408(19) 0.81929(17) 0.19912(18)
H1 H -0.0059 0.8493 0.1583
C2 C 0.19376(18) 0.75717(17) 0.36218(17)
C3 C 0.31000(18) 0.74790(16) 0.21678(16)
C4 C 0.47064(19) 0.70443(18) 0.19316(18)
H2 H 0.5492 0.6984 0.0954
C5 C 0.5087(2) 0.6705(2) 0.3207(2)
H3 H 0.6158 0.6399 0.3098
C6 C 0.3919(2) 0.6806(2) 0.4661(2)
H4 H 0.4232 0.6568 0.5499
C7 C 0.2327(2) 0.72413(19) 0.49054(18)
H5 H 0.1548 0.7311 0.5884
C8 C -0.11126(19) 0.8171(2) 0.47371(19)
H6 H -0.0930 0.8685 0.5449
C9 C 0.2945(2) 0.7957(2) -0.04925(17)
H7 H 0.2035 0.8254 -0.0836
C10 C -0.1745(2) 0.6626(2) 0.5595(2)
H8 H -0.1964 0.6114 0.4926
H9 H -0.2740 0.6722 0.6475
H10 H -0.0933 0.6056 0.5933
C11 C -0.2292(2) 0.9129(2) 0.4132(2)
H11 H -0.1788 1.0064 0.3519
H12 H -0.3271 0.9336 0.4981
H13 H -0.2570 0.8602 0.3509
C12 C 0.3566(3) 0.6416(2) -0.0852(2)
H14 H 0.4555 0.6153 -0.0664
H15 H 0.3792 0.6426 -0.1915
H16 H 0.2745 0.5685 -0.0206
C13 C 0.4214(3) 0.9155(2) -0.1302(2)
H17 H 0.3761 1.0092 -0.0975
H18 H 0.4529 0.9284 -0.2397
H19 H 0.5162 0.8855 -0.1052
O1 O 0.9233(2) 0.5459(2) 0.19495(18)
H20 H 0.907(4) 0.600(4) 0.117(4)
H21 H 0.970(4) 0.463(4) 0.173(4)
loop_
_geom_bond_atom_site_label_1
_geom_bond_atom_site_label_2
_geom_bond_site_symmetry_1
_geom_bond_site_symmetry_2
N1 C1 1_555 1_555
N2 C1 1_555 1_555
C1 H1 1_555 1_555
C2 N1 1_555 1_555
C3 N2 1_555 1_555
C4 C3 1_555 1_555
H2 C4 1_555 1_555
C5 C4 1_555 1_555
H3 C5 1_555 1_555
C6 C5 1_555 1_555
H4 C6 1_555 1_555
C7 C2 1_555 1_555
H5 C7 1_555 1_555
C8 N1 1_555 1_555
H6 C8 1_555 1_555
C9 N2 1_555 1_555
H7 C9 1_555 1_555
C10 C8 1_555 1_555
H8 C10 1_555 1_555
H9 C10 1_555 1_555
H10 C10 1_555 1_555
C11 C8 1_555 1_555
H11 C11 1_555 1_555
H12 C11 1_555 1_555
H13 C11 1_555 1_555
C12 C9 1_555 1_555
H14 C12 1_555 1_555
H15 C12 1_555 1_555
H16 C12 1_555 1_555
C13 C9 1_555 1_555
H17 C13 1_555 1_555
H18 C13 1_555 1_555
H19 C13 1_555 1_555
O1 H20 1_555 1_555
H21 O1 1_555 1_555
C2 C3 1_555 1_555
C6 C7 1_555 1_555

#END
