
#######################################################################
#
#                 Cambridge Crystallographic Data Centre
#                                CCDC 
#
#######################################################################
#
# If this CIF has been generated from an entry in the Cambridge 
# Structural Database, then it will include bibliographic, chemical, 
# crystal, experimental, refinement or atomic coordinate data resulting 
# from the CCDC's data processing and validation procedures.
#
#######################################################################

data_LELBIQ
_chemical_formula_moiety         'C17 H10 F4 O2 S2'
_chemical_name_systematic        
'methyl 3-[2,3,5,6-tetrafluoro-4-(5-methylthiophen-2-yl)phenyl]thiophene-2-carboxylate'
_symmetry_cell_setting           monoclinic
_symmetry_space_group_name_H-M   'P 21/c'
_symmetry_Int_Tables_number      14
_space_group_name_Hall           '-P 2ybc'
loop_
_symmetry_equiv_pos_site_id
_symmetry_equiv_pos_as_xyz
1 x,y,z
2 -x,1/2+y,1/2-z
3 -x,-y,-z
4 x,1/2-y,1/2+z
_cell_length_a                   7.7206(3)
_cell_length_b                   10.8574(4)
_cell_length_c                   19.0756(7)
_cell_angle_alpha                90
_cell_angle_beta                 90.1480(10)
_cell_angle_gamma                90
_cell_volume                     1599.02
_exptl_crystal_colour            'light colorless'
_exptl_crystal_description       block
_cell_formula_units_Z            4
loop_
_atom_site_label
_atom_site_type_symbol
_atom_site_fract_x
_atom_site_fract_y
_atom_site_fract_z
S1 S 0.10245(4) 0.90466(3) 0.40786(2)
S2 S 0.91316(4) 0.30898(3) 0.28097(2)
F1 F 0.30501(11) 0.53341(8) 0.27977(4)
F2 F 0.56067(11) 0.37457(8) 0.26652(4)
F3 F 0.80268(9) 0.51890(7) 0.48016(4)
F4 F 0.54818(10) 0.67653(7) 0.49220(4)
O1 O 0.60183(12) 0.85459(9) 0.38505(6)
O2 O 0.43865(13) 1.02003(9) 0.40973(6)
C1 C 0.41776(15) 0.61386(11) 0.38562(6)
C2 C 0.42680(16) 0.53112(12) 0.33025(6)
C3 C 0.56109(16) 0.44794(12) 0.32364(6)
C4 C 0.69650(15) 0.43918(11) 0.37193(6)
C5 C 0.68215(15) 0.51975(11) 0.42906(6)
C6 C 0.54916(16) 0.60324(11) 0.43522(6)
C7 C 0.27624(15) 0.70505(12) 0.39175(6)
C8 C 0.29846(16) 0.83042(12) 0.40019(6)
C9 C 0.09861(16) 0.67111(13) 0.39085(7)
H1 H 0.0590 0.5889 0.3850
C10 C -0.00887(17) 0.76991(14) 0.39937(7)
H2 H -0.1316 0.7642 0.4004
C11 C 0.46264(16) 0.89938(12) 0.39758(6)
C12 C 0.5935(2) 1.09515(14) 0.40482(9)
H3 H 0.6442 1.0861 0.3581
H4 H 0.6776 1.0684 0.4403
H5 H 0.5634 1.1817 0.4128
C13 C 0.84612(16) 0.35712(11) 0.36327(6)
C14 C 0.95719(19) 0.31412(13) 0.41360(7)
H6 H 0.9430 0.3298 0.4622
C15 C 1.09562(19) 0.24378(13) 0.38585(7)
H7 H 1.1832 0.2073 0.4141
C16 C 1.09069(17) 0.23372(12) 0.31461(7)
C17 C 1.2125(2) 0.16573(15) 0.26721(8)
H8 H 1.1497 0.0998 0.2430
H9 H 1.3068 0.1301 0.2951
H10 H 1.2606 0.2229 0.2326
loop_
_geom_bond_atom_site_label_1
_geom_bond_atom_site_label_2
_geom_bond_site_symmetry_1
_geom_bond_site_symmetry_2
S1 C8 1_555 1_555
S2 C13 1_555 1_555
F1 C2 1_555 1_555
F2 C3 1_555 1_555
F3 C5 1_555 1_555
F4 C6 1_555 1_555
O1 C11 1_555 1_555
O2 C11 1_555 1_555
C1 C2 1_555 1_555
C2 C3 1_555 1_555
C3 C4 1_555 1_555
C4 C5 1_555 1_555
C5 C6 1_555 1_555
C6 C1 1_555 1_555
C7 C1 1_555 1_555
C8 C7 1_555 1_555
C9 C7 1_555 1_555
H1 C9 1_555 1_555
C10 S1 1_555 1_555
H2 C10 1_555 1_555
C11 C8 1_555 1_555
C12 O2 1_555 1_555
H3 C12 1_555 1_555
H4 C12 1_555 1_555
H5 C12 1_555 1_555
C13 C4 1_555 1_555
C14 C13 1_555 1_555
H6 C14 1_555 1_555
C15 C14 1_555 1_555
H7 C15 1_555 1_555
C16 S2 1_555 1_555
C17 C16 1_555 1_555
H8 C17 1_555 1_555
H9 C17 1_555 1_555
H10 C17 1_555 1_555
C9 C10 1_555 1_555
C15 C16 1_555 1_555

#END
