
#######################################################################
#
#                 Cambridge Crystallographic Data Centre
#                                CCDC 
#
#######################################################################
#
# If this CIF has been generated from an entry in the Cambridge 
# Structural Database, then it will include bibliographic, chemical, 
# crystal, experimental, refinement or atomic coordinate data resulting 
# from the CCDC's data processing and validation procedures.
#
#######################################################################

data_LELCAJ
_chemical_formula_moiety         'C18 H25 Cl1 F4 Mg1 O3'
_chemical_name_systematic        
chloro-tris(tetrahydrofuran)-(2,3,5,6-tetrafluorophenyl)-magnesium
_symmetry_cell_setting           monoclinic
_symmetry_space_group_name_H-M   'P 21'
_symmetry_Int_Tables_number      4
_space_group_name_Hall           'P 2yb'
loop_
_symmetry_equiv_pos_site_id
_symmetry_equiv_pos_as_xyz
1 x,y,z
2 -x,1/2+y,-z
_cell_length_a                   8.8663(6)
_cell_length_b                   12.7576(8)
_cell_length_c                   9.7375(6)
_cell_angle_alpha                90
_cell_angle_beta                 112.848(2)
_cell_angle_gamma                90
_cell_volume                     1015.01
_exptl_crystal_colour            'light colorless'
_exptl_crystal_description       block
_cell_formula_units_Z            2
loop_
_atom_site_label
_atom_site_type_symbol
_atom_site_fract_x
_atom_site_fract_y
_atom_site_fract_z
Cl1 Cl -0.02668(10) 0.36943(7) 0.33650(9)
Mg1 Mg 0.20589(13) 0.46758(9) 0.47303(12)
F1 F 0.3589(3) 0.2398(2) 0.6658(3)
O1 O 0.0906(3) 0.5398(2) 0.6045(3)
O2 O 0.1817(3) 0.6134(2) 0.3733(3)
F2 F 0.4984(3) 0.6000(2) 0.7053(3)
O3 O 0.3254(3) 0.4271(2) 0.3272(3)
F3 F 0.6053(4) 0.2044(2) 0.9272(3)
F4 F 0.7443(3) 0.5639(3) 0.9648(3)
C1 C 0.4170(4) 0.4218(3) 0.6734(4)
C2 C -0.1388(5) 0.5922(4) 0.6523(5)
H1 H -0.2062 0.5288 0.6440
H2 H -0.2073 0.6551 0.6432
C3 C 0.5220(5) 0.4987(3) 0.7554(4)
C4 C 0.4534(5) 0.3240(3) 0.7365(4)
C5 C -0.0672(5) 0.5921(3) 0.5354(4)
H3 H -0.1390 0.5535 0.4456
H4 H -0.0529 0.6646 0.5065
C6 C 0.0103(6) 0.5929(4) 0.7991(5)
H5 H 0.0314 0.6644 0.8417
H6 H -0.0066 0.5453 0.8722
C7 C 0.6827(5) 0.3832(4) 0.9508(4)
H7 H 0.7714 0.3700 1.0428
C8 C 0.6507(5) 0.4811(4) 0.8919(4)
C9 C 0.5812(5) 0.3040(4) 0.8717(5)
C10 C 0.2359(6) 0.7161(3) 0.4386(5)
H8 H 0.3523 0.7274 0.4558
H9 H 0.2234 0.7226 0.5349
C11 C 0.0978(6) 0.6264(3) 0.2143(4)
H10 H 0.0204 0.5680 0.1703
H11 H 0.1764 0.6301 0.1648
C12 C 0.1483(6) 0.5564(5) 0.7620(5)
H12 H 0.2366 0.6095 0.7931
H13 H 0.1930 0.4902 0.8154
C13 C 0.4845(5) 0.4695(4) 0.3516(5)
H14 H 0.5697 0.4352 0.4384
H15 H 0.4870 0.5458 0.3708
C14 C 0.2740(7) 0.3602(5) 0.1988(7)
H16 H 0.1710 0.3866 0.1215
H17 H 0.2548 0.2882 0.2263
C15 C 0.0082(7) 0.7289(4) 0.2002(6)
H18 H -0.0962 0.7186 0.2133
H19 H -0.0150 0.7618 0.1020
C16 C 0.1271(6) 0.7955(3) 0.3261(5)
H20 H 0.0675 0.8398 0.3718
H21 H 0.1931 0.8412 0.2888
C17 C 0.5135(6) 0.4483(5) 0.2125(6)
H22 H 0.4855 0.5103 0.1463
H23 H 0.6293 0.4294 0.2366
C18 C 0.4051(8) 0.3601(6) 0.1421(7)
H24 H 0.4665 0.2933 0.1675
H25 H 0.3585 0.3683 0.0324
loop_
_geom_bond_atom_site_label_1
_geom_bond_atom_site_label_2
_geom_bond_site_symmetry_1
_geom_bond_site_symmetry_2
Cl1 Mg1 1_555 1_555
Mg1 O1 1_555 1_555
F1 C4 1_555 1_555
O1 C5 1_555 1_555
O2 Mg1 1_555 1_555
F2 C3 1_555 1_555
O3 Mg1 1_555 1_555
F3 C9 1_555 1_555
F4 C8 1_555 1_555
C1 Mg1 1_555 1_555
C2 H1 1_555 1_555
H2 C2 1_555 1_555
C3 C1 1_555 1_555
C4 C1 1_555 1_555
C5 C2 1_555 1_555
H3 C5 1_555 1_555
H4 C5 1_555 1_555
C6 C2 1_555 1_555
H5 C6 1_555 1_555
H6 C6 1_555 1_555
C7 H7 1_555 1_555
C8 C3 1_555 1_555
C9 C4 1_555 1_555
C10 O2 1_555 1_555
H8 C10 1_555 1_555
H9 C10 1_555 1_555
C11 O2 1_555 1_555
H10 C11 1_555 1_555
H11 C11 1_555 1_555
C12 O1 1_555 1_555
H12 C12 1_555 1_555
H13 C12 1_555 1_555
C13 O3 1_555 1_555
H14 C13 1_555 1_555
H15 C13 1_555 1_555
C14 O3 1_555 1_555
H16 C14 1_555 1_555
H17 C14 1_555 1_555
C15 C11 1_555 1_555
H18 C15 1_555 1_555
H19 C15 1_555 1_555
C16 C10 1_555 1_555
H20 C16 1_555 1_555
H21 C16 1_555 1_555
C17 C13 1_555 1_555
H22 C17 1_555 1_555
H23 C17 1_555 1_555
C18 C14 1_555 1_555
H24 C18 1_555 1_555
H25 C18 1_555 1_555
C6 C12 1_555 1_555
C7 C8 1_555 1_555
C7 C9 1_555 1_555
C15 C16 1_555 1_555
C17 C18 1_555 1_555

#END
