
#######################################################################
#
#                 Cambridge Crystallographic Data Centre
#                                CCDC 
#
#######################################################################
#
# If this CIF has been generated from an entry in the Cambridge 
# Structural Database, then it will include bibliographic, chemical, 
# crystal, experimental, refinement or atomic coordinate data resulting 
# from the CCDC's data processing and validation procedures.
#
#######################################################################

data_LELHOC
_chemical_formula_moiety         'C16 H18 Cl4 Mg1 O8,2(C10 H8 N2)'
_chemical_name_systematic        
"tetraaqua-bis((2,4-dichlorophenyl)acetato)-magnesium(ii) bis(4,4'-bipyridine)"
_symmetry_cell_setting           triclinic
_symmetry_space_group_name_H-M   'P -1'
_symmetry_Int_Tables_number      2
_space_group_name_Hall           '-P 1'
loop_
_symmetry_equiv_pos_site_id
_symmetry_equiv_pos_as_xyz
1 x,y,z
2 -x,-y,-z
_cell_length_a                   10.0641(7)
_cell_length_b                   14.0303(9)
_cell_length_c                   14.9195(10)
_cell_angle_alpha                68.1430(10)
_cell_angle_beta                 84.0280(10)
_cell_angle_gamma                77.6960(10)
_cell_volume                     1909.61
_exptl_crystal_colour            colorless
_exptl_crystal_description       block
_cell_formula_units_Z            2
loop_
_atom_site_label
_atom_site_type_symbol
_atom_site_fract_x
_atom_site_fract_y
_atom_site_fract_z
Mg1 Mg 0.25887(6) 0.99013(5) 0.49791(4)
Cl1 Cl 0.25096(7) 0.66753(6) 0.88514(5)
Cl2 Cl 0.54548(10) 0.28368(5) 0.95525(7)
Cl3 Cl 0.15486(10) 1.33408(6) 0.09690(7)
Cl4 Cl -0.01710(12) 1.71633(6) 0.10938(10)
C1 C 0.40032(19) 0.79044(15) 0.65312(13)
C2 C 0.4818(2) 0.74893(15) 0.74479(14)
H1 H 0.5718 0.7661 0.7278
H2 H 0.4380 0.7848 0.7876
C3 C 0.4971(2) 0.63335(16) 0.79871(14)
C4 C 0.3980(2) 0.58848(17) 0.86259(15)
C5 C 0.4115(3) 0.48194(18) 0.91112(17)
H3 H 0.3432 0.4540 0.9535
C6 C 0.5273(3) 0.41854(18) 0.89545(19)
C7 C 0.6290(3) 0.45848(19) 0.8334(2)
H4 H 0.7075 0.4144 0.8235
C8 C 0.6127(2) 0.56562(19) 0.78578(18)
H5 H 0.6817 0.5929 0.7438
C9 C 0.1200(2) 1.19454(16) 0.35451(14)
C10 C 0.0013(2) 1.25289(18) 0.28812(18)
H6 H 0.0066 1.2242 0.2376
H7 H -0.0827 1.2407 0.3249
C11 C -0.0044(2) 1.36850(18) 0.24193(16)
C12 C 0.0608(2) 1.41357(18) 0.15518(17)
C13 C 0.0568(3) 1.5197(2) 0.1132(2)
H8 H 0.1007 1.5479 0.0540
C14 C -0.0129(3) 1.5820(2) 0.1602(2)
C15 C -0.0794(3) 1.5418(2) 0.2466(2)
H9 H -0.1262 1.5853 0.2784
C16 C -0.0756(3) 1.4357(2) 0.28560(19)
H10 H -0.1228 1.4083 0.3435
O1 O 0.39659(13) 0.88640(10) 0.60266(9)
O2 O 0.10437(17) 0.98513(13) 0.60024(12)
H11 H 0.119(3) 0.9801(19) 0.653(2)
H12 H 0.037(3) 0.9608(19) 0.6031(18)
O3 O 0.21682(19) 0.86574(13) 0.47279(13)
H13 H 0.165(3) 0.852(2) 0.444(2)
H14 H 0.250(3) 0.814(3) 0.521(3)
O4 O 0.34334(16) 0.73143(11) 0.63284(10)
O5 O 0.41797(15) 0.99886(12) 0.39229(10)
H15 H 0.466(3) 1.0392(19) 0.3840(17)
H16 H 0.396(3) 1.0055(19) 0.337(2)
O6 O 0.12451(13) 1.09713(10) 0.39653(9)
O7 O 0.32052(17) 1.11104(12) 0.52376(11)
H17 H 0.297(3) 1.164(2) 0.469(2)
H18 H 0.397(3) 1.107(2) 0.532(2)
O8 O 0.20247(15) 1.24370(11) 0.36494(11)
N1 N 0.1597(2) 0.9870(2) -0.22259(16)
N2 N 0.3432(2) 1.01169(18) 0.21335(14)
C17 C 0.2708(2) 1.00304(16) 0.04059(15)
C18 C 0.3297(3) 1.08191(19) 0.04172(17)
H19 H 0.3466 1.1347 -0.0159
C19 C 0.3639(3) 1.0829(2) 0.12842(19)
H20 H 0.4042 1.1374 0.1269
C20 C 0.2853(3) 0.9366(3) 0.21224(18)
H21 H 0.2682 0.8857 0.2711
C21 C 0.2485(3) 0.9287(2) 0.12923(17)
H22 H 0.2086 0.8732 0.1330
C22 C 0.1424(3) 0.9364(2) -0.05155(17)
H23 H 0.1042 0.8968 0.0062
C23 C 0.1091(3) 0.9340(2) -0.1374(2)
H24 H 0.0472 0.8925 -0.1357
C24 C 0.2471(3) 1.0443(3) -0.22162(19)
H25 H 0.2851 1.0816 -0.2804
C25 C 0.2862(3) 1.0527(2) -0.13900(17)
H26 H 0.3479 1.0951 -0.1431
C26 C 0.2326(2) 0.99758(17) -0.05066(15)
N3 N 0.5780(3) 0.7203(3) 0.3005(3)
C27 C 0.5368(5) 0.7246(4) 0.3865(4)
H27 H 0.5275 0.7889 0.3934
C28 C 0.5065(4) 0.6424(3) 0.4666(3)
H28 H 0.4793 0.6519 0.5247
C29 C 0.5171(3) 0.5454(2) 0.4593(2)
C30 C 0.5595(3) 0.5399(3) 0.3699(3)
H29 H 0.5690 0.4769 0.3602
C31 C 0.5875(4) 0.6268(4) 0.2956(3)
H30 H 0.6156 0.6197 0.2367
N3A N 0.4220(3) 0.2797(3) 0.6995(3)
C27A C 0.4632(5) 0.2754(4) 0.6135(4)
H27A H 0.4725 0.2111 0.6066
C28A C 0.4935(4) 0.3576(3) 0.5334(3)
H28A H 0.5207 0.3481 0.4753
C29A C 0.4829(3) 0.4546(2) 0.5407(2)
C30A C 0.4405(3) 0.4601(3) 0.6301(3)
H29A H 0.4310 0.5231 0.6398
C31A C 0.4125(4) 0.3732(4) 0.7044(3)
H30A H 0.3844 0.3803 0.7633
N4 N 0.0974(3) 0.74769(19) 0.3828(2)
C32 C -0.0200(4) 0.7369(2) 0.4281(3)
H31 H -0.0792 0.7971 0.4294
C33 C -0.0619(3) 0.6436(2) 0.4736(2)
H32 H -0.1470 0.6425 0.5044
C34 C 0.0198(2) 0.55139(18) 0.47447(18)
C35 C 0.1409(3) 0.5631(2) 0.4233(3)
H33 H 0.2006 0.5044 0.4189
C36 C 0.1752(3) 0.6597(3) 0.3789(3)
H34 H 0.2573 0.6640 0.3440
N4A N -0.0974(3) 0.25231(19) 0.6172(2)
C32A C 0.0200(4) 0.2631(2) 0.5719(3)
H31A H 0.0792 0.2029 0.5706
C33A C 0.0619(3) 0.3564(2) 0.5264(2)
H32A H 0.1470 0.3575 0.4956
C34A C -0.0198(2) 0.44861(18) 0.52553(18)
C35A C -0.1409(3) 0.4369(2) 0.5767(3)
H33A H -0.2006 0.4956 0.5811
C36A C -0.1752(3) 0.3403(3) 0.6211(3)
H34A H -0.2573 0.3360 0.6560
loop_
_geom_bond_atom_site_label_1
_geom_bond_atom_site_label_2
_geom_bond_site_symmetry_1
_geom_bond_site_symmetry_2
Mg1 O1 1_555 1_555
Cl1 C4 1_555 1_555
Cl2 C6 1_555 1_555
Cl3 C12 1_555 1_555
Cl4 C14 1_555 1_555
C1 C2 1_555 1_555
C2 H1 1_555 1_555
H2 C2 1_555 1_555
C3 C2 1_555 1_555
C4 C3 1_555 1_555
C5 C4 1_555 1_555
H3 C5 1_555 1_555
C6 C5 1_555 1_555
C7 C6 1_555 1_555
H4 C7 1_555 1_555
C8 C3 1_555 1_555
H5 C8 1_555 1_555
C9 C10 1_555 1_555
C10 H6 1_555 1_555
H7 C10 1_555 1_555
C11 C10 1_555 1_555
C12 C11 1_555 1_555
C13 C12 1_555 1_555
H8 C13 1_555 1_555
C14 C13 1_555 1_555
C15 C14 1_555 1_555
H9 C15 1_555 1_555
C16 C11 1_555 1_555
H10 C16 1_555 1_555
O1 C1 1_555 1_555
O2 Mg1 1_555 1_555
H11 O2 1_555 1_555
H12 O2 1_555 1_555
O3 Mg1 1_555 1_555
H13 O3 1_555 1_555
H14 O3 1_555 1_555
O4 C1 1_555 1_555
O5 Mg1 1_555 1_555
H15 O5 1_555 1_555
H16 O5 1_555 1_555
O6 Mg1 1_555 1_555
O7 Mg1 1_555 1_555
H17 O7 1_555 1_555
H18 O7 1_555 1_555
O8 C9 1_555 1_555
N1 C23 1_555 1_555
N2 C19 1_555 1_555
C17 C18 1_555 1_555
C18 H19 1_555 1_555
C19 C18 1_555 1_555
H20 C19 1_555 1_555
C20 N2 1_555 1_555
H21 C20 1_555 1_555
C21 C17 1_555 1_555
H22 C21 1_555 1_555
C22 H23 1_555 1_555
C23 C22 1_555 1_555
H24 C23 1_555 1_555
C24 N1 1_555 1_555
H25 C24 1_555 1_555
C25 C24 1_555 1_555
H26 C25 1_555 1_555
C26 C17 1_555 1_555
N3 C27 1_555 1_555
C27 H27 1_555 1_555
C28 C27 1_555 1_555
H28 C28 1_555 1_555
C29 C28 1_555 1_555
C30 C29 1_555 1_555
H29 C30 1_555 1_555
C31 N3 1_555 1_555
H30 C31 1_555 1_555
N4 C32 1_555 1_555
C32 H31 1_555 1_555
C33 C32 1_555 1_555
H32 C33 1_555 1_555
C34 C33 1_555 1_555
C35 C34 1_555 1_555
H33 C35 1_555 1_555
C36 N4 1_555 1_555
H34 C36 1_555 1_555
N3A C27A 1_555 1_555
C27A H27A 1_555 1_555
C28A C27A 1_555 1_555
H28A C28A 1_555 1_555
C29A C29 1_555 1_555
C30A C29A 1_555 1_555
H29A C30A 1_555 1_555
C31A N3A 1_555 1_555
H30A C31A 1_555 1_555
N4A C32A 1_555 1_555
C32A H31A 1_555 1_555
C33A C32A 1_555 1_555
H32A C33A 1_555 1_555
C34A C34 1_555 1_555
C35A C34A 1_555 1_555
H33A C35A 1_555 1_555
C36A N4A 1_555 1_555
H34A C36A 1_555 1_555
C7 C8 1_555 1_555
C9 O6 1_555 1_555
C15 C16 1_555 1_555
C20 C21 1_555 1_555
C22 C26 1_555 1_555
C25 C26 1_555 1_555
C30 C31 1_555 1_555
C35 C36 1_555 1_555
C28A C29A 1_555 1_555
C30A C31A 1_555 1_555
C33A C34A 1_555 1_555
C35A C36A 1_555 1_555

#END
