
#######################################################################
#
#                 Cambridge Crystallographic Data Centre
#                                CCDC 
#
#######################################################################
#
# If this CIF has been generated from an entry in the Cambridge 
# Structural Database, then it will include bibliographic, chemical, 
# crystal, experimental, refinement or atomic coordinate data resulting 
# from the CCDC's data processing and validation procedures.
#
#######################################################################

data_LELJIX
_chemical_formula_moiety         'C17 H19 Br1 O5'
_chemical_name_systematic        
'Ethyl 4-(2-(4-bromophenyl)-2-oxoethyl)-5,5-dimethyl-2-oxotetrahydrofuran-3-carboxylate'
_symmetry_cell_setting           orthorhombic
_symmetry_space_group_name_H-M   'P 21 21 21'
_symmetry_Int_Tables_number      19
_space_group_name_Hall           'P 2ac 2ab'
loop_
_symmetry_equiv_pos_site_id
_symmetry_equiv_pos_as_xyz
1 x,y,z
2 1/2-x,-y,1/2+z
3 -x,1/2+y,1/2-z
4 1/2+x,1/2-y,-z
_cell_length_a                   6.941(3)
_cell_length_b                   11.055(4)
_cell_length_c                   22.261(8)
_cell_angle_alpha                90
_cell_angle_beta                 90
_cell_angle_gamma                90
_cell_volume                     1708.15
_exptl_crystal_colour            colorless
_exptl_crystal_description       prism
_cell_formula_units_Z            4
loop_
_atom_site_label
_atom_site_type_symbol
_atom_site_fract_x
_atom_site_fract_y
_atom_site_fract_z
Br1 Br -0.77497(5) -0.01458(3) 0.052370(19)
O1 O -0.8462(3) -0.7108(2) -0.28318(8)
O2 O -0.5895(5) -0.8296(3) -0.27661(11)
O3 O -0.7025(3) -0.84403(18) -0.13523(10)
O4 O -0.4235(3) -0.74248(17) -0.12710(7)
O5 O -0.7621(3) -0.58075(15) -0.06987(7)
C1 C -0.6843(4) -0.7486(3) -0.25677(11)
C2 C -0.6446(4) -0.6751(3) -0.19998(10)
H1 H -0.5365 -0.6197 -0.2067
C3 C -0.8314(4) -0.6036(2) -0.19145(9)
H2 H -0.9182 -0.6521 -0.1664
C4 C -0.9173(4) -0.5979(3) -0.25533(10)
C5 C -0.8113(4) -0.4795(2) -0.16256(9)
H3 H -0.7042 -0.4372 -0.1811
H4 H -0.9272 -0.4331 -0.1704
C6 C -0.7783(3) -0.4854(2) -0.09533(9)
C7 C -0.7712(4) -0.3680(2) -0.06135(9)
C8 C -0.7708(4) -0.3718(2) 0.00097(10)
H5 H -0.7717 -0.4462 0.0204
C9 C -0.7691(4) -0.2670(3) 0.03448(11)
H6 H -0.7672 -0.2705 0.0762
C10 C -0.7701(4) -0.1585(2) 0.00583(13)
C11 C -0.7682(5) -0.1494(2) -0.05586(14)
H7 H -0.7660 -0.0744 -0.0747
C12 C -0.7696(5) -0.2564(2) -0.08914(12)
H8 H -0.7695 -0.2524 -0.1309
C13 C -0.5965(4) -0.7631(2) -0.15000(11)
C14 C -0.3648(4) -0.8211(3) -0.07812(12)
H9 H -0.3939 -0.9046 -0.0879
H10 H -0.4340 -0.7998 -0.0418
C15 C -0.1535(5) -0.8062(3) -0.06860(12)
H11 H -0.1123 -0.8578 -0.0364
H12 H -0.1261 -0.7235 -0.0586
H13 H -0.0861 -0.8277 -0.1047
C16 C -1.1325(5) -0.6037(3) -0.25453(15)
H14 H -1.1804 -0.6002 -0.2950
H15 H -1.1824 -0.5365 -0.2320
H16 H -1.1729 -0.6779 -0.2361
C17 C -0.8416(6) -0.4947(3) -0.29362(11)
H17 H -0.9010 -0.4976 -0.3326
H18 H -0.7045 -0.5022 -0.2979
H19 H -0.8715 -0.4190 -0.2747
loop_
_geom_bond_atom_site_label_1
_geom_bond_atom_site_label_2
_geom_bond_site_symmetry_1
_geom_bond_site_symmetry_2
Br1 C10 1_555 1_555
O1 C1 1_555 1_555
O2 C1 1_555 1_555
O3 C13 1_555 1_555
O4 C13 1_555 1_555
O5 C6 1_555 1_555
C1 C2 1_555 1_555
C2 H1 1_555 1_555
C3 C2 1_555 1_555
H2 C3 1_555 1_555
C4 O1 1_555 1_555
C5 C3 1_555 1_555
H3 C5 1_555 1_555
H4 C5 1_555 1_555
C6 C5 1_555 1_555
C7 C6 1_555 1_555
C8 C7 1_555 1_555
H5 C8 1_555 1_555
C9 C8 1_555 1_555
H6 C9 1_555 1_555
C10 C9 1_555 1_555
C11 C10 1_555 1_555
H7 C11 1_555 1_555
C12 C7 1_555 1_555
H8 C12 1_555 1_555
C13 C2 1_555 1_555
C14 O4 1_555 1_555
H9 C14 1_555 1_555
H10 C14 1_555 1_555
C15 C14 1_555 1_555
H11 C15 1_555 1_555
H12 C15 1_555 1_555
H13 C15 1_555 1_555
C16 C4 1_555 1_555
H14 C16 1_555 1_555
H15 C16 1_555 1_555
H16 C16 1_555 1_555
C17 C4 1_555 1_555
H17 C17 1_555 1_555
H18 C17 1_555 1_555
H19 C17 1_555 1_555
C3 C4 1_555 1_555
C11 C12 1_555 1_555

#END
