
#######################################################################
#
#                 Cambridge Crystallographic Data Centre
#                                CCDC 
#
#######################################################################
#
# If this CIF has been generated from an entry in the Cambridge 
# Structural Database, then it will include bibliographic, chemical, 
# crystal, experimental, refinement or atomic coordinate data resulting 
# from the CCDC's data processing and validation procedures.
#
#######################################################################

data_LELKUK
_chemical_formula_moiety         'C17 H15 N1 O1'
_chemical_name_systematic        
(1-Methyl-1H-indol-3-yl)(4-methylphenyl)methanone
_symmetry_cell_setting           monoclinic
_symmetry_space_group_name_H-M   'P 21/n'
_symmetry_Int_Tables_number      14
_space_group_name_Hall           '-P 2yn'
loop_
_symmetry_equiv_pos_site_id
_symmetry_equiv_pos_as_xyz
1 x,y,z
2 1/2-x,1/2+y,1/2-z
3 -x,-y,-z
4 1/2+x,1/2-y,1/2+z
_cell_length_a                   11.180(9)
_cell_length_b                   7.292(6)
_cell_length_c                   16.780(13)
_cell_angle_alpha                90
_cell_angle_beta                 100.945(7)
_cell_angle_gamma                90
_cell_volume                     1343.1
_exptl_crystal_colour            colorless
_exptl_crystal_description       block
_cell_formula_units_Z            4
loop_
_atom_site_label
_atom_site_type_symbol
_atom_site_fract_x
_atom_site_fract_y
_atom_site_fract_z
C1 C 0.3278(4) 0.0114(5) 0.6998(3)
C2 C 0.4278(4) -0.0219(6) 0.6636(3)
H1 H 0.5069 -0.0204 0.6933
C3 C 0.4036(5) -0.0574(7) 0.5814(3)
H2 H 0.4681 -0.0817 0.5553
C4 C 0.2855(5) -0.0578(7) 0.5366(3)
H3 H 0.2729 -0.0817 0.4811
C5 C 0.1870(5) -0.0236(6) 0.5725(3)
H4 H 0.1084 -0.0239 0.5419
C6 C 0.2070(4) 0.0117(5) 0.6561(3)
C7 C 0.1295(4) 0.0423(5) 0.7148(2)
C8 C 0.2076(4) 0.0628(6) 0.7885(3)
H5 H 0.1826 0.0859 0.8374
C9 C 0.4304(4) 0.0517(7) 0.8461(3)
H6 H 0.4939 0.1219 0.8293
H7 H 0.4589 -0.0707 0.8596
H8 H 0.4080 0.1082 0.8929
C10 C -0.0021(4) 0.0573(6) 0.6989(3)
C11 C -0.0680(3) 0.0561(5) 0.7688(2)
C12 C -0.0338(4) -0.0586(6) 0.8353(3)
H9 H 0.0320 -0.1375 0.8370
C13 C -0.0961(4) -0.0571(6) 0.8988(3)
H10 H -0.0728 -0.1364 0.9424
C14 C -0.1941(4) 0.0627(6) 0.8982(3)
C15 C -0.2283(4) 0.1746(6) 0.8316(3)
H11 H -0.2933 0.2550 0.8302
C16 C -0.1685(4) 0.1700(6) 0.7672(3)
H12 H -0.1954 0.2436 0.7221
C17 C -0.2604(5) 0.0686(8) 0.9690(3)
H13 H -0.3298 0.1481 0.9560
H14 H -0.2064 0.1140 1.0163
H15 H -0.2869 -0.0527 0.9796
N1 N 0.3251(3) 0.0452(5) 0.7805(2)
O1 O -0.0609(3) 0.0769(6) 0.62959(19)
loop_
_geom_bond_atom_site_label_1
_geom_bond_atom_site_label_2
_geom_bond_site_symmetry_1
_geom_bond_site_symmetry_2
C1 C2 1_555 1_555
C2 H1 1_555 1_555
C3 C2 1_555 1_555
H2 C3 1_555 1_555
C4 C3 1_555 1_555
H3 C4 1_555 1_555
C5 C4 1_555 1_555
H4 C5 1_555 1_555
C6 C1 1_555 1_555
C7 C6 1_555 1_555
C8 C7 1_555 1_555
H5 C8 1_555 1_555
C9 H6 1_555 1_555
H7 C9 1_555 1_555
H8 C9 1_555 1_555
C10 C7 1_555 1_555
C11 C10 1_555 1_555
C12 C11 1_555 1_555
H9 C12 1_555 1_555
C13 C12 1_555 1_555
H10 C13 1_555 1_555
C14 C13 1_555 1_555
C15 C14 1_555 1_555
H11 C15 1_555 1_555
C16 C11 1_555 1_555
H12 C16 1_555 1_555
C17 C14 1_555 1_555
H13 C17 1_555 1_555
H14 C17 1_555 1_555
H15 C17 1_555 1_555
N1 C1 1_555 1_555
O1 C10 1_555 1_555
C5 C6 1_555 1_555
C8 N1 1_555 1_555
C9 N1 1_555 1_555
C15 C16 1_555 1_555

#END
