
#######################################################################
#
#                 Cambridge Crystallographic Data Centre
#                                CCDC 
#
#######################################################################
#
# If this CIF has been generated from an entry in the Cambridge 
# Structural Database, then it will include bibliographic, chemical, 
# crystal, experimental, refinement or atomic coordinate data resulting 
# from the CCDC's data processing and validation procedures.
#
#######################################################################

data_LELKEU
_chemical_formula_moiety         
'C23 H20 Br2 N2 O4 S1,0.25(C4 H8 O2),0.5(H2 O1)'
_chemical_name_systematic        
'N-((3,5-dibromo-2-oxo-2,3-dihydro-1H-indol-3-yl)(4-methoxyphenyl)methyl)-4-methylbenzenesulfonamide ethyl acetate solvate hemihydrate'
_symmetry_cell_setting           monoclinic
_symmetry_space_group_name_H-M   'P 21'
_symmetry_Int_Tables_number      4
_space_group_name_Hall           'P 2yb'
loop_
_symmetry_equiv_pos_site_id
_symmetry_equiv_pos_as_xyz
1 x,y,z
2 -x,1/2+y,-z
_cell_length_a                   10.6545(13)
_cell_length_b                   20.649(3)
_cell_length_c                   13.3304(16)
_cell_angle_alpha                90
_cell_angle_beta                 99.311(2)
_cell_angle_gamma                90
_cell_volume                     2894.11
_exptl_crystal_colour            colorless
_exptl_crystal_description       block
_cell_formula_units_Z            4
loop_
_atom_site_label
_atom_site_type_symbol
_atom_site_fract_x
_atom_site_fract_y
_atom_site_fract_z
Br1 Br 0.56003(13) 0.27820(7) 0.45150(10)
Br2 Br 0.01965(14) 0.29116(11) 0.56814(14)
S2 S 0.4230(2) 0.43694(15) 0.2540(2)
O1 O 0.7182(8) 0.3915(6) 0.6072(7)
O2 O 0.5542(8) 0.4426(5) 0.2514(7)
O3 O 0.3411(8) 0.4046(4) 0.1737(6)
O4 O 0.3376(12) 0.6442(5) 0.6317(10)
N1 N 0.5727(9) 0.3439(6) 0.6982(7)
N2 N 0.4077(8) 0.3961(4) 0.3551(7)
C1 C 0.6183(9) 0.3653(7) 0.6123(8)
C2 C 0.4443(11) 0.3241(6) 0.6798(8)
C3 C 0.3667(16) 0.3021(7) 0.7444(9)
H5 H 0.3984 0.2954 0.8128
C4 C 0.2527(15) 0.2910(8) 0.7103(10)
H6 H 0.2013 0.2740 0.7540
C5 C 0.2015(13) 0.3024(8) 0.6148(9)
C6 C 0.2691(11) 0.3178(6) 0.5452(9)
H7 H 0.2342 0.3184 0.4765
C7 C 0.3926(11) 0.3330(6) 0.5778(8)
C8 C 0.5040(11) 0.3541(6) 0.5244(9)
C9 C 0.4864(9) 0.4145(5) 0.4494(8)
H8 H 0.5706 0.4256 0.4339
C10 C 0.4395(11) 0.4731(6) 0.5074(7)
C11 C 0.3159(10) 0.4852(6) 0.5078(9)
H9 H 0.2539 0.4558 0.4798
C12 C 0.2835(13) 0.5410(7) 0.5498(10)
H10 H 0.1978 0.5485 0.5513
C13 C 0.3673(15) 0.5862(7) 0.5895(10)
C14 C 0.4851(16) 0.5720(8) 0.5874(15)
H11 H 0.5454 0.6014 0.6181
C15 C 0.5292(12) 0.5202(7) 0.5465(12)
H12 H 0.6153 0.5152 0.5437
C16 C 0.209(2) 0.6597(11) 0.631(2)
H13 H 0.1566 0.6245 0.6015
H14 H 0.1880 0.6982 0.5913
H15 H 0.1947 0.6669 0.6992
C17 C 0.3642(11) 0.5141(6) 0.2656(8)
C18 C 0.2341(13) 0.5228(7) 0.2604(11)
H16 H 0.1790 0.4876 0.2535
C19 C 0.1888(14) 0.5851(8) 0.2657(14)
H17 H 0.1014 0.5917 0.2528
C20 C 0.2673(15) 0.6384(7) 0.2892(12)
C21 C 0.3958(17) 0.6277(8) 0.3011(16)
H18 H 0.4497 0.6629 0.3172
C22 C 0.4524(14) 0.5658(7) 0.2904(12)
H19 H 0.5400 0.5598 0.2990
C23 C 0.2086(19) 0.7033(8) 0.312(2)
H20 H 0.2097 0.7070 0.3843
H21 H 0.1225 0.7054 0.2777
H22 H 0.2569 0.7380 0.2898
Br3 Br 0.04552(11) 0.25344(6) -0.06152(9)
Br4 Br 0.47151(14) 0.44500(10) -0.08214(13)
S1 S 0.0649(3) 0.31212(15) 0.2290(2)
O5 O -0.2229(8) 0.3358(5) -0.1318(7)
O6 O 0.1512(8) 0.3437(5) 0.3057(6)
O7 O -0.0667(8) 0.3071(5) 0.2360(7)
O8 O -0.1887(11) 0.6218(5) 0.0941(11)
N3 N -0.0813(9) 0.3912(5) -0.2187(7)
N4 N 0.0795(9) 0.3497(5) 0.1257(7)
C24 C -0.1181(12) 0.3554(6) -0.1375(8)
C25 C 0.0438(12) 0.4093(6) -0.1956(8)
C26 C 0.1140(13) 0.4465(7) -0.2539(10)
H23 H 0.0760 0.4643 -0.3154
C27 C 0.2368(13) 0.4558(7) -0.2189(10)
H24 H 0.2842 0.4814 -0.2564
C28 C 0.2960(14) 0.4287(7) -0.1290(9)
C29 C 0.2251(13) 0.3918(7) -0.0679(9)
H25 H 0.2635 0.3744 -0.0062
C30 C 0.1026(11) 0.3828(6) -0.1015(9)
C31 C 0.0032(11) 0.3450(5) -0.0545(9)
C32 C -0.0277(9) 0.3642(6) 0.0444(8)
H26 H -0.0976 0.3359 0.0566
C33 C -0.0737(10) 0.4312(5) 0.0521(7)
C34 C -0.1926(11) 0.4429(7) 0.0788(9)
H27 H -0.2447 0.4079 0.0872
C35 C -0.2371(13) 0.5065(7) 0.0937(12)
H28 H -0.3171 0.5136 0.1110
C36 C -0.1571(13) 0.5572(7) 0.0816(11)
C37 C -0.0399(12) 0.5491(7) 0.0595(11)
H29 H 0.0120 0.5847 0.0534
C38 C 0.0039(12) 0.4851(6) 0.0455(9)
H30 H 0.0859 0.4791 0.0317
C39 C -0.309(2) 0.6328(12) 0.130(2)
H31 H -0.3732 0.6441 0.0730
H32 H -0.2997 0.6674 0.1782
H33 H -0.3344 0.5941 0.1609
C40 C 0.1250(7) 0.2336(3) 0.2183(6)
C41 C 0.0429(7) 0.1809(5) 0.2117(7)
H34 H -0.0429 0.1872 0.2144
C42 C 0.0890(12) 0.1188(4) 0.2008(9)
H35 H 0.0340 0.0835 0.1964
C43 C 0.2172(13) 0.1093(4) 0.1967(8)
C44 C 0.2993(8) 0.1620(5) 0.2034(8)
H36 H 0.3851 0.1556 0.2006
C45 C 0.2532(7) 0.2241(4) 0.2142(8)
H37 H 0.3082 0.2594 0.2186
C46 C 0.264(2) 0.0413(10) 0.1941(19)
H38 H 0.3503 0.0415 0.1812
H39 H 0.2114 0.0178 0.1410
H40 H 0.2611 0.0208 0.2583
O9 O 0.470(4) 0.746(3) 1.008(4)
O10 O 0.3032(18) 0.7120(9) 0.9343(14)
C47 C 0.412(3) 0.7908(14) 0.8448(18)
H41 H 0.4761 0.8234 0.8623
H42 H 0.3333 0.8109 0.8162
H43 H 0.4382 0.7616 0.7960
C48 C 0.398(2) 0.7500(11) 0.9353(15)
C49 C 0.289(3) 0.6690(11) 1.013(2)
H44 H 0.2237 0.6848 1.0485
H45 H 0.3671 0.6669 1.0597
C50 C 0.248(4) 0.6029(10) 0.972(3)
H46 H 0.2391 0.5741 1.0271
H47 H 0.1696 0.6051 0.9259
H48 H 0.3141 0.5871 0.9372
O11 O 0.866(2) 0.4445(14) 0.3830(19)
H1 H 0.9383 0.4618 0.4038
H2 H 0.8760 0.4119 0.3461
O12 O 0.790(3) 0.632(2) 0.495(3)
H3 H 0.8685 0.6327 0.4897
H4 H 0.7566 0.6684 0.4765
loop_
_geom_bond_atom_site_label_1
_geom_bond_atom_site_label_2
_geom_bond_site_symmetry_1
_geom_bond_site_symmetry_2
Br1 C8 1_555 1_555
Br2 C5 1_555 1_555
Br3 C31 1_555 1_555
Br4 C28 1_555 1_555
S1 O6 1_555 1_555
S2 O2 1_555 1_555
O1 C1 1_555 1_555
O3 S2 1_555 1_555
O4 C13 1_555 1_555
O5 C24 1_555 1_555
O7 S1 1_555 1_555
O8 C36 1_555 1_555
O9 C48 1_555 1_555
O10 C48 1_555 1_555
O11 H1 1_555 1_555
H2 O11 1_555 1_555
O12 H3 1_555 1_555
H4 O12 1_555 1_555
N1 C1 1_555 1_555
N2 S2 1_555 1_555
N3 C24 1_555 1_555
N4 S1 1_555 1_555
C1 C8 1_555 1_555
C2 N1 1_555 1_555
C3 C2 1_555 1_555
H5 C3 1_555 1_555
C4 C3 1_555 1_555
H6 C4 1_555 1_555
C5 C4 1_555 1_555
C6 C5 1_555 1_555
H7 C6 1_555 1_555
C7 C2 1_555 1_555
C8 C7 1_555 1_555
C9 N2 1_555 1_555
H8 C9 1_555 1_555
C10 C9 1_555 1_555
C11 C10 1_555 1_555
H9 C11 1_555 1_555
C12 C11 1_555 1_555
H10 C12 1_555 1_555
C13 C12 1_555 1_555
C14 C13 1_555 1_555
H11 C14 1_555 1_555
C15 C10 1_555 1_555
H12 C15 1_555 1_555
C16 O4 1_555 1_555
H13 C16 1_555 1_555
H14 C16 1_555 1_555
H15 C16 1_555 1_555
C17 S2 1_555 1_555
C18 C17 1_555 1_555
H16 C18 1_555 1_555
C19 C18 1_555 1_555
H17 C19 1_555 1_555
C20 C19 1_555 1_555
C21 C20 1_555 1_555
H18 C21 1_555 1_555
C22 C17 1_555 1_555
H19 C22 1_555 1_555
C23 C20 1_555 1_555
H20 C23 1_555 1_555
H21 C23 1_555 1_555
H22 C23 1_555 1_555
C24 C31 1_555 1_555
C25 N3 1_555 1_555
C26 C25 1_555 1_555
H23 C26 1_555 1_555
C27 C26 1_555 1_555
H24 C27 1_555 1_555
C28 C27 1_555 1_555
C29 C28 1_555 1_555
H25 C29 1_555 1_555
C30 C25 1_555 1_555
C31 C30 1_555 1_555
C32 N4 1_555 1_555
H26 C32 1_555 1_555
C33 C32 1_555 1_555
C34 C33 1_555 1_555
H27 C34 1_555 1_555
C35 C34 1_555 1_555
H28 C35 1_555 1_555
C36 C35 1_555 1_555
C37 C36 1_555 1_555
H29 C37 1_555 1_555
C38 C33 1_555 1_555
H30 C38 1_555 1_555
C39 O8 1_555 1_555
H31 C39 1_555 1_555
H32 C39 1_555 1_555
H33 C39 1_555 1_555
C40 S1 1_555 1_555
C41 C40 1_555 1_555
H34 C41 1_555 1_555
C42 C41 1_555 1_555
H35 C42 1_555 1_555
C43 C42 1_555 1_555
C44 C43 1_555 1_555
H36 C44 1_555 1_555
C45 C40 1_555 1_555
H37 C45 1_555 1_555
C46 C43 1_555 1_555
H38 C46 1_555 1_555
H39 C46 1_555 1_555
H40 C46 1_555 1_555
C47 H41 1_555 1_555
H42 C47 1_555 1_555
H43 C47 1_555 1_555
C48 C47 1_555 1_555
C49 O10 1_555 1_555
H44 C49 1_555 1_555
H45 C49 1_555 1_555
C50 C49 1_555 1_555
H46 C50 1_555 1_555
H47 C50 1_555 1_555
H48 C50 1_555 1_555
C6 C7 1_555 1_555
C8 C9 1_555 1_555
C14 C15 1_555 1_555
C21 C22 1_555 1_555
C29 C30 1_555 1_555
C31 C32 1_555 1_555
C37 C38 1_555 1_555
C44 C45 1_555 1_555

#END
