
#######################################################################
#
#                 Cambridge Crystallographic Data Centre
#                                CCDC 
#
#######################################################################
#
# If this CIF has been generated from an entry in the Cambridge 
# Structural Database, then it will include bibliographic, chemical, 
# crystal, experimental, refinement or atomic coordinate data resulting 
# from the CCDC's data processing and validation procedures.
#
#######################################################################

data_LELPUP
_chemical_name_common            4-m-tolyl-1,2,3,5-dithiadiazolyl
_chemical_formula_moiety         'C8 H7 N2 S2'
_chemical_name_systematic        4-(3-Methylphenyl)-3H-1,2,3,5-dithiadiazole
_symmetry_cell_setting           monoclinic
_symmetry_space_group_name_H-M   'P 21'
_symmetry_Int_Tables_number      4
_space_group_name_Hall           'P 2yb'
loop_
_symmetry_equiv_pos_site_id
_symmetry_equiv_pos_as_xyz
1 x,y,z
2 -x,1/2+y,-z
_cell_length_a                   5.9118(12)
_cell_length_b                   13.360(3)
_cell_length_c                   10.963(2)
_cell_angle_alpha                90
_cell_angle_beta                 105.11(3)
_cell_angle_gamma                90
_cell_volume                     835.94
_exptl_crystal_colour            red
_exptl_crystal_description       lath
_cell_formula_units_Z            4
loop_
_atom_site_label
_atom_site_type_symbol
_atom_site_fract_x
_atom_site_fract_y
_atom_site_fract_z
C1 C 0.0579(4) 0.32773(15) 0.06086(19)
S1 S -0.27455(8) 0.44732(4) -0.01479(5)
N1 N -0.1463(3) 0.35845(14) 0.07945(17)
C2 C 0.1879(3) 0.24587(15) 0.14039(19)
S2 S -0.01189(10) 0.45490(4) -0.11136(5)
N2 N 0.1476(4) 0.36670(15) -0.02826(19)
C3 C 0.1095(4) 0.20853(15) 0.24025(19)
H1 H -0.0280 0.2357 0.2568
C4 C 0.2293(4) 0.13191(15) 0.31661(19)
C5 C 0.4307(4) 0.09392(16) 0.2904(2)
H2 H 0.5153 0.0418 0.3416
C6 C 0.5097(3) 0.13087(15) 0.1910(2)
H3 H 0.6473 0.1037 0.1744
C7 C 0.3902(4) 0.20689(15) 0.1156(2)
H4 H 0.4452 0.2323 0.0476
C8 C 0.1444(4) 0.09111(18) 0.4242(2)
H5 H 0.1481 0.0178 0.4224
H6 H -0.0165 0.1137 0.4162
H7 H 0.2460 0.1151 0.5043
C9 C 0.2785(3) 0.50239(15) 0.27295(18)
S3 S -0.05752(10) 0.61175(4) 0.16397(5)
C10 C 0.3977(3) 0.42951(16) 0.36929(18)
N3 N 0.0628(3) 0.53275(15) 0.27463(17)
S4 S 0.23317(10) 0.61757(4) 0.08837(5)
N4 N 0.3860(3) 0.53651(15) 0.18870(18)
C11 C 0.3057(4) 0.40593(16) 0.47056(19)
H8 H 0.1635 0.4366 0.4758
C12 C 0.4152(4) 0.33913(16) 0.5637(2)
C13 C 0.6216(4) 0.29326(18) 0.5537(2)
H9 H 0.6989 0.2462 0.6156
C14 C 0.7142(4) 0.31676(18) 0.4522(2)
H10 H 0.8555 0.2856 0.4464
C15 C 0.6062(4) 0.38357(16) 0.3609(2)
H11 H 0.6718 0.3986 0.2926
C16 C 0.3172(4) 0.3166(2) 0.6746(2)
H12 H 0.4108 0.3511 0.7498
H13 H 0.3226 0.2443 0.6899
H14 H 0.1546 0.3398 0.6562
loop_
_geom_bond_atom_site_label_1
_geom_bond_atom_site_label_2
_geom_bond_site_symmetry_1
_geom_bond_site_symmetry_2
C1 N1 1_555 1_555
S1 N1 1_555 1_555
C2 C1 1_555 1_555
S2 S1 1_555 1_555
N2 C1 1_555 1_555
C3 C2 1_555 1_555
H1 C3 1_555 1_555
C4 C3 1_555 1_555
C5 C4 1_555 1_555
H2 C5 1_555 1_555
C6 C5 1_555 1_555
H3 C6 1_555 1_555
C7 C2 1_555 1_555
H4 C7 1_555 1_555
C8 C4 1_555 1_555
H5 C8 1_555 1_555
H6 C8 1_555 1_555
H7 C8 1_555 1_555
C9 C10 1_555 1_555
S3 N3 1_555 1_555
C10 C11 1_555 1_555
N3 C9 1_555 1_555
S4 S3 1_555 1_555
N4 C9 1_555 1_555
C11 H8 1_555 1_555
C12 C11 1_555 1_555
C13 C12 1_555 1_555
H9 C13 1_555 1_555
C14 C13 1_555 1_555
H10 C14 1_555 1_555
C15 C10 1_555 1_555
H11 C15 1_555 1_555
C16 C12 1_555 1_555
H12 C16 1_555 1_555
H13 C16 1_555 1_555
H14 C16 1_555 1_555
S2 N2 1_555 1_555
C6 C7 1_555 1_555
S4 N4 1_555 1_555
C14 C15 1_555 1_555

#END
