
#######################################################################
#
#                 Cambridge Crystallographic Data Centre
#                                CCDC 
#
#######################################################################
#
# If this CIF has been generated from an entry in the Cambridge 
# Structural Database, then it will include bibliographic, chemical, 
# crystal, experimental, refinement or atomic coordinate data resulting 
# from the CCDC's data processing and validation procedures.
#
#######################################################################

data_LELPEA
_chemical_formula_moiety         'C18 H52 B10 N2 Si5'
_chemical_name_systematic        
1,2-(1-hydrido-2-isopropyl-1-(tris(trimethylsilyl)silyl)-3-(isopropylimino)-1-sila-2-azapropane-1,3-diyl)-1,2-dicarba-closo-dodecaborane
_symmetry_cell_setting           monoclinic
_symmetry_space_group_name_H-M   'P 21/c'
_symmetry_Int_Tables_number      14
_space_group_name_Hall           '-P 2ybc'
loop_
_symmetry_equiv_pos_site_id
_symmetry_equiv_pos_as_xyz
1 x,y,z
2 -x,1/2+y,1/2-z
3 -x,-y,-z
4 x,1/2-y,1/2+z
_cell_length_a                   16.0649(9)
_cell_length_b                   15.2313(10)
_cell_length_c                   16.4004(10)
_cell_angle_alpha                90
_cell_angle_beta                 117.8910(10)
_cell_angle_gamma                90
_cell_volume                     3546.85
_exptl_crystal_colour            colorless
_exptl_crystal_description       block
_cell_formula_units_Z            4
loop_
_atom_site_label
_atom_site_type_symbol
_atom_site_fract_x
_atom_site_fract_y
_atom_site_fract_z
Si1 Si 0.30131(3) 1.01148(3) 0.46034(3)
Si2 Si 0.17936(3) 1.09815(3) 0.35160(3)
Si3 Si 0.23796(4) 1.24296(3) 0.35933(4)
Si4 Si 0.15202(5) 1.04277(4) 0.20588(4)
Si5 Si 0.04155(3) 1.10633(4) 0.36777(4)
N1 N 0.40479(12) 0.99391(11) 0.72849(10)
N2 N 0.35123(9) 1.03829(9) 0.57725(9)
C1 C 0.32733(11) 0.88582(11) 0.59814(11)
C2 C 0.28109(11) 0.89324(10) 0.48341(11)
C3 C 0.36486(11) 0.97483(11) 0.64361(11)
C4 C 0.42014(17) 0.93525(16) 0.80497(13)
H1 H 0.4005 0.8754 0.7820
C5 C 0.3612(3) 0.9696(2) 0.8483(2)
H2 H 0.2958 0.9680 0.8035
H3 H 0.3792 1.0290 0.8685
H4 H 0.3713 0.9336 0.9001
C6 C 0.5244(2) 0.9368(2) 0.87266(18)
H5 H 0.5595 0.9141 0.8433
H6 H 0.5361 0.9012 0.9252
H7 H 0.5437 0.9961 0.8923
C7 C 0.39466(13) 1.12648(11) 0.60644(12)
H8 H 0.3747 1.1602 0.5494
C8 C 0.35966(17) 1.17751(14) 0.66372(15)
H9 H 0.2921 1.1784 0.6326
H10 H 0.3831 1.2366 0.6720
H11 H 0.3817 1.1499 0.7229
C9 C 0.50136(15) 1.12276(17) 0.65106(17)
H12 H 0.5201 1.0900 0.6124
H13 H 0.5254 1.0947 0.7102
H14 H 0.5261 1.1813 0.6589
C10 C 0.36484(15) 1.24306(16) 0.38598(17)
H15 H 0.3859 1.3025 0.3886
H16 H 0.3716 1.2117 0.3386
H17 H 0.4020 1.2150 0.4444
C11 C 0.16831(17) 1.29616(15) 0.24411(16)
H18 H 0.1910 1.3548 0.2459
H19 H 0.1031 1.2981 0.2295
H20 H 0.1751 1.2629 0.1979
C12 C 0.22407(19) 1.31297(15) 0.44583(18)
H21 H 0.2487 1.3705 0.4464
H22 H 0.2578 1.2870 0.5059
H23 H 0.1585 1.3173 0.4296
C13 C 0.2565(2) 1.0653(2) 0.1875(2)
H24 H 0.2450 1.0427 0.1285
H25 H 0.3110 1.0372 0.2352
H26 H 0.2670 1.1275 0.1894
C14 C 0.1305(3) 0.92251(17) 0.19467(18)
H27 H 0.1200 0.9036 0.1348
H28 H 0.0760 0.9093 0.2021
H29 H 0.1843 0.8925 0.2413
C15 C 0.0456(2) 1.0967(2) 0.11246(17)
H30 H 0.0347 1.0742 0.0536
H31 H 0.0555 1.1590 0.1143
H32 H -0.0082 1.0847 0.1215
C16 C 0.07130(17) 1.12721(18) 0.49033(16)
H33 H 0.0144 1.1304 0.4957
H34 H 0.1049 1.1817 0.5102
H35 H 0.1100 1.0803 0.5282
C17 C -0.02994(17) 1.00397(17) 0.3249(2)
H36 H -0.0857 1.0089 0.3322
H37 H 0.0065 0.9546 0.3597
H38 H -0.0474 0.9958 0.2609
C18 C -0.03076(16) 1.20019(17) 0.29633(19)
H39 H -0.0875 1.2047 0.3020
H40 H -0.0466 1.1905 0.2329
H41 H 0.0046 1.2536 0.3174
B1 B 0.38885(14) 0.84227(13) 0.54496(15)
H42 H 0.4559 0.8685 0.5526
B2 B 0.38101(16) 0.78666(14) 0.63622(16)
H43 H 0.4435 0.7760 0.7032
B3 B 0.26860(16) 0.80954(15) 0.62845(17)
H44 H 0.2585 0.8135 0.6902
B4 B 0.20701(14) 0.87978(14) 0.53173(14)
H45 H 0.1575 0.9302 0.5308
B5 B 0.30080(16) 0.79927(14) 0.43825(16)
H46 H 0.3109 0.7969 0.3764
B6 B 0.36309(17) 0.72898(15) 0.53490(18)
H47 H 0.4138 0.6799 0.5359
B7 B 0.28867(18) 0.70855(16) 0.58645(19)
H48 H 0.2911 0.6459 0.6209
B8 B 0.18090(17) 0.76663(16) 0.52195(18)
H49 H 0.1133 0.7420 0.5144
B9 B 0.18917(15) 0.82233(14) 0.43083(15)
H50 H 0.1271 0.8347 0.3640
B10 B 0.23941(17) 0.71598(15) 0.46438(19)
H51 H 0.2098 0.6582 0.4197
H52 H 0.3721(12) 1.0120(12) 0.4336(12)
loop_
_geom_bond_atom_site_label_1
_geom_bond_atom_site_label_2
_geom_bond_site_symmetry_1
_geom_bond_site_symmetry_2
Si1 Si2 1_555 1_555
Si2 Si3 1_555 1_555
Si3 C10 1_555 1_555
Si4 Si2 1_555 1_555
Si5 Si2 1_555 1_555
N1 C3 1_555 1_555
N2 Si1 1_555 1_555
C1 C2 1_555 1_555
C2 Si1 1_555 1_555
C3 N2 1_555 1_555
C4 N1 1_555 1_555
H1 C4 1_555 1_555
C5 C4 1_555 1_555
H2 C5 1_555 1_555
H3 C5 1_555 1_555
H4 C5 1_555 1_555
C6 C4 1_555 1_555
H5 C6 1_555 1_555
H6 C6 1_555 1_555
H7 C6 1_555 1_555
C7 N2 1_555 1_555
H8 C7 1_555 1_555
C8 C7 1_555 1_555
H9 C8 1_555 1_555
H10 C8 1_555 1_555
H11 C8 1_555 1_555
C9 C7 1_555 1_555
H12 C9 1_555 1_555
H13 C9 1_555 1_555
H14 C9 1_555 1_555
C10 H15 1_555 1_555
H16 C10 1_555 1_555
H17 C10 1_555 1_555
C11 Si3 1_555 1_555
H18 C11 1_555 1_555
H19 C11 1_555 1_555
H20 C11 1_555 1_555
C12 Si3 1_555 1_555
H21 C12 1_555 1_555
H22 C12 1_555 1_555
H23 C12 1_555 1_555
C13 Si4 1_555 1_555
H24 C13 1_555 1_555
H25 C13 1_555 1_555
H26 C13 1_555 1_555
C14 Si4 1_555 1_555
H27 C14 1_555 1_555
H28 C14 1_555 1_555
H29 C14 1_555 1_555
C15 Si4 1_555 1_555
H30 C15 1_555 1_555
H31 C15 1_555 1_555
H32 C15 1_555 1_555
C16 Si5 1_555 1_555
H33 C16 1_555 1_555
H34 C16 1_555 1_555
H35 C16 1_555 1_555
C17 Si5 1_555 1_555
H36 C17 1_555 1_555
H37 C17 1_555 1_555
H38 C17 1_555 1_555
C18 Si5 1_555 1_555
H39 C18 1_555 1_555
H40 C18 1_555 1_555
H41 C18 1_555 1_555
B1 C1 1_555 1_555
H42 B1 1_555 1_555
B2 C1 1_555 1_555
H43 B2 1_555 1_555
B3 C1 1_555 1_555
H44 B3 1_555 1_555
B4 C1 1_555 1_555
H45 B4 1_555 1_555
B5 C2 1_555 1_555
H46 B5 1_555 1_555
B6 B1 1_555 1_555
H47 B6 1_555 1_555
B7 B2 1_555 1_555
H48 B7 1_555 1_555
B8 B3 1_555 1_555
H49 B8 1_555 1_555
B9 C2 1_555 1_555
H50 B9 1_555 1_555
B10 B5 1_555 1_555
H51 B10 1_555 1_555
H52 Si1 1_555 1_555
C1 C3 1_555 1_555
C2 B1 1_555 1_555
C2 B4 1_555 1_555
B1 B2 1_555 1_555
B1 B5 1_555 1_555
B2 B3 1_555 1_555
B2 B6 1_555 1_555
B3 B4 1_555 1_555
B3 B7 1_555 1_555
B4 B8 1_555 1_555
B4 B9 1_555 1_555
B5 B6 1_555 1_555
B5 B9 1_555 1_555
B6 B7 1_555 1_555
B6 B10 1_555 1_555
B7 B8 1_555 1_555
B7 B10 1_555 1_555
B8 B9 1_555 1_555
B8 B10 1_555 1_555
B9 B10 1_555 1_555

#END
