
#######################################################################
#
#                 Cambridge Crystallographic Data Centre
#                                CCDC 
#
#######################################################################
#
# If this CIF has been generated from an entry in the Cambridge 
# Structural Database, then it will include bibliographic, chemical, 
# crystal, experimental, refinement or atomic coordinate data resulting 
# from the CCDC's data processing and validation procedures.
#
#######################################################################

data_LELROJ
_chemical_formula_moiety         'C15 H16 N4 O5 S1,C1 H2 Cl2'
_chemical_name_systematic        
"N-(2-(4-Methyl)pyrimidinyl)-N'-(2-ethoxycarbonylphenylsulfonyl)urea dichloromethane solvate"
_symmetry_cell_setting           triclinic
_symmetry_space_group_name_H-M   'P -1'
_symmetry_Int_Tables_number      2
_space_group_name_Hall           '-P 1'
loop_
_symmetry_equiv_pos_site_id
_symmetry_equiv_pos_as_xyz
1 x,y,z
2 -x,-y,-z
_cell_length_a                   7.413(2)
_cell_length_b                   9.166(5)
_cell_length_c                   16.289(5)
_cell_angle_alpha                75.97(4)
_cell_angle_beta                 82.28(2)
_cell_angle_gamma                76.22(3)
_cell_volume                     1039.42
_cell_formula_units_Z            2
loop_
_atom_site_label
_atom_site_type_symbol
_atom_site_fract_x
_atom_site_fract_y
_atom_site_fract_z
S1 S 0.5948(3) 0.4694(2) 0.6970(1)
O1 O 0.0707(7) 0.6808(5) 0.6362(3)
O2 O 0.1456(7) 0.5163(6) 0.7598(3)
O3 O 0.7905(6) 0.4228(6) 0.6761(3)
O4 O 0.5148(8) 0.6288(5) 0.6945(3)
O5 O 0.6741(7) 0.1382(5) 0.7804(3)
N1 N 0.3878(9) 0.1620(6) 1.0407(4)
N2 N 0.3610(8) 0.4025(6) 0.9428(4)
N3 N 0.5217(8) 0.1716(6) 0.9058(3)
N4 N 0.5434(8) 0.3855(6) 0.7952(4)
C1 C 0.4738(9) 0.4031(7) 0.6327(4)
C2 C 0.2812(9) 0.4522(7) 0.6279(4)
C3 C 0.194(1) 0.4030(9) 0.5730(4)
C4 C 0.297(1) 0.3078(8) 0.5203(5)
C5 C 0.493(1) 0.2602(8) 0.5247(5)
C6 C 0.580(1) 0.3082(8) 0.5804(5)
C7 C 0.1619(9) 0.5522(8) 0.6836(5)
C8 C -0.060(1) 0.7844(9) 0.6858(5)
C9 C -0.113(2) 0.934(1) 0.6244(7)
C10 C 0.4177(9) 0.2504(7) 0.9648(4)
C11 C 0.295(1) 0.2338(9) 1.1018(5)
C12 C 0.232(1) 0.3912(9) 1.0863(5)
C13 C 0.265(1) 0.4741(8) 1.0042(5)
C14 C 0.200(1) 0.6467(8) 0.9772(6)
C15 C 0.5847(9) 0.2254(7) 0.8240(4)
Cl1 Cl 0.0802(5) 0.0668(4) 0.8935(2)
Cl2 Cl 0.2941(4) -0.0235(4) 0.7472(2)
C16 C 0.127(1) 0.122(1) 0.7840(7)
loop_
_geom_bond_atom_site_label_1
_geom_bond_atom_site_label_2
_geom_bond_site_symmetry_1
_geom_bond_site_symmetry_2
S1 O3 1_555 1_555
O1 C7 1_555 1_555
O2 C7 1_555 1_555
O4 S1 1_555 1_555
O5 C15 1_555 1_555
N1 C10 1_555 1_555
N2 C10 1_555 1_555
N3 C10 1_555 1_555
N4 S1 1_555 1_555
C1 S1 1_555 1_555
C2 C1 1_555 1_555
C3 C2 1_555 1_555
C4 C3 1_555 1_555
C5 C4 1_555 1_555
C6 C1 1_555 1_555
C7 C2 1_555 1_555
C8 O1 1_555 1_555
C9 C8 1_555 1_555
C11 N1 1_555 1_555
C12 C11 1_555 1_555
C13 N2 1_555 1_555
C14 C13 1_555 1_555
C15 N3 1_555 1_555
Cl1 C16 1_555 1_555
Cl2 C16 1_555 1_555
N4 C15 1_555 1_555
C5 C6 1_555 1_555
C12 C13 1_555 1_555

#END
