
#######################################################################
#
#                 Cambridge Crystallographic Data Centre
#                                CCDC 
#
#######################################################################
#
# If this CIF has been generated from an entry in the Cambridge 
# Structural Database, then it will include bibliographic, chemical, 
# crystal, experimental, refinement or atomic coordinate data resulting 
# from the CCDC's data processing and validation procedures.
#
#######################################################################

data_LELSOL
_chemical_formula_moiety         'C46 H96 N6 Na2 O2 Si4,C4 H8 O1'
_chemical_name_systematic        
"bis(\m~2~-N,N'-Dicyclohexyl-N'',N''-bis(trimethylsilyl)guanidinato)-bis((tetrahydrofuran)-sodium) tetrahydrofuran solvate"
_symmetry_cell_setting           monoclinic
_symmetry_space_group_name_H-M   'C 2/c'
_symmetry_Int_Tables_number      15
_space_group_name_Hall           '-C 2yn'
loop_
_symmetry_equiv_pos_site_id
_symmetry_equiv_pos_as_xyz
1 x,y,z
2 1/2+x,1/2+y,z
3 -x,y,1/2-z
4 1/2-x,1/2+y,1/2-z
5 -x,-y,-z
6 1/2-x,1/2-y,-z
7 x,-y,1/2+z
8 1/2+x,1/2-y,1/2+z
_cell_length_a                   24.665(4)
_cell_length_b                   15.670(2)
_cell_length_c                   17.111(3)
_cell_angle_alpha                90
_cell_angle_beta                 113.395(4)
_cell_angle_gamma                90
_cell_volume                     6069.72
_exptl_crystal_colour            colorless
_exptl_crystal_description       block
_cell_formula_units_Z            4
loop_
_atom_site_label
_atom_site_type_symbol
_atom_site_fract_x
_atom_site_fract_y
_atom_site_fract_z
Si1 Si 0.33982(3) 0.53486(5) 0.65578(5)
Si2 Si 0.26611(4) 0.56057(5) 0.46423(5)
Na1 Na 0.29362(5) 0.23076(7) 0.57921(7)
O1 O 0.35648(10) 0.19351(17) 0.71591(14)
N1 N 0.23965(10) 0.36697(14) 0.54037(15)
N2 N 0.32761(11) 0.35494(14) 0.53002(17)
N3 N 0.29727(9) 0.49686(14) 0.55424(14)
C1 C 0.28836(11) 0.40435(16) 0.54165(16)
C2 C 0.19552(12) 0.41185(18) 0.56160(19)
H1 H 0.2092 0.4716 0.5792
C3 C 0.18679(14) 0.3662(2) 0.6348(2)
H2 H 0.1780 0.3053 0.6197
H3 H 0.2241 0.3690 0.6863
C4 C 0.13706(16) 0.4043(3) 0.6555(3)
H4 H 0.1480 0.4628 0.6781
H5 H 0.1316 0.3695 0.7001
C5 C 0.07911(15) 0.4072(3) 0.5765(3)
H6 H 0.0654 0.3483 0.5582
H7 H 0.0485 0.4363 0.5906
C6 C 0.08704(14) 0.4538(2) 0.5049(2)
H8 H 0.0965 0.5144 0.5210
H9 H 0.0497 0.4519 0.4535
C7 C 0.13657(12) 0.4141(2) 0.4847(2)
H10 H 0.1252 0.3552 0.4637
H11 H 0.1413 0.4472 0.4385
C8 C 0.38147(12) 0.38802(18) 0.5260(2)
H12 H 0.3819 0.4515 0.5317
C9 C 0.43563(13) 0.3511(2) 0.5986(2)
H13 H 0.4349 0.3687 0.6538
H14 H 0.4336 0.2880 0.5958
C10 C 0.49361(14) 0.3802(2) 0.5950(2)
H15 H 0.4980 0.4426 0.6045
H16 H 0.5270 0.3520 0.6411
C11 C 0.49562(15) 0.3589(2) 0.5099(3)
H17 H 0.5322 0.3826 0.5077
H18 H 0.4965 0.2961 0.5037
C12 C 0.44259(15) 0.3950(3) 0.4372(2)
H19 H 0.4436 0.3767 0.3824
H20 H 0.4443 0.4581 0.4395
C13 C 0.38514(14) 0.3652(2) 0.4418(2)
H21 H 0.3515 0.3916 0.3946
H22 H 0.3818 0.3025 0.4340
C14 C 0.34643(15) 0.4512(2) 0.7355(2)
H23 H 0.3084 0.4442 0.7402
H24 H 0.3765 0.4680 0.7909
H25 H 0.3579 0.3972 0.7175
C15 C 0.30394(19) 0.6314(2) 0.6783(3)
H26 H 0.3007 0.6759 0.6364
H27 H 0.3279 0.6525 0.7356
H28 H 0.2644 0.6164 0.6747
C16 C 0.41622(15) 0.5683(3) 0.6710(2)
H29 H 0.4389 0.5182 0.6674
H30 H 0.4358 0.5951 0.7270
H31 H 0.4140 0.6093 0.6265
C17 C 0.23796(16) 0.4931(2) 0.3670(2)
H32 H 0.2688 0.4530 0.3683
H33 H 0.2270 0.5295 0.3165
H34 H 0.2032 0.4613 0.3649
C18 C 0.20344(16) 0.6280(2) 0.4644(3)
H35 H 0.1750 0.5920 0.4759
H36 H 0.1839 0.6554 0.4087
H37 H 0.2187 0.6718 0.5087
C19 C 0.32233(17) 0.6355(2) 0.4553(3)
H38 H 0.3379 0.6717 0.5062
H39 H 0.3039 0.6714 0.4047
H40 H 0.3547 0.6028 0.4505
C20 C 0.41680(18) 0.1693(3) 0.7490(3)
H41 H 0.4412 0.2164 0.7418
H42 H 0.4222 0.1186 0.7182
C21 C 0.43507(18) 0.1494(3) 0.8403(2)
H43 H 0.4742 0.1745 0.8745
H44 H 0.4370 0.0869 0.8498
C22 C 0.3880(2) 0.1888(4) 0.8633(3)
H45 H 0.3793 0.1524 0.9043
H46 H 0.4002 0.2460 0.8887
C23 C 0.33649(19) 0.1947(4) 0.7823(2)
H47 H 0.3096 0.1460 0.7764
H48 H 0.3146 0.2482 0.7803
Si1E Si 0.16018(3) -0.03486(5) 0.34422(5)
Si2E Si 0.23389(4) -0.06057(5) 0.53577(5)
Na1E Na 0.20638(5) 0.26924(7) 0.42079(7)
O1E O 0.14352(10) 0.30649(17) 0.28409(14)
N1E N 0.26035(10) 0.13303(14) 0.45963(15)
N2E N 0.17239(11) 0.14506(14) 0.46998(17)
N3E N 0.20273(9) 0.00314(14) 0.44576(14)
C1E C 0.21164(11) 0.09565(16) 0.45835(16)
C2E C 0.30448(12) 0.08815(18) 0.43840(19)
H1E H 0.2908 0.0284 0.4208
C3E C 0.31321(14) 0.1338(2) 0.3652(2)
H2E H 0.3220 0.1947 0.3803
H3E H 0.2759 0.1310 0.3137
C4E C 0.36294(16) 0.0957(3) 0.3445(3)
H4E H 0.3520 0.0372 0.3219
H5E H 0.3684 0.1305 0.2999
C5E C 0.42089(15) 0.0928(3) 0.4235(3)
H6E H 0.4346 0.1517 0.4418
H7E H 0.4515 0.0637 0.4094
C6E C 0.41296(14) 0.0462(2) 0.4951(2)
H8E H 0.4035 -0.0144 0.4790
H9E H 0.4503 0.0481 0.5465
C7E C 0.36343(12) 0.0859(2) 0.5153(2)
H10E H 0.3748 0.1448 0.5363
H11E H 0.3587 0.0528 0.5615
C8E C 0.11853(12) 0.11198(18) 0.4740(2)
H12E H 0.1181 0.0485 0.4683
C9E C 0.06437(13) 0.1489(2) 0.4014(2)
H13E H 0.0651 0.1313 0.3462
H14E H 0.0664 0.2120 0.4042
C10E C 0.00639(14) 0.1198(2) 0.4050(2)
H15E H 0.0020 0.0574 0.3955
H16E H -0.0270 0.1480 0.3589
C11E C 0.00438(15) 0.1411(2) 0.4901(3)
H17E H -0.0322 0.1174 0.4923
H18E H 0.0035 0.2039 0.4963
C12E C 0.05741(15) 0.1050(3) 0.5628(2)
H19E H 0.0564 0.1233 0.6176
H20E H 0.0557 0.0419 0.5605
C13E C 0.11486(14) 0.1348(2) 0.5582(2)
H21E H 0.1485 0.1084 0.6054
H22E H 0.1182 0.1975 0.5660
C14E C 0.15357(15) 0.0488(2) 0.2645(2)
H23E H 0.1916 0.0558 0.2598
H24E H 0.1235 0.0320 0.2091
H25E H 0.1421 0.1028 0.2825
C15E C 0.19606(19) -0.1314(2) 0.3217(3)
H26E H 0.1993 -0.1759 0.3636
H27E H 0.1721 -0.1525 0.2644
H28E H 0.2356 -0.1164 0.3253
C16E C 0.08378(15) -0.0683(3) 0.3290(2)
H29E H 0.0611 -0.0182 0.3326
H30E H 0.0642 -0.0951 0.2730
H31E H 0.0860 -0.1093 0.3735
C17E C 0.26204(16) 0.0069(2) 0.6330(2)
H32E H 0.2312 0.0470 0.6317
H33E H 0.2730 -0.0295 0.6835
H34E H 0.2968 0.0387 0.6351
C18E C 0.29656(16) -0.1280(2) 0.5356(3)
H35E H 0.3250 -0.0920 0.5241
H36E H 0.3161 -0.1554 0.5913
H37E H 0.2813 -0.1718 0.4913
C19E C 0.17767(17) -0.1355(2) 0.5447(3)
H38E H 0.1621 -0.1717 0.4938
H39E H 0.1961 -0.1714 0.5953
H40E H 0.1453 -0.1028 0.5495
C20E C 0.08320(18) 0.3307(3) 0.2510(3)
H41E H 0.0588 0.2836 0.2582
H42E H 0.0778 0.3814 0.2818
C21E C 0.06493(18) 0.3506(3) 0.1597(2)
H43E H 0.0258 0.3255 0.1255
H44E H 0.0630 0.4131 0.1502
C22E C 0.1120(2) 0.3112(4) 0.1367(3)
H45E H 0.1207 0.3476 0.0957
H46E H 0.0998 0.2540 0.1113
C23E C 0.16351(19) 0.3053(4) 0.2177(2)
H47E H 0.1904 0.3540 0.2236
H48E H 0.1854 0.2518 0.2197
O2 O 0.0000 0.4544(8) 0.7500
C24 C 0.0450(4) 0.4062(6) 0.8078(6)
H49 H 0.0512 0.4220 0.8668
H50 H 0.0823 0.4158 0.8003
C25 C 0.0267(4) 0.3162(8) 0.7910(6)
H51 H 0.0170 0.2927 0.8376
H52 H 0.0586 0.2813 0.7859
C24B C -0.0450(4) 0.4062(6) 0.6922(6)
H49B H -0.0512 0.4220 0.6332
H50B H -0.0823 0.4158 0.6997
C25B C -0.0267(4) 0.3162(8) 0.7090(6)
H51B H -0.0170 0.2927 0.6624
H52B H -0.0586 0.2813 0.7141
loop_
_geom_bond_atom_site_label_1
_geom_bond_atom_site_label_2
_geom_bond_site_symmetry_1
_geom_bond_site_symmetry_2
Si1 N3 1_555 1_555
Si2 N3 1_555 1_555
Na1 O1 1_555 1_555
O1 C20 1_555 1_555
O2 C24 1_555 1_555
N1 Na1 1_555 1_555
N2 Na1 1_555 1_555
N3 C1 1_555 1_555
C1 N1 1_555 1_555
C2 N1 1_555 1_555
H1 C2 1_555 1_555
C3 C2 1_555 1_555
H2 C3 1_555 1_555
H3 C3 1_555 1_555
C4 C3 1_555 1_555
H4 C4 1_555 1_555
H5 C4 1_555 1_555
C5 C4 1_555 1_555
H6 C5 1_555 1_555
H7 C5 1_555 1_555
C6 C5 1_555 1_555
H8 C6 1_555 1_555
H9 C6 1_555 1_555
C7 C2 1_555 1_555
H10 C7 1_555 1_555
H11 C7 1_555 1_555
C8 N2 1_555 1_555
H12 C8 1_555 1_555
C9 C8 1_555 1_555
H13 C9 1_555 1_555
H14 C9 1_555 1_555
C10 C9 1_555 1_555
H15 C10 1_555 1_555
H16 C10 1_555 1_555
C11 C10 1_555 1_555
H17 C11 1_555 1_555
H18 C11 1_555 1_555
C12 C11 1_555 1_555
H19 C12 1_555 1_555
H20 C12 1_555 1_555
C13 C8 1_555 1_555
H21 C13 1_555 1_555
H22 C13 1_555 1_555
C14 Si1 1_555 1_555
H23 C14 1_555 1_555
H24 C14 1_555 1_555
H25 C14 1_555 1_555
C15 Si1 1_555 1_555
H26 C15 1_555 1_555
H27 C15 1_555 1_555
H28 C15 1_555 1_555
C16 Si1 1_555 1_555
H29 C16 1_555 1_555
H30 C16 1_555 1_555
H31 C16 1_555 1_555
C17 Si2 1_555 1_555
H32 C17 1_555 1_555
H33 C17 1_555 1_555
H34 C17 1_555 1_555
C18 Si2 1_555 1_555
H35 C18 1_555 1_555
H36 C18 1_555 1_555
H37 C18 1_555 1_555
C19 Si2 1_555 1_555
H38 C19 1_555 1_555
H39 C19 1_555 1_555
H40 C19 1_555 1_555
C20 H41 1_555 1_555
H42 C20 1_555 1_555
C21 C20 1_555 1_555
H43 C21 1_555 1_555
H44 C21 1_555 1_555
C22 C21 1_555 1_555
H45 C22 1_555 1_555
H46 C22 1_555 1_555
C23 O1 1_555 1_555
H47 C23 1_555 1_555
H48 C23 1_555 1_555
C24 H49 1_555 1_555
H50 C24 1_555 1_555
C25 C24 1_555 1_555
H51 C25 1_555 1_555
H52 C25 1_555 1_555
Si1E N3E 1_555 1_555
Si2E N3E 1_555 1_555
Na1E N1 1_555 1_555
O1E Na1E 1_555 1_555
N1E Na1 1_555 1_555
N2E Na1E 1_555 1_555
N3E C1E 1_555 1_555
C1E N1E 1_555 1_555
C2E N1E 1_555 1_555
H1E C2E 1_555 1_555
C3E C2E 1_555 1_555
H2E C3E 1_555 1_555
H3E C3E 1_555 1_555
C4E C3E 1_555 1_555
H4E C4E 1_555 1_555
H5E C4E 1_555 1_555
C5E C4E 1_555 1_555
H6E C5E 1_555 1_555
H7E C5E 1_555 1_555
C6E C5E 1_555 1_555
H8E C6E 1_555 1_555
H9E C6E 1_555 1_555
C7E C2E 1_555 1_555
H10E C7E 1_555 1_555
H11E C7E 1_555 1_555
C8E N2E 1_555 1_555
H12E C8E 1_555 1_555
C9E C8E 1_555 1_555
H13E C9E 1_555 1_555
H14E C9E 1_555 1_555
C10E C9E 1_555 1_555
H15E C10E 1_555 1_555
H16E C10E 1_555 1_555
C11E C10E 1_555 1_555
H17E C11E 1_555 1_555
H18E C11E 1_555 1_555
C12E C11E 1_555 1_555
H19E C12E 1_555 1_555
H20E C12E 1_555 1_555
C13E C8E 1_555 1_555
H21E C13E 1_555 1_555
H22E C13E 1_555 1_555
C14E Si1E 1_555 1_555
H23E C14E 1_555 1_555
H24E C14E 1_555 1_555
H25E C14E 1_555 1_555
C15E Si1E 1_555 1_555
H26E C15E 1_555 1_555
H27E C15E 1_555 1_555
H28E C15E 1_555 1_555
C16E Si1E 1_555 1_555
H29E C16E 1_555 1_555
H30E C16E 1_555 1_555
H31E C16E 1_555 1_555
C17E Si2E 1_555 1_555
H32E C17E 1_555 1_555
H33E C17E 1_555 1_555
H34E C17E 1_555 1_555
C18E Si2E 1_555 1_555
H35E C18E 1_555 1_555
H36E C18E 1_555 1_555
H37E C18E 1_555 1_555
C19E Si2E 1_555 1_555
H38E C19E 1_555 1_555
H39E C19E 1_555 1_555
H40E C19E 1_555 1_555
C20E O1E 1_555 1_555
H41E C20E 1_555 1_555
H42E C20E 1_555 1_555
C21E C20E 1_555 1_555
H43E C21E 1_555 1_555
H44E C21E 1_555 1_555
C22E C21E 1_555 1_555
H45E C22E 1_555 1_555
H46E C22E 1_555 1_555
C23E O1E 1_555 1_555
H47E C23E 1_555 1_555
H48E C23E 1_555 1_555
C24B O2 1_555 1_555
H49B C24B 1_555 1_555
H50B C24B 1_555 1_555
C25B C25 1_555 1_555
H51B C25B 1_555 1_555
H52B C25B 1_555 1_555
N2 C1 1_555 1_555
C6 C7 1_555 1_555
C12 C13 1_555 1_555
C22 C23 1_555 1_555
Na1E N1E 1_555 1_555
N2E C1E 1_555 1_555
C6E C7E 1_555 1_555
C12E C13E 1_555 1_555
C22E C23E 1_555 1_555
C24B C25B 1_555 1_555

#END
