
#######################################################################
#
#                 Cambridge Crystallographic Data Centre
#                                CCDC 
#
#######################################################################
#
# If this CIF has been generated from an entry in the Cambridge 
# Structural Database, then it will include bibliographic, chemical, 
# crystal, experimental, refinement or atomic coordinate data resulting 
# from the CCDC's data processing and validation procedures.
#
#######################################################################

data_LELSEA
_chemical_formula_moiety         'C30 H22 O4'
_chemical_name_systematic        
2-(4-Oxo-2,3-dihydro-2-phenyl-4H-1-benzopyran-2-yl)-2-phenyl-4H-1-benzopyran-4-one
_symmetry_cell_setting           orthorhombic
_symmetry_space_group_name_H-M   'P n a 21'
_symmetry_Int_Tables_number      33
_space_group_name_Hall           'P 2c -2n'
loop_
_symmetry_equiv_pos_site_id
_symmetry_equiv_pos_as_xyz
1 x,y,z
2 1/2-x,1/2+y,1/2+z
3 1/2+x,1/2-y,z
4 -x,-y,1/2+z
_cell_length_a                   17.481(3)
_cell_length_b                   6.917(1)
_cell_length_c                   18.628(2)
_cell_angle_alpha                90
_cell_angle_beta                 90
_cell_angle_gamma                90
_cell_volume                     2252.42
_exptl_crystal_colour            white
_chemical_melting_point          287deg.C(dec.)
_cell_formula_units_Z            4
loop_
_atom_site_label
_atom_site_type_symbol
_atom_site_fract_x
_atom_site_fract_y
_atom_site_fract_z
O1 O 0.4772(2) 0.0884(5) 0.8436(2)
O2 O 0.2918(2) -0.1102(5) 0.8111(2)
O3 O 0.5024(2) -0.4141(6) 0.9556(3)
O4 O 0.26643 0.3945(6) 0.7010(3)
C1 C 0.4119(3) -0.0332(7) 0.8594(3)
C2 C 0.3570(3) 0.0089(7) 0.7942(3)
C3 C 0.4373(3) -0.2448(8) 0.8611(3)
C4 C 0.3327(3) 0.2240(7) 0.7927(3)
C5 C 0.4985(3) -0.2731(8) 0.9179(3)
C6 C 0.2706(3) 0.2485(8) 0.7374(3)
C7 C 0.5548(3) -0.1129(8) 0.9214(3)
C8 C 0.2132(3) 0.0943(8) 0.7344(3)
C9 C 0.6229(3) -0.1360(9) 0.9603(3)
C10 C 0.1450(3) 0.119(1) 0.6958(3)
C11 C 0.6758(3) 0.009(1) 0.9611(3)
C12 C 0.0913(3) -0.026(1) 0.6960(3)
C13 C 0.6622(3) 0.1777(9) 0.9234(3)
C14 C 0.1048(3) -0.197(1) 0.7337(3)
C15 C 0.5960(3) 0.2046(8) 0.8834(3)
C16 C 0.1713(5) -0.222(9) 0.7731(3)
C17 C 0.5428(3) 0.0549(8) 0.8836(3)
C18 C 0.2259(3) -0.0741(8) 0.7723(3)
C19 C 0.3766(2) 0.0279(8) 0.9311(3)
C20 C 0.3917(3) -0.0541(8) 0.7223(3)
C21 C 0.3910(3) 0.2123(8) 0.9590(3)
C22 C 0.4424(3) 0.0650(9) 0.6850(3)
C23 C 0.3582(3) 0.2667(9) 1.0236(3)
C24 C 0.4722(3) 0.002(1) 0.6197(3)
C25 C 0.3106(3) 0.144(1) 1.0608(3)
C26 C 0.4522(3) -0.176(1) 0.5912(3)
C27 C 0.2953(3) -0.038(1) 1.0334(3)
C28 C 0.4023(3) -0.290(1) 0.6278(3)
C29 C 0.3276(3) -0.0983(9) 0.9680(3)
C30 C 0.3721(3) -0.2316(9) 0.6932(3)
loop_
_geom_bond_atom_site_label_1
_geom_bond_atom_site_label_2
_geom_bond_site_symmetry_1
_geom_bond_site_symmetry_2
O1 C1 1_555 1_555
O2 C2 1_555 1_555
O3 C5 1_555 1_555
O4 C6 1_555 1_555
C1 C2 1_555 1_555
C2 C4 1_555 1_555
C3 C1 1_555 1_555
C4 C6 1_555 1_555
C5 C3 1_555 1_555
C6 C8 1_555 1_555
C7 C5 1_555 1_555
C8 C10 1_555 1_555
C9 C7 1_555 1_555
C10 C12 1_555 1_555
C11 C9 1_555 1_555
C12 C14 1_555 1_555
C13 C11 1_555 1_555
C14 C16 1_555 1_555
C15 C13 1_555 1_555
C16 C18 1_555 1_555
C17 O1 1_555 1_555
C18 O2 1_555 1_555
C19 C1 1_555 1_555
C20 C2 1_555 1_555
C21 C19 1_555 1_555
C22 C20 1_555 1_555
C23 C21 1_555 1_555
C24 C22 1_555 1_555
C25 C23 1_555 1_555
C26 C24 1_555 1_555
C27 C25 1_555 1_555
C28 C26 1_555 1_555
C29 C19 1_555 1_555
C30 C20 1_555 1_555
C7 C17 1_555 1_555
C8 C18 1_555 1_555
C15 C17 1_555 1_555
C27 C29 1_555 1_555
C28 C30 1_555 1_555

#END
