
#######################################################################
#
#                 Cambridge Crystallographic Data Centre
#                                CCDC 
#
#######################################################################
#
# If this CIF has been generated from an entry in the Cambridge 
# Structural Database, then it will include bibliographic, chemical, 
# crystal, experimental, refinement or atomic coordinate data resulting 
# from the CCDC's data processing and validation procedures.
#
#######################################################################

data_LELTUU
_chemical_formula_moiety         'C14 H32 Mg1 N4'
_chemical_name_systematic        
propyl-(1,4,7-trimethyl-1,4,7,10-tetraazacyclododecanato)-magnesium
_symmetry_cell_setting           monoclinic
_symmetry_space_group_name_H-M   'P 21/n'
_symmetry_Int_Tables_number      14
_space_group_name_Hall           '-P 2yn'
loop_
_symmetry_equiv_pos_site_id
_symmetry_equiv_pos_as_xyz
1 x,y,z
2 1/2-x,1/2+y,1/2-z
3 -x,-y,-z
4 1/2+x,1/2-y,1/2+z
_cell_length_a                   13.781(3)
_cell_length_b                   7.3707(14)
_cell_length_c                   16.179(3)
_cell_angle_alpha                90
_cell_angle_beta                 94.577(4)
_cell_angle_gamma                90
_cell_volume                     1638.15
_exptl_crystal_colour            colorless
_exptl_crystal_description       prism
_cell_formula_units_Z            4
_chemical_properties_physical    
Air-sensitive,Moisture-sensitive,Oxygen-sensitive
loop_
_atom_site_label
_atom_site_type_symbol
_atom_site_fract_x
_atom_site_fract_y
_atom_site_fract_z
Mg1 Mg 0.52617(4) 0.76744(8) 0.22467(4)
N1 N 0.42213(11) 0.9175(2) 0.26995(9)
N2 N 0.55764(11) 0.7093(2) 0.36417(10)
N3 N 0.49182(11) 0.4762(2) 0.22737(9)
N4 N 0.40956(11) 0.7558(2) 0.11730(9)
C1 C 0.65911(15) 0.8622(3) 0.17441(15)
H1 H 0.6408(15) 0.967(3) 0.1355(12)
H2 H 0.6879(14) 0.914(3) 0.2243(13)
C2 C 0.71709(14) 0.7300(3) 0.13431(13)
H3 H 0.7497(14) 0.636(3) 0.1742(12)
C3 C 0.72981(17) 0.7097(3) 0.05466(15)
H4 H 0.7661(17) 0.601(3) 0.0350(14)
H5 H 0.7017(17) 0.792(3) 0.0134(14)
C4 C 0.40982(15) 0.9067(3) 0.35694(13)
H6 H 0.3577(16) 0.811(3) 0.3727(12)
H7 H 0.3873(14) 1.026(3) 0.3815(12)
C5 C 0.50793(16) 0.8637(3) 0.40220(14)
H8 H 0.5487(14) 0.974(3) 0.3974(12)
H9 H 0.5019(14) 0.840(3) 0.4614(13)
C6 C 0.51020(17) 0.5327(3) 0.37948(13)
H10 H 0.4744(13) 0.544(3) 0.4271(12)
H11 H 0.5592(15) 0.443(3) 0.3962(12)
C7 C 0.44429(15) 0.4659(3) 0.30625(12)
H12 H 0.4269(13) 0.337(3) 0.3167(11)
H13 H 0.3821(15) 0.543(3) 0.2981(11)
C8 C 0.42077(15) 0.4324(3) 0.15646(13)
H14 H 0.3824(15) 0.323(3) 0.1671(12)
H15 H 0.4581(14) 0.403(2) 0.1099(12)
C9 C 0.35377(14) 0.5910(3) 0.13358(13)
H16 H 0.3109(13) 0.559(2) 0.0847(12)
H17 H 0.3145(12) 0.616(2) 0.1795(11)
C10 C 0.35092(15) 0.9214(3) 0.12941(13)
H18 H 0.2895(15) 0.913(3) 0.0920(12)
H19 H 0.3881(14) 1.026(3) 0.1121(12)
C11 C 0.33298(14) 0.9485(3) 0.22013(12)
H20 H 0.3046(12) 1.078(3) 0.2252(10)
H21 H 0.2763(14) 0.862(3) 0.2375(11)
C12 C 0.66031(16) 0.7060(4) 0.39908(16)
H22 H 0.6873(15) 0.817(3) 0.3866(13)
H23 H 0.6925(17) 0.607(3) 0.3750(14)
H24 H 0.6661(14) 0.690(3) 0.4658(13)
C13 C 0.57390(16) 0.3461(3) 0.22823(16)
H25 H 0.5515(15) 0.213(3) 0.2397(12)
H26 H 0.6211(14) 0.377(3) 0.2720(12)
H27 H 0.6035(15) 0.356(3) 0.1716(13)
C14 C 0.44275(19) 0.7519(3) 0.03355(14)
H28 H 0.4838(15) 0.639(3) 0.0263(13)
H29 H 0.4848(16) 0.858(3) 0.0251(13)
H30 H 0.3909(17) 0.747(3) -0.0107(14)
loop_
_geom_bond_atom_site_label_1
_geom_bond_atom_site_label_2
_geom_bond_site_symmetry_1
_geom_bond_site_symmetry_2
Mg1 N1 1_555 1_555
N1 C4 1_555 1_555
N2 Mg1 1_555 1_555
N3 Mg1 1_555 1_555
N4 Mg1 1_555 1_555
C1 Mg1 1_555 1_555
H1 C1 1_555 1_555
H2 C1 1_555 1_555
C2 C1 1_555 1_555
H3 C2 1_555 1_555
C3 C2 1_555 1_555
H4 C3 1_555 1_555
H5 C3 1_555 1_555
C4 H6 1_555 1_555
H7 C4 1_555 1_555
C5 N2 1_555 1_555
H8 C5 1_555 1_555
H9 C5 1_555 1_555
C6 N2 1_555 1_555
H10 C6 1_555 1_555
H11 C6 1_555 1_555
C7 N3 1_555 1_555
H12 C7 1_555 1_555
H13 C7 1_555 1_555
C8 N3 1_555 1_555
H14 C8 1_555 1_555
H15 C8 1_555 1_555
C9 N4 1_555 1_555
H16 C9 1_555 1_555
H17 C9 1_555 1_555
C10 N4 1_555 1_555
H18 C10 1_555 1_555
H19 C10 1_555 1_555
C11 N1 1_555 1_555
H20 C11 1_555 1_555
H21 C11 1_555 1_555
C12 N2 1_555 1_555
H22 C12 1_555 1_555
H23 C12 1_555 1_555
H24 C12 1_555 1_555
C13 N3 1_555 1_555
H25 C13 1_555 1_555
H26 C13 1_555 1_555
H27 C13 1_555 1_555
C14 N4 1_555 1_555
H28 C14 1_555 1_555
H29 C14 1_555 1_555
H30 C14 1_555 1_555
C4 C5 1_555 1_555
C6 C7 1_555 1_555
C8 C9 1_555 1_555
C10 C11 1_555 1_555

#END
