
#######################################################################
#
#                 Cambridge Crystallographic Data Centre
#                                CCDC 
#
#######################################################################
#
# If this CIF has been generated from an entry in the Cambridge 
# Structural Database, then it will include bibliographic, chemical, 
# crystal, experimental, refinement or atomic coordinate data resulting 
# from the CCDC's data processing and validation procedures.
#
#######################################################################

data_LELWAC
_chemical_formula_moiety         'C10 H11 N4 O2 S1 1+,Cl1 1-,0.5(C2 H6 O1)'
_chemical_name_systematic        
'((4-Aminophenyl)sulfonyl)(pyrimidin-2-yl)azanide chloride ethanol solvate'
_chemical_properties_biological  'Sulfadiazine is a sulfonamide antibiotic'
_symmetry_cell_setting           triclinic
_symmetry_space_group_name_H-M   'P -1'
_symmetry_Int_Tables_number      2
_space_group_name_Hall           '-P 1'
loop_
_symmetry_equiv_pos_site_id
_symmetry_equiv_pos_as_xyz
1 x,y,z
2 -x,-y,-z
_cell_length_a                   5.62060(10)
_cell_length_b                   11.3099(3)
_cell_length_c                   11.9166(3)
_cell_angle_alpha                64.0570(10)
_cell_angle_beta                 79.2662(12)
_cell_angle_gamma                77.3428(12)
_cell_volume                     661.094
_exptl_crystal_colour            'light yellow'
_exptl_crystal_description       brick
_cell_formula_units_Z            2
loop_
_atom_site_label
_atom_site_type_symbol
_atom_site_fract_x
_atom_site_fract_y
_atom_site_fract_z
O3 O 0.2158(3) 0.33950(17) 0.57912(15)
H12 H 0.2227 0.2852 0.6545
C11 C 0.0105(7) 0.4462(4) 0.5701(3)
H13 H 0.0533 0.4886 0.6196
H14 H -0.1396 0.4109 0.6106
O3A O -0.2158(3) 0.66050(17) 0.42088(15)
H12A H -0.2227 0.7148 0.3455
C11A C -0.0105(7) 0.5538(4) 0.4299(3)
H13A H -0.0533 0.5114 0.3804
H14A H 0.1396 0.5891 0.3894
Cl1 Cl 0.75443(3) 0.881557(18) 0.141990(18)
S1 S 0.40495(3) 0.225494(16) 0.226137(14)
O1 O 0.65724(10) 0.18529(6) 0.18627(5)
O2 O 0.22000(11) 0.20719(6) 0.16864(5)
N1 N 0.18054(10) 0.05706(6) 0.56987(5)
H1 H 0.317(3) -0.0043(18) 0.5899(19)
N2 N -0.02777(11) 0.23981(6) 0.41163(5)
N3 N 0.38668(10) 0.14510(6) 0.37580(5)
N4 N 0.31157(11) 0.81336(6) 0.05725(6)
H2 H 0.428(3) 0.8408(16) 0.0783(15)
H3 H 0.326(3) 0.8469(16) -0.0255(12)
H4 H 0.164(3) 0.8529(16) 0.0781(15)
C1 C 0.17602(11) 0.15104(6) 0.44882(5)
C2 C -0.01369(12) 0.04988(7) 0.65652(6)
H5 H -0.0048 -0.0157 0.7402
C3 C -0.22519(13) 0.13876(8) 0.62223(7)
H6 H -0.3669 0.1368 0.6803
C4 C -0.22043(13) 0.23214(8) 0.49740(7)
H7 H -0.3648 0.2946 0.4718
C5 C 0.37105(11) 0.39828(6) 0.18586(5)
C6 C 0.17428(12) 0.48169(6) 0.12051(6)
H8 H 0.0535 0.4451 0.1050
C7 C 0.15561(12) 0.61875(6) 0.07811(6)
H9 H 0.0245 0.6770 0.0318
C8 C 0.33202(11) 0.66913(6) 0.10463(6)
C9 C 0.52681(12) 0.58667(7) 0.17162(6)
H10 H 0.6433 0.6233 0.1902
C10 C 0.54883(12) 0.44951(7) 0.21108(6)
H11 H 0.6834 0.3916 0.2547
C12? C 0.0027(14) 0.5408(6) 0.4352(6)
H15? H 0.1505 0.5778 0.4201
H16? H 0.0092 0.5005 0.3757
H17? H -0.1416 0.6094 0.4255
loop_
_geom_bond_atom_site_label_1
_geom_bond_atom_site_label_2
_geom_bond_site_symmetry_1
_geom_bond_site_symmetry_2
S1 O1 1_555 1_555
O2 S1 1_555 1_555
N1 H1 1_555 1_555
N2 C1 1_555 1_555
N3 S1 1_555 1_555
N4 H2 1_555 1_555
H3 N4 1_555 1_555
H4 N4 1_555 1_555
C1 N1 1_555 1_555
C2 N1 1_555 1_555
H5 C2 1_555 1_555
C3 C2 1_555 1_555
H6 C3 1_555 1_555
C4 N2 1_555 1_555
H7 C4 1_555 1_555
C5 S1 1_555 1_555
C6 C5 1_555 1_555
H8 C6 1_555 1_555
C7 C6 1_555 1_555
H9 C7 1_555 1_555
C8 N4 1_555 1_555
C9 C8 1_555 1_555
H10 C9 1_555 1_555
C10 C5 1_555 1_555
H11 C10 1_555 1_555
O3 H12 1_555 1_555
C11 O3 1_555 1_555
H13 C11 1_555 1_555
H14 C11 1_555 1_555
O3A H12A 1_555 1_555
C11A C11 1_555 1_555
H13A C11A 1_555 1_555
H14A C11A 1_555 1_555
N3 C1 1_555 1_555
C3 C4 1_555 1_555
C7 C8 1_555 1_555
C9 C10 1_555 1_555
O3A C11A 1_555 1_555

#END
