
#######################################################################
#
#                 Cambridge Crystallographic Data Centre
#                                CCDC 
#
#######################################################################
#
# If this CIF has been generated from an entry in the Cambridge 
# Structural Database, then it will include bibliographic, chemical, 
# crystal, experimental, refinement or atomic coordinate data resulting 
# from the CCDC's data processing and validation procedures.
#
#######################################################################

data_LELZAG
_chemical_formula_moiety         'C23 H24 N2 O7'
_chemical_name_systematic        
2-(4-nitrophenyl)-3-(2,3,5,6,8,9,11,12-octahydro-1,4,7,10,13-benzopentaoxacyclopentadecin-15-yl)prop-2-enenitrile
_symmetry_cell_setting           orthorhombic
_symmetry_space_group_name_H-M   'P n a 21'
_symmetry_Int_Tables_number      33
_space_group_name_Hall           'P 2c -2n'
loop_
_symmetry_equiv_pos_site_id
_symmetry_equiv_pos_as_xyz
1 x,y,z
2 -x,-y,1/2+z
3 1/2+x,1/2-y,z
4 1/2-x,1/2+y,1/2+z
_cell_length_a                   14.2812(13)
_cell_length_b                   19.295(2)
_cell_length_c                   7.9526(11)
_cell_angle_alpha                90
_cell_angle_beta                 90
_cell_angle_gamma                90
_cell_volume                     2191.38
_exptl_crystal_colour            colorless
_exptl_crystal_description       block
_cell_formula_units_Z            4
loop_
_atom_site_label
_atom_site_type_symbol
_atom_site_fract_x
_atom_site_fract_y
_atom_site_fract_z
N1 N -0.36523(18) 0.69977(17) 0.2895(4)
N2 N -0.0424(3) 0.4204(2) 0.3730(9)
O1 O 0.5780(2) 0.31308(18) 0.3308(5)
O2 O 0.37545(17) 0.29940(18) 0.1748(4)
O3 O 0.30019(14) 0.39572(12) 0.3989(4)
O4 O 0.61266(14) 0.45334(14) 0.4462(3)
O5 O 0.42147(14) 0.47986(13) 0.5169(4)
O6 O -0.43879(15) 0.66944(14) 0.3012(5)
O7 O -0.36124(18) 0.76140(16) 0.2589(6)
C1 C 0.5089(3) 0.2654(4) 0.3437(10)
H1 H 0.4687 0.2783 0.4369
H2 H 0.5370 0.2211 0.3712
C2 C 0.4529(3) 0.2568(2) 0.2003(7)
H3 H 0.4934 0.2619 0.1031
H4 H 0.4307 0.2093 0.2004
C3 C 0.6225(3) 0.3290(3) 0.4836(7)
H5 H 0.6662 0.2923 0.5125
H6 H 0.5763 0.3322 0.5726
C4 C 0.6732(2) 0.3954(2) 0.4685(6)
H7 H 0.7105 0.4026 0.5690
H8 H 0.7158 0.3928 0.3736
C5 C 0.2979(2) 0.2850(2) 0.2791(6)
H9 H 0.3193 0.2674 0.3867
H10 H 0.2587 0.2499 0.2272
C6 C 0.17893(19) 0.48443(19) 0.3936(5)
H11 H 0.1345 0.4534 0.3533
C7 C -0.0324(2) 0.4784(2) 0.3722(7)
C8 C 0.3117(2) 0.5763(2) 0.5164(5)
H12 H 0.3559 0.6074 0.5575
C9 C -0.1950(2) 0.69948(19) 0.3133(6)
H13 H -0.1950 0.7475 0.3030
C10 C 0.1539(2) 0.55408(18) 0.4219(5)
C11 C -0.1119(2) 0.66285(18) 0.3313(6)
H14 H -0.0555 0.6869 0.3324
C12 C 0.2214(2) 0.5984(2) 0.4818(6)
H15 H 0.2060 0.6446 0.4997
C13 C 0.5795(2) 0.4814(3) 0.6000(5)
H16 H 0.6284 0.5091 0.6517
H17 H 0.5637 0.4441 0.6766
C14 C 0.2425(2) 0.35049(18) 0.3046(5)
H18 H 0.2267 0.3712 0.1971
H19 H 0.1850 0.3408 0.3651
C15 C 0.4951(2) 0.5255(2) 0.5698(5)
H20 H 0.4773 0.5495 0.6721
H21 H 0.5079 0.5596 0.4833
C16 C 0.0609(2) 0.5816(2) 0.3941(6)
H22 H 0.0588 0.6298 0.3927
C17 C 0.26859(18) 0.46209(18) 0.4251(5)
C18 C -0.2792(2) 0.59226(17) 0.3268(5)
H23 H -0.3358 0.5685 0.3247
C19 C -0.0223(2) 0.55192(17) 0.3701(5)
C20 C 0.3357(2) 0.50772(19) 0.4894(5)
C21 C -0.1963(2) 0.55725(18) 0.3454(5)
H24 H -0.1973 0.5093 0.3569
C22 C -0.11078(19) 0.59172(16) 0.3475(5)
C23 C -0.27710(19) 0.66253(17) 0.3115(5)
loop_
_geom_bond_atom_site_label_1
_geom_bond_atom_site_label_2
_geom_bond_site_symmetry_1
_geom_bond_site_symmetry_2
N1 O6 1_555 1_555
N2 C7 1_555 1_555
O1 C1 1_555 1_555
O2 C2 1_555 1_555
O3 C14 1_555 1_555
O4 C4 1_555 1_555
O5 C15 1_555 1_555
O7 N1 1_555 1_555
C1 H1 1_555 1_555
H2 C1 1_555 1_555
C2 C1 1_555 1_555
H3 C2 1_555 1_555
H4 C2 1_555 1_555
C3 O1 1_555 1_555
H5 C3 1_555 1_555
H6 C3 1_555 1_555
C4 C3 1_555 1_555
H7 C4 1_555 1_555
H8 C4 1_555 1_555
C5 O2 1_555 1_555
H9 C5 1_555 1_555
H10 C5 1_555 1_555
C6 H11 1_555 1_555
C7 C19 1_555 1_555
C8 H12 1_555 1_555
C9 H13 1_555 1_555
C10 C6 1_555 1_555
C11 C9 1_555 1_555
H14 C11 1_555 1_555
C12 C8 1_555 1_555
H15 C12 1_555 1_555
C13 O4 1_555 1_555
H16 C13 1_555 1_555
H17 C13 1_555 1_555
C14 C5 1_555 1_555
H18 C14 1_555 1_555
H19 C14 1_555 1_555
C15 C13 1_555 1_555
H20 C15 1_555 1_555
H21 C15 1_555 1_555
C16 C10 1_555 1_555
H22 C16 1_555 1_555
C17 O3 1_555 1_555
C18 H23 1_555 1_555
C19 C16 1_555 1_555
C20 O5 1_555 1_555
C21 C18 1_555 1_555
H24 C21 1_555 1_555
C22 C11 1_555 1_555
C23 N1 1_555 1_555
C6 C17 1_555 1_555
C8 C20 1_555 1_555
C9 C23 1_555 1_555
C10 C12 1_555 1_555
C17 C20 1_555 1_555
C18 C23 1_555 1_555
C19 C22 1_555 1_555
C21 C22 1_555 1_555

#END
