
#######################################################################
#
#                 Cambridge Crystallographic Data Centre
#                                CCDC 
#
#######################################################################
#
# If this CIF has been generated from an entry in the Cambridge 
# Structural Database, then it will include bibliographic, chemical, 
# crystal, experimental, refinement or atomic coordinate data resulting 
# from the CCDC's data processing and validation procedures.
#
#######################################################################

data_LEMCEO
_chemical_formula_moiety         'C48 H30 N4 O8,2(C4 H10 O1),4(C5 H5 N1)'
_chemical_name_systematic        
"4,4',4'',4'''-(porphyrin-5,10,15,20-tetrayl)tetrabenzoic acid diethyl ether pyridine solvate"
_symmetry_cell_setting           monoclinic
_symmetry_space_group_name_H-M   'P 21/c'
_symmetry_Int_Tables_number      14
_space_group_name_Hall           '-P 2ybc'
loop_
_symmetry_equiv_pos_site_id
_symmetry_equiv_pos_as_xyz
1 x,y,z
2 -x,1/2+y,1/2-z
3 -x,-y,-z
4 x,1/2-y,1/2+z
_cell_length_a                   14.7549(5)
_cell_length_b                   7.3113(3)
_cell_length_c                   30.7507(12)
_cell_angle_alpha                90
_cell_angle_beta                 92.163(4)
_cell_angle_gamma                90
_cell_volume                     3314.95
_exptl_crystal_colour            purple
_exptl_crystal_description       plate
_cell_formula_units_Z            2
loop_
_atom_site_label
_atom_site_type_symbol
_atom_site_fract_x
_atom_site_fract_y
_atom_site_fract_z
N1 N -0.1868(2) 1.4386(4) 0.40873(11)
C1 C -0.2341(3) 1.3904(5) 0.37278(14)
C2 C -0.3225(3) 1.4433(5) 0.36379(14)
C3 C -0.3641(2) 1.5471(5) 0.39465(14)
C4 C -0.3165(3) 1.5972(5) 0.43154(13)
C5 C -0.2289(3) 1.5404(5) 0.43719(13)
H1 H -0.2043 1.3212 0.3522
H2 H -0.3526 1.4094 0.3378
H3 H -0.4247 1.5834 0.3902
H4 H -0.3430 1.6688 0.4532
H5 H -0.1965 1.5743 0.4629
N2 N 0.7018(2) 1.6450(4) 0.77889(9)
C6 C 0.7667(3) 1.7583(5) 0.76622(13)
C7 C 0.8417(3) 1.8004(6) 0.79146(14)
C8 C 0.8511(3) 1.7229(6) 0.83234(14)
C9 C 0.7844(3) 1.6089(5) 0.84627(12)
C10 C 0.7116(3) 1.5723(5) 0.81850(12)
H6 H 0.7609 1.8112 0.7383
H7 H 0.8856 1.8802 0.7807
H8 H 0.9025 1.7480 0.8503
H9 H 0.7882 1.5572 0.8743
H10 H 0.6661 1.4924 0.8276
N3 N 0.39795(16) 0.4675(3) 0.45411(8)
C11 C 0.39403(19) 0.3385(4) 0.42179(10)
C12 C 0.3110(2) 0.3582(4) 0.39501(10)
C13 C 0.2658(2) 0.5010(4) 0.41113(10)
C14 C 0.3198(2) 0.5685(4) 0.44831(10)
C15 C 0.2959(2) 0.7184(4) 0.47392(10)
C16 C 0.3480(2) 0.7877(4) 0.50881(10)
C17 C 0.3211(2) 0.9244(4) 0.53922(10)
C18 C 0.3889(2) 0.9470(4) 0.56948(10)
C19 C 0.4613(2) 0.8237(4) 0.55986(10)
N4 N 0.43371(16) 0.7319(3) 0.52258(8)
C20 C 0.5406(2) 0.7962(4) 0.58517(10)
C21 C 0.2088(2) 0.8150(4) 0.46367(9)
C22 C 0.1254(2) 0.7254(4) 0.46379(10)
C23 C 0.0456(2) 0.8198(4) 0.45475(10)
C24 C 0.0471(2) 1.0057(4) 0.44623(10)
C25 C 0.1293(2) 1.0964(4) 0.44580(10)
C26 C 0.2095(2) 1.0019(4) 0.45440(10)
C27 C -0.0403(2) 1.1037(5) 0.43617(10)
O1 O -0.11287(15) 1.0244(4) 0.43501(8)
O2 O -0.03008(17) 1.2807(4) 0.42920(10)
C28 C 0.55463(19) 0.9229(4) 0.62291(10)
C29 C 0.5677(2) 1.1097(4) 0.61569(10)
C30 C 0.5814(2) 1.2296(4) 0.65029(10)
C31 C 0.5826(2) 1.1647(4) 0.69253(10)
C32 C 0.5690(2) 0.9787(4) 0.70014(10)
C33 C 0.5551(2) 0.8596(4) 0.66574(10)
C34 C 0.6031(2) 1.2881(4) 0.73032(11)
O3 O 0.60538(18) 1.4630(3) 0.71922(8)
O4 O 0.61678(19) 1.2331(3) 0.76707(7)
H11 H 0.2931 0.2875 0.3711
H12 H 0.2105 0.5478 0.4003
H13 H 0.2657 0.9856 0.5380
H14 H 0.3886 1.0278 0.5934
H15 H 0.1240 0.5994 0.4697
H16 H -0.0084 0.7579 0.4551
H17 H 0.1306 1.2221 0.4392
H18 H 0.2642 1.0659 0.4540
H19 H 0.5669 1.1521 0.5866
H20 H 0.5906 1.3534 0.6450
H21 H 0.5690 0.9362 0.7289
H22 H 0.5453 0.7347 0.6712
H23 H 0.4643(14) 0.649(4) 0.5100(8)
H24 H 0.629(3) 1.521(5) 0.7399(10)
H25 H -0.0821(18) 1.327(6) 0.4226(15)
N3B N 0.60205(16) 0.5325(3) 0.54589(8)
C11B C 0.60597(19) 0.6615(4) 0.57821(10)
C12B C 0.6890(2) 0.6418(4) 0.60499(10)
C13B C 0.7342(2) 0.4990(4) 0.58887(10)
C14B C 0.6802(2) 0.4315(4) 0.55169(10)
C15B C 0.7041(2) 0.2816(4) 0.52608(10)
C16B C 0.6520(2) 0.2123(4) 0.49119(10)
C17B C 0.6789(2) 0.0756(4) 0.46078(10)
C18B C 0.6111(2) 0.0530(4) 0.43052(10)
C19B C 0.5387(2) 0.1763(4) 0.44014(10)
N4B N 0.56629(16) 0.2681(3) 0.47742(8)
C20B C 0.4594(2) 0.2038(4) 0.41483(10)
C21B C 0.7912(2) 0.1850(4) 0.53633(9)
C22B C 0.8746(2) 0.2746(4) 0.53621(10)
C23B C 0.9544(2) 0.1802(4) 0.54525(10)
C24B C 0.9529(2) -0.0057(4) 0.55377(10)
C25B C 0.8707(2) -0.0964(4) 0.55420(10)
C26B C 0.7905(2) -0.0019(4) 0.54560(10)
C27B C 1.0403(2) -0.1037(5) 0.56383(10)
O1B O 1.11287(15) -0.0244(4) 0.56499(8)
O2B O 1.03008(17) -0.2807(4) 0.57080(10)
C28B C 0.44537(19) 0.0771(4) 0.37709(10)
C29B C 0.4323(2) -0.1097(4) 0.38431(10)
C30B C 0.4186(2) -0.2296(4) 0.34971(10)
C31B C 0.4174(2) -0.1647(4) 0.30747(10)
C32B C 0.4310(2) 0.0213(4) 0.29986(10)
C33B C 0.4449(2) 0.1404(4) 0.33426(10)
C34B C 0.3969(2) -0.2881(4) 0.26968(11)
O3B O 0.39462(18) -0.4630(3) 0.28078(8)
O4B O 0.38322(19) -0.2331(3) 0.23293(7)
H11B H 0.7069 0.7125 0.6289
H12B H 0.7895 0.4522 0.5997
H13B H 0.7343 0.0144 0.4620
H14B H 0.6114 -0.0278 0.4066
H15B H 0.8760 0.4006 0.5303
H16B H 1.0084 0.2421 0.5449
H17B H 0.8694 -0.2221 0.5608
H18B H 0.7358 -0.0659 0.5460
H19B H 0.4331 -0.1521 0.4134
H20B H 0.4094 -0.3534 0.3550
H21B H 0.4310 0.0638 0.2711
H22B H 0.4547 0.2653 0.3288
H23B H 0.5357(14) 0.351(4) 0.4900(8)
H24B H 0.371(3) -0.521(5) 0.2601(10)
H25B H 1.0821(18) -0.327(6) 0.5774(15)
C35 C 0.8336(4) 1.2835(10) 0.7051(2)
C36 C 0.8473(4) 1.1277(9) 0.6754(2)
O5 O 0.9100(3) 1.0079(6) 0.69768(12)
C37 C 0.9333(5) 0.8661(10) 0.67183(17)
C38 C 1.0007(4) 0.7408(9) 0.6924(2)
H26 H 0.7881 1.3663 0.6923
H27 H 0.8908 1.3489 0.7102
H28 H 0.8143 1.2384 0.7333
H29 H 0.8755 1.1722 0.6487
H30 H 0.7892 1.0652 0.6679
H31 H 0.9579 0.9164 0.6448
H32 H 0.8774 0.7980 0.6649
H33 H 1.0159 0.6440 0.6723
H34 H 1.0560 0.8072 0.7011
H35 H 0.9767 0.6867 0.7189
loop_
_geom_bond_atom_site_label_1
_geom_bond_atom_site_label_2
_geom_bond_site_symmetry_1
_geom_bond_site_symmetry_2
N1 C1 1_555 1_555
C1 C2 1_555 1_555
C2 C3 1_555 1_555
C3 C4 1_555 1_555
C4 C5 1_555 1_555
C5 N1 1_555 1_555
H1 C1 1_555 1_555
H2 C2 1_555 1_555
H3 C3 1_555 1_555
H4 C4 1_555 1_555
H5 C5 1_555 1_555
N2 C6 1_555 1_555
C6 C7 1_555 1_555
C7 C8 1_555 1_555
C8 C9 1_555 1_555
C9 C10 1_555 1_555
C10 N2 1_555 1_555
H6 C6 1_555 1_555
H7 C7 1_555 1_555
H8 C8 1_555 1_555
H9 C9 1_555 1_555
H10 C10 1_555 1_555
N3 C11 1_555 1_555
C11 C12 1_555 1_555
C12 C13 1_555 1_555
C13 C14 1_555 1_555
C14 N3 1_555 1_555
C15 C14 1_555 1_555
C16 C15 1_555 1_555
C17 C16 1_555 1_555
C18 C17 1_555 1_555
C19 C18 1_555 1_555
N4 C16 1_555 1_555
C20 C19 1_555 1_555
C21 C15 1_555 1_555
C22 C21 1_555 1_555
C23 C22 1_555 1_555
C24 C23 1_555 1_555
C25 C24 1_555 1_555
C26 C21 1_555 1_555
C27 C24 1_555 1_555
O1 C27 1_555 1_555
O2 C27 1_555 1_555
C28 C20 1_555 1_555
C29 C28 1_555 1_555
C30 C29 1_555 1_555
C31 C30 1_555 1_555
C32 C31 1_555 1_555
C33 C28 1_555 1_555
C34 C31 1_555 1_555
O3 C34 1_555 1_555
O4 C34 1_555 1_555
H11 C12 1_555 1_555
H12 C13 1_555 1_555
H13 C17 1_555 1_555
H14 C18 1_555 1_555
H15 C22 1_555 1_555
H16 C23 1_555 1_555
H17 C25 1_555 1_555
H18 C26 1_555 1_555
H19 C29 1_555 1_555
H20 C30 1_555 1_555
H21 C32 1_555 1_555
H22 C33 1_555 1_555
H23 N4 1_555 1_555
H24 O3 1_555 1_555
H25 O2 1_555 1_555
C35 C36 1_555 1_555
C36 O5 1_555 1_555
O5 C37 1_555 1_555
C37 C38 1_555 1_555
C38 H33 1_555 1_555
H26 C35 1_555 1_555
H27 C35 1_555 1_555
H28 C35 1_555 1_555
H29 C36 1_555 1_555
H30 C36 1_555 1_555
H31 C37 1_555 1_555
H32 C37 1_555 1_555
H34 C38 1_555 1_555
H35 C38 1_555 1_555
N3B C11B 1_555 1_555
C11B C20 1_555 1_555
C12B C11B 1_555 1_555
C13B C12B 1_555 1_555
C14B N3B 1_555 1_555
C15B C14B 1_555 1_555
C16B C15B 1_555 1_555
C17B C16B 1_555 1_555
C18B C17B 1_555 1_555
C19B C18B 1_555 1_555
N4B C16B 1_555 1_555
C20B C11 1_555 1_555
C21B C15B 1_555 1_555
C22B C21B 1_555 1_555
C23B C22B 1_555 1_555
C24B C23B 1_555 1_555
C25B C24B 1_555 1_555
C26B C21B 1_555 1_555
C27B C24B 1_555 1_555
O1B C27B 1_555 1_555
O2B C27B 1_555 1_555
C28B C20B 1_555 1_555
C29B C28B 1_555 1_555
C30B C29B 1_555 1_555
C31B C30B 1_555 1_555
C32B C31B 1_555 1_555
C33B C28B 1_555 1_555
C34B C31B 1_555 1_555
O3B C34B 1_555 1_555
O4B C34B 1_555 1_555
H11B C12B 1_555 1_555
H12B C13B 1_555 1_555
H13B C17B 1_555 1_555
H14B C18B 1_555 1_555
H15B C22B 1_555 1_555
H16B C23B 1_555 1_555
H17B C25B 1_555 1_555
H18B C26B 1_555 1_555
H19B C29B 1_555 1_555
H20B C30B 1_555 1_555
H21B C32B 1_555 1_555
H22B C33B 1_555 1_555
H23B N4B 1_555 1_555
H24B O3B 1_555 1_555
H25B O2B 1_555 1_555
C19 N4 1_555 1_555
C25 C26 1_555 1_555
C32 C33 1_555 1_555
C13B C14B 1_555 1_555
C19B N4B 1_555 1_555
C19B C20B 1_555 1_555
C25B C26B 1_555 1_555
C32B C33B 1_555 1_555

#END
