
#######################################################################
#
#                 Cambridge Crystallographic Data Centre
#                                CCDC 
#
#######################################################################
#
# If this CIF has been generated from an entry in the Cambridge 
# Structural Database, then it will include bibliographic, chemical, 
# crystal, experimental, refinement or atomic coordinate data resulting 
# from the CCDC's data processing and validation procedures.
#
#######################################################################

data_LEMGAO
_chemical_formula_moiety         'C22 H24 F2 O6'
_chemical_name_systematic        
(2Z)-1-(3,5-difluorophenyl)-2-(((2S,5R,6R)-5-(acetoxy)-6-(acetoxymethyl)-5,6-dihydropyran)-2-yl)-4-methylpent-2-en-1-one
_symmetry_cell_setting           orthorhombic
_symmetry_space_group_name_H-M   'P 21 21 2'
_symmetry_Int_Tables_number      18
_space_group_name_Hall           'P 2 2ab'
loop_
_symmetry_equiv_pos_site_id
_symmetry_equiv_pos_as_xyz
1 x,y,z
2 -x,-y,z
3 1/2-x,1/2+y,-z
4 1/2+x,1/2-y,-z
_cell_length_a                   8.80770(10)
_cell_length_b                   28.9664(4)
_cell_length_c                   8.19310(10)
_cell_angle_alpha                90
_cell_angle_beta                 90
_cell_angle_gamma                90
_cell_volume                     2090.28
_exptl_crystal_colour            colorless
_exptl_crystal_description       block
_cell_formula_units_Z            4
loop_
_atom_site_label
_atom_site_type_symbol
_atom_site_fract_x
_atom_site_fract_y
_atom_site_fract_z
C1 C 0.4607(2) 0.71873(7) 0.7090(3)
H1 H 0.4007 0.694 0.6534
C2 C 0.3510(3) 0.75252(7) 0.7890(3)
H2 H 0.2649 0.7588 0.7126
C3 C 0.2896(3) 0.73327(8) 0.9456(3)
H3 H 0.2087 0.7489 0.9986
C4 C 0.3445(3) 0.69514(7) 1.0122(3)
H4 H 0.2984 0.6837 1.1089
C5 C 0.4762(3) 0.66942(7) 0.9415(3)
H5 H 0.5473 0.6628 1.0336
C6 C 0.4372(3) 0.62326(7) 0.8633(3)
C7 C 0.3005(3) 0.60424(7) 0.8668(3)
H6 H 0.2217 0.6229 0.9106
C8 C 0.2538(3) 0.55678(8) 0.8103(3)
H7 H 0.3392 0.5429 0.7466
C9 C 0.1147(3) 0.55982(9) 0.7009(4)
H8 H 0.0275 0.5704 0.765
H9 H 0.0927 0.5293 0.655
H10 H 0.1343 0.5817 0.6121
C10 C 0.2226(3) 0.52640(9) 0.9602(4)
H11 H 0.3118 0.5266 1.0318
H12 H 0.2016 0.4947 0.9248
H13 H 0.1347 0.5385 1.0197
C11 C 0.5743(3) 0.59922(7) 0.7954(3)
C12 C 0.5755(3) 0.58523(7) 0.6192(3)
C13 C 0.6921(3) 0.55660(8) 0.5649(3)
H14 H 0.7678 0.5458 0.6382
C14 C 0.6953(3) 0.54427(9) 0.4027(3)
C15 C 0.5901(3) 0.55930(9) 0.2913(3)
H15 H 0.5952 0.5506 0.1796
C16 C 0.4765(3) 0.58765(8) 0.3497(3)
C17 C 0.4658(3) 0.60108(8) 0.5105(3)
H16 H 0.3859 0.6206 0.5462
C18 C 0.5685(3) 0.74008(8) 0.5865(3)
H17 H 0.6343 0.7631 0.641
H18 H 0.6341 0.7159 0.5381
C19 C 0.5258(3) 0.80371(8) 0.4071(3)
C20 C 0.4275(3) 0.82096(10) 0.2727(4)
H19 H 0.4441 0.8542 0.258
H20 H 0.3208 0.8154 0.3002
H21 H 0.4528 0.8047 0.1714
C21 C 0.3687(3) 0.83481(8) 0.7650(3)
C22 C 0.4606(3) 0.87630(8) 0.8110(4)
H22 H 0.446 0.9006 0.7292
H23 H 0.5682 0.8679 0.8159
H24 H 0.4276 0.8876 0.918
F1 F 0.8081(2) 0.51663(6) 0.3488(2)
F2 F 0.3704(2) 0.60320(6) 0.24378(18)
O1 O 0.55782(17) 0.69779(5) 0.82680(19)
O2 O 0.68452(19) 0.59212(6) 0.8813(2)
O3 O 0.47946(19) 0.76205(5) 0.4608(2)
O4 O 0.6338(2) 0.82370(6) 0.4621(2)
O5 O 0.42885(18) 0.79589(5) 0.8261(2)
O6 O 0.2560(3) 0.83582(6) 0.6831(3)
loop_
_geom_bond_atom_site_label_1
_geom_bond_atom_site_label_2
_geom_bond_site_symmetry_1
_geom_bond_site_symmetry_2
C1 H1 1_555 1_555
C2 C1 1_555 1_555
H2 C2 1_555 1_555
C3 C2 1_555 1_555
H3 C3 1_555 1_555
C4 C3 1_555 1_555
H4 C4 1_555 1_555
C5 C4 1_555 1_555
H5 C5 1_555 1_555
C6 C5 1_555 1_555
C7 C6 1_555 1_555
H6 C7 1_555 1_555
C8 C7 1_555 1_555
H7 C8 1_555 1_555
C9 C8 1_555 1_555
H8 C9 1_555 1_555
H9 C9 1_555 1_555
H10 C9 1_555 1_555
C10 C8 1_555 1_555
H11 C10 1_555 1_555
H12 C10 1_555 1_555
H13 C10 1_555 1_555
C11 C6 1_555 1_555
C12 C11 1_555 1_555
C13 C12 1_555 1_555
H14 C13 1_555 1_555
C14 C13 1_555 1_555
C15 C14 1_555 1_555
H15 C15 1_555 1_555
C16 C15 1_555 1_555
C17 C12 1_555 1_555
H16 C17 1_555 1_555
C18 C1 1_555 1_555
H17 C18 1_555 1_555
H18 C18 1_555 1_555
C19 C20 1_555 1_555
C20 H19 1_555 1_555
H20 C20 1_555 1_555
H21 C20 1_555 1_555
C21 C22 1_555 1_555
C22 H22 1_555 1_555
H23 C22 1_555 1_555
H24 C22 1_555 1_555
F1 C14 1_555 1_555
F2 C16 1_555 1_555
O1 C1 1_555 1_555
O2 C11 1_555 1_555
O3 C18 1_555 1_555
O4 C19 1_555 1_555
O5 C2 1_555 1_555
O6 C21 1_555 1_555
C5 O1 1_555 1_555
C16 C17 1_555 1_555
C19 O3 1_555 1_555
C21 O5 1_555 1_555

#END
