
#######################################################################
#
#                 Cambridge Crystallographic Data Centre
#                                CCDC 
#
#######################################################################
#
# If this CIF has been generated from an entry in the Cambridge 
# Structural Database, then it will include bibliographic, chemical, 
# crystal, experimental, refinement or atomic coordinate data resulting 
# from the CCDC's data processing and validation procedures.
#
#######################################################################

data_LEMGOC
_chemical_formula_moiety         'C20 H14 O3,0.5(C6 H6)'
_chemical_name_systematic        
'4-phenyl-9,9a-dihydro-5H-5,7a-epoxyphenaleno[1,9-bc]furan-2(8H)-one benzene solvate'
_symmetry_cell_setting           monoclinic
_symmetry_space_group_name_H-M   'P 21/c'
_symmetry_Int_Tables_number      14
_space_group_name_Hall           '-P 2ybc'
loop_
_symmetry_equiv_pos_site_id
_symmetry_equiv_pos_as_xyz
1 x,y,z
2 -x,1/2+y,1/2-z
3 -x,-y,-z
4 x,1/2-y,1/2+z
_cell_length_a                   11.9554(10)
_cell_length_b                   8.3933(7)
_cell_length_c                   16.6202(15)
_cell_angle_alpha                90
_cell_angle_beta                 93.466(3)
_cell_angle_gamma                90
_cell_volume                     1664.71
_exptl_crystal_colour            colorless
_exptl_crystal_description       Plate
_cell_formula_units_Z            4
loop_
_atom_site_label
_atom_site_type_symbol
_atom_site_fract_x
_atom_site_fract_y
_atom_site_fract_z
O1 O 0.69439(8) 0.63156(13) 0.84395(6)
O2 O 0.62861(9) 0.61111(13) 0.96737(6)
O3 O 0.40553(9) 0.47736(13) 0.61312(6)
C1 C 0.60889(12) 0.63043(17) 0.89633(9)
C2 C 0.50104(12) 0.64808(17) 0.84781(8)
C3 C 0.39020(12) 0.61485(17) 0.86303(9)
H1 H 0.3697 0.6004 0.9169
C4 C 0.30749(12) 0.60240(17) 0.79800(9)
C5 C 0.34379(13) 0.61689(17) 0.71971(9)
C6 C 0.45332(12) 0.65713(17) 0.70781(9)
C7 C 0.53042(12) 0.67744(17) 0.76976(9)
C8 C 0.65213(12) 0.67003(18) 0.76161(9)
H2 H 0.6813 0.7757 0.7446
C9 C 0.67129(13) 0.54263(19) 0.69755(9)
H3 H 0.6459 0.4378 0.7167
H4 H 0.7523 0.5349 0.6889
C10 C 0.60560(13) 0.58539(19) 0.61612(9)
H5 H 0.6399 0.6816 0.5935
H6 H 0.6147 0.4970 0.5776
C11 C 0.48024(13) 0.61621(18) 0.62266(9)
C12 C 0.41459(14) 0.73481(19) 0.56840(9)
H7 H 0.4446 0.8150 0.5356
C13 C 0.30745(14) 0.70299(19) 0.57648(9)
H8 H 0.2451 0.7578 0.5515
C14 C 0.30353(13) 0.56068(18) 0.63380(9)
H9 H 0.2330 0.4964 0.6299
C15 C 0.18894(12) 0.56819(18) 0.81256(9)
C16 C 0.15759(13) 0.47735(18) 0.87819(9)
H10 H 0.2135 0.4332 0.9147
C17 C 0.04520(13) 0.4516(2) 0.89014(10)
H11 H 0.0247 0.3894 0.9347
C18 C -0.03745(13) 0.5158(2) 0.83768(10)
H12 H -0.1143 0.4985 0.8465
C19 C -0.00734(14) 0.6052(2) 0.77242(10)
H13 H -0.0636 0.6492 0.7362
C20 C 0.10469(13) 0.63056(19) 0.76001(10)
H14 H 0.1246 0.6915 0.7149
C21 C 0.10409(17) 0.4594(3) 0.47618(12)
H15 H 0.1762 0.4311 0.4597
C22 C 0.05781(16) 0.3756(2) 0.53771(11)
H16 H 0.0980 0.2902 0.5635
C23 C -0.04643(17) 0.4166(2) 0.56138(11)
H17 H -0.0787 0.3595 0.6036
C21B C -0.10409(17) 0.5406(3) 0.52382(12)
H15B H -0.1762 0.5689 0.5403
C22B C -0.05781(16) 0.6244(2) 0.46229(11)
H16B H -0.0980 0.7098 0.4365
C23B C 0.04643(17) 0.5834(2) 0.43862(11)
H17B H 0.0787 0.6405 0.3964
loop_
_geom_bond_atom_site_label_1
_geom_bond_atom_site_label_2
_geom_bond_site_symmetry_1
_geom_bond_site_symmetry_2
O1 C1 1_555 1_555
O2 C1 1_555 1_555
O3 C11 1_555 1_555
C1 C2 1_555 1_555
C2 C3 1_555 1_555
C3 H1 1_555 1_555
C4 C3 1_555 1_555
C5 C4 1_555 1_555
C6 C5 1_555 1_555
C7 C2 1_555 1_555
C8 O1 1_555 1_555
H2 C8 1_555 1_555
C9 C8 1_555 1_555
H3 C9 1_555 1_555
H4 C9 1_555 1_555
C10 C9 1_555 1_555
H5 C10 1_555 1_555
H6 C10 1_555 1_555
C11 C6 1_555 1_555
C12 C11 1_555 1_555
H7 C12 1_555 1_555
C13 C12 1_555 1_555
H8 C13 1_555 1_555
C14 O3 1_555 1_555
H9 C14 1_555 1_555
C15 C4 1_555 1_555
C16 C15 1_555 1_555
H10 C16 1_555 1_555
C17 C16 1_555 1_555
H11 C17 1_555 1_555
C18 C17 1_555 1_555
H12 C18 1_555 1_555
C19 C18 1_555 1_555
H13 C19 1_555 1_555
C20 C15 1_555 1_555
H14 C20 1_555 1_555
C21 H15 1_555 1_555
C22 C21 1_555 1_555
H16 C22 1_555 1_555
C23 C22 1_555 1_555
H17 C23 1_555 1_555
C21B C23 1_555 1_555
H15B C21B 1_555 1_555
C22B C21B 1_555 1_555
H16B C22B 1_555 1_555
C23B C21 1_555 1_555
H17B C23B 1_555 1_555
C5 C14 1_555 1_555
C6 C7 1_555 1_555
C7 C8 1_555 1_555
C10 C11 1_555 1_555
C13 C14 1_555 1_555
C19 C20 1_555 1_555
C22B C23B 1_555 1_555

#END
