
#######################################################################
#
#                 Cambridge Crystallographic Data Centre
#                                CCDC 
#
#######################################################################
#
# If this CIF has been generated from an entry in the Cambridge 
# Structural Database, then it will include bibliographic, chemical, 
# crystal, experimental, refinement or atomic coordinate data resulting 
# from the CCDC's data processing and validation procedures.
#
#######################################################################

data_LEMHAP
_chemical_formula_moiety         'C33 H25 O2 P1'
_chemical_name_systematic        
10-[(diphenylphosphoryl)methyl]-10-phenylphenanthren-9(10H)-one
_symmetry_cell_setting           orthorhombic
_symmetry_space_group_name_H-M   'P 21 21 21'
_symmetry_Int_Tables_number      19
_space_group_name_Hall           'P 2ac 2ab'
loop_
_symmetry_equiv_pos_site_id
_symmetry_equiv_pos_as_xyz
1 x,y,z
2 1/2-x,-y,1/2+z
3 -x,1/2+y,1/2-z
4 1/2+x,1/2-y,-z
_cell_length_a                   11.149(2)
_cell_length_b                   11.921(2)
_cell_length_c                   18.456(4)
_cell_angle_alpha                90
_cell_angle_beta                 90
_cell_angle_gamma                90
_cell_volume                     2452.94
_cell_formula_units_Z            4
loop_
_atom_site_label
_atom_site_type_symbol
_atom_site_fract_x
_atom_site_fract_y
_atom_site_fract_z
C1 C 0.7208(3) 0.5130(3) 0.5202(2)
C2 C 0.6387(4) 0.5120(3) 0.4630(2)
H1 H 0.565675 0.548793 0.468250
C3 C 0.6637(5) 0.4576(4) 0.3990(2)
H2 H 0.607154 0.456509 0.361918
C4 C 0.7735(5) 0.4042(3) 0.3898(3)
H3 H 0.792792 0.371088 0.345685
C5 C 0.8529(4) 0.4007(4) 0.4461(3)
H4 H 0.925615 0.363590 0.439935
C6 C 0.8277(3) 0.4519(3) 0.5134(2)
C7 C 0.9080(3) 0.4394(3) 0.5765(2)
C8 C 1.0008(4) 0.3600(4) 0.5777(3)
H5 H 1.013950 0.315258 0.537200
C9 C 1.0729(4) 0.3471(4) 0.6379(4)
H6 H 1.133695 0.293625 0.637458
C10 C 1.0561(4) 0.4117(4) 0.6979(3)
H7 H 1.105297 0.402574 0.738208
C11 C 0.9655(3) 0.4909(4) 0.6987(2)
H8 H 0.954200 0.535506 0.739418
C12 C 0.8912(3) 0.5041(3) 0.6388(2)
C13 C 0.7933(3) 0.5873(3) 0.6434(2)
C14 C 0.6899(3) 0.5797(3) 0.58807(19)
C15 C 0.5858(3) 0.5236(4) 0.6298(2)
C16 C 0.5627(4) 0.4104(4) 0.6220(2)
H9 H 0.608855 0.368318 0.590002
C17 C 0.4720(5) 0.3582(6) 0.6611(3)
H10 H 0.458507 0.281755 0.655308
C18 C 0.4021(4) 0.4189(6) 0.7081(3)
H11 H 0.339581 0.384818 0.733174
C19 C 0.4269(5) 0.5324(6) 0.7176(4)
H12 H 0.381561 0.574160 0.750205
C20 C 0.5174(5) 0.5833(5) 0.6794(3)
H13 H 0.533078 0.659011 0.686849
C21 C 0.6595(3) 0.7027(3) 0.5665(2)
H14 H 0.643501 0.746195 0.609873
H15 H 0.587789 0.703454 0.536781
C22 C 0.8422(3) 0.6908(3) 0.3809(2)
H16 H 0.912099 0.665848 0.403192
C23 C 0.8232(4) 0.6692(3) 0.3081(2)
H17 H 0.880463 0.630188 0.281439
C24 C 0.7191(4) 0.7057(3) 0.2751(2)
H18 H 0.706595 0.691730 0.226143
C25 C 0.6331(4) 0.7630(3) 0.3147(2)
H19 H 0.562701 0.786225 0.292231
C26 C 0.6514(3) 0.7858(3) 0.3873(2)
H20 H 0.593795 0.824748 0.413667
C27 C 0.7571(3) 0.7499(3) 0.42084(19)
C28 C 0.7764(4) 0.9139(3) 0.53761(19)
C29 C 0.7767(5) 0.9976(3) 0.4883(2)
H21 H 0.771194 0.980023 0.439365
C30 C 0.7851(6) 1.1087(4) 0.5089(3)
H22 H 0.787395 1.164540 0.473815
C31 C 0.7900(5) 1.1364(4) 0.5792(3)
H23 H 0.781937 1.210801 0.593499
C32 C 0.8074(6) 1.0514(4) 0.6309(3)
H24 H 0.823069 1.069815 0.678942
C33 C 0.8012(5) 0.9407(4) 0.6098(3)
H25 H 0.813470 0.883953 0.643591
O1 O 0.9013(2) 0.7175(2) 0.53805(15)
O2 O 0.7887(3) 0.6557(3) 0.69240(14)
P1 P 0.78379(8) 0.76654(8) 0.51638(5)
loop_
_geom_bond_atom_site_label_1
_geom_bond_atom_site_label_2
_geom_bond_site_symmetry_1
_geom_bond_site_symmetry_2
C1 C2 1_555 1_555
C2 H1 1_555 1_555
C3 C2 1_555 1_555
H2 C3 1_555 1_555
C4 C3 1_555 1_555
H3 C4 1_555 1_555
C5 C4 1_555 1_555
H4 C5 1_555 1_555
C6 C1 1_555 1_555
C7 C6 1_555 1_555
C8 C7 1_555 1_555
H5 C8 1_555 1_555
C9 C8 1_555 1_555
H6 C9 1_555 1_555
C10 C9 1_555 1_555
H7 C10 1_555 1_555
C11 C10 1_555 1_555
H8 C11 1_555 1_555
C12 C7 1_555 1_555
C13 C12 1_555 1_555
C14 C1 1_555 1_555
C15 C14 1_555 1_555
C16 C15 1_555 1_555
H9 C16 1_555 1_555
C17 C16 1_555 1_555
H10 C17 1_555 1_555
C18 C17 1_555 1_555
H11 C18 1_555 1_555
C19 C18 1_555 1_555
H12 C19 1_555 1_555
C20 C15 1_555 1_555
H13 C20 1_555 1_555
C21 C14 1_555 1_555
H14 C21 1_555 1_555
H15 C21 1_555 1_555
C22 H16 1_555 1_555
C23 C22 1_555 1_555
H17 C23 1_555 1_555
C24 C23 1_555 1_555
H18 C24 1_555 1_555
C25 C24 1_555 1_555
H19 C25 1_555 1_555
C26 C25 1_555 1_555
H20 C26 1_555 1_555
C27 C22 1_555 1_555
C28 C29 1_555 1_555
C29 H21 1_555 1_555
C30 C29 1_555 1_555
H22 C30 1_555 1_555
C31 C30 1_555 1_555
H23 C31 1_555 1_555
C32 C31 1_555 1_555
H24 C32 1_555 1_555
C33 C28 1_555 1_555
H25 C33 1_555 1_555
O1 P1 1_555 1_555
O2 C13 1_555 1_555
P1 C21 1_555 1_555
C5 C6 1_555 1_555
C11 C12 1_555 1_555
C13 C14 1_555 1_555
C19 C20 1_555 1_555
C26 C27 1_555 1_555
C27 P1 1_555 1_555
C28 P1 1_555 1_555
C32 C33 1_555 1_555

#END
