
#######################################################################
#
#                 Cambridge Crystallographic Data Centre
#                                CCDC 
#
#######################################################################
#
# If this CIF has been generated from an entry in the Cambridge 
# Structural Database, then it will include bibliographic, chemical, 
# crystal, experimental, refinement or atomic coordinate data resulting 
# from the CCDC's data processing and validation procedures.
#
#######################################################################

data_LEMHAN
_chemical_formula_moiety         'C20 H20 N2 O4'
_chemical_name_systematic        
'dimethyl 1-methyl-7-[1-(4-methylphenyl)vinyl]-1H-pyrrolo[1,2-a]imidazole-5,6-dicarboxylate'
_symmetry_cell_setting           triclinic
_symmetry_space_group_name_H-M   'P -1'
_symmetry_Int_Tables_number      2
_space_group_name_Hall           '-P 1'
loop_
_symmetry_equiv_pos_site_id
_symmetry_equiv_pos_as_xyz
1 x,y,z
2 -x,-y,-z
_cell_length_a                   9.608(5)
_cell_length_b                   9.883(5)
_cell_length_c                   10.123(4)
_cell_angle_alpha                82.041(19)
_cell_angle_beta                 80.510(19)
_cell_angle_gamma                75.84(2)
_cell_volume                     914.425
_exptl_crystal_colour            yellow
_exptl_crystal_description       block
_chemical_melting_point          '114-116 deg.C'
_cell_formula_units_Z            2
loop_
_atom_site_label
_atom_site_type_symbol
_atom_site_fract_x
_atom_site_fract_y
_atom_site_fract_z
O1 O 0.51240(13) 0.33839(16) 0.35301(12)
O2 O 0.48338(12) 0.35406(16) 0.13759(12)
O3 O 0.24136(14) -0.02486(12) 0.39880(14)
O4 O 0.44832(12) 0.04525(12) 0.32450(12)
N1 N 0.08376(13) 0.25471(13) 0.35422(12)
N2 N -0.10624(13) 0.42968(14) 0.35144(13)
C1 C 0.04187(16) 0.39653(16) 0.32907(13)
C2 C 0.16501(16) 0.45387(16) 0.29143(14)
C3 C 0.28277(16) 0.33601(16) 0.29675(14)
C4 C 0.23397(17) 0.21332(17) 0.33545(14)
C5 C -0.03656(18) 0.19700(19) 0.38933(17)
C6 C -0.15141(19) 0.3058(2) 0.38779(18)
C7 C -0.20266(19) 0.5681(2) 0.35659(19)
C8 C 0.17392(17) 0.60165(16) 0.26100(14)
C9 C 0.2773(2) 0.64925(19) 0.2976(2)
C10 C 0.06134(18) 0.69892(16) 0.18614(16)
C11 C -0.0006(2) 0.83301(18) 0.22334(19)
C12 C -0.1066(2) 0.9219(2) 0.1562(2)
C13 C -0.1565(2) 0.8807(2) 0.05147(19)
C14 C -0.0923(2) 0.7482(2) 0.01206(18)
C15 C 0.0143(2) 0.65834(18) 0.07912(17)
C16 C -0.2768(2) 0.9769(2) -0.0183(2)
C17 C 0.43824(17) 0.34116(16) 0.26863(16)
C18 C 0.6315(2) 0.3665(3) 0.0998(2)
C19 C 0.30392(18) 0.06773(17) 0.35677(16)
C20 C 0.5269(2) -0.0975(2) 0.3461(2)
H1 H -0.0374 0.1025 0.4098
H2 H 0.0301 0.8632 0.2943
H3 H 0.0551 0.5696 0.0514
H4 H -0.2475 0.2988 0.4081
H5 H -0.1458 1.0116 0.1821
H6 H -0.1218 0.7190 -0.0601
H7 H -0.3277 0.9223 -0.0558
H8 H -0.2968 0.5592 0.4010
H9 H 0.6282 -0.1000 0.3400
H10 H -0.1644 0.6242 0.4054
H11 H -0.2104 0.6123 0.2666
H12 H 0.4931 -0.1376 0.4338
H13 H 0.5122 -0.1503 0.2789
H14 H -0.3429 1.0327 0.0460
H15 H -0.2364 1.0373 -0.0889
H16 H 0.6935 0.2966 0.1528
H17 H 0.6609 0.3538 0.0061
H18 H 0.6386 0.4582 0.1152
H19 H 0.3474 0.5887 0.3443
H20 H 0.2803 0.7432 0.2764
loop_
_geom_bond_atom_site_label_1
_geom_bond_atom_site_label_2
_geom_bond_site_symmetry_1
_geom_bond_site_symmetry_2
O1 C17 1_555 1_555
O2 C17 1_555 1_555
O3 C19 1_555 1_555
O4 C19 1_555 1_555
N1 C1 1_555 1_555
N2 C1 1_555 1_555
C1 C2 1_555 1_555
C2 C3 1_555 1_555
C3 C4 1_555 1_555
C4 N1 1_555 1_555
C5 N1 1_555 1_555
C6 N2 1_555 1_555
C7 N2 1_555 1_555
C8 C2 1_555 1_555
C9 C8 1_555 1_555
C10 C8 1_555 1_555
C11 C10 1_555 1_555
C12 C11 1_555 1_555
C13 C12 1_555 1_555
C14 C13 1_555 1_555
C15 C10 1_555 1_555
C16 C13 1_555 1_555
C17 C3 1_555 1_555
C18 O2 1_555 1_555
C19 C4 1_555 1_555
C20 O4 1_555 1_555
H1 C5 1_555 1_555
H2 C11 1_555 1_555
H3 C15 1_555 1_555
H4 C6 1_555 1_555
H5 C12 1_555 1_555
H6 C14 1_555 1_555
H7 C16 1_555 1_555
H8 C7 1_555 1_555
H9 C20 1_555 1_555
H10 C7 1_555 1_555
H11 C7 1_555 1_555
H12 C20 1_555 1_555
H13 C20 1_555 1_555
H14 C16 1_555 1_555
H15 C16 1_555 1_555
H16 C18 1_555 1_555
H17 C18 1_555 1_555
H18 C18 1_555 1_555
H19 C9 1_555 1_555
H20 C9 1_555 1_555
C5 C6 1_555 1_555
C14 C15 1_555 1_555

#END
