
#######################################################################
#
#                 Cambridge Crystallographic Data Centre
#                                CCDC 
#
#######################################################################
#
# If this CIF has been generated from an entry in the Cambridge 
# Structural Database, then it will include bibliographic, chemical, 
# crystal, experimental, refinement or atomic coordinate data resulting 
# from the CCDC's data processing and validation procedures.
#
#######################################################################

data_LEMJOD
_chemical_formula_moiety         'C13 H16 N2 O1 S1'
_chemical_name_systematic        
2-(pyrrolidin-1-yl)-5-methoxy-4H-benzo(e)(1,3)thiazine
_symmetry_cell_setting           triclinic
_symmetry_space_group_name_H-M   'P -1'
_symmetry_Int_Tables_number      2
_space_group_name_Hall           '-P 1'
loop_
_symmetry_equiv_pos_site_id
_symmetry_equiv_pos_as_xyz
1 x,y,z
2 -x,-y,-z
_cell_length_a                   8.0451(7)
_cell_length_b                   8.7961(8)
_cell_length_c                   9.3266(8)
_cell_angle_alpha                76.123(1)
_cell_angle_beta                 83.791(2)
_cell_angle_gamma                68.609(1)
_cell_volume                     596.443
_exptl_crystal_colour            pale-yellow
_exptl_crystal_description       plates
_chemical_melting_point          '142 deg.C'
_cell_formula_units_Z            2
loop_
_atom_site_label
_atom_site_type_symbol
_atom_site_fract_x
_atom_site_fract_y
_atom_site_fract_z
S1 S 0.75281(4) 0.57394(4) 0.63691(4)
C1 C 1.05595(18) 0.59232(17) 0.72539(15)
H1 H 1.1147 0.5416 0.6458
C2 C 1.15026(18) 0.62927(18) 0.81939(15)
H2 H 1.2757 0.6016 0.8051
C3 C 1.06438(18) 0.70650(17) 0.93489(15)
H3 H 1.1308 0.7306 0.9991
C4 C 0.88009(18) 0.74801(16) 0.95515(14)
C5 C 0.58361(18) 0.74530(18) 0.88327(15)
H4 H 0.5629 0.6400 0.9304
H5 H 0.5348 0.8232 0.9510
N1 N 0.48677(15) 0.81843(15) 0.74479(12)
C6 C 0.54366(17) 0.74377(17) 0.63766(15)
C7 C 0.87237(18) 0.63129(16) 0.75027(14)
C8 C 0.78160(18) 0.70884(16) 0.86325(14)
O1 O 0.78221(13) 0.82657(13) 1.06291(11)
C9 C 0.8764(2) 0.86294(19) 1.16402(16)
H6 H 0.9553 0.7581 1.2229
H7 H 0.7908 0.9273 1.2296
H8 H 0.9478 0.9283 1.1088
N2 N 0.44827(15) 0.78544(16) 0.51429(13)
C10 C 0.27085(18) 0.91608(17) 0.50182(15)
H9 H 0.2792 1.0286 0.4841
H10 H 0.1967 0.8994 0.5919
C11 C 0.19546(19) 0.89302(18) 0.36885(15)
H11 H 0.1082 0.9998 0.3176
H12 H 0.1367 0.8087 0.3989
C12 C 0.36038(19) 0.83277(18) 0.27016(15)
H13 H 0.3404 0.7682 0.2043
H14 H 0.3903 0.9285 0.2090
C13 C 0.50884(18) 0.72177(18) 0.37873(15)
H15 H 0.5210 0.6028 0.3954
H16 H 0.6248 0.7334 0.3423
loop_
_geom_bond_atom_site_label_1
_geom_bond_atom_site_label_2
_geom_bond_site_symmetry_1
_geom_bond_site_symmetry_2
S1 C6 1_555 1_555
C1 H1 1_555 1_555
C2 C1 1_555 1_555
H2 C2 1_555 1_555
C3 C2 1_555 1_555
H3 C3 1_555 1_555
C4 C3 1_555 1_555
C5 H4 1_555 1_555
H5 C5 1_555 1_555
N1 C5 1_555 1_555
C6 N1 1_555 1_555
C7 S1 1_555 1_555
C8 C4 1_555 1_555
O1 C4 1_555 1_555
C9 O1 1_555 1_555
H6 C9 1_555 1_555
H7 C9 1_555 1_555
H8 C9 1_555 1_555
N2 C6 1_555 1_555
C10 N2 1_555 1_555
H9 C10 1_555 1_555
H10 C10 1_555 1_555
C11 C10 1_555 1_555
H11 C11 1_555 1_555
H12 C11 1_555 1_555
C12 C11 1_555 1_555
H13 C12 1_555 1_555
H14 C12 1_555 1_555
C13 N2 1_555 1_555
H15 C13 1_555 1_555
H16 C13 1_555 1_555
C1 C7 1_555 1_555
C5 C8 1_555 1_555
C7 C8 1_555 1_555
C12 C13 1_555 1_555

#END
