
#######################################################################
#
#                 Cambridge Crystallographic Data Centre
#                                CCDC 
#
#######################################################################
#
# If this CIF has been generated from an entry in the Cambridge 
# Structural Database, then it will include bibliographic, chemical, 
# crystal, experimental, refinement or atomic coordinate data resulting 
# from the CCDC's data processing and validation procedures.
#
#######################################################################

data_LEMMUO
_chemical_formula_moiety         'C15 H14 N4 2+,3(H2 O1),2(Cl1 1-)'
_chemical_name_systematic        
"1,1'-methylenebis(1H-benzimidazol-3-ium) dichloride trihydrate"
_symmetry_cell_setting           monoclinic
_symmetry_space_group_name_H-M   'P 21/n'
_symmetry_Int_Tables_number      14
_space_group_name_Hall           '-P 2yn'
loop_
_symmetry_equiv_pos_site_id
_symmetry_equiv_pos_as_xyz
1 x,y,z
2 1/2-x,1/2+y,1/2-z
3 -x,-y,-z
4 1/2+x,1/2-y,1/2+z
_cell_length_a                   13.6887(13)
_cell_length_b                   7.5205(5)
_cell_length_c                   18.6163(15)
_cell_angle_alpha                90
_cell_angle_beta                 108.469(2)
_cell_angle_gamma                90
_cell_volume                     1817.76
_exptl_crystal_colour            colorless
_exptl_crystal_description       block
_cell_formula_units_Z            4
loop_
_atom_site_label
_atom_site_type_symbol
_atom_site_fract_x
_atom_site_fract_y
_atom_site_fract_z
Cl1 Cl 0.20692(6) 0.87882(11) 0.68549(5)
Cl2 Cl 0.83396(7) 0.88429(11) 0.66965(5)
N1 N 0.17570(18) 0.6885(3) 0.46809(14)
N2 N 0.06672(19) 0.5301(4) 0.38049(14)
H1 H 0.0265 0.4969 0.3370
N3 N 0.34964(19) 0.7937(3) 0.52706(14)
N4 N 0.5037(2) 0.7352(4) 0.60091(16)
H2 H 0.5542 0.7133 0.6412
C1 C 0.2401(2) 0.8396(4) 0.50380(18)
H3 H 0.2219 0.8772 0.5478
H4 H 0.2271 0.9383 0.4684
C2 C 0.1192(2) 0.6797(5) 0.39452(18)
H5 H 0.1175 0.7668 0.3587
C3 C 0.0870(2) 0.4340(4) 0.44779(17)
C4 C 0.1574(2) 0.5331(4) 0.50458(17)
C5 C 0.1928(2) 0.4774(4) 0.57893(17)
H6 H 0.2386 0.5451 0.6165
C6 C 0.1563(2) 0.3158(4) 0.59442(18)
H7 H 0.1785 0.2725 0.6438
C7 C 0.0861(2) 0.2145(4) 0.53736(18)
H8 H 0.0636 0.1061 0.5503
C8 C 0.0495(2) 0.2703(4) 0.46311(18)
H9 H 0.0029 0.2034 0.4256
C9 C 0.4082(3) 0.7654(5) 0.5986(2)
H10 H 0.3849 0.7668 0.6405
C10 C 0.5105(2) 0.7442(4) 0.52776(19)
C11 C 0.4117(2) 0.7814(4) 0.48000(18)
C12 C 0.3898(3) 0.8023(5) 0.40248(19)
H11 H 0.3237 0.8276 0.3708
C13 C 0.4719(3) 0.7834(5) 0.3750(2)
H12 H 0.4607 0.7948 0.3233
C14 C 0.5714(3) 0.7475(5) 0.4232(3)
H13 H 0.6249 0.7372 0.4027
C15 C 0.5924(3) 0.7269(5) 0.5000(2)
H14 H 0.6586 0.7025 0.5317
O1 O 0.08436(17) 0.5818(3) 0.74241(13)
H15 H 0.1074 0.6697 0.7241
H16 H 0.1347 0.5141 0.7643
O2 O 0.4521(2) 0.6036(4) 0.75361(16)
H17 H 0.4073 0.5490 0.7681
H18 H 0.5096 0.5511 0.7723
O3 O 0.6698(3) 0.6854(7) 0.7194(2)
H19 H 0.7250 0.7224 0.7128
H20 H 0.6846 0.6015 0.7517
loop_
_geom_bond_atom_site_label_1
_geom_bond_atom_site_label_2
_geom_bond_site_symmetry_1
_geom_bond_site_symmetry_2
N1 C1 1_555 1_555
N2 H1 1_555 1_555
N3 C1 1_555 1_555
N4 H2 1_555 1_555
C1 H3 1_555 1_555
H4 C1 1_555 1_555
C2 N1 1_555 1_555
H5 C2 1_555 1_555
C3 N2 1_555 1_555
C4 N1 1_555 1_555
C5 C4 1_555 1_555
H6 C5 1_555 1_555
C6 C5 1_555 1_555
H7 C6 1_555 1_555
C7 C6 1_555 1_555
H8 C7 1_555 1_555
C8 C3 1_555 1_555
H9 C8 1_555 1_555
C9 N3 1_555 1_555
H10 C9 1_555 1_555
C10 N4 1_555 1_555
C11 N3 1_555 1_555
C12 C11 1_555 1_555
H11 C12 1_555 1_555
C13 C12 1_555 1_555
H12 C13 1_555 1_555
C14 C13 1_555 1_555
H13 C14 1_555 1_555
C15 C10 1_555 1_555
H14 C15 1_555 1_555
O1 H15 1_555 1_555
H16 O1 1_555 1_555
O2 H17 1_555 1_555
H18 O2 1_555 1_555
O3 H19 1_555 1_555
H20 O3 1_555 1_555
N2 C2 1_555 1_555
N4 C9 1_555 1_555
C3 C4 1_555 1_555
C7 C8 1_555 1_555
C10 C11 1_555 1_555
C14 C15 1_555 1_555

#END
