
#######################################################################
#
#                 Cambridge Crystallographic Data Centre
#                                CCDC 
#
#######################################################################
#
# If this CIF has been generated from an entry in the Cambridge 
# Structural Database, then it will include bibliographic, chemical, 
# crystal, experimental, refinement or atomic coordinate data resulting 
# from the CCDC's data processing and validation procedures.
#
#######################################################################

data_LEMMOG
_chemical_formula_moiety         'C17 H12 N2'
_chemical_name_systematic        3-(9-anthryl)pyrazole
_symmetry_cell_setting           triclinic
_symmetry_space_group_name_H-M   'P -1'
_symmetry_Int_Tables_number      2
_space_group_name_Hall           '-P 1'
loop_
_symmetry_equiv_pos_site_id
_symmetry_equiv_pos_as_xyz
1 x,y,z
2 -x,-y,-z
_cell_length_a                   7.8731(16)
_cell_length_b                   13.570(3)
_cell_length_c                   13.641(3)
_cell_angle_alpha                68.00(3)
_cell_angle_beta                 75.13(3)
_cell_angle_gamma                75.32(3)
_cell_volume                     1285.73
_exptl_crystal_colour            yellow
_exptl_crystal_description       block
_cell_formula_units_Z            4
_exptl_crystal_recrystallization_method sublimation
_exptl_crystal_preparation       'blue luminescent'
loop_
_atom_site_label
_atom_site_type_symbol
_atom_site_fract_x
_atom_site_fract_y
_atom_site_fract_z
N1 N 0.1827(2) 0.40223(12) 0.15818(12)
N2 N 0.33707(19) 0.33010(11) 0.17235(11)
C1 C 0.0391(3) 0.35541(16) 0.20608(17)
H2 H -0.074(3) 0.3936(17) 0.2051(16)
C2 C 0.0977(2) 0.24847(16) 0.25392(16)
H3 H 0.025(3) 0.1883(19) 0.2979(18)
C3 C 0.2841(2) 0.23584(13) 0.23125(13)
C4 C 0.4173(2) 0.13589(13) 0.26460(13)
C5 C 0.4320(2) 0.05123(13) 0.22551(13)
C6 C 0.3256(3) 0.05612(16) 0.15330(16)
H4 H 0.239(3) 0.1158(16) 0.1320(14)
C7 C 0.3462(3) -0.02657(18) 0.1160(2)
H5 H 0.279(3) -0.0183(18) 0.0616(18)
C8 C 0.4753(3) -0.12029(19) 0.1470(2)
H6 H 0.492(3) -0.175(2) 0.1213(18)
C9 C 0.5791(3) -0.12885(17) 0.21538(19)
H7 H 0.672(3) -0.194(2) 0.2409(18)
C10 C 0.5624(2) -0.04443(14) 0.25704(15)
C11 C 0.6703(3) -0.05221(16) 0.32695(16)
H8 H 0.760(3) -0.1196(18) 0.3500(16)
C12 C 0.6550(2) 0.02930(15) 0.36801(14)
C13 C 0.7610(3) 0.0199(2) 0.44327(17)
H9 H 0.839(3) -0.0468(19) 0.4653(17)
C14 C 0.7425(3) 0.0988(2) 0.48437(19)
H10 H 0.812(3) 0.089(2) 0.5409(19)
C15 C 0.6175(3) 0.1936(2) 0.45248(18)
H11 H 0.601(3) 0.248(2) 0.4830(19)
C16 C 0.5146(3) 0.20712(18) 0.38121(15)
H12 H 0.433(3) 0.2666(17) 0.3656(15)
C17 C 0.5268(2) 0.12623(14) 0.33607(13)
H24 H 0.190(3) 0.4715(19) 0.1227(17)
N3 N -0.20053(19) 0.35973(12) 0.95818(11)
N4 N -0.2744(2) 0.29255(14) 1.05296(12)
H1 H -0.376(3) 0.3151(18) 1.0903(17)
C18 C -0.1956(3) 0.19041(17) 1.06992(17)
H13 H -0.234(3) 0.1303(19) 1.1372(18)
C19 C -0.0625(3) 0.18835(16) 0.98350(16)
H14 H 0.022(3) 0.125(2) 0.9713(19)
C20 C -0.0704(2) 0.29518(13) 0.91565(13)
C21 C 0.0427(2) 0.33950(12) 0.81008(12)
C22 C 0.0086(2) 0.33135(14) 0.71704(13)
C23 C -0.1325(3) 0.28163(18) 0.72023(18)
H15 H -0.203(3) 0.2530(18) 0.7832(18)
C24 C -0.1590(4) 0.2715(2) 0.6303(2)
H16 H -0.261(4) 0.242(2) 0.632(2)
C25 C -0.0488(4) 0.3115(2) 0.53097(19)
H17 H -0.072(3) 0.304(2) 0.470(2)
C26 C 0.0848(4) 0.3604(2) 0.52330(17)
H18 H 0.159(3) 0.3917(18) 0.4596(19)
C27 C 0.1202(3) 0.37179(15) 0.61575(14)
C28 C 0.2585(3) 0.42074(17) 0.61047(15)
H19 H 0.337(3) 0.4500(18) 0.5422(18)
C29 C 0.2952(3) 0.42925(15) 0.70103(14)
C30 C 0.4384(3) 0.47839(19) 0.69604(19)
H20 H 0.515(3) 0.505(2) 0.623(2)
C31 C 0.4770(3) 0.4818(2) 0.7850(2)
H21 H 0.580(3) 0.510(2) 0.775(2)
C32 C 0.3755(3) 0.43635(17) 0.88606(17)
H22 H 0.411(3) 0.437(2) 0.9487(19)
C33 C 0.2344(2) 0.39043(14) 0.89599(14)
H23 H 0.161(3) 0.3552(15) 0.9683(16)
C34 C 0.1876(2) 0.38608(12) 0.80351(12)
loop_
_geom_bond_atom_site_label_1
_geom_bond_atom_site_label_2
_geom_bond_site_symmetry_1
_geom_bond_site_symmetry_2
N1 N2 1_555 1_555
N2 C3 1_555 1_555
N3 N4 1_555 1_555
N4 H1 1_555 1_555
C1 N1 1_555 1_555
H2 C1 1_555 1_555
C2 C1 1_555 1_555
H3 C2 1_555 1_555
C3 C2 1_555 1_555
C4 C3 1_555 1_555
C5 C4 1_555 1_555
C6 C5 1_555 1_555
H4 C6 1_555 1_555
C7 C6 1_555 1_555
H5 C7 1_555 1_555
C8 C7 1_555 1_555
H6 C8 1_555 1_555
C9 C8 1_555 1_555
H7 C9 1_555 1_555
C10 C5 1_555 1_555
C11 C10 1_555 1_555
H8 C11 1_555 1_555
C12 C11 1_555 1_555
C13 C12 1_555 1_555
H9 C13 1_555 1_555
C14 C13 1_555 1_555
H10 C14 1_555 1_555
C15 C14 1_555 1_555
H11 C15 1_555 1_555
C16 C15 1_555 1_555
H12 C16 1_555 1_555
C17 C4 1_555 1_555
C18 N4 1_555 1_555
H13 C18 1_555 1_555
C19 C18 1_555 1_555
H14 C19 1_555 1_555
C20 N3 1_555 1_555
C21 C20 1_555 1_555
C22 C21 1_555 1_555
C23 C22 1_555 1_555
H15 C23 1_555 1_555
C24 C23 1_555 1_555
H16 C24 1_555 1_555
C25 C24 1_555 1_555
H17 C25 1_555 1_555
C26 C25 1_555 1_555
H18 C26 1_555 1_555
C27 C22 1_555 1_555
C28 C27 1_555 1_555
H19 C28 1_555 1_555
C29 C28 1_555 1_555
C30 C29 1_555 1_555
H20 C30 1_555 1_555
C31 C30 1_555 1_555
H21 C31 1_555 1_555
C32 C31 1_555 1_555
H22 C32 1_555 1_555
C33 C32 1_555 1_555
H23 C33 1_555 1_555
C34 C21 1_555 1_555
H24 N1 1_555 1_555
C9 C10 1_555 1_555
C12 C17 1_555 1_555
C16 C17 1_555 1_555
C19 C20 1_555 1_555
C26 C27 1_555 1_555
C29 C34 1_555 1_555
C33 C34 1_555 1_555

#END
