
#######################################################################
#
#                 Cambridge Crystallographic Data Centre
#                                CCDC 
#
#######################################################################
#
# If this CIF has been generated from an entry in the Cambridge 
# Structural Database, then it will include bibliographic, chemical, 
# crystal, experimental, refinement or atomic coordinate data resulting 
# from the CCDC's data processing and validation procedures.
#
#######################################################################

data_LEMNUP
_chemical_formula_moiety         'C17 H18 N4 2+,4(H2 O1),2(Br1 1-)'
_chemical_name_systematic        
"1,1'-(propane-1,3-diyl)bis(1H-benzimidazol-3-ium) dibromide tetrahydrate"
_symmetry_cell_setting           monoclinic
_symmetry_space_group_name_H-M   'C 2/c'
_symmetry_Int_Tables_number      15
_space_group_name_Hall           '-C 2yn'
loop_
_symmetry_equiv_pos_site_id
_symmetry_equiv_pos_as_xyz
1 x,y,z
2 -x,y,1/2-z
3 1/2+x,1/2+y,z
4 1/2-x,1/2+y,1/2-z
5 -x,-y,-z
6 x,-y,1/2+z
7 1/2-x,1/2-y,-z
8 1/2+x,1/2-y,1/2+z
_cell_length_a                   21.429(2)
_cell_length_b                   7.8319(6)
_cell_length_c                   15.6572(13)
_cell_angle_alpha                90
_cell_angle_beta                 124.447(2)
_cell_angle_gamma                90
_cell_volume                     2166.97
_exptl_crystal_colour            colorless
_exptl_crystal_description       block
_cell_formula_units_Z            4
loop_
_atom_site_label
_atom_site_type_symbol
_atom_site_fract_x
_atom_site_fract_y
_atom_site_fract_z
Br1 Br 0.19995(2) 0.46466(8) 0.39407(4)
N1 N 0.44954(19) 0.3251(4) 0.5632(3)
C1 C 0.4942(2) 0.2767(5) 0.5287(3)
C2 C 0.4459(2) 0.1979(5) 0.4330(3)
N2 N 0.37444(17) 0.2023(5) 0.4144(3)
H1 H 0.3337 0.1618 0.3606
C3 C 0.4721(2) 0.1320(6) 0.3770(3)
H2 H 0.4399 0.0780 0.3136
C4 C 0.5705(2) 0.2937(6) 0.5707(4)
H3 H 0.6030 0.3473 0.6341
C5 C 0.3793(2) 0.2784(7) 0.4924(4)
H4 H 0.3386 0.2970 0.4972
C6 C 0.5476(3) 0.1499(6) 0.4194(4)
H5 H 0.5672 0.1086 0.3835
C7 C 0.5962(2) 0.2282(7) 0.5150(4)
H6 H 0.6474 0.2361 0.5417
C8 C 0.5000 0.3032(8) 0.7500
H7 H 0.4585 0.2309 0.7362
C9 C 0.4750(3) 0.4183(6) 0.6585(3)
H8 H 0.4342 0.4905 0.6469
H9 H 0.5169 0.4918 0.6750
H7A H 0.5415 0.2309 0.7638
N1A N 0.55046(19) 0.3251(4) 0.9368(3)
C1A C 0.5058(2) 0.2767(5) 0.9713(3)
C2A C 0.5541(2) 0.1979(5) 1.0670(3)
N2A N 0.62556(17) 0.2023(5) 1.0856(3)
H1A H 0.6663 0.1618 1.1394
C3A C 0.5279(2) 0.1320(6) 1.1230(3)
H2A H 0.5601 0.0780 1.1864
C4A C 0.4295(2) 0.2937(6) 0.9293(4)
H3A H 0.3970 0.3473 0.8659
C5A C 0.6207(2) 0.2784(7) 1.0076(4)
H4A H 0.6614 0.2970 1.0028
C6A C 0.4524(3) 0.1499(6) 1.0806(4)
H5A H 0.4328 0.1086 1.1165
C7A C 0.4038(2) 0.2282(7) 0.9850(4)
H6A H 0.3526 0.2361 0.9583
C9A C 0.5250(3) 0.4183(6) 0.8415(3)
H8A H 0.5658 0.4905 0.8531
H9A H 0.4831 0.4918 0.8250
O1 O 0.24585(14) 0.0554(5) 0.2600(2)
H11 H 0.2285 -0.0180 0.2814
H12 H 0.2564 0.0058 0.2213
O2 O 0.18599(17) 0.8930(5) 0.3553(3)
H13 H 0.1876 0.7849 0.3609
H14 H 0.2136 0.9355 0.4157
H10? H 0.4585 0.2309 0.7362
loop_
_geom_bond_atom_site_label_1
_geom_bond_atom_site_label_2
_geom_bond_site_symmetry_1
_geom_bond_site_symmetry_2
N1 C1 1_555 1_555
C1 C2 1_555 1_555
C2 N2 1_555 1_555
N2 H1 1_555 1_555
C3 C2 1_555 1_555
H2 C3 1_555 1_555
C4 C1 1_555 1_555
H3 C4 1_555 1_555
C5 N1 1_555 1_555
H4 C5 1_555 1_555
C6 C3 1_555 1_555
H5 C6 1_555 1_555
C7 C4 1_555 1_555
H6 C7 1_555 1_555
C8 H7 1_555 1_555
C9 N1 1_555 1_555
H8 C9 1_555 1_555
H9 C9 1_555 1_555
O1 H11 1_555 1_555
H12 O1 1_555 1_555
O2 H13 1_555 1_555
H14 O2 1_555 1_555
H7A C8 1_555 1_555
N1A C1A 1_555 1_555
C1A C2A 1_555 1_555
C2A N2A 1_555 1_555
N2A H1A 1_555 1_555
C3A C2A 1_555 1_555
H2A C3A 1_555 1_555
C4A C1A 1_555 1_555
H3A C4A 1_555 1_555
C5A N1A 1_555 1_555
H4A C5A 1_555 1_555
C6A C3A 1_555 1_555
H5A C6A 1_555 1_555
C7A C4A 1_555 1_555
H6A C7A 1_555 1_555
C9A C8 1_555 1_555
H8A C9A 1_555 1_555
H9A C9A 1_555 1_555
N2 C5 1_555 1_555
C6 C7 1_555 1_555
C8 C9 1_555 1_555
N1A C9A 1_555 1_555
N2A C5A 1_555 1_555
C6A C7A 1_555 1_555

#END
