
#######################################################################
#
#                 Cambridge Crystallographic Data Centre
#                                CCDC 
#
#######################################################################
#
# If this CIF has been generated from an entry in the Cambridge 
# Structural Database, then it will include bibliographic, chemical, 
# crystal, experimental, refinement or atomic coordinate data resulting 
# from the CCDC's data processing and validation procedures.
#
#######################################################################

data_LEMNEZ
_chemical_formula_moiety         'C16 H16 N4 2+,2(H2 O1),2(Cl1 1-)'
_chemical_name_systematic        
"1,1'-(ethane-1,2-diyl)bis(1H-benzimidazol-3-ium) dichloride dihydrate"
_symmetry_cell_setting           triclinic
_symmetry_space_group_name_H-M   'P -1'
_symmetry_Int_Tables_number      2
_space_group_name_Hall           '-P 1'
loop_
_symmetry_equiv_pos_site_id
_symmetry_equiv_pos_as_xyz
1 x,y,z
2 -x,-y,-z
_cell_length_a                   7.0960(5)
_cell_length_b                   8.1891(7)
_cell_length_c                   8.9119(8)
_cell_angle_alpha                110.431(2)
_cell_angle_beta                 92.3400(10)
_cell_angle_gamma                114.409(2)
_cell_volume                     431.396
_exptl_crystal_colour            colorless
_exptl_crystal_description       block
_cell_formula_units_Z            1
loop_
_atom_site_label
_atom_site_type_symbol
_atom_site_fract_x
_atom_site_fract_y
_atom_site_fract_z
Cl1 Cl 0.13618(10) 0.86142(9) 0.09264(7)
N1 N 0.4027(3) 0.7295(2) 0.4071(2)
N2 N 0.1745(3) 0.4393(3) 0.23711(19)
H1 H 0.0951 0.3428 0.1469
C1 C 0.5553(3) 0.9371(3) 0.4689(3)
H2 H 0.6216 0.9649 0.3818
H3 H 0.6653 0.9677 0.5571
C2 C 0.3026(4) 0.6172(3) 0.2518(3)
H4 H 0.3202 0.6582 0.1660
C3 C 0.1878(3) 0.4319(3) 0.3893(2)
C4 C 0.3340(3) 0.6188(3) 0.4994(2)
C5 C 0.3874(4) 0.6635(3) 0.6647(2)
H5 H 0.4858 0.7881 0.7382
C6 C 0.2880(4) 0.5148(4) 0.7143(3)
H6 H 0.3194 0.5395 0.8248
C7 C 0.1410(4) 0.3271(3) 0.6048(3)
H7 H 0.0768 0.2303 0.6440
C8 C 0.0891(3) 0.2822(3) 0.4401(3)
H8 H -0.0080 0.1571 0.3666
N1A N 0.5973(3) 1.2705(2) 0.5929(2)
N2A N 0.8255(3) 1.5607(3) 0.76289(19)
H1A H 0.9049 1.6572 0.8531
C1A C 0.4447(3) 1.0629(3) 0.5311(3)
H2A H 0.3784 1.0351 0.6182
H3A H 0.3347 1.0323 0.4429
C2A C 0.6974(4) 1.3828(3) 0.7482(3)
H4A H 0.6798 1.3418 0.8340
C3A C 0.8122(3) 1.5681(3) 0.6107(2)
C4A C 0.6660(3) 1.3812(3) 0.5006(2)
C5A C 0.6126(4) 1.3365(3) 0.3353(2)
H5A H 0.5142 1.2119 0.2618
C6A C 0.7120(4) 1.4852(4) 0.2857(3)
H6A H 0.6806 1.4605 0.1752
C7A C 0.8590(4) 1.6729(3) 0.3952(3)
H7A H 0.9232 1.7697 0.3560
C8A C 0.9109(3) 1.7178(3) 0.5599(3)
H8A H 1.0080 1.8429 0.6334
O1 O 0.6778(3) 0.8540(3) 0.10432(19)
H9 H 0.7881 0.8381 0.1135
H10 H 0.6972 0.9281 0.0533
loop_
_geom_bond_atom_site_label_1
_geom_bond_atom_site_label_2
_geom_bond_site_symmetry_1
_geom_bond_site_symmetry_2
N1 C1 1_555 1_555
N2 H1 1_555 1_555
C1 H2 1_555 1_555
H3 C1 1_555 1_555
C2 N1 1_555 1_555
H4 C2 1_555 1_555
C3 N2 1_555 1_555
C4 N1 1_555 1_555
C5 C4 1_555 1_555
H5 C5 1_555 1_555
C6 C5 1_555 1_555
H6 C6 1_555 1_555
C7 C6 1_555 1_555
H7 C7 1_555 1_555
C8 C3 1_555 1_555
H8 C8 1_555 1_555
O1 H9 1_555 1_555
H10 O1 1_555 1_555
N1A C1A 1_555 1_555
N2A H1A 1_555 1_555
C1A C1 1_555 1_555
H2A C1A 1_555 1_555
H3A C1A 1_555 1_555
C2A N1A 1_555 1_555
H4A C2A 1_555 1_555
C3A N2A 1_555 1_555
C4A N1A 1_555 1_555
C5A C4A 1_555 1_555
H5A C5A 1_555 1_555
C6A C5A 1_555 1_555
H6A C6A 1_555 1_555
C7A C6A 1_555 1_555
H7A C7A 1_555 1_555
C8A C3A 1_555 1_555
H8A C8A 1_555 1_555
N2 C2 1_555 1_555
C3 C4 1_555 1_555
C7 C8 1_555 1_555
N2A C2A 1_555 1_555
C3A C4A 1_555 1_555
C7A C8A 1_555 1_555

#END
