
#######################################################################
#
#                 Cambridge Crystallographic Data Centre
#                                CCDC 
#
#######################################################################
#
# If this CIF has been generated from an entry in the Cambridge 
# Structural Database, then it will include bibliographic, chemical, 
# crystal, experimental, refinement or atomic coordinate data resulting 
# from the CCDC's data processing and validation procedures.
#
#######################################################################

data_LEMVIL
_chemical_formula_moiety         'C12 H13 N1 O2 S1'
_chemical_name_systematic        
N-(2-methylphenyl)-2-(2H-1,3-oxathiol-2-yl)acetamide
_symmetry_cell_setting           monoclinic
_symmetry_space_group_name_H-M   'P 21/c'
_symmetry_Int_Tables_number      14
_space_group_name_Hall           '-P 2ybc'
loop_
_symmetry_equiv_pos_site_id
_symmetry_equiv_pos_as_xyz
1 x,y,z
2 -x,1/2+y,1/2-z
3 -x,-y,-z
4 x,1/2-y,1/2+z
_cell_length_a                   4.7963(7)
_cell_length_b                   22.250(3)
_cell_length_c                   10.6610(15)
_cell_angle_alpha                90
_cell_angle_beta                 97.274(2)
_cell_angle_gamma                90
_cell_volume                     1128.56
_exptl_crystal_colour            colorless
_exptl_crystal_description       needle
_cell_formula_units_Z            4
loop_
_atom_site_label
_atom_site_type_symbol
_atom_site_fract_x
_atom_site_fract_y
_atom_site_fract_z
S1 S 0.20470(13) 0.24973(2) 0.76608(6)
O1 O 0.3568(2) 0.35929(5) 0.84890(9)
O2 O 0.1195(3) 0.36832(6) 0.52443(12)
N1 N 0.5366(3) 0.39078(6) 0.45633(12)
C1 C 0.3775(3) 0.31269(8) 0.74408(15)
C2 C 0.1704(4) 0.32745(11) 0.93128(18)
H1 H 0.114116 0.345788 1.004517
C3 C 0.0881(4) 0.27138(10) 0.8951(2)
H2 H -0.026921 0.247006 0.940689
C4 C 0.5352(4) 0.32245(8) 0.63341(16)
H3 H 0.569789 0.283134 0.594723
H4 H 0.719805 0.340792 0.663118
C5 C 0.3753(3) 0.36311(7) 0.53349(14)
C6 C 0.4262(3) 0.42989(7) 0.35640(14)
C7 C 0.5036(3) 0.42184(7) 0.23546(14)
C8 C 0.3868(4) 0.46083(8) 0.14023(15)
H5 H 0.435416 0.456156 0.057118
C9 C 0.2017(4) 0.50621(8) 0.16384(16)
H6 H 0.123391 0.531780 0.097164
C10 C 0.1312(4) 0.51414(7) 0.28537(17)
H7 H 0.006922 0.545469 0.302501
C11 C 0.2440(3) 0.47592(7) 0.38121(15)
H8 H 0.196745 0.481132 0.464413
C12 C 0.7069(4) 0.37370(8) 0.20786(16)
H9 H 0.698175 0.368462 0.116177
H10 H 0.657211 0.335807 0.246337
H11 H 0.897798 0.385411 0.243072
H12 H 0.710(5) 0.3871(9) 0.470(2)
loop_
_geom_bond_atom_site_label_1
_geom_bond_atom_site_label_2
_geom_bond_site_symmetry_1
_geom_bond_site_symmetry_2
S1 C1 1_555 1_555
O1 C1 1_555 1_555
O2 C5 1_555 1_555
N1 C5 1_555 1_555
C1 C4 1_555 1_555
C2 O1 1_555 1_555
H1 C2 1_555 1_555
C3 S1 1_555 1_555
H2 C3 1_555 1_555
C4 H3 1_555 1_555
H4 C4 1_555 1_555
C5 C4 1_555 1_555
C6 N1 1_555 1_555
C7 C6 1_555 1_555
C8 C7 1_555 1_555
H5 C8 1_555 1_555
C9 C8 1_555 1_555
H6 C9 1_555 1_555
C10 C9 1_555 1_555
H7 C10 1_555 1_555
C11 C6 1_555 1_555
H8 C11 1_555 1_555
C12 C7 1_555 1_555
H9 C12 1_555 1_555
H10 C12 1_555 1_555
H11 C12 1_555 1_555
H12 N1 1_555 1_555
C2 C3 1_555 1_555
C10 C11 1_555 1_555

#END
